0:0
     RDKit          3D

 40 41  0  0  0  0  0  0  0  0999 V2000
   -0.8640   24.9240  -28.4670 C   0  0  0  0  0  0  0  0  0  0  0  0
   -2.1920   25.1970  -28.8590 O   0  0  0  0  0  0  0  0  0  0  0  0
   -3.0950   24.3530  -28.1690 C   0  0  0  0  0  0  0  0  0  0  0  0
   -3.2700   23.0310  -28.9110 C   0  0  0  0  0  0  0  0  0  0  0  0
   -2.8300   23.1730  -30.2580 O   0  0  0  0  0  0  0  0  0  0  0  0
   -3.5660   22.7040  -31.3490 C   0  0  0  0  0  0  0  0  0  0  0  0
   -2.9770   22.2290  -32.3590 O   0  0  0  0  0  0  0  0  0  0  0  0
   -5.0000   22.7790  -31.3230 N   0  0  0  0  0  0  0  0  0  0  0  0
   -5.7680   23.8650  -31.0220 C   0  0  0  0  0  0  0  0  0  0  0  0
   -5.2780   25.1510  -30.4840 C   0  0  0  0  0  0  0  0  0  0  0  0
   -4.0090   25.6710  -30.8680 N   0  0  0  0  0  0  0  0  0  0  0  0
   -5.9700   25.7750  -29.6340 O   0  0  0  0  0  0  0  0  0  0  0  0
   -7.1170   23.5760  -31.2120 C   0  0  0  0  0  0  0  0  0  0  0  0
   -7.1540   22.2670  -31.6350 C   0  0  0  0  0  0  0  0  0  0  0  0
   -8.2370   21.4720  -31.9830 C   0  0  0  0  0  0  0  0  0  0  0  0
   -7.9820   20.1600  -32.4160 C   0  0  0  0  0  0  0  0  0  0  0  0
   -6.6520   19.6610  -32.5070 C   0  0  0  0  0  0  0  0  0  0  0  0
   -6.3980   18.3070  -32.9680 N   0  0  0  0  0  0  0  0  0  0  0  0
   -6.0450   18.0500  -34.3700 C   0  0  0  0  0  0  0  0  0  0  0  0
   -6.4940   17.1720  -32.0420 C   0  0  0  0  0  0  0  0  0  0  0  0
   -5.5770   20.5130  -32.1410 C   0  0  0  0  0  0  0  0  0  0  0  0
   -5.8650   21.8090  -31.6950 C   0  0  0  0  0  0  0  0  0  0  0  0
   -0.8011   24.9111  -27.3689 H   0  0  0  0  0  0  0  0  0  0  0  0
   -0.5587   23.9443  -28.8633 H   0  0  0  0  0  0  0  0  0  0  0  0
   -0.1970   25.7038  -28.8633 H   0  0  0  0  0  0  0  0  0  0  0  0
   -2.7035   24.1524  -27.1608 H   0  0  0  0  0  0  0  0  0  0  0  0
   -4.0715   24.8555  -28.1056 H   0  0  0  0  0  0  0  0  0  0  0  0
   -2.6756   22.2509  -28.4128 H   0  0  0  0  0  0  0  0  0  0  0  0
   -4.3329   22.7478  -28.9036 H   0  0  0  0  0  0  0  0  0  0  0  0
   -3.1260   25.2970  -30.4550 H   0  0  0  0  0  0  0  0  0  0  0  0
   -7.9717   24.2509  -31.0569 H   0  0  0  0  0  0  0  0  0  0  0  0
   -9.2653   21.8579  -31.9216 H   0  0  0  0  0  0  0  0  0  0  0  0
   -8.8243   19.5074  -32.6893 H   0  0  0  0  0  0  0  0  0  0  0  0
   -5.1564   17.4030  -34.4117 H   0  0  0  0  0  0  0  0  0  0  0  0
   -6.8857   17.5511  -34.8743 H   0  0  0  0  0  0  0  0  0  0  0  0
   -5.8285   19.0033  -34.8743 H   0  0  0  0  0  0  0  0  0  0  0  0
   -6.4628   17.5404  -31.0060 H   0  0  0  0  0  0  0  0  0  0  0  0
   -7.4405   16.6383  -32.2131 H   0  0  0  0  0  0  0  0  0  0  0  0
   -5.6506   16.4869  -32.2131 H   0  0  0  0  0  0  0  0  0  0  0  0
   -4.5367   20.1616  -32.2065 H   0  0  0  0  0  0  0  0  0  0  0  0
  1  2  1  0
  2  3  1  0
  3  4  1  0
  4  5  1  0
  5  6  1  0
  6  7  2  0
  6  8  1  0
  8  9  1  0
  9 10  1  0
 10 11  1  0
 10 12  2  0
  9 13  2  0
 13 14  1  0
 14 15  2  0
 15 16  1  0
 16 17  2  0
 17 18  1  0
 18 19  1  0
 18 20  1  0
 17 21  1  0
 21 22  2  0
 22  8  1  0
 22 14  1  0
  1 23  1  0
  1 24  1  0
  1 25  1  0
  3 26  1  0
  3 27  1  0
  4 28  1  0
  4 29  1  0
 11 30  1  0
 13 31  1  0
 15 32  1  0
 16 33  1  0
 19 34  1  0
 19 35  1  0
 19 36  1  0
 20 37  1  0
 20 38  1  0
 20 39  1  0
 21 40  1  0
M  CHG  1  11  -1
M  END
>  <UniqueID>  (1) 
1

>  <SMILES>  (1) 
COCCOC(=O)n1c(C([NH-])=O)cc2ccc(N(C)C)cc21

>  <Energy>  (1) 
77.82463462575721

>  <Genealogy>  (1) 
COCCOC(=O)n1c(C([NH-])=O)cc2ccc(N(C)C)cc21 (protonated)
COCCOC(=O)n1c(C([NH-])=O)cc2ccc(N(C)C)cc21 (3D coordinates assigned)
COCCOC(=O)n1c(C([NH-])=O)cc2ccc(N(C)C)cc21 (optimized conformer: 77.82463462575721 kcal/mol)

>  <smiles>  (1) 
COCCOC(=O)n1c(C(N)=O)cc2ccc(N(C)C)cc21

>  <score_type>  (1) 
oracle

>  <origin>  (1) 
adg

>  <m_score__min__energy>  (1) 
-9.7899999999999991

>  <m_primary>  (1) 
energy

$$$$
1:0
     RDKit          3D

 27 28  0  0  0  0  0  0  0  0999 V2000
   -6.7550   18.5070  -32.9650 C   0  0  0  0  0  0  0  0  0  0  0  0
   -6.9340   19.9080  -32.4630 C   0  0  0  0  0  0  0  0  0  0  0  0
   -8.2300   20.4760  -32.3940 C   0  0  0  0  0  0  0  0  0  0  0  0
   -8.4090   21.7970  -31.9470 C   0  0  0  0  0  0  0  0  0  0  0  0
   -7.2760   22.5260  -31.5980 C   0  0  0  0  0  0  0  0  0  0  0  0
   -7.1640   23.8110  -31.1170 C   0  0  0  0  0  0  0  0  0  0  0  0
   -5.7990   24.0210  -30.9370 C   0  0  0  0  0  0  0  0  0  0  0  0
   -5.2260   25.3150  -30.5100 C   0  0  0  0  0  0  0  0  0  0  0  0
   -3.8860   25.6690  -30.8420 N   0  0  0  0  0  0  0  0  0  0  0  0
   -5.9450   26.1390  -29.8860 O   0  0  0  0  0  0  0  0  0  0  0  0
   -5.0940   22.9060  -31.2850 N   0  0  0  0  0  0  0  0  0  0  0  0
   -3.6790   22.6860  -31.1710 C   0  0  0  0  0  0  0  0  0  0  0  0
   -3.0350   22.2400  -32.1590 O   0  0  0  0  0  0  0  0  0  0  0  0
   -3.0290   22.9950  -29.9690 O   0  0  0  0  0  0  0  0  0  0  0  0
   -1.6880   23.3860  -29.8590 C   0  0  0  0  0  0  0  0  0  0  0  0
   -1.3640   24.4890  -29.3420 O   0  0  0  0  0  0  0  0  0  0  0  0
   -0.7190   22.5600  -30.3210 F   0  0  0  0  0  0  0  0  0  0  0  0
   -6.0130   22.0010  -31.6900 C   0  0  0  0  0  0  0  0  0  0  0  0
   -5.8070   20.6830  -32.1140 C   0  0  0  0  0  0  0  0  0  0  0  0
   -6.6672   17.8198  -32.1106 H   0  0  0  0  0  0  0  0  0  0  0  0
   -7.6241   18.2227  -33.5764 H   0  0  0  0  0  0  0  0  0  0  0  0
   -5.8423   18.4504  -33.5764 H   0  0  0  0  0  0  0  0  0  0  0  0
   -9.1038   19.8784  -32.6927 H   0  0  0  0  0  0  0  0  0  0  0  0
   -9.4131   22.2404  -31.8754 H   0  0  0  0  0  0  0  0  0  0  0  0
   -7.9797   24.5214  -30.9172 H   0  0  0  0  0  0  0  0  0  0  0  0
   -3.0770   25.1370  -30.4520 H   0  0  0  0  0  0  0  0  0  0  0  0
   -4.7926   20.2619  -32.1737 H   0  0  0  0  0  0  0  0  0  0  0  0
  1  2  1  0
  2  3  2  0
  3  4  1  0
  4  5  2  0
  5  6  1  0
  6  7  2  0
  7  8  1  0
  8  9  1  0
  8 10  2  0
  7 11  1  0
 11 12  1  0
 12 13  2  0
 12 14  1  0
 14 15  1  0
 15 16  2  0
 15 17  1  0
 11 18  1  0
 18 19  2  0
 19  2  1  0
 18  5  1  0
  1 20  1  0
  1 21  1  0
  1 22  1  0
  3 23  1  0
  4 24  1  0
  6 25  1  0
  9 26  1  0
 19 27  1  0
M  CHG  1   9  -1
M  END
>  <UniqueID>  (2) 
2

>  <SMILES>  (2) 
Cc1ccc2cc(C([NH-])=O)n(C(=O)OC(=O)F)c2c1

>  <Energy>  (2) 
67.34574575612879

>  <Genealogy>  (2) 
Cc1ccc2cc(C([NH-])=O)n(C(=O)OC(=O)F)c2c1 (protonated)
Cc1ccc2cc(C([NH-])=O)n(C(=O)OC(=O)F)c2c1 (3D coordinates assigned)
Cc1ccc2cc(C([NH-])=O)n(C(=O)OC(=O)F)c2c1 (optimized conformer: 67.34574575612879 kcal/mol)

>  <smiles>  (2) 
Cc1ccc2cc(C(N)=O)n(C(=O)OC(=O)F)c2c1

>  <score_type>  (2) 
oracle

>  <origin>  (2) 
adg

>  <m_score__min__energy>  (2) 
-8.9499999999999993

>  <m_primary>  (2) 
energy

$$$$
2:0
     RDKit          3D

 35 37  0  0  0  0  0  0  0  0999 V2000
   -4.1850   25.5060  -30.6290 N   0  0  0  0  0  0  0  0  0  0  0  0
   -5.5520   25.1110  -30.4930 C   0  0  0  0  0  0  0  0  0  0  0  0
   -6.3860   25.9150  -29.9960 O   0  0  0  0  0  0  0  0  0  0  0  0
   -6.0170   23.8110  -31.0110 C   0  0  0  0  0  0  0  0  0  0  0  0
   -7.3640   23.4960  -31.1270 C   0  0  0  0  0  0  0  0  0  0  0  0
   -7.3940   22.2420  -31.6820 C   0  0  0  0  0  0  0  0  0  0  0  0
   -8.4890   21.4590  -32.0300 C   0  0  0  0  0  0  0  0  0  0  0  0
   -8.2450   20.2000  -32.5980 C   0  0  0  0  0  0  0  0  0  0  0  0
   -6.9230   19.7420  -32.8200 C   0  0  0  0  0  0  0  0  0  0  0  0
   -6.7570   18.3670  -33.4450 C   0  0  0  0  0  0  0  0  0  0  0  0
   -5.7450   18.2230  -34.5740 C   0  0  0  0  0  0  0  0  0  0  0  0
   -5.4390   17.6440  -33.1980 C   0  0  0  0  0  0  0  0  0  0  0  0
   -5.8310   20.5770  -32.4560 C   0  0  0  0  0  0  0  0  0  0  0  0
   -6.0990   21.8270  -31.8720 C   0  0  0  0  0  0  0  0  0  0  0  0
   -5.2290   22.7820  -31.4460 N   0  0  0  0  0  0  0  0  0  0  0  0
   -3.7880   22.6830  -31.3370 C   0  0  0  0  0  0  0  0  0  0  0  0
   -3.0940   22.3880  -32.3510 O   0  0  0  0  0  0  0  0  0  0  0  0
   -3.1470   22.9480  -30.1210 O   0  0  0  0  0  0  0  0  0  0  0  0
   -1.7300   23.0160  -29.9700 C   0  0  0  0  0  0  0  0  0  0  0  0
   -1.3340   24.3150  -29.3420 C   0  0  0  0  0  0  0  0  0  0  0  0
   -2.1310   25.2940  -29.3500 O   0  0  0  0  0  0  0  0  0  0  0  0
   -0.0880   24.4400  -28.7360 O   0  0  0  0  0  0  0  0  0  0  0  0
   -3.8640   26.4270  -30.2590 H   0  0  0  0  0  0  0  0  0  0  0  0
   -3.5050   24.9040  -31.1480 H   0  0  0  0  0  0  0  0  0  0  0  0
   -8.2230   24.1185  -30.8362 H   0  0  0  0  0  0  0  0  0  0  0  0
   -9.5161   21.8163  -31.8648 H   0  0  0  0  0  0  0  0  0  0  0  0
   -9.0939   19.5579  -32.8756 H   0  0  0  0  0  0  0  0  0  0  0  0
   -7.8205   18.1156  -33.3193 H   0  0  0  0  0  0  0  0  0  0  0  0
   -5.9556   17.5510  -35.4190 H   0  0  0  0  0  0  0  0  0  0  0  0
   -5.2354   18.9201  -35.2554 H   0  0  0  0  0  0  0  0  0  0  0  0
   -5.4289   16.5541  -33.0497 H   0  0  0  0  0  0  0  0  0  0  0  0
   -4.6172   17.7500  -32.4746 H   0  0  0  0  0  0  0  0  0  0  0  0
   -4.7949   20.2504  -32.6285 H   0  0  0  0  0  0  0  0  0  0  0  0
   -1.3935   22.1868  -29.3304 H   0  0  0  0  0  0  0  0  0  0  0  0
   -1.2615   22.9421  -30.9625 H   0  0  0  0  0  0  0  0  0  0  0  0
  1  2  1  0
  2  3  2  0
  2  4  1  0
  4  5  2  0
  5  6  1  0
  6  7  2  0
  7  8  1  0
  8  9  2  0
  9 10  1  0
 10 11  1  0
 11 12  1  0
  9 13  1  0
 13 14  2  0
 14 15  1  0
 15 16  1  0
 16 17  2  0
 16 18  1  0
 18 19  1  0
 19 20  1  0
 20 21  2  0
 20 22  1  0
 15  4  1  0
 14  6  1  0
 12 10  1  0
  1 23  1  0
  1 24  1  0
  5 25  1  0
  7 26  1  0
  8 27  1  0
 10 28  1  0
 11 29  1  0
 11 30  1  0
 12 31  1  0
 12 32  1  0
 13 33  1  0
 19 34  1  0
 19 35  1  0
M  CHG  1  22  -1
M  END
>  <UniqueID>  (3) 
3

>  <SMILES>  (3) 
NC(=O)c1cc2ccc(C3CC3)cc2n1C(=O)OCC(=O)[O-]

>  <Energy>  (3) 
343.7528410276979

>  <Genealogy>  (3) 
NC(=O)c1cc2ccc(C3CC3)cc2n1C(=O)OCC(=O)[O-] (protonated)
NC(=O)c1cc2ccc(C3CC3)cc2n1C(=O)OCC(=O)[O-] (3D coordinates assigned)
NC(=O)c1cc2ccc(C3CC3)cc2n1C(=O)OCC(=O)[O-] (nonaromatic ring conformer: 343.7528410276979 kcal/mol)

>  <smiles>  (3) 
NC(=O)c1cc2ccc(C3CC3)cc2n1C(=O)OCC(=O)O

>  <score_type>  (3) 
oracle

>  <origin>  (3) 
adg

>  <m_score__min__energy>  (3) 
-10.720000000000001

>  <m_primary>  (3) 
energy

$$$$
3:0
     RDKit          3D

 47 48  0  0  0  0  0  0  0  0999 V2000
   -4.6200   17.4400  -34.9880 C   0  0  0  0  0  0  0  0  0  0  0  0
   -5.0770   16.4530  -33.9940 N   0  0  0  0  0  0  0  0  0  0  0  0
   -4.4080   15.1650  -34.2320 C   0  0  0  0  0  0  0  0  0  0  0  0
   -6.5480   16.2960  -34.0370 C   0  0  0  0  0  0  0  0  0  0  0  0
   -7.2380   17.2970  -33.1000 C   0  0  0  0  0  0  0  0  0  0  0  0
   -6.2660   18.2110  -32.4940 N   0  0  0  0  0  0  0  0  0  0  0  0
   -6.5170   19.5930  -32.1730 C   0  0  0  0  0  0  0  0  0  0  0  0
   -7.8510   20.0730  -32.2000 C   0  0  0  0  0  0  0  0  0  0  0  0
   -8.1460   21.4090  -31.8800 C   0  0  0  0  0  0  0  0  0  0  0  0
   -7.0880   22.2470  -31.5440 C   0  0  0  0  0  0  0  0  0  0  0  0
   -7.0850   23.5690  -31.1530 C   0  0  0  0  0  0  0  0  0  0  0  0
   -5.7480   23.8780  -30.9090 C   0  0  0  0  0  0  0  0  0  0  0  0
   -5.2710   25.2080  -30.4760 C   0  0  0  0  0  0  0  0  0  0  0  0
   -3.9800   25.6650  -30.8760 N   0  0  0  0  0  0  0  0  0  0  0  0
   -5.9860   25.9400  -29.7430 O   0  0  0  0  0  0  0  0  0  0  0  0
   -4.9590   22.7970  -31.1530 N   0  0  0  0  0  0  0  0  0  0  0  0
   -3.5490   22.6680  -30.9180 C   0  0  0  0  0  0  0  0  0  0  0  0
   -2.7900   22.3830  -31.8840 O   0  0  0  0  0  0  0  0  0  0  0  0
   -2.9950   22.8750  -29.6030 N   0  0  0  0  0  0  0  0  0  0  0  0
   -3.9050   23.0740  -28.4720 C   0  0  0  0  0  0  0  0  0  0  0  0
   -1.5400   22.9450  -29.4040 C   0  0  0  0  0  0  0  0  0  0  0  0
   -1.1230   24.3480  -29.0990 C   0  0  0  0  0  0  0  0  0  0  0  0
   -1.9080   25.3050  -29.3300 O   0  0  0  0  0  0  0  0  0  0  0  0
    0.1360   24.6030  -28.5700 O   0  0  0  0  0  0  0  0  0  0  0  0
   -5.7920   21.8070  -31.5330 C   0  0  0  0  0  0  0  0  0  0  0  0
   -5.4670   20.4850  -31.8470 C   0  0  0  0  0  0  0  0  0  0  0  0
   -4.2123   18.3205  -34.4698 H   0  0  0  0  0  0  0  0  0  0  0  0
   -3.8382   16.9908  -35.6181 H   0  0  0  0  0  0  0  0  0  0  0  0
   -5.4683   17.7455  -35.6181 H   0  0  0  0  0  0  0  0  0  0  0  0
   -4.1639   14.6950  -33.2679 H   0  0  0  0  0  0  0  0  0  0  0  0
   -5.0769   14.5044  -34.8030 H   0  0  0  0  0  0  0  0  0  0  0  0
   -3.4829   15.3324  -34.8030 H   0  0  0  0  0  0  0  0  0  0  0  0
   -6.8977   16.4671  -35.0658 H   0  0  0  0  0  0  0  0  0  0  0  0
   -6.8005   15.2774  -33.7073 H   0  0  0  0  0  0  0  0  0  0  0  0
   -7.9701   17.8820  -33.6760 H   0  0  0  0  0  0  0  0  0  0  0  0
   -7.7368   16.7356  -32.2963 H   0  0  0  0  0  0  0  0  0  0  0  0
   -5.3050   17.8330  -32.3240 H   0  0  0  0  0  0  0  0  0  0  0  0
   -8.6673   19.3891  -32.4756 H   0  0  0  0  0  0  0  0  0  0  0  0
   -9.1813   21.7805  -31.8948 H   0  0  0  0  0  0  0  0  0  0  0  0
   -7.9529   24.2376  -31.0546 H   0  0  0  0  0  0  0  0  0  0  0  0
   -3.1140   25.2560  -30.4590 H   0  0  0  0  0  0  0  0  0  0  0  0
   -3.3507   22.9528  -27.5296 H   0  0  0  0  0  0  0  0  0  0  0  0
   -4.3319   24.0867  -28.5186 H   0  0  0  0  0  0  0  0  0  0  0  0
   -4.7156   22.3319  -28.5186 H   0  0  0  0  0  0  0  0  0  0  0  0
   -1.2570   22.2922  -28.5651 H   0  0  0  0  0  0  0  0  0  0  0  0
   -1.0374   22.6155  -30.3253 H   0  0  0  0  0  0  0  0  0  0  0  0
   -4.4207   20.1454  -31.8411 H   0  0  0  0  0  0  0  0  0  0  0  0
  1  2  1  0
  2  3  1  0
  2  4  1  0
  4  5  1  0
  5  6  1  0
  6  7  1  0
  7  8  2  0
  8  9  1  0
  9 10  2  0
 10 11  1  0
 11 12  2  0
 12 13  1  0
 13 14  1  0
 13 15  2  0
 12 16  1  0
 16 17  1  0
 17 18  2  0
 17 19  1  0
 19 20  1  0
 19 21  1  0
 21 22  1  0
 22 23  2  0
 22 24  1  0
 16 25  1  0
 25 26  2  0
 26  7  1  0
 25 10  1  0
  1 27  1  0
  1 28  1  0
  1 29  1  0
  3 30  1  0
  3 31  1  0
  3 32  1  0
  4 33  1  0
  4 34  1  0
  5 35  1  0
  5 36  1  0
  6 37  1  0
  8 38  1  0
  9 39  1  0
 11 40  1  0
 14 41  1  0
 20 42  1  0
 20 43  1  0
 20 44  1  0
 21 45  1  0
 21 46  1  0
 26 47  1  0
M  CHG  2  14  -1  24  -1
M  END
>  <UniqueID>  (4) 
4

>  <SMILES>  (4) 
CN(C)CCNc1ccc2cc(C([NH-])=O)n(C(=O)N(C)CC(=O)[O-])c2c1

>  <Energy>  (4) 
80.26273926914185

>  <Genealogy>  (4) 
CN(C)CCNc1ccc2cc(C([NH-])=O)n(C(=O)N(C)CC(=O)[O-])c2c1 (protonated)
CN(C)CCNc1ccc2cc(C([NH-])=O)n(C(=O)N(C)CC(=O)[O-])c2c1 (3D coordinates assigned)
CN(C)CCNc1ccc2cc(C([NH-])=O)n(C(=O)N(C)CC(=O)[O-])c2c1 (optimized conformer: 80.26273926914185 kcal/mol)

>  <smiles>  (4) 
CN(C)CCNc1ccc2cc(C(N)=O)n(C(=O)N(C)CC(=O)O)c2c1

>  <score_type>  (4) 
oracle

>  <origin>  (4) 
adg

>  <m_score__min__energy>  (4) 
-12.1

>  <m_primary>  (4) 
energy

$$$$
4:0
     RDKit          3D

 35 36  0  0  0  0  0  0  0  0999 V2000
   -3.8860   25.2740  -30.6690 N   0  0  0  0  0  0  0  0  0  0  0  0
   -5.2820   25.2160  -30.3860 C   0  0  0  0  0  0  0  0  0  0  0  0
   -5.8150   26.1490  -29.7310 O   0  0  0  0  0  0  0  0  0  0  0  0
   -6.0880   24.0830  -30.8920 C   0  0  0  0  0  0  0  0  0  0  0  0
   -7.4790   24.0530  -30.8430 C   0  0  0  0  0  0  0  0  0  0  0  0
   -7.8360   22.8270  -31.3510 C   0  0  0  0  0  0  0  0  0  0  0  0
   -9.1000   22.2790  -31.5480 C   0  0  0  0  0  0  0  0  0  0  0  0
   -9.1810   21.0000  -32.1190 C   0  0  0  0  0  0  0  0  0  0  0  0
   -8.0070   20.2890  -32.4810 C   0  0  0  0  0  0  0  0  0  0  0  0
   -8.1040   18.9830  -33.0900 N   0  0  0  0  0  0  0  0  0  0  0  0
   -7.4500   17.9270  -32.2930 C   0  0  0  0  0  0  0  0  0  0  0  0
   -5.9070   17.8600  -32.4250 C   0  0  2  0  0  0  0  0  0  0  0  0
   -5.2820   18.7080  -31.4910 O   0  0  0  0  0  0  0  0  0  0  0  0
   -5.3800   18.0790  -33.8630 C   0  0  0  0  0  0  0  0  0  0  0  0
   -5.1760   19.4410  -34.1200 O   0  0  0  0  0  0  0  0  0  0  0  0
   -6.7410   20.8930  -32.2850 C   0  0  0  0  0  0  0  0  0  0  0  0
   -6.6870   22.1610  -31.6920 C   0  0  0  0  0  0  0  0  0  0  0  0
   -5.6010   22.9200  -31.4140 N   0  0  0  0  0  0  0  0  0  0  0  0
   -4.2220   22.5950  -31.6660 C   0  0  0  0  0  0  0  0  0  0  0  0
   -3.8940   21.4620  -32.1070 O   0  0  0  0  0  0  0  0  0  0  0  0
   -3.4840   26.0520  -31.2380 H   0  0  0  0  0  0  0  0  0  0  0  0
   -8.1502   24.8432  -30.4755 H   0  0  0  0  0  0  0  0  0  0  0  0
  -10.0079   22.8318  -31.2647 H   0  0  0  0  0  0  0  0  0  0  0  0
  -10.1669   20.5424  -32.2883 H   0  0  0  0  0  0  0  0  0  0  0  0
   -9.1210   18.7450  -33.1700 H   0  0  0  0  0  0  0  0  0  0  0  0
   -7.7300   18.9880  -34.0660 H   0  0  0  0  0  0  0  0  0  0  0  0
   -7.6937   18.0996  -31.2343 H   0  0  0  0  0  0  0  0  0  0  0  0
   -7.8312   16.9712  -32.6817 H   0  0  0  0  0  0  0  0  0  0  0  0
   -5.6291   16.8227  -32.1866 H   0  0  0  0  0  0  0  0  0  0  0  0
   -4.8350   19.4460  -31.9760 H   0  0  0  0  0  0  0  0  0  0  0  0
   -4.4266   17.5435  -33.9824 H   0  0  0  0  0  0  0  0  0  0  0  0
   -6.1280   17.6962  -34.5729 H   0  0  0  0  0  0  0  0  0  0  0  0
   -4.7640   19.8260  -33.3030 H   0  0  0  0  0  0  0  0  0  0  0  0
   -5.8193   20.3771  -32.5921 H   0  0  0  0  0  0  0  0  0  0  0  0
   -3.4433   23.3470  -31.4706 H   0  0  0  0  0  0  0  0  0  0  0  0
  1  2  1  0
  2  3  2  0
  2  4  1  0
  4  5  2  0
  5  6  1  0
  6  7  2  0
  7  8  1  0
  8  9  2  0
  9 10  1  0
 10 11  1  0
 11 12  1  0
 12 13  1  0
 12 14  1  0
 14 15  1  0
  9 16  1  0
 16 17  2  0
 17 18  1  0
 18 19  1  0
 19 20  2  0
 18  4  1  0
 17  6  1  0
  1 21  1  0
  5 22  1  0
  7 23  1  0
  8 24  1  0
 10 25  1  0
 10 26  1  0
 11 27  1  0
 11 28  1  0
 12 29  1  1
 13 30  1  0
 14 31  1  0
 14 32  1  0
 15 33  1  0
 16 34  1  0
 19 35  1  0
M  CHG  2   1  -1  10   1
M  END
>  <UniqueID>  (5) 
5

>  <SMILES>  (5) 
[NH-]C(=O)c1cc2ccc([NH2+]C[C@H](O)CO)cc2n1C=O

>  <Energy>  (5) 
75.76958164928266

>  <Genealogy>  (5) 
[NH-]C(=O)c1cc2ccc([NH2+]C[C@H](O)CO)cc2n1C=O (protonated)
[NH-]C(=O)c1cc2ccc([NH2+]C[C@H](O)CO)cc2n1C=O (3D coordinates assigned)
[NH-]C(=O)c1cc2ccc([NH2+]C[C@H](O)CO)cc2n1C=O (optimized conformer: 75.76958164928266 kcal/mol)

>  <smiles>  (5) 
NC(=O)c1cc2ccc(NC[C@H](O)CO)cc2n1C=O

>  <score_type>  (5) 
oracle

>  <origin>  (5) 
adg

>  <m_score__min__energy>  (5) 
-8.3000000000000007

>  <m_primary>  (5) 
energy

$$$$
5:0
     RDKit          3D

 42 44  0  0  0  0  0  0  0  0999 V2000
   -4.3070   18.0980  -33.8800 C   0  0  0  0  0  0  0  0  0  0  0  0
   -3.7740   19.3090  -33.2370 N   0  0  0  0  0  0  0  0  0  0  0  0
   -4.7060   20.3260  -32.8190 C   0  0  0  0  0  0  0  0  0  0  0  0
   -6.0770   20.2230  -33.1620 C   0  0  0  0  0  0  0  0  0  0  0  0
   -6.9920   21.2060  -32.7570 C   0  0  0  0  0  0  0  0  0  0  0  0
   -6.5150   22.2730  -32.0030 C   0  0  0  0  0  0  0  0  0  0  0  0
   -7.1870   23.3590  -31.4970 C   0  0  0  0  0  0  0  0  0  0  0  0
   -6.2260   24.0970  -30.8190 C   0  0  0  0  0  0  0  0  0  0  0  0
   -6.5410   25.3260  -30.0690 C   0  0  0  0  0  0  0  0  0  0  0  0
   -5.7320   26.4920  -30.2090 N   0  0  0  0  0  0  0  0  0  0  0  0
   -7.5020   25.3250  -29.2510 O   0  0  0  0  0  0  0  0  0  0  0  0
   -4.9980   23.5120  -30.9100 N   0  0  0  0  0  0  0  0  0  0  0  0
   -3.7470   24.0470  -30.4290 C   0  0  0  0  0  0  0  0  0  0  0  0
   -3.4930   25.2780  -30.5100 O   0  0  0  0  0  0  0  0  0  0  0  0
   -2.8180   23.2160  -29.8180 O   0  0  0  0  0  0  0  0  0  0  0  0
   -5.1960   22.3860  -31.6400 C   0  0  0  0  0  0  0  0  0  0  0  0
   -4.2590   21.4250  -32.0490 C   0  0  0  0  0  0  0  0  0  0  0  0
   -2.3410   19.4820  -32.9080 C   0  0  0  0  0  0  0  0  0  0  0  0
   -1.4140   18.9850  -33.9740 C   0  0  0  0  0  0  0  0  0  0  0  0
   -0.8770   20.3120  -34.3370 N   0  0  0  0  0  0  0  0  0  0  0  0
    0.0360   20.8500  -35.2930 C   0  0  0  0  0  0  0  0  0  0  0  0
    0.6960   20.0720  -36.0330 O   0  0  0  0  0  0  0  0  0  0  0  0
    0.1550   22.3260  -35.4710 C   0  0  0  0  0  0  0  0  0  0  0  0
    1.5100   22.6820  -35.4180 O   0  0  0  0  0  0  0  0  0  0  0  0
   -1.7640   20.8190  -33.2690 C   0  0  0  0  0  0  0  0  0  0  0  0
   -4.6225   17.3813  -33.1075 H   0  0  0  0  0  0  0  0  0  0  0  0
   -5.1706   18.3654  -34.5067 H   0  0  0  0  0  0  0  0  0  0  0  0
   -3.5265   17.6418  -34.5067 H   0  0  0  0  0  0  0  0  0  0  0  0
   -6.4274   19.3633  -33.7520 H   0  0  0  0  0  0  0  0  0  0  0  0
   -8.0558   21.1351  -33.0278 H   0  0  0  0  0  0  0  0  0  0  0  0
   -8.2562   23.5935  -31.6056 H   0  0  0  0  0  0  0  0  0  0  0  0
   -4.8480   26.4690  -30.7700 H   0  0  0  0  0  0  0  0  0  0  0  0
   -5.9730   27.3640  -29.6830 H   0  0  0  0  0  0  0  0  0  0  0  0
   -3.1980   21.5243  -31.7762 H   0  0  0  0  0  0  0  0  0  0  0  0
   -2.3722   19.0944  -31.8790 H   0  0  0  0  0  0  0  0  0  0  0  0
   -0.6419   18.3057  -33.5837 H   0  0  0  0  0  0  0  0  0  0  0  0
   -1.8536   18.3817  -34.7820 H   0  0  0  0  0  0  0  0  0  0  0  0
   -0.2650   22.6154  -36.4456 H   0  0  0  0  0  0  0  0  0  0  0  0
   -0.3978   22.8434  -34.6730 H   0  0  0  0  0  0  0  0  0  0  0  0
    2.0290   21.8420  -35.5540 H   0  0  0  0  0  0  0  0  0  0  0  0
   -1.2102   21.2824  -32.4392 H   0  0  0  0  0  0  0  0  0  0  0  0
   -2.4708   21.6182  -33.5368 H   0  0  0  0  0  0  0  0  0  0  0  0
  1  2  1  0
  2  3  1  0
  3  4  2  0
  4  5  1  0
  5  6  2  0
  6  7  1  0
  7  8  2  0
  8  9  1  0
  9 10  1  0
  9 11  2  0
  8 12  1  0
 12 13  1  0
 13 14  2  0
 13 15  1  0
 12 16  1  0
 16 17  2  0
  2 18  1  0
 18 19  1  0
 19 20  1  0
 20 21  1  0
 21 22  2  0
 21 23  1  0
 23 24  1  0
 20 25  1  0
 17  3  1  0
 25 18  1  0
 16  6  1  0
  1 26  1  0
  1 27  1  0
  1 28  1  0
  4 29  1  0
  5 30  1  0
  7 31  1  0
 10 32  1  0
 10 33  1  0
 17 34  1  0
 18 35  1  0
 19 36  1  0
 19 37  1  0
 23 38  1  0
 23 39  1  0
 24 40  1  0
 25 41  1  0
 25 42  1  0
M  CHG  1  15  -1
M  END
>  <UniqueID>  (6) 
6

>  <SMILES>  (6) 
CN(c1ccc2cc(C(N)=O)n(C(=O)[O-])c2c1)C1CN(C(=O)CO)C1

>  <Energy>  (6) 
132.83051925760168

>  <Genealogy>  (6) 
CN(c1ccc2cc(C(N)=O)n(C(=O)[O-])c2c1)C1CN(C(=O)CO)C1 (protonated)
CN(c1ccc2cc(C(N)=O)n(C(=O)[O-])c2c1)C1CN(C(=O)CO)C1 (3D coordinates assigned)
CN(c1ccc2cc(C(N)=O)n(C(=O)[O-])c2c1)C1CN(C(=O)CO)C1 (nonaromatic ring conformer: 132.83051925760168 kcal/mol)

>  <smiles>  (6) 
CN(c1ccc2cc(C(N)=O)n(C(=O)O)c2c1)C1CN(C(=O)CO)C1

>  <score_type>  (6) 
oracle

>  <origin>  (6) 
adg

>  <m_score__min__energy>  (6) 
-9.3100000000000005

>  <m_primary>  (6) 
energy

$$$$
6:0
     RDKit          3D

 38 39  0  0  0  0  0  0  0  0999 V2000
   -0.8960   26.8010  -27.8440 C   0  0  0  0  0  0  0  0  0  0  0  0
   -1.4060   25.9980  -28.9020 O   0  0  0  0  0  0  0  0  0  0  0  0
   -1.2010   24.6150  -28.9680 C   0  0  0  0  0  0  0  0  0  0  0  0
   -0.0300   24.1460  -29.0120 O   0  0  0  0  0  0  0  0  0  0  0  0
   -2.3760   23.6800  -28.9400 C   0  0  1  0  0  0  0  0  0  0  0  0
   -3.4830   24.3180  -28.3580 O   0  0  0  0  0  0  0  0  0  0  0  0
   -2.7270   23.1440  -30.3440 C   0  0  0  0  0  0  0  0  0  0  0  0
   -3.8130   22.0920  -30.3570 C   0  0  0  0  0  0  0  0  0  0  0  0
   -3.5600   20.9370  -29.9240 O   0  0  0  0  0  0  0  0  0  0  0  0
   -5.1180   22.3690  -30.9100 N   0  0  0  0  0  0  0  0  0  0  0  0
   -5.8110   23.5410  -30.8170 C   0  0  0  0  0  0  0  0  0  0  0  0
   -5.3070   24.8010  -30.2390 C   0  0  0  0  0  0  0  0  0  0  0  0
   -5.8380   25.3170  -29.0200 N   0  0  0  0  0  0  0  0  0  0  0  0
   -4.3580   25.4080  -30.8050 O   0  0  0  0  0  0  0  0  0  0  0  0
   -7.0910   23.4050  -31.3430 C   0  0  0  0  0  0  0  0  0  0  0  0
   -7.1730   22.1000  -31.7650 C   0  0  0  0  0  0  0  0  0  0  0  0
   -8.2480   21.4160  -32.3240 C   0  0  0  0  0  0  0  0  0  0  0  0
   -8.0880   20.0480  -32.5960 C   0  0  0  0  0  0  0  0  0  0  0  0
   -6.8700   19.3930  -32.2980 C   0  0  0  0  0  0  0  0  0  0  0  0
   -6.7360   17.9180  -32.5300 C   0  0  0  0  0  0  0  0  0  0  0  0
   -5.8090   20.1150  -31.7100 C   0  0  0  0  0  0  0  0  0  0  0  0
   -5.9770   21.4890  -31.4840 C   0  0  0  0  0  0  0  0  0  0  0  0
   -1.1780   26.3569  -26.8779 H   0  0  0  0  0  0  0  0  0  0  0  0
    0.2003   26.8519  -27.9180 H   0  0  0  0  0  0  0  0  0  0  0  0
   -1.3160   27.8150  -27.9180 H   0  0  0  0  0  0  0  0  0  0  0  0
   -2.0975   22.8099  -28.3273 H   0  0  0  0  0  0  0  0  0  0  0  0
   -3.5130   25.2390  -28.7280 H   0  0  0  0  0  0  0  0  0  0  0  0
   -3.0606   23.9906  -30.9621 H   0  0  0  0  0  0  0  0  0  0  0  0
   -1.8179   22.6618  -30.7325 H   0  0  0  0  0  0  0  0  0  0  0  0
   -5.5090   26.2350  -28.6470 H   0  0  0  0  0  0  0  0  0  0  0  0
   -6.4800   24.7380  -28.4380 H   0  0  0  0  0  0  0  0  0  0  0  0
   -7.8715   24.1775  -31.4075 H   0  0  0  0  0  0  0  0  0  0  0  0
   -9.1942   21.9313  -32.5460 H   0  0  0  0  0  0  0  0  0  0  0  0
   -8.9167   19.4806  -33.0446 H   0  0  0  0  0  0  0  0  0  0  0  0
   -6.6887   17.3974  -31.5621 H   0  0  0  0  0  0  0  0  0  0  0  0
   -7.6049   17.5559  -33.0990 H   0  0  0  0  0  0  0  0  0  0  0  0
   -5.8160   17.7184  -33.0990 H   0  0  0  0  0  0  0  0  0  0  0  0
   -4.8708   19.6109  -31.4350 H   0  0  0  0  0  0  0  0  0  0  0  0
  1  2  1  0
  2  3  1  0
  3  4  2  0
  3  5  1  0
  5  6  1  0
  5  7  1  0
  7  8  1  0
  8  9  2  0
  8 10  1  0
 10 11  1  0
 11 12  1  0
 12 13  1  0
 12 14  2  0
 11 15  2  0
 15 16  1  0
 16 17  2  0
 17 18  1  0
 18 19  2  0
 19 20  1  0
 19 21  1  0
 21 22  2  0
 22 10  1  0
 22 16  1  0
  1 23  1  0
  1 24  1  0
  1 25  1  0
  5 26  1  1
  6 27  1  0
  7 28  1  0
  7 29  1  0
 13 30  1  0
 13 31  1  0
 15 32  1  0
 17 33  1  0
 18 34  1  0
 20 35  1  0
 20 36  1  0
 20 37  1  0
 21 38  1  0
M  END
>  <UniqueID>  (7) 
7

>  <SMILES>  (7) 
COC(=O)[C@@H](O)CC(=O)n1c(C(N)=O)cc2ccc(C)cc21

>  <Energy>  (7) 
74.40245641306446

>  <Genealogy>  (7) 
COC(=O)[C@@H](O)CC(=O)n1c(C(N)=O)cc2ccc(C)cc21 (3D coordinates assigned)
COC(=O)[C@@H](O)CC(=O)n1c(C(N)=O)cc2ccc(C)cc21 (optimized conformer: 74.40245641306446 kcal/mol)

>  <smiles>  (7) 
COC(=O)[C@@H](O)CC(=O)n1c(C(N)=O)cc2ccc(C)cc21

>  <score_type>  (7) 
oracle

>  <origin>  (7) 
adg

>  <m_score__min__energy>  (7) 
-8.6300000000000008

>  <m_primary>  (7) 
energy

$$$$
7:0
     RDKit          3D

 40 41  0  0  0  0  0  0  0  0999 V2000
   -6.8780   17.5820  -33.4760 C   0  0  0  0  0  0  0  0  0  0  0  0
   -6.5880   18.2350  -32.1930 N   0  0  0  0  0  0  0  0  0  0  0  0
   -6.1240   17.4130  -31.0680 C   0  0  0  0  0  0  0  0  0  0  0  0
   -6.7610   19.6660  -32.0390 C   0  0  0  0  0  0  0  0  0  0  0  0
   -7.9480   20.3100  -32.4930 C   0  0  0  0  0  0  0  0  0  0  0  0
   -8.1270   21.6950  -32.3410 C   0  0  0  0  0  0  0  0  0  0  0  0
   -7.1110   22.4210  -31.7330 C   0  0  0  0  0  0  0  0  0  0  0  0
   -7.0300   23.7660  -31.4490 C   0  0  0  0  0  0  0  0  0  0  0  0
   -5.7910   23.9380  -30.8340 C   0  0  0  0  0  0  0  0  0  0  0  0
   -5.2500   25.2560  -30.4510 C   0  0  0  0  0  0  0  0  0  0  0  0
   -3.9600   25.6710  -30.8910 N   0  0  0  0  0  0  0  0  0  0  0  0
   -5.9520   26.0450  -29.7630 O   0  0  0  0  0  0  0  0  0  0  0  0
   -5.1390   22.7460  -30.7330 N   0  0  0  0  0  0  0  0  0  0  0  0
   -3.8990   22.4660  -30.0590 C   0  0  0  0  0  0  0  0  0  0  0  0
   -3.9260   21.8830  -28.9400 O   0  0  0  0  0  0  0  0  0  0  0  0
   -2.6490   22.9660  -30.5980 N   0  0  2  0  0  0  0  0  0  0  0  0
   -2.2580   22.2630  -31.8350 C   0  0  0  0  0  0  0  0  0  0  0  0
   -1.5800   22.9480  -29.5740 C   0  0  0  0  0  0  0  0  0  0  0  0
   -1.1110   24.3190  -29.1620 C   0  0  0  0  0  0  0  0  0  0  0  0
   -1.8460   25.3250  -29.3450 O   0  0  0  0  0  0  0  0  0  0  0  0
    0.1350   24.4800  -28.5720 O   0  0  0  0  0  0  0  0  0  0  0  0
   -5.9570   21.8300  -31.2950 C   0  0  0  0  0  0  0  0  0  0  0  0
   -5.7510   20.4550  -31.4290 C   0  0  0  0  0  0  0  0  0  0  0  0
   -7.3182   16.5909  -33.2918 H   0  0  0  0  0  0  0  0  0  0  0  0
   -7.5874   18.1975  -34.0486 H   0  0  0  0  0  0  0  0  0  0  0  0
   -5.9457   17.4685  -34.0486 H   0  0  0  0  0  0  0  0  0  0  0  0
   -6.3987   17.8996  -30.1205 H   0  0  0  0  0  0  0  0  0  0  0  0
   -6.5950   16.4203  -31.1204 H   0  0  0  0  0  0  0  0  0  0  0  0
   -5.0307   17.3033  -31.1204 H   0  0  0  0  0  0  0  0  0  0  0  0
   -8.7381   19.7122  -32.9709 H   0  0  0  0  0  0  0  0  0  0  0  0
   -9.0443   22.1897  -32.6929 H   0  0  0  0  0  0  0  0  0  0  0  0
   -7.7825   24.5396  -31.6620 H   0  0  0  0  0  0  0  0  0  0  0  0
   -3.0940   25.2950  -30.4460 H   0  0  0  0  0  0  0  0  0  0  0  0
   -2.7910   23.9700  -30.8580 H   0  0  0  0  0  0  0  0  0  0  0  0
   -1.7382   21.3285  -31.5770 H   0  0  0  0  0  0  0  0  0  0  0  0
   -3.1570   22.0317  -32.4251 H   0  0  0  0  0  0  0  0  0  0  0  0
   -1.5872   22.9048  -32.4251 H   0  0  0  0  0  0  0  0  0  0  0  0
   -1.9623   22.4295  -28.6823 H   0  0  0  0  0  0  0  0  0  0  0  0
   -0.7161   22.4343  -30.0210 H   0  0  0  0  0  0  0  0  0  0  0  0
   -4.8213   19.9912  -31.0677 H   0  0  0  0  0  0  0  0  0  0  0  0
  1  2  1  0
  2  3  1  0
  2  4  1  0
  4  5  2  0
  5  6  1  0
  6  7  2  0
  7  8  1  0
  8  9  2  0
  9 10  1  0
 10 11  1  0
 10 12  2  0
  9 13  1  0
 13 14  1  0
 14 15  2  0
 14 16  1  0
 16 17  1  0
 16 18  1  0
 18 19  1  0
 19 20  2  0
 19 21  1  0
 13 22  1  0
 22 23  2  0
 23  4  1  0
 22  7  1  0
  1 24  1  0
  1 25  1  0
  1 26  1  0
  3 27  1  0
  3 28  1  0
  3 29  1  0
  5 30  1  0
  6 31  1  0
  8 32  1  0
 11 33  1  0
 16 34  1  6
 17 35  1  0
 17 36  1  0
 17 37  1  0
 18 38  1  0
 18 39  1  0
 23 40  1  0
M  CHG  3  11  -1  16   1  21  -1
M  END
>  <UniqueID>  (8) 
8

>  <SMILES>  (8) 
CN(C)c1ccc2cc(C([NH-])=O)n(C(=O)[N@H+](C)CC(=O)[O-])c2c1

>  <Energy>  (8) 
84.72483388868385

>  <Genealogy>  (8) 
CN(C)c1ccc2cc(C([NH-])=O)n(C(=O)[NH+](C)CC(=O)[O-])c2c1 (protonated)
CN(C)c1ccc2cc(C([NH-])=O)n(C(=O)[N@H+](C)CC(=O)[O-])c2c1 (chirality)
CN(C)c1ccc2cc(C([NH-])=O)n(C(=O)[N@H+](C)CC(=O)[O-])c2c1 (3D coordinates assigned)
CN(C)c1ccc2cc(C([NH-])=O)n(C(=O)[N@H+](C)CC(=O)[O-])c2c1 (optimized conformer: 84.72483388868385 kcal/mol)

>  <smiles>  (8) 
CN(CC(=O)O)C(=O)n1c(C(N)=O)cc2ccc(N(C)C)cc21

>  <score_type>  (8) 
oracle

>  <origin>  (8) 
adg

>  <m_score__min__energy>  (8) 
-10.68

>  <m_primary>  (8) 
energy

$$$$
8:0
     RDKit          3D

 45 46  0  0  0  0  0  0  0  0999 V2000
   -1.9600   26.4070  -25.5420 C   0  0  0  0  0  0  0  0  0  0  0  0
   -1.1350   25.3470  -26.1330 N   0  0  0  0  0  0  0  0  0  0  0  0
   -0.6300   24.2630  -25.2830 C   0  0  0  0  0  0  0  0  0  0  0  0
   -0.9210   25.3520  -27.5640 C   0  0  0  0  0  0  0  0  0  0  0  0
   -1.6450   26.0840  -28.2930 O   0  0  0  0  0  0  0  0  0  0  0  0
    0.1180   24.5350  -28.2270 C   0  0  0  0  0  0  0  0  0  0  0  0
    1.3190   24.5820  -27.8480 O   0  0  0  0  0  0  0  0  0  0  0  0
   -0.2460   23.7410  -29.3210 O   0  0  0  0  0  0  0  0  0  0  0  0
   -0.1810   22.3160  -29.3310 C   0  0  0  0  0  0  0  0  0  0  0  0
   -1.4290   21.7690  -28.9120 O   0  0  0  0  0  0  0  0  0  0  0  0
   -2.0830   20.7290  -29.5790 C   0  0  0  0  0  0  0  0  0  0  0  0
   -1.4630   19.6740  -29.8870 O   0  0  0  0  0  0  0  0  0  0  0  0
   -3.4350   20.8930  -29.9070 O   0  0  0  0  0  0  0  0  0  0  0  0
   -3.9210   21.3410  -31.1420 C   0  0  0  0  0  0  0  0  0  0  0  0
   -3.3420   21.0010  -32.2100 O   0  0  0  0  0  0  0  0  0  0  0  0
   -5.1010   22.1680  -31.2000 N   0  0  0  0  0  0  0  0  0  0  0  0
   -5.2050   23.5050  -30.9270 C   0  0  0  0  0  0  0  0  0  0  0  0
   -4.0960   24.4220  -30.6000 C   0  0  0  0  0  0  0  0  0  0  0  0
   -2.9290   23.9310  -29.9400 N   0  0  0  0  0  0  0  0  0  0  0  0
   -4.1940   25.6540  -30.8410 O   0  0  0  0  0  0  0  0  0  0  0  0
   -6.5360   23.9090  -30.9320 C   0  0  0  0  0  0  0  0  0  0  0  0
   -7.2580   22.7810  -31.2380 C   0  0  0  0  0  0  0  0  0  0  0  0
   -8.6310   22.6200  -31.3960 C   0  0  0  0  0  0  0  0  0  0  0  0
   -9.1110   21.3440  -31.7320 C   0  0  0  0  0  0  0  0  0  0  0  0
   -8.2180   20.2540  -31.8970 C   0  0  0  0  0  0  0  0  0  0  0  0
   -8.7460   18.9080  -32.3240 C   0  0  0  0  0  0  0  0  0  0  0  0
   -9.0770   18.1460  -31.2170 F   0  0  0  0  0  0  0  0  0  0  0  0
   -9.8740   19.0880  -33.1030 F   0  0  0  0  0  0  0  0  0  0  0  0
   -7.7970   18.2160  -33.0570 F   0  0  0  0  0  0  0  0  0  0  0  0
   -6.8260   20.4650  -31.7520 C   0  0  0  0  0  0  0  0  0  0  0  0
   -6.3750   21.7450  -31.3970 C   0  0  0  0  0  0  0  0  0  0  0  0
   -1.9096   26.3422  -24.4451 H   0  0  0  0  0  0  0  0  0  0  0  0
   -1.5856   27.3883  -25.8690 H   0  0  0  0  0  0  0  0  0  0  0  0
   -3.0032   26.2850  -25.8690 H   0  0  0  0  0  0  0  0  0  0  0  0
   -0.7575   24.5367  -24.2253 H   0  0  0  0  0  0  0  0  0  0  0  0
   -1.1911   23.3405  -25.4932 H   0  0  0  0  0  0  0  0  0  0  0  0
    0.4372   24.0991  -25.4932 H   0  0  0  0  0  0  0  0  0  0  0  0
    0.0455   21.9686  -30.3498 H   0  0  0  0  0  0  0  0  0  0  0  0
    0.6088   21.9853  -28.6404 H   0  0  0  0  0  0  0  0  0  0  0  0
   -2.1540   24.5830  -29.6860 H   0  0  0  0  0  0  0  0  0  0  0  0
   -2.8190   22.9130  -29.7340 H   0  0  0  0  0  0  0  0  0  0  0  0
   -6.9274   24.9176  -30.7331 H   0  0  0  0  0  0  0  0  0  0  0  0
   -9.3198   23.4671  -31.2617 H   0  0  0  0  0  0  0  0  0  0  0  0
  -10.1912   21.1878  -31.8688 H   0  0  0  0  0  0  0  0  0  0  0  0
   -6.1132   19.6430  -31.9142 H   0  0  0  0  0  0  0  0  0  0  0  0
  1  2  1  0
  2  3  1  0
  2  4  1  0
  4  5  2  0
  4  6  1  0
  6  7  2  0
  6  8  1  0
  8  9  1  0
  9 10  1  0
 10 11  1  0
 11 12  2  0
 11 13  1  0
 13 14  1  0
 14 15  2  0
 14 16  1  0
 16 17  1  0
 17 18  1  0
 18 19  1  0
 18 20  2  0
 17 21  2  0
 21 22  1  0
 22 23  2  0
 23 24  1  0
 24 25  2  0
 25 26  1  0
 26 27  1  0
 26 28  1  0
 26 29  1  0
 25 30  1  0
 30 31  2  0
 31 16  1  0
 31 22  1  0
  1 32  1  0
  1 33  1  0
  1 34  1  0
  3 35  1  0
  3 36  1  0
  3 37  1  0
  9 38  1  0
  9 39  1  0
 19 40  1  0
 19 41  1  0
 21 42  1  0
 23 43  1  0
 24 44  1  0
 30 45  1  0
M  END
>  <UniqueID>  (9) 
9

>  <SMILES>  (9) 
CN(C)C(=O)C(=O)OCOC(=O)OC(=O)n1c(C(N)=O)cc2ccc(C(F)(F)F)cc21

>  <Energy>  (9) 
87.08665556658397

>  <Genealogy>  (9) 
CN(C)C(=O)C(=O)OCOC(=O)OC(=O)n1c(C(N)=O)cc2ccc(C(F)(F)F)cc21 (3D coordinates assigned)
CN(C)C(=O)C(=O)OCOC(=O)OC(=O)n1c(C(N)=O)cc2ccc(C(F)(F)F)cc21 (optimized conformer: 87.08665556658397 kcal/mol)

>  <smiles>  (9) 
CN(C)C(=O)C(=O)OCOC(=O)OC(=O)n1c(C(N)=O)cc2ccc(C(F)(F)F)cc21

>  <score_type>  (9) 
oracle

>  <origin>  (9) 
adg

>  <m_score__min__energy>  (9) 
-7.8600000000000003

>  <m_primary>  (9) 
energy

$$$$
9:0
     RDKit          3D

 39 41  0  0  0  0  0  0  0  0999 V2000
   -8.1260   23.0160  -31.9300 C   0  0  0  0  0  0  0  0  0  0  0  0
   -8.5190   21.6150  -32.0920 N   0  0  0  0  0  0  0  0  0  0  0  0
   -9.9220   21.2080  -31.9780 C   0  0  0  0  0  0  0  0  0  0  0  0
   -7.5150   20.6250  -32.3680 C   0  0  0  0  0  0  0  0  0  0  0  0
   -7.6350   19.3220  -32.0230 N   0  0  0  0  0  0  0  0  0  0  0  0
   -6.4730   18.8040  -32.4670 C   0  0  0  0  0  0  0  0  0  0  0  0
   -5.7120   19.7460  -33.0490 N   0  0  0  0  0  0  0  0  0  0  0  0
   -4.3630   19.5760  -33.5750 C   0  0  0  0  0  0  0  0  0  0  0  0
   -3.3740   20.2440  -32.6620 C   0  0  0  0  0  0  0  0  0  0  0  0
   -2.0620   19.7250  -32.5350 C   0  0  0  0  0  0  0  0  0  0  0  0
   -1.1110   20.3730  -31.7310 C   0  0  0  0  0  0  0  0  0  0  0  0
   -1.4980   21.5360  -31.0710 C   0  0  0  0  0  0  0  0  0  0  0  0
   -0.7660   22.3780  -30.2650 C   0  0  0  0  0  0  0  0  0  0  0  0
   -1.6470   23.3920  -29.9010 C   0  0  0  0  0  0  0  0  0  0  0  0
   -1.2850   24.4860  -28.9790 C   0  0  0  0  0  0  0  0  0  0  0  0
   -2.2620   25.4260  -28.5260 N   0  0  0  0  0  0  0  0  0  0  0  0
   -0.1070   24.5590  -28.5370 O   0  0  0  0  0  0  0  0  0  0  0  0
   -2.8710   23.1970  -30.4670 N   0  0  0  0  0  0  0  0  0  0  0  0
   -4.0000   24.0880  -30.4290 C   0  0  0  0  0  0  0  0  0  0  0  0
   -5.1250   23.6760  -30.0440 O   0  0  0  0  0  0  0  0  0  0  0  0
   -3.8610   25.4120  -30.8250 O   0  0  0  0  0  0  0  0  0  0  0  0
   -2.7650   22.0510  -31.1780 C   0  0  0  0  0  0  0  0  0  0  0  0
   -3.7270   21.4360  -31.9900 C   0  0  0  0  0  0  0  0  0  0  0  0
   -6.3480   20.9000  -32.9850 N   0  0  0  0  0  0  0  0  0  0  0  0
   -8.0586   23.2564  -30.8587 H   0  0  0  0  0  0  0  0  0  0  0  0
   -7.1473   23.1795  -32.4048 H   0  0  0  0  0  0  0  0  0  0  0  0
   -8.8768   23.6647  -32.4048 H   0  0  0  0  0  0  0  0  0  0  0  0
  -10.1956   21.1286  -30.9155 H   0  0  0  0  0  0  0  0  0  0  0  0
  -10.5621   21.9575  -32.4664 H   0  0  0  0  0  0  0  0  0  0  0  0
  -10.0616   20.2323  -32.4664 H   0  0  0  0  0  0  0  0  0  0  0  0
   -6.1849   17.7472  -32.3661 H   0  0  0  0  0  0  0  0  0  0  0  0
   -4.1301   18.5031  -33.6437 H   0  0  0  0  0  0  0  0  0  0  0  0
   -4.3019   20.0326  -34.5739 H   0  0  0  0  0  0  0  0  0  0  0  0
   -1.7857   18.8053  -33.0716 H   0  0  0  0  0  0  0  0  0  0  0  0
   -0.0913   19.9740  -31.6258 H   0  0  0  0  0  0  0  0  0  0  0  0
    0.2888   22.2722  -29.9716 H   0  0  0  0  0  0  0  0  0  0  0  0
   -3.2740   25.2950  -28.7410 H   0  0  0  0  0  0  0  0  0  0  0  0
   -1.9800   26.2140  -27.9020 H   0  0  0  0  0  0  0  0  0  0  0  0
   -4.7316   21.8700  -32.1016 H   0  0  0  0  0  0  0  0  0  0  0  0
  1  2  1  0
  2  3  1  0
  2  4  1  0
  4  5  1  0
  5  6  2  0
  6  7  1  0
  7  8  1  0
  8  9  1  0
  9 10  2  0
 10 11  1  0
 11 12  2  0
 12 13  1  0
 13 14  2  0
 14 15  1  0
 15 16  1  0
 15 17  2  0
 14 18  1  0
 18 19  1  0
 19 20  2  0
 19 21  1  0
 18 22  1  0
 22 23  2  0
  7 24  1  0
 24  4  2  0
 23  9  1  0
 22 12  1  0
  1 25  1  0
  1 26  1  0
  1 27  1  0
  3 28  1  0
  3 29  1  0
  3 30  1  0
  6 31  1  0
  8 32  1  0
  8 33  1  0
 10 34  1  0
 11 35  1  0
 13 36  1  0
 16 37  1  0
 16 38  1  0
 23 39  1  0
M  CHG  1  21  -1
M  END
>  <UniqueID>  (10) 
10

>  <SMILES>  (10) 
CN(C)c1ncn(Cc2ccc3cc(C(N)=O)n(C(=O)[O-])c3c2)n1

>  <Energy>  (10) 
108.75238419632547

>  <Genealogy>  (10) 
CN(C)c1ncn(Cc2ccc3cc(C(N)=O)n(C(=O)[O-])c3c2)n1 (protonated)
CN(C)c1ncn(Cc2ccc3cc(C(N)=O)n(C(=O)[O-])c3c2)n1 (3D coordinates assigned)
CN(C)c1ncn(Cc2ccc3cc(C(N)=O)n(C(=O)[O-])c3c2)n1 (optimized conformer: 108.75238419632547 kcal/mol)

>  <smiles>  (10) 
CN(C)c1ncn(Cc2ccc3cc(C(N)=O)n(C(=O)O)c3c2)n1

>  <score_type>  (10) 
oracle

>  <origin>  (10) 
adg

>  <m_score__min__energy>  (10) 
-8.8699999999999992

>  <m_primary>  (10) 
energy

$$$$
10:0
     RDKit          3D

 36 37  0  0  0  0  0  0  0  0999 V2000
   -8.5850   21.2460  -31.9570 C   0  0  0  0  0  0  0  0  0  0  0  0
   -8.3810   19.8710  -32.4250 N   0  0  0  0  0  0  0  0  0  0  0  0
   -9.4770   18.8990  -32.3430 C   0  0  0  0  0  0  0  0  0  0  0  0
   -7.1060   19.4460  -32.9560 C   0  0  0  0  0  0  0  0  0  0  0  0
   -6.9280   18.2310  -33.2460 O   0  0  0  0  0  0  0  0  0  0  0  0
   -5.9500   20.4040  -33.1120 C   0  0  0  0  0  0  0  0  0  0  0  0
   -4.6820   19.7490  -32.7880 N   0  0  0  0  0  0  0  0  0  0  0  0
   -3.5770   20.4030  -32.1320 C   0  0  0  0  0  0  0  0  0  0  0  0
   -2.2710   19.8400  -32.1300 C   0  0  0  0  0  0  0  0  0  0  0  0
   -1.2070   20.5000  -31.4920 C   0  0  0  0  0  0  0  0  0  0  0  0
   -1.4730   21.7110  -30.8610 C   0  0  0  0  0  0  0  0  0  0  0  0
   -0.6250   22.5650  -30.1950 C   0  0  0  0  0  0  0  0  0  0  0  0
   -1.4240   23.6280  -29.7780 C   0  0  0  0  0  0  0  0  0  0  0  0
   -0.9250   24.7390  -28.9410 C   0  0  0  0  0  0  0  0  0  0  0  0
   -1.6090   25.9880  -28.8980 N   0  0  0  0  0  0  0  0  0  0  0  0
    0.0910   24.5660  -28.2170 O   0  0  0  0  0  0  0  0  0  0  0  0
   -2.7140   23.4420  -30.1780 N   0  0  0  0  0  0  0  0  0  0  0  0
   -3.8190   24.3490  -30.0320 C   0  0  0  0  0  0  0  0  0  0  0  0
   -4.7590   24.0840  -29.2380 O   0  0  0  0  0  0  0  0  0  0  0  0
   -3.8720   25.5160  -30.7850 O   0  0  0  0  0  0  0  0  0  0  0  0
   -2.7270   22.2620  -30.8390 C   0  0  0  0  0  0  0  0  0  0  0  0
   -3.8020   21.6350  -31.4810 C   0  0  0  0  0  0  0  0  0  0  0  0
   -8.5874   21.2624  -30.8571 H   0  0  0  0  0  0  0  0  0  0  0  0
   -7.7719   21.8852  -32.3314 H   0  0  0  0  0  0  0  0  0  0  0  0
   -9.5487   21.6216  -32.3314 H   0  0  0  0  0  0  0  0  0  0  0  0
   -9.7075   18.6946  -31.2870 H   0  0  0  0  0  0  0  0  0  0  0  0
  -10.3685   19.3088  -32.8402 H   0  0  0  0  0  0  0  0  0  0  0  0
   -9.1766   17.9649  -32.8402 H   0  0  0  0  0  0  0  0  0  0  0  0
   -5.9157   20.7608  -34.1520 H   0  0  0  0  0  0  0  0  0  0  0  0
   -6.0966   21.2474  -32.4212 H   0  0  0  0  0  0  0  0  0  0  0  0
   -4.5840   18.7410  -33.0450 H   0  0  0  0  0  0  0  0  0  0  0  0
   -2.0919   18.8782  -32.6329 H   0  0  0  0  0  0  0  0  0  0  0  0
   -0.1938   20.0718  -31.4915 H   0  0  0  0  0  0  0  0  0  0  0  0
    0.4545   22.4363  -30.0272 H   0  0  0  0  0  0  0  0  0  0  0  0
   -2.6490   26.0330  -28.9790 H   0  0  0  0  0  0  0  0  0  0  0  0
   -4.8019   22.0935  -31.4780 H   0  0  0  0  0  0  0  0  0  0  0  0
  1  2  1  0
  2  3  1  0
  2  4  1  0
  4  5  2  0
  4  6  1  0
  6  7  1  0
  7  8  1  0
  8  9  2  0
  9 10  1  0
 10 11  2  0
 11 12  1  0
 12 13  2  0
 13 14  1  0
 14 15  1  0
 14 16  2  0
 13 17  1  0
 17 18  1  0
 18 19  2  0
 18 20  1  0
 17 21  1  0
 21 22  2  0
 22  8  1  0
 21 11  1  0
  1 23  1  0
  1 24  1  0
  1 25  1  0
  3 26  1  0
  3 27  1  0
  3 28  1  0
  6 29  1  0
  6 30  1  0
  7 31  1  0
  9 32  1  0
 10 33  1  0
 12 34  1  0
 15 35  1  0
 22 36  1  0
M  CHG  2  15  -1  20  -1
M  END
>  <UniqueID>  (11) 
11

>  <SMILES>  (11) 
CN(C)C(=O)CNc1ccc2cc(C([NH-])=O)n(C(=O)[O-])c2c1

>  <Energy>  (11) 
73.17312548918696

>  <Genealogy>  (11) 
CN(C)C(=O)CNc1ccc2cc(C([NH-])=O)n(C(=O)[O-])c2c1 (protonated)
CN(C)C(=O)CNc1ccc2cc(C([NH-])=O)n(C(=O)[O-])c2c1 (3D coordinates assigned)
CN(C)C(=O)CNc1ccc2cc(C([NH-])=O)n(C(=O)[O-])c2c1 (optimized conformer: 73.17312548918696 kcal/mol)

>  <smiles>  (11) 
CN(C)C(=O)CNc1ccc2cc(C(N)=O)n(C(=O)O)c2c1

>  <score_type>  (11) 
oracle

>  <origin>  (11) 
adg

>  <m_score__min__energy>  (11) 
-10.69

>  <m_primary>  (11) 
energy

$$$$
11:0
     RDKit          3D

 43 45  0  0  0  0  0  0  0  0999 V2000
   -6.9140   16.9480  -33.1100 C   0  0  0  0  0  0  0  0  0  0  0  0
   -6.4340   18.1930  -33.7180 N   0  0  0  0  0  0  0  0  0  0  0  0
   -5.7030   18.1310  -34.9900 C   0  0  0  0  0  0  0  0  0  0  0  0
   -6.6460   19.4630  -33.0520 C   0  0  0  0  0  0  0  0  0  0  0  0
   -7.9620   19.9750  -32.8720 C   0  0  0  0  0  0  0  0  0  0  0  0
   -8.1820   21.2020  -32.2200 C   0  0  0  0  0  0  0  0  0  0  0  0
   -7.0730   21.9000  -31.7560 C   0  0  0  0  0  0  0  0  0  0  0  0
   -6.9930   23.1090  -31.1010 C   0  0  0  0  0  0  0  0  0  0  0  0
   -5.6290   23.3270  -30.8890 C   0  0  0  0  0  0  0  0  0  0  0  0
   -5.0460   24.5160  -30.2190 C   0  0  0  0  0  0  0  0  0  0  0  0
   -5.3840   24.8460  -28.8680 N   0  0  0  0  0  0  0  0  0  0  0  0
   -4.2360   25.2570  -30.8440 O   0  0  0  0  0  0  0  0  0  0  0  0
   -4.9090   22.2890  -31.3960 N   0  0  0  0  0  0  0  0  0  0  0  0
   -3.4830   22.1410  -31.4210 C   0  0  0  0  0  0  0  0  0  0  0  0
   -2.8710   22.3030  -32.5180 O   0  0  0  0  0  0  0  0  0  0  0  0
   -2.7590   21.8170  -30.2110 N   0  0  0  0  0  0  0  0  0  0  0  0
   -1.2890   21.7390  -30.2630 C   0  0  0  0  0  0  0  0  0  0  0  0
   -0.6990   21.1190  -28.9920 C   0  0  0  0  0  0  0  0  0  0  0  0
   -1.3170   21.6370  -27.8330 O   0  0  0  0  0  0  0  0  0  0  0  0
   -2.6610   21.2210  -27.8080 C   0  0  0  0  0  0  0  0  0  0  0  0
   -3.4570   21.9010  -28.9180 C   0  0  0  0  0  0  0  0  0  0  0  0
   -5.8010   21.4270  -31.9190 C   0  0  0  0  0  0  0  0  0  0  0  0
   -5.5480   20.2120  -32.5640 C   0  0  0  0  0  0  0  0  0  0  0  0
   -6.8793   17.0379  -32.0142 H   0  0  0  0  0  0  0  0  0  0  0  0
   -7.9494   16.7591  -33.4298 H   0  0  0  0  0  0  0  0  0  0  0  0
   -6.2734   16.1130  -33.4298 H   0  0  0  0  0  0  0  0  0  0  0  0
   -4.6253   18.0396  -34.7895 H   0  0  0  0  0  0  0  0  0  0  0  0
   -6.0440   17.2585  -35.5667 H   0  0  0  0  0  0  0  0  0  0  0  0
   -5.8921   19.0484  -35.5667 H   0  0  0  0  0  0  0  0  0  0  0  0
   -8.8215   19.4014  -33.2492 H   0  0  0  0  0  0  0  0  0  0  0  0
   -9.1994   21.5966  -32.0817 H   0  0  0  0  0  0  0  0  0  0  0  0
   -7.8263   23.7642  -30.8070 H   0  0  0  0  0  0  0  0  0  0  0  0
   -4.9380   25.6690  -28.4070 H   0  0  0  0  0  0  0  0  0  0  0  0
   -6.0760   24.2960  -28.3190 H   0  0  0  0  0  0  0  0  0  0  0  0
   -0.9969   21.1233  -31.1265 H   0  0  0  0  0  0  0  0  0  0  0  0
   -0.8985   22.7635  -30.3527 H   0  0  0  0  0  0  0  0  0  0  0  0
   -0.8494   20.0297  -29.0217 H   0  0  0  0  0  0  0  0  0  0  0  0
    0.3728   21.3633  -28.9522 H   0  0  0  0  0  0  0  0  0  0  0  0
   -2.7042   20.1309  -27.9485 H   0  0  0  0  0  0  0  0  0  0  0  0
   -3.0990   21.4985  -26.8379 H   0  0  0  0  0  0  0  0  0  0  0  0
   -4.4368   21.4092  -29.0081 H   0  0  0  0  0  0  0  0  0  0  0  0
   -3.5747   22.9632  -28.6575 H   0  0  0  0  0  0  0  0  0  0  0  0
   -4.5182   19.8462  -32.6894 H   0  0  0  0  0  0  0  0  0  0  0  0
  1  2  1  0
  2  3  1  0
  2  4  1  0
  4  5  2  0
  5  6  1  0
  6  7  2  0
  7  8  1  0
  8  9  2  0
  9 10  1  0
 10 11  1  0
 10 12  2  0
  9 13  1  0
 13 14  1  0
 14 15  2  0
 14 16  1  0
 16 17  1  0
 17 18  1  0
 18 19  1  0
 19 20  1  0
 20 21  1  0
 13 22  1  0
 22 23  2  0
 23  4  1  0
 22  7  1  0
 21 16  1  0
  1 24  1  0
  1 25  1  0
  1 26  1  0
  3 27  1  0
  3 28  1  0
  3 29  1  0
  5 30  1  0
  6 31  1  0
  8 32  1  0
 11 33  1  0
 11 34  1  0
 17 35  1  0
 17 36  1  0
 18 37  1  0
 18 38  1  0
 20 39  1  0
 20 40  1  0
 21 41  1  0
 21 42  1  0
 23 43  1  0
M  END
>  <UniqueID>  (12) 
12

>  <SMILES>  (12) 
CN(C)c1ccc2cc(C(N)=O)n(C(=O)N3CCOCC3)c2c1

>  <Energy>  (12) 
87.13532605107298

>  <Genealogy>  (12) 
CN(C)c1ccc2cc(C(N)=O)n(C(=O)N3CCOCC3)c2c1 (3D coordinates assigned)
CN(C)c1ccc2cc(C(N)=O)n(C(=O)N3CCOCC3)c2c1 (nonaromatic ring conformer: 87.13532605107298 kcal/mol)

>  <smiles>  (12) 
CN(C)c1ccc2cc(C(N)=O)n(C(=O)N3CCOCC3)c2c1

>  <score_type>  (12) 
oracle

>  <origin>  (12) 
adg

>  <m_score__min__energy>  (12) 
-8.7599999999999998

>  <m_primary>  (12) 
energy

$$$$
12:0
     RDKit          3D

 49 50  0  0  0  0  0  0  0  0999 V2000
   -4.2380   24.2260  -27.1140 C   0  0  0  0  0  0  0  0  0  0  0  0
   -2.9810   24.4190  -27.5330 C   0  0  0  0  0  0  0  0  0  0  0  0
   -2.0110   25.1590  -26.6550 C   0  0  0  0  0  0  0  0  0  0  0  0
   -2.5100   23.8170  -28.8010 C   0  0  0  0  0  0  0  0  0  0  0  0
   -1.5660   24.3560  -29.4400 O   0  0  0  0  0  0  0  0  0  0  0  0
   -3.1450   22.6510  -29.3430 N   0  0  0  0  0  0  0  0  0  0  0  0
   -3.0840   21.3980  -28.5910 C   0  0  0  0  0  0  0  0  0  0  0  0
   -3.5720   22.6600  -30.7180 C   0  0  0  0  0  0  0  0  0  0  0  0
   -2.7280   22.5180  -31.6450 O   0  0  0  0  0  0  0  0  0  0  0  0
   -4.9580   22.8200  -31.0580 N   0  0  0  0  0  0  0  0  0  0  0  0
   -5.7210   23.9360  -30.9070 C   0  0  0  0  0  0  0  0  0  0  0  0
   -5.2200   25.2760  -30.5440 C   0  0  0  0  0  0  0  0  0  0  0  0
   -3.8740   25.6540  -30.8300 N   0  0  0  0  0  0  0  0  0  0  0  0
   -5.9940   26.1070  -29.9970 O   0  0  0  0  0  0  0  0  0  0  0  0
   -7.0610   23.6500  -31.1690 C   0  0  0  0  0  0  0  0  0  0  0  0
   -7.0920   22.3070  -31.4730 C   0  0  0  0  0  0  0  0  0  0  0  0
   -8.1690   21.4770  -31.7690 C   0  0  0  0  0  0  0  0  0  0  0  0
   -7.9110   20.1090  -31.9710 C   0  0  0  0  0  0  0  0  0  0  0  0
   -6.5890   19.6020  -31.8800 C   0  0  0  0  0  0  0  0  0  0  0  0
   -6.3270   18.1260  -32.0430 C   0  0  0  0  0  0  0  0  0  0  0  0
   -7.2220   17.5050  -33.1270 C   0  0  0  0  0  0  0  0  0  0  0  0
   -6.4330   17.0700  -34.3010 N   0  0  0  0  0  0  0  0  0  0  0  0
   -5.4830   16.0160  -33.9130 C   0  0  0  0  0  0  0  0  0  0  0  0
   -5.7040   18.2020  -34.8960 C   0  0  0  0  0  0  0  0  0  0  0  0
   -5.5220   20.4780  -31.5850 C   0  0  0  0  0  0  0  0  0  0  0  0
   -5.8100   21.8310  -31.3920 C   0  0  0  0  0  0  0  0  0  0  0  0
   -4.9533   23.6853  -27.7512 H   0  0  0  0  0  0  0  0  0  0  0  0
   -4.5554   24.6081  -26.1325 H   0  0  0  0  0  0  0  0  0  0  0  0
   -2.2560   24.9721  -25.5991 H   0  0  0  0  0  0  0  0  0  0  0  0
   -0.9888   24.8092  -26.8617 H   0  0  0  0  0  0  0  0  0  0  0  0
   -2.0783   26.2373  -26.8617 H   0  0  0  0  0  0  0  0  0  0  0  0
   -3.0946   21.6165  -27.5130 H   0  0  0  0  0  0  0  0  0  0  0  0
   -3.9528   20.7739  -28.8472 H   0  0  0  0  0  0  0  0  0  0  0  0
   -2.1587   20.8613  -28.8472 H   0  0  0  0  0  0  0  0  0  0  0  0
   -3.1070   24.9440  -30.8410 H   0  0  0  0  0  0  0  0  0  0  0  0
   -7.9109   24.3477  -31.1392 H   0  0  0  0  0  0  0  0  0  0  0  0
   -9.1905   21.8783  -31.8427 H   0  0  0  0  0  0  0  0  0  0  0  0
   -8.7419   19.4260  -32.2016 H   0  0  0  0  0  0  0  0  0  0  0  0
   -5.2736   17.9801  -32.3241 H   0  0  0  0  0  0  0  0  0  0  0  0
   -6.5529   17.6305  -31.0872 H   0  0  0  0  0  0  0  0  0  0  0  0
   -7.7427   16.6333  -32.7039 H   0  0  0  0  0  0  0  0  0  0  0  0
   -7.9407   18.2686  -33.4591 H   0  0  0  0  0  0  0  0  0  0  0  0
   -5.4293   15.9565  -32.8159 H   0  0  0  0  0  0  0  0  0  0  0  0
   -5.8218   15.0504  -34.3165 H   0  0  0  0  0  0  0  0  0  0  0  0
   -4.4875   16.2530  -34.3165 H   0  0  0  0  0  0  0  0  0  0  0  0
   -5.2955   18.8364  -34.0956 H   0  0  0  0  0  0  0  0  0  0  0  0
   -4.8808   17.8215  -35.5185 H   0  0  0  0  0  0  0  0  0  0  0  0
   -6.3910   18.7940  -35.5185 H   0  0  0  0  0  0  0  0  0  0  0  0
   -4.4901   20.1045  -31.5091 H   0  0  0  0  0  0  0  0  0  0  0  0
  1  2  2  0
  2  3  1  0
  2  4  1  0
  4  5  2  0
  4  6  1  0
  6  7  1  0
  6  8  1  0
  8  9  2  0
  8 10  1  0
 10 11  1  0
 11 12  1  0
 12 13  1  0
 12 14  2  0
 11 15  2  0
 15 16  1  0
 16 17  2  0
 17 18  1  0
 18 19  2  0
 19 20  1  0
 20 21  1  0
 21 22  1  0
 22 23  1  0
 22 24  1  0
 19 25  1  0
 25 26  2  0
 26 10  1  0
 26 16  1  0
  1 27  1  0
  1 28  1  0
  3 29  1  0
  3 30  1  0
  3 31  1  0
  7 32  1  0
  7 33  1  0
  7 34  1  0
 13 35  1  0
 15 36  1  0
 17 37  1  0
 18 38  1  0
 20 39  1  0
 20 40  1  0
 21 41  1  0
 21 42  1  0
 23 43  1  0
 23 44  1  0
 23 45  1  0
 24 46  1  0
 24 47  1  0
 24 48  1  0
 25 49  1  0
M  CHG  1  13  -1
M  END
>  <UniqueID>  (13) 
13

>  <SMILES>  (13) 
C=C(C)C(=O)N(C)C(=O)n1c(C([NH-])=O)cc2ccc(CCN(C)C)cc21

>  <Energy>  (13) 
91.57210682064617

>  <Genealogy>  (13) 
C=C(C)C(=O)N(C)C(=O)n1c(C([NH-])=O)cc2ccc(CCN(C)C)cc21 (protonated)
C=C(C)C(=O)N(C)C(=O)n1c(C([NH-])=O)cc2ccc(CCN(C)C)cc21 (3D coordinates assigned)
C=C(C)C(=O)N(C)C(=O)n1c(C([NH-])=O)cc2ccc(CCN(C)C)cc21 (optimized conformer: 91.57210682064617 kcal/mol)

>  <smiles>  (13) 
C=C(C)C(=O)N(C)C(=O)n1c(C(N)=O)cc2ccc(CCN(C)C)cc21

>  <score_type>  (13) 
oracle

>  <origin>  (13) 
adg

>  <m_score__min__energy>  (13) 
-10.949999999999999

>  <m_primary>  (13) 
energy

$$$$
13:0
     RDKit          3D

 35 36  0  0  0  0  0  0  0  0999 V2000
   -5.2060   24.8030  -29.0220 N   0  0  0  0  0  0  0  0  0  0  0  0
   -5.2190   24.4930  -30.4150 C   0  0  0  0  0  0  0  0  0  0  0  0
   -4.6200   25.2560  -31.2180 O   0  0  0  0  0  0  0  0  0  0  0  0
   -5.9070   23.2810  -30.9170 C   0  0  0  0  0  0  0  0  0  0  0  0
   -7.2920   23.1110  -30.9330 C   0  0  0  0  0  0  0  0  0  0  0  0
   -7.4990   21.8420  -31.4260 C   0  0  0  0  0  0  0  0  0  0  0  0
   -8.6850   21.1560  -31.6700 C   0  0  0  0  0  0  0  0  0  0  0  0
   -8.5990   19.8650  -32.2190 C   0  0  0  0  0  0  0  0  0  0  0  0
   -7.3380   19.2960  -32.5310 C   0  0  0  0  0  0  0  0  0  0  0  0
   -7.2550   17.9100  -33.1070 C   0  0  0  0  0  0  0  0  0  0  0  0
   -6.1090   17.8160  -34.0620 C   0  0  0  0  0  0  0  0  0  0  0  0
   -5.3000   16.8530  -33.9870 O   0  0  0  0  0  0  0  0  0  0  0  0
   -5.9550   18.7700  -35.0600 O   0  0  0  0  0  0  0  0  0  0  0  0
   -6.1560   20.0180  -32.2600 C   0  0  0  0  0  0  0  0  0  0  0  0
   -6.2710   21.2910  -31.6900 C   0  0  0  0  0  0  0  0  0  0  0  0
   -5.2860   22.1580  -31.3730 N   0  0  0  0  0  0  0  0  0  0  0  0
   -3.8770   21.9560  -31.5660 C   0  0  0  0  0  0  0  0  0  0  0  0
   -3.3850   22.0570  -32.7220 O   0  0  0  0  0  0  0  0  0  0  0  0
   -3.0000   21.6260  -30.4350 C   0  0  0  0  0  0  0  0  0  0  0  0
   -3.1900   20.5650  -29.7810 O   0  0  0  0  0  0  0  0  0  0  0  0
   -1.9600   22.4970  -30.0900 O   0  0  0  0  0  0  0  0  0  0  0  0
   -1.8460   23.1040  -28.8060 C   0  0  0  0  0  0  0  0  0  0  0  0
   -1.6670   24.5830  -28.9430 C   0  0  0  0  0  0  0  0  0  0  0  0
   -2.6160   25.3020  -29.3520 O   0  0  0  0  0  0  0  0  0  0  0  0
   -0.4470   25.1670  -28.6260 O   0  0  0  0  0  0  0  0  0  0  0  0
   -5.7520   24.2420  -28.3320 H   0  0  0  0  0  0  0  0  0  0  0  0
   -4.6830   25.6390  -28.6770 H   0  0  0  0  0  0  0  0  0  0  0  0
   -8.0564   23.8368  -30.6185 H   0  0  0  0  0  0  0  0  0  0  0  0
   -9.6601   21.6103  -31.4402 H   0  0  0  0  0  0  0  0  0  0  0  0
   -9.5180   19.2909  -32.4084 H   0  0  0  0  0  0  0  0  0  0  0  0
   -7.1092   17.1859  -32.2919 H   0  0  0  0  0  0  0  0  0  0  0  0
   -8.1890   17.6878  -33.6439 H   0  0  0  0  0  0  0  0  0  0  0  0
   -5.1690   19.5908  -32.4910 H   0  0  0  0  0  0  0  0  0  0  0  0
   -2.7590   22.9014  -28.2268 H   0  0  0  0  0  0  0  0  0  0  0  0
   -0.9701   22.6847  -28.2893 H   0  0  0  0  0  0  0  0  0  0  0  0
  1  2  1  0
  2  3  2  0
  2  4  1  0
  4  5  2  0
  5  6  1  0
  6  7  2  0
  7  8  1  0
  8  9  2  0
  9 10  1  0
 10 11  1  0
 11 12  2  0
 11 13  1  0
  9 14  1  0
 14 15  2  0
 15 16  1  0
 16 17  1  0
 17 18  2  0
 17 19  1  0
 19 20  2  0
 19 21  1  0
 21 22  1  0
 22 23  1  0
 23 24  2  0
 23 25  1  0
 16  4  1  0
 15  6  1  0
  1 26  1  0
  1 27  1  0
  5 28  1  0
  7 29  1  0
  8 30  1  0
 10 31  1  0
 10 32  1  0
 14 33  1  0
 22 34  1  0
 22 35  1  0
M  CHG  2  13  -1  25  -1
M  END
>  <UniqueID>  (14) 
14

>  <SMILES>  (14) 
NC(=O)c1cc2ccc(CC(=O)[O-])cc2n1C(=O)C(=O)OCC(=O)[O-]

>  <Energy>  (14) 
69.85663218409407

>  <Genealogy>  (14) 
NC(=O)c1cc2ccc(CC(=O)[O-])cc2n1C(=O)C(=O)OCC(=O)[O-] (protonated)
NC(=O)c1cc2ccc(CC(=O)[O-])cc2n1C(=O)C(=O)OCC(=O)[O-] (3D coordinates assigned)
NC(=O)c1cc2ccc(CC(=O)[O-])cc2n1C(=O)C(=O)OCC(=O)[O-] (optimized conformer: 69.85663218409407 kcal/mol)

>  <smiles>  (14) 
NC(=O)c1cc2ccc(CC(=O)O)cc2n1C(=O)C(=O)OCC(=O)O

>  <score_type>  (14) 
oracle

>  <origin>  (14) 
adg

>  <m_score__min__energy>  (14) 
-10.59

>  <m_primary>  (14) 
energy

$$$$
14:0
     RDKit          3D

 40 41  0  0  0  0  0  0  0  0999 V2000
   -6.5840   18.2510  -32.2890 C   0  0  0  0  0  0  0  0  0  0  0  0
   -6.7920   19.7150  -32.0460 C   0  0  0  0  0  0  0  0  0  0  0  0
   -8.0930   20.2710  -32.1320 C   0  0  0  0  0  0  0  0  0  0  0  0
   -8.3090   21.6330  -31.8610 C   0  0  0  0  0  0  0  0  0  0  0  0
   -7.2100   22.4090  -31.5020 C   0  0  0  0  0  0  0  0  0  0  0  0
   -7.1350   23.7400  -31.1570 C   0  0  0  0  0  0  0  0  0  0  0  0
   -5.7900   23.9710  -30.8690 C   0  0  0  0  0  0  0  0  0  0  0  0
   -5.2450   25.2960  -30.5200 C   0  0  0  0  0  0  0  0  0  0  0  0
   -3.8970   25.6360  -30.8340 N   0  0  0  0  0  0  0  0  0  0  0  0
   -5.9890   26.1570  -29.9780 O   0  0  0  0  0  0  0  0  0  0  0  0
   -5.0680   22.8270  -31.0220 N   0  0  0  0  0  0  0  0  0  0  0  0
   -3.6860   22.6000  -30.7120 C   0  0  0  0  0  0  0  0  0  0  0  0
   -2.7960   23.0890  -31.4600 O   0  0  0  0  0  0  0  0  0  0  0  0
   -3.3010   21.6860  -29.5720 C   0  0  1  0  0  0  0  0  0  0  0  0
   -2.2660   20.6700  -30.0470 C   0  0  0  0  0  0  0  0  0  0  0  0
   -2.7420   22.4290  -28.4870 O   0  0  0  0  0  0  0  0  0  0  0  0
   -2.5610   23.8170  -28.5060 C   0  0  0  0  0  0  0  0  0  0  0  0
   -3.5420   24.5980  -28.3750 O   0  0  0  0  0  0  0  0  0  0  0  0
   -1.1900   24.3780  -28.7280 C   0  0  2  0  0  0  0  0  0  0  0  0
   -0.4580   24.5060  -27.3920 C   0  0  0  0  0  0  0  0  0  0  0  0
   -1.3020   25.6360  -29.3390 O   0  0  0  0  0  0  0  0  0  0  0  0
   -5.9480   21.8830  -31.4130 C   0  0  0  0  0  0  0  0  0  0  0  0
   -5.7050   20.5300  -31.6630 C   0  0  0  0  0  0  0  0  0  0  0  0
   -6.5095   17.7263  -31.3251 H   0  0  0  0  0  0  0  0  0  0  0  0
   -7.4341   17.8497  -32.8601 H   0  0  0  0  0  0  0  0  0  0  0  0
   -5.6557   18.1024  -32.8601 H   0  0  0  0  0  0  0  0  0  0  0  0
   -8.9417   19.6303  -32.4135 H   0  0  0  0  0  0  0  0  0  0  0  0
   -9.3151   22.0724  -31.9303 H   0  0  0  0  0  0  0  0  0  0  0  0
   -7.9601   24.4663  -31.1171 H   0  0  0  0  0  0  0  0  0  0  0  0
   -3.1010   25.0620  -30.4800 H   0  0  0  0  0  0  0  0  0  0  0  0
   -4.2116   21.1727  -29.2295 H   0  0  0  0  0  0  0  0  0  0  0  0
   -1.7870   20.1998  -29.1755 H   0  0  0  0  0  0  0  0  0  0  0  0
   -2.7617   19.8980  -30.6539 H   0  0  0  0  0  0  0  0  0  0  0  0
   -1.5033   21.1799  -30.6539 H   0  0  0  0  0  0  0  0  0  0  0  0
   -0.6156   23.7040  -29.3806 H   0  0  0  0  0  0  0  0  0  0  0  0
   -1.1752   24.3806  -26.5675 H   0  0  0  0  0  0  0  0  0  0  0  0
    0.3187   23.7300  -27.3236 H   0  0  0  0  0  0  0  0  0  0  0  0
    0.0093   25.4995  -27.3236 H   0  0  0  0  0  0  0  0  0  0  0  0
   -2.1980   25.6670  -29.7670 H   0  0  0  0  0  0  0  0  0  0  0  0
   -4.6929   20.1108  -31.5639 H   0  0  0  0  0  0  0  0  0  0  0  0
  1  2  1  0
  2  3  2  0
  3  4  1  0
  4  5  2  0
  5  6  1  0
  6  7  2  0
  7  8  1  0
  8  9  1  0
  8 10  2  0
  7 11  1  0
 11 12  1  0
 12 13  2  0
 12 14  1  0
 14 15  1  0
 14 16  1  0
 16 17  1  0
 17 18  2  0
 17 19  1  0
 19 20  1  0
 19 21  1  0
 11 22  1  0
 22 23  2  0
 23  2  1  0
 22  5  1  0
  1 24  1  0
  1 25  1  0
  1 26  1  0
  3 27  1  0
  4 28  1  0
  6 29  1  0
  9 30  1  0
 14 31  1  1
 15 32  1  0
 15 33  1  0
 15 34  1  0
 19 35  1  6
 20 36  1  0
 20 37  1  0
 20 38  1  0
 21 39  1  0
 23 40  1  0
M  CHG  1   9  -1
M  END
>  <UniqueID>  (15) 
15

>  <SMILES>  (15) 
Cc1ccc2cc(C([NH-])=O)n(C(=O)[C@@H](C)OC(=O)[C@H](C)O)c2c1

>  <Energy>  (15) 
72.07802967341541

>  <Genealogy>  (15) 
Cc1ccc2cc(C([NH-])=O)n(C(=O)[C@@H](C)OC(=O)[C@H](C)O)c2c1 (protonated)
Cc1ccc2cc(C([NH-])=O)n(C(=O)[C@@H](C)OC(=O)[C@H](C)O)c2c1 (3D coordinates assigned)
Cc1ccc2cc(C([NH-])=O)n(C(=O)[C@@H](C)OC(=O)[C@H](C)O)c2c1 (optimized conformer: 72.07802967341541 kcal/mol)

>  <smiles>  (15) 
Cc1ccc2cc(C(N)=O)n(C(=O)[C@@H](C)OC(=O)[C@H](C)O)c2c1

>  <score_type>  (15) 
oracle

>  <origin>  (15) 
adg

>  <m_score__min__energy>  (15) 
-11.029999999999999

>  <m_primary>  (15) 
energy

$$$$
15:0
     RDKit          3D

 40 41  0  0  0  0  0  0  0  0999 V2000
   -7.6250   18.4660  -32.5250 C   0  0  0  0  0  0  0  0  0  0  0  0
   -7.6250   19.9150  -32.1360 C   0  0  0  0  0  0  0  0  0  0  0  0
   -8.8490   20.5930  -31.9200 C   0  0  0  0  0  0  0  0  0  0  0  0
   -8.8620   21.9420  -31.5260 C   0  0  0  0  0  0  0  0  0  0  0  0
   -7.6370   22.5780  -31.3430 C   0  0  0  0  0  0  0  0  0  0  0  0
   -7.3560   23.8740  -30.9700 C   0  0  0  0  0  0  0  0  0  0  0  0
   -5.9650   23.9550  -30.9370 C   0  0  0  0  0  0  0  0  0  0  0  0
   -5.2220   25.1570  -30.5040 C   0  0  0  0  0  0  0  0  0  0  0  0
   -3.8430   25.2970  -30.8370 N   0  0  0  0  0  0  0  0  0  0  0  0
   -5.7990   26.0750  -29.8650 O   0  0  0  0  0  0  0  0  0  0  0  0
   -5.4110   22.7590  -31.2860 N   0  0  0  0  0  0  0  0  0  0  0  0
   -4.0180   22.4330  -31.4150 C   0  0  0  0  0  0  0  0  0  0  0  0
   -3.4870   22.4120  -32.5570 O   0  0  0  0  0  0  0  0  0  0  0  0
   -3.1940   22.1650  -30.2270 C   0  0  0  0  0  0  0  0  0  0  0  0
   -3.1510   21.0010  -29.7460 O   0  0  0  0  0  0  0  0  0  0  0  0
   -2.4540   23.2360  -29.6250 N   0  0  0  0  0  0  0  0  0  0  0  0
   -2.4300   23.6010  -28.2020 C   0  0  0  0  0  0  0  0  0  0  0  0
   -1.7320   22.4990  -27.3800 C   0  0  0  0  0  0  0  0  0  0  0  0
   -3.8660   23.8160  -27.6890 C   0  0  0  0  0  0  0  0  0  0  0  0
   -1.6490   24.9270  -28.0610 C   0  0  0  0  0  0  0  0  0  0  0  0
   -1.4990   25.5660  -29.3030 O   0  0  0  0  0  0  0  0  0  0  0  0
   -6.4450   21.9270  -31.5240 C   0  0  0  0  0  0  0  0  0  0  0  0
   -6.4010   20.5870  -31.9250 C   0  0  0  0  0  0  0  0  0  0  0  0
   -6.5879   18.1119  -32.6201 H   0  0  0  0  0  0  0  0  0  0  0  0
   -8.1435   17.8790  -31.7526 H   0  0  0  0  0  0  0  0  0  0  0  0
   -8.1435   18.3447  -33.4875 H   0  0  0  0  0  0  0  0  0  0  0  0
   -9.7998   20.0583  -32.0620 H   0  0  0  0  0  0  0  0  0  0  0  0
   -9.8094   22.4781  -31.3673 H   0  0  0  0  0  0  0  0  0  0  0  0
   -8.0762   24.6746  -30.7459 H   0  0  0  0  0  0  0  0  0  0  0  0
   -3.1070   25.2630  -30.0970 H   0  0  0  0  0  0  0  0  0  0  0  0
   -1.8619   22.7040  -26.3071 H   0  0  0  0  0  0  0  0  0  0  0  0
   -2.1768   21.5228  -27.6232 H   0  0  0  0  0  0  0  0  0  0  0  0
   -0.6593   22.4840  -27.6232 H   0  0  0  0  0  0  0  0  0  0  0  0
   -3.8662   23.8160  -26.5890 H   0  0  0  0  0  0  0  0  0  0  0  0
   -4.2458   24.7810  -28.0558 H   0  0  0  0  0  0  0  0  0  0  0  0
   -4.5117   23.0045  -28.0558 H   0  0  0  0  0  0  0  0  0  0  0  0
   -2.1961   25.5942  -27.3786 H   0  0  0  0  0  0  0  0  0  0  0  0
   -0.6484   24.6999  -27.6645 H   0  0  0  0  0  0  0  0  0  0  0  0
   -1.8330   24.9350  -29.9930 H   0  0  0  0  0  0  0  0  0  0  0  0
   -5.4403   20.0718  -32.0717 H   0  0  0  0  0  0  0  0  0  0  0  0
  1  2  1  0
  2  3  2  0
  3  4  1  0
  4  5  2  0
  5  6  1  0
  6  7  2  0
  7  8  1  0
  8  9  1  0
  8 10  2  0
  7 11  1  0
 11 12  1  0
 12 13  2  0
 12 14  1  0
 14 15  2  0
 14 16  1  0
 16 17  1  0
 17 18  1  0
 17 19  1  0
 17 20  1  0
 20 21  1  0
 11 22  1  0
 22 23  2  0
 23  2  1  0
 22  5  1  0
  1 24  1  0
  1 25  1  0
  1 26  1  0
  3 27  1  0
  4 28  1  0
  6 29  1  0
  9 30  1  0
 18 31  1  0
 18 32  1  0
 18 33  1  0
 19 34  1  0
 19 35  1  0
 19 36  1  0
 20 37  1  0
 20 38  1  0
 21 39  1  0
 23 40  1  0
M  CHG  2   9  -1  16  -1
M  END
>  <UniqueID>  (16) 
16

>  <SMILES>  (16) 
Cc1ccc2cc(C([NH-])=O)n(C(=O)C(=O)[N-]C(C)(C)CO)c2c1

>  <Energy>  (16) 
73.78832872421042

>  <Genealogy>  (16) 
Cc1ccc2cc(C([NH-])=O)n(C(=O)C(=O)[N-]C(C)(C)CO)c2c1 (protonated)
Cc1ccc2cc(C([NH-])=O)n(C(=O)C(=O)[N-]C(C)(C)CO)c2c1 (3D coordinates assigned)
Cc1ccc2cc(C([NH-])=O)n(C(=O)C(=O)[N-]C(C)(C)CO)c2c1 (optimized conformer: 73.78832872421042 kcal/mol)

>  <smiles>  (16) 
Cc1ccc2cc(C(N)=O)n(C(=O)C(=O)NC(C)(C)CO)c2c1

>  <score_type>  (16) 
oracle

>  <origin>  (16) 
adg

>  <m_score__min__energy>  (16) 
-11.699999999999999

>  <m_primary>  (16) 
energy

$$$$
16:0
     RDKit          3D

 30 31  0  0  0  0  0  0  0  0999 V2000
   -8.3180   18.5840  -31.6400 C   0  0  0  0  0  0  0  0  0  0  0  0
   -7.0190   19.1560  -31.7260 O   0  0  0  0  0  0  0  0  0  0  0  0
   -6.7500   20.3030  -32.4770 C   0  0  0  0  0  0  0  0  0  0  0  0
   -7.4630   21.3370  -32.3510 O   0  0  0  0  0  0  0  0  0  0  0  0
   -5.5740   20.3200  -33.3990 C   0  0  0  0  0  0  0  0  0  0  0  0
   -4.3500   20.7900  -32.6630 C   0  0  0  0  0  0  0  0  0  0  0  0
   -3.1920   19.9750  -32.6200 C   0  0  0  0  0  0  0  0  0  0  0  0
   -2.0580   20.3820  -31.8970 C   0  0  0  0  0  0  0  0  0  0  0  0
   -2.1140   21.6010  -31.2290 C   0  0  0  0  0  0  0  0  0  0  0  0
   -1.1740   22.2160  -30.4340 C   0  0  0  0  0  0  0  0  0  0  0  0
   -1.7680   23.4040  -30.0120 C   0  0  0  0  0  0  0  0  0  0  0  0
   -1.0660   24.4180  -29.1960 C   0  0  0  0  0  0  0  0  0  0  0  0
   -1.6800   25.6820  -28.9530 N   0  0  0  0  0  0  0  0  0  0  0  0
    0.0550   24.1690  -28.6810 O   0  0  0  0  0  0  0  0  0  0  0  0
   -3.0300   23.5150  -30.5180 N   0  0  0  0  0  0  0  0  0  0  0  0
   -3.9930   24.5520  -30.2720 C   0  0  0  0  0  0  0  0  0  0  0  0
   -3.8800   25.6730  -30.8330 O   0  0  0  0  0  0  0  0  0  0  0  0
   -5.0450   24.3370  -29.3900 O   0  0  0  0  0  0  0  0  0  0  0  0
   -3.2240   22.4040  -31.2640 C   0  0  0  0  0  0  0  0  0  0  0  0
   -4.3740   22.0160  -31.9620 C   0  0  0  0  0  0  0  0  0  0  0  0
   -8.5956   18.4618  -30.5826 H   0  0  0  0  0  0  0  0  0  0  0  0
   -9.0436   19.2458  -32.1354 H   0  0  0  0  0  0  0  0  0  0  0  0
   -8.3197   17.6019  -32.1354 H   0  0  0  0  0  0  0  0  0  0  0  0
   -5.3994   19.3050  -33.7853 H   0  0  0  0  0  0  0  0  0  0  0  0
   -5.7794   21.0067  -34.2334 H   0  0  0  0  0  0  0  0  0  0  0  0
   -3.1805   19.0152  -33.1573 H   0  0  0  0  0  0  0  0  0  0  0  0
   -1.1541   19.7562  -31.8603 H   0  0  0  0  0  0  0  0  0  0  0  0
   -0.1678   21.8481  -30.1846 H   0  0  0  0  0  0  0  0  0  0  0  0
   -2.7160   25.7960  -29.0110 H   0  0  0  0  0  0  0  0  0  0  0  0
   -5.2731   22.6497  -31.9644 H   0  0  0  0  0  0  0  0  0  0  0  0
  1  2  1  0
  2  3  1  0
  3  4  2  0
  3  5  1  0
  5  6  1  0
  6  7  2  0
  7  8  1  0
  8  9  2  0
  9 10  1  0
 10 11  2  0
 11 12  1  0
 12 13  1  0
 12 14  2  0
 11 15  1  0
 15 16  1  0
 16 17  2  0
 16 18  1  0
 15 19  1  0
 19 20  2  0
 20  6  1  0
 19  9  1  0
  1 21  1  0
  1 22  1  0
  1 23  1  0
  5 24  1  0
  5 25  1  0
  7 26  1  0
  8 27  1  0
 10 28  1  0
 13 29  1  0
 20 30  1  0
M  CHG  2  13  -1  18  -1
M  END
>  <UniqueID>  (17) 
17

>  <SMILES>  (17) 
COC(=O)Cc1ccc2cc(C([NH-])=O)n(C(=O)[O-])c2c1

>  <Energy>  (17) 
65.5724187510439

>  <Genealogy>  (17) 
COC(=O)Cc1ccc2cc(C([NH-])=O)n(C(=O)[O-])c2c1 (protonated)
COC(=O)Cc1ccc2cc(C([NH-])=O)n(C(=O)[O-])c2c1 (3D coordinates assigned)
COC(=O)Cc1ccc2cc(C([NH-])=O)n(C(=O)[O-])c2c1 (optimized conformer: 65.5724187510439 kcal/mol)

>  <smiles>  (17) 
COC(=O)Cc1ccc2cc(C(N)=O)n(C(=O)O)c2c1

>  <score_type>  (17) 
oracle

>  <origin>  (17) 
adg

>  <m_score__min__energy>  (17) 
-10.039999999999999

>  <m_primary>  (17) 
energy

$$$$
17:0
     RDKit          3D

 32 33  0  0  0  0  0  0  0  0999 V2000
   -3.3800   21.9290  -28.5950 C   0  0  0  0  0  0  0  0  0  0  0  0
   -2.8720   22.6550  -29.7630 N   0  0  0  0  0  0  0  0  0  0  0  0
   -1.7360   23.5360  -29.6240 C   0  0  0  0  0  0  0  0  0  0  0  0
   -0.5810   23.1470  -29.9390 O   0  0  0  0  0  0  0  0  0  0  0  0
   -1.9190   25.2100  -28.9650 S   0  0  0  0  0  0  0  0  0  0  0  0
   -3.4850   22.4460  -31.0520 C   0  0  0  0  0  0  0  0  0  0  0  0
   -2.7700   22.1730  -32.0550 O   0  0  0  0  0  0  0  0  0  0  0  0
   -4.9100   22.5460  -31.2110 N   0  0  0  0  0  0  0  0  0  0  0  0
   -5.7060   23.6140  -30.9250 C   0  0  0  0  0  0  0  0  0  0  0  0
   -5.2570   24.8610  -30.2640 C   0  0  0  0  0  0  0  0  0  0  0  0
   -5.7290   25.2100  -28.9610 N   0  0  0  0  0  0  0  0  0  0  0  0
   -4.4340   25.6200  -30.8410 O   0  0  0  0  0  0  0  0  0  0  0  0
   -7.0280   23.3390  -31.2750 C   0  0  0  0  0  0  0  0  0  0  0  0
   -7.0120   22.0630  -31.7930 C   0  0  0  0  0  0  0  0  0  0  0  0
   -8.0480   21.2960  -32.3190 C   0  0  0  0  0  0  0  0  0  0  0  0
   -7.7350   20.0200  -32.8160 C   0  0  0  0  0  0  0  0  0  0  0  0
   -6.4030   19.5300  -32.7720 C   0  0  0  0  0  0  0  0  0  0  0  0
   -6.0690   18.1840  -33.3610 C   0  0  0  0  0  0  0  0  0  0  0  0
   -5.8730   18.2840  -34.7280 F   0  0  0  0  0  0  0  0  0  0  0  0
   -7.0950   17.2830  -33.1360 F   0  0  0  0  0  0  0  0  0  0  0  0
   -4.9110   17.7050  -32.7740 F   0  0  0  0  0  0  0  0  0  0  0  0
   -5.3760   20.3520  -32.2520 C   0  0  0  0  0  0  0  0  0  0  0  0
   -5.7210   21.6090  -31.7460 C   0  0  0  0  0  0  0  0  0  0  0  0
   -3.0334   22.4244  -27.6761 H   0  0  0  0  0  0  0  0  0  0  0  0
   -4.4798   21.9239  -28.6163 H   0  0  0  0  0  0  0  0  0  0  0  0
   -3.0080   20.8940  -28.6163 H   0  0  0  0  0  0  0  0  0  0  0  0
   -6.4570   24.6450  -28.4750 H   0  0  0  0  0  0  0  0  0  0  0  0
   -5.3750   26.0730  -28.4910 H   0  0  0  0  0  0  0  0  0  0  0  0
   -7.8990   24.0012  -31.1613 H   0  0  0  0  0  0  0  0  0  0  0  0
   -9.0795   21.6773  -32.3446 H   0  0  0  0  0  0  0  0  0  0  0  0
   -8.5310   19.3931  -33.2443 H   0  0  0  0  0  0  0  0  0  0  0  0
   -4.3304   20.0104  -32.2458 H   0  0  0  0  0  0  0  0  0  0  0  0
  1  2  1  0
  2  3  1  0
  3  4  2  0
  3  5  1  0
  2  6  1  0
  6  7  2  0
  6  8  1  0
  8  9  1  0
  9 10  1  0
 10 11  1  0
 10 12  2  0
  9 13  2  0
 13 14  1  0
 14 15  2  0
 15 16  1  0
 16 17  2  0
 17 18  1  0
 18 19  1  0
 18 20  1  0
 18 21  1  0
 17 22  1  0
 22 23  2  0
 23  8  1  0
 23 14  1  0
  1 24  1  0
  1 25  1  0
  1 26  1  0
 11 27  1  0
 11 28  1  0
 13 29  1  0
 15 30  1  0
 16 31  1  0
 22 32  1  0
M  CHG  1   5  -1
M  END
>  <UniqueID>  (18) 
18

>  <SMILES>  (18) 
CN(C(=O)[S-])C(=O)n1c(C(N)=O)cc2ccc(C(F)(F)F)cc21

>  <Energy>  (18) 
74.06258479816832

>  <Genealogy>  (18) 
CN(C(=O)[S-])C(=O)n1c(C(N)=O)cc2ccc(C(F)(F)F)cc21 (protonated)
CN(C(=O)[S-])C(=O)n1c(C(N)=O)cc2ccc(C(F)(F)F)cc21 (3D coordinates assigned)
CN(C(=O)[S-])C(=O)n1c(C(N)=O)cc2ccc(C(F)(F)F)cc21 (optimized conformer: 74.06258479816832 kcal/mol)

>  <smiles>  (18) 
CN(C(=O)S)C(=O)n1c(C(N)=O)cc2ccc(C(F)(F)F)cc21

>  <score_type>  (18) 
oracle

>  <origin>  (18) 
adg

>  <m_score__min__energy>  (18) 
-9.4800000000000004

>  <m_primary>  (18) 
energy

$$$$
18:0
     RDKit          3D

 44 45  0  0  0  0  0  0  0  0999 V2000
   -0.4310   21.8160  -27.6190 C   0  0  0  0  0  0  0  0  0  0  0  0
   -0.6670   22.7820  -28.6990 N   0  0  0  0  0  0  0  0  0  0  0  0
   -0.2660   24.1840  -28.5170 C   0  0  0  0  0  0  0  0  0  0  0  0
   -1.4490   25.0810  -28.6930 C   0  0  0  0  0  0  0  0  0  0  0  0
   -2.6170   24.6150  -28.6200 O   0  0  0  0  0  0  0  0  0  0  0  0
   -1.2620   26.4310  -28.9660 O   0  0  0  0  0  0  0  0  0  0  0  0
   -1.2890   22.3660  -29.9370 C   0  0  0  0  0  0  0  0  0  0  0  0
   -0.5610   22.0240  -30.9100 O   0  0  0  0  0  0  0  0  0  0  0  0
   -2.7220   22.3450  -30.0780 N   0  0  0  0  0  0  0  0  0  0  0  0
   -3.4010   22.0940  -31.3190 C   0  0  0  0  0  0  0  0  0  0  0  0
   -2.7710   21.6530  -32.3170 O   0  0  0  0  0  0  0  0  0  0  0  0
   -4.8150   22.3270  -31.4200 N   0  0  0  0  0  0  0  0  0  0  0  0
   -5.5270   23.3610  -30.8900 C   0  0  0  0  0  0  0  0  0  0  0  0
   -4.9580   24.5430  -30.2100 C   0  0  0  0  0  0  0  0  0  0  0  0
   -5.1680   24.7690  -28.8150 N   0  0  0  0  0  0  0  0  0  0  0  0
   -4.2320   25.3400  -30.8610 O   0  0  0  0  0  0  0  0  0  0  0  0
   -6.8910   23.1760  -31.1000 C   0  0  0  0  0  0  0  0  0  0  0  0
   -6.9940   21.9870  -31.7880 C   0  0  0  0  0  0  0  0  0  0  0  0
   -8.1210   21.3090  -32.2360 C   0  0  0  0  0  0  0  0  0  0  0  0
   -7.9370   20.0730  -32.8780 C   0  0  0  0  0  0  0  0  0  0  0  0
   -6.6350   19.5220  -33.0510 C   0  0  0  0  0  0  0  0  0  0  0  0
   -6.4550   18.2390  -33.7030 N   0  0  0  0  0  0  0  0  0  0  0  0
   -6.9850   17.0120  -33.0930 C   0  0  0  0  0  0  0  0  0  0  0  0
   -5.7400   18.1460  -34.9800 C   0  0  0  0  0  0  0  0  0  0  0  0
   -5.5170   20.2490  -32.5700 C   0  0  0  0  0  0  0  0  0  0  0  0
   -5.7300   21.4920  -31.9630 C   0  0  0  0  0  0  0  0  0  0  0  0
   -0.5531   22.3159  -26.6468 H   0  0  0  0  0  0  0  0  0  0  0  0
   -1.1540   20.9910  -27.7005 H   0  0  0  0  0  0  0  0  0  0  0  0
    0.5910   21.4173  -27.7005 H   0  0  0  0  0  0  0  0  0  0  0  0
    0.1447   24.3170  -27.5053 H   0  0  0  0  0  0  0  0  0  0  0  0
    0.4971   24.4415  -29.2662 H   0  0  0  0  0  0  0  0  0  0  0  0
   -3.3230   22.5300  -29.2460 H   0  0  0  0  0  0  0  0  0  0  0  0
   -5.6050   24.0410  -28.2080 H   0  0  0  0  0  0  0  0  0  0  0  0
   -4.8010   25.6370  -28.3660 H   0  0  0  0  0  0  0  0  0  0  0  0
   -7.7109   23.8377  -30.7841 H   0  0  0  0  0  0  0  0  0  0  0  0
   -9.1279   21.7278  -32.0922 H   0  0  0  0  0  0  0  0  0  0  0  0
   -8.8122   19.5221  -33.2529 H   0  0  0  0  0  0  0  0  0  0  0  0
   -6.9465   17.1011  -31.9973 H   0  0  0  0  0  0  0  0  0  0  0  0
   -8.0272   16.8643  -33.4125 H   0  0  0  0  0  0  0  0  0  0  0  0
   -6.3781   16.1520  -33.4125 H   0  0  0  0  0  0  0  0  0  0  0  0
   -4.6657   18.0063  -34.7894 H   0  0  0  0  0  0  0  0  0  0  0  0
   -6.1248   17.2903  -35.5542 H   0  0  0  0  0  0  0  0  0  0  0  0
   -5.8932   19.0716  -35.5542 H   0  0  0  0  0  0  0  0  0  0  0  0
   -4.4997   19.8432  -32.6721 H   0  0  0  0  0  0  0  0  0  0  0  0
  1  2  1  0
  2  3  1  0
  3  4  1  0
  4  5  2  0
  4  6  1  0
  2  7  1  0
  7  8  2  0
  7  9  1  0
  9 10  1  0
 10 11  2  0
 10 12  1  0
 12 13  1  0
 13 14  1  0
 14 15  1  0
 14 16  2  0
 13 17  2  0
 17 18  1  0
 18 19  2  0
 19 20  1  0
 20 21  2  0
 21 22  1  0
 22 23  1  0
 22 24  1  0
 21 25  1  0
 25 26  2  0
 26 12  1  0
 26 18  1  0
  1 27  1  0
  1 28  1  0
  1 29  1  0
  3 30  1  0
  3 31  1  0
  9 32  1  0
 15 33  1  0
 15 34  1  0
 17 35  1  0
 19 36  1  0
 20 37  1  0
 23 38  1  0
 23 39  1  0
 23 40  1  0
 24 41  1  0
 24 42  1  0
 24 43  1  0
 25 44  1  0
M  CHG  1   6  -1
M  END
>  <UniqueID>  (19) 
19

>  <SMILES>  (19) 
CN(CC(=O)[O-])C(=O)NC(=O)n1c(C(N)=O)cc2ccc(N(C)C)cc21

>  <Energy>  (19) 
82.54583739251999

>  <Genealogy>  (19) 
CN(CC(=O)[O-])C(=O)NC(=O)n1c(C(N)=O)cc2ccc(N(C)C)cc21 (protonated)
CN(CC(=O)[O-])C(=O)NC(=O)n1c(C(N)=O)cc2ccc(N(C)C)cc21 (3D coordinates assigned)
CN(CC(=O)[O-])C(=O)NC(=O)n1c(C(N)=O)cc2ccc(N(C)C)cc21 (optimized conformer: 82.54583739251999 kcal/mol)

>  <smiles>  (19) 
CN(CC(=O)O)C(=O)NC(=O)n1c(C(N)=O)cc2ccc(N(C)C)cc21

>  <score_type>  (19) 
oracle

>  <origin>  (19) 
adg

>  <m_score__min__energy>  (19) 
-11.66

>  <m_primary>  (19) 
energy

$$$$
19:0
     RDKit          3D

 55 56  0  0  0  0  0  0  0  0999 V2000
   -8.5640   18.9450  -32.7230 C   0  0  0  0  0  0  0  0  0  0  0  0
   -7.9890   20.1610  -32.0600 C   0  0  0  0  0  0  0  0  0  0  0  0
   -8.8520   21.1510  -31.5330 C   0  0  0  0  0  0  0  0  0  0  0  0
   -8.3320   22.3270  -30.9680 C   0  0  0  0  0  0  0  0  0  0  0  0
   -6.9500   22.4830  -30.9470 C   0  0  0  0  0  0  0  0  0  0  0  0
   -6.1900   23.5480  -30.5240 C   0  0  0  0  0  0  0  0  0  0  0  0
   -4.8720   23.1880  -30.7890 C   0  0  0  0  0  0  0  0  0  0  0  0
   -3.7190   24.0580  -30.4790 C   0  0  0  0  0  0  0  0  0  0  0  0
   -2.4460   23.5120  -30.1190 N   0  0  0  0  0  0  0  0  0  0  0  0
   -3.8660   25.3090  -30.5030 O   0  0  0  0  0  0  0  0  0  0  0  0
   -4.8140   21.9490  -31.3560 N   0  0  0  0  0  0  0  0  0  0  0  0
   -3.6650   21.3000  -31.9190 C   0  0  0  0  0  0  0  0  0  0  0  0
   -3.6550   20.9750  -33.1370 O   0  0  0  0  0  0  0  0  0  0  0  0
   -2.5470   21.0570  -31.1140 O   0  0  0  0  0  0  0  0  0  0  0  0
   -1.4660   20.2110  -31.4980 C   0  0  0  0  0  0  0  0  0  0  0  0
   -0.6870   19.7110  -30.2750 C   0  0  0  0  0  0  0  0  0  0  0  0
   -0.9780   20.5380  -29.0950 N   0  0  0  0  0  0  0  0  0  0  0  0
   -2.0090   20.1120  -28.1470 C   0  0  0  0  0  0  0  0  0  0  0  0
   -0.3940   21.8470  -28.9550 C   0  0  0  0  0  0  0  0  0  0  0  0
   -0.1530   22.5500  -29.9780 O   0  0  0  0  0  0  0  0  0  0  0  0
   -0.1050   22.3450  -27.6810 O   0  0  0  0  0  0  0  0  0  0  0  0
    0.6440   23.5380  -27.4840 C   0  0  0  0  0  0  0  0  0  0  0  0
    0.1180   24.5620  -28.3150 O   0  0  0  0  0  0  0  0  0  0  0  0
   -1.1130   25.1740  -28.0640 C   0  0  0  0  0  0  0  0  0  0  0  0
   -1.5910   26.0080  -28.8820 O   0  0  0  0  0  0  0  0  0  0  0  0
   -1.8500   24.8490  -26.7970 C   0  0  0  0  0  0  0  0  0  0  0  0
   -1.7650   26.0230  -25.8180 C   0  0  0  0  0  0  0  0  0  0  0  0
   -3.3070   24.4800  -27.0920 C   0  0  0  0  0  0  0  0  0  0  0  0
   -6.0970   21.5310  -31.4450 C   0  0  0  0  0  0  0  0  0  0  0  0
   -6.5910   20.3560  -32.0280 C   0  0  0  0  0  0  0  0  0  0  0  0
   -8.9006   18.2332  -31.9549 H   0  0  0  0  0  0  0  0  0  0  0  0
   -9.4185   19.2389  -33.3502 H   0  0  0  0  0  0  0  0  0  0  0  0
   -7.7946   18.4710  -33.3502 H   0  0  0  0  0  0  0  0  0  0  0  0
   -9.9408   20.9980  -31.5662 H   0  0  0  0  0  0  0  0  0  0  0  0
   -8.9966   23.1002  -30.5552 H   0  0  0  0  0  0  0  0  0  0  0  0
   -6.5476   24.4851  -30.0723 H   0  0  0  0  0  0  0  0  0  0  0  0
   -1.6350   24.1470  -29.9490 H   0  0  0  0  0  0  0  0  0  0  0  0
   -2.3280   22.4940  -29.9180 H   0  0  0  0  0  0  0  0  0  0  0  0
   -1.8660   19.3454  -32.0463 H   0  0  0  0  0  0  0  0  0  0  0  0
   -0.7801   20.7912  -32.1327 H   0  0  0  0  0  0  0  0  0  0  0  0
   -0.9746   18.6702  -30.0654 H   0  0  0  0  0  0  0  0  0  0  0  0
    0.3893   19.7751  -30.4930 H   0  0  0  0  0  0  0  0  0  0  0  0
   -1.6465   20.2618  -27.1193 H   0  0  0  0  0  0  0  0  0  0  0  0
   -2.9206   20.7071  -28.3047 H   0  0  0  0  0  0  0  0  0  0  0  0
   -2.2346   19.0470  -28.3047 H   0  0  0  0  0  0  0  0  0  0  0  0
    0.5738   23.8467  -26.4305 H   0  0  0  0  0  0  0  0  0  0  0  0
    1.6985   23.3589  -27.7407 H   0  0  0  0  0  0  0  0  0  0  0  0
   -1.3733   23.9748  -26.3295 H   0  0  0  0  0  0  0  0  0  0  0  0
   -1.7925   25.6427  -24.7862 H   0  0  0  0  0  0  0  0  0  0  0  0
   -0.8249   26.5700  -25.9822 H   0  0  0  0  0  0  0  0  0  0  0  0
   -2.6165   26.6997  -25.9822 H   0  0  0  0  0  0  0  0  0  0  0  0
   -3.8494   24.3426  -26.1449 H   0  0  0  0  0  0  0  0  0  0  0  0
   -3.7795   25.2868  -27.6715 H   0  0  0  0  0  0  0  0  0  0  0  0
   -3.3385   23.5455  -27.6715 H   0  0  0  0  0  0  0  0  0  0  0  0
   -5.9070   19.6049  -32.4499 H   0  0  0  0  0  0  0  0  0  0  0  0
  1  2  1  0
  2  3  2  0
  3  4  1  0
  4  5  2  0
  5  6  1  0
  6  7  2  0
  7  8  1  0
  8  9  1  0
  8 10  2  0
  7 11  1  0
 11 12  1  0
 12 13  2  0
 12 14  1  0
 14 15  1  0
 15 16  1  0
 16 17  1  0
 17 18  1  0
 17 19  1  0
 19 20  2  0
 19 21  1  0
 21 22  1  0
 22 23  1  0
 23 24  1  0
 24 25  2  0
 24 26  1  0
 26 27  1  0
 26 28  1  0
 11 29  1  0
 29 30  2  0
 30  2  1  0
 29  5  1  0
  1 31  1  0
  1 32  1  0
  1 33  1  0
  3 34  1  0
  4 35  1  0
  6 36  1  0
  9 37  1  0
  9 38  1  0
 15 39  1  0
 15 40  1  0
 16 41  1  0
 16 42  1  0
 18 43  1  0
 18 44  1  0
 18 45  1  0
 22 46  1  0
 22 47  1  0
 26 48  1  0
 27 49  1  0
 27 50  1  0
 27 51  1  0
 28 52  1  0
 28 53  1  0
 28 54  1  0
 30 55  1  0
M  END
>  <UniqueID>  (20) 
20

>  <SMILES>  (20) 
Cc1ccc2cc(C(N)=O)n(C(=O)OCCN(C)C(=O)OCOC(=O)C(C)C)c2c1

>  <Energy>  (20) 
75.54833724494802

>  <Genealogy>  (20) 
Cc1ccc2cc(C(N)=O)n(C(=O)OCCN(C)C(=O)OCOC(=O)C(C)C)c2c1 (3D coordinates assigned)
Cc1ccc2cc(C(N)=O)n(C(=O)OCCN(C)C(=O)OCOC(=O)C(C)C)c2c1 (optimized conformer: 75.54833724494802 kcal/mol)

>  <smiles>  (20) 
Cc1ccc2cc(C(N)=O)n(C(=O)OCCN(C)C(=O)OCOC(=O)C(C)C)c2c1

>  <score_type>  (20) 
oracle

>  <origin>  (20) 
adg

>  <m_score__min__energy>  (20) 
-8.9800000000000004

>  <m_primary>  (20) 
energy

$$$$
20:0
     RDKit          3D

 43 45  0  0  0  0  0  0  0  0999 V2000
   -1.0110   21.8520  -30.4740 C   0  0  0  0  0  0  0  0  0  0  0  0
   -1.9700   22.7060  -29.7710 N   0  0  0  0  0  0  0  0  0  0  0  0
   -1.4760   23.6550  -28.7660 C   0  0  0  0  0  0  0  0  0  0  0  0
   -1.8710   25.0510  -29.1290 C   0  0  0  0  0  0  0  0  0  0  0  0
   -1.0880   26.0110  -28.9050 O   0  0  0  0  0  0  0  0  0  0  0  0
   -3.1150   25.2960  -29.6950 O   0  0  0  0  0  0  0  0  0  0  0  0
   -3.3830   22.4450  -29.8670 C   0  0  0  0  0  0  0  0  0  0  0  0
   -4.0620   22.3090  -28.8160 O   0  0  0  0  0  0  0  0  0  0  0  0
   -4.0650   22.3920  -31.1720 C   0  0  0  0  0  0  0  0  0  0  0  0
   -3.3910   22.3140  -32.2340 O   0  0  0  0  0  0  0  0  0  0  0  0
   -5.4940   22.4870  -31.2490 N   0  0  0  0  0  0  0  0  0  0  0  0
   -6.2870   23.5380  -30.8970 C   0  0  0  0  0  0  0  0  0  0  0  0
   -5.8170   24.7720  -30.2270 C   0  0  0  0  0  0  0  0  0  0  0  0
   -5.3800   24.7530  -28.8670 N   0  0  0  0  0  0  0  0  0  0  0  0
   -5.7700   25.8570  -30.8630 O   0  0  0  0  0  0  0  0  0  0  0  0
   -7.6220   23.2540  -31.1940 C   0  0  0  0  0  0  0  0  0  0  0  0
   -7.6130   21.9940  -31.7470 C   0  0  0  0  0  0  0  0  0  0  0  0
   -8.6620   21.2210  -32.2400 C   0  0  0  0  0  0  0  0  0  0  0  0
   -8.3530   19.9600  -32.7820 C   0  0  0  0  0  0  0  0  0  0  0  0
   -7.0160   19.5010  -32.8140 C   0  0  0  0  0  0  0  0  0  0  0  0
   -6.7130   18.2230  -33.3750 N   0  0  0  0  0  0  0  0  0  0  0  0
   -6.0520   17.6900  -34.5800 C   0  0  0  0  0  0  0  0  0  0  0  0
   -6.2120   16.2490  -34.2240 C   0  0  0  0  0  0  0  0  0  0  0  0
   -6.8720   16.8060  -33.0060 C   0  0  0  0  0  0  0  0  0  0  0  0
   -5.9790   20.3060  -32.3010 C   0  0  0  0  0  0  0  0  0  0  0  0
   -6.3160   21.5530  -31.7680 C   0  0  0  0  0  0  0  0  0  0  0  0
   -0.3989   21.3069  -29.7404 H   0  0  0  0  0  0  0  0  0  0  0  0
   -1.5541   21.1330  -31.1049 H   0  0  0  0  0  0  0  0  0  0  0  0
   -0.3595   22.4744  -31.1049 H   0  0  0  0  0  0  0  0  0  0  0  0
   -1.9046   23.4004  -27.7854 H   0  0  0  0  0  0  0  0  0  0  0  0
   -0.3784   23.5935  -28.7261 H   0  0  0  0  0  0  0  0  0  0  0  0
   -5.4550   23.8960  -28.2790 H   0  0  0  0  0  0  0  0  0  0  0  0
   -5.0210   25.6260  -28.4230 H   0  0  0  0  0  0  0  0  0  0  0  0
   -8.4953   23.9005  -31.0223 H   0  0  0  0  0  0  0  0  0  0  0  0
   -9.6994   21.5852  -32.2065 H   0  0  0  0  0  0  0  0  0  0  0  0
   -9.1575   19.3265  -33.1838 H   0  0  0  0  0  0  0  0  0  0  0  0
   -6.5787   17.9593  -35.5074 H   0  0  0  0  0  0  0  0  0  0  0  0
   -5.0319   18.0439  -34.7899 H   0  0  0  0  0  0  0  0  0  0  0  0
   -6.8624   15.6644  -34.8912 H   0  0  0  0  0  0  0  0  0  0  0  0
   -5.3828   15.5267  -34.1978 H   0  0  0  0  0  0  0  0  0  0  0  0
   -7.9267   16.5056  -32.9199 H   0  0  0  0  0  0  0  0  0  0  0  0
   -6.4687   16.4943  -32.0313 H   0  0  0  0  0  0  0  0  0  0  0  0
   -4.9342   19.9624  -32.3197 H   0  0  0  0  0  0  0  0  0  0  0  0
  1  2  1  0
  2  3  1  0
  3  4  1  0
  4  5  2  0
  4  6  1  0
  2  7  1  0
  7  8  2  0
  7  9  1  0
  9 10  2  0
  9 11  1  0
 11 12  1  0
 12 13  1  0
 13 14  1  0
 13 15  2  0
 12 16  2  0
 16 17  1  0
 17 18  2  0
 18 19  1  0
 19 20  2  0
 20 21  1  0
 21 22  1  0
 22 23  1  0
 23 24  1  0
 20 25  1  0
 25 26  2  0
 26 11  1  0
 26 17  1  0
 24 21  1  0
  1 27  1  0
  1 28  1  0
  1 29  1  0
  3 30  1  0
  3 31  1  0
 14 32  1  0
 14 33  1  0
 16 34  1  0
 18 35  1  0
 19 36  1  0
 22 37  1  0
 22 38  1  0
 23 39  1  0
 23 40  1  0
 24 41  1  0
 24 42  1  0
 25 43  1  0
M  CHG  1   6  -1
M  END
>  <UniqueID>  (21) 
21

>  <SMILES>  (21) 
CN(CC(=O)[O-])C(=O)C(=O)n1c(C(N)=O)cc2ccc(N3CCC3)cc21

>  <Energy>  (21) 
127.62719358551348

>  <Genealogy>  (21) 
CN(CC(=O)[O-])C(=O)C(=O)n1c(C(N)=O)cc2ccc(N3CCC3)cc21 (protonated)
CN(CC(=O)[O-])C(=O)C(=O)n1c(C(N)=O)cc2ccc(N3CCC3)cc21 (3D coordinates assigned)
CN(CC(=O)[O-])C(=O)C(=O)n1c(C(N)=O)cc2ccc(N3CCC3)cc21 (nonaromatic ring conformer: 127.62719358551348 kcal/mol)

>  <smiles>  (21) 
CN(CC(=O)O)C(=O)C(=O)n1c(C(N)=O)cc2ccc(N3CCC3)cc21

>  <score_type>  (21) 
oracle

>  <origin>  (21) 
adg

>  <m_score__min__energy>  (21) 
-11.06

>  <m_primary>  (21) 
energy

$$$$
21:0
     RDKit          3D

 30 31  0  0  0  0  0  0  0  0999 V2000
   -3.9730   22.4440  -29.3700 C   0  0  0  0  0  0  0  0  0  0  0  0
   -4.0550   23.3320  -30.3720 C   0  0  0  0  0  0  0  0  0  0  0  0
   -3.4840   24.6920  -30.2060 C   0  0  0  0  0  0  0  0  0  0  0  0
   -3.9560   25.6720  -30.8420 O   0  0  0  0  0  0  0  0  0  0  0  0
   -2.4240   24.9100  -29.3330 O   0  0  0  0  0  0  0  0  0  0  0  0
   -4.7290   22.9540  -31.6410 C   0  0  0  0  0  0  0  0  0  0  0  0
   -5.4750   23.7830  -32.2270 O   0  0  0  0  0  0  0  0  0  0  0  0
   -4.5850   21.6370  -32.1970 N   0  0  0  0  0  0  0  0  0  0  0  0
   -3.4360   20.9850  -32.5320 C   0  0  0  0  0  0  0  0  0  0  0  0
   -2.0730   21.5540  -32.4910 C   0  0  0  0  0  0  0  0  0  0  0  0
   -1.2380   21.5480  -33.6460 N   0  0  0  0  0  0  0  0  0  0  0  0
   -1.6250   22.0240  -31.4110 O   0  0  0  0  0  0  0  0  0  0  0  0
   -3.7220   19.6960  -32.9830 C   0  0  0  0  0  0  0  0  0  0  0  0
   -5.0930   19.5850  -32.9250 C   0  0  0  0  0  0  0  0  0  0  0  0
   -5.9220   18.5140  -33.2440 C   0  0  0  0  0  0  0  0  0  0  0  0
   -7.3070   18.6760  -33.0620 C   0  0  0  0  0  0  0  0  0  0  0  0
   -7.8330   19.9000  -32.5770 C   0  0  0  0  0  0  0  0  0  0  0  0
   -9.3070   20.0430  -32.3440 C   0  0  0  0  0  0  0  0  0  0  0  0
   -6.9590   20.9590  -32.2490 C   0  0  0  0  0  0  0  0  0  0  0  0
   -5.5890   20.7710  -32.4500 C   0  0  0  0  0  0  0  0  0  0  0  0
   -4.3960   21.4360  -29.4924 H   0  0  0  0  0  0  0  0  0  0  0  0
   -3.4828   22.7238  -28.4259 H   0  0  0  0  0  0  0  0  0  0  0  0
   -1.6380   21.6910  -34.5990 H   0  0  0  0  0  0  0  0  0  0  0  0
   -3.0045   18.9310  -33.3145 H   0  0  0  0  0  0  0  0  0  0  0  0
   -5.5069   17.5699  -33.6267 H   0  0  0  0  0  0  0  0  0  0  0  0
   -7.9885   17.8455  -33.2981 H   0  0  0  0  0  0  0  0  0  0  0  0
   -9.5071   20.0624  -31.2625 H   0  0  0  0  0  0  0  0  0  0  0  0
   -9.6610   20.9797  -32.7993 H   0  0  0  0  0  0  0  0  0  0  0  0
   -9.8345   19.1918  -32.7993 H   0  0  0  0  0  0  0  0  0  0  0  0
   -7.3460   21.9066  -31.8461 H   0  0  0  0  0  0  0  0  0  0  0  0
  1  2  2  0
  2  3  1  0
  3  4  2  0
  3  5  1  0
  2  6  1  0
  6  7  2  0
  6  8  1  0
  8  9  1  0
  9 10  1  0
 10 11  1  0
 10 12  2  0
  9 13  2  0
 13 14  1  0
 14 15  2  0
 15 16  1  0
 16 17  2  0
 17 18  1  0
 17 19  1  0
 19 20  2  0
 20  8  1  0
 20 14  1  0
  1 21  1  0
  1 22  1  0
 11 23  1  0
 13 24  1  0
 15 25  1  0
 16 26  1  0
 18 27  1  0
 18 28  1  0
 18 29  1  0
 19 30  1  0
M  CHG  2   5  -1  11  -1
M  END
>  <UniqueID>  (22) 
22

>  <SMILES>  (22) 
C=C(C(=O)[O-])C(=O)n1c(C([NH-])=O)cc2ccc(C)cc21

>  <Energy>  (22) 
71.18040574922286

>  <Genealogy>  (22) 
C=C(C(=O)[O-])C(=O)n1c(C([NH-])=O)cc2ccc(C)cc21 (protonated)
C=C(C(=O)[O-])C(=O)n1c(C([NH-])=O)cc2ccc(C)cc21 (3D coordinates assigned)
C=C(C(=O)[O-])C(=O)n1c(C([NH-])=O)cc2ccc(C)cc21 (optimized conformer: 71.18040574922286 kcal/mol)

>  <smiles>  (22) 
C=C(C(=O)O)C(=O)n1c(C(N)=O)cc2ccc(C)cc21

>  <score_type>  (22) 
oracle

>  <origin>  (22) 
adg

>  <m_score__min__energy>  (22) 
-11.56

>  <m_primary>  (22) 
energy

$$$$
22:0
     RDKit          3D

 47 48  0  0  0  0  0  0  0  0999 V2000
   -4.2610   24.9450  -26.3690 C   0  0  0  0  0  0  0  0  0  0  0  0
   -3.0910   25.0620  -27.1470 O   0  0  0  0  0  0  0  0  0  0  0  0
   -2.0930   25.7240  -26.3990 C   0  0  0  0  0  0  0  0  0  0  0  0
   -1.1570   26.4850  -27.3390 C   0  0  0  0  0  0  0  0  0  0  0  0
   -1.0760   25.8430  -28.6110 O   0  0  0  0  0  0  0  0  0  0  0  0
   -0.7870   24.4840  -28.7720 C   0  0  0  0  0  0  0  0  0  0  0  0
    0.3940   24.1020  -29.0040 O   0  0  0  0  0  0  0  0  0  0  0  0
   -1.8260   23.5530  -28.6850 O   0  0  0  0  0  0  0  0  0  0  0  0
   -1.7830   22.2920  -29.3470 C   0  0  0  0  0  0  0  0  0  0  0  0
   -3.0780   21.9630  -29.8440 O   0  0  0  0  0  0  0  0  0  0  0  0
   -3.5710   22.4650  -31.0520 C   0  0  0  0  0  0  0  0  0  0  0  0
   -2.7980   22.6350  -32.0340 O   0  0  0  0  0  0  0  0  0  0  0  0
   -4.9650   22.7880  -31.1720 N   0  0  0  0  0  0  0  0  0  0  0  0
   -5.5870   23.9510  -30.8250 C   0  0  0  0  0  0  0  0  0  0  0  0
   -4.9250   25.1900  -30.3670 C   0  0  0  0  0  0  0  0  0  0  0  0
   -3.5060   25.2710  -30.2660 N   0  0  0  0  0  0  0  0  0  0  0  0
   -5.6200   26.2090  -30.1100 O   0  0  0  0  0  0  0  0  0  0  0  0
   -6.9580   23.8560  -31.0530 C   0  0  0  0  0  0  0  0  0  0  0  0
   -7.1560   22.5940  -31.5660 C   0  0  0  0  0  0  0  0  0  0  0  0
   -8.3280   21.9670  -31.9690 C   0  0  0  0  0  0  0  0  0  0  0  0
   -8.2420   20.6480  -32.4450 C   0  0  0  0  0  0  0  0  0  0  0  0
   -6.9920   19.9680  -32.5060 C   0  0  0  0  0  0  0  0  0  0  0  0
   -6.9160   18.6020  -32.9900 N   0  0  0  0  0  0  0  0  0  0  0  0
   -6.1160   18.2740  -34.1760 C   0  0  0  0  0  0  0  0  0  0  0  0
   -7.6350   17.5230  -32.2990 C   0  0  0  0  0  0  0  0  0  0  0  0
   -5.8240   20.6510  -32.0800 C   0  0  0  0  0  0  0  0  0  0  0  0
   -5.9400   21.9710  -31.6290 C   0  0  0  0  0  0  0  0  0  0  0  0
   -3.9958   24.9715  -25.3018 H   0  0  0  0  0  0  0  0  0  0  0  0
   -4.9394   25.7798  -26.5991 H   0  0  0  0  0  0  0  0  0  0  0  0
   -4.7606   23.9924  -26.5991 H   0  0  0  0  0  0  0  0  0  0  0  0
   -2.5676   26.4327  -25.7044 H   0  0  0  0  0  0  0  0  0  0  0  0
   -1.5121   24.9811  -25.8328 H   0  0  0  0  0  0  0  0  0  0  0  0
   -1.5384   27.5076  -27.4760 H   0  0  0  0  0  0  0  0  0  0  0  0
   -0.1521   26.5048  -26.8921 H   0  0  0  0  0  0  0  0  0  0  0  0
   -1.0725   22.3436  -30.1851 H   0  0  0  0  0  0  0  0  0  0  0  0
   -1.4602   21.5186  -28.6345 H   0  0  0  0  0  0  0  0  0  0  0  0
   -3.0340   25.3240  -29.3360 H   0  0  0  0  0  0  0  0  0  0  0  0
   -7.7204   24.6259  -30.8634 H   0  0  0  0  0  0  0  0  0  0  0  0
   -9.2954   22.4880  -31.9170 H   0  0  0  0  0  0  0  0  0  0  0  0
   -9.1552   20.1319  -32.7761 H   0  0  0  0  0  0  0  0  0  0  0  0
   -5.1408   17.8742  -33.8613 H   0  0  0  0  0  0  0  0  0  0  0  0
   -6.6446   17.5200  -34.7778 H   0  0  0  0  0  0  0  0  0  0  0  0
   -5.9631   19.1820  -34.7778 H   0  0  0  0  0  0  0  0  0  0  0  0
   -7.5440   17.6596  -31.2113 H   0  0  0  0  0  0  0  0  0  0  0  0
   -8.6971   17.5488  -32.5842 H   0  0  0  0  0  0  0  0  0  0  0  0
   -7.2023   16.5527  -32.5842 H   0  0  0  0  0  0  0  0  0  0  0  0
   -4.8440   20.1519  -32.1037 H   0  0  0  0  0  0  0  0  0  0  0  0
  1  2  1  0
  2  3  1  0
  3  4  1  0
  4  5  1  0
  5  6  1  0
  6  7  2  0
  6  8  1  0
  8  9  1  0
  9 10  1  0
 10 11  1  0
 11 12  2  0
 11 13  1  0
 13 14  1  0
 14 15  1  0
 15 16  1  0
 15 17  2  0
 14 18  2  0
 18 19  1  0
 19 20  2  0
 20 21  1  0
 21 22  2  0
 22 23  1  0
 23 24  1  0
 23 25  1  0
 22 26  1  0
 26 27  2  0
 27 13  1  0
 27 19  1  0
  1 28  1  0
  1 29  1  0
  1 30  1  0
  3 31  1  0
  3 32  1  0
  4 33  1  0
  4 34  1  0
  9 35  1  0
  9 36  1  0
 16 37  1  0
 18 38  1  0
 20 39  1  0
 21 40  1  0
 24 41  1  0
 24 42  1  0
 24 43  1  0
 25 44  1  0
 25 45  1  0
 25 46  1  0
 26 47  1  0
M  CHG  1  16  -1
M  END
>  <UniqueID>  (23) 
23

>  <SMILES>  (23) 
COCCOC(=O)OCOC(=O)n1c(C([NH-])=O)cc2ccc(N(C)C)cc21

>  <Energy>  (23) 
79.64118354754964

>  <Genealogy>  (23) 
COCCOC(=O)OCOC(=O)n1c(C([NH-])=O)cc2ccc(N(C)C)cc21 (protonated)
COCCOC(=O)OCOC(=O)n1c(C([NH-])=O)cc2ccc(N(C)C)cc21 (3D coordinates assigned)
COCCOC(=O)OCOC(=O)n1c(C([NH-])=O)cc2ccc(N(C)C)cc21 (optimized conformer: 79.64118354754964 kcal/mol)

>  <smiles>  (23) 
COCCOC(=O)OCOC(=O)n1c(C(N)=O)cc2ccc(N(C)C)cc21

>  <score_type>  (23) 
oracle

>  <origin>  (23) 
adg

>  <m_score__min__energy>  (23) 
-9.7599999999999998

>  <m_primary>  (23) 
energy

$$$$
23:0
     RDKit          3D

 41 42  0  0  0  0  0  0  0  0999 V2000
   -4.6250   19.2770  -32.7250 C   0  0  0  0  0  0  0  0  0  0  0  0
   -3.4880   20.0760  -32.1600 C   0  0  0  0  0  0  0  0  0  0  0  0
   -2.1560   19.6240  -32.3270 C   0  0  0  0  0  0  0  0  0  0  0  0
   -1.0820   20.3360  -31.7640 C   0  0  0  0  0  0  0  0  0  0  0  0
   -1.3740   21.4890  -31.0410 C   0  0  0  0  0  0  0  0  0  0  0  0
   -0.5360   22.3480  -30.3650 C   0  0  0  0  0  0  0  0  0  0  0  0
   -1.3700   23.3100  -29.8000 C   0  0  0  0  0  0  0  0  0  0  0  0
   -0.8840   24.4630  -29.0130 C   0  0  0  0  0  0  0  0  0  0  0  0
   -1.6480   25.6650  -28.9690 N   0  0  0  0  0  0  0  0  0  0  0  0
    0.1920   24.3910  -28.3630 O   0  0  0  0  0  0  0  0  0  0  0  0
   -2.6710   23.0570  -30.1170 N   0  0  0  0  0  0  0  0  0  0  0  0
   -3.8360   23.7790  -29.6840 C   0  0  0  0  0  0  0  0  0  0  0  0
   -4.2280   23.6530  -28.4940 O   0  0  0  0  0  0  0  0  0  0  0  0
   -4.5480   24.6730  -30.6260 C   0  0  0  0  0  0  0  0  0  0  0  0
   -4.3320   25.9120  -30.5640 O   0  0  0  0  0  0  0  0  0  0  0  0
   -5.4780   24.1950  -31.6100 N   0  0  0  0  0  0  0  0  0  0  0  0
   -6.7940   23.6290  -31.3440 C   0  0  0  0  0  0  0  0  0  0  0  0
   -7.0530   22.4620  -32.3000 C   0  0  0  0  0  0  0  0  0  0  0  0
   -7.9200   21.4460  -31.6660 N   0  0  0  0  0  0  0  0  0  0  0  0
   -7.8790   20.1920  -32.4370 C   0  0  0  0  0  0  0  0  0  0  0  0
   -9.3150   21.9180  -31.5780 C   0  0  0  0  0  0  0  0  0  0  0  0
   -2.6580   21.9380  -30.8720 C   0  0  0  0  0  0  0  0  0  0  0  0
   -3.7470   21.2400  -31.4050 C   0  0  0  0  0  0  0  0  0  0  0  0
   -5.2225   18.8571  -31.9024 H   0  0  0  0  0  0  0  0  0  0  0  0
   -5.2595   19.9288  -33.3435 H   0  0  0  0  0  0  0  0  0  0  0  0
   -4.2267   18.4591  -33.3435 H   0  0  0  0  0  0  0  0  0  0  0  0
   -1.9599   18.7073  -32.9026 H   0  0  0  0  0  0  0  0  0  0  0  0
   -0.0446   19.9929  -31.8909 H   0  0  0  0  0  0  0  0  0  0  0  0
    0.5596   22.2872  -30.2877 H   0  0  0  0  0  0  0  0  0  0  0  0
   -2.6490   25.6760  -29.2650 H   0  0  0  0  0  0  0  0  0  0  0  0
   -6.8342   23.2678  -30.3058 H   0  0  0  0  0  0  0  0  0  0  0  0
   -7.5618   24.4022  -31.4945 H   0  0  0  0  0  0  0  0  0  0  0  0
   -7.5462   22.8416  -33.2070 H   0  0  0  0  0  0  0  0  0  0  0  0
   -6.0903   21.9946  -32.5545 H   0  0  0  0  0  0  0  0  0  0  0  0
   -7.8510   19.3371  -31.7454 H   0  0  0  0  0  0  0  0  0  0  0  0
   -8.7753   20.1218  -33.0708 H   0  0  0  0  0  0  0  0  0  0  0  0
   -6.9800   20.1805  -33.0708 H   0  0  0  0  0  0  0  0  0  0  0  0
   -9.6031   22.0155  -30.5209 H   0  0  0  0  0  0  0  0  0  0  0  0
   -9.4031   22.8960  -32.0737 H   0  0  0  0  0  0  0  0  0  0  0  0
   -9.9789   21.1945  -32.0737 H   0  0  0  0  0  0  0  0  0  0  0  0
   -4.7771   21.5889  -31.2401 H   0  0  0  0  0  0  0  0  0  0  0  0
  1  2  1  0
  2  3  2  0
  3  4  1  0
  4  5  2  0
  5  6  1  0
  6  7  2  0
  7  8  1  0
  8  9  1  0
  8 10  2  0
  7 11  1  0
 11 12  1  0
 12 13  2  0
 12 14  1  0
 14 15  2  0
 14 16  1  0
 16 17  1  0
 17 18  1  0
 18 19  1  0
 19 20  1  0
 19 21  1  0
 11 22  1  0
 22 23  2  0
 23  2  1  0
 22  5  1  0
  1 24  1  0
  1 25  1  0
  1 26  1  0
  3 27  1  0
  4 28  1  0
  6 29  1  0
  9 30  1  0
 17 31  1  0
 17 32  1  0
 18 33  1  0
 18 34  1  0
 20 35  1  0
 20 36  1  0
 20 37  1  0
 21 38  1  0
 21 39  1  0
 21 40  1  0
 23 41  1  0
M  CHG  2   9  -1  16  -1
M  END
>  <UniqueID>  (24) 
24

>  <SMILES>  (24) 
Cc1ccc2cc(C([NH-])=O)n(C(=O)C(=O)[N-]CCN(C)C)c2c1

>  <Energy>  (24) 
77.95907043233046

>  <Genealogy>  (24) 
Cc1ccc2cc(C([NH-])=O)n(C(=O)C(=O)[N-]CCN(C)C)c2c1 (protonated)
Cc1ccc2cc(C([NH-])=O)n(C(=O)C(=O)[N-]CCN(C)C)c2c1 (3D coordinates assigned)
Cc1ccc2cc(C([NH-])=O)n(C(=O)C(=O)[N-]CCN(C)C)c2c1 (optimized conformer: 77.95907043233046 kcal/mol)

>  <smiles>  (24) 
Cc1ccc2cc(C(N)=O)n(C(=O)C(=O)NCCN(C)C)c2c1

>  <score_type>  (24) 
oracle

>  <origin>  (24) 
adg

>  <m_score__min__energy>  (24) 
-10.199999999999999

>  <m_primary>  (24) 
energy

$$$$
24:0
     RDKit          3D

 32 33  0  0  0  0  0  0  0  0999 V2000
   -3.8770   25.6690  -30.8500 N   0  0  0  0  0  0  0  0  0  0  0  0
   -5.1580   25.0980  -30.5960 C   0  0  0  0  0  0  0  0  0  0  0  0
   -5.9860   25.7340  -29.8910 O   0  0  0  0  0  0  0  0  0  0  0  0
   -5.5050   23.7530  -31.0990 C   0  0  0  0  0  0  0  0  0  0  0  0
   -6.8030   23.3720  -31.4350 C   0  0  0  0  0  0  0  0  0  0  0  0
   -6.7180   22.0380  -31.7630 C   0  0  0  0  0  0  0  0  0  0  0  0
   -7.7080   21.1570  -32.1890 C   0  0  0  0  0  0  0  0  0  0  0  0
   -7.3290   19.8380  -32.4920 C   0  0  0  0  0  0  0  0  0  0  0  0
   -5.9780   19.4270  -32.3640 C   0  0  0  0  0  0  0  0  0  0  0  0
   -5.5770   18.0280  -32.7350 C   0  0  0  0  0  0  0  0  0  0  0  0
   -6.0130   17.7230  -34.1320 C   0  0  0  0  0  0  0  0  0  0  0  0
   -6.5810   16.6290  -34.3940 O   0  0  0  0  0  0  0  0  0  0  0  0
   -5.7470   18.6230  -35.1560 O   0  0  0  0  0  0  0  0  0  0  0  0
   -4.9990   20.3540  -31.9400 C   0  0  0  0  0  0  0  0  0  0  0  0
   -5.4080   21.6560  -31.6270 C   0  0  0  0  0  0  0  0  0  0  0  0
   -4.6490   22.6990  -31.2250 N   0  0  0  0  0  0  0  0  0  0  0  0
   -3.2250   22.6940  -31.0540 C   0  0  0  0  0  0  0  0  0  0  0  0
   -2.4820   22.2570  -31.9760 O   0  0  0  0  0  0  0  0  0  0  0  0
   -2.6670   23.1500  -29.8540 O   0  0  0  0  0  0  0  0  0  0  0  0
   -1.2670   23.1540  -29.5920 C   0  0  0  0  0  0  0  0  0  0  0  0
   -0.8450   24.4790  -29.0430 C   0  0  0  0  0  0  0  0  0  0  0  0
    0.2060   24.5780  -28.3570 O   0  0  0  0  0  0  0  0  0  0  0  0
   -1.5990   25.6140  -29.3160 O   0  0  0  0  0  0  0  0  0  0  0  0
   -3.0090   25.2310  -30.4690 H   0  0  0  0  0  0  0  0  0  0  0  0
   -7.7038   24.0033  -31.4375 H   0  0  0  0  0  0  0  0  0  0  0  0
   -8.7542   21.4830  -32.2855 H   0  0  0  0  0  0  0  0  0  0  0  0
   -8.0877   19.1176  -32.8317 H   0  0  0  0  0  0  0  0  0  0  0  0
   -4.4833   17.9324  -32.6660 H   0  0  0  0  0  0  0  0  0  0  0  0
   -6.0585   17.3199  -32.0445 H   0  0  0  0  0  0  0  0  0  0  0  0
   -3.9422   20.0600  -31.8580 H   0  0  0  0  0  0  0  0  0  0  0  0
   -1.0326   22.3669  -28.8602 H   0  0  0  0  0  0  0  0  0  0  0  0
   -0.7268   22.9680  -30.5320 H   0  0  0  0  0  0  0  0  0  0  0  0
  1  2  1  0
  2  3  2  0
  2  4  1  0
  4  5  2  0
  5  6  1  0
  6  7  2  0
  7  8  1  0
  8  9  2  0
  9 10  1  0
 10 11  1  0
 11 12  2  0
 11 13  1  0
  9 14  1  0
 14 15  2  0
 15 16  1  0
 16 17  1  0
 17 18  2  0
 17 19  1  0
 19 20  1  0
 20 21  1  0
 21 22  2  0
 21 23  1  0
 16  4  1  0
 15  6  1  0
  1 24  1  0
  5 25  1  0
  7 26  1  0
  8 27  1  0
 10 28  1  0
 10 29  1  0
 14 30  1  0
 20 31  1  0
 20 32  1  0
M  CHG  3   1  -1  13  -1  23  -1
M  END
>  <UniqueID>  (25) 
25

>  <SMILES>  (25) 
[NH-]C(=O)c1cc2ccc(CC(=O)[O-])cc2n1C(=O)OCC(=O)[O-]

>  <Energy>  (25) 
67.69862603996717

>  <Genealogy>  (25) 
[NH-]C(=O)c1cc2ccc(CC(=O)[O-])cc2n1C(=O)OCC(=O)[O-] (protonated)
[NH-]C(=O)c1cc2ccc(CC(=O)[O-])cc2n1C(=O)OCC(=O)[O-] (3D coordinates assigned)
[NH-]C(=O)c1cc2ccc(CC(=O)[O-])cc2n1C(=O)OCC(=O)[O-] (optimized conformer: 67.69862603996717 kcal/mol)

>  <smiles>  (25) 
NC(=O)c1cc2ccc(CC(=O)O)cc2n1C(=O)OCC(=O)O

>  <score_type>  (25) 
oracle

>  <origin>  (25) 
adg

>  <m_score__min__energy>  (25) 
-11.91

>  <m_primary>  (25) 
energy

$$$$
25:0
     RDKit          3D

 48 49  0  0  0  0  0  0  0  0999 V2000
   -3.9190   23.9790  -27.5570 C   0  0  0  0  0  0  0  0  0  0  0  0
   -2.9670   24.2000  -28.5920 O   0  0  0  0  0  0  0  0  0  0  0  0
   -2.4090   23.1570  -29.3370 C   0  0  0  0  0  0  0  0  0  0  0  0
   -1.4470   23.3700  -30.1240 O   0  0  0  0  0  0  0  0  0  0  0  0
   -2.9710   21.7770  -29.2030 C   0  0  0  0  0  0  0  0  0  0  0  0
   -3.7930   21.4650  -30.3230 O   0  0  0  0  0  0  0  0  0  0  0  0
   -4.1790   22.4110  -31.2800 C   0  0  0  0  0  0  0  0  0  0  0  0
   -3.3440   22.8460  -32.1190 O   0  0  0  0  0  0  0  0  0  0  0  0
   -5.5390   22.8680  -31.3220 N   0  0  0  0  0  0  0  0  0  0  0  0
   -6.0300   24.0620  -30.8840 C   0  0  0  0  0  0  0  0  0  0  0  0
   -5.2280   25.2160  -30.4280 C   0  0  0  0  0  0  0  0  0  0  0  0
   -3.8680   25.3680  -30.8260 N   0  0  0  0  0  0  0  0  0  0  0  0
   -5.7640   26.1050  -29.7130 O   0  0  0  0  0  0  0  0  0  0  0  0
   -7.4190   24.0910  -30.9990 C   0  0  0  0  0  0  0  0  0  0  0  0
   -7.7660   22.8700  -31.5300 C   0  0  0  0  0  0  0  0  0  0  0  0
   -9.0190   22.3550  -31.8450 C   0  0  0  0  0  0  0  0  0  0  0  0
   -9.0850   21.0480  -32.3560 C   0  0  0  0  0  0  0  0  0  0  0  0
   -7.9060   20.2780  -32.5350 C   0  0  0  0  0  0  0  0  0  0  0  0
   -7.9830   18.9400  -33.0700 N   0  0  0  0  0  0  0  0  0  0  0  0
   -7.5700   17.9340  -32.0750 C   0  0  0  0  0  0  0  0  0  0  0  0
   -6.1240   17.4520  -32.2990 C   0  0  0  0  0  0  0  0  0  0  0  0
   -5.5370   18.0930  -33.4950 N   0  0  0  0  0  0  0  0  0  0  0  0
   -4.2010   18.6260  -33.1810 C   0  0  0  0  0  0  0  0  0  0  0  0
   -5.4290   17.1350  -34.6110 C   0  0  0  0  0  0  0  0  0  0  0  0
   -6.6510   20.8390  -32.2040 C   0  0  0  0  0  0  0  0  0  0  0  0
   -6.6140   22.1500  -31.7150 C   0  0  0  0  0  0  0  0  0  0  0  0
   -3.4297   24.0926  -26.5784 H   0  0  0  0  0  0  0  0  0  0  0  0
   -4.7346   24.7117  -27.6464 H   0  0  0  0  0  0  0  0  0  0  0  0
   -4.3284   22.9619  -27.6464 H   0  0  0  0  0  0  0  0  0  0  0  0
   -2.1447   21.0530  -29.1469 H   0  0  0  0  0  0  0  0  0  0  0  0
   -3.5801   21.7270  -28.2884 H   0  0  0  0  0  0  0  0  0  0  0  0
   -3.1910   24.5780  -30.7360 H   0  0  0  0  0  0  0  0  0  0  0  0
   -8.0940   24.9148  -30.7238 H   0  0  0  0  0  0  0  0  0  0  0  0
   -9.9306   22.9529  -31.6985 H   0  0  0  0  0  0  0  0  0  0  0  0
  -10.0616   20.6163  -32.6204 H   0  0  0  0  0  0  0  0  0  0  0  0
   -7.3970   18.8510  -33.9330 H   0  0  0  0  0  0  0  0  0  0  0  0
   -8.9730   18.7450  -33.3510 H   0  0  0  0  0  0  0  0  0  0  0  0
   -7.6438   18.3778  -31.0712 H   0  0  0  0  0  0  0  0  0  0  0  0
   -8.2353   17.0642  -32.1786 H   0  0  0  0  0  0  0  0  0  0  0  0
   -5.5176   17.7086  -31.4179 H   0  0  0  0  0  0  0  0  0  0  0  0
   -6.1348   16.3627  -32.4519 H   0  0  0  0  0  0  0  0  0  0  0  0
   -4.0737   18.6768  -32.0896 H   0  0  0  0  0  0  0  0  0  0  0  0
   -3.4327   17.9655  -33.6094 H   0  0  0  0  0  0  0  0  0  0  0  0
   -4.0984   19.6339  -33.6094 H   0  0  0  0  0  0  0  0  0  0  0  0
   -5.3142   16.1169  -34.2105 H   0  0  0  0  0  0  0  0  0  0  0  0
   -6.3386   17.1861  -35.2275 H   0  0  0  0  0  0  0  0  0  0  0  0
   -4.5536   17.3874  -35.2275 H   0  0  0  0  0  0  0  0  0  0  0  0
   -5.7249   20.2584  -32.3279 H   0  0  0  0  0  0  0  0  0  0  0  0
  1  2  1  0
  2  3  1  0
  3  4  2  0
  3  5  1  0
  5  6  1  0
  6  7  1  0
  7  8  2  0
  7  9  1  0
  9 10  1  0
 10 11  1  0
 11 12  1  0
 11 13  2  0
 10 14  2  0
 14 15  1  0
 15 16  2  0
 16 17  1  0
 17 18  2  0
 18 19  1  0
 19 20  1  0
 20 21  1  0
 21 22  1  0
 22 23  1  0
 22 24  1  0
 18 25  1  0
 25 26  2  0
 26  9  1  0
 26 15  1  0
  1 27  1  0
  1 28  1  0
  1 29  1  0
  5 30  1  0
  5 31  1  0
 12 32  1  0
 14 33  1  0
 16 34  1  0
 17 35  1  0
 19 36  1  0
 19 37  1  0
 20 38  1  0
 20 39  1  0
 21 40  1  0
 21 41  1  0
 23 42  1  0
 23 43  1  0
 23 44  1  0
 24 45  1  0
 24 46  1  0
 24 47  1  0
 25 48  1  0
M  CHG  2  12  -1  19   1
M  END
>  <UniqueID>  (26) 
26

>  <SMILES>  (26) 
COC(=O)COC(=O)n1c(C([NH-])=O)cc2ccc([NH2+]CCN(C)C)cc21

>  <Energy>  (26) 
82.16259157656718

>  <Genealogy>  (26) 
COC(=O)COC(=O)n1c(C([NH-])=O)cc2ccc([NH2+]CCN(C)C)cc21 (protonated)
COC(=O)COC(=O)n1c(C([NH-])=O)cc2ccc([NH2+]CCN(C)C)cc21 (3D coordinates assigned)
COC(=O)COC(=O)n1c(C([NH-])=O)cc2ccc([NH2+]CCN(C)C)cc21 (optimized conformer: 82.16259157656718 kcal/mol)

>  <smiles>  (26) 
COC(=O)COC(=O)n1c(C(N)=O)cc2ccc(NCCN(C)C)cc21

>  <score_type>  (26) 
oracle

>  <origin>  (26) 
adg

>  <m_score__min__energy>  (26) 
-9.75

>  <m_primary>  (26) 
energy

$$$$
26:0
     RDKit          3D

 35 36  0  0  0  0  0  0  0  0999 V2000
   -4.2230   25.4860  -30.6080 N   0  0  0  0  0  0  0  0  0  0  0  0
   -5.5910   25.1150  -30.4280 C   0  0  0  0  0  0  0  0  0  0  0  0
   -6.3870   25.9300  -29.8920 O   0  0  0  0  0  0  0  0  0  0  0  0
   -6.1020   23.8200  -30.9210 C   0  0  0  0  0  0  0  0  0  0  0  0
   -7.4570   23.5380  -31.0690 C   0  0  0  0  0  0  0  0  0  0  0  0
   -7.5070   22.2720  -31.6050 C   0  0  0  0  0  0  0  0  0  0  0  0
   -8.6070   21.4860  -31.9380 C   0  0  0  0  0  0  0  0  0  0  0  0
   -8.3680   20.1940  -32.4350 C   0  0  0  0  0  0  0  0  0  0  0  0
   -7.0440   19.7150  -32.5890 C   0  0  0  0  0  0  0  0  0  0  0  0
   -6.8030   18.3100  -33.0790 C   0  0  0  0  0  0  0  0  0  0  0  0
   -5.6410   18.2600  -34.0740 C   0  0  0  0  0  0  0  0  0  0  0  0
   -6.0440   18.7080  -35.3410 O   0  0  0  0  0  0  0  0  0  0  0  0
   -5.9530   20.5350  -32.2280 C   0  0  0  0  0  0  0  0  0  0  0  0
   -6.2190   21.8260  -31.7550 C   0  0  0  0  0  0  0  0  0  0  0  0
   -5.3410   22.7670  -31.3350 N   0  0  0  0  0  0  0  0  0  0  0  0
   -3.9150   22.6240  -31.2360 C   0  0  0  0  0  0  0  0  0  0  0  0
   -3.2690   22.0850  -32.1760 O   0  0  0  0  0  0  0  0  0  0  0  0
   -3.2460   23.0880  -30.0990 O   0  0  0  0  0  0  0  0  0  0  0  0
   -1.8340   23.0100  -29.9500 C   0  0  0  0  0  0  0  0  0  0  0  0
   -1.3340   24.2800  -29.3500 C   0  0  0  0  0  0  0  0  0  0  0  0
   -2.0710   25.3020  -29.3230 O   0  0  0  0  0  0  0  0  0  0  0  0
   -0.0330   24.3560  -28.8710 O   0  0  0  0  0  0  0  0  0  0  0  0
   -3.8710   26.3890  -30.2180 H   0  0  0  0  0  0  0  0  0  0  0  0
   -3.5810   24.9120  -31.1950 H   0  0  0  0  0  0  0  0  0  0  0  0
   -8.3062   24.1883  -30.8123 H   0  0  0  0  0  0  0  0  0  0  0  0
   -9.6323   21.8653  -31.8156 H   0  0  0  0  0  0  0  0  0  0  0  0
   -9.2164   19.5488  -32.7069 H   0  0  0  0  0  0  0  0  0  0  0  0
   -6.5664   17.6662  -32.2190 H   0  0  0  0  0  0  0  0  0  0  0  0
   -7.7123   17.9593  -33.5890 H   0  0  0  0  0  0  0  0  0  0  0  0
   -4.8262   18.9019  -33.7079 H   0  0  0  0  0  0  0  0  0  0  0  0
   -5.3005   17.2178  -34.1629 H   0  0  0  0  0  0  0  0  0  0  0  0
   -6.8830   19.2220  -35.2050 H   0  0  0  0  0  0  0  0  0  0  0  0
   -4.9195   20.1689  -32.3161 H   0  0  0  0  0  0  0  0  0  0  0  0
   -1.5795   22.1666  -29.2913 H   0  0  0  0  0  0  0  0  0  0  0  0
   -1.3663   22.8565  -30.9337 H   0  0  0  0  0  0  0  0  0  0  0  0
  1  2  1  0
  2  3  2  0
  2  4  1  0
  4  5  2  0
  5  6  1  0
  6  7  2  0
  7  8  1  0
  8  9  2  0
  9 10  1  0
 10 11  1  0
 11 12  1  0
  9 13  1  0
 13 14  2  0
 14 15  1  0
 15 16  1  0
 16 17  2  0
 16 18  1  0
 18 19  1  0
 19 20  1  0
 20 21  2  0
 20 22  1  0
 15  4  1  0
 14  6  1  0
  1 23  1  0
  1 24  1  0
  5 25  1  0
  7 26  1  0
  8 27  1  0
 10 28  1  0
 10 29  1  0
 11 30  1  0
 11 31  1  0
 12 32  1  0
 13 33  1  0
 19 34  1  0
 19 35  1  0
M  CHG  1  22  -1
M  END
>  <UniqueID>  (27) 
27

>  <SMILES>  (27) 
NC(=O)c1cc2ccc(CCO)cc2n1C(=O)OCC(=O)[O-]

>  <Energy>  (27) 
68.46262709129564

>  <Genealogy>  (27) 
NC(=O)c1cc2ccc(CCO)cc2n1C(=O)OCC(=O)[O-] (protonated)
NC(=O)c1cc2ccc(CCO)cc2n1C(=O)OCC(=O)[O-] (3D coordinates assigned)
NC(=O)c1cc2ccc(CCO)cc2n1C(=O)OCC(=O)[O-] (optimized conformer: 68.46262709129564 kcal/mol)

>  <smiles>  (27) 
NC(=O)c1cc2ccc(CCO)cc2n1C(=O)OCC(=O)O

>  <score_type>  (27) 
oracle

>  <origin>  (27) 
adg

>  <m_score__min__energy>  (27) 
-10.23

>  <m_primary>  (27) 
energy

$$$$
27:0
     RDKit          3D

 41 43  0  0  0  0  0  0  0  0999 V2000
   -2.1570   20.8380  -30.5540 C   0  0  0  0  0  0  0  0  0  0  0  0
   -2.8750   22.1620  -30.4830 N   0  0  0  0  0  0  0  0  0  0  0  0
   -2.2300   23.1000  -29.5370 C   0  0  0  0  0  0  0  0  0  0  0  0
   -2.7410   22.9360  -28.0610 C   0  0  0  0  0  0  0  0  0  0  0  0
   -3.3860   24.1710  -27.4610 C   0  0  0  0  0  0  0  0  0  0  0  0
   -4.2430   23.0200  -27.9300 C   0  0  0  0  0  0  0  0  0  0  0  0
   -3.8880   22.3690  -31.5950 C   0  0  0  0  0  0  0  0  0  0  0  0
   -3.4770   22.2350  -32.8040 O   0  0  0  0  0  0  0  0  0  0  0  0
   -5.2810   22.7880  -31.4170 N   0  0  0  0  0  0  0  0  0  0  0  0
   -5.8960   23.9150  -30.9120 C   0  0  0  0  0  0  0  0  0  0  0  0
   -5.2930   25.1550  -30.4360 C   0  0  0  0  0  0  0  0  0  0  0  0
   -3.8560   25.3070  -30.6150 N   0  0  0  0  0  0  0  0  0  0  0  0
   -6.0100   26.1060  -30.0090 O   0  0  0  0  0  0  0  0  0  0  0  0
   -7.2670   23.7070  -30.8830 C   0  0  0  0  0  0  0  0  0  0  0  0
   -7.4860   22.4070  -31.2150 C   0  0  0  0  0  0  0  0  0  0  0  0
   -8.6580   21.6820  -31.3380 C   0  0  0  0  0  0  0  0  0  0  0  0
   -8.5630   20.3290  -31.7410 C   0  0  0  0  0  0  0  0  0  0  0  0
   -7.3200   19.7120  -31.9920 C   0  0  0  0  0  0  0  0  0  0  0  0
   -7.2430   18.2220  -32.3630 C   0  0  0  0  0  0  0  0  0  0  0  0
   -8.5290   17.7350  -32.3060 F   0  0  0  0  0  0  0  0  0  0  0  0
   -6.4720   17.5930  -31.3890 F   0  0  0  0  0  0  0  0  0  0  0  0
   -6.3900   17.9060  -34.0040 P   0  0  0  0  0  0  0  0  0  0  0  0
   -6.1800   20.5030  -31.9070 C   0  0  0  0  0  0  0  0  0  0  0  0
   -6.2740   21.8580  -31.4860 C   0  0  0  0  0  0  0  0  0  0  0  0
   -1.9591   20.4731  -29.5353 H   0  0  0  0  0  0  0  0  0  0  0  0
   -2.7836   20.1093  -31.0892 H   0  0  0  0  0  0  0  0  0  0  0  0
   -1.2045   20.9657  -31.0892 H   0  0  0  0  0  0  0  0  0  0  0  0
   -1.1446   22.9223  -29.5533 H   0  0  0  0  0  0  0  0  0  0  0  0
   -2.4857   24.1196  -29.8609 H   0  0  0  0  0  0  0  0  0  0  0  0
   -1.9567   22.2379  -27.7331 H   0  0  0  0  0  0  0  0  0  0  0  0
   -3.2833   24.3783  -26.3856 H   0  0  0  0  0  0  0  0  0  0  0  0
   -3.3478   25.2499  -27.6720 H   0  0  0  0  0  0  0  0  0  0  0  0
   -4.7662   22.3901  -27.1956 H   0  0  0  0  0  0  0  0  0  0  0  0
   -5.0896   22.9155  -28.6246 H   0  0  0  0  0  0  0  0  0  0  0  0
   -3.5000   26.0440  -31.2290 H   0  0  0  0  0  0  0  0  0  0  0  0
   -8.0348   24.4553  -30.6370 H   0  0  0  0  0  0  0  0  0  0  0  0
   -9.6343   22.1436  -31.1288 H   0  0  0  0  0  0  0  0  0  0  0  0
   -9.4851   19.7416  -31.8620 H   0  0  0  0  0  0  0  0  0  0  0  0
   -6.4740   16.4840  -34.2680 H   0  0  0  0  0  0  0  0  0  0  0  0
   -6.6890   18.8580  -34.9520 H   0  0  0  0  0  0  0  0  0  0  0  0
   -5.1992   20.0781  -32.1670 H   0  0  0  0  0  0  0  0  0  0  0  0
  1  2  1  0
  2  3  1  0
  3  4  1  0
  4  5  1  0
  5  6  1  0
  2  7  1  0
  7  8  2  0
  7  9  1  0
  9 10  1  0
 10 11  1  0
 11 12  1  0
 11 13  2  0
 10 14  2  0
 14 15  1  0
 15 16  2  0
 16 17  1  0
 17 18  2  0
 18 19  1  0
 19 20  1  0
 19 21  1  0
 19 22  1  0
 18 23  1  0
 23 24  2  0
  6  4  1  0
 24  9  1  0
 24 15  1  0
  1 25  1  0
  1 26  1  0
  1 27  1  0
  3 28  1  0
  3 29  1  0
  4 30  1  0
  5 31  1  0
  5 32  1  0
  6 33  1  0
  6 34  1  0
 12 35  1  0
 14 36  1  0
 16 37  1  0
 17 38  1  0
 22 39  1  0
 22 40  1  0
 23 41  1  0
M  CHG  1  12  -1
M  END
>  <UniqueID>  (28) 
28

>  <SMILES>  (28) 
CN(CC1CC1)C(=O)n1c(C([NH-])=O)cc2ccc(C(F)(F)[P@@H2])cc21

>  <Energy>  (28) 
421.527911172474

>  <Genealogy>  (28) 
CN(CC1CC1)C(=O)n1c(C([NH-])=O)cc2ccc(C(F)(F)P)cc21 (protonated)
CN(CC1CC1)C(=O)n1c(C([NH-])=O)cc2ccc(C(F)(F)[P@@H2])cc21 (chirality)
CN(CC1CC1)C(=O)n1c(C([NH-])=O)cc2ccc(C(F)(F)[P@@H2])cc21 (3D coordinates assigned)
CN(CC1CC1)C(=O)n1c(C([NH-])=O)cc2ccc(C(F)(F)[P@@H2])cc21 (nonaromatic ring conformer: 421.527911172474 kcal/mol)

>  <smiles>  (28) 
CN(CC1CC1)C(=O)n1c(C(N)=O)cc2ccc(C(F)(F)P)cc21

>  <score_type>  (28) 
oracle

>  <origin>  (28) 
adg

>  <m_score__min__energy>  (28) 
-10.84

>  <m_primary>  (28) 
energy

$$$$
28:0
     RDKit          3D

 36 37  0  0  0  0  0  0  0  0999 V2000
   -5.8200   18.5380  -34.3870 C   0  0  0  0  0  0  0  0  0  0  0  0
   -6.3350   18.2000  -32.9880 C   0  0  0  0  0  0  0  0  0  0  0  0
   -7.7340   18.7720  -32.7220 C   0  0  0  0  0  0  0  0  0  0  0  0
   -7.6740   20.1880  -32.2090 C   0  0  0  0  0  0  0  0  0  0  0  0
   -8.8710   20.9090  -31.9750 C   0  0  0  0  0  0  0  0  0  0  0  0
   -8.8290   22.2350  -31.5120 C   0  0  0  0  0  0  0  0  0  0  0  0
   -7.5790   22.8160  -31.3110 C   0  0  0  0  0  0  0  0  0  0  0  0
   -7.2500   24.0750  -30.8620 C   0  0  0  0  0  0  0  0  0  0  0  0
   -5.8570   24.1170  -30.8660 C   0  0  0  0  0  0  0  0  0  0  0  0
   -5.0810   25.3310  -30.5410 C   0  0  0  0  0  0  0  0  0  0  0  0
   -3.6590   25.2970  -30.4690 N   0  0  0  0  0  0  0  0  0  0  0  0
   -5.6810   26.4270  -30.3720 O   0  0  0  0  0  0  0  0  0  0  0  0
   -5.3460   22.9260  -31.2910 N   0  0  0  0  0  0  0  0  0  0  0  0
   -3.9660   22.5380  -31.3840 C   0  0  0  0  0  0  0  0  0  0  0  0
   -3.4440   22.3420  -32.5140 O   0  0  0  0  0  0  0  0  0  0  0  0
   -3.2080   22.4110  -30.2110 O   0  0  0  0  0  0  0  0  0  0  0  0
   -1.8350   22.6670  -30.1050 C   0  0  0  0  0  0  0  0  0  0  0  0
   -1.4070   23.7920  -29.7240 O   0  0  0  0  0  0  0  0  0  0  0  0
   -0.8600   21.5720  -30.4000 C   0  0  0  0  0  0  0  0  0  0  0  0
    0.0330   21.4580  -29.3530 F   0  0  0  0  0  0  0  0  0  0  0  0
   -0.1680   21.8630  -31.5620 F   0  0  0  0  0  0  0  0  0  0  0  0
   -1.5280   20.3720  -30.5610 F   0  0  0  0  0  0  0  0  0  0  0  0
   -6.4130   22.1420  -31.5600 C   0  0  0  0  0  0  0  0  0  0  0  0
   -6.4260   20.8120  -31.9960 C   0  0  0  0  0  0  0  0  0  0  0  0
   -4.9030   19.1399  -34.3046 H   0  0  0  0  0  0  0  0  0  0  0  0
   -5.6004   17.6078  -34.9315 H   0  0  0  0  0  0  0  0  0  0  0  0
   -6.5860   19.1096  -34.9315 H   0  0  0  0  0  0  0  0  0  0  0  0
   -6.3753   17.1059  -32.8819 H   0  0  0  0  0  0  0  0  0  0  0  0
   -5.6454   18.6521  -32.2600 H   0  0  0  0  0  0  0  0  0  0  0  0
   -8.3083   18.7576  -33.6600 H   0  0  0  0  0  0  0  0  0  0  0  0
   -8.2157   18.1508  -31.9526 H   0  0  0  0  0  0  0  0  0  0  0  0
   -9.8424   20.4262  -32.1575 H   0  0  0  0  0  0  0  0  0  0  0  0
   -9.7540   22.7965  -31.3145 H   0  0  0  0  0  0  0  0  0  0  0  0
   -7.9403   24.8777  -30.5634 H   0  0  0  0  0  0  0  0  0  0  0  0
   -3.1200   24.4880  -30.8490 H   0  0  0  0  0  0  0  0  0  0  0  0
   -5.4865   20.2664  -32.1684 H   0  0  0  0  0  0  0  0  0  0  0  0
  1  2  1  0
  2  3  1  0
  3  4  1  0
  4  5  2  0
  5  6  1  0
  6  7  2  0
  7  8  1  0
  8  9  2  0
  9 10  1  0
 10 11  1  0
 10 12  2  0
  9 13  1  0
 13 14  1  0
 14 15  2  0
 14 16  1  0
 16 17  1  0
 17 18  2  0
 17 19  1  0
 19 20  1  0
 19 21  1  0
 19 22  1  0
 13 23  1  0
 23 24  2  0
 24  4  1  0
 23  7  1  0
  1 25  1  0
  1 26  1  0
  1 27  1  0
  2 28  1  0
  2 29  1  0
  3 30  1  0
  3 31  1  0
  5 32  1  0
  6 33  1  0
  8 34  1  0
 11 35  1  0
 24 36  1  0
M  CHG  1  11  -1
M  END
>  <UniqueID>  (29) 
29

>  <SMILES>  (29) 
CCCc1ccc2cc(C([NH-])=O)n(C(=O)OC(=O)C(F)(F)F)c2c1

>  <Energy>  (29) 
69.65409002115145

>  <Genealogy>  (29) 
CCCc1ccc2cc(C([NH-])=O)n(C(=O)OC(=O)C(F)(F)F)c2c1 (protonated)
CCCc1ccc2cc(C([NH-])=O)n(C(=O)OC(=O)C(F)(F)F)c2c1 (3D coordinates assigned)
CCCc1ccc2cc(C([NH-])=O)n(C(=O)OC(=O)C(F)(F)F)c2c1 (optimized conformer: 69.65409002115145 kcal/mol)

>  <smiles>  (29) 
CCCc1ccc2cc(C(N)=O)n(C(=O)OC(=O)C(F)(F)F)c2c1

>  <score_type>  (29) 
oracle

>  <origin>  (29) 
adg

>  <m_score__min__energy>  (29) 
-9.4900000000000002

>  <m_primary>  (29) 
energy

$$$$
29:0
     RDKit          3D

 45 46  0  0  0  0  0  0  0  0999 V2000
   -1.4690   25.3390  -28.0680 C   0  0  0  0  0  0  0  0  0  0  0  0
   -2.1360   24.6240  -26.8700 C   0  0  0  0  0  0  0  0  0  0  0  0
   -2.3460   25.6560  -25.7380 C   0  0  0  0  0  0  0  0  0  0  0  0
   -1.1630   23.5440  -26.3430 C   0  0  0  0  0  0  0  0  0  0  0  0
   -3.5090   23.9490  -27.2570 C   0  0  1  0  0  0  0  0  0  0  0  0
   -4.5400   24.9180  -27.6670 N   0  0  0  0  0  0  0  0  0  0  0  0
   -3.3510   22.8930  -28.3270 C   0  0  0  0  0  0  0  0  0  0  0  0
   -3.3320   21.6740  -27.9990 O   0  0  0  0  0  0  0  0  0  0  0  0
   -3.2110   23.2820  -29.6650 O   0  0  0  0  0  0  0  0  0  0  0  0
   -3.7900   22.6300  -30.7620 C   0  0  0  0  0  0  0  0  0  0  0  0
   -3.0860   21.9450  -31.5510 O   0  0  0  0  0  0  0  0  0  0  0  0
   -5.2010   22.7650  -30.9970 N   0  0  0  0  0  0  0  0  0  0  0  0
   -5.9710   23.8760  -30.8140 C   0  0  0  0  0  0  0  0  0  0  0  0
   -5.5380   25.1320  -30.1690 C   0  0  0  0  0  0  0  0  0  0  0  0
   -4.2540   25.6750  -30.4660 N   0  0  0  0  0  0  0  0  0  0  0  0
   -6.3050   25.7530  -29.3870 O   0  0  0  0  0  0  0  0  0  0  0  0
   -7.2740   23.6440  -31.2490 C   0  0  0  0  0  0  0  0  0  0  0  0
   -7.2810   22.3460  -31.7040 C   0  0  0  0  0  0  0  0  0  0  0  0
   -8.3180   21.5970  -32.2510 C   0  0  0  0  0  0  0  0  0  0  0  0
   -8.0370   20.2830  -32.6600 C   0  0  0  0  0  0  0  0  0  0  0  0
   -6.7260   19.7510  -32.5430 C   0  0  0  0  0  0  0  0  0  0  0  0
   -6.4470   18.3260  -32.9520 C   0  0  0  0  0  0  0  0  0  0  0  0
   -7.5630   17.5320  -32.7510 F   0  0  0  0  0  0  0  0  0  0  0  0
   -5.4040   17.8010  -32.2080 F   0  0  0  0  0  0  0  0  0  0  0  0
   -6.1070   18.2960  -34.2900 F   0  0  0  0  0  0  0  0  0  0  0  0
   -5.7050   20.5380  -31.9600 C   0  0  0  0  0  0  0  0  0  0  0  0
   -6.0190   21.8370  -31.5440 C   0  0  0  0  0  0  0  0  0  0  0  0
   -0.7628   26.0960  -27.6963 H   0  0  0  0  0  0  0  0  0  0  0  0
   -0.9281   24.6021  -28.6799 H   0  0  0  0  0  0  0  0  0  0  0  0
   -2.2416   25.8274  -28.6799 H   0  0  0  0  0  0  0  0  0  0  0  0
   -2.2444   25.1567  -24.7631 H   0  0  0  0  0  0  0  0  0  0  0  0
   -1.5914   26.4519  -25.8228 H   0  0  0  0  0  0  0  0  0  0  0  0
   -3.3516   26.0937  -25.8228 H   0  0  0  0  0  0  0  0  0  0  0  0
   -1.1689   23.5505  -25.2430 H   0  0  0  0  0  0  0  0  0  0  0  0
   -1.4812   22.5554  -26.7055 H   0  0  0  0  0  0  0  0  0  0  0  0
   -0.1467   23.7578  -26.7055 H   0  0  0  0  0  0  0  0  0  0  0  0
   -3.8524   23.4653  -26.3307 H   0  0  0  0  0  0  0  0  0  0  0  0
   -4.2740   25.3450  -28.5850 H   0  0  0  0  0  0  0  0  0  0  0  0
   -5.4580   24.4420  -27.8110 H   0  0  0  0  0  0  0  0  0  0  0  0
   -4.6460   25.6870  -26.9680 H   0  0  0  0  0  0  0  0  0  0  0  0
   -3.4880   25.6600  -29.7560 H   0  0  0  0  0  0  0  0  0  0  0  0
   -8.1181   24.3492  -31.2322 H   0  0  0  0  0  0  0  0  0  0  0  0
   -9.3272   22.0209  -32.3599 H   0  0  0  0  0  0  0  0  0  0  0  0
   -8.8419   19.6590  -33.0757 H   0  0  0  0  0  0  0  0  0  0  0  0
   -4.6877   20.1382  -31.8365 H   0  0  0  0  0  0  0  0  0  0  0  0
  1  2  1  0
  2  3  1  0
  2  4  1  0
  2  5  1  0
  5  6  1  0
  5  7  1  0
  7  8  2  0
  7  9  1  0
  9 10  1  0
 10 11  2  0
 10 12  1  0
 12 13  1  0
 13 14  1  0
 14 15  1  0
 14 16  2  0
 13 17  2  0
 17 18  1  0
 18 19  2  0
 19 20  1  0
 20 21  2  0
 21 22  1  0
 22 23  1  0
 22 24  1  0
 22 25  1  0
 21 26  1  0
 26 27  2  0
 27 12  1  0
 27 18  1  0
  1 28  1  0
  1 29  1  0
  1 30  1  0
  3 31  1  0
  3 32  1  0
  3 33  1  0
  4 34  1  0
  4 35  1  0
  4 36  1  0
  5 37  1  1
  6 38  1  0
  6 39  1  0
  6 40  1  0
 15 41  1  0
 17 42  1  0
 19 43  1  0
 20 44  1  0
 26 45  1  0
M  CHG  2   6   1  15  -1
M  END
>  <UniqueID>  (30) 
30

>  <SMILES>  (30) 
CC(C)(C)[C@@H]([NH3+])C(=O)OC(=O)n1c(C([NH-])=O)cc2ccc(C(F)(F)F)cc21

>  <Energy>  (30) 
83.10925446666607

>  <Genealogy>  (30) 
CC(C)(C)C([NH3+])C(=O)OC(=O)n1c(C([NH-])=O)cc2ccc(C(F)(F)F)cc21 (protonated)
CC(C)(C)[C@@H]([NH3+])C(=O)OC(=O)n1c(C([NH-])=O)cc2ccc(C(F)(F)F)cc21 (chirality)
CC(C)(C)[C@@H]([NH3+])C(=O)OC(=O)n1c(C([NH-])=O)cc2ccc(C(F)(F)F)cc21 (3D coordinates assigned)
CC(C)(C)[C@@H]([NH3+])C(=O)OC(=O)n1c(C([NH-])=O)cc2ccc(C(F)(F)F)cc21 (optimized conformer: 83.10925446666607 kcal/mol)

>  <smiles>  (30) 
CC(C)(C)C(N)C(=O)OC(=O)n1c(C(N)=O)cc2ccc(C(F)(F)F)cc21

>  <score_type>  (30) 
oracle

>  <origin>  (30) 
adg

>  <m_score__min__energy>  (30) 
-10.16

>  <m_primary>  (30) 
energy

$$$$
30:0
     RDKit          3D

 43 44  0  0  0  0  0  0  0  0999 V2000
   -6.4940   17.2390  -31.8230 C   0  0  0  0  0  0  0  0  0  0  0  0
   -6.1370   18.3060  -32.7570 N   0  0  0  0  0  0  0  0  0  0  0  0
   -5.8170   17.9750  -34.1490 C   0  0  0  0  0  0  0  0  0  0  0  0
   -4.3380   18.0060  -34.3650 C   0  0  0  0  0  0  0  0  0  0  0  0
   -3.8400   17.3990  -35.3520 O   0  0  0  0  0  0  0  0  0  0  0  0
   -3.5280   18.6550  -33.4240 O   0  0  0  0  0  0  0  0  0  0  0  0
   -2.8140   19.8370  -33.6550 C   0  0  0  0  0  0  0  0  0  0  0  0
   -3.4100   20.9350  -33.8340 O   0  0  0  0  0  0  0  0  0  0  0  0
   -1.3200   19.8010  -33.6290 C   0  0  0  0  0  0  0  0  0  0  0  0
   -0.8300   21.0920  -33.6190 F   0  0  0  0  0  0  0  0  0  0  0  0
   -0.8900   19.1410  -32.4920 F   0  0  0  0  0  0  0  0  0  0  0  0
   -0.8380   19.1370  -34.7430 F   0  0  0  0  0  0  0  0  0  0  0  0
   -6.4290   19.6680  -32.4090 C   0  0  0  0  0  0  0  0  0  0  0  0
   -7.7340   20.1810  -32.5930 C   0  0  0  0  0  0  0  0  0  0  0  0
   -8.0270   21.5160  -32.2660 C   0  0  0  0  0  0  0  0  0  0  0  0
   -6.9970   22.3070  -31.7650 C   0  0  0  0  0  0  0  0  0  0  0  0
   -7.0080   23.6200  -31.3540 C   0  0  0  0  0  0  0  0  0  0  0  0
   -5.7060   23.8890  -30.9390 C   0  0  0  0  0  0  0  0  0  0  0  0
   -5.2510   25.2260  -30.5010 C   0  0  0  0  0  0  0  0  0  0  0  0
   -3.9370   25.6710  -30.8320 N   0  0  0  0  0  0  0  0  0  0  0  0
   -5.9940   25.9630  -29.8020 O   0  0  0  0  0  0  0  0  0  0  0  0
   -4.9200   22.7830  -31.0790 N   0  0  0  0  0  0  0  0  0  0  0  0
   -3.5440   22.6280  -30.6930 C   0  0  0  0  0  0  0  0  0  0  0  0
   -2.7690   21.9330  -31.4050 O   0  0  0  0  0  0  0  0  0  0  0  0
   -3.0830   23.2340  -29.5160 O   0  0  0  0  0  0  0  0  0  0  0  0
   -1.7940   23.7470  -29.3260 C   0  0  0  0  0  0  0  0  0  0  0  0
   -1.5850   24.9920  -29.2970 O   0  0  0  0  0  0  0  0  0  0  0  0
   -0.6410   22.8020  -29.2260 C   0  0  0  0  0  0  0  0  0  0  0  0
   -0.9680   21.7500  -28.3910 F   0  0  0  0  0  0  0  0  0  0  0  0
    0.4670   23.4550  -28.7150 F   0  0  0  0  0  0  0  0  0  0  0  0
   -0.3420   22.3090  -30.4830 F   0  0  0  0  0  0  0  0  0  0  0  0
   -5.7250   21.8240  -31.5890 C   0  0  0  0  0  0  0  0  0  0  0  0
   -5.4120   20.4920  -31.8850 C   0  0  0  0  0  0  0  0  0  0  0  0
   -6.3733   17.5996  -30.7908 H   0  0  0  0  0  0  0  0  0  0  0  0
   -7.5403   16.9423  -31.9878 H   0  0  0  0  0  0  0  0  0  0  0  0
   -5.8369   16.3724  -31.9878 H   0  0  0  0  0  0  0  0  0  0  0  0
   -6.1958   16.9681  -34.3785 H   0  0  0  0  0  0  0  0  0  0  0  0
   -6.2899   18.7163  -34.8099 H   0  0  0  0  0  0  0  0  0  0  0  0
   -8.5250   19.5307  -32.9948 H   0  0  0  0  0  0  0  0  0  0  0  0
   -9.0397   21.9235  -32.4019 H   0  0  0  0  0  0  0  0  0  0  0  0
   -7.8639   24.3110  -31.3533 H   0  0  0  0  0  0  0  0  0  0  0  0
   -3.0970   25.2460  -30.3800 H   0  0  0  0  0  0  0  0  0  0  0  0
   -4.3992   20.0986  -31.7133 H   0  0  0  0  0  0  0  0  0  0  0  0
  1  2  1  0
  2  3  1  0
  3  4  1  0
  4  5  2  0
  4  6  1  0
  6  7  1  0
  7  8  2  0
  7  9  1  0
  9 10  1  0
  9 11  1  0
  9 12  1  0
  2 13  1  0
 13 14  2  0
 14 15  1  0
 15 16  2  0
 16 17  1  0
 17 18  2  0
 18 19  1  0
 19 20  1  0
 19 21  2  0
 18 22  1  0
 22 23  1  0
 23 24  2  0
 23 25  1  0
 25 26  1  0
 26 27  2  0
 26 28  1  0
 28 29  1  0
 28 30  1  0
 28 31  1  0
 22 32  1  0
 32 33  2  0
 33 13  1  0
 32 16  1  0
  1 34  1  0
  1 35  1  0
  1 36  1  0
  3 37  1  0
  3 38  1  0
 14 39  1  0
 15 40  1  0
 17 41  1  0
 20 42  1  0
 33 43  1  0
M  CHG  1  20  -1
M  END
>  <UniqueID>  (31) 
31

>  <SMILES>  (31) 
CN(CC(=O)OC(=O)C(F)(F)F)c1ccc2cc(C([NH-])=O)n(C(=O)OC(=O)C(F)(F)F)c2c1

>  <Energy>  (31) 
82.46465918649005

>  <Genealogy>  (31) 
CN(CC(=O)OC(=O)C(F)(F)F)c1ccc2cc(C([NH-])=O)n(C(=O)OC(=O)C(F)(F)F)c2c1 (protonated)
CN(CC(=O)OC(=O)C(F)(F)F)c1ccc2cc(C([NH-])=O)n(C(=O)OC(=O)C(F)(F)F)c2c1 (3D coordinates assigned)
CN(CC(=O)OC(=O)C(F)(F)F)c1ccc2cc(C([NH-])=O)n(C(=O)OC(=O)C(F)(F)F)c2c1 (optimized conformer: 82.46465918649005 kcal/mol)

>  <smiles>  (31) 
CN(CC(=O)OC(=O)C(F)(F)F)c1ccc2cc(C(N)=O)n(C(=O)OC(=O)C(F)(F)F)c2c1

>  <score_type>  (31) 
oracle

>  <origin>  (31) 
adg

>  <m_score__min__energy>  (31) 
-8.9600000000000009

>  <m_primary>  (31) 
energy

$$$$
31:0
     RDKit          3D

 44 46  0  0  0  0  0  0  0  0999 V2000
   -4.9440   24.6270  -29.0260 N   0  0  0  0  0  0  0  0  0  0  0  0
   -5.9840   24.5990  -30.0070 C   0  0  0  0  0  0  0  0  0  0  0  0
   -6.5870   25.6650  -30.2970 O   0  0  0  0  0  0  0  0  0  0  0  0
   -6.3260   23.3540  -30.7220 C   0  0  0  0  0  0  0  0  0  0  0  0
   -7.6340   22.9510  -30.9740 C   0  0  0  0  0  0  0  0  0  0  0  0
   -7.5220   21.7890  -31.7010 C   0  0  0  0  0  0  0  0  0  0  0  0
   -8.5130   20.9570  -32.2130 C   0  0  0  0  0  0  0  0  0  0  0  0
   -8.1120   19.7980  -32.8990 C   0  0  0  0  0  0  0  0  0  0  0  0
   -6.7370   19.4750  -33.0330 C   0  0  0  0  0  0  0  0  0  0  0  0
   -6.3090   18.2440  -33.7930 C   0  0  0  0  0  0  0  0  0  0  0  0
   -7.2680   17.2500  -33.7090 F   0  0  0  0  0  0  0  0  0  0  0  0
   -5.1250   17.7470  -33.2740 F   0  0  0  0  0  0  0  0  0  0  0  0
   -6.1170   18.5740  -35.1210 F   0  0  0  0  0  0  0  0  0  0  0  0
   -5.7600   20.3570  -32.5170 C   0  0  0  0  0  0  0  0  0  0  0  0
   -6.1880   21.5180  -31.8600 C   0  0  0  0  0  0  0  0  0  0  0  0
   -5.4370   22.4720  -31.2610 N   0  0  0  0  0  0  0  0  0  0  0  0
   -4.0070   22.4760  -31.1170 C   0  0  0  0  0  0  0  0  0  0  0  0
   -3.3600   21.4030  -31.2450 O   0  0  0  0  0  0  0  0  0  0  0  0
   -3.3370   23.6730  -30.8470 O   0  0  0  0  0  0  0  0  0  0  0  0
   -2.2780   23.7760  -29.9010 C   0  0  0  0  0  0  0  0  0  0  0  0
   -2.4450   24.9470  -29.1100 O   0  0  0  0  0  0  0  0  0  0  0  0
   -2.4080   24.9230  -27.7130 C   0  0  0  0  0  0  0  0  0  0  0  0
   -3.4130   24.5430  -27.0510 O   0  0  0  0  0  0  0  0  0  0  0  0
   -1.1560   25.3370  -26.9990 C   0  0  2  0  0  0  0  0  0  0  0  0
   -1.4600   26.0260  -25.6700 C   0  0  0  0  0  0  0  0  0  0  0  0
   -0.4420   27.1370  -25.5920 C   0  0  0  0  0  0  0  0  0  0  0  0
   -0.1640   27.4770  -27.0420 C   0  0  0  0  0  0  0  0  0  0  0  0
   -0.3980   26.2720  -27.8390 N   0  0  0  0  0  0  0  0  0  0  0  0
   -4.3080   23.8120  -28.8910 H   0  0  0  0  0  0  0  0  0  0  0  0
   -4.7790   25.4910  -28.4640 H   0  0  0  0  0  0  0  0  0  0  0  0
   -8.5599   23.4545  -30.6589 H   0  0  0  0  0  0  0  0  0  0  0  0
   -9.5783   21.1993  -32.0846 H   0  0  0  0  0  0  0  0  0  0  0  0
   -8.8721   19.1342  -33.3367 H   0  0  0  0  0  0  0  0  0  0  0  0
   -4.6881   20.1367  -32.6288 H   0  0  0  0  0  0  0  0  0  0  0  0
   -2.2855   22.8909  -29.2478 H   0  0  0  0  0  0  0  0  0  0  0  0
   -1.3192   23.8357  -30.4369 H   0  0  0  0  0  0  0  0  0  0  0  0
   -0.5747   24.4249  -26.7986 H   0  0  0  0  0  0  0  0  0  0  0  0
   -2.4824   26.4318  -25.6651 H   0  0  0  0  0  0  0  0  0  0  0  0
   -1.4013   25.3379  -24.8138 H   0  0  0  0  0  0  0  0  0  0  0  0
   -0.8517   28.0067  -25.0574 H   0  0  0  0  0  0  0  0  0  0  0  0
    0.4651   26.8442  -25.0429 H   0  0  0  0  0  0  0  0  0  0  0  0
   -0.8377   28.2810  -27.3732 H   0  0  0  0  0  0  0  0  0  0  0  0
    0.8738   27.8210  -27.1629 H   0  0  0  0  0  0  0  0  0  0  0  0
    0.5310   25.8400  -28.0580 H   0  0  0  0  0  0  0  0  0  0  0  0
  1  2  1  0
  2  3  2  0
  2  4  1  0
  4  5  2  0
  5  6  1  0
  6  7  2  0
  7  8  1  0
  8  9  2  0
  9 10  1  0
 10 11  1  0
 10 12  1  0
 10 13  1  0
  9 14  1  0
 14 15  2  0
 15 16  1  0
 16 17  1  0
 17 18  2  0
 17 19  1  0
 19 20  1  0
 20 21  1  0
 21 22  1  0
 22 23  2  0
 22 24  1  0
 24 25  1  0
 25 26  1  0
 26 27  1  0
 27 28  1  0
 16  4  1  0
 28 24  1  0
 15  6  1  0
  1 29  1  0
  1 30  1  0
  5 31  1  0
  7 32  1  0
  8 33  1  0
 14 34  1  0
 20 35  1  0
 20 36  1  0
 24 37  1  1
 25 38  1  0
 25 39  1  0
 26 40  1  0
 26 41  1  0
 27 42  1  0
 27 43  1  0
 28 44  1  0
M  END
>  <UniqueID>  (32) 
32

>  <SMILES>  (32) 
NC(=O)c1cc2ccc(C(F)(F)F)cc2n1C(=O)OCOC(=O)[C@@H]1CCCN1

>  <Energy>  (32) 
80.95336803697653

>  <Genealogy>  (32) 
NC(=O)c1cc2ccc(C(F)(F)F)cc2n1C(=O)OCOC(=O)[C@@H]1CCCN1 (chirality)
NC(=O)c1cc2ccc(C(F)(F)F)cc2n1C(=O)OCOC(=O)[C@@H]1CCCN1 (3D coordinates assigned)
NC(=O)c1cc2ccc(C(F)(F)F)cc2n1C(=O)OCOC(=O)[C@@H]1CCCN1 (nonaromatic ring conformer: 80.95336803697653 kcal/mol)

>  <smiles>  (32) 
NC(=O)c1cc2ccc(C(F)(F)F)cc2n1C(=O)OCOC(=O)C1CCCN1

>  <score_type>  (32) 
oracle

>  <origin>  (32) 
adg

>  <m_score__min__energy>  (32) 
-9.1600000000000001

>  <m_primary>  (32) 
energy

$$$$
32:0
     RDKit          3D

 41 42  0  0  0  0  0  0  0  0999 V2000
   -9.1938   19.1094  -32.4442 H   0  0  0  0  0  0  0  0  0  0  0  0
   -8.3320   19.7730  -32.2800 C   0  0  0  0  0  0  0  0  0  0  0  0
   -7.0490   19.3820  -32.7380 C   0  0  0  0  0  0  0  0  0  0  0  0
   -6.8660   18.0740  -33.4670 C   0  0  1  0  0  0  0  0  0  0  0  0
   -7.8595   17.6939  -33.7473 H   0  0  0  0  0  0  0  0  0  0  0  0
   -6.1090   18.2680  -34.6100 F   0  0  0  0  0  0  0  0  0  0  0  0
   -6.1830   17.0470  -32.5690 C   0  0  0  0  0  0  0  0  0  0  0  0
   -6.3569   17.3085  -31.5148 H   0  0  0  0  0  0  0  0  0  0  0  0
   -6.5977   16.0487  -32.7724 H   0  0  0  0  0  0  0  0  0  0  0  0
   -5.1020   17.0434  -32.7724 H   0  0  0  0  0  0  0  0  0  0  0  0
   -5.9470   20.2490  -32.5590 C   0  0  0  0  0  0  0  0  0  0  0  0
   -4.9452   19.9682  -32.9161 H   0  0  0  0  0  0  0  0  0  0  0  0
   -6.1620   21.4740  -31.9160 C   0  0  0  0  0  0  0  0  0  0  0  0
   -7.4050   21.8200  -31.4490 C   0  0  0  0  0  0  0  0  0  0  0  0
   -8.5150   20.9980  -31.6190 C   0  0  0  0  0  0  0  0  0  0  0  0
   -9.5055   21.2989  -31.2469 H   0  0  0  0  0  0  0  0  0  0  0  0
   -7.2980   23.0420  -30.8270 C   0  0  0  0  0  0  0  0  0  0  0  0
   -8.0993   23.6135  -30.3358 H   0  0  0  0  0  0  0  0  0  0  0  0
   -5.9590   23.4010  -30.9520 C   0  0  0  0  0  0  0  0  0  0  0  0
   -5.4150   24.6890  -30.4760 C   0  0  0  0  0  0  0  0  0  0  0  0
   -4.6140   25.3300  -31.2070 O   0  0  0  0  0  0  0  0  0  0  0  0
   -5.7310   25.1890  -29.1760 N   0  0  0  0  0  0  0  0  0  0  0  0
   -6.2500   24.6020  -28.4860 H   0  0  0  0  0  0  0  0  0  0  0  0
   -5.3730   26.1220  -28.8710 H   0  0  0  0  0  0  0  0  0  0  0  0
   -5.2600   22.4360  -31.6140 N   0  0  0  0  0  0  0  0  0  0  0  0
   -3.8410   22.3860  -31.8410 C   0  0  0  0  0  0  0  0  0  0  0  0
   -3.3690   21.5580  -32.6650 O   0  0  0  0  0  0  0  0  0  0  0  0
   -2.9750   23.2630  -31.1000 N   0  0  0  0  0  0  0  0  0  0  0  0
   -2.7200   23.2250  -29.8240 C   0  0  0  0  0  0  0  0  0  0  0  0
   -1.8520   24.2090  -29.2610 N   0  0  0  0  0  0  0  0  0  0  0  0
   -1.4310   24.9520  -29.8630 H   0  0  0  0  0  0  0  0  0  0  0  0
   -1.5930   24.1690  -28.2510 H   0  0  0  0  0  0  0  0  0  0  0  0
   -3.2660   22.2030  -28.9770 N   0  0  0  0  0  0  0  0  0  0  0  0
   -2.6540   20.8760  -28.9580 C   0  0  0  0  0  0  0  0  0  0  0  0
   -2.5061   20.5553  -27.9162 H   0  0  0  0  0  0  0  0  0  0  0  0
   -3.3132   20.1608  -29.4717 H   0  0  0  0  0  0  0  0  0  0  0  0
   -1.6820   20.9131  -29.4717 H   0  0  0  0  0  0  0  0  0  0  0  0
   -4.2290   22.5780  -27.9450 C   0  0  0  0  0  0  0  0  0  0  0  0
   -3.7879   22.4062  -26.9521 H   0  0  0  0  0  0  0  0  0  0  0  0
   -4.4863   23.6420  -28.0528 H   0  0  0  0  0  0  0  0  0  0  0  0
   -5.1381   21.9682  -28.0528 H   0  0  0  0  0  0  0  0  0  0  0  0
  1  2  1  0
  2  3  2  0
  3  4  1  0
  4  5  1  6
  4  6  1  0
  4  7  1  0
  7  8  1  0
  7  9  1  0
  7 10  1  0
  3 11  1  0
 11 12  1  0
 11 13  2  0
 13 14  1  0
 14 15  2  0
 15 16  1  0
 14 17  1  0
 17 18  1  0
 17 19  2  0
 19 20  1  0
 20 21  2  0
 20 22  1  0
 22 23  1  0
 22 24  1  0
 19 25  1  0
 25 26  1  0
 26 27  2  0
 26 28  1  0
 28 29  2  0
 29 30  1  0
 30 31  1  0
 30 32  1  0
 29 33  1  0
 33 34  1  0
 34 35  1  0
 34 36  1  0
 34 37  1  0
 33 38  1  0
 38 39  1  0
 38 40  1  0
 38 41  1  0
 15  2  1  0
 25 13  1  0
M  END
>  <UniqueID>  (33) 
33

>  <SMILES>  (33) 
C[C@H](F)c1ccc2cc(C(N)=O)n(C(=O)/N=C(/N)N(C)C)c2c1

>  <Energy>  (33) 
81.55054085200338

>  <Genealogy>  (33) 
C[C@H](F)c1ccc2cc(C(N)=O)n(C(=O)N=C(N)N(C)C)c2c1 (chirality)
C[C@H](F)c1ccc2cc(C(N)=O)n(C(=O)/N=C(/N)N(C)C)c2c1 (cis-trans isomerization)
C[C@H](F)c1ccc2cc(C(N)=O)n(C(=O)/N=C(/N)N(C)C)c2c1 (3D coordinates assigned)
C[C@H](F)c1ccc2cc(C(N)=O)n(C(=O)/N=C(/N)N(C)C)c2c1 (optimized conformer: 81.55054085200338 kcal/mol)

>  <smiles>  (33) 
CC(F)c1ccc2cc(C(N)=O)n(C(=O)N=C(N)N(C)C)c2c1

>  <score_type>  (33) 
oracle

>  <origin>  (33) 
adg

>  <m_score__min__energy>  (33) 
-9.6500000000000004

>  <m_primary>  (33) 
energy

$$$$
33:0
     RDKit          3D

 38 39  0  0  0  0  0  0  0  0999 V2000
   -7.8080   19.5740  -32.4380 C   0  0  0  0  0  0  0  0  0  0  0  0
   -6.3320   19.7960  -32.8110 C   0  0  0  0  0  0  0  0  0  0  0  0
   -6.0540   19.1940  -34.1960 C   0  0  0  0  0  0  0  0  0  0  0  0
   -5.4210   19.2060  -31.8080 N   0  0  0  0  0  0  0  0  0  0  0  0
   -4.2510   20.0270  -31.6010 C   0  0  0  0  0  0  0  0  0  0  0  0
   -3.0610   19.7810  -32.3360 C   0  0  0  0  0  0  0  0  0  0  0  0
   -1.9160   20.5710  -32.1360 C   0  0  0  0  0  0  0  0  0  0  0  0
   -1.9860   21.5920  -31.1930 C   0  0  0  0  0  0  0  0  0  0  0  0
   -1.0380   22.5160  -30.8110 C   0  0  0  0  0  0  0  0  0  0  0  0
   -1.6580   23.3000  -29.8390 C   0  0  0  0  0  0  0  0  0  0  0  0
   -0.9780   24.3870  -29.1020 C   0  0  0  0  0  0  0  0  0  0  0  0
   -1.6010   25.6560  -28.9280 N   0  0  0  0  0  0  0  0  0  0  0  0
    0.1580   24.1830  -28.5950 O   0  0  0  0  0  0  0  0  0  0  0  0
   -2.9370   22.8790  -29.6350 N   0  0  0  0  0  0  0  0  0  0  0  0
   -3.9330   23.4570  -28.7810 C   0  0  0  0  0  0  0  0  0  0  0  0
   -3.8430   23.3160  -27.5320 O   0  0  0  0  0  0  0  0  0  0  0  0
   -5.1410   24.1200  -29.3680 C   0  0  0  0  0  0  0  0  0  0  0  0
   -4.8060   24.6700  -30.7170 C   0  0  0  0  0  0  0  0  0  0  0  0
   -5.3510   24.1950  -31.7470 O   0  0  0  0  0  0  0  0  0  0  0  0
   -3.8530   25.6730  -30.8410 O   0  0  0  0  0  0  0  0  0  0  0  0
   -3.1210   21.8340  -30.4670 C   0  0  0  0  0  0  0  0  0  0  0  0
   -4.2790   21.0750  -30.6510 C   0  0  0  0  0  0  0  0  0  0  0  0
   -7.9111   19.5585  -31.3430 H   0  0  0  0  0  0  0  0  0  0  0  0
   -8.4177   20.3905  -32.8522 H   0  0  0  0  0  0  0  0  0  0  0  0
   -8.1505   18.6142  -32.8522 H   0  0  0  0  0  0  0  0  0  0  0  0
   -6.1445   20.8797  -32.8332 H   0  0  0  0  0  0  0  0  0  0  0  0
   -5.5954   18.2010  -34.0789 H   0  0  0  0  0  0  0  0  0  0  0  0
   -6.9991   19.0983  -34.7506 H   0  0  0  0  0  0  0  0  0  0  0  0
   -5.3683   19.8514  -34.7506 H   0  0  0  0  0  0  0  0  0  0  0  0
   -5.1000   18.2640  -32.1370 H   0  0  0  0  0  0  0  0  0  0  0  0
   -5.9290   19.0580  -30.9040 H   0  0  0  0  0  0  0  0  0  0  0  0
   -3.0352   18.9625  -33.0705 H   0  0  0  0  0  0  0  0  0  0  0  0
   -0.9937   20.3881  -32.7068 H   0  0  0  0  0  0  0  0  0  0  0  0
   -0.0107   22.6142  -31.1918 H   0  0  0  0  0  0  0  0  0  0  0  0
   -2.6280   25.7750  -29.0790 H   0  0  0  0  0  0  0  0  0  0  0  0
   -5.9523   23.3834  -29.4642 H   0  0  0  0  0  0  0  0  0  0  0  0
   -5.4638   24.9398  -28.7094 H   0  0  0  0  0  0  0  0  0  0  0  0
   -5.1899   21.2868  -30.0718 H   0  0  0  0  0  0  0  0  0  0  0  0
  1  2  1  0
  2  3  1  0
  2  4  1  0
  4  5  1  0
  5  6  2  0
  6  7  1  0
  7  8  2  0
  8  9  1  0
  9 10  2  0
 10 11  1  0
 11 12  1  0
 11 13  2  0
 10 14  1  0
 14 15  1  0
 15 16  2  0
 15 17  1  0
 17 18  1  0
 18 19  2  0
 18 20  1  0
 14 21  1  0
 21 22  2  0
 22  5  1  0
 21  8  1  0
  1 23  1  0
  1 24  1  0
  1 25  1  0
  2 26  1  0
  3 27  1  0
  3 28  1  0
  3 29  1  0
  4 30  1  0
  4 31  1  0
  6 32  1  0
  7 33  1  0
  9 34  1  0
 12 35  1  0
 17 36  1  0
 17 37  1  0
 22 38  1  0
M  CHG  3   4   1  12  -1  20  -1
M  END
>  <UniqueID>  (34) 
34

>  <SMILES>  (34) 
CC(C)[NH2+]c1ccc2cc(C([NH-])=O)n(C(=O)CC(=O)[O-])c2c1

>  <Energy>  (34) 
73.68979488112188

>  <Genealogy>  (34) 
CC(C)[NH2+]c1ccc2cc(C([NH-])=O)n(C(=O)CC(=O)[O-])c2c1 (protonated)
CC(C)[NH2+]c1ccc2cc(C([NH-])=O)n(C(=O)CC(=O)[O-])c2c1 (3D coordinates assigned)
CC(C)[NH2+]c1ccc2cc(C([NH-])=O)n(C(=O)CC(=O)[O-])c2c1 (optimized conformer: 73.68979488112188 kcal/mol)

>  <smiles>  (34) 
CC(C)Nc1ccc2cc(C(N)=O)n(C(=O)CC(=O)O)c2c1

>  <score_type>  (34) 
oracle

>  <origin>  (34) 
adg

>  <m_score__min__energy>  (34) 
-10.949999999999999

>  <m_primary>  (34) 
energy

$$$$
34:0
     RDKit          3D

 37 39  0  0  0  0  0  0  0  0999 V2000
   -6.2380   25.4560  -28.9750 N   0  0  0  0  0  0  0  0  0  0  0  0
   -6.1360   25.1760  -30.3710 C   0  0  0  0  0  0  0  0  0  0  0  0
   -5.7260   26.0760  -31.1510 O   0  0  0  0  0  0  0  0  0  0  0  0
   -6.4520   23.8380  -30.9130 C   0  0  0  0  0  0  0  0  0  0  0  0
   -7.7460   23.3290  -30.9970 C   0  0  0  0  0  0  0  0  0  0  0  0
   -7.6160   22.1030  -31.6110 C   0  0  0  0  0  0  0  0  0  0  0  0
   -8.5820   21.1580  -31.9400 C   0  0  0  0  0  0  0  0  0  0  0  0
   -8.1560   19.9650  -32.5470 C   0  0  0  0  0  0  0  0  0  0  0  0
   -6.7810   19.7340  -32.8100 C   0  0  0  0  0  0  0  0  0  0  0  0
   -6.3620   18.4980  -33.4180 N   0  0  0  0  0  0  0  0  0  0  0  0
   -5.7660   18.4970  -34.7580 C   0  0  0  0  0  0  0  0  0  0  0  0
   -4.8280   17.2950  -34.9030 C   0  0  0  0  0  0  0  0  0  0  0  0
   -5.4900   16.0940  -34.5540 O   0  0  0  0  0  0  0  0  0  0  0  0
   -5.8340   16.1170  -33.1810 C   0  0  0  0  0  0  0  0  0  0  0  0
   -6.8560   17.2210  -32.8940 C   0  0  0  0  0  0  0  0  0  0  0  0
   -5.8300   20.7180  -32.4530 C   0  0  0  0  0  0  0  0  0  0  0  0
   -6.2840   21.9020  -31.8640 C   0  0  0  0  0  0  0  0  0  0  0  0
   -5.5550   22.9540  -31.4340 N   0  0  0  0  0  0  0  0  0  0  0  0
   -4.1210   23.0500  -31.4520 C   0  0  0  0  0  0  0  0  0  0  0  0
   -3.4660   22.4270  -32.3300 O   0  0  0  0  0  0  0  0  0  0  0  0
   -3.4000   23.8380  -30.4410 C   0  0  0  0  0  0  0  0  0  0  0  0
   -2.7140   23.2660  -29.5540 O   0  0  0  0  0  0  0  0  0  0  0  0
   -3.4550   25.2260  -30.4730 O   0  0  0  0  0  0  0  0  0  0  0  0
   -6.0620   26.4230  -28.6220 H   0  0  0  0  0  0  0  0  0  0  0  0
   -6.3920   24.6940  -28.2790 H   0  0  0  0  0  0  0  0  0  0  0  0
   -8.6740   23.8049  -30.6474 H   0  0  0  0  0  0  0  0  0  0  0  0
   -9.6467   21.3392  -31.7313 H   0  0  0  0  0  0  0  0  0  0  0  0
   -8.8976   19.2004  -32.8218 H   0  0  0  0  0  0  0  0  0  0  0  0
   -6.5633   18.4322  -35.5131 H   0  0  0  0  0  0  0  0  0  0  0  0
   -5.1946   19.4256  -34.9040 H   0  0  0  0  0  0  0  0  0  0  0  0
   -4.4867   17.2281  -35.9466 H   0  0  0  0  0  0  0  0  0  0  0  0
   -3.9713   17.4337  -34.2272 H   0  0  0  0  0  0  0  0  0  0  0  0
   -6.2655   15.1447  -32.9012 H   0  0  0  0  0  0  0  0  0  0  0  0
   -4.9256   16.3165  -32.5936 H   0  0  0  0  0  0  0  0  0  0  0  0
   -7.8108   16.9710  -33.3796 H   0  0  0  0  0  0  0  0  0  0  0  0
   -7.0061   17.3059  -31.8076 H   0  0  0  0  0  0  0  0  0  0  0  0
   -4.7573   20.5555  -32.6346 H   0  0  0  0  0  0  0  0  0  0  0  0
  1  2  1  0
  2  3  2  0
  2  4  1  0
  4  5  2  0
  5  6  1  0
  6  7  2  0
  7  8  1  0
  8  9  2  0
  9 10  1  0
 10 11  1  0
 11 12  1  0
 12 13  1  0
 13 14  1  0
 14 15  1  0
  9 16  1  0
 16 17  2  0
 17 18  1  0
 18 19  1  0
 19 20  2  0
 19 21  1  0
 21 22  2  0
 21 23  1  0
 18  4  1  0
 17  6  1  0
 15 10  1  0
  1 24  1  0
  1 25  1  0
  5 26  1  0
  7 27  1  0
  8 28  1  0
 11 29  1  0
 11 30  1  0
 12 31  1  0
 12 32  1  0
 14 33  1  0
 14 34  1  0
 15 35  1  0
 15 36  1  0
 16 37  1  0
M  CHG  1  23  -1
M  END
>  <UniqueID>  (35) 
35

>  <SMILES>  (35) 
NC(=O)c1cc2ccc(N3CCOCC3)cc2n1C(=O)C(=O)[O-]

>  <Energy>  (35) 
83.87053481686988

>  <Genealogy>  (35) 
NC(=O)c1cc2ccc(N3CCOCC3)cc2n1C(=O)C(=O)[O-] (protonated)
NC(=O)c1cc2ccc(N3CCOCC3)cc2n1C(=O)C(=O)[O-] (3D coordinates assigned)
NC(=O)c1cc2ccc(N3CCOCC3)cc2n1C(=O)C(=O)[O-] (nonaromatic ring conformer: 83.87053481686988 kcal/mol)

>  <smiles>  (35) 
NC(=O)c1cc2ccc(N3CCOCC3)cc2n1C(=O)C(=O)O

>  <score_type>  (35) 
oracle

>  <origin>  (35) 
adg

>  <m_score__min__energy>  (35) 
-10.49

>  <m_primary>  (35) 
energy

$$$$
35:0
     RDKit          3D

 37 38  0  0  0  0  0  0  0  0999 V2000
   -6.5020   17.8740  -33.5540 C   0  0  0  0  0  0  0  0  0  0  0  0
   -6.9750   19.1310  -32.8880 C   0  0  0  0  0  0  0  0  0  0  0  0
   -8.3600   19.3460  -32.6790 C   0  0  0  0  0  0  0  0  0  0  0  0
   -8.8130   20.4960  -32.0110 C   0  0  0  0  0  0  0  0  0  0  0  0
   -7.8610   21.4070  -31.5620 C   0  0  0  0  0  0  0  0  0  0  0  0
   -8.0220   22.5780  -30.8580 C   0  0  0  0  0  0  0  0  0  0  0  0
   -6.7340   23.0680  -30.6600 C   0  0  0  0  0  0  0  0  0  0  0  0
   -6.4450   24.3540  -29.9960 C   0  0  0  0  0  0  0  0  0  0  0  0
   -5.2210   24.5640  -29.2890 N   0  0  0  0  0  0  0  0  0  0  0  0
   -7.2670   25.3030  -30.1000 O   0  0  0  0  0  0  0  0  0  0  0  0
   -5.8110   22.2260  -31.2040 N   0  0  0  0  0  0  0  0  0  0  0  0
   -4.3800   22.3240  -31.1170 C   0  0  0  0  0  0  0  0  0  0  0  0
   -3.8110   23.4210  -31.3710 O   0  0  0  0  0  0  0  0  0  0  0  0
   -3.6260   21.2020  -30.7590 O   0  0  0  0  0  0  0  0  0  0  0  0
   -2.5650   21.2460  -29.8070 C   0  0  0  0  0  0  0  0  0  0  0  0
   -3.0690   21.7270  -28.4830 C   0  0  0  0  0  0  0  0  0  0  0  0
   -3.4070   20.8910  -27.6020 O   0  0  0  0  0  0  0  0  0  0  0  0
   -3.1360   23.1020  -28.2300 O   0  0  0  0  0  0  0  0  0  0  0  0
   -1.9840   23.9190  -28.0430 C   0  0  0  0  0  0  0  0  0  0  0  0
   -2.0300   25.1010  -28.9580 C   0  0  0  0  0  0  0  0  0  0  0  0
   -3.0190   25.2790  -29.7160 O   0  0  0  0  0  0  0  0  0  0  0  0
   -0.9890   26.0210  -28.9560 O   0  0  0  0  0  0  0  0  0  0  0  0
   -6.5170   21.2160  -31.7580 C   0  0  0  0  0  0  0  0  0  0  0  0
   -6.0370   20.0690  -32.4020 C   0  0  0  0  0  0  0  0  0  0  0  0
   -6.2240   17.1353  -32.7878 H   0  0  0  0  0  0  0  0  0  0  0  0
   -7.3080   17.4658  -34.1815 H   0  0  0  0  0  0  0  0  0  0  0  0
   -5.6268   18.0985  -34.1815 H   0  0  0  0  0  0  0  0  0  0  0  0
   -9.0873   18.6055  -33.0432 H   0  0  0  0  0  0  0  0  0  0  0  0
   -9.8867   20.6711  -31.8479 H   0  0  0  0  0  0  0  0  0  0  0  0
   -8.9669   23.0306  -30.5230 H   0  0  0  0  0  0  0  0  0  0  0  0
   -5.0520   25.4650  -28.7900 H   0  0  0  0  0  0  0  0  0  0  0  0
   -4.4470   23.8650  -29.3320 H   0  0  0  0  0  0  0  0  0  0  0  0
   -2.1425   20.2373  -29.6888 H   0  0  0  0  0  0  0  0  0  0  0  0
   -1.7921   21.9408  -30.1674 H   0  0  0  0  0  0  0  0  0  0  0  0
   -1.9527   24.2685  -27.0005 H   0  0  0  0  0  0  0  0  0  0  0  0
   -1.0854   23.3265  -28.2698 H   0  0  0  0  0  0  0  0  0  0  0  0
   -4.9568   19.9025  -32.5264 H   0  0  0  0  0  0  0  0  0  0  0  0
  1  2  1  0
  2  3  2  0
  3  4  1  0
  4  5  2  0
  5  6  1  0
  6  7  2  0
  7  8  1  0
  8  9  1  0
  8 10  2  0
  7 11  1  0
 11 12  1  0
 12 13  2  0
 12 14  1  0
 14 15  1  0
 15 16  1  0
 16 17  2  0
 16 18  1  0
 18 19  1  0
 19 20  1  0
 20 21  2  0
 20 22  1  0
 11 23  1  0
 23 24  2  0
 24  2  1  0
 23  5  1  0
  1 25  1  0
  1 26  1  0
  1 27  1  0
  3 28  1  0
  4 29  1  0
  6 30  1  0
  9 31  1  0
  9 32  1  0
 15 33  1  0
 15 34  1  0
 19 35  1  0
 19 36  1  0
 24 37  1  0
M  CHG  1  22  -1
M  END
>  <UniqueID>  (36) 
36

>  <SMILES>  (36) 
Cc1ccc2cc(C(N)=O)n(C(=O)OCC(=O)OCC(=O)[O-])c2c1

>  <Energy>  (36) 
70.63658936136353

>  <Genealogy>  (36) 
Cc1ccc2cc(C(N)=O)n(C(=O)OCC(=O)OCC(=O)[O-])c2c1 (protonated)
Cc1ccc2cc(C(N)=O)n(C(=O)OCC(=O)OCC(=O)[O-])c2c1 (3D coordinates assigned)
Cc1ccc2cc(C(N)=O)n(C(=O)OCC(=O)OCC(=O)[O-])c2c1 (optimized conformer: 70.63658936136353 kcal/mol)

>  <smiles>  (36) 
Cc1ccc2cc(C(N)=O)n(C(=O)OCC(=O)OCC(=O)O)c2c1

>  <score_type>  (36) 
oracle

>  <origin>  (36) 
adg

>  <m_score__min__energy>  (36) 
-10.039999999999999

>  <m_primary>  (36) 
energy

$$$$
36:0
     RDKit          3D

 55 56  0  0  0  0  0  0  0  0999 V2000
   -7.2410   17.7630  -32.5140 C   0  0  0  0  0  0  0  0  0  0  0  0
   -7.9990   18.9020  -33.0190 N   0  0  0  0  0  0  0  0  0  0  0  0
   -7.9390   20.2180  -32.4450 C   0  0  0  0  0  0  0  0  0  0  0  0
   -9.1170   20.9390  -32.1110 C   0  0  0  0  0  0  0  0  0  0  0  0
   -9.0390   22.2280  -31.5600 C   0  0  0  0  0  0  0  0  0  0  0  0
   -7.7770   22.7750  -31.3640 C   0  0  0  0  0  0  0  0  0  0  0  0
   -7.4170   23.9990  -30.8530 C   0  0  0  0  0  0  0  0  0  0  0  0
   -6.0250   24.0190  -30.8980 C   0  0  0  0  0  0  0  0  0  0  0  0
   -5.2220   25.2050  -30.5460 C   0  0  0  0  0  0  0  0  0  0  0  0
   -3.8800   25.3470  -31.0080 N   0  0  0  0  0  0  0  0  0  0  0  0
   -5.7430   26.1310  -29.8680 O   0  0  0  0  0  0  0  0  0  0  0  0
   -5.5430   22.8490  -31.4010 N   0  0  0  0  0  0  0  0  0  0  0  0
   -4.1690   22.4500  -31.5410 C   0  0  0  0  0  0  0  0  0  0  0  0
   -3.7010   22.2290  -32.6870 O   0  0  0  0  0  0  0  0  0  0  0  0
   -3.3490   22.2720  -30.3770 N   0  0  0  0  0  0  0  0  0  0  0  0
   -1.9270   22.0810  -30.4110 C   0  0  0  0  0  0  0  0  0  0  0  0
   -1.3250   21.9170  -31.5090 O   0  0  0  0  0  0  0  0  0  0  0  0
   -1.2110   22.0930  -29.2070 O   0  0  0  0  0  0  0  0  0  0  0  0
   -0.0950   22.9490  -28.9520 C   0  0  0  0  0  0  0  0  0  0  0  0
   -0.4800   24.1010  -28.0210 C   0  0  1  0  0  0  0  0  0  0  0  0
    0.6510   25.0140  -27.8740 N   0  0  0  0  0  0  0  0  0  0  0  0
    1.2310   25.3310  -26.6090 C   0  0  0  0  0  0  0  0  0  0  0  0
    2.3620   24.8530  -26.3210 O   0  0  0  0  0  0  0  0  0  0  0  0
    0.5370   26.1530  -25.7060 O   0  0  0  0  0  0  0  0  0  0  0  0
   -0.5090   25.7510  -24.8150 C   0  0  0  0  0  0  0  0  0  0  0  0
   -0.3350   26.5530  -23.5170 C   0  0  0  0  0  0  0  0  0  0  0  0
   -1.8900   26.0770  -25.4150 C   0  0  0  0  0  0  0  0  0  0  0  0
   -0.4010   24.2460  -24.4980 C   0  0  0  0  0  0  0  0  0  0  0  0
   -1.6860   24.8370  -28.5280 C   0  0  0  0  0  0  0  0  0  0  0  0
   -1.5870   26.0120  -28.9710 O   0  0  0  0  0  0  0  0  0  0  0  0
   -2.9230   24.2050  -28.5450 O   0  0  0  0  0  0  0  0  0  0  0  0
   -6.6300   22.1000  -31.6890 C   0  0  0  0  0  0  0  0  0  0  0  0
   -6.6770   20.8070  -32.2170 C   0  0  0  0  0  0  0  0  0  0  0  0
   -7.2494   17.7756  -31.4141 H   0  0  0  0  0  0  0  0  0  0  0  0
   -7.6987   16.8296  -32.8735 H   0  0  0  0  0  0  0  0  0  0  0  0
   -6.2032   17.8247  -32.8735 H   0  0  0  0  0  0  0  0  0  0  0  0
   -8.6490   18.7310  -33.8160 H   0  0  0  0  0  0  0  0  0  0  0  0
  -10.1020   20.4817  -32.2863 H   0  0  0  0  0  0  0  0  0  0  0  0
   -9.9478   22.7868  -31.2921 H   0  0  0  0  0  0  0  0  0  0  0  0
   -8.0849   24.7927  -30.4870 H   0  0  0  0  0  0  0  0  0  0  0  0
   -3.0770   25.2900  -30.3470 H   0  0  0  0  0  0  0  0  0  0  0  0
   -3.8020   22.3400  -29.4420 H   0  0  0  0  0  0  0  0  0  0  0  0
    0.7075   22.3614  -28.4822 H   0  0  0  0  0  0  0  0  0  0  0  0
    0.2430   23.3736  -29.9088 H   0  0  0  0  0  0  0  0  0  0  0  0
   -0.7384   23.6797  -27.0383 H   0  0  0  0  0  0  0  0  0  0  0  0
   -0.4793   25.8878  -22.6529 H   0  0  0  0  0  0  0  0  0  0  0  0
    0.6772   26.9824  -23.4842 H   0  0  0  0  0  0  0  0  0  0  0  0
   -1.0783   27.3632  -23.4842 H   0  0  0  0  0  0  0  0  0  0  0  0
   -2.6118   26.2474  -24.6026 H   0  0  0  0  0  0  0  0  0  0  0  0
   -1.8158   26.9823  -26.0354 H   0  0  0  0  0  0  0  0  0  0  0  0
   -2.2285   25.2341  -26.0354 H   0  0  0  0  0  0  0  0  0  0  0  0
   -0.3906   24.1008  -23.4077 H   0  0  0  0  0  0  0  0  0  0  0  0
   -1.2635   23.7175  -24.9301 H   0  0  0  0  0  0  0  0  0  0  0  0
    0.5282   23.8460  -24.9301 H   0  0  0  0  0  0  0  0  0  0  0  0
   -5.7511   20.2606  -32.4497 H   0  0  0  0  0  0  0  0  0  0  0  0
  1  2  1  0
  2  3  1  0
  3  4  2  0
  4  5  1  0
  5  6  2  0
  6  7  1  0
  7  8  2  0
  8  9  1  0
  9 10  1  0
  9 11  2  0
  8 12  1  0
 12 13  1  0
 13 14  2  0
 13 15  1  0
 15 16  1  0
 16 17  2  0
 16 18  1  0
 18 19  1  0
 19 20  1  0
 20 21  1  0
 21 22  1  0
 22 23  2  0
 22 24  1  0
 24 25  1  0
 25 26  1  0
 25 27  1  0
 25 28  1  0
 20 29  1  0
 29 30  2  0
 29 31  1  0
 12 32  1  0
 32 33  2  0
 33  3  1  0
 32  6  1  0
  1 34  1  0
  1 35  1  0
  1 36  1  0
  2 37  1  0
  4 38  1  0
  5 39  1  0
  7 40  1  0
 10 41  1  0
 15 42  1  0
 19 43  1  0
 19 44  1  0
 20 45  1  1
 26 46  1  0
 26 47  1  0
 26 48  1  0
 27 49  1  0
 27 50  1  0
 27 51  1  0
 28 52  1  0
 28 53  1  0
 28 54  1  0
 33 55  1  0
M  CHG  3  10  -1  21  -1  31  -1
M  END
>  <UniqueID>  (37) 
37

>  <SMILES>  (37) 
CNc1ccc2cc(C([NH-])=O)n(C(=O)NC(=O)OC[C@@H]([N-]C(=O)OC(C)(C)C)C(=O)[O-])c2c1

>  <Energy>  (37) 
84.11772844769081

>  <Genealogy>  (37) 
CNc1ccc2cc(C([NH-])=O)n(C(=O)NC(=O)OCC([N-]C(=O)OC(C)(C)C)C(=O)[O-])c2c1 (protonated)
CNc1ccc2cc(C([NH-])=O)n(C(=O)NC(=O)OC[C@@H]([N-]C(=O)OC(C)(C)C)C(=O)[O-])c2c1 (chirality)
CNc1ccc2cc(C([NH-])=O)n(C(=O)NC(=O)OC[C@@H]([N-]C(=O)OC(C)(C)C)C(=O)[O-])c2c1 (3D coordinates assigned)
CNc1ccc2cc(C([NH-])=O)n(C(=O)NC(=O)OC[C@@H]([N-]C(=O)OC(C)(C)C)C(=O)[O-])c2c1 (optimized conformer: 84.11772844769081 kcal/mol)

>  <smiles>  (37) 
CNc1ccc2cc(C(N)=O)n(C(=O)NC(=O)OCC(NC(=O)OC(C)(C)C)C(=O)O)c2c1

>  <score_type>  (37) 
oracle

>  <origin>  (37) 
adg

>  <m_score__min__energy>  (37) 
-14.09

>  <m_primary>  (37) 
energy

$$$$
37:0
     RDKit          3D

 38 39  0  0  0  0  0  0  0  0999 V2000
   -6.6430   18.4050  -32.8070 C   0  0  0  0  0  0  0  0  0  0  0  0
   -6.8370   19.8400  -32.4150 C   0  0  0  0  0  0  0  0  0  0  0  0
   -8.1400   20.3940  -32.3800 C   0  0  0  0  0  0  0  0  0  0  0  0
   -8.3420   21.7220  -31.9690 C   0  0  0  0  0  0  0  0  0  0  0  0
   -7.2260   22.4650  -31.5950 C   0  0  0  0  0  0  0  0  0  0  0  0
   -7.1380   23.7580  -31.1330 C   0  0  0  0  0  0  0  0  0  0  0  0
   -5.7820   23.9770  -30.9000 C   0  0  0  0  0  0  0  0  0  0  0  0
   -5.2310   25.2820  -30.4780 C   0  0  0  0  0  0  0  0  0  0  0  0
   -3.9110   25.6740  -30.8470 N   0  0  0  0  0  0  0  0  0  0  0  0
   -5.9530   26.0830  -29.8270 O   0  0  0  0  0  0  0  0  0  0  0  0
   -5.0600   22.8580  -31.1950 N   0  0  0  0  0  0  0  0  0  0  0  0
   -3.6500   22.6460  -31.0210 C   0  0  0  0  0  0  0  0  0  0  0  0
   -2.9780   22.0920  -31.9330 O   0  0  0  0  0  0  0  0  0  0  0  0
   -3.0250   23.0760  -29.8470 O   0  0  0  0  0  0  0  0  0  0  0  0
   -1.6390   23.3850  -29.7800 C   0  0  0  0  0  0  0  0  0  0  0  0
   -1.4320   24.5390  -28.8440 C   0  0  0  0  0  0  0  0  0  0  0  0
   -1.2740   25.6900  -29.3350 O   0  0  0  0  0  0  0  0  0  0  0  0
   -1.4440   24.3660  -27.4090 N   0  0  0  0  0  0  0  0  0  0  0  0
   -1.6130   23.0370  -26.8120 C   0  0  0  0  0  0  0  0  0  0  0  0
   -1.2850   25.5450  -26.5500 C   0  0  0  0  0  0  0  0  0  0  0  0
   -5.9570   21.9440  -31.6250 C   0  0  0  0  0  0  0  0  0  0  0  0
   -5.7310   20.6180  -32.0120 C   0  0  0  0  0  0  0  0  0  0  0  0
   -6.5593   17.7857  -31.9017 H   0  0  0  0  0  0  0  0  0  0  0  0
   -7.5038   18.0682  -33.4033 H   0  0  0  0  0  0  0  0  0  0  0  0
   -5.7237   18.3089  -33.4033 H   0  0  0  0  0  0  0  0  0  0  0  0
   -9.0019   19.7786  -32.6774 H   0  0  0  0  0  0  0  0  0  0  0  0
   -9.3503   22.1609  -31.9435 H   0  0  0  0  0  0  0  0  0  0  0  0
   -7.9637   24.4685  -30.9800 H   0  0  0  0  0  0  0  0  0  0  0  0
   -3.0760   25.2010  -30.4350 H   0  0  0  0  0  0  0  0  0  0  0  0
   -1.0848   22.5092  -29.4114 H   0  0  0  0  0  0  0  0  0  0  0  0
   -1.2729   23.6535  -30.7819 H   0  0  0  0  0  0  0  0  0  0  0  0
   -1.6020   23.1235  -25.7155 H   0  0  0  0  0  0  0  0  0  0  0  0
   -2.5728   22.6087  -27.1364 H   0  0  0  0  0  0  0  0  0  0  0  0
   -0.7909   22.3821  -27.1364 H   0  0  0  0  0  0  0  0  0  0  0  0
   -1.3264   25.2379  -25.4945 H   0  0  0  0  0  0  0  0  0  0  0  0
   -0.3146   26.0204  -26.7558 H   0  0  0  0  0  0  0  0  0  0  0  0
   -2.0948   26.2605  -26.7558 H   0  0  0  0  0  0  0  0  0  0  0  0
   -4.7165   20.1930  -32.0022 H   0  0  0  0  0  0  0  0  0  0  0  0
  1  2  1  0
  2  3  2  0
  3  4  1  0
  4  5  2  0
  5  6  1  0
  6  7  2  0
  7  8  1  0
  8  9  1  0
  8 10  2  0
  7 11  1  0
 11 12  1  0
 12 13  2  0
 12 14  1  0
 14 15  1  0
 15 16  1  0
 16 17  2  0
 16 18  1  0
 18 19  1  0
 18 20  1  0
 11 21  1  0
 21 22  2  0
 22  2  1  0
 21  5  1  0
  1 23  1  0
  1 24  1  0
  1 25  1  0
  3 26  1  0
  4 27  1  0
  6 28  1  0
  9 29  1  0
 15 30  1  0
 15 31  1  0
 19 32  1  0
 19 33  1  0
 19 34  1  0
 20 35  1  0
 20 36  1  0
 20 37  1  0
 22 38  1  0
M  CHG  1   9  -1
M  END
>  <UniqueID>  (38) 
38

>  <SMILES>  (38) 
Cc1ccc2cc(C([NH-])=O)n(C(=O)OCC(=O)N(C)C)c2c1

>  <Energy>  (38) 
70.79515200444709

>  <Genealogy>  (38) 
Cc1ccc2cc(C([NH-])=O)n(C(=O)OCC(=O)N(C)C)c2c1 (protonated)
Cc1ccc2cc(C([NH-])=O)n(C(=O)OCC(=O)N(C)C)c2c1 (3D coordinates assigned)
Cc1ccc2cc(C([NH-])=O)n(C(=O)OCC(=O)N(C)C)c2c1 (optimized conformer: 70.79515200444709 kcal/mol)

>  <smiles>  (38) 
Cc1ccc2cc(C(N)=O)n(C(=O)OCC(=O)N(C)C)c2c1

>  <score_type>  (38) 
oracle

>  <origin>  (38) 
adg

>  <m_score__min__energy>  (38) 
-10.119999999999999

>  <m_primary>  (38) 
energy

$$$$
38:0
     RDKit          3D

 31 32  0  0  0  0  0  0  0  0999 V2000
   -1.9146   22.3792  -27.8879 H   0  0  0  0  0  0  0  0  0  0  0  0
   -2.2820   22.8610  -28.8060 C   0  0  0  0  0  0  0  0  0  0  0  0
   -1.6260   24.1150  -29.2170 C   0  0  0  0  0  0  0  0  0  0  0  0
   -0.3740   24.1400  -29.3610 O   0  0  0  0  0  0  0  0  0  0  0  0
   -2.3490   25.2940  -29.3620 O   0  0  0  0  0  0  0  0  0  0  0  0
   -3.2890   22.2560  -29.4550 C   0  0  0  0  0  0  0  0  0  0  0  0
   -3.7754   21.4113  -28.9452 H   0  0  0  0  0  0  0  0  0  0  0  0
   -3.8050   22.6200  -30.7920 C   0  0  0  0  0  0  0  0  0  0  0  0
   -3.0190   22.7730  -31.7640 O   0  0  0  0  0  0  0  0  0  0  0  0
   -5.2230   22.7470  -30.9960 N   0  0  0  0  0  0  0  0  0  0  0  0
   -5.9920   23.8670  -30.8700 C   0  0  0  0  0  0  0  0  0  0  0  0
   -5.5030   25.2200  -30.5070 C   0  0  0  0  0  0  0  0  0  0  0  0
   -6.2580   26.0350  -29.9110 O   0  0  0  0  0  0  0  0  0  0  0  0
   -4.1740   25.6230  -30.8370 N   0  0  0  0  0  0  0  0  0  0  0  0
   -3.4810   24.9500  -31.2400 H   0  0  0  0  0  0  0  0  0  0  0  0
   -3.8680   26.6050  -30.6460 H   0  0  0  0  0  0  0  0  0  0  0  0
   -7.3160   23.5860  -31.2080 C   0  0  0  0  0  0  0  0  0  0  0  0
   -8.1668   24.2833  -31.2044 H   0  0  0  0  0  0  0  0  0  0  0  0
   -7.3330   22.2520  -31.5470 C   0  0  0  0  0  0  0  0  0  0  0  0
   -8.3900   21.4420  -31.9570 C   0  0  0  0  0  0  0  0  0  0  0  0
   -9.4101   21.8440  -32.0448 H   0  0  0  0  0  0  0  0  0  0  0  0
   -8.1150   20.0970  -32.2550 C   0  0  0  0  0  0  0  0  0  0  0  0
   -8.9324   19.4310  -32.5684 H   0  0  0  0  0  0  0  0  0  0  0  0
   -6.7930   19.5880  -32.1560 C   0  0  0  0  0  0  0  0  0  0  0  0
   -6.4960   18.1390  -32.4540 C   0  0  0  0  0  0  0  0  0  0  0  0
   -6.1460   17.4740  -31.2910 F   0  0  0  0  0  0  0  0  0  0  0  0
   -7.6250   17.5470  -32.9890 F   0  0  0  0  0  0  0  0  0  0  0  0
   -5.4540   18.0150  -33.3560 F   0  0  0  0  0  0  0  0  0  0  0  0
   -5.7530   20.4360  -31.6950 C   0  0  0  0  0  0  0  0  0  0  0  0
   -4.7308   20.0518  -31.5627 H   0  0  0  0  0  0  0  0  0  0  0  0
   -6.0570   21.7700  -31.4130 C   0  0  0  0  0  0  0  0  0  0  0  0
  1  2  1  0
  2  3  1  0
  3  4  2  0
  3  5  1  0
  2  6  2  0
  6  7  1  0
  6  8  1  0
  8  9  2  0
  8 10  1  0
 10 11  1  0
 11 12  1  0
 12 13  2  0
 12 14  1  0
 14 15  1  0
 14 16  1  0
 11 17  2  0
 17 18  1  0
 17 19  1  0
 19 20  2  0
 20 21  1  0
 20 22  1  0
 22 23  1  0
 22 24  2  0
 24 25  1  0
 25 26  1  0
 25 27  1  0
 25 28  1  0
 24 29  1  0
 29 30  1  0
 29 31  2  0
 31 10  1  0
 31 19  1  0
M  CHG  1   5  -1
M  END
>  <UniqueID>  (39) 
39

>  <SMILES>  (39) 
NC(=O)c1cc2ccc(C(F)(F)F)cc2n1C(=O)/C=C\C(=O)[O-]

>  <Energy>  (39) 
78.29541891012256

>  <Genealogy>  (39) 
NC(=O)c1cc2ccc(C(F)(F)F)cc2n1C(=O)/C=C\C(=O)[O-] (protonated)
NC(=O)c1cc2ccc(C(F)(F)F)cc2n1C(=O)/C=C\C(=O)[O-] (cis-trans isomerization)
NC(=O)c1cc2ccc(C(F)(F)F)cc2n1C(=O)/C=C\C(=O)[O-] (3D coordinates assigned)
NC(=O)c1cc2ccc(C(F)(F)F)cc2n1C(=O)/C=C\C(=O)[O-] (optimized conformer: 78.29541891012256 kcal/mol)

>  <smiles>  (39) 
NC(=O)c1cc2ccc(C(F)(F)F)cc2n1C(=O)/C=C\C(=O)O

>  <score_type>  (39) 
oracle

>  <origin>  (39) 
adg

>  <m_score__min__energy>  (39) 
-10.289999999999999

>  <m_primary>  (39) 
energy

$$$$
39:0
     RDKit          2D

 43 46  0  0  0  0  0  0  0  0999 V2000
    3.5260   -1.2990    0.0000 C   0  0  0  0  0  0  0  0  0  0  0  0
    2.7760    0.0000    0.0000 C   0  0  0  0  0  0  0  0  0  0  0  0
    3.5260    1.2990    0.0000 O   0  0  0  0  0  0  0  0  0  0  0  0
    1.2760    0.0000    0.0000 N   0  0  0  0  0  0  0  0  0  0  0  0
    0.3943    1.2135    0.0000 C   0  0  0  0  0  0  0  0  0  0  0  0
    0.8578    2.6401    0.0000 C   0  0  0  0  0  0  0  0  0  0  0  0
   -0.1459    3.7548    0.0000 N   0  0  0  0  0  0  0  0  0  0  0  0
    2.3250    2.9520    0.0000 O   0  0  0  0  0  0  0  0  0  0  0  0
   -1.0323    0.7500    0.0000 C   0  0  0  0  0  0  0  0  0  0  0  0
   -1.0323   -0.7500    0.0000 C   0  0  0  0  0  0  0  0  0  0  0  0
   -2.1470   -1.7537    0.0000 C   0  0  0  0  0  0  0  0  0  0  0  0
   -1.8351   -3.2209    0.0000 C   0  0  0  0  0  0  0  0  0  0  0  0
   -0.4086   -3.6844    0.0000 C   0  0  0  0  0  0  0  0  0  0  0  0
   -0.0967   -5.1517    0.0000 N   0  0  0  0  0  0  0  0  0  0  0  0
   -1.2114   -6.1554    0.0000 C   0  0  0  0  0  0  0  0  0  0  0  0
   -0.8995   -7.6226    0.0000 C   0  0  0  0  0  0  0  0  0  0  0  0
   -0.1495   -8.9216    0.0000 C   0  0  0  0  0  0  0  0  0  0  0  0
    1.3177   -8.6098    0.0000 C   0  0  0  0  0  0  0  0  0  0  0  0
    1.4745   -7.1180    0.0000 C   0  0  0  0  0  0  0  0  0  0  0  0
    1.3299   -5.6152    0.0000 C   0  0  0  0  0  0  0  0  0  0  0  0
    0.1042   -6.5079    0.0000 N   0  0  0  0  0  0  0  0  0  0  0  0
    0.7062   -2.6807    0.0000 C   0  0  0  0  0  0  0  0  0  0  0  0
    0.3943   -1.2135    0.0000 C   0  0  0  0  0  0  0  0  0  0  0  0
    4.8250   -0.5490    0.0000 H   0  0  0  0  0  0  0  0  0  0  0  0
    2.2269   -2.0490    0.0000 H   0  0  0  0  0  0  0  0  0  0  0  0
    4.2760   -2.5981    0.0000 H   0  0  0  0  0  0  0  0  0  0  0  0
    0.3177    5.1814    0.0000 H   0  0  0  0  0  0  0  0  0  0  0  0
   -1.6131    3.4430    0.0000 H   0  0  0  0  0  0  0  0  0  0  0  0
   -2.2458    1.6317    0.0000 H   0  0  0  0  0  0  0  0  0  0  0  0
   -3.5736   -1.2902    0.0000 H   0  0  0  0  0  0  0  0  0  0  0  0
   -2.9499   -4.2246    0.0000 H   0  0  0  0  0  0  0  0  0  0  0  0
   -2.6603   -6.5435    0.0000 H   0  0  0  0  0  0  0  0  0  0  0  0
   -2.0063   -4.8833    0.0000 H   0  0  0  0  0  0  0  0  0  0  0  0
   -2.3993   -7.6488    0.0000 H   0  0  0  0  0  0  0  0  0  0  0  0
   -1.5199   -9.5317    0.0000 H   0  0  0  0  0  0  0  0  0  0  0  0
    0.3140  -10.3482    0.0000 H   0  0  0  0  0  0  0  0  0  0  0  0
    1.4745  -10.1015    0.0000 H   0  0  0  0  0  0  0  0  0  0  0  0
    2.8177   -8.6098    0.0000 H   0  0  0  0  0  0  0  0  0  0  0  0
    2.8553   -6.5319    0.0000 H   0  0  0  0  0  0  0  0  0  0  0  0
    1.5387   -4.1298    0.0000 H   0  0  0  0  0  0  0  0  0  0  0  0
    2.8114   -5.3805    0.0000 H   0  0  0  0  0  0  0  0  0  0  0  0
    0.1320   -5.7112    0.0000 H   0  0  0  0  0  0  0  0  0  0  0  0
    2.1328   -3.1443    0.0000 H   0  0  0  0  0  0  0  0  0  0  0  0
  1  2  1  0
  2  3  2  0
  2  4  1  0
  4  5  1  0
  5  6  1  0
  6  7  1  0
  6  8  2  0
  5  9  2  0
  9 10  1  0
 10 11  2  0
 11 12  1  0
 12 13  2  0
 13 14  1  0
 14 15  1  0
 15 16  1  0
 16 17  1  0
 17 18  1  0
 18 19  1  0
 19 20  1  0
 19 21  1  0
 13 22  1  0
 22 23  2  0
 23  4  1  0
 23 10  1  0
 20 14  1  0
 21 16  1  0
  1 24  1  0
  1 25  1  0
  1 26  1  0
  7 27  1  0
  7 28  1  0
  9 29  1  0
 11 30  1  0
 12 31  1  0
 15 32  1  0
 15 33  1  0
 16 34  1  6
 17 35  1  0
 17 36  1  0
 18 37  1  0
 18 38  1  0
 19 39  1  1
 20 40  1  0
 20 41  1  0
 21 42  1  0
 22 43  1  0
M  END
>  <smiles>  (40) 
CC(=O)n1c(C(N)=O)cc2ccc(N3C[C@@H]4CC[C@@H](C3)N4)cc21

>  <m_score__min__energy>  (40) 
nan

>  <m_primary>  (40) 
energy

$$$$
40:0
     RDKit          3D

 46 47  0  0  0  0  0  0  0  0999 V2000
   -5.9980   17.1780  -34.4540 C   0  0  0  0  0  0  0  0  0  0  0  0
   -6.3980   18.1080  -33.8020 C   0  0  0  0  0  0  0  0  0  0  0  0
   -6.8720   19.2250  -33.0280 C   0  0  0  0  0  0  0  0  0  0  0  0
   -8.2430   19.3210  -32.6960 C   0  0  0  0  0  0  0  0  0  0  0  0
   -8.7210   20.4140  -31.9510 C   0  0  0  0  0  0  0  0  0  0  0  0
   -7.8030   21.3860  -31.5580 C   0  0  0  0  0  0  0  0  0  0  0  0
   -7.9910   22.5540  -30.8520 C   0  0  0  0  0  0  0  0  0  0  0  0
   -6.7270   23.1400  -30.7600 C   0  0  0  0  0  0  0  0  0  0  0  0
   -6.4310   24.3990  -30.0300 C   0  0  0  0  0  0  0  0  0  0  0  0
   -5.2030   24.5650  -29.3140 N   0  0  0  0  0  0  0  0  0  0  0  0
   -7.2580   25.3510  -30.0490 O   0  0  0  0  0  0  0  0  0  0  0  0
   -5.8000   22.3560  -31.3770 N   0  0  0  0  0  0  0  0  0  0  0  0
   -4.3930   22.6030  -31.5240 C   0  0  0  0  0  0  0  0  0  0  0  0
   -3.9520   23.7740  -31.3590 O   0  0  0  0  0  0  0  0  0  0  0  0
   -3.4940   21.5270  -31.8570 N   0  0  0  0  0  0  0  0  0  0  0  0
   -3.0870   21.3320  -33.2520 C   0  0  0  0  0  0  0  0  0  0  0  0
   -2.9040   20.7080  -30.8270 C   0  0  0  0  0  0  0  0  0  0  0  0
   -1.8430   20.0660  -31.0620 O   0  0  0  0  0  0  0  0  0  0  0  0
   -3.4890   20.6390  -29.5570 O   0  0  0  0  0  0  0  0  0  0  0  0
   -2.9270   21.2840  -28.4220 C   0  0  0  0  0  0  0  0  0  0  0  0
   -3.8000   22.3230  -27.9930 O   0  0  0  0  0  0  0  0  0  0  0  0
   -3.3280   23.5020  -27.4070 C   0  0  0  0  0  0  0  0  0  0  0  0
   -4.1240   24.4310  -27.1010 O   0  0  0  0  0  0  0  0  0  0  0  0
   -1.8680   23.6410  -27.0970 C   0  0  0  0  0  0  0  0  0  0  0  0
   -1.0710   24.0860  -28.3280 C   0  0  0  0  0  0  0  0  0  0  0  0
   -1.6620   25.3080  -28.9620 C   0  0  0  0  0  0  0  0  0  0  0  0
   -1.0220   26.3920  -28.9680 O   0  0  0  0  0  0  0  0  0  0  0  0
   -2.9080   25.2400  -29.5720 O   0  0  0  0  0  0  0  0  0  0  0  0
   -6.4710   21.2940  -31.8630 C   0  0  0  0  0  0  0  0  0  0  0  0
   -5.9700   20.2240  -32.6130 C   0  0  0  0  0  0  0  0  0  0  0  0
   -5.6326   16.3284  -35.0496 H   0  0  0  0  0  0  0  0  0  0  0  0
   -8.9405   18.5356  -33.0226 H   0  0  0  0  0  0  0  0  0  0  0  0
   -9.7855   20.4989  -31.6870 H   0  0  0  0  0  0  0  0  0  0  0  0
   -8.9368   22.9427  -30.4466 H   0  0  0  0  0  0  0  0  0  0  0  0
   -4.4930   23.8030  -29.2460 H   0  0  0  0  0  0  0  0  0  0  0  0
   -5.0070   25.4680  -28.8250 H   0  0  0  0  0  0  0  0  0  0  0  0
   -2.0953   20.8569  -33.2816 H   0  0  0  0  0  0  0  0  0  0  0  0
   -3.8182   20.6864  -33.7605 H   0  0  0  0  0  0  0  0  0  0  0  0
   -3.0421   22.3064  -33.7605 H   0  0  0  0  0  0  0  0  0  0  0  0
   -2.7982   20.5532  -27.6100 H   0  0  0  0  0  0  0  0  0  0  0  0
   -1.9480   21.7101  -28.6866 H   0  0  0  0  0  0  0  0  0  0  0  0
   -1.7416   24.3888  -26.3002 H   0  0  0  0  0  0  0  0  0  0  0  0
   -1.4886   22.6592  -26.7773 H   0  0  0  0  0  0  0  0  0  0  0  0
   -0.0379   24.3079  -28.0221 H   0  0  0  0  0  0  0  0  0  0  0  0
   -1.0986   23.2708  -29.0660 H   0  0  0  0  0  0  0  0  0  0  0  0
   -4.9023   20.1648  -32.8710 H   0  0  0  0  0  0  0  0  0  0  0  0
  1  2  3  0
  2  3  1  0
  3  4  2  0
  4  5  1  0
  5  6  2  0
  6  7  1  0
  7  8  2  0
  8  9  1  0
  9 10  1  0
  9 11  2  0
  8 12  1  0
 12 13  1  0
 13 14  2  0
 13 15  1  0
 15 16  1  0
 15 17  1  0
 17 18  2  0
 17 19  1  0
 19 20  1  0
 20 21  1  0
 21 22  1  0
 22 23  2  0
 22 24  1  0
 24 25  1  0
 25 26  1  0
 26 27  2  0
 26 28  1  0
 12 29  1  0
 29 30  2  0
 30  3  1  0
 29  6  1  0
  1 31  1  0
  4 32  1  0
  5 33  1  0
  7 34  1  0
 10 35  1  0
 10 36  1  0
 16 37  1  0
 16 38  1  0
 16 39  1  0
 20 40  1  0
 20 41  1  0
 24 42  1  0
 24 43  1  0
 25 44  1  0
 25 45  1  0
 30 46  1  0
M  CHG  1  28  -1
M  END
>  <UniqueID>  (41) 
40

>  <SMILES>  (41) 
C#Cc1ccc2cc(C(N)=O)n(C(=O)N(C)C(=O)OCOC(=O)CCC(=O)[O-])c2c1

>  <Energy>  (41) 
76.92787927934546

>  <Genealogy>  (41) 
C#Cc1ccc2cc(C(N)=O)n(C(=O)N(C)C(=O)OCOC(=O)CCC(=O)[O-])c2c1 (protonated)
C#Cc1ccc2cc(C(N)=O)n(C(=O)N(C)C(=O)OCOC(=O)CCC(=O)[O-])c2c1 (3D coordinates assigned)
C#Cc1ccc2cc(C(N)=O)n(C(=O)N(C)C(=O)OCOC(=O)CCC(=O)[O-])c2c1 (optimized conformer: 76.92787927934546 kcal/mol)

>  <smiles>  (41) 
C#Cc1ccc2cc(C(N)=O)n(C(=O)N(C)C(=O)OCOC(=O)CCC(=O)O)c2c1

>  <score_type>  (41) 
oracle

>  <origin>  (41) 
adg

>  <m_score__min__energy>  (41) 
-11.779999999999999

>  <m_primary>  (41) 
energy

$$$$
41:0
     RDKit          3D

 41 42  0  0  0  0  0  0  0  0999 V2000
   -1.5760   20.6410  -31.1860 C   0  0  0  0  0  0  0  0  0  0  0  0
   -2.7320   20.5320  -31.9850 O   0  0  0  0  0  0  0  0  0  0  0  0
   -3.0200   21.7860  -32.5670 C   0  0  0  0  0  0  0  0  0  0  0  0
   -3.7410   22.6560  -31.5780 C   0  0  0  0  0  0  0  0  0  0  0  0
   -3.0650   23.3850  -30.8040 O   0  0  0  0  0  0  0  0  0  0  0  0
   -5.1780   22.6750  -31.4950 N   0  0  0  0  0  0  0  0  0  0  0  0
   -5.9480   23.6090  -30.8700 C   0  0  0  0  0  0  0  0  0  0  0  0
   -5.4610   24.8670  -30.2660 C   0  0  0  0  0  0  0  0  0  0  0  0
   -5.9190   25.2990  -28.9830 N   0  0  0  0  0  0  0  0  0  0  0  0
   -4.5920   25.5470  -30.8710 O   0  0  0  0  0  0  0  0  0  0  0  0
   -7.2890   23.2370  -30.8920 C   0  0  0  0  0  0  0  0  0  0  0  0
   -7.3210   22.0370  -31.5640 C   0  0  0  0  0  0  0  0  0  0  0  0
   -8.3980   21.2100  -31.8650 C   0  0  0  0  0  0  0  0  0  0  0  0
   -8.1370   20.0100  -32.5450 C   0  0  0  0  0  0  0  0  0  0  0  0
   -6.8110   19.6430  -32.8980 C   0  0  0  0  0  0  0  0  0  0  0  0
   -6.5580   18.4060  -33.6060 N   0  0  0  0  0  0  0  0  0  0  0  0
   -7.1500   17.1570  -33.1170 C   0  0  0  0  0  0  0  0  0  0  0  0
   -5.7360   18.3870  -34.8300 C   0  0  0  0  0  0  0  0  0  0  0  0
   -4.3060   17.9240  -34.5310 C   0  0  0  0  0  0  0  0  0  0  0  0
   -3.4880   19.0170  -34.2130 O   0  0  0  0  0  0  0  0  0  0  0  0
   -5.7430   20.5070  -32.5540 C   0  0  0  0  0  0  0  0  0  0  0  0
   -6.0340   21.7140  -31.9100 C   0  0  0  0  0  0  0  0  0  0  0  0
   -1.8606   20.6142  -30.1238 H   0  0  0  0  0  0  0  0  0  0  0  0
   -0.8983   19.8028  -31.4053 H   0  0  0  0  0  0  0  0  0  0  0  0
   -1.0669   21.5911  -31.4053 H   0  0  0  0  0  0  0  0  0  0  0  0
   -2.0803   22.2741  -32.8649 H   0  0  0  0  0  0  0  0  0  0  0  0
   -3.6583   21.6368  -33.4504 H   0  0  0  0  0  0  0  0  0  0  0  0
   -5.6030   26.2180  -28.5990 H   0  0  0  0  0  0  0  0  0  0  0  0
   -6.4870   24.6740  -28.3710 H   0  0  0  0  0  0  0  0  0  0  0  0
   -8.1410   23.7852  -30.4637 H   0  0  0  0  0  0  0  0  0  0  0  0
   -9.4232   21.4878  -31.5789 H   0  0  0  0  0  0  0  0  0  0  0  0
   -8.9718   19.3439  -32.8084 H   0  0  0  0  0  0  0  0  0  0  0  0
   -7.1499   17.1572  -32.0170 H   0  0  0  0  0  0  0  0  0  0  0  0
   -8.1837   17.0730  -33.4836 H   0  0  0  0  0  0  0  0  0  0  0  0
   -6.5605   16.3037  -33.4836 H   0  0  0  0  0  0  0  0  0  0  0  0
   -6.1913   17.6985  -35.5571 H   0  0  0  0  0  0  0  0  0  0  0  0
   -5.6933   19.4083  -35.2364 H   0  0  0  0  0  0  0  0  0  0  0  0
   -4.3227   17.2260  -33.6810 H   0  0  0  0  0  0  0  0  0  0  0  0
   -3.9008   17.4270  -35.4248 H   0  0  0  0  0  0  0  0  0  0  0  0
   -3.5960   19.1780  -33.2400 H   0  0  0  0  0  0  0  0  0  0  0  0
   -4.7037   20.2339  -32.7890 H   0  0  0  0  0  0  0  0  0  0  0  0
  1  2  1  0
  2  3  1  0
  3  4  1  0
  4  5  2  0
  4  6  1  0
  6  7  1  0
  7  8  1  0
  8  9  1  0
  8 10  2  0
  7 11  2  0
 11 12  1  0
 12 13  2  0
 13 14  1  0
 14 15  2  0
 15 16  1  0
 16 17  1  0
 16 18  1  0
 18 19  1  0
 19 20  1  0
 15 21  1  0
 21 22  2  0
 22  6  1  0
 22 12  1  0
  1 23  1  0
  1 24  1  0
  1 25  1  0
  3 26  1  0
  3 27  1  0
  9 28  1  0
  9 29  1  0
 11 30  1  0
 13 31  1  0
 14 32  1  0
 17 33  1  0
 17 34  1  0
 17 35  1  0
 18 36  1  0
 18 37  1  0
 19 38  1  0
 19 39  1  0
 20 40  1  0
 21 41  1  0
M  END
>  <UniqueID>  (42) 
41

>  <SMILES>  (42) 
COCC(=O)n1c(C(N)=O)cc2ccc(N(C)CCO)cc21

>  <Energy>  (42) 
80.15892200766335

>  <Genealogy>  (42) 
COCC(=O)n1c(C(N)=O)cc2ccc(N(C)CCO)cc21 (3D coordinates assigned)
COCC(=O)n1c(C(N)=O)cc2ccc(N(C)CCO)cc21 (optimized conformer: 80.15892200766335 kcal/mol)

>  <smiles>  (42) 
COCC(=O)n1c(C(N)=O)cc2ccc(N(C)CCO)cc21

>  <score_type>  (42) 
oracle

>  <origin>  (42) 
adg

>  <m_score__min__energy>  (42) 
-8.3599999999999994

>  <m_primary>  (42) 
energy

$$$$
42:0
     RDKit          3D

 35 36  0  0  0  0  0  0  0  0999 V2000
   -6.1640   17.4210  -31.5210 C   0  0  0  0  0  0  0  0  0  0  0  0
   -6.9410   18.3410  -32.3450 N   0  0  0  0  0  0  0  0  0  0  0  0
   -7.0610   19.7490  -32.0690 C   0  0  0  0  0  0  0  0  0  0  0  0
   -8.3260   20.3730  -32.2050 C   0  0  0  0  0  0  0  0  0  0  0  0
   -8.4830   21.7450  -31.9580 C   0  0  0  0  0  0  0  0  0  0  0  0
   -7.3620   22.4700  -31.5680 C   0  0  0  0  0  0  0  0  0  0  0  0
   -7.2290   23.8120  -31.2960 C   0  0  0  0  0  0  0  0  0  0  0  0
   -5.8860   23.9910  -30.9690 C   0  0  0  0  0  0  0  0  0  0  0  0
   -5.3290   25.2880  -30.5310 C   0  0  0  0  0  0  0  0  0  0  0  0
   -3.9870   25.6530  -30.8410 N   0  0  0  0  0  0  0  0  0  0  0  0
   -6.0310   26.0650  -29.8310 O   0  0  0  0  0  0  0  0  0  0  0  0
   -5.2120   22.8070  -31.0450 N   0  0  0  0  0  0  0  0  0  0  0  0
   -3.8060   22.5780  -30.8650 C   0  0  0  0  0  0  0  0  0  0  0  0
   -2.9820   23.0250  -31.7090 O   0  0  0  0  0  0  0  0  0  0  0  0
   -3.3600   21.8230  -29.7730 O   0  0  0  0  0  0  0  0  0  0  0  0
   -2.2430   22.1820  -28.9600 C   0  0  0  0  0  0  0  0  0  0  0  0
   -2.4050   23.5970  -28.4010 C   0  0  0  0  0  0  0  0  0  0  0  0
   -1.3360   24.5170  -28.9000 C   0  0  0  0  0  0  0  0  0  0  0  0
   -1.6350   25.6620  -29.3270 O   0  0  0  0  0  0  0  0  0  0  0  0
   -0.0090   24.1030  -28.9070 O   0  0  0  0  0  0  0  0  0  0  0  0
   -6.1320   21.8860  -31.4110 C   0  0  0  0  0  0  0  0  0  0  0  0
   -5.9430   20.5230  -31.6720 C   0  0  0  0  0  0  0  0  0  0  0  0
   -6.3466   17.6373  -30.4580 H   0  0  0  0  0  0  0  0  0  0  0  0
   -6.4660   16.3866  -31.7419 H   0  0  0  0  0  0  0  0  0  0  0  0
   -5.0936   17.5456  -31.7419 H   0  0  0  0  0  0  0  0  0  0  0  0
   -7.4390   17.9450  -33.1760 H   0  0  0  0  0  0  0  0  0  0  0  0
   -9.1968   19.7733  -32.5084 H   0  0  0  0  0  0  0  0  0  0  0  0
   -9.4628   22.2325  -32.0694 H   0  0  0  0  0  0  0  0  0  0  0  0
   -8.0154   24.5804  -31.3295 H   0  0  0  0  0  0  0  0  0  0  0  0
   -3.2000   24.9840  -30.6960 H   0  0  0  0  0  0  0  0  0  0  0  0
   -2.1634   21.4717  -28.1239 H   0  0  0  0  0  0  0  0  0  0  0  0
   -1.3343   22.1513  -29.5791 H   0  0  0  0  0  0  0  0  0  0  0  0
   -3.3853   23.9908  -28.7074 H   0  0  0  0  0  0  0  0  0  0  0  0
   -2.3257   23.5430  -27.3052 H   0  0  0  0  0  0  0  0  0  0  0  0
   -4.9486   20.0638  -31.5710 H   0  0  0  0  0  0  0  0  0  0  0  0
  1  2  1  0
  2  3  1  0
  3  4  2  0
  4  5  1  0
  5  6  2  0
  6  7  1  0
  7  8  2  0
  8  9  1  0
  9 10  1  0
  9 11  2  0
  8 12  1  0
 12 13  1  0
 13 14  2  0
 13 15  1  0
 15 16  1  0
 16 17  1  0
 17 18  1  0
 18 19  2  0
 18 20  1  0
 12 21  1  0
 21 22  2  0
 22  3  1  0
 21  6  1  0
  1 23  1  0
  1 24  1  0
  1 25  1  0
  2 26  1  0
  4 27  1  0
  5 28  1  0
  7 29  1  0
 10 30  1  0
 16 31  1  0
 16 32  1  0
 17 33  1  0
 17 34  1  0
 22 35  1  0
M  CHG  2  10  -1  20  -1
M  END
>  <UniqueID>  (43) 
42

>  <SMILES>  (43) 
CNc1ccc2cc(C([NH-])=O)n(C(=O)OCCC(=O)[O-])c2c1

>  <Energy>  (43) 
69.49692301828036

>  <Genealogy>  (43) 
CNc1ccc2cc(C([NH-])=O)n(C(=O)OCCC(=O)[O-])c2c1 (protonated)
CNc1ccc2cc(C([NH-])=O)n(C(=O)OCCC(=O)[O-])c2c1 (3D coordinates assigned)
CNc1ccc2cc(C([NH-])=O)n(C(=O)OCCC(=O)[O-])c2c1 (optimized conformer: 69.49692301828036 kcal/mol)

>  <smiles>  (43) 
CNc1ccc2cc(C(N)=O)n(C(=O)OCCC(=O)O)c2c1

>  <score_type>  (43) 
oracle

>  <origin>  (43) 
adg

>  <m_score__min__energy>  (43) 
-12.35

>  <m_primary>  (43) 
energy

$$$$
43:0
     RDKit          3D

 69 71  0  0  0  0  0  0  0  0999 V2000
   -1.5960   13.7970  -34.4440 C   0  0  0  0  0  0  0  0  0  0  0  0
   -2.6710   14.8660  -34.2000 C   0  0  0  0  0  0  0  0  0  0  0  0
   -2.0940   15.9490  -33.2700 C   0  0  0  0  0  0  0  0  0  0  0  0
   -3.0820   15.4750  -35.5550 C   0  0  0  0  0  0  0  0  0  0  0  0
   -3.7880   14.2100  -33.5810 O   0  0  0  0  0  0  0  0  0  0  0  0
   -4.6960   14.7870  -32.6790 C   0  0  0  0  0  0  0  0  0  0  0  0
   -4.9500   14.2390  -31.5720 O   0  0  0  0  0  0  0  0  0  0  0  0
   -5.3380   16.0210  -33.0230 N   0  0  0  0  0  0  0  0  0  0  0  0
   -6.0420   16.2880  -34.1410 C   0  0  0  0  0  0  0  0  0  0  0  0
   -6.5240   17.5450  -34.1370 N   0  0  0  0  0  0  0  0  0  0  0  0
   -6.1060   18.0920  -32.9750 C   0  0  0  0  0  0  0  0  0  0  0  0
   -6.4000   19.4780  -32.5360 C   0  0  0  0  0  0  0  0  0  0  0  0
   -7.7150   20.0010  -32.6540 C   0  0  0  0  0  0  0  0  0  0  0  0
   -8.0100   21.3080  -32.2340 C   0  0  0  0  0  0  0  0  0  0  0  0
   -6.9770   22.0720  -31.7040 C   0  0  0  0  0  0  0  0  0  0  0  0
   -6.9870   23.3620  -31.2260 C   0  0  0  0  0  0  0  0  0  0  0  0
   -5.6810   23.6110  -30.8220 C   0  0  0  0  0  0  0  0  0  0  0  0
   -5.2230   24.9210  -30.3460 C   0  0  0  0  0  0  0  0  0  0  0  0
   -3.8570   25.2990  -30.4920 N   0  0  0  0  0  0  0  0  0  0  0  0
   -6.0300   25.6890  -29.7600 O   0  0  0  0  0  0  0  0  0  0  0  0
   -4.8860   22.5280  -31.0490 N   0  0  0  0  0  0  0  0  0  0  0  0
   -3.4590   22.4280  -30.8790 C   0  0  0  0  0  0  0  0  0  0  0  0
   -2.6980   22.6190  -31.8650 O   0  0  0  0  0  0  0  0  0  0  0  0
   -2.8580   22.1460  -29.5360 C   0  0  0  0  0  0  0  0  0  0  0  0
   -1.5720   22.7150  -29.4670 O   0  0  0  0  0  0  0  0  0  0  0  0
   -1.0960   22.9350  -27.8090 Si  0  0  0  0  0  4  0  0  0  0  0  0
   -1.6330   21.4850  -26.7450 C   0  0  0  0  0  0  0  0  0  0  0  0
    0.7690   23.0850  -27.7040 C   0  0  0  0  0  0  0  0  0  0  0  0
   -1.9160   24.5350  -27.1910 C   0  0  0  0  0  0  0  0  0  0  0  0
   -1.4250   24.8330  -25.7630 C   0  0  0  0  0  0  0  0  0  0  0  0
   -1.5170   25.6970  -28.1180 C   0  0  0  0  0  0  0  0  0  0  0  0
   -3.4470   24.3830  -27.1870 C   0  0  0  0  0  0  0  0  0  0  0  0
   -5.6990   21.5920  -31.5910 C   0  0  0  0  0  0  0  0  0  0  0  0
   -5.3770   20.2890  -31.9900 C   0  0  0  0  0  0  0  0  0  0  0  0
   -5.3680   17.1450  -32.2830 C   0  0  0  0  0  0  0  0  0  0  0  0
   -1.2225   13.4255  -33.4783 H   0  0  0  0  0  0  0  0  0  0  0  0
   -2.0310   12.9630  -35.0142 H   0  0  0  0  0  0  0  0  0  0  0  0
   -0.7644   14.2367  -35.0142 H   0  0  0  0  0  0  0  0  0  0  0  0
   -2.2511   15.6541  -32.2220 H   0  0  0  0  0  0  0  0  0  0  0  0
   -1.0167   16.0610  -33.4618 H   0  0  0  0  0  0  0  0  0  0  0  0
   -2.6020   16.9056  -33.4618 H   0  0  0  0  0  0  0  0  0  0  0  0
   -3.6898   16.3756  -35.3830 H   0  0  0  0  0  0  0  0  0  0  0  0
   -2.1803   15.7444  -36.1245 H   0  0  0  0  0  0  0  0  0  0  0  0
   -3.6692   14.7396  -36.1245 H   0  0  0  0  0  0  0  0  0  0  0  0
   -6.2029   15.5674  -34.9564 H   0  0  0  0  0  0  0  0  0  0  0  0
   -7.0840   17.9920  -34.8940 H   0  0  0  0  0  0  0  0  0  0  0  0
   -8.5125   19.3744  -33.0798 H   0  0  0  0  0  0  0  0  0  0  0  0
   -9.0281   21.7150  -32.3218 H   0  0  0  0  0  0  0  0  0  0  0  0
   -7.8447   24.0488  -31.1746 H   0  0  0  0  0  0  0  0  0  0  0  0
   -3.5690   25.9970  -31.2140 H   0  0  0  0  0  0  0  0  0  0  0  0
   -3.4940   22.5815  -28.7512 H   0  0  0  0  0  0  0  0  0  0  0  0
   -2.7854   21.0583  -29.3885 H   0  0  0  0  0  0  0  0  0  0  0  0
   -1.5337   21.7531  -25.6828 H   0  0  0  0  0  0  0  0  0  0  0  0
   -2.6822   21.2380  -26.9643 H   0  0  0  0  0  0  0  0  0  0  0  0
   -0.9978   20.6142  -26.9643 H   0  0  0  0  0  0  0  0  0  0  0  0
    1.0760   23.1097  -26.6480 H   0  0  0  0  0  0  0  0  0  0  0  0
    1.2349   22.2214  -28.2012 H   0  0  0  0  0  0  0  0  0  0  0  0
    1.0909   24.0119  -28.2012 H   0  0  0  0  0  0  0  0  0  0  0  0
   -2.1306   24.4048  -25.0358 H   0  0  0  0  0  0  0  0  0  0  0  0
   -0.4308   24.3858  -25.6163 H   0  0  0  0  0  0  0  0  0  0  0  0
   -1.3628   25.9214  -25.6163 H   0  0  0  0  0  0  0  0  0  0  0  0
   -1.2191   26.5646  -27.5110 H   0  0  0  0  0  0  0  0  0  0  0  0
   -0.6739   25.3868  -28.7528 H   0  0  0  0  0  0  0  0  0  0  0  0
   -2.3728   25.9701  -28.7528 H   0  0  0  0  0  0  0  0  0  0  0  0
   -3.8092   24.3470  -26.1490 H   0  0  0  0  0  0  0  0  0  0  0  0
   -3.9019   25.2404  -27.7046 H   0  0  0  0  0  0  0  0  0  0  0  0
   -3.7245   23.4529  -27.7046 H   0  0  0  0  0  0  0  0  0  0  0  0
   -4.3521   19.9046  -31.8815 H   0  0  0  0  0  0  0  0  0  0  0  0
   -4.8909   17.2868  -31.3021 H   0  0  0  0  0  0  0  0  0  0  0  0
  1  2  1  0
  2  3  1  0
  2  4  1  0
  2  5  1  0
  5  6  1  0
  6  7  2  0
  6  8  1  0
  8  9  1  0
  9 10  2  0
 10 11  1  0
 11 12  1  0
 12 13  2  0
 13 14  1  0
 14 15  2  0
 15 16  1  0
 16 17  2  0
 17 18  1  0
 18 19  1  0
 18 20  2  0
 17 21  1  0
 21 22  1  0
 22 23  2  0
 22 24  1  0
 24 25  1  0
 25 26  1  0
 26 27  1  0
 26 28  1  0
 26 29  1  0
 29 30  1  0
 29 31  1  0
 29 32  1  0
 21 33  1  0
 33 34  2  0
 11 35  2  0
 35  8  1  0
 34 12  1  0
 33 15  1  0
  1 36  1  0
  1 37  1  0
  1 38  1  0
  3 39  1  0
  3 40  1  0
  3 41  1  0
  4 42  1  0
  4 43  1  0
  4 44  1  0
  9 45  1  0
 10 46  1  0
 13 47  1  0
 14 48  1  0
 16 49  1  0
 19 50  1  0
 24 51  1  0
 24 52  1  0
 27 53  1  0
 27 54  1  0
 27 55  1  0
 28 56  1  0
 28 57  1  0
 28 58  1  0
 30 59  1  0
 30 60  1  0
 30 61  1  0
 31 62  1  0
 31 63  1  0
 31 64  1  0
 32 65  1  0
 32 66  1  0
 32 67  1  0
 34 68  1  0
 35 69  1  0
M  CHG  2  10   1  19  -1
M  END
>  <UniqueID>  (44) 
43

>  <SMILES>  (44) 
CC(C)(C)OC(=O)n1c[nH+]c(-c2ccc3cc(C([NH-])=O)n(C(=O)CO[Si](C)(C)C(C)(C)C)c3c2)c1

>  <Energy>  (44) 
125.00506880013474

>  <Genealogy>  (44) 
CC(C)(C)OC(=O)n1c[nH+]c(-c2ccc3cc(C([NH-])=O)n(C(=O)CO[Si](C)(C)C(C)(C)C)c3c2)c1 (protonated)
CC(C)(C)OC(=O)n1c[nH+]c(-c2ccc3cc(C([NH-])=O)n(C(=O)CO[Si](C)(C)C(C)(C)C)c3c2)c1 (3D coordinates assigned)
CC(C)(C)OC(=O)n1c[nH+]c(-c2ccc3cc(C([NH-])=O)n(C(=O)CO[Si](C)(C)C(C)(C)C)c3c2)c1 (optimized conformer: 125.00506880013474 kcal/mol)

>  <smiles>  (44) 
CC(C)(C)OC(=O)n1cnc(-c2ccc3cc(C(N)=O)n(C(=O)CO[Si](C)(C)C(C)(C)C)c3c2)c1

>  <score_type>  (44) 
oracle

>  <origin>  (44) 
adg

>  <m_score__min__energy>  (44) 
-11.49

>  <m_primary>  (44) 
energy

$$$$
44:0
     RDKit          3D

 40 42  0  0  0  0  0  0  0  0999 V2000
   -7.5620   18.6090  -32.6090 C   0  0  0  0  0  0  0  0  0  0  0  0
   -7.5430   20.0530  -32.2010 C   0  0  0  0  0  0  0  0  0  0  0  0
   -8.7590   20.7470  -31.9910 C   0  0  0  0  0  0  0  0  0  0  0  0
   -8.7530   22.0930  -31.5870 C   0  0  0  0  0  0  0  0  0  0  0  0
   -7.5210   22.7080  -31.3840 C   0  0  0  0  0  0  0  0  0  0  0  0
   -7.2280   24.0000  -31.0130 C   0  0  0  0  0  0  0  0  0  0  0  0
   -5.8360   24.0640  -30.9600 C   0  0  0  0  0  0  0  0  0  0  0  0
   -5.0950   25.2590  -30.5080 C   0  0  0  0  0  0  0  0  0  0  0  0
   -3.6700   25.2800  -30.5040 N   0  0  0  0  0  0  0  0  0  0  0  0
   -5.7280   26.2570  -30.0700 O   0  0  0  0  0  0  0  0  0  0  0  0
   -5.2900   22.8590  -31.2970 N   0  0  0  0  0  0  0  0  0  0  0  0
   -3.9000   22.5300  -31.4390 C   0  0  0  0  0  0  0  0  0  0  0  0
   -3.4060   22.3880  -32.5910 O   0  0  0  0  0  0  0  0  0  0  0  0
   -3.1160   22.3420  -30.2930 O   0  0  0  0  0  0  0  0  0  0  0  0
   -1.7560   22.6520  -30.1870 C   0  0  0  0  0  0  0  0  0  0  0  0
   -1.3750   23.7920  -29.8010 O   0  0  0  0  0  0  0  0  0  0  0  0
   -0.8180   21.6720  -30.5210 O   0  0  0  0  0  0  0  0  0  0  0  0
   -1.1500   20.5180  -31.2840 C   0  0  0  0  0  0  0  0  0  0  0  0
   -0.9120   20.7970  -32.7310 C   0  0  0  0  0  0  0  0  0  0  0  0
    0.0230   21.5920  -33.1960 O   0  0  0  0  0  0  0  0  0  0  0  0
   -0.0930   21.5550  -34.5050 C   0  0  0  0  0  0  0  0  0  0  0  0
    0.6460   22.2050  -35.2900 O   0  0  0  0  0  0  0  0  0  0  0  0
   -1.0650   20.7660  -34.9040 O   0  0  0  0  0  0  0  0  0  0  0  0
   -1.5970   20.2730  -33.8110 C   0  0  0  0  0  0  0  0  0  0  0  0
   -2.7430   19.3150  -33.7780 C   0  0  0  0  0  0  0  0  0  0  0  0
   -6.3350   22.0400  -31.5510 C   0  0  0  0  0  0  0  0  0  0  0  0
   -6.3110   20.7040  -31.9700 C   0  0  0  0  0  0  0  0  0  0  0  0
   -7.5704   17.9742  -31.7107 H   0  0  0  0  0  0  0  0  0  0  0  0
   -8.4629   18.4090  -33.2077 H   0  0  0  0  0  0  0  0  0  0  0  0
   -6.6667   18.3853  -33.2077 H   0  0  0  0  0  0  0  0  0  0  0  0
   -9.7166   20.2282  -32.1454 H   0  0  0  0  0  0  0  0  0  0  0  0
   -9.6932   22.6437  -31.4358 H   0  0  0  0  0  0  0  0  0  0  0  0
   -7.9409   24.8109  -30.8027 H   0  0  0  0  0  0  0  0  0  0  0  0
   -3.1190   24.4720  -30.8680 H   0  0  0  0  0  0  0  0  0  0  0  0
   -0.5219   19.6733  -30.9646 H   0  0  0  0  0  0  0  0  0  0  0  0
   -2.2090   20.2651  -31.1272 H   0  0  0  0  0  0  0  0  0  0  0  0
   -3.0067   19.0946  -32.7331 H   0  0  0  0  0  0  0  0  0  0  0  0
   -3.6091   19.7616  -34.2883 H   0  0  0  0  0  0  0  0  0  0  0  0
   -2.4570   18.3835  -34.2883 H   0  0  0  0  0  0  0  0  0  0  0  0
   -5.3574   20.1753  -32.1154 H   0  0  0  0  0  0  0  0  0  0  0  0
  1  2  1  0
  2  3  2  0
  3  4  1  0
  4  5  2  0
  5  6  1  0
  6  7  2  0
  7  8  1  0
  8  9  1  0
  8 10  2  0
  7 11  1  0
 11 12  1  0
 12 13  2  0
 12 14  1  0
 14 15  1  0
 15 16  2  0
 15 17  1  0
 17 18  1  0
 18 19  1  0
 19 20  1  0
 20 21  1  0
 21 22  2  0
 21 23  1  0
 23 24  1  0
 24 25  1  0
 11 26  1  0
 26 27  2  0
 27  2  1  0
 26  5  1  0
 24 19  2  0
  1 28  1  0
  1 29  1  0
  1 30  1  0
  3 31  1  0
  4 32  1  0
  6 33  1  0
  9 34  1  0
 18 35  1  0
 18 36  1  0
 25 37  1  0
 25 38  1  0
 25 39  1  0
 27 40  1  0
M  CHG  1   9  -1
M  END
>  <UniqueID>  (45) 
44

>  <SMILES>  (45) 
Cc1ccc2cc(C([NH-])=O)n(C(=O)OC(=O)OCc3oc(=O)oc3C)c2c1

>  <Energy>  (45) 
110.8305810509311

>  <Genealogy>  (45) 
Cc1ccc2cc(C([NH-])=O)n(C(=O)OC(=O)OCc3oc(=O)oc3C)c2c1 (protonated)
Cc1ccc2cc(C([NH-])=O)n(C(=O)OC(=O)OCc3oc(=O)oc3C)c2c1 (3D coordinates assigned)
Cc1ccc2cc(C([NH-])=O)n(C(=O)OC(=O)OCc3oc(=O)oc3C)c2c1 (optimized conformer: 110.8305810509311 kcal/mol)

>  <smiles>  (45) 
Cc1ccc2cc(C(N)=O)n(C(=O)OC(=O)OCc3oc(=O)oc3C)c2c1

>  <score_type>  (45) 
oracle

>  <origin>  (45) 
adg

>  <m_score__min__energy>  (45) 
-10.880000000000001

>  <m_primary>  (45) 
energy

$$$$
45:0
     RDKit          3D

 49 53  0  0  0  0  0  0  0  0999 V2000
   -8.0560   18.5790  -32.2910 C   0  0  0  0  0  0  0  0  0  0  0  0
   -7.8950   20.0180  -31.9020 C   0  0  0  0  0  0  0  0  0  0  0  0
   -9.0360   20.8440  -31.7520 C   0  0  0  0  0  0  0  0  0  0  0  0
   -8.8960   22.2060  -31.4370 C   0  0  0  0  0  0  0  0  0  0  0  0
   -7.6090   22.7110  -31.2800 C   0  0  0  0  0  0  0  0  0  0  0  0
   -7.1890   23.9930  -31.0110 C   0  0  0  0  0  0  0  0  0  0  0  0
   -5.7980   23.9300  -30.9890 C   0  0  0  0  0  0  0  0  0  0  0  0
   -4.9380   25.0830  -30.6530 C   0  0  0  0  0  0  0  0  0  0  0  0
   -3.5350   24.9210  -30.4650 N   0  0  0  0  0  0  0  0  0  0  0  0
   -5.4570   26.2190  -30.4800 O   0  0  0  0  0  0  0  0  0  0  0  0
   -5.3720   22.6590  -31.2450 N   0  0  0  0  0  0  0  0  0  0  0  0
   -4.0190   22.2080  -31.4150 C   0  0  0  0  0  0  0  0  0  0  0  0
   -3.3070   22.6950  -32.3360 O   0  0  0  0  0  0  0  0  0  0  0  0
   -3.5020   21.2390  -30.5440 O   0  0  0  0  0  0  0  0  0  0  0  0
   -2.3000   21.3500  -29.8290 C   0  0  0  0  0  0  0  0  0  0  0  0
   -1.4470   20.4200  -29.8570 O   0  0  0  0  0  0  0  0  0  0  0  0
   -2.0360   22.5720  -29.0380 C   0  0  0  0  0  0  0  0  0  0  0  0
   -2.8640   22.9140  -27.9590 C   0  0  0  0  0  0  0  0  0  0  0  0
   -2.6070   24.0660  -27.2140 C   0  0  0  0  0  0  0  0  0  0  0  0
   -1.5140   24.8810  -27.5500 C   0  0  0  0  0  0  0  0  0  0  0  0
   -1.2140   26.0790  -26.8070 N   0  0  0  0  0  0  0  0  0  0  0  0
   -1.8130   26.3690  -25.5140 C   0  0  0  0  0  0  0  0  0  0  0  0
   -1.2370   27.7060  -25.0670 C   0  0  1  0  0  0  0  0  0  0  0  0
    0.2620   27.7400  -24.8080 C   0  0  0  0  0  0  0  0  0  0  0  0
   -0.2910   28.1770  -26.1580 C   0  0  1  0  0  0  0  0  0  0  0  0
   -0.3020   27.1210  -27.2540 C   0  0  0  0  0  0  0  0  0  0  0  0
   -0.7240   24.5280  -28.6010 N   0  0  0  0  0  0  0  0  0  0  0  0
   -0.9530   23.4110  -29.3420 C   0  0  0  0  0  0  0  0  0  0  0  0
   -6.4930   21.9250  -31.4190 C   0  0  0  0  0  0  0  0  0  0  0  0
   -6.6030   20.5690  -31.7540 C   0  0  0  0  0  0  0  0  0  0  0  0
   -8.1253   17.9597  -31.3846 H   0  0  0  0  0  0  0  0  0  0  0  0
   -8.9730   18.4607  -32.8869 H   0  0  0  0  0  0  0  0  0  0  0  0
   -7.1878   18.2609  -32.8869 H   0  0  0  0  0  0  0  0  0  0  0  0
  -10.0405   20.4153  -31.8833 H   0  0  0  0  0  0  0  0  0  0  0  0
   -9.7772   22.8536  -31.3181 H   0  0  0  0  0  0  0  0  0  0  0  0
   -7.8186   24.8801  -30.8478 H   0  0  0  0  0  0  0  0  0  0  0  0
   -2.9370   24.5100  -31.2150 H   0  0  0  0  0  0  0  0  0  0  0  0
   -3.7187   22.2723  -27.6990 H   0  0  0  0  0  0  0  0  0  0  0  0
   -3.2572   24.3340  -26.3682 H   0  0  0  0  0  0  0  0  0  0  0  0
   -2.9069   26.4376  -25.6076 H   0  0  0  0  0  0  0  0  0  0  0  0
   -1.5941   25.5752  -24.7846 H   0  0  0  0  0  0  0  0  0  0  0  0
   -2.0894   28.0841  -24.4836 H   0  0  0  0  0  0  0  0  0  0  0  0
    0.6847   28.4859  -24.1188 H   0  0  0  0  0  0  0  0  0  0  0  0
    1.0113   27.0073  -24.4737 H   0  0  0  0  0  0  0  0  0  0  0  0
   -0.1060   29.0715  -26.7710 H   0  0  0  0  0  0  0  0  0  0  0  0
   -0.6560   27.5571  -28.1998 H   0  0  0  0  0  0  0  0  0  0  0  0
    0.7065   26.7201  -27.4335 H   0  0  0  0  0  0  0  0  0  0  0  0
   -0.2873   23.1644  -30.1822 H   0  0  0  0  0  0  0  0  0  0  0  0
   -5.7057   19.9492  -31.8981 H   0  0  0  0  0  0  0  0  0  0  0  0
  1  2  1  0
  2  3  2  0
  3  4  1  0
  4  5  2  0
  5  6  1  0
  6  7  2  0
  7  8  1  0
  8  9  1  0
  8 10  2  0
  7 11  1  0
 11 12  1  0
 12 13  2  0
 12 14  1  0
 14 15  1  0
 15 16  2  0
 15 17  1  0
 17 18  2  0
 18 19  1  0
 19 20  2  0
 20 21  1  0
 21 22  1  0
 22 23  1  0
 23 24  1  0
 24 25  1  0
 25 26  1  0
 20 27  1  0
 27 28  2  0
 11 29  1  0
 29 30  2  0
 30  2  1  0
 29  5  1  0
 28 17  1  0
 26 21  1  0
 25 23  1  0
  1 31  1  0
  1 32  1  0
  1 33  1  0
  3 34  1  0
  4 35  1  0
  6 36  1  0
  9 37  1  0
 18 38  1  0
 19 39  1  0
 22 40  1  0
 22 41  1  0
 23 42  1  1
 24 43  1  0
 24 44  1  0
 25 45  1  6
 26 46  1  0
 26 47  1  0
 28 48  1  0
 30 49  1  0
M  CHG  1   9  -1
M  END
>  <UniqueID>  (46) 
45

>  <SMILES>  (46) 
Cc1ccc2cc(C([NH-])=O)n(C(=O)OC(=O)c3ccc(N4C[C@H]5C[C@H]5C4)nc3)c2c1

>  <Energy>  (46) 
359.34959627820433

>  <Genealogy>  (46) 
Cc1ccc2cc(C([NH-])=O)n(C(=O)OC(=O)c3ccc(N4CC5CC5C4)nc3)c2c1 (protonated)
Cc1ccc2cc(C([NH-])=O)n(C(=O)OC(=O)c3ccc(N4C[C@H]5C[C@H]5C4)nc3)c2c1 (chirality)
Cc1ccc2cc(C([NH-])=O)n(C(=O)OC(=O)c3ccc(N4C[C@H]5C[C@H]5C4)nc3)c2c1 (3D coordinates assigned)
Cc1ccc2cc(C([NH-])=O)n(C(=O)OC(=O)c3ccc(N4C[C@H]5C[C@H]5C4)nc3)c2c1 (nonaromatic ring conformer: 359.34959627820433 kcal/mol)

>  <smiles>  (46) 
Cc1ccc2cc(C(N)=O)n(C(=O)OC(=O)c3ccc(N4CC5CC5C4)nc3)c2c1

>  <score_type>  (46) 
oracle

>  <origin>  (46) 
adg

>  <m_score__min__energy>  (46) 
-12.529999999999999

>  <m_primary>  (46) 
energy

$$$$
46:0
     RDKit          3D

 36 38  0  0  0  0  0  0  0  0999 V2000
   -8.5730   18.3040  -31.1730 C   0  0  0  0  0  0  0  0  0  0  0  0
   -8.4300   18.0690  -32.5690 O   0  0  0  0  0  0  0  0  0  0  0  0
   -7.2330   17.6340  -33.1500 C   0  0  0  0  0  0  0  0  0  0  0  0
   -7.1230   16.3550  -33.6110 N   0  0  0  0  0  0  0  0  0  0  0  0
   -5.9740   15.8800  -34.1570 C   0  0  0  0  0  0  0  0  0  0  0  0
   -4.8550   16.7070  -34.2570 C   0  0  0  0  0  0  0  0  0  0  0  0
   -3.3650   16.1030  -34.9590 Cl  0  0  0  0  0  0  0  0  0  0  0  0
   -4.9360   18.0230  -33.7980 C   0  0  0  0  0  0  0  0  0  0  0  0
   -6.1320   18.5080  -33.2440 C   0  0  0  0  0  0  0  0  0  0  0  0
   -6.2130   19.9100  -32.7710 C   0  0  0  0  0  0  0  0  0  0  0  0
   -7.4500   20.6060  -32.8160 C   0  0  0  0  0  0  0  0  0  0  0  0
   -7.5420   21.9360  -32.3740 C   0  0  0  0  0  0  0  0  0  0  0  0
   -6.3890   22.5420  -31.8840 C   0  0  0  0  0  0  0  0  0  0  0  0
   -6.1910   23.8200  -31.4110 C   0  0  0  0  0  0  0  0  0  0  0  0
   -4.8440   23.8790  -31.0570 C   0  0  0  0  0  0  0  0  0  0  0  0
   -4.2220   25.0530  -30.4140 C   0  0  0  0  0  0  0  0  0  0  0  0
   -2.9980   24.9320  -29.6930 N   0  0  0  0  0  0  0  0  0  0  0  0
   -4.7980   26.1730  -30.4650 O   0  0  0  0  0  0  0  0  0  0  0  0
   -4.2320   22.6870  -31.3120 N   0  0  0  0  0  0  0  0  0  0  0  0
   -2.8410   22.3610  -31.1710 C   0  0  0  0  0  0  0  0  0  0  0  0
   -2.1930   22.4900  -29.9060 N   0  0  0  0  0  0  0  0  0  0  0  0
   -2.1770   21.9920  -32.1760 O   0  0  0  0  0  0  0  0  0  0  0  0
   -5.1920   21.8800  -31.8130 C   0  0  0  0  0  0  0  0  0  0  0  0
   -5.0670   20.5600  -32.2580 C   0  0  0  0  0  0  0  0  0  0  0  0
   -8.0809   17.4953  -30.6127 H   0  0  0  0  0  0  0  0  0  0  0  0
   -8.1071   19.2661  -30.9135 H   0  0  0  0  0  0  0  0  0  0  0  0
   -9.6416   18.3323  -30.9135 H   0  0  0  0  0  0  0  0  0  0  0  0
   -5.9256   14.8429  -34.5205 H   0  0  0  0  0  0  0  0  0  0  0  0
   -4.0591   18.6831  -33.8706 H   0  0  0  0  0  0  0  0  0  0  0  0
   -8.3462   20.0978  -33.2014 H   0  0  0  0  0  0  0  0  0  0  0  0
   -8.4962   22.4819  -32.4139 H   0  0  0  0  0  0  0  0  0  0  0  0
   -6.9375   24.6239  -31.3297 H   0  0  0  0  0  0  0  0  0  0  0  0
   -2.1050   25.3010  -30.0870 H   0  0  0  0  0  0  0  0  0  0  0  0
   -2.7100   22.8650  -29.0800 H   0  0  0  0  0  0  0  0  0  0  0  0
   -1.1840   22.2410  -29.8020 H   0  0  0  0  0  0  0  0  0  0  0  0
   -4.0992   20.0394  -32.2100 H   0  0  0  0  0  0  0  0  0  0  0  0
  1  2  1  0
  2  3  1  0
  3  4  2  0
  4  5  1  0
  5  6  2  0
  6  7  1  0
  6  8  1  0
  8  9  2  0
  9 10  1  0
 10 11  2  0
 11 12  1  0
 12 13  2  0
 13 14  1  0
 14 15  2  0
 15 16  1  0
 16 17  1  0
 16 18  2  0
 15 19  1  0
 19 20  1  0
 20 21  1  0
 20 22  2  0
 19 23  1  0
 23 24  2  0
  9  3  1  0
 24 10  1  0
 23 13  1  0
  1 25  1  0
  1 26  1  0
  1 27  1  0
  5 28  1  0
  8 29  1  0
 11 30  1  0
 12 31  1  0
 14 32  1  0
 17 33  1  0
 21 34  1  0
 21 35  1  0
 24 36  1  0
M  CHG  1  17  -1
M  END
>  <UniqueID>  (47) 
46

>  <SMILES>  (47) 
COc1ncc(Cl)cc1-c1ccc2cc(C([NH-])=O)n(C(N)=O)c2c1

>  <Energy>  (47) 
81.90733137960619

>  <Genealogy>  (47) 
COc1ncc(Cl)cc1-c1ccc2cc(C([NH-])=O)n(C(N)=O)c2c1 (protonated)
COc1ncc(Cl)cc1-c1ccc2cc(C([NH-])=O)n(C(N)=O)c2c1 (3D coordinates assigned)
COc1ncc(Cl)cc1-c1ccc2cc(C([NH-])=O)n(C(N)=O)c2c1 (optimized conformer: 81.90733137960619 kcal/mol)

>  <smiles>  (47) 
COc1ncc(Cl)cc1-c1ccc2cc(C(N)=O)n(C(N)=O)c2c1

>  <score_type>  (47) 
oracle

>  <origin>  (47) 
adg

>  <m_score__min__energy>  (47) 
-10.550000000000001

>  <m_primary>  (47) 
energy

$$$$
47:0
     RDKit          3D

 35 36  0  0  0  0  0  0  0  0999 V2000
   -7.2020   15.2650  -34.2940 N   0  0  0  0  0  0  0  0  0  0  0  0
   -6.2990   15.8330  -33.8470 C   0  0  0  0  0  0  0  0  0  0  0  0
   -5.1530   16.5550  -33.2810 C   0  0  0  0  0  0  0  0  0  0  0  0
   -5.5600   17.8360  -32.8110 O   0  0  0  0  0  0  0  0  0  0  0  0
   -5.8210   18.9210  -33.6580 C   0  0  0  0  0  0  0  0  0  0  0  0
   -5.9340   18.7440  -34.9020 O   0  0  0  0  0  0  0  0  0  0  0  0
   -5.9170   20.3220  -33.1010 C   0  0  1  0  0  0  0  0  0  0  0  0
   -7.1280   20.5180  -32.1620 C   0  0  0  0  0  0  0  0  0  0  0  0
   -8.0310   19.3560  -32.1230 C   0  0  0  0  0  0  0  0  0  0  0  0
   -8.7410   18.4430  -32.0910 N   0  0  0  0  0  0  0  0  0  0  0  0
   -4.6170   20.7680  -32.4550 C   0  0  0  0  0  0  0  0  0  0  0  0
   -3.4540   19.9520  -32.4910 C   0  0  0  0  0  0  0  0  0  0  0  0
   -2.2650   20.3650  -31.8680 C   0  0  0  0  0  0  0  0  0  0  0  0
   -2.2670   21.5860  -31.2020 C   0  0  0  0  0  0  0  0  0  0  0  0
   -1.2520   22.2290  -30.5320 C   0  0  0  0  0  0  0  0  0  0  0  0
   -1.8130   23.4150  -30.0620 C   0  0  0  0  0  0  0  0  0  0  0  0
   -1.0850   24.3750  -29.2070 C   0  0  0  0  0  0  0  0  0  0  0  0
   -1.6310   25.6710  -28.9720 N   0  0  0  0  0  0  0  0  0  0  0  0
    0.0350   24.0790  -28.7130 O   0  0  0  0  0  0  0  0  0  0  0  0
   -3.1220   23.5040  -30.4320 N   0  0  0  0  0  0  0  0  0  0  0  0
   -4.0270   24.5980  -30.2060 C   0  0  0  0  0  0  0  0  0  0  0  0
   -3.8860   25.6800  -30.8340 O   0  0  0  0  0  0  0  0  0  0  0  0
   -5.0500   24.4820  -29.2720 O   0  0  0  0  0  0  0  0  0  0  0  0
   -3.3850   22.3750  -31.1270 C   0  0  0  0  0  0  0  0  0  0  0  0
   -4.5790   21.9970  -31.7530 C   0  0  0  0  0  0  0  0  0  0  0  0
   -4.7372   15.9762  -32.4431 H   0  0  0  0  0  0  0  0  0  0  0  0
   -4.3906   16.6861  -34.0630 H   0  0  0  0  0  0  0  0  0  0  0  0
   -6.0933   20.9805  -33.9643 H   0  0  0  0  0  0  0  0  0  0  0  0
   -6.7538   20.7033  -31.1443 H   0  0  0  0  0  0  0  0  0  0  0  0
   -7.7079   21.3672  -32.5525 H   0  0  0  0  0  0  0  0  0  0  0  0
   -3.4855   18.9845  -33.0135 H   0  0  0  0  0  0  0  0  0  0  0  0
   -1.3595   19.7416  -31.9056 H   0  0  0  0  0  0  0  0  0  0  0  0
   -0.2174   21.8810  -30.3961 H   0  0  0  0  0  0  0  0  0  0  0  0
   -2.6610   25.8350  -29.0150 H   0  0  0  0  0  0  0  0  0  0  0  0
   -5.4689   22.6414  -31.7005 H   0  0  0  0  0  0  0  0  0  0  0  0
  1  2  3  0
  2  3  1  0
  3  4  1  0
  4  5  1  0
  5  6  2  0
  5  7  1  0
  7  8  1  0
  8  9  1  0
  9 10  3  0
  7 11  1  0
 11 12  2  0
 12 13  1  0
 13 14  2  0
 14 15  1  0
 15 16  2  0
 16 17  1  0
 17 18  1  0
 17 19  2  0
 16 20  1  0
 20 21  1  0
 21 22  2  0
 21 23  1  0
 20 24  1  0
 24 25  2  0
 25 11  1  0
 24 14  1  0
  3 26  1  0
  3 27  1  0
  7 28  1  6
  8 29  1  0
  8 30  1  0
 12 31  1  0
 13 32  1  0
 15 33  1  0
 18 34  1  0
 25 35  1  0
M  CHG  2  18  -1  23  -1
M  END
>  <UniqueID>  (48) 
47

>  <SMILES>  (48) 
N#CCOC(=O)[C@@H](CC#N)c1ccc2cc(C([NH-])=O)n(C(=O)[O-])c2c1

>  <Energy>  (48) 
71.92070691094916

>  <Genealogy>  (48) 
N#CCOC(=O)C(CC#N)c1ccc2cc(C([NH-])=O)n(C(=O)[O-])c2c1 (protonated)
N#CCOC(=O)[C@@H](CC#N)c1ccc2cc(C([NH-])=O)n(C(=O)[O-])c2c1 (chirality)
N#CCOC(=O)[C@@H](CC#N)c1ccc2cc(C([NH-])=O)n(C(=O)[O-])c2c1 (3D coordinates assigned)
N#CCOC(=O)[C@@H](CC#N)c1ccc2cc(C([NH-])=O)n(C(=O)[O-])c2c1 (optimized conformer: 71.92070691094916 kcal/mol)

>  <smiles>  (48) 
N#CCOC(=O)C(CC#N)c1ccc2cc(C(N)=O)n(C(=O)O)c2c1

>  <score_type>  (48) 
oracle

>  <origin>  (48) 
adg

>  <m_score__min__energy>  (48) 
-11.52

>  <m_primary>  (48) 
energy

$$$$
48:0
     RDKit          3D

 34 35  0  0  0  0  0  0  0  0999 V2000
   -3.2510   24.5400  -30.8340 H   0  0  0  0  0  0  0  0  0  0  0  0
   -3.8550   25.3150  -30.4830 N   0  0  0  0  0  0  0  0  0  0  0  0
   -5.2660   25.1570  -30.3730 C   0  0  0  0  0  0  0  0  0  0  0  0
   -5.9600   26.1060  -29.9190 O   0  0  0  0  0  0  0  0  0  0  0  0
   -5.9260   23.9170  -30.8230 C   0  0  0  0  0  0  0  0  0  0  0  0
   -7.3010   23.7980  -31.0280 C   0  0  0  0  0  0  0  0  0  0  0  0
   -8.0705   24.5635  -30.8498 H   0  0  0  0  0  0  0  0  0  0  0  0
   -7.4900   22.5180  -31.5010 C   0  0  0  0  0  0  0  0  0  0  0  0
   -8.6590   21.8570  -31.8670 C   0  0  0  0  0  0  0  0  0  0  0  0
   -9.6361   22.3591  -31.8114 H   0  0  0  0  0  0  0  0  0  0  0  0
   -8.5510   20.5270  -32.3100 C   0  0  0  0  0  0  0  0  0  0  0  0
   -9.4564   19.9747  -32.6019 H   0  0  0  0  0  0  0  0  0  0  0  0
   -7.2860   19.8910  -32.3840 C   0  0  0  0  0  0  0  0  0  0  0  0
   -7.1860   18.4590  -32.8200 C   0  0  0  0  0  0  0  0  0  0  0  0
   -7.1406   17.8083  -31.9342 H   0  0  0  0  0  0  0  0  0  0  0  0
   -8.0680   18.1968  -33.4227 H   0  0  0  0  0  0  0  0  0  0  0  0
   -6.2761   18.3219  -33.4227 H   0  0  0  0  0  0  0  0  0  0  0  0
   -6.1250   20.5880  -31.9870 C   0  0  0  0  0  0  0  0  0  0  0  0
   -5.1381   20.1028  -32.0116 H   0  0  0  0  0  0  0  0  0  0  0  0
   -6.2640   21.9110  -31.5620 C   0  0  0  0  0  0  0  0  0  0  0  0
   -5.2990   22.7530  -31.1450 N   0  0  0  0  0  0  0  0  0  0  0  0
   -3.9050   22.4340  -31.0180 C   0  0  0  0  0  0  0  0  0  0  0  0
   -3.1390   22.6850  -31.9910 O   0  0  0  0  0  0  0  0  0  0  0  0
   -3.3680   21.9150  -29.7730 N   0  0  2  0  0  0  0  0  0  0  0  0
   -4.1640   21.5240  -29.2160 H   0  0  0  0  0  0  0  0  0  0  0  0
   -2.7320   22.9660  -29.0130 C   0  0  0  0  0  0  0  0  0  0  0  0
   -1.7770   23.6180  -29.5210 O   0  0  0  0  0  0  0  0  0  0  0  0
   -3.1810   23.2590  -27.6810 N   0  0  0  0  0  0  0  0  0  0  0  0
   -4.1350   24.5370  -27.3320 P   0  0  0  0  0  0  0  0  0  0  0  0
   -4.5680   25.4380  -28.3870 H   0  0  0  0  0  0  0  0  0  0  0  0
   -2.3980   20.8310  -30.0050 C   0  0  0  0  0  0  0  0  0  0  0  0
   -2.0476   20.4394  -29.0386 H   0  0  0  0  0  0  0  0  0  0  0  0
   -2.8803   20.0231  -30.5748 H   0  0  0  0  0  0  0  0  0  0  0  0
   -1.5417   21.2209  -30.5748 H   0  0  0  0  0  0  0  0  0  0  0  0
  1  2  1  0
  2  3  1  0
  3  4  2  0
  3  5  1  0
  5  6  2  0
  6  7  1  0
  6  8  1  0
  8  9  2  0
  9 10  1  0
  9 11  1  0
 11 12  1  0
 11 13  2  0
 13 14  1  0
 14 15  1  0
 14 16  1  0
 14 17  1  0
 13 18  1  0
 18 19  1  0
 18 20  2  0
 20 21  1  0
 21 22  1  0
 22 23  2  0
 22 24  1  0
 24 25  1  1
 24 26  1  0
 26 27  2  0
 26 28  1  0
 28 29  2  0
 29 30  1  0
 24 31  1  0
 31 32  1  0
 31 33  1  0
 31 34  1  0
 21  5  1  0
 20  8  1  0
M  CHG  2   2  -1  24   1
M  END
>  <UniqueID>  (49) 
48

>  <SMILES>  (49) 
[H]/P=N\C(=O)[NH+](C)C(=O)n1c(C([NH-])=O)cc2ccc(C)cc21

>  <Energy>  (49) 
77.88162787038009

>  <Genealogy>  (49) 
Cc1ccc2cc(C([NH-])=O)n(C(=O)[NH+](C)C(=O)N=P)c2c1 (protonated)
[H]/P=N\C(=O)[NH+](C)C(=O)n1c(C([NH-])=O)cc2ccc(C)cc21 (cis-trans isomerization)
[H]/P=N\C(=O)[NH+](C)C(=O)n1c(C([NH-])=O)cc2ccc(C)cc21 (3D coordinates assigned)
[H]/P=N\C(=O)[NH+](C)C(=O)n1c(C([NH-])=O)cc2ccc(C)cc21 (optimized conformer: 77.88162787038009 kcal/mol)

>  <smiles>  (49) 
Cc1ccc2cc(C(N)=O)n(C(=O)N(C)C(=O)N=P)c2c1

>  <score_type>  (49) 
oracle

>  <origin>  (49) 
adg

>  <m_score__min__energy>  (49) 
-9.1500000000000004

>  <m_primary>  (49) 
energy

$$$$
49:0
     RDKit          3D

 42 44  0  0  0  0  0  0  0  0999 V2000
   -9.3510   20.8400  -32.0070 C   0  0  0  0  0  0  0  0  0  0  0  0
   -8.9170   19.5840  -32.6480 N   0  0  0  0  0  0  0  0  0  0  0  0
   -8.9550   18.5080  -31.6370 C   0  0  0  0  0  0  0  0  0  0  0  0
   -7.5470   19.7240  -33.2120 C   0  0  2  0  0  0  0  0  0  0  0  0
   -6.8310   18.3750  -33.3650 C   0  0  0  0  0  0  0  0  0  0  0  0
   -5.3520   18.6730  -33.1740 C   0  0  0  0  0  0  0  0  0  0  0  0
   -5.2980   19.9250  -32.4370 N   0  0  0  0  0  0  0  0  0  0  0  0
   -4.0850   20.4890  -31.8850 C   0  0  0  0  0  0  0  0  0  0  0  0
   -2.8440   19.8130  -32.0310 C   0  0  0  0  0  0  0  0  0  0  0  0
   -1.6580   20.3570  -31.5100 C   0  0  0  0  0  0  0  0  0  0  0  0
   -1.7370   21.5720  -30.8380 C   0  0  0  0  0  0  0  0  0  0  0  0
   -0.7400   22.3320  -30.2730 C   0  0  0  0  0  0  0  0  0  0  0  0
   -1.3840   23.4520  -29.7560 C   0  0  0  0  0  0  0  0  0  0  0  0
   -0.6850   24.5150  -29.0050 C   0  0  0  0  0  0  0  0  0  0  0  0
   -1.2020   25.8460  -28.9540 N   0  0  0  0  0  0  0  0  0  0  0  0
    0.3540   24.2300  -28.3530 O   0  0  0  0  0  0  0  0  0  0  0  0
   -2.7230   23.3970  -30.0040 N   0  0  0  0  0  0  0  0  0  0  0  0
   -3.7050   24.4130  -29.7330 C   0  0  0  0  0  0  0  0  0  0  0  0
   -3.8380   25.3910  -30.5140 O   0  0  0  0  0  0  0  0  0  0  0  0
   -4.5170   24.3280  -28.6110 O   0  0  0  0  0  0  0  0  0  0  0  0
   -2.9240   22.2350  -30.6670 C   0  0  0  0  0  0  0  0  0  0  0  0
   -4.1160   21.7260  -31.1940 C   0  0  0  0  0  0  0  0  0  0  0  0
   -6.6160   20.5270  -32.2950 C   0  0  0  0  0  0  0  0  0  0  0  0
   -9.3117   20.7263  -30.9136 H   0  0  0  0  0  0  0  0  0  0  0  0
   -8.6835   21.6584  -32.3147 H   0  0  0  0  0  0  0  0  0  0  0  0
  -10.3813   21.0718  -32.3147 H   0  0  0  0  0  0  0  0  0  0  0  0
   -8.9394   18.9503  -30.6300 H   0  0  0  0  0  0  0  0  0  0  0  0
   -9.8745   17.9178  -31.7640 H   0  0  0  0  0  0  0  0  0  0  0  0
   -8.0794   17.8544  -31.7640 H   0  0  0  0  0  0  0  0  0  0  0  0
   -7.7156   20.2197  -34.1794 H   0  0  0  0  0  0  0  0  0  0  0  0
   -7.1815   17.6654  -32.6010 H   0  0  0  0  0  0  0  0  0  0  0  0
   -7.0307   17.9171  -34.3450 H   0  0  0  0  0  0  0  0  0  0  0  0
   -4.8691   17.8684  -32.6001 H   0  0  0  0  0  0  0  0  0  0  0  0
   -4.8232   18.7436  -34.1360 H   0  0  0  0  0  0  0  0  0  0  0  0
   -2.8112   18.8491  -32.5600 H   0  0  0  0  0  0  0  0  0  0  0  0
   -0.6959   19.8375  -31.6300 H   0  0  0  0  0  0  0  0  0  0  0  0
    0.3355   22.1037  -30.2374 H   0  0  0  0  0  0  0  0  0  0  0  0
   -0.6760   26.5920  -28.4470 H   0  0  0  0  0  0  0  0  0  0  0  0
   -2.1460   26.0720  -29.3380 H   0  0  0  0  0  0  0  0  0  0  0  0
   -5.0608   22.2764  -31.0741 H   0  0  0  0  0  0  0  0  0  0  0  0
   -6.9565   20.4602  -31.2512 H   0  0  0  0  0  0  0  0  0  0  0  0
   -6.6040   21.5931  -32.5659 H   0  0  0  0  0  0  0  0  0  0  0  0
  1  2  1  0
  2  3  1  0
  2  4  1  0
  4  5  1  0
  5  6  1  0
  6  7  1  0
  7  8  1  0
  8  9  2  0
  9 10  1  0
 10 11  2  0
 11 12  1  0
 12 13  2  0
 13 14  1  0
 14 15  1  0
 14 16  2  0
 13 17  1  0
 17 18  1  0
 18 19  2  0
 18 20  1  0
 17 21  1  0
 21 22  2  0
  7 23  1  0
 23  4  1  0
 22  8  1  0
 21 11  1  0
  1 24  1  0
  1 25  1  0
  1 26  1  0
  3 27  1  0
  3 28  1  0
  3 29  1  0
  4 30  1  6
  5 31  1  0
  5 32  1  0
  6 33  1  0
  6 34  1  0
  9 35  1  0
 10 36  1  0
 12 37  1  0
 15 38  1  0
 15 39  1  0
 22 40  1  0
 23 41  1  0
 23 42  1  0
M  CHG  1  20  -1
M  END
>  <UniqueID>  (50) 
49

>  <SMILES>  (50) 
CN(C)[C@@H]1CCN(c2ccc3cc(C(N)=O)n(C(=O)[O-])c3c2)C1

>  <Energy>  (50) 
88.1020199973042

>  <Genealogy>  (50) 
CN(C)C1CCN(c2ccc3cc(C(N)=O)n(C(=O)[O-])c3c2)C1 (protonated)
CN(C)[C@@H]1CCN(c2ccc3cc(C(N)=O)n(C(=O)[O-])c3c2)C1 (chirality)
CN(C)[C@@H]1CCN(c2ccc3cc(C(N)=O)n(C(=O)[O-])c3c2)C1 (3D coordinates assigned)
CN(C)[C@@H]1CCN(c2ccc3cc(C(N)=O)n(C(=O)[O-])c3c2)C1 (nonaromatic ring conformer: 88.1020199973042 kcal/mol)

>  <smiles>  (50) 
CN(C)C1CCN(c2ccc3cc(C(N)=O)n(C(=O)O)c3c2)C1

>  <score_type>  (50) 
oracle

>  <origin>  (50) 
adg

>  <m_score__min__energy>  (50) 
-9.4800000000000004

>  <m_primary>  (50) 
energy

$$$$
50:0
     RDKit          3D

 41 42  0  0  0  0  0  0  0  0999 V2000
   -6.8580   17.6580  -33.3850 C   0  0  0  0  0  0  0  0  0  0  0  0
   -7.2070   18.9600  -32.7280 C   0  0  0  0  0  0  0  0  0  0  0  0
   -8.5320   19.1980  -32.2880 C   0  0  0  0  0  0  0  0  0  0  0  0
   -8.8860   20.4310  -31.7180 C   0  0  0  0  0  0  0  0  0  0  0  0
   -7.8980   21.4050  -31.6030 C   0  0  0  0  0  0  0  0  0  0  0  0
   -7.9780   22.6940  -31.1300 C   0  0  0  0  0  0  0  0  0  0  0  0
   -6.6970   23.2190  -31.2740 C   0  0  0  0  0  0  0  0  0  0  0  0
   -6.3220   24.5790  -30.8360 C   0  0  0  0  0  0  0  0  0  0  0  0
   -5.0470   25.1380  -31.1590 N   0  0  0  0  0  0  0  0  0  0  0  0
   -7.1210   25.2400  -30.1210 O   0  0  0  0  0  0  0  0  0  0  0  0
   -5.8580   22.2990  -31.8270 N   0  0  0  0  0  0  0  0  0  0  0  0
   -4.4910   22.4870  -32.2260 C   0  0  0  0  0  0  0  0  0  0  0  0
   -4.1470   22.2630  -33.4190 O   0  0  0  0  0  0  0  0  0  0  0  0
   -3.5460   22.9230  -31.2900 O   0  0  0  0  0  0  0  0  0  0  0  0
   -2.3460   22.2070  -31.0040 C   0  0  0  0  0  0  0  0  0  0  0  0
   -2.2280   21.9340  -29.5260 C   0  0  0  0  0  0  0  0  0  0  0  0
   -1.7110   20.8440  -29.1560 O   0  0  0  0  0  0  0  0  0  0  0  0
   -2.6310   22.9060  -28.5340 N   0  0  0  0  0  0  0  0  0  0  0  0
   -3.9540   22.8270  -27.9020 C   0  0  0  0  0  0  0  0  0  0  0  0
   -1.7060   23.9820  -28.1540 C   0  0  0  0  0  0  0  0  0  0  0  0
   -1.9780   25.2050  -28.9710 C   0  0  0  0  0  0  0  0  0  0  0  0
   -1.1600   26.1620  -28.9670 O   0  0  0  0  0  0  0  0  0  0  0  0
   -3.1120   25.2720  -29.7710 O   0  0  0  0  0  0  0  0  0  0  0  0
   -6.6080   21.1900  -32.0190 C   0  0  0  0  0  0  0  0  0  0  0  0
   -6.2340   19.9770  -32.6120 C   0  0  0  0  0  0  0  0  0  0  0  0
   -6.6550   16.9008  -32.6134 H   0  0  0  0  0  0  0  0  0  0  0  0
   -7.6990   17.3265  -34.0118 H   0  0  0  0  0  0  0  0  0  0  0  0
   -5.9640   17.7916  -34.0118 H   0  0  0  0  0  0  0  0  0  0  0  0
   -9.2911   18.4090  -32.3939 H   0  0  0  0  0  0  0  0  0  0  0  0
   -9.9128   20.6218  -31.3727 H   0  0  0  0  0  0  0  0  0  0  0  0
   -8.8654   23.2019  -30.7243 H   0  0  0  0  0  0  0  0  0  0  0  0
   -4.8230   26.1220  -30.8880 H   0  0  0  0  0  0  0  0  0  0  0  0
   -4.2960   24.5550  -31.5900 H   0  0  0  0  0  0  0  0  0  0  0  0
   -2.3575   21.2510  -31.5480 H   0  0  0  0  0  0  0  0  0  0  0  0
   -1.4866   22.8161  -31.3209 H   0  0  0  0  0  0  0  0  0  0  0  0
   -3.8388   22.8339  -26.8081 H   0  0  0  0  0  0  0  0  0  0  0  0
   -4.5607   23.6905  -28.2122 H   0  0  0  0  0  0  0  0  0  0  0  0
   -4.4536   21.8974  -28.2122 H   0  0  0  0  0  0  0  0  0  0  0  0
   -1.8412   24.2187  -27.0883 H   0  0  0  0  0  0  0  0  0  0  0  0
   -0.6731   23.6500  -28.3352 H   0  0  0  0  0  0  0  0  0  0  0  0
   -5.2085   19.8207  -32.9780 H   0  0  0  0  0  0  0  0  0  0  0  0
  1  2  1  0
  2  3  2  0
  3  4  1  0
  4  5  2  0
  5  6  1  0
  6  7  2  0
  7  8  1  0
  8  9  1  0
  8 10  2  0
  7 11  1  0
 11 12  1  0
 12 13  2  0
 12 14  1  0
 14 15  1  0
 15 16  1  0
 16 17  2  0
 16 18  1  0
 18 19  1  0
 18 20  1  0
 20 21  1  0
 21 22  2  0
 21 23  1  0
 11 24  1  0
 24 25  2  0
 25  2  1  0
 24  5  1  0
  1 26  1  0
  1 27  1  0
  1 28  1  0
  3 29  1  0
  4 30  1  0
  6 31  1  0
  9 32  1  0
  9 33  1  0
 15 34  1  0
 15 35  1  0
 19 36  1  0
 19 37  1  0
 19 38  1  0
 20 39  1  0
 20 40  1  0
 25 41  1  0
M  CHG  1  23  -1
M  END
>  <UniqueID>  (51) 
50

>  <SMILES>  (51) 
Cc1ccc2cc(C(N)=O)n(C(=O)OCC(=O)N(C)CC(=O)[O-])c2c1

>  <Energy>  (51) 
75.14964257340236

>  <Genealogy>  (51) 
Cc1ccc2cc(C(N)=O)n(C(=O)OCC(=O)N(C)CC(=O)[O-])c2c1 (protonated)
Cc1ccc2cc(C(N)=O)n(C(=O)OCC(=O)N(C)CC(=O)[O-])c2c1 (3D coordinates assigned)
Cc1ccc2cc(C(N)=O)n(C(=O)OCC(=O)N(C)CC(=O)[O-])c2c1 (optimized conformer: 75.14964257340236 kcal/mol)

>  <smiles>  (51) 
Cc1ccc2cc(C(N)=O)n(C(=O)OCC(=O)N(C)CC(=O)O)c2c1

>  <score_type>  (51) 
oracle

>  <origin>  (51) 
adg

>  <m_score__min__energy>  (51) 
-11.039999999999999

>  <m_primary>  (51) 
energy

$$$$
52:0
     RDKit          3D

 35 36  0  0  0  0  0  0  0  0999 V2000
   -6.4610   17.8820  -33.5130 C   0  0  0  0  0  0  0  0  0  0  0  0
   -6.8690   18.9720  -32.5180 C   0  0  1  0  0  0  0  0  0  0  0  0
   -6.2070   20.2410  -32.8460 N   0  0  0  0  0  0  0  0  0  0  0  0
   -4.9500   20.6690  -32.2850 C   0  0  0  0  0  0  0  0  0  0  0  0
   -3.7720   19.8760  -32.3890 C   0  0  0  0  0  0  0  0  0  0  0  0
   -2.5570   20.3180  -31.8380 C   0  0  0  0  0  0  0  0  0  0  0  0
   -2.5430   21.5470  -31.1870 C   0  0  0  0  0  0  0  0  0  0  0  0
   -1.5060   22.2190  -30.5780 C   0  0  0  0  0  0  0  0  0  0  0  0
   -2.0650   23.4030  -30.1000 C   0  0  0  0  0  0  0  0  0  0  0  0
   -1.3190   24.4000  -29.3030 C   0  0  0  0  0  0  0  0  0  0  0  0
   -1.9360   25.6360  -28.9550 N   0  0  0  0  0  0  0  0  0  0  0  0
   -0.1310   24.1800  -28.9480 O   0  0  0  0  0  0  0  0  0  0  0  0
   -3.3900   23.4610  -30.4100 N   0  0  0  0  0  0  0  0  0  0  0  0
   -4.3140   24.5270  -30.1460 C   0  0  0  0  0  0  0  0  0  0  0  0
   -4.2730   25.5760  -30.8420 O   0  0  0  0  0  0  0  0  0  0  0  0
   -5.2660   24.4440  -28.9910 C   0  0  0  0  0  0  0  0  0  0  0  0
   -4.5900   24.7140  -27.7940 O   0  0  0  0  0  0  0  0  0  0  0  0
   -3.6670   22.3180  -31.0680 C   0  0  0  0  0  0  0  0  0  0  0  0
   -4.8890   21.9120  -31.6150 C   0  0  0  0  0  0  0  0  0  0  0  0
   -8.3600   19.1450  -32.5470 C   0  0  0  0  0  0  0  0  0  0  0  0
   -8.8670   20.1770  -33.0610 O   0  0  0  0  0  0  0  0  0  0  0  0
   -9.1880   18.1900  -31.9690 O   0  0  0  0  0  0  0  0  0  0  0  0
   -6.1271   16.9898  -32.9630 H   0  0  0  0  0  0  0  0  0  0  0  0
   -7.3226   17.6217  -34.1454 H   0  0  0  0  0  0  0  0  0  0  0  0
   -5.6403   18.2514  -34.1454 H   0  0  0  0  0  0  0  0  0  0  0  0
   -6.5567   18.6691  -31.5077 H   0  0  0  0  0  0  0  0  0  0  0  0
   -6.6770   20.8840  -33.5260 H   0  0  0  0  0  0  0  0  0  0  0  0
   -3.8134   18.9062  -32.9066 H   0  0  0  0  0  0  0  0  0  0  0  0
   -1.6440   19.7099  -31.9192 H   0  0  0  0  0  0  0  0  0  0  0  0
   -0.4599   21.8911  -30.4881 H   0  0  0  0  0  0  0  0  0  0  0  0
   -2.9710   25.7570  -29.0210 H   0  0  0  0  0  0  0  0  0  0  0  0
   -6.0714   25.1804  -29.1289 H   0  0  0  0  0  0  0  0  0  0  0  0
   -5.6916   23.4307  -28.9453 H   0  0  0  0  0  0  0  0  0  0  0  0
   -3.8470   25.3330  -28.0210 H   0  0  0  0  0  0  0  0  0  0  0  0
   -5.7831   22.5465  -31.5256 H   0  0  0  0  0  0  0  0  0  0  0  0
  1  2  1  0
  2  3  1  0
  3  4  1  0
  4  5  2  0
  5  6  1  0
  6  7  2  0
  7  8  1  0
  8  9  2  0
  9 10  1  0
 10 11  1  0
 10 12  2  0
  9 13  1  0
 13 14  1  0
 14 15  2  0
 14 16  1  0
 16 17  1  0
 13 18  1  0
 18 19  2  0
  2 20  1  0
 20 21  2  0
 20 22  1  0
 19  4  1  0
 18  7  1  0
  1 23  1  0
  1 24  1  0
  1 25  1  0
  2 26  1  1
  3 27  1  0
  5 28  1  0
  6 29  1  0
  8 30  1  0
 11 31  1  0
 16 32  1  0
 16 33  1  0
 17 34  1  0
 19 35  1  0
M  CHG  2  11  -1  22  -1
M  END
>  <UniqueID>  (52) 
51

>  <SMILES>  (52) 
C[C@@H](Nc1ccc2cc(C([NH-])=O)n(C(=O)CO)c2c1)C(=O)[O-]

>  <Energy>  (52) 
71.60507926278974

>  <Genealogy>  (52) 
CC(Nc1ccc2cc(C([NH-])=O)n(C(=O)CO)c2c1)C(=O)[O-] (protonated)
C[C@@H](Nc1ccc2cc(C([NH-])=O)n(C(=O)CO)c2c1)C(=O)[O-] (chirality)
C[C@@H](Nc1ccc2cc(C([NH-])=O)n(C(=O)CO)c2c1)C(=O)[O-] (3D coordinates assigned)
C[C@@H](Nc1ccc2cc(C([NH-])=O)n(C(=O)CO)c2c1)C(=O)[O-] (optimized conformer: 71.60507926278974 kcal/mol)

>  <smiles>  (52) 
CC(Nc1ccc2cc(C(N)=O)n(C(=O)CO)c2c1)C(=O)O

>  <score_type>  (52) 
oracle

>  <origin>  (52) 
adg

>  <m_score__min__energy>  (52) 
-9.1500000000000004

>  <m_primary>  (52) 
energy

$$$$
53:0
     RDKit          3D

 47 50  0  0  0  0  0  0  0  0999 V2000
   -5.8660   25.3470  -29.0750 N   0  0  0  0  0  0  0  0  0  0  0  0
   -5.6020   24.9080  -30.4080 C   0  0  0  0  0  0  0  0  0  0  0  0
   -4.8590   25.6010  -31.1510 O   0  0  0  0  0  0  0  0  0  0  0  0
   -6.2370   23.6900  -30.9510 C   0  0  0  0  0  0  0  0  0  0  0  0
   -7.6140   23.4900  -30.9730 C   0  0  0  0  0  0  0  0  0  0  0  0
   -7.7900   22.2290  -31.4920 C   0  0  0  0  0  0  0  0  0  0  0  0
   -8.9630   21.5280  -31.7580 C   0  0  0  0  0  0  0  0  0  0  0  0
   -8.8510   20.2540  -32.3400 C   0  0  0  0  0  0  0  0  0  0  0  0
   -7.5810   19.7040  -32.6400 C   0  0  0  0  0  0  0  0  0  0  0  0
   -7.5050   18.4140  -33.2690 N   0  0  0  0  0  0  0  0  0  0  0  0
   -6.2780   17.7710  -33.6550 C   0  0  0  0  0  0  0  0  0  0  0  0
   -5.9450   16.4910  -33.1810 C   0  0  0  0  0  0  0  0  0  0  0  0
   -4.7560   15.8770  -33.5850 C   0  0  0  0  0  0  0  0  0  0  0  0
   -3.8900   16.5190  -34.4760 C   0  0  0  0  0  0  0  0  0  0  0  0
   -2.7070   15.8570  -34.8430 O   0  0  0  0  0  0  0  0  0  0  0  0
   -1.4000   16.1680  -34.3540 C   0  0  1  0  0  0  0  0  0  0  0  0
   -0.9100   17.4610  -34.9630 C   0  0  0  0  0  0  0  0  0  0  0  0
   -0.0610   18.0760  -33.8720 C   0  0  0  0  0  0  0  0  0  0  0  0
   -0.6040   17.6380  -32.5880 N   0  0  0  0  0  0  0  0  0  0  0  0
   -1.4050   16.4370  -32.8490 C   0  0  0  0  0  0  0  0  0  0  0  0
   -4.2320   17.7930  -34.9670 C   0  0  0  0  0  0  0  0  0  0  0  0
   -5.4220   18.4060  -34.5650 C   0  0  0  0  0  0  0  0  0  0  0  0
   -6.4130   20.4580  -32.3770 C   0  0  0  0  0  0  0  0  0  0  0  0
   -6.5500   21.7140  -31.7740 C   0  0  0  0  0  0  0  0  0  0  0  0
   -5.5830   22.6030  -31.4510 N   0  0  0  0  0  0  0  0  0  0  0  0
   -4.1740   22.4660  -31.6980 C   0  0  0  0  0  0  0  0  0  0  0  0
   -3.3600   23.2940  -31.2100 O   0  0  0  0  0  0  0  0  0  0  0  0
   -3.6940   21.4230  -32.4790 O   0  0  0  0  0  0  0  0  0  0  0  0
   -5.3740   26.1870  -28.6940 H   0  0  0  0  0  0  0  0  0  0  0  0
   -6.6020   24.8920  -28.4930 H   0  0  0  0  0  0  0  0  0  0  0  0
   -8.3953   24.1914  -30.6450 H   0  0  0  0  0  0  0  0  0  0  0  0
   -9.9470   21.9581  -31.5199 H   0  0  0  0  0  0  0  0  0  0  0  0
   -9.7602   19.6773  -32.5652 H   0  0  0  0  0  0  0  0  0  0  0  0
   -8.4020   17.9120  -33.4630 H   0  0  0  0  0  0  0  0  0  0  0  0
   -6.6229   15.9698  -32.4890 H   0  0  0  0  0  0  0  0  0  0  0  0
   -4.4991   14.8797  -33.1986 H   0  0  0  0  0  0  0  0  0  0  0  0
   -0.7698   15.3030  -34.6082 H   0  0  0  0  0  0  0  0  0  0  0  0
   -0.3096   17.2668  -35.8640 H   0  0  0  0  0  0  0  0  0  0  0  0
   -1.7319   18.1182  -35.2833 H   0  0  0  0  0  0  0  0  0  0  0  0
    0.9811   17.7387  -33.9730 H   0  0  0  0  0  0  0  0  0  0  0  0
   -0.0769   19.1736  -33.9433 H   0  0  0  0  0  0  0  0  0  0  0  0
   -1.2420   18.3890  -32.2320 H   0  0  0  0  0  0  0  0  0  0  0  0
   -0.9699   15.5780  -32.3171 H   0  0  0  0  0  0  0  0  0  0  0  0
   -2.4360   16.5878  -32.4966 H   0  0  0  0  0  0  0  0  0  0  0  0
   -3.5603   18.3080  -35.6696 H   0  0  0  0  0  0  0  0  0  0  0  0
   -5.6888   19.3949  -34.9661 H   0  0  0  0  0  0  0  0  0  0  0  0
   -5.4195   20.0661  -32.6404 H   0  0  0  0  0  0  0  0  0  0  0  0
  1  2  1  0
  2  3  2  0
  2  4  1  0
  4  5  2  0
  5  6  1  0
  6  7  2  0
  7  8  1  0
  8  9  2  0
  9 10  1  0
 10 11  1  0
 11 12  2  0
 12 13  1  0
 13 14  2  0
 14 15  1  0
 15 16  1  0
 16 17  1  0
 17 18  1  0
 18 19  1  0
 19 20  1  0
 14 21  1  0
 21 22  2  0
  9 23  1  0
 23 24  2  0
 24 25  1  0
 25 26  1  0
 26 27  2  0
 26 28  1  0
 25  4  1  0
 24  6  1  0
 22 11  1  0
 20 16  1  0
  1 29  1  0
  1 30  1  0
  5 31  1  0
  7 32  1  0
  8 33  1  0
 10 34  1  0
 12 35  1  0
 13 36  1  0
 16 37  1  1
 17 38  1  0
 17 39  1  0
 18 40  1  0
 18 41  1  0
 19 42  1  0
 20 43  1  0
 20 44  1  0
 21 45  1  0
 22 46  1  0
 23 47  1  0
M  CHG  1  28  -1
M  END
>  <UniqueID>  (53) 
52

>  <SMILES>  (53) 
NC(=O)c1cc2ccc(Nc3ccc(O[C@H]4CCNC4)cc3)cc2n1C(=O)[O-]

>  <Energy>  (53) 
95.94594858177844

>  <Genealogy>  (53) 
NC(=O)c1cc2ccc(Nc3ccc(OC4CCNC4)cc3)cc2n1C(=O)[O-] (protonated)
NC(=O)c1cc2ccc(Nc3ccc(O[C@H]4CCNC4)cc3)cc2n1C(=O)[O-] (chirality)
NC(=O)c1cc2ccc(Nc3ccc(O[C@H]4CCNC4)cc3)cc2n1C(=O)[O-] (3D coordinates assigned)
NC(=O)c1cc2ccc(Nc3ccc(O[C@H]4CCNC4)cc3)cc2n1C(=O)[O-] (nonaromatic ring conformer: 95.94594858177844 kcal/mol)

>  <smiles>  (53) 
NC(=O)c1cc2ccc(Nc3ccc(OC4CCNC4)cc3)cc2n1C(=O)O

>  <score_type>  (53) 
oracle

>  <origin>  (53) 
adg

>  <m_score__min__energy>  (53) 
-9.3900000000000006

>  <m_primary>  (53) 
energy

$$$$
54:0
     RDKit          3D

 42 43  0  0  0  0  0  0  0  0999 V2000
   -4.0130   24.5450  -26.7540 C   0  0  0  0  0  0  0  0  0  0  0  0
   -3.8520   23.6700  -27.5680 C   0  0  0  0  0  0  0  0  0  0  0  0
   -3.6650   22.6040  -28.5600 C   0  0  0  0  0  0  0  0  0  0  0  0
   -2.5920   22.9700  -29.5900 C   0  0  0  0  0  0  0  0  0  0  0  0
   -3.1780   23.5280  -30.7660 O   0  0  0  0  0  0  0  0  0  0  0  0
   -4.0040   22.8130  -31.6410 C   0  0  0  0  0  0  0  0  0  0  0  0
   -3.5060   22.1070  -32.5590 O   0  0  0  0  0  0  0  0  0  0  0  0
   -5.4300   22.8980  -31.4990 N   0  0  0  0  0  0  0  0  0  0  0  0
   -6.1410   23.8650  -30.8570 C   0  0  0  0  0  0  0  0  0  0  0  0
   -5.5910   25.1140  -30.2920 C   0  0  0  0  0  0  0  0  0  0  0  0
   -6.1220   25.6850  -29.0950 N   0  0  0  0  0  0  0  0  0  0  0  0
   -4.6000   25.6600  -30.8480 O   0  0  0  0  0  0  0  0  0  0  0  0
   -7.4960   23.5410  -30.8290 C   0  0  0  0  0  0  0  0  0  0  0  0
   -7.5940   22.3370  -31.4880 C   0  0  0  0  0  0  0  0  0  0  0  0
   -8.7080   21.5440  -31.7410 C   0  0  0  0  0  0  0  0  0  0  0  0
   -8.5090   20.3200  -32.4000 C   0  0  0  0  0  0  0  0  0  0  0  0
   -7.2090   19.8990  -32.7750 C   0  0  0  0  0  0  0  0  0  0  0  0
   -7.0470   18.6170  -33.4140 N   0  0  0  0  0  0  0  0  0  0  0  0
   -5.8030   17.8480  -33.4090 C   0  0  0  0  0  0  0  0  0  0  0  0
   -6.0730   16.4300  -33.8040 C   0  0  0  0  0  0  0  0  0  0  0  0
   -7.2150   16.1110  -34.2380 O   0  0  0  0  0  0  0  0  0  0  0  0
   -5.0760   15.4640  -33.6430 O   0  0  0  0  0  0  0  0  0  0  0  0
   -4.6340   15.0250  -32.3650 C   0  0  0  0  0  0  0  0  0  0  0  0
   -6.1010   20.7410  -32.5110 C   0  0  0  0  0  0  0  0  0  0  0  0
   -6.3330   21.9670  -31.8770 C   0  0  0  0  0  0  0  0  0  0  0  0
   -4.1599   25.3432  -26.0115 H   0  0  0  0  0  0  0  0  0  0  0  0
   -3.3612   21.6831  -28.0407 H   0  0  0  0  0  0  0  0  0  0  0  0
   -4.6167   22.4607  -29.0927 H   0  0  0  0  0  0  0  0  0  0  0  0
   -1.9049   23.7060  -29.1470 H   0  0  0  0  0  0  0  0  0  0  0  0
   -2.0498   22.0548  -29.8702 H   0  0  0  0  0  0  0  0  0  0  0  0
   -5.7490   26.5930  -28.7390 H   0  0  0  0  0  0  0  0  0  0  0  0
   -6.8170   25.1700  -28.5140 H   0  0  0  0  0  0  0  0  0  0  0  0
   -8.3125   24.1231  -30.3769 H   0  0  0  0  0  0  0  0  0  0  0  0
   -9.7142   21.8656  -31.4343 H   0  0  0  0  0  0  0  0  0  0  0  0
   -9.3738   19.6796  -32.6281 H   0  0  0  0  0  0  0  0  0  0  0  0
   -7.8900   18.1570  -33.8250 H   0  0  0  0  0  0  0  0  0  0  0  0
   -5.0956   18.2959  -34.1224 H   0  0  0  0  0  0  0  0  0  0  0  0
   -5.3741   17.8640  -32.3962 H   0  0  0  0  0  0  0  0  0  0  0  0
   -5.1814   15.5687  -31.5810 H   0  0  0  0  0  0  0  0  0  0  0  0
   -4.8222   13.9461  -32.2626 H   0  0  0  0  0  0  0  0  0  0  0  0
   -3.5564   15.2206  -32.2626 H   0  0  0  0  0  0  0  0  0  0  0  0
   -5.0829   20.4386  -32.7973 H   0  0  0  0  0  0  0  0  0  0  0  0
  1  2  3  0
  2  3  1  0
  3  4  1  0
  4  5  1  0
  5  6  1  0
  6  7  2  0
  6  8  1  0
  8  9  1  0
  9 10  1  0
 10 11  1  0
 10 12  2  0
  9 13  2  0
 13 14  1  0
 14 15  2  0
 15 16  1  0
 16 17  2  0
 17 18  1  0
 18 19  1  0
 19 20  1  0
 20 21  2  0
 20 22  1  0
 22 23  1  0
 17 24  1  0
 24 25  2  0
 25  8  1  0
 25 14  1  0
  1 26  1  0
  3 27  1  0
  3 28  1  0
  4 29  1  0
  4 30  1  0
 11 31  1  0
 11 32  1  0
 13 33  1  0
 15 34  1  0
 16 35  1  0
 18 36  1  0
 19 37  1  0
 19 38  1  0
 23 39  1  0
 23 40  1  0
 23 41  1  0
 24 42  1  0
M  END
>  <UniqueID>  (54) 
53

>  <SMILES>  (54) 
C#CCCOC(=O)n1c(C(N)=O)cc2ccc(NCC(=O)OC)cc21

>  <Energy>  (54) 
71.30021775491338

>  <Genealogy>  (54) 
C#CCCOC(=O)n1c(C(N)=O)cc2ccc(NCC(=O)OC)cc21 (3D coordinates assigned)
C#CCCOC(=O)n1c(C(N)=O)cc2ccc(NCC(=O)OC)cc21 (optimized conformer: 71.30021775491338 kcal/mol)

>  <smiles>  (54) 
C#CCCOC(=O)n1c(C(N)=O)cc2ccc(NCC(=O)OC)cc21

>  <score_type>  (54) 
oracle

>  <origin>  (54) 
adg

>  <m_score__min__energy>  (54) 
-8.3000000000000007

>  <m_primary>  (54) 
energy

$$$$
55:0
     RDKit          3D

 45 47  0  0  0  0  0  0  0  0999 V2000
   -6.8470   14.8910  -34.1900 C   0  0  0  0  0  0  0  0  0  0  0  0
   -6.4340   16.2880  -34.1390 N   0  0  0  0  0  0  0  0  0  0  0  0
   -7.0040   17.2550  -33.3970 C   0  0  0  0  0  0  0  0  0  0  0  0
   -6.2670   18.4210  -33.5570 C   0  0  0  0  0  0  0  0  0  0  0  0
   -6.5150   19.7450  -32.9290 C   0  0  0  0  0  0  0  0  0  0  0  0
   -7.8430   20.2070  -32.7210 C   0  0  0  0  0  0  0  0  0  0  0  0
   -8.0870   21.4620  -32.1360 C   0  0  0  0  0  0  0  0  0  0  0  0
   -6.9920   22.2310  -31.7610 C   0  0  0  0  0  0  0  0  0  0  0  0
   -6.9440   23.4870  -31.1990 C   0  0  0  0  0  0  0  0  0  0  0  0
   -5.5880   23.7700  -31.0460 C   0  0  0  0  0  0  0  0  0  0  0  0
   -5.0820   24.9960  -30.3920 C   0  0  0  0  0  0  0  0  0  0  0  0
   -3.8740   25.6150  -30.8280 N   0  0  0  0  0  0  0  0  0  0  0  0
   -5.6990   25.4760  -29.4040 O   0  0  0  0  0  0  0  0  0  0  0  0
   -4.8300   22.7360  -31.5050 N   0  0  0  0  0  0  0  0  0  0  0  0
   -3.4000   22.6610  -31.6020 C   0  0  0  0  0  0  0  0  0  0  0  0
   -2.6850   23.1720  -30.6970 O   0  0  0  0  0  0  0  0  0  0  0  0
   -2.8180   22.0460  -32.7210 O   0  0  0  0  0  0  0  0  0  0  0  0
   -2.0210   20.8540  -32.7190 C   0  0  0  0  0  0  0  0  0  0  0  0
   -2.4700   19.9030  -33.8440 C   0  0  0  0  0  0  0  0  0  0  0  0
   -2.2440   20.1630  -31.3660 C   0  0  0  0  0  0  0  0  0  0  0  0
   -0.5260   21.2000  -32.8620 C   0  0  0  0  0  0  0  0  0  0  0  0
   -5.7050   21.8000  -31.9370 C   0  0  0  0  0  0  0  0  0  0  0  0
   -5.4300   20.5650  -32.5340 C   0  0  0  0  0  0  0  0  0  0  0  0
   -5.2310   18.0700  -34.4180 C   0  0  0  0  0  0  0  0  0  0  0  0
   -5.3610   16.7710  -34.7410 N   0  0  0  0  0  0  0  0  0  0  0  0
   -6.9612   14.5048  -33.1664 H   0  0  0  0  0  0  0  0  0  0  0  0
   -7.8070   14.8116  -34.7211 H   0  0  0  0  0  0  0  0  0  0  0  0
   -6.0845   14.3024  -34.7211 H   0  0  0  0  0  0  0  0  0  0  0  0
   -7.9009   17.1413  -32.7704 H   0  0  0  0  0  0  0  0  0  0  0  0
   -8.6911   19.5743  -33.0217 H   0  0  0  0  0  0  0  0  0  0  0  0
   -9.1138   21.8243  -31.9799 H   0  0  0  0  0  0  0  0  0  0  0  0
   -7.7945   24.1300  -30.9285 H   0  0  0  0  0  0  0  0  0  0  0  0
   -2.9470   25.2910  -30.4750 H   0  0  0  0  0  0  0  0  0  0  0  0
   -2.9004   18.9915  -33.4036 H   0  0  0  0  0  0  0  0  0  0  0  0
   -3.2274   20.4026  -34.4660 H   0  0  0  0  0  0  0  0  0  0  0  0
   -1.6030   19.6357  -34.4660 H   0  0  0  0  0  0  0  0  0  0  0  0
   -2.0166   20.8677  -30.5525 H   0  0  0  0  0  0  0  0  0  0  0  0
   -3.2923   19.8390  -31.2881 H   0  0  0  0  0  0  0  0  0  0  0  0
   -1.5828   19.2873  -31.2881 H   0  0  0  0  0  0  0  0  0  0  0  0
   -0.0766   21.3040  -31.8634 H   0  0  0  0  0  0  0  0  0  0  0  0
   -0.0147   20.3965  -33.4123 H   0  0  0  0  0  0  0  0  0  0  0  0
   -0.4197   22.1465  -33.4123 H   0  0  0  0  0  0  0  0  0  0  0  0
   -4.3920   20.2375  -32.6934 H   0  0  0  0  0  0  0  0  0  0  0  0
   -4.4377   18.7433  -34.7749 H   0  0  0  0  0  0  0  0  0  0  0  0
   -4.7210   16.2230  -35.3580 H   0  0  0  0  0  0  0  0  0  0  0  0
  1  2  1  0
  2  3  1  0
  3  4  2  0
  4  5  1  0
  5  6  2  0
  6  7  1  0
  7  8  2  0
  8  9  1  0
  9 10  2  0
 10 11  1  0
 11 12  1  0
 11 13  2  0
 10 14  1  0
 14 15  1  0
 15 16  2  0
 15 17  1  0
 17 18  1  0
 18 19  1  0
 18 20  1  0
 18 21  1  0
 14 22  1  0
 22 23  2  0
  4 24  1  0
 24 25  2  0
 25  2  1  0
 23  5  1  0
 22  8  1  0
  1 26  1  0
  1 27  1  0
  1 28  1  0
  3 29  1  0
  6 30  1  0
  7 31  1  0
  9 32  1  0
 12 33  1  0
 19 34  1  0
 19 35  1  0
 19 36  1  0
 20 37  1  0
 20 38  1  0
 20 39  1  0
 21 40  1  0
 21 41  1  0
 21 42  1  0
 23 43  1  0
 24 44  1  0
 25 45  1  0
M  CHG  2  12  -1  25   1
M  END
>  <UniqueID>  (55) 
54

>  <SMILES>  (55) 
Cn1cc(-c2ccc3cc(C([NH-])=O)n(C(=O)OC(C)(C)C)c3c2)c[nH+]1

>  <Energy>  (55) 
112.46060267331369

>  <Genealogy>  (55) 
Cn1cc(-c2ccc3cc(C([NH-])=O)n(C(=O)OC(C)(C)C)c3c2)c[nH+]1 (protonated)
Cn1cc(-c2ccc3cc(C([NH-])=O)n(C(=O)OC(C)(C)C)c3c2)c[nH+]1 (3D coordinates assigned)
Cn1cc(-c2ccc3cc(C([NH-])=O)n(C(=O)OC(C)(C)C)c3c2)c[nH+]1 (optimized conformer: 112.46060267331369 kcal/mol)

>  <smiles>  (55) 
Cn1cc(-c2ccc3cc(C(N)=O)n(C(=O)OC(C)(C)C)c3c2)cn1

>  <score_type>  (55) 
oracle

>  <origin>  (55) 
adg

>  <m_score__min__energy>  (55) 
-10.800000000000001

>  <m_primary>  (55) 
energy

$$$$
56:0
     RDKit          3D

 84 88  0  0  0  0  0  0  0  0999 V2000
   -1.8390   17.5090  -32.7570 C   0  0  0  0  0  0  0  0  0  0  0  0
   -0.8200   18.6070  -33.1160 C   0  0  0  0  0  0  0  0  0  0  0  0
   -0.4700   19.3840  -31.8380 C   0  0  0  0  0  0  0  0  0  0  0  0
   -1.4200   19.5730  -34.1450 C   0  0  0  0  0  0  0  0  0  0  0  0
    0.3930   18.0460  -33.6410 O   0  0  0  0  0  0  0  0  0  0  0  0
    0.4570   17.1080  -34.6760 C   0  0  0  0  0  0  0  0  0  0  0  0
   -0.1850   17.3080  -35.7460 O   0  0  0  0  0  0  0  0  0  0  0  0
    1.1810   15.8820  -34.4820 N   0  0  0  0  0  0  0  0  0  0  0  0
    1.2210   14.8530  -35.5100 C   0  0  0  0  0  0  0  0  0  0  0  0
    0.2560   13.7400  -35.0970 C   0  0  0  0  0  0  0  0  0  0  0  0
    0.4620   13.3010  -33.6950 N   0  0  0  0  0  0  0  0  0  0  0  0
   -0.7790   12.9330  -32.9760 C   0  0  0  0  0  0  0  0  0  0  0  0
   -1.7030   11.9790  -33.7860 C   0  0  0  0  0  0  0  0  0  0  0  0
   -2.7990   12.6700  -34.6330 C   0  0  0  0  0  0  0  0  0  0  0  0
   -3.2870   13.9160  -34.0260 N   0  0  0  0  0  0  0  0  0  0  0  0
   -3.8390   14.9500  -34.8770 C   0  0  0  0  0  0  0  0  0  0  0  0
   -3.6820   14.8950  -36.1250 O   0  0  0  0  0  0  0  0  0  0  0  0
   -4.5510   16.1040  -34.3210 C   0  0  0  0  0  0  0  0  0  0  0  0
   -5.4560   15.9460  -33.2620 C   0  0  0  0  0  0  0  0  0  0  0  0
   -6.1030   17.0600  -32.7210 C   0  0  0  0  0  0  0  0  0  0  0  0
   -5.8370   18.3500  -33.2170 C   0  0  0  0  0  0  0  0  0  0  0  0
   -6.4560   19.5450  -32.5910 C   0  0  0  0  0  0  0  0  0  0  0  0
   -7.8680   19.7340  -32.6340 C   0  0  0  0  0  0  0  0  0  0  0  0
   -8.4550   20.8810  -32.0760 C   0  0  0  0  0  0  0  0  0  0  0  0
   -7.6190   21.8160  -31.4840 C   0  0  0  0  0  0  0  0  0  0  0  0
   -7.9260   23.0300  -30.9180 C   0  0  0  0  0  0  0  0  0  0  0  0
   -6.7090   23.5560  -30.4990 C   0  0  0  0  0  0  0  0  0  0  0  0
   -6.5880   24.8240  -29.7600 C   0  0  0  0  0  0  0  0  0  0  0  0
   -5.4540   25.0910  -28.9430 N   0  0  0  0  0  0  0  0  0  0  0  0
   -7.5250   25.6630  -29.8110 O   0  0  0  0  0  0  0  0  0  0  0  0
   -5.6810   22.7140  -30.8100 N   0  0  0  0  0  0  0  0  0  0  0  0
   -4.2720   22.9670  -30.6520 C   0  0  0  0  0  0  0  0  0  0  0  0
   -3.5910   23.3660  -31.6370 O   0  0  0  0  0  0  0  0  0  0  0  0
   -3.6590   22.7680  -29.4110 O   0  0  0  0  0  0  0  0  0  0  0  0
   -2.2950   23.0830  -29.1690 C   0  0  0  0  0  0  0  0  0  0  0  0
   -2.0980   24.5550  -29.2950 C   0  0  0  0  0  0  0  0  0  0  0  0
   -3.0340   25.2910  -29.7070 O   0  0  0  0  0  0  0  0  0  0  0  0
   -0.8780   25.1220  -28.9530 O   0  0  0  0  0  0  0  0  0  0  0  0
   -6.2580   21.6490  -31.4160 C   0  0  0  0  0  0  0  0  0  0  0  0
   -5.6410   20.5290  -31.9830 C   0  0  0  0  0  0  0  0  0  0  0  0
   -4.9430   18.4930  -34.2960 C   0  0  0  0  0  0  0  0  0  0  0  0
   -4.3130   17.3770  -34.8480 C   0  0  0  0  0  0  0  0  0  0  0  0
   -3.0010   14.1440  -32.6070 C   0  0  0  0  0  0  0  0  0  0  0  0
   -1.4870   14.1990  -32.4220 C   0  0  0  0  0  0  0  0  0  0  0  0
    1.5380   13.9710  -32.9110 C   0  0  0  0  0  0  0  0  0  0  0  0
    1.6350   15.5010  -33.1410 C   0  0  0  0  0  0  0  0  0  0  0  0
   -1.9171   17.4248  -31.6630 H   0  0  0  0  0  0  0  0  0  0  0  0
   -2.8221   17.7700  -33.1758 H   0  0  0  0  0  0  0  0  0  0  0  0
   -1.5054   16.5481  -33.1758 H   0  0  0  0  0  0  0  0  0  0  0  0
   -0.7408   18.7828  -30.9576 H   0  0  0  0  0  0  0  0  0  0  0  0
    0.6096   19.5940  -31.8206 H   0  0  0  0  0  0  0  0  0  0  0  0
   -1.0282   20.3317  -31.8206 H   0  0  0  0  0  0  0  0  0  0  0  0
   -1.9306   20.3951  -33.6220 H   0  0  0  0  0  0  0  0  0  0  0  0
   -0.6169   19.9823  -34.7755 H   0  0  0  0  0  0  0  0  0  0  0  0
   -2.1428   19.0345  -34.7755 H   0  0  0  0  0  0  0  0  0  0  0  0
    0.9109   15.2774  -36.4763 H   0  0  0  0  0  0  0  0  0  0  0  0
    2.2414   14.4563  -35.6164 H   0  0  0  0  0  0  0  0  0  0  0  0
   -0.7747   14.1093  -35.2032 H   0  0  0  0  0  0  0  0  0  0  0  0
    0.4448   12.8747  -35.7494 H   0  0  0  0  0  0  0  0  0  0  0  0
   -0.4943   12.3273  -32.1030 H   0  0  0  0  0  0  0  0  0  0  0  0
   -1.0695   11.3912  -34.4666 H   0  0  0  0  0  0  0  0  0  0  0  0
   -2.2369   11.3718  -33.0402 H   0  0  0  0  0  0  0  0  0  0  0  0
   -2.3830   12.9016  -35.6246 H   0  0  0  0  0  0  0  0  0  0  0  0
   -3.6515   11.9780  -34.6995 H   0  0  0  0  0  0  0  0  0  0  0  0
   -5.6570   14.9435  -32.8564 H   0  0  0  0  0  0  0  0  0  0  0  0
   -6.8252   16.9279  -31.9019 H   0  0  0  0  0  0  0  0  0  0  0  0
   -8.5046   18.9733  -33.1093 H   0  0  0  0  0  0  0  0  0  0  0  0
   -9.5440   21.0333  -32.1074 H   0  0  0  0  0  0  0  0  0  0  0  0
   -8.9213   23.4876  -30.8179 H   0  0  0  0  0  0  0  0  0  0  0  0
   -4.6780   24.4010  -28.8520 H   0  0  0  0  0  0  0  0  0  0  0  0
   -5.3840   25.9900  -28.4110 H   0  0  0  0  0  0  0  0  0  0  0  0
   -2.0183   22.7610  -28.1542 H   0  0  0  0  0  0  0  0  0  0  0  0
   -1.6616   22.5630  -29.9027 H   0  0  0  0  0  0  0  0  0  0  0  0
   -4.5472   20.4158  -31.9568 H   0  0  0  0  0  0  0  0  0  0  0  0
   -4.7397   19.4929  -34.7070 H   0  0  0  0  0  0  0  0  0  0  0  0
   -3.6276   17.4990  -35.6997 H   0  0  0  0  0  0  0  0  0  0  0  0
   -3.4490   15.0961  -32.2863 H   0  0  0  0  0  0  0  0  0  0  0  0
   -3.4259   13.3303  -32.0009 H   0  0  0  0  0  0  0  0  0  0  0  0
   -1.0979   15.0817  -32.9506 H   0  0  0  0  0  0  0  0  0  0  0  0
   -1.2818   14.2541  -31.3427 H   0  0  0  0  0  0  0  0  0  0  0  0
    1.3466   13.7945  -31.8422 H   0  0  0  0  0  0  0  0  0  0  0  0
    2.4912   13.5398  -33.2509 H   0  0  0  0  0  0  0  0  0  0  0  0
    1.0096   16.0132  -32.3949 H   0  0  0  0  0  0  0  0  0  0  0  0
    2.6905   15.7944  -33.0422 H   0  0  0  0  0  0  0  0  0  0  0  0
  1  2  1  0
  2  3  1  0
  2  4  1  0
  2  5  1  0
  5  6  1  0
  6  7  2  0
  6  8  1  0
  8  9  1  0
  9 10  1  0
 10 11  1  0
 11 12  1  0
 12 13  1  0
 13 14  1  0
 14 15  1  0
 15 16  1  0
 16 17  2  0
 16 18  1  0
 18 19  2  0
 19 20  1  0
 20 21  2  0
 21 22  1  0
 22 23  2  0
 23 24  1  0
 24 25  2  0
 25 26  1  0
 26 27  2  0
 27 28  1  0
 28 29  1  0
 28 30  2  0
 27 31  1  0
 31 32  1  0
 32 33  2  0
 32 34  1  0
 34 35  1  0
 35 36  1  0
 36 37  2  0
 36 38  1  0
 31 39  1  0
 39 40  2  0
 21 41  1  0
 41 42  2  0
 15 43  1  0
 43 44  1  0
 11 45  1  0
 45 46  1  0
 46  8  1  0
 44 12  1  0
 42 18  1  0
 40 22  1  0
 39 25  1  0
  1 47  1  0
  1 48  1  0
  1 49  1  0
  3 50  1  0
  3 51  1  0
  3 52  1  0
  4 53  1  0
  4 54  1  0
  4 55  1  0
  9 56  1  0
  9 57  1  0
 10 58  1  0
 10 59  1  0
 12 60  1  0
 13 61  1  0
 13 62  1  0
 14 63  1  0
 14 64  1  0
 19 65  1  0
 20 66  1  0
 23 67  1  0
 24 68  1  0
 26 69  1  0
 29 70  1  0
 29 71  1  0
 35 72  1  0
 35 73  1  0
 40 74  1  0
 41 75  1  0
 42 76  1  0
 43 77  1  0
 43 78  1  0
 44 79  1  0
 44 80  1  0
 45 81  1  0
 45 82  1  0
 46 83  1  0
 46 84  1  0
M  CHG  1  38  -1
M  END
>  <UniqueID>  (56) 
55

>  <SMILES>  (56) 
CC(C)(C)OC(=O)N1CCN(C2CCN(C(=O)c3ccc(-c4ccc5cc(C(N)=O)n(C(=O)OCC(=O)[O-])c5c4)cc3)CC2)CC1

>  <Energy>  (56) 
159.63806157794392

>  <Genealogy>  (56) 
CC(C)(C)OC(=O)N1CCN(C2CCN(C(=O)c3ccc(-c4ccc5cc(C(N)=O)n(C(=O)OCC(=O)[O-])c5c4)cc3)CC2)CC1 (protonated)
CC(C)(C)OC(=O)N1CCN(C2CCN(C(=O)c3ccc(-c4ccc5cc(C(N)=O)n(C(=O)OCC(=O)[O-])c5c4)cc3)CC2)CC1 (3D coordinates assigned)
CC(C)(C)OC(=O)N1CCN(C2CCN(C(=O)c3ccc(-c4ccc5cc(C(N)=O)n(C(=O)OCC(=O)[O-])c5c4)cc3)CC2)CC1 (nonaromatic ring conformer: 159.63806157794392 kcal/mol)

>  <smiles>  (56) 
CC(C)(C)OC(=O)N1CCN(C2CCN(C(=O)c3ccc(-c4ccc5cc(C(N)=O)n(C(=O)OCC(=O)O)c5c4)cc3)CC2)CC1

>  <score_type>  (56) 
oracle

>  <origin>  (56) 
adg

>  <m_score__min__energy>  (56) 
-12.449999999999999

>  <m_primary>  (56) 
energy

$$$$
57:0
     RDKit          3D

 37 38  0  0  0  0  0  0  0  0999 V2000
   -7.0530   17.1720  -33.0330 C   0  0  0  0  0  0  0  0  0  0  0  0
   -6.5230   18.4160  -33.6070 N   0  0  0  0  0  0  0  0  0  0  0  0
   -5.7580   18.3440  -34.8590 C   0  0  0  0  0  0  0  0  0  0  0  0
   -6.7610   19.6930  -32.9550 C   0  0  0  0  0  0  0  0  0  0  0  0
   -8.0890   20.1320  -32.6800 C   0  0  0  0  0  0  0  0  0  0  0  0
   -8.3310   21.3680  -32.0610 C   0  0  0  0  0  0  0  0  0  0  0  0
   -7.2380   22.1500  -31.7130 C   0  0  0  0  0  0  0  0  0  0  0  0
   -7.1940   23.3910  -31.1210 C   0  0  0  0  0  0  0  0  0  0  0  0
   -5.8410   23.6970  -31.0070 C   0  0  0  0  0  0  0  0  0  0  0  0
   -5.3390   24.9120  -30.3300 C   0  0  0  0  0  0  0  0  0  0  0  0
   -4.2230   25.6320  -30.8470 N   0  0  0  0  0  0  0  0  0  0  0  0
   -5.8710   25.2890  -29.2510 O   0  0  0  0  0  0  0  0  0  0  0  0
   -5.0770   22.6900  -31.5210 N   0  0  0  0  0  0  0  0  0  0  0  0
   -3.6470   22.6520  -31.6500 C   0  0  0  0  0  0  0  0  0  0  0  0
   -3.1180   22.0190  -32.6050 O   0  0  0  0  0  0  0  0  0  0  0  0
   -2.8430   23.3110  -30.7140 O   0  0  0  0  0  0  0  0  0  0  0  0
   -2.3190   22.6600  -29.5590 C   0  0  0  0  0  0  0  0  0  0  0  0
   -0.9670   23.0160  -29.3880 O   0  0  0  0  0  0  0  0  0  0  0  0
   -0.8740   24.4500  -28.4680 P   0  0  0  0  0  0  0  0  0  0  0  0
   -1.5880   24.2850  -27.1460 O   0  0  0  0  0  0  0  0  0  0  0  0
    0.7480   24.8390  -28.1850 O   0  0  0  0  0  0  0  0  0  0  0  0
   -1.6000   25.7080  -29.3350 O   0  0  0  0  0  0  0  0  0  0  0  0
   -5.9500   21.7480  -31.9450 C   0  0  0  0  0  0  0  0  0  0  0  0
   -5.6780   20.5320  -32.5810 C   0  0  0  0  0  0  0  0  0  0  0  0
   -7.0265   17.2343  -31.9351 H   0  0  0  0  0  0  0  0  0  0  0  0
   -8.0910   17.0271  -33.3670 H   0  0  0  0  0  0  0  0  0  0  0  0
   -6.4384   16.3231  -33.3670 H   0  0  0  0  0  0  0  0  0  0  0  0
   -4.6870   18.2432  -34.6290 H   0  0  0  0  0  0  0  0  0  0  0  0
   -6.0912   17.4732  -35.4427 H   0  0  0  0  0  0  0  0  0  0  0  0
   -5.9229   19.2616  -35.4427 H   0  0  0  0  0  0  0  0  0  0  0  0
   -8.9387   19.4910  -32.9577 H   0  0  0  0  0  0  0  0  0  0  0  0
   -9.3573   21.7075  -31.8574 H   0  0  0  0  0  0  0  0  0  0  0  0
   -8.0467   24.0098  -30.8050 H   0  0  0  0  0  0  0  0  0  0  0  0
   -3.2460   25.3090  -30.6670 H   0  0  0  0  0  0  0  0  0  0  0  0
   -2.8935   22.9681  -28.6730 H   0  0  0  0  0  0  0  0  0  0  0  0
   -2.3962   21.5703  -29.6875 H   0  0  0  0  0  0  0  0  0  0  0  0
   -4.6407   20.2303  -32.7883 H   0  0  0  0  0  0  0  0  0  0  0  0
  1  2  1  0
  2  3  1  0
  2  4  1  0
  4  5  2  0
  5  6  1  0
  6  7  2  0
  7  8  1  0
  8  9  2  0
  9 10  1  0
 10 11  1  0
 10 12  2  0
  9 13  1  0
 13 14  1  0
 14 15  2  0
 14 16  1  0
 16 17  1  0
 17 18  1  0
 18 19  1  0
 19 20  2  0
 19 21  1  0
 19 22  1  0
 13 23  1  0
 23 24  2  0
 24  4  1  0
 23  7  1  0
  1 25  1  0
  1 26  1  0
  1 27  1  0
  3 28  1  0
  3 29  1  0
  3 30  1  0
  5 31  1  0
  6 32  1  0
  8 33  1  0
 11 34  1  0
 17 35  1  0
 17 36  1  0
 24 37  1  0
M  CHG  3  11  -1  21  -1  22  -1
M  END
>  <UniqueID>  (57) 
56

>  <SMILES>  (57) 
CN(C)c1ccc2cc(C([NH-])=O)n(C(=O)OCOP(=O)([O-])[O-])c2c1

>  <Energy>  (57) 
75.67794580084744

>  <Genealogy>  (57) 
CN(C)c1ccc2cc(C([NH-])=O)n(C(=O)OCOP(=O)([O-])[O-])c2c1 (protonated)
CN(C)c1ccc2cc(C([NH-])=O)n(C(=O)OCOP(=O)([O-])[O-])c2c1 (3D coordinates assigned)
CN(C)c1ccc2cc(C([NH-])=O)n(C(=O)OCOP(=O)([O-])[O-])c2c1 (optimized conformer: 75.67794580084744 kcal/mol)

>  <smiles>  (57) 
CN(C)c1ccc2cc(C(N)=O)n(C(=O)OCOP(=O)(O)O)c2c1

>  <score_type>  (57) 
oracle

>  <origin>  (57) 
adg

>  <m_score__min__energy>  (57) 
-13.779999999999999

>  <m_primary>  (57) 
energy

$$$$
58:0
     RDKit          3D

 42 44  0  0  0  0  0  0  0  0999 V2000
   -2.8220   21.4680  -33.4250 C   0  0  0  0  0  0  0  0  0  0  0  0
   -2.5200   20.3480  -32.4620 C   0  0  0  0  0  0  0  0  0  0  0  0
   -1.4570   20.5550  -31.4180 C   0  0  0  0  0  0  0  0  0  0  0  0
   -3.1250   19.1410  -32.5240 C   0  0  0  0  0  0  0  0  0  0  0  0
   -4.1830   18.7520  -33.4810 C   0  0  0  0  0  0  0  0  0  0  0  0
   -3.8350   18.3240  -34.6150 O   0  0  0  0  0  0  0  0  0  0  0  0
   -5.5790   18.7940  -33.1470 N   0  0  0  0  0  0  0  0  0  0  0  0
   -6.4940   17.7920  -33.2830 C   0  0  0  0  0  0  0  0  0  0  0  0
   -6.2650   16.4840  -33.9370 C   0  0  0  0  0  0  0  0  0  0  0  0
   -4.9710   15.8790  -33.9830 N   0  0  0  0  0  0  0  0  0  0  0  0
   -7.2300   15.9070  -34.5070 O   0  0  0  0  0  0  0  0  0  0  0  0
   -7.7070   18.1560  -32.7010 C   0  0  0  0  0  0  0  0  0  0  0  0
   -7.5060   19.4190  -32.1950 C   0  0  0  0  0  0  0  0  0  0  0  0
   -8.3750   20.2550  -31.4960 C   0  0  0  0  0  0  0  0  0  0  0  0
   -7.8830   21.4950  -31.0570 C   0  0  0  0  0  0  0  0  0  0  0  0
   -6.5420   21.8660  -31.3090 C   0  0  0  0  0  0  0  0  0  0  0  0
   -6.0490   23.1270  -30.8520 N   0  0  0  0  0  0  0  0  0  0  0  0
   -5.1820   23.6250  -29.7650 C   0  0  0  0  0  0  0  0  0  0  0  0
   -5.2790   25.0710  -30.1450 C   0  0  0  0  0  0  0  0  0  0  0  0
   -4.0680   25.6250  -30.6080 O   0  0  0  0  0  0  0  0  0  0  0  0
   -6.1640   24.5470  -31.2340 C   0  0  0  0  0  0  0  0  0  0  0  0
   -5.6870   20.9930  -32.0120 C   0  0  0  0  0  0  0  0  0  0  0  0
   -6.2100   19.7760  -32.4630 C   0  0  0  0  0  0  0  0  0  0  0  0
   -3.0679   22.3800  -32.8612 H   0  0  0  0  0  0  0  0  0  0  0  0
   -1.9420   21.6544  -34.0582 H   0  0  0  0  0  0  0  0  0  0  0  0
   -3.6764   21.1868  -34.0582 H   0  0  0  0  0  0  0  0  0  0  0  0
   -1.9044   20.4679  -30.4169 H   0  0  0  0  0  0  0  0  0  0  0  0
   -0.6730   19.7927  -31.5368 H   0  0  0  0  0  0  0  0  0  0  0  0
   -1.0163   21.5558  -31.5368 H   0  0  0  0  0  0  0  0  0  0  0  0
   -2.8016   18.3805  -31.7980 H   0  0  0  0  0  0  0  0  0  0  0  0
   -4.8520   14.9430  -34.4250 H   0  0  0  0  0  0  0  0  0  0  0  0
   -4.1140   16.3930  -33.6850 H   0  0  0  0  0  0  0  0  0  0  0  0
   -8.6300   17.5593  -32.6559 H   0  0  0  0  0  0  0  0  0  0  0  0
   -9.4134   19.9531  -31.2945 H   0  0  0  0  0  0  0  0  0  0  0  0
   -8.5463   22.1833  -30.5126 H   0  0  0  0  0  0  0  0  0  0  0  0
   -5.5918   23.4190  -28.7652 H   0  0  0  0  0  0  0  0  0  0  0  0
   -4.1742   23.1914  -29.6856 H   0  0  0  0  0  0  0  0  0  0  0  0
   -5.5681   25.8719  -29.4486 H   0  0  0  0  0  0  0  0  0  0  0  0
   -4.0890   25.6750  -31.6000 H   0  0  0  0  0  0  0  0  0  0  0  0
   -7.1948   24.9245  -31.1632 H   0  0  0  0  0  0  0  0  0  0  0  0
   -5.8999   24.8126  -32.2683 H   0  0  0  0  0  0  0  0  0  0  0  0
   -4.6371   21.2613  -32.2009 H   0  0  0  0  0  0  0  0  0  0  0  0
  1  2  1  0
  2  3  1  0
  2  4  2  3
  4  5  1  0
  5  6  2  0
  5  7  1  0
  7  8  1  0
  8  9  1  0
  9 10  1  0
  9 11  2  0
  8 12  2  0
 12 13  1  0
 13 14  2  0
 14 15  1  0
 15 16  2  0
 16 17  1  0
 17 18  1  0
 18 19  1  0
 19 20  1  0
 19 21  1  0
 16 22  1  0
 22 23  2  0
 23  7  1  0
 23 13  1  0
 21 17  1  0
  1 24  1  0
  1 25  1  0
  1 26  1  0
  3 27  1  0
  3 28  1  0
  3 29  1  0
  4 30  1  0
 10 31  1  0
 10 32  1  0
 12 33  1  0
 14 34  1  0
 15 35  1  0
 18 36  1  0
 18 37  1  0
 19 38  1  0
 20 39  1  0
 21 40  1  0
 21 41  1  0
 22 42  1  0
M  END
>  <UniqueID>  (58) 
57

>  <SMILES>  (58) 
CC(C)=CC(=O)n1c(C(N)=O)cc2ccc(N3CC(O)C3)cc21

>  <Energy>  (58) 
129.2324233942736

>  <Genealogy>  (58) 
CC(C)=CC(=O)n1c(C(N)=O)cc2ccc(N3CC(O)C3)cc21 (3D coordinates assigned)
CC(C)=CC(=O)n1c(C(N)=O)cc2ccc(N3CC(O)C3)cc21 (nonaromatic ring conformer: 129.2324233942736 kcal/mol)

>  <smiles>  (58) 
CC(C)=CC(=O)n1c(C(N)=O)cc2ccc(N3CC(O)C3)cc21

>  <score_type>  (58) 
oracle

>  <origin>  (58) 
adg

>  <m_score__min__energy>  (58) 
-8.5700000000000003

>  <m_primary>  (58) 
energy

$$$$
59:0
     RDKit          3D

 45 46  0  0  0  0  0  0  0  0999 V2000
   -7.9280   18.1460  -32.7180 C   0  0  0  0  0  0  0  0  0  0  0  0
   -7.8170   19.5570  -32.2260 C   0  0  0  0  0  0  0  0  0  0  0  0
   -8.9790   20.3590  -32.1190 C   0  0  0  0  0  0  0  0  0  0  0  0
   -8.8870   21.6980  -31.7050 C   0  0  0  0  0  0  0  0  0  0  0  0
   -7.6250   22.2040  -31.4110 C   0  0  0  0  0  0  0  0  0  0  0  0
   -7.2460   23.4640  -31.0070 C   0  0  0  0  0  0  0  0  0  0  0  0
   -5.8620   23.4030  -30.8580 C   0  0  0  0  0  0  0  0  0  0  0  0
   -5.0510   24.5240  -30.3400 C   0  0  0  0  0  0  0  0  0  0  0  0
   -4.8830   24.7330  -28.9370 N   0  0  0  0  0  0  0  0  0  0  0  0
   -4.5410   25.3460  -31.1490 O   0  0  0  0  0  0  0  0  0  0  0  0
   -5.4020   22.1610  -31.1770 N   0  0  0  0  0  0  0  0  0  0  0  0
   -4.0410   21.7080  -31.2330 C   0  0  0  0  0  0  0  0  0  0  0  0
   -3.3150   22.0390  -32.2110 O   0  0  0  0  0  0  0  0  0  0  0  0
   -3.4640   20.8710  -30.1300 C   0  0  0  0  0  0  0  0  0  0  0  0
   -3.3200   21.6810  -28.8850 C   0  0  0  0  0  0  0  0  0  0  0  0
   -4.3140   22.3110  -28.4290 O   0  0  0  0  0  0  0  0  0  0  0  0
   -2.0920   21.6980  -28.2140 O   0  0  0  0  0  0  0  0  0  0  0  0
   -1.2270   22.8320  -28.1950 C   0  0  0  0  0  0  0  0  0  0  0  0
   -1.7390   23.9540  -29.1110 C   0  0  0  0  0  0  0  0  0  0  0  0
   -2.1360   25.1580  -28.3420 N   0  0  0  0  0  0  0  0  0  0  0  0
   -2.6230   24.7990  -26.9990 C   0  0  0  0  0  0  0  0  0  0  0  0
   -0.9850   26.0670  -28.2160 C   0  0  0  0  0  0  0  0  0  0  0  0
   -6.4930   21.4390  -31.5080 C   0  0  0  0  0  0  0  0  0  0  0  0
   -6.5510   20.1080  -31.9380 C   0  0  0  0  0  0  0  0  0  0  0  0
   -7.9819   17.4613  -31.8588 H   0  0  0  0  0  0  0  0  0  0  0  0
   -8.8372   18.0409  -33.3282 H   0  0  0  0  0  0  0  0  0  0  0  0
   -7.0464   17.9000  -33.3282 H   0  0  0  0  0  0  0  0  0  0  0  0
   -9.9622   19.9297  -32.3622 H   0  0  0  0  0  0  0  0  0  0  0  0
   -9.7850   22.3270  -31.6160 H   0  0  0  0  0  0  0  0  0  0  0  0
   -7.8973   24.3342  -30.8377 H   0  0  0  0  0  0  0  0  0  0  0  0
   -4.3120   25.5370  -28.5930 H   0  0  0  0  0  0  0  0  0  0  0  0
   -5.4330   24.1830  -28.2420 H   0  0  0  0  0  0  0  0  0  0  0  0
   -4.1320   20.0195  -29.9335 H   0  0  0  0  0  0  0  0  0  0  0  0
   -2.4719   20.5091  -30.4376 H   0  0  0  0  0  0  0  0  0  0  0  0
   -1.1629   23.2140  -27.1654 H   0  0  0  0  0  0  0  0  0  0  0  0
   -0.2391   22.5153  -28.5608 H   0  0  0  0  0  0  0  0  0  0  0  0
   -0.9408   24.2295  -29.8160 H   0  0  0  0  0  0  0  0  0  0  0  0
   -2.6268   23.5813  -29.6429 H   0  0  0  0  0  0  0  0  0  0  0  0
   -1.9831   25.2707  -26.2387 H   0  0  0  0  0  0  0  0  0  0  0  0
   -3.6577   25.1520  -26.8777 H   0  0  0  0  0  0  0  0  0  0  0  0
   -2.5919   23.7062  -26.8777 H   0  0  0  0  0  0  0  0  0  0  0  0
   -0.7680   26.2384  -27.1513 H   0  0  0  0  0  0  0  0  0  0  0  0
   -0.1068   25.6161  -28.7013 H   0  0  0  0  0  0  0  0  0  0  0  0
   -1.2201   27.0258  -28.7013 H   0  0  0  0  0  0  0  0  0  0  0  0
   -5.6351   19.5088  -32.0481 H   0  0  0  0  0  0  0  0  0  0  0  0
  1  2  1  0
  2  3  2  0
  3  4  1  0
  4  5  2  0
  5  6  1  0
  6  7  2  0
  7  8  1  0
  8  9  1  0
  8 10  2  0
  7 11  1  0
 11 12  1  0
 12 13  2  0
 12 14  1  0
 14 15  1  0
 15 16  2  0
 15 17  1  0
 17 18  1  0
 18 19  1  0
 19 20  1  0
 20 21  1  0
 20 22  1  0
 11 23  1  0
 23 24  2  0
 24  2  1  0
 23  5  1  0
  1 25  1  0
  1 26  1  0
  1 27  1  0
  3 28  1  0
  4 29  1  0
  6 30  1  0
  9 31  1  0
  9 32  1  0
 14 33  1  0
 14 34  1  0
 18 35  1  0
 18 36  1  0
 19 37  1  0
 19 38  1  0
 21 39  1  0
 21 40  1  0
 21 41  1  0
 22 42  1  0
 22 43  1  0
 22 44  1  0
 24 45  1  0
M  END
>  <UniqueID>  (59) 
58

>  <SMILES>  (59) 
Cc1ccc2cc(C(N)=O)n(C(=O)CC(=O)OCCN(C)C)c2c1

>  <Energy>  (59) 
80.39421168369792

>  <Genealogy>  (59) 
Cc1ccc2cc(C(N)=O)n(C(=O)CC(=O)OCCN(C)C)c2c1 (3D coordinates assigned)
Cc1ccc2cc(C(N)=O)n(C(=O)CC(=O)OCCN(C)C)c2c1 (optimized conformer: 80.39421168369792 kcal/mol)

>  <smiles>  (59) 
Cc1ccc2cc(C(N)=O)n(C(=O)CC(=O)OCCN(C)C)c2c1

>  <score_type>  (59) 
oracle

>  <origin>  (59) 
adg

>  <m_score__min__energy>  (59) 
-8.3699999999999992

>  <m_primary>  (59) 
energy

$$$$
60:0
     RDKit          3D

 47 48  0  0  0  0  0  0  0  0999 V2000
   -3.2980   16.7280  -34.1390 C   0  0  0  0  0  0  0  0  0  0  0  0
   -4.2480   17.8090  -33.8240 N   0  0  0  0  0  0  0  0  0  0  0  0
   -3.5400   19.1020  -33.8450 C   0  0  0  0  0  0  0  0  0  0  0  0
   -5.3680   17.7900  -34.7910 C   0  0  0  0  0  0  0  0  0  0  0  0
   -6.4650   16.7840  -34.3990 C   0  0  0  0  0  0  0  0  0  0  0  0
   -7.2370   17.1710  -33.1310 C   0  0  0  0  0  0  0  0  0  0  0  0
   -6.4460   18.0660  -32.2840 N   0  0  0  0  0  0  0  0  0  0  0  0
   -6.7680   19.4430  -32.0170 C   0  0  0  0  0  0  0  0  0  0  0  0
   -8.0970   19.9370  -32.1080 C   0  0  0  0  0  0  0  0  0  0  0  0
   -8.3770   21.2930  -31.8690 C   0  0  0  0  0  0  0  0  0  0  0  0
   -7.3210   22.1270  -31.5200 C   0  0  0  0  0  0  0  0  0  0  0  0
   -7.3090   23.4790  -31.2590 C   0  0  0  0  0  0  0  0  0  0  0  0
   -5.9820   23.7860  -30.9630 C   0  0  0  0  0  0  0  0  0  0  0  0
   -5.5230   25.1260  -30.5300 C   0  0  0  0  0  0  0  0  0  0  0  0
   -4.1870   25.5610  -30.7940 N   0  0  0  0  0  0  0  0  0  0  0  0
   -6.3190   25.9110  -29.9480 O   0  0  0  0  0  0  0  0  0  0  0  0
   -5.2060   22.6680  -31.0420 N   0  0  0  0  0  0  0  0  0  0  0  0
   -3.7850   22.5730  -30.8520 C   0  0  0  0  0  0  0  0  0  0  0  0
   -3.0000   22.8540  -31.8000 O   0  0  0  0  0  0  0  0  0  0  0  0
   -3.2760   22.1570  -29.6180 O   0  0  0  0  0  0  0  0  0  0  0  0
   -2.8320   23.0590  -28.6080 C   0  0  0  0  0  0  0  0  0  0  0  0
   -1.9350   24.0990  -29.2010 C   0  0  0  0  0  0  0  0  0  0  0  0
   -2.3510   25.2790  -29.3520 O   0  0  0  0  0  0  0  0  0  0  0  0
   -0.6610   23.7560  -29.6400 O   0  0  0  0  0  0  0  0  0  0  0  0
   -6.0410   21.6620  -31.3850 C   0  0  0  0  0  0  0  0  0  0  0  0
   -5.7290   20.3210  -31.6370 C   0  0  0  0  0  0  0  0  0  0  0  0
   -2.9152   16.2924  -33.2043 H   0  0  0  0  0  0  0  0  0  0  0  0
   -3.8094   15.9493  -34.7240 H   0  0  0  0  0  0  0  0  0  0  0  0
   -2.4601   17.1351  -34.7240 H   0  0  0  0  0  0  0  0  0  0  0  0
   -3.3568   19.4365  -32.8132 H   0  0  0  0  0  0  0  0  0  0  0  0
   -2.5797   18.9857  -34.3687 H   0  0  0  0  0  0  0  0  0  0  0  0
   -4.1552   19.8485  -34.3687 H   0  0  0  0  0  0  0  0  0  0  0  0
   -5.8113   18.7956  -34.8378 H   0  0  0  0  0  0  0  0  0  0  0  0
   -4.9636   17.4819  -35.7664 H   0  0  0  0  0  0  0  0  0  0  0  0
   -7.1804   16.7096  -35.2312 H   0  0  0  0  0  0  0  0  0  0  0  0
   -5.9624   15.8285  -34.1884 H   0  0  0  0  0  0  0  0  0  0  0  0
   -8.1688   17.6796  -33.4191 H   0  0  0  0  0  0  0  0  0  0  0  0
   -7.4559   16.2552  -32.5624 H   0  0  0  0  0  0  0  0  0  0  0  0
   -5.4910   17.7310  -32.0280 H   0  0  0  0  0  0  0  0  0  0  0  0
   -8.9159   19.2503  -32.3685 H   0  0  0  0  0  0  0  0  0  0  0  0
   -9.4018   21.6832  -31.9555 H   0  0  0  0  0  0  0  0  0  0  0  0
   -8.1647   24.1699  -31.2797 H   0  0  0  0  0  0  0  0  0  0  0  0
   -3.4860   24.9250  -31.2320 H   0  0  0  0  0  0  0  0  0  0  0  0
   -3.8780   26.5110  -30.4930 H   0  0  0  0  0  0  0  0  0  0  0  0
   -3.7038   23.5494  -28.1503 H   0  0  0  0  0  0  0  0  0  0  0  0
   -2.2736   22.4965  -27.8452 H   0  0  0  0  0  0  0  0  0  0  0  0
   -4.6950   19.9581  -31.5410 H   0  0  0  0  0  0  0  0  0  0  0  0
  1  2  1  0
  2  3  1  0
  2  4  1  0
  4  5  1  0
  5  6  1  0
  6  7  1  0
  7  8  1  0
  8  9  2  0
  9 10  1  0
 10 11  2  0
 11 12  1  0
 12 13  2  0
 13 14  1  0
 14 15  1  0
 14 16  2  0
 13 17  1  0
 17 18  1  0
 18 19  2  0
 18 20  1  0
 20 21  1  0
 21 22  1  0
 22 23  2  0
 22 24  1  0
 17 25  1  0
 25 26  2  0
 26  8  1  0
 25 11  1  0
  1 27  1  0
  1 28  1  0
  1 29  1  0
  3 30  1  0
  3 31  1  0
  3 32  1  0
  4 33  1  0
  4 34  1  0
  5 35  1  0
  5 36  1  0
  6 37  1  0
  6 38  1  0
  7 39  1  0
  9 40  1  0
 10 41  1  0
 12 42  1  0
 15 43  1  0
 15 44  1  0
 21 45  1  0
 21 46  1  0
 26 47  1  0
M  CHG  1  24  -1
M  END
>  <UniqueID>  (60) 
59

>  <SMILES>  (60) 
CN(C)CCCNc1ccc2cc(C(N)=O)n(C(=O)OCC(=O)[O-])c2c1

>  <Energy>  (60) 
80.57140426235598

>  <Genealogy>  (60) 
CN(C)CCCNc1ccc2cc(C(N)=O)n(C(=O)OCC(=O)[O-])c2c1 (protonated)
CN(C)CCCNc1ccc2cc(C(N)=O)n(C(=O)OCC(=O)[O-])c2c1 (3D coordinates assigned)
CN(C)CCCNc1ccc2cc(C(N)=O)n(C(=O)OCC(=O)[O-])c2c1 (optimized conformer: 80.57140426235598 kcal/mol)

>  <smiles>  (60) 
CN(C)CCCNc1ccc2cc(C(N)=O)n(C(=O)OCC(=O)O)c2c1

>  <score_type>  (60) 
oracle

>  <origin>  (60) 
adg

>  <m_score__min__energy>  (60) 
-10.859999999999999

>  <m_primary>  (60) 
energy

$$$$
61:0
     RDKit          3D

 45 46  0  0  0  0  0  0  0  0999 V2000
   -2.0410   19.5730  -26.7480 C   0  0  0  0  0  0  0  0  0  0  0  0
   -1.2560   19.9790  -27.7510 C   0  0  0  0  0  0  0  0  0  0  0  0
   -0.1260   20.9430  -27.5200 C   0  0  0  0  0  0  0  0  0  0  0  0
    0.0220   21.8180  -28.6370 O   0  0  0  0  0  0  0  0  0  0  0  0
   -0.1350   23.2070  -28.5510 C   0  0  0  0  0  0  0  0  0  0  0  0
    0.8630   23.9730  -28.6480 O   0  0  0  0  0  0  0  0  0  0  0  0
   -1.5080   23.7910  -28.3650 C   0  0  1  0  0  0  0  0  0  0  0  0
   -1.4100   25.2500  -27.8890 C   0  0  0  0  0  0  0  0  0  0  0  0
   -1.5210   26.1470  -28.9650 O   0  0  0  0  0  0  0  0  0  0  0  0
   -2.2780   23.6860  -29.6090 N   0  0  0  0  0  0  0  0  0  0  0  0
   -3.1410   22.5670  -29.8750 C   0  0  0  0  0  0  0  0  0  0  0  0
   -3.3220   21.6870  -28.9900 O   0  0  0  0  0  0  0  0  0  0  0  0
   -3.7980   22.4200  -31.1870 C   0  0  0  0  0  0  0  0  0  0  0  0
   -3.1220   22.1040  -32.2020 O   0  0  0  0  0  0  0  0  0  0  0  0
   -5.2130   22.6190  -31.3150 N   0  0  0  0  0  0  0  0  0  0  0  0
   -5.9240   23.7500  -31.0480 C   0  0  0  0  0  0  0  0  0  0  0  0
   -5.3630   25.0490  -30.6140 C   0  0  0  0  0  0  0  0  0  0  0  0
   -3.9620   25.3020  -30.6640 N   0  0  0  0  0  0  0  0  0  0  0  0
   -6.1370   25.9560  -30.2050 O   0  0  0  0  0  0  0  0  0  0  0  0
   -7.2810   23.5370  -31.2920 C   0  0  0  0  0  0  0  0  0  0  0  0
   -7.3760   22.2300  -31.7160 C   0  0  0  0  0  0  0  0  0  0  0  0
   -8.4890   21.4890  -32.1000 C   0  0  0  0  0  0  0  0  0  0  0  0
   -8.2900   20.1520  -32.4850 C   0  0  0  0  0  0  0  0  0  0  0  0
   -6.9940   19.5750  -32.4620 C   0  0  0  0  0  0  0  0  0  0  0  0
   -6.7920   18.1530  -32.9200 C   0  0  0  0  0  0  0  0  0  0  0  0
   -7.9560   17.4370  -32.7070 F   0  0  0  0  0  0  0  0  0  0  0  0
   -5.7600   17.5580  -32.2150 F   0  0  0  0  0  0  0  0  0  0  0  0
   -6.4770   18.1100  -34.2680 F   0  0  0  0  0  0  0  0  0  0  0  0
   -5.8850   20.3700  -32.0890 C   0  0  0  0  0  0  0  0  0  0  0  0
   -6.1140   21.7000  -31.7200 C   0  0  0  0  0  0  0  0  0  0  0  0
   -2.8615   18.8668  -26.9430 H   0  0  0  0  0  0  0  0  0  0  0  0
   -1.8664   19.9451  -25.7277 H   0  0  0  0  0  0  0  0  0  0  0  0
   -1.4409   19.5996  -28.7668 H   0  0  0  0  0  0  0  0  0  0  0  0
   -0.3368   21.5384  -26.6194 H   0  0  0  0  0  0  0  0  0  0  0  0
    0.8058   20.3733  -27.3891 H   0  0  0  0  0  0  0  0  0  0  0  0
   -2.0374   23.2184  -27.5892 H   0  0  0  0  0  0  0  0  0  0  0  0
   -2.2206   25.4482  -27.1723 H   0  0  0  0  0  0  0  0  0  0  0  0
   -0.4277   25.3954  -27.4159 H   0  0  0  0  0  0  0  0  0  0  0  0
   -2.0130   25.6760  -29.6870 H   0  0  0  0  0  0  0  0  0  0  0  0
   -2.2040   24.4420  -30.3280 H   0  0  0  0  0  0  0  0  0  0  0  0
   -3.4510   25.6650  -29.8290 H   0  0  0  0  0  0  0  0  0  0  0  0
   -8.1013   24.2598  -31.1713 H   0  0  0  0  0  0  0  0  0  0  0  0
   -9.4941   21.9359  -32.1022 H   0  0  0  0  0  0  0  0  0  0  0  0
   -9.1492   19.5458  -32.8080 H   0  0  0  0  0  0  0  0  0  0  0  0
   -4.8672   19.9527  -32.0891 H   0  0  0  0  0  0  0  0  0  0  0  0
  1  2  2  0
  2  3  1  0
  3  4  1  0
  4  5  1  0
  5  6  2  0
  5  7  1  0
  7  8  1  0
  8  9  1  0
  7 10  1  0
 10 11  1  0
 11 12  2  0
 11 13  1  0
 13 14  2  0
 13 15  1  0
 15 16  1  0
 16 17  1  0
 17 18  1  0
 17 19  2  0
 16 20  2  0
 20 21  1  0
 21 22  2  0
 22 23  1  0
 23 24  2  0
 24 25  1  0
 25 26  1  0
 25 27  1  0
 25 28  1  0
 24 29  1  0
 29 30  2  0
 30 15  1  0
 30 21  1  0
  1 31  1  0
  1 32  1  0
  2 33  1  0
  3 34  1  0
  3 35  1  0
  7 36  1  1
  8 37  1  0
  8 38  1  0
  9 39  1  0
 10 40  1  0
 18 41  1  0
 20 42  1  0
 22 43  1  0
 23 44  1  0
 29 45  1  0
M  CHG  1  18  -1
M  END
>  <UniqueID>  (61) 
60

>  <SMILES>  (61) 
C=CCOC(=O)[C@@H](CO)NC(=O)C(=O)n1c(C([NH-])=O)cc2ccc(C(F)(F)F)cc21

>  <Energy>  (61) 
75.92896970062122

>  <Genealogy>  (61) 
C=CCOC(=O)C(CO)NC(=O)C(=O)n1c(C([NH-])=O)cc2ccc(C(F)(F)F)cc21 (protonated)
C=CCOC(=O)[C@@H](CO)NC(=O)C(=O)n1c(C([NH-])=O)cc2ccc(C(F)(F)F)cc21 (chirality)
C=CCOC(=O)[C@@H](CO)NC(=O)C(=O)n1c(C([NH-])=O)cc2ccc(C(F)(F)F)cc21 (3D coordinates assigned)
C=CCOC(=O)[C@@H](CO)NC(=O)C(=O)n1c(C([NH-])=O)cc2ccc(C(F)(F)F)cc21 (optimized conformer: 75.92896970062122 kcal/mol)

>  <smiles>  (61) 
C=CCOC(=O)C(CO)NC(=O)C(=O)n1c(C(N)=O)cc2ccc(C(F)(F)F)cc21

>  <score_type>  (61) 
oracle

>  <origin>  (61) 
adg

>  <m_score__min__energy>  (61) 
-11.41

>  <m_primary>  (61) 
energy

$$$$
62:0
     RDKit          3D

 30 31  0  0  0  0  0  0  0  0999 V2000
   -4.1040   23.2780  -27.7850 C   0  0  0  0  0  0  0  0  0  0  0  0
   -3.4570   22.4200  -28.7170 O   0  0  0  0  0  0  0  0  0  0  0  0
   -2.9450   22.8800  -29.9340 C   0  0  0  0  0  0  0  0  0  0  0  0
   -1.8550   23.5140  -29.9720 O   0  0  0  0  0  0  0  0  0  0  0  0
   -3.6940   22.6330  -31.1740 C   0  0  0  0  0  0  0  0  0  0  0  0
   -3.0830   22.2150  -32.1950 O   0  0  0  0  0  0  0  0  0  0  0  0
   -5.1100   22.8580  -31.2370 N   0  0  0  0  0  0  0  0  0  0  0  0
   -5.7920   23.9790  -30.8720 C   0  0  0  0  0  0  0  0  0  0  0  0
   -5.1890   25.2590  -30.4420 C   0  0  0  0  0  0  0  0  0  0  0  0
   -3.8650   25.6150  -30.8300 N   0  0  0  0  0  0  0  0  0  0  0  0
   -5.8630   26.0630  -29.7450 O   0  0  0  0  0  0  0  0  0  0  0  0
   -7.1650   23.7790  -31.0070 C   0  0  0  0  0  0  0  0  0  0  0  0
   -7.3020   22.4870  -31.4650 C   0  0  0  0  0  0  0  0  0  0  0  0
   -8.4500   21.7600  -31.7670 C   0  0  0  0  0  0  0  0  0  0  0  0
   -8.2920   20.4320  -32.1990 C   0  0  0  0  0  0  0  0  0  0  0  0
   -7.0030   19.8470  -32.2950 C   0  0  0  0  0  0  0  0  0  0  0  0
   -6.8460   18.4340  -32.7970 C   0  0  0  0  0  0  0  0  0  0  0  0
   -8.0420   17.7460  -32.7010 F   0  0  0  0  0  0  0  0  0  0  0  0
   -6.4480   18.4640  -34.1210 F   0  0  0  0  0  0  0  0  0  0  0  0
   -5.8940   17.7560  -32.0560 F   0  0  0  0  0  0  0  0  0  0  0  0
   -5.8610   20.6280  -32.0000 C   0  0  0  0  0  0  0  0  0  0  0  0
   -6.0480   21.9520  -31.5910 C   0  0  0  0  0  0  0  0  0  0  0  0
   -3.8617   22.9566  -26.7613 H   0  0  0  0  0  0  0  0  0  0  0  0
   -3.7582   24.3112  -27.9365 H   0  0  0  0  0  0  0  0  0  0  0  0
   -5.1924   23.2297  -27.9365 H   0  0  0  0  0  0  0  0  0  0  0  0
   -3.0390   25.2990  -30.2740 H   0  0  0  0  0  0  0  0  0  0  0  0
   -7.9682   24.4996  -30.7933 H   0  0  0  0  0  0  0  0  0  0  0  0
   -9.4489   22.2105  -31.6706 H   0  0  0  0  0  0  0  0  0  0  0  0
   -9.1789   19.8386  -32.4661 H   0  0  0  0  0  0  0  0  0  0  0  0
   -4.8501   20.2039  -32.0902 H   0  0  0  0  0  0  0  0  0  0  0  0
  1  2  1  0
  2  3  1  0
  3  4  2  0
  3  5  1  0
  5  6  2  0
  5  7  1  0
  7  8  1  0
  8  9  1  0
  9 10  1  0
  9 11  2  0
  8 12  2  0
 12 13  1  0
 13 14  2  0
 14 15  1  0
 15 16  2  0
 16 17  1  0
 17 18  1  0
 17 19  1  0
 17 20  1  0
 16 21  1  0
 21 22  2  0
 22  7  1  0
 22 13  1  0
  1 23  1  0
  1 24  1  0
  1 25  1  0
 10 26  1  0
 12 27  1  0
 14 28  1  0
 15 29  1  0
 21 30  1  0
M  CHG  1  10  -1
M  END
>  <UniqueID>  (62) 
61

>  <SMILES>  (62) 
COC(=O)C(=O)n1c(C([NH-])=O)cc2ccc(C(F)(F)F)cc21

>  <Energy>  (62) 
68.07847332618826

>  <Genealogy>  (62) 
COC(=O)C(=O)n1c(C([NH-])=O)cc2ccc(C(F)(F)F)cc21 (protonated)
COC(=O)C(=O)n1c(C([NH-])=O)cc2ccc(C(F)(F)F)cc21 (3D coordinates assigned)
COC(=O)C(=O)n1c(C([NH-])=O)cc2ccc(C(F)(F)F)cc21 (optimized conformer: 68.07847332618826 kcal/mol)

>  <smiles>  (62) 
COC(=O)C(=O)n1c(C(N)=O)cc2ccc(C(F)(F)F)cc21

>  <score_type>  (62) 
oracle

>  <origin>  (62) 
adg

>  <m_score__min__energy>  (62) 
-8.8300000000000001

>  <m_primary>  (62) 
energy

$$$$
63:0
     RDKit          3D

 45 46  0  0  0  0  0  0  0  0999 V2000
   -3.8840   25.5460  -30.8430 N   0  0  0  0  0  0  0  0  0  0  0  0
   -5.2170   25.2030  -30.4720 C   0  0  0  0  0  0  0  0  0  0  0  0
   -5.8820   26.0000  -29.7590 O   0  0  0  0  0  0  0  0  0  0  0  0
   -5.8440   23.9520  -30.9490 C   0  0  0  0  0  0  0  0  0  0  0  0
   -7.2120   23.8190  -31.1820 C   0  0  0  0  0  0  0  0  0  0  0  0
   -7.3740   22.5500  -31.6950 C   0  0  0  0  0  0  0  0  0  0  0  0
   -8.5270   21.8840  -32.1020 C   0  0  0  0  0  0  0  0  0  0  0  0
   -8.3970   20.5630  -32.5640 C   0  0  0  0  0  0  0  0  0  0  0  0
   -7.1280   19.9320  -32.6070 C   0  0  0  0  0  0  0  0  0  0  0  0
   -7.0160   18.4880  -33.0260 C   0  0  0  0  0  0  0  0  0  0  0  0
   -5.7980   18.2510  -33.8640 C   0  0  0  0  0  0  0  0  0  0  0  0
   -5.8100   18.5470  -35.0890 O   0  0  0  0  0  0  0  0  0  0  0  0
   -4.6440   17.7380  -33.2620 O   0  0  0  0  0  0  0  0  0  0  0  0
   -3.4890   17.3610  -34.0030 C   0  0  0  0  0  0  0  0  0  0  0  0
   -2.4800   18.5050  -33.9800 C   0  0  0  0  0  0  0  0  0  0  0  0
   -3.1420   19.7390  -34.0050 O   0  0  0  0  0  0  0  0  0  0  0  0
   -5.9820   20.6400  -32.1740 C   0  0  0  0  0  0  0  0  0  0  0  0
   -6.1390   21.9610  -31.7470 C   0  0  0  0  0  0  0  0  0  0  0  0
   -5.1890   22.8070  -31.2960 N   0  0  0  0  0  0  0  0  0  0  0  0
   -3.7880   22.5200  -31.2090 C   0  0  0  0  0  0  0  0  0  0  0  0
   -3.2360   21.8090  -32.0920 O   0  0  0  0  0  0  0  0  0  0  0  0
   -3.0490   23.0450  -30.1400 O   0  0  0  0  0  0  0  0  0  0  0  0
   -3.5710   23.3600  -28.8810 C   0  0  0  0  0  0  0  0  0  0  0  0
   -4.4470   22.6300  -28.3400 O   0  0  0  0  0  0  0  0  0  0  0  0
   -3.0930   24.4960  -28.2250 O   0  0  0  0  0  0  0  0  0  0  0  0
   -1.8390   24.5290  -27.5520 C   0  0  0  0  0  0  0  0  0  0  0  0
   -0.7470   24.9470  -28.5320 C   0  0  0  0  0  0  0  0  0  0  0  0
   -1.1940   25.9980  -29.3430 O   0  0  0  0  0  0  0  0  0  0  0  0
   -3.0720   25.2500  -30.2580 H   0  0  0  0  0  0  0  0  0  0  0  0
   -7.9959   24.5679  -30.9959 H   0  0  0  0  0  0  0  0  0  0  0  0
   -9.5097   22.3767  -32.0631 H   0  0  0  0  0  0  0  0  0  0  0  0
   -9.2897   20.0125  -32.8959 H   0  0  0  0  0  0  0  0  0  0  0  0
   -6.9582   17.8584  -32.1259 H   0  0  0  0  0  0  0  0  0  0  0  0
   -7.9020   18.2339  -33.6264 H   0  0  0  0  0  0  0  0  0  0  0  0
   -3.0388   16.4648  -33.5512 H   0  0  0  0  0  0  0  0  0  0  0  0
   -3.7735   17.1413  -35.0426 H   0  0  0  0  0  0  0  0  0  0  0  0
   -1.8749   18.4365  -33.0639 H   0  0  0  0  0  0  0  0  0  0  0  0
   -1.8329   18.4286  -34.8663 H   0  0  0  0  0  0  0  0  0  0  0  0
   -4.0760   19.5540  -34.2810 H   0  0  0  0  0  0  0  0  0  0  0  0
   -4.9913   20.1619  -32.1736 H   0  0  0  0  0  0  0  0  0  0  0  0
   -1.8858   25.2524  -26.7247 H   0  0  0  0  0  0  0  0  0  0  0  0
   -1.6106   23.5298  -27.1527 H   0  0  0  0  0  0  0  0  0  0  0  0
    0.1389   25.2755  -27.9688 H   0  0  0  0  0  0  0  0  0  0  0  0
   -0.4926   24.0878  -29.1700 H   0  0  0  0  0  0  0  0  0  0  0  0
   -2.0280   25.6840  -29.7810 H   0  0  0  0  0  0  0  0  0  0  0  0
  1  2  1  0
  2  3  2  0
  2  4  1  0
  4  5  2  0
  5  6  1  0
  6  7  2  0
  7  8  1  0
  8  9  2  0
  9 10  1  0
 10 11  1  0
 11 12  2  0
 11 13  1  0
 13 14  1  0
 14 15  1  0
 15 16  1  0
  9 17  1  0
 17 18  2  0
 18 19  1  0
 19 20  1  0
 20 21  2  0
 20 22  1  0
 22 23  1  0
 23 24  2  0
 23 25  1  0
 25 26  1  0
 26 27  1  0
 27 28  1  0
 19  4  1  0
 18  6  1  0
  1 29  1  0
  5 30  1  0
  7 31  1  0
  8 32  1  0
 10 33  1  0
 10 34  1  0
 14 35  1  0
 14 36  1  0
 15 37  1  0
 15 38  1  0
 16 39  1  0
 17 40  1  0
 26 41  1  0
 26 42  1  0
 27 43  1  0
 27 44  1  0
 28 45  1  0
M  CHG  1   1  -1
M  END
>  <UniqueID>  (63) 
62

>  <SMILES>  (63) 
[NH-]C(=O)c1cc2ccc(CC(=O)OCCO)cc2n1C(=O)OC(=O)OCCO

>  <Energy>  (63) 
73.71556244877655

>  <Genealogy>  (63) 
[NH-]C(=O)c1cc2ccc(CC(=O)OCCO)cc2n1C(=O)OC(=O)OCCO (protonated)
[NH-]C(=O)c1cc2ccc(CC(=O)OCCO)cc2n1C(=O)OC(=O)OCCO (3D coordinates assigned)
[NH-]C(=O)c1cc2ccc(CC(=O)OCCO)cc2n1C(=O)OC(=O)OCCO (optimized conformer: 73.71556244877655 kcal/mol)

>  <smiles>  (63) 
NC(=O)c1cc2ccc(CC(=O)OCCO)cc2n1C(=O)OC(=O)OCCO

>  <score_type>  (63) 
oracle

>  <origin>  (63) 
adg

>  <m_score__min__energy>  (63) 
-9.6099999999999994

>  <m_primary>  (63) 
energy

$$$$
64:0
     RDKit          3D

 30 31  0  0  0  0  0  0  0  0999 V2000
   -3.9020   25.2300  -30.3510 N   0  0  0  0  0  0  0  0  0  0  0  0
   -5.0960   24.5910  -29.8980 C   0  0  0  0  0  0  0  0  0  0  0  0
   -5.7370   25.0920  -28.9350 O   0  0  0  0  0  0  0  0  0  0  0  0
   -5.6280   23.3930  -30.5770 C   0  0  0  0  0  0  0  0  0  0  0  0
   -6.9760   23.2180  -30.8740 C   0  0  0  0  0  0  0  0  0  0  0  0
   -7.0450   22.0250  -31.5560 C   0  0  0  0  0  0  0  0  0  0  0  0
   -8.1470   21.3630  -32.0880 C   0  0  0  0  0  0  0  0  0  0  0  0
   -7.9330   20.1270  -32.7190 C   0  0  0  0  0  0  0  0  0  0  0  0
   -6.6320   19.5600  -32.7820 C   0  0  0  0  0  0  0  0  0  0  0  0
   -6.4090   18.2490  -33.4920 C   0  0  0  0  0  0  0  0  0  0  0  0
   -5.3550   17.5830  -32.8940 F   0  0  0  0  0  0  0  0  0  0  0  0
   -6.1100   18.4590  -34.8270 F   0  0  0  0  0  0  0  0  0  0  0  0
   -7.5420   17.4570  -33.4210 F   0  0  0  0  0  0  0  0  0  0  0  0
   -5.5360   20.2750  -32.2480 C   0  0  0  0  0  0  0  0  0  0  0  0
   -5.7750   21.5160  -31.6440 C   0  0  0  0  0  0  0  0  0  0  0  0
   -4.8910   22.3460  -31.0450 N   0  0  0  0  0  0  0  0  0  0  0  0
   -3.4880   22.1060  -30.8450 C   0  0  0  0  0  0  0  0  0  0  0  0
   -3.0270   20.9400  -30.9910 O   0  0  0  0  0  0  0  0  0  0  0  0
   -2.6460   23.1710  -30.4970 O   0  0  0  0  0  0  0  0  0  0  0  0
   -1.6660   23.1290  -29.4960 C   0  0  0  0  0  0  0  0  0  0  0  0
   -1.3730   22.0500  -28.9120 O   0  0  0  0  0  0  0  0  0  0  0  0
   -0.9720   24.3630  -29.1210 C   0  0  0  0  0  0  0  0  0  0  0  0
    0.1780   24.3120  -28.6130 O   0  0  0  0  0  0  0  0  0  0  0  0
   -1.5810   25.5970  -29.3230 O   0  0  0  0  0  0  0  0  0  0  0  0
   -3.4440   24.9460  -31.2450 H   0  0  0  0  0  0  0  0  0  0  0  0
   -3.5200   26.0530  -29.8340 H   0  0  0  0  0  0  0  0  0  0  0  0
   -7.8086   23.8898  -30.6182 H   0  0  0  0  0  0  0  0  0  0  0  0
   -9.1561   21.7951  -32.0164 H   0  0  0  0  0  0  0  0  0  0  0  0
   -8.7820   19.5919  -33.1694 H   0  0  0  0  0  0  0  0  0  0  0  0
   -4.5167   19.8655  -32.3055 H   0  0  0  0  0  0  0  0  0  0  0  0
  1  2  1  0
  2  3  2  0
  2  4  1  0
  4  5  2  0
  5  6  1  0
  6  7  2  0
  7  8  1  0
  8  9  2  0
  9 10  1  0
 10 11  1  0
 10 12  1  0
 10 13  1  0
  9 14  1  0
 14 15  2  0
 15 16  1  0
 16 17  1  0
 17 18  2  0
 17 19  1  0
 19 20  1  0
 20 21  2  0
 20 22  1  0
 22 23  2  0
 22 24  1  0
 16  4  1  0
 15  6  1  0
  1 25  1  0
  1 26  1  0
  5 27  1  0
  7 28  1  0
  8 29  1  0
 14 30  1  0
M  CHG  1  24  -1
M  END
>  <UniqueID>  (64) 
63

>  <SMILES>  (64) 
NC(=O)c1cc2ccc(C(F)(F)F)cc2n1C(=O)OC(=O)C(=O)[O-]

>  <Energy>  (64) 
70.2134814401494

>  <Genealogy>  (64) 
NC(=O)c1cc2ccc(C(F)(F)F)cc2n1C(=O)OC(=O)C(=O)[O-] (protonated)
NC(=O)c1cc2ccc(C(F)(F)F)cc2n1C(=O)OC(=O)C(=O)[O-] (3D coordinates assigned)
NC(=O)c1cc2ccc(C(F)(F)F)cc2n1C(=O)OC(=O)C(=O)[O-] (optimized conformer: 70.2134814401494 kcal/mol)

>  <smiles>  (64) 
NC(=O)c1cc2ccc(C(F)(F)F)cc2n1C(=O)OC(=O)C(=O)O

>  <score_type>  (64) 
oracle

>  <origin>  (64) 
adg

>  <m_score__min__energy>  (64) 
-9.9800000000000004

>  <m_primary>  (64) 
energy

$$$$
65:0
     RDKit          3D

 44 46  0  0  0  0  0  0  0  0999 V2000
   -4.1160   25.5720  -30.3920 N   0  0  0  0  0  0  0  0  0  0  0  0
   -5.4480   25.0640  -30.3360 C   0  0  0  0  0  0  0  0  0  0  0  0
   -6.3050   25.6500  -29.6240 O   0  0  0  0  0  0  0  0  0  0  0  0
   -5.8110   23.8070  -31.0160 C   0  0  0  0  0  0  0  0  0  0  0  0
   -7.1110   23.5230  -31.4140 C   0  0  0  0  0  0  0  0  0  0  0  0
   -7.0650   22.2460  -31.9130 C   0  0  0  0  0  0  0  0  0  0  0  0
   -8.0930   21.4610  -32.4250 C   0  0  0  0  0  0  0  0  0  0  0  0
   -7.7810   20.1660  -32.8640 C   0  0  0  0  0  0  0  0  0  0  0  0
   -6.4540   19.6700  -32.7840 C   0  0  0  0  0  0  0  0  0  0  0  0
   -6.1390   18.3270  -33.2280 N   0  0  0  0  0  0  0  0  0  0  0  0
   -7.0700   17.2220  -32.9380 C   0  0  0  0  0  0  0  0  0  0  0  0
   -6.8080   16.0290  -33.8630 C   0  0  0  0  0  0  0  0  0  0  0  0
   -5.6260   15.1740  -33.3950 C   0  0  0  0  0  0  0  0  0  0  0  0
   -4.3950   15.6810  -33.8750 O   0  0  0  0  0  0  0  0  0  0  0  0
   -4.0620   16.9030  -33.2420 C   0  0  0  0  0  0  0  0  0  0  0  0
   -4.8380   18.0670  -33.8710 C   0  0  0  0  0  0  0  0  0  0  0  0
   -5.4370   20.5070  -32.2590 C   0  0  0  0  0  0  0  0  0  0  0  0
   -5.7710   21.8000  -31.8250 C   0  0  0  0  0  0  0  0  0  0  0  0
   -4.9730   22.7610  -31.2850 N   0  0  0  0  0  0  0  0  0  0  0  0
   -3.5330   22.7470  -31.1530 C   0  0  0  0  0  0  0  0  0  0  0  0
   -2.8120   22.3660  -32.1190 O   0  0  0  0  0  0  0  0  0  0  0  0
   -2.9290   23.1030  -29.9400 O   0  0  0  0  0  0  0  0  0  0  0  0
   -1.5240   23.0550  -29.7170 C   0  0  0  0  0  0  0  0  0  0  0  0
   -1.0510   24.4010  -29.2750 C   0  0  0  0  0  0  0  0  0  0  0  0
    0.1320   24.5520  -28.8650 O   0  0  0  0  0  0  0  0  0  0  0  0
   -1.9390   25.4750  -29.2470 O   0  0  0  0  0  0  0  0  0  0  0  0
   -3.8620   26.4400  -29.8750 H   0  0  0  0  0  0  0  0  0  0  0  0
   -3.3570   25.0490  -30.8850 H   0  0  0  0  0  0  0  0  0  0  0  0
   -7.9895   24.1812  -31.3440 H   0  0  0  0  0  0  0  0  0  0  0  0
   -9.1220   21.8453  -32.4839 H   0  0  0  0  0  0  0  0  0  0  0  0
   -8.5756   19.5264  -33.2758 H   0  0  0  0  0  0  0  0  0  0  0  0
   -6.9370   16.9038  -31.8935 H   0  0  0  0  0  0  0  0  0  0  0  0
   -8.0981   17.5761  -33.1039 H   0  0  0  0  0  0  0  0  0  0  0  0
   -7.7097   15.3996  -33.8913 H   0  0  0  0  0  0  0  0  0  0  0  0
   -6.5609   16.4254  -34.8589 H   0  0  0  0  0  0  0  0  0  0  0  0
   -5.6044   15.1659  -32.2952 H   0  0  0  0  0  0  0  0  0  0  0  0
   -5.7580   14.1568  -33.7924 H   0  0  0  0  0  0  0  0  0  0  0  0
   -4.3137   16.8366  -32.1732 H   0  0  0  0  0  0  0  0  0  0  0  0
   -2.9848   17.0857  -33.3691 H   0  0  0  0  0  0  0  0  0  0  0  0
   -4.2240   18.9763  -33.7930 H   0  0  0  0  0  0  0  0  0  0  0  0
   -5.0448   17.7891  -34.9150 H   0  0  0  0  0  0  0  0  0  0  0  0
   -4.3994   20.1479  -32.1925 H   0  0  0  0  0  0  0  0  0  0  0  0
   -1.3003   22.3120  -28.9373 H   0  0  0  0  0  0  0  0  0  0  0  0
   -1.0114   22.7702  -30.6477 H   0  0  0  0  0  0  0  0  0  0  0  0
  1  2  1  0
  2  3  2  0
  2  4  1  0
  4  5  2  0
  5  6  1  0
  6  7  2  0
  7  8  1  0
  8  9  2  0
  9 10  1  0
 10 11  1  0
 11 12  1  0
 12 13  1  0
 13 14  1  0
 14 15  1  0
 15 16  1  0
  9 17  1  0
 17 18  2  0
 18 19  1  0
 19 20  1  0
 20 21  2  0
 20 22  1  0
 22 23  1  0
 23 24  1  0
 24 25  2  0
 24 26  1  0
 19  4  1  0
 18  6  1  0
 16 10  1  0
  1 27  1  0
  1 28  1  0
  5 29  1  0
  7 30  1  0
  8 31  1  0
 11 32  1  0
 11 33  1  0
 12 34  1  0
 12 35  1  0
 13 36  1  0
 13 37  1  0
 15 38  1  0
 15 39  1  0
 16 40  1  0
 16 41  1  0
 17 42  1  0
 23 43  1  0
 23 44  1  0
M  CHG  1  26  -1
M  END
>  <UniqueID>  (65) 
64

>  <SMILES>  (65) 
NC(=O)c1cc2ccc(N3CCCOCC3)cc2n1C(=O)OCC(=O)[O-]

>  <Energy>  (65) 
90.87090552844761

>  <Genealogy>  (65) 
NC(=O)c1cc2ccc(N3CCCOCC3)cc2n1C(=O)OCC(=O)[O-] (protonated)
NC(=O)c1cc2ccc(N3CCCOCC3)cc2n1C(=O)OCC(=O)[O-] (3D coordinates assigned)
NC(=O)c1cc2ccc(N3CCCOCC3)cc2n1C(=O)OCC(=O)[O-] (nonaromatic ring conformer: 90.87090552844761 kcal/mol)

>  <smiles>  (65) 
NC(=O)c1cc2ccc(N3CCCOCC3)cc2n1C(=O)OCC(=O)O

>  <score_type>  (65) 
oracle

>  <origin>  (65) 
adg

>  <m_score__min__energy>  (65) 
-9.6099999999999994

>  <m_primary>  (65) 
energy

$$$$
66:0
     RDKit          3D

 41 43  0  0  0  0  0  0  0  0999 V2000
   -1.2340   26.0280  -28.9530 N   0  0  0  0  0  0  0  0  0  0  0  0
   -0.5330   25.1950  -28.0310 C   0  0  0  0  0  0  0  0  0  0  0  0
    0.5400   25.6070  -27.5150 O   0  0  0  0  0  0  0  0  0  0  0  0
   -1.0630   23.8600  -27.6980 C   0  0  0  0  0  0  0  0  0  0  0  0
   -0.5830   23.1360  -26.5950 C   0  0  0  0  0  0  0  0  0  0  0  0
   -1.1080   21.8720  -26.3260 C   0  0  0  0  0  0  0  0  0  0  0  0
   -2.1040   21.3430  -27.1460 C   0  0  0  0  0  0  0  0  0  0  0  0
   -2.5740   22.0920  -28.2260 C   0  0  0  0  0  0  0  0  0  0  0  0
   -3.6060   21.5760  -29.0200 O   0  0  0  0  0  0  0  0  0  0  0  0
   -3.4120   21.0670  -30.3380 C   0  0  0  0  0  0  0  0  0  0  0  0
   -4.2500   21.7990  -31.3540 C   0  0  0  0  0  0  0  0  0  0  0  0
   -3.7740   22.0050  -32.5030 O   0  0  0  0  0  0  0  0  0  0  0  0
   -5.5290   22.3520  -31.0130 N   0  0  0  0  0  0  0  0  0  0  0  0
   -5.8110   23.6130  -30.5840 C   0  0  0  0  0  0  0  0  0  0  0  0
   -4.8180   24.6480  -30.2220 C   0  0  0  0  0  0  0  0  0  0  0  0
   -3.9930   24.5160  -29.0630 N   0  0  0  0  0  0  0  0  0  0  0  0
   -4.7150   25.6820  -30.9340 O   0  0  0  0  0  0  0  0  0  0  0  0
   -7.1880   23.8260  -30.5720 C   0  0  0  0  0  0  0  0  0  0  0  0
   -7.7440   22.6390  -31.0000 C   0  0  0  0  0  0  0  0  0  0  0  0
   -9.0740   22.2950  -31.2130 C   0  0  0  0  0  0  0  0  0  0  0  0
   -9.3530   21.0080  -31.7080 C   0  0  0  0  0  0  0  0  0  0  0  0
   -8.3020   20.0970  -31.9910 C   0  0  0  0  0  0  0  0  0  0  0  0
   -8.6230   18.7030  -32.4710 C   0  0  0  0  0  0  0  0  0  0  0  0
   -9.8630   18.6620  -33.0870 F   0  0  0  0  0  0  0  0  0  0  0  0
   -8.6390   17.8220  -31.4040 F   0  0  0  0  0  0  0  0  0  0  0  0
   -7.6600   18.3000  -33.3750 F   0  0  0  0  0  0  0  0  0  0  0  0
   -6.9620   20.4810  -31.7490 C   0  0  0  0  0  0  0  0  0  0  0  0
   -6.7200   21.7650  -31.2520 C   0  0  0  0  0  0  0  0  0  0  0  0
   -2.0400   23.3190  -28.4800 N   0  0  0  0  0  0  0  0  0  0  0  0
   -1.6200   25.6410  -29.8430 H   0  0  0  0  0  0  0  0  0  0  0  0
    0.1994   23.5614  -25.9493 H   0  0  0  0  0  0  0  0  0  0  0  0
   -0.7366   21.2930  -25.4676 H   0  0  0  0  0  0  0  0  0  0  0  0
   -2.5160   20.3434  -26.9434 H   0  0  0  0  0  0  0  0  0  0  0  0
   -2.3512   21.1753  -30.6081 H   0  0  0  0  0  0  0  0  0  0  0  0
   -3.7176   20.0103  -30.3429 H   0  0  0  0  0  0  0  0  0  0  0  0
   -3.2280   25.2040  -28.8870 H   0  0  0  0  0  0  0  0  0  0  0  0
   -4.2000   23.8080  -28.3280 H   0  0  0  0  0  0  0  0  0  0  0  0
   -7.7184   24.7452  -30.2827 H   0  0  0  0  0  0  0  0  0  0  0  0
   -9.8843   23.0080  -31.0008 H   0  0  0  0  0  0  0  0  0  0  0  0
  -10.3966   20.7045  -31.8775 H   0  0  0  0  0  0  0  0  0  0  0  0
   -6.1318   19.7870  -31.9469 H   0  0  0  0  0  0  0  0  0  0  0  0
  1  2  1  0
  2  3  2  0
  2  4  1  0
  4  5  2  0
  5  6  1  0
  6  7  2  0
  7  8  1  0
  8  9  1  0
  9 10  1  0
 10 11  1  0
 11 12  2  0
 11 13  1  0
 13 14  1  0
 14 15  1  0
 15 16  1  0
 15 17  2  0
 14 18  2  0
 18 19  1  0
 19 20  2  0
 20 21  1  0
 21 22  2  0
 22 23  1  0
 23 24  1  0
 23 25  1  0
 23 26  1  0
 22 27  1  0
 27 28  2  0
  8 29  2  0
 29  4  1  0
 28 13  1  0
 28 19  1  0
  1 30  1  0
  5 31  1  0
  6 32  1  0
  7 33  1  0
 10 34  1  0
 10 35  1  0
 16 36  1  0
 16 37  1  0
 18 38  1  0
 20 39  1  0
 21 40  1  0
 27 41  1  0
M  CHG  1   1  -1
M  END
>  <UniqueID>  (66) 
65

>  <SMILES>  (66) 
[NH-]C(=O)c1cccc(OCC(=O)n2c(C(N)=O)cc3ccc(C(F)(F)F)cc32)n1

>  <Energy>  (66) 
79.7115516974972

>  <Genealogy>  (66) 
[NH-]C(=O)c1cccc(OCC(=O)n2c(C(N)=O)cc3ccc(C(F)(F)F)cc32)n1 (protonated)
[NH-]C(=O)c1cccc(OCC(=O)n2c(C(N)=O)cc3ccc(C(F)(F)F)cc32)n1 (3D coordinates assigned)
[NH-]C(=O)c1cccc(OCC(=O)n2c(C(N)=O)cc3ccc(C(F)(F)F)cc32)n1 (optimized conformer: 79.7115516974972 kcal/mol)

>  <smiles>  (66) 
NC(=O)c1cccc(OCC(=O)n2c(C(N)=O)cc3ccc(C(F)(F)F)cc32)n1

>  <score_type>  (66) 
oracle

>  <origin>  (66) 
adg

>  <m_score__min__energy>  (66) 
-11.17

>  <m_primary>  (66) 
energy

$$$$
67:0
     RDKit          3D

 28 29  0  0  0  0  0  0  0  0999 V2000
   -3.5110   25.2910  -30.4910 N   0  0  0  0  0  0  0  0  0  0  0  0
   -4.6700   24.5540  -30.1130 C   0  0  0  0  0  0  0  0  0  0  0  0
   -4.6090   23.7280  -29.1640 O   0  0  0  0  0  0  0  0  0  0  0  0
   -5.9470   24.7270  -30.8740 C   0  0  0  0  0  0  0  0  0  0  0  0
   -6.4170   23.4000  -31.4010 C   0  0  0  0  0  0  0  0  0  0  0  0
   -7.7960   23.0720  -31.3710 C   0  0  0  0  0  0  0  0  0  0  0  0
   -8.2490   21.8420  -31.8770 C   0  0  0  0  0  0  0  0  0  0  0  0
   -7.3080   20.9730  -32.4190 C   0  0  0  0  0  0  0  0  0  0  0  0
   -7.4720   19.7180  -32.9580 C   0  0  0  0  0  0  0  0  0  0  0  0
   -6.1950   19.3100  -33.3420 C   0  0  0  0  0  0  0  0  0  0  0  0
   -5.9150   18.0450  -34.0570 C   0  0  0  0  0  0  0  0  0  0  0  0
   -4.6710   17.8490  -34.7310 N   0  0  0  0  0  0  0  0  0  0  0  0
   -6.7610   17.1130  -34.0490 O   0  0  0  0  0  0  0  0  0  0  0  0
   -5.2770   20.2750  -33.0500 N   0  0  0  0  0  0  0  0  0  0  0  0
   -3.8530   20.2170  -33.2340 C   0  0  0  0  0  0  0  0  0  0  0  0
   -3.2360   21.1900  -33.7430 O   0  0  0  0  0  0  0  0  0  0  0  0
   -3.1420   19.0820  -32.8660 O   0  0  0  0  0  0  0  0  0  0  0  0
   -5.9750   21.2880  -32.4840 C   0  0  0  0  0  0  0  0  0  0  0  0
   -5.4920   22.4970  -31.9700 C   0  0  0  0  0  0  0  0  0  0  0  0
   -3.5630   26.0280  -31.2290 H   0  0  0  0  0  0  0  0  0  0  0  0
   -6.7145   25.1461  -30.2067 H   0  0  0  0  0  0  0  0  0  0  0  0
   -5.7733   25.4094  -31.7191 H   0  0  0  0  0  0  0  0  0  0  0  0
   -8.5174   23.7866  -30.9480 H   0  0  0  0  0  0  0  0  0  0  0  0
   -9.3155   21.5745  -31.8454 H   0  0  0  0  0  0  0  0  0  0  0  0
   -8.4114   19.1555  -33.0637 H   0  0  0  0  0  0  0  0  0  0  0  0
   -4.4670   16.9380  -35.1990 H   0  0  0  0  0  0  0  0  0  0  0  0
   -3.9670   18.6150  -34.8060 H   0  0  0  0  0  0  0  0  0  0  0  0
   -4.4193   22.7377  -32.0082 H   0  0  0  0  0  0  0  0  0  0  0  0
  1  2  1  0
  2  3  2  0
  2  4  1  0
  4  5  1  0
  5  6  2  0
  6  7  1  0
  7  8  2  0
  8  9  1  0
  9 10  2  0
 10 11  1  0
 11 12  1  0
 11 13  2  0
 10 14  1  0
 14 15  1  0
 15 16  2  0
 15 17  1  0
 14 18  1  0
 18 19  2  0
 19  5  1  0
 18  8  1  0
  1 20  1  0
  4 21  1  0
  4 22  1  0
  6 23  1  0
  7 24  1  0
  9 25  1  0
 12 26  1  0
 12 27  1  0
 19 28  1  0
M  CHG  2   1  -1  17  -1
M  END
>  <UniqueID>  (67) 
66

>  <SMILES>  (67) 
[NH-]C(=O)Cc1ccc2cc(C(N)=O)n(C(=O)[O-])c2c1

>  <Energy>  (67) 
65.23127865759956

>  <Genealogy>  (67) 
[NH-]C(=O)Cc1ccc2cc(C(N)=O)n(C(=O)[O-])c2c1 (protonated)
[NH-]C(=O)Cc1ccc2cc(C(N)=O)n(C(=O)[O-])c2c1 (3D coordinates assigned)
[NH-]C(=O)Cc1ccc2cc(C(N)=O)n(C(=O)[O-])c2c1 (optimized conformer: 65.23127865759956 kcal/mol)

>  <smiles>  (67) 
NC(=O)Cc1ccc2cc(C(N)=O)n(C(=O)O)c2c1

>  <score_type>  (67) 
oracle

>  <origin>  (67) 
adg

>  <m_score__min__energy>  (67) 
-9.3399999999999999

>  <m_primary>  (67) 
energy

$$$$
68:0
     RDKit          3D

 37 39  0  0  0  0  0  0  0  0999 V2000
   -3.2660   15.7240  -33.6010 C   0  0  0  0  0  0  0  0  0  0  0  0
   -4.5370   16.5010  -33.5310 C   0  0  0  0  0  0  0  0  0  0  0  0
   -4.6180   17.7810  -33.1070 N   0  0  0  0  0  0  0  0  0  0  0  0
   -5.9000   18.2470  -33.0740 C   0  0  0  0  0  0  0  0  0  0  0  0
   -6.2390   19.6250  -32.6430 C   0  0  0  0  0  0  0  0  0  0  0  0
   -7.5810   20.0860  -32.6910 C   0  0  0  0  0  0  0  0  0  0  0  0
   -7.9120   21.3850  -32.2730 C   0  0  0  0  0  0  0  0  0  0  0  0
   -6.8850   22.2060  -31.8200 C   0  0  0  0  0  0  0  0  0  0  0  0
   -6.9310   23.4910  -31.3300 C   0  0  0  0  0  0  0  0  0  0  0  0
   -5.6130   23.8100  -31.0080 C   0  0  0  0  0  0  0  0  0  0  0  0
   -5.1940   25.1420  -30.5220 C   0  0  0  0  0  0  0  0  0  0  0  0
   -3.9160   25.6740  -30.8530 N   0  0  0  0  0  0  0  0  0  0  0  0
   -5.9950   25.8380  -29.8420 O   0  0  0  0  0  0  0  0  0  0  0  0
   -4.7870   22.7620  -31.2820 N   0  0  0  0  0  0  0  0  0  0  0  0
   -3.3820   22.6570  -31.0060 C   0  0  0  0  0  0  0  0  0  0  0  0
   -2.6220   22.0690  -31.8240 O   0  0  0  0  0  0  0  0  0  0  0  0
   -2.8660   23.1900  -29.8180 O   0  0  0  0  0  0  0  0  0  0  0  0
   -1.5060   23.0400  -29.4190 C   0  0  0  0  0  0  0  0  0  0  0  0
   -0.9070   24.3720  -29.0970 C   0  0  0  0  0  0  0  0  0  0  0  0
    0.2650   24.4450  -28.6460 O   0  0  0  0  0  0  0  0  0  0  0  0
   -1.6320   25.5350  -29.3240 O   0  0  0  0  0  0  0  0  0  0  0  0
   -5.5810   21.7890  -31.7810 C   0  0  0  0  0  0  0  0  0  0  0  0
   -5.2240   20.4920  -32.1720 C   0  0  0  0  0  0  0  0  0  0  0  0
   -6.8590   17.3090  -33.4690 C   0  0  0  0  0  0  0  0  0  0  0  0
   -6.0620   15.8760  -33.8540 S   0  0  0  0  0  0  0  0  0  0  0  0
   -2.9120   15.5076  -32.5823 H   0  0  0  0  0  0  0  0  0  0  0  0
   -3.4427   14.7794  -34.1362 H   0  0  0  0  0  0  0  0  0  0  0  0
   -2.5058   16.3120  -34.1362 H   0  0  0  0  0  0  0  0  0  0  0  0
   -3.7780   18.3480  -32.8530 H   0  0  0  0  0  0  0  0  0  0  0  0
   -8.3719   19.4167  -33.0605 H   0  0  0  0  0  0  0  0  0  0  0  0
   -8.9519   21.7423  -32.3029 H   0  0  0  0  0  0  0  0  0  0  0  0
   -7.8189   24.1303  -31.2166 H   0  0  0  0  0  0  0  0  0  0  0  0
   -3.0430   25.2660  -30.4500 H   0  0  0  0  0  0  0  0  0  0  0  0
   -1.4585   22.3964  -28.5282 H   0  0  0  0  0  0  0  0  0  0  0  0
   -0.9400   22.5846  -30.2450 H   0  0  0  0  0  0  0  0  0  0  0  0
   -4.1785   20.1549  -32.1143 H   0  0  0  0  0  0  0  0  0  0  0  0
   -7.9448   17.4777  -33.5195 H   0  0  0  0  0  0  0  0  0  0  0  0
  1  2  1  0
  2  3  2  0
  3  4  1  0
  4  5  1  0
  5  6  2  0
  6  7  1  0
  7  8  2  0
  8  9  1  0
  9 10  2  0
 10 11  1  0
 11 12  1  0
 11 13  2  0
 10 14  1  0
 14 15  1  0
 15 16  2  0
 15 17  1  0
 17 18  1  0
 18 19  1  0
 19 20  2  0
 19 21  1  0
 14 22  1  0
 22 23  2  0
  4 24  2  0
 24 25  1  0
 25  2  1  0
 23  5  1  0
 22  8  1  0
  1 26  1  0
  1 27  1  0
  1 28  1  0
  3 29  1  0
  6 30  1  0
  7 31  1  0
  9 32  1  0
 12 33  1  0
 18 34  1  0
 18 35  1  0
 23 36  1  0
 24 37  1  0
M  CHG  3   3   1  12  -1  21  -1
M  END
>  <UniqueID>  (68) 
67

>  <SMILES>  (68) 
Cc1[nH+]c(-c2ccc3cc(C([NH-])=O)n(C(=O)OCC(=O)[O-])c3c2)cs1

>  <Energy>  (68) 
107.25693330622623

>  <Genealogy>  (68) 
Cc1[nH+]c(-c2ccc3cc(C([NH-])=O)n(C(=O)OCC(=O)[O-])c3c2)cs1 (protonated)
Cc1[nH+]c(-c2ccc3cc(C([NH-])=O)n(C(=O)OCC(=O)[O-])c3c2)cs1 (3D coordinates assigned)
Cc1[nH+]c(-c2ccc3cc(C([NH-])=O)n(C(=O)OCC(=O)[O-])c3c2)cs1 (optimized conformer: 107.25693330622623 kcal/mol)

>  <smiles>  (68) 
Cc1nc(-c2ccc3cc(C(N)=O)n(C(=O)OCC(=O)O)c3c2)cs1

>  <score_type>  (68) 
oracle

>  <origin>  (68) 
adg

>  <m_score__min__energy>  (68) 
-12.56

>  <m_primary>  (68) 
energy

$$$$
69:0
     RDKit          3D

 44 45  0  0  0  0  0  0  0  0999 V2000
   -9.3370   20.4980  -32.3260 C   0  0  0  0  0  0  0  0  0  0  0  0
   -8.0250   19.8920  -32.0390 N   0  0  0  0  0  0  0  0  0  0  0  0
   -8.1540   18.4250  -32.0420 C   0  0  0  0  0  0  0  0  0  0  0  0
   -7.0070   20.3070  -33.0320 C   0  0  0  0  0  0  0  0  0  0  0  0
   -5.9440   19.2160  -33.2510 C   0  0  0  0  0  0  0  0  0  0  0  0
   -5.0940   19.0320  -32.0720 N   0  0  0  0  0  0  0  0  0  0  0  0
   -3.9570   19.8660  -31.7810 C   0  0  0  0  0  0  0  0  0  0  0  0
   -2.6880   19.6320  -32.3780 C   0  0  0  0  0  0  0  0  0  0  0  0
   -1.5920   20.4620  -32.0860 C   0  0  0  0  0  0  0  0  0  0  0  0
   -1.7880   21.5100  -31.1930 C   0  0  0  0  0  0  0  0  0  0  0  0
   -0.9090   22.4740  -30.7490 C   0  0  0  0  0  0  0  0  0  0  0  0
   -1.6470   23.2720  -29.8760 C   0  0  0  0  0  0  0  0  0  0  0  0
   -1.0720   24.4010  -29.1160 C   0  0  0  0  0  0  0  0  0  0  0  0
   -1.8170   25.6070  -28.9640 N   0  0  0  0  0  0  0  0  0  0  0  0
    0.0830   24.3230  -28.6190 O   0  0  0  0  0  0  0  0  0  0  0  0
   -2.9280   22.8180  -29.7840 N   0  0  0  0  0  0  0  0  0  0  0  0
   -4.0150   23.3940  -29.0400 C   0  0  0  0  0  0  0  0  0  0  0  0
   -3.9260   23.4800  -27.7840 O   0  0  0  0  0  0  0  0  0  0  0  0
   -5.1780   23.9140  -29.7120 N   0  0  0  0  0  0  0  0  0  0  0  0
   -6.4040   23.1130  -29.7490 C   0  0  0  0  0  0  0  0  0  0  0  0
   -5.0940   25.1230  -30.4930 C   0  0  0  0  0  0  0  0  0  0  0  0
   -6.1410   25.7070  -30.8790 O   0  0  0  0  0  0  0  0  0  0  0  0
   -3.8590   25.6510  -30.8530 O   0  0  0  0  0  0  0  0  0  0  0  0
   -2.9980   21.7430  -30.5980 C   0  0  0  0  0  0  0  0  0  0  0  0
   -4.1120   20.9450  -30.8840 C   0  0  0  0  0  0  0  0  0  0  0  0
   -9.8469   20.7335  -31.3802 H   0  0  0  0  0  0  0  0  0  0  0  0
   -9.1952   21.4218  -32.9060 H   0  0  0  0  0  0  0  0  0  0  0  0
   -9.9484   19.7911  -32.9060 H   0  0  0  0  0  0  0  0  0  0  0  0
   -8.1863   18.0576  -31.0057 H   0  0  0  0  0  0  0  0  0  0  0  0
   -9.0807   18.1395  -32.5613 H   0  0  0  0  0  0  0  0  0  0  0  0
   -7.2913   17.9821  -32.5613 H   0  0  0  0  0  0  0  0  0  0  0  0
   -7.5073   20.5140  -33.9895 H   0  0  0  0  0  0  0  0  0  0  0  0
   -6.5010   21.2051  -32.6480 H   0  0  0  0  0  0  0  0  0  0  0  0
   -6.4513   18.2659  -33.4746 H   0  0  0  0  0  0  0  0  0  0  0  0
   -5.3017   19.5309  -34.0866 H   0  0  0  0  0  0  0  0  0  0  0  0
   -5.3100   18.2550  -31.4050 H   0  0  0  0  0  0  0  0  0  0  0  0
   -2.5625   18.7916  -33.0765 H   0  0  0  0  0  0  0  0  0  0  0  0
   -0.6097   20.2881  -32.5494 H   0  0  0  0  0  0  0  0  0  0  0  0
    0.1496   22.5893  -31.0247 H   0  0  0  0  0  0  0  0  0  0  0  0
   -2.8010   25.6770  -29.3090 H   0  0  0  0  0  0  0  0  0  0  0  0
   -6.7328   22.8982  -28.7215 H   0  0  0  0  0  0  0  0  0  0  0  0
   -7.1911   23.6716  -30.2766 H   0  0  0  0  0  0  0  0  0  0  0  0
   -6.2087   22.1678  -30.2766 H   0  0  0  0  0  0  0  0  0  0  0  0
   -5.0871   21.1542  -30.4198 H   0  0  0  0  0  0  0  0  0  0  0  0
  1  2  1  0
  2  3  1  0
  2  4  1  0
  4  5  1  0
  5  6  1  0
  6  7  1  0
  7  8  2  0
  8  9  1  0
  9 10  2  0
 10 11  1  0
 11 12  2  0
 12 13  1  0
 13 14  1  0
 13 15  2  0
 12 16  1  0
 16 17  1  0
 17 18  2  0
 17 19  1  0
 19 20  1  0
 19 21  1  0
 21 22  2  0
 21 23  1  0
 16 24  1  0
 24 25  2  0
 25  7  1  0
 24 10  1  0
  1 26  1  0
  1 27  1  0
  1 28  1  0
  3 29  1  0
  3 30  1  0
  3 31  1  0
  4 32  1  0
  4 33  1  0
  5 34  1  0
  5 35  1  0
  6 36  1  0
  8 37  1  0
  9 38  1  0
 11 39  1  0
 14 40  1  0
 20 41  1  0
 20 42  1  0
 20 43  1  0
 25 44  1  0
M  CHG  2  14  -1  23  -1
M  END
>  <UniqueID>  (69) 
68

>  <SMILES>  (69) 
CN(C)CCNc1ccc2cc(C([NH-])=O)n(C(=O)N(C)C(=O)[O-])c2c1

>  <Energy>  (69) 
84.11774104217602

>  <Genealogy>  (69) 
CN(C)CCNc1ccc2cc(C([NH-])=O)n(C(=O)N(C)C(=O)[O-])c2c1 (protonated)
CN(C)CCNc1ccc2cc(C([NH-])=O)n(C(=O)N(C)C(=O)[O-])c2c1 (3D coordinates assigned)
CN(C)CCNc1ccc2cc(C([NH-])=O)n(C(=O)N(C)C(=O)[O-])c2c1 (optimized conformer: 84.11774104217602 kcal/mol)

>  <smiles>  (69) 
CN(C)CCNc1ccc2cc(C(N)=O)n(C(=O)N(C)C(=O)O)c2c1

>  <score_type>  (69) 
oracle

>  <origin>  (69) 
adg

>  <m_score__min__energy>  (69) 
-11.220000000000001

>  <m_primary>  (69) 
energy

$$$$
70:0
     RDKit          3D

 40 41  0  0  0  0  0  0  0  0999 V2000
   -7.2380   17.4830  -33.0940 C   0  0  0  0  0  0  0  0  0  0  0  0
   -7.3600   18.8210  -32.4290 C   0  0  0  0  0  0  0  0  0  0  0  0
   -8.5920   19.2180  -31.8560 C   0  0  0  0  0  0  0  0  0  0  0  0
   -8.7330   20.4890  -31.2730 C   0  0  0  0  0  0  0  0  0  0  0  0
   -7.6300   21.3380  -31.2840 C   0  0  0  0  0  0  0  0  0  0  0  0
   -7.5000   22.6250  -30.8140 C   0  0  0  0  0  0  0  0  0  0  0  0
   -6.1870   22.9930  -31.1030 C   0  0  0  0  0  0  0  0  0  0  0  0
   -5.5770   24.2750  -30.6860 C   0  0  0  0  0  0  0  0  0  0  0  0
   -5.5920   24.6790  -29.3150 N   0  0  0  0  0  0  0  0  0  0  0  0
   -5.0080   25.0110  -31.5350 O   0  0  0  0  0  0  0  0  0  0  0  0
   -5.5330   21.9730  -31.7320 N   0  0  0  0  0  0  0  0  0  0  0  0
   -4.1890   21.9730  -32.2370 C   0  0  0  0  0  0  0  0  0  0  0  0
   -3.9710   22.2440  -33.4490 O   0  0  0  0  0  0  0  0  0  0  0  0
   -3.1260   21.6650  -31.3810 O   0  0  0  0  0  0  0  0  0  0  0  0
   -2.6680   22.5510  -30.3640 C   0  0  0  0  0  0  0  0  0  0  0  0
   -2.0080   21.8230  -29.3330 O   0  0  0  0  0  0  0  0  0  0  0  0
   -2.2180   22.0720  -27.9730 C   0  0  0  0  0  0  0  0  0  0  0  0
   -1.7530   21.2930  -27.0950 O   0  0  0  0  0  0  0  0  0  0  0  0
   -2.9650   23.3010  -27.5550 C   0  0  0  0  0  0  0  0  0  0  0  0
   -2.0350   24.5130  -27.4390 C   0  0  0  0  0  0  0  0  0  0  0  0
   -1.9870   25.2960  -28.7150 C   0  0  0  0  0  0  0  0  0  0  0  0
   -0.9940   26.0260  -28.9730 O   0  0  0  0  0  0  0  0  0  0  0  0
   -3.0570   25.2540  -29.6000 O   0  0  0  0  0  0  0  0  0  0  0  0
   -6.4300   20.9670  -31.8330 C   0  0  0  0  0  0  0  0  0  0  0  0
   -6.2660   19.7140  -32.4360 C   0  0  0  0  0  0  0  0  0  0  0  0
   -7.1664   16.6976  -32.3272 H   0  0  0  0  0  0  0  0  0  0  0  0
   -8.1235   17.3033  -33.7214 H   0  0  0  0  0  0  0  0  0  0  0  0
   -6.3346   17.4664  -33.7214 H   0  0  0  0  0  0  0  0  0  0  0  0
   -9.4466   18.5255  -31.8671 H   0  0  0  0  0  0  0  0  0  0  0  0
   -9.6858   20.8032  -30.8219 H   0  0  0  0  0  0  0  0  0  0  0  0
   -8.2689   23.2339  -30.3160 H   0  0  0  0  0  0  0  0  0  0  0  0
   -5.1250   25.5660  -29.0260 H   0  0  0  0  0  0  0  0  0  0  0  0
   -6.1010   24.1250  -28.5920 H   0  0  0  0  0  0  0  0  0  0  0  0
   -1.9660   23.2751  -30.8031 H   0  0  0  0  0  0  0  0  0  0  0  0
   -3.5324   23.0772  -29.9327 H   0  0  0  0  0  0  0  0  0  0  0  0
   -3.7426   23.5177  -28.3022 H   0  0  0  0  0  0  0  0  0  0  0  0
   -3.4113   23.1135  -26.5673 H   0  0  0  0  0  0  0  0  0  0  0  0
   -2.3994   25.1666  -26.6327 H   0  0  0  0  0  0  0  0  0  0  0  0
   -1.0204   24.1482  -27.2211 H   0  0  0  0  0  0  0  0  0  0  0  0
   -5.3105   19.4327  -32.9027 H   0  0  0  0  0  0  0  0  0  0  0  0
  1  2  1  0
  2  3  2  0
  3  4  1  0
  4  5  2  0
  5  6  1  0
  6  7  2  0
  7  8  1  0
  8  9  1  0
  8 10  2  0
  7 11  1  0
 11 12  1  0
 12 13  2  0
 12 14  1  0
 14 15  1  0
 15 16  1  0
 16 17  1  0
 17 18  2  0
 17 19  1  0
 19 20  1  0
 20 21  1  0
 21 22  2  0
 21 23  1  0
 11 24  1  0
 24 25  2  0
 25  2  1  0
 24  5  1  0
  1 26  1  0
  1 27  1  0
  1 28  1  0
  3 29  1  0
  4 30  1  0
  6 31  1  0
  9 32  1  0
  9 33  1  0
 15 34  1  0
 15 35  1  0
 19 36  1  0
 19 37  1  0
 20 38  1  0
 20 39  1  0
 25 40  1  0
M  CHG  1  23  -1
M  END
>  <UniqueID>  (70) 
69

>  <SMILES>  (70) 
Cc1ccc2cc(C(N)=O)n(C(=O)OCOC(=O)CCC(=O)[O-])c2c1

>  <Energy>  (70) 
70.31605093357275

>  <Genealogy>  (70) 
Cc1ccc2cc(C(N)=O)n(C(=O)OCOC(=O)CCC(=O)[O-])c2c1 (protonated)
Cc1ccc2cc(C(N)=O)n(C(=O)OCOC(=O)CCC(=O)[O-])c2c1 (3D coordinates assigned)
Cc1ccc2cc(C(N)=O)n(C(=O)OCOC(=O)CCC(=O)[O-])c2c1 (optimized conformer: 70.31605093357275 kcal/mol)

>  <smiles>  (70) 
Cc1ccc2cc(C(N)=O)n(C(=O)OCOC(=O)CCC(=O)O)c2c1

>  <score_type>  (70) 
oracle

>  <origin>  (70) 
adg

>  <m_score__min__energy>  (70) 
-10.68

>  <m_primary>  (70) 
energy

$$$$
71:0
     RDKit          3D

 38 39  0  0  0  0  0  0  0  0999 V2000
   -7.5570   17.9470  -32.8190 C   0  0  0  0  0  0  0  0  0  0  0  0
   -7.6130   19.3710  -32.3540 C   0  0  0  0  0  0  0  0  0  0  0  0
   -8.8490   20.0640  -32.3420 C   0  0  0  0  0  0  0  0  0  0  0  0
   -8.9090   21.4130  -31.9490 C   0  0  0  0  0  0  0  0  0  0  0  0
   -7.7220   22.0380  -31.5830 C   0  0  0  0  0  0  0  0  0  0  0  0
   -7.4890   23.3340  -31.1780 C   0  0  0  0  0  0  0  0  0  0  0  0
   -6.1130   23.4110  -30.9560 C   0  0  0  0  0  0  0  0  0  0  0  0
   -5.4150   24.6040  -30.4270 C   0  0  0  0  0  0  0  0  0  0  0  0
   -5.3670   24.8660  -29.0220 N   0  0  0  0  0  0  0  0  0  0  0  0
   -4.8240   25.3910  -31.2140 O   0  0  0  0  0  0  0  0  0  0  0  0
   -5.5250   22.2100  -31.2160 N   0  0  0  0  0  0  0  0  0  0  0  0
   -4.1270   21.8860  -31.1750 C   0  0  0  0  0  0  0  0  0  0  0  0
   -3.4070   22.1040  -32.1880 O   0  0  0  0  0  0  0  0  0  0  0  0
   -3.5040   21.3690  -29.9140 C   0  0  0  0  0  0  0  0  0  0  0  0
   -3.5340   22.4340  -28.8520 C   0  0  0  0  0  0  0  0  0  0  0  0
   -4.5790   22.5470  -28.1530 O   0  0  0  0  0  0  0  0  0  0  0  0
   -2.4380   23.3560  -28.6480 N   0  0  0  0  0  0  0  0  0  0  0  0
   -2.5860   24.4290  -27.6590 C   0  0  0  0  0  0  0  0  0  0  0  0
   -1.1870   23.2320  -29.4070 C   0  0  0  0  0  0  0  0  0  0  0  0
   -6.5200   21.3810  -31.5940 C   0  0  0  0  0  0  0  0  0  0  0  0
   -6.4250   20.0440  -31.9920 C   0  0  0  0  0  0  0  0  0  0  0  0
   -7.5307   17.2772  -31.9468 H   0  0  0  0  0  0  0  0  0  0  0  0
   -8.4471   17.7241  -33.4257 H   0  0  0  0  0  0  0  0  0  0  0  0
   -6.6522   17.7947  -33.4257 H   0  0  0  0  0  0  0  0  0  0  0  0
   -9.7695   19.5423  -32.6427 H   0  0  0  0  0  0  0  0  0  0  0  0
   -9.8651   21.9567  -31.9317 H   0  0  0  0  0  0  0  0  0  0  0  0
   -8.2301   24.1376  -31.0555 H   0  0  0  0  0  0  0  0  0  0  0  0
   -5.9080   24.2910  -28.3410 H   0  0  0  0  0  0  0  0  0  0  0  0
   -4.8150   25.6740  -28.6610 H   0  0  0  0  0  0  0  0  0  0  0  0
   -4.0649   20.4898  -29.5643 H   0  0  0  0  0  0  0  0  0  0  0  0
   -2.4595   21.0888  -30.1154 H   0  0  0  0  0  0  0  0  0  0  0  0
   -2.5274   24.0045  -26.6459 H   0  0  0  0  0  0  0  0  0  0  0  0
   -1.7811   25.1663  -27.7947 H   0  0  0  0  0  0  0  0  0  0  0  0
   -3.5605   24.9209  -27.7947 H   0  0  0  0  0  0  0  0  0  0  0  0
   -0.3412   23.1482  -28.7087 H   0  0  0  0  0  0  0  0  0  0  0  0
   -1.2299   22.3337  -30.0404 H   0  0  0  0  0  0  0  0  0  0  0  0
   -1.0528   24.1212  -30.0404 H   0  0  0  0  0  0  0  0  0  0  0  0
   -5.4526   19.5307  -32.0224 H   0  0  0  0  0  0  0  0  0  0  0  0
  1  2  1  0
  2  3  2  0
  3  4  1  0
  4  5  2  0
  5  6  1  0
  6  7  2  0
  7  8  1  0
  8  9  1  0
  8 10  2  0
  7 11  1  0
 11 12  1  0
 12 13  2  0
 12 14  1  0
 14 15  1  0
 15 16  2  0
 15 17  1  0
 17 18  1  0
 17 19  1  0
 11 20  1  0
 20 21  2  0
 21  2  1  0
 20  5  1  0
  1 22  1  0
  1 23  1  0
  1 24  1  0
  3 25  1  0
  4 26  1  0
  6 27  1  0
  9 28  1  0
  9 29  1  0
 14 30  1  0
 14 31  1  0
 18 32  1  0
 18 33  1  0
 18 34  1  0
 19 35  1  0
 19 36  1  0
 19 37  1  0
 21 38  1  0
M  END
>  <UniqueID>  (71) 
70

>  <SMILES>  (71) 
Cc1ccc2cc(C(N)=O)n(C(=O)CC(=O)N(C)C)c2c1

>  <Energy>  (71) 
72.86571111008409

>  <Genealogy>  (71) 
Cc1ccc2cc(C(N)=O)n(C(=O)CC(=O)N(C)C)c2c1 (3D coordinates assigned)
Cc1ccc2cc(C(N)=O)n(C(=O)CC(=O)N(C)C)c2c1 (optimized conformer: 72.86571111008409 kcal/mol)

>  <smiles>  (71) 
Cc1ccc2cc(C(N)=O)n(C(=O)CC(=O)N(C)C)c2c1

>  <score_type>  (71) 
oracle

>  <origin>  (71) 
adg

>  <m_score__min__energy>  (71) 
-8.1099999999999994

>  <m_primary>  (71) 
energy

$$$$
72:0
     RDKit          3D

 33 34  0  0  0  0  0  0  0  0999 V2000
   -3.9830   25.6620  -30.8440 N   0  0  0  0  0  0  0  0  0  0  0  0
   -5.2230   25.1100  -30.4090 C   0  0  0  0  0  0  0  0  0  0  0  0
   -5.9190   25.7440  -29.5730 O   0  0  0  0  0  0  0  0  0  0  0  0
   -5.6940   23.8280  -30.9700 C   0  0  0  0  0  0  0  0  0  0  0  0
   -7.0400   23.5260  -31.1680 C   0  0  0  0  0  0  0  0  0  0  0  0
   -7.0610   22.2250  -31.6150 C   0  0  0  0  0  0  0  0  0  0  0  0
   -8.1370   21.4210  -31.9800 C   0  0  0  0  0  0  0  0  0  0  0  0
   -7.8630   20.1210  -32.4350 C   0  0  0  0  0  0  0  0  0  0  0  0
   -6.5290   19.6530  -32.5240 C   0  0  0  0  0  0  0  0  0  0  0  0
   -6.2580   18.2650  -33.0310 C   0  0  0  0  0  0  0  0  0  0  0  0
   -7.3080   17.4310  -32.6920 F   0  0  0  0  0  0  0  0  0  0  0  0
   -6.1210   18.2910  -34.4070 F   0  0  0  0  0  0  0  0  0  0  0  0
   -5.4620   20.4980  -32.1480 C   0  0  0  0  0  0  0  0  0  0  0  0
   -5.7640   21.7830  -31.6800 C   0  0  0  0  0  0  0  0  0  0  0  0
   -4.9120   22.7570  -31.2880 N   0  0  0  0  0  0  0  0  0  0  0  0
   -3.4770   22.6900  -31.2940 C   0  0  0  0  0  0  0  0  0  0  0  0
   -2.8740   22.2450  -32.3070 O   0  0  0  0  0  0  0  0  0  0  0  0
   -2.7590   23.1610  -30.1880 O   0  0  0  0  0  0  0  0  0  0  0  0
   -1.3340   23.1340  -30.0840 C   0  0  2  0  0  0  0  0  0  0  0  0
   -0.9210   21.9490  -29.4040 O   0  0  0  0  0  0  0  0  0  0  0  0
   -0.4590   20.8010  -30.0530 C   0  0  0  0  0  0  0  0  0  0  0  0
   -0.0870   20.8390  -31.2550 O   0  0  0  0  0  0  0  0  0  0  0  0
   -0.3950   19.6030  -29.3560 O   0  0  0  0  0  0  0  0  0  0  0  0
   -0.8940   24.3190  -29.2880 C   0  0  0  0  0  0  0  0  0  0  0  0
    0.1400   24.2530  -28.5720 O   0  0  0  0  0  0  0  0  0  0  0  0
   -1.6260   25.4990  -29.3320 O   0  0  0  0  0  0  0  0  0  0  0  0
   -3.0740   25.2710  -30.5120 H   0  0  0  0  0  0  0  0  0  0  0  0
   -7.9029   24.1877  -31.0020 H   0  0  0  0  0  0  0  0  0  0  0  0
   -9.1703   21.7925  -31.9141 H   0  0  0  0  0  0  0  0  0  0  0  0
   -8.6926   19.4595  -32.7252 H   0  0  0  0  0  0  0  0  0  0  0  0
   -5.3297   17.8898  -32.5756 H   0  0  0  0  0  0  0  0  0  0  0  0
   -4.4192   20.1554  -32.2209 H   0  0  0  0  0  0  0  0  0  0  0  0
   -0.8900   23.1534  -31.0902 H   0  0  0  0  0  0  0  0  0  0  0  0
  1  2  1  0
  2  3  2  0
  2  4  1  0
  4  5  2  0
  5  6  1  0
  6  7  2  0
  7  8  1  0
  8  9  2  0
  9 10  1  0
 10 11  1  0
 10 12  1  0
  9 13  1  0
 13 14  2  0
 14 15  1  0
 15 16  1  0
 16 17  2  0
 16 18  1  0
 18 19  1  0
 19 20  1  0
 20 21  1  0
 21 22  2  0
 21 23  1  0
 19 24  1  0
 24 25  2  0
 24 26  1  0
 15  4  1  0
 14  6  1  0
  1 27  1  0
  5 28  1  0
  7 29  1  0
  8 30  1  0
 10 31  1  0
 13 32  1  0
 19 33  1  6
M  CHG  3   1  -1  23  -1  26  -1
M  END
>  <UniqueID>  (72) 
71

>  <SMILES>  (72) 
[NH-]C(=O)c1cc2ccc(C(F)F)cc2n1C(=O)O[C@H](OC(=O)[O-])C(=O)[O-]

>  <Energy>  (72) 
70.2402736275679

>  <Genealogy>  (72) 
[NH-]C(=O)c1cc2ccc(C(F)F)cc2n1C(=O)OC(OC(=O)[O-])C(=O)[O-] (protonated)
[NH-]C(=O)c1cc2ccc(C(F)F)cc2n1C(=O)O[C@H](OC(=O)[O-])C(=O)[O-] (chirality)
[NH-]C(=O)c1cc2ccc(C(F)F)cc2n1C(=O)O[C@H](OC(=O)[O-])C(=O)[O-] (3D coordinates assigned)
[NH-]C(=O)c1cc2ccc(C(F)F)cc2n1C(=O)O[C@H](OC(=O)[O-])C(=O)[O-] (optimized conformer: 70.2402736275679 kcal/mol)

>  <smiles>  (72) 
NC(=O)c1cc2ccc(C(F)F)cc2n1C(=O)OC(OC(=O)O)C(=O)O

>  <score_type>  (72) 
oracle

>  <origin>  (72) 
adg

>  <m_score__min__energy>  (72) 
-11.449999999999999

>  <m_primary>  (72) 
energy

$$$$
73:0
     RDKit          3D

 36 37  0  0  0  0  0  0  0  0999 V2000
   -8.7260   19.6010  -31.3770 C   0  0  0  0  0  0  0  0  0  0  0  0
   -7.3630   19.4830  -31.9930 C   0  0  0  0  0  0  0  0  0  0  0  0
   -7.0450   18.3710  -32.8120 C   0  0  0  0  0  0  0  0  0  0  0  0
   -5.7630   18.2380  -33.3690 C   0  0  0  0  0  0  0  0  0  0  0  0
   -4.8180   19.2180  -33.0730 C   0  0  0  0  0  0  0  0  0  0  0  0
   -3.5130   19.3410  -33.4860 C   0  0  0  0  0  0  0  0  0  0  0  0
   -3.0420   20.5080  -32.8860 C   0  0  0  0  0  0  0  0  0  0  0  0
   -1.6480   20.9960  -33.0000 C   0  0  0  0  0  0  0  0  0  0  0  0
   -1.1130   21.9120  -32.0440 N   0  0  0  0  0  0  0  0  0  0  0  0
   -0.9220   20.6180  -33.9580 O   0  0  0  0  0  0  0  0  0  0  0  0
   -4.0180   21.0810  -32.1290 N   0  0  0  0  0  0  0  0  0  0  0  0
   -3.9470   22.3210  -31.3990 C   0  0  0  0  0  0  0  0  0  0  0  0
   -4.2550   23.3980  -31.9820 O   0  0  0  0  0  0  0  0  0  0  0  0
   -3.5230   22.3370  -30.0150 N   0  0  0  0  0  0  0  0  0  0  0  0
   -2.9390   21.1150  -29.5050 C   0  0  0  0  0  0  0  0  0  0  0  0
   -1.9580   20.5860  -30.0950 O   0  0  0  0  0  0  0  0  0  0  0  0
   -3.4710   20.4760  -28.3930 O   0  0  0  0  0  0  0  0  0  0  0  0
   -3.3450   23.6290  -29.2970 C   0  0  0  0  0  0  0  0  0  0  0  0
   -3.6530   23.3410  -27.5490 S   0  0  0  0  0  0  0  0  0  0  0  0
   -1.9370   24.1700  -29.4820 C   0  0  0  0  0  0  0  0  0  0  0  0
   -1.6840   25.3920  -29.2950 O   0  0  0  0  0  0  0  0  0  0  0  0
   -0.9290   23.3390  -29.9580 O   0  0  0  0  0  0  0  0  0  0  0  0
   -4.2930   24.6940  -29.8140 C   0  0  0  0  0  0  0  0  0  0  0  0
   -5.4780   24.7520  -29.3830 O   0  0  0  0  0  0  0  0  0  0  0  0
   -3.8600   25.6600  -30.7190 O   0  0  0  0  0  0  0  0  0  0  0  0
   -5.1020   20.2830  -32.2570 C   0  0  0  0  0  0  0  0  0  0  0  0
   -6.3760   20.4510  -31.7040 C   0  0  0  0  0  0  0  0  0  0  0  0
   -8.6349   19.5931  -30.2808 H   0  0  0  0  0  0  0  0  0  0  0  0
   -9.1937   20.5430  -31.6993 H   0  0  0  0  0  0  0  0  0  0  0  0
   -9.3487   18.7534  -31.6993 H   0  0  0  0  0  0  0  0  0  0  0  0
   -7.8090   17.6056  -33.0130 H   0  0  0  0  0  0  0  0  0  0  0  0
   -5.5126   17.3865  -34.0188 H   0  0  0  0  0  0  0  0  0  0  0  0
   -2.9575   18.6621  -34.1497 H   0  0  0  0  0  0  0  0  0  0  0  0
   -1.6700   22.2250  -31.2170 H   0  0  0  0  0  0  0  0  0  0  0  0
   -0.1340   22.2660  -32.1440 H   0  0  0  0  0  0  0  0  0  0  0  0
   -6.6030   21.3142  -31.0611 H   0  0  0  0  0  0  0  0  0  0  0  0
  1  2  1  0
  2  3  2  0
  3  4  1  0
  4  5  2  0
  5  6  1  0
  6  7  2  0
  7  8  1  0
  8  9  1  0
  8 10  2  0
  7 11  1  0
 11 12  1  0
 12 13  2  0
 12 14  1  0
 14 15  1  0
 15 16  2  0
 15 17  1  0
 14 18  1  0
 18 19  1  0
 18 20  1  0
 20 21  2  0
 20 22  1  0
 18 23  1  0
 23 24  2  0
 23 25  1  0
 11 26  1  0
 26 27  2  0
 27  2  1  0
 26  5  1  0
  1 28  1  0
  1 29  1  0
  1 30  1  0
  3 31  1  0
  4 32  1  0
  6 33  1  0
  9 34  1  0
  9 35  1  0
 27 36  1  0
M  CHG  4  17  -1  19  -1  22  -1  25  -1
M  END
>  <UniqueID>  (73) 
72

>  <SMILES>  (73) 
Cc1ccc2cc(C(N)=O)n(C(=O)N(C(=O)[O-])C([S-])(C(=O)[O-])C(=O)[O-])c2c1

>  <Energy>  (73) 
87.70191782475113

>  <Genealogy>  (73) 
Cc1ccc2cc(C(N)=O)n(C(=O)N(C(=O)[O-])C([S-])(C(=O)[O-])C(=O)[O-])c2c1 (protonated)
Cc1ccc2cc(C(N)=O)n(C(=O)N(C(=O)[O-])C([S-])(C(=O)[O-])C(=O)[O-])c2c1 (3D coordinates assigned)
Cc1ccc2cc(C(N)=O)n(C(=O)N(C(=O)[O-])C([S-])(C(=O)[O-])C(=O)[O-])c2c1 (optimized conformer: 87.70191782475113 kcal/mol)

>  <smiles>  (73) 
Cc1ccc2cc(C(N)=O)n(C(=O)N(C(=O)O)C(S)(C(=O)O)C(=O)O)c2c1

>  <score_type>  (73) 
oracle

>  <origin>  (73) 
adg

>  <m_score__min__energy>  (73) 
-10.52

>  <m_primary>  (73) 
energy

$$$$
74:0
     RDKit          3D

 38 40  0  0  0  0  0  0  0  0999 V2000
    3.0280   16.9230  -27.5870 C   0  0  0  0  0  0  0  0  0  0  0  0
    1.6980   17.4410  -27.8860 N   0  0  0  0  0  0  0  0  0  0  0  0
    1.3940   18.3260  -28.8540 C   0  0  0  0  0  0  0  0  0  0  0  0
    0.0430   18.6330  -28.7540 C   0  0  0  0  0  0  0  0  0  0  0  0
   -0.7390   19.5640  -29.6070 C   0  0  0  0  0  0  0  0  0  0  0  0
   -0.6990   19.4500  -31.0220 C   0  0  0  0  0  0  0  0  0  0  0  0
   -1.4420   20.3190  -31.8390 C   0  0  0  0  0  0  0  0  0  0  0  0
   -2.2110   21.2980  -31.2190 C   0  0  0  0  0  0  0  0  0  0  0  0
   -3.0400   22.2490  -31.7680 C   0  0  0  0  0  0  0  0  0  0  0  0
   -3.5620   22.9530  -30.6850 C   0  0  0  0  0  0  0  0  0  0  0  0
   -4.4430   24.1320  -30.8270 C   0  0  0  0  0  0  0  0  0  0  0  0
   -3.9430   25.4300  -30.5150 N   0  0  0  0  0  0  0  0  0  0  0  0
   -5.6420   24.0020  -31.1850 O   0  0  0  0  0  0  0  0  0  0  0  0
   -3.0800   22.4500  -29.5120 N   0  0  0  0  0  0  0  0  0  0  0  0
   -3.4140   22.8540  -28.1750 C   0  0  0  0  0  0  0  0  0  0  0  0
   -4.6110   22.8060  -27.7820 O   0  0  0  0  0  0  0  0  0  0  0  0
   -2.4010   23.2800  -27.3060 O   0  0  0  0  0  0  0  0  0  0  0  0
   -1.9470   24.6290  -27.2340 C   0  0  0  0  0  0  0  0  0  0  0  0
   -1.0950   24.9560  -28.4190 C   0  0  0  0  0  0  0  0  0  0  0  0
   -1.5470   25.6910  -29.3370 O   0  0  0  0  0  0  0  0  0  0  0  0
    0.2050   24.4750  -28.4980 O   0  0  0  0  0  0  0  0  0  0  0  0
   -2.2530   21.4380  -29.8580 C   0  0  0  0  0  0  0  0  0  0  0  0
   -1.5380   20.5750  -29.0190 C   0  0  0  0  0  0  0  0  0  0  0  0
   -0.4120   17.8910  -27.6700 C   0  0  0  0  0  0  0  0  0  0  0  0
    0.6190   17.1880  -27.1660 N   0  0  0  0  0  0  0  0  0  0  0  0
    3.1643   16.8699  -26.4968 H   0  0  0  0  0  0  0  0  0  0  0  0
    3.1355   15.9173  -28.0193 H   0  0  0  0  0  0  0  0  0  0  0  0
    3.7874   17.5911  -28.0193 H   0  0  0  0  0  0  0  0  0  0  0  0
    2.0949   18.7355  -29.5963 H   0  0  0  0  0  0  0  0  0  0  0  0
   -0.0772   18.6699  -31.4854 H   0  0  0  0  0  0  0  0  0  0  0  0
   -1.4162   20.2277  -32.9349 H   0  0  0  0  0  0  0  0  0  0  0  0
   -3.2467   22.4176  -32.8352 H   0  0  0  0  0  0  0  0  0  0  0  0
   -3.4970   26.0240  -31.2500 H   0  0  0  0  0  0  0  0  0  0  0  0
   -2.8158   25.3034  -27.2150 H   0  0  0  0  0  0  0  0  0  0  0  0
   -1.3499   24.7563  -26.3190 H   0  0  0  0  0  0  0  0  0  0  0  0
   -1.5955   20.6799  -27.9255 H   0  0  0  0  0  0  0  0  0  0  0  0
   -1.4434   17.8803  -27.2877 H   0  0  0  0  0  0  0  0  0  0  0  0
    0.5850   16.5530  -26.3380 H   0  0  0  0  0  0  0  0  0  0  0  0
  1  2  1  0
  2  3  1  0
  3  4  2  0
  4  5  1  0
  5  6  2  0
  6  7  1  0
  7  8  2  0
  8  9  1  0
  9 10  2  0
 10 11  1  0
 11 12  1  0
 11 13  2  0
 10 14  1  0
 14 15  1  0
 15 16  2  0
 15 17  1  0
 17 18  1  0
 18 19  1  0
 19 20  2  0
 19 21  1  0
 14 22  1  0
 22 23  2  0
  4 24  1  0
 24 25  2  0
 25  2  1  0
 23  5  1  0
 22  8  1  0
  1 26  1  0
  1 27  1  0
  1 28  1  0
  3 29  1  0
  6 30  1  0
  7 31  1  0
  9 32  1  0
 12 33  1  0
 18 34  1  0
 18 35  1  0
 23 36  1  0
 24 37  1  0
 25 38  1  0
M  CHG  3  12  -1  21  -1  25   1
M  END
>  <UniqueID>  (74) 
73

>  <SMILES>  (74) 
Cn1cc(-c2ccc3cc(C([NH-])=O)n(C(=O)OCC(=O)[O-])c3c2)c[nH+]1

>  <Energy>  (74) 
108.387054295636

>  <Genealogy>  (74) 
Cn1cc(-c2ccc3cc(C([NH-])=O)n(C(=O)OCC(=O)[O-])c3c2)c[nH+]1 (protonated)
Cn1cc(-c2ccc3cc(C([NH-])=O)n(C(=O)OCC(=O)[O-])c3c2)c[nH+]1 (3D coordinates assigned)
Cn1cc(-c2ccc3cc(C([NH-])=O)n(C(=O)OCC(=O)[O-])c3c2)c[nH+]1 (optimized conformer: 108.387054295636 kcal/mol)

>  <smiles>  (74) 
Cn1cc(-c2ccc3cc(C(N)=O)n(C(=O)OCC(=O)O)c3c2)cn1

>  <score_type>  (74) 
oracle

>  <origin>  (74) 
adg

>  <m_score__min__energy>  (74) 
-12.57

>  <m_primary>  (74) 
energy

$$$$
75:0
     RDKit          3D

 41 43  0  0  0  0  0  0  0  0999 V2000
   -1.2040   26.2310  -27.9510 C   0  0  0  0  0  0  0  0  0  0  0  0
   -1.2190   25.4000  -29.1640 N   0  0  0  0  0  0  0  0  0  0  0  0
   -1.2500   23.9410  -28.9220 C   0  0  1  0  0  0  0  0  0  0  0  0
   -2.0970   23.5600  -27.6970 C   0  0  0  0  0  0  0  0  0  0  0  0
   -3.3940   22.9750  -28.2480 C   0  0  0  0  0  0  0  0  0  0  0  0
   -3.1380   22.6970  -29.6530 N   0  0  0  0  0  0  0  0  0  0  0  0
   -4.0250   21.9260  -30.4780 C   0  0  0  0  0  0  0  0  0  0  0  0
   -3.6680   20.7940  -30.9020 O   0  0  0  0  0  0  0  0  0  0  0  0
   -5.3350   22.4160  -30.7950 N   0  0  0  0  0  0  0  0  0  0  0  0
   -5.8270   23.6700  -30.6000 C   0  0  0  0  0  0  0  0  0  0  0  0
   -5.0590   24.8240  -30.0920 C   0  0  0  0  0  0  0  0  0  0  0  0
   -3.9510   25.3260  -30.8360 N   0  0  0  0  0  0  0  0  0  0  0  0
   -5.3620   25.3640  -28.9950 O   0  0  0  0  0  0  0  0  0  0  0  0
   -7.1610   23.7340  -30.9990 C   0  0  0  0  0  0  0  0  0  0  0  0
   -7.4680   22.4690  -31.4520 C   0  0  0  0  0  0  0  0  0  0  0  0
   -8.6560   21.9620  -31.9700 C   0  0  0  0  0  0  0  0  0  0  0  0
   -8.6820   20.6100  -32.3530 C   0  0  0  0  0  0  0  0  0  0  0  0
   -7.5340   19.7920  -32.1980 C   0  0  0  0  0  0  0  0  0  0  0  0
   -7.5650   18.3610  -32.6410 C   0  0  0  0  0  0  0  0  0  0  0  0
   -6.3410   20.3460  -31.6840 C   0  0  0  0  0  0  0  0  0  0  0  0
   -6.3440   21.6950  -31.3200 C   0  0  0  0  0  0  0  0  0  0  0  0
   -1.8270   23.1380  -30.0950 C   0  0  0  0  0  0  0  0  0  0  0  0
   -1.2157   25.5828  -27.0623 H   0  0  0  0  0  0  0  0  0  0  0  0
   -0.2945   26.8497  -27.9416 H   0  0  0  0  0  0  0  0  0  0  0  0
   -2.0905   26.8821  -27.9416 H   0  0  0  0  0  0  0  0  0  0  0  0
   -2.0660   25.6590  -29.7220 H   0  0  0  0  0  0  0  0  0  0  0  0
   -0.1902   23.6895  -28.7684 H   0  0  0  0  0  0  0  0  0  0  0  0
   -1.5701   22.8127  -27.0855 H   0  0  0  0  0  0  0  0  0  0  0  0
   -2.2893   24.4311  -27.0534 H   0  0  0  0  0  0  0  0  0  0  0  0
   -3.6530   22.0482  -27.7151 H   0  0  0  0  0  0  0  0  0  0  0  0
   -4.2378   23.6690  -28.1198 H   0  0  0  0  0  0  0  0  0  0  0  0
   -2.9840   25.2930  -30.4460 H   0  0  0  0  0  0  0  0  0  0  0  0
   -7.8273   24.6084  -30.9605 H   0  0  0  0  0  0  0  0  0  0  0  0
   -9.5464   22.5992  -32.0763 H   0  0  0  0  0  0  0  0  0  0  0  0
   -9.6022   20.1820  -32.7773 H   0  0  0  0  0  0  0  0  0  0  0  0
   -7.5792   17.7043  -31.7587 H   0  0  0  0  0  0  0  0  0  0  0  0
   -8.4672   18.1835  -33.2448 H   0  0  0  0  0  0  0  0  0  0  0  0
   -6.6713   18.1446  -33.2448 H   0  0  0  0  0  0  0  0  0  0  0  0
   -5.4346   19.7326  -31.5733 H   0  0  0  0  0  0  0  0  0  0  0  0
   -1.1862   22.2731  -30.3214 H   0  0  0  0  0  0  0  0  0  0  0  0
   -1.8864   23.7407  -31.0132 H   0  0  0  0  0  0  0  0  0  0  0  0
  1  2  1  0
  2  3  1  0
  3  4  1  0
  4  5  1  0
  5  6  1  0
  6  7  1  0
  7  8  2  0
  7  9  1  0
  9 10  1  0
 10 11  1  0
 11 12  1  0
 11 13  2  0
 10 14  2  0
 14 15  1  0
 15 16  2  0
 16 17  1  0
 17 18  2  0
 18 19  1  0
 18 20  1  0
 20 21  2  0
  6 22  1  0
 22  3  1  0
 21  9  1  0
 21 15  1  0
  1 23  1  0
  1 24  1  0
  1 25  1  0
  2 26  1  0
  3 27  1  1
  4 28  1  0
  4 29  1  0
  5 30  1  0
  5 31  1  0
 12 32  1  0
 14 33  1  0
 16 34  1  0
 17 35  1  0
 19 36  1  0
 19 37  1  0
 19 38  1  0
 20 39  1  0
 22 40  1  0
 22 41  1  0
M  CHG  1  12  -1
M  END
>  <UniqueID>  (75) 
74

>  <SMILES>  (75) 
CN[C@H]1CCN(C(=O)n2c(C([NH-])=O)cc3ccc(C)cc32)C1

>  <Energy>  (75) 
83.24801135897232

>  <Genealogy>  (75) 
CNC1CCN(C(=O)n2c(C([NH-])=O)cc3ccc(C)cc32)C1 (protonated)
CN[C@H]1CCN(C(=O)n2c(C([NH-])=O)cc3ccc(C)cc32)C1 (chirality)
CN[C@H]1CCN(C(=O)n2c(C([NH-])=O)cc3ccc(C)cc32)C1 (3D coordinates assigned)
CN[C@H]1CCN(C(=O)n2c(C([NH-])=O)cc3ccc(C)cc32)C1 (nonaromatic ring conformer: 83.24801135897232 kcal/mol)

>  <smiles>  (75) 
CNC1CCN(C(=O)n2c(C(N)=O)cc3ccc(C)cc32)C1

>  <score_type>  (75) 
oracle

>  <origin>  (75) 
adg

>  <m_score__min__energy>  (75) 
-10.77

>  <m_primary>  (75) 
energy

$$$$
76:0
     RDKit          3D

 62 65  0  0  0  0  0  0  0  0999 V2000
    1.5640   17.8820  -31.5540 C   0  0  0  0  0  0  0  0  0  0  0  0
    2.4850   18.7970  -32.3770 C   0  0  0  0  0  0  0  0  0  0  0  0
    3.7450   19.1080  -31.5490 C   0  0  0  0  0  0  0  0  0  0  0  0
    2.8580   18.0770  -33.6860 C   0  0  0  0  0  0  0  0  0  0  0  0
    1.7500   19.9990  -32.6520 O   0  0  0  0  0  0  0  0  0  0  0  0
    0.4390   20.2880  -32.2370 C   0  0  0  0  0  0  0  0  0  0  0  0
    0.2280   20.9090  -31.1600 O   0  0  0  0  0  0  0  0  0  0  0  0
   -0.6730   19.8790  -33.0540 N   0  0  0  0  0  0  0  0  0  0  0  0
   -0.4470   19.0710  -34.2620 C   0  0  0  0  0  0  0  0  0  0  0  0
   -1.5660   18.0360  -34.4370 C   0  0  0  0  0  0  0  0  0  0  0  0
   -2.8940   18.6160  -34.1950 N   0  0  0  0  0  0  0  0  0  0  0  0
   -4.0600   17.8360  -34.5100 C   0  0  0  0  0  0  0  0  0  0  0  0
   -4.0980   17.1810  -35.5850 O   0  0  0  0  0  0  0  0  0  0  0  0
   -5.2130   17.7660  -33.5940 C   0  0  0  0  0  0  0  0  0  0  0  0
   -5.4030   16.8640  -32.5710 C   0  0  0  0  0  0  0  0  0  0  0  0
   -6.5850   17.1120  -31.9830 N   0  0  0  0  0  0  0  0  0  0  0  0
   -7.0830   18.1550  -32.6810 C   0  0  0  0  0  0  0  0  0  0  0  0
   -8.3890   18.8070  -32.3550 C   0  0  0  0  0  0  0  0  0  0  0  0
   -8.1680   20.2570  -32.0210 C   0  0  0  0  0  0  0  0  0  0  0  0
   -9.2710   21.1430  -31.9500 C   0  0  0  0  0  0  0  0  0  0  0  0
   -9.0810   22.4940  -31.6120 C   0  0  0  0  0  0  0  0  0  0  0  0
   -7.7860   22.9210  -31.3340 C   0  0  0  0  0  0  0  0  0  0  0  0
   -7.3200   24.1750  -31.0130 C   0  0  0  0  0  0  0  0  0  0  0  0
   -5.9460   24.0270  -30.8540 C   0  0  0  0  0  0  0  0  0  0  0  0
   -5.0530   25.1300  -30.4470 C   0  0  0  0  0  0  0  0  0  0  0  0
   -3.7300   24.8730  -29.9730 N   0  0  0  0  0  0  0  0  0  0  0  0
   -5.4830   26.3130  -30.4680 O   0  0  0  0  0  0  0  0  0  0  0  0
   -5.5690   22.7370  -31.0780 N   0  0  0  0  0  0  0  0  0  0  0  0
   -4.2300   22.2170  -31.1300 C   0  0  0  0  0  0  0  0  0  0  0  0
   -3.3100   22.8720  -31.6860 O   0  0  0  0  0  0  0  0  0  0  0  0
   -3.9350   20.9820  -30.5630 O   0  0  0  0  0  0  0  0  0  0  0  0
   -6.7110   22.0700  -31.3710 C   0  0  0  0  0  0  0  0  0  0  0  0
   -6.8690   20.7240  -31.7230 C   0  0  0  0  0  0  0  0  0  0  0  0
   -6.2760   18.5830  -33.6760 N   0  0  0  0  0  0  0  0  0  0  0  0
   -3.0210   20.0360  -33.8470 C   0  0  0  0  0  0  0  0  0  0  0  0
   -2.0170   20.3950  -32.7500 C   0  0  0  0  0  0  0  0  0  0  0  0
    1.7382   18.0551  -30.4818 H   0  0  0  0  0  0  0  0  0  0  0  0
    0.5143   18.1052  -31.7956 H   0  0  0  0  0  0  0  0  0  0  0  0
    1.7804   16.8309  -31.7956 H   0  0  0  0  0  0  0  0  0  0  0  0
    3.5036   19.0484  -30.4775 H   0  0  0  0  0  0  0  0  0  0  0  0
    4.5311   18.3769  -31.7889 H   0  0  0  0  0  0  0  0  0  0  0  0
    4.1007   20.1209  -31.7889 H   0  0  0  0  0  0  0  0  0  0  0  0
    3.3524   17.1227  -33.4516 H   0  0  0  0  0  0  0  0  0  0  0  0
    1.9466   17.8838  -34.2708 H   0  0  0  0  0  0  0  0  0  0  0  0
    3.5415   18.7101  -34.2708 H   0  0  0  0  0  0  0  0  0  0  0  0
   -0.4259   19.7325  -35.1406 H   0  0  0  0  0  0  0  0  0  0  0  0
    0.5122   18.5422  -34.1604 H   0  0  0  0  0  0  0  0  0  0  0  0
   -1.5309   17.6452  -35.4646 H   0  0  0  0  0  0  0  0  0  0  0  0
   -1.4058   17.2343  -33.7011 H   0  0  0  0  0  0  0  0  0  0  0  0
   -4.7002   16.0687  -32.2819 H   0  0  0  0  0  0  0  0  0  0  0  0
   -9.0612   18.7308  -33.2223 H   0  0  0  0  0  0  0  0  0  0  0  0
   -8.8404   18.3006  -31.4891 H   0  0  0  0  0  0  0  0  0  0  0  0
  -10.2843   20.7707  -32.1611 H   0  0  0  0  0  0  0  0  0  0  0  0
   -9.9298   23.1923  -31.5686 H   0  0  0  0  0  0  0  0  0  0  0  0
   -7.9085   25.0980  -30.9051 H   0  0  0  0  0  0  0  0  0  0  0  0
   -3.1010   25.6680  -29.7220 H   0  0  0  0  0  0  0  0  0  0  0  0
   -3.4020   23.9000  -29.7920 H   0  0  0  0  0  0  0  0  0  0  0  0
   -6.0029   20.0472  -31.7663 H   0  0  0  0  0  0  0  0  0  0  0  0
   -2.8221   20.6492  -34.7383 H   0  0  0  0  0  0  0  0  0  0  0  0
   -4.0406   20.2297  -33.4823 H   0  0  0  0  0  0  0  0  0  0  0  0
   -1.9662   21.4899  -32.6573 H   0  0  0  0  0  0  0  0  0  0  0  0
   -2.3567   19.9358  -31.8099 H   0  0  0  0  0  0  0  0  0  0  0  0
  1  2  1  0
  2  3  1  0
  2  4  1  0
  2  5  1  0
  5  6  1  0
  6  7  2  0
  6  8  1  0
  8  9  1  0
  9 10  1  0
 10 11  1  0
 11 12  1  0
 12 13  2  0
 12 14  1  0
 14 15  2  0
 15 16  1  0
 16 17  2  0
 17 18  1  0
 18 19  1  0
 19 20  2  0
 20 21  1  0
 21 22  2  0
 22 23  1  0
 23 24  2  0
 24 25  1  0
 25 26  1  0
 25 27  2  0
 24 28  1  0
 28 29  1  0
 29 30  2  0
 29 31  1  0
 28 32  1  0
 32 33  2  0
 17 34  1  0
 11 35  1  0
 35 36  1  0
 36  8  1  0
 34 14  1  0
 33 19  1  0
 32 22  1  0
  1 37  1  0
  1 38  1  0
  1 39  1  0
  3 40  1  0
  3 41  1  0
  3 42  1  0
  4 43  1  0
  4 44  1  0
  4 45  1  0
  9 46  1  0
  9 47  1  0
 10 48  1  0
 10 49  1  0
 15 50  1  0
 18 51  1  0
 18 52  1  0
 20 53  1  0
 21 54  1  0
 23 55  1  0
 26 56  1  0
 26 57  1  0
 33 58  1  0
 35 59  1  0
 35 60  1  0
 36 61  1  0
 36 62  1  0
M  CHG  2  31  -1  34  -1
M  END
>  <UniqueID>  (76) 
75

>  <SMILES>  (76) 
CC(C)(C)OC(=O)N1CCN(C(=O)c2cnc(Cc3ccc4cc(C(N)=O)n(C(=O)[O-])c4c3)[n-]2)CC1

>  <Energy>  (76) 
128.39047551652433

>  <Genealogy>  (76) 
CC(C)(C)OC(=O)N1CCN(C(=O)c2cnc(Cc3ccc4cc(C(N)=O)n(C(=O)[O-])c4c3)[n-]2)CC1 (protonated)
CC(C)(C)OC(=O)N1CCN(C(=O)c2cnc(Cc3ccc4cc(C(N)=O)n(C(=O)[O-])c4c3)[n-]2)CC1 (3D coordinates assigned)
CC(C)(C)OC(=O)N1CCN(C(=O)c2cnc(Cc3ccc4cc(C(N)=O)n(C(=O)[O-])c4c3)[n-]2)CC1 (nonaromatic ring conformer: 128.39047551652433 kcal/mol)

>  <smiles>  (76) 
CC(C)(C)OC(=O)N1CCN(C(=O)c2cnc(Cc3ccc4cc(C(N)=O)n(C(=O)O)c4c3)[nH]2)CC1

>  <score_type>  (76) 
oracle

>  <origin>  (76) 
adg

>  <m_score__min__energy>  (76) 
-10.58

>  <m_primary>  (76) 
energy

$$$$
77:0
     RDKit          3D

 30 31  0  0  0  0  0  0  0  0999 V2000
   -4.2440   25.5380  -30.5610 N   0  0  0  0  0  0  0  0  0  0  0  0
   -5.6180   25.2040  -30.3580 C   0  0  0  0  0  0  0  0  0  0  0  0
   -6.3370   25.9550  -29.6450 O   0  0  0  0  0  0  0  0  0  0  0  0
   -6.1950   23.9640  -30.9140 C   0  0  0  0  0  0  0  0  0  0  0  0
   -7.5590   23.7810  -31.1230 C   0  0  0  0  0  0  0  0  0  0  0  0
   -7.6860   22.4900  -31.5810 C   0  0  0  0  0  0  0  0  0  0  0  0
   -8.8240   21.7840  -31.9610 C   0  0  0  0  0  0  0  0  0  0  0  0
   -8.6580   20.4720  -32.4340 C   0  0  0  0  0  0  0  0  0  0  0  0
   -7.3680   19.8990  -32.5270 C   0  0  0  0  0  0  0  0  0  0  0  0
   -7.2120   18.5670  -33.0250 N   0  0  0  0  0  0  0  0  0  0  0  0
   -6.2350   20.6440  -32.1360 C   0  0  0  0  0  0  0  0  0  0  0  0
   -6.4290   21.9420  -31.6470 C   0  0  0  0  0  0  0  0  0  0  0  0
   -5.5010   22.8380  -31.2430 N   0  0  0  0  0  0  0  0  0  0  0  0
   -4.0740   22.6660  -31.2730 C   0  0  0  0  0  0  0  0  0  0  0  0
   -3.4980   22.3740  -32.3560 O   0  0  0  0  0  0  0  0  0  0  0  0
   -3.3300   22.8210  -30.1000 O   0  0  0  0  0  0  0  0  0  0  0  0
   -1.9170   22.9970  -30.1030 C   0  0  0  0  0  0  0  0  0  0  0  0
   -1.5540   24.1580  -29.2360 C   0  0  0  0  0  0  0  0  0  0  0  0
   -2.1900   25.1970  -29.3060 O   0  0  0  0  0  0  0  0  0  0  0  0
   -3.5840   24.8580  -30.9990 H   0  0  0  0  0  0  0  0  0  0  0  0
   -3.8640   26.4380  -30.1940 H   0  0  0  0  0  0  0  0  0  0  0  0
   -8.3636   24.5125  -30.9573 H   0  0  0  0  0  0  0  0  0  0  0  0
   -9.8228   22.2398  -31.8929 H   0  0  0  0  0  0  0  0  0  0  0  0
   -9.5384   19.8851  -32.7346 H   0  0  0  0  0  0  0  0  0  0  0  0
   -7.9260   18.1460  -33.6590 H   0  0  0  0  0  0  0  0  0  0  0  0
   -6.3800   17.9920  -32.7600 H   0  0  0  0  0  0  0  0  0  0  0  0
   -5.2247   20.2159  -32.2134 H   0  0  0  0  0  0  0  0  0  0  0  0
   -1.4341   22.0871  -29.7172 H   0  0  0  0  0  0  0  0  0  0  0  0
   -1.5752   23.1882  -31.1309 H   0  0  0  0  0  0  0  0  0  0  0  0
   -0.7118   24.0762  -28.5332 H   0  0  0  0  0  0  0  0  0  0  0  0
  1  2  1  0
  2  3  2  0
  2  4  1  0
  4  5  2  0
  5  6  1  0
  6  7  2  0
  7  8  1  0
  8  9  2  0
  9 10  1  0
  9 11  1  0
 11 12  2  0
 12 13  1  0
 13 14  1  0
 14 15  2  0
 14 16  1  0
 16 17  1  0
 17 18  1  0
 18 19  2  0
 13  4  1  0
 12  6  1  0
  1 20  1  0
  1 21  1  0
  5 22  1  0
  7 23  1  0
  8 24  1  0
 10 25  1  0
 10 26  1  0
 11 27  1  0
 17 28  1  0
 17 29  1  0
 18 30  1  0
M  END
>  <UniqueID>  (77) 
76

>  <SMILES>  (77) 
NC(=O)c1cc2ccc(N)cc2n1C(=O)OCC=O

>  <Energy>  (77) 
65.29344780212043

>  <Genealogy>  (77) 
NC(=O)c1cc2ccc(N)cc2n1C(=O)OCC=O (3D coordinates assigned)
NC(=O)c1cc2ccc(N)cc2n1C(=O)OCC=O (optimized conformer: 65.29344780212043 kcal/mol)

>  <smiles>  (77) 
NC(=O)c1cc2ccc(N)cc2n1C(=O)OCC=O

>  <score_type>  (77) 
oracle

>  <origin>  (77) 
adg

>  <m_score__min__energy>  (77) 
-7.3899999999999997

>  <m_primary>  (77) 
energy

$$$$
78:0
     RDKit          3D

 31 32  0  0  0  0  0  0  0  0999 V2000
   -0.8900   20.8400  -34.1030 C   0  0  0  0  0  0  0  0  0  0  0  0
   -2.1020   21.1030  -33.4090 O   0  0  0  0  0  0  0  0  0  0  0  0
   -2.9350   20.0850  -32.9340 C   0  0  0  0  0  0  0  0  0  0  0  0
   -2.4660   18.9360  -32.7050 O   0  0  0  0  0  0  0  0  0  0  0  0
   -4.3310   20.3480  -32.7090 N   0  0  0  0  0  0  0  0  0  0  0  0
   -5.3920   19.8400  -33.3970 C   0  0  0  0  0  0  0  0  0  0  0  0
   -5.3300   18.7790  -34.4230 C   0  0  0  0  0  0  0  0  0  0  0  0
   -4.4520   17.6620  -34.2810 N   0  0  0  0  0  0  0  0  0  0  0  0
   -6.1060   18.8330  -35.4150 O   0  0  0  0  0  0  0  0  0  0  0  0
   -6.5810   20.4220  -32.9690 C   0  0  0  0  0  0  0  0  0  0  0  0
   -6.2170   21.3030  -31.9760 C   0  0  0  0  0  0  0  0  0  0  0  0
   -7.0030   22.1570  -31.2080 C   0  0  0  0  0  0  0  0  0  0  0  0
   -6.3560   22.9850  -30.2750 C   0  0  0  0  0  0  0  0  0  0  0  0
   -4.9450   22.9590  -30.1430 C   0  0  0  0  0  0  0  0  0  0  0  0
   -4.2680   23.8380  -29.1290 C   0  0  0  0  0  0  0  0  0  0  0  0
   -3.4940   24.9150  -29.8190 C   0  0  0  0  0  0  0  0  0  0  0  0
   -3.9500   25.4540  -30.8630 O   0  0  0  0  0  0  0  0  0  0  0  0
   -2.2460   25.2910  -29.3400 O   0  0  0  0  0  0  0  0  0  0  0  0
   -4.1810   22.0740  -30.9340 C   0  0  0  0  0  0  0  0  0  0  0  0
   -4.8530   21.2420  -31.8400 C   0  0  0  0  0  0  0  0  0  0  0  0
   -0.0824   20.6647  -33.3770 H   0  0  0  0  0  0  0  0  0  0  0  0
   -1.0152   19.9481  -34.7346 H   0  0  0  0  0  0  0  0  0  0  0  0
   -0.6343   21.7036  -34.7346 H   0  0  0  0  0  0  0  0  0  0  0  0
   -3.9250   17.4990  -33.3940 H   0  0  0  0  0  0  0  0  0  0  0  0
   -4.3940   16.9420  -35.0350 H   0  0  0  0  0  0  0  0  0  0  0  0
   -7.5954   20.2210  -33.3441 H   0  0  0  0  0  0  0  0  0  0  0  0
   -8.0962   22.1830  -31.3276 H   0  0  0  0  0  0  0  0  0  0  0  0
   -6.9502   23.6597  -29.6411 H   0  0  0  0  0  0  0  0  0  0  0  0
   -5.0281   24.2956  -28.4787 H   0  0  0  0  0  0  0  0  0  0  0  0
   -3.5786   23.2283  -28.5266 H   0  0  0  0  0  0  0  0  0  0  0  0
   -3.0855   22.0382  -30.8417 H   0  0  0  0  0  0  0  0  0  0  0  0
  1  2  1  0
  2  3  1  0
  3  4  2  0
  3  5  1  0
  5  6  1  0
  6  7  1  0
  7  8  1  0
  7  9  2  0
  6 10  2  0
 10 11  1  0
 11 12  2  0
 12 13  1  0
 13 14  2  0
 14 15  1  0
 15 16  1  0
 16 17  2  0
 16 18  1  0
 14 19  1  0
 19 20  2  0
 20  5  1  0
 20 11  1  0
  1 21  1  0
  1 22  1  0
  1 23  1  0
  8 24  1  0
  8 25  1  0
 10 26  1  0
 12 27  1  0
 13 28  1  0
 15 29  1  0
 15 30  1  0
 19 31  1  0
M  CHG  1  18  -1
M  END
>  <UniqueID>  (78) 
77

>  <SMILES>  (78) 
COC(=O)n1c(C(N)=O)cc2ccc(CC(=O)[O-])cc21

>  <Energy>  (78) 
67.06484255092064

>  <Genealogy>  (78) 
COC(=O)n1c(C(N)=O)cc2ccc(CC(=O)[O-])cc21 (protonated)
COC(=O)n1c(C(N)=O)cc2ccc(CC(=O)[O-])cc21 (3D coordinates assigned)
COC(=O)n1c(C(N)=O)cc2ccc(CC(=O)[O-])cc21 (optimized conformer: 67.06484255092064 kcal/mol)

>  <smiles>  (78) 
COC(=O)n1c(C(N)=O)cc2ccc(CC(=O)O)cc21

>  <score_type>  (78) 
oracle

>  <origin>  (78) 
adg

>  <m_score__min__energy>  (78) 
-8.9299999999999997

>  <m_primary>  (78) 
energy

$$$$
79:0
     RDKit          3D

 75 79  0  0  0  0  0  0  0  0999 V2000
   -4.2240   24.5530  -26.9700 C   0  0  0  0  0  0  0  0  0  0  0  0
   -4.2750   23.7490  -28.2000 N   0  0  0  0  0  0  0  0  0  0  0  0
   -4.2350   22.3140  -27.8850 C   0  0  0  0  0  0  0  0  0  0  0  0
   -2.9850   24.2110  -29.2990 S   0  0  0  0  0  0  0  0  0  0  0  0
   -2.1130   25.2730  -28.6920 O   0  0  0  0  0  0  0  0  0  0  0  0
   -3.6150   24.8250  -30.5170 O   0  0  0  0  0  0  0  0  0  0  0  0
   -2.0340   22.8000  -29.8440 C   0  0  0  0  0  0  0  0  0  0  0  0
   -2.3270   22.3340  -31.1390 C   0  0  0  0  0  0  0  0  0  0  0  0
   -1.6890   21.2060  -31.6750 C   0  0  0  0  0  0  0  0  0  0  0  0
   -2.0910   20.6650  -32.9950 C   0  0  0  0  0  0  0  0  0  0  0  0
   -1.2110   20.3550  -33.8430 O   0  0  0  0  0  0  0  0  0  0  0  0
   -3.4490   20.5140  -33.2960 O   0  0  0  0  0  0  0  0  0  0  0  0
   -4.4340   21.4880  -33.0800 C   0  0  0  0  0  0  0  0  0  0  0  0
   -4.2320   22.6880  -33.4010 O   0  0  0  0  0  0  0  0  0  0  0  0
   -5.6770   21.1160  -32.4630 N   0  0  0  0  0  0  0  0  0  0  0  0
   -6.4670   21.8820  -31.6570 C   0  0  0  0  0  0  0  0  0  0  0  0
   -6.2820   23.3200  -31.3780 C   0  0  0  0  0  0  0  0  0  0  0  0
   -6.1560   23.7700  -30.0310 N   0  0  0  0  0  0  0  0  0  0  0  0
   -6.2730   24.1610  -32.3130 O   0  0  0  0  0  0  0  0  0  0  0  0
   -7.5640   21.1500  -31.2090 C   0  0  0  0  0  0  0  0  0  0  0  0
   -7.4300   19.9050  -31.7780 C   0  0  0  0  0  0  0  0  0  0  0  0
   -8.2560   18.7910  -31.6930 C   0  0  0  0  0  0  0  0  0  0  0  0
   -7.8780   17.6350  -32.3970 C   0  0  0  0  0  0  0  0  0  0  0  0
   -6.6760   17.6060  -33.1500 C   0  0  0  0  0  0  0  0  0  0  0  0
   -6.2920   16.3790  -33.9380 C   0  0  0  0  0  0  0  0  0  0  0  0
   -5.6750   15.4410  -33.1290 F   0  0  0  0  0  0  0  0  0  0  0  0
   -5.4160   16.7160  -34.9560 F   0  0  0  0  0  0  0  0  0  0  0  0
   -7.4310   15.8200  -34.4880 F   0  0  0  0  0  0  0  0  0  0  0  0
   -5.8740   18.7670  -33.2290 C   0  0  0  0  0  0  0  0  0  0  0  0
   -6.2850   19.9100  -32.5330 C   0  0  0  0  0  0  0  0  0  0  0  0
   -0.7050   20.5630  -30.9200 C   0  0  0  0  0  0  0  0  0  0  0  0
   -0.4000   21.0050  -29.6340 C   0  0  0  0  0  0  0  0  0  0  0  0
   -1.0680   22.0980  -29.0610 C   0  0  0  0  0  0  0  0  0  0  0  0
   -0.6690   22.4460  -27.3570 S   0  0  0  0  0  0  0  0  0  0  0  0
   -1.7480   21.9810  -26.4260 O   0  0  0  0  0  0  0  0  0  0  0  0
    0.5580   21.6540  -27.0020 O   0  0  0  0  0  0  0  0  0  0  0  0
   -0.3530   24.1440  -27.0550 N   0  0  0  0  0  0  0  0  0  0  0  0
    1.0830   24.4780  -27.0410 C   0  0  0  0  0  0  0  0  0  0  0  0
    1.3070   25.3670  -25.8110 C   0  0  1  0  0  0  0  0  0  0  0  0
    2.7450   25.2660  -25.2750 C   0  0  0  0  0  0  0  0  0  0  0  0
    0.9260   26.8480  -26.1020 C   0  0  0  0  0  0  0  0  0  0  0  0
   -0.5570   27.0560  -26.5400 C   0  0  1  0  0  0  0  0  0  0  0  0
   -0.6490   27.1770  -27.9410 O   0  0  0  0  0  0  0  0  0  0  0  0
   -1.5490   25.9910  -25.9740 C   0  0  0  0  0  0  0  0  0  0  0  0
   -0.8920   24.6110  -25.7630 C   0  0  2  0  0  0  0  0  0  0  0  0
    0.3000   24.7900  -24.8390 C   0  0  0  0  0  0  0  0  0  0  0  0
   -4.2662   23.8877  -26.0950 H   0  0  0  0  0  0  0  0  0  0  0  0
   -3.2875   25.1296  -26.9474 H   0  0  0  0  0  0  0  0  0  0  0  0
   -5.0802   25.2433  -26.9474 H   0  0  0  0  0  0  0  0  0  0  0  0
   -5.1870   23.9490  -28.6750 H   0  0  0  0  0  0  0  0  0  0  0  0
   -4.2312   22.1782  -26.7934 H   0  0  0  0  0  0  0  0  0  0  0  0
   -5.1197   21.8199  -28.3129 H   0  0  0  0  0  0  0  0  0  0  0  0
   -3.3241   21.8699  -28.3129 H   0  0  0  0  0  0  0  0  0  0  0  0
   -3.0742   22.8671  -31.7453 H   0  0  0  0  0  0  0  0  0  0  0  0
   -5.5590   24.5920  -29.7980 H   0  0  0  0  0  0  0  0  0  0  0  0
   -8.3675   21.4946  -30.5414 H   0  0  0  0  0  0  0  0  0  0  0  0
   -9.1777   18.8132  -31.0930 H   0  0  0  0  0  0  0  0  0  0  0  0
   -8.5210   16.7431  -32.3639 H   0  0  0  0  0  0  0  0  0  0  0  0
   -4.9485   18.7724  -33.8235 H   0  0  0  0  0  0  0  0  0  0  0  0
   -0.1673   19.7019  -31.3435 H   0  0  0  0  0  0  0  0  0  0  0  0
    0.3798   20.4868  -29.0567 H   0  0  0  0  0  0  0  0  0  0  0  0
    1.6864   23.5615  -26.9634 H   0  0  0  0  0  0  0  0  0  0  0  0
    1.3825   24.9927  -27.9659 H   0  0  0  0  0  0  0  0  0  0  0  0
    2.7273   25.2672  -24.1751 H   0  0  0  0  0  0  0  0  0  0  0  0
    3.2052   24.3333  -25.6332 H   0  0  0  0  0  0  0  0  0  0  0  0
    3.3310   26.1252  -25.6332 H   0  0  0  0  0  0  0  0  0  0  0  0
    1.1006   27.4345  -25.1879 H   0  0  0  0  0  0  0  0  0  0  0  0
    1.5520   27.1741  -26.9457 H   0  0  0  0  0  0  0  0  0  0  0  0
   -0.8815   28.0031  -26.0843 H   0  0  0  0  0  0  0  0  0  0  0  0
   -0.5460   26.2790  -28.3430 H   0  0  0  0  0  0  0  0  0  0  0  0
   -1.9335   26.3482  -25.0073 H   0  0  0  0  0  0  0  0  0  0  0  0
   -2.3539   25.8639  -26.7129 H   0  0  0  0  0  0  0  0  0  0  0  0
   -1.6280   23.9039  -25.3526 H   0  0  0  0  0  0  0  0  0  0  0  0
    0.0786   25.4888  -24.0188 H   0  0  0  0  0  0  0  0  0  0  0  0
    0.6271   23.8744  -24.3246 H   0  0  0  0  0  0  0  0  0  0  0  0
  1  2  1  0
  2  3  1  0
  2  4  1  0
  4  5  2  0
  4  6  2  0
  4  7  1  0
  7  8  2  0
  8  9  1  0
  9 10  1  0
 10 11  2  0
 10 12  1  0
 12 13  1  0
 13 14  2  0
 13 15  1  0
 15 16  1  0
 16 17  1  0
 17 18  1  0
 17 19  2  0
 16 20  2  0
 20 21  1  0
 21 22  2  0
 22 23  1  0
 23 24  2  0
 24 25  1  0
 25 26  1  0
 25 27  1  0
 25 28  1  0
 24 29  1  0
 29 30  2  0
  9 31  2  0
 31 32  1  0
 32 33  2  0
 33 34  1  0
 34 35  2  0
 34 36  2  0
 34 37  1  0
 37 38  1  0
 38 39  1  0
 39 40  1  1
 39 41  1  0
 41 42  1  0
 42 43  1  0
 42 44  1  0
 44 45  1  0
 45 46  1  0
 33  7  1  0
 45 37  1  0
 30 15  1  0
 46 39  1  0
 30 21  1  0
  1 47  1  0
  1 48  1  0
  1 49  1  0
  2 50  1  0
  3 51  1  0
  3 52  1  0
  3 53  1  0
  8 54  1  0
 18 55  1  0
 20 56  1  0
 22 57  1  0
 23 58  1  0
 29 59  1  0
 31 60  1  0
 32 61  1  0
 38 62  1  0
 38 63  1  0
 40 64  1  0
 40 65  1  0
 40 66  1  0
 41 67  1  0
 41 68  1  0
 42 69  1  1
 43 70  1  0
 44 71  1  0
 44 72  1  0
 45 73  1  1
 46 74  1  0
 46 75  1  0
M  CHG  2   2   1  18  -1
M  END
>  <UniqueID>  (79) 
78

>  <SMILES>  (79) 
C[NH+](C)S(=O)(=O)c1cc(C(=O)OC(=O)n2c(C([NH-])=O)cc3ccc(C(F)(F)F)cc32)ccc1S(=O)(=O)N1C[C@]2(C)CC1C[C@H](O)C2

>  <Energy>  (79) 
141.27708465448254

>  <Genealogy>  (79) 
C[NH+](C)S(=O)(=O)c1cc(C(=O)OC(=O)n2c(C([NH-])=O)cc3ccc(C(F)(F)F)cc32)ccc1S(=O)(=O)N1CC2(C)CC(O)CC1C2 (protonated)
C[NH+](C)S(=O)(=O)c1cc(C(=O)OC(=O)n2c(C([NH-])=O)cc3ccc(C(F)(F)F)cc32)ccc1S(=O)(=O)N1C[C@]2(C)CC1C[C@H](O)C2 (chirality)
C[NH+](C)S(=O)(=O)c1cc(C(=O)OC(=O)n2c(C([NH-])=O)cc3ccc(C(F)(F)F)cc32)ccc1S(=O)(=O)N1C[C@]2(C)CC1C[C@H](O)C2 (3D coordinates assigned)
C[NH+](C)S(=O)(=O)c1cc(C(=O)OC(=O)n2c(C([NH-])=O)cc3ccc(C(F)(F)F)cc32)ccc1S(=O)(=O)N1C[C@]2(C)CC1C[C@H](O)C2 (nonaromatic ring conformer: 141.27708465448254 kcal/mol)

>  <smiles>  (79) 
CN(C)S(=O)(=O)c1cc(C(=O)OC(=O)n2c(C(N)=O)cc3ccc(C(F)(F)F)cc32)ccc1S(=O)(=O)N1CC2(C)CC(O)CC1C2

>  <score_type>  (79) 
oracle

>  <origin>  (79) 
adg

>  <m_score__min__energy>  (79) 
-12.35

>  <m_primary>  (79) 
energy

$$$$
80:0
     RDKit          3D

 31 32  0  0  0  0  0  0  0  0999 V2000
   -3.7530   22.8960  -28.4980 C   0  0  0  0  0  0  0  0  0  0  0  0
   -3.1010   23.0610  -29.6560 C   0  0  0  0  0  0  0  0  0  0  0  0
   -1.6730   23.5470  -29.6350 C   0  0  0  0  0  0  0  0  0  0  0  0
   -1.5990   25.1870  -28.9490 S   0  0  0  0  0  0  0  0  0  0  0  0
   -3.7450   22.6890  -30.9420 C   0  0  0  0  0  0  0  0  0  0  0  0
   -3.0440   22.3090  -31.9200 O   0  0  0  0  0  0  0  0  0  0  0  0
   -5.1690   22.7620  -31.0980 N   0  0  0  0  0  0  0  0  0  0  0  0
   -5.9690   23.8540  -30.9470 C   0  0  0  0  0  0  0  0  0  0  0  0
   -5.5300   25.1940  -30.5030 C   0  0  0  0  0  0  0  0  0  0  0  0
   -4.2090   25.6600  -30.7650 N   0  0  0  0  0  0  0  0  0  0  0  0
   -6.3290   25.9350  -29.8710 O   0  0  0  0  0  0  0  0  0  0  0  0
   -7.2920   23.5290  -31.2500 C   0  0  0  0  0  0  0  0  0  0  0  0
   -7.2700   22.1970  -31.6010 C   0  0  0  0  0  0  0  0  0  0  0  0
   -8.3050   21.3530  -31.9910 C   0  0  0  0  0  0  0  0  0  0  0  0
   -7.9850   20.0200  -32.3020 C   0  0  0  0  0  0  0  0  0  0  0  0
   -6.6420   19.5600  -32.2390 C   0  0  0  0  0  0  0  0  0  0  0  0
   -6.3200   18.1160  -32.5270 C   0  0  0  0  0  0  0  0  0  0  0  0
   -5.1580   18.0490  -33.2720 F   0  0  0  0  0  0  0  0  0  0  0  0
   -7.3470   17.5190  -33.2380 F   0  0  0  0  0  0  0  0  0  0  0  0
   -6.1440   17.4110  -31.3490 F   0  0  0  0  0  0  0  0  0  0  0  0
   -5.6240   20.4450  -31.8160 C   0  0  0  0  0  0  0  0  0  0  0  0
   -5.9750   21.7620  -31.5070 C   0  0  0  0  0  0  0  0  0  0  0  0
   -4.7946   22.5422  -28.4988 H   0  0  0  0  0  0  0  0  0  0  0  0
   -3.2470   23.1142  -27.5460 H   0  0  0  0  0  0  0  0  0  0  0  0
   -1.0657   22.8669  -29.0197 H   0  0  0  0  0  0  0  0  0  0  0  0
   -1.2832   23.5676  -30.6634 H   0  0  0  0  0  0  0  0  0  0  0  0
   -3.4890   25.6880  -30.0100 H   0  0  0  0  0  0  0  0  0  0  0  0
   -8.1667   24.1951  -31.2158 H   0  0  0  0  0  0  0  0  0  0  0  0
   -9.3410   21.7173  -32.0540 H   0  0  0  0  0  0  0  0  0  0  0  0
   -8.7841   19.3244  -32.5978 H   0  0  0  0  0  0  0  0  0  0  0  0
   -4.5811   20.1053  -31.7321 H   0  0  0  0  0  0  0  0  0  0  0  0
  1  2  2  0
  2  3  1  0
  3  4  1  0
  2  5  1  0
  5  6  2  0
  5  7  1  0
  7  8  1  0
  8  9  1  0
  9 10  1  0
  9 11  2  0
  8 12  2  0
 12 13  1  0
 13 14  2  0
 14 15  1  0
 15 16  2  0
 16 17  1  0
 17 18  1  0
 17 19  1  0
 17 20  1  0
 16 21  1  0
 21 22  2  0
 22  7  1  0
 22 13  1  0
  1 23  1  0
  1 24  1  0
  3 25  1  0
  3 26  1  0
 10 27  1  0
 12 28  1  0
 14 29  1  0
 15 30  1  0
 21 31  1  0
M  CHG  2   4  -1  10  -1
M  END
>  <UniqueID>  (80) 
79

>  <SMILES>  (80) 
C=C(C[S-])C(=O)n1c(C([NH-])=O)cc2ccc(C(F)(F)F)cc21

>  <Energy>  (80) 
70.2226590353829

>  <Genealogy>  (80) 
C=C(C[S-])C(=O)n1c(C([NH-])=O)cc2ccc(C(F)(F)F)cc21 (protonated)
C=C(C[S-])C(=O)n1c(C([NH-])=O)cc2ccc(C(F)(F)F)cc21 (3D coordinates assigned)
C=C(C[S-])C(=O)n1c(C([NH-])=O)cc2ccc(C(F)(F)F)cc21 (optimized conformer: 70.2226590353829 kcal/mol)

>  <smiles>  (80) 
C=C(CS)C(=O)n1c(C(N)=O)cc2ccc(C(F)(F)F)cc21

>  <score_type>  (80) 
oracle

>  <origin>  (80) 
adg

>  <m_score__min__energy>  (80) 
-11.210000000000001

>  <m_primary>  (80) 
energy

$$$$
81:0
     RDKit          3D

 39 40  0  0  0  0  0  0  0  0999 V2000
   -8.4130   19.9570  -33.4470 N   0  0  0  0  0  0  0  0  0  0  0  0
   -8.7910   20.8740  -32.4190 C   0  0  0  0  0  0  0  0  0  0  0  0
   -9.9450   20.8000  -31.9200 O   0  0  0  0  0  0  0  0  0  0  0  0
   -7.8320   21.8630  -31.8850 C   0  0  0  0  0  0  0  0  0  0  0  0
   -8.2160   23.0730  -31.3150 C   0  0  0  0  0  0  0  0  0  0  0  0
   -7.0460   23.6620  -30.8920 C   0  0  0  0  0  0  0  0  0  0  0  0
   -6.8390   24.8850  -30.2660 C   0  0  0  0  0  0  0  0  0  0  0  0
   -5.5180   25.2600  -29.9750 C   0  0  0  0  0  0  0  0  0  0  0  0
   -4.4280   24.4220  -30.3230 C   0  0  0  0  0  0  0  0  0  0  0  0
   -3.0900   24.8580  -30.0110 N   0  0  0  0  0  0  0  0  0  0  0  0
   -2.2340   24.2570  -28.9860 C   0  0  0  0  0  0  0  0  0  0  0  0
   -0.9890   25.1080  -28.7440 C   0  0  0  0  0  0  0  0  0  0  0  0
   -1.2300   26.4280  -29.1430 O   0  0  0  0  0  0  0  0  0  0  0  0
   -4.6830   23.1810  -30.9570 C   0  0  0  0  0  0  0  0  0  0  0  0
   -6.0120   22.8230  -31.2160 C   0  0  0  0  0  0  0  0  0  0  0  0
   -6.4790   21.7120  -31.8310 N   0  0  0  0  0  0  0  0  0  0  0  0
   -5.6930   20.6580  -32.4100 C   0  0  0  0  0  0  0  0  0  0  0  0
   -4.6790   20.9410  -33.1060 O   0  0  0  0  0  0  0  0  0  0  0  0
   -6.0540   19.3220  -32.1970 O   0  0  0  0  0  0  0  0  0  0  0  0
   -5.3110   18.2170  -32.7060 C   0  0  0  0  0  0  0  0  0  0  0  0
   -5.8930   17.7480  -34.0380 C   0  0  0  0  0  0  0  0  0  0  0  0
   -6.1010   18.8540  -34.8700 O   0  0  0  0  0  0  0  0  0  0  0  0
   -7.4200   19.8740  -33.7580 H   0  0  0  0  0  0  0  0  0  0  0  0
   -9.1170   19.2940  -33.8420 H   0  0  0  0  0  0  0  0  0  0  0  0
   -9.2364   23.4732  -31.2223 H   0  0  0  0  0  0  0  0  0  0  0  0
   -7.6843   25.5393  -30.0064 H   0  0  0  0  0  0  0  0  0  0  0  0
   -5.3254   26.2179  -29.4696 H   0  0  0  0  0  0  0  0  0  0  0  0
   -2.6970   25.6700  -30.5400 H   0  0  0  0  0  0  0  0  0  0  0  0
   -2.8011   24.1743  -28.0471 H   0  0  0  0  0  0  0  0  0  0  0  0
   -1.9165   23.2628  -29.3337 H   0  0  0  0  0  0  0  0  0  0  0  0
   -0.7376   25.0906  -27.6732 H   0  0  0  0  0  0  0  0  0  0  0  0
   -0.1516   24.6997  -29.3289 H   0  0  0  0  0  0  0  0  0  0  0  0
   -1.2410   26.4180  -30.1360 H   0  0  0  0  0  0  0  0  0  0  0  0
   -3.8556   22.5135  -31.2396 H   0  0  0  0  0  0  0  0  0  0  0  0
   -4.2649   18.5225  -32.8557 H   0  0  0  0  0  0  0  0  0  0  0  0
   -5.3650   17.3894  -31.9835 H   0  0  0  0  0  0  0  0  0  0  0  0
   -5.1906   17.0526  -34.5208 H   0  0  0  0  0  0  0  0  0  0  0  0
   -6.8506   17.2366  -33.8606 H   0  0  0  0  0  0  0  0  0  0  0  0
   -5.8470   19.6520  -34.3360 H   0  0  0  0  0  0  0  0  0  0  0  0
  1  2  1  0
  2  3  2  0
  2  4  1  0
  4  5  2  0
  5  6  1  0
  6  7  2  0
  7  8  1  0
  8  9  2  0
  9 10  1  0
 10 11  1  0
 11 12  1  0
 12 13  1  0
  9 14  1  0
 14 15  2  0
 15 16  1  0
 16 17  1  0
 17 18  2  0
 17 19  1  0
 19 20  1  0
 20 21  1  0
 21 22  1  0
 16  4  1  0
 15  6  1  0
  1 23  1  0
  1 24  1  0
  5 25  1  0
  7 26  1  0
  8 27  1  0
 10 28  1  0
 11 29  1  0
 11 30  1  0
 12 31  1  0
 12 32  1  0
 13 33  1  0
 14 34  1  0
 20 35  1  0
 20 36  1  0
 21 37  1  0
 21 38  1  0
 22 39  1  0
M  END
>  <UniqueID>  (81) 
80

>  <SMILES>  (81) 
NC(=O)c1cc2ccc(NCCO)cc2n1C(=O)OCCO

>  <Energy>  (81) 
71.12291506740259

>  <Genealogy>  (81) 
NC(=O)c1cc2ccc(NCCO)cc2n1C(=O)OCCO (3D coordinates assigned)
NC(=O)c1cc2ccc(NCCO)cc2n1C(=O)OCCO (optimized conformer: 71.12291506740259 kcal/mol)

>  <smiles>  (81) 
NC(=O)c1cc2ccc(NCCO)cc2n1C(=O)OCCO

>  <score_type>  (81) 
oracle

>  <origin>  (81) 
adg

>  <m_score__min__energy>  (81) 
-8.2400000000000002

>  <m_primary>  (81) 
energy

$$$$
82:0
     RDKit          3D

 44 45  0  0  0  0  0  0  0  0999 V2000
   -2.6570   20.7720  -33.4860 C   0  0  0  0  0  0  0  0  0  0  0  0
   -3.9150   20.3850  -32.8400 N   0  0  0  0  0  0  0  0  0  0  0  0
   -4.7130   19.3300  -33.4110 C   0  0  0  0  0  0  0  0  0  0  0  0
   -5.5630   19.5980  -34.3040 O   0  0  0  0  0  0  0  0  0  0  0  0
   -4.5350   18.0070  -32.9750 O   0  0  0  0  0  0  0  0  0  0  0  0
   -5.5610   17.0990  -32.5540 C   0  0  0  0  0  0  0  0  0  0  0  0
   -6.1160   17.6280  -31.2240 C   0  0  0  0  0  0  0  0  0  0  0  0
   -4.9810   15.6900  -32.3270 C   0  0  0  0  0  0  0  0  0  0  0  0
   -6.7020   17.0570  -33.5880 C   0  0  0  0  0  0  0  0  0  0  0  0
   -4.2610   20.9560  -31.5610 C   0  0  0  0  0  0  0  0  0  0  0  0
   -3.6330   20.6060  -30.5250 O   0  0  0  0  0  0  0  0  0  0  0  0
   -5.2930   21.9520  -31.4520 N   0  0  0  0  0  0  0  0  0  0  0  0
   -5.1520   23.2710  -31.1440 C   0  0  0  0  0  0  0  0  0  0  0  0
   -3.8970   23.9370  -30.7370 C   0  0  0  0  0  0  0  0  0  0  0  0
   -3.8530   25.3400  -30.4940 N   0  0  0  0  0  0  0  0  0  0  0  0
   -2.8370   23.2620  -30.6390 O   0  0  0  0  0  0  0  0  0  0  0  0
   -6.3890   23.9120  -31.1690 C   0  0  0  0  0  0  0  0  0  0  0  0
   -7.3010   22.9340  -31.4940 C   0  0  0  0  0  0  0  0  0  0  0  0
   -8.6850   23.0050  -31.6250 C   0  0  0  0  0  0  0  0  0  0  0  0
   -9.3770   21.8270  -31.9550 C   0  0  0  0  0  0  0  0  0  0  0  0
   -8.6750   20.6140  -32.1670 C   0  0  0  0  0  0  0  0  0  0  0  0
   -9.4260   19.3530  -32.4750 C   0  0  0  0  0  0  0  0  0  0  0  0
   -9.0130   18.3500  -31.6180 F   0  0  0  0  0  0  0  0  0  0  0  0
   -7.2720   20.5780  -32.0150 C   0  0  0  0  0  0  0  0  0  0  0  0
   -6.6130   21.7620  -31.6670 C   0  0  0  0  0  0  0  0  0  0  0  0
   -1.9056   21.0031  -32.7166 H   0  0  0  0  0  0  0  0  0  0  0  0
   -2.2967   19.9432  -34.1131 H   0  0  0  0  0  0  0  0  0  0  0  0
   -2.8248   21.6600  -34.1131 H   0  0  0  0  0  0  0  0  0  0  0  0
   -5.5982   17.1344  -30.3884 H   0  0  0  0  0  0  0  0  0  0  0  0
   -5.9541   18.7144  -31.1653 H   0  0  0  0  0  0  0  0  0  0  0  0
   -7.1934   17.4142  -31.1653 H   0  0  0  0  0  0  0  0  0  0  0  0
   -4.9011   15.4960  -31.2472 H   0  0  0  0  0  0  0  0  0  0  0  0
   -5.6444   14.9421  -32.7859 H   0  0  0  0  0  0  0  0  0  0  0  0
   -3.9833   15.6259  -32.7859 H   0  0  0  0  0  0  0  0  0  0  0  0
   -7.6693   17.0214  -33.0654 H   0  0  0  0  0  0  0  0  0  0  0  0
   -6.6588   17.9573  -34.2185 H   0  0  0  0  0  0  0  0  0  0  0  0
   -6.5927   16.1623  -34.2185 H   0  0  0  0  0  0  0  0  0  0  0  0
   -3.4950   26.0010  -31.2170 H   0  0  0  0  0  0  0  0  0  0  0  0
   -6.5932   24.9746  -30.9709 H   0  0  0  0  0  0  0  0  0  0  0  0
   -9.2207   23.9540  -31.4749 H   0  0  0  0  0  0  0  0  0  0  0  0
  -10.4728   21.8466  -32.0496 H   0  0  0  0  0  0  0  0  0  0  0  0
  -10.5042   19.5269  -32.3435 H   0  0  0  0  0  0  0  0  0  0  0  0
   -9.2273   19.0523  -33.5143 H   0  0  0  0  0  0  0  0  0  0  0  0
   -6.7116   19.6436  -32.1662 H   0  0  0  0  0  0  0  0  0  0  0  0
  1  2  1  0
  2  3  1  0
  3  4  2  0
  3  5  1  0
  5  6  1  0
  6  7  1  0
  6  8  1  0
  6  9  1  0
  2 10  1  0
 10 11  2  0
 10 12  1  0
 12 13  1  0
 13 14  1  0
 14 15  1  0
 14 16  2  0
 13 17  2  0
 17 18  1  0
 18 19  2  0
 19 20  1  0
 20 21  2  0
 21 22  1  0
 22 23  1  0
 21 24  1  0
 24 25  2  0
 25 12  1  0
 25 18  1  0
  1 26  1  0
  1 27  1  0
  1 28  1  0
  7 29  1  0
  7 30  1  0
  7 31  1  0
  8 32  1  0
  8 33  1  0
  8 34  1  0
  9 35  1  0
  9 36  1  0
  9 37  1  0
 15 38  1  0
 17 39  1  0
 19 40  1  0
 20 41  1  0
 22 42  1  0
 22 43  1  0
 24 44  1  0
M  CHG  1  15  -1
M  END
>  <UniqueID>  (82) 
81

>  <SMILES>  (82) 
CN(C(=O)OC(C)(C)C)C(=O)n1c(C([NH-])=O)cc2ccc(CF)cc21

>  <Energy>  (82) 
75.48689171444158

>  <Genealogy>  (82) 
CN(C(=O)OC(C)(C)C)C(=O)n1c(C([NH-])=O)cc2ccc(CF)cc21 (protonated)
CN(C(=O)OC(C)(C)C)C(=O)n1c(C([NH-])=O)cc2ccc(CF)cc21 (3D coordinates assigned)
CN(C(=O)OC(C)(C)C)C(=O)n1c(C([NH-])=O)cc2ccc(CF)cc21 (optimized conformer: 75.48689171444158 kcal/mol)

>  <smiles>  (82) 
CN(C(=O)OC(C)(C)C)C(=O)n1c(C(N)=O)cc2ccc(CF)cc21

>  <score_type>  (82) 
oracle

>  <origin>  (82) 
adg

>  <m_score__min__energy>  (82) 
-10.289999999999999

>  <m_primary>  (82) 
energy

$$$$
83:0
     RDKit          3D

 41 42  0  0  0  0  0  0  0  0999 V2000
   -5.7150   17.8000  -34.7890 C   0  0  0  0  0  0  0  0  0  0  0  0
   -6.1250   18.6570  -34.0470 C   0  0  0  0  0  0  0  0  0  0  0  0
   -6.6140   19.6800  -33.1630 C   0  0  0  0  0  0  0  0  0  0  0  0
   -7.9620   19.6560  -32.7350 C   0  0  0  0  0  0  0  0  0  0  0  0
   -8.4490   20.6410  -31.8580 C   0  0  0  0  0  0  0  0  0  0  0  0
   -7.5670   21.6360  -31.4420 C   0  0  0  0  0  0  0  0  0  0  0  0
   -7.7660   22.6840  -30.5730 C   0  0  0  0  0  0  0  0  0  0  0  0
   -6.5440   23.3480  -30.5130 C   0  0  0  0  0  0  0  0  0  0  0  0
   -6.3280   24.5820  -29.7310 C   0  0  0  0  0  0  0  0  0  0  0  0
   -5.1050   24.8090  -29.0300 N   0  0  0  0  0  0  0  0  0  0  0  0
   -7.2160   25.4760  -29.7280 O   0  0  0  0  0  0  0  0  0  0  0  0
   -5.6200   22.7290  -31.3000 N   0  0  0  0  0  0  0  0  0  0  0  0
   -4.2210   23.0400  -31.4190 C   0  0  0  0  0  0  0  0  0  0  0  0
   -3.8260   24.2210  -31.2180 O   0  0  0  0  0  0  0  0  0  0  0  0
   -3.3130   22.0290  -31.7570 O   0  0  0  0  0  0  0  0  0  0  0  0
   -2.2640   21.5810  -30.9440 C   0  0  0  0  0  0  0  0  0  0  0  0
   -1.5550   20.5940  -31.2870 O   0  0  0  0  0  0  0  0  0  0  0  0
   -2.0220   22.2540  -29.7400 O   0  0  0  0  0  0  0  0  0  0  0  0
   -2.7280   22.0500  -28.5460 C   0  0  0  0  0  0  0  0  0  0  0  0
   -2.7980   20.9060  -28.0210 O   0  0  0  0  0  0  0  0  0  0  0  0
   -3.3490   23.1470  -27.9400 O   0  0  0  0  0  0  0  0  0  0  0  0
   -2.6850   24.0230  -27.0310 C   0  0  0  0  0  0  0  0  0  0  0  0
   -1.2530   24.3000  -27.5000 C   0  0  0  0  0  0  0  0  0  0  0  0
   -1.2300   25.3400  -28.6180 C   0  0  0  0  0  0  0  0  0  0  0  0
   -2.4320   25.2830  -29.3330 O   0  0  0  0  0  0  0  0  0  0  0  0
   -6.2630   21.6820  -31.8660 C   0  0  0  0  0  0  0  0  0  0  0  0
   -5.7470   20.6990  -32.7210 C   0  0  0  0  0  0  0  0  0  0  0  0
   -5.3409   17.0180  -35.4661 H   0  0  0  0  0  0  0  0  0  0  0  0
   -8.6339   18.8611  -33.0908 H   0  0  0  0  0  0  0  0  0  0  0  0
   -9.4929   20.6266  -31.5114 H   0  0  0  0  0  0  0  0  0  0  0  0
   -8.6928   22.9420  -30.0396 H   0  0  0  0  0  0  0  0  0  0  0  0
   -4.2870   24.1720  -29.1510 H   0  0  0  0  0  0  0  0  0  0  0  0
   -4.9860   25.6700  -28.4510 H   0  0  0  0  0  0  0  0  0  0  0  0
   -3.2374   24.9726  -26.9750 H   0  0  0  0  0  0  0  0  0  0  0  0
   -2.6484   23.5459  -26.0405 H   0  0  0  0  0  0  0  0  0  0  0  0
   -0.6629   24.6736  -26.6501 H   0  0  0  0  0  0  0  0  0  0  0  0
   -0.8255   23.3631  -27.8867 H   0  0  0  0  0  0  0  0  0  0  0  0
   -1.1092   26.3432  -28.1832 H   0  0  0  0  0  0  0  0  0  0  0  0
   -0.3896   25.1308  -29.2962 H   0  0  0  0  0  0  0  0  0  0  0  0
   -2.5690   24.3280  -29.5650 H   0  0  0  0  0  0  0  0  0  0  0  0
   -4.6940   20.7222  -33.0384 H   0  0  0  0  0  0  0  0  0  0  0  0
  1  2  3  0
  2  3  1  0
  3  4  2  0
  4  5  1  0
  5  6  2  0
  6  7  1  0
  7  8  2  0
  8  9  1  0
  9 10  1  0
  9 11  2  0
  8 12  1  0
 12 13  1  0
 13 14  2  0
 13 15  1  0
 15 16  1  0
 16 17  2  0
 16 18  1  0
 18 19  1  0
 19 20  2  0
 19 21  1  0
 21 22  1  0
 22 23  1  0
 23 24  1  0
 24 25  1  0
 12 26  1  0
 26 27  2  0
 27  3  1  0
 26  6  1  0
  1 28  1  0
  4 29  1  0
  5 30  1  0
  7 31  1  0
 10 32  1  0
 10 33  1  0
 22 34  1  0
 22 35  1  0
 23 36  1  0
 23 37  1  0
 24 38  1  0
 24 39  1  0
 25 40  1  0
 27 41  1  0
M  END
>  <UniqueID>  (83) 
82

>  <SMILES>  (83) 
C#Cc1ccc2cc(C(N)=O)n(C(=O)OC(=O)OC(=O)OCCCO)c2c1

>  <Energy>  (83) 
74.9770078486691

>  <Genealogy>  (83) 
C#Cc1ccc2cc(C(N)=O)n(C(=O)OC(=O)OC(=O)OCCCO)c2c1 (3D coordinates assigned)
C#Cc1ccc2cc(C(N)=O)n(C(=O)OC(=O)OC(=O)OCCCO)c2c1 (optimized conformer: 74.9770078486691 kcal/mol)

>  <smiles>  (83) 
C#Cc1ccc2cc(C(N)=O)n(C(=O)OC(=O)OC(=O)OCCCO)c2c1

>  <score_type>  (83) 
oracle

>  <origin>  (83) 
adg

>  <m_score__min__energy>  (83) 
-8.3900000000000006

>  <m_primary>  (83) 
energy

$$$$
84:0
     RDKit          3D

 66 69  0  0  0  0  0  0  0  0999 V2000
   -6.5230   18.2330  -33.9950 C   0  0  0  0  0  0  0  0  0  0  0  0
   -7.0360   18.8910  -32.7050 C   0  0  0  0  0  0  0  0  0  0  0  0
   -5.8800   18.9660  -31.6920 C   0  0  0  0  0  0  0  0  0  0  0  0
   -8.1980   18.0500  -32.1420 C   0  0  0  0  0  0  0  0  0  0  0  0
   -7.4850   20.2080  -33.0520 O   0  0  0  0  0  0  0  0  0  0  0  0
   -7.8660   21.2210  -32.1570 C   0  0  0  0  0  0  0  0  0  0  0  0
   -9.0570   21.6510  -32.1280 O   0  0  0  0  0  0  0  0  0  0  0  0
   -6.8700   21.7810  -31.2740 N   0  0  2  0  0  0  0  0  0  0  0  0
   -7.4930   22.7560  -30.3460 C   0  0  0  0  0  0  0  0  0  0  0  0
   -6.4640   23.7760  -29.8380 C   0  0  2  0  0  0  0  0  0  0  0  0
   -6.0180   24.6690  -31.0140 C   0  0  0  0  0  0  0  0  0  0  0  0
   -5.8290   23.8520  -32.3100 C   0  0  0  0  0  0  0  0  0  0  0  0
   -5.7060   22.3290  -32.0410 C   0  0  1  0  0  0  0  0  0  0  0  0
   -4.3680   22.0110  -31.3280 C   0  0  0  0  0  0  0  0  0  0  0  0
   -4.1610   22.7540  -30.0700 N   0  0  0  0  0  0  0  0  0  0  0  0
   -2.8120   22.8540  -29.5620 C   0  0  0  0  0  0  0  0  0  0  0  0
   -1.7940   21.9930  -30.0490 C   0  0  0  0  0  0  0  0  0  0  0  0
   -0.4870   22.0660  -29.5450 C   0  0  0  0  0  0  0  0  0  0  0  0
   -0.2240   22.9980  -28.5510 C   0  0  0  0  0  0  0  0  0  0  0  0
    0.9320   23.2270  -27.8390 C   0  0  0  0  0  0  0  0  0  0  0  0
    0.6050   24.2170  -26.9170 C   0  0  0  0  0  0  0  0  0  0  0  0
    1.5710   24.7880  -25.9550 C   0  0  0  0  0  0  0  0  0  0  0  0
    1.6970   24.2540  -24.6390 N   0  0  0  0  0  0  0  0  0  0  0  0
    2.2700   25.7850  -26.2900 O   0  0  0  0  0  0  0  0  0  0  0  0
   -0.6980   24.5880  -27.0580 N   0  0  0  0  0  0  0  0  0  0  0  0
   -1.4660   25.4180  -26.1780 C   0  0  0  0  0  0  0  0  0  0  0  0
   -2.7100   25.2480  -26.0770 O   0  0  0  0  0  0  0  0  0  0  0  0
   -0.8190   26.4100  -25.4350 O   0  0  0  0  0  0  0  0  0  0  0  0
   -1.2560   26.8460  -24.1510 C   0  0  0  0  0  0  0  0  0  0  0  0
   -0.1190   26.7430  -23.1290 C   0  0  0  0  0  0  0  0  0  0  0  0
    1.1270   26.9270  -23.7480 O   0  0  0  0  0  0  0  0  0  0  0  0
   -1.1900   23.8370  -28.0650 C   0  0  0  0  0  0  0  0  0  0  0  0
   -2.4990   23.7980  -28.5580 C   0  0  0  0  0  0  0  0  0  0  0  0
   -5.2750   23.0620  -29.1470 C   0  0  0  0  0  0  0  0  0  0  0  0
   -5.8651   17.3892  -33.7396 H   0  0  0  0  0  0  0  0  0  0  0  0
   -7.3766   17.8671  -34.5845 H   0  0  0  0  0  0  0  0  0  0  0  0
   -5.9600   18.9716  -34.5845 H   0  0  0  0  0  0  0  0  0  0  0  0
   -6.2858   18.9397  -30.6699 H   0  0  0  0  0  0  0  0  0  0  0  0
   -5.2058   18.1097  -31.8410 H   0  0  0  0  0  0  0  0  0  0  0  0
   -5.3221   19.9022  -31.8410 H   0  0  0  0  0  0  0  0  0  0  0  0
   -8.1675   18.0720  -31.0426 H   0  0  0  0  0  0  0  0  0  0  0  0
   -9.1546   18.4664  -32.4907 H   0  0  0  0  0  0  0  0  0  0  0  0
   -8.1014   17.0112  -32.4907 H   0  0  0  0  0  0  0  0  0  0  0  0
   -6.5370   20.9820  -30.6840 H   0  0  0  0  0  0  0  0  0  0  0  0
   -8.2970   23.2900  -30.8736 H   0  0  0  0  0  0  0  0  0  0  0  0
   -7.8940   22.2064  -29.4817 H   0  0  0  0  0  0  0  0  0  0  0  0
   -6.9204   24.4214  -29.0731 H   0  0  0  0  0  0  0  0  0  0  0  0
   -6.7834   25.4399  -31.1867 H   0  0  0  0  0  0  0  0  0  0  0  0
   -5.0520   25.1252  -30.7517 H   0  0  0  0  0  0  0  0  0  0  0  0
   -6.6951   24.0254  -32.9655 H   0  0  0  0  0  0  0  0  0  0  0  0
   -4.8920   24.1845  -32.7805 H   0  0  0  0  0  0  0  0  0  0  0  0
   -5.7150   21.8263  -33.0194 H   0  0  0  0  0  0  0  0  0  0  0  0
   -4.3456   20.9350  -31.1007 H   0  0  0  0  0  0  0  0  0  0  0  0
   -3.5641   22.3191  -32.0128 H   0  0  0  0  0  0  0  0  0  0  0  0
   -2.0333   21.2586  -30.8322 H   0  0  0  0  0  0  0  0  0  0  0  0
    0.3052   21.4047  -29.9260 H   0  0  0  0  0  0  0  0  0  0  0  0
    1.9060   22.7330  -27.9707 H   0  0  0  0  0  0  0  0  0  0  0  0
    1.3230   24.7780  -23.8130 H   0  0  0  0  0  0  0  0  0  0  0  0
   -1.5874   27.8927  -24.2184 H   0  0  0  0  0  0  0  0  0  0  0  0
   -2.0864   26.2036  -23.8227 H   0  0  0  0  0  0  0  0  0  0  0  0
   -0.2561   27.5157  -22.3582 H   0  0  0  0  0  0  0  0  0  0  0  0
   -0.1425   25.7409  -22.6759 H   0  0  0  0  0  0  0  0  0  0  0  0
    1.1510   26.3140  -24.5280 H   0  0  0  0  0  0  0  0  0  0  0  0
   -3.2663   24.4859  -28.1731 H   0  0  0  0  0  0  0  0  0  0  0  0
   -5.6388   22.1194  -28.7121 H   0  0  0  0  0  0  0  0  0  0  0  0
   -4.8835   23.7479  -28.3813 H   0  0  0  0  0  0  0  0  0  0  0  0
  1  2  1  0
  2  3  1  0
  2  4  1  0
  2  5  1  0
  5  6  1  0
  6  7  2  0
  6  8  1  0
  8  9  1  0
  9 10  1  0
 10 11  1  0
 11 12  1  0
 12 13  1  0
 13 14  1  0
 14 15  1  0
 15 16  1  0
 16 17  2  0
 17 18  1  0
 18 19  2  0
 19 20  1  0
 20 21  2  0
 21 22  1  0
 22 23  1  0
 22 24  2  0
 21 25  1  0
 25 26  1  0
 26 27  2  0
 26 28  1  0
 28 29  1  0
 29 30  1  0
 30 31  1  0
 25 32  1  0
 32 33  2  0
 15 34  1  0
 13  8  1  0
 33 16  1  0
 34 10  1  0
 32 19  1  0
  1 35  1  0
  1 36  1  0
  1 37  1  0
  3 38  1  0
  3 39  1  0
  3 40  1  0
  4 41  1  0
  4 42  1  0
  4 43  1  0
  8 44  1  1
  9 45  1  0
  9 46  1  0
 10 47  1  1
 11 48  1  0
 11 49  1  0
 12 50  1  0
 12 51  1  0
 13 52  1  6
 14 53  1  0
 14 54  1  0
 17 55  1  0
 18 56  1  0
 20 57  1  0
 23 58  1  0
 29 59  1  0
 29 60  1  0
 30 61  1  0
 30 62  1  0
 31 63  1  0
 33 64  1  0
 34 65  1  0
 34 66  1  0
M  CHG  2   8   1  23  -1
M  END
>  <UniqueID>  (84) 
83

>  <SMILES>  (84) 
CC(C)(C)OC(=O)[N@@H+]1C[C@@H]2CCC1CN(c1ccc3cc(C([NH-])=O)n(C(=O)OCCO)c3c1)C2

>  <Energy>  (84) 
122.51661801940611

>  <Genealogy>  (84) 
CC(C)(C)OC(=O)[NH+]1CC2CCC1CN(c1ccc3cc(C([NH-])=O)n(C(=O)OCCO)c3c1)C2 (protonated)
CC(C)(C)OC(=O)[N@@H+]1C[C@@H]2CCC1CN(c1ccc3cc(C([NH-])=O)n(C(=O)OCCO)c3c1)C2 (chirality)
CC(C)(C)OC(=O)[N@@H+]1C[C@@H]2CCC1CN(c1ccc3cc(C([NH-])=O)n(C(=O)OCCO)c3c1)C2 (3D coordinates assigned)
CC(C)(C)OC(=O)[N@@H+]1C[C@@H]2CCC1CN(c1ccc3cc(C([NH-])=O)n(C(=O)OCCO)c3c1)C2 (nonaromatic ring conformer: 122.51661801940611 kcal/mol)

>  <smiles>  (84) 
CC(C)(C)OC(=O)N1CC2CCC1CN(c1ccc3cc(C(N)=O)n(C(=O)OCCO)c3c1)C2

>  <score_type>  (84) 
oracle

>  <origin>  (84) 
adg

>  <m_score__min__energy>  (84) 
-9.0899999999999999

>  <m_primary>  (84) 
energy

$$$$
85:0
     RDKit          3D

 50 52  0  0  0  0  0  0  0  0999 V2000
   -0.8910   25.4710  -25.4660 C   0  0  0  0  0  0  0  0  0  0  0  0
   -1.8270   25.3210  -26.5910 N   0  0  0  0  0  0  0  0  0  0  0  0
   -3.2700   25.2000  -26.3590 C   0  0  0  0  0  0  0  0  0  0  0  0
   -1.3280   25.3150  -27.9410 C   0  0  0  0  0  0  0  0  0  0  0  0
   -0.0880   25.4020  -28.1550 O   0  0  0  0  0  0  0  0  0  0  0  0
   -2.2190   25.2290  -29.0170 O   0  0  0  0  0  0  0  0  0  0  0  0
   -2.8170   23.9990  -29.4200 C   0  0  0  0  0  0  0  0  0  0  0  0
   -3.3030   24.1120  -30.7550 O   0  0  0  0  0  0  0  0  0  0  0  0
   -3.9780   23.0700  -31.4000 C   0  0  0  0  0  0  0  0  0  0  0  0
   -3.3300   22.1410  -31.9570 O   0  0  0  0  0  0  0  0  0  0  0  0
   -5.4140   23.0570  -31.4240 N   0  0  0  0  0  0  0  0  0  0  0  0
   -6.2580   23.9630  -30.8580 C   0  0  0  0  0  0  0  0  0  0  0  0
   -5.8640   25.2520  -30.2570 C   0  0  0  0  0  0  0  0  0  0  0  0
   -6.3760   25.6650  -28.9880 N   0  0  0  0  0  0  0  0  0  0  0  0
   -5.0110   25.9740  -30.8470 O   0  0  0  0  0  0  0  0  0  0  0  0
   -7.5800   23.5350  -30.9660 C   0  0  0  0  0  0  0  0  0  0  0  0
   -7.5210   22.3340  -31.6350 C   0  0  0  0  0  0  0  0  0  0  0  0
   -8.5390   21.4540  -31.9920 C   0  0  0  0  0  0  0  0  0  0  0  0
   -8.1830   20.2510  -32.6270 C   0  0  0  0  0  0  0  0  0  0  0  0
   -6.8240   19.9450  -32.8850 C   0  0  0  0  0  0  0  0  0  0  0  0
   -6.4690   18.6650  -33.4590 N   0  0  0  0  0  0  0  0  0  0  0  0
   -5.2030   18.5450  -34.2120 C   0  0  0  0  0  0  0  0  0  0  0  0
   -5.1070   17.1960  -34.9440 C   0  0  0  0  0  0  0  0  0  0  0  0
   -5.4740   16.1460  -34.0790 O   0  0  0  0  0  0  0  0  0  0  0  0
   -6.8580   16.2250  -33.8210 C   0  0  0  0  0  0  0  0  0  0  0  0
   -7.1890   17.4670  -32.9820 C   0  0  0  0  0  0  0  0  0  0  0  0
   -5.8190   20.8680  -32.5120 C   0  0  0  0  0  0  0  0  0  0  0  0
   -6.2030   22.0660  -31.8990 C   0  0  0  0  0  0  0  0  0  0  0  0
   -1.4408   25.3829  -24.5173 H   0  0  0  0  0  0  0  0  0  0  0  0
   -0.1240   24.6843  -25.5197 H   0  0  0  0  0  0  0  0  0  0  0  0
   -0.4083   26.4580  -25.5197 H   0  0  0  0  0  0  0  0  0  0  0  0
   -3.4673   25.1835  -25.2770 H   0  0  0  0  0  0  0  0  0  0  0  0
   -3.7876   26.0579  -26.8130 H   0  0  0  0  0  0  0  0  0  0  0  0
   -3.6375   24.2679  -26.8130 H   0  0  0  0  0  0  0  0  0  0  0  0
   -2.0674   23.1955  -29.3713 H   0  0  0  0  0  0  0  0  0  0  0  0
   -3.6554   23.7657  -28.7472 H   0  0  0  0  0  0  0  0  0  0  0  0
   -6.1230   26.6010  -28.6010 H   0  0  0  0  0  0  0  0  0  0  0  0
   -6.9260   25.0120  -28.3880 H   0  0  0  0  0  0  0  0  0  0  0  0
   -8.4795   24.0483  -30.5952 H   0  0  0  0  0  0  0  0  0  0  0  0
   -9.5922   21.6931  -31.7832 H   0  0  0  0  0  0  0  0  0  0  0  0
   -8.9675   19.5404  -32.9264 H   0  0  0  0  0  0  0  0  0  0  0  0
   -5.1489   19.3574  -34.9516 H   0  0  0  0  0  0  0  0  0  0  0  0
   -4.3694   18.6093  -33.4972 H   0  0  0  0  0  0  0  0  0  0  0  0
   -5.7826   17.2047  -35.8120 H   0  0  0  0  0  0  0  0  0  0  0  0
   -4.0701   17.0411  -35.2768 H   0  0  0  0  0  0  0  0  0  0  0  0
   -7.3998   16.2811  -34.7767 H   0  0  0  0  0  0  0  0  0  0  0  0
   -7.1622   15.3299  -33.2587 H   0  0  0  0  0  0  0  0  0  0  0  0
   -8.2710   17.6565  -33.0398 H   0  0  0  0  0  0  0  0  0  0  0  0
   -6.8740   17.2712  -31.9464 H   0  0  0  0  0  0  0  0  0  0  0  0
   -4.7576   20.6486  -32.6999 H   0  0  0  0  0  0  0  0  0  0  0  0
  1  2  1  0
  2  3  1  0
  2  4  1  0
  4  5  2  0
  4  6  1  0
  6  7  1  0
  7  8  1  0
  8  9  1  0
  9 10  2  0
  9 11  1  0
 11 12  1  0
 12 13  1  0
 13 14  1  0
 13 15  2  0
 12 16  2  0
 16 17  1  0
 17 18  2  0
 18 19  1  0
 19 20  2  0
 20 21  1  0
 21 22  1  0
 22 23  1  0
 23 24  1  0
 24 25  1  0
 25 26  1  0
 20 27  1  0
 27 28  2  0
 28 11  1  0
 28 17  1  0
 26 21  1  0
  1 29  1  0
  1 30  1  0
  1 31  1  0
  3 32  1  0
  3 33  1  0
  3 34  1  0
  7 35  1  0
  7 36  1  0
 14 37  1  0
 14 38  1  0
 16 39  1  0
 18 40  1  0
 19 41  1  0
 22 42  1  0
 22 43  1  0
 23 44  1  0
 23 45  1  0
 25 46  1  0
 25 47  1  0
 26 48  1  0
 26 49  1  0
 27 50  1  0
M  END
>  <UniqueID>  (85) 
84

>  <SMILES>  (85) 
CN(C)C(=O)OCOC(=O)n1c(C(N)=O)cc2ccc(N3CCOCC3)cc21

>  <Energy>  (85) 
90.55328924825876

>  <Genealogy>  (85) 
CN(C)C(=O)OCOC(=O)n1c(C(N)=O)cc2ccc(N3CCOCC3)cc21 (3D coordinates assigned)
CN(C)C(=O)OCOC(=O)n1c(C(N)=O)cc2ccc(N3CCOCC3)cc21 (nonaromatic ring conformer: 90.55328924825876 kcal/mol)

>  <smiles>  (85) 
CN(C)C(=O)OCOC(=O)n1c(C(N)=O)cc2ccc(N3CCOCC3)cc21

>  <score_type>  (85) 
oracle

>  <origin>  (85) 
adg

>  <m_score__min__energy>  (85) 
-10.24

>  <m_primary>  (85) 
energy

$$$$
86:0
     RDKit          3D

 30 31  0  0  0  0  0  0  0  0999 V2000
   -4.1760   25.5080  -30.7220 N   0  0  0  0  0  0  0  0  0  0  0  0
   -5.4790   25.0020  -30.4270 C   0  0  0  0  0  0  0  0  0  0  0  0
   -6.2030   25.6120  -29.5950 O   0  0  0  0  0  0  0  0  0  0  0  0
   -5.9670   23.7460  -31.0290 C   0  0  0  0  0  0  0  0  0  0  0  0
   -7.3160   23.4700  -31.2390 C   0  0  0  0  0  0  0  0  0  0  0  0
   -7.3490   22.1920  -31.7480 C   0  0  0  0  0  0  0  0  0  0  0  0
   -8.4330   21.4180  -32.1510 C   0  0  0  0  0  0  0  0  0  0  0  0
   -8.1730   20.1420  -32.6760 C   0  0  0  0  0  0  0  0  0  0  0  0
   -6.8430   19.6660  -32.7980 C   0  0  0  0  0  0  0  0  0  0  0  0
   -6.5900   18.3670  -33.3490 N   0  0  0  0  0  0  0  0  0  0  0  0
   -6.0220   18.2320  -34.5670 F   0  0  0  0  0  0  0  0  0  0  0  0
   -6.9130   17.2500  -32.6590 F   0  0  0  0  0  0  0  0  0  0  0  0
   -5.7670   20.4820  -32.3800 C   0  0  0  0  0  0  0  0  0  0  0  0
   -6.0560   21.7420  -31.8410 C   0  0  0  0  0  0  0  0  0  0  0  0
   -5.1950   22.6880  -31.4050 N   0  0  0  0  0  0  0  0  0  0  0  0
   -3.7600   22.6240  -31.4440 C   0  0  0  0  0  0  0  0  0  0  0  0
   -3.1890   21.7730  -32.1800 O   0  0  0  0  0  0  0  0  0  0  0  0
   -3.0010   23.5080  -30.6670 O   0  0  0  0  0  0  0  0  0  0  0  0
   -1.8770   23.1000  -29.8910 C   0  0  0  0  0  0  0  0  0  0  0  0
   -1.1750   24.2940  -29.3290 C   0  0  0  0  0  0  0  0  0  0  0  0
   -1.7370   25.4200  -29.3300 O   0  0  0  0  0  0  0  0  0  0  0  0
    0.0920   24.1570  -28.7770 O   0  0  0  0  0  0  0  0  0  0  0  0
   -3.4880   24.9440  -31.2670 H   0  0  0  0  0  0  0  0  0  0  0  0
   -3.8650   26.4190  -30.3200 H   0  0  0  0  0  0  0  0  0  0  0  0
   -8.1718   24.1320  -31.0405 H   0  0  0  0  0  0  0  0  0  0  0  0
   -9.4626   21.7945  -32.0610 H   0  0  0  0  0  0  0  0  0  0  0  0
   -9.0104   19.5046  -32.9962 H   0  0  0  0  0  0  0  0  0  0  0  0
   -4.7274   20.1356  -32.4758 H   0  0  0  0  0  0  0  0  0  0  0  0
   -2.2192   22.4583  -29.0657 H   0  0  0  0  0  0  0  0  0  0  0  0
   -1.1795   22.5446  -30.5352 H   0  0  0  0  0  0  0  0  0  0  0  0
  1  2  1  0
  2  3  2  0
  2  4  1  0
  4  5  2  0
  5  6  1  0
  6  7  2  0
  7  8  1  0
  8  9  2  0
  9 10  1  0
 10 11  1  0
 10 12  1  0
  9 13  1  0
 13 14  2  0
 14 15  1  0
 15 16  1  0
 16 17  2  0
 16 18  1  0
 18 19  1  0
 19 20  1  0
 20 21  2  0
 20 22  1  0
 15  4  1  0
 14  6  1  0
  1 23  1  0
  1 24  1  0
  5 25  1  0
  7 26  1  0
  8 27  1  0
 13 28  1  0
 19 29  1  0
 19 30  1  0
M  CHG  1  22  -1
M  END
>  <UniqueID>  (86) 
85

>  <SMILES>  (86) 
NC(=O)c1cc2ccc(N(F)F)cc2n1C(=O)OCC(=O)[O-]

>  <Energy>  (86) 
67.73136394930073

>  <Genealogy>  (86) 
NC(=O)c1cc2ccc(N(F)F)cc2n1C(=O)OCC(=O)[O-] (protonated)
NC(=O)c1cc2ccc(N(F)F)cc2n1C(=O)OCC(=O)[O-] (3D coordinates assigned)
NC(=O)c1cc2ccc(N(F)F)cc2n1C(=O)OCC(=O)[O-] (optimized conformer: 67.73136394930073 kcal/mol)

>  <smiles>  (86) 
NC(=O)c1cc2ccc(N(F)F)cc2n1C(=O)OCC(=O)O

>  <score_type>  (86) 
oracle

>  <origin>  (86) 
adg

>  <m_score__min__energy>  (86) 
-10.16

>  <m_primary>  (86) 
energy

$$$$
87:0
     RDKit          3D

 36 37  0  0  0  0  0  0  0  0999 V2000
   -4.5750   22.6890  -28.1590 C   0  0  0  0  0  0  0  0  0  0  0  0
   -3.3910   22.4210  -29.0950 C   0  0  1  0  0  0  0  0  0  0  0  0
   -3.8100   22.4780  -30.5450 C   0  0  0  0  0  0  0  0  0  0  0  0
   -3.0030   22.1230  -31.4460 O   0  0  0  0  0  0  0  0  0  0  0  0
   -5.1640   22.8050  -30.9020 N   0  0  0  0  0  0  0  0  0  0  0  0
   -5.8100   23.9970  -30.7660 C   0  0  0  0  0  0  0  0  0  0  0  0
   -5.1860   25.2820  -30.3920 C   0  0  0  0  0  0  0  0  0  0  0  0
   -3.8750   25.6130  -30.8390 N   0  0  0  0  0  0  0  0  0  0  0  0
   -5.8370   26.1170  -29.7090 O   0  0  0  0  0  0  0  0  0  0  0  0
   -7.1490   23.8700  -31.1300 C   0  0  0  0  0  0  0  0  0  0  0  0
   -7.3000   22.5570  -31.5140 C   0  0  0  0  0  0  0  0  0  0  0  0
   -8.4290   21.8750  -31.9540 C   0  0  0  0  0  0  0  0  0  0  0  0
   -8.2990   20.5090  -32.2520 C   0  0  0  0  0  0  0  0  0  0  0  0
   -7.0470   19.8520  -32.1220 C   0  0  0  0  0  0  0  0  0  0  0  0
   -6.9350   18.3730  -32.3840 C   0  0  0  0  0  0  0  0  0  0  0  0
   -6.4010   18.1370  -33.6400 F   0  0  0  0  0  0  0  0  0  0  0  0
   -6.1130   17.7720  -31.4460 F   0  0  0  0  0  0  0  0  0  0  0  0
   -8.1920   17.8010  -32.3140 F   0  0  0  0  0  0  0  0  0  0  0  0
   -5.9280   20.5770  -31.6540 C   0  0  0  0  0  0  0  0  0  0  0  0
   -6.0860   21.9380  -31.3730 C   0  0  0  0  0  0  0  0  0  0  0  0
   -2.0770   23.6020  -28.7900 S   0  0  0  0  0  0  0  0  0  0  0  0
   -0.9640   22.9770  -27.5490 C   0  0  0  0  0  0  0  0  0  0  0  0
   -2.6640   24.8940  -28.2960 O   0  0  0  0  0  0  0  0  0  0  0  0
   -1.3130   23.8600  -30.0590 O   0  0  0  0  0  0  0  0  0  0  0  0
   -4.2406   22.6133  -27.1138 H   0  0  0  0  0  0  0  0  0  0  0  0
   -4.9687   23.6990  -28.3458 H   0  0  0  0  0  0  0  0  0  0  0  0
   -5.3653   21.9470  -28.3458 H   0  0  0  0  0  0  0  0  0  0  0  0
   -3.0219   21.4061  -28.8862 H   0  0  0  0  0  0  0  0  0  0  0  0
   -3.0310   25.2700  -30.3270 H   0  0  0  0  0  0  0  0  0  0  0  0
   -7.9214   24.6530  -31.1139 H   0  0  0  0  0  0  0  0  0  0  0  0
   -9.3946   22.3899  -32.0653 H   0  0  0  0  0  0  0  0  0  0  0  0
   -9.1780   19.9408  -32.5904 H   0  0  0  0  0  0  0  0  0  0  0  0
   -4.9554   20.0826  -31.5140 H   0  0  0  0  0  0  0  0  0  0  0  0
   -1.3651   23.2022  -26.5498 H   0  0  0  0  0  0  0  0  0  0  0  0
   -0.8594   21.8882  -27.6652 H   0  0  0  0  0  0  0  0  0  0  0  0
    0.0202   23.4544  -27.6652 H   0  0  0  0  0  0  0  0  0  0  0  0
  1  2  1  0
  2  3  1  0
  3  4  2  0
  3  5  1  0
  5  6  1  0
  6  7  1  0
  7  8  1  0
  7  9  2  0
  6 10  2  0
 10 11  1  0
 11 12  2  0
 12 13  1  0
 13 14  2  0
 14 15  1  0
 15 16  1  0
 15 17  1  0
 15 18  1  0
 14 19  1  0
 19 20  2  0
  2 21  1  0
 21 22  1  0
 21 23  2  0
 21 24  2  0
 20  5  1  0
 20 11  1  0
  1 25  1  0
  1 26  1  0
  1 27  1  0
  2 28  1  1
  8 29  1  0
 10 30  1  0
 12 31  1  0
 13 32  1  0
 19 33  1  0
 22 34  1  0
 22 35  1  0
 22 36  1  0
M  CHG  1   8  -1
M  END
>  <UniqueID>  (87) 
86

>  <SMILES>  (87) 
C[C@@H](C(=O)n1c(C([NH-])=O)cc2ccc(C(F)(F)F)cc21)S(C)(=O)=O

>  <Energy>  (87) 
66.1304637114433

>  <Genealogy>  (87) 
C[C@@H](C(=O)n1c(C([NH-])=O)cc2ccc(C(F)(F)F)cc21)S(C)(=O)=O (protonated)
C[C@@H](C(=O)n1c(C([NH-])=O)cc2ccc(C(F)(F)F)cc21)S(C)(=O)=O (3D coordinates assigned)
C[C@@H](C(=O)n1c(C([NH-])=O)cc2ccc(C(F)(F)F)cc21)S(C)(=O)=O (optimized conformer: 66.1304637114433 kcal/mol)

>  <smiles>  (87) 
C[C@@H](C(=O)n1c(C(N)=O)cc2ccc(C(F)(F)F)cc21)S(C)(=O)=O

>  <score_type>  (87) 
oracle

>  <origin>  (87) 
adg

>  <m_score__min__energy>  (87) 
-10.34

>  <m_primary>  (87) 
energy

$$$$
88:0
     RDKit          3D

 41 42  0  0  0  0  0  0  0  0999 V2000
   -2.9690   22.8060  -28.7290 C   0  0  0  0  0  0  0  0  0  0  0  0
   -3.0640   23.9610  -29.3880 C   0  0  0  0  0  0  0  0  0  0  0  0
   -1.9170   25.2940  -28.9760 S   0  0  0  0  0  0  0  0  0  0  0  0
   -4.0560   24.1660  -30.4670 C   0  0  0  0  0  0  0  0  0  0  0  0
   -4.2870   25.3340  -30.8800 O   0  0  0  0  0  0  0  0  0  0  0  0
   -4.7620   23.0620  -31.0560 N   0  0  0  0  0  0  0  0  0  0  0  0
   -6.0180   22.6280  -30.7540 C   0  0  0  0  0  0  0  0  0  0  0  0
   -6.9530   23.3070  -29.8280 C   0  0  0  0  0  0  0  0  0  0  0  0
   -6.7550   24.6710  -29.4510 N   0  0  0  0  0  0  0  0  0  0  0  0
   -7.9350   22.6780  -29.3480 O   0  0  0  0  0  0  0  0  0  0  0  0
   -6.3200   21.4780  -31.4840 C   0  0  0  0  0  0  0  0  0  0  0  0
   -5.1970   21.2170  -32.2360 C   0  0  0  0  0  0  0  0  0  0  0  0
   -4.9360   20.1840  -33.1310 C   0  0  0  0  0  0  0  0  0  0  0  0
   -3.6730   20.1470  -33.7460 C   0  0  0  0  0  0  0  0  0  0  0  0
   -2.6920   21.1340  -33.4520 C   0  0  0  0  0  0  0  0  0  0  0  0
   -1.3860   21.1100  -34.0630 N   0  0  0  0  0  0  0  0  0  0  0  0
   -0.2080   20.4840  -33.4600 C   0  0  0  0  0  0  0  0  0  0  0  0
    1.0570   20.9500  -34.1370 C   0  0  0  0  0  0  0  0  0  0  0  0
    1.0110   21.9870  -34.8550 O   0  0  0  0  0  0  0  0  0  0  0  0
    2.2940   20.2090  -34.0350 N   0  0  0  0  0  0  0  0  0  0  0  0
    3.4970   20.7450  -34.6800 C   0  0  0  0  0  0  0  0  0  0  0  0
    2.3530   18.9330  -33.3170 C   0  0  0  0  0  0  0  0  0  0  0  0
   -2.9990   22.1640  -32.5370 C   0  0  0  0  0  0  0  0  0  0  0  0
   -4.2700   22.1830  -31.9550 C   0  0  0  0  0  0  0  0  0  0  0  0
   -3.6573   21.9807  -28.9637 H   0  0  0  0  0  0  0  0  0  0  0  0
   -2.2023   22.6783  -27.9506 H   0  0  0  0  0  0  0  0  0  0  0  0
   -5.9980   25.2520  -29.8730 H   0  0  0  0  0  0  0  0  0  0  0  0
   -7.4050   25.1250  -28.7710 H   0  0  0  0  0  0  0  0  0  0  0  0
   -7.2569   20.9020  -31.4630 H   0  0  0  0  0  0  0  0  0  0  0  0
   -5.6956   19.4192  -33.3505 H   0  0  0  0  0  0  0  0  0  0  0  0
   -3.4404   19.3457  -34.4628 H   0  0  0  0  0  0  0  0  0  0  0  0
   -1.2630   21.5590  -34.9990 H   0  0  0  0  0  0  0  0  0  0  0  0
   -0.1648   20.7508  -32.3937 H   0  0  0  0  0  0  0  0  0  0  0  0
   -0.2895   19.3937  -33.5810 H   0  0  0  0  0  0  0  0  0  0  0  0
    4.2144   21.0647  -33.9099 H   0  0  0  0  0  0  0  0  0  0  0  0
    3.9550   19.9658  -35.3070 H   0  0  0  0  0  0  0  0  0  0  0  0
    3.2239   21.6066  -35.3070 H   0  0  0  0  0  0  0  0  0  0  0  0
    2.3443   19.1213  -32.2333 H   0  0  0  0  0  0  0  0  0  0  0  0
    1.4823   18.3184  -33.5894 H   0  0  0  0  0  0  0  0  0  0  0  0
    3.2767   18.4014  -33.5894 H   0  0  0  0  0  0  0  0  0  0  0  0
   -2.2548   22.9346  -32.2874 H   0  0  0  0  0  0  0  0  0  0  0  0
  1  2  2  0
  2  3  1  0
  2  4  1  0
  4  5  2  0
  4  6  1  0
  6  7  1  0
  7  8  1  0
  8  9  1  0
  8 10  2  0
  7 11  2  0
 11 12  1  0
 12 13  2  0
 13 14  1  0
 14 15  2  0
 15 16  1  0
 16 17  1  0
 17 18  1  0
 18 19  2  0
 18 20  1  0
 20 21  1  0
 20 22  1  0
 15 23  1  0
 23 24  2  0
 24  6  1  0
 24 12  1  0
  1 25  1  0
  1 26  1  0
  9 27  1  0
  9 28  1  0
 11 29  1  0
 13 30  1  0
 14 31  1  0
 16 32  1  0
 17 33  1  0
 17 34  1  0
 21 35  1  0
 21 36  1  0
 21 37  1  0
 22 38  1  0
 22 39  1  0
 22 40  1  0
 23 41  1  0
M  CHG  1   3  -1
M  END
>  <UniqueID>  (88) 
87

>  <SMILES>  (88) 
C=C([S-])C(=O)n1c(C(N)=O)cc2ccc(NCC(=O)N(C)C)cc21

>  <Energy>  (88) 
76.69668980001582

>  <Genealogy>  (88) 
C=C([S-])C(=O)n1c(C(N)=O)cc2ccc(NCC(=O)N(C)C)cc21 (protonated)
C=C([S-])C(=O)n1c(C(N)=O)cc2ccc(NCC(=O)N(C)C)cc21 (3D coordinates assigned)
C=C([S-])C(=O)n1c(C(N)=O)cc2ccc(NCC(=O)N(C)C)cc21 (optimized conformer: 76.69668980001582 kcal/mol)

>  <smiles>  (88) 
C=C(S)C(=O)n1c(C(N)=O)cc2ccc(NCC(=O)N(C)C)cc21

>  <score_type>  (88) 
oracle

>  <origin>  (88) 
adg

>  <m_score__min__energy>  (88) 
-9.6500000000000004

>  <m_primary>  (88) 
energy

$$$$
89:0
     RDKit          3D

 46 47  0  0  0  0  0  0  0  0999 V2000
   -0.2520   27.1290  -26.5710 C   0  0  0  0  0  0  0  0  0  0  0  0
    0.7500   26.0690  -27.0130 C   0  0  0  0  0  0  0  0  0  0  0  0
    0.0990   25.0360  -27.7500 O   0  0  0  0  0  0  0  0  0  0  0  0
   -1.2440   25.0940  -28.1350 C   0  0  0  0  0  0  0  0  0  0  0  0
   -1.5570   25.2900  -29.3420 O   0  0  0  0  0  0  0  0  0  0  0  0
   -2.2320   24.9280  -27.1610 O   0  0  0  0  0  0  0  0  0  0  0  0
   -3.2930   23.9830  -27.2640 C   0  0  0  0  0  0  0  0  0  0  0  0
   -2.7800   22.7120  -27.6610 O   0  0  0  0  0  0  0  0  0  0  0  0
   -3.0930   22.0830  -28.8720 C   0  0  0  0  0  0  0  0  0  0  0  0
   -3.4980   20.8860  -28.8840 O   0  0  0  0  0  0  0  0  0  0  0  0
   -2.9270   22.8090  -30.1090 N   0  0  1  0  0  0  0  0  0  0  0  0
   -1.5380   22.7260  -30.5780 C   0  0  0  0  0  0  0  0  0  0  0  0
   -3.8230   22.3160  -31.1310 C   0  0  0  0  0  0  0  0  0  0  0  0
   -3.3710   21.7400  -32.1600 O   0  0  0  0  0  0  0  0  0  0  0  0
   -5.2230   22.6240  -31.0630 N   0  0  0  0  0  0  0  0  0  0  0  0
   -5.8090   23.8320  -30.8400 C   0  0  0  0  0  0  0  0  0  0  0  0
   -5.1090   25.0740  -30.4560 C   0  0  0  0  0  0  0  0  0  0  0  0
   -3.7550   25.2950  -30.8380 N   0  0  0  0  0  0  0  0  0  0  0  0
   -5.7010   25.9330  -29.7510 O   0  0  0  0  0  0  0  0  0  0  0  0
   -7.1950   23.7310  -30.9640 C   0  0  0  0  0  0  0  0  0  0  0  0
   -7.4370   22.4090  -31.2650 C   0  0  0  0  0  0  0  0  0  0  0  0
   -8.6370   21.7520  -31.5200 C   0  0  0  0  0  0  0  0  0  0  0  0
   -8.5840   20.3840  -31.8390 C   0  0  0  0  0  0  0  0  0  0  0  0
   -7.3430   19.6960  -31.8880 C   0  0  0  0  0  0  0  0  0  0  0  0
   -7.2950   18.2450  -32.2900 C   0  0  0  0  0  0  0  0  0  0  0  0
   -8.5670   17.7110  -32.2220 F   0  0  0  0  0  0  0  0  0  0  0  0
   -6.4590   17.5330  -31.4470 F   0  0  0  0  0  0  0  0  0  0  0  0
   -6.8190   18.1120  -33.5840 F   0  0  0  0  0  0  0  0  0  0  0  0
   -6.1450   20.4080  -31.6460 C   0  0  0  0  0  0  0  0  0  0  0  0
   -6.2310   21.7640  -31.3180 C   0  0  0  0  0  0  0  0  0  0  0  0
   -0.2864   27.1654  -25.4721 H   0  0  0  0  0  0  0  0  0  0  0  0
    0.0563   28.1103  -26.9609 H   0  0  0  0  0  0  0  0  0  0  0  0
   -1.2490   26.8763  -26.9609 H   0  0  0  0  0  0  0  0  0  0  0  0
    1.5155   26.5384  -27.6484 H   0  0  0  0  0  0  0  0  0  0  0  0
    1.2144   25.6269  -26.1192 H   0  0  0  0  0  0  0  0  0  0  0  0
   -3.7900   23.8860  -26.2875 H   0  0  0  0  0  0  0  0  0  0  0  0
   -4.0143   24.3318  -28.0177 H   0  0  0  0  0  0  0  0  0  0  0  0
   -3.1430   23.8170  -29.9290 H   0  0  0  0  0  0  0  0  0  0  0  0
   -0.8605   22.6855  -29.7123 H   0  0  0  0  0  0  0  0  0  0  0  0
   -1.4101   21.8186  -31.1865 H   0  0  0  0  0  0  0  0  0  0  0  0
   -1.3029   23.6117  -31.1865 H   0  0  0  0  0  0  0  0  0  0  0  0
   -2.9880   25.2690  -30.1290 H   0  0  0  0  0  0  0  0  0  0  0  0
   -7.9361   24.5353  -30.8465 H   0  0  0  0  0  0  0  0  0  0  0  0
   -9.5972   22.2866  -31.4734 H   0  0  0  0  0  0  0  0  0  0  0  0
   -9.5156   19.8398  -32.0533 H   0  0  0  0  0  0  0  0  0  0  0  0
   -5.1685   19.9063  -31.7143 H   0  0  0  0  0  0  0  0  0  0  0  0
  1  2  1  0
  2  3  1  0
  3  4  1  0
  4  5  2  0
  4  6  1  0
  6  7  1  0
  7  8  1  0
  8  9  1  0
  9 10  2  0
  9 11  1  0
 11 12  1  0
 11 13  1  0
 13 14  2  0
 13 15  1  0
 15 16  1  0
 16 17  1  0
 17 18  1  0
 17 19  2  0
 16 20  2  0
 20 21  1  0
 21 22  2  0
 22 23  1  0
 23 24  2  0
 24 25  1  0
 25 26  1  0
 25 27  1  0
 25 28  1  0
 24 29  1  0
 29 30  2  0
 30 15  1  0
 30 21  1  0
  1 31  1  0
  1 32  1  0
  1 33  1  0
  2 34  1  0
  2 35  1  0
  7 36  1  0
  7 37  1  0
 11 38  1  1
 12 39  1  0
 12 40  1  0
 12 41  1  0
 18 42  1  0
 20 43  1  0
 22 44  1  0
 23 45  1  0
 29 46  1  0
M  CHG  2  11   1  18  -1
M  END
>  <UniqueID>  (89) 
88

>  <SMILES>  (89) 
CCOC(=O)OCOC(=O)[NH+](C)C(=O)n1c(C([NH-])=O)cc2ccc(C(F)(F)F)cc21

>  <Energy>  (89) 
83.21755700633247

>  <Genealogy>  (89) 
CCOC(=O)OCOC(=O)[NH+](C)C(=O)n1c(C([NH-])=O)cc2ccc(C(F)(F)F)cc21 (protonated)
CCOC(=O)OCOC(=O)[NH+](C)C(=O)n1c(C([NH-])=O)cc2ccc(C(F)(F)F)cc21 (3D coordinates assigned)
CCOC(=O)OCOC(=O)[NH+](C)C(=O)n1c(C([NH-])=O)cc2ccc(C(F)(F)F)cc21 (optimized conformer: 83.21755700633247 kcal/mol)

>  <smiles>  (89) 
CCOC(=O)OCOC(=O)N(C)C(=O)n1c(C(N)=O)cc2ccc(C(F)(F)F)cc21

>  <score_type>  (89) 
oracle

>  <origin>  (89) 
adg

>  <m_score__min__energy>  (89) 
-8.7899999999999991

>  <m_primary>  (89) 
energy

$$$$
90:0
     RDKit          3D

 57 58  0  0  0  0  0  0  0  0999 V2000
    1.2160   17.2230  -34.0100 C   0  0  0  0  0  0  0  0  0  0  0  0
    0.4360   18.4320  -33.7240 N   0  0  0  0  0  0  0  0  0  0  0  0
    0.9970   19.4940  -32.8740 C   0  0  0  0  0  0  0  0  0  0  0  0
    0.4150   19.4380  -31.4560 C   0  0  0  0  0  0  0  0  0  0  0  0
   -0.0460   20.7560  -31.0100 N   0  0  0  0  0  0  0  0  0  0  0  0
   -1.3720   21.2530  -31.2720 C   0  0  0  0  0  0  0  0  0  0  0  0
   -2.1380   20.7810  -32.3720 C   0  0  0  0  0  0  0  0  0  0  0  0
   -3.4160   21.3020  -32.6320 C   0  0  0  0  0  0  0  0  0  0  0  0
   -3.9100   22.2820  -31.7770 C   0  0  0  0  0  0  0  0  0  0  0  0
   -5.0890   22.9870  -31.8300 C   0  0  0  0  0  0  0  0  0  0  0  0
   -5.0460   23.8540  -30.7430 C   0  0  0  0  0  0  0  0  0  0  0  0
   -6.1470   24.7730  -30.3930 C   0  0  0  0  0  0  0  0  0  0  0  0
   -5.9340   25.8830  -29.5210 N   0  0  0  0  0  0  0  0  0  0  0  0
   -7.3050   24.5460  -30.8340 O   0  0  0  0  0  0  0  0  0  0  0  0
   -3.8820   23.7040  -30.0500 N   0  0  0  0  0  0  0  0  0  0  0  0
   -3.4100   24.4980  -28.9480 C   0  0  0  0  0  0  0  0  0  0  0  0
   -2.2420   25.3060  -29.0920 N   0  0  0  0  0  0  0  0  0  0  0  0
   -4.0250   24.4890  -27.8480 O   0  0  0  0  0  0  0  0  0  0  0  0
   -3.1970   22.7330  -30.6960 C   0  0  0  0  0  0  0  0  0  0  0  0
   -1.9130   22.2440  -30.4230 C   0  0  0  0  0  0  0  0  0  0  0  0
   -0.9030   18.5450  -34.2390 C   0  0  0  0  0  0  0  0  0  0  0  0
   -1.2280   19.5400  -34.9460 O   0  0  0  0  0  0  0  0  0  0  0  0
   -1.8470   17.5530  -33.9540 O   0  0  0  0  0  0  0  0  0  0  0  0
   -3.1520   17.5460  -34.5220 C   0  0  0  0  0  0  0  0  0  0  0  0
   -3.9720   18.4630  -33.8070 O   0  0  0  0  0  0  0  0  0  0  0  0
   -5.3330   18.6330  -34.0850 C   0  0  0  0  0  0  0  0  0  0  0  0
   -5.7510   18.5530  -35.2750 O   0  0  0  0  0  0  0  0  0  0  0  0
   -6.2880   18.9270  -32.9440 C   0  0  0  0  0  0  0  0  0  0  0  0
   -7.3840   17.8430  -32.8370 C   0  0  0  0  0  0  0  0  0  0  0  0
   -5.4960   18.9710  -31.6240 C   0  0  0  0  0  0  0  0  0  0  0  0
   -6.9550   20.2930  -33.1900 C   0  0  0  0  0  0  0  0  0  0  0  0
    1.5206   16.7509  -33.0643 H   0  0  0  0  0  0  0  0  0  0  0  0
    0.6015   16.5188  -34.5901 H   0  0  0  0  0  0  0  0  0  0  0  0
    2.1109   17.4927  -34.5901 H   0  0  0  0  0  0  0  0  0  0  0  0
    2.0885   19.3696  -32.8186 H   0  0  0  0  0  0  0  0  0  0  0  0
    0.7384   20.4669  -33.3175 H   0  0  0  0  0  0  0  0  0  0  0  0
   -0.4353   18.7402  -31.4463 H   0  0  0  0  0  0  0  0  0  0  0  0
    1.2075   19.1008  -30.7717 H   0  0  0  0  0  0  0  0  0  0  0  0
    0.6250   21.3870  -30.5150 H   0  0  0  0  0  0  0  0  0  0  0  0
   -1.7255   19.9993  -33.0268 H   0  0  0  0  0  0  0  0  0  0  0  0
   -4.0093   20.9455  -33.4870 H   0  0  0  0  0  0  0  0  0  0  0  0
   -5.8940   22.8869  -32.5729 H   0  0  0  0  0  0  0  0  0  0  0  0
   -5.0260   26.0100  -29.0200 H   0  0  0  0  0  0  0  0  0  0  0  0
   -6.7120   26.5530  -29.3250 H   0  0  0  0  0  0  0  0  0  0  0  0
   -1.5390   25.1020  -29.8370 H   0  0  0  0  0  0  0  0  0  0  0  0
   -1.3381   22.6237  -29.5655 H   0  0  0  0  0  0  0  0  0  0  0  0
   -3.0962   17.8471  -35.5785 H   0  0  0  0  0  0  0  0  0  0  0  0
   -3.5806   16.5350  -34.4575 H   0  0  0  0  0  0  0  0  0  0  0  0
   -7.5930   17.6363  -31.7770 H   0  0  0  0  0  0  0  0  0  0  0  0
   -8.3012   18.1991  -33.3289 H   0  0  0  0  0  0  0  0  0  0  0  0
   -7.0380   16.9220  -33.3289 H   0  0  0  0  0  0  0  0  0  0  0  0
   -6.1950   18.9322  -30.7755 H   0  0  0  0  0  0  0  0  0  0  0  0
   -4.8138   18.1094  -31.5768 H   0  0  0  0  0  0  0  0  0  0  0  0
   -4.9135   19.9029  -31.5768 H   0  0  0  0  0  0  0  0  0  0  0  0
   -7.1865   20.7671  -32.2248 H   0  0  0  0  0  0  0  0  0  0  0  0
   -6.2704   20.9379  -33.7605 H   0  0  0  0  0  0  0  0  0  0  0  0
   -7.8845   20.1497  -33.7605 H   0  0  0  0  0  0  0  0  0  0  0  0
  1  2  1  0
  2  3  1  0
  3  4  1  0
  4  5  1  0
  5  6  1  0
  6  7  2  0
  7  8  1  0
  8  9  2  0
  9 10  1  0
 10 11  2  0
 11 12  1  0
 12 13  1  0
 12 14  2  0
 11 15  1  0
 15 16  1  0
 16 17  1  0
 16 18  2  0
 15 19  1  0
 19 20  2  0
  2 21  1  0
 21 22  2  0
 21 23  1  0
 23 24  1  0
 24 25  1  0
 25 26  1  0
 26 27  2  0
 26 28  1  0
 28 29  1  0
 28 30  1  0
 28 31  1  0
 20  6  1  0
 19  9  1  0
  1 32  1  0
  1 33  1  0
  1 34  1  0
  3 35  1  0
  3 36  1  0
  4 37  1  0
  4 38  1  0
  5 39  1  0
  7 40  1  0
  8 41  1  0
 10 42  1  0
 13 43  1  0
 13 44  1  0
 17 45  1  0
 20 46  1  0
 24 47  1  0
 24 48  1  0
 29 49  1  0
 29 50  1  0
 29 51  1  0
 30 52  1  0
 30 53  1  0
 30 54  1  0
 31 55  1  0
 31 56  1  0
 31 57  1  0
M  CHG  1  17  -1
M  END
>  <UniqueID>  (90) 
89

>  <SMILES>  (90) 
CN(CCNc1ccc2cc(C(N)=O)n(C([NH-])=O)c2c1)C(=O)OCOC(=O)C(C)(C)C

>  <Energy>  (90) 
82.43672524801538

>  <Genealogy>  (90) 
CN(CCNc1ccc2cc(C(N)=O)n(C([NH-])=O)c2c1)C(=O)OCOC(=O)C(C)(C)C (protonated)
CN(CCNc1ccc2cc(C(N)=O)n(C([NH-])=O)c2c1)C(=O)OCOC(=O)C(C)(C)C (3D coordinates assigned)
CN(CCNc1ccc2cc(C(N)=O)n(C([NH-])=O)c2c1)C(=O)OCOC(=O)C(C)(C)C (optimized conformer: 82.43672524801538 kcal/mol)

>  <smiles>  (90) 
CN(CCNc1ccc2cc(C(N)=O)n(C(N)=O)c2c1)C(=O)OCOC(=O)C(C)(C)C

>  <score_type>  (90) 
oracle

>  <origin>  (90) 
adg

>  <m_score__min__energy>  (90) 
-8.0999999999999996

>  <m_primary>  (90) 
energy

$$$$
91:0
     RDKit          3D

 32 33  0  0  0  0  0  0  0  0999 V2000
   -3.8710   25.3480  -30.8530 N   0  0  0  0  0  0  0  0  0  0  0  0
   -5.2500   25.1220  -30.5740 C   0  0  0  0  0  0  0  0  0  0  0  0
   -5.9430   26.0590  -30.0950 O   0  0  0  0  0  0  0  0  0  0  0  0
   -5.8890   23.8280  -30.8920 C   0  0  0  0  0  0  0  0  0  0  0  0
   -7.2660   23.6630  -31.0170 C   0  0  0  0  0  0  0  0  0  0  0  0
   -7.4450   22.3550  -31.4030 C   0  0  0  0  0  0  0  0  0  0  0  0
   -8.6160   21.6540  -31.6730 C   0  0  0  0  0  0  0  0  0  0  0  0
   -8.5040   20.3010  -32.0330 C   0  0  0  0  0  0  0  0  0  0  0  0
   -7.2360   19.6670  -32.0920 C   0  0  0  0  0  0  0  0  0  0  0  0
   -7.1280   18.2240  -32.5170 C   0  0  0  0  0  0  0  0  0  0  0  0
   -6.7750   18.1680  -33.8520 F   0  0  0  0  0  0  0  0  0  0  0  0
   -6.1680   17.5650  -31.7680 F   0  0  0  0  0  0  0  0  0  0  0  0
   -8.3360   17.5700  -32.3410 F   0  0  0  0  0  0  0  0  0  0  0  0
   -6.0680   20.4210  -31.8330 C   0  0  0  0  0  0  0  0  0  0  0  0
   -6.2080   21.7730  -31.4950 C   0  0  0  0  0  0  0  0  0  0  0  0
   -5.2410   22.6630  -31.1800 N   0  0  0  0  0  0  0  0  0  0  0  0
   -3.8340   22.3910  -31.0940 C   0  0  0  0  0  0  0  0  0  0  0  0
   -3.0770   22.6820  -32.0590 O   0  0  0  0  0  0  0  0  0  0  0  0
   -3.3060   21.8240  -29.9290 O   0  0  0  0  0  0  0  0  0  0  0  0
   -2.0950   22.2700  -29.3290 C   0  0  0  0  0  0  0  0  0  0  0  0
   -1.6470   23.4270  -29.9970 O   0  0  0  0  0  0  0  0  0  0  0  0
   -1.0370   24.5160  -28.8360 P   0  0  0  0  0  0  0  0  0  0  0  0
   -1.7560   24.3300  -27.5180 O   0  0  0  0  0  0  0  0  0  0  0  0
    0.6110   24.2120  -28.6120 O   0  0  0  0  0  0  0  0  0  0  0  0
   -1.2340   26.1110  -29.3670 O   0  0  0  0  0  0  0  0  0  0  0  0
   -3.2100   24.5490  -30.9770 H   0  0  0  0  0  0  0  0  0  0  0  0
   -8.0459   24.4191  -30.8437 H   0  0  0  0  0  0  0  0  0  0  0  0
   -9.5986   22.1439  -31.6066 H   0  0  0  0  0  0  0  0  0  0  0  0
   -9.4106   19.7257  -32.2722 H   0  0  0  0  0  0  0  0  0  0  0  0
   -5.0728   19.9566  -31.8955 H   0  0  0  0  0  0  0  0  0  0  0  0
   -2.2734   22.5028  -28.2688 H   0  0  0  0  0  0  0  0  0  0  0  0
   -1.3324   21.4808  -29.4038 H   0  0  0  0  0  0  0  0  0  0  0  0
  1  2  1  0
  2  3  2  0
  2  4  1  0
  4  5  2  0
  5  6  1  0
  6  7  2  0
  7  8  1  0
  8  9  2  0
  9 10  1  0
 10 11  1  0
 10 12  1  0
 10 13  1  0
  9 14  1  0
 14 15  2  0
 15 16  1  0
 16 17  1  0
 17 18  2  0
 17 19  1  0
 19 20  1  0
 20 21  1  0
 21 22  1  0
 22 23  2  0
 22 24  1  0
 22 25  1  0
 16  4  1  0
 15  6  1  0
  1 26  1  0
  5 27  1  0
  7 28  1  0
  8 29  1  0
 14 30  1  0
 20 31  1  0
 20 32  1  0
M  CHG  3   1  -1  24  -1  25  -1
M  END
>  <UniqueID>  (91) 
90

>  <SMILES>  (91) 
[NH-]C(=O)c1cc2ccc(C(F)(F)F)cc2n1C(=O)OCOP(=O)([O-])[O-]

>  <Energy>  (91) 
69.72320652532561

>  <Genealogy>  (91) 
[NH-]C(=O)c1cc2ccc(C(F)(F)F)cc2n1C(=O)OCOP(=O)([O-])[O-] (protonated)
[NH-]C(=O)c1cc2ccc(C(F)(F)F)cc2n1C(=O)OCOP(=O)([O-])[O-] (3D coordinates assigned)
[NH-]C(=O)c1cc2ccc(C(F)(F)F)cc2n1C(=O)OCOP(=O)([O-])[O-] (optimized conformer: 69.72320652532561 kcal/mol)

>  <smiles>  (91) 
NC(=O)c1cc2ccc(C(F)(F)F)cc2n1C(=O)OCOP(=O)(O)O

>  <score_type>  (91) 
oracle

>  <origin>  (91) 
adg

>  <m_score__min__energy>  (91) 
-13.33

>  <m_primary>  (91) 
energy

$$$$
92:0
     RDKit          3D

 48 49  0  0  0  0  0  0  0  0999 V2000
   -8.9000   19.7150  -31.6450 C   0  0  0  0  0  0  0  0  0  0  0  0
   -7.7670   20.4490  -32.1890 N   0  0  0  0  0  0  0  0  0  0  0  0
   -6.7570   19.8350  -32.9980 C   0  0  0  0  0  0  0  0  0  0  0  0
   -6.7540   20.0030  -34.2480 O   0  0  0  0  0  0  0  0  0  0  0  0
   -5.7170   18.9480  -32.3750 C   0  0  0  0  0  0  0  0  0  0  0  0
   -4.3870   19.1860  -32.9590 N   0  0  0  0  0  0  0  0  0  0  0  0
   -4.0790   18.5680  -34.2560 C   0  0  0  0  0  0  0  0  0  0  0  0
   -3.3760   19.9560  -32.2550 C   0  0  0  0  0  0  0  0  0  0  0  0
   -2.0440   19.4650  -32.1380 C   0  0  0  0  0  0  0  0  0  0  0  0
   -1.0560   20.1960  -31.4600 C   0  0  0  0  0  0  0  0  0  0  0  0
   -1.4150   21.4150  -30.9010 C   0  0  0  0  0  0  0  0  0  0  0  0
   -0.6510   22.3330  -30.2150 C   0  0  0  0  0  0  0  0  0  0  0  0
   -1.5200   23.3720  -29.8990 C   0  0  0  0  0  0  0  0  0  0  0  0
   -1.1300   24.5380  -29.0780 C   0  0  0  0  0  0  0  0  0  0  0  0
   -1.9830   25.6750  -28.9650 N   0  0  0  0  0  0  0  0  0  0  0  0
   -0.0510   24.5100  -28.4290 O   0  0  0  0  0  0  0  0  0  0  0  0
   -2.7700   23.1140  -30.3790 N   0  0  0  0  0  0  0  0  0  0  0  0
   -3.9190   23.9740  -30.3500 C   0  0  0  0  0  0  0  0  0  0  0  0
   -3.8370   25.1370  -30.8280 O   0  0  0  0  0  0  0  0  0  0  0  0
   -5.1230   23.4990  -29.8080 O   0  0  0  0  0  0  0  0  0  0  0  0
   -6.4430   23.7980  -30.2820 C   0  0  0  0  0  0  0  0  0  0  0  0
   -6.8820   25.2000  -29.8150 C   0  0  0  0  0  0  0  0  0  0  0  0
   -7.4460   22.7270  -29.8070 C   0  0  0  0  0  0  0  0  0  0  0  0
   -6.3900   23.7820  -31.8160 C   0  0  0  0  0  0  0  0  0  0  0  0
   -2.6890   21.9080  -30.9860 C   0  0  0  0  0  0  0  0  0  0  0  0
   -3.6920   21.2100  -31.6670 C   0  0  0  0  0  0  0  0  0  0  0  0
   -8.8601   19.7408  -30.5460 H   0  0  0  0  0  0  0  0  0  0  0  0
   -9.8364   20.1785  -31.9889 H   0  0  0  0  0  0  0  0  0  0  0  0
   -8.8598   18.6709  -31.9889 H   0  0  0  0  0  0  0  0  0  0  0  0
   -5.6747   19.1506  -31.2946 H   0  0  0  0  0  0  0  0  0  0  0  0
   -5.9961   17.9012  -32.5658 H   0  0  0  0  0  0  0  0  0  0  0  0
   -3.5938   17.5945  -34.0923 H   0  0  0  0  0  0  0  0  0  0  0  0
   -5.0102   18.4228  -34.8233 H   0  0  0  0  0  0  0  0  0  0  0  0
   -3.4025   19.2241  -34.8233 H   0  0  0  0  0  0  0  0  0  0  0  0
   -1.7848   18.4950  -32.5873 H   0  0  0  0  0  0  0  0  0  0  0  0
   -0.0279   19.8144  -31.3741 H   0  0  0  0  0  0  0  0  0  0  0  0
    0.4187   22.2600  -29.9693 H   0  0  0  0  0  0  0  0  0  0  0  0
   -2.9580   25.6550  -29.3360 H   0  0  0  0  0  0  0  0  0  0  0  0
   -6.8925   25.2336  -28.7156 H   0  0  0  0  0  0  0  0  0  0  0  0
   -6.1762   25.9518  -30.1981 H   0  0  0  0  0  0  0  0  0  0  0  0
   -7.8905   25.4150  -30.1981 H   0  0  0  0  0  0  0  0  0  0  0  0
   -7.4661   22.7055  -28.7074 H   0  0  0  0  0  0  0  0  0  0  0  0
   -8.4492   22.9697  -30.1874 H   0  0  0  0  0  0  0  0  0  0  0  0
   -7.1381   21.7419  -30.1874 H   0  0  0  0  0  0  0  0  0  0  0  0
   -5.3852   23.4786  -32.1450 H   0  0  0  0  0  0  0  0  0  0  0  0
   -7.1330   23.0681  -32.2011 H   0  0  0  0  0  0  0  0  0  0  0  0
   -6.6139   24.7878  -32.2011 H   0  0  0  0  0  0  0  0  0  0  0  0
   -4.7077   21.6249  -31.7458 H   0  0  0  0  0  0  0  0  0  0  0  0
  1  2  1  0
  2  3  1  0
  3  4  2  0
  3  5  1  0
  5  6  1  0
  6  7  1  0
  6  8  1  0
  8  9  2  0
  9 10  1  0
 10 11  2  0
 11 12  1  0
 12 13  2  0
 13 14  1  0
 14 15  1  0
 14 16  2  0
 13 17  1  0
 17 18  1  0
 18 19  2  0
 18 20  1  0
 20 21  1  0
 21 22  1  0
 21 23  1  0
 21 24  1  0
 17 25  1  0
 25 26  2  0
 26  8  1  0
 25 11  1  0
  1 27  1  0
  1 28  1  0
  1 29  1  0
  5 30  1  0
  5 31  1  0
  7 32  1  0
  7 33  1  0
  7 34  1  0
  9 35  1  0
 10 36  1  0
 12 37  1  0
 15 38  1  0
 22 39  1  0
 22 40  1  0
 22 41  1  0
 23 42  1  0
 23 43  1  0
 23 44  1  0
 24 45  1  0
 24 46  1  0
 24 47  1  0
 26 48  1  0
M  CHG  2   2  -1  15  -1
M  END
>  <UniqueID>  (92) 
91

>  <SMILES>  (92) 
C[N-]C(=O)CN(C)c1ccc2cc(C([NH-])=O)n(C(=O)OC(C)(C)C)c2c1

>  <Energy>  (92) 
79.18431068443822

>  <Genealogy>  (92) 
C[N-]C(=O)CN(C)c1ccc2cc(C([NH-])=O)n(C(=O)OC(C)(C)C)c2c1 (protonated)
C[N-]C(=O)CN(C)c1ccc2cc(C([NH-])=O)n(C(=O)OC(C)(C)C)c2c1 (3D coordinates assigned)
C[N-]C(=O)CN(C)c1ccc2cc(C([NH-])=O)n(C(=O)OC(C)(C)C)c2c1 (optimized conformer: 79.18431068443822 kcal/mol)

>  <smiles>  (92) 
CNC(=O)CN(C)c1ccc2cc(C(N)=O)n(C(=O)OC(C)(C)C)c2c1

>  <score_type>  (92) 
oracle

>  <origin>  (92) 
adg

>  <m_score__min__energy>  (92) 
-9.9800000000000004

>  <m_primary>  (92) 
energy

$$$$
93:0
     RDKit          3D

 41 42  0  0  0  0  0  0  0  0999 V2000
   -9.1180   21.6070  -31.0960 C   0  0  0  0  0  0  0  0  0  0  0  0
   -8.4790   20.7120  -32.0690 N   0  0  0  0  0  0  0  0  0  0  0  0
   -9.0900   19.4110  -32.3680 C   0  0  0  0  0  0  0  0  0  0  0  0
   -7.2450   21.0790  -32.7330 C   0  0  0  0  0  0  0  0  0  0  0  0
   -6.6680   22.2240  -32.5080 N   0  0  0  0  0  0  0  0  0  0  0  0
   -6.6620   20.1860  -33.6910 N   0  0  0  0  0  0  0  0  0  0  0  0
   -5.5680   19.2890  -33.3240 C   0  0  0  0  0  0  0  0  0  0  0  0
   -4.2250   19.8340  -33.8160 C   0  0  0  0  0  0  0  0  0  0  0  0
   -3.4470   20.4310  -32.6740 C   0  0  0  0  0  0  0  0  0  0  0  0
   -2.3340   19.7400  -32.1360 C   0  0  0  0  0  0  0  0  0  0  0  0
   -1.5720   20.3060  -31.1010 C   0  0  0  0  0  0  0  0  0  0  0  0
   -1.9460   21.5600  -30.6270 C   0  0  0  0  0  0  0  0  0  0  0  0
   -1.3690   22.3470  -29.6570 C   0  0  0  0  0  0  0  0  0  0  0  0
   -2.1440   23.5030  -29.6090 C   0  0  0  0  0  0  0  0  0  0  0  0
   -1.9230   24.5900  -28.6320 C   0  0  0  0  0  0  0  0  0  0  0  0
   -1.3300   25.8160  -29.0560 N   0  0  0  0  0  0  0  0  0  0  0  0
   -2.2160   24.4350  -27.4180 O   0  0  0  0  0  0  0  0  0  0  0  0
   -3.1570   23.4390  -30.5200 N   0  0  0  0  0  0  0  0  0  0  0  0
   -4.1240   24.4540  -30.8320 C   0  0  0  0  0  0  0  0  0  0  0  0
   -3.9210   25.6510  -30.4980 O   0  0  0  0  0  0  0  0  0  0  0  0
   -5.3070   24.1230  -31.4820 O   0  0  0  0  0  0  0  0  0  0  0  0
   -3.0240   22.2410  -31.1330 C   0  0  0  0  0  0  0  0  0  0  0  0
   -3.7890   21.7080  -32.1760 C   0  0  0  0  0  0  0  0  0  0  0  0
   -8.8782   21.2712  -30.0763 H   0  0  0  0  0  0  0  0  0  0  0  0
   -8.7463   22.6320  -31.2414 H   0  0  0  0  0  0  0  0  0  0  0  0
  -10.2082   21.5883  -31.2414 H   0  0  0  0  0  0  0  0  0  0  0  0
   -9.3324   18.8949  -31.4273 H   0  0  0  0  0  0  0  0  0  0  0  0
  -10.0107   19.5635  -32.9504 H   0  0  0  0  0  0  0  0  0  0  0  0
   -8.3848   18.7999  -32.9504 H   0  0  0  0  0  0  0  0  0  0  0  0
   -7.0420   22.9230  -31.8290 H   0  0  0  0  0  0  0  0  0  0  0  0
   -5.8050   22.4920  -33.0300 H   0  0  0  0  0  0  0  0  0  0  0  0
   -7.2080   19.9690  -34.5550 H   0  0  0  0  0  0  0  0  0  0  0  0
   -5.5365   19.1889  -32.2290 H   0  0  0  0  0  0  0  0  0  0  0  0
   -5.7434   18.3105  -33.7949 H   0  0  0  0  0  0  0  0  0  0  0  0
   -3.6427   19.0136  -34.2608 H   0  0  0  0  0  0  0  0  0  0  0  0
   -4.4123   20.6167  -34.5659 H   0  0  0  0  0  0  0  0  0  0  0  0
   -2.0637   18.7503  -32.5327 H   0  0  0  0  0  0  0  0  0  0  0  0
   -0.7065   19.7748  -30.6781 H   0  0  0  0  0  0  0  0  0  0  0  0
   -0.4832   22.1127  -29.0484 H   0  0  0  0  0  0  0  0  0  0  0  0
   -1.2340   26.0430  -30.0710 H   0  0  0  0  0  0  0  0  0  0  0  0
   -4.6358   22.2693  -32.5978 H   0  0  0  0  0  0  0  0  0  0  0  0
  1  2  1  0
  2  3  1  0
  2  4  1  0
  4  5  2  0
  4  6  1  0
  6  7  1  0
  7  8  1  0
  8  9  1  0
  9 10  2  0
 10 11  1  0
 11 12  2  0
 12 13  1  0
 13 14  2  0
 14 15  1  0
 15 16  1  0
 15 17  2  0
 14 18  1  0
 18 19  1  0
 19 20  2  0
 19 21  1  0
 18 22  1  0
 22 23  2  0
 23  9  1  0
 22 12  1  0
  1 24  1  0
  1 25  1  0
  1 26  1  0
  3 27  1  0
  3 28  1  0
  3 29  1  0
  5 30  1  0
  5 31  1  0
  6 32  1  0
  7 33  1  0
  7 34  1  0
  8 35  1  0
  8 36  1  0
 10 37  1  0
 11 38  1  0
 13 39  1  0
 16 40  1  0
 23 41  1  0
M  CHG  3   5   1  16  -1  21  -1
M  END
>  <UniqueID>  (93) 
92

>  <SMILES>  (93) 
CN(C)C(=[NH2+])NCCc1ccc2cc(C([NH-])=O)n(C(=O)[O-])c2c1

>  <Energy>  (93) 
80.29676232992367

>  <Genealogy>  (93) 
CN(C)C(=[NH2+])NCCc1ccc2cc(C([NH-])=O)n(C(=O)[O-])c2c1 (protonated)
CN(C)C(=[NH2+])NCCc1ccc2cc(C([NH-])=O)n(C(=O)[O-])c2c1 (3D coordinates assigned)
CN(C)C(=[NH2+])NCCc1ccc2cc(C([NH-])=O)n(C(=O)[O-])c2c1 (optimized conformer: 80.29676232992367 kcal/mol)

>  <smiles>  (93) 
CN(C)C(=N)NCCc1ccc2cc(C(N)=O)n(C(=O)O)c2c1

>  <score_type>  (93) 
oracle

>  <origin>  (93) 
adg

>  <m_score__min__energy>  (93) 
-11.16

>  <m_primary>  (93) 
energy

$$$$
94:0
     RDKit          3D

 36 37  0  0  0  0  0  0  0  0999 V2000
   -6.8040   18.3120  -32.4250 C   0  0  0  0  0  0  0  0  0  0  0  0
   -7.0220   19.7490  -32.0540 C   0  0  0  0  0  0  0  0  0  0  0  0
   -8.3170   20.3170  -32.1440 C   0  0  0  0  0  0  0  0  0  0  0  0
   -8.5270   21.6730  -31.8430 C   0  0  0  0  0  0  0  0  0  0  0  0
   -7.4260   22.4340  -31.4620 C   0  0  0  0  0  0  0  0  0  0  0  0
   -7.3350   23.7720  -31.1470 C   0  0  0  0  0  0  0  0  0  0  0  0
   -5.9870   23.9980  -30.8730 C   0  0  0  0  0  0  0  0  0  0  0  0
   -5.4360   25.3050  -30.4590 C   0  0  0  0  0  0  0  0  0  0  0  0
   -4.1120   25.6700  -30.8390 N   0  0  0  0  0  0  0  0  0  0  0  0
   -6.1280   26.1100  -29.7830 O   0  0  0  0  0  0  0  0  0  0  0  0
   -5.2760   22.8440  -31.0060 N   0  0  0  0  0  0  0  0  0  0  0  0
   -3.8590   22.6680  -30.8640 C   0  0  0  0  0  0  0  0  0  0  0  0
   -3.1100   22.9700  -31.8300 O   0  0  0  0  0  0  0  0  0  0  0  0
   -3.3010   22.1200  -29.6040 C   0  0  0  0  0  0  0  0  0  0  0  0
   -3.0310   20.8870  -29.5660 O   0  0  0  0  0  0  0  0  0  0  0  0
   -3.0480   22.9270  -28.4270 N   0  0  0  0  0  0  0  0  0  0  0  0
   -4.2040   23.5000  -27.7280 C   0  0  0  0  0  0  0  0  0  0  0  0
   -1.6880   23.2580  -27.9670 C   0  0  0  0  0  0  0  0  0  0  0  0
   -1.1010   24.3660  -28.7860 C   0  0  0  0  0  0  0  0  0  0  0  0
    0.1450   24.4450  -28.9420 O   0  0  0  0  0  0  0  0  0  0  0  0
   -1.9260   25.3410  -29.3340 O   0  0  0  0  0  0  0  0  0  0  0  0
   -6.1670   21.8980  -31.3720 C   0  0  0  0  0  0  0  0  0  0  0  0
   -5.9250   20.5560  -31.6820 C   0  0  0  0  0  0  0  0  0  0  0  0
   -6.7122   17.7072  -31.5108 H   0  0  0  0  0  0  0  0  0  0  0  0
   -7.6579   17.9528  -33.0181 H   0  0  0  0  0  0  0  0  0  0  0  0
   -5.8820   18.2223  -33.0181 H   0  0  0  0  0  0  0  0  0  0  0  0
   -9.1664   19.6899  -32.4526 H   0  0  0  0  0  0  0  0  0  0  0  0
   -9.5304   22.1193  -31.9065 H   0  0  0  0  0  0  0  0  0  0  0  0
   -8.1531   24.5067  -31.1178 H   0  0  0  0  0  0  0  0  0  0  0  0
   -3.3500   24.9570  -30.8810 H   0  0  0  0  0  0  0  0  0  0  0  0
   -4.0502   23.4238  -26.6415 H   0  0  0  0  0  0  0  0  0  0  0  0
   -4.3153   24.5576  -28.0093 H   0  0  0  0  0  0  0  0  0  0  0  0
   -5.1130   22.9482  -28.0093 H   0  0  0  0  0  0  0  0  0  0  0  0
   -1.7307   23.5725  -26.9138 H   0  0  0  0  0  0  0  0  0  0  0  0
   -1.0535   22.3662  -28.0765 H   0  0  0  0  0  0  0  0  0  0  0  0
   -4.9075   20.1405  -31.6372 H   0  0  0  0  0  0  0  0  0  0  0  0
  1  2  1  0
  2  3  2  0
  3  4  1  0
  4  5  2  0
  5  6  1  0
  6  7  2  0
  7  8  1  0
  8  9  1  0
  8 10  2  0
  7 11  1  0
 11 12  1  0
 12 13  2  0
 12 14  1  0
 14 15  2  0
 14 16  1  0
 16 17  1  0
 16 18  1  0
 18 19  1  0
 19 20  2  0
 19 21  1  0
 11 22  1  0
 22 23  2  0
 23  2  1  0
 22  5  1  0
  1 24  1  0
  1 25  1  0
  1 26  1  0
  3 27  1  0
  4 28  1  0
  6 29  1  0
  9 30  1  0
 17 31  1  0
 17 32  1  0
 17 33  1  0
 18 34  1  0
 18 35  1  0
 23 36  1  0
M  CHG  2   9  -1  21  -1
M  END
>  <UniqueID>  (94) 
93

>  <SMILES>  (94) 
Cc1ccc2cc(C([NH-])=O)n(C(=O)C(=O)N(C)CC(=O)[O-])c2c1

>  <Energy>  (94) 
75.9367169745327

>  <Genealogy>  (94) 
Cc1ccc2cc(C([NH-])=O)n(C(=O)C(=O)N(C)CC(=O)[O-])c2c1 (protonated)
Cc1ccc2cc(C([NH-])=O)n(C(=O)C(=O)N(C)CC(=O)[O-])c2c1 (3D coordinates assigned)
Cc1ccc2cc(C([NH-])=O)n(C(=O)C(=O)N(C)CC(=O)[O-])c2c1 (optimized conformer: 75.9367169745327 kcal/mol)

>  <smiles>  (94) 
Cc1ccc2cc(C(N)=O)n(C(=O)C(=O)N(C)CC(=O)O)c2c1

>  <score_type>  (94) 
oracle

>  <origin>  (94) 
adg

>  <m_score__min__energy>  (94) 
-12.68

>  <m_primary>  (94) 
energy

$$$$
