0:0
     RDKit          3D

 47 50  0  0  0  0  0  0  0  0999 V2000
   -9.4340   19.0460  -32.3920 C   0  0  0  0  0  0  0  0  0  0  0  0
   -8.0130   19.2310  -32.0620 N   0  0  0  0  0  0  0  0  0  0  0  0
   -7.3080   20.0610  -33.0660 C   0  0  0  0  0  0  0  0  0  0  0  0
   -6.1120   19.1970  -33.4810 C   0  0  2  0  0  0  0  0  0  0  0  0
   -6.7720   17.8480  -33.5350 C   0  0  0  0  0  0  0  0  0  0  0  0
   -7.2670   17.9530  -32.1040 C   0  0  1  0  0  0  0  0  0  0  0  0
   -5.9440   18.1950  -31.3660 C   0  0  0  0  0  0  0  0  0  0  0  0
   -5.2420   19.0650  -32.3090 N   0  0  0  0  0  0  0  0  0  0  0  0
   -4.1130   19.8980  -31.9800 C   0  0  0  0  0  0  0  0  0  0  0  0
   -2.8540   19.7020  -32.6100 C   0  0  0  0  0  0  0  0  0  0  0  0
   -1.7500   20.5070  -32.2800 C   0  0  0  0  0  0  0  0  0  0  0  0
   -1.9320   21.5040  -31.3280 C   0  0  0  0  0  0  0  0  0  0  0  0
   -1.0320   22.4040  -30.8040 C   0  0  0  0  0  0  0  0  0  0  0  0
   -1.7550   23.1530  -29.8760 C   0  0  0  0  0  0  0  0  0  0  0  0
   -1.1770   24.2750  -29.1050 C   0  0  0  0  0  0  0  0  0  0  0  0
   -1.9400   25.4410  -28.8120 N   0  0  0  0  0  0  0  0  0  0  0  0
    0.0220   24.2140  -28.7190 O   0  0  0  0  0  0  0  0  0  0  0  0
   -3.0510   22.7320  -29.8340 N   0  0  0  0  0  0  0  0  0  0  0  0
   -4.1040   23.2140  -28.9820 C   0  0  0  0  0  0  0  0  0  0  0  0
   -4.0900   22.9160  -27.7550 O   0  0  0  0  0  0  0  0  0  0  0  0
   -5.1300   24.0820  -29.5130 N   0  0  2  0  0  0  0  0  0  0  0  0
   -6.4090   23.3620  -29.6080 C   0  0  0  0  0  0  0  0  0  0  0  0
   -4.7500   24.6070  -30.8020 C   0  0  0  0  0  0  0  0  0  0  0  0
   -5.2290   24.1250  -31.8650 O   0  0  0  0  0  0  0  0  0  0  0  0
   -3.8640   25.6770  -30.8820 O   0  0  0  0  0  0  0  0  0  0  0  0
   -3.1400   21.7210  -30.7230 C   0  0  0  0  0  0  0  0  0  0  0  0
   -4.2490   20.9210  -31.0140 C   0  0  0  0  0  0  0  0  0  0  0  0
  -10.0191   18.9698  -31.4636 H   0  0  0  0  0  0  0  0  0  0  0  0
   -9.7889   19.9055  -32.9796 H   0  0  0  0  0  0  0  0  0  0  0  0
   -9.5570   18.1243  -32.9796 H   0  0  0  0  0  0  0  0  0  0  0  0
   -7.9585   20.2696  -33.9282 H   0  0  0  0  0  0  0  0  0  0  0  0
   -7.0067   21.0422  -32.6704 H   0  0  0  0  0  0  0  0  0  0  0  0
   -5.5747   19.5610  -34.3691 H   0  0  0  0  0  0  0  0  0  0  0  0
   -7.5828   17.7860  -34.2758 H   0  0  0  0  0  0  0  0  0  0  0  0
   -6.1727   16.9735  -33.8282 H   0  0  0  0  0  0  0  0  0  0  0  0
   -7.8694   17.1154  -31.7226 H   0  0  0  0  0  0  0  0  0  0  0  0
   -6.1077   18.6969  -30.4009 H   0  0  0  0  0  0  0  0  0  0  0  0
   -5.3972   17.2754  -31.1102 H   0  0  0  0  0  0  0  0  0  0  0  0
   -2.7422   18.9103  -33.3654 H   0  0  0  0  0  0  0  0  0  0  0  0
   -0.7723   20.3530  -32.7600 H   0  0  0  0  0  0  0  0  0  0  0  0
    0.0319   22.5100  -31.0624 H   0  0  0  0  0  0  0  0  0  0  0  0
   -2.8220   25.6510  -29.3310 H   0  0  0  0  0  0  0  0  0  0  0  0
   -5.2710   24.8860  -28.8580 H   0  0  0  0  0  0  0  0  0  0  0  0
   -6.7862   23.1496  -28.5968 H   0  0  0  0  0  0  0  0  0  0  0  0
   -7.1393   23.9816  -30.1491 H   0  0  0  0  0  0  0  0  0  0  0  0
   -6.2581   22.4163  -30.1491 H   0  0  0  0  0  0  0  0  0  0  0  0
   -5.2084   21.0844  -30.5014 H   0  0  0  0  0  0  0  0  0  0  0  0
  1  2  1  0
  2  3  1  0
  3  4  1  0
  4  5  1  0
  5  6  1  0
  6  7  1  0
  7  8  1  0
  8  9  1  0
  9 10  2  0
 10 11  1  0
 11 12  2  0
 12 13  1  0
 13 14  2  0
 14 15  1  0
 15 16  1  0
 15 17  2  0
 14 18  1  0
 18 19  1  0
 19 20  2  0
 19 21  1  0
 21 22  1  0
 21 23  1  0
 23 24  2  0
 23 25  1  0
 18 26  1  0
 26 27  2  0
  6  2  1  0
 27  9  1  0
  8  4  1  0
 26 12  1  0
  1 28  1  0
  1 29  1  0
  1 30  1  0
  3 31  1  0
  3 32  1  0
  4 33  1  6
  5 34  1  0
  5 35  1  0
  6 36  1  1
  7 37  1  0
  7 38  1  0
 10 39  1  0
 11 40  1  0
 13 41  1  0
 16 42  1  0
 21 43  1  1
 22 44  1  0
 22 45  1  0
 22 46  1  0
 27 47  1  0
M  CHG  3  16  -1  21   1  25  -1
M  END
>  <UniqueID>  (1) 
1

>  <SMILES>  (1) 
CN1C[C@@H]2C[C@H]1CN2c1ccc2cc(C([NH-])=O)n(C(=O)[NH+](C)C(=O)[O-])c2c1

>  <Energy>  (1) 
126.54727144373757

>  <Genealogy>  (1) 
CN1CC2CC1CN2c1ccc2cc(C([NH-])=O)n(C(=O)[NH+](C)C(=O)[O-])c2c1 (protonated)
CN1C[C@@H]2C[C@H]1CN2c1ccc2cc(C([NH-])=O)n(C(=O)[NH+](C)C(=O)[O-])c2c1 (chirality)
CN1C[C@@H]2C[C@H]1CN2c1ccc2cc(C([NH-])=O)n(C(=O)[NH+](C)C(=O)[O-])c2c1 (3D coordinates assigned)
CN1C[C@@H]2C[C@H]1CN2c1ccc2cc(C([NH-])=O)n(C(=O)[NH+](C)C(=O)[O-])c2c1 (nonaromatic ring conformer: 126.54727144373757 kcal/mol)

>  <smiles>  (1) 
CN(C(=O)O)C(=O)n1c(C(N)=O)cc2ccc(N3CC4CC3CN4C)cc21

>  <score_type>  (1) 
oracle

>  <origin>  (1) 
adg

>  <m_score__min__energy>  (1) 
-12.25

>  <m_primary>  (1) 
energy

$$$$
1:0
     RDKit          3D

 45 46  0  0  0  0  0  0  0  0999 V2000
    0.2830   17.0870  -27.6070 C   0  0  0  0  0  0  0  0  0  0  0  0
    0.0860   18.6070  -27.5030 C   0  0  0  0  0  0  0  0  0  0  0  0
   -1.3930   18.9310  -27.2290 C   0  0  0  0  0  0  0  0  0  0  0  0
    0.6700   19.3460  -28.7470 C   0  0  2  0  0  0  0  0  0  0  0  0
    0.1430   18.7790  -30.0110 N   0  0  0  0  0  0  0  0  0  0  0  0
   -0.8270   19.6620  -30.6150 C   0  0  0  0  0  0  0  0  0  0  0  0
   -1.2910   19.4150  -31.9340 C   0  0  0  0  0  0  0  0  0  0  0  0
   -2.2590   20.2450  -32.5240 C   0  0  0  0  0  0  0  0  0  0  0  0
   -2.7450   21.3140  -31.7760 C   0  0  0  0  0  0  0  0  0  0  0  0
   -3.7030   22.2520  -32.0850 C   0  0  0  0  0  0  0  0  0  0  0  0
   -3.8020   23.0660  -30.9570 C   0  0  0  0  0  0  0  0  0  0  0  0
   -4.6860   24.2480  -30.8740 C   0  0  0  0  0  0  0  0  0  0  0  0
   -4.1620   25.5360  -30.5630 N   0  0  0  0  0  0  0  0  0  0  0  0
   -5.9170   24.1240  -31.1130 O   0  0  0  0  0  0  0  0  0  0  0  0
   -2.9380   22.6460  -29.9910 N   0  0  0  0  0  0  0  0  0  0  0  0
   -2.7870   23.1570  -28.6580 C   0  0  0  0  0  0  0  0  0  0  0  0
   -3.7990   23.2330  -27.9090 O   0  0  0  0  0  0  0  0  0  0  0  0
   -1.4960   23.5760  -28.1740 N   0  0  0  0  0  0  0  0  0  0  0  0
   -0.7830   22.7480  -27.1970 C   0  0  0  0  0  0  0  0  0  0  0  0
   -0.9370   24.8430  -28.5730 C   0  0  0  0  0  0  0  0  0  0  0  0
   -1.5850   25.6180  -29.3260 O   0  0  0  0  0  0  0  0  0  0  0  0
    0.3340   25.2210  -28.1530 O   0  0  0  0  0  0  0  0  0  0  0  0
   -2.3010   21.5730  -30.5050 C   0  0  0  0  0  0  0  0  0  0  0  0
   -1.3500   20.7550  -29.8880 C   0  0  0  0  0  0  0  0  0  0  0  0
    2.1840   19.3640  -28.7400 C   0  0  0  0  0  0  0  0  0  0  0  0
    2.8030   19.7750  -27.7230 O   0  0  0  0  0  0  0  0  0  0  0  0
    2.9050   18.9110  -29.8380 O   0  0  0  0  0  0  0  0  0  0  0  0
    0.3390   16.6546  -26.5971 H   0  0  0  0  0  0  0  0  0  0  0  0
   -0.5652   16.6436  -28.1492 H   0  0  0  0  0  0  0  0  0  0  0  0
    1.2162   16.8745  -28.1492 H   0  0  0  0  0  0  0  0  0  0  0  0
    0.6590   18.9883  -26.6450 H   0  0  0  0  0  0  0  0  0  0  0  0
   -1.5650   18.9687  -26.1432 H   0  0  0  0  0  0  0  0  0  0  0  0
   -1.6435   19.9053  -27.6740 H   0  0  0  0  0  0  0  0  0  0  0  0
   -2.0278   18.1506  -27.6740 H   0  0  0  0  0  0  0  0  0  0  0  0
    0.3354   20.3920  -28.6839 H   0  0  0  0  0  0  0  0  0  0  0  0
   -0.3230   17.8610  -29.8210 H   0  0  0  0  0  0  0  0  0  0  0  0
    0.9200   18.5920  -30.6870 H   0  0  0  0  0  0  0  0  0  0  0  0
   -0.8875   18.5631  -32.5010 H   0  0  0  0  0  0  0  0  0  0  0  0
   -2.6216   20.0561  -33.5452 H   0  0  0  0  0  0  0  0  0  0  0  0
   -4.2706   22.3410  -33.0231 H   0  0  0  0  0  0  0  0  0  0  0  0
   -3.5490   25.6810  -29.7300 H   0  0  0  0  0  0  0  0  0  0  0  0
   -1.0557   23.0647  -26.1795 H   0  0  0  0  0  0  0  0  0  0  0  0
   -1.0597   21.6929  -27.3392 H   0  0  0  0  0  0  0  0  0  0  0  0
    0.3015   22.8650  -27.3392 H   0  0  0  0  0  0  0  0  0  0  0  0
   -1.0163   20.9576  -28.8596 H   0  0  0  0  0  0  0  0  0  0  0  0
  1  2  1  0
  2  3  1  0
  2  4  1  0
  4  5  1  0
  5  6  1  0
  6  7  2  0
  7  8  1  0
  8  9  2  0
  9 10  1  0
 10 11  2  0
 11 12  1  0
 12 13  1  0
 12 14  2  0
 11 15  1  0
 15 16  1  0
 16 17  2  0
 16 18  1  0
 18 19  1  0
 18 20  1  0
 20 21  2  0
 20 22  1  0
 15 23  1  0
 23 24  2  0
  4 25  1  0
 25 26  2  0
 25 27  1  0
 24  6  1  0
 23  9  1  0
  1 28  1  0
  1 29  1  0
  1 30  1  0
  2 31  1  0
  3 32  1  0
  3 33  1  0
  3 34  1  0
  4 35  1  1
  5 36  1  0
  5 37  1  0
  7 38  1  0
  8 39  1  0
 10 40  1  0
 13 41  1  0
 19 42  1  0
 19 43  1  0
 19 44  1  0
 24 45  1  0
M  CHG  4   5   1  13  -1  22  -1  27  -1
M  END
>  <UniqueID>  (2) 
2

>  <SMILES>  (2) 
CC(C)[C@H]([NH2+]c1ccc2cc(C([NH-])=O)n(C(=O)N(C)C(=O)[O-])c2c1)C(=O)[O-]

>  <Energy>  (2) 
84.94980786386334

>  <Genealogy>  (2) 
CC(C)[C@H]([NH2+]c1ccc2cc(C([NH-])=O)n(C(=O)N(C)C(=O)[O-])c2c1)C(=O)[O-] (protonated)
CC(C)[C@H]([NH2+]c1ccc2cc(C([NH-])=O)n(C(=O)N(C)C(=O)[O-])c2c1)C(=O)[O-] (3D coordinates assigned)
CC(C)[C@H]([NH2+]c1ccc2cc(C([NH-])=O)n(C(=O)N(C)C(=O)[O-])c2c1)C(=O)[O-] (optimized conformer: 84.94980786386334 kcal/mol)

>  <smiles>  (2) 
CC(C)[C@H](Nc1ccc2cc(C(N)=O)n(C(=O)N(C)C(=O)O)c2c1)C(=O)O

>  <score_type>  (2) 
oracle

>  <origin>  (2) 
adg

>  <m_score__min__energy>  (2) 
-11.07

>  <m_primary>  (2) 
energy

$$$$
2:0
     RDKit          3D

 32 33  0  0  0  0  0  0  0  0999 V2000
   -2.6850   21.7970  -29.5690 C   0  0  0  0  0  0  0  0  0  0  0  0
   -3.3180   22.9400  -30.2290 N   0  0  0  0  0  0  0  0  0  0  0  0
   -4.0380   22.7540  -31.4600 C   0  0  0  0  0  0  0  0  0  0  0  0
   -4.7570   23.6810  -31.9220 O   0  0  0  0  0  0  0  0  0  0  0  0
   -3.9510   21.5160  -32.1780 N   0  0  0  0  0  0  0  0  0  0  0  0
   -2.8660   20.9930  -32.8120 C   0  0  0  0  0  0  0  0  0  0  0  0
   -1.5050   21.5700  -32.8130 C   0  0  0  0  0  0  0  0  0  0  0  0
   -0.8460   21.8990  -34.0340 N   0  0  0  0  0  0  0  0  0  0  0  0
   -0.9200   21.7920  -31.7190 O   0  0  0  0  0  0  0  0  0  0  0  0
   -3.2060   19.7990  -33.4490 C   0  0  0  0  0  0  0  0  0  0  0  0
   -4.5450   19.6130  -33.1830 C   0  0  0  0  0  0  0  0  0  0  0  0
   -5.4090   18.6000  -33.5870 C   0  0  0  0  0  0  0  0  0  0  0  0
   -6.7530   18.6820  -33.1830 C   0  0  0  0  0  0  0  0  0  0  0  0
   -7.2060   19.7580  -32.3760 C   0  0  0  0  0  0  0  0  0  0  0  0
   -8.6620   19.8610  -31.9960 C   0  0  0  0  0  0  0  0  0  0  0  0
   -9.1050   18.6270  -31.5590 F   0  0  0  0  0  0  0  0  0  0  0  0
   -9.4250   20.2550  -33.0810 F   0  0  0  0  0  0  0  0  0  0  0  0
   -8.8360   20.7880  -30.9830 F   0  0  0  0  0  0  0  0  0  0  0  0
   -6.3010   20.7810  -32.0090 C   0  0  0  0  0  0  0  0  0  0  0  0
   -4.9690   20.6650  -32.4160 C   0  0  0  0  0  0  0  0  0  0  0  0
   -3.1310   24.5620  -29.5630 P   0  0  0  0  0  0  0  0  0  0  0  0
   -3.7990   24.6260  -28.2080 O   0  0  0  0  0  0  0  0  0  0  0  0
   -3.8650   25.6790  -30.5980 O   0  0  0  0  0  0  0  0  0  0  0  0
   -1.4950   24.9590  -29.3910 O   0  0  0  0  0  0  0  0  0  0  0  0
   -2.7530   21.9198  -28.4780 H   0  0  0  0  0  0  0  0  0  0  0  0
   -3.1989   20.8710  -29.8665 H   0  0  0  0  0  0  0  0  0  0  0  0
   -1.6275   21.7413  -29.8665 H   0  0  0  0  0  0  0  0  0  0  0  0
   -1.2180   21.5680  -34.9510 H   0  0  0  0  0  0  0  0  0  0  0  0
   -2.5457   19.1455  -34.0380 H   0  0  0  0  0  0  0  0  0  0  0  0
   -5.0518   17.7616  -34.2030 H   0  0  0  0  0  0  0  0  0  0  0  0
   -7.4627   17.9022  -33.4964 H   0  0  0  0  0  0  0  0  0  0  0  0
   -6.6369   21.6460  -31.4182 H   0  0  0  0  0  0  0  0  0  0  0  0
  1  2  1  0
  2  3  1  0
  3  4  2  0
  3  5  1  0
  5  6  1  0
  6  7  1  0
  7  8  1  0
  7  9  2  0
  6 10  2  0
 10 11  1  0
 11 12  2  0
 12 13  1  0
 13 14  2  0
 14 15  1  0
 15 16  1  0
 15 17  1  0
 15 18  1  0
 14 19  1  0
 19 20  2  0
  2 21  1  0
 21 22  2  0
 21 23  1  0
 21 24  1  0
 20  5  1  0
 20 11  1  0
  1 25  1  0
  1 26  1  0
  1 27  1  0
  8 28  1  0
 10 29  1  0
 12 30  1  0
 13 31  1  0
 19 32  1  0
M  CHG  3   8  -1  23  -1  24  -1
M  END
>  <UniqueID>  (3) 
3

>  <SMILES>  (3) 
CN(C(=O)n1c(C([NH-])=O)cc2ccc(C(F)(F)F)cc21)P(=O)([O-])[O-]

>  <Energy>  (3) 
68.71325832897975

>  <Genealogy>  (3) 
CN(C(=O)n1c(C([NH-])=O)cc2ccc(C(F)(F)F)cc21)P(=O)([O-])[O-] (protonated)
CN(C(=O)n1c(C([NH-])=O)cc2ccc(C(F)(F)F)cc21)P(=O)([O-])[O-] (3D coordinates assigned)
CN(C(=O)n1c(C([NH-])=O)cc2ccc(C(F)(F)F)cc21)P(=O)([O-])[O-] (optimized conformer: 68.71325832897975 kcal/mol)

>  <smiles>  (3) 
CN(C(=O)n1c(C(N)=O)cc2ccc(C(F)(F)F)cc21)P(=O)(O)O

>  <score_type>  (3) 
oracle

>  <origin>  (3) 
adg

>  <m_score__min__energy>  (3) 
-12.550000000000001

>  <m_primary>  (3) 
energy

$$$$
3:0
     RDKit          3D

 37 38  0  0  0  0  0  0  0  0999 V2000
    1.5430   20.2160  -36.4970 C   0  0  0  0  0  0  0  0  0  0  0  0
    0.5240   20.1150  -35.4470 N   0  0  0  0  0  0  0  0  0  0  0  0
   -0.0620   18.8140  -35.1050 C   0  0  0  0  0  0  0  0  0  0  0  0
    0.1040   21.3070  -34.7540 C   0  0  0  0  0  0  0  0  0  0  0  0
    0.6080   22.4240  -35.0480 O   0  0  0  0  0  0  0  0  0  0  0  0
   -0.8950   21.2540  -33.7160 C   0  0  0  0  0  0  0  0  0  0  0  0
   -1.7300   21.1990  -32.8500 C   0  0  0  0  0  0  0  0  0  0  0  0
   -2.6810   21.1440  -31.8650 O   0  0  0  0  0  0  0  0  0  0  0  0
   -3.2830   22.2960  -31.3540 C   0  0  0  0  0  0  0  0  0  0  0  0
   -2.5840   23.1870  -30.7970 O   0  0  0  0  0  0  0  0  0  0  0  0
   -4.7080   22.4550  -31.4440 N   0  0  0  0  0  0  0  0  0  0  0  0
   -5.4740   23.4510  -30.9160 C   0  0  0  0  0  0  0  0  0  0  0  0
   -4.9740   24.6830  -30.2680 C   0  0  0  0  0  0  0  0  0  0  0  0
   -3.8990   25.4260  -30.8350 N   0  0  0  0  0  0  0  0  0  0  0  0
   -5.5360   25.1090  -29.2240 O   0  0  0  0  0  0  0  0  0  0  0  0
   -6.8250   23.2000  -31.1440 C   0  0  0  0  0  0  0  0  0  0  0  0
   -6.8640   22.0140  -31.8400 C   0  0  0  0  0  0  0  0  0  0  0  0
   -7.9530   21.2980  -32.3250 C   0  0  0  0  0  0  0  0  0  0  0  0
   -7.7010   20.0870  -32.9910 C   0  0  0  0  0  0  0  0  0  0  0  0
   -6.3750   19.6020  -33.1380 C   0  0  0  0  0  0  0  0  0  0  0  0
   -6.1140   18.3200  -33.8880 C   0  0  0  0  0  0  0  0  0  0  0  0
   -4.9070   17.7630  -33.4990 F   0  0  0  0  0  0  0  0  0  0  0  0
   -6.0620   18.5530  -35.2510 F   0  0  0  0  0  0  0  0  0  0  0  0
   -7.1300   17.4230  -33.6210 F   0  0  0  0  0  0  0  0  0  0  0  0
   -5.2940   20.3720  -32.6500 C   0  0  0  0  0  0  0  0  0  0  0  0
   -5.5730   21.5830  -32.0070 C   0  0  0  0  0  0  0  0  0  0  0  0
    2.5366   20.3145  -36.0354 H   0  0  0  0  0  0  0  0  0  0  0  0
    1.5169   19.3109  -37.1215 H   0  0  0  0  0  0  0  0  0  0  0  0
    1.3397   21.0984  -37.1215 H   0  0  0  0  0  0  0  0  0  0  0  0
   -0.1092   18.7093  -34.0110 H   0  0  0  0  0  0  0  0  0  0  0  0
   -1.0770   18.7475  -35.5238 H   0  0  0  0  0  0  0  0  0  0  0  0
    0.5608   18.0098  -35.5238 H   0  0  0  0  0  0  0  0  0  0  0  0
   -2.9200   25.2970  -30.4960 H   0  0  0  0  0  0  0  0  0  0  0  0
   -7.6796   23.8190  -30.8334 H   0  0  0  0  0  0  0  0  0  0  0  0
   -8.9801   21.6684  -32.1913 H   0  0  0  0  0  0  0  0  0  0  0  0
   -8.5406   19.5081  -33.4032 H   0  0  0  0  0  0  0  0  0  0  0  0
   -4.2569   20.0267  -32.7731 H   0  0  0  0  0  0  0  0  0  0  0  0
  1  2  1  0
  2  3  1  0
  2  4  1  0
  4  5  2  0
  4  6  1  0
  6  7  3  0
  7  8  1  0
  8  9  1  0
  9 10  2  0
  9 11  1  0
 11 12  1  0
 12 13  1  0
 13 14  1  0
 13 15  2  0
 12 16  2  0
 16 17  1  0
 17 18  2  0
 18 19  1  0
 19 20  2  0
 20 21  1  0
 21 22  1  0
 21 23  1  0
 21 24  1  0
 20 25  1  0
 25 26  2  0
 26 11  1  0
 26 17  1  0
  1 27  1  0
  1 28  1  0
  1 29  1  0
  3 30  1  0
  3 31  1  0
  3 32  1  0
 14 33  1  0
 16 34  1  0
 18 35  1  0
 19 36  1  0
 25 37  1  0
M  CHG  1  14  -1
M  END
>  <UniqueID>  (4) 
4

>  <SMILES>  (4) 
CN(C)C(=O)C#COC(=O)n1c(C([NH-])=O)cc2ccc(C(F)(F)F)cc21

>  <Energy>  (4) 
70.6727923770173

>  <Genealogy>  (4) 
CN(C)C(=O)C#COC(=O)n1c(C([NH-])=O)cc2ccc(C(F)(F)F)cc21 (protonated)
CN(C)C(=O)C#COC(=O)n1c(C([NH-])=O)cc2ccc(C(F)(F)F)cc21 (3D coordinates assigned)
CN(C)C(=O)C#COC(=O)n1c(C([NH-])=O)cc2ccc(C(F)(F)F)cc21 (optimized conformer: 70.6727923770173 kcal/mol)

>  <smiles>  (4) 
CN(C)C(=O)C#COC(=O)n1c(C(N)=O)cc2ccc(C(F)(F)F)cc21

>  <score_type>  (4) 
oracle

>  <origin>  (4) 
adg

>  <m_score__min__energy>  (4) 
-11.050000000000001

>  <m_primary>  (4) 
energy

$$$$
4:0
     RDKit          3D

 47 48  0  0  0  0  0  0  0  0999 V2000
   -8.7850   22.6410  -31.6160 C   0  0  0  0  0  0  0  0  0  0  0  0
   -8.2850   21.2610  -31.9240 C   0  0  0  0  0  0  0  0  0  0  0  0
   -9.1860   20.1670  -31.9380 C   0  0  0  0  0  0  0  0  0  0  0  0
   -8.7260   18.8650  -32.2000 C   0  0  0  0  0  0  0  0  0  0  0  0
   -7.3640   18.6870  -32.4240 C   0  0  0  0  0  0  0  0  0  0  0  0
   -6.6570   17.5430  -32.7170 C   0  0  0  0  0  0  0  0  0  0  0  0
   -5.3290   17.9520  -32.8480 C   0  0  0  0  0  0  0  0  0  0  0  0
   -4.1940   17.0370  -33.1050 C   0  0  0  0  0  0  0  0  0  0  0  0
   -3.0340   17.4840  -33.8130 N   0  0  0  0  0  0  0  0  0  0  0  0
   -4.2480   15.8400  -32.7180 O   0  0  0  0  0  0  0  0  0  0  0  0
   -5.2240   19.2940  -32.6340 N   0  0  0  0  0  0  0  0  0  0  0  0
   -4.0430   20.1040  -32.7290 C   0  0  0  0  0  0  0  0  0  0  0  0
   -3.6610   20.5120  -33.8600 O   0  0  0  0  0  0  0  0  0  0  0  0
   -3.3020   20.4360  -31.5430 N   0  0  0  0  0  0  0  0  0  0  0  0
   -2.1660   21.3170  -31.5260 C   0  0  0  0  0  0  0  0  0  0  0  0
   -1.7760   21.8790  -32.5860 O   0  0  0  0  0  0  0  0  0  0  0  0
   -1.4400   21.5800  -30.2750 C   0  0  0  0  0  0  0  0  0  0  0  0
   -0.3720   20.9610  -30.0170 O   0  0  0  0  0  0  0  0  0  0  0  0
   -1.9450   22.5290  -29.3780 O   0  0  0  0  0  0  0  0  0  0  0  0
   -3.2230   23.1460  -29.5250 C   0  0  0  0  0  0  0  0  0  0  0  0
   -3.0960   24.6300  -29.6830 C   0  0  0  0  0  0  0  0  0  0  0  0
   -2.2990   25.2790  -28.9540 O   0  0  0  0  0  0  0  0  0  0  0  0
   -3.8480   25.2930  -30.7050 N   0  0  0  0  0  0  0  0  0  0  0  0
   -5.3030   25.2270  -30.8210 C   0  0  0  0  0  0  0  0  0  0  0  0
   -5.7200   23.9430  -31.5450 C   0  0  0  0  0  0  0  0  0  0  0  0
   -5.9190   25.2780  -29.4230 C   0  0  0  0  0  0  0  0  0  0  0  0
   -6.4760   19.7290  -32.3810 C   0  0  0  0  0  0  0  0  0  0  0  0
   -6.9080   21.0400  -32.1420 C   0  0  0  0  0  0  0  0  0  0  0  0
   -8.8347   22.7781  -30.5257 H   0  0  0  0  0  0  0  0  0  0  0  0
   -8.0991   23.3845  -32.0482 H   0  0  0  0  0  0  0  0  0  0  0  0
   -9.7879   22.7726  -32.0482 H   0  0  0  0  0  0  0  0  0  0  0  0
  -10.2547   20.3385  -31.7421 H   0  0  0  0  0  0  0  0  0  0  0  0
   -9.4211   18.0129  -32.2272 H   0  0  0  0  0  0  0  0  0  0  0  0
   -7.0543   16.5229  -32.8250 H   0  0  0  0  0  0  0  0  0  0  0  0
   -2.2510   16.8210  -34.0030 H   0  0  0  0  0  0  0  0  0  0  0  0
   -2.9300   18.4750  -34.1190 H   0  0  0  0  0  0  0  0  0  0  0  0
   -3.6010   19.9890  -30.6490 H   0  0  0  0  0  0  0  0  0  0  0  0
   -3.7205   22.7322  -30.4146 H   0  0  0  0  0  0  0  0  0  0  0  0
   -3.8130   22.9426  -28.6192 H   0  0  0  0  0  0  0  0  0  0  0  0
   -5.6645   26.0836  -31.4089 H   0  0  0  0  0  0  0  0  0  0  0  0
   -5.9712   23.1695  -30.8043 H   0  0  0  0  0  0  0  0  0  0  0  0
   -6.5983   24.1462  -32.1753 H   0  0  0  0  0  0  0  0  0  0  0  0
   -4.8899   23.5913  -32.1753 H   0  0  0  0  0  0  0  0  0  0  0  0
   -5.1215   25.2120  -28.6683 H   0  0  0  0  0  0  0  0  0  0  0  0
   -6.4653   26.2244  -29.2973 H   0  0  0  0  0  0  0  0  0  0  0  0
   -6.6135   24.4343  -29.2973 H   0  0  0  0  0  0  0  0  0  0  0  0
   -6.1927   21.8755  -32.1247 H   0  0  0  0  0  0  0  0  0  0  0  0
  1  2  1  0
  2  3  2  0
  3  4  1  0
  4  5  2  0
  5  6  1  0
  6  7  2  0
  7  8  1  0
  8  9  1  0
  8 10  2  0
  7 11  1  0
 11 12  1  0
 12 13  2  0
 12 14  1  0
 14 15  1  0
 15 16  2  0
 15 17  1  0
 17 18  2  0
 17 19  1  0
 19 20  1  0
 20 21  1  0
 21 22  2  0
 21 23  1  0
 23 24  1  0
 24 25  1  0
 24 26  1  0
 11 27  1  0
 27 28  2  0
 28  2  1  0
 27  5  1  0
  1 29  1  0
  1 30  1  0
  1 31  1  0
  3 32  1  0
  4 33  1  0
  6 34  1  0
  9 35  1  0
  9 36  1  0
 14 37  1  0
 20 38  1  0
 20 39  1  0
 24 40  1  0
 25 41  1  0
 25 42  1  0
 25 43  1  0
 26 44  1  0
 26 45  1  0
 26 46  1  0
 28 47  1  0
M  CHG  1  23  -1
M  END
>  <UniqueID>  (5) 
5

>  <SMILES>  (5) 
Cc1ccc2cc(C(N)=O)n(C(=O)NC(=O)C(=O)OCC(=O)[N-]C(C)C)c2c1

>  <Energy>  (5) 
75.61865346021045

>  <Genealogy>  (5) 
Cc1ccc2cc(C(N)=O)n(C(=O)NC(=O)C(=O)OCC(=O)[N-]C(C)C)c2c1 (protonated)
Cc1ccc2cc(C(N)=O)n(C(=O)NC(=O)C(=O)OCC(=O)[N-]C(C)C)c2c1 (3D coordinates assigned)
Cc1ccc2cc(C(N)=O)n(C(=O)NC(=O)C(=O)OCC(=O)[N-]C(C)C)c2c1 (optimized conformer: 75.61865346021045 kcal/mol)

>  <smiles>  (5) 
Cc1ccc2cc(C(N)=O)n(C(=O)NC(=O)C(=O)OCC(=O)NC(C)C)c2c1

>  <score_type>  (5) 
oracle

>  <origin>  (5) 
adg

>  <m_score__min__energy>  (5) 
-10.859999999999999

>  <m_primary>  (5) 
energy

$$$$
5:0
     RDKit          3D

 41 43  0  0  0  0  0  0  0  0999 V2000
   -1.8670   22.3090  -30.9860 C   0  0  0  0  0  0  0  0  0  0  0  0
   -3.0670   22.7400  -30.2460 N   0  0  1  0  0  0  0  0  0  0  0  0
   -4.1800   21.8420  -30.4790 C   0  0  0  0  0  0  0  0  0  0  0  0
   -4.0290   20.5920  -30.3980 O   0  0  0  0  0  0  0  0  0  0  0  0
   -5.4820   22.3700  -30.7880 N   0  0  0  0  0  0  0  0  0  0  0  0
   -5.9370   23.6430  -30.6000 C   0  0  0  0  0  0  0  0  0  0  0  0
   -5.1500   24.7880  -30.0920 C   0  0  0  0  0  0  0  0  0  0  0  0
   -4.0760   25.3400  -30.8450 N   0  0  0  0  0  0  0  0  0  0  0  0
   -5.4450   25.3010  -28.9790 O   0  0  0  0  0  0  0  0  0  0  0  0
   -7.2700   23.7460  -30.9920 C   0  0  0  0  0  0  0  0  0  0  0  0
   -7.6240   22.4890  -31.4220 C   0  0  0  0  0  0  0  0  0  0  0  0
   -8.8430   22.0160  -31.8980 C   0  0  0  0  0  0  0  0  0  0  0  0
   -8.9360   20.6550  -32.2340 C   0  0  0  0  0  0  0  0  0  0  0  0
   -7.8200   19.7950  -32.0790 C   0  0  0  0  0  0  0  0  0  0  0  0
   -7.9470   18.3380  -32.4230 C   0  0  0  0  0  0  0  0  0  0  0  0
   -6.8660   17.6450  -31.9090 F   0  0  0  0  0  0  0  0  0  0  0  0
   -9.1150   17.8300  -31.8830 F   0  0  0  0  0  0  0  0  0  0  0  0
   -6.6010   20.3110  -31.5870 C   0  0  0  0  0  0  0  0  0  0  0  0
   -6.5300   21.6750  -31.2830 C   0  0  0  0  0  0  0  0  0  0  0  0
   -2.7960   22.8880  -28.7880 C   0  0  0  0  0  0  0  0  0  0  0  0
   -2.0310   24.1210  -28.2500 C   0  0  0  0  0  0  0  0  0  0  0  0
   -2.3460   25.2610  -28.9960 O   0  0  0  0  0  0  0  0  0  0  0  0
   -3.9370   22.4210  -27.8790 C   0  0  0  0  0  0  0  0  0  0  0  0
   -2.6710   21.5820  -28.0040 C   0  0  0  0  0  0  0  0  0  0  0  0
   -1.0786   22.0258  -30.2731 H   0  0  0  0  0  0  0  0  0  0  0  0
   -2.1171   21.4445  -31.6185 H   0  0  0  0  0  0  0  0  0  0  0  0
   -1.5099   23.1351  -31.6185 H   0  0  0  0  0  0  0  0  0  0  0  0
   -3.3310   23.6700  -30.6450 H   0  0  0  0  0  0  0  0  0  0  0  0
   -3.0910   25.2800  -30.5030 H   0  0  0  0  0  0  0  0  0  0  0  0
   -7.9052   24.6436  -30.9635 H   0  0  0  0  0  0  0  0  0  0  0  0
   -9.7075   22.6872  -32.0079 H   0  0  0  0  0  0  0  0  0  0  0  0
   -9.8839   20.2530  -32.6211 H   0  0  0  0  0  0  0  0  0  0  0  0
   -7.9711   18.2259  -33.5170 H   0  0  0  0  0  0  0  0  0  0  0  0
   -5.7283   19.6564  -31.4461 H   0  0  0  0  0  0  0  0  0  0  0  0
   -2.3094   24.2886  -27.1991 H   0  0  0  0  0  0  0  0  0  0  0  0
   -0.9506   23.9312  -28.3325 H   0  0  0  0  0  0  0  0  0  0  0  0
   -3.3130   25.4310  -28.8480 H   0  0  0  0  0  0  0  0  0  0  0  0
   -4.1501   22.9589  -26.9435 H   0  0  0  0  0  0  0  0  0  0  0  0
   -5.0120   22.2317  -28.0152 H   0  0  0  0  0  0  0  0  0  0  0  0
   -1.9713   21.5140  -27.1580 H   0  0  0  0  0  0  0  0  0  0  0  0
   -2.4557   20.5359  -28.2674 H   0  0  0  0  0  0  0  0  0  0  0  0
  1  2  1  0
  2  3  1  0
  3  4  2  0
  3  5  1  0
  5  6  1  0
  6  7  1  0
  7  8  1  0
  7  9  2  0
  6 10  2  0
 10 11  1  0
 11 12  2  0
 12 13  1  0
 13 14  2  0
 14 15  1  0
 15 16  1  0
 15 17  1  0
 14 18  1  0
 18 19  2  0
  2 20  1  0
 20 21  1  0
 21 22  1  0
 20 23  1  0
 23 24  1  0
 19  5  1  0
 24 20  1  0
 19 11  1  0
  1 25  1  0
  1 26  1  0
  1 27  1  0
  2 28  1  6
  8 29  1  0
 10 30  1  0
 12 31  1  0
 13 32  1  0
 15 33  1  0
 18 34  1  0
 21 35  1  0
 21 36  1  0
 22 37  1  0
 23 38  1  0
 23 39  1  0
 24 40  1  0
 24 41  1  0
M  CHG  2   2   1   8  -1
M  END
>  <UniqueID>  (6) 
6

>  <SMILES>  (6) 
C[N@@H+](C(=O)n1c(C([NH-])=O)cc2ccc(C(F)F)cc21)C1(CO)CC1

>  <Energy>  (6) 
353.18300599708203

>  <Genealogy>  (6) 
C[NH+](C(=O)n1c(C([NH-])=O)cc2ccc(C(F)F)cc21)C1(CO)CC1 (protonated)
C[N@@H+](C(=O)n1c(C([NH-])=O)cc2ccc(C(F)F)cc21)C1(CO)CC1 (chirality)
C[N@@H+](C(=O)n1c(C([NH-])=O)cc2ccc(C(F)F)cc21)C1(CO)CC1 (3D coordinates assigned)
C[N@@H+](C(=O)n1c(C([NH-])=O)cc2ccc(C(F)F)cc21)C1(CO)CC1 (nonaromatic ring conformer: 353.18300599708203 kcal/mol)

>  <smiles>  (6) 
CN(C(=O)n1c(C(N)=O)cc2ccc(C(F)F)cc21)C1(CO)CC1

>  <score_type>  (6) 
oracle

>  <origin>  (6) 
adg

>  <m_score__min__energy>  (6) 
-9.0099999999999998

>  <m_primary>  (6) 
energy

$$$$
6:0
     RDKit          3D

 44 45  0  0  0  0  0  0  0  0999 V2000
   -3.0870   21.5060  -28.3470 C   0  0  0  0  0  0  0  0  0  0  0  0
   -3.4170   22.4400  -29.2510 C   0  0  0  0  0  0  0  0  0  0  0  0
   -3.0630   23.8210  -29.0090 N   0  0  0  0  0  0  0  0  0  0  0  0
   -2.1760   23.9210  -27.8420 C   0  0  0  0  0  0  0  0  0  0  0  0
   -1.4000   25.2120  -27.8780 C   0  0  0  0  0  0  0  0  0  0  0  0
   -1.3690   25.8550  -28.9630 O   0  0  0  0  0  0  0  0  0  0  0  0
   -0.7520   25.7550  -26.7050 N   0  0  0  0  0  0  0  0  0  0  0  0
   -0.6630   24.9830  -25.4610 C   0  0  0  0  0  0  0  0  0  0  0  0
   -0.1600   27.0950  -26.7790 C   0  0  0  0  0  0  0  0  0  0  0  0
   -4.0640   22.0400  -30.5300 C   0  0  0  0  0  0  0  0  0  0  0  0
   -3.4480   21.3150  -31.3580 O   0  0  0  0  0  0  0  0  0  0  0  0
   -5.3930   22.4760  -30.8490 N   0  0  0  0  0  0  0  0  0  0  0  0
   -5.8840   23.7470  -30.8240 C   0  0  0  0  0  0  0  0  0  0  0  0
   -5.1530   24.9490  -30.3680 C   0  0  0  0  0  0  0  0  0  0  0  0
   -3.8870   25.2970  -30.9230 N   0  0  0  0  0  0  0  0  0  0  0  0
   -5.6490   25.6740  -29.4640 O   0  0  0  0  0  0  0  0  0  0  0  0
   -7.2060   23.7640  -31.2670 C   0  0  0  0  0  0  0  0  0  0  0  0
   -7.5060   22.4560  -31.5760 C   0  0  0  0  0  0  0  0  0  0  0  0
   -8.6770   21.8960  -32.0780 C   0  0  0  0  0  0  0  0  0  0  0  0
   -8.6950   20.5110  -32.3170 C   0  0  0  0  0  0  0  0  0  0  0  0
   -7.5510   19.7160  -32.0440 C   0  0  0  0  0  0  0  0  0  0  0  0
   -7.5730   18.2460  -32.3380 C   0  0  0  0  0  0  0  0  0  0  0  0
   -6.3750   20.3230  -31.5550 C   0  0  0  0  0  0  0  0  0  0  0  0
   -6.3920   21.7010  -31.3180 C   0  0  0  0  0  0  0  0  0  0  0  0
   -3.3521   20.4529  -28.5224 H   0  0  0  0  0  0  0  0  0  0  0  0
   -2.5513   21.7930  -27.4301 H   0  0  0  0  0  0  0  0  0  0  0  0
   -2.5800   24.2210  -29.8460 H   0  0  0  0  0  0  0  0  0  0  0  0
   -3.9250   24.3940  -28.8530 H   0  0  0  0  0  0  0  0  0  0  0  0
   -2.7808   23.8877  -26.9238 H   0  0  0  0  0  0  0  0  0  0  0  0
   -1.4677   23.0796  -27.8604 H   0  0  0  0  0  0  0  0  0  0  0  0
   -0.7415   25.6638  -24.6006 H   0  0  0  0  0  0  0  0  0  0  0  0
   -1.4826   24.2503  -25.4248 H   0  0  0  0  0  0  0  0  0  0  0  0
    0.3019   24.4560  -25.4248 H   0  0  0  0  0  0  0  0  0  0  0  0
    0.0091   27.4778  -25.7617 H   0  0  0  0  0  0  0  0  0  0  0  0
    0.7990   27.0431  -27.3154 H   0  0  0  0  0  0  0  0  0  0  0  0
   -0.8441   27.7690  -27.3154 H   0  0  0  0  0  0  0  0  0  0  0  0
   -3.0260   25.2970  -30.3330 H   0  0  0  0  0  0  0  0  0  0  0  0
   -7.8691   24.6376  -31.3517 H   0  0  0  0  0  0  0  0  0  0  0  0
   -9.5611   22.5180  -32.2814 H   0  0  0  0  0  0  0  0  0  0  0  0
   -9.6036   20.0390  -32.7191 H   0  0  0  0  0  0  0  0  0  0  0  0
   -7.5814   17.6831  -31.3929 H   0  0  0  0  0  0  0  0  0  0  0  0
   -8.4749   18.0016  -32.9184 H   0  0  0  0  0  0  0  0  0  0  0  0
   -6.6788   17.9747  -32.9184 H   0  0  0  0  0  0  0  0  0  0  0  0
   -5.4692   19.7283  -31.3653 H   0  0  0  0  0  0  0  0  0  0  0  0
  1  2  2  0
  2  3  1  0
  3  4  1  0
  4  5  1  0
  5  6  2  0
  5  7  1  0
  7  8  1  0
  7  9  1  0
  2 10  1  0
 10 11  2  0
 10 12  1  0
 12 13  1  0
 13 14  1  0
 14 15  1  0
 14 16  2  0
 13 17  2  0
 17 18  1  0
 18 19  2  0
 19 20  1  0
 20 21  2  0
 21 22  1  0
 21 23  1  0
 23 24  2  0
 24 12  1  0
 24 18  1  0
  1 25  1  0
  1 26  1  0
  3 27  1  0
  3 28  1  0
  4 29  1  0
  4 30  1  0
  8 31  1  0
  8 32  1  0
  8 33  1  0
  9 34  1  0
  9 35  1  0
  9 36  1  0
 15 37  1  0
 17 38  1  0
 19 39  1  0
 20 40  1  0
 22 41  1  0
 22 42  1  0
 22 43  1  0
 23 44  1  0
M  CHG  2   3   1  15  -1
M  END
>  <UniqueID>  (7) 
7

>  <SMILES>  (7) 
C=C([NH2+]CC(=O)N(C)C)C(=O)n1c(C([NH-])=O)cc2ccc(C)cc21

>  <Energy>  (7) 
79.39449503339935

>  <Genealogy>  (7) 
C=C([NH2+]CC(=O)N(C)C)C(=O)n1c(C([NH-])=O)cc2ccc(C)cc21 (protonated)
C=C([NH2+]CC(=O)N(C)C)C(=O)n1c(C([NH-])=O)cc2ccc(C)cc21 (3D coordinates assigned)
C=C([NH2+]CC(=O)N(C)C)C(=O)n1c(C([NH-])=O)cc2ccc(C)cc21 (optimized conformer: 79.39449503339935 kcal/mol)

>  <smiles>  (7) 
C=C(NCC(=O)N(C)C)C(=O)n1c(C(N)=O)cc2ccc(C)cc21

>  <score_type>  (7) 
oracle

>  <origin>  (7) 
adg

>  <m_score__min__energy>  (7) 
-9.8800000000000008

>  <m_primary>  (7) 
energy

$$$$
7:0
     RDKit          3D

 40 41  0  0  0  0  0  0  0  0999 V2000
   -4.1750   24.4860  -26.9480 C   0  0  0  0  0  0  0  0  0  0  0  0
   -2.6540   24.3970  -27.0190 C   0  0  0  0  0  0  0  0  0  0  0  0
   -2.2540   23.3290  -27.8740 O   0  0  0  0  0  0  0  0  0  0  0  0
   -1.4160   23.4980  -28.9820 C   0  0  0  0  0  0  0  0  0  0  0  0
   -1.1720   24.6490  -29.4380 O   0  0  0  0  0  0  0  0  0  0  0  0
   -0.7630   22.3030  -29.5940 C   0  0  0  0  0  0  0  0  0  0  0  0
   -1.7810   21.4880  -30.3210 C   0  0  0  0  0  0  0  0  0  0  0  0
   -1.4160   20.4670  -30.9670 O   0  0  0  0  0  0  0  0  0  0  0  0
   -3.1190   21.9030  -30.3080 O   0  0  0  0  0  0  0  0  0  0  0  0
   -3.8780   22.2180  -31.4440 C   0  0  0  0  0  0  0  0  0  0  0  0
   -3.3600   22.1870  -32.5940 O   0  0  0  0  0  0  0  0  0  0  0  0
   -5.2600   22.5820  -31.2880 N   0  0  0  0  0  0  0  0  0  0  0  0
   -5.7570   23.8120  -30.9770 C   0  0  0  0  0  0  0  0  0  0  0  0
   -4.9640   24.9860  -30.5600 C   0  0  0  0  0  0  0  0  0  0  0  0
   -3.6680   24.8330  -29.9780 N   0  0  0  0  0  0  0  0  0  0  0  0
   -5.4600   26.1390  -30.6670 O   0  0  0  0  0  0  0  0  0  0  0  0
   -7.1470   23.8190  -31.0610 C   0  0  0  0  0  0  0  0  0  0  0  0
   -7.4950   22.5370  -31.4210 C   0  0  0  0  0  0  0  0  0  0  0  0
   -8.7500   21.9910  -31.6720 C   0  0  0  0  0  0  0  0  0  0  0  0
   -8.8130   20.6470  -32.0810 C   0  0  0  0  0  0  0  0  0  0  0  0
   -7.6310   19.8810  -32.2270 C   0  0  0  0  0  0  0  0  0  0  0  0
   -7.7150   18.4680  -32.7230 C   0  0  0  0  0  0  0  0  0  0  0  0
   -6.3730   20.4740  -31.9800 C   0  0  0  0  0  0  0  0  0  0  0  0
   -6.3390   21.8080  -31.5550 C   0  0  0  0  0  0  0  0  0  0  0  0
   -4.4924   24.5046  -25.8950 H   0  0  0  0  0  0  0  0  0  0  0  0
   -4.5123   25.4054  -27.4489 H   0  0  0  0  0  0  0  0  0  0  0  0
   -4.6172   23.6122  -27.4489 H   0  0  0  0  0  0  0  0  0  0  0  0
   -2.2543   25.3436  -27.4116 H   0  0  0  0  0  0  0  0  0  0  0  0
   -2.2619   24.2087  -26.0086 H   0  0  0  0  0  0  0  0  0  0  0  0
    0.0133   22.6325  -30.3002 H   0  0  0  0  0  0  0  0  0  0  0  0
   -0.3070   21.6920  -28.8011 H   0  0  0  0  0  0  0  0  0  0  0  0
   -3.1000   25.6760  -29.7360 H   0  0  0  0  0  0  0  0  0  0  0  0
   -3.3030   23.8910  -29.7150 H   0  0  0  0  0  0  0  0  0  0  0  0
   -7.8225   24.6678  -30.8786 H   0  0  0  0  0  0  0  0  0  0  0  0
   -9.6640   22.5917  -31.5542 H   0  0  0  0  0  0  0  0  0  0  0  0
   -9.7899   20.1863  -32.2895 H   0  0  0  0  0  0  0  0  0  0  0  0
   -7.7559   17.7802  -31.8655 H   0  0  0  0  0  0  0  0  0  0  0  0
   -8.6219   18.3470  -33.3336 H   0  0  0  0  0  0  0  0  0  0  0  0
   -6.8288   18.2404  -33.3336 H   0  0  0  0  0  0  0  0  0  0  0  0
   -5.4434   19.9024  -32.1180 H   0  0  0  0  0  0  0  0  0  0  0  0
  1  2  1  0
  2  3  1  0
  3  4  1  0
  4  5  2  0
  4  6  1  0
  6  7  1  0
  7  8  2  0
  7  9  1  0
  9 10  1  0
 10 11  2  0
 10 12  1  0
 12 13  1  0
 13 14  1  0
 14 15  1  0
 14 16  2  0
 13 17  2  0
 17 18  1  0
 18 19  2  0
 19 20  1  0
 20 21  2  0
 21 22  1  0
 21 23  1  0
 23 24  2  0
 24 12  1  0
 24 18  1  0
  1 25  1  0
  1 26  1  0
  1 27  1  0
  2 28  1  0
  2 29  1  0
  6 30  1  0
  6 31  1  0
 15 32  1  0
 15 33  1  0
 17 34  1  0
 19 35  1  0
 20 36  1  0
 22 37  1  0
 22 38  1  0
 22 39  1  0
 23 40  1  0
M  END
>  <UniqueID>  (8) 
8

>  <SMILES>  (8) 
CCOC(=O)CC(=O)OC(=O)n1c(C(N)=O)cc2ccc(C)cc21

>  <Energy>  (8) 
72.60696462275943

>  <Genealogy>  (8) 
CCOC(=O)CC(=O)OC(=O)n1c(C(N)=O)cc2ccc(C)cc21 (3D coordinates assigned)
CCOC(=O)CC(=O)OC(=O)n1c(C(N)=O)cc2ccc(C)cc21 (optimized conformer: 72.60696462275943 kcal/mol)

>  <smiles>  (8) 
CCOC(=O)CC(=O)OC(=O)n1c(C(N)=O)cc2ccc(C)cc21

>  <score_type>  (8) 
oracle

>  <origin>  (8) 
adg

>  <m_score__min__energy>  (8) 
-8.6699999999999999

>  <m_primary>  (8) 
energy

$$$$
8:0
     RDKit          3D

 61 62  0  0  0  0  0  0  0  0999 V2000
   -2.7350   25.2200  -26.4430 C   0  0  0  0  0  0  0  0  0  0  0  0
   -1.5090   25.6980  -26.6820 C   0  0  0  0  0  0  0  0  0  0  0  0
   -0.7300   26.3060  -25.5470 C   0  0  0  0  0  0  0  0  0  0  0  0
   -0.9060   25.5700  -28.0290 C   0  0  0  0  0  0  0  0  0  0  0  0
   -1.2490   26.3580  -28.9530 O   0  0  0  0  0  0  0  0  0  0  0  0
    0.0360   24.5660  -28.2790 O   0  0  0  0  0  0  0  0  0  0  0  0
   -0.3160   23.2400  -28.6690 C   0  0  0  0  0  0  0  0  0  0  0  0
   -1.8420   23.0920  -28.8230 C   0  0  0  0  0  0  0  0  0  0  0  0
   -2.2520   22.6050  -30.1660 N   0  0  1  0  0  0  0  0  0  0  0  0
   -1.1670   21.9630  -30.9540 C   0  0  0  0  0  0  0  0  0  0  0  0
   -1.5900   21.4850  -32.3300 C   0  0  0  0  0  0  0  0  0  0  0  0
   -2.6480   21.9330  -32.8500 O   0  0  0  0  0  0  0  0  0  0  0  0
   -0.8170   20.5110  -33.0470 N   0  0  0  0  0  0  0  0  0  0  0  0
   -0.6840   19.1610  -32.4970 C   0  0  0  0  0  0  0  0  0  0  0  0
   -0.6270   20.6870  -34.4860 C   0  0  0  0  0  0  0  0  0  0  0  0
   -3.4010   21.7270  -30.0690 C   0  0  0  0  0  0  0  0  0  0  0  0
   -3.2920   20.5820  -29.5510 O   0  0  0  0  0  0  0  0  0  0  0  0
   -4.6760   22.1390  -30.5960 N   0  0  0  0  0  0  0  0  0  0  0  0
   -5.2710   23.3600  -30.4770 C   0  0  0  0  0  0  0  0  0  0  0  0
   -4.6870   24.5490  -29.8250 C   0  0  0  0  0  0  0  0  0  0  0  0
   -3.6550   25.2820  -30.4780 N   0  0  0  0  0  0  0  0  0  0  0  0
   -5.0850   24.9230  -28.6920 O   0  0  0  0  0  0  0  0  0  0  0  0
   -6.5260   23.3530  -31.0820 C   0  0  0  0  0  0  0  0  0  0  0  0
   -6.6710   22.0880  -31.6000 C   0  0  0  0  0  0  0  0  0  0  0  0
   -7.7080   21.5480  -32.3490 C   0  0  0  0  0  0  0  0  0  0  0  0
   -7.5640   20.2360  -32.8240 C   0  0  0  0  0  0  0  0  0  0  0  0
   -6.3900   19.4810  -32.5510 C   0  0  0  0  0  0  0  0  0  0  0  0
   -6.2270   18.1480  -33.1010 N   0  0  0  0  0  0  0  0  0  0  0  0
   -6.0840   17.9530  -34.5460 C   0  0  0  0  0  0  0  0  0  0  0  0
   -6.1930   16.9760  -32.2170 C   0  0  0  0  0  0  0  0  0  0  0  0
   -5.3670   20.0670  -31.7580 C   0  0  0  0  0  0  0  0  0  0  0  0
   -5.5430   21.3750  -31.2960 C   0  0  0  0  0  0  0  0  0  0  0  0
   -3.3196   24.7720  -27.2600 H   0  0  0  0  0  0  0  0  0  0  0  0
   -3.1588   25.2749  -25.4294 H   0  0  0  0  0  0  0  0  0  0  0  0
   -1.1568   25.9729  -24.5895 H   0  0  0  0  0  0  0  0  0  0  0  0
    0.3207   25.9867  -25.6110 H   0  0  0  0  0  0  0  0  0  0  0  0
   -0.7845   27.4028  -25.6110 H   0  0  0  0  0  0  0  0  0  0  0  0
    0.1659   23.0087  -29.6304 H   0  0  0  0  0  0  0  0  0  0  0  0
    0.0247   22.5447  -27.8877 H   0  0  0  0  0  0  0  0  0  0  0  0
   -2.2017   22.3778  -28.0677 H   0  0  0  0  0  0  0  0  0  0  0  0
   -2.2817   24.0915  -28.6902 H   0  0  0  0  0  0  0  0  0  0  0  0
   -2.5640   23.4420  -30.7150 H   0  0  0  0  0  0  0  0  0  0  0  0
   -0.3540   22.6934  -31.0785 H   0  0  0  0  0  0  0  0  0  0  0  0
   -0.8583   21.0689  -30.3925 H   0  0  0  0  0  0  0  0  0  0  0  0
   -0.6889   19.2106  -31.3981 H   0  0  0  0  0  0  0  0  0  0  0  0
   -1.5254   18.5409  -32.8398 H   0  0  0  0  0  0  0  0  0  0  0  0
    0.2622   18.7170  -32.8398 H   0  0  0  0  0  0  0  0  0  0  0  0
    0.1694   21.4248  -34.6632 H   0  0  0  0  0  0  0  0  0  0  0  0
   -0.3434   19.7254  -34.9387 H   0  0  0  0  0  0  0  0  0  0  0  0
   -1.5641   21.0432  -34.9387 H   0  0  0  0  0  0  0  0  0  0  0  0
   -2.6860   25.3050  -30.0890 H   0  0  0  0  0  0  0  0  0  0  0  0
   -7.2467   24.1824  -31.1340 H   0  0  0  0  0  0  0  0  0  0  0  0
   -8.6154   22.1316  -32.5635 H   0  0  0  0  0  0  0  0  0  0  0  0
   -8.3723   19.7837  -33.4173 H   0  0  0  0  0  0  0  0  0  0  0  0
   -5.4433   17.0793  -34.7365 H   0  0  0  0  0  0  0  0  0  0  0  0
   -7.0749   17.7855  -34.9932 H   0  0  0  0  0  0  0  0  0  0  0  0
   -5.6264   18.8477  -34.9932 H   0  0  0  0  0  0  0  0  0  0  0  0
   -6.2026   17.3074  -31.1682 H   0  0  0  0  0  0  0  0  0  0  0  0
   -7.0732   16.3453  -32.4103 H   0  0  0  0  0  0  0  0  0  0  0  0
   -5.2777   16.3973  -32.4103 H   0  0  0  0  0  0  0  0  0  0  0  0
   -4.4550   19.5031  -31.5125 H   0  0  0  0  0  0  0  0  0  0  0  0
  1  2  2  0
  2  3  1  0
  2  4  1  0
  4  5  2  0
  4  6  1  0
  6  7  1  0
  7  8  1  0
  8  9  1  0
  9 10  1  0
 10 11  1  0
 11 12  2  0
 11 13  1  0
 13 14  1  0
 13 15  1  0
  9 16  1  0
 16 17  2  0
 16 18  1  0
 18 19  1  0
 19 20  1  0
 20 21  1  0
 20 22  2  0
 19 23  2  0
 23 24  1  0
 24 25  2  0
 25 26  1  0
 26 27  2  0
 27 28  1  0
 28 29  1  0
 28 30  1  0
 27 31  1  0
 31 32  2  0
 32 18  1  0
 32 24  1  0
  1 33  1  0
  1 34  1  0
  3 35  1  0
  3 36  1  0
  3 37  1  0
  7 38  1  0
  7 39  1  0
  8 40  1  0
  8 41  1  0
  9 42  1  6
 10 43  1  0
 10 44  1  0
 14 45  1  0
 14 46  1  0
 14 47  1  0
 15 48  1  0
 15 49  1  0
 15 50  1  0
 21 51  1  0
 23 52  1  0
 25 53  1  0
 26 54  1  0
 29 55  1  0
 29 56  1  0
 29 57  1  0
 30 58  1  0
 30 59  1  0
 30 60  1  0
 31 61  1  0
M  CHG  2   9   1  21  -1
M  END
>  <UniqueID>  (9) 
9

>  <SMILES>  (9) 
C=C(C)C(=O)OCC[N@@H+](CC(=O)N(C)C)C(=O)n1c(C([NH-])=O)cc2ccc(N(C)C)cc21

>  <Energy>  (9) 
103.50281657119262

>  <Genealogy>  (9) 
C=C(C)C(=O)OCC[NH+](CC(=O)N(C)C)C(=O)n1c(C([NH-])=O)cc2ccc(N(C)C)cc21 (protonated)
C=C(C)C(=O)OCC[N@@H+](CC(=O)N(C)C)C(=O)n1c(C([NH-])=O)cc2ccc(N(C)C)cc21 (chirality)
C=C(C)C(=O)OCC[N@@H+](CC(=O)N(C)C)C(=O)n1c(C([NH-])=O)cc2ccc(N(C)C)cc21 (3D coordinates assigned)
C=C(C)C(=O)OCC[N@@H+](CC(=O)N(C)C)C(=O)n1c(C([NH-])=O)cc2ccc(N(C)C)cc21 (optimized conformer: 103.50281657119262 kcal/mol)

>  <smiles>  (9) 
C=C(C)C(=O)OCCN(CC(=O)N(C)C)C(=O)n1c(C(N)=O)cc2ccc(N(C)C)cc21

>  <score_type>  (9) 
oracle

>  <origin>  (9) 
adg

>  <m_score__min__energy>  (9) 
-10.09

>  <m_primary>  (9) 
energy

$$$$
9:0
     RDKit          3D

 52 54  0  0  0  0  0  0  0  0999 V2000
   -4.0180   24.3980  -27.1390 C   0  0  0  0  0  0  0  0  0  0  0  0
   -2.5100   24.4660  -27.4250 C   0  0  0  0  0  0  0  0  0  0  0  0
   -1.9040   25.6320  -26.6230 C   0  0  0  0  0  0  0  0  0  0  0  0
   -1.8650   23.1290  -27.0110 C   0  0  0  0  0  0  0  0  0  0  0  0
   -2.3560   24.6870  -28.8350 O   0  0  0  0  0  0  0  0  0  0  0  0
   -1.9310   23.7440  -29.7820 C   0  0  0  0  0  0  0  0  0  0  0  0
   -0.7350   23.3440  -29.8080 O   0  0  0  0  0  0  0  0  0  0  0  0
   -2.8680   23.2570  -30.7000 O   0  0  0  0  0  0  0  0  0  0  0  0
   -3.8110   22.2530  -30.4390 C   0  0  0  0  0  0  0  0  0  0  0  0
   -3.4650   21.1700  -29.8930 O   0  0  0  0  0  0  0  0  0  0  0  0
   -5.1860   22.4640  -30.8020 N   0  0  0  0  0  0  0  0  0  0  0  0
   -5.8810   23.6340  -30.7500 C   0  0  0  0  0  0  0  0  0  0  0  0
   -5.4100   24.8930  -30.1390 C   0  0  0  0  0  0  0  0  0  0  0  0
   -4.1630   25.4780  -30.5170 N   0  0  0  0  0  0  0  0  0  0  0  0
   -6.0930   25.4320  -29.2270 O   0  0  0  0  0  0  0  0  0  0  0  0
   -7.1430   23.4840  -31.3160 C   0  0  0  0  0  0  0  0  0  0  0  0
   -7.2090   22.1680  -31.7110 C   0  0  0  0  0  0  0  0  0  0  0  0
   -8.2350   21.4770  -32.3480 C   0  0  0  0  0  0  0  0  0  0  0  0
   -8.0170   20.1300  -32.6760 C   0  0  0  0  0  0  0  0  0  0  0  0
   -6.7810   19.5010  -32.3800 C   0  0  0  0  0  0  0  0  0  0  0  0
   -6.5690   18.1190  -32.7260 N   0  0  0  0  0  0  0  0  0  0  0  0
   -6.5230   17.0790  -31.6930 C   0  0  0  0  0  0  0  0  0  0  0  0
   -5.2730   16.1930  -31.8660 C   0  0  0  0  0  0  0  0  0  0  0  0
   -4.7760   16.1250  -33.2550 N   0  0  0  0  0  0  0  0  0  0  0  0
   -5.8450   16.3120  -34.2460 C   0  0  0  0  0  0  0  0  0  0  0  0
   -6.4380   17.7230  -34.1340 C   0  0  0  0  0  0  0  0  0  0  0  0
   -5.7650   20.2360  -31.7270 C   0  0  0  0  0  0  0  0  0  0  0  0
   -6.0150   21.5730  -31.3920 C   0  0  0  0  0  0  0  0  0  0  0  0
   -4.1850   24.3905  -26.0518 H   0  0  0  0  0  0  0  0  0  0  0  0
   -4.5148   25.2747  -27.5802 H   0  0  0  0  0  0  0  0  0  0  0  0
   -4.4339   23.4802  -27.5802 H   0  0  0  0  0  0  0  0  0  0  0  0
   -2.0088   25.4303  -25.5467 H   0  0  0  0  0  0  0  0  0  0  0  0
   -0.8381   25.7352  -26.8746 H   0  0  0  0  0  0  0  0  0  0  0  0
   -2.4320   26.5636  -26.8746 H   0  0  0  0  0  0  0  0  0  0  0  0
   -1.8326   23.0618  -25.9135 H   0  0  0  0  0  0  0  0  0  0  0  0
   -2.4599   22.2952  -27.4120 H   0  0  0  0  0  0  0  0  0  0  0  0
   -0.8421   23.0757  -27.4120 H   0  0  0  0  0  0  0  0  0  0  0  0
   -3.8680   26.3940  -30.1090 H   0  0  0  0  0  0  0  0  0  0  0  0
   -3.4980   24.9730  -31.1420 H   0  0  0  0  0  0  0  0  0  0  0  0
   -7.9217   24.2534  -31.4245 H   0  0  0  0  0  0  0  0  0  0  0  0
   -9.1880   21.9715  -32.5872 H   0  0  0  0  0  0  0  0  0  0  0  0
   -8.8148   19.5550  -33.1688 H   0  0  0  0  0  0  0  0  0  0  0  0
   -6.4933   17.5556  -30.7020 H   0  0  0  0  0  0  0  0  0  0  0  0
   -7.4191   16.4480  -31.7867 H   0  0  0  0  0  0  0  0  0  0  0  0
   -4.4712   16.5972  -31.2305 H   0  0  0  0  0  0  0  0  0  0  0  0
   -5.5635   15.1713  -31.5802 H   0  0  0  0  0  0  0  0  0  0  0  0
   -4.0600   16.8750  -33.3960 H   0  0  0  0  0  0  0  0  0  0  0  0
   -5.4317   16.1717  -35.2557 H   0  0  0  0  0  0  0  0  0  0  0  0
   -6.6395   15.5752  -34.0569 H   0  0  0  0  0  0  0  0  0  0  0  0
   -5.7767   18.4349  -34.6496 H   0  0  0  0  0  0  0  0  0  0  0  0
   -7.4357   17.7259  -34.5972 H   0  0  0  0  0  0  0  0  0  0  0  0
   -4.7989   19.7680  -31.4871 H   0  0  0  0  0  0  0  0  0  0  0  0
  1  2  1  0
  2  3  1  0
  2  4  1  0
  2  5  1  0
  5  6  1  0
  6  7  2  0
  6  8  1  0
  8  9  1  0
  9 10  2  0
  9 11  1  0
 11 12  1  0
 12 13  1  0
 13 14  1  0
 13 15  2  0
 12 16  2  0
 16 17  1  0
 17 18  2  0
 18 19  1  0
 19 20  2  0
 20 21  1  0
 21 22  1  0
 22 23  1  0
 23 24  1  0
 24 25  1  0
 25 26  1  0
 20 27  1  0
 27 28  2  0
 28 11  1  0
 28 17  1  0
 26 21  1  0
  1 29  1  0
  1 30  1  0
  1 31  1  0
  3 32  1  0
  3 33  1  0
  3 34  1  0
  4 35  1  0
  4 36  1  0
  4 37  1  0
 14 38  1  0
 14 39  1  0
 16 40  1  0
 18 41  1  0
 19 42  1  0
 22 43  1  0
 22 44  1  0
 23 45  1  0
 23 46  1  0
 24 47  1  0
 25 48  1  0
 25 49  1  0
 26 50  1  0
 26 51  1  0
 27 52  1  0
M  END
>  <UniqueID>  (10) 
10

>  <SMILES>  (10) 
CC(C)(C)OC(=O)OC(=O)n1c(C(N)=O)cc2ccc(N3CCNCC3)cc21

>  <Energy>  (10) 
97.18393809200275

>  <Genealogy>  (10) 
CC(C)(C)OC(=O)OC(=O)n1c(C(N)=O)cc2ccc(N3CCNCC3)cc21 (3D coordinates assigned)
CC(C)(C)OC(=O)OC(=O)n1c(C(N)=O)cc2ccc(N3CCNCC3)cc21 (nonaromatic ring conformer: 97.18393809200275 kcal/mol)

>  <smiles>  (10) 
CC(C)(C)OC(=O)OC(=O)n1c(C(N)=O)cc2ccc(N3CCNCC3)cc21

>  <score_type>  (10) 
oracle

>  <origin>  (10) 
adg

>  <m_score__min__energy>  (10) 
-9.9600000000000009

>  <m_primary>  (10) 
energy

$$$$
10:0
     RDKit          3D

 38 39  0  0  0  0  0  0  0  0999 V2000
   -5.2380   24.2690  -29.0390 N   0  0  0  0  0  0  0  0  0  0  0  0
   -6.3780   24.2490  -29.8980 C   0  0  0  0  0  0  0  0  0  0  0  0
   -7.1510   25.2430  -29.9210 O   0  0  0  0  0  0  0  0  0  0  0  0
   -6.7020   23.0600  -30.7110 C   0  0  0  0  0  0  0  0  0  0  0  0
   -8.0010   22.6900  -31.0450 C   0  0  0  0  0  0  0  0  0  0  0  0
   -7.8750   21.5080  -31.7380 C   0  0  0  0  0  0  0  0  0  0  0  0
   -8.8500   20.7060  -32.3200 C   0  0  0  0  0  0  0  0  0  0  0  0
   -8.4340   19.5560  -33.0110 C   0  0  0  0  0  0  0  0  0  0  0  0
   -7.0530   19.2300  -33.1140 C   0  0  0  0  0  0  0  0  0  0  0  0
   -6.5970   18.0680  -33.8340 N   0  0  0  0  0  0  0  0  0  0  0  0
   -5.8310   16.9670  -33.2450 C   0  0  0  0  0  0  0  0  0  0  0  0
   -4.7510   16.4750  -34.2070 C   0  0  0  0  0  0  0  0  0  0  0  0
   -4.8270   17.1860  -35.4110 O   0  0  0  0  0  0  0  0  0  0  0  0
   -6.0950   20.0790  -32.5150 C   0  0  0  0  0  0  0  0  0  0  0  0
   -6.5400   21.2060  -31.8140 C   0  0  0  0  0  0  0  0  0  0  0  0
   -5.8050   22.1530  -31.1890 N   0  0  0  0  0  0  0  0  0  0  0  0
   -4.3700   22.2370  -31.1480 C   0  0  0  0  0  0  0  0  0  0  0  0
   -3.7160   22.3180  -32.2240 O   0  0  0  0  0  0  0  0  0  0  0  0
   -3.7070   22.2210  -29.9170 O   0  0  0  0  0  0  0  0  0  0  0  0
   -2.3970   22.7470  -29.7190 C   0  0  0  0  0  0  0  0  0  0  0  0
   -2.4780   24.5130  -29.2910 P   0  0  0  0  0  0  0  0  0  0  0  0
   -3.0410   24.6850  -27.9000 O   0  0  0  0  0  0  0  0  0  0  0  0
   -3.4760   25.3100  -30.4000 O   0  0  0  0  0  0  0  0  0  0  0  0
   -0.9250   25.1790  -29.3560 O   0  0  0  0  0  0  0  0  0  0  0  0
   -4.6820   23.4030  -28.8620 H   0  0  0  0  0  0  0  0  0  0  0  0
   -4.9980   25.1330  -28.5050 H   0  0  0  0  0  0  0  0  0  0  0  0
   -8.9304   23.2277  -30.8060 H   0  0  0  0  0  0  0  0  0  0  0  0
   -9.9163   20.9645  -32.2417 H   0  0  0  0  0  0  0  0  0  0  0  0
   -9.1841   18.9004  -33.4775 H   0  0  0  0  0  0  0  0  0  0  0  0
   -6.8260   17.9930  -34.8510 H   0  0  0  0  0  0  0  0  0  0  0  0
   -5.3543   17.3164  -32.3173 H   0  0  0  0  0  0  0  0  0  0  0  0
   -6.5188   16.1346  -33.0351 H   0  0  0  0  0  0  0  0  0  0  0  0
   -3.7607   16.6295  -33.7538 H   0  0  0  0  0  0  0  0  0  0  0  0
   -4.9045   15.4044  -34.4077 H   0  0  0  0  0  0  0  0  0  0  0  0
   -4.0120   16.9470  -35.9240 H   0  0  0  0  0  0  0  0  0  0  0  0
   -5.0205   19.8585  -32.5980 H   0  0  0  0  0  0  0  0  0  0  0  0
   -1.9064   22.1985  -28.9015 H   0  0  0  0  0  0  0  0  0  0  0  0
   -1.8230   22.6325  -30.6503 H   0  0  0  0  0  0  0  0  0  0  0  0
  1  2  1  0
  2  3  2  0
  2  4  1  0
  4  5  2  0
  5  6  1  0
  6  7  2  0
  7  8  1  0
  8  9  2  0
  9 10  1  0
 10 11  1  0
 11 12  1  0
 12 13  1  0
  9 14  1  0
 14 15  2  0
 15 16  1  0
 16 17  1  0
 17 18  2  0
 17 19  1  0
 19 20  1  0
 20 21  1  0
 21 22  2  0
 21 23  1  0
 21 24  1  0
 16  4  1  0
 15  6  1  0
  1 25  1  0
  1 26  1  0
  5 27  1  0
  7 28  1  0
  8 29  1  0
 10 30  1  0
 11 31  1  0
 11 32  1  0
 12 33  1  0
 12 34  1  0
 13 35  1  0
 14 36  1  0
 20 37  1  0
 20 38  1  0
M  CHG  2  23  -1  24  -1
M  END
>  <UniqueID>  (11) 
11

>  <SMILES>  (11) 
NC(=O)c1cc2ccc(NCCO)cc2n1C(=O)OCP(=O)([O-])[O-]

>  <Energy>  (11) 
69.62053188437764

>  <Genealogy>  (11) 
NC(=O)c1cc2ccc(NCCO)cc2n1C(=O)OCP(=O)([O-])[O-] (protonated)
NC(=O)c1cc2ccc(NCCO)cc2n1C(=O)OCP(=O)([O-])[O-] (3D coordinates assigned)
NC(=O)c1cc2ccc(NCCO)cc2n1C(=O)OCP(=O)([O-])[O-] (optimized conformer: 69.62053188437764 kcal/mol)

>  <smiles>  (11) 
NC(=O)c1cc2ccc(NCCO)cc2n1C(=O)OCP(=O)(O)O

>  <score_type>  (11) 
oracle

>  <origin>  (11) 
adg

>  <m_score__min__energy>  (11) 
-11.630000000000001

>  <m_primary>  (11) 
energy

$$$$
11:0
     RDKit          3D

 40 42  0  0  0  0  0  0  0  0999 V2000
   -6.8940   18.2130  -32.5980 C   0  0  0  0  0  0  0  0  0  0  0  0
   -7.1280   19.6260  -32.1520 C   0  0  0  0  0  0  0  0  0  0  0  0
   -8.4490   20.0680  -31.8930 C   0  0  0  0  0  0  0  0  0  0  0  0
   -8.6920   21.3790  -31.4480 C   0  0  0  0  0  0  0  0  0  0  0  0
   -7.5970   22.2210  -31.2730 C   0  0  0  0  0  0  0  0  0  0  0  0
   -7.5360   23.5160  -30.8050 C   0  0  0  0  0  0  0  0  0  0  0  0
   -6.1780   23.8390  -30.7880 C   0  0  0  0  0  0  0  0  0  0  0  0
   -5.6270   25.1540  -30.3860 C   0  0  0  0  0  0  0  0  0  0  0  0
   -4.2710   25.5020  -30.6720 N   0  0  0  0  0  0  0  0  0  0  0  0
   -6.3530   25.9770  -29.7680 O   0  0  0  0  0  0  0  0  0  0  0  0
   -5.4370   22.7880  -31.2340 N   0  0  0  0  0  0  0  0  0  0  0  0
   -4.0100   22.6650  -31.2510 C   0  0  0  0  0  0  0  0  0  0  0  0
   -3.3800   22.8330  -32.3280 O   0  0  0  0  0  0  0  0  0  0  0  0
   -3.2830   22.2000  -30.0260 C   0  0  0  0  0  0  0  0  0  0  0  0
   -2.0590   23.0370  -29.8320 C   0  0  0  0  0  0  0  0  0  0  0  0
   -0.9170   22.5110  -29.9210 O   0  0  0  0  0  0  0  0  0  0  0  0
   -2.2050   24.4320  -29.5380 N   0  0  0  0  0  0  0  0  0  0  0  0
   -2.0080   25.0630  -28.2660 C   0  0  0  0  0  0  0  0  0  0  0  0
   -0.9410   25.9460  -28.0180 C   0  0  0  0  0  0  0  0  0  0  0  0
   -0.7590   26.4780  -26.7420 C   0  0  0  0  0  0  0  0  0  0  0  0
   -1.6370   26.1180  -25.7180 C   0  0  0  0  0  0  0  0  0  0  0  0
   -2.6530   25.2500  -25.9670 N   0  0  0  0  0  0  0  0  0  0  0  0
   -2.8500   24.7180  -27.2030 C   0  0  0  0  0  0  0  0  0  0  0  0
   -6.3160   21.8080  -31.5280 C   0  0  0  0  0  0  0  0  0  0  0  0
   -6.0430   20.5100  -31.9690 C   0  0  0  0  0  0  0  0  0  0  0  0
   -6.7864   17.5634  -31.7168 H   0  0  0  0  0  0  0  0  0  0  0  0
   -7.7481   17.8730  -33.2021 H   0  0  0  0  0  0  0  0  0  0  0  0
   -5.9759   18.1665  -33.2021 H   0  0  0  0  0  0  0  0  0  0  0  0
   -9.2929   19.3783  -32.0417 H   0  0  0  0  0  0  0  0  0  0  0  0
   -9.7149   21.7287  -31.2445 H   0  0  0  0  0  0  0  0  0  0  0  0
   -8.3782   24.1583  -30.5081 H   0  0  0  0  0  0  0  0  0  0  0  0
   -3.8930   26.4240  -30.3600 H   0  0  0  0  0  0  0  0  0  0  0  0
   -3.6450   24.8710  -31.2170 H   0  0  0  0  0  0  0  0  0  0  0  0
   -3.9393   22.2995  -29.1489 H   0  0  0  0  0  0  0  0  0  0  0  0
   -2.9939   21.1455  -30.1463 H   0  0  0  0  0  0  0  0  0  0  0  0
   -0.2506   26.2166  -28.8305 H   0  0  0  0  0  0  0  0  0  0  0  0
    0.0687   27.1749  -26.5440 H   0  0  0  0  0  0  0  0  0  0  0  0
   -1.5066   26.5369  -24.7093 H   0  0  0  0  0  0  0  0  0  0  0  0
   -3.6769   24.0117  -27.3682 H   0  0  0  0  0  0  0  0  0  0  0  0
   -5.0107   20.1863  -32.1680 H   0  0  0  0  0  0  0  0  0  0  0  0
  1  2  1  0
  2  3  2  0
  3  4  1  0
  4  5  2  0
  5  6  1  0
  6  7  2  0
  7  8  1  0
  8  9  1  0
  8 10  2  0
  7 11  1  0
 11 12  1  0
 12 13  2  0
 12 14  1  0
 14 15  1  0
 15 16  2  0
 15 17  1  0
 17 18  1  0
 18 19  2  0
 19 20  1  0
 20 21  2  0
 21 22  1  0
 22 23  2  0
 11 24  1  0
 24 25  2  0
 25  2  1  0
 24  5  1  0
 23 18  1  0
  1 26  1  0
  1 27  1  0
  1 28  1  0
  3 29  1  0
  4 30  1  0
  6 31  1  0
  9 32  1  0
  9 33  1  0
 14 34  1  0
 14 35  1  0
 19 36  1  0
 20 37  1  0
 21 38  1  0
 23 39  1  0
 25 40  1  0
M  CHG  1  17  -1
M  END
>  <UniqueID>  (12) 
12

>  <SMILES>  (12) 
Cc1ccc2cc(C(N)=O)n(C(=O)CC(=O)[N-]c3cccnc3)c2c1

>  <Energy>  (12) 
80.36149008883058

>  <Genealogy>  (12) 
Cc1ccc2cc(C(N)=O)n(C(=O)CC(=O)[N-]c3cccnc3)c2c1 (protonated)
Cc1ccc2cc(C(N)=O)n(C(=O)CC(=O)[N-]c3cccnc3)c2c1 (3D coordinates assigned)
Cc1ccc2cc(C(N)=O)n(C(=O)CC(=O)[N-]c3cccnc3)c2c1 (optimized conformer: 80.36149008883058 kcal/mol)

>  <smiles>  (12) 
Cc1ccc2cc(C(N)=O)n(C(=O)CC(=O)Nc3cccnc3)c2c1

>  <score_type>  (12) 
oracle

>  <origin>  (12) 
adg

>  <m_score__min__energy>  (12) 
-10.380000000000001

>  <m_primary>  (12) 
energy

$$$$
12:0
     RDKit          3D

 45 46  0  0  0  0  0  0  0  0999 V2000
   -6.0890   18.3140  -33.9310 C   0  0  0  0  0  0  0  0  0  0  0  0
   -7.2280   18.4350  -32.9250 C   0  0  0  0  0  0  0  0  0  0  0  0
   -7.3420   19.8450  -32.4150 C   0  0  0  0  0  0  0  0  0  0  0  0
   -8.6010   20.4950  -32.3950 C   0  0  0  0  0  0  0  0  0  0  0  0
   -8.7130   21.8270  -31.9640 C   0  0  0  0  0  0  0  0  0  0  0  0
   -7.5530   22.4820  -31.5610 C   0  0  0  0  0  0  0  0  0  0  0  0
   -7.3720   23.7760  -31.1280 C   0  0  0  0  0  0  0  0  0  0  0  0
   -6.0060   23.8940  -30.8780 C   0  0  0  0  0  0  0  0  0  0  0  0
   -5.3860   25.1090  -30.3090 C   0  0  0  0  0  0  0  0  0  0  0  0
   -4.1750   25.6350  -30.8450 N   0  0  0  0  0  0  0  0  0  0  0  0
   -5.9080   25.6630  -29.3040 O   0  0  0  0  0  0  0  0  0  0  0  0
   -5.3670   22.7230  -31.1560 N   0  0  0  0  0  0  0  0  0  0  0  0
   -3.9560   22.4550  -31.1110 C   0  0  0  0  0  0  0  0  0  0  0  0
   -3.1320   23.3870  -31.3150 O   0  0  0  0  0  0  0  0  0  0  0  0
   -3.5050   21.1560  -30.8610 O   0  0  0  0  0  0  0  0  0  0  0  0
   -2.1260   20.8000  -30.8750 C   0  0  0  0  0  0  0  0  0  0  0  0
   -1.6850   20.5450  -29.5450 O   0  0  0  0  0  0  0  0  0  0  0  0
   -0.7500   21.3520  -28.8910 C   0  0  0  0  0  0  0  0  0  0  0  0
    0.4790   21.2500  -29.1640 O   0  0  0  0  0  0  0  0  0  0  0  0
   -1.2010   22.3070  -27.9080 N   0  0  2  0  0  0  0  0  0  0  0  0
   -2.0060   21.6170  -26.8850 C   0  0  0  0  0  0  0  0  0  0  0  0
   -1.9590   23.3910  -28.5690 C   0  0  0  0  0  0  0  0  0  0  0  0
   -1.1100   24.6100  -28.7890 C   0  0  0  0  0  0  0  0  0  0  0  0
   -1.6030   25.6350  -29.3300 O   0  0  0  0  0  0  0  0  0  0  0  0
    0.2300   24.6000  -28.4250 O   0  0  0  0  0  0  0  0  0  0  0  0
   -6.3280   21.8670  -31.5680 C   0  0  0  0  0  0  0  0  0  0  0  0
   -6.1840   20.5470  -32.0110 C   0  0  0  0  0  0  0  0  0  0  0  0
   -5.1345   18.2126  -33.3937 H   0  0  0  0  0  0  0  0  0  0  0  0
   -6.2502   17.4279  -34.5626 H   0  0  0  0  0  0  0  0  0  0  0  0
   -6.0604   19.2142  -34.5626 H   0  0  0  0  0  0  0  0  0  0  0  0
   -8.1719   18.1505  -33.4129 H   0  0  0  0  0  0  0  0  0  0  0  0
   -7.0203   17.7682  -32.0751 H   0  0  0  0  0  0  0  0  0  0  0  0
   -9.4998   19.9507  -32.7204 H   0  0  0  0  0  0  0  0  0  0  0  0
   -9.6875   22.3369  -31.9455 H   0  0  0  0  0  0  0  0  0  0  0  0
   -8.1419   24.5520  -31.0054 H   0  0  0  0  0  0  0  0  0  0  0  0
   -3.2480   25.2760  -30.5280 H   0  0  0  0  0  0  0  0  0  0  0  0
   -1.9874   19.8961  -31.4863 H   0  0  0  0  0  0  0  0  0  0  0  0
   -1.5395   21.6268  -31.3022 H   0  0  0  0  0  0  0  0  0  0  0  0
   -0.3570   22.7150  -27.4410 H   0  0  0  0  0  0  0  0  0  0  0  0
   -1.6596   21.9139  -25.8841 H   0  0  0  0  0  0  0  0  0  0  0  0
   -3.0642   21.8929  -27.0036 H   0  0  0  0  0  0  0  0  0  0  0  0
   -1.8952   20.5290  -27.0036 H   0  0  0  0  0  0  0  0  0  0  0  0
   -2.3222   23.0295  -29.5423 H   0  0  0  0  0  0  0  0  0  0  0  0
   -2.7972   23.6712  -27.9141 H   0  0  0  0  0  0  0  0  0  0  0  0
   -5.1942   20.0681  -32.0438 H   0  0  0  0  0  0  0  0  0  0  0  0
  1  2  1  0
  2  3  1  0
  3  4  2  0
  4  5  1  0
  5  6  2  0
  6  7  1  0
  7  8  2  0
  8  9  1  0
  9 10  1  0
  9 11  2  0
  8 12  1  0
 12 13  1  0
 13 14  2  0
 13 15  1  0
 15 16  1  0
 16 17  1  0
 17 18  1  0
 18 19  2  0
 18 20  1  0
 20 21  1  0
 20 22  1  0
 22 23  1  0
 23 24  2  0
 23 25  1  0
 12 26  1  0
 26 27  2  0
 27  3  1  0
 26  6  1  0
  1 28  1  0
  1 29  1  0
  1 30  1  0
  2 31  1  0
  2 32  1  0
  4 33  1  0
  5 34  1  0
  7 35  1  0
 10 36  1  0
 16 37  1  0
 16 38  1  0
 20 39  1  1
 21 40  1  0
 21 41  1  0
 21 42  1  0
 22 43  1  0
 22 44  1  0
 27 45  1  0
M  CHG  3  10  -1  20   1  25  -1
M  END
>  <UniqueID>  (13) 
13

>  <SMILES>  (13) 
CCc1ccc2cc(C([NH-])=O)n(C(=O)OCOC(=O)[N@H+](C)CC(=O)[O-])c2c1

>  <Energy>  (13) 
78.576761272682

>  <Genealogy>  (13) 
CCc1ccc2cc(C([NH-])=O)n(C(=O)OCOC(=O)[NH+](C)CC(=O)[O-])c2c1 (protonated)
CCc1ccc2cc(C([NH-])=O)n(C(=O)OCOC(=O)[N@H+](C)CC(=O)[O-])c2c1 (chirality)
CCc1ccc2cc(C([NH-])=O)n(C(=O)OCOC(=O)[N@H+](C)CC(=O)[O-])c2c1 (3D coordinates assigned)
CCc1ccc2cc(C([NH-])=O)n(C(=O)OCOC(=O)[N@H+](C)CC(=O)[O-])c2c1 (optimized conformer: 78.576761272682 kcal/mol)

>  <smiles>  (13) 
CCc1ccc2cc(C(N)=O)n(C(=O)OCOC(=O)N(C)CC(=O)O)c2c1

>  <score_type>  (13) 
oracle

>  <origin>  (13) 
adg

>  <m_score__min__energy>  (13) 
-11.56

>  <m_primary>  (13) 
energy

$$$$
13:0
     RDKit          3D

 32 33  0  0  0  0  0  0  0  0999 V2000
   -3.8520   25.3110  -30.5170 N   0  0  0  0  0  0  0  0  0  0  0  0
   -5.2470   25.0320  -30.4030 C   0  0  0  0  0  0  0  0  0  0  0  0
   -5.9920   25.8550  -29.8090 O   0  0  0  0  0  0  0  0  0  0  0  0
   -5.7900   23.7710  -30.9530 C   0  0  0  0  0  0  0  0  0  0  0  0
   -7.1530   23.4950  -31.0250 C   0  0  0  0  0  0  0  0  0  0  0  0
   -7.2460   22.2690  -31.6400 C   0  0  0  0  0  0  0  0  0  0  0  0
   -8.3730   21.5160  -31.9570 C   0  0  0  0  0  0  0  0  0  0  0  0
   -8.1790   20.2680  -32.5710 C   0  0  0  0  0  0  0  0  0  0  0  0
   -6.8710   19.7890  -32.8400 C   0  0  0  0  0  0  0  0  0  0  0  0
   -6.6860   18.5140  -33.4870 N   0  0  0  0  0  0  0  0  0  0  0  0
   -5.6580   18.6250  -34.5290 C   0  0  0  0  0  0  0  0  0  0  0  0
   -4.6360   17.5410  -34.3740 C   0  0  0  0  0  0  0  0  0  0  0  0
   -3.5200   17.6520  -34.9510 O   0  0  0  0  0  0  0  0  0  0  0  0
   -4.9580   16.4000  -33.6260 O   0  0  0  0  0  0  0  0  0  0  0  0
   -6.0770   15.5880  -33.8470 C   0  0  0  0  0  0  0  0  0  0  0  0
   -7.2470   16.0500  -33.7860 O   0  0  0  0  0  0  0  0  0  0  0  0
   -5.8910   14.2430  -34.1380 O   0  0  0  0  0  0  0  0  0  0  0  0
   -5.7520   20.5890  -32.5120 C   0  0  0  0  0  0  0  0  0  0  0  0
   -5.9740   21.8380  -31.9180 C   0  0  0  0  0  0  0  0  0  0  0  0
   -5.0650   22.7530  -31.5020 N   0  0  0  0  0  0  0  0  0  0  0  0
   -3.6310   22.6500  -31.5670 C   0  0  0  0  0  0  0  0  0  0  0  0
   -3.0680   22.0210  -32.4990 O   0  0  0  0  0  0  0  0  0  0  0  0
   -3.4980   25.9990  -31.2180 H   0  0  0  0  0  0  0  0  0  0  0  0
   -7.9803   24.1247  -30.6658 H   0  0  0  0  0  0  0  0  0  0  0  0
   -9.3842   21.8870  -31.7335 H   0  0  0  0  0  0  0  0  0  0  0  0
   -9.0503   19.6555  -32.8462 H   0  0  0  0  0  0  0  0  0  0  0  0
   -7.5890   18.1990  -33.9130 H   0  0  0  0  0  0  0  0  0  0  0  0
   -6.3960   17.7980  -32.7790 H   0  0  0  0  0  0  0  0  0  0  0  0
   -6.1330   18.5363  -35.5172 H   0  0  0  0  0  0  0  0  0  0  0  0
   -5.1592   19.6009  -34.4347 H   0  0  0  0  0  0  0  0  0  0  0  0
   -4.7301   20.2383  -32.7187 H   0  0  0  0  0  0  0  0  0  0  0  0
   -3.0179   23.1289  -30.7893 H   0  0  0  0  0  0  0  0  0  0  0  0
  1  2  1  0
  2  3  2  0
  2  4  1  0
  4  5  2  0
  5  6  1  0
  6  7  2  0
  7  8  1  0
  8  9  2  0
  9 10  1  0
 10 11  1  0
 11 12  1  0
 12 13  2  0
 12 14  1  0
 14 15  1  0
 15 16  2  0
 15 17  1  0
  9 18  1  0
 18 19  2  0
 19 20  1  0
 20 21  1  0
 21 22  2  0
 20  4  1  0
 19  6  1  0
  1 23  1  0
  5 24  1  0
  7 25  1  0
  8 26  1  0
 10 27  1  0
 10 28  1  0
 11 29  1  0
 11 30  1  0
 18 31  1  0
 21 32  1  0
M  CHG  3   1  -1  10   1  17  -1
M  END
>  <UniqueID>  (14) 
14

>  <SMILES>  (14) 
[NH-]C(=O)c1cc2ccc([NH2+]CC(=O)OC(=O)[O-])cc2n1C=O

>  <Energy>  (14) 
70.277000271628

>  <Genealogy>  (14) 
[NH-]C(=O)c1cc2ccc([NH2+]CC(=O)OC(=O)[O-])cc2n1C=O (protonated)
[NH-]C(=O)c1cc2ccc([NH2+]CC(=O)OC(=O)[O-])cc2n1C=O (3D coordinates assigned)
[NH-]C(=O)c1cc2ccc([NH2+]CC(=O)OC(=O)[O-])cc2n1C=O (optimized conformer: 70.277000271628 kcal/mol)

>  <smiles>  (14) 
NC(=O)c1cc2ccc(NCC(=O)OC(=O)O)cc2n1C=O

>  <score_type>  (14) 
oracle

>  <origin>  (14) 
adg

>  <m_score__min__energy>  (14) 
-9.5299999999999994

>  <m_primary>  (14) 
energy

$$$$
14:0
     RDKit          3D

 31 32  0  0  0  0  0  0  0  0999 V2000
   -3.9450   25.6580  -30.8370 N   0  0  0  0  0  0  0  0  0  0  0  0
   -5.2490   25.1640  -30.5420 C   0  0  0  0  0  0  0  0  0  0  0  0
   -6.0720   25.9110  -29.9480 O   0  0  0  0  0  0  0  0  0  0  0  0
   -5.6650   23.8120  -30.9700 C   0  0  0  0  0  0  0  0  0  0  0  0
   -6.9840   23.4760  -31.2670 C   0  0  0  0  0  0  0  0  0  0  0  0
   -6.9380   22.1730  -31.7070 C   0  0  0  0  0  0  0  0  0  0  0  0
   -7.9650   21.3330  -32.1250 C   0  0  0  0  0  0  0  0  0  0  0  0
   -7.6340   20.0210  -32.4990 C   0  0  0  0  0  0  0  0  0  0  0  0
   -6.2880   19.5660  -32.4400 C   0  0  0  0  0  0  0  0  0  0  0  0
   -5.9240   18.2200  -32.8060 N   0  0  0  0  0  0  0  0  0  0  0  0
   -6.8070   17.2840  -33.5020 C   0  0  0  0  0  0  0  0  0  0  0  0
   -6.1040   15.9870  -33.7480 C   0  0  0  0  0  0  0  0  0  0  0  0
   -4.9030   15.8410  -33.4000 O   0  0  0  0  0  0  0  0  0  0  0  0
   -6.7850   14.9270  -34.3340 O   0  0  0  0  0  0  0  0  0  0  0  0
   -5.2750   20.4530  -32.0110 C   0  0  0  0  0  0  0  0  0  0  0  0
   -5.6320   21.7610  -31.6620 C   0  0  0  0  0  0  0  0  0  0  0  0
   -4.8370   22.7550  -31.2090 N   0  0  0  0  0  0  0  0  0  0  0  0
   -3.4260   22.6640  -30.9560 C   0  0  0  0  0  0  0  0  0  0  0  0
   -2.6620   22.1950  -31.8430 O   0  0  0  0  0  0  0  0  0  0  0  0
   -2.9130   23.1220  -29.7360 O   0  0  0  0  0  0  0  0  0  0  0  0
   -1.7060   23.8140  -29.5800 C   0  0  0  0  0  0  0  0  0  0  0  0
   -0.5950   23.2210  -29.6440 O   0  0  0  0  0  0  0  0  0  0  0  0
   -1.7330   25.1820  -29.3500 O   0  0  0  0  0  0  0  0  0  0  0  0
   -3.0930   25.1800  -30.4690 H   0  0  0  0  0  0  0  0  0  0  0  0
   -7.8732   24.1162  -31.1703 H   0  0  0  0  0  0  0  0  0  0  0  0
   -9.0060   21.6865  -32.1614 H   0  0  0  0  0  0  0  0  0  0  0  0
   -8.4247   19.3373  -32.8415 H   0  0  0  0  0  0  0  0  0  0  0  0
   -4.9660   17.8780  -32.5630 H   0  0  0  0  0  0  0  0  0  0  0  0
   -7.6993   17.1011  -32.8853 H   0  0  0  0  0  0  0  0  0  0  0  0
   -7.0980   17.7205  -34.4688 H   0  0  0  0  0  0  0  0  0  0  0  0
   -4.2274   20.1225  -31.9525 H   0  0  0  0  0  0  0  0  0  0  0  0
  1  2  1  0
  2  3  2  0
  2  4  1  0
  4  5  2  0
  5  6  1  0
  6  7  2  0
  7  8  1  0
  8  9  2  0
  9 10  1  0
 10 11  1  0
 11 12  1  0
 12 13  2  0
 12 14  1  0
  9 15  1  0
 15 16  2  0
 16 17  1  0
 17 18  1  0
 18 19  2  0
 18 20  1  0
 20 21  1  0
 21 22  2  0
 21 23  1  0
 17  4  1  0
 16  6  1  0
  1 24  1  0
  5 25  1  0
  7 26  1  0
  8 27  1  0
 10 28  1  0
 11 29  1  0
 11 30  1  0
 15 31  1  0
M  CHG  3   1  -1  14  -1  23  -1
M  END
>  <UniqueID>  (15) 
15

>  <SMILES>  (15) 
[NH-]C(=O)c1cc2ccc(NCC(=O)[O-])cc2n1C(=O)OC(=O)[O-]

>  <Energy>  (15) 
70.97679066812336

>  <Genealogy>  (15) 
[NH-]C(=O)c1cc2ccc(NCC(=O)[O-])cc2n1C(=O)OC(=O)[O-] (protonated)
[NH-]C(=O)c1cc2ccc(NCC(=O)[O-])cc2n1C(=O)OC(=O)[O-] (3D coordinates assigned)
[NH-]C(=O)c1cc2ccc(NCC(=O)[O-])cc2n1C(=O)OC(=O)[O-] (optimized conformer: 70.97679066812336 kcal/mol)

>  <smiles>  (15) 
NC(=O)c1cc2ccc(NCC(=O)O)cc2n1C(=O)OC(=O)O

>  <score_type>  (15) 
oracle

>  <origin>  (15) 
adg

>  <m_score__min__energy>  (15) 
-9.9700000000000006

>  <m_primary>  (15) 
energy

$$$$
15:0
     RDKit          3D

 42 43  0  0  0  0  0  0  0  0999 V2000
   -4.5810   15.4290  -34.2680 C   0  0  0  0  0  0  0  0  0  0  0  0
   -5.1690   16.3810  -33.8180 C   0  0  0  0  0  0  0  0  0  0  0  0
   -5.8690   17.5170  -33.2810 C   0  0  0  0  0  0  0  0  0  0  0  0
   -7.2070   17.3770  -32.8380 C   0  0  0  0  0  0  0  0  0  0  0  0
   -7.9000   18.4790  -32.3050 C   0  0  0  0  0  0  0  0  0  0  0  0
   -7.2320   19.6990  -32.2410 C   0  0  0  0  0  0  0  0  0  0  0  0
   -7.6500   20.9180  -31.7520 C   0  0  0  0  0  0  0  0  0  0  0  0
   -6.5640   21.7780  -31.9200 C   0  0  0  0  0  0  0  0  0  0  0  0
   -6.5560   23.2160  -31.5560 C   0  0  0  0  0  0  0  0  0  0  0  0
   -5.8270   24.1690  -32.3310 N   0  0  0  0  0  0  0  0  0  0  0  0
   -7.1910   23.6120  -30.5430 O   0  0  0  0  0  0  0  0  0  0  0  0
   -5.5260   21.1160  -32.5040 N   0  0  0  0  0  0  0  0  0  0  0  0
   -4.2150   21.6230  -32.7900 C   0  0  0  0  0  0  0  0  0  0  0  0
   -4.0320   22.2910  -33.8430 O   0  0  0  0  0  0  0  0  0  0  0  0
   -3.1100   21.3630  -31.9010 N   0  0  0  0  0  0  0  0  0  0  0  0
   -1.7840   21.0020  -32.4160 C   0  0  0  0  0  0  0  0  0  0  0  0
   -1.8890   19.9470  -33.4310 C   0  0  0  0  0  0  0  0  0  0  0  0
   -1.9720   19.1150  -34.2310 N   0  0  0  0  0  0  0  0  0  0  0  0
   -3.3580   21.2950  -30.4860 C   0  0  0  0  0  0  0  0  0  0  0  0
   -3.7570   20.2060  -29.9890 O   0  0  0  0  0  0  0  0  0  0  0  0
   -3.1750   22.4460  -29.6360 N   0  0  0  0  0  0  0  0  0  0  0  0
   -2.0530   22.4640  -28.6940 C   0  0  0  0  0  0  0  0  0  0  0  0
   -4.1440   23.5510  -29.6260 C   0  0  0  0  0  0  0  0  0  0  0  0
   -3.4930   24.8510  -29.9930 C   0  0  0  0  0  0  0  0  0  0  0  0
   -4.0190   25.5870  -30.8680 O   0  0  0  0  0  0  0  0  0  0  0  0
   -2.3490   25.2840  -29.3340 O   0  0  0  0  0  0  0  0  0  0  0  0
   -5.9430   19.8470  -32.6810 C   0  0  0  0  0  0  0  0  0  0  0  0
   -5.2230   18.7650  -33.1990 C   0  0  0  0  0  0  0  0  0  0  0  0
   -4.0447   14.5607  -34.6784 H   0  0  0  0  0  0  0  0  0  0  0  0
   -7.7075   16.4002  -32.9112 H   0  0  0  0  0  0  0  0  0  0  0  0
   -8.9365   18.3801  -31.9501 H   0  0  0  0  0  0  0  0  0  0  0  0
   -8.6321   21.1615  -31.3205 H   0  0  0  0  0  0  0  0  0  0  0  0
   -5.3410   23.9030  -33.2140 H   0  0  0  0  0  0  0  0  0  0  0  0
   -5.8050   25.1710  -32.0380 H   0  0  0  0  0  0  0  0  0  0  0  0
   -1.3177   21.8907  -32.8664 H   0  0  0  0  0  0  0  0  0  0  0  0
   -1.1711   20.6294  -31.5820 H   0  0  0  0  0  0  0  0  0  0  0  0
   -2.4389   22.4578  -27.6639 H   0  0  0  0  0  0  0  0  0  0  0  0
   -1.4244   21.5758  -28.8554 H   0  0  0  0  0  0  0  0  0  0  0  0
   -1.4533   23.3719  -28.8554 H   0  0  0  0  0  0  0  0  0  0  0  0
   -4.9428   23.3334  -30.3503 H   0  0  0  0  0  0  0  0  0  0  0  0
   -4.5542   23.6433  -28.6095 H   0  0  0  0  0  0  0  0  0  0  0  0
   -4.1818   18.8861  -33.5327 H   0  0  0  0  0  0  0  0  0  0  0  0
  1  2  3  0
  2  3  1  0
  3  4  2  0
  4  5  1  0
  5  6  2  0
  6  7  1  0
  7  8  2  0
  8  9  1  0
  9 10  1  0
  9 11  2  0
  8 12  1  0
 12 13  1  0
 13 14  2  0
 13 15  1  0
 15 16  1  0
 16 17  1  0
 17 18  3  0
 15 19  1  0
 19 20  2  0
 19 21  1  0
 21 22  1  0
 21 23  1  0
 23 24  1  0
 24 25  2  0
 24 26  1  0
 12 27  1  0
 27 28  2  0
 28  3  1  0
 27  6  1  0
  1 29  1  0
  4 30  1  0
  5 31  1  0
  7 32  1  0
 10 33  1  0
 10 34  1  0
 16 35  1  0
 16 36  1  0
 22 37  1  0
 22 38  1  0
 22 39  1  0
 23 40  1  0
 23 41  1  0
 28 42  1  0
M  CHG  1  26  -1
M  END
>  <UniqueID>  (16) 
16

>  <SMILES>  (16) 
C#Cc1ccc2cc(C(N)=O)n(C(=O)N(CC#N)C(=O)N(C)CC(=O)[O-])c2c1

>  <Energy>  (16) 
81.49618577098742

>  <Genealogy>  (16) 
C#Cc1ccc2cc(C(N)=O)n(C(=O)N(CC#N)C(=O)N(C)CC(=O)[O-])c2c1 (protonated)
C#Cc1ccc2cc(C(N)=O)n(C(=O)N(CC#N)C(=O)N(C)CC(=O)[O-])c2c1 (3D coordinates assigned)
C#Cc1ccc2cc(C(N)=O)n(C(=O)N(CC#N)C(=O)N(C)CC(=O)[O-])c2c1 (optimized conformer: 81.49618577098742 kcal/mol)

>  <smiles>  (16) 
C#Cc1ccc2cc(C(N)=O)n(C(=O)N(CC#N)C(=O)N(C)CC(=O)O)c2c1

>  <score_type>  (16) 
oracle

>  <origin>  (16) 
adg

>  <m_score__min__energy>  (16) 
-12

>  <m_primary>  (16) 
energy

$$$$
16:0
     RDKit          3D

 32 34  0  0  0  0  0  0  0  0999 V2000
   -1.6210   25.7040  -28.9670 N   0  0  0  0  0  0  0  0  0  0  0  0
   -1.0580   24.4070  -29.1550 C   0  0  0  0  0  0  0  0  0  0  0  0
    0.0610   24.1410  -28.6450 O   0  0  0  0  0  0  0  0  0  0  0  0
   -1.8120   23.3810  -29.9060 C   0  0  0  0  0  0  0  0  0  0  0  0
   -1.2660   22.1580  -30.2900 C   0  0  0  0  0  0  0  0  0  0  0  0
   -2.2440   21.5410  -31.0370 C   0  0  0  0  0  0  0  0  0  0  0  0
   -2.2410   20.2980  -31.6590 C   0  0  0  0  0  0  0  0  0  0  0  0
   -3.4010   19.9010  -32.3430 C   0  0  0  0  0  0  0  0  0  0  0  0
   -4.5430   20.7460  -32.3910 C   0  0  0  0  0  0  0  0  0  0  0  0
   -5.8110   20.3300  -33.1160 C   0  0  2  0  0  0  0  0  0  0  0  0
   -7.0660   21.0940  -32.6860 C   0  0  0  0  0  0  0  0  0  0  0  0
   -7.6820   19.7820  -32.1930 C   0  0  1  0  0  0  0  0  0  0  0  0
   -8.8360   19.4030  -32.9060 O   0  0  0  0  0  0  0  0  0  0  0  0
   -6.4260   19.0190  -32.6190 C   0  0  0  0  0  0  0  0  0  0  0  0
   -4.5020   22.0020  -31.7440 C   0  0  0  0  0  0  0  0  0  0  0  0
   -3.3270   22.3790  -31.0840 C   0  0  0  0  0  0  0  0  0  0  0  0
   -3.0790   23.5130  -30.3910 N   0  0  0  0  0  0  0  0  0  0  0  0
   -4.0000   24.5910  -30.1590 C   0  0  0  0  0  0  0  0  0  0  0  0
   -3.8800   25.6780  -30.7840 O   0  0  0  0  0  0  0  0  0  0  0  0
   -5.0500   24.4360  -29.2630 O   0  0  0  0  0  0  0  0  0  0  0  0
   -2.6550   25.8460  -28.9760 H   0  0  0  0  0  0  0  0  0  0  0  0
   -0.2662   21.7684  -30.0478 H   0  0  0  0  0  0  0  0  0  0  0  0
   -1.3567   19.6452  -31.6166 H   0  0  0  0  0  0  0  0  0  0  0  0
   -3.4264   18.9241  -32.8479 H   0  0  0  0  0  0  0  0  0  0  0  0
   -5.4421   20.4095  -34.1493 H   0  0  0  0  0  0  0  0  0  0  0  0
   -7.6133   21.5651  -33.5158 H   0  0  0  0  0  0  0  0  0  0  0  0
   -6.9909   21.9641  -32.0172 H   0  0  0  0  0  0  0  0  0  0  0  0
   -8.0580   19.6989  -31.1626 H   0  0  0  0  0  0  0  0  0  0  0  0
   -8.7360   19.6970  -33.8490 H   0  0  0  0  0  0  0  0  0  0  0  0
   -6.5979   18.2737  -33.4096 H   0  0  0  0  0  0  0  0  0  0  0  0
   -5.8862   18.3835  -31.9015 H   0  0  0  0  0  0  0  0  0  0  0  0
   -5.3761   22.6697  -31.7590 H   0  0  0  0  0  0  0  0  0  0  0  0
  1  2  1  0
  2  3  2  0
  2  4  1  0
  4  5  2  0
  5  6  1  0
  6  7  2  0
  7  8  1  0
  8  9  2  0
  9 10  1  0
 10 11  1  0
 11 12  1  0
 12 13  1  0
 12 14  1  0
  9 15  1  0
 15 16  2  0
 16 17  1  0
 17 18  1  0
 18 19  2  0
 18 20  1  0
 17  4  1  0
 16  6  1  0
 14 10  1  0
  1 21  1  0
  5 22  1  0
  7 23  1  0
  8 24  1  0
 10 25  1  6
 11 26  1  0
 11 27  1  0
 12 28  1  1
 13 29  1  0
 14 30  1  0
 14 31  1  0
 15 32  1  0
M  CHG  2   1  -1  20  -1
M  END
>  <UniqueID>  (17) 
17

>  <SMILES>  (17) 
[NH-]C(=O)c1cc2ccc(C3CC(O)C3)cc2n1C(=O)[O-]

>  <Energy>  (17) 
137.01023103486096

>  <Genealogy>  (17) 
[NH-]C(=O)c1cc2ccc(C3CC(O)C3)cc2n1C(=O)[O-] (protonated)
[NH-]C(=O)c1cc2ccc(C3CC(O)C3)cc2n1C(=O)[O-] (3D coordinates assigned)
[NH-]C(=O)c1cc2ccc(C3CC(O)C3)cc2n1C(=O)[O-] (nonaromatic ring conformer: 137.01023103486096 kcal/mol)

>  <smiles>  (17) 
NC(=O)c1cc2ccc(C3CC(O)C3)cc2n1C(=O)O

>  <score_type>  (17) 
oracle

>  <origin>  (17) 
adg

>  <m_score__min__energy>  (17) 
-11.52

>  <m_primary>  (17) 
energy

$$$$
17:0
     RDKit          3D

 45 46  0  0  0  0  0  0  0  0999 V2000
   -9.4326   18.4471  -31.7974 H   0  0  0  0  0  0  0  0  0  0  0  0
   -8.5970   19.1620  -31.8240 C   0  0  0  0  0  0  0  0  0  0  0  0
   -7.3920   18.8070  -32.4770 C   0  0  0  0  0  0  0  0  0  0  0  0
   -7.2420   17.4590  -33.1150 C   0  0  0  0  0  0  0  0  0  0  0  0
   -7.1565   16.6905  -32.3326 H   0  0  0  0  0  0  0  0  0  0  0  0
   -8.1224   17.2493  -33.7403 H   0  0  0  0  0  0  0  0  0  0  0  0
   -6.3371   17.4479  -33.7403 H   0  0  0  0  0  0  0  0  0  0  0  0
   -6.3070   19.7110  -32.4880 C   0  0  0  0  0  0  0  0  0  0  0  0
   -5.3564   19.4467  -32.9743 H   0  0  0  0  0  0  0  0  0  0  0  0
   -6.4740   20.9510  -31.8640 C   0  0  0  0  0  0  0  0  0  0  0  0
   -7.6510   21.2910  -31.2540 C   0  0  0  0  0  0  0  0  0  0  0  0
   -8.7370   20.4190  -31.2090 C   0  0  0  0  0  0  0  0  0  0  0  0
   -9.6739   20.7047  -30.7084 H   0  0  0  0  0  0  0  0  0  0  0  0
   -7.5110   22.5640  -30.7460 C   0  0  0  0  0  0  0  0  0  0  0  0
   -8.2622   23.1471  -30.1931 H   0  0  0  0  0  0  0  0  0  0  0  0
   -6.2120   22.9580  -31.0820 C   0  0  0  0  0  0  0  0  0  0  0  0
   -5.5890   24.2460  -30.6870 C   0  0  0  0  0  0  0  0  0  0  0  0
   -5.0090   24.9580  -31.5470 O   0  0  0  0  0  0  0  0  0  0  0  0
   -5.6260   24.7030  -29.3320 N   0  0  0  0  0  0  0  0  0  0  0  0
   -5.1770   25.6110  -29.0760 H   0  0  0  0  0  0  0  0  0  0  0  0
   -6.0530   24.1350  -28.5670 H   0  0  0  0  0  0  0  0  0  0  0  0
   -5.5850   21.9590  -31.7660 N   0  0  0  0  0  0  0  0  0  0  0  0
   -4.2380   21.9400  -32.2630 C   0  0  0  0  0  0  0  0  0  0  0  0
   -3.9460   22.6390  -33.2720 O   0  0  0  0  0  0  0  0  0  0  0  0
   -3.2380   21.1110  -31.6400 N   0  0  0  0  0  0  0  0  0  0  0  0
   -2.3360   21.6540  -30.6560 C   0  0  0  0  0  0  0  0  0  0  0  0
   -1.3020   22.2790  -31.0270 O   0  0  0  0  0  0  0  0  0  0  0  0
   -2.6150   21.5150  -29.2900 O   0  0  0  0  0  0  0  0  0  0  0  0
   -2.7820   22.6230  -28.4080 C   0  0  0  0  0  0  0  0  0  0  0  0
   -2.7587   22.2613  -27.3694 H   0  0  0  0  0  0  0  0  0  0  0  0
   -3.7466   23.1026  -28.6307 H   0  0  0  0  0  0  0  0  0  0  0  0
   -1.6880   23.6420  -28.5980 C   0  0  0  0  0  0  0  0  0  0  0  0
   -0.4580   23.2860  -28.3660 N   0  0  0  0  0  0  0  0  0  0  0  0
    0.6200   24.1230  -28.5490 O   0  0  0  0  0  0  0  0  0  0  0  0
    1.3650   24.5820  -27.4350 C   0  0  0  0  0  0  0  0  0  0  0  0
    0.8635   24.2730  -26.5060 H   0  0  0  0  0  0  0  0  0  0  0  0
    2.3761   24.1500  -27.4670 H   0  0  0  0  0  0  0  0  0  0  0  0
    1.4339   25.6794  -27.4670 H   0  0  0  0  0  0  0  0  0  0  0  0
   -2.0350   24.9820  -29.1310 C   0  0  0  0  0  0  0  0  0  0  0  0
   -3.1280   25.1870  -29.7200 O   0  0  0  0  0  0  0  0  0  0  0  0
   -1.1460   26.0370  -28.9770 O   0  0  0  0  0  0  0  0  0  0  0  0
   -3.1550   19.6830  -31.9630 C   0  0  0  0  0  0  0  0  0  0  0  0
   -3.1210   19.0979  -31.0321 H   0  0  0  0  0  0  0  0  0  0  0  0
   -4.0375   19.3878  -32.5496 H   0  0  0  0  0  0  0  0  0  0  0  0
   -2.2442   19.4921  -32.5496 H   0  0  0  0  0  0  0  0  0  0  0  0
  1  2  1  0
  2  3  2  0
  3  4  1  0
  4  5  1  0
  4  6  1  0
  4  7  1  0
  3  8  1  0
  8  9  1  0
  8 10  2  0
 10 11  1  0
 11 12  2  0
 12 13  1  0
 11 14  1  0
 14 15  1  0
 14 16  2  0
 16 17  1  0
 17 18  2  0
 17 19  1  0
 19 20  1  0
 19 21  1  0
 16 22  1  0
 22 23  1  0
 23 24  2  0
 23 25  1  0
 25 26  1  0
 26 27  2  0
 26 28  1  0
 28 29  1  0
 29 30  1  0
 29 31  1  0
 29 32  1  0
 32 33  2  0
 33 34  1  0
 34 35  1  0
 35 36  1  0
 35 37  1  0
 35 38  1  0
 32 39  1  0
 39 40  2  0
 39 41  1  0
 25 42  1  0
 42 43  1  0
 42 44  1  0
 42 45  1  0
 12  2  1  0
 22 10  1  0
M  CHG  1  41  -1
M  END
>  <UniqueID>  (18) 
18

>  <SMILES>  (18) 
CO/N=C(/COC(=O)N(C)C(=O)n1c(C(N)=O)cc2ccc(C)cc21)C(=O)[O-]

>  <Energy>  (18) 
80.35456866718937

>  <Genealogy>  (18) 
CO/N=C(/COC(=O)N(C)C(=O)n1c(C(N)=O)cc2ccc(C)cc21)C(=O)[O-] (protonated)
CO/N=C(/COC(=O)N(C)C(=O)n1c(C(N)=O)cc2ccc(C)cc21)C(=O)[O-] (cis-trans isomerization)
CO/N=C(/COC(=O)N(C)C(=O)n1c(C(N)=O)cc2ccc(C)cc21)C(=O)[O-] (3D coordinates assigned)
CO/N=C(/COC(=O)N(C)C(=O)n1c(C(N)=O)cc2ccc(C)cc21)C(=O)[O-] (optimized conformer: 80.35456866718937 kcal/mol)

>  <smiles>  (18) 
CO/N=C(/COC(=O)N(C)C(=O)n1c(C(N)=O)cc2ccc(C)cc21)C(=O)O

>  <score_type>  (18) 
oracle

>  <origin>  (18) 
adg

>  <m_score__min__energy>  (18) 
-11.35

>  <m_primary>  (18) 
energy

$$$$
18:0
     RDKit          3D

 51 52  0  0  0  0  0  0  0  0999 V2000
   -0.5070   18.4680  -31.2450 C   0  0  0  0  0  0  0  0  0  0  0  0
   -0.6280   19.8670  -31.6660 N   0  0  0  0  0  0  0  0  0  0  0  0
   -0.4080   20.2420  -33.0710 C   0  0  0  0  0  0  0  0  0  0  0  0
   -1.5000   21.1920  -33.5750 C   0  0  0  0  0  0  0  0  0  0  0  0
   -2.8580   20.5450  -33.5240 C   0  0  0  0  0  0  0  0  0  0  0  0
   -3.0410   19.2350  -34.0300 C   0  0  0  0  0  0  0  0  0  0  0  0
   -4.2900   18.6000  -33.9370 C   0  0  0  0  0  0  0  0  0  0  0  0
   -5.3330   19.2960  -33.3320 C   0  0  0  0  0  0  0  0  0  0  0  0
   -6.6250   18.9010  -33.0720 C   0  0  0  0  0  0  0  0  0  0  0  0
   -7.2150   19.9790  -32.4220 C   0  0  0  0  0  0  0  0  0  0  0  0
   -8.6340   20.0020  -32.0130 C   0  0  0  0  0  0  0  0  0  0  0  0
   -9.4200   21.1850  -32.1430 N   0  0  0  0  0  0  0  0  0  0  0  0
   -9.1740   18.9430  -31.5950 O   0  0  0  0  0  0  0  0  0  0  0  0
   -6.3250   21.0000  -32.2690 N   0  0  0  0  0  0  0  0  0  0  0  0
   -6.5160   22.2130  -31.5210 C   0  0  0  0  0  0  0  0  0  0  0  0
   -7.3900   23.0490  -31.8770 O   0  0  0  0  0  0  0  0  0  0  0  0
   -5.7260   22.4610  -30.3940 O   0  0  0  0  0  0  0  0  0  0  0  0
   -5.8350   23.6500  -29.6160 C   0  0  0  0  0  0  0  0  0  0  0  0
   -4.6120   23.9120  -28.9680 O   0  0  0  0  0  0  0  0  0  0  0  0
   -3.5040   24.5400  -30.1020 P   0  0  0  0  0  0  0  0  0  0  0  0
   -2.9530   23.4000  -30.9270 O   0  0  0  0  0  0  0  0  0  0  0  0
   -4.2640   25.6480  -31.1330 O   0  0  0  0  0  0  0  0  0  0  0  0
   -2.2290   25.3040  -29.2950 O   0  0  0  0  0  0  0  0  0  0  0  0
   -5.1760   20.5670  -32.8380 C   0  0  0  0  0  0  0  0  0  0  0  0
   -3.9370   21.2170  -32.9070 C   0  0  0  0  0  0  0  0  0  0  0  0
   -0.9370   20.8780  -30.6880 C   0  0  0  0  0  0  0  0  0  0  0  0
   -0.6890   22.0920  -30.9340 O   0  0  0  0  0  0  0  0  0  0  0  0
   -1.5130   20.5150  -29.4660 O   0  0  0  0  0  0  0  0  0  0  0  0
   -2.8260   20.9130  -29.0730 C   0  0  0  0  0  0  0  0  0  0  0  0
   -2.8400   21.3420  -27.7310 O   0  0  0  0  0  0  0  0  0  0  0  0
   -2.1660   22.9050  -27.6760 P   0  0  0  0  0  0  0  0  0  0  0  0
   -2.7160   23.9330  -26.7130 O   0  0  0  0  0  0  0  0  0  0  0  0
   -0.8810   23.3070  -28.7010 O   0  0  0  0  0  0  0  0  0  0  0  0
   -0.5024   18.4148  -30.1463 H   0  0  0  0  0  0  0  0  0  0  0  0
   -1.3587   17.8923  -31.6364 H   0  0  0  0  0  0  0  0  0  0  0  0
    0.4309   18.0471  -31.6364 H   0  0  0  0  0  0  0  0  0  0  0  0
    0.5685   20.7405  -33.1594 H   0  0  0  0  0  0  0  0  0  0  0  0
   -0.4367   19.3274  -33.6815 H   0  0  0  0  0  0  0  0  0  0  0  0
   -1.5092   22.0932  -32.9444 H   0  0  0  0  0  0  0  0  0  0  0  0
   -1.2786   21.4495  -34.6213 H   0  0  0  0  0  0  0  0  0  0  0  0
   -2.1966   18.7099  -34.5004 H   0  0  0  0  0  0  0  0  0  0  0  0
   -4.4398   17.5836  -34.3302 H   0  0  0  0  0  0  0  0  0  0  0  0
   -7.0917   17.9375  -33.3246 H   0  0  0  0  0  0  0  0  0  0  0  0
   -9.0440   22.0320  -32.6240 H   0  0  0  0  0  0  0  0  0  0  0  0
  -10.4080   21.1980  -31.8050 H   0  0  0  0  0  0  0  0  0  0  0  0
   -6.0876   24.4946  -30.2739 H   0  0  0  0  0  0  0  0  0  0  0  0
   -6.6242   23.5181  -28.8611 H   0  0  0  0  0  0  0  0  0  0  0  0
   -3.8071   22.2268  -32.4906 H   0  0  0  0  0  0  0  0  0  0  0  0
   -3.1607   21.7383  -29.7186 H   0  0  0  0  0  0  0  0  0  0  0  0
   -3.5001   20.0496  -29.1734 H   0  0  0  0  0  0  0  0  0  0  0  0
   -1.3170   23.6070  -29.5370 H   0  0  0  0  0  0  0  0  0  0  0  0
  1  2  1  0
  2  3  1  0
  3  4  1  0
  4  5  1  0
  5  6  2  0
  6  7  1  0
  7  8  2  0
  8  9  1  0
  9 10  2  0
 10 11  1  0
 11 12  1  0
 11 13  2  0
 10 14  1  0
 14 15  1  0
 15 16  2  0
 15 17  1  0
 17 18  1  0
 18 19  1  0
 19 20  1  0
 20 21  2  0
 20 22  1  0
 20 23  1  0
 14 24  1  0
 24 25  2  0
  2 26  1  0
 26 27  2  0
 26 28  1  0
 28 29  1  0
 29 30  1  0
 30 31  1  0
 31 32  2  0
 31 33  1  0
 25  5  1  0
 24  8  1  0
  1 34  1  0
  1 35  1  0
  1 36  1  0
  3 37  1  0
  3 38  1  0
  4 39  1  0
  4 40  1  0
  6 41  1  0
  7 42  1  0
  9 43  1  0
 12 44  1  0
 12 45  1  0
 18 46  1  0
 18 47  1  0
 25 48  1  0
 29 49  1  0
 29 50  1  0
 33 51  1  0
M  CHG  3  22  -1  23  -1  31   1
M  END
>  <UniqueID>  (19) 
19

>  <SMILES>  (19) 
CN(CCc1ccc2cc(C(N)=O)n(C(=O)OCOP(=O)([O-])[O-])c2c1)C(=O)OCO[P+](=O)O

>  <Energy>  (19) 
98.6739177883581

>  <Genealogy>  (19) 
CN(CCc1ccc2cc(C(N)=O)n(C(=O)OCOP(=O)([O-])[O-])c2c1)C(=O)OCO[P+](=O)O (protonated)
CN(CCc1ccc2cc(C(N)=O)n(C(=O)OCOP(=O)([O-])[O-])c2c1)C(=O)OCO[P+](=O)O (chirality)
CN(CCc1ccc2cc(C(N)=O)n(C(=O)OCOP(=O)([O-])[O-])c2c1)C(=O)OCO[P+](=O)O (3D coordinates assigned)
CN(CCc1ccc2cc(C(N)=O)n(C(=O)OCOP(=O)([O-])[O-])c2c1)C(=O)OCO[P+](=O)O (optimized conformer: 98.6739177883581 kcal/mol)

>  <smiles>  (19) 
CN(CCc1ccc2cc(C(N)=O)n(C(=O)OCOP(=O)(O)O)c2c1)C(=O)OCO[P+](=O)O

>  <score_type>  (19) 
oracle

>  <origin>  (19) 
adg

>  <m_score__min__energy>  (19) 
-12.06

>  <m_primary>  (19) 
energy

$$$$
19:0
     RDKit          3D

 41 43  0  0  0  0  0  0  0  0999 V2000
   -2.7160   20.7990  -29.4610 C   0  0  0  0  0  0  0  0  0  0  0  0
   -2.8340   22.1450  -30.0280 N   0  0  0  0  0  0  0  0  0  0  0  0
   -2.3790   23.2740  -29.2580 C   0  0  0  0  0  0  0  0  0  0  0  0
   -3.1190   23.7650  -28.3620 O   0  0  0  0  0  0  0  0  0  0  0  0
   -1.1160   23.8240  -29.5190 O   0  0  0  0  0  0  0  0  0  0  0  0
   -0.3230   24.4970  -28.5820 C   0  0  0  0  0  0  0  0  0  0  0  0
    0.8440   24.1060  -28.3070 O   0  0  0  0  0  0  0  0  0  0  0  0
   -0.8980   25.6670  -27.8510 C   0  0  0  0  0  0  0  0  0  0  0  0
   -1.9840   26.1910  -28.5660 O   0  0  0  0  0  0  0  0  0  0  0  0
   -3.5040   22.3320  -31.2900 C   0  0  0  0  0  0  0  0  0  0  0  0
   -2.8400   22.3070  -32.3620 O   0  0  0  0  0  0  0  0  0  0  0  0
   -4.9170   22.5980  -31.3420 N   0  0  0  0  0  0  0  0  0  0  0  0
   -5.5750   23.7110  -30.9120 C   0  0  0  0  0  0  0  0  0  0  0  0
   -4.9470   24.9600  -30.4320 C   0  0  0  0  0  0  0  0  0  0  0  0
   -3.6030   25.2870  -30.7770 N   0  0  0  0  0  0  0  0  0  0  0  0
   -5.6190   25.7700  -29.7400 O   0  0  0  0  0  0  0  0  0  0  0  0
   -6.9520   23.5520  -31.0630 C   0  0  0  0  0  0  0  0  0  0  0  0
   -7.1170   22.2990  -31.6080 C   0  0  0  0  0  0  0  0  0  0  0  0
   -8.2790   21.6270  -31.9720 C   0  0  0  0  0  0  0  0  0  0  0  0
   -8.1520   20.3360  -32.5110 C   0  0  0  0  0  0  0  0  0  0  0  0
   -6.8760   19.7340  -32.6700 C   0  0  0  0  0  0  0  0  0  0  0  0
   -6.7480   18.3790  -33.2590 C   0  0  0  0  0  0  0  0  0  0  0  0
   -6.0870   18.0130  -34.4170 C   0  0  0  0  0  0  0  0  0  0  0  0
   -6.2060   16.6830  -34.5880 N   0  0  0  0  0  0  0  0  0  0  0  0
   -6.9020   16.2260  -33.5880 O   0  0  0  0  0  0  0  0  0  0  0  0
   -7.2500   17.1890  -32.7670 C   0  0  0  0  0  0  0  0  0  0  0  0
   -5.7210   20.4480  -32.2710 C   0  0  0  0  0  0  0  0  0  0  0  0
   -5.8760   21.7430  -31.7620 C   0  0  0  0  0  0  0  0  0  0  0  0
   -2.7215   20.8620  -28.3628 H   0  0  0  0  0  0  0  0  0  0  0  0
   -3.5637   20.1839  -29.7973 H   0  0  0  0  0  0  0  0  0  0  0  0
   -1.7742   20.3407  -29.7973 H   0  0  0  0  0  0  0  0  0  0  0  0
   -1.2384   25.3438  -26.8562 H   0  0  0  0  0  0  0  0  0  0  0  0
   -0.1256   26.4432  -27.7464 H   0  0  0  0  0  0  0  0  0  0  0  0
   -2.5420   25.4180  -28.8430 H   0  0  0  0  0  0  0  0  0  0  0  0
   -2.8290   25.1760  -30.0850 H   0  0  0  0  0  0  0  0  0  0  0  0
   -7.7393   24.2746  -30.8020 H   0  0  0  0  0  0  0  0  0  0  0  0
   -9.2673   22.0922  -31.8418 H   0  0  0  0  0  0  0  0  0  0  0  0
   -9.0537   19.7838  -32.8141 H   0  0  0  0  0  0  0  0  0  0  0  0
   -5.5505   18.6980  -35.0899 H   0  0  0  0  0  0  0  0  0  0  0  0
   -7.8396   17.0696  -31.8461 H   0  0  0  0  0  0  0  0  0  0  0  0
   -4.7225   19.9950  -32.3590 H   0  0  0  0  0  0  0  0  0  0  0  0
  1  2  1  0
  2  3  1  0
  3  4  2  0
  3  5  1  0
  5  6  1  0
  6  7  2  0
  6  8  1  0
  8  9  1  0
  2 10  1  0
 10 11  2  0
 10 12  1  0
 12 13  1  0
 13 14  1  0
 14 15  1  0
 14 16  2  0
 13 17  2  0
 17 18  1  0
 18 19  2  0
 19 20  1  0
 20 21  2  0
 21 22  1  0
 22 23  1  0
 23 24  2  0
 24 25  1  0
 25 26  1  0
 21 27  1  0
 27 28  2  0
 28 12  1  0
 28 18  1  0
 26 22  2  0
  1 29  1  0
  1 30  1  0
  1 31  1  0
  8 32  1  0
  8 33  1  0
  9 34  1  0
 15 35  1  0
 17 36  1  0
 19 37  1  0
 20 38  1  0
 23 39  1  0
 26 40  1  0
 27 41  1  0
M  CHG  1  15  -1
M  END
>  <UniqueID>  (20) 
20

>  <SMILES>  (20) 
CN(C(=O)OC(=O)CO)C(=O)n1c(C([NH-])=O)cc2ccc(-c3cnoc3)cc21

>  <Energy>  (20) 
115.44585347467347

>  <Genealogy>  (20) 
CN(C(=O)OC(=O)CO)C(=O)n1c(C([NH-])=O)cc2ccc(-c3cnoc3)cc21 (protonated)
CN(C(=O)OC(=O)CO)C(=O)n1c(C([NH-])=O)cc2ccc(-c3cnoc3)cc21 (3D coordinates assigned)
CN(C(=O)OC(=O)CO)C(=O)n1c(C([NH-])=O)cc2ccc(-c3cnoc3)cc21 (optimized conformer: 115.44585347467347 kcal/mol)

>  <smiles>  (20) 
CN(C(=O)OC(=O)CO)C(=O)n1c(C(N)=O)cc2ccc(-c3cnoc3)cc21

>  <score_type>  (20) 
oracle

>  <origin>  (20) 
adg

>  <m_score__min__energy>  (20) 
-11.31

>  <m_primary>  (20) 
energy

$$$$
20:0
     RDKit          3D

 44 45  0  0  0  0  0  0  0  0999 V2000
   -7.2290   17.4260  -32.6600 C   0  0  0  0  0  0  0  0  0  0  0  0
   -6.5980   18.5950  -33.2870 N   0  0  0  0  0  0  0  0  0  0  0  0
   -5.7700   18.3960  -34.4840 C   0  0  0  0  0  0  0  0  0  0  0  0
   -6.7910   19.9230  -32.7340 C   0  0  0  0  0  0  0  0  0  0  0  0
   -8.1020   20.4370  -32.5190 C   0  0  0  0  0  0  0  0  0  0  0  0
   -8.3000   21.7130  -31.9710 C   0  0  0  0  0  0  0  0  0  0  0  0
   -7.1780   22.4690  -31.6530 C   0  0  0  0  0  0  0  0  0  0  0  0
   -7.0900   23.7160  -31.0820 C   0  0  0  0  0  0  0  0  0  0  0  0
   -5.7270   23.9770  -30.9740 C   0  0  0  0  0  0  0  0  0  0  0  0
   -5.1890   25.2550  -30.4620 C   0  0  0  0  0  0  0  0  0  0  0  0
   -3.8740   25.6680  -30.8270 N   0  0  0  0  0  0  0  0  0  0  0  0
   -5.8620   25.9690  -29.6750 O   0  0  0  0  0  0  0  0  0  0  0  0
   -4.9970   22.9300  -31.4580 N   0  0  0  0  0  0  0  0  0  0  0  0
   -3.5670   22.7690  -31.4460 C   0  0  0  0  0  0  0  0  0  0  0  0
   -2.9110   23.0830  -30.4190 O   0  0  0  0  0  0  0  0  0  0  0  0
   -2.9140   22.2870  -32.5900 O   0  0  0  0  0  0  0  0  0  0  0  0
   -2.1470   21.0750  -32.6840 C   0  0  0  0  0  0  0  0  0  0  0  0
   -2.2620   20.3580  -31.3260 C   0  0  0  0  0  0  0  0  0  0  0  0
   -2.7520   20.1620  -33.7680 C   0  0  0  0  0  0  0  0  0  0  0  0
   -0.6520   21.3500  -33.0040 C   0  0  0  0  0  0  0  0  0  0  0  0
   -0.3770   21.4760  -34.4760 C   0  0  0  0  0  0  0  0  0  0  0  0
    0.4660   22.2580  -34.8850 O   0  0  0  0  0  0  0  0  0  0  0  0
   -5.9060   22.0140  -31.8680 C   0  0  0  0  0  0  0  0  0  0  0  0
   -5.6780   20.7340  -32.3920 C   0  0  0  0  0  0  0  0  0  0  0  0
   -7.1762   17.5237  -31.5656 H   0  0  0  0  0  0  0  0  0  0  0  0
   -8.2820   17.3661  -32.9724 H   0  0  0  0  0  0  0  0  0  0  0  0
   -6.7013   16.5128  -32.9724 H   0  0  0  0  0  0  0  0  0  0  0  0
   -4.7417   18.1489  -34.1816 H   0  0  0  0  0  0  0  0  0  0  0  0
   -6.1840   17.5718  -35.0834 H   0  0  0  0  0  0  0  0  0  0  0  0
   -5.7643   19.3183  -35.0834 H   0  0  0  0  0  0  0  0  0  0  0  0
   -8.9741   19.8227  -32.7873 H   0  0  0  0  0  0  0  0  0  0  0  0
   -9.3136   22.1038  -31.7980 H   0  0  0  0  0  0  0  0  0  0  0  0
   -7.9203   24.3691  -30.7754 H   0  0  0  0  0  0  0  0  0  0  0  0
   -3.0350   25.2550  -30.3630 H   0  0  0  0  0  0  0  0  0  0  0  0
   -2.1445   21.0903  -30.5136 H   0  0  0  0  0  0  0  0  0  0  0  0
   -3.2486   19.8780  -31.2472 H   0  0  0  0  0  0  0  0  0  0  0  0
   -1.4750   19.5935  -31.2472 H   0  0  0  0  0  0  0  0  0  0  0  0
   -3.2989   19.3366  -33.2888 H   0  0  0  0  0  0  0  0  0  0  0  0
   -3.4432   20.7449  -34.3945 H   0  0  0  0  0  0  0  0  0  0  0  0
   -1.9458   19.7527  -34.3945 H   0  0  0  0  0  0  0  0  0  0  0  0
   -0.3553   22.2875  -32.5111 H   0  0  0  0  0  0  0  0  0  0  0  0
   -0.0743   20.4896  -32.6352 H   0  0  0  0  0  0  0  0  0  0  0  0
   -0.9403   20.8582  -35.1909 H   0  0  0  0  0  0  0  0  0  0  0  0
   -4.6521   20.3640  -32.5358 H   0  0  0  0  0  0  0  0  0  0  0  0
  1  2  1  0
  2  3  1  0
  2  4  1  0
  4  5  2  0
  5  6  1  0
  6  7  2  0
  7  8  1  0
  8  9  2  0
  9 10  1  0
 10 11  1  0
 10 12  2  0
  9 13  1  0
 13 14  1  0
 14 15  2  0
 14 16  1  0
 16 17  1  0
 17 18  1  0
 17 19  1  0
 17 20  1  0
 20 21  1  0
 21 22  2  0
 13 23  1  0
 23 24  2  0
 24  4  1  0
 23  7  1  0
  1 25  1  0
  1 26  1  0
  1 27  1  0
  3 28  1  0
  3 29  1  0
  3 30  1  0
  5 31  1  0
  6 32  1  0
  8 33  1  0
 11 34  1  0
 18 35  1  0
 18 36  1  0
 18 37  1  0
 19 38  1  0
 19 39  1  0
 19 40  1  0
 20 41  1  0
 20 42  1  0
 21 43  1  0
 24 44  1  0
M  CHG  1  11  -1
M  END
>  <UniqueID>  (21) 
21

>  <SMILES>  (21) 
CN(C)c1ccc2cc(C([NH-])=O)n(C(=O)OC(C)(C)CC=O)c2c1

>  <Energy>  (21) 
79.74265780493592

>  <Genealogy>  (21) 
CN(C)c1ccc2cc(C([NH-])=O)n(C(=O)OC(C)(C)CC=O)c2c1 (protonated)
CN(C)c1ccc2cc(C([NH-])=O)n(C(=O)OC(C)(C)CC=O)c2c1 (3D coordinates assigned)
CN(C)c1ccc2cc(C([NH-])=O)n(C(=O)OC(C)(C)CC=O)c2c1 (optimized conformer: 79.74265780493592 kcal/mol)

>  <smiles>  (21) 
CN(C)c1ccc2cc(C(N)=O)n(C(=O)OC(C)(C)CC=O)c2c1

>  <score_type>  (21) 
oracle

>  <origin>  (21) 
adg

>  <m_score__min__energy>  (21) 
-10.73

>  <m_primary>  (21) 
energy

$$$$
21:0
     RDKit          3D

 54 55  0  0  0  0  0  0  0  0999 V2000
   -6.4720   16.4250  -34.0110 C   0  0  0  0  0  0  0  0  0  0  0  0
   -5.4230   16.7920  -32.9630 C   0  0  0  0  0  0  0  0  0  0  0  0
   -4.6770   18.0270  -33.2930 N   0  0  0  0  0  0  0  0  0  0  0  0
   -3.6210   17.9750  -34.3250 C   0  0  0  0  0  0  0  0  0  0  0  0
   -2.2810   18.5150  -33.7910 C   0  0  0  0  0  0  0  0  0  0  0  0
   -2.0420   19.9670  -34.2560 C   0  0  0  0  0  0  0  0  0  0  0  0
   -0.7890   20.5800  -33.7480 N   0  0  1  0  0  0  0  0  0  0  0  0
    0.0260   19.6690  -32.9190 C   0  0  0  0  0  0  0  0  0  0  0  0
   -0.0080   21.1600  -34.8180 C   0  0  0  0  0  0  0  0  0  0  0  0
    0.6440   22.2270  -34.6450 O   0  0  0  0  0  0  0  0  0  0  0  0
    0.0400   20.5290  -36.0570 O   0  0  0  0  0  0  0  0  0  0  0  0
   -5.1930   19.3250  -32.8710 C   0  0  0  0  0  0  0  0  0  0  0  0
   -6.5470   19.6860  -33.1250 C   0  0  0  0  0  0  0  0  0  0  0  0
   -7.0550   20.9370  -32.7380 C   0  0  0  0  0  0  0  0  0  0  0  0
   -6.2020   21.8130  -32.0830 C   0  0  0  0  0  0  0  0  0  0  0  0
   -6.4240   23.0990  -31.6440 C   0  0  0  0  0  0  0  0  0  0  0  0
   -5.2130   23.5110  -31.0940 C   0  0  0  0  0  0  0  0  0  0  0  0
   -5.0090   24.8340  -30.4680 C   0  0  0  0  0  0  0  0  0  0  0  0
   -3.8840   25.6390  -30.8110 N   0  0  0  0  0  0  0  0  0  0  0  0
   -5.8220   25.2460  -29.6000 O   0  0  0  0  0  0  0  0  0  0  0  0
   -4.2820   22.5210  -31.1890 N   0  0  0  0  0  0  0  0  0  0  0  0
   -2.8830   22.6110  -30.8730 C   0  0  0  0  0  0  0  0  0  0  0  0
   -2.0730   21.7700  -31.3500 O   0  0  0  0  0  0  0  0  0  0  0  0
   -2.4300   23.6410  -30.0420 O   0  0  0  0  0  0  0  0  0  0  0  0
   -2.5450   23.5930  -28.6220 C   0  0  0  0  0  0  0  0  0  0  0  0
   -2.2220   24.9590  -28.0310 C   0  0  0  0  0  0  0  0  0  0  0  0
   -1.5240   25.7320  -28.9700 O   0  0  0  0  0  0  0  0  0  0  0  0
   -4.9040   21.4870  -31.7960 C   0  0  0  0  0  0  0  0  0  0  0  0
   -4.3660   20.2510  -32.1740 C   0  0  0  0  0  0  0  0  0  0  0  0
   -7.3954   16.1019  -33.5080 H   0  0  0  0  0  0  0  0  0  0  0  0
   -6.6846   17.3021  -34.6398 H   0  0  0  0  0  0  0  0  0  0  0  0
   -6.0914   15.6066  -34.6398 H   0  0  0  0  0  0  0  0  0  0  0  0
   -5.9293   16.9368  -31.9972 H   0  0  0  0  0  0  0  0  0  0  0  0
   -4.6940   15.9690  -32.9278 H   0  0  0  0  0  0  0  0  0  0  0  0
   -3.4840   16.9311  -34.6436 H   0  0  0  0  0  0  0  0  0  0  0  0
   -3.9341   18.6052  -35.1705 H   0  0  0  0  0  0  0  0  0  0  0  0
   -2.2953   18.4877  -32.6914 H   0  0  0  0  0  0  0  0  0  0  0  0
   -1.4693   17.8846  -34.1830 H   0  0  0  0  0  0  0  0  0  0  0  0
   -2.0061   19.9737  -35.3554 H   0  0  0  0  0  0  0  0  0  0  0  0
   -2.8698   20.5655  -33.8478 H   0  0  0  0  0  0  0  0  0  0  0  0
   -1.0850   21.3650  -33.1220 H   0  0  0  0  0  0  0  0  0  0  0  0
   -0.1598   19.8767  -31.8549 H   0  0  0  0  0  0  0  0  0  0  0  0
   -0.2470   18.6271  -33.1423 H   0  0  0  0  0  0  0  0  0  0  0  0
    1.0918   19.8248  -33.1423 H   0  0  0  0  0  0  0  0  0  0  0  0
   -7.2087   18.9703  -33.6348 H   0  0  0  0  0  0  0  0  0  0  0  0
   -8.0986   21.2139  -32.9482 H   0  0  0  0  0  0  0  0  0  0  0  0
   -7.3575   23.6768  -31.7130 H   0  0  0  0  0  0  0  0  0  0  0  0
   -2.9130   25.3110  -30.6020 H   0  0  0  0  0  0  0  0  0  0  0  0
   -3.5723   23.3105  -28.3483 H   0  0  0  0  0  0  0  0  0  0  0  0
   -1.8377   22.8497  -28.2256 H   0  0  0  0  0  0  0  0  0  0  0  0
   -3.1578   25.4702  -27.7610 H   0  0  0  0  0  0  0  0  0  0  0  0
   -1.5983   24.8276  -27.1345 H   0  0  0  0  0  0  0  0  0  0  0  0
   -2.0500   25.6770  -29.8100 H   0  0  0  0  0  0  0  0  0  0  0  0
   -3.3218   19.9995  -31.9365 H   0  0  0  0  0  0  0  0  0  0  0  0
  1  2  1  0
  2  3  1  0
  3  4  1  0
  4  5  1  0
  5  6  1  0
  6  7  1  0
  7  8  1  0
  7  9  1  0
  9 10  2  0
  9 11  1  0
  3 12  1  0
 12 13  2  0
 13 14  1  0
 14 15  2  0
 15 16  1  0
 16 17  2  0
 17 18  1  0
 18 19  1  0
 18 20  2  0
 17 21  1  0
 21 22  1  0
 22 23  2  0
 22 24  1  0
 24 25  1  0
 25 26  1  0
 26 27  1  0
 21 28  1  0
 28 29  2  0
 29 12  1  0
 28 15  1  0
  1 30  1  0
  1 31  1  0
  1 32  1  0
  2 33  1  0
  2 34  1  0
  4 35  1  0
  4 36  1  0
  5 37  1  0
  5 38  1  0
  6 39  1  0
  6 40  1  0
  7 41  1  1
  8 42  1  0
  8 43  1  0
  8 44  1  0
 13 45  1  0
 14 46  1  0
 16 47  1  0
 19 48  1  0
 25 49  1  0
 25 50  1  0
 26 51  1  0
 26 52  1  0
 27 53  1  0
 29 54  1  0
M  CHG  3   7   1  11  -1  19  -1
M  END
>  <UniqueID>  (22) 
22

>  <SMILES>  (22) 
CCN(CCC[N@@H+](C)C(=O)[O-])c1ccc2cc(C([NH-])=O)n(C(=O)OCCO)c2c1

>  <Energy>  (22) 
94.10911768712313

>  <Genealogy>  (22) 
CCN(CCC[NH+](C)C(=O)[O-])c1ccc2cc(C([NH-])=O)n(C(=O)OCCO)c2c1 (protonated)
CCN(CCC[N@@H+](C)C(=O)[O-])c1ccc2cc(C([NH-])=O)n(C(=O)OCCO)c2c1 (chirality)
CCN(CCC[N@@H+](C)C(=O)[O-])c1ccc2cc(C([NH-])=O)n(C(=O)OCCO)c2c1 (3D coordinates assigned)
CCN(CCC[N@@H+](C)C(=O)[O-])c1ccc2cc(C([NH-])=O)n(C(=O)OCCO)c2c1 (optimized conformer: 94.10911768712313 kcal/mol)

>  <smiles>  (22) 
CCN(CCCN(C)C(=O)O)c1ccc2cc(C(N)=O)n(C(=O)OCCO)c2c1

>  <score_type>  (22) 
oracle

>  <origin>  (22) 
adg

>  <m_score__min__energy>  (22) 
-10.390000000000001

>  <m_primary>  (22) 
energy

$$$$
22:0
     RDKit          3D

 42 43  0  0  0  0  0  0  0  0999 V2000
   -5.8860   18.0500  -32.4560 C   0  0  0  0  0  0  0  0  0  0  0  0
   -6.1880   19.5010  -32.2260 C   0  0  0  0  0  0  0  0  0  0  0  0
   -7.4820   20.0080  -32.5000 C   0  0  0  0  0  0  0  0  0  0  0  0
   -7.7910   21.3540  -32.2440 C   0  0  0  0  0  0  0  0  0  0  0  0
   -6.7920   22.1640  -31.7120 C   0  0  0  0  0  0  0  0  0  0  0  0
   -6.8290   23.4890  -31.3400 C   0  0  0  0  0  0  0  0  0  0  0  0
   -5.5550   23.7710  -30.8520 C   0  0  0  0  0  0  0  0  0  0  0  0
   -5.1300   25.1190  -30.4200 C   0  0  0  0  0  0  0  0  0  0  0  0
   -3.8820   25.6620  -30.8400 N   0  0  0  0  0  0  0  0  0  0  0  0
   -5.9010   25.8190  -29.7100 O   0  0  0  0  0  0  0  0  0  0  0  0
   -4.7650   22.6620  -30.9110 N   0  0  0  0  0  0  0  0  0  0  0  0
   -3.4250   22.5090  -30.4170 C   0  0  0  0  0  0  0  0  0  0  0  0
   -2.4950   23.2160  -30.8930 O   0  0  0  0  0  0  0  0  0  0  0  0
   -3.1420   21.5350  -29.4070 N   0  0  0  0  0  0  0  0  0  0  0  0
   -3.1100   21.8350  -27.9800 C   0  0  0  0  0  0  0  0  0  0  0  0
   -1.7130   21.5640  -27.4090 C   0  0  0  0  0  0  0  0  0  0  0  0
   -0.5910   21.9350  -28.3920 C   0  0  0  0  0  0  0  0  0  0  0  0
    0.3130   23.0620  -27.8650 C   0  0  0  0  0  0  0  0  0  0  0  0
    0.1770   24.2400  -28.6400 O   0  0  0  0  0  0  0  0  0  0  0  0
   -1.0300   24.9200  -28.3500 C   0  0  0  0  0  0  0  0  0  0  0  0
   -1.2210   25.9530  -29.2760 O   0  0  0  0  0  0  0  0  0  0  0  0
   -5.5340   21.6890  -31.4430 C   0  0  0  0  0  0  0  0  0  0  0  0
   -5.2030   20.3470  -31.6710 C   0  0  0  0  0  0  0  0  0  0  0  0
   -5.7798   17.5396  -31.4874 H   0  0  0  0  0  0  0  0  0  0  0  0
   -6.7077   17.5901  -33.0246 H   0  0  0  0  0  0  0  0  0  0  0  0
   -4.9491   17.9561  -33.0246 H   0  0  0  0  0  0  0  0  0  0  0  0
   -8.2516   19.3417  -32.9169 H   0  0  0  0  0  0  0  0  0  0  0  0
   -8.7924   21.7559  -32.4575 H   0  0  0  0  0  0  0  0  0  0  0  0
   -7.6830   24.1785  -31.4127 H   0  0  0  0  0  0  0  0  0  0  0  0
   -2.9810   25.2940  -30.4610 H   0  0  0  0  0  0  0  0  0  0  0  0
   -3.3655   22.8938  -27.8262 H   0  0  0  0  0  0  0  0  0  0  0  0
   -3.8379   21.1921  -27.4634 H   0  0  0  0  0  0  0  0  0  0  0  0
   -1.5868   22.1560  -26.4905 H   0  0  0  0  0  0  0  0  0  0  0  0
   -1.6380   20.4849  -27.2094 H   0  0  0  0  0  0  0  0  0  0  0  0
    0.0275   21.0434  -28.5725 H   0  0  0  0  0  0  0  0  0  0  0  0
   -1.0658   22.2955  -29.3165 H   0  0  0  0  0  0  0  0  0  0  0  0
    0.0367   23.2849  -26.8239 H   0  0  0  0  0  0  0  0  0  0  0  0
    1.3582   22.7251  -27.9284 H   0  0  0  0  0  0  0  0  0  0  0  0
   -1.8715   24.2141  -28.4102 H   0  0  0  0  0  0  0  0  0  0  0  0
   -0.9765   25.3433  -27.3361 H   0  0  0  0  0  0  0  0  0  0  0  0
   -1.9960   25.6840  -29.8350 H   0  0  0  0  0  0  0  0  0  0  0  0
   -4.2024   19.9625  -31.4242 H   0  0  0  0  0  0  0  0  0  0  0  0
  1  2  1  0
  2  3  2  0
  3  4  1  0
  4  5  2  0
  5  6  1  0
  6  7  2  0
  7  8  1  0
  8  9  1  0
  8 10  2  0
  7 11  1  0
 11 12  1  0
 12 13  2  0
 12 14  1  0
 14 15  1  0
 15 16  1  0
 16 17  1  0
 17 18  1  0
 18 19  1  0
 19 20  1  0
 20 21  1  0
 11 22  1  0
 22 23  2  0
 23  2  1  0
 22  5  1  0
  1 24  1  0
  1 25  1  0
  1 26  1  0
  3 27  1  0
  4 28  1  0
  6 29  1  0
  9 30  1  0
 15 31  1  0
 15 32  1  0
 16 33  1  0
 16 34  1  0
 17 35  1  0
 17 36  1  0
 18 37  1  0
 18 38  1  0
 20 39  1  0
 20 40  1  0
 21 41  1  0
 23 42  1  0
M  CHG  2   9  -1  14  -1
M  END
>  <UniqueID>  (23) 
23

>  <SMILES>  (23) 
Cc1ccc2cc(C([NH-])=O)n(C(=O)[N-]CCCCOCO)c2c1

>  <Energy>  (23) 
77.49218444495071

>  <Genealogy>  (23) 
Cc1ccc2cc(C([NH-])=O)n(C(=O)[N-]CCCCOCO)c2c1 (protonated)
Cc1ccc2cc(C([NH-])=O)n(C(=O)[N-]CCCCOCO)c2c1 (3D coordinates assigned)
Cc1ccc2cc(C([NH-])=O)n(C(=O)[N-]CCCCOCO)c2c1 (optimized conformer: 77.49218444495071 kcal/mol)

>  <smiles>  (23) 
Cc1ccc2cc(C(N)=O)n(C(=O)NCCCCOCO)c2c1

>  <score_type>  (23) 
oracle

>  <origin>  (23) 
adg

>  <m_score__min__energy>  (23) 
-10.949999999999999

>  <m_primary>  (23) 
energy

$$$$
23:0
     RDKit          3D

 40 41  0  0  0  0  0  0  0  0999 V2000
   -6.8540   17.1510  -32.3660 C   0  0  0  0  0  0  0  0  0  0  0  0
   -6.5700   18.3120  -33.2200 N   0  0  0  0  0  0  0  0  0  0  0  0
   -6.0500   18.0860  -34.5800 C   0  0  0  0  0  0  0  0  0  0  0  0
   -4.5550   18.0100  -34.5690 C   0  0  0  0  0  0  0  0  0  0  0  0
   -3.9710   16.9430  -34.8910 O   0  0  0  0  0  0  0  0  0  0  0  0
   -3.8070   19.1250  -34.2140 O   0  0  0  0  0  0  0  0  0  0  0  0
   -6.7930   19.6540  -32.7120 C   0  0  0  0  0  0  0  0  0  0  0  0
   -8.1080   20.1980  -32.6620 C   0  0  0  0  0  0  0  0  0  0  0  0
   -8.3390   21.4910  -32.1640 C   0  0  0  0  0  0  0  0  0  0  0  0
   -7.2430   22.2290  -31.7310 C   0  0  0  0  0  0  0  0  0  0  0  0
   -7.1850   23.4910  -31.1810 C   0  0  0  0  0  0  0  0  0  0  0  0
   -5.8340   23.7190  -30.9200 C   0  0  0  0  0  0  0  0  0  0  0  0
   -5.2860   24.9790  -30.3680 C   0  0  0  0  0  0  0  0  0  0  0  0
   -3.8790   25.1540  -30.1910 N   0  0  0  0  0  0  0  0  0  0  0  0
   -6.0640   25.9100  -30.0300 O   0  0  0  0  0  0  0  0  0  0  0  0
   -5.0910   22.6420  -31.3040 N   0  0  0  0  0  0  0  0  0  0  0  0
   -3.6730   22.4650  -31.1620 C   0  0  0  0  0  0  0  0  0  0  0  0
   -2.9150   22.6900  -32.1440 O   0  0  0  0  0  0  0  0  0  0  0  0
   -3.0930   22.0150  -29.8890 C   0  0  0  0  0  0  0  0  0  0  0  0
   -3.2350   20.8180  -29.5210 O   0  0  0  0  0  0  0  0  0  0  0  0
   -2.3740   22.9190  -29.1020 O   0  0  0  0  0  0  0  0  0  0  0  0
   -1.0470   23.3240  -29.4190 C   0  0  0  0  0  0  0  0  0  0  0  0
   -0.8370   24.7260  -28.9560 C   0  0  0  0  0  0  0  0  0  0  0  0
   -1.6070   25.6430  -29.3440 O   0  0  0  0  0  0  0  0  0  0  0  0
    0.2430   25.0330  -28.1370 O   0  0  0  0  0  0  0  0  0  0  0  0
   -5.9690   21.7380  -31.7890 C   0  0  0  0  0  0  0  0  0  0  0  0
   -5.7090   20.4450  -32.2550 C   0  0  0  0  0  0  0  0  0  0  0  0
   -6.7816   17.4469  -31.3090 H   0  0  0  0  0  0  0  0  0  0  0  0
   -7.8689   16.7818  -32.5747 H   0  0  0  0  0  0  0  0  0  0  0  0
   -6.1241   16.3550  -32.5747 H   0  0  0  0  0  0  0  0  0  0  0  0
   -6.4567   17.1412  -34.9697 H   0  0  0  0  0  0  0  0  0  0  0  0
   -6.3567   18.9264  -35.2201 H   0  0  0  0  0  0  0  0  0  0  0  0
   -8.9566   19.5960  -33.0191 H   0  0  0  0  0  0  0  0  0  0  0  0
   -9.3562   21.9071  -32.1180 H   0  0  0  0  0  0  0  0  0  0  0  0
   -8.0257   24.1738  -30.9886 H   0  0  0  0  0  0  0  0  0  0  0  0
   -3.1920   24.4400  -30.5170 H   0  0  0  0  0  0  0  0  0  0  0  0
   -3.5130   26.0350  -29.7650 H   0  0  0  0  0  0  0  0  0  0  0  0
   -0.3296   22.6592  -28.9157 H   0  0  0  0  0  0  0  0  0  0  0  0
   -0.8940   23.2678  -30.5069 H   0  0  0  0  0  0  0  0  0  0  0  0
   -4.6827   20.0494  -32.2666 H   0  0  0  0  0  0  0  0  0  0  0  0
  1  2  1  0
  2  3  1  0
  3  4  1  0
  4  5  2  0
  4  6  1  0
  2  7  1  0
  7  8  2  0
  8  9  1  0
  9 10  2  0
 10 11  1  0
 11 12  2  0
 12 13  1  0
 13 14  1  0
 13 15  2  0
 12 16  1  0
 16 17  1  0
 17 18  2  0
 17 19  1  0
 19 20  2  0
 19 21  1  0
 21 22  1  0
 22 23  1  0
 23 24  2  0
 23 25  1  0
 16 26  1  0
 26 27  2  0
 27  7  1  0
 26 10  1  0
  1 28  1  0
  1 29  1  0
  1 30  1  0
  3 31  1  0
  3 32  1  0
  8 33  1  0
  9 34  1  0
 11 35  1  0
 14 36  1  0
 14 37  1  0
 22 38  1  0
 22 39  1  0
 27 40  1  0
M  CHG  2   6  -1  25  -1
M  END
>  <UniqueID>  (24) 
24

>  <SMILES>  (24) 
CN(CC(=O)[O-])c1ccc2cc(C(N)=O)n(C(=O)C(=O)OCC(=O)[O-])c2c1

>  <Energy>  (24) 
76.86485267112703

>  <Genealogy>  (24) 
CN(CC(=O)[O-])c1ccc2cc(C(N)=O)n(C(=O)C(=O)OCC(=O)[O-])c2c1 (protonated)
CN(CC(=O)[O-])c1ccc2cc(C(N)=O)n(C(=O)C(=O)OCC(=O)[O-])c2c1 (3D coordinates assigned)
CN(CC(=O)[O-])c1ccc2cc(C(N)=O)n(C(=O)C(=O)OCC(=O)[O-])c2c1 (optimized conformer: 76.86485267112703 kcal/mol)

>  <smiles>  (24) 
CN(CC(=O)O)c1ccc2cc(C(N)=O)n(C(=O)C(=O)OCC(=O)O)c2c1

>  <score_type>  (24) 
oracle

>  <origin>  (24) 
adg

>  <m_score__min__energy>  (24) 
-10.81

>  <m_primary>  (24) 
energy

$$$$
24:0
     RDKit          3D

 57 60  0  0  0  0  0  0  0  0999 V2000
   -3.5440   24.9210  -30.4720 N   0  0  0  0  0  0  0  0  0  0  0  0
   -4.9330   25.1680  -30.6730 C   0  0  0  0  0  0  0  0  0  0  0  0
   -5.3680   26.3480  -30.5940 O   0  0  0  0  0  0  0  0  0  0  0  0
   -5.8540   24.0390  -30.9200 C   0  0  0  0  0  0  0  0  0  0  0  0
   -7.2340   24.1870  -31.0360 C   0  0  0  0  0  0  0  0  0  0  0  0
   -7.7100   22.9350  -31.3580 C   0  0  0  0  0  0  0  0  0  0  0  0
   -9.0120   22.5050  -31.5940 C   0  0  0  0  0  0  0  0  0  0  0  0
   -9.2130   21.1470  -31.8970 C   0  0  0  0  0  0  0  0  0  0  0  0
   -8.1180   20.2490  -31.9390 C   0  0  0  0  0  0  0  0  0  0  0  0
   -8.3380   18.8070  -32.3090 C   0  0  0  0  0  0  0  0  0  0  0  0
   -7.1550   18.2510  -33.1130 C   0  0  0  0  0  0  0  0  0  0  0  0
   -6.2350   17.5720  -32.2760 O   0  0  0  0  0  0  0  0  0  0  0  0
   -4.9080   17.6500  -32.7700 C   0  0  1  0  0  0  0  0  0  0  0  0
   -4.8580   16.9870  -34.1620 C   0  0  0  0  0  0  0  0  0  0  0  0
   -3.4360   17.0410  -34.7380 C   0  0  0  0  0  0  0  0  0  0  0  0
   -2.6480   18.2430  -34.2020 C   0  0  0  0  0  0  0  0  0  0  0  0
   -3.6020   19.3800  -33.8050 C   0  0  0  0  0  0  0  0  0  0  0  0
   -4.5330   19.0250  -32.7890 O   0  0  0  0  0  0  0  0  0  0  0  0
   -6.8110   20.7230  -31.6950 C   0  0  0  0  0  0  0  0  0  0  0  0
   -6.6370   22.0830  -31.4200 C   0  0  0  0  0  0  0  0  0  0  0  0
   -5.4890   22.7460  -31.1520 N   0  0  0  0  0  0  0  0  0  0  0  0
   -4.1770   22.1710  -31.0460 C   0  0  0  0  0  0  0  0  0  0  0  0
   -3.8680   21.5000  -30.0240 O   0  0  0  0  0  0  0  0  0  0  0  0
   -3.2480   22.3780  -32.0760 O   0  0  0  0  0  0  0  0  0  0  0  0
   -1.9440   21.8660  -32.0980 C   0  0  0  0  0  0  0  0  0  0  0  0
   -1.5250   21.2010  -33.0860 O   0  0  0  0  0  0  0  0  0  0  0  0
   -1.0730   22.0370  -30.8780 C   0  0  2  0  0  0  0  0  0  0  0  0
   -1.1090   20.8200  -29.9630 C   0  0  0  0  0  0  0  0  0  0  0  0
   -0.8170   21.3790  -28.5850 C   0  0  0  0  0  0  0  0  0  0  0  0
   -0.9440   22.8940  -28.7240 C   0  0  0  0  0  0  0  0  0  0  0  0
   -1.4690   23.1850  -30.0590 N   0  0  0  0  0  0  0  0  0  0  0  0
   -3.0130   24.2930  -31.1150 H   0  0  0  0  0  0  0  0  0  0  0  0
   -7.8196   25.1081  -30.8995 H   0  0  0  0  0  0  0  0  0  0  0  0
   -9.8582   23.2061  -31.5450 H   0  0  0  0  0  0  0  0  0  0  0  0
  -10.2288   20.7786  -32.1032 H   0  0  0  0  0  0  0  0  0  0  0  0
   -8.4560   18.2151  -31.3894 H   0  0  0  0  0  0  0  0  0  0  0  0
   -9.2422   18.7425  -32.9321 H   0  0  0  0  0  0  0  0  0  0  0  0
   -7.5350   17.5496  -33.8703 H   0  0  0  0  0  0  0  0  0  0  0  0
   -6.6330   19.0941  -33.5891 H   0  0  0  0  0  0  0  0  0  0  0  0
   -4.1900   17.1118  -32.1338 H   0  0  0  0  0  0  0  0  0  0  0  0
   -5.1719   15.9365  -34.0731 H   0  0  0  0  0  0  0  0  0  0  0  0
   -5.5341   17.5315  -34.8376 H   0  0  0  0  0  0  0  0  0  0  0  0
   -2.9057   16.1171  -34.4638 H   0  0  0  0  0  0  0  0  0  0  0  0
   -3.5139   17.1437  -35.8304 H   0  0  0  0  0  0  0  0  0  0  0  0
   -2.0692   17.9318  -33.3198 H   0  0  0  0  0  0  0  0  0  0  0  0
   -1.9726   18.6053  -34.9911 H   0  0  0  0  0  0  0  0  0  0  0  0
   -2.9999   20.2262  -33.4424 H   0  0  0  0  0  0  0  0  0  0  0  0
   -4.1885   19.6313  -34.7010 H   0  0  0  0  0  0  0  0  0  0  0  0
   -5.9499   20.0389  -31.7206 H   0  0  0  0  0  0  0  0  0  0  0  0
   -0.0622   22.1862  -31.2855 H   0  0  0  0  0  0  0  0  0  0  0  0
   -2.0998   20.3428  -29.9880 H   0  0  0  0  0  0  0  0  0  0  0  0
   -0.3876   20.0462  -30.2642 H   0  0  0  0  0  0  0  0  0  0  0  0
   -1.5446   20.9978  -27.8534 H   0  0  0  0  0  0  0  0  0  0  0  0
    0.1809   21.0842  -28.2281 H   0  0  0  0  0  0  0  0  0  0  0  0
   -1.6330   23.2822  -27.9595 H   0  0  0  0  0  0  0  0  0  0  0  0
    0.0367   23.3731  -28.5870 H   0  0  0  0  0  0  0  0  0  0  0  0
   -2.5150   23.1990  -29.9760 H   0  0  0  0  0  0  0  0  0  0  0  0
  1  2  1  0
  2  3  2  0
  2  4  1  0
  4  5  2  0
  5  6  1  0
  6  7  2  0
  7  8  1  0
  8  9  2  0
  9 10  1  0
 10 11  1  0
 11 12  1  0
 12 13  1  0
 13 14  1  0
 14 15  1  0
 15 16  1  0
 16 17  1  0
 17 18  1  0
  9 19  1  0
 19 20  2  0
 20 21  1  0
 21 22  1  0
 22 23  2  0
 22 24  1  0
 24 25  1  0
 25 26  2  0
 25 27  1  0
 27 28  1  0
 28 29  1  0
 29 30  1  0
 30 31  1  0
 21  4  1  0
 31 27  1  0
 20  6  1  0
 18 13  1  0
  1 32  1  0
  5 33  1  0
  7 34  1  0
  8 35  1  0
 10 36  1  0
 10 37  1  0
 11 38  1  0
 11 39  1  0
 13 40  1  1
 14 41  1  0
 14 42  1  0
 15 43  1  0
 15 44  1  0
 16 45  1  0
 16 46  1  0
 17 47  1  0
 17 48  1  0
 19 49  1  0
 27 50  1  6
 28 51  1  0
 28 52  1  0
 29 53  1  0
 29 54  1  0
 30 55  1  0
 30 56  1  0
 31 57  1  0
M  CHG  1   1  -1
M  END
>  <UniqueID>  (25) 
25

>  <SMILES>  (25) 
[NH-]C(=O)c1cc2ccc(CCO[C@H]3CCCCO3)cc2n1C(=O)OC(=O)[C@@H]1CCCN1

>  <Energy>  (25) 
109.24882866162008

>  <Genealogy>  (25) 
[NH-]C(=O)c1cc2ccc(CCOC3CCCCO3)cc2n1C(=O)OC(=O)C1CCCN1 (protonated)
[NH-]C(=O)c1cc2ccc(CCO[C@H]3CCCCO3)cc2n1C(=O)OC(=O)[C@@H]1CCCN1 (chirality)
[NH-]C(=O)c1cc2ccc(CCO[C@H]3CCCCO3)cc2n1C(=O)OC(=O)[C@@H]1CCCN1 (3D coordinates assigned)
[NH-]C(=O)c1cc2ccc(CCO[C@H]3CCCCO3)cc2n1C(=O)OC(=O)[C@@H]1CCCN1 (nonaromatic ring conformer: 109.24882866162008 kcal/mol)

>  <smiles>  (25) 
NC(=O)c1cc2ccc(CCOC3CCCCO3)cc2n1C(=O)OC(=O)C1CCCN1

>  <score_type>  (25) 
oracle

>  <origin>  (25) 
adg

>  <m_score__min__energy>  (25) 
-11.640000000000001

>  <m_primary>  (25) 
energy

$$$$
25:0
     RDKit          3D

 47 48  0  0  0  0  0  0  0  0999 V2000
   -6.8630   18.4180  -32.7650 C   0  0  0  0  0  0  0  0  0  0  0  0
   -7.0240   19.8590  -32.3840 C   0  0  0  0  0  0  0  0  0  0  0  0
   -8.3150   20.4430  -32.3450 C   0  0  0  0  0  0  0  0  0  0  0  0
   -8.4840   21.7790  -31.9430 C   0  0  0  0  0  0  0  0  0  0  0  0
   -7.3480   22.5010  -31.5840 C   0  0  0  0  0  0  0  0  0  0  0  0
   -7.2260   23.7930  -31.1260 C   0  0  0  0  0  0  0  0  0  0  0  0
   -5.8640   23.9770  -30.8950 C   0  0  0  0  0  0  0  0  0  0  0  0
   -5.2760   25.2520  -30.4320 C   0  0  0  0  0  0  0  0  0  0  0  0
   -3.9830   25.6670  -30.8680 N   0  0  0  0  0  0  0  0  0  0  0  0
   -5.9340   25.9990  -29.6610 O   0  0  0  0  0  0  0  0  0  0  0  0
   -5.1720   22.8440  -31.2030 N   0  0  0  0  0  0  0  0  0  0  0  0
   -3.7680   22.5990  -31.0340 C   0  0  0  0  0  0  0  0  0  0  0  0
   -3.0370   22.4390  -32.0480 O   0  0  0  0  0  0  0  0  0  0  0  0
   -3.1710   22.5310  -29.6940 C   0  0  0  0  0  0  0  0  0  0  0  0
   -2.8700   21.4130  -29.1940 O   0  0  0  0  0  0  0  0  0  0  0  0
   -2.9310   23.7120  -28.9880 O   0  0  0  0  0  0  0  0  0  0  0  0
   -2.8590   23.7590  -27.5630 C   0  0  0  0  0  0  0  0  0  0  0  0
   -1.4840   24.3190  -27.1040 C   0  0  1  0  0  0  0  0  0  0  0  0
   -0.7490   24.7420  -28.3750 C   0  0  0  0  0  0  0  0  0  0  0  0
   -1.3550   25.6640  -29.2810 N   0  0  0  0  0  0  0  0  0  0  0  0
    0.4330   24.3620  -28.5920 O   0  0  0  0  0  0  0  0  0  0  0  0
   -1.6910   25.5240  -26.1900 C   0  0  0  0  0  0  0  0  0  0  0  0
   -2.7770   25.6870  -25.5700 O   0  0  0  0  0  0  0  0  0  0  0  0
   -0.6560   26.4290  -25.9740 O   0  0  0  0  0  0  0  0  0  0  0  0
   -0.6620   23.2040  -26.3490 C   0  0  0  0  0  0  0  0  0  0  0  0
   -1.2650   21.7910  -26.4810 C   0  0  0  0  0  0  0  0  0  0  0  0
   -0.4560   23.5200  -24.8520 C   0  0  0  0  0  0  0  0  0  0  0  0
   -6.0940   21.9490  -31.6180 C   0  0  0  0  0  0  0  0  0  0  0  0
   -5.8980   20.6160  -31.9950 C   0  0  0  0  0  0  0  0  0  0  0  0
   -6.7944   17.8036  -31.8551 H   0  0  0  0  0  0  0  0  0  0  0  0
   -7.7308   18.0968  -33.3597 H   0  0  0  0  0  0  0  0  0  0  0  0
   -5.9457   18.2963  -33.3597 H   0  0  0  0  0  0  0  0  0  0  0  0
   -9.1925   19.8451  -32.6320 H   0  0  0  0  0  0  0  0  0  0  0  0
   -9.4822   22.2402  -31.9128 H   0  0  0  0  0  0  0  0  0  0  0  0
   -8.0326   24.5253  -30.9744 H   0  0  0  0  0  0  0  0  0  0  0  0
   -3.1180   25.2630  -30.4450 H   0  0  0  0  0  0  0  0  0  0  0  0
   -3.6600   24.4094  -27.1816 H   0  0  0  0  0  0  0  0  0  0  0  0
   -2.9769   22.7393  -27.1677 H   0  0  0  0  0  0  0  0  0  0  0  0
   -1.9620   25.3280  -30.0630 H   0  0  0  0  0  0  0  0  0  0  0  0
    0.3136   23.2102  -26.8571 H   0  0  0  0  0  0  0  0  0  0  0  0
   -1.4432   21.3733  -25.4791 H   0  0  0  0  0  0  0  0  0  0  0  0
   -2.2170   21.8483  -27.0290 H   0  0  0  0  0  0  0  0  0  0  0  0
   -0.5649   21.1433  -27.0290 H   0  0  0  0  0  0  0  0  0  0  0  0
   -0.9563   22.7526  -24.2430 H   0  0  0  0  0  0  0  0  0  0  0  0
    0.6199   23.5258  -24.6231 H   0  0  0  0  0  0  0  0  0  0  0  0
   -0.8849   24.5068  -24.6231 H   0  0  0  0  0  0  0  0  0  0  0  0
   -4.8927   20.1696  -31.9884 H   0  0  0  0  0  0  0  0  0  0  0  0
  1  2  1  0
  2  3  2  0
  3  4  1  0
  4  5  2  0
  5  6  1  0
  6  7  2  0
  7  8  1  0
  8  9  1  0
  8 10  2  0
  7 11  1  0
 11 12  1  0
 12 13  2  0
 12 14  1  0
 14 15  2  0
 14 16  1  0
 16 17  1  0
 18 17  1  6
 18 19  1  0
 19 20  1  0
 19 21  2  0
 18 22  1  0
 22 23  2  0
 22 24  1  0
 18 25  1  0
 25 26  1  0
 25 27  1  0
 11 28  1  0
 28 29  2  0
 29  2  1  0
 28  5  1  0
  1 30  1  0
  1 31  1  0
  1 32  1  0
  3 33  1  0
  4 34  1  0
  6 35  1  0
  9 36  1  0
 17 37  1  0
 17 38  1  0
 20 39  1  0
 25 40  1  0
 26 41  1  0
 26 42  1  0
 26 43  1  0
 27 44  1  0
 27 45  1  0
 27 46  1  0
 29 47  1  0
M  CHG  3   9  -1  20  -1  24  -1
M  END
>  <UniqueID>  (26) 
26

>  <SMILES>  (26) 
Cc1ccc2cc(C([NH-])=O)n(C(=O)C(=O)OC[C@@](C([NH-])=O)(C(=O)[O-])C(C)C)c2c1

>  <Energy>  (26) 
85.95602323863541

>  <Genealogy>  (26) 
Cc1ccc2cc(C([NH-])=O)n(C(=O)C(=O)OCC(C([NH-])=O)(C(=O)[O-])C(C)C)c2c1 (protonated)
Cc1ccc2cc(C([NH-])=O)n(C(=O)C(=O)OC[C@@](C([NH-])=O)(C(=O)[O-])C(C)C)c2c1 (chirality)
Cc1ccc2cc(C([NH-])=O)n(C(=O)C(=O)OC[C@@](C([NH-])=O)(C(=O)[O-])C(C)C)c2c1 (3D coordinates assigned)
Cc1ccc2cc(C([NH-])=O)n(C(=O)C(=O)OC[C@@](C([NH-])=O)(C(=O)[O-])C(C)C)c2c1 (optimized conformer: 85.95602323863541 kcal/mol)

>  <smiles>  (26) 
Cc1ccc2cc(C(N)=O)n(C(=O)C(=O)OCC(C(N)=O)(C(=O)O)C(C)C)c2c1

>  <score_type>  (26) 
oracle

>  <origin>  (26) 
adg

>  <m_score__min__energy>  (26) 
-13.449999999999999

>  <m_primary>  (26) 
energy

$$$$
26:0
     RDKit          3D

 53 55  0  0  0  0  0  0  0  0999 V2000
    0.2130   21.5260  -27.4120 C   0  0  0  0  0  0  0  0  0  0  0  0
   -0.0990   21.0240  -28.8320 C   0  0  0  0  0  0  0  0  0  0  0  0
   -1.1690   19.9230  -28.7800 C   0  0  0  0  0  0  0  0  0  0  0  0
   -0.5020   22.1720  -29.8000 C   0  0  1  0  0  0  0  0  0  0  0  0
   -1.1090   21.6560  -31.0300 N   0  0  0  0  0  0  0  0  0  0  0  0
   -1.4390   23.1330  -29.1140 C   0  0  0  0  0  0  0  0  0  0  0  0
   -1.3620   24.3700  -29.3440 O   0  0  0  0  0  0  0  0  0  0  0  0
   -2.4210   22.6320  -28.2560 O   0  0  0  0  0  0  0  0  0  0  0  0
   -3.6890   22.1800  -28.7200 C   0  0  0  0  0  0  0  0  0  0  0  0
   -3.5490   21.6140  -30.0180 O   0  0  0  0  0  0  0  0  0  0  0  0
   -4.0810   22.2040  -31.1690 C   0  0  0  0  0  0  0  0  0  0  0  0
   -3.3760   22.3160  -32.2090 O   0  0  0  0  0  0  0  0  0  0  0  0
   -5.4350   22.6840  -31.1660 N   0  0  0  0  0  0  0  0  0  0  0  0
   -5.8660   23.9570  -30.9370 C   0  0  0  0  0  0  0  0  0  0  0  0
   -5.0290   25.0850  -30.4800 C   0  0  0  0  0  0  0  0  0  0  0  0
   -3.6950   24.8770  -30.0130 N   0  0  0  0  0  0  0  0  0  0  0  0
   -5.5170   26.2460  -30.4530 O   0  0  0  0  0  0  0  0  0  0  0  0
   -7.2390   24.0570  -31.1470 C   0  0  0  0  0  0  0  0  0  0  0  0
   -7.6450   22.7920  -31.5060 C   0  0  0  0  0  0  0  0  0  0  0  0
   -8.9100   22.3230  -31.8430 C   0  0  0  0  0  0  0  0  0  0  0  0
   -9.0340   20.9730  -32.2120 C   0  0  0  0  0  0  0  0  0  0  0  0
   -7.8970   20.1280  -32.2560 C   0  0  0  0  0  0  0  0  0  0  0  0
   -8.0460   18.6740  -32.6220 C   0  0  2  0  0  0  0  0  0  0  0  0
   -8.5880   17.9650  -31.5610 F   0  0  0  0  0  0  0  0  0  0  0  0
   -6.7460   18.1200  -32.9890 N   0  0  0  0  0  0  0  0  0  0  0  0
   -6.0970   18.3110  -34.1560 C   0  0  0  0  0  0  0  0  0  0  0  0
   -4.9520   17.5520  -34.1220 C   0  0  0  0  0  0  0  0  0  0  0  0
   -4.0160   17.4440  -35.0940 F   0  0  0  0  0  0  0  0  0  0  0  0
   -4.9630   16.9060  -32.9050 C   0  0  0  0  0  0  0  0  0  0  0  0
   -6.0750   17.2620  -32.2330 N   0  0  0  0  0  0  0  0  0  0  0  0
   -6.6290   20.6390  -31.8980 C   0  0  0  0  0  0  0  0  0  0  0  0
   -6.5380   21.9820  -31.5130 C   0  0  0  0  0  0  0  0  0  0  0  0
   -0.2180   20.8325  -26.6750 H   0  0  0  0  0  0  0  0  0  0  0  0
    1.3029   21.5782  -27.2728 H   0  0  0  0  0  0  0  0  0  0  0  0
   -0.2227   22.5264  -27.2728 H   0  0  0  0  0  0  0  0  0  0  0  0
    0.8270   20.5959  -29.2434 H   0  0  0  0  0  0  0  0  0  0  0  0
   -1.3999   19.6854  -27.7311 H   0  0  0  0  0  0  0  0  0  0  0  0
   -2.0807   20.2736  -29.2858 H   0  0  0  0  0  0  0  0  0  0  0  0
   -0.7925   19.0217  -29.2858 H   0  0  0  0  0  0  0  0  0  0  0  0
    0.4165   22.7077  -30.0819 H   0  0  0  0  0  0  0  0  0  0  0  0
   -2.0590   21.2840  -30.7980 H   0  0  0  0  0  0  0  0  0  0  0  0
   -1.2770   22.4560  -31.6820 H   0  0  0  0  0  0  0  0  0  0  0  0
   -4.0814   21.4191  -28.0293 H   0  0  0  0  0  0  0  0  0  0  0  0
   -4.3853   23.0304  -28.7658 H   0  0  0  0  0  0  0  0  0  0  0  0
   -3.1090   25.6910  -29.7260 H   0  0  0  0  0  0  0  0  0  0  0  0
   -3.3230   23.9150  -29.8520 H   0  0  0  0  0  0  0  0  0  0  0  0
   -7.8655   24.9556  -31.0472 H   0  0  0  0  0  0  0  0  0  0  0  0
   -9.7860   22.9880  -31.8214 H   0  0  0  0  0  0  0  0  0  0  0  0
  -10.0237   20.5677  -32.4694 H   0  0  0  0  0  0  0  0  0  0  0  0
   -8.7262   18.5897  -33.4823 H   0  0  0  0  0  0  0  0  0  0  0  0
   -6.4247   18.9567  -34.9841 H   0  0  0  0  0  0  0  0  0  0  0  0
   -4.1901   16.2128  -32.5415 H   0  0  0  0  0  0  0  0  0  0  0  0
   -5.7357   19.9975  -31.9213 H   0  0  0  0  0  0  0  0  0  0  0  0
  1  2  1  0
  2  3  1  0
  2  4  1  0
  4  5  1  0
  4  6  1  0
  6  7  2  0
  6  8  1  0
  8  9  1  0
  9 10  1  0
 10 11  1  0
 11 12  2  0
 11 13  1  0
 13 14  1  0
 14 15  1  0
 15 16  1  0
 15 17  2  0
 14 18  2  0
 18 19  1  0
 19 20  2  0
 20 21  1  0
 21 22  2  0
 22 23  1  0
 23 24  1  0
 23 25  1  0
 25 26  1  0
 26 27  2  0
 27 28  1  0
 27 29  1  0
 29 30  2  0
 22 31  1  0
 31 32  2  0
 32 13  1  0
 32 19  1  0
 30 25  1  0
  1 33  1  0
  1 34  1  0
  1 35  1  0
  2 36  1  0
  3 37  1  0
  3 38  1  0
  3 39  1  0
  4 40  1  6
  5 41  1  0
  5 42  1  0
  9 43  1  0
  9 44  1  0
 16 45  1  0
 16 46  1  0
 18 47  1  0
 20 48  1  0
 21 49  1  0
 23 50  1  6
 26 51  1  0
 29 52  1  0
 31 53  1  0
M  END
>  <UniqueID>  (27) 
27

>  <SMILES>  (27) 
CC(C)[C@@H](N)C(=O)OCOC(=O)n1c(C(N)=O)cc2ccc([C@H](F)n3cc(F)cn3)cc21

>  <Energy>  (27) 
116.001923006231

>  <Genealogy>  (27) 
CC(C)[C@@H](N)C(=O)OCOC(=O)n1c(C(N)=O)cc2ccc([C@H](F)n3cc(F)cn3)cc21 (chirality)
CC(C)[C@@H](N)C(=O)OCOC(=O)n1c(C(N)=O)cc2ccc([C@H](F)n3cc(F)cn3)cc21 (3D coordinates assigned)
CC(C)[C@@H](N)C(=O)OCOC(=O)n1c(C(N)=O)cc2ccc([C@H](F)n3cc(F)cn3)cc21 (optimized conformer: 116.001923006231 kcal/mol)

>  <smiles>  (27) 
CC(C)C(N)C(=O)OCOC(=O)n1c(C(N)=O)cc2ccc(C(F)n3cc(F)cn3)cc21

>  <score_type>  (27) 
oracle

>  <origin>  (27) 
adg

>  <m_score__min__energy>  (27) 
-9.5999999999999996

>  <m_primary>  (27) 
energy

$$$$
27:0
     RDKit          3D

 37 38  0  0  0  0  0  0  0  0999 V2000
   -3.9220   25.4330  -30.7810 N   0  0  0  0  0  0  0  0  0  0  0  0
   -5.2990   25.1410  -30.5560 C   0  0  0  0  0  0  0  0  0  0  0  0
   -6.0160   25.9810  -29.9510 O   0  0  0  0  0  0  0  0  0  0  0  0
   -5.8760   23.8800  -31.0690 C   0  0  0  0  0  0  0  0  0  0  0  0
   -7.2400   23.6900  -31.2790 C   0  0  0  0  0  0  0  0  0  0  0  0
   -7.3700   22.3740  -31.6590 C   0  0  0  0  0  0  0  0  0  0  0  0
   -8.5080   21.6520  -32.0090 C   0  0  0  0  0  0  0  0  0  0  0  0
   -8.3450   20.3110  -32.3910 C   0  0  0  0  0  0  0  0  0  0  0  0
   -7.0590   19.7120  -32.4080 C   0  0  0  0  0  0  0  0  0  0  0  0
   -6.8900   18.2890  -32.8790 C   0  0  0  0  0  0  0  0  0  0  0  0
   -5.9270   17.6370  -32.1300 F   0  0  0  0  0  0  0  0  0  0  0  0
   -8.0790   17.5900  -32.7580 F   0  0  0  0  0  0  0  0  0  0  0  0
   -6.5020   18.2930  -34.2060 F   0  0  0  0  0  0  0  0  0  0  0  0
   -5.9250   20.4860  -32.0690 C   0  0  0  0  0  0  0  0  0  0  0  0
   -6.1190   21.8160  -31.6760 C   0  0  0  0  0  0  0  0  0  0  0  0
   -5.1890   22.7300  -31.3210 N   0  0  0  0  0  0  0  0  0  0  0  0
   -3.7690   22.5210  -31.2720 C   0  0  0  0  0  0  0  0  0  0  0  0
   -3.1480   22.1710  -32.3120 O   0  0  0  0  0  0  0  0  0  0  0  0
   -3.0870   22.6840  -30.0600 O   0  0  0  0  0  0  0  0  0  0  0  0
   -3.7410   22.7890  -28.7970 C   0  0  0  0  0  0  0  0  0  0  0  0
   -2.8690   23.5380  -27.7750 C   0  0  2  0  0  0  0  0  0  0  0  0
   -3.3260   24.8620  -27.6660 O   0  0  0  0  0  0  0  0  0  0  0  0
   -1.3710   23.5140  -28.1440 C   0  0  0  0  0  0  0  0  0  0  0  0
   -0.8690   24.8540  -28.5930 C   0  0  0  0  0  0  0  0  0  0  0  0
   -1.5760   25.5780  -29.3410 O   0  0  0  0  0  0  0  0  0  0  0  0
    0.3940   25.2870  -28.2080 O   0  0  0  0  0  0  0  0  0  0  0  0
   -3.1720   24.8340  -30.3710 H   0  0  0  0  0  0  0  0  0  0  0  0
   -8.0424   24.4338  -31.1652 H   0  0  0  0  0  0  0  0  0  0  0  0
   -9.5041   22.1181  -31.9869 H   0  0  0  0  0  0  0  0  0  0  0  0
   -9.2248   19.7176  -32.6806 H   0  0  0  0  0  0  0  0  0  0  0  0
   -4.9145   20.0536  -32.1130 H   0  0  0  0  0  0  0  0  0  0  0  0
   -4.6873   23.3343  -28.9280 H   0  0  0  0  0  0  0  0  0  0  0  0
   -3.9256   21.7734  -28.4168 H   0  0  0  0  0  0  0  0  0  0  0  0
   -2.9611   23.0227  -26.8075 H   0  0  0  0  0  0  0  0  0  0  0  0
   -3.5540   25.1640  -28.5840 H   0  0  0  0  0  0  0  0  0  0  0  0
   -0.7952   23.1992  -27.2612 H   0  0  0  0  0  0  0  0  0  0  0  0
   -1.2440   22.8117  -28.9810 H   0  0  0  0  0  0  0  0  0  0  0  0
  1  2  1  0
  2  3  2  0
  2  4  1  0
  4  5  2  0
  5  6  1  0
  6  7  2  0
  7  8  1  0
  8  9  2  0
  9 10  1  0
 10 11  1  0
 10 12  1  0
 10 13  1  0
  9 14  1  0
 14 15  2  0
 15 16  1  0
 16 17  1  0
 17 18  2  0
 17 19  1  0
 19 20  1  0
 20 21  1  0
 21 22  1  0
 21 23  1  0
 23 24  1  0
 24 25  2  0
 24 26  1  0
 16  4  1  0
 15  6  1  0
  1 27  1  0
  5 28  1  0
  7 29  1  0
  8 30  1  0
 14 31  1  0
 20 32  1  0
 20 33  1  0
 21 34  1  1
 22 35  1  0
 23 36  1  0
 23 37  1  0
M  CHG  2   1  -1  26  -1
M  END
>  <UniqueID>  (28) 
28

>  <SMILES>  (28) 
[NH-]C(=O)c1cc2ccc(C(F)(F)F)cc2n1C(=O)OC[C@H](O)CC(=O)[O-]

>  <Energy>  (28) 
71.71632210477345

>  <Genealogy>  (28) 
[NH-]C(=O)c1cc2ccc(C(F)(F)F)cc2n1C(=O)OC[C@H](O)CC(=O)[O-] (protonated)
[NH-]C(=O)c1cc2ccc(C(F)(F)F)cc2n1C(=O)OC[C@H](O)CC(=O)[O-] (3D coordinates assigned)
[NH-]C(=O)c1cc2ccc(C(F)(F)F)cc2n1C(=O)OC[C@H](O)CC(=O)[O-] (optimized conformer: 71.71632210477345 kcal/mol)

>  <smiles>  (28) 
NC(=O)c1cc2ccc(C(F)(F)F)cc2n1C(=O)OC[C@H](O)CC(=O)O

>  <score_type>  (28) 
oracle

>  <origin>  (28) 
adg

>  <m_score__min__energy>  (28) 
-11.85

>  <m_primary>  (28) 
energy

$$$$
28:0
     RDKit          3D

 30 31  0  0  0  0  0  0  0  0999 V2000
   -4.1130   25.6570  -30.7170 N   0  0  0  0  0  0  0  0  0  0  0  0
   -5.3650   24.9770  -30.7580 C   0  0  0  0  0  0  0  0  0  0  0  0
   -6.3980   25.5580  -30.3300 O   0  0  0  0  0  0  0  0  0  0  0  0
   -5.4350   23.5920  -31.2660 C   0  0  0  0  0  0  0  0  0  0  0  0
   -6.5360   23.0690  -31.9400 C   0  0  0  0  0  0  0  0  0  0  0  0
   -6.1560   21.8060  -32.3350 C   0  0  0  0  0  0  0  0  0  0  0  0
   -6.8600   20.8370  -33.0450 C   0  0  0  0  0  0  0  0  0  0  0  0
   -6.2160   19.6130  -33.3030 C   0  0  0  0  0  0  0  0  0  0  0  0
   -4.8930   19.3860  -32.8510 C   0  0  0  0  0  0  0  0  0  0  0  0
   -4.2520   18.1350  -33.1140 N   0  0  0  0  0  0  0  0  0  0  0  0
   -4.2090   20.3920  -32.1390 C   0  0  0  0  0  0  0  0  0  0  0  0
   -4.8720   21.6010  -31.9010 C   0  0  0  0  0  0  0  0  0  0  0  0
   -4.4210   22.6830  -31.2330 N   0  0  0  0  0  0  0  0  0  0  0  0
   -3.1440   22.8010  -30.5860 C   0  0  0  0  0  0  0  0  0  0  0  0
   -2.0970   22.4850  -31.2120 O   0  0  0  0  0  0  0  0  0  0  0  0
   -3.0500   23.1940  -29.1440 C   0  0  0  0  0  0  0  0  0  0  0  0
   -1.4820   24.0570  -28.8290 P   0  0  2  0  0  0  0  0  0  0  0  0
   -1.1800   24.0140  -27.3490 O   0  0  0  0  0  0  0  0  0  0  0  0
   -1.6030   25.6690  -29.3280 O   0  0  0  0  0  0  0  0  0  0  0  0
   -0.2290   23.2910  -29.6720 O   0  0  0  0  0  0  0  0  0  0  0  0
   -3.5480   25.6910  -29.8400 H   0  0  0  0  0  0  0  0  0  0  0  0
   -7.5036   23.5606  -32.1188 H   0  0  0  0  0  0  0  0  0  0  0  0
   -7.8869   21.0225  -33.3931 H   0  0  0  0  0  0  0  0  0  0  0  0
   -6.7445   18.8256  -33.8605 H   0  0  0  0  0  0  0  0  0  0  0  0
   -3.5430   17.7490  -32.4520 H   0  0  0  0  0  0  0  0  0  0  0  0
   -4.4850   17.5850  -33.9710 H   0  0  0  0  0  0  0  0  0  0  0  0
   -3.1817   20.2310  -31.7801 H   0  0  0  0  0  0  0  0  0  0  0  0
   -3.8883   23.8609  -28.8938 H   0  0  0  0  0  0  0  0  0  0  0  0
   -3.0920   22.2879  -28.5218 H   0  0  0  0  0  0  0  0  0  0  0  0
   -0.6680   22.8690  -30.4530 H   0  0  0  0  0  0  0  0  0  0  0  0
  1  2  1  0
  2  3  2  0
  2  4  1  0
  4  5  2  0
  5  6  1  0
  6  7  2  0
  7  8  1  0
  8  9  2  0
  9 10  1  0
  9 11  1  0
 11 12  2  0
 12 13  1  0
 13 14  1  0
 14 15  2  0
 14 16  1  0
 16 17  1  0
 17 18  2  0
 17 19  1  6
 17 20  1  0
 13  4  1  0
 12  6  1  0
  1 21  1  0
  5 22  1  0
  7 23  1  0
  8 24  1  0
 10 25  1  0
 10 26  1  0
 11 27  1  0
 16 28  1  0
 16 29  1  0
 20 30  1  0
M  CHG  2   1  -1  19  -1
M  END
>  <UniqueID>  (29) 
29

>  <SMILES>  (29) 
[NH-]C(=O)c1cc2ccc(N)cc2n1C(=O)C[P@](=O)([O-])O

>  <Energy>  (29) 
62.42018079335359

>  <Genealogy>  (29) 
[NH-]C(=O)c1cc2ccc(N)cc2n1C(=O)CP(=O)([O-])O (protonated)
[NH-]C(=O)c1cc2ccc(N)cc2n1C(=O)C[P@](=O)([O-])O (chirality)
[NH-]C(=O)c1cc2ccc(N)cc2n1C(=O)C[P@](=O)([O-])O (3D coordinates assigned)
[NH-]C(=O)c1cc2ccc(N)cc2n1C(=O)C[P@](=O)([O-])O (optimized conformer: 62.42018079335359 kcal/mol)

>  <smiles>  (29) 
NC(=O)c1cc2ccc(N)cc2n1C(=O)CP(=O)(O)O

>  <score_type>  (29) 
oracle

>  <origin>  (29) 
adg

>  <m_score__min__energy>  (29) 
-11.6

>  <m_primary>  (29) 
energy

$$$$
29:0
     RDKit          3D

 44 46  0  0  0  0  0  0  0  0999 V2000
   -3.8820   25.6640  -30.8300 N   0  0  0  0  0  0  0  0  0  0  0  0
   -5.2220   25.2500  -30.5740 C   0  0  0  0  0  0  0  0  0  0  0  0
   -5.9820   25.9970  -29.9050 O   0  0  0  0  0  0  0  0  0  0  0  0
   -5.6900   23.9340  -31.0540 C   0  0  0  0  0  0  0  0  0  0  0  0
   -7.0280   23.6390  -31.3030 C   0  0  0  0  0  0  0  0  0  0  0  0
   -7.0290   22.3610  -31.8160 C   0  0  0  0  0  0  0  0  0  0  0  0
   -8.0910   21.5650  -32.2290 C   0  0  0  0  0  0  0  0  0  0  0  0
   -7.8050   20.2700  -32.6920 C   0  0  0  0  0  0  0  0  0  0  0  0
   -6.4680   19.7910  -32.7250 C   0  0  0  0  0  0  0  0  0  0  0  0
   -6.1790   18.4140  -33.2020 C   0  0  0  0  0  0  0  0  0  0  0  0
   -4.9440   18.1100  -33.7980 C   0  0  0  0  0  0  0  0  0  0  0  0
   -4.6710   16.8140  -34.2470 C   0  0  0  0  0  0  0  0  0  0  0  0
   -5.6290   15.7940  -34.1090 C   0  0  0  0  0  0  0  0  0  0  0  0
   -5.3460   14.4220  -34.5840 C   0  0  0  0  0  0  0  0  0  0  0  0
   -4.1710   14.0750  -34.8790 O   0  0  0  0  0  0  0  0  0  0  0  0
   -6.3740   13.4940  -34.7110 O   0  0  0  0  0  0  0  0  0  0  0  0
   -6.8650   16.0990  -33.5150 C   0  0  0  0  0  0  0  0  0  0  0  0
   -7.1370   17.3950  -33.0650 C   0  0  0  0  0  0  0  0  0  0  0  0
   -5.4160   20.6330  -32.2960 C   0  0  0  0  0  0  0  0  0  0  0  0
   -5.7300   21.9250  -31.8580 C   0  0  0  0  0  0  0  0  0  0  0  0
   -4.8950   22.8800  -31.3920 N   0  0  0  0  0  0  0  0  0  0  0  0
   -3.4750   22.7580  -31.2160 C   0  0  0  0  0  0  0  0  0  0  0  0
   -2.7800   22.1800  -32.0970 O   0  0  0  0  0  0  0  0  0  0  0  0
   -2.8720   23.2490  -30.0520 O   0  0  0  0  0  0  0  0  0  0  0  0
   -3.3110   22.8910  -28.7440 C   0  0  0  0  0  0  0  0  0  0  0  0
   -2.3830   23.3560  -27.7670 O   0  0  0  0  0  0  0  0  0  0  0  0
   -2.4060   24.6580  -27.2560 C   0  0  0  0  0  0  0  0  0  0  0  0
   -3.1490   24.9550  -26.2810 O   0  0  0  0  0  0  0  0  0  0  0  0
   -1.5750   25.7170  -27.9040 C   0  0  0  0  0  0  0  0  0  0  0  0
   -1.5990   25.5590  -29.2960 O   0  0  0  0  0  0  0  0  0  0  0  0
   -3.0720   25.1290  -30.4480 H   0  0  0  0  0  0  0  0  0  0  0  0
   -7.8984   24.2883  -31.1274 H   0  0  0  0  0  0  0  0  0  0  0  0
   -9.1252   21.9382  -32.1943 H   0  0  0  0  0  0  0  0  0  0  0  0
   -8.6246   19.6202  -33.0325 H   0  0  0  0  0  0  0  0  0  0  0  0
   -4.1851   18.8980  -33.9126 H   0  0  0  0  0  0  0  0  0  0  0  0
   -3.6993   16.5908  -34.7117 H   0  0  0  0  0  0  0  0  0  0  0  0
   -7.6252   15.3119  -33.4029 H   0  0  0  0  0  0  0  0  0  0  0  0
   -8.1086   17.6185  -32.6001 H   0  0  0  0  0  0  0  0  0  0  0  0
   -4.3740   20.2806  -32.3062 H   0  0  0  0  0  0  0  0  0  0  0  0
   -4.2952   23.3444  -28.5546 H   0  0  0  0  0  0  0  0  0  0  0  0
   -3.3822   21.7953  -28.6775 H   0  0  0  0  0  0  0  0  0  0  0  0
   -1.9774   26.7068  -27.6426 H   0  0  0  0  0  0  0  0  0  0  0  0
   -0.5377   25.6306  -27.5483 H   0  0  0  0  0  0  0  0  0  0  0  0
   -2.2520   24.8360  -29.4900 H   0  0  0  0  0  0  0  0  0  0  0  0
  1  2  1  0
  2  3  2  0
  2  4  1  0
  4  5  2  0
  5  6  1  0
  6  7  2  0
  7  8  1  0
  8  9  2  0
  9 10  1  0
 10 11  2  0
 11 12  1  0
 12 13  2  0
 13 14  1  0
 14 15  2  0
 14 16  1  0
 13 17  1  0
 17 18  2  0
  9 19  1  0
 19 20  2  0
 20 21  1  0
 21 22  1  0
 22 23  2  0
 22 24  1  0
 24 25  1  0
 25 26  1  0
 26 27  1  0
 27 28  2  0
 27 29  1  0
 29 30  1  0
 21  4  1  0
 20  6  1  0
 18 10  1  0
  1 31  1  0
  5 32  1  0
  7 33  1  0
  8 34  1  0
 11 35  1  0
 12 36  1  0
 17 37  1  0
 18 38  1  0
 19 39  1  0
 25 40  1  0
 25 41  1  0
 29 42  1  0
 29 43  1  0
 30 44  1  0
M  CHG  2   1  -1  16  -1
M  END
>  <UniqueID>  (30) 
30

>  <SMILES>  (30) 
[NH-]C(=O)c1cc2ccc(-c3ccc(C(=O)[O-])cc3)cc2n1C(=O)OCOC(=O)CO

>  <Energy>  (30) 
86.49339626711016

>  <Genealogy>  (30) 
[NH-]C(=O)c1cc2ccc(-c3ccc(C(=O)[O-])cc3)cc2n1C(=O)OCOC(=O)CO (protonated)
[NH-]C(=O)c1cc2ccc(-c3ccc(C(=O)[O-])cc3)cc2n1C(=O)OCOC(=O)CO (3D coordinates assigned)
[NH-]C(=O)c1cc2ccc(-c3ccc(C(=O)[O-])cc3)cc2n1C(=O)OCOC(=O)CO (optimized conformer: 86.49339626711016 kcal/mol)

>  <smiles>  (30) 
NC(=O)c1cc2ccc(-c3ccc(C(=O)O)cc3)cc2n1C(=O)OCOC(=O)CO

>  <score_type>  (30) 
oracle

>  <origin>  (30) 
adg

>  <m_score__min__energy>  (30) 
-10.92

>  <m_primary>  (30) 
energy

$$$$
30:0
     RDKit          3D

 32 33  0  0  0  0  0  0  0  0999 V2000
   -1.7420   25.3000  -29.3440 N   0  0  0  0  0  0  0  0  0  0  0  0
   -1.4200   23.9130  -29.4100 C   0  0  0  0  0  0  0  0  0  0  0  0
   -0.4480   23.4730  -28.7410 O   0  0  0  0  0  0  0  0  0  0  0  0
   -2.2070   23.0140  -30.2800 C   0  0  0  0  0  0  0  0  0  0  0  0
   -1.6390   22.0850  -31.1500 C   0  0  0  0  0  0  0  0  0  0  0  0
   -2.7010   21.4020  -31.6980 C   0  0  0  0  0  0  0  0  0  0  0  0
   -2.7200   20.3660  -32.6250 C   0  0  0  0  0  0  0  0  0  0  0  0
   -3.9690   19.8550  -33.0160 C   0  0  0  0  0  0  0  0  0  0  0  0
   -5.1730   20.3800  -32.4820 C   0  0  0  0  0  0  0  0  0  0  0  0
   -6.4280   19.8240  -32.9230 N   0  0  0  0  0  0  0  0  0  0  0  0
   -7.1300   18.7080  -32.2870 C   0  0  0  0  0  0  0  0  0  0  0  0
   -8.6470   18.9060  -32.3410 C   0  0  0  0  0  0  0  0  0  0  0  0
   -8.9860   19.9910  -33.1600 O   0  0  0  0  0  0  0  0  0  0  0  0
   -5.1100   21.4410  -31.5430 C   0  0  0  0  0  0  0  0  0  0  0  0
   -3.8510   21.9200  -31.1650 C   0  0  0  0  0  0  0  0  0  0  0  0
   -3.5650   22.9150  -30.3000 N   0  0  0  0  0  0  0  0  0  0  0  0
   -4.5230   23.7060  -29.5800 C   0  0  0  0  0  0  0  0  0  0  0  0
   -5.0180   23.2620  -28.5090 O   0  0  0  0  0  0  0  0  0  0  0  0
   -4.9740   25.0050  -30.1000 C   0  0  0  0  0  0  0  0  0  0  0  0
   -4.2350   25.6730  -30.8690 O   0  0  0  0  0  0  0  0  0  0  0  0
   -6.2260   25.4970  -29.7560 O   0  0  0  0  0  0  0  0  0  0  0  0
   -2.7360   25.6200  -29.3420 H   0  0  0  0  0  0  0  0  0  0  0  0
   -0.5694   21.9305  -31.3551 H   0  0  0  0  0  0  0  0  0  0  0  0
   -1.7859   19.9589  -33.0395 H   0  0  0  0  0  0  0  0  0  0  0  0
   -4.0135   19.0349  -33.7478 H   0  0  0  0  0  0  0  0  0  0  0  0
   -6.8860   20.2460  -33.7640 H   0  0  0  0  0  0  0  0  0  0  0  0
   -6.8709   17.7759  -32.8105 H   0  0  0  0  0  0  0  0  0  0  0  0
   -6.8223   18.6585  -31.2321 H   0  0  0  0  0  0  0  0  0  0  0  0
   -9.1141   17.9941  -32.7414 H   0  0  0  0  0  0  0  0  0  0  0  0
   -9.0087   19.1111  -31.3226 H   0  0  0  0  0  0  0  0  0  0  0  0
   -8.8420   19.7010  -34.0980 H   0  0  0  0  0  0  0  0  0  0  0  0
   -6.0283   21.8766  -31.1223 H   0  0  0  0  0  0  0  0  0  0  0  0
  1  2  1  0
  2  3  2  0
  2  4  1  0
  4  5  2  0
  5  6  1  0
  6  7  2  0
  7  8  1  0
  8  9  2  0
  9 10  1  0
 10 11  1  0
 11 12  1  0
 12 13  1  0
  9 14  1  0
 14 15  2  0
 15 16  1  0
 16 17  1  0
 17 18  2  0
 17 19  1  0
 19 20  2  0
 19 21  1  0
 16  4  1  0
 15  6  1  0
  1 22  1  0
  5 23  1  0
  7 24  1  0
  8 25  1  0
 10 26  1  0
 11 27  1  0
 11 28  1  0
 12 29  1  0
 12 30  1  0
 13 31  1  0
 14 32  1  0
M  CHG  2   1  -1  21  -1
M  END
>  <UniqueID>  (31) 
31

>  <SMILES>  (31) 
[NH-]C(=O)c1cc2ccc(NCCO)cc2n1C(=O)C(=O)[O-]

>  <Energy>  (31) 
70.11505534474023

>  <Genealogy>  (31) 
[NH-]C(=O)c1cc2ccc(NCCO)cc2n1C(=O)C(=O)[O-] (protonated)
[NH-]C(=O)c1cc2ccc(NCCO)cc2n1C(=O)C(=O)[O-] (3D coordinates assigned)
[NH-]C(=O)c1cc2ccc(NCCO)cc2n1C(=O)C(=O)[O-] (optimized conformer: 70.11505534474023 kcal/mol)

>  <smiles>  (31) 
NC(=O)c1cc2ccc(NCCO)cc2n1C(=O)C(=O)O

>  <score_type>  (31) 
oracle

>  <origin>  (31) 
adg

>  <m_score__min__energy>  (31) 
-9.8499999999999996

>  <m_primary>  (31) 
energy

$$$$
31:0
     RDKit          3D

 41 42  0  0  0  0  0  0  0  0999 V2000
   -1.7290   20.5790  -29.5920 C   0  0  0  0  0  0  0  0  0  0  0  0
   -2.5830   21.5260  -29.1980 C   0  0  0  0  0  0  0  0  0  0  0  0
   -2.9740   21.6090  -27.7490 C   0  0  0  0  0  0  0  0  0  0  0  0
   -3.1530   22.4430  -30.1580 N   0  0  0  0  0  0  0  0  0  0  0  0
   -4.0590   23.5070  -29.7050 C   0  0  0  0  0  0  0  0  0  0  0  0
   -3.4640   24.8510  -29.9860 C   0  0  0  0  0  0  0  0  0  0  0  0
   -3.9800   25.6030  -30.8530 O   0  0  0  0  0  0  0  0  0  0  0  0
   -2.3140   25.2560  -29.3210 O   0  0  0  0  0  0  0  0  0  0  0  0
   -2.9700   22.2320  -31.5730 C   0  0  0  0  0  0  0  0  0  0  0  0
   -1.8030   22.1700  -32.0450 O   0  0  0  0  0  0  0  0  0  0  0  0
   -4.1210   22.0540  -32.4850 C   0  0  0  0  0  0  0  0  0  0  0  0
   -4.6100   23.0430  -33.0920 O   0  0  0  0  0  0  0  0  0  0  0  0
   -4.7100   20.7580  -32.6670 N   0  0  0  0  0  0  0  0  0  0  0  0
   -4.1100   19.6390  -33.1620 C   0  0  0  0  0  0  0  0  0  0  0  0
   -2.6740   19.5230  -33.5020 C   0  0  0  0  0  0  0  0  0  0  0  0
   -1.9540   20.6320  -34.0460 N   0  0  0  0  0  0  0  0  0  0  0  0
   -2.0700   18.4320  -33.3260 O   0  0  0  0  0  0  0  0  0  0  0  0
   -5.0330   18.5970  -33.2540 C   0  0  0  0  0  0  0  0  0  0  0  0
   -6.2250   19.1230  -32.8090 C   0  0  0  0  0  0  0  0  0  0  0  0
   -7.4860   18.5400  -32.7190 C   0  0  0  0  0  0  0  0  0  0  0  0
   -8.5500   19.3360  -32.2640 C   0  0  0  0  0  0  0  0  0  0  0  0
   -8.3380   20.6930  -31.8990 C   0  0  0  0  0  0  0  0  0  0  0  0
   -9.4980   21.5560  -31.4730 C   0  0  0  0  0  0  0  0  0  0  0  0
   -9.6870   21.4810  -30.1050 F   0  0  0  0  0  0  0  0  0  0  0  0
  -10.6450   21.1240  -32.1120 F   0  0  0  0  0  0  0  0  0  0  0  0
   -9.2680   22.8800  -31.8050 F   0  0  0  0  0  0  0  0  0  0  0  0
   -7.0470   21.2530  -32.0300 C   0  0  0  0  0  0  0  0  0  0  0  0
   -6.0040   20.4290  -32.4660 C   0  0  0  0  0  0  0  0  0  0  0  0
   -1.4356   20.5085  -30.6498 H   0  0  0  0  0  0  0  0  0  0  0  0
   -1.3186   19.8690  -28.8589 H   0  0  0  0  0  0  0  0  0  0  0  0
   -2.0914   21.4216  -27.1198 H   0  0  0  0  0  0  0  0  0  0  0  0
   -3.3719   22.6116  -27.5334 H   0  0  0  0  0  0  0  0  0  0  0  0
   -3.7449   20.8545  -27.5334 H   0  0  0  0  0  0  0  0  0  0  0  0
   -5.0184   23.4169  -30.2355 H   0  0  0  0  0  0  0  0  0  0  0  0
   -4.2165   23.4052  -28.6211 H   0  0  0  0  0  0  0  0  0  0  0  0
   -2.3910   21.5730  -34.1420 H   0  0  0  0  0  0  0  0  0  0  0  0
   -0.9520   20.5210  -34.3170 H   0  0  0  0  0  0  0  0  0  0  0  0
   -4.8476   17.5719  -33.6074 H   0  0  0  0  0  0  0  0  0  0  0  0
   -7.6444   17.4873  -32.9960 H   0  0  0  0  0  0  0  0  0  0  0  0
   -9.5589   18.9041  -32.1893 H   0  0  0  0  0  0  0  0  0  0  0  0
   -6.8665   22.3122  -31.7946 H   0  0  0  0  0  0  0  0  0  0  0  0
  1  2  2  0
  2  3  1  0
  2  4  1  0
  4  5  1  0
  5  6  1  0
  6  7  2  0
  6  8  1  0
  4  9  1  0
  9 10  2  0
  9 11  1  0
 11 12  2  0
 11 13  1  0
 13 14  1  0
 14 15  1  0
 15 16  1  0
 15 17  2  0
 14 18  2  0
 18 19  1  0
 19 20  2  0
 20 21  1  0
 21 22  2  0
 22 23  1  0
 23 24  1  0
 23 25  1  0
 23 26  1  0
 22 27  1  0
 27 28  2  0
 28 13  1  0
 28 19  1  0
  1 29  1  0
  1 30  1  0
  3 31  1  0
  3 32  1  0
  3 33  1  0
  5 34  1  0
  5 35  1  0
 16 36  1  0
 16 37  1  0
 18 38  1  0
 20 39  1  0
 21 40  1  0
 27 41  1  0
M  CHG  1   8  -1
M  END
>  <UniqueID>  (32) 
32

>  <SMILES>  (32) 
C=C(C)N(CC(=O)[O-])C(=O)C(=O)n1c(C(N)=O)cc2ccc(C(F)(F)F)cc21

>  <Energy>  (32) 
84.54336831133465

>  <Genealogy>  (32) 
C=C(C)N(CC(=O)[O-])C(=O)C(=O)n1c(C(N)=O)cc2ccc(C(F)(F)F)cc21 (protonated)
C=C(C)N(CC(=O)[O-])C(=O)C(=O)n1c(C(N)=O)cc2ccc(C(F)(F)F)cc21 (3D coordinates assigned)
C=C(C)N(CC(=O)[O-])C(=O)C(=O)n1c(C(N)=O)cc2ccc(C(F)(F)F)cc21 (optimized conformer: 84.54336831133465 kcal/mol)

>  <smiles>  (32) 
C=C(C)N(CC(=O)O)C(=O)C(=O)n1c(C(N)=O)cc2ccc(C(F)(F)F)cc21

>  <score_type>  (32) 
oracle

>  <origin>  (32) 
adg

>  <m_score__min__energy>  (32) 
-10.69

>  <m_primary>  (32) 
energy

$$$$
32:0
     RDKit          3D

 56 58  0  0  0  0  0  0  0  0999 V2000
   -6.3830   17.8060  -31.1980 C   0  0  0  0  0  0  0  0  0  0  0  0
   -7.2760   17.8050  -32.3680 N   0  0  0  0  0  0  0  0  0  0  0  0
   -8.0480   19.0610  -32.4030 C   0  0  0  0  0  0  0  0  0  0  0  0
   -6.4810   17.6430  -33.6010 C   0  0  0  0  0  0  0  0  0  0  0  0
   -6.2570   16.1910  -33.9000 C   0  0  0  0  0  0  0  0  0  0  0  0
   -7.2320   15.4590  -34.2220 O   0  0  0  0  0  0  0  0  0  0  0  0
   -4.9640   15.6700  -33.8330 O   0  0  0  0  0  0  0  0  0  0  0  0
   -3.9570   16.2180  -32.9880 C   0  0  0  0  0  0  0  0  0  0  0  0
   -2.9270   16.9690  -33.8320 C   0  0  0  0  0  0  0  0  0  0  0  0
   -2.2390   17.9850  -33.0210 N   0  0  0  0  0  0  0  0  0  0  0  0
   -0.9070   17.7240  -32.4650 C   0  0  0  0  0  0  0  0  0  0  0  0
   -2.8680   19.2550  -32.7660 C   0  0  0  0  0  0  0  0  0  0  0  0
   -3.9390   19.7020  -33.5820 C   0  0  0  0  0  0  0  0  0  0  0  0
   -4.5680   20.9340  -33.3280 C   0  0  0  0  0  0  0  0  0  0  0  0
   -4.0990   21.6990  -32.2640 C   0  0  0  0  0  0  0  0  0  0  0  0
   -4.5380   22.9110  -31.7730 C   0  0  0  0  0  0  0  0  0  0  0  0
   -3.7180   23.1840  -30.6770 C   0  0  0  0  0  0  0  0  0  0  0  0
   -3.8100   24.4070  -29.8570 C   0  0  0  0  0  0  0  0  0  0  0  0
   -4.1230   25.6560  -30.4710 N   0  0  0  0  0  0  0  0  0  0  0  0
   -3.5920   24.3660  -28.6180 O   0  0  0  0  0  0  0  0  0  0  0  0
   -2.8110   22.1830  -30.5040 N   0  0  0  0  0  0  0  0  0  0  0  0
   -1.8570   22.0330  -29.4460 C   0  0  0  0  0  0  0  0  0  0  0  0
   -0.6250   22.1260  -29.6970 O   0  0  0  0  0  0  0  0  0  0  0  0
   -2.3140   21.6350  -28.0760 C   0  0  0  0  0  0  0  0  0  0  0  0
   -1.7180   20.3140  -27.7080 C   0  0  0  0  0  0  0  0  0  0  0  0
   -0.6720   19.6550  -28.3470 C   0  0  0  0  0  0  0  0  0  0  0  0
   -0.4180   18.3740  -27.8140 C   0  0  0  0  0  0  0  0  0  0  0  0
   -1.2330   17.9990  -26.7940 N   0  0  0  0  0  0  0  0  0  0  0  0
   -2.2840   19.2560  -26.5440 S   0  0  0  0  0  0  0  0  0  0  0  0
   -3.0560   21.2850  -31.4790 C   0  0  0  0  0  0  0  0  0  0  0  0
   -2.4200   20.0620  -31.6960 C   0  0  0  0  0  0  0  0  0  0  0  0
   -6.9849   17.8053  -30.2773 H   0  0  0  0  0  0  0  0  0  0  0  0
   -5.7473   16.9086  -31.2211 H   0  0  0  0  0  0  0  0  0  0  0  0
   -5.7493   18.7049  -31.2211 H   0  0  0  0  0  0  0  0  0  0  0  0
   -8.2528   19.3943  -31.3749 H   0  0  0  0  0  0  0  0  0  0  0  0
   -7.4683   19.8331  -32.9301 H   0  0  0  0  0  0  0  0  0  0  0  0
   -8.9987   18.8925  -32.9301 H   0  0  0  0  0  0  0  0  0  0  0  0
   -7.0194   18.1058  -34.4412 H   0  0  0  0  0  0  0  0  0  0  0  0
   -5.5048   18.1296  -33.4589 H   0  0  0  0  0  0  0  0  0  0  0  0
   -4.4194   16.9132  -32.2718 H   0  0  0  0  0  0  0  0  0  0  0  0
   -3.4568   15.4039  -32.4430 H   0  0  0  0  0  0  0  0  0  0  0  0
   -2.1869   16.2541  -34.2208 H   0  0  0  0  0  0  0  0  0  0  0  0
   -3.4448   17.4686  -34.6640 H   0  0  0  0  0  0  0  0  0  0  0  0
   -0.9598   17.7343  -31.3663 H   0  0  0  0  0  0  0  0  0  0  0  0
   -0.5538   16.7396  -32.8059 H   0  0  0  0  0  0  0  0  0  0  0  0
   -0.2084   18.5023  -32.8059 H   0  0  0  0  0  0  0  0  0  0  0  0
   -4.2808   19.0789  -34.4216 H   0  0  0  0  0  0  0  0  0  0  0  0
   -5.4049   21.2823  -33.9511 H   0  0  0  0  0  0  0  0  0  0  0  0
   -5.3594   23.5304  -32.1623 H   0  0  0  0  0  0  0  0  0  0  0  0
   -3.5040   26.0550  -31.2100 H   0  0  0  0  0  0  0  0  0  0  0  0
   -1.9937   22.3956  -27.3487 H   0  0  0  0  0  0  0  0  0  0  0  0
   -3.4110   21.5538  -28.0680 H   0  0  0  0  0  0  0  0  0  0  0  0
   -0.1019   20.0885  -29.1819 H   0  0  0  0  0  0  0  0  0  0  0  0
    0.3831   17.7248  -28.1971 H   0  0  0  0  0  0  0  0  0  0  0  0
   -1.2090   17.0880  -26.2830 H   0  0  0  0  0  0  0  0  0  0  0  0
   -1.5914   19.7346  -31.0508 H   0  0  0  0  0  0  0  0  0  0  0  0
  1  2  1  0
  2  3  1  0
  2  4  1  0
  4  5  1  0
  5  6  2  0
  5  7  1  0
  7  8  1  0
  8  9  1  0
  9 10  1  0
 10 11  1  0
 10 12  1  0
 12 13  2  0
 13 14  1  0
 14 15  2  0
 15 16  1  0
 16 17  2  0
 17 18  1  0
 18 19  1  0
 18 20  2  0
 17 21  1  0
 21 22  1  0
 22 23  2  0
 22 24  1  0
 24 25  1  0
 25 26  2  0
 26 27  1  0
 27 28  2  0
 28 29  1  0
 21 30  1  0
 30 31  2  0
 31 12  1  0
 30 15  1  0
 29 25  1  0
  1 32  1  0
  1 33  1  0
  1 34  1  0
  3 35  1  0
  3 36  1  0
  3 37  1  0
  4 38  1  0
  4 39  1  0
  8 40  1  0
  8 41  1  0
  9 42  1  0
  9 43  1  0
 11 44  1  0
 11 45  1  0
 11 46  1  0
 13 47  1  0
 14 48  1  0
 16 49  1  0
 19 50  1  0
 24 51  1  0
 24 52  1  0
 26 53  1  0
 27 54  1  0
 28 55  1  0
 31 56  1  0
M  CHG  2  19  -1  28   1
M  END
>  <UniqueID>  (33) 
33

>  <SMILES>  (33) 
CN(C)CC(=O)OCCN(C)c1ccc2cc(C([NH-])=O)n(C(=O)Cc3cc[nH+]s3)c2c1

>  <Energy>  (33) 
122.36308170564224

>  <Genealogy>  (33) 
CN(C)CC(=O)OCCN(C)c1ccc2cc(C([NH-])=O)n(C(=O)Cc3cc[nH+]s3)c2c1 (protonated)
CN(C)CC(=O)OCCN(C)c1ccc2cc(C([NH-])=O)n(C(=O)Cc3cc[nH+]s3)c2c1 (3D coordinates assigned)
CN(C)CC(=O)OCCN(C)c1ccc2cc(C([NH-])=O)n(C(=O)Cc3cc[nH+]s3)c2c1 (optimized conformer: 122.36308170564224 kcal/mol)

>  <smiles>  (33) 
CN(C)CC(=O)OCCN(C)c1ccc2cc(C(N)=O)n(C(=O)Cc3ccns3)c2c1

>  <score_type>  (33) 
oracle

>  <origin>  (33) 
adg

>  <m_score__min__energy>  (33) 
-9.8900000000000006

>  <m_primary>  (33) 
energy

$$$$
33:0
     RDKit          3D

 53 54  0  0  0  0  0  0  0  0999 V2000
   -3.3780   22.8100  -27.7210 C   0  0  0  0  0  0  0  0  0  0  0  0
   -3.0080   22.9670  -29.0000 C   0  0  0  0  0  0  0  0  0  0  0  0
   -3.5740   22.1960  -30.0290 O   0  0  0  0  0  0  0  0  0  0  0  0
   -4.1260   22.6990  -31.2130 C   0  0  0  0  0  0  0  0  0  0  0  0
   -3.4000   22.9020  -32.2250 O   0  0  0  0  0  0  0  0  0  0  0  0
   -5.5440   22.9070  -31.2980 N   0  0  0  0  0  0  0  0  0  0  0  0
   -6.2450   23.9850  -30.8440 C   0  0  0  0  0  0  0  0  0  0  0  0
   -5.6500   25.2430  -30.3430 C   0  0  0  0  0  0  0  0  0  0  0  0
   -4.2850   25.5650  -30.6120 N   0  0  0  0  0  0  0  0  0  0  0  0
   -6.3350   26.0280  -29.6370 O   0  0  0  0  0  0  0  0  0  0  0  0
   -7.6160   23.7760  -31.0000 C   0  0  0  0  0  0  0  0  0  0  0  0
   -7.7310   22.5270  -31.5680 C   0  0  0  0  0  0  0  0  0  0  0  0
   -8.8670   21.8070  -31.9180 C   0  0  0  0  0  0  0  0  0  0  0  0
   -8.6950   20.5200  -32.4560 C   0  0  0  0  0  0  0  0  0  0  0  0
   -7.3940   19.9730  -32.6260 C   0  0  0  0  0  0  0  0  0  0  0  0
   -7.1900   18.6560  -33.1740 N   0  0  0  0  0  0  0  0  0  0  0  0
   -5.8850   18.0120  -33.3330 C   0  0  0  0  0  0  0  0  0  0  0  0
   -5.3850   18.1410  -34.7720 C   0  0  0  0  0  0  0  0  0  0  0  0
   -4.1700   17.3570  -34.9480 N   0  0  0  0  0  0  0  0  0  0  0  0
   -3.0440   17.4890  -34.0790 C   0  0  0  0  0  0  0  0  0  0  0  0
   -2.9150   16.6810  -33.1220 O   0  0  0  0  0  0  0  0  0  0  0  0
   -2.1080   18.5100  -34.3020 O   0  0  0  0  0  0  0  0  0  0  0  0
   -1.9650   19.7150  -33.5340 C   0  0  0  0  0  0  0  0  0  0  0  0
   -0.9610   20.6740  -34.2030 C   0  0  0  0  0  0  0  0  0  0  0  0
   -1.5270   19.3870  -32.0950 C   0  0  0  0  0  0  0  0  0  0  0  0
   -3.3420   20.3910  -33.4930 C   0  0  0  0  0  0  0  0  0  0  0  0
   -6.2670   20.7410  -32.2580 C   0  0  0  0  0  0  0  0  0  0  0  0
   -6.4680   22.0240  -31.7400 C   0  0  0  0  0  0  0  0  0  0  0  0
   -1.9480   23.9250  -29.3590 C   0  0  0  0  0  0  0  0  0  0  0  0
   -0.7910   23.5060  -29.6210 O   0  0  0  0  0  0  0  0  0  0  0  0
   -2.2040   25.2900  -29.4130 O   0  0  0  0  0  0  0  0  0  0  0  0
   -2.9179   23.4276  -26.9356 H   0  0  0  0  0  0  0  0  0  0  0  0
   -4.1416   22.0636  -27.4570 H   0  0  0  0  0  0  0  0  0  0  0  0
   -3.8710   26.4440  -30.2280 H   0  0  0  0  0  0  0  0  0  0  0  0
   -3.6960   24.9660  -31.2310 H   0  0  0  0  0  0  0  0  0  0  0  0
   -8.4310   24.4627  -30.7273 H   0  0  0  0  0  0  0  0  0  0  0  0
   -9.8718   22.2321  -31.7780 H   0  0  0  0  0  0  0  0  0  0  0  0
   -9.5761   19.9300  -32.7485 H   0  0  0  0  0  0  0  0  0  0  0  0
   -8.0250   18.1230  -33.5050 H   0  0  0  0  0  0  0  0  0  0  0  0
   -5.1621   18.4910  -32.6562 H   0  0  0  0  0  0  0  0  0  0  0  0
   -5.9882   16.9439  -33.0911 H   0  0  0  0  0  0  0  0  0  0  0  0
   -6.1593   17.7731  -35.4613 H   0  0  0  0  0  0  0  0  0  0  0  0
   -5.1676   19.1979  -34.9860 H   0  0  0  0  0  0  0  0  0  0  0  0
   -0.3966   21.2131  -33.4279 H   0  0  0  0  0  0  0  0  0  0  0  0
   -0.2645   20.0972  -34.8293 H   0  0  0  0  0  0  0  0  0  0  0  0
   -1.5053   21.3962  -34.8293 H   0  0  0  0  0  0  0  0  0  0  0  0
   -2.1986   19.8899  -31.3837 H   0  0  0  0  0  0  0  0  0  0  0  0
   -1.5731   18.2994  -31.9366 H   0  0  0  0  0  0  0  0  0  0  0  0
   -0.4964   19.7373  -31.9366 H   0  0  0  0  0  0  0  0  0  0  0  0
   -3.6461   20.5403  -32.4465 H   0  0  0  0  0  0  0  0  0  0  0  0
   -3.2877   21.3649  -34.0016 H   0  0  0  0  0  0  0  0  0  0  0  0
   -4.0793   19.7524  -34.0016 H   0  0  0  0  0  0  0  0  0  0  0  0
   -5.2506   20.3374  -32.3767 H   0  0  0  0  0  0  0  0  0  0  0  0
  1  2  2  0
  2  3  1  0
  3  4  1  0
  4  5  2  0
  4  6  1  0
  6  7  1  0
  7  8  1  0
  8  9  1  0
  8 10  2  0
  7 11  2  0
 11 12  1  0
 12 13  2  0
 13 14  1  0
 14 15  2  0
 15 16  1  0
 16 17  1  0
 17 18  1  0
 18 19  1  0
 19 20  1  0
 20 21  2  0
 20 22  1  0
 22 23  1  0
 23 24  1  0
 23 25  1  0
 23 26  1  0
 15 27  1  0
 27 28  2  0
  2 29  1  0
 29 30  2  0
 29 31  1  0
 28  6  1  0
 28 12  1  0
  1 32  1  0
  1 33  1  0
  9 34  1  0
  9 35  1  0
 11 36  1  0
 13 37  1  0
 14 38  1  0
 16 39  1  0
 17 40  1  0
 17 41  1  0
 18 42  1  0
 18 43  1  0
 24 44  1  0
 24 45  1  0
 24 46  1  0
 25 47  1  0
 25 48  1  0
 25 49  1  0
 26 50  1  0
 26 51  1  0
 26 52  1  0
 27 53  1  0
M  CHG  2  19  -1  31  -1
M  END
>  <UniqueID>  (34) 
34

>  <SMILES>  (34) 
C=C(OC(=O)n1c(C(N)=O)cc2ccc(NCC[N-]C(=O)OC(C)(C)C)cc21)C(=O)[O-]

>  <Energy>  (34) 
84.8980304524353

>  <Genealogy>  (34) 
C=C(OC(=O)n1c(C(N)=O)cc2ccc(NCC[N-]C(=O)OC(C)(C)C)cc21)C(=O)[O-] (protonated)
C=C(OC(=O)n1c(C(N)=O)cc2ccc(NCC[N-]C(=O)OC(C)(C)C)cc21)C(=O)[O-] (3D coordinates assigned)
C=C(OC(=O)n1c(C(N)=O)cc2ccc(NCC[N-]C(=O)OC(C)(C)C)cc21)C(=O)[O-] (optimized conformer: 84.8980304524353 kcal/mol)

>  <smiles>  (34) 
C=C(OC(=O)n1c(C(N)=O)cc2ccc(NCCNC(=O)OC(C)(C)C)cc21)C(=O)O

>  <score_type>  (34) 
oracle

>  <origin>  (34) 
adg

>  <m_score__min__energy>  (34) 
-11.789999999999999

>  <m_primary>  (34) 
energy

$$$$
34:0
     RDKit          3D

 43 44  0  0  0  0  0  0  0  0999 V2000
   -0.4820   21.6540  -27.2670 C   0  0  0  0  0  0  0  0  0  0  0  0
   -1.2140   22.6220  -28.0900 N   0  0  0  0  0  0  0  0  0  0  0  0
   -0.4750   23.7360  -28.7060 C   0  0  0  0  0  0  0  0  0  0  0  0
   -1.1760   25.0650  -28.4180 C   0  0  0  0  0  0  0  0  0  0  0  0
   -2.1880   25.2940  -29.3600 O   0  0  0  0  0  0  0  0  0  0  0  0
   -2.6270   22.4160  -28.3200 C   0  0  0  0  0  0  0  0  0  0  0  0
   -3.4420   23.3430  -28.0630 O   0  0  0  0  0  0  0  0  0  0  0  0
   -3.1630   21.1420  -28.9050 C   0  0  0  0  0  0  0  0  0  0  0  0
   -3.3360   21.3060  -30.3080 O   0  0  0  0  0  0  0  0  0  0  0  0
   -3.8530   22.4730  -30.8760 C   0  0  0  0  0  0  0  0  0  0  0  0
   -3.0750   23.3830  -31.2740 O   0  0  0  0  0  0  0  0  0  0  0  0
   -5.2740   22.6350  -31.0060 N   0  0  0  0  0  0  0  0  0  0  0  0
   -6.0010   23.7710  -30.8100 C   0  0  0  0  0  0  0  0  0  0  0  0
   -5.4890   25.0430  -30.2640 C   0  0  0  0  0  0  0  0  0  0  0  0
   -4.1980   25.5380  -30.6280 N   0  0  0  0  0  0  0  0  0  0  0  0
   -6.1760   25.6760  -29.4200 O   0  0  0  0  0  0  0  0  0  0  0  0
   -7.3370   23.5640  -31.1440 C   0  0  0  0  0  0  0  0  0  0  0  0
   -7.4120   22.2480  -31.5380 C   0  0  0  0  0  0  0  0  0  0  0  0
   -8.5010   21.5140  -31.9970 C   0  0  0  0  0  0  0  0  0  0  0  0
   -8.2850   20.1790  -32.3760 C   0  0  0  0  0  0  0  0  0  0  0  0
   -6.9920   19.5990  -32.2850 C   0  0  0  0  0  0  0  0  0  0  0  0
   -6.7610   18.1840  -32.7510 C   0  0  0  0  0  0  0  0  0  0  0  0
   -7.9010   17.4360  -32.5180 F   0  0  0  0  0  0  0  0  0  0  0  0
   -5.7010   17.6120  -32.0700 F   0  0  0  0  0  0  0  0  0  0  0  0
   -6.4710   18.1560  -34.1040 F   0  0  0  0  0  0  0  0  0  0  0  0
   -5.9060   20.3870  -31.8400 C   0  0  0  0  0  0  0  0  0  0  0  0
   -6.1540   21.7080  -31.4470 C   0  0  0  0  0  0  0  0  0  0  0  0
   -0.6500   21.8762  -26.2029 H   0  0  0  0  0  0  0  0  0  0  0  0
   -0.8398   20.6381  -27.4904 H   0  0  0  0  0  0  0  0  0  0  0  0
    0.5930   21.7215  -27.4904 H   0  0  0  0  0  0  0  0  0  0  0  0
    0.5442   23.7669  -28.2934 H   0  0  0  0  0  0  0  0  0  0  0  0
   -0.4376   23.5808  -29.7944 H   0  0  0  0  0  0  0  0  0  0  0  0
   -1.6179   25.0317  -27.4112 H   0  0  0  0  0  0  0  0  0  0  0  0
   -0.4390   25.8794  -28.4787 H   0  0  0  0  0  0  0  0  0  0  0  0
   -2.4890   24.4020  -29.6750 H   0  0  0  0  0  0  0  0  0  0  0  0
   -2.4533   20.3232  -28.7153 H   0  0  0  0  0  0  0  0  0  0  0  0
   -4.1301   20.9007  -28.4398 H   0  0  0  0  0  0  0  0  0  0  0  0
   -3.8680   26.4570  -30.2610 H   0  0  0  0  0  0  0  0  0  0  0  0
   -3.5360   24.9580  -31.1890 H   0  0  0  0  0  0  0  0  0  0  0  0
   -8.1569   24.2961  -31.1018 H   0  0  0  0  0  0  0  0  0  0  0  0
   -9.5018   21.9659  -32.0612 H   0  0  0  0  0  0  0  0  0  0  0  0
   -9.1267   19.5760  -32.7474 H   0  0  0  0  0  0  0  0  0  0  0  0
   -4.8882   19.9715  -31.8032 H   0  0  0  0  0  0  0  0  0  0  0  0
  1  2  1  0
  2  3  1  0
  3  4  1  0
  4  5  1  0
  2  6  1  0
  6  7  2  0
  6  8  1  0
  8  9  1  0
  9 10  1  0
 10 11  2  0
 10 12  1  0
 12 13  1  0
 13 14  1  0
 14 15  1  0
 14 16  2  0
 13 17  2  0
 17 18  1  0
 18 19  2  0
 19 20  1  0
 20 21  2  0
 21 22  1  0
 22 23  1  0
 22 24  1  0
 22 25  1  0
 21 26  1  0
 26 27  2  0
 27 12  1  0
 27 18  1  0
  1 28  1  0
  1 29  1  0
  1 30  1  0
  3 31  1  0
  3 32  1  0
  4 33  1  0
  4 34  1  0
  5 35  1  0
  8 36  1  0
  8 37  1  0
 15 38  1  0
 15 39  1  0
 17 40  1  0
 19 41  1  0
 20 42  1  0
 26 43  1  0
M  END
>  <UniqueID>  (35) 
35

>  <SMILES>  (35) 
CN(CCO)C(=O)COC(=O)n1c(C(N)=O)cc2ccc(C(F)(F)F)cc21

>  <Energy>  (35) 
75.64529802151051

>  <Genealogy>  (35) 
CN(CCO)C(=O)COC(=O)n1c(C(N)=O)cc2ccc(C(F)(F)F)cc21 (3D coordinates assigned)
CN(CCO)C(=O)COC(=O)n1c(C(N)=O)cc2ccc(C(F)(F)F)cc21 (optimized conformer: 75.64529802151051 kcal/mol)

>  <smiles>  (35) 
CN(CCO)C(=O)COC(=O)n1c(C(N)=O)cc2ccc(C(F)(F)F)cc21

>  <score_type>  (35) 
oracle

>  <origin>  (35) 
adg

>  <m_score__min__energy>  (35) 
-8.5600000000000005

>  <m_primary>  (35) 
energy

$$$$
35:0
     RDKit          3D

 37 38  0  0  0  0  0  0  0  0999 V2000
   -5.7640   18.1570  -34.9270 C   0  0  0  0  0  0  0  0  0  0  0  0
   -6.4870   18.2770  -33.6570 N   0  0  0  0  0  0  0  0  0  0  0  0
   -7.0070   17.0610  -33.0170 C   0  0  0  0  0  0  0  0  0  0  0  0
   -6.6850   19.5750  -33.0390 C   0  0  0  0  0  0  0  0  0  0  0  0
   -7.9910   20.1330  -32.9160 C   0  0  0  0  0  0  0  0  0  0  0  0
   -8.1910   21.3880  -32.3170 C   0  0  0  0  0  0  0  0  0  0  0  0
   -7.0750   22.0780  -31.8570 C   0  0  0  0  0  0  0  0  0  0  0  0
   -6.9850   23.2940  -31.2170 C   0  0  0  0  0  0  0  0  0  0  0  0
   -5.6260   23.4830  -30.9730 C   0  0  0  0  0  0  0  0  0  0  0  0
   -5.0680   24.6980  -30.3410 C   0  0  0  0  0  0  0  0  0  0  0  0
   -3.8790   25.3060  -30.8380 N   0  0  0  0  0  0  0  0  0  0  0  0
   -5.6670   25.2240  -29.3650 O   0  0  0  0  0  0  0  0  0  0  0  0
   -4.9070   22.4260  -31.4450 N   0  0  0  0  0  0  0  0  0  0  0  0
   -3.4940   22.2010  -31.3300 C   0  0  0  0  0  0  0  0  0  0  0  0
   -2.8020   22.0280  -32.3700 O   0  0  0  0  0  0  0  0  0  0  0  0
   -2.8380   22.1900  -30.0160 C   0  0  0  0  0  0  0  0  0  0  0  0
   -3.1060   21.2780  -29.1870 O   0  0  0  0  0  0  0  0  0  0  0  0
   -1.9200   23.1950  -29.6930 O   0  0  0  0  0  0  0  0  0  0  0  0
   -1.9780   23.9460  -28.4820 C   0  0  0  0  0  0  0  0  0  0  0  0
   -1.0980   25.1520  -28.5780 C   0  0  0  0  0  0  0  0  0  0  0  0
   -1.5740   26.2510  -28.9680 O   0  0  0  0  0  0  0  0  0  0  0  0
    0.2370   25.0740  -28.2040 O   0  0  0  0  0  0  0  0  0  0  0  0
   -5.8100   21.5730  -31.9770 C   0  0  0  0  0  0  0  0  0  0  0  0
   -5.5800   20.3160  -32.5460 C   0  0  0  0  0  0  0  0  0  0  0  0
   -4.6971   17.9799  -34.7262 H   0  0  0  0  0  0  0  0  0  0  0  0
   -6.1733   17.3145  -35.5038 H   0  0  0  0  0  0  0  0  0  0  0  0
   -5.8792   19.0866  -35.5038 H   0  0  0  0  0  0  0  0  0  0  0  0
   -6.9591   17.1729  -31.9238 H   0  0  0  0  0  0  0  0  0  0  0  0
   -8.0514   16.9030  -33.3240 H   0  0  0  0  0  0  0  0  0  0  0  0
   -6.3998   16.1967  -33.3240 H   0  0  0  0  0  0  0  0  0  0  0  0
   -8.8569   19.5714  -33.2966 H   0  0  0  0  0  0  0  0  0  0  0  0
   -9.2008   21.8122  -32.2149 H   0  0  0  0  0  0  0  0  0  0  0  0
   -7.8104   23.9720  -30.9542 H   0  0  0  0  0  0  0  0  0  0  0  0
   -2.9840   25.2540  -30.3020 H   0  0  0  0  0  0  0  0  0  0  0  0
   -3.0149   24.2664  -28.3027 H   0  0  0  0  0  0  0  0  0  0  0  0
   -1.6307   23.3140  -27.6513 H   0  0  0  0  0  0  0  0  0  0  0  0
   -4.5601   19.9090  -32.6101 H   0  0  0  0  0  0  0  0  0  0  0  0
  1  2  1  0
  2  3  1  0
  2  4  1  0
  4  5  2  0
  5  6  1  0
  6  7  2  0
  7  8  1  0
  8  9  2  0
  9 10  1  0
 10 11  1  0
 10 12  2  0
  9 13  1  0
 13 14  1  0
 14 15  2  0
 14 16  1  0
 16 17  2  0
 16 18  1  0
 18 19  1  0
 19 20  1  0
 20 21  2  0
 20 22  1  0
 13 23  1  0
 23 24  2  0
 24  4  1  0
 23  7  1  0
  1 25  1  0
  1 26  1  0
  1 27  1  0
  3 28  1  0
  3 29  1  0
  3 30  1  0
  5 31  1  0
  6 32  1  0
  8 33  1  0
 11 34  1  0
 19 35  1  0
 19 36  1  0
 24 37  1  0
M  CHG  2  11  -1  22  -1
M  END
>  <UniqueID>  (36) 
36

>  <SMILES>  (36) 
CN(C)c1ccc2cc(C([NH-])=O)n(C(=O)C(=O)OCC(=O)[O-])c2c1

>  <Energy>  (36) 
74.80218233056883

>  <Genealogy>  (36) 
CN(C)c1ccc2cc(C([NH-])=O)n(C(=O)C(=O)OCC(=O)[O-])c2c1 (protonated)
CN(C)c1ccc2cc(C([NH-])=O)n(C(=O)C(=O)OCC(=O)[O-])c2c1 (3D coordinates assigned)
CN(C)c1ccc2cc(C([NH-])=O)n(C(=O)C(=O)OCC(=O)[O-])c2c1 (optimized conformer: 74.80218233056883 kcal/mol)

>  <smiles>  (36) 
CN(C)c1ccc2cc(C(N)=O)n(C(=O)C(=O)OCC(=O)O)c2c1

>  <score_type>  (36) 
oracle

>  <origin>  (36) 
adg

>  <m_score__min__energy>  (36) 
-12

>  <m_primary>  (36) 
energy

$$$$
36:0
     RDKit          3D

 35 36  0  0  0  0  0  0  0  0999 V2000
   -6.2940   18.2560  -32.7590 C   0  0  0  0  0  0  0  0  0  0  0  0
   -6.6060   19.6810  -32.4150 C   0  0  0  0  0  0  0  0  0  0  0  0
   -7.9410   20.1530  -32.4880 C   0  0  0  0  0  0  0  0  0  0  0  0
   -8.2590   21.4670  -32.1060 C   0  0  0  0  0  0  0  0  0  0  0  0
   -7.2260   22.2820  -31.6510 C   0  0  0  0  0  0  0  0  0  0  0  0
   -7.2530   23.5770  -31.1850 C   0  0  0  0  0  0  0  0  0  0  0  0
   -5.9370   23.8710  -30.8330 C   0  0  0  0  0  0  0  0  0  0  0  0
   -5.4970   25.1870  -30.3300 C   0  0  0  0  0  0  0  0  0  0  0  0
   -4.1570   25.6290  -30.5180 N   0  0  0  0  0  0  0  0  0  0  0  0
   -6.3260   25.9510  -29.7670 O   0  0  0  0  0  0  0  0  0  0  0  0
   -5.1300   22.8000  -31.0720 N   0  0  0  0  0  0  0  0  0  0  0  0
   -3.7360   22.6520  -30.7650 C   0  0  0  0  0  0  0  0  0  0  0  0
   -3.0400   21.8610  -31.4600 O   0  0  0  0  0  0  0  0  0  0  0  0
   -3.1940   23.2600  -29.5690 N   0  0  1  0  0  0  0  0  0  0  0  0
   -3.9260   22.7770  -28.3850 C   0  0  0  0  0  0  0  0  0  0  0  0
   -1.7220   23.1100  -29.4410 C   0  0  0  0  0  0  0  0  0  0  0  0
   -0.9930   24.3870  -29.1110 C   0  0  0  0  0  0  0  0  0  0  0  0
    0.1870   24.3490  -28.6760 O   0  0  0  0  0  0  0  0  0  0  0  0
   -1.6080   25.6170  -29.3140 O   0  0  0  0  0  0  0  0  0  0  0  0
   -5.9310   21.8380  -31.5740 C   0  0  0  0  0  0  0  0  0  0  0  0
   -5.5870   20.5320  -31.9360 C   0  0  0  0  0  0  0  0  0  0  0  0
   -6.1668   17.6749  -31.8338 H   0  0  0  0  0  0  0  0  0  0  0  0
   -7.1205   17.8315  -33.3479 H   0  0  0  0  0  0  0  0  0  0  0  0
   -5.3658   18.2157  -33.3479 H   0  0  0  0  0  0  0  0  0  0  0  0
   -8.7361   19.4833  -32.8475 H   0  0  0  0  0  0  0  0  0  0  0  0
   -9.2921   21.8403  -32.1646 H   0  0  0  0  0  0  0  0  0  0  0  0
   -8.1278   24.2393  -31.1070 H   0  0  0  0  0  0  0  0  0  0  0  0
   -3.4860   25.6760  -29.7190 H   0  0  0  0  0  0  0  0  0  0  0  0
   -3.3760   24.2900  -29.6340 H   0  0  0  0  0  0  0  0  0  0  0  0
   -3.4126   23.1158  -27.4731 H   0  0  0  0  0  0  0  0  0  0  0  0
   -4.9506   23.1770  -28.3990 H   0  0  0  0  0  0  0  0  0  0  0  0
   -3.9613   21.6777  -28.3990 H   0  0  0  0  0  0  0  0  0  0  0  0
   -1.5185   22.3813  -28.6425 H   0  0  0  0  0  0  0  0  0  0  0  0
   -1.3529   22.7826  -30.4241 H   0  0  0  0  0  0  0  0  0  0  0  0
   -4.5494   20.1771  -31.8497 H   0  0  0  0  0  0  0  0  0  0  0  0
  1  2  1  0
  2  3  2  0
  3  4  1  0
  4  5  2  0
  5  6  1  0
  6  7  2  0
  7  8  1  0
  8  9  1  0
  8 10  2  0
  7 11  1  0
 11 12  1  0
 12 13  2  0
 12 14  1  0
 14 15  1  0
 14 16  1  0
 16 17  1  0
 17 18  2  0
 17 19  1  0
 11 20  1  0
 20 21  2  0
 21  2  1  0
 20  5  1  0
  1 22  1  0
  1 23  1  0
  1 24  1  0
  3 25  1  0
  4 26  1  0
  6 27  1  0
  9 28  1  0
 14 29  1  6
 15 30  1  0
 15 31  1  0
 15 32  1  0
 16 33  1  0
 16 34  1  0
 21 35  1  0
M  CHG  3   9  -1  14   1  19  -1
M  END
>  <UniqueID>  (37) 
37

>  <SMILES>  (37) 
Cc1ccc2cc(C([NH-])=O)n(C(=O)[N@@H+](C)CC(=O)[O-])c2c1

>  <Energy>  (37) 
79.62014103042131

>  <Genealogy>  (37) 
Cc1ccc2cc(C([NH-])=O)n(C(=O)[NH+](C)CC(=O)[O-])c2c1 (protonated)
Cc1ccc2cc(C([NH-])=O)n(C(=O)[N@@H+](C)CC(=O)[O-])c2c1 (chirality)
Cc1ccc2cc(C([NH-])=O)n(C(=O)[N@@H+](C)CC(=O)[O-])c2c1 (3D coordinates assigned)
Cc1ccc2cc(C([NH-])=O)n(C(=O)[N@@H+](C)CC(=O)[O-])c2c1 (optimized conformer: 79.62014103042131 kcal/mol)

>  <smiles>  (37) 
Cc1ccc2cc(C(N)=O)n(C(=O)N(C)CC(=O)O)c2c1

>  <score_type>  (37) 
oracle

>  <origin>  (37) 
adg

>  <m_score__min__energy>  (37) 
-10.81

>  <m_primary>  (37) 
energy

$$$$
37:0
     RDKit          3D

 40 41  0  0  0  0  0  0  0  0999 V2000
   -3.8100   22.2980  -27.8560 C   0  0  0  0  0  0  0  0  0  0  0  0
   -3.0800   23.6460  -27.7980 C   0  0  2  0  0  0  0  0  0  0  0  0
   -3.9900   24.6890  -28.0350 O   0  0  0  0  0  0  0  0  0  0  0  0
   -1.9140   23.7010  -28.8170 C   0  0  1  0  0  0  0  0  0  0  0  0
   -2.3880   23.4870  -30.1880 N   0  0  0  0  0  0  0  0  0  0  0  0
   -2.7720   22.2300  -30.7600 C   0  0  0  0  0  0  0  0  0  0  0  0
   -2.2970   21.1510  -30.3140 O   0  0  0  0  0  0  0  0  0  0  0  0
   -3.7440   22.2020  -31.8630 C   0  0  0  0  0  0  0  0  0  0  0  0
   -3.3290   22.2170  -33.0530 O   0  0  0  0  0  0  0  0  0  0  0  0
   -5.1570   22.1720  -31.6040 N   0  0  0  0  0  0  0  0  0  0  0  0
   -5.9290   23.1440  -31.0400 C   0  0  0  0  0  0  0  0  0  0  0  0
   -5.4380   24.4020  -30.4390 C   0  0  0  0  0  0  0  0  0  0  0  0
   -6.0750   24.9810  -29.3010 N   0  0  0  0  0  0  0  0  0  0  0  0
   -4.4610   24.9980  -30.9670 O   0  0  0  0  0  0  0  0  0  0  0  0
   -7.2720   22.7770  -31.0630 C   0  0  0  0  0  0  0  0  0  0  0  0
   -7.2990   21.5300  -31.6450 C   0  0  0  0  0  0  0  0  0  0  0  0
   -8.3760   20.6990  -31.9360 C   0  0  0  0  0  0  0  0  0  0  0  0
   -8.1120   19.4760  -32.5760 C   0  0  0  0  0  0  0  0  0  0  0  0
   -6.7820   19.0990  -32.9020 C   0  0  0  0  0  0  0  0  0  0  0  0
   -6.5180   17.8130  -33.6420 C   0  0  0  0  0  0  0  0  0  0  0  0
   -5.4000   17.1760  -33.1310 F   0  0  0  0  0  0  0  0  0  0  0  0
   -6.2990   18.0590  -34.9870 F   0  0  0  0  0  0  0  0  0  0  0  0
   -7.6130   16.9790  -33.5090 F   0  0  0  0  0  0  0  0  0  0  0  0
   -5.7170   19.9840  -32.6110 C   0  0  0  0  0  0  0  0  0  0  0  0
   -6.0100   21.1870  -31.9610 C   0  0  0  0  0  0  0  0  0  0  0  0
   -1.0960   24.9650  -28.7220 C   0  0  0  0  0  0  0  0  0  0  0  0
   -1.6100   26.0910  -28.9640 O   0  0  0  0  0  0  0  0  0  0  0  0
    0.2250   24.9020  -28.2920 O   0  0  0  0  0  0  0  0  0  0  0  0
   -4.0032   21.9413  -26.8335 H   0  0  0  0  0  0  0  0  0  0  0  0
   -4.7649   22.4207  -28.3880 H   0  0  0  0  0  0  0  0  0  0  0  0
   -3.1854   21.5653  -28.3880 H   0  0  0  0  0  0  0  0  0  0  0  0
   -2.6482   23.7629  -26.7931 H   0  0  0  0  0  0  0  0  0  0  0  0
   -3.6900   25.1520  -28.8600 H   0  0  0  0  0  0  0  0  0  0  0  0
   -1.2415   22.8736  -28.5468 H   0  0  0  0  0  0  0  0  0  0  0  0
   -6.9900   24.6220  -28.9510 H   0  0  0  0  0  0  0  0  0  0  0  0
   -5.6730   25.8350  -28.8530 H   0  0  0  0  0  0  0  0  0  0  0  0
   -8.1291   23.3597  -30.6944 H   0  0  0  0  0  0  0  0  0  0  0  0
   -9.4036   20.9905  -31.6730 H   0  0  0  0  0  0  0  0  0  0  0  0
   -8.9450   18.8030  -32.8274 H   0  0  0  0  0  0  0  0  0  0  0  0
   -4.6832   19.7317  -32.8894 H   0  0  0  0  0  0  0  0  0  0  0  0
  1  2  1  0
  2  3  1  0
  2  4  1  0
  4  5  1  0
  5  6  1  0
  6  7  2  0
  6  8  1  0
  8  9  2  0
  8 10  1  0
 10 11  1  0
 11 12  1  0
 12 13  1  0
 12 14  2  0
 11 15  2  0
 15 16  1  0
 16 17  2  0
 17 18  1  0
 18 19  2  0
 19 20  1  0
 20 21  1  0
 20 22  1  0
 20 23  1  0
 19 24  1  0
 24 25  2  0
  4 26  1  0
 26 27  2  0
 26 28  1  0
 25 10  1  0
 25 16  1  0
  1 29  1  0
  1 30  1  0
  1 31  1  0
  2 32  1  1
  3 33  1  0
  4 34  1  1
 13 35  1  0
 13 36  1  0
 15 37  1  0
 17 38  1  0
 18 39  1  0
 24 40  1  0
M  CHG  2   5  -1  28  -1
M  END
>  <UniqueID>  (38) 
38

>  <SMILES>  (38) 
C[C@H](O)[C@@H]([N-]C(=O)C(=O)n1c(C(N)=O)cc2ccc(C(F)(F)F)cc21)C(=O)[O-]

>  <Energy>  (38) 
77.869173131869

>  <Genealogy>  (38) 
CC(O)C([N-]C(=O)C(=O)n1c(C(N)=O)cc2ccc(C(F)(F)F)cc21)C(=O)[O-] (protonated)
C[C@H](O)[C@@H]([N-]C(=O)C(=O)n1c(C(N)=O)cc2ccc(C(F)(F)F)cc21)C(=O)[O-] (chirality)
C[C@H](O)[C@@H]([N-]C(=O)C(=O)n1c(C(N)=O)cc2ccc(C(F)(F)F)cc21)C(=O)[O-] (3D coordinates assigned)
C[C@H](O)[C@@H]([N-]C(=O)C(=O)n1c(C(N)=O)cc2ccc(C(F)(F)F)cc21)C(=O)[O-] (optimized conformer: 77.869173131869 kcal/mol)

>  <smiles>  (38) 
CC(O)C(NC(=O)C(=O)n1c(C(N)=O)cc2ccc(C(F)(F)F)cc21)C(=O)O

>  <score_type>  (38) 
oracle

>  <origin>  (38) 
adg

>  <m_score__min__energy>  (38) 
-11.66

>  <m_primary>  (38) 
energy

$$$$
38:0
     RDKit          3D

 38 39  0  0  0  0  0  0  0  0999 V2000
   -8.4760   23.1070  -31.7850 C   0  0  0  0  0  0  0  0  0  0  0  0
   -8.1470   21.6690  -32.0490 C   0  0  0  0  0  0  0  0  0  0  0  0
   -9.1710   20.6910  -32.0290 C   0  0  0  0  0  0  0  0  0  0  0  0
   -8.8800   19.3430  -32.3010 C   0  0  0  0  0  0  0  0  0  0  0  0
   -7.5630   19.0100  -32.6100 C   0  0  0  0  0  0  0  0  0  0  0  0
   -6.9990   17.7850  -32.8890 C   0  0  0  0  0  0  0  0  0  0  0  0
   -5.6460   18.0420  -33.1100 C   0  0  0  0  0  0  0  0  0  0  0  0
   -4.6660   17.0030  -33.4900 C   0  0  0  0  0  0  0  0  0  0  0  0
   -3.9550   17.0770  -34.7220 N   0  0  0  0  0  0  0  0  0  0  0  0
   -4.4730   16.0180  -32.7270 O   0  0  0  0  0  0  0  0  0  0  0  0
   -5.3880   19.3730  -32.9750 N   0  0  0  0  0  0  0  0  0  0  0  0
   -4.1140   20.0330  -33.0500 C   0  0  0  0  0  0  0  0  0  0  0  0
   -3.4050   19.9020  -34.0840 O   0  0  0  0  0  0  0  0  0  0  0  0
   -3.6240   20.8530  -31.9350 C   0  0  0  0  0  0  0  0  0  0  0  0
   -2.9060   20.3310  -31.0390 O   0  0  0  0  0  0  0  0  0  0  0  0
   -3.9640   22.2090  -31.8740 O   0  0  0  0  0  0  0  0  0  0  0  0
   -4.5450   22.8160  -30.7210 C   0  0  0  0  0  0  0  0  0  0  0  0
   -4.3550   24.3090  -30.7390 C   0  0  0  0  0  0  0  0  0  0  0  0
   -5.2310   25.0410  -31.2740 O   0  0  0  0  0  0  0  0  0  0  0  0
   -3.2340   24.9300  -30.1020 N   0  0  0  0  0  0  0  0  0  0  0  0
   -2.3210   24.2420  -29.1990 C   0  0  0  0  0  0  0  0  0  0  0  0
   -1.1420   25.1150  -28.9290 C   0  0  0  0  0  0  0  0  0  0  0  0
   -1.2380   26.3650  -29.0450 O   0  0  0  0  0  0  0  0  0  0  0  0
    0.0820   24.5460  -28.6000 O   0  0  0  0  0  0  0  0  0  0  0  0
   -6.5680   19.9510  -32.6640 C   0  0  0  0  0  0  0  0  0  0  0  0
   -6.8250   21.2960  -32.3780 C   0  0  0  0  0  0  0  0  0  0  0  0
   -8.5157   23.2807  -30.6995 H   0  0  0  0  0  0  0  0  0  0  0  0
   -7.7013   23.7482  -32.2308 H   0  0  0  0  0  0  0  0  0  0  0  0
   -9.4524   23.3476  -32.2308 H   0  0  0  0  0  0  0  0  0  0  0  0
  -10.2044   20.9892  -31.7983 H   0  0  0  0  0  0  0  0  0  0  0  0
   -9.6672   18.5753  -32.2708 H   0  0  0  0  0  0  0  0  0  0  0  0
   -7.5077   16.8105  -32.9291 H   0  0  0  0  0  0  0  0  0  0  0  0
   -3.4380   17.9430  -34.9930 H   0  0  0  0  0  0  0  0  0  0  0  0
   -5.6216   22.5913  -30.7010 H   0  0  0  0  0  0  0  0  0  0  0  0
   -4.0484   22.4120  -29.8265 H   0  0  0  0  0  0  0  0  0  0  0  0
   -2.8375   24.0197  -28.2536 H   0  0  0  0  0  0  0  0  0  0  0  0
   -1.9849   23.3021  -29.6612 H   0  0  0  0  0  0  0  0  0  0  0  0
   -6.0186   22.0436  -32.4085 H   0  0  0  0  0  0  0  0  0  0  0  0
  1  2  1  0
  2  3  2  0
  3  4  1  0
  4  5  2  0
  5  6  1  0
  6  7  2  0
  7  8  1  0
  8  9  1  0
  8 10  2  0
  7 11  1  0
 11 12  1  0
 12 13  2  0
 12 14  1  0
 14 15  2  0
 14 16  1  0
 16 17  1  0
 17 18  1  0
 18 19  2  0
 18 20  1  0
 20 21  1  0
 21 22  1  0
 22 23  2  0
 22 24  1  0
 11 25  1  0
 25 26  2  0
 26  2  1  0
 25  5  1  0
  1 27  1  0
  1 28  1  0
  1 29  1  0
  3 30  1  0
  4 31  1  0
  6 32  1  0
  9 33  1  0
 17 34  1  0
 17 35  1  0
 21 36  1  0
 21 37  1  0
 26 38  1  0
M  CHG  3   9  -1  20  -1  24  -1
M  END
>  <UniqueID>  (39) 
39

>  <SMILES>  (39) 
Cc1ccc2cc(C([NH-])=O)n(C(=O)C(=O)OCC(=O)[N-]CC(=O)[O-])c2c1

>  <Energy>  (39) 
71.50298424543448

>  <Genealogy>  (39) 
Cc1ccc2cc(C([NH-])=O)n(C(=O)C(=O)OCC(=O)[N-]CC(=O)[O-])c2c1 (protonated)
Cc1ccc2cc(C([NH-])=O)n(C(=O)C(=O)OCC(=O)[N-]CC(=O)[O-])c2c1 (3D coordinates assigned)
Cc1ccc2cc(C([NH-])=O)n(C(=O)C(=O)OCC(=O)[N-]CC(=O)[O-])c2c1 (optimized conformer: 71.50298424543448 kcal/mol)

>  <smiles>  (39) 
Cc1ccc2cc(C(N)=O)n(C(=O)C(=O)OCC(=O)NCC(=O)O)c2c1

>  <score_type>  (39) 
oracle

>  <origin>  (39) 
adg

>  <m_score__min__energy>  (39) 
-12.44

>  <m_primary>  (39) 
energy

$$$$
39:0
     RDKit          3D

 43 45  0  0  0  0  0  0  0  0999 V2000
   -3.9830   25.6410  -30.8490 N   0  0  0  0  0  0  0  0  0  0  0  0
   -5.3050   25.2930  -30.4480 C   0  0  0  0  0  0  0  0  0  0  0  0
   -5.9210   26.0380  -29.6390 O   0  0  0  0  0  0  0  0  0  0  0  0
   -5.9390   24.0440  -30.9180 C   0  0  0  0  0  0  0  0  0  0  0  0
   -7.3030   23.9300  -31.1770 C   0  0  0  0  0  0  0  0  0  0  0  0
   -7.5090   22.6000  -31.4650 C   0  0  0  0  0  0  0  0  0  0  0  0
   -8.6850   21.9240  -31.7740 C   0  0  0  0  0  0  0  0  0  0  0  0
   -8.6060   20.5450  -32.0260 C   0  0  0  0  0  0  0  0  0  0  0  0
   -7.3570   19.8720  -31.9940 C   0  0  0  0  0  0  0  0  0  0  0  0
   -7.2860   18.3840  -32.2220 C   0  0  0  0  0  0  0  0  0  0  0  0
   -6.3830   17.8000  -31.3490 F   0  0  0  0  0  0  0  0  0  0  0  0
   -6.8790   18.1030  -33.5140 F   0  0  0  0  0  0  0  0  0  0  0  0
   -8.5360   17.8320  -32.0120 F   0  0  0  0  0  0  0  0  0  0  0  0
   -6.1870   20.5920  -31.6560 C   0  0  0  0  0  0  0  0  0  0  0  0
   -6.2990   21.9620  -31.3890 C   0  0  0  0  0  0  0  0  0  0  0  0
   -5.3220   22.8360  -31.0590 N   0  0  0  0  0  0  0  0  0  0  0  0
   -3.9260   22.5350  -30.9210 C   0  0  0  0  0  0  0  0  0  0  0  0
   -3.0660   23.2180  -31.5440 O   0  0  0  0  0  0  0  0  0  0  0  0
   -3.5270   21.4790  -30.1000 O   0  0  0  0  0  0  0  0  0  0  0  0
   -3.0020   21.6660  -28.7920 C   0  0  0  0  0  0  0  0  0  0  0  0
   -1.9420   22.7850  -28.7800 C   0  0  0  0  0  0  0  0  0  0  0  0
   -2.4660   24.1700  -28.6620 N   0  0  0  0  0  0  0  0  0  0  0  0
   -3.6690   24.3000  -27.8330 C   0  0  0  0  0  0  0  0  0  0  0  0
   -3.2460   24.9020  -26.5050 C   0  0  0  0  0  0  0  0  0  0  0  0
   -1.9560   25.6430  -26.7980 C   0  0  0  0  0  0  0  0  0  0  0  0
   -1.4860   25.1470  -28.1630 C   0  0  0  0  0  0  0  0  0  0  0  0
   -3.1560   25.1130  -30.4920 H   0  0  0  0  0  0  0  0  0  0  0  0
   -8.0553   24.7322  -31.1558 H   0  0  0  0  0  0  0  0  0  0  0  0
   -9.6478   22.4540  -31.8195 H   0  0  0  0  0  0  0  0  0  0  0  0
   -9.5226   19.9799  -32.2508 H   0  0  0  0  0  0  0  0  0  0  0  0
   -5.2112   20.0869  -31.6041 H   0  0  0  0  0  0  0  0  0  0  0  0
   -3.8213   21.9386  -28.1106 H   0  0  0  0  0  0  0  0  0  0  0  0
   -2.5274   20.7286  -28.4663 H   0  0  0  0  0  0  0  0  0  0  0  0
   -1.2702   22.6045  -27.9279 H   0  0  0  0  0  0  0  0  0  0  0  0
   -1.4445   22.7360  -29.7598 H   0  0  0  0  0  0  0  0  0  0  0  0
   -4.3973   24.9586  -28.3288 H   0  0  0  0  0  0  0  0  0  0  0  0
   -4.1417   23.3186  -27.6801 H   0  0  0  0  0  0  0  0  0  0  0  0
   -4.0142   25.5965  -26.1340 H   0  0  0  0  0  0  0  0  0  0  0  0
   -3.1120   24.1338  -25.7292 H   0  0  0  0  0  0  0  0  0  0  0  0
   -2.1365   26.7277  -26.8270 H   0  0  0  0  0  0  0  0  0  0  0  0
   -1.2001   25.4586  -26.0204 H   0  0  0  0  0  0  0  0  0  0  0  0
   -1.4154   25.9933  -28.8621 H   0  0  0  0  0  0  0  0  0  0  0  0
   -0.4947   24.6784  -28.0752 H   0  0  0  0  0  0  0  0  0  0  0  0
  1  2  1  0
  2  3  2  0
  2  4  1  0
  4  5  2  0
  5  6  1  0
  6  7  2  0
  7  8  1  0
  8  9  2  0
  9 10  1  0
 10 11  1  0
 10 12  1  0
 10 13  1  0
  9 14  1  0
 14 15  2  0
 15 16  1  0
 16 17  1  0
 17 18  2  0
 17 19  1  0
 19 20  1  0
 20 21  1  0
 21 22  1  0
 22 23  1  0
 23 24  1  0
 24 25  1  0
 25 26  1  0
 16  4  1  0
 26 22  1  0
 15  6  1  0
  1 27  1  0
  5 28  1  0
  7 29  1  0
  8 30  1  0
 14 31  1  0
 20 32  1  0
 20 33  1  0
 21 34  1  0
 21 35  1  0
 23 36  1  0
 23 37  1  0
 24 38  1  0
 24 39  1  0
 25 40  1  0
 25 41  1  0
 26 42  1  0
 26 43  1  0
M  CHG  1   1  -1
M  END
>  <UniqueID>  (40) 
40

>  <SMILES>  (40) 
[NH-]C(=O)c1cc2ccc(C(F)(F)F)cc2n1C(=O)OCCN1CCCC1

>  <Energy>  (40) 
85.34660646645445

>  <Genealogy>  (40) 
[NH-]C(=O)c1cc2ccc(C(F)(F)F)cc2n1C(=O)OCCN1CCCC1 (protonated)
[NH-]C(=O)c1cc2ccc(C(F)(F)F)cc2n1C(=O)OCCN1CCCC1 (3D coordinates assigned)
[NH-]C(=O)c1cc2ccc(C(F)(F)F)cc2n1C(=O)OCCN1CCCC1 (nonaromatic ring conformer: 85.34660646645445 kcal/mol)

>  <smiles>  (40) 
NC(=O)c1cc2ccc(C(F)(F)F)cc2n1C(=O)OCCN1CCCC1

>  <score_type>  (40) 
oracle

>  <origin>  (40) 
adg

>  <m_score__min__energy>  (40) 
-10.31

>  <m_primary>  (40) 
energy

$$$$
40:0
     RDKit          3D

 42 43  0  0  0  0  0  0  0  0999 V2000
   -2.5590   25.1940  -26.6500 C   0  0  0  0  0  0  0  0  0  0  0  0
   -1.5630   25.8300  -27.6130 C   0  0  0  0  0  0  0  0  0  0  0  0
   -1.6210   25.1940  -28.8880 O   0  0  0  0  0  0  0  0  0  0  0  0
   -0.9500   24.0020  -29.1850 C   0  0  0  0  0  0  0  0  0  0  0  0
    0.2910   23.8940  -28.9850 O   0  0  0  0  0  0  0  0  0  0  0  0
   -1.7230   22.8350  -29.7420 C   0  0  0  0  0  0  0  0  0  0  0  0
   -3.1960   23.0180  -29.7380 N   0  0  2  0  0  0  0  0  0  0  0  0
   -3.8460   22.4080  -28.5660 C   0  0  0  0  0  0  0  0  0  0  0  0
   -3.8250   22.5510  -30.9550 C   0  0  0  0  0  0  0  0  0  0  0  0
   -3.1670   21.8820  -31.7980 O   0  0  0  0  0  0  0  0  0  0  0  0
   -5.2340   22.7450  -31.1630 N   0  0  0  0  0  0  0  0  0  0  0  0
   -5.9570   23.8760  -30.9240 C   0  0  0  0  0  0  0  0  0  0  0  0
   -5.4080   25.1790  -30.4940 C   0  0  0  0  0  0  0  0  0  0  0  0
   -3.9970   25.3920  -30.5000 N   0  0  0  0  0  0  0  0  0  0  0  0
   -6.1680   26.1020  -30.1000 O   0  0  0  0  0  0  0  0  0  0  0  0
   -7.3070   23.6570  -31.1960 C   0  0  0  0  0  0  0  0  0  0  0  0
   -7.3890   22.3470  -31.6110 C   0  0  0  0  0  0  0  0  0  0  0  0
   -8.4970   21.5940  -31.9830 C   0  0  0  0  0  0  0  0  0  0  0  0
   -8.2920   20.2500  -32.3380 C   0  0  0  0  0  0  0  0  0  0  0  0
   -6.9890   19.6870  -32.3200 C   0  0  0  0  0  0  0  0  0  0  0  0
   -6.7600   18.2360  -32.6640 C   0  0  0  0  0  0  0  0  0  0  0  0
   -7.9040   17.5130  -32.3790 F   0  0  0  0  0  0  0  0  0  0  0  0
   -6.4510   18.0760  -34.0050 F   0  0  0  0  0  0  0  0  0  0  0  0
   -5.7110   17.7370  -31.9120 F   0  0  0  0  0  0  0  0  0  0  0  0
   -5.8930   20.4810  -31.9160 C   0  0  0  0  0  0  0  0  0  0  0  0
   -6.1240   21.8190  -31.5830 C   0  0  0  0  0  0  0  0  0  0  0  0
   -2.2464   25.3936  -25.6144 H   0  0  0  0  0  0  0  0  0  0  0  0
   -3.5580   25.6217  -26.8203 H   0  0  0  0  0  0  0  0  0  0  0  0
   -2.5913   24.1078  -26.8203 H   0  0  0  0  0  0  0  0  0  0  0  0
   -1.8041   26.8969  -27.7299 H   0  0  0  0  0  0  0  0  0  0  0  0
   -0.5489   25.7116  -27.2036 H   0  0  0  0  0  0  0  0  0  0  0  0
   -1.3993   22.6720  -30.7806 H   0  0  0  0  0  0  0  0  0  0  0  0
   -1.5112   21.9767  -29.0874 H   0  0  0  0  0  0  0  0  0  0  0  0
   -3.3670   24.0480  -29.6640 H   0  0  0  0  0  0  0  0  0  0  0  0
   -3.4059   22.8210  -27.6463 H   0  0  0  0  0  0  0  0  0  0  0  0
   -4.9234   22.6286  -28.5881 H   0  0  0  0  0  0  0  0  0  0  0  0
   -3.6942   21.3187  -28.5881 H   0  0  0  0  0  0  0  0  0  0  0  0
   -3.4940   25.6730  -29.6290 H   0  0  0  0  0  0  0  0  0  0  0  0
   -8.1318   24.3783  -31.0994 H   0  0  0  0  0  0  0  0  0  0  0  0
   -9.5037   22.0370  -31.9989 H   0  0  0  0  0  0  0  0  0  0  0  0
   -9.1499   19.6278  -32.6328 H   0  0  0  0  0  0  0  0  0  0  0  0
   -4.8798   20.0559  -31.8645 H   0  0  0  0  0  0  0  0  0  0  0  0
  1  2  1  0
  2  3  1  0
  3  4  1  0
  4  5  2  0
  4  6  1  0
  6  7  1  0
  7  8  1  0
  7  9  1  0
  9 10  2  0
  9 11  1  0
 11 12  1  0
 12 13  1  0
 13 14  1  0
 13 15  2  0
 12 16  2  0
 16 17  1  0
 17 18  2  0
 18 19  1  0
 19 20  2  0
 20 21  1  0
 21 22  1  0
 21 23  1  0
 21 24  1  0
 20 25  1  0
 25 26  2  0
 26 11  1  0
 26 17  1  0
  1 27  1  0
  1 28  1  0
  1 29  1  0
  2 30  1  0
  2 31  1  0
  6 32  1  0
  6 33  1  0
  7 34  1  1
  8 35  1  0
  8 36  1  0
  8 37  1  0
 14 38  1  0
 16 39  1  0
 18 40  1  0
 19 41  1  0
 25 42  1  0
M  CHG  2   7   1  14  -1
M  END
>  <UniqueID>  (41) 
41

>  <SMILES>  (41) 
CCOC(=O)C[N@H+](C)C(=O)n1c(C([NH-])=O)cc2ccc(C(F)(F)F)cc21

>  <Energy>  (41) 
81.92648930787406

>  <Genealogy>  (41) 
CCOC(=O)C[NH+](C)C(=O)n1c(C([NH-])=O)cc2ccc(C(F)(F)F)cc21 (protonated)
CCOC(=O)C[N@H+](C)C(=O)n1c(C([NH-])=O)cc2ccc(C(F)(F)F)cc21 (chirality)
CCOC(=O)C[N@H+](C)C(=O)n1c(C([NH-])=O)cc2ccc(C(F)(F)F)cc21 (3D coordinates assigned)
CCOC(=O)C[N@H+](C)C(=O)n1c(C([NH-])=O)cc2ccc(C(F)(F)F)cc21 (optimized conformer: 81.92648930787406 kcal/mol)

>  <smiles>  (41) 
CCOC(=O)CN(C)C(=O)n1c(C(N)=O)cc2ccc(C(F)(F)F)cc21

>  <score_type>  (41) 
oracle

>  <origin>  (41) 
adg

>  <m_score__min__energy>  (41) 
-9.2400000000000002

>  <m_primary>  (41) 
energy

$$$$
41:0
     RDKit          3D

 44 45  0  0  0  0  0  0  0  0999 V2000
   -6.4530   17.3280  -33.8560 C   0  0  0  0  0  0  0  0  0  0  0  0
   -6.5590   18.2570  -32.6280 C   0  0  0  0  0  0  0  0  0  0  0  0
   -6.2360   17.4330  -31.3640 C   0  0  0  0  0  0  0  0  0  0  0  0
   -7.9070   18.8960  -32.5440 N   0  0  1  0  0  0  0  0  0  0  0  0
   -8.8170   18.1830  -31.6230 C   0  0  0  0  0  0  0  0  0  0  0  0
   -7.8150   20.2930  -32.1390 C   0  0  0  0  0  0  0  0  0  0  0  0
   -8.9840   21.0910  -31.9780 C   0  0  0  0  0  0  0  0  0  0  0  0
   -8.8930   22.4290  -31.5640 C   0  0  0  0  0  0  0  0  0  0  0  0
   -7.6280   22.9520  -31.3220 C   0  0  0  0  0  0  0  0  0  0  0  0
   -7.2580   24.2050  -30.8880 C   0  0  0  0  0  0  0  0  0  0  0  0
   -5.8670   24.1720  -30.8080 C   0  0  0  0  0  0  0  0  0  0  0  0
   -5.0440   25.3490  -30.4600 C   0  0  0  0  0  0  0  0  0  0  0  0
   -3.6220   25.2440  -30.4530 N   0  0  0  0  0  0  0  0  0  0  0  0
   -5.5830   26.4390  -30.1340 O   0  0  0  0  0  0  0  0  0  0  0  0
   -5.3970   22.9440  -31.1690 N   0  0  0  0  0  0  0  0  0  0  0  0
   -4.0370   22.4850  -31.1670 C   0  0  0  0  0  0  0  0  0  0  0  0
   -3.3070   22.6730  -32.1780 O   0  0  0  0  0  0  0  0  0  0  0  0
   -3.5200   21.8550  -30.0290 O   0  0  0  0  0  0  0  0  0  0  0  0
   -3.4410   22.4820  -28.7510 C   0  0  0  0  0  0  0  0  0  0  0  0
   -2.0880   23.1730  -28.5720 C   0  0  0  0  0  0  0  0  0  0  0  0
   -1.5940   23.6010  -29.8110 O   0  0  0  0  0  0  0  0  0  0  0  0
   -6.4880   22.2110  -31.4850 C   0  0  0  0  0  0  0  0  0  0  0  0
   -6.5470   20.8700  -31.8790 C   0  0  0  0  0  0  0  0  0  0  0  0
   -6.3343   16.2875  -33.5195 H   0  0  0  0  0  0  0  0  0  0  0  0
   -7.3669   17.4154  -34.4619 H   0  0  0  0  0  0  0  0  0  0  0  0
   -5.5822   17.6190  -34.4619 H   0  0  0  0  0  0  0  0  0  0  0  0
   -5.8343   19.0793  -32.7206 H   0  0  0  0  0  0  0  0  0  0  0  0
   -6.4693   18.0281  -30.4688 H   0  0  0  0  0  0  0  0  0  0  0  0
   -6.8404   16.5139  -31.3611 H   0  0  0  0  0  0  0  0  0  0  0  0
   -5.1680   17.1695  -31.3611 H   0  0  0  0  0  0  0  0  0  0  0  0
   -8.3460   18.8430  -33.4940 H   0  0  0  0  0  0  0  0  0  0  0  0
   -8.5341   18.4047  -30.5834 H   0  0  0  0  0  0  0  0  0  0  0  0
   -9.8510   18.5138  -31.8001 H   0  0  0  0  0  0  0  0  0  0  0  0
   -8.7432   17.0999  -31.8001 H   0  0  0  0  0  0  0  0  0  0  0  0
   -9.9721   20.6523  -32.1810 H   0  0  0  0  0  0  0  0  0  0  0  0
   -9.7952   23.0450  -31.4350 H   0  0  0  0  0  0  0  0  0  0  0  0
   -7.9196   25.0521  -30.6541 H   0  0  0  0  0  0  0  0  0  0  0  0
   -3.1350   24.5250  -31.0330 H   0  0  0  0  0  0  0  0  0  0  0  0
   -4.2429   23.2300  -28.6653 H   0  0  0  0  0  0  0  0  0  0  0  0
   -3.5521   21.7135  -27.9719 H   0  0  0  0  0  0  0  0  0  0  0  0
   -2.2093   24.0427  -27.9095 H   0  0  0  0  0  0  0  0  0  0  0  0
   -1.3770   22.4595  -28.1300 H   0  0  0  0  0  0  0  0  0  0  0  0
   -2.3570   23.5760  -30.4460 H   0  0  0  0  0  0  0  0  0  0  0  0
   -5.6277   20.2754  -31.9849 H   0  0  0  0  0  0  0  0  0  0  0  0
  1  2  1  0
  2  3  1  0
  2  4  1  0
  4  5  1  0
  4  6  1  0
  6  7  2  0
  7  8  1  0
  8  9  2  0
  9 10  1  0
 10 11  2  0
 11 12  1  0
 12 13  1  0
 12 14  2  0
 11 15  1  0
 15 16  1  0
 16 17  2  0
 16 18  1  0
 18 19  1  0
 19 20  1  0
 20 21  1  0
 15 22  1  0
 22 23  2  0
 23  6  1  0
 22  9  1  0
  1 24  1  0
  1 25  1  0
  1 26  1  0
  2 27  1  0
  3 28  1  0
  3 29  1  0
  3 30  1  0
  4 31  1  6
  5 32  1  0
  5 33  1  0
  5 34  1  0
  7 35  1  0
  8 36  1  0
 10 37  1  0
 13 38  1  0
 19 39  1  0
 19 40  1  0
 20 41  1  0
 20 42  1  0
 21 43  1  0
 23 44  1  0
M  CHG  2   4   1  13  -1
M  END
>  <UniqueID>  (42) 
42

>  <SMILES>  (42) 
CC(C)[N@@H+](C)c1ccc2cc(C([NH-])=O)n(C(=O)OCCO)c2c1

>  <Energy>  (42) 
82.43676266151158

>  <Genealogy>  (42) 
CC(C)[NH+](C)c1ccc2cc(C([NH-])=O)n(C(=O)OCCO)c2c1 (protonated)
CC(C)[N@@H+](C)c1ccc2cc(C([NH-])=O)n(C(=O)OCCO)c2c1 (chirality)
CC(C)[N@@H+](C)c1ccc2cc(C([NH-])=O)n(C(=O)OCCO)c2c1 (3D coordinates assigned)
CC(C)[N@@H+](C)c1ccc2cc(C([NH-])=O)n(C(=O)OCCO)c2c1 (optimized conformer: 82.43676266151158 kcal/mol)

>  <smiles>  (42) 
CC(C)N(C)c1ccc2cc(C(N)=O)n(C(=O)OCCO)c2c1

>  <score_type>  (42) 
oracle

>  <origin>  (42) 
adg

>  <m_score__min__energy>  (42) 
-9.9700000000000006

>  <m_primary>  (42) 
energy

$$$$
42:0
     RDKit          3D

 43 45  0  0  0  0  0  0  0  0999 V2000
   -6.8900   16.3310  -34.2070 C   0  0  0  0  0  0  0  0  0  0  0  0
   -6.3220   17.6680  -33.9680 N   0  0  1  0  0  0  0  0  0  0  0  0
   -6.4530   18.0230  -32.5380 C   0  0  0  0  0  0  0  0  0  0  0  0
   -5.6770   19.3050  -32.2070 C   0  0  0  0  0  0  0  0  0  0  0  0
   -4.2600   19.1770  -32.5780 N   0  0  0  0  0  0  0  0  0  0  0  0
   -3.2840   20.0810  -32.0150 C   0  0  0  0  0  0  0  0  0  0  0  0
   -1.9410   20.0710  -32.4770 C   0  0  0  0  0  0  0  0  0  0  0  0
   -0.9850   20.9420  -31.9310 C   0  0  0  0  0  0  0  0  0  0  0  0
   -1.3950   21.8200  -30.9330 C   0  0  0  0  0  0  0  0  0  0  0  0
   -0.6730   22.7490  -30.2200 C   0  0  0  0  0  0  0  0  0  0  0  0
   -1.5860   23.3320  -29.3430 C   0  0  0  0  0  0  0  0  0  0  0  0
   -1.2440   24.4310  -28.4140 C   0  0  0  0  0  0  0  0  0  0  0  0
   -1.6490   25.7660  -28.7140 N   0  0  0  0  0  0  0  0  0  0  0  0
   -0.6190   24.2020  -27.3470 O   0  0  0  0  0  0  0  0  0  0  0  0
   -2.8230   22.7840  -29.5070 N   0  0  0  0  0  0  0  0  0  0  0  0
   -4.0120   23.0720  -28.7530 C   0  0  0  0  0  0  0  0  0  0  0  0
   -4.2620   22.4100  -27.7090 O   0  0  0  0  0  0  0  0  0  0  0  0
   -4.9110   24.2120  -29.1410 C   0  0  0  0  0  0  0  0  0  0  0  0
   -4.6320   24.6920  -30.5340 C   0  0  0  0  0  0  0  0  0  0  0  0
   -3.8640   25.6700  -30.7330 O   0  0  0  0  0  0  0  0  0  0  0  0
   -5.2620   24.0840  -31.6140 O   0  0  0  0  0  0  0  0  0  0  0  0
   -2.6880   21.8570  -30.4820 C   0  0  0  0  0  0  0  0  0  0  0  0
   -3.6550   20.9860  -30.9920 C   0  0  0  0  0  0  0  0  0  0  0  0
   -3.8270   18.0900  -33.4690 C   0  0  0  0  0  0  0  0  0  0  0  0
   -4.9400   17.7090  -34.4130 C   0  0  0  0  0  0  0  0  0  0  0  0
   -4.6670   17.4570  -35.5780 O   0  0  0  0  0  0  0  0  0  0  0  0
   -7.0973   15.8430  -33.2432 H   0  0  0  0  0  0  0  0  0  0  0  0
   -7.8252   16.4267  -34.7782 H   0  0  0  0  0  0  0  0  0  0  0  0
   -6.1719   15.7243  -34.7782 H   0  0  0  0  0  0  0  0  0  0  0  0
   -6.8650   18.3640  -34.5340 H   0  0  0  0  0  0  0  0  0  0  0  0
   -7.5165   18.1775  -32.3034 H   0  0  0  0  0  0  0  0  0  0  0  0
   -6.0367   17.2009  -31.9372 H   0  0  0  0  0  0  0  0  0  0  0  0
   -6.1190   20.1458  -32.7617 H   0  0  0  0  0  0  0  0  0  0  0  0
   -5.7397   19.4812  -31.1230 H   0  0  0  0  0  0  0  0  0  0  0  0
   -1.6461   19.3716  -33.2731 H   0  0  0  0  0  0  0  0  0  0  0  0
    0.0574   20.9305  -32.2820 H   0  0  0  0  0  0  0  0  0  0  0  0
    0.3973   22.9821  -30.3207 H   0  0  0  0  0  0  0  0  0  0  0  0
   -2.6360   25.9840  -28.9710 H   0  0  0  0  0  0  0  0  0  0  0  0
   -5.9569   23.8763  -29.0829 H   0  0  0  0  0  0  0  0  0  0  0  0
   -4.7243   25.0458  -28.4482 H   0  0  0  0  0  0  0  0  0  0  0  0
   -4.6848   21.0036  -30.6056 H   0  0  0  0  0  0  0  0  0  0  0  0
   -2.9560   18.4243  -34.0518 H   0  0  0  0  0  0  0  0  0  0  0  0
   -3.5604   17.2139  -32.8596 H   0  0  0  0  0  0  0  0  0  0  0  0
  1  2  1  0
  2  3  1  0
  3  4  1  0
  4  5  1  0
  5  6  1  0
  6  7  2  0
  7  8  1  0
  8  9  2  0
  9 10  1  0
 10 11  2  0
 11 12  1  0
 12 13  1  0
 12 14  2  0
 11 15  1  0
 15 16  1  0
 16 17  2  0
 16 18  1  0
 18 19  1  0
 19 20  2  0
 19 21  1  0
 15 22  1  0
 22 23  2  0
  5 24  1  0
 24 25  1  0
 25 26  2  0
 25  2  1  0
 23  6  1  0
 22  9  1  0
  1 27  1  0
  1 28  1  0
  1 29  1  0
  2 30  1  6
  3 31  1  0
  3 32  1  0
  4 33  1  0
  4 34  1  0
  7 35  1  0
  8 36  1  0
 10 37  1  0
 13 38  1  0
 18 39  1  0
 18 40  1  0
 23 41  1  0
 24 42  1  0
 24 43  1  0
M  CHG  3   2   1  13  -1  21  -1
M  END
>  <UniqueID>  (43) 
43

>  <SMILES>  (43) 
C[N@H+]1CCN(c2ccc3cc(C([NH-])=O)n(C(=O)CC(=O)[O-])c3c2)CC1=O

>  <Energy>  (43) 
89.13837096112096

>  <Genealogy>  (43) 
C[NH+]1CCN(c2ccc3cc(C([NH-])=O)n(C(=O)CC(=O)[O-])c3c2)CC1=O (protonated)
C[N@H+]1CCN(c2ccc3cc(C([NH-])=O)n(C(=O)CC(=O)[O-])c3c2)CC1=O (chirality)
C[N@H+]1CCN(c2ccc3cc(C([NH-])=O)n(C(=O)CC(=O)[O-])c3c2)CC1=O (3D coordinates assigned)
C[N@H+]1CCN(c2ccc3cc(C([NH-])=O)n(C(=O)CC(=O)[O-])c3c2)CC1=O (nonaromatic ring conformer: 89.13837096112096 kcal/mol)

>  <smiles>  (43) 
CN1CCN(c2ccc3cc(C(N)=O)n(C(=O)CC(=O)O)c3c2)CC1=O

>  <score_type>  (43) 
oracle

>  <origin>  (43) 
adg

>  <m_score__min__energy>  (43) 
-11.81

>  <m_primary>  (43) 
energy

$$$$
43:0
     RDKit          3D

 95102  0  0  0  0  0  0  0  0999 V2000
   -8.4300   20.0590  -32.6760 C   0  0  0  0  0  0  0  0  0  0  0  0
   -8.5660   21.4670  -32.3280 N   0  0  0  0  0  0  0  0  0  0  0  0
   -7.4410   22.3350  -32.1730 C   0  0  0  0  0  0  0  0  0  0  0  0
   -7.2370   23.2650  -33.0020 O   0  0  0  0  0  0  0  0  0  0  0  0
   -6.5100   22.1350  -31.0520 C   0  0  0  0  0  0  0  0  0  0  0  0
   -6.9560   22.0540  -29.8740 O   0  0  0  0  0  0  0  0  0  0  0  0
   -5.0990   22.0200  -31.2850 N   0  0  0  0  0  0  0  0  0  0  0  0
   -4.1190   22.8990  -30.9330 C   0  0  0  0  0  0  0  0  0  0  0  0
   -4.3060   24.1370  -30.1490 C   0  0  0  0  0  0  0  0  0  0  0  0
   -3.5240   25.3000  -30.4130 N   0  0  0  0  0  0  0  0  0  0  0  0
   -5.1860   24.1790  -29.2490 O   0  0  0  0  0  0  0  0  0  0  0  0
   -2.8750   22.4360  -31.3620 C   0  0  0  0  0  0  0  0  0  0  0  0
   -3.1300   21.2370  -31.9920 C   0  0  0  0  0  0  0  0  0  0  0  0
   -2.2570   20.3390  -32.5970 C   0  0  0  0  0  0  0  0  0  0  0  0
   -2.8000   19.1750  -33.1660 C   0  0  0  0  0  0  0  0  0  0  0  0
   -4.2010   18.9330  -33.1330 C   0  0  0  0  0  0  0  0  0  0  0  0
   -4.7550   17.7070  -33.6610 N   0  0  0  0  0  0  0  0  0  0  0  0
   -4.4160   16.4230  -33.0260 C   0  0  0  0  0  0  0  0  0  0  0  0
   -3.7680   15.4660  -34.0490 C   0  0  0  0  0  0  0  0  0  0  0  0
   -3.0890   16.2750  -35.1920 C   0  0  0  0  0  0  0  0  0  0  0  0
   -2.2290   15.3970  -36.0450 N   0  0  0  0  0  0  0  0  0  0  0  0
   -2.2200   13.9790  -35.5830 C   0  0  0  0  0  0  0  0  0  0  0  0
   -0.9470   13.5390  -34.8120 C   0  0  0  0  0  0  0  0  0  0  0  0
   -0.2540   14.6460  -34.1170 N   0  0  0  0  0  0  0  0  0  0  0  0
   -0.4850   14.8830  -32.6660 C   0  0  0  0  0  0  0  0  0  0  0  0
   -1.0410   16.2380  -32.3550 C   0  0  0  0  0  0  0  0  0  0  0  0
    0.0920   16.6820  -31.5160 N   0  0  0  0  0  0  0  0  0  0  0  0
    0.3980   17.7820  -30.6570 C   0  0  0  0  0  0  0  0  0  0  0  0
   -0.5800   18.7680  -30.4140 C   0  0  0  0  0  0  0  0  0  0  0  0
   -0.2890   19.7920  -29.5150 C   0  0  0  0  0  0  0  0  0  0  0  0
    0.9300   19.8460  -28.8780 C   0  0  0  0  0  0  0  0  0  0  0  0
    1.9240   18.8990  -29.1030 C   0  0  0  0  0  0  0  0  0  0  0  0
    1.6540   17.8570  -30.0060 C   0  0  0  0  0  0  0  0  0  0  0  0
    2.6010   16.9110  -30.2240 F   0  0  0  0  0  0  0  0  0  0  0  0
    0.8900   20.9620  -27.9720 C   0  0  0  0  0  0  0  0  0  0  0  0
    1.8150   21.3030  -27.1870 O   0  0  0  0  0  0  0  0  0  0  0  0
   -0.3770   21.6170  -28.0660 N   0  0  0  0  0  0  0  0  0  0  0  0
   -0.9150   22.5920  -27.1120 C   0  0  1  0  0  0  0  0  0  0  0  0
   -0.0380   22.6230  -25.8520 C   0  0  0  0  0  0  0  0  0  0  0  0
   -0.4720   23.7450  -24.9150 C   0  0  0  0  0  0  0  0  0  0  0  0
   -0.3720   25.0600  -25.6230 C   0  0  0  0  0  0  0  0  0  0  0  0
    0.0120   26.0700  -24.9740 O   0  0  0  0  0  0  0  0  0  0  0  0
   -0.7020   25.1600  -27.0250 N   0  0  0  0  0  0  0  0  0  0  0  0
   -0.6900   26.4430  -27.6900 C   0  0  0  0  0  0  0  0  0  0  0  0
   -0.1800   27.4510  -27.1320 O   0  0  0  0  0  0  0  0  0  0  0  0
   -1.2380   26.5900  -28.9610 O   0  0  0  0  0  0  0  0  0  0  0  0
   -1.0410   23.9560  -27.7530 C   0  0  0  0  0  0  0  0  0  0  0  0
   -1.5290   24.0280  -28.9140 O   0  0  0  0  0  0  0  0  0  0  0  0
   -1.1930   20.8960  -29.0490 C   0  0  0  0  0  0  0  0  0  0  0  0
    0.6720   15.3650  -31.8410 C   0  0  0  0  0  0  0  0  0  0  0  0
   -0.0610   15.8810  -34.9080 C   0  0  0  0  0  0  0  0  0  0  0  0
   -0.8420   15.8730  -36.2330 C   0  0  0  0  0  0  0  0  0  0  0  0
   -4.2320   16.9970  -35.9740 C   0  0  0  0  0  0  0  0  0  0  0  0
   -5.2810   17.6360  -35.0310 C   0  0  0  0  0  0  0  0  0  0  0  0
   -5.0520   19.8780  -32.5140 C   0  0  0  0  0  0  0  0  0  0  0  0
   -4.4800   21.0130  -31.9360 C   0  0  0  0  0  0  0  0  0  0  0  0
   -8.3719   19.4580  -31.7565 H   0  0  0  0  0  0  0  0  0  0  0  0
   -9.3017   19.7415  -33.2671 H   0  0  0  0  0  0  0  0  0  0  0  0
   -7.5137   19.9142  -33.2671 H   0  0  0  0  0  0  0  0  0  0  0  0
   -2.5010   25.3140  -30.2060 H   0  0  0  0  0  0  0  0  0  0  0  0
   -1.8985   22.9239  -31.2264 H   0  0  0  0  0  0  0  0  0  0  0  0
   -1.1749   20.5342  -32.6289 H   0  0  0  0  0  0  0  0  0  0  0  0
   -2.1332   18.4416  -33.6430 H   0  0  0  0  0  0  0  0  0  0  0  0
   -3.7104   16.6025  -32.2014 H   0  0  0  0  0  0  0  0  0  0  0  0
   -5.3385   15.9618  -32.6435 H   0  0  0  0  0  0  0  0  0  0  0  0
   -3.0109   14.8506  -33.5410 H   0  0  0  0  0  0  0  0  0  0  0  0
   -4.5488   14.8230  -34.4813 H   0  0  0  0  0  0  0  0  0  0  0  0
   -2.3935   17.0305  -34.7976 H   0  0  0  0  0  0  0  0  0  0  0  0
   -3.0858   13.8322  -34.9206 H   0  0  0  0  0  0  0  0  0  0  0  0
   -2.2513   13.3629  -36.4938 H   0  0  0  0  0  0  0  0  0  0  0  0
   -1.2382   12.7881  -34.0627 H   0  0  0  0  0  0  0  0  0  0  0  0
   -0.2437   13.1407  -35.5582 H   0  0  0  0  0  0  0  0  0  0  0  0
   -0.9845   13.9227  -32.4703 H   0  0  0  0  0  0  0  0  0  0  0  0
   -1.1736   16.8592  -33.2531 H   0  0  0  0  0  0  0  0  0  0  0  0
   -2.0439   16.2773  -31.9049 H   0  0  0  0  0  0  0  0  0  0  0  0
   -1.5538   18.7296  -30.9242 H   0  0  0  0  0  0  0  0  0  0  0  0
    2.8940   18.9642  -28.5884 H   0  0  0  0  0  0  0  0  0  0  0  0
   -1.9282   22.2872  -26.8111 H   0  0  0  0  0  0  0  0  0  0  0  0
   -0.1274   21.6605  -25.3271 H   0  0  0  0  0  0  0  0  0  0  0  0
    1.0048   22.8004  -26.1537 H   0  0  0  0  0  0  0  0  0  0  0  0
   -1.5127   23.5770  -24.6007 H   0  0  0  0  0  0  0  0  0  0  0  0
    0.1832   23.7560  -24.0315 H   0  0  0  0  0  0  0  0  0  0  0  0
   -2.1020   20.4888  -28.5821 H   0  0  0  0  0  0  0  0  0  0  0  0
   -1.5410   21.5395  -29.8705 H   0  0  0  0  0  0  0  0  0  0  0  0
    1.6039   15.4424  -32.4203 H   0  0  0  0  0  0  0  0  0  0  0  0
    0.9845   14.7324  -30.9971 H   0  0  0  0  0  0  0  0  0  0  0  0
   -0.3983   16.7385  -34.3073 H   0  0  0  0  0  0  0  0  0  0  0  0
    1.0084   15.9495  -35.1563 H   0  0  0  0  0  0  0  0  0  0  0  0
   -0.8674   16.8952  -36.6385 H   0  0  0  0  0  0  0  0  0  0  0  0
   -0.3343   15.1872  -36.9272 H   0  0  0  0  0  0  0  0  0  0  0  0
   -3.7888   17.7880  -36.5968 H   0  0  0  0  0  0  0  0  0  0  0  0
   -4.7474   16.2425  -36.5865 H   0  0  0  0  0  0  0  0  0  0  0  0
   -5.5156   18.6513  -35.3832 H   0  0  0  0  0  0  0  0  0  0  0  0
   -6.1908   17.0177  -35.0346 H   0  0  0  0  0  0  0  0  0  0  0  0
   -6.1406   19.7222  -32.4885 H   0  0  0  0  0  0  0  0  0  0  0  0
  1  2  1  0
  2  3  1  0
  3  4  2  0
  3  5  1  0
  5  6  2  0
  5  7  1  0
  7  8  1  0
  8  9  1  0
  9 10  1  0
  9 11  2  0
  8 12  2  0
 12 13  1  0
 13 14  2  0
 14 15  1  0
 15 16  2  0
 16 17  1  0
 17 18  1  0
 18 19  1  0
 19 20  1  0
 20 21  1  0
 21 22  1  0
 22 23  1  0
 23 24  1  0
 24 25  1  0
 25 26  1  0
 26 27  1  0
 27 28  1  0
 28 29  2  0
 29 30  1  0
 30 31  2  0
 31 32  1  0
 32 33  2  0
 33 34  1  0
 31 35  1  0
 35 36  2  0
 35 37  1  0
 37 38  1  0
 38 39  1  0
 39 40  1  0
 40 41  1  0
 41 42  2  0
 41 43  1  0
 43 44  1  0
 44 45  2  0
 44 46  1  0
 43 47  1  0
 47 48  2  0
 37 49  1  0
 27 50  1  0
 24 51  1  0
 51 52  1  0
 20 53  1  0
 53 54  1  0
 16 55  1  0
 55 56  2  0
 56  7  1  0
 56 13  1  0
 54 17  1  0
 52 21  1  0
 50 25  1  0
 33 28  1  0
 47 38  1  0
 49 30  1  0
  1 57  1  0
  1 58  1  0
  1 59  1  0
 10 60  1  0
 12 61  1  0
 14 62  1  0
 15 63  1  0
 18 64  1  0
 18 65  1  0
 19 66  1  0
 19 67  1  0
 20 68  1  0
 22 69  1  0
 22 70  1  0
 23 71  1  0
 23 72  1  0
 25 73  1  0
 26 74  1  0
 26 75  1  0
 29 76  1  0
 32 77  1  0
 38 78  1  1
 39 79  1  0
 39 80  1  0
 40 81  1  0
 40 82  1  0
 49 83  1  0
 49 84  1  0
 50 85  1  0
 50 86  1  0
 51 87  1  0
 51 88  1  0
 52 89  1  0
 52 90  1  0
 53 91  1  0
 53 92  1  0
 54 93  1  0
 54 94  1  0
 55 95  1  0
M  CHG  3   2  -1  10  -1  46  -1
M  END
>  <UniqueID>  (44) 
44

>  <SMILES>  (44) 
C[N-]C(=O)C(=O)n1c(C([NH-])=O)cc2ccc(N3CCC(N4CCN(C5CN(c6cc7c(cc6F)C(=O)N([C@H]6CCC(=O)N(C(=O)[O-])C6=O)C7)C5)CC4)CC3)cc21

>  <Energy>  (44) 
245.8202413594008

>  <Genealogy>  (44) 
C[N-]C(=O)C(=O)n1c(C([NH-])=O)cc2ccc(N3CCC(N4CCN(C5CN(c6cc7c(cc6F)C(=O)N(C6CCC(=O)N(C(=O)[O-])C6=O)C7)C5)CC4)CC3)cc21 (protonated)
C[N-]C(=O)C(=O)n1c(C([NH-])=O)cc2ccc(N3CCC(N4CCN(C5CN(c6cc7c(cc6F)C(=O)N([C@H]6CCC(=O)N(C(=O)[O-])C6=O)C7)C5)CC4)CC3)cc21 (chirality)
C[N-]C(=O)C(=O)n1c(C([NH-])=O)cc2ccc(N3CCC(N4CCN(C5CN(c6cc7c(cc6F)C(=O)N([C@H]6CCC(=O)N(C(=O)[O-])C6=O)C7)C5)CC4)CC3)cc21 (3D coordinates assigned)
C[N-]C(=O)C(=O)n1c(C([NH-])=O)cc2ccc(N3CCC(N4CCN(C5CN(c6cc7c(cc6F)C(=O)N([C@H]6CCC(=O)N(C(=O)[O-])C6=O)C7)C5)CC4)CC3)cc21 (nonaromatic ring conformer: 245.8202413594008 kcal/mol)

>  <smiles>  (44) 
CNC(=O)C(=O)n1c(C(N)=O)cc2ccc(N3CCC(N4CCN(C5CN(c6cc7c(cc6F)C(=O)N(C6CCC(=O)N(C(=O)O)C6=O)C7)C5)CC4)CC3)cc21

>  <score_type>  (44) 
oracle

>  <origin>  (44) 
adg

>  <m_score__min__energy>  (44) 
-14.699999999999999

>  <m_primary>  (44) 
energy

$$$$
44:0
     RDKit          3D

 38 40  0  0  0  0  0  0  0  0999 V2000
    1.6910   21.2270  -34.9870 C   0  0  0  0  0  0  0  0  0  0  0  0
    0.5700   20.8560  -34.1350 N   0  0  0  0  0  0  0  0  0  0  0  0
   -0.7220   20.8220  -34.5070 C   0  0  0  0  0  0  0  0  0  0  0  0
   -1.4810   20.4900  -33.3970 C   0  0  0  0  0  0  0  0  0  0  0  0
   -2.9550   20.3330  -33.3190 C   0  0  0  0  0  0  0  0  0  0  0  0
   -3.5920   19.1980  -33.8890 C   0  0  0  0  0  0  0  0  0  0  0  0
   -4.9880   19.0480  -33.8330 C   0  0  0  0  0  0  0  0  0  0  0  0
   -5.7260   20.0420  -33.2000 C   0  0  0  0  0  0  0  0  0  0  0  0
   -7.0860   20.1620  -33.0190 C   0  0  0  0  0  0  0  0  0  0  0  0
   -7.2630   21.3610  -32.3280 C   0  0  0  0  0  0  0  0  0  0  0  0
   -8.5680   21.8690  -31.8490 C   0  0  0  0  0  0  0  0  0  0  0  0
   -8.9250   23.2430  -32.0090 N   0  0  0  0  0  0  0  0  0  0  0  0
   -9.3890   21.0820  -31.3060 O   0  0  0  0  0  0  0  0  0  0  0  0
   -6.0590   21.9520  -32.0960 N   0  0  0  0  0  0  0  0  0  0  0  0
   -5.8040   23.2200  -31.4740 C   0  0  0  0  0  0  0  0  0  0  0  0
   -6.1430   24.2830  -32.0620 O   0  0  0  0  0  0  0  0  0  0  0  0
   -5.2510   23.2870  -30.0840 C   0  0  0  0  0  0  0  0  0  0  0  0
   -3.6630   24.1680  -30.0950 P   0  0  0  0  0  0  0  0  0  0  0  0
   -2.6350   23.3610  -30.8530 O   0  0  0  0  0  0  0  0  0  0  0  0
   -3.8620   25.6690  -30.8470 O   0  0  0  0  0  0  0  0  0  0  0  0
   -3.1300   24.4030  -28.5060 O   0  0  0  0  0  0  0  0  0  0  0  0
   -5.1300   21.1340  -32.6310 C   0  0  0  0  0  0  0  0  0  0  0  0
   -3.7450   21.3180  -32.6790 C   0  0  0  0  0  0  0  0  0  0  0  0
   -0.5570   20.3480  -32.3700 C   0  0  0  0  0  0  0  0  0  0  0  0
    0.6820   20.5860  -32.8450 N   0  0  0  0  0  0  0  0  0  0  0  0
    2.5494   21.5111  -34.3605 H   0  0  0  0  0  0  0  0  0  0  0  0
    1.9674   20.3724  -35.6221 H   0  0  0  0  0  0  0  0  0  0  0  0
    1.4030   22.0778  -35.6221 H   0  0  0  0  0  0  0  0  0  0  0  0
   -1.1086   21.0229  -35.5170 H   0  0  0  0  0  0  0  0  0  0  0  0
   -2.9833   18.4253  -34.3814 H   0  0  0  0  0  0  0  0  0  0  0  0
   -5.4820   18.1709  -34.2765 H   0  0  0  0  0  0  0  0  0  0  0  0
   -7.8669   19.4612  -33.3492 H   0  0  0  0  0  0  0  0  0  0  0  0
   -9.8630   23.5780  -31.6970 H   0  0  0  0  0  0  0  0  0  0  0  0
   -8.2520   23.9400  -32.3930 H   0  0  0  0  0  0  0  0  0  0  0  0
   -5.9602   23.8208  -29.4343 H   0  0  0  0  0  0  0  0  0  0  0  0
   -5.0970   22.2659  -29.7049 H   0  0  0  0  0  0  0  0  0  0  0  0
   -3.2798   22.2078  -32.2297 H   0  0  0  0  0  0  0  0  0  0  0  0
   -0.7986   20.0825  -31.3302 H   0  0  0  0  0  0  0  0  0  0  0  0
  1  2  1  0
  2  3  1  0
  3  4  2  0
  4  5  1  0
  5  6  2  0
  6  7  1  0
  7  8  2  0
  8  9  1  0
  9 10  2  0
 10 11  1  0
 11 12  1  0
 11 13  2  0
 10 14  1  0
 14 15  1  0
 15 16  2  0
 15 17  1  0
 17 18  1  0
 18 19  2  0
 18 20  1  0
 18 21  1  0
 14 22  1  0
 22 23  2  0
  4 24  1  0
 24 25  2  0
 25  2  1  0
 23  5  1  0
 22  8  1  0
  1 26  1  0
  1 27  1  0
  1 28  1  0
  3 29  1  0
  6 30  1  0
  7 31  1  0
  9 32  1  0
 12 33  1  0
 12 34  1  0
 17 35  1  0
 17 36  1  0
 23 37  1  0
 24 38  1  0
M  CHG  2  20  -1  21  -1
M  END
>  <UniqueID>  (45) 
45

>  <SMILES>  (45) 
Cn1cc(-c2ccc3cc(C(N)=O)n(C(=O)CP(=O)([O-])[O-])c3c2)cn1

>  <Energy>  (45) 
105.00020155576289

>  <Genealogy>  (45) 
Cn1cc(-c2ccc3cc(C(N)=O)n(C(=O)CP(=O)([O-])[O-])c3c2)cn1 (protonated)
Cn1cc(-c2ccc3cc(C(N)=O)n(C(=O)CP(=O)([O-])[O-])c3c2)cn1 (3D coordinates assigned)
Cn1cc(-c2ccc3cc(C(N)=O)n(C(=O)CP(=O)([O-])[O-])c3c2)cn1 (optimized conformer: 105.00020155576289 kcal/mol)

>  <smiles>  (45) 
Cn1cc(-c2ccc3cc(C(N)=O)n(C(=O)CP(=O)(O)O)c3c2)cn1

>  <score_type>  (45) 
oracle

>  <origin>  (45) 
adg

>  <m_score__min__energy>  (45) 
-12.9

>  <m_primary>  (45) 
energy

$$$$
45:0
     RDKit          3D

 41 42  0  0  0  0  0  0  0  0999 V2000
   -3.6130   25.0860  -30.1830 N   0  0  0  0  0  0  0  0  0  0  0  0
   -4.9600   25.3080  -30.5960 C   0  0  0  0  0  0  0  0  0  0  0  0
   -5.4480   26.4660  -30.5030 O   0  0  0  0  0  0  0  0  0  0  0  0
   -5.8030   24.1940  -31.0740 C   0  0  0  0  0  0  0  0  0  0  0  0
   -7.1900   24.1750  -30.9470 C   0  0  0  0  0  0  0  0  0  0  0  0
   -7.5830   22.9430  -31.4210 C   0  0  0  0  0  0  0  0  0  0  0  0
   -8.8550   22.3920  -31.5320 C   0  0  0  0  0  0  0  0  0  0  0  0
   -8.9690   21.1040  -32.0830 C   0  0  0  0  0  0  0  0  0  0  0  0
   -7.8180   20.3970  -32.5190 C   0  0  0  0  0  0  0  0  0  0  0  0
   -7.9450   19.0730  -33.0790 N   0  0  0  0  0  0  0  0  0  0  0  0
   -7.5590   18.0320  -32.1100 C   0  0  0  0  0  0  0  0  0  0  0  0
   -6.7300   16.9060  -32.7440 C   0  0  0  0  0  0  0  0  0  0  0  0
   -6.9540   16.8570  -34.1250 O   0  0  0  0  0  0  0  0  0  0  0  0
   -6.5420   20.9940  -32.3880 C   0  0  0  0  0  0  0  0  0  0  0  0
   -6.4570   22.2690  -31.8190 C   0  0  0  0  0  0  0  0  0  0  0  0
   -5.3550   23.0250  -31.6160 N   0  0  0  0  0  0  0  0  0  0  0  0
   -4.0110   22.6770  -31.9770 C   0  0  0  0  0  0  0  0  0  0  0  0
   -3.0440   23.1190  -31.2970 O   0  0  0  0  0  0  0  0  0  0  0  0
   -3.7810   21.8760  -33.1020 O   0  0  0  0  0  0  0  0  0  0  0  0
   -2.5490   21.2010  -33.3570 C   0  0  0  0  0  0  0  0  0  0  0  0
   -2.8030   19.7980  -33.9010 C   0  0  0  0  0  0  0  0  0  0  0  0
   -4.1470   19.4040  -33.6480 O   0  0  0  0  0  0  0  0  0  0  0  0
   -4.9010   18.7280  -34.5860 N   0  0  0  0  0  0  0  0  0  0  0  0
   -4.5070   17.6470  -35.0700 O   0  0  0  0  0  0  0  0  0  0  0  0
   -6.1050   19.2520  -34.9890 O   0  0  0  0  0  0  0  0  0  0  0  0
   -2.8150   25.2800  -30.8270 H   0  0  0  0  0  0  0  0  0  0  0  0
   -7.8345   24.9741  -30.5521 H   0  0  0  0  0  0  0  0  0  0  0  0
   -9.7444   22.9470  -31.1989 H   0  0  0  0  0  0  0  0  0  0  0  0
   -9.9613   20.6387  -32.1774 H   0  0  0  0  0  0  0  0  0  0  0  0
   -7.3150   19.0000  -33.9130 H   0  0  0  0  0  0  0  0  0  0  0  0
   -8.9200   18.9050  -33.4200 H   0  0  0  0  0  0  0  0  0  0  0  0
   -6.9644   18.4989  -31.3110 H   0  0  0  0  0  0  0  0  0  0  0  0
   -8.4846   17.5826  -31.7209 H   0  0  0  0  0  0  0  0  0  0  0  0
   -5.6622   17.0913  -32.5558 H   0  0  0  0  0  0  0  0  0  0  0  0
   -7.0298   15.9461  -32.2983 H   0  0  0  0  0  0  0  0  0  0  0  0
   -6.0990   17.1230  -34.5520 H   0  0  0  0  0  0  0  0  0  0  0  0
   -5.6373   20.4674  -32.7260 H   0  0  0  0  0  0  0  0  0  0  0  0
   -1.9694   21.7747  -34.0952 H   0  0  0  0  0  0  0  0  0  0  0  0
   -1.9904   21.1177  -32.4131 H   0  0  0  0  0  0  0  0  0  0  0  0
   -2.6214   19.7915  -34.9859 H   0  0  0  0  0  0  0  0  0  0  0  0
   -2.1238   19.0925  -33.4000 H   0  0  0  0  0  0  0  0  0  0  0  0
  1  2  1  0
  2  3  2  0
  2  4  1  0
  4  5  2  0
  5  6  1  0
  6  7  2  0
  7  8  1  0
  8  9  2  0
  9 10  1  0
 10 11  1  0
 11 12  1  0
 12 13  1  0
  9 14  1  0
 14 15  2  0
 15 16  1  0
 16 17  1  0
 17 18  2  0
 17 19  1  0
 19 20  1  0
 20 21  1  0
 21 22  1  0
 22 23  1  0
 23 24  2  0
 23 25  1  0
 16  4  1  0
 15  6  1  0
  1 26  1  0
  5 27  1  0
  7 28  1  0
  8 29  1  0
 10 30  1  0
 10 31  1  0
 11 32  1  0
 11 33  1  0
 12 34  1  0
 12 35  1  0
 13 36  1  0
 14 37  1  0
 20 38  1  0
 20 39  1  0
 21 40  1  0
 21 41  1  0
M  CHG  4   1  -1  10   1  23   1  25  -1
M  END
>  <UniqueID>  (46) 
46

>  <SMILES>  (46) 
[NH-]C(=O)c1cc2ccc([NH2+]CCO)cc2n1C(=O)OCCO[N+](=O)[O-]

>  <Energy>  (46) 
74.14700273239217

>  <Genealogy>  (46) 
[NH-]C(=O)c1cc2ccc([NH2+]CCO)cc2n1C(=O)OCCO[N+](=O)[O-] (protonated)
[NH-]C(=O)c1cc2ccc([NH2+]CCO)cc2n1C(=O)OCCO[N+](=O)[O-] (3D coordinates assigned)
[NH-]C(=O)c1cc2ccc([NH2+]CCO)cc2n1C(=O)OCCO[N+](=O)[O-] (optimized conformer: 74.14700273239217 kcal/mol)

>  <smiles>  (46) 
NC(=O)c1cc2ccc(NCCO)cc2n1C(=O)OCCO[N+](=O)O

>  <score_type>  (46) 
oracle

>  <origin>  (46) 
adg

>  <m_score__min__energy>  (46) 
-9.6199999999999992

>  <m_primary>  (46) 
energy

$$$$
46:0
     RDKit          3D

 31 32  0  0  0  0  0  0  0  0999 V2000
   -6.8390   18.5120  -33.1080 C   0  0  0  0  0  0  0  0  0  0  0  0
   -7.0140   19.9150  -32.6080 C   0  0  0  0  0  0  0  0  0  0  0  0
   -8.3160   20.4410  -32.4170 C   0  0  0  0  0  0  0  0  0  0  0  0
   -8.4940   21.7370  -31.9020 C   0  0  0  0  0  0  0  0  0  0  0  0
   -7.3580   22.4750  -31.5860 C   0  0  0  0  0  0  0  0  0  0  0  0
   -7.2430   23.7360  -31.0470 C   0  0  0  0  0  0  0  0  0  0  0  0
   -5.8740   23.9640  -30.9260 C   0  0  0  0  0  0  0  0  0  0  0  0
   -5.3010   25.2460  -30.4670 C   0  0  0  0  0  0  0  0  0  0  0  0
   -3.9780   25.6310  -30.8300 N   0  0  0  0  0  0  0  0  0  0  0  0
   -6.0080   26.0360  -29.7840 O   0  0  0  0  0  0  0  0  0  0  0  0
   -5.1690   22.8810  -31.3630 N   0  0  0  0  0  0  0  0  0  0  0  0
   -3.7470   22.6830  -31.3320 C   0  0  0  0  0  0  0  0  0  0  0  0
   -3.1410   22.3180  -32.3760 O   0  0  0  0  0  0  0  0  0  0  0  0
   -3.0400   22.9290  -30.1500 O   0  0  0  0  0  0  0  0  0  0  0  0
   -1.6160   22.9630  -30.0770 C   0  0  0  0  0  0  0  0  0  0  0  0
   -1.0730   24.1950  -28.8550 P   0  0  0  0  0  0  0  0  0  0  0  0
   -1.6630   23.8780  -27.5000 O   0  0  0  0  0  0  0  0  0  0  0  0
    0.6140   24.1690  -28.7490 O   0  0  0  0  0  0  0  0  0  0  0  0
   -1.5800   25.7330  -29.3420 O   0  0  0  0  0  0  0  0  0  0  0  0
   -6.0920   21.9800  -31.7680 C   0  0  0  0  0  0  0  0  0  0  0  0
   -5.8850   20.6870  -32.2600 C   0  0  0  0  0  0  0  0  0  0  0  0
   -6.7534   17.8259  -32.2525 H   0  0  0  0  0  0  0  0  0  0  0  0
   -7.7089   18.2294  -33.7191 H   0  0  0  0  0  0  0  0  0  0  0  0
   -5.9264   18.4517  -33.7191 H   0  0  0  0  0  0  0  0  0  0  0  0
   -9.1943   19.8305  -32.6737 H   0  0  0  0  0  0  0  0  0  0  0  0
   -9.5007   22.1546  -31.7535 H   0  0  0  0  0  0  0  0  0  0  0  0
   -8.0594   24.4194  -30.7703 H   0  0  0  0  0  0  0  0  0  0  0  0
   -3.1520   25.0730  -30.5230 H   0  0  0  0  0  0  0  0  0  0  0  0
   -1.2445   21.9708  -29.7810 H   0  0  0  0  0  0  0  0  0  0  0  0
   -1.2147   23.2382  -31.0635 H   0  0  0  0  0  0  0  0  0  0  0  0
   -4.8684   20.2823  -32.3727 H   0  0  0  0  0  0  0  0  0  0  0  0
  1  2  1  0
  2  3  2  0
  3  4  1  0
  4  5  2  0
  5  6  1  0
  6  7  2  0
  7  8  1  0
  8  9  1  0
  8 10  2  0
  7 11  1  0
 11 12  1  0
 12 13  2  0
 12 14  1  0
 14 15  1  0
 15 16  1  0
 16 17  2  0
 16 18  1  0
 16 19  1  0
 11 20  1  0
 20 21  2  0
 21  2  1  0
 20  5  1  0
  1 22  1  0
  1 23  1  0
  1 24  1  0
  3 25  1  0
  4 26  1  0
  6 27  1  0
  9 28  1  0
 15 29  1  0
 15 30  1  0
 21 31  1  0
M  CHG  3   9  -1  18  -1  19  -1
M  END
>  <UniqueID>  (47) 
47

>  <SMILES>  (47) 
Cc1ccc2cc(C([NH-])=O)n(C(=O)OCP(=O)([O-])[O-])c2c1

>  <Energy>  (47) 
64.87254788183819

>  <Genealogy>  (47) 
Cc1ccc2cc(C([NH-])=O)n(C(=O)OCP(=O)([O-])[O-])c2c1 (protonated)
Cc1ccc2cc(C([NH-])=O)n(C(=O)OCP(=O)([O-])[O-])c2c1 (3D coordinates assigned)
Cc1ccc2cc(C([NH-])=O)n(C(=O)OCP(=O)([O-])[O-])c2c1 (optimized conformer: 64.87254788183819 kcal/mol)

>  <smiles>  (47) 
Cc1ccc2cc(C(N)=O)n(C(=O)OCP(=O)(O)O)c2c1

>  <score_type>  (47) 
oracle

>  <origin>  (47) 
adg

>  <m_score__min__energy>  (47) 
-13.5

>  <m_primary>  (47) 
energy

$$$$
47:0
     RDKit          3D

 44 45  0  0  0  0  0  0  0  0999 V2000
   -2.8930   24.9820  -26.4820 C   0  0  0  0  0  0  0  0  0  0  0  0
   -2.0310   26.0600  -26.1960 O   0  0  0  0  0  0  0  0  0  0  0  0
   -0.7420   25.8110  -26.7210 C   0  0  0  0  0  0  0  0  0  0  0  0
   -0.8360   25.3910  -28.1550 C   0  0  0  0  0  0  0  0  0  0  0  0
   -1.5940   26.0170  -28.9420 O   0  0  0  0  0  0  0  0  0  0  0  0
   -0.0480   24.2940  -28.6260 N   0  0  0  0  0  0  0  0  0  0  0  0
   -0.0270   22.9830  -27.9850 C   0  0  0  0  0  0  0  0  0  0  0  0
   -0.7130   21.9590  -28.8330 C   0  0  0  0  0  0  0  0  0  0  0  0
   -0.0490   21.3210  -29.6950 O   0  0  0  0  0  0  0  0  0  0  0  0
   -2.0690   21.6870  -28.6350 O   0  0  0  0  0  0  0  0  0  0  0  0
   -3.0900   22.6540  -28.8630 C   0  0  0  0  0  0  0  0  0  0  0  0
   -2.9580   23.1860  -30.1760 O   0  0  0  0  0  0  0  0  0  0  0  0
   -3.6980   22.7140  -31.2660 C   0  0  0  0  0  0  0  0  0  0  0  0
   -3.1180   22.1360  -32.2260 O   0  0  0  0  0  0  0  0  0  0  0  0
   -5.1210   22.9070  -31.2990 N   0  0  0  0  0  0  0  0  0  0  0  0
   -5.8270   24.0030  -30.8970 C   0  0  0  0  0  0  0  0  0  0  0  0
   -5.2540   25.2940  -30.4640 C   0  0  0  0  0  0  0  0  0  0  0  0
   -3.9260   25.6430  -30.8440 N   0  0  0  0  0  0  0  0  0  0  0  0
   -5.9100   26.0790  -29.7310 O   0  0  0  0  0  0  0  0  0  0  0  0
   -7.1950   23.7780  -31.0370 C   0  0  0  0  0  0  0  0  0  0  0  0
   -7.3060   22.5050  -31.5510 C   0  0  0  0  0  0  0  0  0  0  0  0
   -8.4400   21.7670  -31.8750 C   0  0  0  0  0  0  0  0  0  0  0  0
   -8.2600   20.4630  -32.3650 C   0  0  0  0  0  0  0  0  0  0  0  0
   -6.9580   19.9240  -32.5340 C   0  0  0  0  0  0  0  0  0  0  0  0
   -6.7780   18.5040  -33.0010 C   0  0  0  0  0  0  0  0  0  0  0  0
   -6.4360   18.4680  -34.3430 F   0  0  0  0  0  0  0  0  0  0  0  0
   -7.9620   17.8130  -32.8190 F   0  0  0  0  0  0  0  0  0  0  0  0
   -5.7750   17.8760  -32.2830 F   0  0  0  0  0  0  0  0  0  0  0  0
   -5.8320   20.6980  -32.1690 C   0  0  0  0  0  0  0  0  0  0  0  0
   -6.0410   22.0010  -31.7010 C   0  0  0  0  0  0  0  0  0  0  0  0
   -3.2486   24.5372  -25.5409 H   0  0  0  0  0  0  0  0  0  0  0  0
   -3.7530   25.3447  -27.0642 H   0  0  0  0  0  0  0  0  0  0  0  0
   -2.3501   24.2228  -27.0642 H   0  0  0  0  0  0  0  0  0  0  0  0
   -0.1383   26.7279  -26.6505 H   0  0  0  0  0  0  0  0  0  0  0  0
   -0.2704   25.0032  -26.1422 H   0  0  0  0  0  0  0  0  0  0  0  0
    1.0176   22.6771  -27.8265 H   0  0  0  0  0  0  0  0  0  0  0  0
   -0.5583   23.0546  -27.0245 H   0  0  0  0  0  0  0  0  0  0  0  0
   -4.0758   22.1773  -28.7584 H   0  0  0  0  0  0  0  0  0  0  0  0
   -2.9945   23.4667  -28.1279 H   0  0  0  0  0  0  0  0  0  0  0  0
   -3.1040   25.2980  -30.2980 H   0  0  0  0  0  0  0  0  0  0  0  0
   -8.0131   24.4704  -30.7894 H   0  0  0  0  0  0  0  0  0  0  0  0
   -9.4471   22.1918  -31.7512 H   0  0  0  0  0  0  0  0  0  0  0  0
   -9.1385   19.8524  -32.6208 H   0  0  0  0  0  0  0  0  0  0  0  0
   -4.8154   20.2858  -32.2509 H   0  0  0  0  0  0  0  0  0  0  0  0
  1  2  1  0
  2  3  1  0
  3  4  1  0
  4  5  2  0
  4  6  1  0
  6  7  1  0
  7  8  1  0
  8  9  2  0
  8 10  1  0
 10 11  1  0
 11 12  1  0
 12 13  1  0
 13 14  2  0
 13 15  1  0
 15 16  1  0
 16 17  1  0
 17 18  1  0
 17 19  2  0
 16 20  2  0
 20 21  1  0
 21 22  2  0
 22 23  1  0
 23 24  2  0
 24 25  1  0
 25 26  1  0
 25 27  1  0
 25 28  1  0
 24 29  1  0
 29 30  2  0
 30 15  1  0
 30 21  1  0
  1 31  1  0
  1 32  1  0
  1 33  1  0
  3 34  1  0
  3 35  1  0
  7 36  1  0
  7 37  1  0
 11 38  1  0
 11 39  1  0
 18 40  1  0
 20 41  1  0
 22 42  1  0
 23 43  1  0
 29 44  1  0
M  CHG  2   6  -1  18  -1
M  END
>  <UniqueID>  (48) 
48

>  <SMILES>  (48) 
COCC(=O)[N-]CC(=O)OCOC(=O)n1c(C([NH-])=O)cc2ccc(C(F)(F)F)cc21

>  <Energy>  (48) 
77.58187082391389

>  <Genealogy>  (48) 
COCC(=O)[N-]CC(=O)OCOC(=O)n1c(C([NH-])=O)cc2ccc(C(F)(F)F)cc21 (protonated)
COCC(=O)[N-]CC(=O)OCOC(=O)n1c(C([NH-])=O)cc2ccc(C(F)(F)F)cc21 (3D coordinates assigned)
COCC(=O)[N-]CC(=O)OCOC(=O)n1c(C([NH-])=O)cc2ccc(C(F)(F)F)cc21 (optimized conformer: 77.58187082391389 kcal/mol)

>  <smiles>  (48) 
COCC(=O)NCC(=O)OCOC(=O)n1c(C(N)=O)cc2ccc(C(F)(F)F)cc21

>  <score_type>  (48) 
oracle

>  <origin>  (48) 
adg

>  <m_score__min__energy>  (48) 
-10.6

>  <m_primary>  (48) 
energy

$$$$
48:0
     RDKit          3D

 34 35  0  0  0  0  0  0  0  0999 V2000
   -3.9910   23.1310  -28.5860 C   0  0  0  0  0  0  0  0  0  0  0  0
   -3.1790   22.8520  -29.7740 N   0  0  0  0  0  0  0  0  0  0  0  0
   -1.7140   22.8260  -29.6700 C   0  0  0  0  0  0  0  0  0  0  0  0
   -1.2070   24.1680  -29.2470 C   0  0  0  0  0  0  0  0  0  0  0  0
   -0.0160   24.3050  -28.8590 O   0  0  0  0  0  0  0  0  0  0  0  0
   -2.0370   25.2780  -29.3250 O   0  0  0  0  0  0  0  0  0  0  0  0
   -3.8300   22.7280  -31.0550 C   0  0  0  0  0  0  0  0  0  0  0  0
   -3.1440   22.5170  -32.0920 O   0  0  0  0  0  0  0  0  0  0  0  0
   -5.2560   22.8250  -31.1720 N   0  0  0  0  0  0  0  0  0  0  0  0
   -6.0440   23.9040  -30.9070 C   0  0  0  0  0  0  0  0  0  0  0  0
   -5.5650   25.2310  -30.4700 C   0  0  0  0  0  0  0  0  0  0  0  0
   -4.2450   25.6570  -30.8020 N   0  0  0  0  0  0  0  0  0  0  0  0
   -6.3090   25.9950  -29.8000 O   0  0  0  0  0  0  0  0  0  0  0  0
   -7.3830   23.5950  -31.1420 C   0  0  0  0  0  0  0  0  0  0  0  0
   -7.3840   22.2860  -31.5730 C   0  0  0  0  0  0  0  0  0  0  0  0
   -8.4420   21.4660  -31.9530 C   0  0  0  0  0  0  0  0  0  0  0  0
   -8.1470   20.1510  -32.3510 C   0  0  0  0  0  0  0  0  0  0  0  0
   -6.8100   19.6720  -32.3440 C   0  0  0  0  0  0  0  0  0  0  0  0
   -6.5010   18.2740  -32.8170 C   0  0  0  0  0  0  0  0  0  0  0  0
   -5.4680   17.7250  -32.0780 F   0  0  0  0  0  0  0  0  0  0  0  0
   -6.1320   18.3140  -34.1480 F   0  0  0  0  0  0  0  0  0  0  0  0
   -7.6120   17.4570  -32.6810 F   0  0  0  0  0  0  0  0  0  0  0  0
   -5.7600   20.5460  -31.9740 C   0  0  0  0  0  0  0  0  0  0  0  0
   -6.0870   21.8490  -31.5870 C   0  0  0  0  0  0  0  0  0  0  0  0
   -3.3992   22.9277  -27.6813 H   0  0  0  0  0  0  0  0  0  0  0  0
   -4.2997   24.1868  -28.5926 H   0  0  0  0  0  0  0  0  0  0  0  0
   -4.8834   22.4880  -28.5926 H   0  0  0  0  0  0  0  0  0  0  0  0
   -1.4150   22.0727  -28.9263 H   0  0  0  0  0  0  0  0  0  0  0  0
   -1.2869   22.5717  -30.6513 H   0  0  0  0  0  0  0  0  0  0  0  0
   -3.4910   25.6750  -30.0810 H   0  0  0  0  0  0  0  0  0  0  0  0
   -8.2531   24.2552  -31.0113 H   0  0  0  0  0  0  0  0  0  0  0  0
   -9.4779   21.8359  -31.9422 H   0  0  0  0  0  0  0  0  0  0  0  0
   -8.9613   19.4847  -32.6718 H   0  0  0  0  0  0  0  0  0  0  0  0
   -4.7132   20.2086  -31.9905 H   0  0  0  0  0  0  0  0  0  0  0  0
  1  2  1  0
  2  3  1  0
  3  4  1  0
  4  5  2  0
  4  6  1  0
  2  7  1  0
  7  8  2  0
  7  9  1  0
  9 10  1  0
 10 11  1  0
 11 12  1  0
 11 13  2  0
 10 14  2  0
 14 15  1  0
 15 16  2  0
 16 17  1  0
 17 18  2  0
 18 19  1  0
 19 20  1  0
 19 21  1  0
 19 22  1  0
 18 23  1  0
 23 24  2  0
 24  9  1  0
 24 15  1  0
  1 25  1  0
  1 26  1  0
  1 27  1  0
  3 28  1  0
  3 29  1  0
 12 30  1  0
 14 31  1  0
 16 32  1  0
 17 33  1  0
 23 34  1  0
M  CHG  2   6  -1  12  -1
M  END
>  <UniqueID>  (49) 
49

>  <SMILES>  (49) 
CN(CC(=O)[O-])C(=O)n1c(C([NH-])=O)cc2ccc(C(F)(F)F)cc21

>  <Energy>  (49) 
70.85585406571342

>  <Genealogy>  (49) 
CN(CC(=O)[O-])C(=O)n1c(C([NH-])=O)cc2ccc(C(F)(F)F)cc21 (protonated)
CN(CC(=O)[O-])C(=O)n1c(C([NH-])=O)cc2ccc(C(F)(F)F)cc21 (3D coordinates assigned)
CN(CC(=O)[O-])C(=O)n1c(C([NH-])=O)cc2ccc(C(F)(F)F)cc21 (optimized conformer: 70.85585406571342 kcal/mol)

>  <smiles>  (49) 
CN(CC(=O)O)C(=O)n1c(C(N)=O)cc2ccc(C(F)(F)F)cc21

>  <score_type>  (49) 
oracle

>  <origin>  (49) 
adg

>  <m_score__min__energy>  (49) 
-11.960000000000001

>  <m_primary>  (49) 
energy

$$$$
49:0
     RDKit          3D

 32 33  0  0  0  0  0  0  0  0999 V2000
   -3.8660   24.1840  -27.3500 C   0  0  0  0  0  0  0  0  0  0  0  0
   -4.0240   23.0610  -28.0560 C   0  0  0  0  0  0  0  0  0  0  0  0
   -2.9260   22.4990  -28.9130 C   0  0  0  0  0  0  0  0  0  0  0  0
   -2.9140   23.1440  -30.1840 O   0  0  0  0  0  0  0  0  0  0  0  0
   -3.6620   22.6970  -31.2790 C   0  0  0  0  0  0  0  0  0  0  0  0
   -3.0920   22.1370  -32.2550 O   0  0  0  0  0  0  0  0  0  0  0  0
   -5.0840   22.8980  -31.3010 N   0  0  0  0  0  0  0  0  0  0  0  0
   -5.7800   23.9900  -30.8760 C   0  0  0  0  0  0  0  0  0  0  0  0
   -5.1980   25.2790  -30.4440 C   0  0  0  0  0  0  0  0  0  0  0  0
   -3.8840   25.6610  -30.8420 N   0  0  0  0  0  0  0  0  0  0  0  0
   -5.8890   26.0740  -29.7540 O   0  0  0  0  0  0  0  0  0  0  0  0
   -7.1510   23.7650  -30.9830 C   0  0  0  0  0  0  0  0  0  0  0  0
   -7.2740   22.4960  -31.4980 C   0  0  0  0  0  0  0  0  0  0  0  0
   -8.4140   21.7630  -31.8120 C   0  0  0  0  0  0  0  0  0  0  0  0
   -8.2450   20.4630  -32.3150 C   0  0  0  0  0  0  0  0  0  0  0  0
   -6.9480   19.9090  -32.4710 C   0  0  0  0  0  0  0  0  0  0  0  0
   -6.7780   18.5250  -33.0460 C   0  0  0  0  0  0  0  0  0  0  0  0
   -6.3970   18.5920  -34.3760 F   0  0  0  0  0  0  0  0  0  0  0  0
   -7.9640   17.8160  -32.9720 F   0  0  0  0  0  0  0  0  0  0  0  0
   -5.8050   17.8520  -32.3320 F   0  0  0  0  0  0  0  0  0  0  0  0
   -5.8140   20.6950  -32.1630 C   0  0  0  0  0  0  0  0  0  0  0  0
   -6.0120   21.9930  -31.6820 C   0  0  0  0  0  0  0  0  0  0  0  0
   -4.6923   24.5665  -26.7329 H   0  0  0  0  0  0  0  0  0  0  0  0
   -2.9096   24.7262  -27.3858 H   0  0  0  0  0  0  0  0  0  0  0  0
   -4.9872   22.5320  -28.0083 H   0  0  0  0  0  0  0  0  0  0  0  0
   -1.9583   22.6594  -28.4151 H   0  0  0  0  0  0  0  0  0  0  0  0
   -3.0998   21.4226  -29.0586 H   0  0  0  0  0  0  0  0  0  0  0  0
   -3.0440   25.2920  -30.3460 H   0  0  0  0  0  0  0  0  0  0  0  0
   -7.9629   24.4562  -30.7127 H   0  0  0  0  0  0  0  0  0  0  0  0
   -9.4181   22.1893  -31.6704 H   0  0  0  0  0  0  0  0  0  0  0  0
   -9.1277   19.8675  -32.5911 H   0  0  0  0  0  0  0  0  0  0  0  0
   -4.7985   20.2944  -32.2987 H   0  0  0  0  0  0  0  0  0  0  0  0
  1  2  2  0
  2  3  1  0
  3  4  1  0
  4  5  1  0
  5  6  2  0
  5  7  1  0
  7  8  1  0
  8  9  1  0
  9 10  1  0
  9 11  2  0
  8 12  2  0
 12 13  1  0
 13 14  2  0
 14 15  1  0
 15 16  2  0
 16 17  1  0
 17 18  1  0
 17 19  1  0
 17 20  1  0
 16 21  1  0
 21 22  2  0
 22  7  1  0
 22 13  1  0
  1 23  1  0
  1 24  1  0
  2 25  1  0
  3 26  1  0
  3 27  1  0
 10 28  1  0
 12 29  1  0
 14 30  1  0
 15 31  1  0
 21 32  1  0
M  CHG  1  10  -1
M  END
>  <UniqueID>  (50) 
50

>  <SMILES>  (50) 
C=CCOC(=O)n1c(C([NH-])=O)cc2ccc(C(F)(F)F)cc21

>  <Energy>  (50) 
68.71709700527767

>  <Genealogy>  (50) 
C=CCOC(=O)n1c(C([NH-])=O)cc2ccc(C(F)(F)F)cc21 (protonated)
C=CCOC(=O)n1c(C([NH-])=O)cc2ccc(C(F)(F)F)cc21 (3D coordinates assigned)
C=CCOC(=O)n1c(C([NH-])=O)cc2ccc(C(F)(F)F)cc21 (optimized conformer: 68.71709700527767 kcal/mol)

>  <smiles>  (50) 
C=CCOC(=O)n1c(C(N)=O)cc2ccc(C(F)(F)F)cc21

>  <score_type>  (50) 
oracle

>  <origin>  (50) 
adg

>  <m_score__min__energy>  (50) 
-9.4600000000000009

>  <m_primary>  (50) 
energy

$$$$
50:0
     RDKit          3D

 36 37  0  0  0  0  0  0  0  0999 V2000
   -6.1570   17.2560  -31.9050 C   0  0  0  0  0  0  0  0  0  0  0  0
   -6.2640   18.3280  -32.9010 N   0  0  0  0  0  0  0  0  0  0  0  0
   -6.1010   18.0030  -34.3280 C   0  0  0  0  0  0  0  0  0  0  0  0
   -4.6500   17.9200  -34.6840 C   0  0  0  0  0  0  0  0  0  0  0  0
   -4.2110   16.9380  -35.3380 O   0  0  0  0  0  0  0  0  0  0  0  0
   -3.7770   18.9190  -34.2740 O   0  0  0  0  0  0  0  0  0  0  0  0
   -6.5470   19.6820  -32.4690 C   0  0  0  0  0  0  0  0  0  0  0  0
   -7.8790   20.1820  -32.4730 C   0  0  0  0  0  0  0  0  0  0  0  0
   -8.1600   21.4890  -32.0440 C   0  0  0  0  0  0  0  0  0  0  0  0
   -7.0980   22.2820  -31.6250 C   0  0  0  0  0  0  0  0  0  0  0  0
   -7.0930   23.5720  -31.1450 C   0  0  0  0  0  0  0  0  0  0  0  0
   -5.7560   23.8600  -30.8740 C   0  0  0  0  0  0  0  0  0  0  0  0
   -5.2870   25.1850  -30.4190 C   0  0  0  0  0  0  0  0  0  0  0  0
   -4.0120   25.6680  -30.8360 N   0  0  0  0  0  0  0  0  0  0  0  0
   -5.9820   25.8820  -29.6340 O   0  0  0  0  0  0  0  0  0  0  0  0
   -4.9680   22.7870  -31.1690 N   0  0  0  0  0  0  0  0  0  0  0  0
   -3.5490   22.6540  -30.9870 C   0  0  0  0  0  0  0  0  0  0  0  0
   -2.8710   21.9850  -31.8150 O   0  0  0  0  0  0  0  0  0  0  0  0
   -2.9300   23.2960  -29.9060 O   0  0  0  0  0  0  0  0  0  0  0  0
   -1.5480   23.3620  -29.6910 C   0  0  0  0  0  0  0  0  0  0  0  0
   -0.7960   22.3850  -29.9610 O   0  0  0  0  0  0  0  0  0  0  0  0
   -0.9660   24.5890  -29.1410 C   0  0  0  0  0  0  0  0  0  0  0  0
   -1.5810   25.6830  -29.2480 O   0  0  0  0  0  0  0  0  0  0  0  0
    0.2670   24.5550  -28.5020 O   0  0  0  0  0  0  0  0  0  0  0  0
   -5.8060   21.8310  -31.6310 C   0  0  0  0  0  0  0  0  0  0  0  0
   -5.4980   20.5260  -32.0330 C   0  0  0  0  0  0  0  0  0  0  0  0
   -6.2002   17.6886  -30.8946 H   0  0  0  0  0  0  0  0  0  0  0  0
   -6.9890   16.5486  -32.0368 H   0  0  0  0  0  0  0  0  0  0  0  0
   -5.2016   16.7270  -32.0368 H   0  0  0  0  0  0  0  0  0  0  0  0
   -6.5807   17.0352  -34.5360 H   0  0  0  0  0  0  0  0  0  0  0  0
   -6.5701   18.7957  -34.9293 H   0  0  0  0  0  0  0  0  0  0  0  0
   -8.7000   19.5357  -32.8169 H   0  0  0  0  0  0  0  0  0  0  0  0
   -9.1903   21.8742  -32.0396 H   0  0  0  0  0  0  0  0  0  0  0  0
   -7.9596   24.2348  -31.0050 H   0  0  0  0  0  0  0  0  0  0  0  0
   -3.1330   25.2890  -30.4190 H   0  0  0  0  0  0  0  0  0  0  0  0
   -4.4598   20.1632  -32.0104 H   0  0  0  0  0  0  0  0  0  0  0  0
  1  2  1  0
  2  3  1  0
  3  4  1  0
  4  5  2  0
  4  6  1  0
  2  7  1  0
  7  8  2  0
  8  9  1  0
  9 10  2  0
 10 11  1  0
 11 12  2  0
 12 13  1  0
 13 14  1  0
 13 15  2  0
 12 16  1  0
 16 17  1  0
 17 18  2  0
 17 19  1  0
 19 20  1  0
 20 21  2  0
 20 22  1  0
 22 23  2  0
 22 24  1  0
 16 25  1  0
 25 26  2  0
 26  7  1  0
 25 10  1  0
  1 27  1  0
  1 28  1  0
  1 29  1  0
  3 30  1  0
  3 31  1  0
  8 32  1  0
  9 33  1  0
 11 34  1  0
 14 35  1  0
 26 36  1  0
M  CHG  3   6  -1  14  -1  24  -1
M  END
>  <UniqueID>  (51) 
51

>  <SMILES>  (51) 
CN(CC(=O)[O-])c1ccc2cc(C([NH-])=O)n(C(=O)OC(=O)C(=O)[O-])c2c1

>  <Energy>  (51) 
76.18177624206432

>  <Genealogy>  (51) 
CN(CC(=O)[O-])c1ccc2cc(C([NH-])=O)n(C(=O)OC(=O)C(=O)[O-])c2c1 (protonated)
CN(CC(=O)[O-])c1ccc2cc(C([NH-])=O)n(C(=O)OC(=O)C(=O)[O-])c2c1 (3D coordinates assigned)
CN(CC(=O)[O-])c1ccc2cc(C([NH-])=O)n(C(=O)OC(=O)C(=O)[O-])c2c1 (optimized conformer: 76.18177624206432 kcal/mol)

>  <smiles>  (51) 
CN(CC(=O)O)c1ccc2cc(C(N)=O)n(C(=O)OC(=O)C(=O)O)c2c1

>  <score_type>  (51) 
oracle

>  <origin>  (51) 
adg

>  <m_score__min__energy>  (51) 
-12.130000000000001

>  <m_primary>  (51) 
energy

$$$$
51:0
     RDKit          3D

 37 38  0  0  0  0  0  0  0  0999 V2000
   -4.8550   18.9690  -33.9090 C   0  0  0  0  0  0  0  0  0  0  0  0
   -3.7900   19.6300  -33.4510 C   0  0  0  0  0  0  0  0  0  0  0  0
   -2.5770   18.8820  -32.9810 C   0  0  0  0  0  0  0  0  0  0  0  0
   -3.8000   21.4330  -33.4440 S   0  0  0  0  0  0  0  0  0  0  0  0
   -3.2140   21.5160  -31.7470 C   0  0  0  0  0  0  0  0  0  0  0  0
   -1.9070   21.5260  -31.5000 C   0  0  0  0  0  0  0  0  0  0  0  0
   -4.1950   21.6600  -30.6590 C   0  0  0  0  0  0  0  0  0  0  0  0
   -3.8650   21.3860  -29.4740 O   0  0  0  0  0  0  0  0  0  0  0  0
   -5.5100   22.1660  -30.9340 N   0  0  0  0  0  0  0  0  0  0  0  0
   -5.9400   23.4530  -30.8010 C   0  0  0  0  0  0  0  0  0  0  0  0
   -5.1470   24.5480  -30.1960 C   0  0  0  0  0  0  0  0  0  0  0  0
   -5.3000   24.9020  -28.8160 N   0  0  0  0  0  0  0  0  0  0  0  0
   -4.3020   25.1680  -30.8960 O   0  0  0  0  0  0  0  0  0  0  0  0
   -7.2790   23.5550  -31.1750 C   0  0  0  0  0  0  0  0  0  0  0  0
   -7.6530   22.2770  -31.5270 C   0  0  0  0  0  0  0  0  0  0  0  0
   -8.8870   21.7900  -31.9560 C   0  0  0  0  0  0  0  0  0  0  0  0
   -8.9910   20.4170  -32.2250 C   0  0  0  0  0  0  0  0  0  0  0  0
   -7.8720   19.5610  -32.0650 C   0  0  0  0  0  0  0  0  0  0  0  0
   -8.0100   18.0920  -32.3300 C   0  0  0  0  0  0  0  0  0  0  0  0
   -6.6450   20.0860  -31.6080 C   0  0  0  0  0  0  0  0  0  0  0  0
   -6.5710   21.4570  -31.3560 C   0  0  0  0  0  0  0  0  0  0  0  0
   -5.7409   19.5236  -34.2520 H   0  0  0  0  0  0  0  0  0  0  0  0
   -4.8470   17.8696  -33.9435 H   0  0  0  0  0  0  0  0  0  0  0  0
   -2.5571   18.8697  -31.8812 H   0  0  0  0  0  0  0  0  0  0  0  0
   -2.6138   17.8495  -33.3586 H   0  0  0  0  0  0  0  0  0  0  0  0
   -1.6709   19.3785  -33.3586 H   0  0  0  0  0  0  0  0  0  0  0  0
   -1.5436   21.5767  -30.4630 H   0  0  0  0  0  0  0  0  0  0  0  0
   -1.1896   21.4836  -32.3327 H   0  0  0  0  0  0  0  0  0  0  0  0
   -4.7210   25.6700  -28.4130 H   0  0  0  0  0  0  0  0  0  0  0  0
   -5.9920   24.4220  -28.2010 H   0  0  0  0  0  0  0  0  0  0  0  0
   -7.9026   24.4611  -31.1865 H   0  0  0  0  0  0  0  0  0  0  0  0
   -9.7505   22.4602  -32.0795 H   0  0  0  0  0  0  0  0  0  0  0  0
   -9.9509   20.0001  -32.5637 H   0  0  0  0  0  0  0  0  0  0  0  0
   -8.0609   17.5502  -31.3741 H   0  0  0  0  0  0  0  0  0  0  0  0
   -8.9294   17.9080  -32.9052 H   0  0  0  0  0  0  0  0  0  0  0  0
   -7.1410   17.7399  -32.9052 H   0  0  0  0  0  0  0  0  0  0  0  0
   -5.7722   19.4342  -31.4547 H   0  0  0  0  0  0  0  0  0  0  0  0
  1  2  2  0
  2  3  1  0
  2  4  1  0
  4  5  1  0
  5  6  2  0
  5  7  1  0
  7  8  2  0
  7  9  1  0
  9 10  1  0
 10 11  1  0
 11 12  1  0
 11 13  2  0
 10 14  2  0
 14 15  1  0
 15 16  2  0
 16 17  1  0
 17 18  2  0
 18 19  1  0
 18 20  1  0
 20 21  2  0
 21  9  1  0
 21 15  1  0
  1 22  1  0
  1 23  1  0
  3 24  1  0
  3 25  1  0
  3 26  1  0
  6 27  1  0
  6 28  1  0
 12 29  1  0
 12 30  1  0
 14 31  1  0
 16 32  1  0
 17 33  1  0
 19 34  1  0
 19 35  1  0
 19 36  1  0
 20 37  1  0
M  END
>  <UniqueID>  (52) 
52

>  <SMILES>  (52) 
C=C(C)SC(=C)C(=O)n1c(C(N)=O)cc2ccc(C)cc21

>  <Energy>  (52) 
68.5309773407001

>  <Genealogy>  (52) 
C=C(C)SC(=C)C(=O)n1c(C(N)=O)cc2ccc(C)cc21 (3D coordinates assigned)
C=C(C)SC(=C)C(=O)n1c(C(N)=O)cc2ccc(C)cc21 (optimized conformer: 68.5309773407001 kcal/mol)

>  <smiles>  (52) 
C=C(C)SC(=C)C(=O)n1c(C(N)=O)cc2ccc(C)cc21

>  <score_type>  (52) 
oracle

>  <origin>  (52) 
adg

>  <m_score__min__energy>  (52) 
-8.8399999999999999

>  <m_primary>  (52) 
energy

$$$$
52:0
     RDKit          3D

 30 31  0  0  0  0  0  0  0  0999 V2000
   -6.2760   25.4890  -29.3550 C   0  0  0  0  0  0  0  0  0  0  0  0
   -5.2040   24.4140  -29.5640 C   0  0  2  0  0  0  0  0  0  0  0  0
   -3.9180   25.0070  -30.0770 C   0  0  0  0  0  0  0  0  0  0  0  0
   -3.9170   25.6730  -31.1450 O   0  0  0  0  0  0  0  0  0  0  0  0
   -2.7360   24.8740  -29.3560 O   0  0  0  0  0  0  0  0  0  0  0  0
   -5.6950   23.3240  -30.4930 C   0  0  0  0  0  0  0  0  0  0  0  0
   -7.0880   23.1010  -30.6460 C   0  0  0  0  0  0  0  0  0  0  0  0
   -7.5670   22.0900  -31.4940 C   0  0  0  0  0  0  0  0  0  0  0  0
   -6.6360   21.3230  -32.1870 C   0  0  0  0  0  0  0  0  0  0  0  0
   -6.8260   20.2640  -33.0430 C   0  0  0  0  0  0  0  0  0  0  0  0
   -5.5490   19.8700  -33.4310 C   0  0  0  0  0  0  0  0  0  0  0  0
   -5.2940   18.7940  -34.4070 C   0  0  0  0  0  0  0  0  0  0  0  0
   -4.1050   18.0060  -34.3450 N   0  0  0  0  0  0  0  0  0  0  0  0
   -6.1120   18.6040  -35.3480 O   0  0  0  0  0  0  0  0  0  0  0  0
   -4.6020   20.6430  -32.8290 N   0  0  0  0  0  0  0  0  0  0  0  0
   -3.1750   20.4700  -32.8810 C   0  0  0  0  0  0  0  0  0  0  0  0
   -2.6470   19.3990  -32.4830 O   0  0  0  0  0  0  0  0  0  0  0  0
   -2.3640   21.4820  -33.3790 O   0  0  0  0  0  0  0  0  0  0  0  0
   -5.2850   21.5320  -32.0710 C   0  0  0  0  0  0  0  0  0  0  0  0
   -4.7790   22.5200  -31.2160 C   0  0  0  0  0  0  0  0  0  0  0  0
   -6.4326   25.6461  -28.2776 H   0  0  0  0  0  0  0  0  0  0  0  0
   -5.9465   26.4305  -29.8187 H   0  0  0  0  0  0  0  0  0  0  0  0
   -7.2184   25.1621  -29.8187 H   0  0  0  0  0  0  0  0  0  0  0  0
   -4.9998   23.9632  -28.5816 H   0  0  0  0  0  0  0  0  0  0  0  0
   -7.8020   23.7287  -30.0927 H   0  0  0  0  0  0  0  0  0  0  0  0
   -8.6462   21.9097  -31.6071 H   0  0  0  0  0  0  0  0  0  0  0  0
   -7.7838   19.8221  -33.3549 H   0  0  0  0  0  0  0  0  0  0  0  0
   -3.3340   18.2450  -33.6830 H   0  0  0  0  0  0  0  0  0  0  0  0
   -3.9570   17.2240  -35.0230 H   0  0  0  0  0  0  0  0  0  0  0  0
   -3.6944   22.6683  -31.1083 H   0  0  0  0  0  0  0  0  0  0  0  0
  1  2  1  0
  2  3  1  0
  3  4  2  0
  3  5  1  0
  2  6  1  0
  6  7  2  0
  7  8  1  0
  8  9  2  0
  9 10  1  0
 10 11  2  0
 11 12  1  0
 12 13  1  0
 12 14  2  0
 11 15  1  0
 15 16  1  0
 16 17  2  0
 16 18  1  0
 15 19  1  0
 19 20  2  0
 20  6  1  0
 19  9  1  0
  1 21  1  0
  1 22  1  0
  1 23  1  0
  2 24  1  1
  7 25  1  0
  8 26  1  0
 10 27  1  0
 13 28  1  0
 13 29  1  0
 20 30  1  0
M  CHG  2   5  -1  18  -1
M  END
>  <UniqueID>  (53) 
53

>  <SMILES>  (53) 
C[C@H](C(=O)[O-])c1ccc2cc(C(N)=O)n(C(=O)[O-])c2c1

>  <Energy>  (53) 
68.94453722787259

>  <Genealogy>  (53) 
CC(C(=O)[O-])c1ccc2cc(C(N)=O)n(C(=O)[O-])c2c1 (protonated)
C[C@H](C(=O)[O-])c1ccc2cc(C(N)=O)n(C(=O)[O-])c2c1 (chirality)
C[C@H](C(=O)[O-])c1ccc2cc(C(N)=O)n(C(=O)[O-])c2c1 (3D coordinates assigned)
C[C@H](C(=O)[O-])c1ccc2cc(C(N)=O)n(C(=O)[O-])c2c1 (optimized conformer: 68.94453722787259 kcal/mol)

>  <smiles>  (53) 
CC(C(=O)O)c1ccc2cc(C(N)=O)n(C(=O)O)c2c1

>  <score_type>  (53) 
oracle

>  <origin>  (53) 
adg

>  <m_score__min__energy>  (53) 
-9.2300000000000004

>  <m_primary>  (53) 
energy

$$$$
53:0
     RDKit          3D

 44 45  0  0  0  0  0  0  0  0999 V2000
   -6.4970   23.7810  -32.0200 C   0  0  0  0  0  0  0  0  0  0  0  0
   -6.3730   23.2350  -30.6650 N   0  0  0  0  0  0  0  0  0  0  0  0
   -7.4780   22.4660  -30.0840 C   0  0  0  0  0  0  0  0  0  0  0  0
   -5.2260   23.5390  -29.8380 C   0  0  0  0  0  0  0  0  0  0  0  0
   -5.2950   23.3600  -28.5910 O   0  0  0  0  0  0  0  0  0  0  0  0
   -3.9680   24.0790  -30.3950 C   0  0  0  0  0  0  0  0  0  0  0  0
   -3.8880   25.2900  -30.7330 O   0  0  0  0  0  0  0  0  0  0  0  0
   -2.8280   23.2210  -30.5690 N   0  0  0  0  0  0  0  0  0  0  0  0
   -1.5980   23.3340  -29.9920 C   0  0  0  0  0  0  0  0  0  0  0  0
   -1.1290   24.4650  -29.1650 C   0  0  0  0  0  0  0  0  0  0  0  0
   -1.9500   25.6110  -28.9550 N   0  0  0  0  0  0  0  0  0  0  0  0
    0.0280   24.4360  -28.6660 O   0  0  0  0  0  0  0  0  0  0  0  0
   -0.7970   22.2480  -30.3400 C   0  0  0  0  0  0  0  0  0  0  0  0
   -1.5810   21.4610  -31.1530 C   0  0  0  0  0  0  0  0  0  0  0  0
   -1.2990   20.2480  -31.7710 C   0  0  0  0  0  0  0  0  0  0  0  0
   -2.3140   19.6430  -32.5330 C   0  0  0  0  0  0  0  0  0  0  0  0
   -3.5960   20.2480  -32.6620 C   0  0  0  0  0  0  0  0  0  0  0  0
   -4.6360   19.6140  -33.4490 N   0  0  0  0  0  0  0  0  0  0  0  0
   -4.3400   18.4120  -34.2360 C   0  0  0  0  0  0  0  0  0  0  0  0
   -6.0160   20.1240  -33.4410 C   0  0  0  0  0  0  0  0  0  0  0  0
   -6.9380   19.1850  -32.6520 C   0  0  0  0  0  0  0  0  0  0  0  0
   -8.3210   19.7470  -32.5820 C   0  0  0  0  0  0  0  0  0  0  0  0
   -9.3150   18.9770  -32.5160 O   0  0  0  0  0  0  0  0  0  0  0  0
   -8.5120   21.1220  -32.5360 O   0  0  0  0  0  0  0  0  0  0  0  0
   -3.8360   21.4800  -32.0040 C   0  0  0  0  0  0  0  0  0  0  0  0
   -2.8010   22.0680  -31.2720 C   0  0  0  0  0  0  0  0  0  0  0  0
   -6.7403   24.8522  -31.9628 H   0  0  0  0  0  0  0  0  0  0  0  0
   -5.5460   23.6491  -32.5569 H   0  0  0  0  0  0  0  0  0  0  0  0
   -7.2977   23.2513  -32.5569 H   0  0  0  0  0  0  0  0  0  0  0  0
   -7.4170   22.5084  -28.9865 H   0  0  0  0  0  0  0  0  0  0  0  0
   -8.4360   22.8935  -30.4148 H   0  0  0  0  0  0  0  0  0  0  0  0
   -7.4099   21.4191  -30.4148 H   0  0  0  0  0  0  0  0  0  0  0  0
   -2.9190   25.6550  -29.3430 H   0  0  0  0  0  0  0  0  0  0  0  0
    0.2416   22.0596  -30.0306 H   0  0  0  0  0  0  0  0  0  0  0  0
   -0.3111   19.7756  -31.6669 H   0  0  0  0  0  0  0  0  0  0  0  0
   -2.1141   18.6863  -33.0378 H   0  0  0  0  0  0  0  0  0  0  0  0
   -4.1330   17.5713  -33.5575 H   0  0  0  0  0  0  0  0  0  0  0  0
   -5.2046   18.1669  -34.8703 H   0  0  0  0  0  0  0  0  0  0  0  0
   -3.4604   18.5964  -34.8703 H   0  0  0  0  0  0  0  0  0  0  0  0
   -6.0300   21.1198  -32.9740 H   0  0  0  0  0  0  0  0  0  0  0  0
   -6.3766   20.1833  -34.4785 H   0  0  0  0  0  0  0  0  0  0  0  0
   -6.9701   18.2054  -33.1513 H   0  0  0  0  0  0  0  0  0  0  0  0
   -6.5456   19.0769  -31.6301 H   0  0  0  0  0  0  0  0  0  0  0  0
   -4.8210   21.9655  -32.0684 H   0  0  0  0  0  0  0  0  0  0  0  0
  1  2  1  0
  2  3  1  0
  2  4  1  0
  4  5  2  0
  4  6  1  0
  6  7  2  0
  6  8  1  0
  8  9  1  0
  9 10  1  0
 10 11  1  0
 10 12  2  0
  9 13  2  0
 13 14  1  0
 14 15  2  0
 15 16  1  0
 16 17  2  0
 17 18  1  0
 18 19  1  0
 18 20  1  0
 20 21  1  0
 21 22  1  0
 22 23  2  0
 22 24  1  0
 17 25  1  0
 25 26  2  0
 26  8  1  0
 26 14  1  0
  1 27  1  0
  1 28  1  0
  1 29  1  0
  3 30  1  0
  3 31  1  0
  3 32  1  0
 11 33  1  0
 13 34  1  0
 15 35  1  0
 16 36  1  0
 19 37  1  0
 19 38  1  0
 19 39  1  0
 20 40  1  0
 20 41  1  0
 21 42  1  0
 21 43  1  0
 25 44  1  0
M  CHG  2  11  -1  24  -1
M  END
>  <UniqueID>  (54) 
54

>  <SMILES>  (54) 
CN(C)C(=O)C(=O)n1c(C([NH-])=O)cc2ccc(N(C)CCC(=O)[O-])cc21

>  <Energy>  (54) 
81.35941517425168

>  <Genealogy>  (54) 
CN(C)C(=O)C(=O)n1c(C([NH-])=O)cc2ccc(N(C)CCC(=O)[O-])cc21 (protonated)
CN(C)C(=O)C(=O)n1c(C([NH-])=O)cc2ccc(N(C)CCC(=O)[O-])cc21 (3D coordinates assigned)
CN(C)C(=O)C(=O)n1c(C([NH-])=O)cc2ccc(N(C)CCC(=O)[O-])cc21 (optimized conformer: 81.35941517425168 kcal/mol)

>  <smiles>  (54) 
CN(C)C(=O)C(=O)n1c(C(N)=O)cc2ccc(N(C)CCC(=O)O)cc21

>  <score_type>  (54) 
oracle

>  <origin>  (54) 
adg

>  <m_score__min__energy>  (54) 
-9.9900000000000002

>  <m_primary>  (54) 
energy

$$$$
54:0
     RDKit          3D

 40 41  0  0  0  0  0  0  0  0999 V2000
   -5.0180   24.7600  -29.3760 N   0  0  0  0  0  0  0  0  0  0  0  0
   -6.3010   24.5350  -29.9630 C   0  0  0  0  0  0  0  0  0  0  0  0
   -7.2080   25.3950  -29.8080 O   0  0  0  0  0  0  0  0  0  0  0  0
   -6.6030   23.2860  -30.6910 C   0  0  0  0  0  0  0  0  0  0  0  0
   -7.8900   22.9060  -31.0590 C   0  0  0  0  0  0  0  0  0  0  0  0
   -7.7500   21.6710  -31.6480 C   0  0  0  0  0  0  0  0  0  0  0  0
   -8.7110   20.8300  -32.1990 C   0  0  0  0  0  0  0  0  0  0  0  0
   -8.2790   19.6200  -32.7690 C   0  0  0  0  0  0  0  0  0  0  0  0
   -6.9010   19.2860  -32.8050 C   0  0  0  0  0  0  0  0  0  0  0  0
   -6.4530   17.9700  -33.3890 C   0  0  0  0  0  0  0  0  0  0  0  0
   -6.1470   18.1460  -34.7250 F   0  0  0  0  0  0  0  0  0  0  0  0
   -5.3320   17.4970  -32.7280 F   0  0  0  0  0  0  0  0  0  0  0  0
   -7.4540   17.0210  -33.2770 F   0  0  0  0  0  0  0  0  0  0  0  0
   -5.9580   20.1590  -32.2130 C   0  0  0  0  0  0  0  0  0  0  0  0
   -6.4180   21.3470  -31.6320 C   0  0  0  0  0  0  0  0  0  0  0  0
   -5.6980   22.3310  -31.0490 N   0  0  0  0  0  0  0  0  0  0  0  0
   -4.2670   22.3990  -30.9390 C   0  0  0  0  0  0  0  0  0  0  0  0
   -3.6560   23.4320  -31.3280 O   0  0  0  0  0  0  0  0  0  0  0  0
   -3.5570   21.3230  -30.3990 O   0  0  0  0  0  0  0  0  0  0  0  0
   -3.0510   21.3200  -29.0690 C   0  0  0  0  0  0  0  0  0  0  0  0
   -3.8460   22.1760  -28.2550 O   0  0  0  0  0  0  0  0  0  0  0  0
   -3.3250   23.3050  -27.6190 C   0  0  0  0  0  0  0  0  0  0  0  0
   -4.0900   24.1960  -27.1570 O   0  0  0  0  0  0  0  0  0  0  0  0
   -1.8420   23.4350  -27.4430 C   0  0  0  0  0  0  0  0  0  0  0  0
   -1.4160   24.9010  -27.3260 C   0  0  0  0  0  0  0  0  0  0  0  0
   -1.6790   25.6550  -28.5950 C   0  0  0  0  0  0  0  0  0  0  0  0
   -2.6100   25.3000  -29.3630 O   0  0  0  0  0  0  0  0  0  0  0  0
   -0.9150   26.7720  -28.9090 O   0  0  0  0  0  0  0  0  0  0  0  0
   -4.8140   25.6640  -28.8950 H   0  0  0  0  0  0  0  0  0  0  0  0
   -4.3010   24.0020  -29.3390 H   0  0  0  0  0  0  0  0  0  0  0  0
   -8.8211   23.4726  -30.9105 H   0  0  0  0  0  0  0  0  0  0  0  0
   -9.7764   21.1034  -32.1890 H   0  0  0  0  0  0  0  0  0  0  0  0
   -9.0183   18.9240  -33.1921 H   0  0  0  0  0  0  0  0  0  0  0  0
   -4.8866   19.9098  -32.2093 H   0  0  0  0  0  0  0  0  0  0  0  0
   -3.0846   20.2968  -28.6666 H   0  0  0  0  0  0  0  0  0  0  0  0
   -2.0115   21.6798  -29.0722 H   0  0  0  0  0  0  0  0  0  0  0  0
   -1.5427   22.9020  -26.5285 H   0  0  0  0  0  0  0  0  0  0  0  0
   -1.3508   23.0029  -28.3273 H   0  0  0  0  0  0  0  0  0  0  0  0
   -1.9796   25.3723  -26.5073 H   0  0  0  0  0  0  0  0  0  0  0  0
   -0.3347   24.9302  -27.1261 H   0  0  0  0  0  0  0  0  0  0  0  0
  1  2  1  0
  2  3  2  0
  2  4  1  0
  4  5  2  0
  5  6  1  0
  6  7  2  0
  7  8  1  0
  8  9  2  0
  9 10  1  0
 10 11  1  0
 10 12  1  0
 10 13  1  0
  9 14  1  0
 14 15  2  0
 15 16  1  0
 16 17  1  0
 17 18  2  0
 17 19  1  0
 19 20  1  0
 20 21  1  0
 21 22  1  0
 22 23  2  0
 22 24  1  0
 24 25  1  0
 25 26  1  0
 26 27  2  0
 26 28  1  0
 16  4  1  0
 15  6  1  0
  1 29  1  0
  1 30  1  0
  5 31  1  0
  7 32  1  0
  8 33  1  0
 14 34  1  0
 20 35  1  0
 20 36  1  0
 24 37  1  0
 24 38  1  0
 25 39  1  0
 25 40  1  0
M  CHG  1  28  -1
M  END
>  <UniqueID>  (55) 
55

>  <SMILES>  (55) 
NC(=O)c1cc2ccc(C(F)(F)F)cc2n1C(=O)OCOC(=O)CCC(=O)[O-]

>  <Energy>  (55) 
71.77182823031534

>  <Genealogy>  (55) 
NC(=O)c1cc2ccc(C(F)(F)F)cc2n1C(=O)OCOC(=O)CCC(=O)[O-] (protonated)
NC(=O)c1cc2ccc(C(F)(F)F)cc2n1C(=O)OCOC(=O)CCC(=O)[O-] (3D coordinates assigned)
NC(=O)c1cc2ccc(C(F)(F)F)cc2n1C(=O)OCOC(=O)CCC(=O)[O-] (optimized conformer: 71.77182823031534 kcal/mol)

>  <smiles>  (55) 
NC(=O)c1cc2ccc(C(F)(F)F)cc2n1C(=O)OCOC(=O)CCC(=O)O

>  <score_type>  (55) 
oracle

>  <origin>  (55) 
adg

>  <m_score__min__energy>  (55) 
-9.9299999999999997

>  <m_primary>  (55) 
energy

$$$$
55:0
     RDKit          3D

 45 47  0  0  0  0  0  0  0  0999 V2000
   -1.0630   20.6650  -31.6100 C   0  0  0  0  0  0  0  0  0  0  0  0
   -2.5110   20.7500  -32.1300 C   0  0  0  0  0  0  0  0  0  0  0  0
   -3.0360   19.3260  -32.3670 C   0  0  0  0  0  0  0  0  0  0  0  0
   -2.5690   21.5320  -33.4560 C   0  0  0  0  0  0  0  0  0  0  0  0
   -3.3640   21.3560  -31.1490 O   0  0  0  0  0  0  0  0  0  0  0  0
   -3.9130   22.6460  -31.2040 C   0  0  0  0  0  0  0  0  0  0  0  0
   -3.1720   23.6660  -31.1720 O   0  0  0  0  0  0  0  0  0  0  0  0
   -5.3380   22.8050  -31.2930 N   0  0  0  0  0  0  0  0  0  0  0  0
   -6.0910   23.8410  -30.8280 C   0  0  0  0  0  0  0  0  0  0  0  0
   -5.5700   25.1050  -30.2710 C   0  0  0  0  0  0  0  0  0  0  0  0
   -6.1080   25.6650  -29.0720 N   0  0  0  0  0  0  0  0  0  0  0  0
   -4.5970   25.6740  -30.8340 O   0  0  0  0  0  0  0  0  0  0  0  0
   -7.4470   23.5780  -30.9950 C   0  0  0  0  0  0  0  0  0  0  0  0
   -7.5050   22.3410  -31.5960 C   0  0  0  0  0  0  0  0  0  0  0  0
   -8.6080   21.5830  -31.9800 C   0  0  0  0  0  0  0  0  0  0  0  0
   -8.3740   20.3180  -32.5470 C   0  0  0  0  0  0  0  0  0  0  0  0
   -7.0540   19.8370  -32.7060 C   0  0  0  0  0  0  0  0  0  0  0  0
   -6.8270   18.5450  -33.2710 N   0  0  0  0  0  0  0  0  0  0  0  0
   -7.2270   17.1510  -33.0040 C   0  0  0  0  0  0  0  0  0  0  0  0
   -6.4840   16.5500  -34.1560 C   0  0  0  0  0  0  0  0  0  0  0  0
   -5.3620   15.6900  -33.7450 C   0  0  0  0  0  0  0  0  0  0  0  0
   -4.4790   15.0150  -33.4220 N   0  0  0  0  0  0  0  0  0  0  0  0
   -6.0850   17.9710  -34.4090 C   0  0  0  0  0  0  0  0  0  0  0  0
   -5.9590   20.6290  -32.3040 C   0  0  0  0  0  0  0  0  0  0  0  0
   -6.2200   21.8940  -31.7640 C   0  0  0  0  0  0  0  0  0  0  0  0
   -1.0678   20.6653  -30.5100 H   0  0  0  0  0  0  0  0  0  0  0  0
   -0.5964   19.7379  -31.9744 H   0  0  0  0  0  0  0  0  0  0  0  0
   -0.4911   21.5311  -31.9744 H   0  0  0  0  0  0  0  0  0  0  0  0
   -3.2167   18.8360  -31.3989 H   0  0  0  0  0  0  0  0  0  0  0  0
   -3.9763   19.3718  -32.9359 H   0  0  0  0  0  0  0  0  0  0  0  0
   -2.2909   18.7505  -32.9359 H   0  0  0  0  0  0  0  0  0  0  0  0
   -2.6488   22.6084  -33.2437 H   0  0  0  0  0  0  0  0  0  0  0  0
   -1.6541   21.3394  -34.0356 H   0  0  0  0  0  0  0  0  0  0  0  0
   -3.4455   21.2066  -34.0356 H   0  0  0  0  0  0  0  0  0  0  0  0
   -5.7550   26.5810  -28.7170 H   0  0  0  0  0  0  0  0  0  0  0  0
   -6.7930   25.1350  -28.4900 H   0  0  0  0  0  0  0  0  0  0  0  0
   -8.2920   24.2211  -30.7081 H   0  0  0  0  0  0  0  0  0  0  0  0
   -9.6315   21.9624  -31.8439 H   0  0  0  0  0  0  0  0  0  0  0  0
   -9.2237   19.6982  -32.8692 H   0  0  0  0  0  0  0  0  0  0  0  0
   -6.8687   16.7854  -32.0304 H   0  0  0  0  0  0  0  0  0  0  0  0
   -8.3051   16.9425  -32.9393 H   0  0  0  0  0  0  0  0  0  0  0  0
   -6.9405   15.8927  -34.9107 H   0  0  0  0  0  0  0  0  0  0  0  0
   -4.9991   18.1278  -34.3306 H   0  0  0  0  0  0  0  0  0  0  0  0
   -6.2996   18.3823  -35.4064 H   0  0  0  0  0  0  0  0  0  0  0  0
   -4.9274   20.2628  -32.4118 H   0  0  0  0  0  0  0  0  0  0  0  0
  1  2  1  0
  2  3  1  0
  2  4  1  0
  2  5  1  0
  5  6  1  0
  6  7  2  0
  6  8  1  0
  8  9  1  0
  9 10  1  0
 10 11  1  0
 10 12  2  0
  9 13  2  0
 13 14  1  0
 14 15  2  0
 15 16  1  0
 16 17  2  0
 17 18  1  0
 18 19  1  0
 19 20  1  0
 20 21  1  0
 21 22  3  0
 20 23  1  0
 17 24  1  0
 24 25  2  0
 25  8  1  0
 25 14  1  0
 23 18  1  0
  1 26  1  0
  1 27  1  0
  1 28  1  0
  3 29  1  0
  3 30  1  0
  3 31  1  0
  4 32  1  0
  4 33  1  0
  4 34  1  0
 11 35  1  0
 11 36  1  0
 13 37  1  0
 15 38  1  0
 16 39  1  0
 19 40  1  0
 19 41  1  0
 20 42  1  0
 23 43  1  0
 23 44  1  0
 24 45  1  0
M  END
>  <UniqueID>  (56) 
56

>  <SMILES>  (56) 
CC(C)(C)OC(=O)n1c(C(N)=O)cc2ccc(N3CC(C#N)C3)cc21

>  <Energy>  (56) 
123.6221151458756

>  <Genealogy>  (56) 
CC(C)(C)OC(=O)n1c(C(N)=O)cc2ccc(N3CC(C#N)C3)cc21 (3D coordinates assigned)
CC(C)(C)OC(=O)n1c(C(N)=O)cc2ccc(N3CC(C#N)C3)cc21 (nonaromatic ring conformer: 123.6221151458756 kcal/mol)

>  <smiles>  (56) 
CC(C)(C)OC(=O)n1c(C(N)=O)cc2ccc(N3CC(C#N)C3)cc21

>  <score_type>  (56) 
oracle

>  <origin>  (56) 
adg

>  <m_score__min__energy>  (56) 
-9.6600000000000001

>  <m_primary>  (56) 
energy

$$$$
56:0
     RDKit          3D

 28 29  0  0  0  0  0  0  0  0999 V2000
   -3.9220   25.3550  -30.8220 N   0  0  0  0  0  0  0  0  0  0  0  0
   -4.9420   24.6530  -30.1180 C   0  0  0  0  0  0  0  0  0  0  0  0
   -5.3800   25.1240  -29.0340 O   0  0  0  0  0  0  0  0  0  0  0  0
   -5.5270   23.4090  -30.6630 C   0  0  0  0  0  0  0  0  0  0  0  0
   -6.7760   23.3530  -31.2790 C   0  0  0  0  0  0  0  0  0  0  0  0
   -6.9160   22.0510  -31.7040 C   0  0  0  0  0  0  0  0  0  0  0  0
   -7.9780   21.4330  -32.3560 C   0  0  0  0  0  0  0  0  0  0  0  0
   -7.8670   20.0620  -32.6400 C   0  0  0  0  0  0  0  0  0  0  0  0
   -6.7030   19.3370  -32.2780 C   0  0  0  0  0  0  0  0  0  0  0  0
   -6.6230   17.8530  -32.5320 C   0  0  0  0  0  0  0  0  0  0  0  0
   -6.0370   17.6330  -33.7650 F   0  0  0  0  0  0  0  0  0  0  0  0
   -7.8870   17.2880  -32.5260 F   0  0  0  0  0  0  0  0  0  0  0  0
   -5.8670   17.2290  -31.5550 F   0  0  0  0  0  0  0  0  0  0  0  0
   -5.6580   19.9960  -31.5910 C   0  0  0  0  0  0  0  0  0  0  0  0
   -5.7840   21.3680  -31.3410 C   0  0  0  0  0  0  0  0  0  0  0  0
   -4.9210   22.1880  -30.7010 N   0  0  0  0  0  0  0  0  0  0  0  0
   -3.6650   21.8150  -30.1100 C   0  0  0  0  0  0  0  0  0  0  0  0
   -3.3990   20.6030  -29.9000 O   0  0  0  0  0  0  0  0  0  0  0  0
   -2.6980   22.8190  -29.7550 C   0  0  0  0  0  0  0  0  0  0  0  0
   -1.8900   23.6640  -29.4610 C   0  0  0  0  0  0  0  0  0  0  0  0
   -0.9330   24.6750  -29.1140 C   0  0  0  0  0  0  0  0  0  0  0  0
    0.1740   24.3480  -28.6140 O   0  0  0  0  0  0  0  0  0  0  0  0
   -1.2300   26.0140  -29.3280 O   0  0  0  0  0  0  0  0  0  0  0  0
   -2.9230   25.2900  -30.5260 H   0  0  0  0  0  0  0  0  0  0  0  0
   -7.4970   24.1749  -31.4000 H   0  0  0  0  0  0  0  0  0  0  0  0
   -8.8766   22.0003  -32.6403 H   0  0  0  0  0  0  0  0  0  0  0  0
   -8.6930   19.5442  -33.1495 H   0  0  0  0  0  0  0  0  0  0  0  0
   -4.7661   19.4436  -31.2603 H   0  0  0  0  0  0  0  0  0  0  0  0
  1  2  1  0
  2  3  2  0
  2  4  1  0
  4  5  2  0
  5  6  1  0
  6  7  2  0
  7  8  1  0
  8  9  2  0
  9 10  1  0
 10 11  1  0
 10 12  1  0
 10 13  1  0
  9 14  1  0
 14 15  2  0
 15 16  1  0
 16 17  1  0
 17 18  2  0
 17 19  1  0
 19 20  3  0
 20 21  1  0
 21 22  2  0
 21 23  1  0
 16  4  1  0
 15  6  1  0
  1 24  1  0
  5 25  1  0
  7 26  1  0
  8 27  1  0
 14 28  1  0
M  CHG  2   1  -1  23  -1
M  END
>  <UniqueID>  (57) 
57

>  <SMILES>  (57) 
[NH-]C(=O)c1cc2ccc(C(F)(F)F)cc2n1C(=O)C#CC(=O)[O-]

>  <Energy>  (57) 
64.65417876355419

>  <Genealogy>  (57) 
[NH-]C(=O)c1cc2ccc(C(F)(F)F)cc2n1C(=O)C#CC(=O)[O-] (protonated)
[NH-]C(=O)c1cc2ccc(C(F)(F)F)cc2n1C(=O)C#CC(=O)[O-] (3D coordinates assigned)
[NH-]C(=O)c1cc2ccc(C(F)(F)F)cc2n1C(=O)C#CC(=O)[O-] (optimized conformer: 64.65417876355419 kcal/mol)

>  <smiles>  (57) 
NC(=O)c1cc2ccc(C(F)(F)F)cc2n1C(=O)C#CC(=O)O

>  <score_type>  (57) 
oracle

>  <origin>  (57) 
adg

>  <m_score__min__energy>  (57) 
-11.880000000000001

>  <m_primary>  (57) 
energy

$$$$
57:0
     RDKit          3D

 32 34  0  0  0  0  0  0  0  0999 V2000
   -2.9510   22.6520  -29.1950 C   0  0  0  0  0  0  0  0  0  0  0  0
   -2.9740   23.2020  -30.5060 O   0  0  0  0  0  0  0  0  0  0  0  0
   -3.7780   22.6860  -31.5280 C   0  0  0  0  0  0  0  0  0  0  0  0
   -3.2490   22.2010  -32.5660 O   0  0  0  0  0  0  0  0  0  0  0  0
   -5.2080   22.7090  -31.3950 N   0  0  0  0  0  0  0  0  0  0  0  0
   -5.9840   23.7430  -30.9600 C   0  0  0  0  0  0  0  0  0  0  0  0
   -5.4940   25.0090  -30.3800 C   0  0  0  0  0  0  0  0  0  0  0  0
   -4.1900   25.5070  -30.6840 N   0  0  0  0  0  0  0  0  0  0  0  0
   -6.2180   25.6340  -29.5600 O   0  0  0  0  0  0  0  0  0  0  0  0
   -7.3340   23.4310  -31.0870 C   0  0  0  0  0  0  0  0  0  0  0  0
   -7.3660   22.1570  -31.6060 C   0  0  0  0  0  0  0  0  0  0  0  0
   -8.4520   21.3600  -31.9490 C   0  0  0  0  0  0  0  0  0  0  0  0
   -8.1930   20.0960  -32.5040 C   0  0  0  0  0  0  0  0  0  0  0  0
   -6.8620   19.6550  -32.7170 C   0  0  0  0  0  0  0  0  0  0  0  0
   -6.6260   18.3230  -33.3180 C   0  0  0  0  0  0  0  0  0  0  0  0
   -5.7420   17.9860  -34.3240 C   0  0  0  0  0  0  0  0  0  0  0  0
   -5.8430   16.6670  -34.5690 N   0  0  0  0  0  0  0  0  0  0  0  0
   -6.7890   16.2520  -33.7010 C   0  0  0  0  0  0  0  0  0  0  0  0
   -7.2540   17.2300  -32.9580 O   0  0  0  0  0  0  0  0  0  0  0  0
   -5.7820   20.4990  -32.3580 C   0  0  0  0  0  0  0  0  0  0  0  0
   -6.0700   21.7440  -31.7850 C   0  0  0  0  0  0  0  0  0  0  0  0
   -2.9850   23.4656  -28.4554 H   0  0  0  0  0  0  0  0  0  0  0  0
   -3.8225   21.9950  -29.0577 H   0  0  0  0  0  0  0  0  0  0  0  0
   -2.0277   22.0700  -29.0577 H   0  0  0  0  0  0  0  0  0  0  0  0
   -3.8760   26.4250  -30.2960 H   0  0  0  0  0  0  0  0  0  0  0  0
   -3.5040   24.9300  -31.2190 H   0  0  0  0  0  0  0  0  0  0  0  0
   -8.1929   24.0674  -30.8277 H   0  0  0  0  0  0  0  0  0  0  0  0
   -9.4832   21.7087  -31.7905 H   0  0  0  0  0  0  0  0  0  0  0  0
   -9.0328   19.4401  -32.7768 H   0  0  0  0  0  0  0  0  0  0  0  0
   -5.0655   18.6826  -34.8408 H   0  0  0  0  0  0  0  0  0  0  0  0
   -7.1327   15.2099  -33.6242 H   0  0  0  0  0  0  0  0  0  0  0  0
   -4.7416   20.1837  -32.5255 H   0  0  0  0  0  0  0  0  0  0  0  0
  1  2  1  0
  2  3  1  0
  3  4  2  0
  3  5  1  0
  5  6  1  0
  6  7  1  0
  7  8  1  0
  7  9  2  0
  6 10  2  0
 10 11  1  0
 11 12  2  0
 12 13  1  0
 13 14  2  0
 14 15  1  0
 15 16  2  0
 16 17  1  0
 17 18  2  0
 18 19  1  0
 14 20  1  0
 20 21  2  0
 21  5  1  0
 21 11  1  0
 19 15  1  0
  1 22  1  0
  1 23  1  0
  1 24  1  0
  8 25  1  0
  8 26  1  0
 10 27  1  0
 12 28  1  0
 13 29  1  0
 16 30  1  0
 18 31  1  0
 20 32  1  0
M  END
>  <UniqueID>  (58) 
58

>  <SMILES>  (58) 
COC(=O)n1c(C(N)=O)cc2ccc(-c3cnco3)cc21

>  <Energy>  (58) 
102.48462356543378

>  <Genealogy>  (58) 
COC(=O)n1c(C(N)=O)cc2ccc(-c3cnco3)cc21 (3D coordinates assigned)
COC(=O)n1c(C(N)=O)cc2ccc(-c3cnco3)cc21 (optimized conformer: 102.48462356543378 kcal/mol)

>  <smiles>  (58) 
COC(=O)n1c(C(N)=O)cc2ccc(-c3cnco3)cc21

>  <score_type>  (58) 
oracle

>  <origin>  (58) 
adg

>  <m_score__min__energy>  (58) 
-7.9199999999999999

>  <m_primary>  (58) 
energy

$$$$
58:0
     RDKit          3D

 35 36  0  0  0  0  0  0  0  0999 V2000
   -5.7850   18.3280  -34.1840 C   0  0  0  0  0  0  0  0  0  0  0  0
   -6.8200   18.3660  -33.0580 C   0  0  1  0  0  0  0  0  0  0  0  0
   -6.3920   17.5140  -31.9370 C   0  0  0  0  0  0  0  0  0  0  0  0
   -6.0550   16.8440  -31.0560 N   0  0  0  0  0  0  0  0  0  0  0  0
   -7.0570   19.7850  -32.5860 C   0  0  0  0  0  0  0  0  0  0  0  0
   -8.3700   20.3300  -32.5520 C   0  0  0  0  0  0  0  0  0  0  0  0
   -8.5920   21.6440  -32.1120 C   0  0  0  0  0  0  0  0  0  0  0  0
   -7.4910   22.3870  -31.6970 C   0  0  0  0  0  0  0  0  0  0  0  0
   -7.4220   23.6890  -31.2580 C   0  0  0  0  0  0  0  0  0  0  0  0
   -6.0750   23.9150  -30.9930 C   0  0  0  0  0  0  0  0  0  0  0  0
   -5.5580   25.1830  -30.4390 C   0  0  0  0  0  0  0  0  0  0  0  0
   -4.2010   25.5810  -30.6420 N   0  0  0  0  0  0  0  0  0  0  0  0
   -6.3120   25.9000  -29.7290 O   0  0  0  0  0  0  0  0  0  0  0  0
   -5.3350   22.8040  -31.2700 N   0  0  0  0  0  0  0  0  0  0  0  0
   -3.9030   22.6860  -31.2390 C   0  0  0  0  0  0  0  0  0  0  0  0
   -3.2740   22.3320  -32.2730 O   0  0  0  0  0  0  0  0  0  0  0  0
   -3.2110   22.9650  -30.0560 O   0  0  0  0  0  0  0  0  0  0  0  0
   -1.7910   23.0360  -29.9950 C   0  0  0  0  0  0  0  0  0  0  0  0
   -1.3920   24.3350  -29.3790 C   0  0  0  0  0  0  0  0  0  0  0  0
   -2.2010   25.2990  -29.3600 O   0  0  0  0  0  0  0  0  0  0  0  0
   -0.1090   24.5020  -28.8750 O   0  0  0  0  0  0  0  0  0  0  0  0
   -6.2200   21.8740  -31.6980 C   0  0  0  0  0  0  0  0  0  0  0  0
   -5.9660   20.5740  -32.1530 C   0  0  0  0  0  0  0  0  0  0  0  0
   -4.7742   18.2909  -33.7518 H   0  0  0  0  0  0  0  0  0  0  0  0
   -5.9513   17.4354  -34.8049 H   0  0  0  0  0  0  0  0  0  0  0  0
   -5.8854   19.2304  -34.8049 H   0  0  0  0  0  0  0  0  0  0  0  0
   -7.7694   17.9756  -33.4532 H   0  0  0  0  0  0  0  0  0  0  0  0
   -9.2223   19.7140  -32.8746 H   0  0  0  0  0  0  0  0  0  0  0  0
   -9.6047   22.0732  -32.0957 H   0  0  0  0  0  0  0  0  0  0  0  0
   -8.2538   24.3993  -31.1415 H   0  0  0  0  0  0  0  0  0  0  0  0
   -3.5090   24.9350  -31.0820 H   0  0  0  0  0  0  0  0  0  0  0  0
   -3.8660   26.5020  -30.2810 H   0  0  0  0  0  0  0  0  0  0  0  0
   -1.4068   22.2056  -29.3844 H   0  0  0  0  0  0  0  0  0  0  0  0
   -1.3729   22.9638  -31.0099 H   0  0  0  0  0  0  0  0  0  0  0  0
   -4.9409   20.1755  -32.1731 H   0  0  0  0  0  0  0  0  0  0  0  0
  1  2  1  0
  2  3  1  0
  3  4  3  0
  2  5  1  0
  5  6  2  0
  6  7  1  0
  7  8  2  0
  8  9  1  0
  9 10  2  0
 10 11  1  0
 11 12  1  0
 11 13  2  0
 10 14  1  0
 14 15  1  0
 15 16  2  0
 15 17  1  0
 17 18  1  0
 18 19  1  0
 19 20  2  0
 19 21  1  0
 14 22  1  0
 22 23  2  0
 23  5  1  0
 22  8  1  0
  1 24  1  0
  1 25  1  0
  1 26  1  0
  2 27  1  6
  6 28  1  0
  7 29  1  0
  9 30  1  0
 12 31  1  0
 12 32  1  0
 18 33  1  0
 18 34  1  0
 23 35  1  0
M  CHG  1  21  -1
M  END
>  <UniqueID>  (59) 
59

>  <SMILES>  (59) 
C[C@@H](C#N)c1ccc2cc(C(N)=O)n(C(=O)OCC(=O)[O-])c2c1

>  <Energy>  (59) 
68.56445498747789

>  <Genealogy>  (59) 
CC(C#N)c1ccc2cc(C(N)=O)n(C(=O)OCC(=O)[O-])c2c1 (protonated)
C[C@@H](C#N)c1ccc2cc(C(N)=O)n(C(=O)OCC(=O)[O-])c2c1 (chirality)
C[C@@H](C#N)c1ccc2cc(C(N)=O)n(C(=O)OCC(=O)[O-])c2c1 (3D coordinates assigned)
C[C@@H](C#N)c1ccc2cc(C(N)=O)n(C(=O)OCC(=O)[O-])c2c1 (optimized conformer: 68.56445498747789 kcal/mol)

>  <smiles>  (59) 
CC(C#N)c1ccc2cc(C(N)=O)n(C(=O)OCC(=O)O)c2c1

>  <score_type>  (59) 
oracle

>  <origin>  (59) 
adg

>  <m_score__min__energy>  (59) 
-11.140000000000001

>  <m_primary>  (59) 
energy

$$$$
59:0
     RDKit          3D

 35 36  0  0  0  0  0  0  0  0999 V2000
   -5.7510   18.5400  -34.2500 C   0  0  0  0  0  0  0  0  0  0  0  0
   -6.7920   18.5310  -33.1340 C   0  0  0  0  0  0  0  0  0  0  0  0
   -6.9610   19.9100  -32.5550 C   0  0  0  0  0  0  0  0  0  0  0  0
   -8.2580   20.4360  -32.3360 C   0  0  0  0  0  0  0  0  0  0  0  0
   -8.4270   21.7280  -31.8110 C   0  0  0  0  0  0  0  0  0  0  0  0
   -7.2860   22.4740  -31.5330 C   0  0  0  0  0  0  0  0  0  0  0  0
   -7.1630   23.7360  -30.9980 C   0  0  0  0  0  0  0  0  0  0  0  0
   -5.7930   23.9770  -30.9320 C   0  0  0  0  0  0  0  0  0  0  0  0
   -5.2160   25.2610  -30.4860 C   0  0  0  0  0  0  0  0  0  0  0  0
   -3.9070   25.6550  -30.8860 N   0  0  0  0  0  0  0  0  0  0  0  0
   -5.9080   26.0440  -29.7810 O   0  0  0  0  0  0  0  0  0  0  0  0
   -5.0950   22.9040  -31.4010 N   0  0  0  0  0  0  0  0  0  0  0  0
   -3.6690   22.7230  -31.4070 C   0  0  0  0  0  0  0  0  0  0  0  0
   -3.1330   22.0160  -32.3030 O   0  0  0  0  0  0  0  0  0  0  0  0
   -2.8960   23.3160  -30.4000 O   0  0  0  0  0  0  0  0  0  0  0  0
   -3.0090   23.0430  -29.0300 C   0  0  0  0  0  0  0  0  0  0  0  0
   -3.6320   22.0290  -28.6140 O   0  0  0  0  0  0  0  0  0  0  0  0
   -2.4130   23.9980  -28.0490 C   0  0  0  0  0  0  0  0  0  0  0  0
   -1.3690   24.8300  -28.7180 C   0  0  0  0  0  0  0  0  0  0  0  0
   -1.5920   26.0410  -28.9740 O   0  0  0  0  0  0  0  0  0  0  0  0
   -0.1270   24.2820  -29.0130 O   0  0  0  0  0  0  0  0  0  0  0  0
   -6.0240   21.9930  -31.7660 C   0  0  0  0  0  0  0  0  0  0  0  0
   -5.8250   20.7010  -32.2700 C   0  0  0  0  0  0  0  0  0  0  0  0
   -4.7426   18.5487  -33.8107 H   0  0  0  0  0  0  0  0  0  0  0  0
   -5.8723   17.6408  -34.8718 H   0  0  0  0  0  0  0  0  0  0  0  0
   -5.8878   19.4370  -34.8718 H   0  0  0  0  0  0  0  0  0  0  0  0
   -7.7552   18.1894  -33.5410 H   0  0  0  0  0  0  0  0  0  0  0  0
   -6.4524   17.8518  -32.3382 H   0  0  0  0  0  0  0  0  0  0  0  0
   -9.1411   19.8270  -32.5793 H   0  0  0  0  0  0  0  0  0  0  0  0
   -9.4309   22.1374  -31.6253 H   0  0  0  0  0  0  0  0  0  0  0  0
   -7.9745   24.4110  -30.6883 H   0  0  0  0  0  0  0  0  0  0  0  0
   -3.0620   25.3010  -30.3850 H   0  0  0  0  0  0  0  0  0  0  0  0
   -3.2025   24.6533  -27.6524 H   0  0  0  0  0  0  0  0  0  0  0  0
   -1.9517   23.4311  -27.2269 H   0  0  0  0  0  0  0  0  0  0  0  0
   -4.8101   20.3121  -32.4396 H   0  0  0  0  0  0  0  0  0  0  0  0
  1  2  1  0
  2  3  1  0
  3  4  2  0
  4  5  1  0
  5  6  2  0
  6  7  1  0
  7  8  2  0
  8  9  1  0
  9 10  1  0
  9 11  2  0
  8 12  1  0
 12 13  1  0
 13 14  2  0
 13 15  1  0
 15 16  1  0
 16 17  2  0
 16 18  1  0
 18 19  1  0
 19 20  2  0
 19 21  1  0
 12 22  1  0
 22 23  2  0
 23  3  1  0
 22  6  1  0
  1 24  1  0
  1 25  1  0
  1 26  1  0
  2 27  1  0
  2 28  1  0
  4 29  1  0
  5 30  1  0
  7 31  1  0
 10 32  1  0
 18 33  1  0
 18 34  1  0
 23 35  1  0
M  CHG  2  10  -1  21  -1
M  END
>  <UniqueID>  (60) 
60

>  <SMILES>  (60) 
CCc1ccc2cc(C([NH-])=O)n(C(=O)OC(=O)CC(=O)[O-])c2c1

>  <Energy>  (60) 
69.51070090172963

>  <Genealogy>  (60) 
CCc1ccc2cc(C([NH-])=O)n(C(=O)OC(=O)CC(=O)[O-])c2c1 (protonated)
CCc1ccc2cc(C([NH-])=O)n(C(=O)OC(=O)CC(=O)[O-])c2c1 (3D coordinates assigned)
CCc1ccc2cc(C([NH-])=O)n(C(=O)OC(=O)CC(=O)[O-])c2c1 (optimized conformer: 69.51070090172963 kcal/mol)

>  <smiles>  (60) 
CCc1ccc2cc(C(N)=O)n(C(=O)OC(=O)CC(=O)O)c2c1

>  <score_type>  (60) 
oracle

>  <origin>  (60) 
adg

>  <m_score__min__energy>  (60) 
-12.609999999999999

>  <m_primary>  (60) 
energy

$$$$
60:0
     RDKit          3D

 35 37  0  0  0  0  0  0  0  0999 V2000
   -1.6930   25.6740  -28.9590 N   0  0  0  0  0  0  0  0  0  0  0  0
   -1.4340   24.2770  -28.8470 C   0  0  0  0  0  0  0  0  0  0  0  0
   -0.8470   23.8370  -27.8220 O   0  0  0  0  0  0  0  0  0  0  0  0
   -1.8960   23.3340  -29.8860 C   0  0  0  0  0  0  0  0  0  0  0  0
   -1.1520   22.2320  -30.3040 C   0  0  0  0  0  0  0  0  0  0  0  0
   -1.9580   21.5650  -31.1970 C   0  0  0  0  0  0  0  0  0  0  0  0
   -1.7180   20.4020  -31.9230 C   0  0  0  0  0  0  0  0  0  0  0  0
   -2.7230   19.9500  -32.7930 C   0  0  0  0  0  0  0  0  0  0  0  0
   -3.9390   20.6690  -32.9330 C   0  0  0  0  0  0  0  0  0  0  0  0
   -4.9760   20.1800  -33.8120 N   0  0  0  0  0  0  0  0  0  0  0  0
   -5.8830   19.2580  -33.1090 C   0  0  0  0  0  0  0  0  0  0  0  0
   -7.0440   19.9850  -32.4860 C   0  0  0  0  0  0  0  0  0  0  0  0
   -8.0310   19.2930  -31.7710 C   0  0  0  0  0  0  0  0  0  0  0  0
   -9.0410   19.9870  -31.1830 N   0  0  0  0  0  0  0  0  0  0  0  0
   -9.1110   21.3410  -31.2720 C   0  0  0  0  0  0  0  0  0  0  0  0
   -8.1250   22.0340  -31.9770 C   0  0  0  0  0  0  0  0  0  0  0  0
   -7.1140   21.3420  -32.5650 N   0  0  0  0  0  0  0  0  0  0  0  0
   -4.1460   21.8440  -32.1750 C   0  0  0  0  0  0  0  0  0  0  0  0
   -3.1340   22.2610  -31.3020 C   0  0  0  0  0  0  0  0  0  0  0  0
   -3.1110   23.3530  -30.5040 N   0  0  0  0  0  0  0  0  0  0  0  0
   -4.1250   24.3680  -30.4160 C   0  0  0  0  0  0  0  0  0  0  0  0
   -5.2830   24.0770  -30.0140 O   0  0  0  0  0  0  0  0  0  0  0  0
   -3.8450   25.6730  -30.7980 O   0  0  0  0  0  0  0  0  0  0  0  0
   -2.6710   26.0400  -28.9700 H   0  0  0  0  0  0  0  0  0  0  0  0
   -0.1359   21.9546  -29.9870 H   0  0  0  0  0  0  0  0  0  0  0  0
   -0.7701   19.8538  -31.8184 H   0  0  0  0  0  0  0  0  0  0  0  0
   -2.5664   19.0283  -33.3727 H   0  0  0  0  0  0  0  0  0  0  0  0
   -4.5580   19.7050  -34.6460 H   0  0  0  0  0  0  0  0  0  0  0  0
   -5.5330   20.9920  -34.1670 H   0  0  0  0  0  0  0  0  0  0  0  0
   -6.2689   18.5204  -33.8281 H   0  0  0  0  0  0  0  0  0  0  0  0
   -5.3157   18.7661  -32.3051 H   0  0  0  0  0  0  0  0  0  0  0  0
   -7.9886   18.1971  -31.6864 H   0  0  0  0  0  0  0  0  0  0  0  0
   -9.9373   21.8865  -30.7928 H   0  0  0  0  0  0  0  0  0  0  0  0
   -8.1662   23.1304  -32.0558 H   0  0  0  0  0  0  0  0  0  0  0  0
   -5.0801   22.4172  -32.2688 H   0  0  0  0  0  0  0  0  0  0  0  0
  1  2  1  0
  2  3  2  0
  2  4  1  0
  4  5  2  0
  5  6  1  0
  6  7  2  0
  7  8  1  0
  8  9  2  0
  9 10  1  0
 10 11  1  0
 11 12  1  0
 12 13  2  0
 13 14  1  0
 14 15  2  0
 15 16  1  0
 16 17  2  0
  9 18  1  0
 18 19  2  0
 19 20  1  0
 20 21  1  0
 21 22  2  0
 21 23  1  0
 20  4  1  0
 19  6  1  0
 17 12  1  0
  1 24  1  0
  5 25  1  0
  7 26  1  0
  8 27  1  0
 10 28  1  0
 10 29  1  0
 11 30  1  0
 11 31  1  0
 13 32  1  0
 15 33  1  0
 16 34  1  0
 18 35  1  0
M  CHG  3   1  -1  10   1  23  -1
M  END
>  <UniqueID>  (61) 
61

>  <SMILES>  (61) 
[NH-]C(=O)c1cc2ccc([NH2+]Cc3cnccn3)cc2n1C(=O)[O-]

>  <Energy>  (61) 
79.55495984471376

>  <Genealogy>  (61) 
[NH-]C(=O)c1cc2ccc([NH2+]Cc3cnccn3)cc2n1C(=O)[O-] (protonated)
[NH-]C(=O)c1cc2ccc([NH2+]Cc3cnccn3)cc2n1C(=O)[O-] (3D coordinates assigned)
[NH-]C(=O)c1cc2ccc([NH2+]Cc3cnccn3)cc2n1C(=O)[O-] (optimized conformer: 79.55495984471376 kcal/mol)

>  <smiles>  (61) 
NC(=O)c1cc2ccc(NCc3cnccn3)cc2n1C(=O)O

>  <score_type>  (61) 
oracle

>  <origin>  (61) 
adg

>  <m_score__min__energy>  (61) 
-10.539999999999999

>  <m_primary>  (61) 
energy

$$$$
61:0
     RDKit          3D

 45 46  0  0  0  0  0  0  0  0999 V2000
   -0.5590   21.1420  -33.9490 C   0  0  0  0  0  0  0  0  0  0  0  0
   -1.1430   20.8420  -32.5630 C   0  0  1  0  0  0  0  0  0  0  0  0
   -0.7120   21.8000  -31.6300 O   0  0  0  0  0  0  0  0  0  0  0  0
   -2.6790   20.7640  -32.6120 C   0  0  0  0  0  0  0  0  0  0  0  0
   -3.2470   22.0730  -32.6470 O   0  0  0  0  0  0  0  0  0  0  0  0
   -3.7540   22.7320  -31.5210 C   0  0  0  0  0  0  0  0  0  0  0  0
   -2.9740   23.1670  -30.6310 O   0  0  0  0  0  0  0  0  0  0  0  0
   -5.1720   22.8990  -31.3730 N   0  0  0  0  0  0  0  0  0  0  0  0
   -5.8440   24.0210  -30.9910 C   0  0  0  0  0  0  0  0  0  0  0  0
   -5.2350   25.2650  -30.4760 C   0  0  0  0  0  0  0  0  0  0  0  0
   -3.9090   25.6380  -30.8430 N   0  0  0  0  0  0  0  0  0  0  0  0
   -5.8760   25.9840  -29.6640 O   0  0  0  0  0  0  0  0  0  0  0  0
   -7.2210   23.8190  -31.0770 C   0  0  0  0  0  0  0  0  0  0  0  0
   -7.3730   22.5250  -31.5190 C   0  0  0  0  0  0  0  0  0  0  0  0
   -8.5310   21.8020  -31.7960 C   0  0  0  0  0  0  0  0  0  0  0  0
   -8.3880   20.4890  -32.2760 C   0  0  0  0  0  0  0  0  0  0  0  0
   -7.1020   19.9360  -32.4760 C   0  0  0  0  0  0  0  0  0  0  0  0
   -6.9670   18.5980  -32.9840 C   0  0  0  0  0  0  0  0  0  0  0  0
   -6.8410   17.4770  -33.4100 C   0  0  0  0  0  0  0  0  0  0  0  0
   -6.6730   16.1080  -33.9320 C   0  0  0  0  0  0  0  0  0  0  0  0
   -5.2550   15.7200  -34.0940 N   0  0  0  0  0  0  0  0  0  0  0  0
   -4.6870   15.1630  -32.8560 C   0  0  0  0  0  0  0  0  0  0  0  0
   -4.4300   16.8320  -34.5960 C   0  0  0  0  0  0  0  0  0  0  0  0
   -5.9500   20.6930  -32.1860 C   0  0  0  0  0  0  0  0  0  0  0  0
   -6.1210   21.9910  -31.6910 C   0  0  0  0  0  0  0  0  0  0  0  0
    0.4143   21.6420  -33.8364 H   0  0  0  0  0  0  0  0  0  0  0  0
   -0.4258   20.2007  -34.5024 H   0  0  0  0  0  0  0  0  0  0  0  0
   -1.2466   21.7985  -34.5024 H   0  0  0  0  0  0  0  0  0  0  0  0
   -0.7732   19.8577  -32.2398 H   0  0  0  0  0  0  0  0  0  0  0  0
   -1.4530   22.4510  -31.5050 H   0  0  0  0  0  0  0  0  0  0  0  0
   -2.9845   20.2130  -33.5137 H   0  0  0  0  0  0  0  0  0  0  0  0
   -3.0370   20.2458  -31.7102 H   0  0  0  0  0  0  0  0  0  0  0  0
   -3.0850   25.2860  -30.3070 H   0  0  0  0  0  0  0  0  0  0  0  0
   -8.0168   24.5410  -30.8415 H   0  0  0  0  0  0  0  0  0  0  0  0
   -9.5263   22.2450  -31.6438 H   0  0  0  0  0  0  0  0  0  0  0  0
   -9.2820   19.8876  -32.4975 H   0  0  0  0  0  0  0  0  0  0  0  0
   -7.1507   15.4056  -33.2332 H   0  0  0  0  0  0  0  0  0  0  0  0
   -7.1380   16.0770  -34.9284 H   0  0  0  0  0  0  0  0  0  0  0  0
   -5.1684   15.6351  -31.9869 H   0  0  0  0  0  0  0  0  0  0  0  0
   -4.8628   14.0775  -32.8279 H   0  0  0  0  0  0  0  0  0  0  0  0
   -3.6052   15.3600  -32.8279 H   0  0  0  0  0  0  0  0  0  0  0  0
   -4.0140   17.3927  -33.7460 H   0  0  0  0  0  0  0  0  0  0  0  0
   -3.6086   16.4318  -35.2085 H   0  0  0  0  0  0  0  0  0  0  0  0
   -5.0512   17.5020  -35.2085 H   0  0  0  0  0  0  0  0  0  0  0  0
   -4.9445   20.2759  -32.3441 H   0  0  0  0  0  0  0  0  0  0  0  0
  1  2  1  0
  2  3  1  0
  2  4  1  0
  4  5  1  0
  5  6  1  0
  6  7  2  0
  6  8  1  0
  8  9  1  0
  9 10  1  0
 10 11  1  0
 10 12  2  0
  9 13  2  0
 13 14  1  0
 14 15  2  0
 15 16  1  0
 16 17  2  0
 17 18  1  0
 18 19  3  0
 19 20  1  0
 20 21  1  0
 21 22  1  0
 21 23  1  0
 17 24  1  0
 24 25  2  0
 25  8  1  0
 25 14  1  0
  1 26  1  0
  1 27  1  0
  1 28  1  0
  2 29  1  1
  3 30  1  0
  4 31  1  0
  4 32  1  0
 11 33  1  0
 13 34  1  0
 15 35  1  0
 16 36  1  0
 20 37  1  0
 20 38  1  0
 22 39  1  0
 22 40  1  0
 22 41  1  0
 23 42  1  0
 23 43  1  0
 23 44  1  0
 24 45  1  0
M  CHG  1  11  -1
M  END
>  <UniqueID>  (62) 
62

>  <SMILES>  (62) 
C[C@@H](O)COC(=O)n1c(C([NH-])=O)cc2ccc(C#CCN(C)C)cc21

>  <Energy>  (62) 
77.29698664615

>  <Genealogy>  (62) 
C[C@@H](O)COC(=O)n1c(C([NH-])=O)cc2ccc(C#CCN(C)C)cc21 (protonated)
C[C@@H](O)COC(=O)n1c(C([NH-])=O)cc2ccc(C#CCN(C)C)cc21 (3D coordinates assigned)
C[C@@H](O)COC(=O)n1c(C([NH-])=O)cc2ccc(C#CCN(C)C)cc21 (optimized conformer: 77.29698664615 kcal/mol)

>  <smiles>  (62) 
C[C@@H](O)COC(=O)n1c(C(N)=O)cc2ccc(C#CCN(C)C)cc21

>  <score_type>  (62) 
oracle

>  <origin>  (62) 
adg

>  <m_score__min__energy>  (62) 
-10.779999999999999

>  <m_primary>  (62) 
energy

$$$$
62:0
     RDKit          3D

 40 41  0  0  0  0  0  0  0  0999 V2000
   -1.6120   22.5790  -30.3530 C   0  0  0  0  0  0  0  0  0  0  0  0
   -2.9240   23.1020  -30.5230 O   0  0  0  0  0  0  0  0  0  0  0  0
   -3.7850   22.6660  -31.5360 C   0  0  0  0  0  0  0  0  0  0  0  0
   -3.3220   22.0950  -32.5610 O   0  0  0  0  0  0  0  0  0  0  0  0
   -5.2020   22.8490  -31.3940 N   0  0  0  0  0  0  0  0  0  0  0  0
   -5.8640   23.9560  -30.9500 C   0  0  0  0  0  0  0  0  0  0  0  0
   -5.2460   25.1650  -30.3670 C   0  0  0  0  0  0  0  0  0  0  0  0
   -3.9730   25.6260  -30.8120 N   0  0  0  0  0  0  0  0  0  0  0  0
   -5.8280   25.7730  -29.4300 O   0  0  0  0  0  0  0  0  0  0  0  0
   -7.2420   23.7680  -31.0370 C   0  0  0  0  0  0  0  0  0  0  0  0
   -7.4050   22.4980  -31.5420 C   0  0  0  0  0  0  0  0  0  0  0  0
   -8.5710   21.7940  -31.8320 C   0  0  0  0  0  0  0  0  0  0  0  0
   -8.4430   20.5000  -32.3620 C   0  0  0  0  0  0  0  0  0  0  0  0
   -7.1620   19.9440  -32.6060 C   0  0  0  0  0  0  0  0  0  0  0  0
   -7.0330   18.5420  -33.1370 C   0  0  0  0  0  0  0  0  0  0  0  0
   -5.9200   18.4630  -34.1480 C   0  0  0  0  0  0  0  0  0  0  0  0
   -6.1130   18.8670  -35.2850 O   0  0  0  0  0  0  0  0  0  0  0  0
   -4.5730   17.8900  -33.7750 C   0  0  1  0  0  0  0  0  0  0  0  0
   -3.8560   17.6400  -34.9540 O   0  0  0  0  0  0  0  0  0  0  0  0
   -3.7720   18.8550  -32.8770 C   0  0  0  0  0  0  0  0  0  0  0  0
   -2.9990   19.8230  -33.6590 N   0  0  0  0  0  0  0  0  0  0  0  0
   -6.0020   20.6890  -32.3000 C   0  0  0  0  0  0  0  0  0  0  0  0
   -6.1600   21.9660  -31.7510 C   0  0  0  0  0  0  0  0  0  0  0  0
   -1.3890   22.4901  -29.2795 H   0  0  0  0  0  0  0  0  0  0  0  0
   -1.5488   21.5870  -30.8240 H   0  0  0  0  0  0  0  0  0  0  0  0
   -0.8837   23.2556  -30.8240 H   0  0  0  0  0  0  0  0  0  0  0  0
   -3.0910   25.2540  -30.3960 H   0  0  0  0  0  0  0  0  0  0  0  0
   -8.0315   24.4825  -30.7609 H   0  0  0  0  0  0  0  0  0  0  0  0
   -9.5612   22.2377  -31.6515 H   0  0  0  0  0  0  0  0  0  0  0  0
   -9.3447   19.9126  -32.5899 H   0  0  0  0  0  0  0  0  0  0  0  0
   -6.8149   17.8577  -32.3038 H   0  0  0  0  0  0  0  0  0  0  0  0
   -7.9774   18.2569  -33.6236 H   0  0  0  0  0  0  0  0  0  0  0  0
   -4.7291   16.9610  -33.2070 H   0  0  0  0  0  0  0  0  0  0  0  0
   -4.5220   17.5570  -35.6850 H   0  0  0  0  0  0  0  0  0  0  0  0
   -4.4735   19.4016  -32.2296 H   0  0  0  0  0  0  0  0  0  0  0  0
   -3.0645   18.2569  -32.2840 H   0  0  0  0  0  0  0  0  0  0  0  0
   -2.2570   20.2590  -33.0660 H   0  0  0  0  0  0  0  0  0  0  0  0
   -3.6290   20.5590  -34.0480 H   0  0  0  0  0  0  0  0  0  0  0  0
   -2.5410   19.3260  -34.4570 H   0  0  0  0  0  0  0  0  0  0  0  0
   -5.0001   20.2759  -32.4885 H   0  0  0  0  0  0  0  0  0  0  0  0
  1  2  1  0
  2  3  1  0
  3  4  2  0
  3  5  1  0
  5  6  1  0
  6  7  1  0
  7  8  1  0
  7  9  2  0
  6 10  2  0
 10 11  1  0
 11 12  2  0
 12 13  1  0
 13 14  2  0
 14 15  1  0
 15 16  1  0
 16 17  2  0
 16 18  1  0
 18 19  1  0
 18 20  1  0
 20 21  1  0
 14 22  1  0
 22 23  2  0
 23  5  1  0
 23 11  1  0
  1 24  1  0
  1 25  1  0
  1 26  1  0
  8 27  1  0
 10 28  1  0
 12 29  1  0
 13 30  1  0
 15 31  1  0
 15 32  1  0
 18 33  1  1
 19 34  1  0
 20 35  1  0
 20 36  1  0
 21 37  1  0
 21 38  1  0
 21 39  1  0
 22 40  1  0
M  CHG  2   8  -1  21   1
M  END
>  <UniqueID>  (63) 
63

>  <SMILES>  (63) 
COC(=O)n1c(C([NH-])=O)cc2ccc(CC(=O)[C@@H](O)C[NH3+])cc21

>  <Energy>  (63) 
70.05872341720186

>  <Genealogy>  (63) 
COC(=O)n1c(C([NH-])=O)cc2ccc(CC(=O)C(O)C[NH3+])cc21 (protonated)
COC(=O)n1c(C([NH-])=O)cc2ccc(CC(=O)[C@@H](O)C[NH3+])cc21 (chirality)
COC(=O)n1c(C([NH-])=O)cc2ccc(CC(=O)[C@@H](O)C[NH3+])cc21 (3D coordinates assigned)
COC(=O)n1c(C([NH-])=O)cc2ccc(CC(=O)[C@@H](O)C[NH3+])cc21 (optimized conformer: 70.05872341720186 kcal/mol)

>  <smiles>  (63) 
COC(=O)n1c(C(N)=O)cc2ccc(CC(=O)C(O)CN)cc21

>  <score_type>  (63) 
oracle

>  <origin>  (63) 
adg

>  <m_score__min__energy>  (63) 
-8.5

>  <m_primary>  (63) 
energy

$$$$
63:0
     RDKit          3D

 52 56  0  0  0  0  0  0  0  0999 V2000
   -0.3910   23.9380  -24.7990 N   0  0  0  0  0  0  0  0  0  0  0  0
    0.4980   23.4790  -25.8180 C   0  0  0  0  0  0  0  0  0  0  0  0
    1.7330   23.6930  -25.6950 O   0  0  0  0  0  0  0  0  0  0  0  0
   -0.0180   22.7800  -27.0170 C   0  0  0  0  0  0  0  0  0  0  0  0
    0.4680   21.5590  -27.4840 C   0  0  0  0  0  0  0  0  0  0  0  0
   -0.3460   21.2210  -28.5420 C   0  0  0  0  0  0  0  0  0  0  0  0
   -0.3220   20.1060  -29.3750 C   0  0  0  0  0  0  0  0  0  0  0  0
   -1.2870   20.0240  -30.3940 C   0  0  0  0  0  0  0  0  0  0  0  0
   -2.2460   21.0520  -30.5590 C   0  0  0  0  0  0  0  0  0  0  0  0
   -3.2210   20.9580  -31.5980 N   0  0  0  0  0  0  0  0  0  0  0  0
   -3.7490   19.9210  -32.5070 C   0  0  0  0  0  0  0  0  0  0  0  0
   -4.7580   20.8090  -33.1810 C   0  0  0  0  0  0  0  0  0  0  0  0
   -6.1980   20.5310  -32.9280 N   0  0  0  0  0  0  0  0  0  0  0  0
   -6.4640   19.0740  -32.9830 C   0  0  0  0  0  0  0  0  0  0  0  0
   -7.9190   18.7010  -32.5950 C   0  0  0  0  0  0  0  0  0  0  0  0
   -8.8830   19.8880  -32.7010 C   0  0  0  0  0  0  0  0  0  0  0  0
   -8.3330   21.0660  -31.8840 C   0  0  0  0  0  0  0  0  0  0  0  0
   -9.1580   21.5570  -30.7020 C   0  0  0  0  0  0  0  0  0  0  0  0
   -9.1090   22.3730  -31.9890 C   0  0  0  0  0  0  0  0  0  0  0  0
   -6.8090   21.1520  -31.7330 C   0  0  0  0  0  0  0  0  0  0  0  0
   -4.1800   21.8540  -32.2760 C   0  0  0  0  0  0  0  0  0  0  0  0
   -2.2430   22.1670  -29.6970 C   0  0  0  0  0  0  0  0  0  0  0  0
   -1.2770   22.2160  -28.6870 C   0  0  0  0  0  0  0  0  0  0  0  0
   -1.0850   23.1820  -27.7640 N   0  0  0  0  0  0  0  0  0  0  0  0
   -1.8480   24.3920  -27.6370 C   0  0  0  0  0  0  0  0  0  0  0  0
   -2.4020   24.6660  -26.5400 O   0  0  0  0  0  0  0  0  0  0  0  0
   -2.0310   25.2960  -28.7840 C   0  0  0  0  0  0  0  0  0  0  0  0
   -1.2380   26.2550  -28.9720 O   0  0  0  0  0  0  0  0  0  0  0  0
   -3.0710   25.0820  -29.6790 O   0  0  0  0  0  0  0  0  0  0  0  0
   -1.4130   23.7270  -24.8300 H   0  0  0  0  0  0  0  0  0  0  0  0
   -0.0170   24.4610  -23.9760 H   0  0  0  0  0  0  0  0  0  0  0  0
    1.3211   20.9870  -27.0904 H   0  0  0  0  0  0  0  0  0  0  0  0
    0.4289   19.3135  -29.2401 H   0  0  0  0  0  0  0  0  0  0  0  0
   -1.2969   19.1547  -31.0680 H   0  0  0  0  0  0  0  0  0  0  0  0
   -2.9881   19.5369  -33.2023 H   0  0  0  0  0  0  0  0  0  0  0  0
   -4.1212   18.9924  -32.0496 H   0  0  0  0  0  0  0  0  0  0  0  0
   -4.8379   20.8806  -34.2758 H   0  0  0  0  0  0  0  0  0  0  0  0
   -6.2751   18.7230  -34.0083 H   0  0  0  0  0  0  0  0  0  0  0  0
   -5.7981   18.5933  -32.2512 H   0  0  0  0  0  0  0  0  0  0  0  0
   -8.2685   17.9029  -33.2665 H   0  0  0  0  0  0  0  0  0  0  0  0
   -7.9091   18.3742  -31.5447 H   0  0  0  0  0  0  0  0  0  0  0  0
   -8.9825   20.1870  -33.7549 H   0  0  0  0  0  0  0  0  0  0  0  0
   -9.8686   19.5971  -32.3087 H   0  0  0  0  0  0  0  0  0  0  0  0
  -10.0816   21.0306  -30.4194 H   0  0  0  0  0  0  0  0  0  0  0  0
   -8.9513   21.7638  -29.6416 H   0  0  0  0  0  0  0  0  0  0  0  0
   -9.9970   22.4352  -32.6351 H   0  0  0  0  0  0  0  0  0  0  0  0
   -8.8523   23.4122  -32.2422 H   0  0  0  0  0  0  0  0  0  0  0  0
   -6.4996   22.2050  -31.6595 H   0  0  0  0  0  0  0  0  0  0  0  0
   -6.4842   20.6294  -30.8212 H   0  0  0  0  0  0  0  0  0  0  0  0
   -3.6851   22.6671  -32.8274 H   0  0  0  0  0  0  0  0  0  0  0  0
   -4.8831   22.4107  -31.6390 H   0  0  0  0  0  0  0  0  0  0  0  0
   -2.9794   22.9755  -29.8153 H   0  0  0  0  0  0  0  0  0  0  0  0
  1  2  1  0
  2  3  2  0
  2  4  1  0
  4  5  2  0
  5  6  1  0
  6  7  2  0
  7  8  1  0
  8  9  2  0
  9 10  1  0
 10 11  1  0
 11 12  1  0
 12 13  1  0
 13 14  1  0
 14 15  1  0
 15 16  1  0
 16 17  1  0
 17 18  1  0
 18 19  1  0
 17 20  1  0
 12 21  1  0
  9 22  1  0
 22 23  2  0
 23 24  1  0
 24 25  1  0
 25 26  2  0
 25 27  1  0
 27 28  2  0
 27 29  1  0
 24  4  1  0
 23  6  1  0
 21 10  1  0
 20 13  1  0
 19 17  1  0
  1 30  1  0
  1 31  1  0
  5 32  1  0
  7 33  1  0
  8 34  1  0
 11 35  1  0
 11 36  1  0
 12 37  1  0
 14 38  1  0
 14 39  1  0
 15 40  1  0
 15 41  1  0
 16 42  1  0
 16 43  1  0
 18 44  1  0
 18 45  1  0
 19 46  1  0
 19 47  1  0
 20 48  1  0
 20 49  1  0
 21 50  1  0
 21 51  1  0
 22 52  1  0
M  CHG  1  29  -1
M  END
>  <UniqueID>  (64) 
64

>  <SMILES>  (64) 
NC(=O)c1cc2ccc(N3CC(N4CCCC5(CC5)C4)C3)cc2n1C(=O)C(=O)[O-]

>  <Energy>  (64) 
418.5239818060768

>  <Genealogy>  (64) 
NC(=O)c1cc2ccc(N3CC(N4CCCC5(CC5)C4)C3)cc2n1C(=O)C(=O)[O-] (protonated)
NC(=O)c1cc2ccc(N3CC(N4CCCC5(CC5)C4)C3)cc2n1C(=O)C(=O)[O-] (3D coordinates assigned)
NC(=O)c1cc2ccc(N3CC(N4CCCC5(CC5)C4)C3)cc2n1C(=O)C(=O)[O-] (nonaromatic ring conformer: 418.5239818060768 kcal/mol)

>  <smiles>  (64) 
NC(=O)c1cc2ccc(N3CC(N4CCCC5(CC5)C4)C3)cc2n1C(=O)C(=O)O

>  <score_type>  (64) 
oracle

>  <origin>  (64) 
adg

>  <m_score__min__energy>  (64) 
-11.699999999999999

>  <m_primary>  (64) 
energy

$$$$
64:0
     RDKit          3D

 31 32  0  0  0  0  0  0  0  0999 V2000
   -5.7290   16.6520  -31.8040 N   0  0  0  0  0  0  0  0  0  0  0  0
   -6.2290   17.4940  -32.4200 C   0  0  0  0  0  0  0  0  0  0  0  0
   -6.8350   18.5160  -33.1670 N   0  0  0  0  0  0  0  0  0  0  0  0
   -7.0350   19.8460  -32.6550 C   0  0  0  0  0  0  0  0  0  0  0  0
   -8.3520   20.3630  -32.5780 C   0  0  0  0  0  0  0  0  0  0  0  0
   -8.5890   21.6610  -32.0950 C   0  0  0  0  0  0  0  0  0  0  0  0
   -7.4940   22.4170  -31.6900 C   0  0  0  0  0  0  0  0  0  0  0  0
   -7.4390   23.7030  -31.2070 C   0  0  0  0  0  0  0  0  0  0  0  0
   -6.0870   23.9520  -30.9720 C   0  0  0  0  0  0  0  0  0  0  0  0
   -5.5700   25.1950  -30.3560 C   0  0  0  0  0  0  0  0  0  0  0  0
   -4.2090   25.5890  -30.5380 N   0  0  0  0  0  0  0  0  0  0  0  0
   -6.3390   25.9370  -29.6890 O   0  0  0  0  0  0  0  0  0  0  0  0
   -5.3370   22.8610  -31.3010 N   0  0  0  0  0  0  0  0  0  0  0  0
   -3.9070   22.7320  -31.2550 C   0  0  0  0  0  0  0  0  0  0  0  0
   -3.2730   22.3860  -32.2890 O   0  0  0  0  0  0  0  0  0  0  0  0
   -3.2240   22.9800  -30.0590 O   0  0  0  0  0  0  0  0  0  0  0  0
   -1.8030   23.0160  -29.9600 C   0  0  0  0  0  0  0  0  0  0  0  0
   -1.3550   24.3090  -29.3590 C   0  0  0  0  0  0  0  0  0  0  0  0
   -2.1350   25.2970  -29.3370 O   0  0  0  0  0  0  0  0  0  0  0  0
   -0.0690   24.4350  -28.8500 O   0  0  0  0  0  0  0  0  0  0  0  0
   -6.2130   21.9300  -31.7380 C   0  0  0  0  0  0  0  0  0  0  0  0
   -5.9460   20.6470  -32.2320 C   0  0  0  0  0  0  0  0  0  0  0  0
   -7.1550   18.2820  -34.1340 H   0  0  0  0  0  0  0  0  0  0  0  0
   -9.1996   19.7403  -32.9004 H   0  0  0  0  0  0  0  0  0  0  0  0
   -9.6098   22.0670  -32.0389 H   0  0  0  0  0  0  0  0  0  0  0  0
   -8.2822   24.3897  -31.0411 H   0  0  0  0  0  0  0  0  0  0  0  0
   -3.5280   24.9750  -31.0370 H   0  0  0  0  0  0  0  0  0  0  0  0
   -3.8650   26.4880  -30.1330 H   0  0  0  0  0  0  0  0  0  0  0  0
   -1.4627   22.1843  -29.3256 H   0  0  0  0  0  0  0  0  0  0  0  0
   -1.3727   22.9231  -30.9681 H   0  0  0  0  0  0  0  0  0  0  0  0
   -4.9143   20.2700  -32.2902 H   0  0  0  0  0  0  0  0  0  0  0  0
  1  2  3  0
  2  3  1  0
  3  4  1  0
  4  5  2  0
  5  6  1  0
  6  7  2  0
  7  8  1  0
  8  9  2  0
  9 10  1  0
 10 11  1  0
 10 12  2  0
  9 13  1  0
 13 14  1  0
 14 15  2  0
 14 16  1  0
 16 17  1  0
 17 18  1  0
 18 19  2  0
 18 20  1  0
 13 21  1  0
 21 22  2  0
 22  4  1  0
 21  7  1  0
  3 23  1  0
  5 24  1  0
  6 25  1  0
  8 26  1  0
 11 27  1  0
 11 28  1  0
 17 29  1  0
 17 30  1  0
 22 31  1  0
M  CHG  1  20  -1
M  END
>  <UniqueID>  (65) 
65

>  <SMILES>  (65) 
N#CNc1ccc2cc(C(N)=O)n(C(=O)OCC(=O)[O-])c2c1

>  <Energy>  (65) 
67.8451493032609

>  <Genealogy>  (65) 
N#CNc1ccc2cc(C(N)=O)n(C(=O)OCC(=O)[O-])c2c1 (protonated)
N#CNc1ccc2cc(C(N)=O)n(C(=O)OCC(=O)[O-])c2c1 (3D coordinates assigned)
N#CNc1ccc2cc(C(N)=O)n(C(=O)OCC(=O)[O-])c2c1 (optimized conformer: 67.8451493032609 kcal/mol)

>  <smiles>  (65) 
N#CNc1ccc2cc(C(N)=O)n(C(=O)OCC(=O)O)c2c1

>  <score_type>  (65) 
oracle

>  <origin>  (65) 
adg

>  <m_score__min__energy>  (65) 
-10.529999999999999

>  <m_primary>  (65) 
energy

$$$$
65:0
     RDKit          3D

 51 52  0  0  0  0  0  0  0  0999 V2000
   -3.2820   19.5790  -33.8330 C   0  0  0  0  0  0  0  0  0  0  0  0
   -4.0600   18.3320  -33.8120 N   0  0  0  0  0  0  0  0  0  0  0  0
   -3.1960   17.1990  -34.1830 C   0  0  0  0  0  0  0  0  0  0  0  0
   -5.2330   18.4210  -34.7100 C   0  0  0  0  0  0  0  0  0  0  0  0
   -6.4680   17.7850  -34.0560 C   0  0  0  0  0  0  0  0  0  0  0  0
   -6.5970   18.1830  -32.6420 N   0  0  0  0  0  0  0  0  0  0  0  0
   -6.4300   17.1430  -31.6190 C   0  0  0  0  0  0  0  0  0  0  0  0
   -6.8540   19.5610  -32.2450 C   0  0  0  0  0  0  0  0  0  0  0  0
   -8.1740   20.1000  -32.3080 C   0  0  0  0  0  0  0  0  0  0  0  0
   -8.4360   21.4310  -31.9440 C   0  0  0  0  0  0  0  0  0  0  0  0
   -7.3730   22.2100  -31.5080 C   0  0  0  0  0  0  0  0  0  0  0  0
   -7.3330   23.5390  -31.1470 C   0  0  0  0  0  0  0  0  0  0  0  0
   -5.9980   23.7970  -30.8420 C   0  0  0  0  0  0  0  0  0  0  0  0
   -5.4890   25.1250  -30.4390 C   0  0  0  0  0  0  0  0  0  0  0  0
   -4.1840   25.5720  -30.8140 N   0  0  0  0  0  0  0  0  0  0  0  0
   -6.2080   25.8670  -29.7190 O   0  0  0  0  0  0  0  0  0  0  0  0
   -5.2490   22.6710  -31.0010 N   0  0  0  0  0  0  0  0  0  0  0  0
   -3.8210   22.5570  -30.9370 C   0  0  0  0  0  0  0  0  0  0  0  0
   -3.1370   22.8600  -31.9500 O   0  0  0  0  0  0  0  0  0  0  0  0
   -3.1680   22.1190  -29.7270 N   0  0  0  0  0  0  0  0  0  0  0  0
   -2.7650   20.7160  -29.5990 C   0  0  0  0  0  0  0  0  0  0  0  0
   -2.8340   23.0690  -28.6560 C   0  0  0  0  0  0  0  0  0  0  0  0
   -1.9050   24.1320  -29.1550 C   0  0  0  0  0  0  0  0  0  0  0  0
   -2.3270   25.3000  -29.3610 O   0  0  0  0  0  0  0  0  0  0  0  0
   -0.5630   23.8410  -29.3630 O   0  0  0  0  0  0  0  0  0  0  0  0
   -6.1020   21.7150  -31.4210 C   0  0  0  0  0  0  0  0  0  0  0  0
   -5.8030   20.4050  -31.8020 C   0  0  0  0  0  0  0  0  0  0  0  0
   -3.0801   19.9026  -32.8013 H   0  0  0  0  0  0  0  0  0  0  0  0
   -2.3299   19.4084  -34.3567 H   0  0  0  0  0  0  0  0  0  0  0  0
   -3.8539   20.3592  -34.3567 H   0  0  0  0  0  0  0  0  0  0  0  0
   -2.8224   16.7090  -33.2718 H   0  0  0  0  0  0  0  0  0  0  0  0
   -3.7742   16.4761  -34.7772 H   0  0  0  0  0  0  0  0  0  0  0  0
   -2.3459   17.5654  -34.7772 H   0  0  0  0  0  0  0  0  0  0  0  0
   -5.4432   19.4790  -34.9253 H   0  0  0  0  0  0  0  0  0  0  0  0
   -5.0075   17.8791  -35.6403 H   0  0  0  0  0  0  0  0  0  0  0  0
   -7.3671   18.1076  -34.6014 H   0  0  0  0  0  0  0  0  0  0  0  0
   -6.3555   16.6916  -34.0975 H   0  0  0  0  0  0  0  0  0  0  0  0
   -6.5029   17.5967  -30.6196 H   0  0  0  0  0  0  0  0  0  0  0  0
   -7.2178   16.3842  -31.7355 H   0  0  0  0  0  0  0  0  0  0  0  0
   -5.4442   16.6690  -31.7355 H   0  0  0  0  0  0  0  0  0  0  0  0
   -9.0021   19.4608  -32.6482 H   0  0  0  0  0  0  0  0  0  0  0  0
   -9.4538   21.8440  -32.0027 H   0  0  0  0  0  0  0  0  0  0  0  0
   -8.1751   24.2456  -31.1079 H   0  0  0  0  0  0  0  0  0  0  0  0
   -3.8780   26.5410  -30.5740 H   0  0  0  0  0  0  0  0  0  0  0  0
   -3.4810   24.9190  -31.2210 H   0  0  0  0  0  0  0  0  0  0  0  0
   -2.6892   20.4520  -28.5338 H   0  0  0  0  0  0  0  0  0  0  0  0
   -3.5149   20.0734  -30.0835 H   0  0  0  0  0  0  0  0  0  0  0  0
   -1.7884   20.5694  -30.0835 H   0  0  0  0  0  0  0  0  0  0  0  0
   -3.7586   23.5407  -28.2918 H   0  0  0  0  0  0  0  0  0  0  0  0
   -2.3361   22.5207  -27.8426 H   0  0  0  0  0  0  0  0  0  0  0  0
   -4.7686   20.0333  -31.7593 H   0  0  0  0  0  0  0  0  0  0  0  0
  1  2  1  0
  2  3  1  0
  2  4  1  0
  4  5  1  0
  5  6  1  0
  6  7  1  0
  6  8  1  0
  8  9  2  0
  9 10  1  0
 10 11  2  0
 11 12  1  0
 12 13  2  0
 13 14  1  0
 14 15  1  0
 14 16  2  0
 13 17  1  0
 17 18  1  0
 18 19  2  0
 18 20  1  0
 20 21  1  0
 20 22  1  0
 22 23  1  0
 23 24  2  0
 23 25  1  0
 17 26  1  0
 26 27  2  0
 27  8  1  0
 26 11  1  0
  1 28  1  0
  1 29  1  0
  1 30  1  0
  3 31  1  0
  3 32  1  0
  3 33  1  0
  4 34  1  0
  4 35  1  0
  5 36  1  0
  5 37  1  0
  7 38  1  0
  7 39  1  0
  7 40  1  0
  9 41  1  0
 10 42  1  0
 12 43  1  0
 15 44  1  0
 15 45  1  0
 21 46  1  0
 21 47  1  0
 21 48  1  0
 22 49  1  0
 22 50  1  0
 27 51  1  0
M  CHG  1  25  -1
M  END
>  <UniqueID>  (66) 
66

>  <SMILES>  (66) 
CN(C)CCN(C)c1ccc2cc(C(N)=O)n(C(=O)N(C)CC(=O)[O-])c2c1

>  <Energy>  (66) 
88.2523510547938

>  <Genealogy>  (66) 
CN(C)CCN(C)c1ccc2cc(C(N)=O)n(C(=O)N(C)CC(=O)[O-])c2c1 (protonated)
CN(C)CCN(C)c1ccc2cc(C(N)=O)n(C(=O)N(C)CC(=O)[O-])c2c1 (3D coordinates assigned)
CN(C)CCN(C)c1ccc2cc(C(N)=O)n(C(=O)N(C)CC(=O)[O-])c2c1 (optimized conformer: 88.2523510547938 kcal/mol)

>  <smiles>  (66) 
CN(C)CCN(C)c1ccc2cc(C(N)=O)n(C(=O)N(C)CC(=O)O)c2c1

>  <score_type>  (66) 
oracle

>  <origin>  (66) 
adg

>  <m_score__min__energy>  (66) 
-11.17

>  <m_primary>  (66) 
energy

$$$$
66:0
     RDKit          3D

 39 40  0  0  0  0  0  0  0  0999 V2000
   -0.9090   26.3060  -28.2180 C   0  0  0  0  0  0  0  0  0  0  0  0
   -1.9720   25.6750  -28.8970 O   0  0  0  0  0  0  0  0  0  0  0  0
   -2.6040   24.7280  -28.0540 C   0  0  0  0  0  0  0  0  0  0  0  0
   -1.9560   23.3530  -28.2110 C   0  0  0  0  0  0  0  0  0  0  0  0
   -2.0850   22.9270  -29.5510 O   0  0  0  0  0  0  0  0  0  0  0  0
   -3.2930   22.2110  -29.7180 C   0  0  0  0  0  0  0  0  0  0  0  0
   -3.4090   21.7150  -31.0510 O   0  0  0  0  0  0  0  0  0  0  0  0
   -4.2950   22.2530  -31.9900 C   0  0  0  0  0  0  0  0  0  0  0  0
   -3.9310   22.4030  -33.1900 O   0  0  0  0  0  0  0  0  0  0  0  0
   -5.6230   22.6330  -31.5900 N   0  0  0  0  0  0  0  0  0  0  0  0
   -6.0280   23.8440  -31.1130 C   0  0  0  0  0  0  0  0  0  0  0  0
   -5.1460   24.9680  -30.7430 C   0  0  0  0  0  0  0  0  0  0  0  0
   -3.7250   24.8560  -30.8380 N   0  0  0  0  0  0  0  0  0  0  0  0
   -5.6530   26.0260  -30.2810 O   0  0  0  0  0  0  0  0  0  0  0  0
   -7.4110   23.8750  -30.9580 C   0  0  0  0  0  0  0  0  0  0  0  0
   -7.8470   22.6270  -31.3430 C   0  0  0  0  0  0  0  0  0  0  0  0
   -9.1390   22.1120  -31.4000 C   0  0  0  0  0  0  0  0  0  0  0  0
   -9.3040   20.7990  -31.8740 C   0  0  0  0  0  0  0  0  0  0  0  0
   -8.1840   20.0380  -32.2870 C   0  0  0  0  0  0  0  0  0  0  0  0
   -8.3670   18.7090  -32.7800 N   0  0  0  0  0  0  0  0  0  0  0  0
   -6.8890   20.5930  -32.2170 C   0  0  0  0  0  0  0  0  0  0  0  0
   -6.7490   21.8960  -31.7220 C   0  0  0  0  0  0  0  0  0  0  0  0
   -1.0620   26.2152  -27.1325 H   0  0  0  0  0  0  0  0  0  0  0  0
    0.0405   25.8252  -28.4960 H   0  0  0  0  0  0  0  0  0  0  0  0
   -0.8764   27.3698  -28.4960 H   0  0  0  0  0  0  0  0  0  0  0  0
   -2.5096   25.0550  -27.0080 H   0  0  0  0  0  0  0  0  0  0  0  0
   -3.6650   24.6547  -28.3349 H   0  0  0  0  0  0  0  0  0  0  0  0
   -0.8902   23.4167  -27.9466 H   0  0  0  0  0  0  0  0  0  0  0  0
   -2.4541   22.6326  -27.5455 H   0  0  0  0  0  0  0  0  0  0  0  0
   -3.3104   21.3646  -29.0157 H   0  0  0  0  0  0  0  0  0  0  0  0
   -4.1353   22.8904  -29.5205 H   0  0  0  0  0  0  0  0  0  0  0  0
   -3.1190   25.6710  -30.5990 H   0  0  0  0  0  0  0  0  0  0  0  0
   -3.2710   23.9430  -31.0610 H   0  0  0  0  0  0  0  0  0  0  0  0
   -8.0244   24.7166  -30.6037 H   0  0  0  0  0  0  0  0  0  0  0  0
  -10.0039   22.7138  -31.0840 H   0  0  0  0  0  0  0  0  0  0  0  0
  -10.3111   20.3595  -31.9244 H   0  0  0  0  0  0  0  0  0  0  0  0
   -8.8210   18.5390  -33.7050 H   0  0  0  0  0  0  0  0  0  0  0  0
   -8.0440   17.8850  -32.2260 H   0  0  0  0  0  0  0  0  0  0  0  0
   -6.0106   20.0167  -32.5431 H   0  0  0  0  0  0  0  0  0  0  0  0
  1  2  1  0
  2  3  1  0
  3  4  1  0
  4  5  1  0
  5  6  1  0
  6  7  1  0
  7  8  1  0
  8  9  2  0
  8 10  1  0
 10 11  1  0
 11 12  1  0
 12 13  1  0
 12 14  2  0
 11 15  2  0
 15 16  1  0
 16 17  2  0
 17 18  1  0
 18 19  2  0
 19 20  1  0
 19 21  1  0
 21 22  2  0
 22 10  1  0
 22 16  1  0
  1 23  1  0
  1 24  1  0
  1 25  1  0
  3 26  1  0
  3 27  1  0
  4 28  1  0
  4 29  1  0
  6 30  1  0
  6 31  1  0
 13 32  1  0
 13 33  1  0
 15 34  1  0
 17 35  1  0
 18 36  1  0
 20 37  1  0
 20 38  1  0
 21 39  1  0
M  END
>  <UniqueID>  (67) 
67

>  <SMILES>  (67) 
COCCOCOC(=O)n1c(C(N)=O)cc2ccc(N)cc21

>  <Energy>  (67) 
77.21464839867183

>  <Genealogy>  (67) 
COCCOCOC(=O)n1c(C(N)=O)cc2ccc(N)cc21 (3D coordinates assigned)
COCCOCOC(=O)n1c(C(N)=O)cc2ccc(N)cc21 (optimized conformer: 77.21464839867183 kcal/mol)

>  <smiles>  (67) 
COCCOCOC(=O)n1c(C(N)=O)cc2ccc(N)cc21

>  <score_type>  (67) 
oracle

>  <origin>  (67) 
adg

>  <m_score__min__energy>  (67) 
-6.9299999999999997

>  <m_primary>  (67) 
energy

$$$$
67:0
     RDKit          3D

 37 38  0  0  0  0  0  0  0  0999 V2000
   -8.1370   18.6780  -32.7130 C   0  0  0  0  0  0  0  0  0  0  0  0
   -7.9750   20.0970  -32.2540 C   0  0  0  0  0  0  0  0  0  0  0  0
   -9.1020   20.8330  -31.8130 C   0  0  0  0  0  0  0  0  0  0  0  0
   -8.9560   22.1460  -31.3330 C   0  0  0  0  0  0  0  0  0  0  0  0
   -7.6750   22.6900  -31.3020 C   0  0  0  0  0  0  0  0  0  0  0  0
   -7.2450   23.9190  -30.8550 C   0  0  0  0  0  0  0  0  0  0  0  0
   -5.8630   23.9150  -31.0360 C   0  0  0  0  0  0  0  0  0  0  0  0
   -4.9980   25.0760  -30.7400 C   0  0  0  0  0  0  0  0  0  0  0  0
   -3.5770   24.9650  -30.7850 N   0  0  0  0  0  0  0  0  0  0  0  0
   -5.5190   26.1930  -30.4780 O   0  0  0  0  0  0  0  0  0  0  0  0
   -5.4560   22.7300  -31.5710 N   0  0  0  0  0  0  0  0  0  0  0  0
   -4.1130   22.2980  -31.8400 C   0  0  0  0  0  0  0  0  0  0  0  0
   -3.8040   21.9150  -33.0010 O   0  0  0  0  0  0  0  0  0  0  0  0
   -3.1350   22.3080  -30.7880 N   0  0  0  0  0  0  0  0  0  0  0  0
   -1.7460   22.0080  -30.9740 C   0  0  0  0  0  0  0  0  0  0  0  0
   -1.2960   21.7460  -32.1230 O   0  0  0  0  0  0  0  0  0  0  0  0
   -0.8990   22.0150  -29.8570 O   0  0  0  0  0  0  0  0  0  0  0  0
   -1.3010   22.2840  -28.5430 C   0  0  0  0  0  0  0  0  0  0  0  0
   -0.7240   21.7400  -27.5620 O   0  0  0  0  0  0  0  0  0  0  0  0
   -2.3620   23.1710  -28.3350 O   0  0  0  0  0  0  0  0  0  0  0  0
   -2.1910   24.4960  -27.8380 C   0  0  0  0  0  0  0  0  0  0  0  0
   -1.0320   25.1600  -28.5100 C   0  0  0  0  0  0  0  0  0  0  0  0
   -1.2280   26.1090  -29.3140 O   0  0  0  0  0  0  0  0  0  0  0  0
    0.2620   24.7140  -28.2720 O   0  0  0  0  0  0  0  0  0  0  0  0
   -6.5760   21.9910  -31.7270 C   0  0  0  0  0  0  0  0  0  0  0  0
   -6.6890   20.6760  -32.1920 C   0  0  0  0  0  0  0  0  0  0  0  0
   -8.2126   18.0159  -31.8378 H   0  0  0  0  0  0  0  0  0  0  0  0
   -9.0509   18.5907  -33.3189 H   0  0  0  0  0  0  0  0  0  0  0  0
   -7.2663   18.3869  -33.3189 H   0  0  0  0  0  0  0  0  0  0  0  0
  -10.1006   20.3728  -31.8465 H   0  0  0  0  0  0  0  0  0  0  0  0
   -9.8267   22.7255  -30.9925 H   0  0  0  0  0  0  0  0  0  0  0  0
   -7.8612   24.7316  -30.4426 H   0  0  0  0  0  0  0  0  0  0  0  0
   -2.9860   25.3010  -29.9920 H   0  0  0  0  0  0  0  0  0  0  0  0
   -3.4550   22.5380  -29.8210 H   0  0  0  0  0  0  0  0  0  0  0  0
   -3.1045   25.0769  -28.0333 H   0  0  0  0  0  0  0  0  0  0  0  0
   -1.9967   24.4487  -26.7563 H   0  0  0  0  0  0  0  0  0  0  0  0
   -5.7990   20.1083  -32.5012 H   0  0  0  0  0  0  0  0  0  0  0  0
  1  2  1  0
  2  3  2  0
  3  4  1  0
  4  5  2  0
  5  6  1  0
  6  7  2  0
  7  8  1  0
  8  9  1  0
  8 10  2  0
  7 11  1  0
 11 12  1  0
 12 13  2  0
 12 14  1  0
 14 15  1  0
 15 16  2  0
 15 17  1  0
 17 18  1  0
 18 19  2  0
 18 20  1  0
 20 21  1  0
 21 22  1  0
 22 23  2  0
 22 24  1  0
 11 25  1  0
 25 26  2  0
 26  2  1  0
 25  5  1  0
  1 27  1  0
  1 28  1  0
  1 29  1  0
  3 30  1  0
  4 31  1  0
  6 32  1  0
  9 33  1  0
 14 34  1  0
 21 35  1  0
 21 36  1  0
 26 37  1  0
M  CHG  2   9  -1  24  -1
M  END
>  <UniqueID>  (68) 
68

>  <SMILES>  (68) 
Cc1ccc2cc(C([NH-])=O)n(C(=O)NC(=O)OC(=O)OCC(=O)[O-])c2c1

>  <Energy>  (68) 
74.72837533136116

>  <Genealogy>  (68) 
Cc1ccc2cc(C([NH-])=O)n(C(=O)NC(=O)OC(=O)OCC(=O)[O-])c2c1 (protonated)
Cc1ccc2cc(C([NH-])=O)n(C(=O)NC(=O)OC(=O)OCC(=O)[O-])c2c1 (3D coordinates assigned)
Cc1ccc2cc(C([NH-])=O)n(C(=O)NC(=O)OC(=O)OCC(=O)[O-])c2c1 (optimized conformer: 74.72837533136116 kcal/mol)

>  <smiles>  (68) 
Cc1ccc2cc(C(N)=O)n(C(=O)NC(=O)OC(=O)OCC(=O)O)c2c1

>  <score_type>  (68) 
oracle

>  <origin>  (68) 
adg

>  <m_score__min__energy>  (68) 
-12.109999999999999

>  <m_primary>  (68) 
energy

$$$$
68:0
     RDKit          3D

 52 53  0  0  0  0  0  0  0  0999 V2000
   -3.5890   20.0230  -33.4510 C   0  0  0  0  0  0  0  0  0  0  0  0
   -3.3460   18.5170  -33.4600 C   0  0  0  0  0  0  0  0  0  0  0  0
   -3.9660   17.9140  -34.5940 O   0  0  0  0  0  0  0  0  0  0  0  0
   -5.3520   17.7680  -34.7360 C   0  0  0  0  0  0  0  0  0  0  0  0
   -6.0370   18.6500  -35.3200 O   0  0  0  0  0  0  0  0  0  0  0  0
   -6.0340   16.5680  -34.1540 C   0  0  0  0  0  0  0  0  0  0  0  0
   -6.0880   16.6790  -32.7010 N   0  0  0  0  0  0  0  0  0  0  0  0
   -6.6650   17.7970  -32.0210 C   0  0  0  0  0  0  0  0  0  0  0  0
   -6.2220   18.1610  -30.8980 O   0  0  0  0  0  0  0  0  0  0  0  0
   -7.7350   18.5940  -32.6960 C   0  0  0  0  0  0  0  0  0  0  0  0
   -7.7080   20.0080  -32.1830 C   0  0  0  0  0  0  0  0  0  0  0  0
   -8.9160   20.7440  -32.0820 C   0  0  0  0  0  0  0  0  0  0  0  0
   -8.9050   22.0820  -31.6580 C   0  0  0  0  0  0  0  0  0  0  0  0
   -7.6770   22.6590  -31.3520 C   0  0  0  0  0  0  0  0  0  0  0  0
   -7.3850   23.9220  -30.8930 C   0  0  0  0  0  0  0  0  0  0  0  0
   -6.0000   23.9490  -30.7400 C   0  0  0  0  0  0  0  0  0  0  0  0
   -5.2510   25.1550  -30.3290 C   0  0  0  0  0  0  0  0  0  0  0  0
   -3.8660   25.2980  -30.6300 N   0  0  0  0  0  0  0  0  0  0  0  0
   -5.8550   26.0940  -29.7470 O   0  0  0  0  0  0  0  0  0  0  0  0
   -5.4570   22.7460  -31.0840 N   0  0  0  0  0  0  0  0  0  0  0  0
   -4.0860   22.3360  -30.9560 C   0  0  0  0  0  0  0  0  0  0  0  0
   -3.2570   22.6400  -31.8540 O   0  0  0  0  0  0  0  0  0  0  0  0
   -3.6940   21.5820  -29.8370 O   0  0  0  0  0  0  0  0  0  0  0  0
   -3.1080   22.0890  -28.6300 C   0  0  0  0  0  0  0  0  0  0  0  0
   -1.9080   22.9560  -29.0400 C   0  0  0  0  0  0  0  0  0  0  0  0
   -2.6060   20.9340  -27.7400 C   0  0  0  0  0  0  0  0  0  0  0  0
   -4.1190   22.9670  -27.8680 C   0  0  0  0  0  0  0  0  0  0  0  0
   -6.4970   21.9680  -31.4570 C   0  0  0  0  0  0  0  0  0  0  0  0
   -6.4790   20.6280  -31.8660 C   0  0  0  0  0  0  0  0  0  0  0  0
   -3.6464   20.3789  -32.4118 H   0  0  0  0  0  0  0  0  0  0  0  0
   -2.7612   20.5311  -33.9674 H   0  0  0  0  0  0  0  0  0  0  0  0
   -4.5346   20.2449  -33.9674 H   0  0  0  0  0  0  0  0  0  0  0  0
   -2.2633   18.3260  -33.4960 H   0  0  0  0  0  0  0  0  0  0  0  0
   -3.7795   18.0830  -32.5469 H   0  0  0  0  0  0  0  0  0  0  0  0
   -7.0572   16.5020  -34.5523 H   0  0  0  0  0  0  0  0  0  0  0  0
   -5.4681   15.6647  -34.4257 H   0  0  0  0  0  0  0  0  0  0  0  0
   -7.5612   18.5949  -33.7822 H   0  0  0  0  0  0  0  0  0  0  0  0
   -8.7162   18.1454  -32.4814 H   0  0  0  0  0  0  0  0  0  0  0  0
   -9.8708   20.2617  -32.3384 H   0  0  0  0  0  0  0  0  0  0  0  0
   -9.8389   22.6566  -31.5704 H   0  0  0  0  0  0  0  0  0  0  0  0
   -8.0942   24.7379  -30.6897 H   0  0  0  0  0  0  0  0  0  0  0  0
   -3.5300   26.0540  -31.2690 H   0  0  0  0  0  0  0  0  0  0  0  0
   -1.3972   23.3250  -28.1384 H   0  0  0  0  0  0  0  0  0  0  0  0
   -1.2078   22.3539  -29.6376 H   0  0  0  0  0  0  0  0  0  0  0  0
   -2.2597   23.8099  -29.6376 H   0  0  0  0  0  0  0  0  0  0  0  0
   -2.7252   21.2083  -26.6814 H   0  0  0  0  0  0  0  0  0  0  0  0
   -3.1911   20.0269  -27.9519 H   0  0  0  0  0  0  0  0  0  0  0  0
   -1.5436   20.7429  -27.9519 H   0  0  0  0  0  0  0  0  0  0  0  0
   -3.9723   22.8396  -26.7853 H   0  0  0  0  0  0  0  0  0  0  0  0
   -3.9643   24.0222  -28.1373 H   0  0  0  0  0  0  0  0  0  0  0  0
   -5.1422   22.6660  -28.1373 H   0  0  0  0  0  0  0  0  0  0  0  0
   -5.5320   20.0730  -31.9384 H   0  0  0  0  0  0  0  0  0  0  0  0
  1  2  1  0
  2  3  1  0
  3  4  1  0
  4  5  2  0
  4  6  1  0
  6  7  1  0
  7  8  1  0
  8  9  2  0
  8 10  1  0
 10 11  1  0
 11 12  2  0
 12 13  1  0
 13 14  2  0
 14 15  1  0
 15 16  2  0
 16 17  1  0
 17 18  1  0
 17 19  2  0
 16 20  1  0
 20 21  1  0
 21 22  2  0
 21 23  1  0
 23 24  1  0
 24 25  1  0
 24 26  1  0
 24 27  1  0
 20 28  1  0
 28 29  2  0
 29 11  1  0
 28 14  1  0
  1 30  1  0
  1 31  1  0
  1 32  1  0
  2 33  1  0
  2 34  1  0
  6 35  1  0
  6 36  1  0
 10 37  1  0
 10 38  1  0
 12 39  1  0
 13 40  1  0
 15 41  1  0
 18 42  1  0
 25 43  1  0
 25 44  1  0
 25 45  1  0
 26 46  1  0
 26 47  1  0
 26 48  1  0
 27 49  1  0
 27 50  1  0
 27 51  1  0
 29 52  1  0
M  CHG  2   7  -1  18  -1
M  END
>  <UniqueID>  (69) 
69

>  <SMILES>  (69) 
CCOC(=O)C[N-]C(=O)Cc1ccc2cc(C([NH-])=O)n(C(=O)OC(C)(C)C)c2c1

>  <Energy>  (69) 
73.76130130066271

>  <Genealogy>  (69) 
CCOC(=O)C[N-]C(=O)Cc1ccc2cc(C([NH-])=O)n(C(=O)OC(C)(C)C)c2c1 (protonated)
CCOC(=O)C[N-]C(=O)Cc1ccc2cc(C([NH-])=O)n(C(=O)OC(C)(C)C)c2c1 (3D coordinates assigned)
CCOC(=O)C[N-]C(=O)Cc1ccc2cc(C([NH-])=O)n(C(=O)OC(C)(C)C)c2c1 (optimized conformer: 73.76130130066271 kcal/mol)

>  <smiles>  (69) 
CCOC(=O)CNC(=O)Cc1ccc2cc(C(N)=O)n(C(=O)OC(C)(C)C)c2c1

>  <score_type>  (69) 
oracle

>  <origin>  (69) 
adg

>  <m_score__min__energy>  (69) 
-10.699999999999999

>  <m_primary>  (69) 
energy

$$$$
69:0
     RDKit          3D

 46 47  0  0  0  0  0  0  0  0999 V2000
   -6.1300   17.3870  -31.1310 C   0  0  0  0  0  0  0  0  0  0  0  0
   -6.5400   18.2340  -32.2560 N   0  0  0  0  0  0  0  0  0  0  0  0
   -6.7880   17.6170  -33.5690 C   0  0  0  0  0  0  0  0  0  0  0  0
   -5.7730   18.0910  -34.5790 C   0  0  0  0  0  0  0  0  0  0  0  0
   -6.1070   18.9190  -35.4170 O   0  0  0  0  0  0  0  0  0  0  0  0
   -4.4190   17.5730  -34.5570 N   0  0  0  0  0  0  0  0  0  0  0  0
   -3.5240   18.4960  -33.8430 C   0  0  0  0  0  0  0  0  0  0  0  0
   -4.3980   16.2410  -33.9350 C   0  0  0  0  0  0  0  0  0  0  0  0
   -6.7510   19.6490  -32.0480 C   0  0  0  0  0  0  0  0  0  0  0  0
   -8.0330   20.2290  -32.2510 C   0  0  0  0  0  0  0  0  0  0  0  0
   -8.2440   21.6030  -32.0450 C   0  0  0  0  0  0  0  0  0  0  0  0
   -7.1650   22.3730  -31.6240 C   0  0  0  0  0  0  0  0  0  0  0  0
   -7.0880   23.7220  -31.3620 C   0  0  0  0  0  0  0  0  0  0  0  0
   -5.7690   23.9490  -30.9720 C   0  0  0  0  0  0  0  0  0  0  0  0
   -5.2700   25.2620  -30.5130 C   0  0  0  0  0  0  0  0  0  0  0  0
   -3.9410   25.6650  -30.8320 N   0  0  0  0  0  0  0  0  0  0  0  0
   -6.0140   26.0480  -29.8690 O   0  0  0  0  0  0  0  0  0  0  0  0
   -5.0580   22.7850  -31.0000 N   0  0  0  0  0  0  0  0  0  0  0  0
   -3.6680   22.5870  -30.6970 C   0  0  0  0  0  0  0  0  0  0  0  0
   -2.9540   21.8770  -31.4560 O   0  0  0  0  0  0  0  0  0  0  0  0
   -3.1300   23.1680  -29.5410 O   0  0  0  0  0  0  0  0  0  0  0  0
   -1.7900   23.5380  -29.3700 C   0  0  0  0  0  0  0  0  0  0  0  0
   -1.4500   24.7520  -29.3150 O   0  0  0  0  0  0  0  0  0  0  0  0
   -0.7430   22.4730  -29.3260 C   0  0  0  0  0  0  0  0  0  0  0  0
   -0.1910   22.2920  -30.5800 F   0  0  0  0  0  0  0  0  0  0  0  0
   -1.3140   21.2890  -28.9020 F   0  0  0  0  0  0  0  0  0  0  0  0
    0.2560   22.8370  -28.4420 F   0  0  0  0  0  0  0  0  0  0  0  0
   -5.9270   21.8320  -31.4020 C   0  0  0  0  0  0  0  0  0  0  0  0
   -5.6800   20.4730  -31.6260 C   0  0  0  0  0  0  0  0  0  0  0  0
   -6.3741   17.8913  -30.1844 H   0  0  0  0  0  0  0  0  0  0  0  0
   -6.6626   16.4259  -31.1824 H   0  0  0  0  0  0  0  0  0  0  0  0
   -5.0458   17.2086  -31.1824 H   0  0  0  0  0  0  0  0  0  0  0  0
   -6.7191   16.5233  -33.4732 H   0  0  0  0  0  0  0  0  0  0  0  0
   -7.7920   17.9066  -33.9127 H   0  0  0  0  0  0  0  0  0  0  0  0
   -4.0650   17.4760  -35.5390 H   0  0  0  0  0  0  0  0  0  0  0  0
   -3.6514   18.3646  -32.7583 H   0  0  0  0  0  0  0  0  0  0  0  0
   -2.4808   18.2816  -34.1183 H   0  0  0  0  0  0  0  0  0  0  0  0
   -3.7704   19.5321  -34.1183 H   0  0  0  0  0  0  0  0  0  0  0  0
   -4.3997   16.3475  -32.8402 H   0  0  0  0  0  0  0  0  0  0  0  0
   -5.2873   15.6753  -34.2497 H   0  0  0  0  0  0  0  0  0  0  0  0
   -3.4913   15.7036  -34.2497 H   0  0  0  0  0  0  0  0  0  0  0  0
   -8.8710   19.5937  -32.5737 H   0  0  0  0  0  0  0  0  0  0  0  0
   -9.2325   22.0558  -32.2117 H   0  0  0  0  0  0  0  0  0  0  0  0
   -7.8961   24.4639  -31.4432 H   0  0  0  0  0  0  0  0  0  0  0  0
   -3.1170   25.1750  -30.4150 H   0  0  0  0  0  0  0  0  0  0  0  0
   -4.6741   20.0535  -31.4772 H   0  0  0  0  0  0  0  0  0  0  0  0
  1  2  1  0
  2  3  1  0
  3  4  1  0
  4  5  2  0
  4  6  1  0
  6  7  1  0
  6  8  1  0
  2  9  1  0
  9 10  2  0
 10 11  1  0
 11 12  2  0
 12 13  1  0
 13 14  2  0
 14 15  1  0
 15 16  1  0
 15 17  2  0
 14 18  1  0
 18 19  1  0
 19 20  2  0
 19 21  1  0
 21 22  1  0
 22 23  2  0
 22 24  1  0
 24 25  1  0
 24 26  1  0
 24 27  1  0
 18 28  1  0
 28 29  2  0
 29  9  1  0
 28 12  1  0
  1 30  1  0
  1 31  1  0
  1 32  1  0
  3 33  1  0
  3 34  1  0
  6 35  1  0
  7 36  1  0
  7 37  1  0
  7 38  1  0
  8 39  1  0
  8 40  1  0
  8 41  1  0
 10 42  1  0
 11 43  1  0
 13 44  1  0
 16 45  1  0
 29 46  1  0
M  CHG  2   6   1  16  -1
M  END
>  <UniqueID>  (70) 
70

>  <SMILES>  (70) 
CN(CC(=O)[NH+](C)C)c1ccc2cc(C([NH-])=O)n(C(=O)OC(=O)C(F)(F)F)c2c1

>  <Energy>  (70) 
83.44475410483214

>  <Genealogy>  (70) 
CN(CC(=O)[NH+](C)C)c1ccc2cc(C([NH-])=O)n(C(=O)OC(=O)C(F)(F)F)c2c1 (protonated)
CN(CC(=O)[NH+](C)C)c1ccc2cc(C([NH-])=O)n(C(=O)OC(=O)C(F)(F)F)c2c1 (3D coordinates assigned)
CN(CC(=O)[NH+](C)C)c1ccc2cc(C([NH-])=O)n(C(=O)OC(=O)C(F)(F)F)c2c1 (optimized conformer: 83.44475410483214 kcal/mol)

>  <smiles>  (70) 
CN(C)C(=O)CN(C)c1ccc2cc(C(N)=O)n(C(=O)OC(=O)C(F)(F)F)c2c1

>  <score_type>  (70) 
oracle

>  <origin>  (70) 
adg

>  <m_score__min__energy>  (70) 
-9.0500000000000007

>  <m_primary>  (70) 
energy

$$$$
70:0
     RDKit          3D

 38 39  0  0  0  0  0  0  0  0999 V2000
   -0.7050   23.5470  -28.7890 C   0  0  0  0  0  0  0  0  0  0  0  0
   -0.9910   22.3920  -29.4010 C   0  0  0  0  0  0  0  0  0  0  0  0
   -0.5490   21.0980  -28.7730 C   0  0  0  0  0  0  0  0  0  0  0  0
   -1.8420   22.3580  -30.6150 C   0  0  0  0  0  0  0  0  0  0  0  0
   -1.3330   21.9910  -31.7080 O   0  0  0  0  0  0  0  0  0  0  0  0
   -3.2210   22.7630  -30.5640 N   0  0  0  0  0  0  0  0  0  0  0  0
   -4.1770   22.4830  -31.5980 C   0  0  0  0  0  0  0  0  0  0  0  0
   -3.8230   21.9030  -32.6610 O   0  0  0  0  0  0  0  0  0  0  0  0
   -5.5540   22.8430  -31.4140 N   0  0  0  0  0  0  0  0  0  0  0  0
   -6.0570   24.0200  -30.9460 C   0  0  0  0  0  0  0  0  0  0  0  0
   -5.2680   25.1490  -30.4060 C   0  0  0  0  0  0  0  0  0  0  0  0
   -3.8710   25.2550  -30.6590 N   0  0  0  0  0  0  0  0  0  0  0  0
   -5.8320   26.0120  -29.6830 O   0  0  0  0  0  0  0  0  0  0  0  0
   -7.4510   24.0000  -30.9770 C   0  0  0  0  0  0  0  0  0  0  0  0
   -7.7880   22.7630  -31.4800 C   0  0  0  0  0  0  0  0  0  0  0  0
   -9.0380   22.2060  -31.7280 C   0  0  0  0  0  0  0  0  0  0  0  0
   -9.0870   20.9120  -32.2730 C   0  0  0  0  0  0  0  0  0  0  0  0
   -7.8920   20.2090  -32.5780 C   0  0  0  0  0  0  0  0  0  0  0  0
   -7.9520   18.8750  -33.1220 N   0  0  0  0  0  0  0  0  0  0  0  0
   -7.6120   17.8950  -32.0870 C   0  0  0  0  0  0  0  0  0  0  0  0
   -6.6410   20.8080  -32.3050 C   0  0  0  0  0  0  0  0  0  0  0  0
   -6.6250   22.0870  -31.7400 C   0  0  0  0  0  0  0  0  0  0  0  0
   -1.0222   24.5002  -29.2372 H   0  0  0  0  0  0  0  0  0  0  0  0
   -0.1527   23.5433  -27.8377 H   0  0  0  0  0  0  0  0  0  0  0  0
   -0.5812   21.1923  -27.6775 H   0  0  0  0  0  0  0  0  0  0  0  0
   -1.2213   20.2876  -29.0912 H   0  0  0  0  0  0  0  0  0  0  0  0
    0.4786   20.8682  -29.0912 H   0  0  0  0  0  0  0  0  0  0  0  0
   -3.5520   23.3180  -29.7430 H   0  0  0  0  0  0  0  0  0  0  0  0
   -3.4850   26.0470  -31.2210 H   0  0  0  0  0  0  0  0  0  0  0  0
   -8.1362   24.8022  -30.6657 H   0  0  0  0  0  0  0  0  0  0  0  0
   -9.9605   22.7618  -31.5042 H   0  0  0  0  0  0  0  0  0  0  0  0
  -10.0612   20.4388  -32.4653 H   0  0  0  0  0  0  0  0  0  0  0  0
   -7.2810   18.7820  -33.9190 H   0  0  0  0  0  0  0  0  0  0  0  0
   -8.9140   18.6740  -33.4830 H   0  0  0  0  0  0  0  0  0  0  0  0
   -7.7670   18.3418  -31.0939 H   0  0  0  0  0  0  0  0  0  0  0  0
   -8.2554   17.0094  -32.1951 H   0  0  0  0  0  0  0  0  0  0  0  0
   -6.5583   17.5981  -32.1951 H   0  0  0  0  0  0  0  0  0  0  0  0
   -5.7026   20.2806  -32.5316 H   0  0  0  0  0  0  0  0  0  0  0  0
  1  2  2  0
  2  3  1  0
  2  4  1  0
  4  5  2  0
  4  6  1  0
  6  7  1  0
  7  8  2  0
  7  9  1  0
  9 10  1  0
 10 11  1  0
 11 12  1  0
 11 13  2  0
 10 14  2  0
 14 15  1  0
 15 16  2  0
 16 17  1  0
 17 18  2  0
 18 19  1  0
 19 20  1  0
 18 21  1  0
 21 22  2  0
 22  9  1  0
 22 15  1  0
  1 23  1  0
  1 24  1  0
  3 25  1  0
  3 26  1  0
  3 27  1  0
  6 28  1  0
 12 29  1  0
 14 30  1  0
 16 31  1  0
 17 32  1  0
 19 33  1  0
 19 34  1  0
 20 35  1  0
 20 36  1  0
 20 37  1  0
 21 38  1  0
M  CHG  2  12  -1  19   1
M  END
>  <UniqueID>  (71) 
71

>  <SMILES>  (71) 
C=C(C)C(=O)NC(=O)n1c(C([NH-])=O)cc2ccc([NH2+]C)cc21

>  <Energy>  (71) 
77.14725253776419

>  <Genealogy>  (71) 
C=C(C)C(=O)NC(=O)n1c(C([NH-])=O)cc2ccc([NH2+]C)cc21 (protonated)
C=C(C)C(=O)NC(=O)n1c(C([NH-])=O)cc2ccc([NH2+]C)cc21 (3D coordinates assigned)
C=C(C)C(=O)NC(=O)n1c(C([NH-])=O)cc2ccc([NH2+]C)cc21 (optimized conformer: 77.14725253776419 kcal/mol)

>  <smiles>  (71) 
C=C(C)C(=O)NC(=O)n1c(C(N)=O)cc2ccc(NC)cc21

>  <score_type>  (71) 
oracle

>  <origin>  (71) 
adg

>  <m_score__min__energy>  (71) 
-10.02

>  <m_primary>  (71) 
energy

$$$$
71:0
     RDKit          3D

 45 46  0  0  0  0  0  0  0  0999 V2000
   -7.5970   18.3840  -32.6760 C   0  0  0  0  0  0  0  0  0  0  0  0
   -7.5330   19.8070  -32.2070 C   0  0  0  0  0  0  0  0  0  0  0  0
   -8.7250   20.5560  -32.0480 C   0  0  0  0  0  0  0  0  0  0  0  0
   -8.6760   21.8970  -31.6340 C   0  0  0  0  0  0  0  0  0  0  0  0
   -7.4250   22.4640  -31.4040 C   0  0  0  0  0  0  0  0  0  0  0  0
   -7.0920   23.7310  -30.9800 C   0  0  0  0  0  0  0  0  0  0  0  0
   -5.7000   23.7470  -30.9230 C   0  0  0  0  0  0  0  0  0  0  0  0
   -4.9020   24.9510  -30.5990 C   0  0  0  0  0  0  0  0  0  0  0  0
   -3.6190   24.8330  -29.9820 N   0  0  0  0  0  0  0  0  0  0  0  0
   -5.3640   26.0990  -30.8360 O   0  0  0  0  0  0  0  0  0  0  0  0
   -5.1920   22.5370  -31.2950 N   0  0  0  0  0  0  0  0  0  0  0  0
   -3.8140   22.1340  -31.3170 C   0  0  0  0  0  0  0  0  0  0  0  0
   -3.2090   22.0150  -32.4180 O   0  0  0  0  0  0  0  0  0  0  0  0
   -3.1430   21.8870  -30.1150 O   0  0  0  0  0  0  0  0  0  0  0  0
   -1.7260   21.9570  -29.9900 C   0  0  0  0  0  0  0  0  0  0  0  0
   -1.2990   23.3080  -30.1260 O   0  0  0  0  0  0  0  0  0  0  0  0
   -0.8740   24.0780  -29.0400 C   0  0  0  0  0  0  0  0  0  0  0  0
    0.3530   24.1580  -28.7600 O   0  0  0  0  0  0  0  0  0  0  0  0
   -1.8370   24.7520  -28.2770 O   0  0  0  0  0  0  0  0  0  0  0  0
   -1.7370   25.0890  -26.8850 C   0  0  0  0  0  0  0  0  0  0  0  0
   -3.1680   25.2680  -26.3560 C   0  0  0  0  0  0  0  0  0  0  0  0
   -0.9680   26.4120  -26.7010 C   0  0  0  0  0  0  0  0  0  0  0  0
   -1.0550   23.9520  -26.1000 C   0  0  0  0  0  0  0  0  0  0  0  0
   -6.2600   21.7630  -31.5870 C   0  0  0  0  0  0  0  0  0  0  0  0
   -6.2810   20.4200  -31.9810 C   0  0  0  0  0  0  0  0  0  0  0  0
   -7.6272   17.7121  -31.8056 H   0  0  0  0  0  0  0  0  0  0  0  0
   -8.5026   18.2384  -33.2832 H   0  0  0  0  0  0  0  0  0  0  0  0
   -6.7081   18.1577  -33.2832 H   0  0  0  0  0  0  0  0  0  0  0  0
   -9.6973   20.0831  -32.2506 H   0  0  0  0  0  0  0  0  0  0  0  0
   -9.5975   22.4816  -31.4956 H   0  0  0  0  0  0  0  0  0  0  0  0
   -7.7789   24.5553  -30.7378 H   0  0  0  0  0  0  0  0  0  0  0  0
   -3.1780   23.9010  -29.8200 H   0  0  0  0  0  0  0  0  0  0  0  0
   -3.0820   25.6900  -29.7220 H   0  0  0  0  0  0  0  0  0  0  0  0
   -1.4267   21.5765  -29.0022 H   0  0  0  0  0  0  0  0  0  0  0  0
   -1.2600   21.3464  -30.7775 H   0  0  0  0  0  0  0  0  0  0  0  0
   -3.1552   25.2664  -25.2561 H   0  0  0  0  0  0  0  0  0  0  0  0
   -3.5753   26.2241  -26.7166 H   0  0  0  0  0  0  0  0  0  0  0  0
   -3.7982   24.4417  -26.7166 H   0  0  0  0  0  0  0  0  0  0  0  0
   -0.8473   26.6197  -25.6276 H   0  0  0  0  0  0  0  0  0  0  0  0
    0.0226   26.3289  -27.1721 H   0  0  0  0  0  0  0  0  0  0  0  0
   -1.5304   27.2316  -27.1721 H   0  0  0  0  0  0  0  0  0  0  0  0
   -1.1645   24.1345  -25.0208 H   0  0  0  0  0  0  0  0  0  0  0  0
   -1.5270   22.9929  -26.3594 H   0  0  0  0  0  0  0  0  0  0  0  0
    0.0134   23.9169  -26.3594 H   0  0  0  0  0  0  0  0  0  0  0  0
   -5.3456   19.8561  -32.1113 H   0  0  0  0  0  0  0  0  0  0  0  0
  1  2  1  0
  2  3  2  0
  3  4  1  0
  4  5  2  0
  5  6  1  0
  6  7  2  0
  7  8  1  0
  8  9  1  0
  8 10  2  0
  7 11  1  0
 11 12  1  0
 12 13  2  0
 12 14  1  0
 14 15  1  0
 15 16  1  0
 16 17  1  0
 17 18  2  0
 17 19  1  0
 19 20  1  0
 20 21  1  0
 20 22  1  0
 20 23  1  0
 11 24  1  0
 24 25  2  0
 25  2  1  0
 24  5  1  0
  1 26  1  0
  1 27  1  0
  1 28  1  0
  3 29  1  0
  4 30  1  0
  6 31  1  0
  9 32  1  0
  9 33  1  0
 15 34  1  0
 15 35  1  0
 21 36  1  0
 21 37  1  0
 21 38  1  0
 22 39  1  0
 22 40  1  0
 22 41  1  0
 23 42  1  0
 23 43  1  0
 23 44  1  0
 25 45  1  0
M  END
>  <UniqueID>  (72) 
72

>  <SMILES>  (72) 
Cc1ccc2cc(C(N)=O)n(C(=O)OCOC(=O)OC(C)(C)C)c2c1

>  <Energy>  (72) 
74.95066543114841

>  <Genealogy>  (72) 
Cc1ccc2cc(C(N)=O)n(C(=O)OCOC(=O)OC(C)(C)C)c2c1 (3D coordinates assigned)
Cc1ccc2cc(C(N)=O)n(C(=O)OCOC(=O)OC(C)(C)C)c2c1 (optimized conformer: 74.95066543114841 kcal/mol)

>  <smiles>  (72) 
Cc1ccc2cc(C(N)=O)n(C(=O)OCOC(=O)OC(C)(C)C)c2c1

>  <score_type>  (72) 
oracle

>  <origin>  (72) 
adg

>  <m_score__min__energy>  (72) 
-7.9400000000000004

>  <m_primary>  (72) 
energy

$$$$
72:0
     RDKit          3D

 36 37  0  0  0  0  0  0  0  0999 V2000
   -7.3510   18.3970  -33.0920 C   0  0  0  0  0  0  0  0  0  0  0  0
   -7.4040   19.7990  -32.5580 C   0  0  0  0  0  0  0  0  0  0  0  0
   -8.6540   20.4200  -32.3190 C   0  0  0  0  0  0  0  0  0  0  0  0
   -8.7170   21.7220  -31.7940 C   0  0  0  0  0  0  0  0  0  0  0  0
   -7.5180   22.3660  -31.5020 C   0  0  0  0  0  0  0  0  0  0  0  0
   -7.2860   23.6300  -31.0090 C   0  0  0  0  0  0  0  0  0  0  0  0
   -5.9000   23.7460  -30.9250 C   0  0  0  0  0  0  0  0  0  0  0  0
   -5.2030   24.9390  -30.4000 C   0  0  0  0  0  0  0  0  0  0  0  0
   -3.9330   25.3110  -30.9320 N   0  0  0  0  0  0  0  0  0  0  0  0
   -5.7240   25.6470  -29.4990 O   0  0  0  0  0  0  0  0  0  0  0  0
   -5.3000   22.5970  -31.3450 N   0  0  0  0  0  0  0  0  0  0  0  0
   -3.8930   22.3350  -31.4600 C   0  0  0  0  0  0  0  0  0  0  0  0
   -3.3960   22.1060  -32.5960 O   0  0  0  0  0  0  0  0  0  0  0  0
   -3.0270   22.3390  -30.2650 C   0  0  0  0  0  0  0  0  0  0  0  0
   -3.0040   21.3260  -29.5150 O   0  0  0  0  0  0  0  0  0  0  0  0
   -2.2250   23.4880  -29.9480 N   0  0  0  0  0  0  0  0  0  0  0  0
   -1.3710   23.5310  -28.7570 C   0  0  1  0  0  0  0  0  0  0  0  0
   -0.3150   22.4250  -28.8090 C   0  0  0  0  0  0  0  0  0  0  0  0
   -0.7050   24.8730  -28.6460 C   0  0  0  0  0  0  0  0  0  0  0  0
    0.3100   25.0220  -27.9160 O   0  0  0  0  0  0  0  0  0  0  0  0
   -1.2280   25.9660  -29.3260 O   0  0  0  0  0  0  0  0  0  0  0  0
   -6.3010   21.7650  -31.6990 C   0  0  0  0  0  0  0  0  0  0  0  0
   -6.2080   20.4770  -32.2370 C   0  0  0  0  0  0  0  0  0  0  0  0
   -7.3241   17.6859  -32.2532 H   0  0  0  0  0  0  0  0  0  0  0  0
   -8.2425   18.2050  -33.7071 H   0  0  0  0  0  0  0  0  0  0  0  0
   -6.4475   18.2728  -33.7071 H   0  0  0  0  0  0  0  0  0  0  0  0
   -9.5840   19.8784  -32.5463 H   0  0  0  0  0  0  0  0  0  0  0  0
   -9.6837   22.2168  -31.6192 H   0  0  0  0  0  0  0  0  0  0  0  0
   -8.0359   24.3880  -30.7386 H   0  0  0  0  0  0  0  0  0  0  0  0
   -3.0760   25.2960  -30.3350 H   0  0  0  0  0  0  0  0  0  0  0  0
   -2.2460   24.3120  -30.5910 H   0  0  0  0  0  0  0  0  0  0  0  0
   -2.0029   23.3692  -27.8713 H   0  0  0  0  0  0  0  0  0  0  0  0
   -0.0376   22.1345  -27.7850 H   0  0  0  0  0  0  0  0  0  0  0  0
   -0.7237   21.5525  -29.3397 H   0  0  0  0  0  0  0  0  0  0  0  0
    0.5755   22.7929  -29.3397 H   0  0  0  0  0  0  0  0  0  0  0  0
   -5.2288   20.0049  -32.4055 H   0  0  0  0  0  0  0  0  0  0  0  0
  1  2  1  0
  2  3  2  0
  3  4  1  0
  4  5  2  0
  5  6  1  0
  6  7  2  0
  7  8  1  0
  8  9  1  0
  8 10  2  0
  7 11  1  0
 11 12  1  0
 12 13  2  0
 12 14  1  0
 14 15  2  0
 14 16  1  0
 16 17  1  0
 17 18  1  0
 17 19  1  0
 19 20  2  0
 19 21  1  0
 11 22  1  0
 22 23  2  0
 23  2  1  0
 22  5  1  0
  1 24  1  0
  1 25  1  0
  1 26  1  0
  3 27  1  0
  4 28  1  0
  6 29  1  0
  9 30  1  0
 16 31  1  0
 17 32  1  1
 18 33  1  0
 18 34  1  0
 18 35  1  0
 23 36  1  0
M  CHG  2   9  -1  21  -1
M  END
>  <UniqueID>  (73) 
73

>  <SMILES>  (73) 
Cc1ccc2cc(C([NH-])=O)n(C(=O)C(=O)N[C@@H](C)C(=O)[O-])c2c1

>  <Energy>  (73) 
70.38592837117865

>  <Genealogy>  (73) 
Cc1ccc2cc(C([NH-])=O)n(C(=O)C(=O)NC(C)C(=O)[O-])c2c1 (protonated)
Cc1ccc2cc(C([NH-])=O)n(C(=O)C(=O)N[C@@H](C)C(=O)[O-])c2c1 (chirality)
Cc1ccc2cc(C([NH-])=O)n(C(=O)C(=O)N[C@@H](C)C(=O)[O-])c2c1 (3D coordinates assigned)
Cc1ccc2cc(C([NH-])=O)n(C(=O)C(=O)N[C@@H](C)C(=O)[O-])c2c1 (optimized conformer: 70.38592837117865 kcal/mol)

>  <smiles>  (73) 
Cc1ccc2cc(C(N)=O)n(C(=O)C(=O)NC(C)C(=O)O)c2c1

>  <score_type>  (73) 
oracle

>  <origin>  (73) 
adg

>  <m_score__min__energy>  (73) 
-12.609999999999999

>  <m_primary>  (73) 
energy

$$$$
73:0
     RDKit          3D

 53 54  0  0  0  0  0  0  0  0999 V2000
   -1.6150   26.7760  -25.8290 C   0  0  0  0  0  0  0  0  0  0  0  0
   -1.2050   25.5190  -26.4630 N   0  0  0  0  0  0  0  0  0  0  0  0
   -1.0000   24.3240  -25.6370 C   0  0  0  0  0  0  0  0  0  0  0  0
   -1.0870   25.4740  -27.9050 C   0  0  0  0  0  0  0  0  0  0  0  0
   -1.6160   26.3880  -28.5950 O   0  0  0  0  0  0  0  0  0  0  0  0
   -0.3530   24.4050  -28.6150 C   0  0  0  0  0  0  0  0  0  0  0  0
    0.8890   24.2620  -28.4630 O   0  0  0  0  0  0  0  0  0  0  0  0
   -1.0620   23.5500  -29.5150 N   0  0  0  0  0  0  0  0  0  0  0  0
   -0.8340   22.1110  -29.5810 C   0  0  0  0  0  0  0  0  0  0  0  0
   -1.3440   21.5810  -30.8890 C   0  0  0  0  0  0  0  0  0  0  0  0
   -0.5340   20.9710  -31.6390 O   0  0  0  0  0  0  0  0  0  0  0  0
   -2.7020   21.8120  -31.3320 N   0  0  0  0  0  0  0  0  0  0  0  0
   -3.0150   21.8950  -32.7650 C   0  0  0  0  0  0  0  0  0  0  0  0
   -3.7630   21.9560  -30.3640 C   0  0  0  0  0  0  0  0  0  0  0  0
   -3.5230   21.7710  -29.1400 O   0  0  0  0  0  0  0  0  0  0  0  0
   -5.0970   22.2980  -30.7790 N   0  0  0  0  0  0  0  0  0  0  0  0
   -5.7880   23.4370  -30.4950 C   0  0  0  0  0  0  0  0  0  0  0  0
   -5.2360   24.6210  -29.7980 C   0  0  0  0  0  0  0  0  0  0  0  0
   -3.8790   24.6400  -29.3490 N   0  0  0  0  0  0  0  0  0  0  0  0
   -5.9680   25.6220  -29.5780 O   0  0  0  0  0  0  0  0  0  0  0  0
   -7.0750   23.3690  -31.0240 C   0  0  0  0  0  0  0  0  0  0  0  0
   -7.1520   22.1400  -31.6400 C   0  0  0  0  0  0  0  0  0  0  0  0
   -8.2050   21.5450  -32.3240 C   0  0  0  0  0  0  0  0  0  0  0  0
   -8.0100   20.2550  -32.8460 C   0  0  0  0  0  0  0  0  0  0  0  0
   -6.7720   19.5740  -32.6720 C   0  0  0  0  0  0  0  0  0  0  0  0
   -6.5760   18.2430  -33.2170 N   0  0  0  0  0  0  0  0  0  0  0  0
   -6.0620   18.0670  -34.5810 C   0  0  0  0  0  0  0  0  0  0  0  0
   -6.8910   17.0550  -32.4150 C   0  0  0  0  0  0  0  0  0  0  0  0
   -5.7310   20.2190  -31.9600 C   0  0  0  0  0  0  0  0  0  0  0  0
   -5.9480   21.5120  -31.4750 C   0  0  0  0  0  0  0  0  0  0  0  0
   -1.5785   26.6640  -24.7353 H   0  0  0  0  0  0  0  0  0  0  0  0
   -0.9332   27.5820  -26.1380 H   0  0  0  0  0  0  0  0  0  0  0  0
   -2.6409   27.0250  -26.1380 H   0  0  0  0  0  0  0  0  0  0  0  0
   -1.0475   24.6008  -24.5735 H   0  0  0  0  0  0  0  0  0  0  0  0
   -1.7846   23.5857  -25.8591 H   0  0  0  0  0  0  0  0  0  0  0  0
   -0.0142   23.8894  -25.8591 H   0  0  0  0  0  0  0  0  0  0  0  0
    0.2437   21.9067  -29.4982 H   0  0  0  0  0  0  0  0  0  0  0  0
   -1.3663   21.6181  -28.7541 H   0  0  0  0  0  0  0  0  0  0  0  0
   -4.0709   22.1750  -32.8941 H   0  0  0  0  0  0  0  0  0  0  0  0
   -2.3740   22.6542  -33.2369 H   0  0  0  0  0  0  0  0  0  0  0  0
   -2.8344   20.9179  -33.2369 H   0  0  0  0  0  0  0  0  0  0  0  0
   -3.5110   25.4680  -28.8300 H   0  0  0  0  0  0  0  0  0  0  0  0
   -3.2210   23.8610  -29.5700 H   0  0  0  0  0  0  0  0  0  0  0  0
   -7.8625   24.1346  -30.9626 H   0  0  0  0  0  0  0  0  0  0  0  0
   -9.1637   22.0687  -32.4532 H   0  0  0  0  0  0  0  0  0  0  0  0
   -8.8258   19.7643  -33.3971 H   0  0  0  0  0  0  0  0  0  0  0  0
   -5.0221   17.7109  -34.5379 H   0  0  0  0  0  0  0  0  0  0  0  0
   -6.6803   17.3294  -35.1135 H   0  0  0  0  0  0  0  0  0  0  0  0
   -6.0984   19.0288  -35.1135 H   0  0  0  0  0  0  0  0  0  0  0  0
   -6.8244   17.3060  -31.3461 H   0  0  0  0  0  0  0  0  0  0  0  0
   -7.9105   16.7145  -32.6489 H   0  0  0  0  0  0  0  0  0  0  0  0
   -6.1742   16.2541  -32.6489 H   0  0  0  0  0  0  0  0  0  0  0  0
   -4.7695   19.7117  -31.7918 H   0  0  0  0  0  0  0  0  0  0  0  0
  1  2  1  0
  2  3  1  0
  2  4  1  0
  4  5  2  0
  4  6  1  0
  6  7  2  0
  6  8  1  0
  8  9  1  0
  9 10  1  0
 10 11  2  0
 10 12  1  0
 12 13  1  0
 12 14  1  0
 14 15  2  0
 14 16  1  0
 16 17  1  0
 17 18  1  0
 18 19  1  0
 18 20  2  0
 17 21  2  0
 21 22  1  0
 22 23  2  0
 23 24  1  0
 24 25  2  0
 25 26  1  0
 26 27  1  0
 26 28  1  0
 25 29  1  0
 29 30  2  0
 30 16  1  0
 30 22  1  0
  1 31  1  0
  1 32  1  0
  1 33  1  0
  3 34  1  0
  3 35  1  0
  3 36  1  0
  9 37  1  0
  9 38  1  0
 13 39  1  0
 13 40  1  0
 13 41  1  0
 19 42  1  0
 19 43  1  0
 21 44  1  0
 23 45  1  0
 24 46  1  0
 27 47  1  0
 27 48  1  0
 27 49  1  0
 28 50  1  0
 28 51  1  0
 28 52  1  0
 29 53  1  0
M  CHG  1   8  -1
M  END
>  <UniqueID>  (74) 
74

>  <SMILES>  (74) 
CN(C)C(=O)C(=O)[N-]CC(=O)N(C)C(=O)n1c(C(N)=O)cc2ccc(N(C)C)cc21

>  <Energy>  (74) 
90.29838506299552

>  <Genealogy>  (74) 
CN(C)C(=O)C(=O)[N-]CC(=O)N(C)C(=O)n1c(C(N)=O)cc2ccc(N(C)C)cc21 (protonated)
CN(C)C(=O)C(=O)[N-]CC(=O)N(C)C(=O)n1c(C(N)=O)cc2ccc(N(C)C)cc21 (3D coordinates assigned)
CN(C)C(=O)C(=O)[N-]CC(=O)N(C)C(=O)n1c(C(N)=O)cc2ccc(N(C)C)cc21 (optimized conformer: 90.29838506299552 kcal/mol)

>  <smiles>  (74) 
CN(C)C(=O)C(=O)NCC(=O)N(C)C(=O)n1c(C(N)=O)cc2ccc(N(C)C)cc21

>  <score_type>  (74) 
oracle

>  <origin>  (74) 
adg

>  <m_score__min__energy>  (74) 
-11.74

>  <m_primary>  (74) 
energy

$$$$
74:0
     RDKit          3D

 40 41  0  0  0  0  0  0  0  0999 V2000
   -4.2290   24.5480  -27.2240 C   0  0  0  0  0  0  0  0  0  0  0  0
   -3.2800   23.8630  -28.1200 N   0  0  0  0  0  0  0  0  0  0  0  0
   -1.8960   24.2910  -27.8470 C   0  0  0  0  0  0  0  0  0  0  0  0
   -3.4450   22.3870  -28.1130 C   0  0  0  0  0  0  0  0  0  0  0  0
   -3.1250   21.6780  -29.4480 C   0  0  0  0  0  0  0  0  0  0  0  0
   -3.0610   22.5990  -30.5350 O   0  0  0  0  0  0  0  0  0  0  0  0
   -3.9580   22.5910  -31.6090 C   0  0  0  0  0  0  0  0  0  0  0  0
   -3.5610   22.2980  -32.7700 O   0  0  0  0  0  0  0  0  0  0  0  0
   -5.3330   22.9380  -31.3880 N   0  0  0  0  0  0  0  0  0  0  0  0
   -5.8320   24.0980  -30.8750 C   0  0  0  0  0  0  0  0  0  0  0  0
   -5.0570   25.3200  -30.5730 C   0  0  0  0  0  0  0  0  0  0  0  0
   -3.6370   25.2810  -30.4620 N   0  0  0  0  0  0  0  0  0  0  0  0
   -5.6530   26.4240  -30.4590 O   0  0  0  0  0  0  0  0  0  0  0  0
   -7.2170   24.0200  -30.7500 C   0  0  0  0  0  0  0  0  0  0  0  0
   -7.5560   22.7720  -31.2170 C   0  0  0  0  0  0  0  0  0  0  0  0
   -8.8030   22.1610  -31.3180 C   0  0  0  0  0  0  0  0  0  0  0  0
   -8.8560   20.8500  -31.8180 C   0  0  0  0  0  0  0  0  0  0  0  0
   -7.6700   20.1740  -32.2020 C   0  0  0  0  0  0  0  0  0  0  0  0
   -7.7480   18.7670  -32.7200 C   0  0  0  0  0  0  0  0  0  0  0  0
   -8.7230   18.0690  -32.0300 F   0  0  0  0  0  0  0  0  0  0  0  0
   -6.5280   18.1390  -32.5470 F   0  0  0  0  0  0  0  0  0  0  0  0
   -6.4210   20.8260  -32.0840 C   0  0  0  0  0  0  0  0  0  0  0  0
   -6.4010   22.1390  -31.5980 C   0  0  0  0  0  0  0  0  0  0  0  0
   -3.9539   24.3494  -26.1776 H   0  0  0  0  0  0  0  0  0  0  0  0
   -4.1950   25.6311  -27.4129 H   0  0  0  0  0  0  0  0  0  0  0  0
   -5.2463   24.1746  -27.4129 H   0  0  0  0  0  0  0  0  0  0  0  0
   -3.5040   24.1780  -29.0940 H   0  0  0  0  0  0  0  0  0  0  0  0
   -1.7352   24.3407  -26.7599 H   0  0  0  0  0  0  0  0  0  0  0  0
   -1.1947   23.5678  -28.2887 H   0  0  0  0  0  0  0  0  0  0  0  0
   -1.7254   25.2839  -28.2887 H   0  0  0  0  0  0  0  0  0  0  0  0
   -2.7782   21.9746  -27.3414 H   0  0  0  0  0  0  0  0  0  0  0  0
   -4.5120   22.2022  -27.9199 H   0  0  0  0  0  0  0  0  0  0  0  0
   -2.1550   21.1674  -29.3564 H   0  0  0  0  0  0  0  0  0  0  0  0
   -3.9319   20.9598  -29.6556 H   0  0  0  0  0  0  0  0  0  0  0  0
   -3.0630   24.6920  -31.1070 H   0  0  0  0  0  0  0  0  0  0  0  0
   -7.8957   24.7930  -30.3603 H   0  0  0  0  0  0  0  0  0  0  0  0
   -9.7190   22.6894  -31.0152 H   0  0  0  0  0  0  0  0  0  0  0  0
   -9.8272   20.3422  -31.9128 H   0  0  0  0  0  0  0  0  0  0  0  0
   -8.0013   18.7907  -33.7902 H   0  0  0  0  0  0  0  0  0  0  0  0
   -5.4889   20.3149  -32.3667 H   0  0  0  0  0  0  0  0  0  0  0  0
  1  2  1  0
  2  3  1  0
  2  4  1  0
  4  5  1  0
  5  6  1  0
  6  7  1  0
  7  8  2  0
  7  9  1  0
  9 10  1  0
 10 11  1  0
 11 12  1  0
 11 13  2  0
 10 14  2  0
 14 15  1  0
 15 16  2  0
 16 17  1  0
 17 18  2  0
 18 19  1  0
 19 20  1  0
 19 21  1  0
 18 22  1  0
 22 23  2  0
 23  9  1  0
 23 15  1  0
  1 24  1  0
  1 25  1  0
  1 26  1  0
  2 27  1  0
  3 28  1  0
  3 29  1  0
  3 30  1  0
  4 31  1  0
  4 32  1  0
  5 33  1  0
  5 34  1  0
 12 35  1  0
 14 36  1  0
 16 37  1  0
 17 38  1  0
 19 39  1  0
 22 40  1  0
M  CHG  2   2   1  12  -1
M  END
>  <UniqueID>  (75) 
75

>  <SMILES>  (75) 
C[NH+](C)CCOC(=O)n1c(C([NH-])=O)cc2ccc(C(F)F)cc21

>  <Energy>  (75) 
79.15492666959123

>  <Genealogy>  (75) 
C[NH+](C)CCOC(=O)n1c(C([NH-])=O)cc2ccc(C(F)F)cc21 (protonated)
C[NH+](C)CCOC(=O)n1c(C([NH-])=O)cc2ccc(C(F)F)cc21 (3D coordinates assigned)
C[NH+](C)CCOC(=O)n1c(C([NH-])=O)cc2ccc(C(F)F)cc21 (optimized conformer: 79.15492666959123 kcal/mol)

>  <smiles>  (75) 
CN(C)CCOC(=O)n1c(C(N)=O)cc2ccc(C(F)F)cc21

>  <score_type>  (75) 
oracle

>  <origin>  (75) 
adg

>  <m_score__min__energy>  (75) 
-8.2799999999999994

>  <m_primary>  (75) 
energy

$$$$
75:0
     RDKit          3D

 55 57  0  0  0  0  0  0  0  0999 V2000
   -4.7010   15.0400  -34.2980 C   0  0  0  0  0  0  0  0  0  0  0  0
   -3.8650   16.1050  -33.7110 N   0  0  0  0  0  0  0  0  0  0  0  0
   -3.8520   17.3120  -34.5730 C   0  0  0  0  0  0  0  0  0  0  0  0
   -5.1710   17.4330  -35.3830 C   0  0  0  0  0  0  0  0  0  0  0  0
   -6.4440   17.5720  -34.5230 C   0  0  0  0  0  0  0  0  0  0  0  0
   -6.1360   17.8960  -33.1170 N   0  0  0  0  0  0  0  0  0  0  0  0
   -6.4310   19.2250  -32.6350 C   0  0  0  0  0  0  0  0  0  0  0  0
   -7.7700   19.6910  -32.5970 C   0  0  0  0  0  0  0  0  0  0  0  0
   -8.0710   20.9720  -32.1050 C   0  0  0  0  0  0  0  0  0  0  0  0
   -7.0170   21.7620  -31.6500 C   0  0  0  0  0  0  0  0  0  0  0  0
   -7.0240   23.0410  -31.1400 C   0  0  0  0  0  0  0  0  0  0  0  0
   -5.6910   23.3290  -30.8530 C   0  0  0  0  0  0  0  0  0  0  0  0
   -5.2500   24.5910  -30.2220 C   0  0  0  0  0  0  0  0  0  0  0  0
   -5.8350   25.0570  -29.0020 N   0  0  0  0  0  0  0  0  0  0  0  0
   -4.3690   25.2950  -30.7890 O   0  0  0  0  0  0  0  0  0  0  0  0
   -4.8910   22.2770  -31.1850 N   0  0  0  0  0  0  0  0  0  0  0  0
   -3.4560   22.2110  -31.1410 C   0  0  0  0  0  0  0  0  0  0  0  0
   -2.7810   23.2790  -31.1780 O   0  0  0  0  0  0  0  0  0  0  0  0
   -2.8270   20.9580  -31.0380 O   0  0  0  0  0  0  0  0  0  0  0  0
   -1.7710   20.4610  -31.8730 C   0  0  0  0  0  0  0  0  0  0  0  0
   -2.3600   20.2680  -33.2830 C   0  0  0  0  0  0  0  0  0  0  0  0
   -1.2560   19.0990  -31.3550 C   0  0  0  0  0  0  0  0  0  0  0  0
   -0.6260   21.4880  -31.9490 C   0  0  0  0  0  0  0  0  0  0  0  0
   -5.7180   21.3240  -31.6670 C   0  0  0  0  0  0  0  0  0  0  0  0
   -5.3880   20.0610  -32.1720 C   0  0  0  0  0  0  0  0  0  0  0  0
   -5.7560   16.8500  -32.1530 C   0  0  0  0  0  0  0  0  0  0  0  0
   -4.2880   16.3830  -32.3140 C   0  0  0  0  0  0  0  0  0  0  0  0
   -5.1634   14.4509  -33.4923 H   0  0  0  0  0  0  0  0  0  0  0  0
   -5.4878   15.4922  -34.9196 H   0  0  0  0  0  0  0  0  0  0  0  0
   -4.0749   14.3831  -34.9196 H   0  0  0  0  0  0  0  0  0  0  0  0
   -3.7355   18.2043  -33.9404 H   0  0  0  0  0  0  0  0  0  0  0  0
   -3.0136   17.2280  -35.2801 H   0  0  0  0  0  0  0  0  0  0  0  0
   -5.0959   18.3194  -36.0300 H   0  0  0  0  0  0  0  0  0  0  0  0
   -5.2772   16.4943  -35.9465 H   0  0  0  0  0  0  0  0  0  0  0  0
   -7.0686   18.3744  -34.9425 H   0  0  0  0  0  0  0  0  0  0  0  0
   -6.9686   16.6053  -34.5389 H   0  0  0  0  0  0  0  0  0  0  0  0
   -8.5820   19.0421  -32.9568 H   0  0  0  0  0  0  0  0  0  0  0  0
   -9.1072   21.3403  -32.0797 H   0  0  0  0  0  0  0  0  0  0  0  0
   -7.8954   23.6955  -30.9910 H   0  0  0  0  0  0  0  0  0  0  0  0
   -5.4760   25.9270  -28.5510 H   0  0  0  0  0  0  0  0  0  0  0  0
   -6.6760   24.5920  -28.5990 H   0  0  0  0  0  0  0  0  0  0  0  0
   -3.4024   19.9264  -33.2013 H   0  0  0  0  0  0  0  0  0  0  0  0
   -2.3288   21.2234  -33.8273 H   0  0  0  0  0  0  0  0  0  0  0  0
   -1.7694   19.5164  -33.8273 H   0  0  0  0  0  0  0  0  0  0  0  0
   -1.2568   19.1010  -30.2550 H   0  0  0  0  0  0  0  0  0  0  0  0
   -1.9124   18.2956  -31.7207 H   0  0  0  0  0  0  0  0  0  0  0  0
   -0.2323   18.9310  -31.7207 H   0  0  0  0  0  0  0  0  0  0  0  0
   -0.3153   21.7667  -30.9313 H   0  0  0  0  0  0  0  0  0  0  0  0
    0.2273   21.0468  -32.4850 H   0  0  0  0  0  0  0  0  0  0  0  0
   -0.9721   22.3840  -32.4850 H   0  0  0  0  0  0  0  0  0  0  0  0
   -4.3409   19.7259  -32.2081 H   0  0  0  0  0  0  0  0  0  0  0  0
   -5.8881   17.2464  -31.1354 H   0  0  0  0  0  0  0  0  0  0  0  0
   -6.4009   15.9790  -32.3414 H   0  0  0  0  0  0  0  0  0  0  0  0
   -3.6338   17.1696  -31.9099 H   0  0  0  0  0  0  0  0  0  0  0  0
   -4.2092   15.4279  -31.7741 H   0  0  0  0  0  0  0  0  0  0  0  0
  1  2  1  0
  2  3  1  0
  3  4  1  0
  4  5  1  0
  5  6  1  0
  6  7  1  0
  7  8  2  0
  8  9  1  0
  9 10  2  0
 10 11  1  0
 11 12  2  0
 12 13  1  0
 13 14  1  0
 13 15  2  0
 12 16  1  0
 16 17  1  0
 17 18  2  0
 17 19  1  0
 19 20  1  0
 20 21  1  0
 20 22  1  0
 20 23  1  0
 16 24  1  0
 24 25  2  0
  6 26  1  0
 26 27  1  0
 27  2  1  0
 25  7  1  0
 24 10  1  0
  1 28  1  0
  1 29  1  0
  1 30  1  0
  3 31  1  0
  3 32  1  0
  4 33  1  0
  4 34  1  0
  5 35  1  0
  5 36  1  0
  8 37  1  0
  9 38  1  0
 11 39  1  0
 14 40  1  0
 14 41  1  0
 21 42  1  0
 21 43  1  0
 21 44  1  0
 22 45  1  0
 22 46  1  0
 22 47  1  0
 23 48  1  0
 23 49  1  0
 23 50  1  0
 25 51  1  0
 26 52  1  0
 26 53  1  0
 27 54  1  0
 27 55  1  0
M  END
>  <UniqueID>  (76) 
76

>  <SMILES>  (76) 
CN1CCCN(c2ccc3cc(C(N)=O)n(C(=O)OC(C)(C)C)c3c2)CC1

>  <Energy>  (76) 
105.05309563296208

>  <Genealogy>  (76) 
CN1CCCN(c2ccc3cc(C(N)=O)n(C(=O)OC(C)(C)C)c3c2)CC1 (3D coordinates assigned)
CN1CCCN(c2ccc3cc(C(N)=O)n(C(=O)OC(C)(C)C)c3c2)CC1 (nonaromatic ring conformer: 105.05309563296208 kcal/mol)

>  <smiles>  (76) 
CN1CCCN(c2ccc3cc(C(N)=O)n(C(=O)OC(C)(C)C)c3c2)CC1

>  <score_type>  (76) 
oracle

>  <origin>  (76) 
adg

>  <m_score__min__energy>  (76) 
-7.2300000000000004

>  <m_primary>  (76) 
energy

$$$$
76:0
     RDKit          3D

 49 51  0  0  0  0  0  0  0  0999 V2000
   -7.8400   18.1980  -32.6830 C   0  0  0  0  0  0  0  0  0  0  0  0
   -7.6770   19.5970  -32.1680 C   0  0  0  0  0  0  0  0  0  0  0  0
   -8.7600   20.2440  -31.5240 C   0  0  0  0  0  0  0  0  0  0  0  0
   -8.6150   21.5450  -31.0150 C   0  0  0  0  0  0  0  0  0  0  0  0
   -7.3750   22.1630  -31.1460 C   0  0  0  0  0  0  0  0  0  0  0  0
   -6.9680   23.4200  -30.7630 C   0  0  0  0  0  0  0  0  0  0  0  0
   -5.6290   23.5070  -31.1420 C   0  0  0  0  0  0  0  0  0  0  0  0
   -4.7740   24.6720  -30.8360 C   0  0  0  0  0  0  0  0  0  0  0  0
   -3.4270   24.4990  -30.4030 N   0  0  0  0  0  0  0  0  0  0  0  0
   -5.2540   25.8350  -30.9070 O   0  0  0  0  0  0  0  0  0  0  0  0
   -5.2260   22.3520  -31.7430 N   0  0  0  0  0  0  0  0  0  0  0  0
   -3.9570   22.0840  -32.3610 C   0  0  0  0  0  0  0  0  0  0  0  0
   -3.8050   22.2910  -33.5960 O   0  0  0  0  0  0  0  0  0  0  0  0
   -2.9000   21.6000  -31.5780 O   0  0  0  0  0  0  0  0  0  0  0  0
   -2.9550   21.3640  -30.1970 C   0  0  0  0  0  0  0  0  0  0  0  0
   -3.9010   20.6920  -29.7030 O   0  0  0  0  0  0  0  0  0  0  0  0
   -1.9250   21.8980  -29.3410 N   0  0  0  0  0  0  0  0  0  0  0  0
   -1.9700   21.7450  -27.8840 C   0  0  0  0  0  0  0  0  0  0  0  0
   -1.9400   23.1250  -27.2220 C   0  0  0  0  0  0  0  0  0  0  0  0
   -0.8620   23.9510  -27.7890 N   0  0  0  0  0  0  0  0  0  0  0  0
   -0.1920   24.9180  -26.9520 C   0  0  0  0  0  0  0  0  0  0  0  0
    0.6210   25.7370  -27.4630 O   0  0  0  0  0  0  0  0  0  0  0  0
   -0.4470   24.9390  -25.5730 O   0  0  0  0  0  0  0  0  0  0  0  0
   -1.1030   25.9730  -24.8890 C   0  0  0  0  0  0  0  0  0  0  0  0
   -2.3340   26.1930  -25.0610 O   0  0  0  0  0  0  0  0  0  0  0  0
   -0.3430   26.7850  -23.8910 C   0  0  0  0  0  0  0  0  0  0  0  0
   -0.8650   26.5660  -22.6300 F   0  0  0  0  0  0  0  0  0  0  0  0
   -0.4410   28.1310  -24.2000 F   0  0  0  0  0  0  0  0  0  0  0  0
    0.9910   26.4180  -23.9040 F   0  0  0  0  0  0  0  0  0  0  0  0
   -0.7550   24.0460  -29.2540 C   0  0  0  0  0  0  0  0  0  0  0  0
   -0.7940   22.6550  -29.8880 C   0  0  0  0  0  0  0  0  0  0  0  0
   -6.3060   21.5380  -31.7370 C   0  0  0  0  0  0  0  0  0  0  0  0
   -6.4280   20.2480  -32.2690 C   0  0  0  0  0  0  0  0  0  0  0  0
   -7.9211   17.5022  -31.8349 H   0  0  0  0  0  0  0  0  0  0  0  0
   -8.7514   18.1368  -33.2959 H   0  0  0  0  0  0  0  0  0  0  0  0
   -6.9671   17.9289  -33.2959 H   0  0  0  0  0  0  0  0  0  0  0  0
   -9.7233   19.7229  -31.4216 H   0  0  0  0  0  0  0  0  0  0  0  0
   -9.4561   22.0598  -30.5276 H   0  0  0  0  0  0  0  0  0  0  0  0
   -7.5710   24.1927  -30.2636 H   0  0  0  0  0  0  0  0  0  0  0  0
   -2.7670   25.3080  -30.3610 H   0  0  0  0  0  0  0  0  0  0  0  0
   -2.8950   21.2223  -27.5991 H   0  0  0  0  0  0  0  0  0  0  0  0
   -1.0996   21.1608  -27.5508 H   0  0  0  0  0  0  0  0  0  0  0  0
   -2.9048   23.6264  -27.3887 H   0  0  0  0  0  0  0  0  0  0  0  0
   -1.7576   22.9965  -26.1449 H   0  0  0  0  0  0  0  0  0  0  0  0
   -1.5946   24.6428  -29.6398 H   0  0  0  0  0  0  0  0  0  0  0  0
    0.2016   24.5253  -29.5093 H   0  0  0  0  0  0  0  0  0  0  0  0
   -0.9108   22.7521  -30.9775 H   0  0  0  0  0  0  0  0  0  0  0  0
    0.1435   22.1247  -29.6647 H   0  0  0  0  0  0  0  0  0  0  0  0
   -5.5724   19.7545  -32.7532 H   0  0  0  0  0  0  0  0  0  0  0  0
  1  2  1  0
  2  3  2  0
  3  4  1  0
  4  5  2  0
  5  6  1  0
  6  7  2  0
  7  8  1  0
  8  9  1  0
  8 10  2  0
  7 11  1  0
 11 12  1  0
 12 13  2  0
 12 14  1  0
 14 15  1  0
 15 16  2  0
 15 17  1  0
 17 18  1  0
 18 19  1  0
 19 20  1  0
 20 21  1  0
 21 22  2  0
 21 23  1  0
 23 24  1  0
 24 25  2  0
 24 26  1  0
 26 27  1  0
 26 28  1  0
 26 29  1  0
 20 30  1  0
 30 31  1  0
 11 32  1  0
 32 33  2  0
 33  2  1  0
 32  5  1  0
 31 17  1  0
  1 34  1  0
  1 35  1  0
  1 36  1  0
  3 37  1  0
  4 38  1  0
  6 39  1  0
  9 40  1  0
 18 41  1  0
 18 42  1  0
 19 43  1  0
 19 44  1  0
 30 45  1  0
 30 46  1  0
 31 47  1  0
 31 48  1  0
 33 49  1  0
M  CHG  1   9  -1
M  END
>  <UniqueID>  (77) 
77

>  <SMILES>  (77) 
Cc1ccc2cc(C([NH-])=O)n(C(=O)OC(=O)N3CCN(C(=O)OC(=O)C(F)(F)F)CC3)c2c1

>  <Energy>  (77) 
88.59393732350824

>  <Genealogy>  (77) 
Cc1ccc2cc(C([NH-])=O)n(C(=O)OC(=O)N3CCN(C(=O)OC(=O)C(F)(F)F)CC3)c2c1 (protonated)
Cc1ccc2cc(C([NH-])=O)n(C(=O)OC(=O)N3CCN(C(=O)OC(=O)C(F)(F)F)CC3)c2c1 (3D coordinates assigned)
Cc1ccc2cc(C([NH-])=O)n(C(=O)OC(=O)N3CCN(C(=O)OC(=O)C(F)(F)F)CC3)c2c1 (nonaromatic ring conformer: 88.59393732350824 kcal/mol)

>  <smiles>  (77) 
Cc1ccc2cc(C(N)=O)n(C(=O)OC(=O)N3CCN(C(=O)OC(=O)C(F)(F)F)CC3)c2c1

>  <score_type>  (77) 
oracle

>  <origin>  (77) 
adg

>  <m_score__min__energy>  (77) 
-10.83

>  <m_primary>  (77) 
energy

$$$$
77:0
     RDKit          3D

 39 40  0  0  0  0  0  0  0  0999 V2000
   -3.1200   20.9450  -29.4770 C   0  0  0  0  0  0  0  0  0  0  0  0
   -3.2090   22.2860  -30.0560 N   0  0  0  0  0  0  0  0  0  0  0  0
   -2.3740   23.3340  -29.5300 C   0  0  0  0  0  0  0  0  0  0  0  0
   -1.2680   23.5960  -30.0810 O   0  0  0  0  0  0  0  0  0  0  0  0
   -2.7960   24.0650  -28.4130 O   0  0  0  0  0  0  0  0  0  0  0  0
   -1.9020   24.6430  -27.4630 C   0  0  0  0  0  0  0  0  0  0  0  0
   -1.4180   26.0150  -27.9340 C   0  0  0  0  0  0  0  0  0  0  0  0
   -1.2030   26.0040  -29.3180 O   0  0  0  0  0  0  0  0  0  0  0  0
   -3.9880   22.5000  -31.2490 C   0  0  0  0  0  0  0  0  0  0  0  0
   -3.4370   22.4460  -32.3810 O   0  0  0  0  0  0  0  0  0  0  0  0
   -5.3870   22.8190  -31.1640 N   0  0  0  0  0  0  0  0  0  0  0  0
   -5.9560   24.0030  -30.8000 C   0  0  0  0  0  0  0  0  0  0  0  0
   -5.2330   25.2600  -30.5140 C   0  0  0  0  0  0  0  0  0  0  0  0
   -3.8630   25.4190  -30.8690 N   0  0  0  0  0  0  0  0  0  0  0  0
   -5.8440   26.2210  -29.9750 O   0  0  0  0  0  0  0  0  0  0  0  0
   -7.3450   23.8930  -30.7970 C   0  0  0  0  0  0  0  0  0  0  0  0
   -7.6110   22.5970  -31.1770 C   0  0  0  0  0  0  0  0  0  0  0  0
   -8.8260   21.9390  -31.3350 C   0  0  0  0  0  0  0  0  0  0  0  0
   -8.8000   20.5870  -31.7190 C   0  0  0  0  0  0  0  0  0  0  0  0
   -7.5670   19.9200  -31.9430 C   0  0  0  0  0  0  0  0  0  0  0  0
   -7.5670   18.4580  -32.3110 C   0  0  0  0  0  0  0  0  0  0  0  0
   -6.8070   17.7180  -31.4220 F   0  0  0  0  0  0  0  0  0  0  0  0
   -8.8650   17.9850  -32.2960 F   0  0  0  0  0  0  0  0  0  0  0  0
   -7.0380   18.2890  -33.5780 F   0  0  0  0  0  0  0  0  0  0  0  0
   -6.3530   20.6180  -31.7470 C   0  0  0  0  0  0  0  0  0  0  0  0
   -6.4120   21.9690  -31.3860 C   0  0  0  0  0  0  0  0  0  0  0  0
   -3.1249   21.0184  -28.3795 H   0  0  0  0  0  0  0  0  0  0  0  0
   -3.9803   20.3448  -29.8082 H   0  0  0  0  0  0  0  0  0  0  0  0
   -2.1879   20.4638  -29.8082 H   0  0  0  0  0  0  0  0  0  0  0  0
   -2.4226   24.7556  -26.5006 H   0  0  0  0  0  0  0  0  0  0  0  0
   -1.0301   23.9814  -27.3529 H   0  0  0  0  0  0  0  0  0  0  0  0
   -2.1784   26.7716  -27.6906 H   0  0  0  0  0  0  0  0  0  0  0  0
   -0.4724   26.2554  -27.4261 H   0  0  0  0  0  0  0  0  0  0  0  0
   -2.0470   25.6760  -29.7250 H   0  0  0  0  0  0  0  0  0  0  0  0
   -3.1030   25.2460  -30.1740 H   0  0  0  0  0  0  0  0  0  0  0  0
   -8.0748   24.6763  -30.5444 H   0  0  0  0  0  0  0  0  0  0  0  0
   -9.7791   22.4611  -31.1645 H   0  0  0  0  0  0  0  0  0  0  0  0
   -9.7456   20.0398  -31.8473 H   0  0  0  0  0  0  0  0  0  0  0  0
   -5.3851   20.1112  -31.8752 H   0  0  0  0  0  0  0  0  0  0  0  0
  1  2  1  0
  2  3  1  0
  3  4  2  0
  3  5  1  0
  5  6  1  0
  6  7  1  0
  7  8  1  0
  2  9  1  0
  9 10  2  0
  9 11  1  0
 11 12  1  0
 12 13  1  0
 13 14  1  0
 13 15  2  0
 12 16  2  0
 16 17  1  0
 17 18  2  0
 18 19  1  0
 19 20  2  0
 20 21  1  0
 21 22  1  0
 21 23  1  0
 21 24  1  0
 20 25  1  0
 25 26  2  0
 26 11  1  0
 26 17  1  0
  1 27  1  0
  1 28  1  0
  1 29  1  0
  6 30  1  0
  6 31  1  0
  7 32  1  0
  7 33  1  0
  8 34  1  0
 14 35  1  0
 16 36  1  0
 18 37  1  0
 19 38  1  0
 25 39  1  0
M  CHG  1  14  -1
M  END
>  <UniqueID>  (78) 
78

>  <SMILES>  (78) 
CN(C(=O)OCCO)C(=O)n1c(C([NH-])=O)cc2ccc(C(F)(F)F)cc21

>  <Energy>  (78) 
75.10148703054688

>  <Genealogy>  (78) 
CN(C(=O)OCCO)C(=O)n1c(C([NH-])=O)cc2ccc(C(F)(F)F)cc21 (protonated)
CN(C(=O)OCCO)C(=O)n1c(C([NH-])=O)cc2ccc(C(F)(F)F)cc21 (3D coordinates assigned)
CN(C(=O)OCCO)C(=O)n1c(C([NH-])=O)cc2ccc(C(F)(F)F)cc21 (optimized conformer: 75.10148703054688 kcal/mol)

>  <smiles>  (78) 
CN(C(=O)OCCO)C(=O)n1c(C(N)=O)cc2ccc(C(F)(F)F)cc21

>  <score_type>  (78) 
oracle

>  <origin>  (78) 
adg

>  <m_score__min__energy>  (78) 
-10.140000000000001

>  <m_primary>  (78) 
energy

$$$$
78:0
     RDKit          3D

 52 53  0  0  0  0  0  0  0  0999 V2000
   -1.5490   20.3700  -32.8280 C   0  0  0  0  0  0  0  0  0  0  0  0
   -2.5490   19.3630  -33.1950 N   0  0  0  0  0  0  0  0  0  0  0  0
   -2.1990   17.9390  -33.1880 C   0  0  0  0  0  0  0  0  0  0  0  0
   -3.8780   19.7920  -33.5630 C   0  0  0  0  0  0  0  0  0  0  0  0
   -4.1560   21.0230  -33.5720 O   0  0  0  0  0  0  0  0  0  0  0  0
   -4.9440   18.7990  -33.9390 C   0  0  0  0  0  0  0  0  0  0  0  0
   -5.1620   17.8750  -32.8760 O   0  0  0  0  0  0  0  0  0  0  0  0
   -6.2220   17.9980  -31.9750 C   0  0  0  0  0  0  0  0  0  0  0  0
   -6.1210   17.5610  -30.7960 O   0  0  0  0  0  0  0  0  0  0  0  0
   -7.5070   18.6110  -32.4330 C   0  0  0  0  0  0  0  0  0  0  0  0
   -7.5160   20.0790  -32.1120 C   0  0  0  0  0  0  0  0  0  0  0  0
   -8.7370   20.7970  -32.1110 C   0  0  0  0  0  0  0  0  0  0  0  0
   -8.7660   22.1590  -31.7660 C   0  0  0  0  0  0  0  0  0  0  0  0
   -7.5650   22.7720  -31.4280 C   0  0  0  0  0  0  0  0  0  0  0  0
   -7.3110   24.0650  -31.0310 C   0  0  0  0  0  0  0  0  0  0  0  0
   -5.9370   24.1220  -30.8110 C   0  0  0  0  0  0  0  0  0  0  0  0
   -5.2240   25.3670  -30.4590 C   0  0  0  0  0  0  0  0  0  0  0  0
   -3.8680   25.5710  -30.8490 N   0  0  0  0  0  0  0  0  0  0  0  0
   -5.8340   26.2840  -29.8490 O   0  0  0  0  0  0  0  0  0  0  0  0
   -5.3630   22.9080  -31.0500 N   0  0  0  0  0  0  0  0  0  0  0  0
   -3.9890   22.5310  -30.8740 C   0  0  0  0  0  0  0  0  0  0  0  0
   -3.0920   23.0920  -31.5610 O   0  0  0  0  0  0  0  0  0  0  0  0
   -3.6580   21.5630  -29.9170 O   0  0  0  0  0  0  0  0  0  0  0  0
   -2.6850   21.7140  -28.9220 C   0  0  0  0  0  0  0  0  0  0  0  0
   -2.7420   21.0600  -27.8450 O   0  0  0  0  0  0  0  0  0  0  0  0
   -1.5830   22.7010  -29.1290 C   0  0  0  0  0  0  0  0  0  0  0  0
   -2.0050   24.2650  -28.3800 S   0  0  0  0  0  0  0  0  0  0  0  0
   -1.3620   24.3460  -26.7220 C   0  0  0  0  0  0  0  0  0  0  0  0
   -1.4100   25.3780  -29.1950 O   0  0  0  0  0  0  0  0  0  0  0  0
   -3.5000   24.4230  -28.3440 O   0  0  0  0  0  0  0  0  0  0  0  0
   -6.3720   22.0930  -31.4300 C   0  0  0  0  0  0  0  0  0  0  0  0
   -6.3170   20.7310  -31.7500 C   0  0  0  0  0  0  0  0  0  0  0  0
   -1.4818   20.4376  -31.7321 H   0  0  0  0  0  0  0  0  0  0  0  0
   -0.5701   20.0811  -33.2382 H   0  0  0  0  0  0  0  0  0  0  0  0
   -1.8447   21.3469  -33.2382 H   0  0  0  0  0  0  0  0  0  0  0  0
   -2.1127   17.5877  -32.1492 H   0  0  0  0  0  0  0  0  0  0  0  0
   -2.9831   17.3662  -33.7048 H   0  0  0  0  0  0  0  0  0  0  0  0
   -1.2387   17.7949  -33.7048 H   0  0  0  0  0  0  0  0  0  0  0  0
   -5.8807   19.3358  -34.1500 H   0  0  0  0  0  0  0  0  0  0  0  0
   -4.6157   18.2448  -34.8307 H   0  0  0  0  0  0  0  0  0  0  0  0
   -7.6093   18.4746  -33.5197 H   0  0  0  0  0  0  0  0  0  0  0  0
   -8.3461   18.1220  -31.9164 H   0  0  0  0  0  0  0  0  0  0  0  0
   -9.6712   20.2837  -32.3828 H   0  0  0  0  0  0  0  0  0  0  0  0
   -9.7104   22.7229  -31.7635 H   0  0  0  0  0  0  0  0  0  0  0  0
   -8.0392   24.8809  -30.9125 H   0  0  0  0  0  0  0  0  0  0  0  0
   -3.1020   24.9780  -30.4580 H   0  0  0  0  0  0  0  0  0  0  0  0
   -0.6601   22.3162  -28.6705 H   0  0  0  0  0  0  0  0  0  0  0  0
   -1.4333   22.8496  -30.2086 H   0  0  0  0  0  0  0  0  0  0  0  0
   -2.1879   24.2420  -26.0029 H   0  0  0  0  0  0  0  0  0  0  0  0
   -0.6381   23.5319  -26.5693 H   0  0  0  0  0  0  0  0  0  0  0  0
   -0.8626   25.3142  -26.5693 H   0  0  0  0  0  0  0  0  0  0  0  0
   -5.3638   20.1828  -31.7201 H   0  0  0  0  0  0  0  0  0  0  0  0
  1  2  1  0
  2  3  1  0
  2  4  1  0
  4  5  2  0
  4  6  1  0
  6  7  1  0
  7  8  1  0
  8  9  2  0
  8 10  1  0
 10 11  1  0
 11 12  2  0
 12 13  1  0
 13 14  2  0
 14 15  1  0
 15 16  2  0
 16 17  1  0
 17 18  1  0
 17 19  2  0
 16 20  1  0
 20 21  1  0
 21 22  2  0
 21 23  1  0
 23 24  1  0
 24 25  2  0
 24 26  1  0
 26 27  1  0
 27 28  1  0
 27 29  2  0
 27 30  2  0
 20 31  1  0
 31 32  2  0
 32 11  1  0
 31 14  1  0
  1 33  1  0
  1 34  1  0
  1 35  1  0
  3 36  1  0
  3 37  1  0
  3 38  1  0
  6 39  1  0
  6 40  1  0
 10 41  1  0
 10 42  1  0
 12 43  1  0
 13 44  1  0
 15 45  1  0
 18 46  1  0
 26 47  1  0
 26 48  1  0
 28 49  1  0
 28 50  1  0
 28 51  1  0
 32 52  1  0
M  CHG  1  18  -1
M  END
>  <UniqueID>  (79) 
79

>  <SMILES>  (79) 
CN(C)C(=O)COC(=O)Cc1ccc2cc(C([NH-])=O)n(C(=O)OC(=O)CS(C)(=O)=O)c2c1

>  <Energy>  (79) 
75.73445529420208

>  <Genealogy>  (79) 
CN(C)C(=O)COC(=O)Cc1ccc2cc(C([NH-])=O)n(C(=O)OC(=O)CS(C)(=O)=O)c2c1 (protonated)
CN(C)C(=O)COC(=O)Cc1ccc2cc(C([NH-])=O)n(C(=O)OC(=O)CS(C)(=O)=O)c2c1 (3D coordinates assigned)
CN(C)C(=O)COC(=O)Cc1ccc2cc(C([NH-])=O)n(C(=O)OC(=O)CS(C)(=O)=O)c2c1 (optimized conformer: 75.73445529420208 kcal/mol)

>  <smiles>  (79) 
CN(C)C(=O)COC(=O)Cc1ccc2cc(C(N)=O)n(C(=O)OC(=O)CS(C)(=O)=O)c2c1

>  <score_type>  (79) 
oracle

>  <origin>  (79) 
adg

>  <m_score__min__energy>  (79) 
-11.609999999999999

>  <m_primary>  (79) 
energy

$$$$
79:0
     RDKit          3D

 47 48  0  0  0  0  0  0  0  0999 V2000
   -2.4500   22.4260  -27.3720 C   0  0  0  0  0  0  0  0  0  0  0  0
   -3.0750   23.1760  -28.5520 C   0  0  2  0  0  0  0  0  0  0  0  0
   -3.5640   22.2530  -29.5250 O   0  0  0  0  0  0  0  0  0  0  0  0
   -4.0060   22.6300  -30.7990 C   0  0  0  0  0  0  0  0  0  0  0  0
   -3.1730   22.8190  -31.7280 O   0  0  0  0  0  0  0  0  0  0  0  0
   -5.4100   22.8210  -31.0450 N   0  0  0  0  0  0  0  0  0  0  0  0
   -6.1510   23.9390  -30.7990 C   0  0  0  0  0  0  0  0  0  0  0  0
   -5.6130   25.2590  -30.4040 C   0  0  0  0  0  0  0  0  0  0  0  0
   -4.2430   25.5910  -30.6450 N   0  0  0  0  0  0  0  0  0  0  0  0
   -6.3520   26.0940  -29.8160 O   0  0  0  0  0  0  0  0  0  0  0  0
   -7.4980   23.7020  -31.0640 C   0  0  0  0  0  0  0  0  0  0  0  0
   -7.5610   22.3950  -31.4880 C   0  0  0  0  0  0  0  0  0  0  0  0
   -8.6610   21.6330  -31.8650 C   0  0  0  0  0  0  0  0  0  0  0  0
   -8.4410   20.2960  -32.2340 C   0  0  0  0  0  0  0  0  0  0  0  0
   -7.1360   19.7460  -32.2270 C   0  0  0  0  0  0  0  0  0  0  0  0
   -6.9560   18.3730  -32.6250 N   0  0  0  0  0  0  0  0  0  0  0  0
   -6.4710   17.3110  -31.7410 C   0  0  0  0  0  0  0  0  0  0  0  0
   -5.4940   16.3920  -32.4900 C   0  0  0  0  0  0  0  0  0  0  0  0
   -5.7690   16.3880  -33.9430 N   0  0  0  0  0  0  0  0  0  0  0  0
   -4.5320   16.1940  -34.7200 C   0  0  0  0  0  0  0  0  0  0  0  0
   -6.7190   15.3110  -34.2700 C   0  0  0  0  0  0  0  0  0  0  0  0
   -6.0420   20.5510  -31.8220 C   0  0  0  0  0  0  0  0  0  0  0  0
   -6.2890   21.8850  -31.4710 C   0  0  0  0  0  0  0  0  0  0  0  0
   -2.0540   24.0620  -29.2010 C   0  0  0  0  0  0  0  0  0  0  0  0
   -2.2850   25.2920  -29.3420 O   0  0  0  0  0  0  0  0  0  0  0  0
   -0.8660   23.5270  -29.6800 O   0  0  0  0  0  0  0  0  0  0  0  0
   -2.8119   22.8603  -26.4284 H   0  0  0  0  0  0  0  0  0  0  0  0
   -2.7346   21.3645  -27.4200 H   0  0  0  0  0  0  0  0  0  0  0  0
   -1.3546   22.5145  -27.4200 H   0  0  0  0  0  0  0  0  0  0  0  0
   -3.9074   23.7843  -28.1685 H   0  0  0  0  0  0  0  0  0  0  0  0
   -3.8630   26.5090  -30.3260 H   0  0  0  0  0  0  0  0  0  0  0  0
   -3.6150   24.9470  -31.1730 H   0  0  0  0  0  0  0  0  0  0  0  0
   -8.3334   24.4095  -30.9569 H   0  0  0  0  0  0  0  0  0  0  0  0
   -9.6729   22.0642  -31.8740 H   0  0  0  0  0  0  0  0  0  0  0  0
   -9.2933   19.6678  -32.5323 H   0  0  0  0  0  0  0  0  0  0  0  0
   -7.1220   18.1220  -33.6270 H   0  0  0  0  0  0  0  0  0  0  0  0
   -5.9555   17.7632  -30.8809 H   0  0  0  0  0  0  0  0  0  0  0  0
   -7.3289   16.7141  -31.3979 H   0  0  0  0  0  0  0  0  0  0  0  0
   -4.4666   16.7466  -32.3205 H   0  0  0  0  0  0  0  0  0  0  0  0
   -5.6191   15.3675  -32.1095 H   0  0  0  0  0  0  0  0  0  0  0  0
   -3.6840   16.0610  -34.0321 H   0  0  0  0  0  0  0  0  0  0  0  0
   -4.6335   15.3008  -35.3539 H   0  0  0  0  0  0  0  0  0  0  0  0
   -4.3552   17.0754  -35.3539 H   0  0  0  0  0  0  0  0  0  0  0  0
   -7.1078   14.8702  -33.3402 H   0  0  0  0  0  0  0  0  0  0  0  0
   -7.5529   15.7233  -34.8570 H   0  0  0  0  0  0  0  0  0  0  0  0
   -6.2058   14.5351  -34.8570 H   0  0  0  0  0  0  0  0  0  0  0  0
   -5.0230   20.1383  -31.7841 H   0  0  0  0  0  0  0  0  0  0  0  0
  1  2  1  0
  2  3  1  0
  3  4  1  0
  4  5  2  0
  4  6  1  0
  6  7  1  0
  7  8  1  0
  8  9  1  0
  8 10  2  0
  7 11  2  0
 11 12  1  0
 12 13  2  0
 13 14  1  0
 14 15  2  0
 15 16  1  0
 16 17  1  0
 17 18  1  0
 18 19  1  0
 19 20  1  0
 19 21  1  0
 15 22  1  0
 22 23  2  0
  2 24  1  0
 24 25  2  0
 24 26  1  0
 23  6  1  0
 23 12  1  0
  1 27  1  0
  1 28  1  0
  1 29  1  0
  2 30  1  1
  9 31  1  0
  9 32  1  0
 11 33  1  0
 13 34  1  0
 14 35  1  0
 16 36  1  0
 17 37  1  0
 17 38  1  0
 18 39  1  0
 18 40  1  0
 20 41  1  0
 20 42  1  0
 20 43  1  0
 21 44  1  0
 21 45  1  0
 21 46  1  0
 22 47  1  0
M  CHG  1  26  -1
M  END
>  <UniqueID>  (80) 
80

>  <SMILES>  (80) 
C[C@H](OC(=O)n1c(C(N)=O)cc2ccc(NCCN(C)C)cc21)C(=O)[O-]

>  <Energy>  (80) 
78.71566721813498

>  <Genealogy>  (80) 
CC(OC(=O)n1c(C(N)=O)cc2ccc(NCCN(C)C)cc21)C(=O)[O-] (protonated)
C[C@H](OC(=O)n1c(C(N)=O)cc2ccc(NCCN(C)C)cc21)C(=O)[O-] (chirality)
C[C@H](OC(=O)n1c(C(N)=O)cc2ccc(NCCN(C)C)cc21)C(=O)[O-] (3D coordinates assigned)
C[C@H](OC(=O)n1c(C(N)=O)cc2ccc(NCCN(C)C)cc21)C(=O)[O-] (optimized conformer: 78.71566721813498 kcal/mol)

>  <smiles>  (80) 
CC(OC(=O)n1c(C(N)=O)cc2ccc(NCCN(C)C)cc21)C(=O)O

>  <score_type>  (80) 
oracle

>  <origin>  (80) 
adg

>  <m_score__min__energy>  (80) 
-10.67

>  <m_primary>  (80) 
energy

$$$$
80:0
     RDKit          3D

 34 35  0  0  0  0  0  0  0  0999 V2000
   -1.5280   22.5580  -30.7700 C   0  0  0  0  0  0  0  0  0  0  0  0
   -2.1020   22.0930  -29.6590 C   0  0  0  0  0  0  0  0  0  0  0  0
   -1.3300   22.4400  -28.0710 S   0  0  0  0  0  0  0  0  0  0  0  0
   -1.9320   24.1630  -27.9600 C   0  0  0  0  0  0  0  0  0  0  0  0
   -0.8980   25.0930  -28.5020 C   0  0  0  0  0  0  0  0  0  0  0  0
   -1.2390   26.0550  -29.2390 O   0  0  0  0  0  0  0  0  0  0  0  0
    0.4420   24.9040  -28.1910 O   0  0  0  0  0  0  0  0  0  0  0  0
   -3.3580   21.3110  -29.7050 C   0  0  0  0  0  0  0  0  0  0  0  0
   -3.4790   20.2510  -29.0340 O   0  0  0  0  0  0  0  0  0  0  0  0
   -4.4380   21.7340  -30.5450 N   0  0  0  0  0  0  0  0  0  0  0  0
   -4.9680   22.9810  -30.6640 C   0  0  0  0  0  0  0  0  0  0  0  0
   -4.5540   24.1740  -29.8930 C   0  0  0  0  0  0  0  0  0  0  0  0
   -3.8440   25.2410  -30.5170 N   0  0  0  0  0  0  0  0  0  0  0  0
   -4.8250   24.2500  -28.6650 O   0  0  0  0  0  0  0  0  0  0  0  0
   -5.9810   22.9860  -31.6220 C   0  0  0  0  0  0  0  0  0  0  0  0
   -6.0510   21.6900  -32.0860 C   0  0  0  0  0  0  0  0  0  0  0  0
   -6.8630   21.1270  -33.0650 C   0  0  0  0  0  0  0  0  0  0  0  0
   -6.6910   19.7630  -33.3600 C   0  0  0  0  0  0  0  0  0  0  0  0
   -5.7280   18.9850  -32.6630 C   0  0  0  0  0  0  0  0  0  0  0  0
   -5.4980   17.5410  -33.0290 C   0  0  0  0  0  0  0  0  0  0  0  0
   -5.8810   16.7390  -31.9690 F   0  0  0  0  0  0  0  0  0  0  0  0
   -6.2420   17.2020  -34.1450 F   0  0  0  0  0  0  0  0  0  0  0  0
   -4.1620   17.3050  -33.3100 F   0  0  0  0  0  0  0  0  0  0  0  0
   -4.9150   19.5990  -31.6840 C   0  0  0  0  0  0  0  0  0  0  0  0
   -5.1100   20.9550  -31.4150 C   0  0  0  0  0  0  0  0  0  0  0  0
   -1.9843   22.3567  -31.7505 H   0  0  0  0  0  0  0  0  0  0  0  0
   -0.5985   23.1427  -30.7055 H   0  0  0  0  0  0  0  0  0  0  0  0
   -2.8581   24.2651  -28.5447 H   0  0  0  0  0  0  0  0  0  0  0  0
   -2.1304   24.4125  -26.9072 H   0  0  0  0  0  0  0  0  0  0  0  0
   -2.8010   25.2840  -30.4850 H   0  0  0  0  0  0  0  0  0  0  0  0
   -6.5940   23.8422  -31.9399 H   0  0  0  0  0  0  0  0  0  0  0  0
   -7.6166   21.7304  -33.5923 H   0  0  0  0  0  0  0  0  0  0  0  0
   -7.3090   19.2930  -34.1392 H   0  0  0  0  0  0  0  0  0  0  0  0
   -4.1472   19.0227  -31.1469 H   0  0  0  0  0  0  0  0  0  0  0  0
  1  2  2  0
  2  3  1  0
  3  4  1  0
  4  5  1  0
  5  6  2  0
  5  7  1  0
  2  8  1  0
  8  9  2  0
  8 10  1  0
 10 11  1  0
 11 12  1  0
 12 13  1  0
 12 14  2  0
 11 15  2  0
 15 16  1  0
 16 17  2  0
 17 18  1  0
 18 19  2  0
 19 20  1  0
 20 21  1  0
 20 22  1  0
 20 23  1  0
 19 24  1  0
 24 25  2  0
 25 10  1  0
 25 16  1  0
  1 26  1  0
  1 27  1  0
  4 28  1  0
  4 29  1  0
 13 30  1  0
 15 31  1  0
 17 32  1  0
 18 33  1  0
 24 34  1  0
M  CHG  2   7  -1  13  -1
M  END
>  <UniqueID>  (81) 
81

>  <SMILES>  (81) 
C=C(SCC(=O)[O-])C(=O)n1c(C([NH-])=O)cc2ccc(C(F)(F)F)cc21

>  <Energy>  (81) 
69.84145176938678

>  <Genealogy>  (81) 
C=C(SCC(=O)[O-])C(=O)n1c(C([NH-])=O)cc2ccc(C(F)(F)F)cc21 (protonated)
C=C(SCC(=O)[O-])C(=O)n1c(C([NH-])=O)cc2ccc(C(F)(F)F)cc21 (3D coordinates assigned)
C=C(SCC(=O)[O-])C(=O)n1c(C([NH-])=O)cc2ccc(C(F)(F)F)cc21 (optimized conformer: 69.84145176938678 kcal/mol)

>  <smiles>  (81) 
C=C(SCC(=O)O)C(=O)n1c(C(N)=O)cc2ccc(C(F)(F)F)cc21

>  <score_type>  (81) 
oracle

>  <origin>  (81) 
adg

>  <m_score__min__energy>  (81) 
-12.66

>  <m_primary>  (81) 
energy

$$$$
81:0
     RDKit          3D

 37 38  0  0  0  0  0  0  0  0999 V2000
   -3.8920   23.0040  -28.1520 C   0  0  0  0  0  0  0  0  0  0  0  0
   -3.4810   22.1850  -29.1200 C   0  0  0  0  0  0  0  0  0  0  0  0
   -3.0900   22.6320  -30.3920 O   0  0  0  0  0  0  0  0  0  0  0  0
   -3.9000   22.6410  -31.5360 C   0  0  0  0  0  0  0  0  0  0  0  0
   -3.4290   22.3160  -32.6600 O   0  0  0  0  0  0  0  0  0  0  0  0
   -5.2990   22.9450  -31.4110 N   0  0  0  0  0  0  0  0  0  0  0  0
   -5.8590   24.0750  -30.8940 C   0  0  0  0  0  0  0  0  0  0  0  0
   -5.1330   25.2950  -30.4860 C   0  0  0  0  0  0  0  0  0  0  0  0
   -3.7080   25.3000  -30.4670 N   0  0  0  0  0  0  0  0  0  0  0  0
   -5.7580   26.3250  -30.1190 O   0  0  0  0  0  0  0  0  0  0  0  0
   -7.2480   23.9650  -30.8730 C   0  0  0  0  0  0  0  0  0  0  0  0
   -7.5240   22.7260  -31.4030 C   0  0  0  0  0  0  0  0  0  0  0  0
   -8.7450   22.0930  -31.6080 C   0  0  0  0  0  0  0  0  0  0  0  0
   -8.7340   20.7970  -32.1500 C   0  0  0  0  0  0  0  0  0  0  0  0
   -7.5080   20.1540  -32.4720 C   0  0  0  0  0  0  0  0  0  0  0  0
   -7.4710   18.8220  -33.0190 N   0  0  0  0  0  0  0  0  0  0  0  0
   -6.9500   17.6510  -32.3120 C   0  0  0  0  0  0  0  0  0  0  0  0
   -6.4170   16.6460  -33.2850 C   0  0  0  0  0  0  0  0  0  0  0  0
   -6.6810   16.7630  -34.5130 O   0  0  0  0  0  0  0  0  0  0  0  0
   -5.6580   15.5700  -32.8180 O   0  0  0  0  0  0  0  0  0  0  0  0
   -4.2350   15.5850  -32.8070 C   0  0  0  0  0  0  0  0  0  0  0  0
   -6.2900   20.8330  -32.2440 C   0  0  0  0  0  0  0  0  0  0  0  0
   -6.3320   22.1300  -31.7210 C   0  0  0  0  0  0  0  0  0  0  0  0
   -4.1863   22.5955  -27.1740 H   0  0  0  0  0  0  0  0  0  0  0  0
   -3.9369   24.0884  -28.3312 H   0  0  0  0  0  0  0  0  0  0  0  0
   -3.4465   21.1054  -28.9118 H   0  0  0  0  0  0  0  0  0  0  0  0
   -3.1600   24.6860  -31.1090 H   0  0  0  0  0  0  0  0  0  0  0  0
   -7.9704   24.7107  -30.5097 H   0  0  0  0  0  0  0  0  0  0  0  0
   -9.6915   22.5923  -31.3533 H   0  0  0  0  0  0  0  0  0  0  0  0
   -9.6852   20.2738  -32.3273 H   0  0  0  0  0  0  0  0  0  0  0  0
   -7.8490   18.6670  -33.9820 H   0  0  0  0  0  0  0  0  0  0  0  0
   -6.1406   17.9660  -31.6370 H   0  0  0  0  0  0  0  0  0  0  0  0
   -7.7662   17.1906  -31.7360 H   0  0  0  0  0  0  0  0  0  0  0  0
   -3.8764   15.5888  -31.7671 H   0  0  0  0  0  0  0  0  0  0  0  0
   -3.8549   14.6908  -33.3227 H   0  0  0  0  0  0  0  0  0  0  0  0
   -3.8738   16.4870  -33.3227 H   0  0  0  0  0  0  0  0  0  0  0  0
   -5.3279   20.3515  -32.4731 H   0  0  0  0  0  0  0  0  0  0  0  0
  1  2  2  0
  2  3  1  0
  3  4  1  0
  4  5  2  0
  4  6  1  0
  6  7  1  0
  7  8  1  0
  8  9  1  0
  8 10  2  0
  7 11  2  0
 11 12  1  0
 12 13  2  0
 13 14  1  0
 14 15  2  0
 15 16  1  0
 16 17  1  0
 17 18  1  0
 18 19  2  0
 18 20  1  0
 20 21  1  0
 15 22  1  0
 22 23  2  0
 23  6  1  0
 23 12  1  0
  1 24  1  0
  1 25  1  0
  2 26  1  0
  9 27  1  0
 11 28  1  0
 13 29  1  0
 14 30  1  0
 16 31  1  0
 17 32  1  0
 17 33  1  0
 21 34  1  0
 21 35  1  0
 21 36  1  0
 22 37  1  0
M  CHG  1   9  -1
M  END
>  <UniqueID>  (82) 
82

>  <SMILES>  (82) 
C=COC(=O)n1c(C([NH-])=O)cc2ccc(NCC(=O)OC)cc21

>  <Energy>  (82) 
75.75273030275882

>  <Genealogy>  (82) 
C=COC(=O)n1c(C([NH-])=O)cc2ccc(NCC(=O)OC)cc21 (protonated)
C=COC(=O)n1c(C([NH-])=O)cc2ccc(NCC(=O)OC)cc21 (3D coordinates assigned)
C=COC(=O)n1c(C([NH-])=O)cc2ccc(NCC(=O)OC)cc21 (optimized conformer: 75.75273030275882 kcal/mol)

>  <smiles>  (82) 
C=COC(=O)n1c(C(N)=O)cc2ccc(NCC(=O)OC)cc21

>  <score_type>  (82) 
oracle

>  <origin>  (82) 
adg

>  <m_score__min__energy>  (82) 
-9.1999999999999993

>  <m_primary>  (82) 
energy

$$$$
82:0
     RDKit          3D

 34 35  0  0  0  0  0  0  0  0999 V2000
   -4.1200   24.2200  -27.4270 C   0  0  0  0  0  0  0  0  0  0  0  0
   -3.1110   24.6210  -28.3470 O   0  0  0  0  0  0  0  0  0  0  0  0
   -2.2250   23.7150  -28.9340 C   0  0  0  0  0  0  0  0  0  0  0  0
   -1.2800   24.1190  -29.6670 O   0  0  0  0  0  0  0  0  0  0  0  0
   -2.4320   22.2530  -28.7290 C   0  0  0  0  0  0  0  0  0  0  0  0
   -3.3320   21.7680  -29.7190 O   0  0  0  0  0  0  0  0  0  0  0  0
   -3.7600   22.5440  -30.7990 C   0  0  0  0  0  0  0  0  0  0  0  0
   -2.9190   23.0490  -31.5910 O   0  0  0  0  0  0  0  0  0  0  0  0
   -5.1630   22.7820  -30.9940 N   0  0  0  0  0  0  0  0  0  0  0  0
   -5.8160   23.9780  -30.9510 C   0  0  0  0  0  0  0  0  0  0  0  0
   -5.2400   25.2680  -30.5180 C   0  0  0  0  0  0  0  0  0  0  0  0
   -3.8910   25.6090  -30.8280 N   0  0  0  0  0  0  0  0  0  0  0  0
   -5.9330   26.0580  -29.8230 O   0  0  0  0  0  0  0  0  0  0  0  0
   -7.1540   23.8170  -31.3040 C   0  0  0  0  0  0  0  0  0  0  0  0
   -7.3060   22.4730  -31.5570 C   0  0  0  0  0  0  0  0  0  0  0  0
   -8.4300   21.7620  -31.9670 C   0  0  0  0  0  0  0  0  0  0  0  0
   -8.2900   20.3820  -32.1910 C   0  0  0  0  0  0  0  0  0  0  0  0
   -7.0400   19.7430  -32.0010 C   0  0  0  0  0  0  0  0  0  0  0  0
   -6.8910   18.2800  -32.2930 C   0  0  0  0  0  0  0  0  0  0  0  0
   -5.7260   18.0080  -34.0610 I   0  0  0  0  0  0  0  0  0  0  0  0
   -5.9170   20.5000  -31.5970 C   0  0  0  0  0  0  0  0  0  0  0  0
   -6.0900   21.8700  -31.3630 C   0  0  0  0  0  0  0  0  0  0  0  0
   -3.7569   24.3643  -26.3987 H   0  0  0  0  0  0  0  0  0  0  0  0
   -5.0232   24.8275  -27.5856 H   0  0  0  0  0  0  0  0  0  0  0  0
   -4.3598   23.1582  -27.5856 H   0  0  0  0  0  0  0  0  0  0  0  0
   -1.4692   21.7284  -28.8175 H   0  0  0  0  0  0  0  0  0  0  0  0
   -2.8505   22.0743  -27.7275 H   0  0  0  0  0  0  0  0  0  0  0  0
   -3.1000   24.9980  -30.5240 H   0  0  0  0  0  0  0  0  0  0  0  0
   -7.9254   24.5986  -31.3671 H   0  0  0  0  0  0  0  0  0  0  0  0
   -9.3977   22.2647  -32.1112 H   0  0  0  0  0  0  0  0  0  0  0  0
   -9.1593   19.7921  -32.5170 H   0  0  0  0  0  0  0  0  0  0  0  0
   -6.3896   17.7882  -31.4464 H   0  0  0  0  0  0  0  0  0  0  0  0
   -7.8866   17.8371  -32.4433 H   0  0  0  0  0  0  0  0  0  0  0  0
   -4.9328   20.0256  -31.4697 H   0  0  0  0  0  0  0  0  0  0  0  0
  1  2  1  0
  2  3  1  0
  3  4  2  0
  3  5  1  0
  5  6  1  0
  6  7  1  0
  7  8  2  0
  7  9  1  0
  9 10  1  0
 10 11  1  0
 11 12  1  0
 11 13  2  0
 10 14  2  0
 14 15  1  0
 15 16  2  0
 16 17  1  0
 17 18  2  0
 18 19  1  0
 19 20  1  0
 18 21  1  0
 21 22  2  0
 22  9  1  0
 22 15  1  0
  1 23  1  0
  1 24  1  0
  1 25  1  0
  5 26  1  0
  5 27  1  0
 12 28  1  0
 14 29  1  0
 16 30  1  0
 17 31  1  0
 19 32  1  0
 19 33  1  0
 21 34  1  0
M  CHG  1  12  -1
M  END
>  <UniqueID>  (83) 
83

>  <SMILES>  (83) 
COC(=O)COC(=O)n1c(C([NH-])=O)cc2ccc(CI)cc21

>  <Energy>  (83) 
66.40567434931555

>  <Genealogy>  (83) 
COC(=O)COC(=O)n1c(C([NH-])=O)cc2ccc(CI)cc21 (protonated)
COC(=O)COC(=O)n1c(C([NH-])=O)cc2ccc(CI)cc21 (3D coordinates assigned)
COC(=O)COC(=O)n1c(C([NH-])=O)cc2ccc(CI)cc21 (optimized conformer: 66.40567434931555 kcal/mol)

>  <smiles>  (83) 
COC(=O)COC(=O)n1c(C(N)=O)cc2ccc(CI)cc21

>  <score_type>  (83) 
oracle

>  <origin>  (83) 
adg

>  <m_score__min__energy>  (83) 
-10.58

>  <m_primary>  (83) 
energy

$$$$
83:0
     RDKit          3D

 45 46  0  0  0  0  0  0  0  0999 V2000
   -6.9720   18.3530  -32.8470 C   0  0  0  0  0  0  0  0  0  0  0  0
   -7.1970   19.7520  -32.3560 C   0  0  0  0  0  0  0  0  0  0  0  0
   -8.5110   20.2780  -32.2860 C   0  0  0  0  0  0  0  0  0  0  0  0
   -8.7330   21.6000  -31.8650 C   0  0  0  0  0  0  0  0  0  0  0  0
   -7.6230   22.3710  -31.5280 C   0  0  0  0  0  0  0  0  0  0  0  0
   -7.5460   23.6730  -31.0870 C   0  0  0  0  0  0  0  0  0  0  0  0
   -6.1840   23.9240  -30.9010 C   0  0  0  0  0  0  0  0  0  0  0  0
   -5.6140   25.2000  -30.4000 C   0  0  0  0  0  0  0  0  0  0  0  0
   -4.2510   25.5540  -30.6530 N   0  0  0  0  0  0  0  0  0  0  0  0
   -6.3350   25.9980  -29.7460 O   0  0  0  0  0  0  0  0  0  0  0  0
   -5.4590   22.8100  -31.2070 N   0  0  0  0  0  0  0  0  0  0  0  0
   -4.0330   22.6530  -31.1670 C   0  0  0  0  0  0  0  0  0  0  0  0
   -3.3530   23.0090  -32.1660 O   0  0  0  0  0  0  0  0  0  0  0  0
   -3.3810   22.0940  -30.0040 N   0  0  0  0  0  0  0  0  0  0  0  0
   -3.0240   22.9660  -28.8770 C   0  0  0  0  0  0  0  0  0  0  0  0
   -1.9720   23.9430  -29.2940 C   0  0  0  0  0  0  0  0  0  0  0  0
   -0.8250   23.5390  -29.6190 O   0  0  0  0  0  0  0  0  0  0  0  0
   -2.2720   25.2960  -29.3690 O   0  0  0  0  0  0  0  0  0  0  0  0
   -3.1220   20.6480  -29.9080 C   0  0  0  0  0  0  0  0  0  0  0  0
   -2.4510   20.1380  -31.1570 C   0  0  0  0  0  0  0  0  0  0  0  0
   -3.1640   19.8080  -32.1420 O   0  0  0  0  0  0  0  0  0  0  0  0
   -1.0310   19.9760  -31.2530 N   0  0  0  0  0  0  0  0  0  0  0  0
   -0.3160   19.5290  -32.4420 C   0  0  0  0  0  0  0  0  0  0  0  0
   -0.4230   20.5870  -33.5340 C   0  0  0  0  0  0  0  0  0  0  0  0
   -1.0060   21.7560  -33.0220 O   0  0  0  0  0  0  0  0  0  0  0  0
   -6.3490   21.8760  -31.5950 C   0  0  0  0  0  0  0  0  0  0  0  0
   -6.0950   20.5690  -32.0230 C   0  0  0  0  0  0  0  0  0  0  0  0
   -6.8631   17.6757  -31.9871 H   0  0  0  0  0  0  0  0  0  0  0  0
   -7.8307   18.0359  -33.4570 H   0  0  0  0  0  0  0  0  0  0  0  0
   -6.0572   18.3212  -33.4570 H   0  0  0  0  0  0  0  0  0  0  0  0
   -9.3662   19.6446  -32.5642 H   0  0  0  0  0  0  0  0  0  0  0  0
   -9.7507   22.0128  -31.8035 H   0  0  0  0  0  0  0  0  0  0  0  0
   -8.3807   24.3690  -30.9169 H   0  0  0  0  0  0  0  0  0  0  0  0
   -3.6120   24.9430  -31.2040 H   0  0  0  0  0  0  0  0  0  0  0  0
   -3.8780   26.4620  -30.2960 H   0  0  0  0  0  0  0  0  0  0  0  0
   -3.9177   23.5142  -28.5443 H   0  0  0  0  0  0  0  0  0  0  0  0
   -2.6347   22.3483  -28.0542 H   0  0  0  0  0  0  0  0  0  0  0  0
   -2.4688   20.4557  -29.0441 H   0  0  0  0  0  0  0  0  0  0  0  0
   -4.0827   20.1261  -29.7870 H   0  0  0  0  0  0  0  0  0  0  0  0
    0.7430   19.3669  -32.1925 H   0  0  0  0  0  0  0  0  0  0  0  0
   -0.7590   18.5885  -32.8014 H   0  0  0  0  0  0  0  0  0  0  0  0
    0.5827   20.8193  -33.9144 H   0  0  0  0  0  0  0  0  0  0  0  0
   -1.0528   20.1993  -34.3483 H   0  0  0  0  0  0  0  0  0  0  0  0
   -1.8580   21.4820  -32.5920 H   0  0  0  0  0  0  0  0  0  0  0  0
   -5.0657   20.1884  -32.0980 H   0  0  0  0  0  0  0  0  0  0  0  0
  1  2  1  0
  2  3  2  0
  3  4  1  0
  4  5  2  0
  5  6  1  0
  6  7  2  0
  7  8  1  0
  8  9  1  0
  8 10  2  0
  7 11  1  0
 11 12  1  0
 12 13  2  0
 12 14  1  0
 14 15  1  0
 15 16  1  0
 16 17  2  0
 16 18  1  0
 14 19  1  0
 19 20  1  0
 20 21  2  0
 20 22  1  0
 22 23  1  0
 23 24  1  0
 24 25  1  0
 11 26  1  0
 26 27  2  0
 27  2  1  0
 26  5  1  0
  1 28  1  0
  1 29  1  0
  1 30  1  0
  3 31  1  0
  4 32  1  0
  6 33  1  0
  9 34  1  0
  9 35  1  0
 15 36  1  0
 15 37  1  0
 19 38  1  0
 19 39  1  0
 23 40  1  0
 23 41  1  0
 24 42  1  0
 24 43  1  0
 25 44  1  0
 27 45  1  0
M  CHG  2  18  -1  22  -1
M  END
>  <UniqueID>  (84) 
84

>  <SMILES>  (84) 
Cc1ccc2cc(C(N)=O)n(C(=O)N(CC(=O)[O-])CC(=O)[N-]CCO)c2c1

>  <Energy>  (84) 
73.49241758200912

>  <Genealogy>  (84) 
Cc1ccc2cc(C(N)=O)n(C(=O)N(CC(=O)[O-])CC(=O)[N-]CCO)c2c1 (protonated)
Cc1ccc2cc(C(N)=O)n(C(=O)N(CC(=O)[O-])CC(=O)[N-]CCO)c2c1 (3D coordinates assigned)
Cc1ccc2cc(C(N)=O)n(C(=O)N(CC(=O)[O-])CC(=O)[N-]CCO)c2c1 (optimized conformer: 73.49241758200912 kcal/mol)

>  <smiles>  (84) 
Cc1ccc2cc(C(N)=O)n(C(=O)N(CC(=O)O)CC(=O)NCCO)c2c1

>  <score_type>  (84) 
oracle

>  <origin>  (84) 
adg

>  <m_score__min__energy>  (84) 
-10.42

>  <m_primary>  (84) 
energy

$$$$
84:0
     RDKit          3D

 47 49  0  0  0  0  0  0  0  0999 V2000
   -2.7440   16.8810  -34.1150 C   0  0  0  0  0  0  0  0  0  0  0  0
   -4.0150   16.4330  -34.7100 N   0  0  0  0  0  0  0  0  0  0  0  0
   -4.7620   17.5490  -35.3240 C   0  0  0  0  0  0  0  0  0  0  0  0
   -5.3810   18.5070  -34.2840 C   0  0  0  0  0  0  0  0  0  0  0  0
   -5.8370   17.7890  -32.9890 C   0  0  0  0  0  0  0  0  0  0  0  0
   -7.0370   18.4240  -32.4230 N   0  0  0  0  0  0  0  0  0  0  0  0
   -7.1390   19.8230  -32.0840 C   0  0  0  0  0  0  0  0  0  0  0  0
   -8.4140   20.4450  -32.1250 C   0  0  0  0  0  0  0  0  0  0  0  0
   -8.5650   21.8050  -31.8170 C   0  0  0  0  0  0  0  0  0  0  0  0
   -7.4290   22.5250  -31.4640 C   0  0  0  0  0  0  0  0  0  0  0  0
   -7.2880   23.8560  -31.1460 C   0  0  0  0  0  0  0  0  0  0  0  0
   -5.9300   24.0330  -30.8930 C   0  0  0  0  0  0  0  0  0  0  0  0
   -5.3470   25.3110  -30.4340 C   0  0  0  0  0  0  0  0  0  0  0  0
   -4.0290   25.6750  -30.8420 N   0  0  0  0  0  0  0  0  0  0  0  0
   -6.0100   26.1030  -29.7140 O   0  0  0  0  0  0  0  0  0  0  0  0
   -5.2560   22.8590  -31.0550 N   0  0  0  0  0  0  0  0  0  0  0  0
   -3.8400   22.6410  -30.9570 C   0  0  0  0  0  0  0  0  0  0  0  0
   -3.2240   22.0660  -31.8960 O   0  0  0  0  0  0  0  0  0  0  0  0
   -3.1460   23.0810  -29.8250 O   0  0  0  0  0  0  0  0  0  0  0  0
   -1.7350   22.9630  -29.6930 C   0  0  0  0  0  0  0  0  0  0  0  0
   -1.1670   24.2860  -29.3010 C   0  0  0  0  0  0  0  0  0  0  0  0
   -1.8930   25.3170  -29.3150 O   0  0  0  0  0  0  0  0  0  0  0  0
    0.1540   24.3760  -28.8770 O   0  0  0  0  0  0  0  0  0  0  0  0
   -6.1890   21.9440  -31.4040 C   0  0  0  0  0  0  0  0  0  0  0  0
   -6.0050   20.5950  -31.7260 C   0  0  0  0  0  0  0  0  0  0  0  0
   -6.1030   16.3050  -33.2670 C   0  0  0  0  0  0  0  0  0  0  0  0
   -4.8260   15.6090  -33.7740 C   0  0  0  0  0  0  0  0  0  0  0  0
   -2.8227   16.8533  -33.0182 H   0  0  0  0  0  0  0  0  0  0  0  0
   -1.9315   16.2151  -34.4413 H   0  0  0  0  0  0  0  0  0  0  0  0
   -2.5287   17.9092  -34.4413 H   0  0  0  0  0  0  0  0  0  0  0  0
   -4.0734   18.1223  -35.9620 H   0  0  0  0  0  0  0  0  0  0  0  0
   -5.5900   17.1116  -35.9012 H   0  0  0  0  0  0  0  0  0  0  0  0
   -4.6307   19.2659  -34.0174 H   0  0  0  0  0  0  0  0  0  0  0  0
   -6.2754   18.9539  -34.7425 H   0  0  0  0  0  0  0  0  0  0  0  0
   -5.0258   17.8740  -32.2509 H   0  0  0  0  0  0  0  0  0  0  0  0
   -7.8760   17.8290  -32.2330 H   0  0  0  0  0  0  0  0  0  0  0  0
   -9.2974   19.8513  -32.4026 H   0  0  0  0  0  0  0  0  0  0  0  0
   -9.5528   22.2877  -31.8536 H   0  0  0  0  0  0  0  0  0  0  0  0
   -8.0796   24.6184  -31.1011 H   0  0  0  0  0  0  0  0  0  0  0  0
   -3.1940   25.1650  -30.4750 H   0  0  0  0  0  0  0  0  0  0  0  0
   -1.4988   22.2174  -28.9195 H   0  0  0  0  0  0  0  0  0  0  0  0
   -1.2995   22.6428  -30.6510 H   0  0  0  0  0  0  0  0  0  0  0  0
   -5.0024   20.1432  -31.7019 H   0  0  0  0  0  0  0  0  0  0  0  0
   -6.4356   15.8176  -32.3387 H   0  0  0  0  0  0  0  0  0  0  0  0
   -6.8810   16.2239  -34.0404 H   0  0  0  0  0  0  0  0  0  0  0  0
   -4.2009   15.3583  -32.9043 H   0  0  0  0  0  0  0  0  0  0  0  0
   -5.1509   14.7201  -34.3346 H   0  0  0  0  0  0  0  0  0  0  0  0
  1  2  1  0
  2  3  1  0
  3  4  1  0
  4  5  1  0
  5  6  1  0
  6  7  1  0
  7  8  2  0
  8  9  1  0
  9 10  2  0
 10 11  1  0
 11 12  2  0
 12 13  1  0
 13 14  1  0
 13 15  2  0
 12 16  1  0
 16 17  1  0
 17 18  2  0
 17 19  1  0
 19 20  1  0
 20 21  1  0
 21 22  2  0
 21 23  1  0
 16 24  1  0
 24 25  2  0
  5 26  1  0
 26 27  1  0
 27  2  1  0
 25  7  1  0
 24 10  1  0
  1 28  1  0
  1 29  1  0
  1 30  1  0
  3 31  1  0
  3 32  1  0
  4 33  1  0
  4 34  1  0
  5 35  1  0
  6 36  1  0
  8 37  1  0
  9 38  1  0
 11 39  1  0
 14 40  1  0
 20 41  1  0
 20 42  1  0
 25 43  1  0
 26 44  1  0
 26 45  1  0
 27 46  1  0
 27 47  1  0
M  CHG  2  14  -1  23  -1
M  END
>  <UniqueID>  (85) 
85

>  <SMILES>  (85) 
CN1CCC(Nc2ccc3cc(C([NH-])=O)n(C(=O)OCC(=O)[O-])c3c2)CC1

>  <Energy>  (85) 
93.0785884186378

>  <Genealogy>  (85) 
CN1CCC(Nc2ccc3cc(C([NH-])=O)n(C(=O)OCC(=O)[O-])c3c2)CC1 (protonated)
CN1CCC(Nc2ccc3cc(C([NH-])=O)n(C(=O)OCC(=O)[O-])c3c2)CC1 (3D coordinates assigned)
CN1CCC(Nc2ccc3cc(C([NH-])=O)n(C(=O)OCC(=O)[O-])c3c2)CC1 (nonaromatic ring conformer: 93.0785884186378 kcal/mol)

>  <smiles>  (85) 
CN1CCC(Nc2ccc3cc(C(N)=O)n(C(=O)OCC(=O)O)c3c2)CC1

>  <score_type>  (85) 
oracle

>  <origin>  (85) 
adg

>  <m_score__min__energy>  (85) 
-13.17

>  <m_primary>  (85) 
energy

$$$$
85:0
     RDKit          3D

 40 41  0  0  0  0  0  0  0  0999 V2000
   -4.1090   23.2860  -27.8630 C   0  0  0  0  0  0  0  0  0  0  0  0
   -3.0570   22.9810  -28.8510 N   0  0  2  0  0  0  0  0  0  0  0  0
   -3.4480   21.8600  -29.7340 C   0  0  0  0  0  0  0  0  0  0  0  0
   -4.0200   22.3490  -31.0400 C   0  0  0  0  0  0  0  0  0  0  0  0
   -3.2560   22.5080  -32.0300 O   0  0  0  0  0  0  0  0  0  0  0  0
   -5.4080   22.7030  -31.1500 N   0  0  0  0  0  0  0  0  0  0  0  0
   -5.9720   23.9400  -31.0400 C   0  0  0  0  0  0  0  0  0  0  0  0
   -5.2730   25.1730  -30.6250 C   0  0  0  0  0  0  0  0  0  0  0  0
   -3.8680   25.2990  -30.8380 N   0  0  0  0  0  0  0  0  0  0  0  0
   -5.9080   26.1320  -30.1130 O   0  0  0  0  0  0  0  0  0  0  0  0
   -7.3430   23.8720  -31.2780 C   0  0  0  0  0  0  0  0  0  0  0  0
   -7.6050   22.5440  -31.5260 C   0  0  0  0  0  0  0  0  0  0  0  0
   -8.8080   21.9050  -31.8100 C   0  0  0  0  0  0  0  0  0  0  0  0
   -8.7820   20.5160  -32.0260 C   0  0  0  0  0  0  0  0  0  0  0  0
   -7.5590   19.7960  -31.9730 C   0  0  0  0  0  0  0  0  0  0  0  0
   -7.5510   18.3020  -32.1670 C   0  0  0  0  0  0  0  0  0  0  0  0
   -6.6580   17.7320  -31.2790 F   0  0  0  0  0  0  0  0  0  0  0  0
   -7.1720   17.9780  -33.4580 F   0  0  0  0  0  0  0  0  0  0  0  0
   -8.8110   17.7740  -31.9410 F   0  0  0  0  0  0  0  0  0  0  0  0
   -6.3630   20.4790  -31.6530 C   0  0  0  0  0  0  0  0  0  0  0  0
   -6.4220   21.8600  -31.4380 C   0  0  0  0  0  0  0  0  0  0  0  0
   -1.8260   22.6510  -28.1590 C   0  0  0  0  0  0  0  0  0  0  0  0
   -1.8160   21.7810  -27.2970 O   0  0  0  0  0  0  0  0  0  0  0  0
   -0.5420   23.3700  -28.4780 C   0  0  0  0  0  0  0  0  0  0  0  0
   -0.7980   24.8350  -28.6230 C   0  0  0  0  0  0  0  0  0  0  0  0
    0.0100   25.6700  -28.1340 O   0  0  0  0  0  0  0  0  0  0  0  0
   -1.9010   25.2820  -29.3390 O   0  0  0  0  0  0  0  0  0  0  0  0
   -3.7033   23.1684  -26.8473 H   0  0  0  0  0  0  0  0  0  0  0  0
   -4.4540   24.3211  -28.0025 H   0  0  0  0  0  0  0  0  0  0  0  0
   -4.9542   22.5959  -28.0025 H   0  0  0  0  0  0  0  0  0  0  0  0
   -2.9080   23.8390  -29.4330 H   0  0  0  0  0  0  0  0  0  0  0  0
   -2.5604   21.2446  -29.9423 H   0  0  0  0  0  0  0  0  0  0  0  0
   -4.2236   21.2740  -29.2193 H   0  0  0  0  0  0  0  0  0  0  0  0
   -3.2500   24.4580  -30.8580 H   0  0  0  0  0  0  0  0  0  0  0  0
   -8.0632   24.7034  -31.2695 H   0  0  0  0  0  0  0  0  0  0  0  0
   -9.7506   22.4694  -31.8639 H   0  0  0  0  0  0  0  0  0  0  0  0
   -9.7194   19.9810  -32.2384 H   0  0  0  0  0  0  0  0  0  0  0  0
   -5.4088   19.9373  -31.5750 H   0  0  0  0  0  0  0  0  0  0  0  0
    0.1795   23.2052  -27.6641 H   0  0  0  0  0  0  0  0  0  0  0  0
   -0.1351   22.9797  -29.4225 H   0  0  0  0  0  0  0  0  0  0  0  0
  1  2  1  0
  2  3  1  0
  3  4  1  0
  4  5  2  0
  4  6  1  0
  6  7  1  0
  7  8  1  0
  8  9  1  0
  8 10  2  0
  7 11  2  0
 11 12  1  0
 12 13  2  0
 13 14  1  0
 14 15  2  0
 15 16  1  0
 16 17  1  0
 16 18  1  0
 16 19  1  0
 15 20  1  0
 20 21  2  0
  2 22  1  0
 22 23  2  0
 22 24  1  0
 24 25  1  0
 25 26  2  0
 25 27  1  0
 21  6  1  0
 21 12  1  0
  1 28  1  0
  1 29  1  0
  1 30  1  0
  2 31  1  6
  3 32  1  0
  3 33  1  0
  9 34  1  0
 11 35  1  0
 13 36  1  0
 14 37  1  0
 20 38  1  0
 24 39  1  0
 24 40  1  0
M  CHG  3   2   1   9  -1  27  -1
M  END
>  <UniqueID>  (86) 
86

>  <SMILES>  (86) 
C[N@H+](CC(=O)n1c(C([NH-])=O)cc2ccc(C(F)(F)F)cc21)C(=O)CC(=O)[O-]

>  <Energy>  (86) 
78.04646247298118

>  <Genealogy>  (86) 
C[NH+](CC(=O)n1c(C([NH-])=O)cc2ccc(C(F)(F)F)cc21)C(=O)CC(=O)[O-] (protonated)
C[N@H+](CC(=O)n1c(C([NH-])=O)cc2ccc(C(F)(F)F)cc21)C(=O)CC(=O)[O-] (chirality)
C[N@H+](CC(=O)n1c(C([NH-])=O)cc2ccc(C(F)(F)F)cc21)C(=O)CC(=O)[O-] (3D coordinates assigned)
C[N@H+](CC(=O)n1c(C([NH-])=O)cc2ccc(C(F)(F)F)cc21)C(=O)CC(=O)[O-] (optimized conformer: 78.04646247298118 kcal/mol)

>  <smiles>  (86) 
CN(CC(=O)n1c(C(N)=O)cc2ccc(C(F)(F)F)cc21)C(=O)CC(=O)O

>  <score_type>  (86) 
oracle

>  <origin>  (86) 
adg

>  <m_score__min__energy>  (86) 
-11.08

>  <m_primary>  (86) 
energy

$$$$
86:0
     RDKit          3D

 36 37  0  0  0  0  0  0  0  0999 V2000
   -4.0860   25.6400  -30.9140 N   0  0  0  0  0  0  0  0  0  0  0  0
   -5.3480   25.1180  -30.5090 C   0  0  0  0  0  0  0  0  0  0  0  0
   -6.0640   25.7840  -29.7140 O   0  0  0  0  0  0  0  0  0  0  0  0
   -5.8020   23.7860  -30.9610 C   0  0  0  0  0  0  0  0  0  0  0  0
   -7.1150   23.5150  -31.3440 C   0  0  0  0  0  0  0  0  0  0  0  0
   -7.1490   22.1630  -31.5960 C   0  0  0  0  0  0  0  0  0  0  0  0
   -8.2060   21.3530  -32.0050 C   0  0  0  0  0  0  0  0  0  0  0  0
   -7.9470   19.9860  -32.2050 C   0  0  0  0  0  0  0  0  0  0  0  0
   -6.6450   19.4620  -32.0130 C   0  0  0  0  0  0  0  0  0  0  0  0
   -6.3790   17.9960  -32.2120 C   0  0  0  0  0  0  0  0  0  0  0  0
   -5.8860   17.6740  -33.9330 P   0  0  0  0  0  0  0  0  0  0  0  0
   -6.0590   18.9290  -34.7570 O   0  0  0  0  0  0  0  0  0  0  0  0
   -6.8420   16.4390  -34.5810 O   0  0  0  0  0  0  0  0  0  0  0  0
   -4.2630   17.2000  -33.9690 O   0  0  0  0  0  0  0  0  0  0  0  0
   -5.6020   20.3140  -31.5920 C   0  0  0  0  0  0  0  0  0  0  0  0
   -5.8920   21.6640  -31.3760 C   0  0  0  0  0  0  0  0  0  0  0  0
   -5.0520   22.6480  -30.9860 N   0  0  0  0  0  0  0  0  0  0  0  0
   -3.6490   22.5070  -30.7130 C   0  0  0  0  0  0  0  0  0  0  0  0
   -2.9790   21.6200  -31.3080 O   0  0  0  0  0  0  0  0  0  0  0  0
   -3.0340   23.3500  -29.7810 O   0  0  0  0  0  0  0  0  0  0  0  0
   -3.2340   23.2160  -28.3770 C   0  0  0  0  0  0  0  0  0  0  0  0
   -2.0270   23.4830  -27.6980 O   0  0  0  0  0  0  0  0  0  0  0  0
   -0.9350   24.2440  -28.7640 P   0  0  2  0  0  0  0  0  0  0  0  0
    0.3410   24.5580  -28.0180 O   0  0  0  0  0  0  0  0  0  0  0  0
   -1.6110   25.6860  -29.3350 O   0  0  0  0  0  0  0  0  0  0  0  0
   -0.5770   23.2330  -30.0730 O   0  0  0  0  0  0  0  0  0  0  0  0
   -3.1980   25.2780  -30.5020 H   0  0  0  0  0  0  0  0  0  0  0  0
   -7.9467   24.2301  -31.4270 H   0  0  0  0  0  0  0  0  0  0  0  0
   -9.2111   21.7698  -32.1663 H   0  0  0  0  0  0  0  0  0  0  0  0
   -8.7634   19.3165  -32.5137 H   0  0  0  0  0  0  0  0  0  0  0  0
   -5.5704   17.6787  -31.5371 H   0  0  0  0  0  0  0  0  0  0  0  0
   -7.2968   17.4317  -31.9904 H   0  0  0  0  0  0  0  0  0  0  0  0
   -4.5848   19.9249  -31.4375 H   0  0  0  0  0  0  0  0  0  0  0  0
   -4.0044   23.9287  -28.0476 H   0  0  0  0  0  0  0  0  0  0  0  0
   -3.5599   22.1899  -28.1514 H   0  0  0  0  0  0  0  0  0  0  0  0
   -1.4530   22.8770  -30.3670 H   0  0  0  0  0  0  0  0  0  0  0  0
  1  2  1  0
  2  3  2  0
  2  4  1  0
  4  5  2  0
  5  6  1  0
  6  7  2  0
  7  8  1  0
  8  9  2  0
  9 10  1  0
 10 11  1  0
 11 12  2  0
 11 13  1  0
 11 14  1  0
  9 15  1  0
 15 16  2  0
 16 17  1  0
 17 18  1  0
 18 19  2  0
 18 20  1  0
 20 21  1  0
 21 22  1  0
 22 23  1  0
 23 24  2  0
 23 25  1  6
 23 26  1  0
 17  4  1  0
 16  6  1  0
  1 27  1  0
  5 28  1  0
  7 29  1  0
  8 30  1  0
 10 31  1  0
 10 32  1  0
 15 33  1  0
 21 34  1  0
 21 35  1  0
 26 36  1  0
M  CHG  4   1  -1  13  -1  14  -1  25  -1
M  END
>  <UniqueID>  (87) 
87

>  <SMILES>  (87) 
[NH-]C(=O)c1cc2ccc(CP(=O)([O-])[O-])cc2n1C(=O)OCO[P@](=O)([O-])O

>  <Energy>  (87) 
66.9323221739104

>  <Genealogy>  (87) 
[NH-]C(=O)c1cc2ccc(CP(=O)([O-])[O-])cc2n1C(=O)OCOP(=O)([O-])O (protonated)
[NH-]C(=O)c1cc2ccc(CP(=O)([O-])[O-])cc2n1C(=O)OCO[P@](=O)([O-])O (chirality)
[NH-]C(=O)c1cc2ccc(CP(=O)([O-])[O-])cc2n1C(=O)OCO[P@](=O)([O-])O (3D coordinates assigned)
[NH-]C(=O)c1cc2ccc(CP(=O)([O-])[O-])cc2n1C(=O)OCO[P@](=O)([O-])O (optimized conformer: 66.9323221739104 kcal/mol)

>  <smiles>  (87) 
NC(=O)c1cc2ccc(CP(=O)(O)O)cc2n1C(=O)OCOP(=O)(O)O

>  <score_type>  (87) 
oracle

>  <origin>  (87) 
adg

>  <m_score__min__energy>  (87) 
-12.199999999999999

>  <m_primary>  (87) 
energy

$$$$
87:0
     RDKit          3D

 29 30  0  0  0  0  0  0  0  0999 V2000
   -3.9570   25.6740  -30.8370 N   0  0  0  0  0  0  0  0  0  0  0  0
   -5.2570   25.1970  -30.4970 C   0  0  0  0  0  0  0  0  0  0  0  0
   -6.0320   25.9380  -29.8350 O   0  0  0  0  0  0  0  0  0  0  0  0
   -5.7260   23.8740  -30.9580 C   0  0  0  0  0  0  0  0  0  0  0  0
   -7.0700   23.5550  -31.1280 C   0  0  0  0  0  0  0  0  0  0  0  0
   -7.0800   22.2800  -31.6460 C   0  0  0  0  0  0  0  0  0  0  0  0
   -8.1520   21.4610  -31.9840 C   0  0  0  0  0  0  0  0  0  0  0  0
   -7.8700   20.1700  -32.4610 C   0  0  0  0  0  0  0  0  0  0  0  0
   -6.5300   19.7240  -32.6010 C   0  0  0  0  0  0  0  0  0  0  0  0
   -6.2420   18.3150  -33.0540 C   0  0  0  0  0  0  0  0  0  0  0  0
   -5.0660   17.8520  -32.4890 F   0  0  0  0  0  0  0  0  0  0  0  0
   -7.2660   17.4630  -32.6810 F   0  0  0  0  0  0  0  0  0  0  0  0
   -6.1180   18.2960  -34.4300 F   0  0  0  0  0  0  0  0  0  0  0  0
   -5.4690   20.5800  -32.2220 C   0  0  0  0  0  0  0  0  0  0  0  0
   -5.7790   21.8670  -31.7690 C   0  0  0  0  0  0  0  0  0  0  0  0
   -4.9340   22.8350  -31.3470 N   0  0  0  0  0  0  0  0  0  0  0  0
   -3.5050   22.7310  -31.2360 C   0  0  0  0  0  0  0  0  0  0  0  0
   -2.8350   22.2680  -32.1980 O   0  0  0  0  0  0  0  0  0  0  0  0
   -2.8760   23.1290  -30.0480 O   0  0  0  0  0  0  0  0  0  0  0  0
   -1.4910   23.2370  -29.8670 C   0  0  0  0  0  0  0  0  0  0  0  0
   -0.7090   22.3250  -30.2510 O   0  0  0  0  0  0  0  0  0  0  0  0
   -0.9420   24.4310  -29.2210 C   0  0  0  0  0  0  0  0  0  0  0  0
    0.1440   24.3650  -28.5890 O   0  0  0  0  0  0  0  0  0  0  0  0
   -1.6180   25.6430  -29.2990 O   0  0  0  0  0  0  0  0  0  0  0  0
   -3.1020   25.2490  -30.4150 H   0  0  0  0  0  0  0  0  0  0  0  0
   -7.9397   24.1877  -30.8973 H   0  0  0  0  0  0  0  0  0  0  0  0
   -9.1890   21.8133  -31.8810 H   0  0  0  0  0  0  0  0  0  0  0  0
   -8.6976   19.4969  -32.7291 H   0  0  0  0  0  0  0  0  0  0  0  0
   -4.4242   20.2413  -32.2821 H   0  0  0  0  0  0  0  0  0  0  0  0
  1  2  1  0
  2  3  2  0
  2  4  1  0
  4  5  2  0
  5  6  1  0
  6  7  2  0
  7  8  1  0
  8  9  2  0
  9 10  1  0
 10 11  1  0
 10 12  1  0
 10 13  1  0
  9 14  1  0
 14 15  2  0
 15 16  1  0
 16 17  1  0
 17 18  2  0
 17 19  1  0
 19 20  1  0
 20 21  2  0
 20 22  1  0
 22 23  2  0
 22 24  1  0
 16  4  1  0
 15  6  1  0
  1 25  1  0
  5 26  1  0
  7 27  1  0
  8 28  1  0
 14 29  1  0
M  CHG  2   1  -1  24  -1
M  END
>  <UniqueID>  (88) 
88

>  <SMILES>  (88) 
[NH-]C(=O)c1cc2ccc(C(F)(F)F)cc2n1C(=O)OC(=O)C(=O)[O-]

>  <Energy>  (88) 
69.04244394851442

>  <Genealogy>  (88) 
[NH-]C(=O)c1cc2ccc(C(F)(F)F)cc2n1C(=O)OC(=O)C(=O)[O-] (protonated)
[NH-]C(=O)c1cc2ccc(C(F)(F)F)cc2n1C(=O)OC(=O)C(=O)[O-] (3D coordinates assigned)
[NH-]C(=O)c1cc2ccc(C(F)(F)F)cc2n1C(=O)OC(=O)C(=O)[O-] (optimized conformer: 69.04244394851442 kcal/mol)

>  <smiles>  (88) 
NC(=O)c1cc2ccc(C(F)(F)F)cc2n1C(=O)OC(=O)C(=O)O

>  <score_type>  (88) 
oracle

>  <origin>  (88) 
adg

>  <m_score__min__energy>  (88) 
-11.710000000000001

>  <m_primary>  (88) 
energy

$$$$
88:0
     RDKit          3D

 35 36  0  0  0  0  0  0  0  0999 V2000
   -1.4680   25.6370  -27.9180 C   0  0  0  0  0  0  0  0  0  0  0  0
   -1.7780   25.2020  -29.2230 O   0  0  0  0  0  0  0  0  0  0  0  0
   -1.5760   23.8060  -29.3390 C   0  0  0  0  0  0  0  0  0  0  0  0
   -2.7680   23.0480  -28.7490 C   0  0  0  0  0  0  0  0  0  0  0  0
   -3.3170   22.1520  -29.7130 O   0  0  0  0  0  0  0  0  0  0  0  0
   -3.7730   22.5600  -30.9720 C   0  0  0  0  0  0  0  0  0  0  0  0
   -2.9670   22.6810  -31.9340 O   0  0  0  0  0  0  0  0  0  0  0  0
   -5.1720   22.8230  -31.1730 N   0  0  0  0  0  0  0  0  0  0  0  0
   -5.8460   23.9810  -30.9250 C   0  0  0  0  0  0  0  0  0  0  0  0
   -5.2390   25.2720  -30.5370 C   0  0  0  0  0  0  0  0  0  0  0  0
   -3.8640   25.5220  -30.8200 N   0  0  0  0  0  0  0  0  0  0  0  0
   -5.9110   26.1420  -29.9220 O   0  0  0  0  0  0  0  0  0  0  0  0
   -7.2080   23.8150  -31.1670 C   0  0  0  0  0  0  0  0  0  0  0  0
   -7.3480   22.5100  -31.5810 C   0  0  0  0  0  0  0  0  0  0  0  0
   -8.4920   21.8040  -31.9410 C   0  0  0  0  0  0  0  0  0  0  0  0
   -8.3460   20.4520  -32.2990 C   0  0  0  0  0  0  0  0  0  0  0  0
   -7.0700   19.8350  -32.2830 C   0  0  0  0  0  0  0  0  0  0  0  0
   -6.9220   18.3860  -32.6480 C   0  0  0  0  0  0  0  0  0  0  0  0
   -6.1420   17.7450  -31.7030 F   0  0  0  0  0  0  0  0  0  0  0  0
   -6.3190   18.2760  -33.8890 F   0  0  0  0  0  0  0  0  0  0  0  0
   -5.9330   20.5840  -31.9090 C   0  0  0  0  0  0  0  0  0  0  0  0
   -6.1050   21.9330  -31.5750 C   0  0  0  0  0  0  0  0  0  0  0  0
   -1.9444   24.9685  -27.1858 H   0  0  0  0  0  0  0  0  0  0  0  0
   -0.3775   25.6197  -27.7751 H   0  0  0  0  0  0  0  0  0  0  0  0
   -1.8403   26.6622  -27.7751 H   0  0  0  0  0  0  0  0  0  0  0  0
   -1.4672   23.5417  -30.4012 H   0  0  0  0  0  0  0  0  0  0  0  0
   -0.6657   23.5282  -28.7875 H   0  0  0  0  0  0  0  0  0  0  0  0
   -2.4341   22.4752  -27.8713 H   0  0  0  0  0  0  0  0  0  0  0  0
   -3.5414   23.7735  -28.4567 H   0  0  0  0  0  0  0  0  0  0  0  0
   -3.1700   24.7420  -30.8450 H   0  0  0  0  0  0  0  0  0  0  0  0
   -8.0024   24.5670  -31.0517 H   0  0  0  0  0  0  0  0  0  0  0  0
   -9.4796   22.2884  -31.9454 H   0  0  0  0  0  0  0  0  0  0  0  0
   -9.2301   19.8679  -32.5942 H   0  0  0  0  0  0  0  0  0  0  0  0
   -7.9177   17.9197  -32.6810 H   0  0  0  0  0  0  0  0  0  0  0  0
   -4.9364   20.1192  -31.8807 H   0  0  0  0  0  0  0  0  0  0  0  0
  1  2  1  0
  2  3  1  0
  3  4  1  0
  4  5  1  0
  5  6  1  0
  6  7  2  0
  6  8  1  0
  8  9  1  0
  9 10  1  0
 10 11  1  0
 10 12  2  0
  9 13  2  0
 13 14  1  0
 14 15  2  0
 15 16  1  0
 16 17  2  0
 17 18  1  0
 18 19  1  0
 18 20  1  0
 17 21  1  0
 21 22  2  0
 22  8  1  0
 22 14  1  0
  1 23  1  0
  1 24  1  0
  1 25  1  0
  3 26  1  0
  3 27  1  0
  4 28  1  0
  4 29  1  0
 11 30  1  0
 13 31  1  0
 15 32  1  0
 16 33  1  0
 18 34  1  0
 21 35  1  0
M  CHG  1  11  -1
M  END
>  <UniqueID>  (89) 
89

>  <SMILES>  (89) 
COCCOC(=O)n1c(C([NH-])=O)cc2ccc(C(F)F)cc21

>  <Energy>  (89) 
72.22069760704925

>  <Genealogy>  (89) 
COCCOC(=O)n1c(C([NH-])=O)cc2ccc(C(F)F)cc21 (protonated)
COCCOC(=O)n1c(C([NH-])=O)cc2ccc(C(F)F)cc21 (3D coordinates assigned)
COCCOC(=O)n1c(C([NH-])=O)cc2ccc(C(F)F)cc21 (optimized conformer: 72.22069760704925 kcal/mol)

>  <smiles>  (89) 
COCCOC(=O)n1c(C(N)=O)cc2ccc(C(F)F)cc21

>  <score_type>  (89) 
oracle

>  <origin>  (89) 
adg

>  <m_score__min__energy>  (89) 
-9.4000000000000004

>  <m_primary>  (89) 
energy

$$$$
89:0
     RDKit          3D

 42 43  0  0  0  0  0  0  0  0999 V2000
    1.0770   24.3710  -27.4650 C   0  0  0  0  0  0  0  0  0  0  0  0
    0.1140   24.2800  -28.5510 N   0  0  0  0  0  0  0  0  0  0  0  0
   -1.1070   25.0250  -28.5630 C   0  0  0  0  0  0  0  0  0  0  0  0
   -1.2370   26.0260  -29.3190 O   0  0  0  0  0  0  0  0  0  0  0  0
   -2.2490   24.5960  -27.6970 C   0  0  0  0  0  0  0  0  0  0  0  0
   -3.2250   23.9030  -28.4720 O   0  0  0  0  0  0  0  0  0  0  0  0
   -2.9130   22.8520  -29.3420 C   0  0  0  0  0  0  0  0  0  0  0  0
   -2.8000   21.6740  -28.9040 O   0  0  0  0  0  0  0  0  0  0  0  0
   -2.7250   23.1390  -30.6980 O   0  0  0  0  0  0  0  0  0  0  0  0
   -3.5430   22.6800  -31.7390 C   0  0  0  0  0  0  0  0  0  0  0  0
   -3.0430   22.1820  -32.7850 O   0  0  0  0  0  0  0  0  0  0  0  0
   -4.9710   22.7560  -31.6020 N   0  0  0  0  0  0  0  0  0  0  0  0
   -5.6950   23.7370  -30.9930 C   0  0  0  0  0  0  0  0  0  0  0  0
   -5.1670   25.0250  -30.4980 C   0  0  0  0  0  0  0  0  0  0  0  0
   -3.8610   25.4690  -30.8530 N   0  0  0  0  0  0  0  0  0  0  0  0
   -5.8990   25.7680  -29.7880 O   0  0  0  0  0  0  0  0  0  0  0  0
   -7.0470   23.4020  -30.9690 C   0  0  0  0  0  0  0  0  0  0  0  0
   -7.1310   22.1790  -31.5930 C   0  0  0  0  0  0  0  0  0  0  0  0
   -8.2360   21.3750  -31.8380 C   0  0  0  0  0  0  0  0  0  0  0  0
   -8.0290   20.1420  -32.4780 C   0  0  0  0  0  0  0  0  0  0  0  0
   -6.7220   19.7210  -32.8600 C   0  0  0  0  0  0  0  0  0  0  0  0
   -6.5180   18.4400  -33.5130 N   0  0  0  0  0  0  0  0  0  0  0  0
   -5.7890   18.3580  -34.7850 C   0  0  0  0  0  0  0  0  0  0  0  0
   -7.0330   17.2040  -32.9110 C   0  0  0  0  0  0  0  0  0  0  0  0
   -5.6250   20.5790  -32.5860 C   0  0  0  0  0  0  0  0  0  0  0  0
   -5.8650   21.8090  -31.9650 C   0  0  0  0  0  0  0  0  0  0  0  0
    0.5488   24.3211  -26.5014 H   0  0  0  0  0  0  0  0  0  0  0  0
    1.7898   23.5362  -27.5361 H   0  0  0  0  0  0  0  0  0  0  0  0
    1.6208   25.3245  -27.5361 H   0  0  0  0  0  0  0  0  0  0  0  0
   -1.8742   23.9300  -26.9059 H   0  0  0  0  0  0  0  0  0  0  0  0
   -2.7138   25.4874  -27.2505 H   0  0  0  0  0  0  0  0  0  0  0  0
   -3.0370   25.2580  -30.2480 H   0  0  0  0  0  0  0  0  0  0  0  0
   -7.8722   23.9906  -30.5417 H   0  0  0  0  0  0  0  0  0  0  0  0
   -9.2453   21.6946  -31.5393 H   0  0  0  0  0  0  0  0  0  0  0  0
   -8.8900   19.4904  -32.6879 H   0  0  0  0  0  0  0  0  0  0  0  0
   -4.7142   18.2371  -34.5845 H   0  0  0  0  0  0  0  0  0  0  0  0
   -6.1537   17.4952  -35.3617 H   0  0  0  0  0  0  0  0  0  0  0  0
   -5.9529   19.2803  -35.3617 H   0  0  0  0  0  0  0  0  0  0  0  0
   -6.9981   17.2879  -31.8148 H   0  0  0  0  0  0  0  0  0  0  0  0
   -8.0725   17.0445  -33.2336 H   0  0  0  0  0  0  0  0  0  0  0  0
   -6.4143   16.3536  -33.2336 H   0  0  0  0  0  0  0  0  0  0  0  0
   -4.6016   20.2811  -32.8579 H   0  0  0  0  0  0  0  0  0  0  0  0
  1  2  1  0
  2  3  1  0
  3  4  2  0
  3  5  1  0
  5  6  1  0
  6  7  1  0
  7  8  2  0
  7  9  1  0
  9 10  1  0
 10 11  2  0
 10 12  1  0
 12 13  1  0
 13 14  1  0
 14 15  1  0
 14 16  2  0
 13 17  2  0
 17 18  1  0
 18 19  2  0
 19 20  1  0
 20 21  2  0
 21 22  1  0
 22 23  1  0
 22 24  1  0
 21 25  1  0
 25 26  2  0
 26 12  1  0
 26 18  1  0
  1 27  1  0
  1 28  1  0
  1 29  1  0
  5 30  1  0
  5 31  1  0
 15 32  1  0
 17 33  1  0
 19 34  1  0
 20 35  1  0
 23 36  1  0
 23 37  1  0
 23 38  1  0
 24 39  1  0
 24 40  1  0
 24 41  1  0
 25 42  1  0
M  CHG  2   2  -1  15  -1
M  END
>  <UniqueID>  (90) 
90

>  <SMILES>  (90) 
C[N-]C(=O)COC(=O)OC(=O)n1c(C([NH-])=O)cc2ccc(N(C)C)cc21

>  <Energy>  (90) 
78.56829631976939

>  <Genealogy>  (90) 
C[N-]C(=O)COC(=O)OC(=O)n1c(C([NH-])=O)cc2ccc(N(C)C)cc21 (protonated)
C[N-]C(=O)COC(=O)OC(=O)n1c(C([NH-])=O)cc2ccc(N(C)C)cc21 (3D coordinates assigned)
C[N-]C(=O)COC(=O)OC(=O)n1c(C([NH-])=O)cc2ccc(N(C)C)cc21 (optimized conformer: 78.56829631976939 kcal/mol)

>  <smiles>  (90) 
CNC(=O)COC(=O)OC(=O)n1c(C(N)=O)cc2ccc(N(C)C)cc21

>  <score_type>  (90) 
oracle

>  <origin>  (90) 
adg

>  <m_score__min__energy>  (90) 
-11.17

>  <m_primary>  (90) 
energy

$$$$
90:0
     RDKit          3D

 55 58  0  0  0  0  0  0  0  0999 V2000
   -1.4130   16.7010  -32.7580 C   0  0  0  0  0  0  0  0  0  0  0  0
   -1.5630   18.1220  -32.7520 O   0  0  0  0  0  0  0  0  0  0  0  0
   -0.9830   19.0020  -33.6870 C   0  0  0  0  0  0  0  0  0  0  0  0
   -0.3740   18.5180  -34.8640 C   0  0  0  0  0  0  0  0  0  0  0  0
    0.2090   19.3990  -35.7790 C   0  0  0  0  0  0  0  0  0  0  0  0
    0.1910   20.7700  -35.5400 C   0  0  0  0  0  0  0  0  0  0  0  0
   -0.4050   21.2650  -34.3810 C   0  0  0  0  0  0  0  0  0  0  0  0
   -0.9990   20.4000  -33.4410 C   0  0  0  0  0  0  0  0  0  0  0  0
   -1.6200   20.9750  -32.2150 C   0  0  0  0  0  0  0  0  0  0  0  0
   -1.3910   20.4530  -31.0900 O   0  0  0  0  0  0  0  0  0  0  0  0
   -2.4530   22.0960  -32.3090 O   0  0  0  0  0  0  0  0  0  0  0  0
   -3.1980   22.6520  -31.2610 C   0  0  0  0  0  0  0  0  0  0  0  0
   -2.6250   23.2140  -30.2900 O   0  0  0  0  0  0  0  0  0  0  0  0
   -4.6310   22.5890  -31.2990 N   0  0  0  0  0  0  0  0  0  0  0  0
   -5.5130   23.5740  -30.9650 C   0  0  0  0  0  0  0  0  0  0  0  0
   -5.1790   24.8430  -30.2940 C   0  0  0  0  0  0  0  0  0  0  0  0
   -5.7920   25.2120  -29.0600 N   0  0  0  0  0  0  0  0  0  0  0  0
   -4.3780   25.6390  -30.8470 O   0  0  0  0  0  0  0  0  0  0  0  0
   -6.8150   23.1950  -31.2780 C   0  0  0  0  0  0  0  0  0  0  0  0
   -6.7070   21.9330  -31.8120 C   0  0  0  0  0  0  0  0  0  0  0  0
   -7.6930   21.0910  -32.3190 C   0  0  0  0  0  0  0  0  0  0  0  0
   -7.2910   19.8500  -32.8400 C   0  0  0  0  0  0  0  0  0  0  0  0
   -5.9200   19.4840  -32.8610 C   0  0  0  0  0  0  0  0  0  0  0  0
   -5.5150   18.2160  -33.4100 N   0  0  0  0  0  0  0  0  0  0  0  0
   -5.9150   16.9990  -32.6870 C   0  0  0  0  0  0  0  0  0  0  0  0
   -4.9170   15.8470  -32.8340 C   0  0  0  0  0  0  0  0  0  0  0  0
   -5.0390   15.1370  -34.1970 C   0  0  0  0  0  0  0  0  0  0  0  0
   -4.3860   15.7970  -35.2720 O   0  0  0  0  0  0  0  0  0  0  0  0
   -3.9560   17.1200  -34.9920 C   0  0  0  0  0  0  0  0  0  0  0  0
   -5.0780   18.1580  -34.8130 C   0  0  0  0  0  0  0  0  0  0  0  0
   -4.9500   20.3650  -32.3400 C   0  0  0  0  0  0  0  0  0  0  0  0
   -5.3800   21.5860  -31.8080 C   0  0  0  0  0  0  0  0  0  0  0  0
   -1.3741   16.3320  -31.7225 H   0  0  0  0  0  0  0  0  0  0  0  0
   -2.2679   16.2442  -33.2781 H   0  0  0  0  0  0  0  0  0  0  0  0
   -0.4816   16.4328  -33.2781 H   0  0  0  0  0  0  0  0  0  0  0  0
   -0.3579   17.4364  -35.0635 H   0  0  0  0  0  0  0  0  0  0  0  0
    0.6836   19.0076  -36.6909 H   0  0  0  0  0  0  0  0  0  0  0  0
    0.6462   21.4616  -36.2642 H   0  0  0  0  0  0  0  0  0  0  0  0
   -0.4116   22.3495  -34.1973 H   0  0  0  0  0  0  0  0  0  0  0  0
   -6.5760   24.6570  -28.6600 H   0  0  0  0  0  0  0  0  0  0  0  0
   -5.4890   26.0810  -28.5670 H   0  0  0  0  0  0  0  0  0  0  0  0
   -7.7344   23.7804  -31.1297 H   0  0  0  0  0  0  0  0  0  0  0  0
   -8.7522   21.3878  -32.3118 H   0  0  0  0  0  0  0  0  0  0  0  0
   -8.0463   19.1550  -33.2356 H   0  0  0  0  0  0  0  0  0  0  0  0
   -6.0098   17.2437  -31.6188 H   0  0  0  0  0  0  0  0  0  0  0  0
   -6.8667   16.6610  -33.1230 H   0  0  0  0  0  0  0  0  0  0  0  0
   -3.8974   16.2474  -32.7338 H   0  0  0  0  0  0  0  0  0  0  0  0
   -5.1377   15.1086  -32.0492 H   0  0  0  0  0  0  0  0  0  0  0  0
   -4.6054   14.1308  -34.0989 H   0  0  0  0  0  0  0  0  0  0  0  0
   -6.1105   15.1250  -34.4455 H   0  0  0  0  0  0  0  0  0  0  0  0
   -3.3662   17.0952  -34.0638 H   0  0  0  0  0  0  0  0  0  0  0  0
   -3.3830   17.4439  -35.8734 H   0  0  0  0  0  0  0  0  0  0  0  0
   -4.7058   19.1477  -35.1162 H   0  0  0  0  0  0  0  0  0  0  0  0
   -5.9342   17.8638  -35.4377 H   0  0  0  0  0  0  0  0  0  0  0  0
   -3.8826   20.0994  -32.3514 H   0  0  0  0  0  0  0  0  0  0  0  0
  1  2  1  0
  2  3  1  0
  3  4  2  0
  4  5  1  0
  5  6  2  0
  6  7  1  0
  7  8  2  0
  8  9  1  0
  9 10  2  0
  9 11  1  0
 11 12  1  0
 12 13  2  0
 12 14  1  0
 14 15  1  0
 15 16  1  0
 16 17  1  0
 16 18  2  0
 15 19  2  0
 19 20  1  0
 20 21  2  0
 21 22  1  0
 22 23  2  0
 23 24  1  0
 24 25  1  0
 25 26  1  0
 26 27  1  0
 27 28  1  0
 28 29  1  0
 29 30  1  0
 23 31  1  0
 31 32  2  0
  8  3  1  0
 32 14  1  0
 32 20  1  0
 30 24  1  0
  1 33  1  0
  1 34  1  0
  1 35  1  0
  4 36  1  0
  5 37  1  0
  6 38  1  0
  7 39  1  0
 17 40  1  0
 17 41  1  0
 19 42  1  0
 21 43  1  0
 22 44  1  0
 25 45  1  0
 25 46  1  0
 26 47  1  0
 26 48  1  0
 27 49  1  0
 27 50  1  0
 29 51  1  0
 29 52  1  0
 30 53  1  0
 30 54  1  0
 31 55  1  0
M  END
>  <UniqueID>  (91) 
91

>  <SMILES>  (91) 
COc1ccccc1C(=O)OC(=O)n1c(C(N)=O)cc2ccc(N3CCCOCC3)cc21

>  <Energy>  (91) 
115.86477506512968

>  <Genealogy>  (91) 
COc1ccccc1C(=O)OC(=O)n1c(C(N)=O)cc2ccc(N3CCCOCC3)cc21 (3D coordinates assigned)
COc1ccccc1C(=O)OC(=O)n1c(C(N)=O)cc2ccc(N3CCCOCC3)cc21 (nonaromatic ring conformer: 115.86477506512968 kcal/mol)

>  <smiles>  (91) 
COc1ccccc1C(=O)OC(=O)n1c(C(N)=O)cc2ccc(N3CCCOCC3)cc21

>  <score_type>  (91) 
oracle

>  <origin>  (91) 
adg

>  <m_score__min__energy>  (91) 
-7.5700000000000003

>  <m_primary>  (91) 
energy

$$$$
91:0
     RDKit          3D

 45 46  0  0  0  0  0  0  0  0999 V2000
   -0.8550   26.7450  -27.9940 C   0  0  0  0  0  0  0  0  0  0  0  0
   -1.0830   25.5930  -28.7950 O   0  0  0  0  0  0  0  0  0  0  0  0
   -0.5460   24.3410  -28.4850 C   0  0  0  0  0  0  0  0  0  0  0  0
    0.6900   24.1250  -28.6150 O   0  0  0  0  0  0  0  0  0  0  0  0
   -1.4140   23.3050  -28.0120 N   0  0  0  0  0  0  0  0  0  0  0  0
   -0.9480   21.9430  -27.7600 C   0  0  0  0  0  0  0  0  0  0  0  0
   -1.7440   20.9360  -28.5520 C   0  0  0  0  0  0  0  0  0  0  0  0
   -2.3130   19.9860  -27.9420 O   0  0  0  0  0  0  0  0  0  0  0  0
   -1.8160   21.0020  -29.9940 N   0  0  0  0  0  0  0  0  0  0  0  0
   -0.6140   21.3010  -30.7830 C   0  0  0  0  0  0  0  0  0  0  0  0
   -3.0840   20.6990  -30.6760 C   0  0  0  0  0  0  0  0  0  0  0  0
   -3.6850   21.9380  -31.2810 C   0  0  0  0  0  0  0  0  0  0  0  0
   -3.0270   22.5860  -32.1380 O   0  0  0  0  0  0  0  0  0  0  0  0
   -4.9900   22.4000  -30.8910 N   0  0  0  0  0  0  0  0  0  0  0  0
   -5.2930   23.5040  -30.1530 C   0  0  0  0  0  0  0  0  0  0  0  0
   -4.3220   24.4760  -29.6060 C   0  0  0  0  0  0  0  0  0  0  0  0
   -3.5430   25.2770  -30.4940 N   0  0  0  0  0  0  0  0  0  0  0  0
   -4.1630   24.6030  -28.3630 O   0  0  0  0  0  0  0  0  0  0  0  0
   -6.6740   23.6140  -29.9870 C   0  0  0  0  0  0  0  0  0  0  0  0
   -7.2080   22.5270  -30.6410 C   0  0  0  0  0  0  0  0  0  0  0  0
   -8.5330   22.1180  -30.7650 C   0  0  0  0  0  0  0  0  0  0  0  0
   -8.7920   20.9200  -31.4530 C   0  0  0  0  0  0  0  0  0  0  0  0
   -7.7310   20.1580  -32.0080 C   0  0  0  0  0  0  0  0  0  0  0  0
   -8.0120   18.8390  -32.6810 C   0  0  0  0  0  0  0  0  0  0  0  0
   -9.3360   18.8040  -33.0810 F   0  0  0  0  0  0  0  0  0  0  0  0
   -7.2010   18.6720  -33.7910 F   0  0  0  0  0  0  0  0  0  0  0  0
   -7.7770   17.7890  -31.8090 F   0  0  0  0  0  0  0  0  0  0  0  0
   -6.3970   20.5960  -31.8360 C   0  0  0  0  0  0  0  0  0  0  0  0
   -6.1710   21.8060  -31.1710 C   0  0  0  0  0  0  0  0  0  0  0  0
   -0.9096   26.4689  -26.9306 H   0  0  0  0  0  0  0  0  0  0  0  0
    0.1416   27.1544  -28.2158 H   0  0  0  0  0  0  0  0  0  0  0  0
   -1.6205   27.5032  -28.2158 H   0  0  0  0  0  0  0  0  0  0  0  0
   -2.4220   23.5310  -27.8560 H   0  0  0  0  0  0  0  0  0  0  0  0
    0.1113   21.8679  -28.0468 H   0  0  0  0  0  0  0  0  0  0  0  0
   -1.0780   21.7240  -26.6899 H   0  0  0  0  0  0  0  0  0  0  0  0
    0.2268   21.5102  -30.1053 H   0  0  0  0  0  0  0  0  0  0  0  0
   -0.3674   20.4368  -31.4173 H   0  0  0  0  0  0  0  0  0  0  0  0
   -0.8011   22.1800  -31.4173 H   0  0  0  0  0  0  0  0  0  0  0  0
   -2.8962   19.9650  -31.4735 H   0  0  0  0  0  0  0  0  0  0  0  0
   -3.7901   20.2948  -29.9357 H   0  0  0  0  0  0  0  0  0  0  0  0
   -2.5020   25.2960  -30.4240 H   0  0  0  0  0  0  0  0  0  0  0  0
   -7.2201   24.4021  -29.4479 H   0  0  0  0  0  0  0  0  0  0  0  0
   -9.3525   22.7144  -30.3374 H   0  0  0  0  0  0  0  0  0  0  0  0
   -9.8287   20.5690  -31.5625 H   0  0  0  0  0  0  0  0  0  0  0  0
   -5.5557   19.9983  -32.2168 H   0  0  0  0  0  0  0  0  0  0  0  0
  1  2  1  0
  2  3  1  0
  3  4  2  0
  3  5  1  0
  5  6  1  0
  6  7  1  0
  7  8  2  0
  7  9  1  0
  9 10  1  0
  9 11  1  0
 11 12  1  0
 12 13  2  0
 12 14  1  0
 14 15  1  0
 15 16  1  0
 16 17  1  0
 16 18  2  0
 15 19  2  0
 19 20  1  0
 20 21  2  0
 21 22  1  0
 22 23  2  0
 23 24  1  0
 24 25  1  0
 24 26  1  0
 24 27  1  0
 23 28  1  0
 28 29  2  0
 29 14  1  0
 29 20  1  0
  1 30  1  0
  1 31  1  0
  1 32  1  0
  5 33  1  0
  6 34  1  0
  6 35  1  0
 10 36  1  0
 10 37  1  0
 10 38  1  0
 11 39  1  0
 11 40  1  0
 17 41  1  0
 19 42  1  0
 21 43  1  0
 22 44  1  0
 28 45  1  0
M  CHG  1  17  -1
M  END
>  <UniqueID>  (92) 
92

>  <SMILES>  (92) 
COC(=O)NCC(=O)N(C)CC(=O)n1c(C([NH-])=O)cc2ccc(C(F)(F)F)cc21

>  <Energy>  (92) 
74.74471751661973

>  <Genealogy>  (92) 
COC(=O)NCC(=O)N(C)CC(=O)n1c(C([NH-])=O)cc2ccc(C(F)(F)F)cc21 (protonated)
COC(=O)NCC(=O)N(C)CC(=O)n1c(C([NH-])=O)cc2ccc(C(F)(F)F)cc21 (3D coordinates assigned)
COC(=O)NCC(=O)N(C)CC(=O)n1c(C([NH-])=O)cc2ccc(C(F)(F)F)cc21 (optimized conformer: 74.74471751661973 kcal/mol)

>  <smiles>  (92) 
COC(=O)NCC(=O)N(C)CC(=O)n1c(C(N)=O)cc2ccc(C(F)(F)F)cc21

>  <score_type>  (92) 
oracle

>  <origin>  (92) 
adg

>  <m_score__min__energy>  (92) 
-10.449999999999999

>  <m_primary>  (92) 
energy

$$$$
92:0
     RDKit          3D

 30 31  0  0  0  0  0  0  0  0999 V2000
   -3.7180   25.1460  -30.4640 N   0  0  0  0  0  0  0  0  0  0  0  0
   -5.1090   25.2490  -30.7620 C   0  0  0  0  0  0  0  0  0  0  0  0
   -5.6580   26.3820  -30.7600 O   0  0  0  0  0  0  0  0  0  0  0  0
   -5.8820   24.0330  -31.0980 C   0  0  0  0  0  0  0  0  0  0  0  0
   -7.2380   23.8780  -30.8140 C   0  0  0  0  0  0  0  0  0  0  0  0
   -7.5510   22.6010  -31.2200 C   0  0  0  0  0  0  0  0  0  0  0  0
   -8.7650   21.9210  -31.1810 C   0  0  0  0  0  0  0  0  0  0  0  0
   -8.8040   20.6140  -31.6940 C   0  0  0  0  0  0  0  0  0  0  0  0
   -7.6420   20.0200  -32.2490 C   0  0  0  0  0  0  0  0  0  0  0  0
   -7.6940   18.6110  -32.7760 C   0  0  0  0  0  0  0  0  0  0  0  0
   -6.3920   18.2300  -33.4840 C   0  0  0  0  0  0  0  0  0  0  0  0
   -6.1910   19.0300  -34.6190 O   0  0  0  0  0  0  0  0  0  0  0  0
   -6.4260   20.7390  -32.2650 C   0  0  0  0  0  0  0  0  0  0  0  0
   -6.4120   22.0300  -31.7260 C   0  0  0  0  0  0  0  0  0  0  0  0
   -5.3780   22.8970  -31.6560 N   0  0  0  0  0  0  0  0  0  0  0  0
   -4.0420   22.6660  -32.1280 C   0  0  0  0  0  0  0  0  0  0  0  0
   -3.8090   22.2950  -33.4860 N   0  0  0  0  0  0  0  0  0  0  0  0
   -3.0650   22.7950  -31.3420 O   0  0  0  0  0  0  0  0  0  0  0  0
   -3.0220   24.9510  -31.2160 H   0  0  0  0  0  0  0  0  0  0  0  0
   -7.9138   24.6187  -30.3617 H   0  0  0  0  0  0  0  0  0  0  0  0
   -9.6659   22.3926  -30.7614 H   0  0  0  0  0  0  0  0  0  0  0  0
   -9.7453   20.0455  -31.6650 H   0  0  0  0  0  0  0  0  0  0  0  0
   -7.8594   17.9207  -31.9357 H   0  0  0  0  0  0  0  0  0  0  0  0
   -8.5157   18.5444  -33.5042 H   0  0  0  0  0  0  0  0  0  0  0  0
   -5.5498   18.3696  -32.7903 H   0  0  0  0  0  0  0  0  0  0  0  0
   -6.4565   17.1784  -33.8001 H   0  0  0  0  0  0  0  0  0  0  0  0
   -7.0900   19.2980  -34.9440 H   0  0  0  0  0  0  0  0  0  0  0  0
   -5.5137   20.2952  -32.6903 H   0  0  0  0  0  0  0  0  0  0  0  0
   -2.8350   22.1570  -33.8360 H   0  0  0  0  0  0  0  0  0  0  0  0
   -4.6090   22.1180  -34.1330 H   0  0  0  0  0  0  0  0  0  0  0  0
  1  2  1  0
  2  3  2  0
  2  4  1  0
  4  5  2  0
  5  6  1  0
  6  7  2  0
  7  8  1  0
  8  9  2  0
  9 10  1  0
 10 11  1  0
 11 12  1  0
  9 13  1  0
 13 14  2  0
 14 15  1  0
 15 16  1  0
 16 17  1  0
 16 18  2  0
 15  4  1  0
 14  6  1  0
  1 19  1  0
  5 20  1  0
  7 21  1  0
  8 22  1  0
 10 23  1  0
 10 24  1  0
 11 25  1  0
 11 26  1  0
 12 27  1  0
 13 28  1  0
 17 29  1  0
 17 30  1  0
M  CHG  1   1  -1
M  END
>  <UniqueID>  (93) 
93

>  <SMILES>  (93) 
[NH-]C(=O)c1cc2ccc(CCO)cc2n1C(N)=O

>  <Energy>  (93) 
65.57030804187573

>  <Genealogy>  (93) 
[NH-]C(=O)c1cc2ccc(CCO)cc2n1C(N)=O (protonated)
[NH-]C(=O)c1cc2ccc(CCO)cc2n1C(N)=O (3D coordinates assigned)
[NH-]C(=O)c1cc2ccc(CCO)cc2n1C(N)=O (optimized conformer: 65.57030804187573 kcal/mol)

>  <smiles>  (93) 
NC(=O)c1cc2ccc(CCO)cc2n1C(N)=O

>  <score_type>  (93) 
oracle

>  <origin>  (93) 
adg

>  <m_score__min__energy>  (93) 
-10.470000000000001

>  <m_primary>  (93) 
energy

$$$$
93:0
     RDKit          3D

 46 48  0  0  0  0  0  0  0  0999 V2000
   -5.7040   18.1840  -35.3380 C   0  0  0  0  0  0  0  0  0  0  0  0
   -5.6470   17.4130  -34.0550 C   0  0  0  0  0  0  0  0  0  0  0  0
   -5.3990   16.0720  -34.0440 N   0  0  0  0  0  0  0  0  0  0  0  0
   -5.4240   15.5360  -32.8060 C   0  0  0  0  0  0  0  0  0  0  0  0
   -5.7490   16.7160  -31.6580 S   0  0  0  0  0  0  0  0  0  0  0  0
   -5.8500   17.9670  -32.7840 C   0  0  0  0  0  0  0  0  0  0  0  0
   -6.1550   19.3730  -32.4450 C   0  0  0  0  0  0  0  0  0  0  0  0
   -7.4510   19.9080  -32.6550 C   0  0  0  0  0  0  0  0  0  0  0  0
   -7.7320   21.2470  -32.3370 C   0  0  0  0  0  0  0  0  0  0  0  0
   -6.7050   22.0240  -31.8120 C   0  0  0  0  0  0  0  0  0  0  0  0
   -6.7060   23.3420  -31.4200 C   0  0  0  0  0  0  0  0  0  0  0  0
   -5.4170   23.5930  -30.9560 C   0  0  0  0  0  0  0  0  0  0  0  0
   -5.0200   24.8690  -30.3280 C   0  0  0  0  0  0  0  0  0  0  0  0
   -3.9400   25.6380  -30.8490 N   0  0  0  0  0  0  0  0  0  0  0  0
   -5.6050   25.2570  -29.2810 O   0  0  0  0  0  0  0  0  0  0  0  0
   -4.6400   22.4770  -31.0740 N   0  0  0  0  0  0  0  0  0  0  0  0
   -3.2440   22.3320  -30.7610 C   0  0  0  0  0  0  0  0  0  0  0  0
   -2.4250   23.2390  -31.0730 O   0  0  0  0  0  0  0  0  0  0  0  0
   -2.7940   21.1620  -30.1440 O   0  0  0  0  0  0  0  0  0  0  0  0
   -1.4830   21.0000  -29.6160 C   0  0  0  0  0  0  0  0  0  0  0  0
   -1.3270   21.8460  -28.4820 O   0  0  0  0  0  0  0  0  0  0  0  0
   -1.0930   23.2210  -28.5900 C   0  0  0  0  0  0  0  0  0  0  0  0
   -0.1250   23.6560  -29.2720 O   0  0  0  0  0  0  0  0  0  0  0  0
   -2.0550   24.1810  -27.9510 C   0  0  2  0  0  0  0  0  0  0  0  0
   -3.3320   23.4360  -27.5510 C   0  0  0  0  0  0  0  0  0  0  0  0
   -2.3730   25.2720  -28.8730 N   0  0  0  0  0  0  0  0  0  0  0  0
   -5.4470   21.5240  -31.5970 C   0  0  0  0  0  0  0  0  0  0  0  0
   -5.1330   20.2000  -31.9320 C   0  0  0  0  0  0  0  0  0  0  0  0
   -5.7834   19.2586  -35.1168 H   0  0  0  0  0  0  0  0  0  0  0  0
   -4.7895   17.9960  -35.9197 H   0  0  0  0  0  0  0  0  0  0  0  0
   -6.5809   17.8636  -35.9197 H   0  0  0  0  0  0  0  0  0  0  0  0
   -5.2220   15.5070  -34.9040 H   0  0  0  0  0  0  0  0  0  0  0  0
   -5.2548   14.4727  -32.5805 H   0  0  0  0  0  0  0  0  0  0  0  0
   -8.2437   19.2687  -33.0708 H   0  0  0  0  0  0  0  0  0  0  0  0
   -8.7350   21.6687  -32.4985 H   0  0  0  0  0  0  0  0  0  0  0  0
   -7.5475   24.0491  -31.4637 H   0  0  0  0  0  0  0  0  0  0  0  0
   -2.9550   25.2990  -30.7740 H   0  0  0  0  0  0  0  0  0  0  0  0
   -1.3340   19.9521  -29.3165 H   0  0  0  0  0  0  0  0  0  0  0  0
   -0.7405   21.2682  -30.3820 H   0  0  0  0  0  0  0  0  0  0  0  0
   -1.5902   24.6114  -27.0517 H   0  0  0  0  0  0  0  0  0  0  0  0
   -3.4038   23.3941  -26.4541 H   0  0  0  0  0  0  0  0  0  0  0  0
   -4.2073   23.9652  -27.9558 H   0  0  0  0  0  0  0  0  0  0  0  0
   -3.3021   22.4136  -27.9558 H   0  0  0  0  0  0  0  0  0  0  0  0
   -2.0690   24.9910  -29.8330 H   0  0  0  0  0  0  0  0  0  0  0  0
   -3.4140   25.3700  -28.9180 H   0  0  0  0  0  0  0  0  0  0  0  0
   -4.1118   19.8136  -31.7980 H   0  0  0  0  0  0  0  0  0  0  0  0
  1  2  1  0
  2  3  1  0
  3  4  2  0
  4  5  1  0
  5  6  1  0
  6  7  1  0
  7  8  2  0
  8  9  1  0
  9 10  2  0
 10 11  1  0
 11 12  2  0
 12 13  1  0
 13 14  1  0
 13 15  2  0
 12 16  1  0
 16 17  1  0
 17 18  2  0
 17 19  1  0
 19 20  1  0
 20 21  1  0
 21 22  1  0
 22 23  2  0
 22 24  1  0
 24 25  1  0
 24 26  1  0
 16 27  1  0
 27 28  2  0
  6  2  2  0
 28  7  1  0
 27 10  1  0
  1 29  1  0
  1 30  1  0
  1 31  1  0
  3 32  1  0
  4 33  1  0
  8 34  1  0
  9 35  1  0
 11 36  1  0
 14 37  1  0
 20 38  1  0
 20 39  1  0
 24 40  1  1
 25 41  1  0
 25 42  1  0
 25 43  1  0
 26 44  1  0
 26 45  1  0
 28 46  1  0
M  CHG  2   3   1  14  -1
M  END
>  <UniqueID>  (94) 
94

>  <SMILES>  (94) 
Cc1[nH+]csc1-c1ccc2cc(C([NH-])=O)n(C(=O)OCOC(=O)[C@H](C)N)c2c1

>  <Energy>  (94) 
111.7782909140552

>  <Genealogy>  (94) 
Cc1[nH+]csc1-c1ccc2cc(C([NH-])=O)n(C(=O)OCOC(=O)C(C)N)c2c1 (protonated)
Cc1[nH+]csc1-c1ccc2cc(C([NH-])=O)n(C(=O)OCOC(=O)[C@H](C)N)c2c1 (chirality)
Cc1[nH+]csc1-c1ccc2cc(C([NH-])=O)n(C(=O)OCOC(=O)[C@H](C)N)c2c1 (3D coordinates assigned)
Cc1[nH+]csc1-c1ccc2cc(C([NH-])=O)n(C(=O)OCOC(=O)[C@H](C)N)c2c1 (optimized conformer: 111.7782909140552 kcal/mol)

>  <smiles>  (94) 
Cc1ncsc1-c1ccc2cc(C(N)=O)n(C(=O)OCOC(=O)C(C)N)c2c1

>  <score_type>  (94) 
oracle

>  <origin>  (94) 
adg

>  <m_score__min__energy>  (94) 
-10.51

>  <m_primary>  (94) 
energy

$$$$
94:0
     RDKit          3D

 50 52  0  0  0  0  0  0  0  0999 V2000
   -6.4330   17.2620  -33.9930 C   0  0  0  0  0  0  0  0  0  0  0  0
   -6.5540   18.3360  -33.4590 C   0  0  0  0  0  0  0  0  0  0  0  0
   -6.6990   19.6180  -32.8220 C   0  0  0  0  0  0  0  0  0  0  0  0
   -7.9860   20.1760  -32.6380 C   0  0  0  0  0  0  0  0  0  0  0  0
   -8.1390   21.4190  -31.9960 C   0  0  0  0  0  0  0  0  0  0  0  0
   -6.9910   22.0730  -31.5600 C   0  0  0  0  0  0  0  0  0  0  0  0
   -6.8520   23.2590  -30.8760 C   0  0  0  0  0  0  0  0  0  0  0  0
   -5.4810   23.4110  -30.6740 C   0  0  0  0  0  0  0  0  0  0  0  0
   -4.8760   24.5930  -30.0240 C   0  0  0  0  0  0  0  0  0  0  0  0
   -3.8780   25.3630  -30.6890 N   0  0  0  0  0  0  0  0  0  0  0  0
   -5.2740   24.9520  -28.8850 O   0  0  0  0  0  0  0  0  0  0  0  0
   -4.8000   22.3580  -31.2090 N   0  0  0  0  0  0  0  0  0  0  0  0
   -3.3940   22.0820  -31.1280 C   0  0  0  0  0  0  0  0  0  0  0  0
   -2.9820   20.8930  -31.2140 O   0  0  0  0  0  0  0  0  0  0  0  0
   -2.4870   23.1360  -30.9760 O   0  0  0  0  0  0  0  0  0  0  0  0
   -1.3590   23.0590  -30.1100 C   0  0  0  0  0  0  0  0  0  0  0  0
   -1.0550   24.3500  -29.5940 O   0  0  0  0  0  0  0  0  0  0  0  0
   -0.7980   24.5860  -28.2400 C   0  0  0  0  0  0  0  0  0  0  0  0
    0.3560   24.9240  -27.8560 O   0  0  0  0  0  0  0  0  0  0  0  0
   -1.9120   24.4660  -27.2360 C   0  0  0  0  0  0  0  0  0  0  0  0
   -2.1940   23.0690  -26.8450 N   0  0  0  0  0  0  0  0  0  0  0  0
   -3.1420   22.3960  -27.7580 C   0  0  0  0  0  0  0  0  0  0  0  0
   -3.1600   20.8880  -27.4930 C   0  0  0  0  0  0  0  0  0  0  0  0
   -1.8430   20.2730  -27.7760 N   0  0  0  0  0  0  0  0  0  0  0  0
   -1.6820   19.0240  -27.0150 C   0  0  0  0  0  0  0  0  0  0  0  0
   -0.6930   21.1870  -27.5640 C   0  0  0  0  0  0  0  0  0  0  0  0
   -0.9860   22.2730  -26.5130 C   0  0  0  0  0  0  0  0  0  0  0  0
   -5.7370   21.5490  -31.7500 C   0  0  0  0  0  0  0  0  0  0  0  0
   -5.5560   20.3070  -32.3690 C   0  0  0  0  0  0  0  0  0  0  0  0
   -6.3226   16.2820  -34.4803 H   0  0  0  0  0  0  0  0  0  0  0  0
   -8.8729   19.6347  -32.9991 H   0  0  0  0  0  0  0  0  0  0  0  0
   -9.1352   21.8598  -31.8437 H   0  0  0  0  0  0  0  0  0  0  0  0
   -7.6528   23.9421  -30.5564 H   0  0  0  0  0  0  0  0  0  0  0  0
   -2.8630   25.2290  -30.4790 H   0  0  0  0  0  0  0  0  0  0  0  0
   -1.5848   22.3772  -29.2768 H   0  0  0  0  0  0  0  0  0  0  0  0
   -0.4938   22.6821  -30.6752 H   0  0  0  0  0  0  0  0  0  0  0  0
   -1.6333   25.0320  -26.3349 H   0  0  0  0  0  0  0  0  0  0  0  0
   -2.8224   24.8639  -27.7081 H   0  0  0  0  0  0  0  0  0  0  0  0
   -4.1509   22.8041  -27.5979 H   0  0  0  0  0  0  0  0  0  0  0  0
   -2.8231   22.5718  -28.7960 H   0  0  0  0  0  0  0  0  0  0  0  0
   -3.4171   20.7133  -26.4378 H   0  0  0  0  0  0  0  0  0  0  0  0
   -3.9061   20.4289  -28.1582 H   0  0  0  0  0  0  0  0  0  0  0  0
   -1.7105   19.2447  -25.9377 H   0  0  0  0  0  0  0  0  0  0  0  0
   -2.4984   18.3319  -27.2692 H   0  0  0  0  0  0  0  0  0  0  0  0
   -0.7168   18.5616  -27.2692 H   0  0  0  0  0  0  0  0  0  0  0  0
    0.1705   20.5946  -27.2272 H   0  0  0  0  0  0  0  0  0  0  0  0
   -0.4896   21.6937  -28.5189 H   0  0  0  0  0  0  0  0  0  0  0  0
   -1.1391   21.7885  -25.5374 H   0  0  0  0  0  0  0  0  0  0  0  0
   -0.1269   22.9596  -26.4911 H   0  0  0  0  0  0  0  0  0  0  0  0
   -4.5503   19.8806  -32.4983 H   0  0  0  0  0  0  0  0  0  0  0  0
  1  2  3  0
  2  3  1  0
  3  4  2  0
  4  5  1  0
  5  6  2  0
  6  7  1  0
  7  8  2  0
  8  9  1  0
  9 10  1  0
  9 11  2  0
  8 12  1  0
 12 13  1  0
 13 14  2  0
 13 15  1  0
 15 16  1  0
 16 17  1  0
 17 18  1  0
 18 19  2  0
 18 20  1  0
 20 21  1  0
 21 22  1  0
 22 23  1  0
 23 24  1  0
 24 25  1  0
 24 26  1  0
 26 27  1  0
 12 28  1  0
 28 29  2  0
 29  3  1  0
 28  6  1  0
 27 21  1  0
  1 30  1  0
  4 31  1  0
  5 32  1  0
  7 33  1  0
 10 34  1  0
 16 35  1  0
 16 36  1  0
 20 37  1  0
 20 38  1  0
 22 39  1  0
 22 40  1  0
 23 41  1  0
 23 42  1  0
 25 43  1  0
 25 44  1  0
 25 45  1  0
 26 46  1  0
 26 47  1  0
 27 48  1  0
 27 49  1  0
 29 50  1  0
M  CHG  1  10  -1
M  END
>  <UniqueID>  (95) 
95

>  <SMILES>  (95) 
C#Cc1ccc2cc(C([NH-])=O)n(C(=O)OCOC(=O)CN3CCN(C)CC3)c2c1

>  <Energy>  (95) 
98.00304627574555

>  <Genealogy>  (95) 
C#Cc1ccc2cc(C([NH-])=O)n(C(=O)OCOC(=O)CN3CCN(C)CC3)c2c1 (protonated)
C#Cc1ccc2cc(C([NH-])=O)n(C(=O)OCOC(=O)CN3CCN(C)CC3)c2c1 (3D coordinates assigned)
C#Cc1ccc2cc(C([NH-])=O)n(C(=O)OCOC(=O)CN3CCN(C)CC3)c2c1 (nonaromatic ring conformer: 98.00304627574555 kcal/mol)

>  <smiles>  (95) 
C#Cc1ccc2cc(C(N)=O)n(C(=O)OCOC(=O)CN3CCN(C)CC3)c2c1

>  <score_type>  (95) 
oracle

>  <origin>  (95) 
adg

>  <m_score__min__energy>  (95) 
-11.460000000000001

>  <m_primary>  (95) 
energy

$$$$
95:0
     RDKit          3D

 37 38  0  0  0  0  0  0  0  0999 V2000
   -2.7730   20.4490  -30.0910 C   0  0  0  0  0  0  0  0  0  0  0  0
   -3.2700   21.7980  -29.8000 N   0  0  0  0  0  0  0  0  0  0  0  0
   -3.3420   22.2450  -28.4310 C   0  0  0  0  0  0  0  0  0  0  0  0
   -3.3890   21.4010  -27.4940 O   0  0  0  0  0  0  0  0  0  0  0  0
   -3.3460   23.6460  -28.1280 N   0  0  0  0  0  0  0  0  0  0  0  0
   -2.2510   24.3320  -27.4550 C   0  0  0  0  0  0  0  0  0  0  0  0
   -1.2600   24.8290  -28.4560 C   0  0  0  0  0  0  0  0  0  0  0  0
   -1.6030   25.6750  -29.3240 O   0  0  0  0  0  0  0  0  0  0  0  0
    0.0550   24.3830  -28.4120 O   0  0  0  0  0  0  0  0  0  0  0  0
   -3.8020   22.6070  -30.8700 C   0  0  0  0  0  0  0  0  0  0  0  0
   -3.0210   23.1160  -31.7210 O   0  0  0  0  0  0  0  0  0  0  0  0
   -5.2170   22.8140  -31.0080 N   0  0  0  0  0  0  0  0  0  0  0  0
   -5.9040   23.9850  -30.9030 C   0  0  0  0  0  0  0  0  0  0  0  0
   -5.3390   25.2880  -30.4910 C   0  0  0  0  0  0  0  0  0  0  0  0
   -4.0060   25.6530  -30.8380 N   0  0  0  0  0  0  0  0  0  0  0  0
   -6.0310   26.0760  -29.7930 O   0  0  0  0  0  0  0  0  0  0  0  0
   -7.2580   23.7810  -31.1700 C   0  0  0  0  0  0  0  0  0  0  0  0
   -7.3770   22.4360  -31.4420 C   0  0  0  0  0  0  0  0  0  0  0  0
   -8.5000   21.6860  -31.7780 C   0  0  0  0  0  0  0  0  0  0  0  0
   -8.3250   20.3130  -32.0220 C   0  0  0  0  0  0  0  0  0  0  0  0
   -7.0390   19.7210  -31.9350 C   0  0  0  0  0  0  0  0  0  0  0  0
   -6.8720   18.2550  -32.2110 C   0  0  0  0  0  0  0  0  0  0  0  0
   -6.1870   17.6600  -31.1660 F   0  0  0  0  0  0  0  0  0  0  0  0
   -8.1140   17.6610  -32.3400 F   0  0  0  0  0  0  0  0  0  0  0  0
   -5.9220   20.5170  -31.5970 C   0  0  0  0  0  0  0  0  0  0  0  0
   -6.1310   21.8770  -31.3420 C   0  0  0  0  0  0  0  0  0  0  0  0
   -2.5776   19.9187  -29.1473 H   0  0  0  0  0  0  0  0  0  0  0  0
   -3.5271   19.8978  -30.6720 H   0  0  0  0  0  0  0  0  0  0  0  0
   -1.8416   20.5188  -30.6720 H   0  0  0  0  0  0  0  0  0  0  0  0
   -2.6512   25.1842  -26.8861 H   0  0  0  0  0  0  0  0  0  0  0  0
   -1.7507   23.6274  -26.7744 H   0  0  0  0  0  0  0  0  0  0  0  0
   -3.2030   25.0210  -30.6250 H   0  0  0  0  0  0  0  0  0  0  0  0
   -8.0599   24.5340  -31.1645 H   0  0  0  0  0  0  0  0  0  0  0  0
   -9.4933   22.1530  -31.8503 H   0  0  0  0  0  0  0  0  0  0  0  0
   -9.1941   19.6913  -32.2831 H   0  0  0  0  0  0  0  0  0  0  0  0
   -6.3042   18.1257  -33.1442 H   0  0  0  0  0  0  0  0  0  0  0  0
   -4.9146   20.0794  -31.5359 H   0  0  0  0  0  0  0  0  0  0  0  0
  1  2  1  0
  2  3  1  0
  3  4  2  0
  3  5  1  0
  5  6  1  0
  6  7  1  0
  7  8  2  0
  7  9  1  0
  2 10  1  0
 10 11  2  0
 10 12  1  0
 12 13  1  0
 13 14  1  0
 14 15  1  0
 14 16  2  0
 13 17  2  0
 17 18  1  0
 18 19  2  0
 19 20  1  0
 20 21  2  0
 21 22  1  0
 22 23  1  0
 22 24  1  0
 21 25  1  0
 25 26  2  0
 26 12  1  0
 26 18  1  0
  1 27  1  0
  1 28  1  0
  1 29  1  0
  6 30  1  0
  6 31  1  0
 15 32  1  0
 17 33  1  0
 19 34  1  0
 20 35  1  0
 22 36  1  0
 25 37  1  0
M  CHG  3   5  -1   9  -1  15  -1
M  END
>  <UniqueID>  (96) 
96

>  <SMILES>  (96) 
CN(C(=O)[N-]CC(=O)[O-])C(=O)n1c(C([NH-])=O)cc2ccc(C(F)F)cc21

>  <Energy>  (96) 
74.50632114841973

>  <Genealogy>  (96) 
CN(C(=O)[N-]CC(=O)[O-])C(=O)n1c(C([NH-])=O)cc2ccc(C(F)F)cc21 (protonated)
CN(C(=O)[N-]CC(=O)[O-])C(=O)n1c(C([NH-])=O)cc2ccc(C(F)F)cc21 (3D coordinates assigned)
CN(C(=O)[N-]CC(=O)[O-])C(=O)n1c(C([NH-])=O)cc2ccc(C(F)F)cc21 (optimized conformer: 74.50632114841973 kcal/mol)

>  <smiles>  (96) 
CN(C(=O)NCC(=O)O)C(=O)n1c(C(N)=O)cc2ccc(C(F)F)cc21

>  <score_type>  (96) 
oracle

>  <origin>  (96) 
adg

>  <m_score__min__energy>  (96) 
-12.630000000000001

>  <m_primary>  (96) 
energy

$$$$
96:0
     RDKit          3D

 39 41  0  0  0  0  0  0  0  0999 V2000
   -4.2200   16.2100  -33.4750 N   0  0  0  0  0  0  0  0  0  0  0  0
   -5.6390   16.3330  -33.5730 C   0  0  0  0  0  0  0  0  0  0  0  0
   -6.3080   15.3840  -34.0610 O   0  0  0  0  0  0  0  0  0  0  0  0
   -6.3300   17.5730  -33.1660 C   0  0  0  0  0  0  0  0  0  0  0  0
   -7.6080   17.5950  -32.6140 C   0  0  0  0  0  0  0  0  0  0  0  0
   -7.8920   18.9260  -32.4060 C   0  0  0  0  0  0  0  0  0  0  0  0
   -9.0150   19.5230  -31.8420 C   0  0  0  0  0  0  0  0  0  0  0  0
   -9.0150   20.9200  -31.6950 C   0  0  0  0  0  0  0  0  0  0  0  0
   -7.9040   21.6940  -32.1160 C   0  0  0  0  0  0  0  0  0  0  0  0
   -7.8880   23.1840  -31.8930 C   0  0  0  0  0  0  0  0  0  0  0  0
   -6.9150   23.7850  -32.6730 F   0  0  0  0  0  0  0  0  0  0  0  0
   -9.1120   23.7420  -32.2220 F   0  0  0  0  0  0  0  0  0  0  0  0
   -7.6190   23.4420  -30.5610 F   0  0  0  0  0  0  0  0  0  0  0  0
   -6.7700   21.0460  -32.6600 C   0  0  0  0  0  0  0  0  0  0  0  0
   -6.8060   19.6560  -32.8170 C   0  0  0  0  0  0  0  0  0  0  0  0
   -5.8380   18.8380  -33.2880 N   0  0  0  0  0  0  0  0  0  0  0  0
   -4.5070   19.2180  -33.6790 C   0  0  0  0  0  0  0  0  0  0  0  0
   -3.9640   18.6380  -34.6540 O   0  0  0  0  0  0  0  0  0  0  0  0
   -3.8230   20.3380  -33.0000 C   0  0  0  0  0  0  0  0  0  0  0  0
   -3.4760   21.3230  -33.7010 O   0  0  0  0  0  0  0  0  0  0  0  0
   -3.5260   20.3790  -31.5900 N   0  0  0  0  0  0  0  0  0  0  0  0
   -4.0500   21.1870  -30.4780 C   0  0  0  0  0  0  0  0  0  0  0  0
   -4.6520   22.4900  -30.8880 C   0  0  0  0  0  0  0  0  0  0  0  0
   -3.6520   23.3340  -30.2020 N   0  0  0  0  0  0  0  0  0  0  0  0
   -3.3910   24.7240  -30.0330 C   0  0  0  0  0  0  0  0  0  0  0  0
   -2.4040   25.1020  -29.3510 O   0  0  0  0  0  0  0  0  0  0  0  0
   -4.2240   25.6640  -30.6240 O   0  0  0  0  0  0  0  0  0  0  0  0
   -3.0570   22.0530  -29.7700 C   0  0  0  0  0  0  0  0  0  0  0  0
   -3.7550   15.3070  -33.7210 H   0  0  0  0  0  0  0  0  0  0  0  0
   -3.6190   17.0320  -33.2500 H   0  0  0  0  0  0  0  0  0  0  0  0
   -8.2534   16.7325  -32.3914 H   0  0  0  0  0  0  0  0  0  0  0  0
   -9.8767   18.9194  -31.5209 H   0  0  0  0  0  0  0  0  0  0  0  0
   -9.8872   21.4194  -31.2480 H   0  0  0  0  0  0  0  0  0  0  0  0
   -5.8799   21.6221  -32.9530 H   0  0  0  0  0  0  0  0  0  0  0  0
   -4.6029   20.3779  -29.9785 H   0  0  0  0  0  0  0  0  0  0  0  0
   -4.6554   22.6339  -31.9785 H   0  0  0  0  0  0  0  0  0  0  0  0
   -5.7104   22.6579  -30.6399 H   0  0  0  0  0  0  0  0  0  0  0  0
   -2.0299   21.9137  -30.1382 H   0  0  0  0  0  0  0  0  0  0  0  0
   -2.9264   21.8943  -28.6894 H   0  0  0  0  0  0  0  0  0  0  0  0
  1  2  1  0
  2  3  2  0
  2  4  1  0
  4  5  2  0
  5  6  1  0
  6  7  2  0
  7  8  1  0
  8  9  2  0
  9 10  1  0
 10 11  1  0
 10 12  1  0
 10 13  1  0
  9 14  1  0
 14 15  2  0
 15 16  1  0
 16 17  1  0
 17 18  2  0
 17 19  1  0
 19 20  2  0
 19 21  1  0
 21 22  1  0
 22 23  1  0
 23 24  1  0
 24 25  1  0
 25 26  2  0
 25 27  1  0
 24 28  1  0
 16  4  1  0
 28 22  1  0
 15  6  1  0
  1 29  1  0
  1 30  1  0
  5 31  1  0
  7 32  1  0
  8 33  1  0
 14 34  1  0
 22 35  1  0
 23 36  1  0
 23 37  1  0
 28 38  1  0
 28 39  1  0
M  CHG  2  21  -1  27  -1
M  END
>  <UniqueID>  (97) 
97

>  <SMILES>  (97) 
NC(=O)c1cc2ccc(C(F)(F)F)cc2n1C(=O)C(=O)[N-]C1CN(C(=O)[O-])C1

>  <Energy>  (97) 
134.89231374018067

>  <Genealogy>  (97) 
NC(=O)c1cc2ccc(C(F)(F)F)cc2n1C(=O)C(=O)[N-]C1CN(C(=O)[O-])C1 (protonated)
NC(=O)c1cc2ccc(C(F)(F)F)cc2n1C(=O)C(=O)[N-]C1CN(C(=O)[O-])C1 (3D coordinates assigned)
NC(=O)c1cc2ccc(C(F)(F)F)cc2n1C(=O)C(=O)[N-]C1CN(C(=O)[O-])C1 (nonaromatic ring conformer: 134.89231374018067 kcal/mol)

>  <smiles>  (97) 
NC(=O)c1cc2ccc(C(F)(F)F)cc2n1C(=O)C(=O)NC1CN(C(=O)O)C1

>  <score_type>  (97) 
oracle

>  <origin>  (97) 
adg

>  <m_score__min__energy>  (97) 
-11.18

>  <m_primary>  (97) 
energy

$$$$
97:0
     RDKit          3D

 38 39  0  0  0  0  0  0  0  0999 V2000
   -2.2580   24.9990  -26.3930 C   0  0  0  0  0  0  0  0  0  0  0  0
   -1.4490   24.3790  -27.2500 C   0  0  0  0  0  0  0  0  0  0  0  0
   -1.3220   24.7870  -28.6580 C   0  0  0  0  0  0  0  0  0  0  0  0
   -1.2290   26.0070  -28.9680 O   0  0  0  0  0  0  0  0  0  0  0  0
   -1.3100   23.7980  -29.6480 O   0  0  0  0  0  0  0  0  0  0  0  0
   -1.5080   22.4120  -29.3750 C   0  0  0  0  0  0  0  0  0  0  0  0
   -2.9840   22.1020  -29.1090 C   0  0  0  0  0  0  0  0  0  0  0  0
   -3.5800   21.4750  -30.2430 O   0  0  0  0  0  0  0  0  0  0  0  0
   -4.1100   22.1770  -31.3310 C   0  0  0  0  0  0  0  0  0  0  0  0
   -3.4070   22.3900  -32.3570 O   0  0  0  0  0  0  0  0  0  0  0  0
   -5.4530   22.6820  -31.2700 N   0  0  0  0  0  0  0  0  0  0  0  0
   -5.8600   23.9150  -30.8520 C   0  0  0  0  0  0  0  0  0  0  0  0
   -4.9670   25.0440  -30.5120 C   0  0  0  0  0  0  0  0  0  0  0  0
   -3.5470   24.8760  -30.5110 N   0  0  0  0  0  0  0  0  0  0  0  0
   -5.4520   26.1600  -30.1890 O   0  0  0  0  0  0  0  0  0  0  0  0
   -7.2510   24.0050  -30.8810 C   0  0  0  0  0  0  0  0  0  0  0  0
   -7.6870   22.7820  -31.3350 C   0  0  0  0  0  0  0  0  0  0  0  0
   -8.9810   22.3160  -31.5480 C   0  0  0  0  0  0  0  0  0  0  0  0
   -9.1390   20.9940  -31.9980 C   0  0  0  0  0  0  0  0  0  0  0  0
   -8.0110   20.1690  -32.2180 C   0  0  0  0  0  0  0  0  0  0  0  0
   -8.1870   18.8210  -32.6630 N   0  0  0  0  0  0  0  0  0  0  0  0
   -6.7130   20.6740  -31.9930 C   0  0  0  0  0  0  0  0  0  0  0  0
   -6.5830   22.0000  -31.5630 C   0  0  0  0  0  0  0  0  0  0  0  0
   -2.3193   24.6575  -25.3492 H   0  0  0  0  0  0  0  0  0  0  0  0
   -2.8650   25.8526  -26.7289 H   0  0  0  0  0  0  0  0  0  0  0  0
   -0.8518   23.5278  -26.8910 H   0  0  0  0  0  0  0  0  0  0  0  0
   -1.1689   21.8243  -30.2408 H   0  0  0  0  0  0  0  0  0  0  0  0
   -0.9309   22.1495  -28.4761 H   0  0  0  0  0  0  0  0  0  0  0  0
   -3.0611   21.4290  -28.2423 H   0  0  0  0  0  0  0  0  0  0  0  0
   -3.5128   23.0454  -28.9080 H   0  0  0  0  0  0  0  0  0  0  0  0
   -2.9270   25.6690  -30.2330 H   0  0  0  0  0  0  0  0  0  0  0  0
   -3.1060   23.9850  -30.8250 H   0  0  0  0  0  0  0  0  0  0  0  0
   -7.8689   24.8707  -30.6003 H   0  0  0  0  0  0  0  0  0  0  0  0
   -9.8530   22.9624  -31.3697 H   0  0  0  0  0  0  0  0  0  0  0  0
  -10.1486   20.5973  -32.1807 H   0  0  0  0  0  0  0  0  0  0  0  0
   -8.7620   18.6080  -33.5090 H   0  0  0  0  0  0  0  0  0  0  0  0
   -7.7420   18.0280  -32.1510 H   0  0  0  0  0  0  0  0  0  0  0  0
   -5.8264   20.0425  -32.1513 H   0  0  0  0  0  0  0  0  0  0  0  0
  1  2  2  0
  2  3  1  0
  3  4  2  0
  3  5  1  0
  5  6  1  0
  6  7  1  0
  7  8  1  0
  8  9  1  0
  9 10  2  0
  9 11  1  0
 11 12  1  0
 12 13  1  0
 13 14  1  0
 13 15  2  0
 12 16  2  0
 16 17  1  0
 17 18  2  0
 18 19  1  0
 19 20  2  0
 20 21  1  0
 20 22  1  0
 22 23  2  0
 23 11  1  0
 23 17  1  0
  1 24  1  0
  1 25  1  0
  2 26  1  0
  6 27  1  0
  6 28  1  0
  7 29  1  0
  7 30  1  0
 14 31  1  0
 14 32  1  0
 16 33  1  0
 18 34  1  0
 19 35  1  0
 21 36  1  0
 21 37  1  0
 22 38  1  0
M  END
>  <UniqueID>  (98) 
98

>  <SMILES>  (98) 
C=CC(=O)OCCOC(=O)n1c(C(N)=O)cc2ccc(N)cc21

>  <Energy>  (98) 
69.25525084184717

>  <Genealogy>  (98) 
C=CC(=O)OCCOC(=O)n1c(C(N)=O)cc2ccc(N)cc21 (3D coordinates assigned)
C=CC(=O)OCCOC(=O)n1c(C(N)=O)cc2ccc(N)cc21 (optimized conformer: 69.25525084184717 kcal/mol)

>  <smiles>  (98) 
C=CC(=O)OCCOC(=O)n1c(C(N)=O)cc2ccc(N)cc21

>  <score_type>  (98) 
oracle

>  <origin>  (98) 
adg

>  <m_score__min__energy>  (98) 
-7.1500000000000004

>  <m_primary>  (98) 
energy

$$$$
98:0
     RDKit          3D

 43 44  0  0  0  0  0  0  0  0999 V2000
   -4.2510   24.6100  -26.7730 C   0  0  0  0  0  0  0  0  0  0  0  0
   -3.1790   24.5750  -27.7610 N   0  0  0  0  0  0  0  0  0  0  0  0
   -1.8000   24.6710  -27.3800 C   0  0  0  0  0  0  0  0  0  0  0  0
   -1.4890   24.7970  -26.1640 O   0  0  0  0  0  0  0  0  0  0  0  0
   -0.7410   24.6410  -28.3990 C   0  0  0  0  0  0  0  0  0  0  0  0
    0.4450   24.9270  -28.0770 O   0  0  0  0  0  0  0  0  0  0  0  0
   -1.0550   24.3070  -29.7210 O   0  0  0  0  0  0  0  0  0  0  0  0
   -1.4380   22.9910  -30.1170 C   0  0  0  0  0  0  0  0  0  0  0  0
   -2.8580   22.8870  -30.1490 O   0  0  0  0  0  0  0  0  0  0  0  0
   -3.5660   22.6360  -31.3270 C   0  0  0  0  0  0  0  0  0  0  0  0
   -2.9750   22.1780  -32.3440 O   0  0  0  0  0  0  0  0  0  0  0  0
   -4.9860   22.8290  -31.3580 N   0  0  0  0  0  0  0  0  0  0  0  0
   -5.7030   23.8610  -30.8360 C   0  0  0  0  0  0  0  0  0  0  0  0
   -5.1380   25.0830  -30.2270 C   0  0  0  0  0  0  0  0  0  0  0  0
   -3.8650   25.5650  -30.6500 N   0  0  0  0  0  0  0  0  0  0  0  0
   -5.7590   25.6960  -29.3200 O   0  0  0  0  0  0  0  0  0  0  0  0
   -7.0680   23.6320  -30.9980 C   0  0  0  0  0  0  0  0  0  0  0  0
   -7.1620   22.4130  -31.6330 C   0  0  0  0  0  0  0  0  0  0  0  0
   -8.2810   21.6790  -32.0080 C   0  0  0  0  0  0  0  0  0  0  0  0
   -8.0790   20.4200  -32.5980 C   0  0  0  0  0  0  0  0  0  0  0  0
   -6.7660   19.9030  -32.7970 C   0  0  0  0  0  0  0  0  0  0  0  0
   -6.5660   18.5900  -33.3800 N   0  0  0  0  0  0  0  0  0  0  0  0
   -7.1800   17.4030  -32.7720 C   0  0  0  0  0  0  0  0  0  0  0  0
   -5.7410   18.4260  -34.5830 C   0  0  0  0  0  0  0  0  0  0  0  0
   -5.6570   20.6940  -32.4030 C   0  0  0  0  0  0  0  0  0  0  0  0
   -5.8910   21.9490  -31.8360 C   0  0  0  0  0  0  0  0  0  0  0  0
   -3.8183   24.5959  -25.7618 H   0  0  0  0  0  0  0  0  0  0  0  0
   -4.8424   25.5279  -26.9060 H   0  0  0  0  0  0  0  0  0  0  0  0
   -4.9010   23.7326  -26.9060 H   0  0  0  0  0  0  0  0  0  0  0  0
   -3.4350   24.4880  -28.7710 H   0  0  0  0  0  0  0  0  0  0  0  0
   -1.0344   22.7797  -31.1182 H   0  0  0  0  0  0  0  0  0  0  0  0
   -1.0385   22.2651  -29.3935 H   0  0  0  0  0  0  0  0  0  0  0  0
   -2.9890   25.0550  -30.4000 H   0  0  0  0  0  0  0  0  0  0  0  0
   -7.8953   24.2860  -30.6851 H   0  0  0  0  0  0  0  0  0  0  0  0
   -9.2956   22.0724  -31.8475 H   0  0  0  0  0  0  0  0  0  0  0  0
   -8.9485   19.8236  -32.9114 H   0  0  0  0  0  0  0  0  0  0  0  0
   -7.1360   17.4880  -31.6762 H   0  0  0  0  0  0  0  0  0  0  0  0
   -8.2297   17.3285  -33.0922 H   0  0  0  0  0  0  0  0  0  0  0  0
   -6.6343   16.5032  -33.0922 H   0  0  0  0  0  0  0  0  0  0  0  0
   -4.7013   18.2193  -34.2892 H   0  0  0  0  0  0  0  0  0  0  0  0
   -6.1268   17.5870  -35.1806 H   0  0  0  0  0  0  0  0  0  0  0  0
   -5.7766   19.3488  -35.1806 H   0  0  0  0  0  0  0  0  0  0  0  0
   -4.6298   20.3256  -32.5415 H   0  0  0  0  0  0  0  0  0  0  0  0
  1  2  1  0
  2  3  1  0
  3  4  2  0
  3  5  1  0
  5  6  2  0
  5  7  1  0
  7  8  1  0
  8  9  1  0
  9 10  1  0
 10 11  2  0
 10 12  1  0
 12 13  1  0
 13 14  1  0
 14 15  1  0
 14 16  2  0
 13 17  2  0
 17 18  1  0
 18 19  2  0
 19 20  1  0
 20 21  2  0
 21 22  1  0
 22 23  1  0
 22 24  1  0
 21 25  1  0
 25 26  2  0
 26 12  1  0
 26 18  1  0
  1 27  1  0
  1 28  1  0
  1 29  1  0
  2 30  1  0
  8 31  1  0
  8 32  1  0
 15 33  1  0
 17 34  1  0
 19 35  1  0
 20 36  1  0
 23 37  1  0
 23 38  1  0
 23 39  1  0
 24 40  1  0
 24 41  1  0
 24 42  1  0
 25 43  1  0
M  CHG  1  15  -1
M  END
>  <UniqueID>  (99) 
99

>  <SMILES>  (99) 
CNC(=O)C(=O)OCOC(=O)n1c(C([NH-])=O)cc2ccc(N(C)C)cc21

>  <Energy>  (99) 
74.60423097611549

>  <Genealogy>  (99) 
CNC(=O)C(=O)OCOC(=O)n1c(C([NH-])=O)cc2ccc(N(C)C)cc21 (protonated)
CNC(=O)C(=O)OCOC(=O)n1c(C([NH-])=O)cc2ccc(N(C)C)cc21 (3D coordinates assigned)
CNC(=O)C(=O)OCOC(=O)n1c(C([NH-])=O)cc2ccc(N(C)C)cc21 (optimized conformer: 74.60423097611549 kcal/mol)

>  <smiles>  (99) 
CNC(=O)C(=O)OCOC(=O)n1c(C(N)=O)cc2ccc(N(C)C)cc21

>  <score_type>  (99) 
oracle

>  <origin>  (99) 
adg

>  <m_score__min__energy>  (99) 
-9.6099999999999994

>  <m_primary>  (99) 
energy

$$$$
