0:0
     RDKit          3D

 40 41  0  0  0  0  0  0  0  0999 V2000
   -2.3490   25.3260  -26.2910 C   0  0  0  0  0  0  0  0  0  0  0  0
   -1.4240   24.3240  -26.9710 C   0  0  0  0  0  0  0  0  0  0  0  0
   -1.9900   23.9310  -28.6220 S   0  0  0  0  0  0  0  0  0  0  0  0
   -2.2900   25.2070  -29.3560 O   0  0  0  0  0  0  0  0  0  0  0  0
   -0.8980   23.1970  -29.3470 O   0  0  0  0  0  0  0  0  0  0  0  0
   -3.4640   22.9170  -28.6000 C   0  0  0  0  0  0  0  0  0  0  0  0
   -3.4580   21.9070  -29.7470 C   0  0  0  0  0  0  0  0  0  0  0  0
   -3.9500   22.5560  -31.0070 C   0  0  0  0  0  0  0  0  0  0  0  0
   -3.1280   22.8470  -31.9170 O   0  0  0  0  0  0  0  0  0  0  0  0
   -5.3550   22.7460  -31.2310 N   0  0  0  0  0  0  0  0  0  0  0  0
   -6.1070   23.8500  -30.9620 C   0  0  0  0  0  0  0  0  0  0  0  0
   -5.5940   25.1640  -30.5220 C   0  0  0  0  0  0  0  0  0  0  0  0
   -4.2190   25.5160  -30.6790 N   0  0  0  0  0  0  0  0  0  0  0  0
   -6.3930   26.0070  -30.0360 O   0  0  0  0  0  0  0  0  0  0  0  0
   -7.4570   23.5870  -31.1900 C   0  0  0  0  0  0  0  0  0  0  0  0
   -7.5050   22.2810  -31.6240 C   0  0  0  0  0  0  0  0  0  0  0  0
   -8.5960   21.4890  -31.9670 C   0  0  0  0  0  0  0  0  0  0  0  0
   -8.3520   20.1560  -32.3370 C   0  0  0  0  0  0  0  0  0  0  0  0
   -7.0310   19.6390  -32.3660 C   0  0  0  0  0  0  0  0  0  0  0  0
   -6.7880   18.1910  -32.7040 C   0  0  0  0  0  0  0  0  0  0  0  0
   -7.9330   17.4640  -32.4320 F   0  0  0  0  0  0  0  0  0  0  0  0
   -6.4710   18.0470  -34.0430 F   0  0  0  0  0  0  0  0  0  0  0  0
   -5.7420   17.6820  -31.9540 F   0  0  0  0  0  0  0  0  0  0  0  0
   -5.9510   20.4700  -31.9860 C   0  0  0  0  0  0  0  0  0  0  0  0
   -6.2230   21.7970  -31.6390 C   0  0  0  0  0  0  0  0  0  0  0  0
   -2.2577   25.2270  -25.1993 H   0  0  0  0  0  0  0  0  0  0  0  0
   -2.0686   26.3464  -26.5914 H   0  0  0  0  0  0  0  0  0  0  0  0
   -3.3885   25.1279  -26.5914 H   0  0  0  0  0  0  0  0  0  0  0  0
   -0.4133   24.7538  -27.0318 H   0  0  0  0  0  0  0  0  0  0  0  0
   -1.4189   23.3983  -26.3768 H   0  0  0  0  0  0  0  0  0  0  0  0
   -3.5118   22.3743  -27.6444 H   0  0  0  0  0  0  0  0  0  0  0  0
   -4.3393   23.5727  -28.7182 H   0  0  0  0  0  0  0  0  0  0  0  0
   -2.4330   21.5396  -29.9031 H   0  0  0  0  0  0  0  0  0  0  0  0
   -4.1212   21.0675  -29.4914 H   0  0  0  0  0  0  0  0  0  0  0  0
   -3.5680   24.9250  -31.2400 H   0  0  0  0  0  0  0  0  0  0  0  0
   -3.8680   26.4260  -30.3080 H   0  0  0  0  0  0  0  0  0  0  0  0
   -8.3035   24.2759  -31.0525 H   0  0  0  0  0  0  0  0  0  0  0  0
   -9.6185   21.8942  -31.9490 H   0  0  0  0  0  0  0  0  0  0  0  0
   -9.1960   19.5046  -32.6078 H   0  0  0  0  0  0  0  0  0  0  0  0
   -4.9221   20.0816  -31.9640 H   0  0  0  0  0  0  0  0  0  0  0  0
  1  2  1  0
  2  3  1  0
  3  4  2  0
  3  5  2  0
  3  6  1  0
  6  7  1  0
  7  8  1  0
  8  9  2  0
  8 10  1  0
 10 11  1  0
 11 12  1  0
 12 13  1  0
 12 14  2  0
 11 15  2  0
 15 16  1  0
 16 17  2  0
 17 18  1  0
 18 19  2  0
 19 20  1  0
 20 21  1  0
 20 22  1  0
 20 23  1  0
 19 24  1  0
 24 25  2  0
 25 10  1  0
 25 16  1  0
  1 26  1  0
  1 27  1  0
  1 28  1  0
  2 29  1  0
  2 30  1  0
  6 31  1  0
  6 32  1  0
  7 33  1  0
  7 34  1  0
 13 35  1  0
 13 36  1  0
 15 37  1  0
 17 38  1  0
 18 39  1  0
 24 40  1  0
M  END
>  <UniqueID>  (1) 
1

>  <SMILES>  (1) 
CCS(=O)(=O)CCC(=O)n1c(C(N)=O)cc2ccc(C(F)(F)F)cc21

>  <Energy>  (1) 
67.43778970451211

>  <Genealogy>  (1) 
CCS(=O)(=O)CCC(=O)n1c(C(N)=O)cc2ccc(C(F)(F)F)cc21 (3D coordinates assigned)
CCS(=O)(=O)CCC(=O)n1c(C(N)=O)cc2ccc(C(F)(F)F)cc21 (optimized conformer: 67.43778970451211 kcal/mol)

>  <smiles>  (1) 
CCS(=O)(=O)CCC(=O)n1c(C(N)=O)cc2ccc(C(F)(F)F)cc21

>  <score_type>  (1) 
oracle

>  <origin>  (1) 
adg

>  <m_score__min__energy>  (1) 
-9.7200000000000006

>  <m_primary>  (1) 
energy

$$$$
1:0
     RDKit          3D

 34 35  0  0  0  0  0  0  0  0999 V2000
   -3.8940   25.6700  -30.8800 N   0  0  0  0  0  0  0  0  0  0  0  0
   -5.1950   25.2760  -30.4540 C   0  0  0  0  0  0  0  0  0  0  0  0
   -5.8770   26.0650  -29.7480 O   0  0  0  0  0  0  0  0  0  0  0  0
   -5.7750   23.9840  -30.8760 C   0  0  0  0  0  0  0  0  0  0  0  0
   -7.1460   23.7390  -30.9230 C   0  0  0  0  0  0  0  0  0  0  0  0
   -7.2730   22.4730  -31.4490 C   0  0  0  0  0  0  0  0  0  0  0  0
   -8.4140   21.7200  -31.7070 C   0  0  0  0  0  0  0  0  0  0  0  0
   -8.2470   20.4250  -32.2270 C   0  0  0  0  0  0  0  0  0  0  0  0
   -6.9510   19.9130  -32.4670 C   0  0  0  0  0  0  0  0  0  0  0  0
   -6.7910   18.5810  -32.9880 C   0  0  0  0  0  0  0  0  0  0  0  0
   -6.6560   17.4650  -33.4250 C   0  0  0  0  0  0  0  0  0  0  0  0
   -6.4910   16.1100  -33.9550 C   0  0  0  0  0  0  0  0  0  0  0  0
   -5.3650   15.4550  -33.3000 N   0  0  0  0  0  0  0  0  0  0  0  0
   -5.8140   20.7000  -32.1930 C   0  0  0  0  0  0  0  0  0  0  0  0
   -6.0110   21.9930  -31.6940 C   0  0  0  0  0  0  0  0  0  0  0  0
   -5.0810   22.9080  -31.3440 N   0  0  0  0  0  0  0  0  0  0  0  0
   -3.6560   22.7270  -31.3850 C   0  0  0  0  0  0  0  0  0  0  0  0
   -3.1310   22.0830  -32.3340 O   0  0  0  0  0  0  0  0  0  0  0  0
   -2.8570   23.2880  -30.3830 O   0  0  0  0  0  0  0  0  0  0  0  0
   -3.1860   23.2310  -28.9970 C   0  0  0  0  0  0  0  0  0  0  0  0
   -2.6230   24.4140  -28.2700 C   0  0  0  0  0  0  0  0  0  0  0  0
   -2.0300   25.2850  -28.8860 O   0  0  0  0  0  0  0  0  0  0  0  0
   -3.0390   25.2970  -30.4110 H   0  0  0  0  0  0  0  0  0  0  0  0
   -7.9551   24.4139  -30.6069 H   0  0  0  0  0  0  0  0  0  0  0  0
   -9.4171   22.1261  -31.5099 H   0  0  0  0  0  0  0  0  0  0  0  0
   -9.1292   19.8064  -32.4485 H   0  0  0  0  0  0  0  0  0  0  0  0
   -7.4080   15.5315  -33.7693 H   0  0  0  0  0  0  0  0  0  0  0  0
   -6.2989   16.1650  -35.0367 H   0  0  0  0  0  0  0  0  0  0  0  0
   -5.6190   14.4530  -33.1350 H   0  0  0  0  0  0  0  0  0  0  0  0
   -5.2510   15.8910  -32.3560 H   0  0  0  0  0  0  0  0  0  0  0  0
   -4.8005   20.3091  -32.3664 H   0  0  0  0  0  0  0  0  0  0  0  0
   -4.2803   23.2260  -28.8855 H   0  0  0  0  0  0  0  0  0  0  0  0
   -2.7545   22.3144  -28.5685 H   0  0  0  0  0  0  0  0  0  0  0  0
   -2.7442   24.4976  -27.1799 H   0  0  0  0  0  0  0  0  0  0  0  0
  1  2  1  0
  2  3  2  0
  2  4  1  0
  4  5  2  0
  5  6  1  0
  6  7  2  0
  7  8  1  0
  8  9  2  0
  9 10  1  0
 10 11  3  0
 11 12  1  0
 12 13  1  0
  9 14  1  0
 14 15  2  0
 15 16  1  0
 16 17  1  0
 17 18  2  0
 17 19  1  0
 19 20  1  0
 20 21  1  0
 21 22  2  0
 16  4  1  0
 15  6  1  0
  1 23  1  0
  5 24  1  0
  7 25  1  0
  8 26  1  0
 12 27  1  0
 12 28  1  0
 13 29  1  0
 13 30  1  0
 14 31  1  0
 20 32  1  0
 20 33  1  0
 21 34  1  0
M  CHG  1   1  -1
M  END
>  <UniqueID>  (2) 
2

>  <SMILES>  (2) 
[NH-]C(=O)c1cc2ccc(C#CCN)cc2n1C(=O)OCC=O

>  <Energy>  (2) 
64.61043570831215

>  <Genealogy>  (2) 
[NH-]C(=O)c1cc2ccc(C#CCN)cc2n1C(=O)OCC=O (protonated)
[NH-]C(=O)c1cc2ccc(C#CCN)cc2n1C(=O)OCC=O (3D coordinates assigned)
[NH-]C(=O)c1cc2ccc(C#CCN)cc2n1C(=O)OCC=O (optimized conformer: 64.61043570831215 kcal/mol)

>  <smiles>  (2) 
NCC#Cc1ccc2cc(C(N)=O)n(C(=O)OCC=O)c2c1

>  <score_type>  (2) 
oracle

>  <origin>  (2) 
adg

>  <m_score__min__energy>  (2) 
-9.8699999999999992

>  <m_primary>  (2) 
energy

$$$$
2:0
     RDKit          3D

 42 43  0  0  0  0  0  0  0  0999 V2000
    1.3590   24.1900  -27.8920 C   0  0  0  0  0  0  0  0  0  0  0  0
    0.0980   24.4370  -28.4710 O   0  0  0  0  0  0  0  0  0  0  0  0
   -0.9380   24.2770  -27.5120 C   0  0  0  0  0  0  0  0  0  0  0  0
   -2.1360   25.1640  -27.8880 C   0  0  0  0  0  0  0  0  0  0  0  0
   -2.3090   25.2220  -29.3370 N   0  0  0  0  0  0  0  0  0  0  0  0
   -3.3960   24.5970  -30.0280 C   0  0  0  0  0  0  0  0  0  0  0  0
   -4.0940   25.2570  -30.8440 O   0  0  0  0  0  0  0  0  0  0  0  0
   -3.7000   23.1800  -29.7820 C   0  0  0  0  0  0  0  0  0  0  0  0
   -3.8950   22.7810  -28.6040 O   0  0  0  0  0  0  0  0  0  0  0  0
   -3.7690   22.2450  -30.8710 N   0  0  0  0  0  0  0  0  0  0  0  0
   -2.7270   21.6710  -31.5370 C   0  0  0  0  0  0  0  0  0  0  0  0
   -1.2980   21.8240  -31.1820 C   0  0  0  0  0  0  0  0  0  0  0  0
   -0.8940   22.6920  -30.1200 N   0  0  0  0  0  0  0  0  0  0  0  0
   -0.4160   21.1990  -31.8290 O   0  0  0  0  0  0  0  0  0  0  0  0
   -3.2010   20.8560  -32.5670 C   0  0  0  0  0  0  0  0  0  0  0  0
   -4.5740   20.9590  -32.5130 C   0  0  0  0  0  0  0  0  0  0  0  0
   -5.5500   20.3680  -33.3100 C   0  0  0  0  0  0  0  0  0  0  0  0
   -6.8950   20.6750  -33.0410 C   0  0  0  0  0  0  0  0  0  0  0  0
   -7.2370   21.5710  -31.9970 C   0  0  0  0  0  0  0  0  0  0  0  0
   -8.6790   21.8900  -31.7280 C   0  0  0  0  0  0  0  0  0  0  0  0
   -9.4890   20.9540  -32.3440 F   0  0  0  0  0  0  0  0  0  0  0  0
   -8.9130   21.8690  -30.3650 F   0  0  0  0  0  0  0  0  0  0  0  0
   -6.2180   22.1530  -31.2120 C   0  0  0  0  0  0  0  0  0  0  0  0
   -4.8890   21.8080  -31.4850 C   0  0  0  0  0  0  0  0  0  0  0  0
   -1.3690   22.9300  -27.5130 O   0  0  0  0  0  0  0  0  0  0  0  0
   -0.9520   22.2880  -26.3280 C   0  0  0  0  0  0  0  0  0  0  0  0
    1.2689   24.2076  -26.7958 H   0  0  0  0  0  0  0  0  0  0  0  0
    1.7235   23.2034  -28.2141 H   0  0  0  0  0  0  0  0  0  0  0  0
    2.0688   24.9662  -28.2141 H   0  0  0  0  0  0  0  0  0  0  0  0
   -0.5556   24.5602  -26.5203 H   0  0  0  0  0  0  0  0  0  0  0  0
   -3.0476   24.7493  -27.4331 H   0  0  0  0  0  0  0  0  0  0  0  0
   -1.9490   26.1822  -27.5160 H   0  0  0  0  0  0  0  0  0  0  0  0
   -1.5910   23.1760  -29.5150 H   0  0  0  0  0  0  0  0  0  0  0  0
    0.1210   22.8180  -29.9070 H   0  0  0  0  0  0  0  0  0  0  0  0
   -2.6047   20.2584  -33.2721 H   0  0  0  0  0  0  0  0  0  0  0  0
   -5.2772   19.6818  -34.1253 H   0  0  0  0  0  0  0  0  0  0  0  0
   -7.6901   20.2155  -33.6465 H   0  0  0  0  0  0  0  0  0  0  0  0
   -8.9062   22.8897  -32.1267 H   0  0  0  0  0  0  0  0  0  0  0  0
   -6.4623   22.8602  -30.4057 H   0  0  0  0  0  0  0  0  0  0  0  0
   -1.3181   22.8517  -25.4572 H   0  0  0  0  0  0  0  0  0  0  0  0
   -1.3596   21.2666  -26.3014 H   0  0  0  0  0  0  0  0  0  0  0  0
    0.1468   22.2451  -26.3014 H   0  0  0  0  0  0  0  0  0  0  0  0
  1  2  1  0
  2  3  1  0
  3  4  1  0
  4  5  1  0
  5  6  1  0
  6  7  2  0
  6  8  1  0
  8  9  2  0
  8 10  1  0
 10 11  1  0
 11 12  1  0
 12 13  1  0
 12 14  2  0
 11 15  2  0
 15 16  1  0
 16 17  2  0
 17 18  1  0
 18 19  2  0
 19 20  1  0
 20 21  1  0
 20 22  1  0
 19 23  1  0
 23 24  2  0
  3 25  1  0
 25 26  1  0
 24 10  1  0
 24 16  1  0
  1 27  1  0
  1 28  1  0
  1 29  1  0
  3 30  1  0
  4 31  1  0
  4 32  1  0
 13 33  1  0
 13 34  1  0
 15 35  1  0
 17 36  1  0
 18 37  1  0
 20 38  1  0
 23 39  1  0
 26 40  1  0
 26 41  1  0
 26 42  1  0
M  CHG  1   5  -1
M  END
>  <UniqueID>  (3) 
3

>  <SMILES>  (3) 
COC(C[N-]C(=O)C(=O)n1c(C(N)=O)cc2ccc(C(F)F)cc21)OC

>  <Energy>  (3) 
80.19604760642578

>  <Genealogy>  (3) 
COC(C[N-]C(=O)C(=O)n1c(C(N)=O)cc2ccc(C(F)F)cc21)OC (protonated)
COC(C[N-]C(=O)C(=O)n1c(C(N)=O)cc2ccc(C(F)F)cc21)OC (3D coordinates assigned)
COC(C[N-]C(=O)C(=O)n1c(C(N)=O)cc2ccc(C(F)F)cc21)OC (optimized conformer: 80.19604760642578 kcal/mol)

>  <smiles>  (3) 
COC(CNC(=O)C(=O)n1c(C(N)=O)cc2ccc(C(F)F)cc21)OC

>  <score_type>  (3) 
oracle

>  <origin>  (3) 
adg

>  <m_score__min__energy>  (3) 
-9.5

>  <m_primary>  (3) 
energy

$$$$
3:0
     RDKit          3D

 34 35  0  0  0  0  0  0  0  0999 V2000
   -2.5470   25.3240  -28.9570 N   0  0  0  0  0  0  0  0  0  0  0  0
   -2.0560   24.0700  -29.2670 O   0  0  0  0  0  0  0  0  0  0  0  0
   -2.6380   22.9000  -28.7680 C   0  0  0  0  0  0  0  0  0  0  0  0
   -3.2310   22.9030  -27.6560 O   0  0  0  0  0  0  0  0  0  0  0  0
   -2.5510   21.6370  -29.5650 C   0  0  0  0  0  0  0  0  0  0  0  0
   -3.3250   21.7480  -30.7570 O   0  0  0  0  0  0  0  0  0  0  0  0
   -4.1510   22.8430  -31.0360 C   0  0  0  0  0  0  0  0  0  0  0  0
   -3.6520   23.9870  -31.2180 O   0  0  0  0  0  0  0  0  0  0  0  0
   -5.5730   22.6590  -31.1270 N   0  0  0  0  0  0  0  0  0  0  0  0
   -6.5510   23.4600  -30.6160 C   0  0  0  0  0  0  0  0  0  0  0  0
   -6.3320   24.6240  -29.7290 C   0  0  0  0  0  0  0  0  0  0  0  0
   -5.0740   24.8210  -29.0800 N   0  0  0  0  0  0  0  0  0  0  0  0
   -7.2470   25.4730  -29.5610 O   0  0  0  0  0  0  0  0  0  0  0  0
   -7.8100   22.9760  -30.9670 C   0  0  0  0  0  0  0  0  0  0  0  0
   -7.5700   21.8420  -31.7100 C   0  0  0  0  0  0  0  0  0  0  0  0
   -8.4640   20.9740  -32.3290 C   0  0  0  0  0  0  0  0  0  0  0  0
   -7.9380   19.8980  -33.0620 C   0  0  0  0  0  0  0  0  0  0  0  0
   -6.5360   19.7010  -33.1560 C   0  0  0  0  0  0  0  0  0  0  0  0
   -5.9820   18.5800  -33.9980 C   0  0  0  0  0  0  0  0  0  0  0  0
   -6.1220   18.9030  -35.3350 F   0  0  0  0  0  0  0  0  0  0  0  0
   -4.6410   18.3770  -33.7210 F   0  0  0  0  0  0  0  0  0  0  0  0
   -6.6590   17.3990  -33.7460 F   0  0  0  0  0  0  0  0  0  0  0  0
   -5.6600   20.6210  -32.5320 C   0  0  0  0  0  0  0  0  0  0  0  0
   -6.2140   21.6720  -31.7920 C   0  0  0  0  0  0  0  0  0  0  0  0
   -3.0890   25.6710  -29.7790 H   0  0  0  0  0  0  0  0  0  0  0  0
   -3.2070   25.2210  -28.1520 H   0  0  0  0  0  0  0  0  0  0  0  0
   -1.5006   21.4478  -29.8311 H   0  0  0  0  0  0  0  0  0  0  0  0
   -2.9431   20.8057  -28.9607 H   0  0  0  0  0  0  0  0  0  0  0  0
   -4.9180   25.6660  -28.4880 H   0  0  0  0  0  0  0  0  0  0  0  0
   -4.3120   24.1130  -29.1500 H   0  0  0  0  0  0  0  0  0  0  0  0
   -8.7873   23.4080  -30.7060 H   0  0  0  0  0  0  0  0  0  0  0  0
   -9.5503   21.1261  -32.2466 H   0  0  0  0  0  0  0  0  0  0  0  0
   -8.6205   19.2000  -33.5690 H   0  0  0  0  0  0  0  0  0  0  0  0
   -4.5694   20.5126  -32.6264 H   0  0  0  0  0  0  0  0  0  0  0  0
  1  2  1  0
  2  3  1  0
  3  4  2  0
  3  5  1  0
  5  6  1  0
  6  7  1  0
  7  8  2  0
  7  9  1  0
  9 10  1  0
 10 11  1  0
 11 12  1  0
 11 13  2  0
 10 14  2  0
 14 15  1  0
 15 16  2  0
 16 17  1  0
 17 18  2  0
 18 19  1  0
 19 20  1  0
 19 21  1  0
 19 22  1  0
 18 23  1  0
 23 24  2  0
 24  9  1  0
 24 15  1  0
  1 25  1  0
  1 26  1  0
  5 27  1  0
  5 28  1  0
 12 29  1  0
 12 30  1  0
 14 31  1  0
 16 32  1  0
 17 33  1  0
 23 34  1  0
M  END
>  <UniqueID>  (4) 
4

>  <SMILES>  (4) 
NOC(=O)COC(=O)n1c(C(N)=O)cc2ccc(C(F)(F)F)cc21

>  <Energy>  (4) 
70.20389652985247

>  <Genealogy>  (4) 
NOC(=O)COC(=O)n1c(C(N)=O)cc2ccc(C(F)(F)F)cc21 (3D coordinates assigned)
NOC(=O)COC(=O)n1c(C(N)=O)cc2ccc(C(F)(F)F)cc21 (optimized conformer: 70.20389652985247 kcal/mol)

>  <smiles>  (4) 
NOC(=O)COC(=O)n1c(C(N)=O)cc2ccc(C(F)(F)F)cc21

>  <score_type>  (4) 
oracle

>  <origin>  (4) 
adg

>  <m_score__min__energy>  (4) 
-7.9699999999999998

>  <m_primary>  (4) 
energy

$$$$
4:0
     RDKit          3D

 38 39  0  0  0  0  0  0  0  0999 V2000
   -1.0550   24.4710  -25.9740 C   0  0  0  0  0  0  0  0  0  0  0  0
   -1.8000   25.0970  -27.1580 C   0  0  2  0  0  0  0  0  0  0  0  0
   -2.9570   24.1960  -27.6360 C   0  0  0  0  0  0  0  0  0  0  0  0
   -2.4610   23.0840  -28.4470 N   0  0  0  0  0  0  0  0  0  0  0  0
   -2.8030   22.8120  -29.8130 C   0  0  0  0  0  0  0  0  0  0  0  0
   -2.1810   23.4260  -30.7190 O   0  0  0  0  0  0  0  0  0  0  0  0
   -3.8430   21.8340  -30.2040 C   0  0  0  0  0  0  0  0  0  0  0  0
   -3.6510   20.6010  -30.0340 O   0  0  0  0  0  0  0  0  0  0  0  0
   -5.0870   22.2820  -30.7710 N   0  0  0  0  0  0  0  0  0  0  0  0
   -5.6240   23.5330  -30.7110 C   0  0  0  0  0  0  0  0  0  0  0  0
   -4.9640   24.7390  -30.1640 C   0  0  0  0  0  0  0  0  0  0  0  0
   -3.8840   25.3610  -30.8560 N   0  0  0  0  0  0  0  0  0  0  0  0
   -5.3790   25.2450  -29.0870 O   0  0  0  0  0  0  0  0  0  0  0  0
   -6.8930   23.5470  -31.2860 C   0  0  0  0  0  0  0  0  0  0  0  0
   -7.1200   22.2520  -31.6980 C   0  0  0  0  0  0  0  0  0  0  0  0
   -8.2290   21.6970  -32.3320 C   0  0  0  0  0  0  0  0  0  0  0  0
   -8.2060   20.3190  -32.6130 C   0  0  0  0  0  0  0  0  0  0  0  0
   -7.0990   19.5190  -32.2260 C   0  0  0  0  0  0  0  0  0  0  0  0
   -7.0710   18.0450  -32.5370 C   0  0  0  0  0  0  0  0  0  0  0  0
   -6.7050   17.8410  -33.8560 F   0  0  0  0  0  0  0  0  0  0  0  0
   -8.3280   17.5140  -32.3280 F   0  0  0  0  0  0  0  0  0  0  0  0
   -6.1630   17.3810  -31.7270 F   0  0  0  0  0  0  0  0  0  0  0  0
   -5.9820   20.1280  -31.6080 C   0  0  0  0  0  0  0  0  0  0  0  0
   -6.0190   21.5090  -31.3710 C   0  0  0  0  0  0  0  0  0  0  0  0
   -0.8490   25.3740  -28.2910 C   0  0  0  0  0  0  0  0  0  0  0  0
   -1.2250   26.0220  -29.3050 O   0  0  0  0  0  0  0  0  0  0  0  0
    0.4620   24.9140  -28.2180 O   0  0  0  0  0  0  0  0  0  0  0  0
   -1.4902   24.8367  -25.0322 H   0  0  0  0  0  0  0  0  0  0  0  0
   -1.1478   23.3759  -26.0200 H   0  0  0  0  0  0  0  0  0  0  0  0
    0.0077   24.7511  -26.0200 H   0  0  0  0  0  0  0  0  0  0  0  0
   -2.2330   26.0487  -26.8164 H   0  0  0  0  0  0  0  0  0  0  0  0
   -3.4841   23.7931  -26.7586 H   0  0  0  0  0  0  0  0  0  0  0  0
   -3.6376   24.8009  -28.2532 H   0  0  0  0  0  0  0  0  0  0  0  0
   -2.9110   25.3030  -30.4860 H   0  0  0  0  0  0  0  0  0  0  0  0
   -7.5694   24.4083  -31.3891 H   0  0  0  0  0  0  0  0  0  0  0  0
   -9.0958   22.3170  -32.6045 H   0  0  0  0  0  0  0  0  0  0  0  0
   -9.0547   19.8564  -33.1381 H   0  0  0  0  0  0  0  0  0  0  0  0
   -5.1040   19.5313  -31.3198 H   0  0  0  0  0  0  0  0  0  0  0  0
  1  2  1  0
  2  3  1  0
  3  4  1  0
  4  5  1  0
  5  6  2  0
  5  7  1  0
  7  8  2  0
  7  9  1  0
  9 10  1  0
 10 11  1  0
 11 12  1  0
 11 13  2  0
 10 14  2  0
 14 15  1  0
 15 16  2  0
 16 17  1  0
 17 18  2  0
 18 19  1  0
 19 20  1  0
 19 21  1  0
 19 22  1  0
 18 23  1  0
 23 24  2  0
  2 25  1  0
 25 26  2  0
 25 27  1  0
 24  9  1  0
 24 15  1  0
  1 28  1  0
  1 29  1  0
  1 30  1  0
  2 31  1  1
  3 32  1  0
  3 33  1  0
 12 34  1  0
 14 35  1  0
 16 36  1  0
 17 37  1  0
 23 38  1  0
M  CHG  3   4  -1  12  -1  27  -1
M  END
>  <UniqueID>  (5) 
5

>  <SMILES>  (5) 
C[C@H](C[N-]C(=O)C(=O)n1c(C([NH-])=O)cc2ccc(C(F)(F)F)cc21)C(=O)[O-]

>  <Energy>  (5) 
74.8443989057265

>  <Genealogy>  (5) 
CC(C[N-]C(=O)C(=O)n1c(C([NH-])=O)cc2ccc(C(F)(F)F)cc21)C(=O)[O-] (protonated)
C[C@H](C[N-]C(=O)C(=O)n1c(C([NH-])=O)cc2ccc(C(F)(F)F)cc21)C(=O)[O-] (chirality)
C[C@H](C[N-]C(=O)C(=O)n1c(C([NH-])=O)cc2ccc(C(F)(F)F)cc21)C(=O)[O-] (3D coordinates assigned)
C[C@H](C[N-]C(=O)C(=O)n1c(C([NH-])=O)cc2ccc(C(F)(F)F)cc21)C(=O)[O-] (optimized conformer: 74.8443989057265 kcal/mol)

>  <smiles>  (5) 
CC(CNC(=O)C(=O)n1c(C(N)=O)cc2ccc(C(F)(F)F)cc21)C(=O)O

>  <score_type>  (5) 
oracle

>  <origin>  (5) 
adg

>  <m_score__min__energy>  (5) 
-12.710000000000001

>  <m_primary>  (5) 
energy

$$$$
5:0
     RDKit          3D

 33 34  0  0  0  0  0  0  0  0999 V2000
   -1.7400   21.2700  -32.2420 C   0  0  0  0  0  0  0  0  0  0  0  0
   -2.8780   21.9250  -32.4620 C   0  0  0  0  0  0  0  0  0  0  0  0
   -3.5950   22.6580  -31.4030 C   0  0  0  0  0  0  0  0  0  0  0  0
   -2.9380   23.1330  -30.4380 O   0  0  0  0  0  0  0  0  0  0  0  0
   -5.0200   22.8340  -31.4400 N   0  0  0  0  0  0  0  0  0  0  0  0
   -5.7410   23.8840  -30.9570 C   0  0  0  0  0  0  0  0  0  0  0  0
   -5.1840   25.1340  -30.3950 C   0  0  0  0  0  0  0  0  0  0  0  0
   -3.9400   25.6550  -30.8550 N   0  0  0  0  0  0  0  0  0  0  0  0
   -5.8260   25.7630  -29.5120 O   0  0  0  0  0  0  0  0  0  0  0  0
   -7.1070   23.6430  -31.1030 C   0  0  0  0  0  0  0  0  0  0  0  0
   -7.1970   22.4000  -31.6890 C   0  0  0  0  0  0  0  0  0  0  0  0
   -8.3150   21.6570  -32.0460 C   0  0  0  0  0  0  0  0  0  0  0  0
   -8.1100   20.3870  -32.6140 C   0  0  0  0  0  0  0  0  0  0  0  0
   -6.7970   19.8720  -32.8090 C   0  0  0  0  0  0  0  0  0  0  0  0
   -6.5950   18.5580  -33.3920 N   0  0  0  0  0  0  0  0  0  0  0  0
   -5.7670   18.3940  -34.5940 C   0  0  0  0  0  0  0  0  0  0  0  0
   -7.2130   17.3700  -32.7880 C   0  0  0  0  0  0  0  0  0  0  0  0
   -5.6880   20.6680  -32.4220 C   0  0  0  0  0  0  0  0  0  0  0  0
   -5.9250   21.9330  -31.8760 C   0  0  0  0  0  0  0  0  0  0  0  0
   -1.2434   20.7379  -33.0668 H   0  0  0  0  0  0  0  0  0  0  0  0
   -1.2964   21.2609  -31.2355 H   0  0  0  0  0  0  0  0  0  0  0  0
   -3.3012   21.9189  -33.4773 H   0  0  0  0  0  0  0  0  0  0  0  0
   -3.0350   25.2920  -30.4840 H   0  0  0  0  0  0  0  0  0  0  0  0
   -7.9360   24.3049  -30.8120 H   0  0  0  0  0  0  0  0  0  0  0  0
   -9.3303   22.0502  -31.8891 H   0  0  0  0  0  0  0  0  0  0  0  0
   -8.9784   19.7814  -32.9126 H   0  0  0  0  0  0  0  0  0  0  0  0
   -4.7277   18.1882  -34.2981 H   0  0  0  0  0  0  0  0  0  0  0  0
   -6.1511   17.5545  -35.1921 H   0  0  0  0  0  0  0  0  0  0  0  0
   -5.8021   19.3165  -35.1921 H   0  0  0  0  0  0  0  0  0  0  0  0
   -7.1705   17.4518  -31.6919 H   0  0  0  0  0  0  0  0  0  0  0  0
   -8.2624   17.2988  -33.1099 H   0  0  0  0  0  0  0  0  0  0  0  0
   -6.6689   16.4699  -33.1099 H   0  0  0  0  0  0  0  0  0  0  0  0
   -4.6605   20.2965  -32.5493 H   0  0  0  0  0  0  0  0  0  0  0  0
  1  2  2  0
  2  3  1  0
  3  4  2  0
  3  5  1  0
  5  6  1  0
  6  7  1  0
  7  8  1  0
  7  9  2  0
  6 10  2  0
 10 11  1  0
 11 12  2  0
 12 13  1  0
 13 14  2  0
 14 15  1  0
 15 16  1  0
 15 17  1  0
 14 18  1  0
 18 19  2  0
 19  5  1  0
 19 11  1  0
  1 20  1  0
  1 21  1  0
  2 22  1  0
  8 23  1  0
 10 24  1  0
 12 25  1  0
 13 26  1  0
 16 27  1  0
 16 28  1  0
 16 29  1  0
 17 30  1  0
 17 31  1  0
 17 32  1  0
 18 33  1  0
M  CHG  1   8  -1
M  END
>  <UniqueID>  (6) 
6

>  <SMILES>  (6) 
C=CC(=O)n1c(C([NH-])=O)cc2ccc(N(C)C)cc21

>  <Energy>  (6) 
72.95302929475945

>  <Genealogy>  (6) 
C=CC(=O)n1c(C([NH-])=O)cc2ccc(N(C)C)cc21 (protonated)
C=CC(=O)n1c(C([NH-])=O)cc2ccc(N(C)C)cc21 (3D coordinates assigned)
C=CC(=O)n1c(C([NH-])=O)cc2ccc(N(C)C)cc21 (optimized conformer: 72.95302929475945 kcal/mol)

>  <smiles>  (6) 
C=CC(=O)n1c(C(N)=O)cc2ccc(N(C)C)cc21

>  <score_type>  (6) 
oracle

>  <origin>  (6) 
adg

>  <m_score__min__energy>  (6) 
-9.5399999999999991

>  <m_primary>  (6) 
energy

$$$$
6:0
     RDKit          3D

 38 39  0  0  0  0  0  0  0  0999 V2000
   -6.4930   17.7820  -30.9260 C   0  0  0  0  0  0  0  0  0  0  0  0
   -7.4090   17.7880  -31.8920 C   0  0  0  0  0  0  0  0  0  0  0  0
   -8.6870   18.5630  -31.7090 C   0  0  0  0  0  0  0  0  0  0  0  0
   -7.1430   17.0540  -33.0590 O   0  0  0  0  0  0  0  0  0  0  0  0
   -6.1290   17.3250  -33.9880 C   0  0  0  0  0  0  0  0  0  0  0  0
   -5.2410   16.4730  -34.2590 O   0  0  0  0  0  0  0  0  0  0  0  0
   -6.1030   18.6560  -34.6660 C   0  0  0  0  0  0  0  0  0  0  0  0
   -5.3270   19.6370  -33.8330 C   0  0  0  0  0  0  0  0  0  0  0  0
   -3.9100   19.6030  -33.8290 C   0  0  0  0  0  0  0  0  0  0  0  0
   -3.1740   20.5330  -33.0770 C   0  0  0  0  0  0  0  0  0  0  0  0
   -3.8790   21.4920  -32.3550 C   0  0  0  0  0  0  0  0  0  0  0  0
   -3.4210   22.4940  -31.5300 C   0  0  0  0  0  0  0  0  0  0  0  0
   -4.5640   23.1470  -31.0750 C   0  0  0  0  0  0  0  0  0  0  0  0
   -4.5280   24.3460  -30.2140 C   0  0  0  0  0  0  0  0  0  0  0  0
   -5.4080   24.4830  -29.0990 N   0  0  0  0  0  0  0  0  0  0  0  0
   -3.7410   25.2870  -30.4990 O   0  0  0  0  0  0  0  0  0  0  0  0
   -5.6850   22.5630  -31.5850 N   0  0  0  0  0  0  0  0  0  0  0  0
   -7.0580   22.8580  -31.2720 C   0  0  0  0  0  0  0  0  0  0  0  0
   -7.9890   23.3940  -32.3140 C   0  0  0  0  0  0  0  0  0  0  0  0
   -7.4830   22.6890  -30.0980 O   0  0  0  0  0  0  0  0  0  0  0  0
   -5.2480   21.5550  -32.3710 C   0  0  0  0  0  0  0  0  0  0  0  0
   -6.0080   20.6310  -33.0960 C   0  0  0  0  0  0  0  0  0  0  0  0
   -5.5587   17.2165  -31.0575 H   0  0  0  0  0  0  0  0  0  0  0  0
   -6.6704   18.3425  -29.9963 H   0  0  0  0  0  0  0  0  0  0  0  0
   -8.8904   18.6864  -30.6350 H   0  0  0  0  0  0  0  0  0  0  0  0
   -8.5864   19.5524  -32.1791 H   0  0  0  0  0  0  0  0  0  0  0  0
   -9.5178   18.0164  -32.1791 H   0  0  0  0  0  0  0  0  0  0  0  0
   -5.6243   18.5546  -35.6512 H   0  0  0  0  0  0  0  0  0  0  0  0
   -7.1334   19.0204  -34.7901 H   0  0  0  0  0  0  0  0  0  0  0  0
   -3.3817   18.8408  -34.4206 H   0  0  0  0  0  0  0  0  0  0  0  0
   -2.0745   20.5046  -33.0590 H   0  0  0  0  0  0  0  0  0  0  0  0
   -2.3752   22.7290  -31.2827 H   0  0  0  0  0  0  0  0  0  0  0  0
   -5.3390   25.3160  -28.4760 H   0  0  0  0  0  0  0  0  0  0  0  0
   -6.1840   23.8020  -28.9370 H   0  0  0  0  0  0  0  0  0  0  0  0
   -8.8429   23.8856  -31.8249 H   0  0  0  0  0  0  0  0  0  0  0  0
   -7.4561   24.1235  -32.9415 H   0  0  0  0  0  0  0  0  0  0  0  0
   -8.3523   22.5668  -32.9415 H   0  0  0  0  0  0  0  0  0  0  0  0
   -7.1070   20.6774  -33.0922 H   0  0  0  0  0  0  0  0  0  0  0  0
  1  2  2  0
  2  3  1  0
  2  4  1  0
  4  5  1  0
  5  6  2  0
  5  7  1  0
  7  8  1  0
  8  9  2  0
  9 10  1  0
 10 11  2  0
 11 12  1  0
 12 13  2  0
 13 14  1  0
 14 15  1  0
 14 16  2  0
 13 17  1  0
 17 18  1  0
 18 19  1  0
 18 20  2  0
 17 21  1  0
 21 22  2  0
 22  8  1  0
 21 11  1  0
  1 23  1  0
  1 24  1  0
  3 25  1  0
  3 26  1  0
  3 27  1  0
  7 28  1  0
  7 29  1  0
  9 30  1  0
 10 31  1  0
 12 32  1  0
 15 33  1  0
 15 34  1  0
 19 35  1  0
 19 36  1  0
 19 37  1  0
 22 38  1  0
M  END
>  <UniqueID>  (7) 
7

>  <SMILES>  (7) 
C=C(C)OC(=O)Cc1ccc2cc(C(N)=O)n(C(C)=O)c2c1

>  <Energy>  (7) 
75.71760829626825

>  <Genealogy>  (7) 
C=C(C)OC(=O)Cc1ccc2cc(C(N)=O)n(C(C)=O)c2c1 (3D coordinates assigned)
C=C(C)OC(=O)Cc1ccc2cc(C(N)=O)n(C(C)=O)c2c1 (optimized conformer: 75.71760829626825 kcal/mol)

>  <smiles>  (7) 
C=C(C)OC(=O)Cc1ccc2cc(C(N)=O)n(C(C)=O)c2c1

>  <score_type>  (7) 
oracle

>  <origin>  (7) 
adg

>  <m_score__min__energy>  (7) 
-8.5399999999999991

>  <m_primary>  (7) 
energy

$$$$
7:0
     RDKit          3D

 51 53  0  0  0  0  0  0  0  0999 V2000
   -5.0340   17.0700  -34.9740 C   0  0  0  0  0  0  0  0  0  0  0  0
   -6.3740   17.4850  -34.7440 O   0  0  0  0  0  0  0  0  0  0  0  0
   -6.9530   17.4920  -33.4700 C   0  0  0  0  0  0  0  0  0  0  0  0
   -6.8310   16.4870  -32.7140 O   0  0  0  0  0  0  0  0  0  0  0  0
   -7.6400   18.6790  -33.0150 N   0  0  1  0  0  0  0  0  0  0  0  0
   -8.6760   18.3800  -32.0100 C   0  0  0  0  0  0  0  0  0  0  0  0
   -6.6990   19.7480  -32.5950 C   0  0  0  0  0  0  0  0  0  0  0  0
   -5.4120   19.8940  -33.4460 C   0  0  0  0  0  0  0  0  0  0  0  0
   -4.2290   20.4290  -32.6800 C   0  0  0  0  0  0  0  0  0  0  0  0
   -3.0190   19.6890  -32.6310 C   0  0  0  0  0  0  0  0  0  0  0  0
   -1.9140   20.1700  -31.9100 C   0  0  0  0  0  0  0  0  0  0  0  0
   -2.0370   21.3990  -31.2690 C   0  0  0  0  0  0  0  0  0  0  0  0
   -1.1370   22.0780  -30.4820 C   0  0  0  0  0  0  0  0  0  0  0  0
   -1.7930   23.2450  -30.0950 C   0  0  0  0  0  0  0  0  0  0  0  0
   -1.1500   24.3090  -29.2970 C   0  0  0  0  0  0  0  0  0  0  0  0
   -1.8580   25.4950  -28.9520 N   0  0  0  0  0  0  0  0  0  0  0  0
    0.0600   24.1920  -28.9600 O   0  0  0  0  0  0  0  0  0  0  0  0
   -3.0520   23.2830  -30.6170 N   0  0  0  0  0  0  0  0  0  0  0  0
   -4.0760   24.2580  -30.3630 C   0  0  0  0  0  0  0  0  0  0  0  0
   -3.9730   25.4200  -30.8440 O   0  0  0  0  0  0  0  0  0  0  0  0
   -5.1990   23.9050  -29.6070 O   0  0  0  0  0  0  0  0  0  0  0  0
   -6.5200   23.8460  -30.1460 C   0  0  1  0  0  0  0  0  0  0  0  0
   -6.4970   24.0490  -31.6280 C   0  0  0  0  0  0  0  0  0  0  0  0
   -7.6530   23.1920  -32.1020 C   0  0  0  0  0  0  0  0  0  0  0  0
   -7.9170   22.1890  -31.1480 O   0  0  0  0  0  0  0  0  0  0  0  0
   -7.1340   22.4640  -30.0080 C   0  0  0  0  0  0  0  0  0  0  0  0
   -3.1860   22.1440  -31.3340 C   0  0  0  0  0  0  0  0  0  0  0  0
   -4.3090   21.6810  -32.0300 C   0  0  0  0  0  0  0  0  0  0  0  0
   -4.5281   16.9133  -34.0099 H   0  0  0  0  0  0  0  0  0  0  0  0
   -5.0342   16.1298  -35.5450 H   0  0  0  0  0  0  0  0  0  0  0  0
   -4.5028   17.8457  -35.5450 H   0  0  0  0  0  0  0  0  0  0  0  0
   -8.1550   19.0570  -33.8450 H   0  0  0  0  0  0  0  0  0  0  0  0
   -8.2543   18.5017  -31.0013 H   0  0  0  0  0  0  0  0  0  0  0  0
   -9.5224   19.0705  -32.1393 H   0  0  0  0  0  0  0  0  0  0  0  0
   -9.0243   17.3447  -32.1393 H   0  0  0  0  0  0  0  0  0  0  0  0
   -7.2387   20.7057  -32.6342 H   0  0  0  0  0  0  0  0  0  0  0  0
   -6.3580   19.4639  -31.5885 H   0  0  0  0  0  0  0  0  0  0  0  0
   -5.1468   18.9038  -33.8451 H   0  0  0  0  0  0  0  0  0  0  0  0
   -5.6350   20.6236  -34.2384 H   0  0  0  0  0  0  0  0  0  0  0  0
   -2.9459   18.7290  -33.1631 H   0  0  0  0  0  0  0  0  0  0  0  0
   -0.9794   19.5926  -31.8537 H   0  0  0  0  0  0  0  0  0  0  0  0
   -0.1165   21.7664  -30.2148 H   0  0  0  0  0  0  0  0  0  0  0  0
   -2.8270   25.6650  -29.3010 H   0  0  0  0  0  0  0  0  0  0  0  0
   -7.0829   24.6157  -29.5976 H   0  0  0  0  0  0  0  0  0  0  0  0
   -6.6560   25.1065  -31.8856 H   0  0  0  0  0  0  0  0  0  0  0  0
   -5.5361   23.7783  -32.0898 H   0  0  0  0  0  0  0  0  0  0  0  0
   -8.5467   23.8204  -32.2301 H   0  0  0  0  0  0  0  0  0  0  0  0
   -7.3924   22.7243  -33.0629 H   0  0  0  0  0  0  0  0  0  0  0  0
   -7.7678   22.4310  -29.1096 H   0  0  0  0  0  0  0  0  0  0  0  0
   -6.3361   21.7123  -29.9174 H   0  0  0  0  0  0  0  0  0  0  0  0
   -5.2321   22.2779  -32.0699 H   0  0  0  0  0  0  0  0  0  0  0  0
  1  2  1  0
  2  3  1  0
  3  4  2  0
  3  5  1  0
  5  6  1  0
  5  7  1  0
  7  8  1  0
  8  9  1  0
  9 10  2  0
 10 11  1  0
 11 12  2  0
 12 13  1  0
 13 14  2  0
 14 15  1  0
 15 16  1  0
 15 17  2  0
 14 18  1  0
 18 19  1  0
 19 20  2  0
 19 21  1  0
 21 22  1  0
 22 23  1  0
 23 24  1  0
 24 25  1  0
 25 26  1  0
 18 27  1  0
 27 28  2  0
 28  9  1  0
 27 12  1  0
 26 22  1  0
  1 29  1  0
  1 30  1  0
  1 31  1  0
  5 32  1  6
  6 33  1  0
  6 34  1  0
  6 35  1  0
  7 36  1  0
  7 37  1  0
  8 38  1  0
  8 39  1  0
 10 40  1  0
 11 41  1  0
 13 42  1  0
 16 43  1  0
 22 44  1  1
 23 45  1  0
 23 46  1  0
 24 47  1  0
 24 48  1  0
 26 49  1  0
 26 50  1  0
 28 51  1  0
M  CHG  2   5   1  16  -1
M  END
>  <UniqueID>  (8) 
8

>  <SMILES>  (8) 
COC(=O)[N@@H+](C)CCc1ccc2cc(C([NH-])=O)n(C(=O)O[C@H]3CCOC3)c2c1

>  <Energy>  (8) 
91.89357771250019

>  <Genealogy>  (8) 
COC(=O)[NH+](C)CCc1ccc2cc(C([NH-])=O)n(C(=O)OC3CCOC3)c2c1 (protonated)
COC(=O)[N@@H+](C)CCc1ccc2cc(C([NH-])=O)n(C(=O)O[C@H]3CCOC3)c2c1 (chirality)
COC(=O)[N@@H+](C)CCc1ccc2cc(C([NH-])=O)n(C(=O)O[C@H]3CCOC3)c2c1 (3D coordinates assigned)
COC(=O)[N@@H+](C)CCc1ccc2cc(C([NH-])=O)n(C(=O)O[C@H]3CCOC3)c2c1 (nonaromatic ring conformer: 91.89357771250019 kcal/mol)

>  <smiles>  (8) 
COC(=O)N(C)CCc1ccc2cc(C(N)=O)n(C(=O)OC3CCOC3)c2c1

>  <score_type>  (8) 
oracle

>  <origin>  (8) 
adg

>  <m_score__min__energy>  (8) 
-10.300000000000001

>  <m_primary>  (8) 
energy

$$$$
8:0
     RDKit          3D

 28 29  0  0  0  0  0  0  0  0999 V2000
   -2.6960   21.2710  -33.3460 C   0  0  0  0  0  0  0  0  0  0  0  0
   -3.1810   21.9060  -32.4430 C   0  0  0  0  0  0  0  0  0  0  0  0
   -3.7620   22.6630  -31.3660 C   0  0  0  0  0  0  0  0  0  0  0  0
   -3.0110   23.1390  -30.4740 O   0  0  0  0  0  0  0  0  0  0  0  0
   -5.1810   22.8730  -31.3020 N   0  0  0  0  0  0  0  0  0  0  0  0
   -5.8370   24.0210  -30.9700 C   0  0  0  0  0  0  0  0  0  0  0  0
   -5.2150   25.2630  -30.4630 C   0  0  0  0  0  0  0  0  0  0  0  0
   -3.8920   25.6300  -30.8450 N   0  0  0  0  0  0  0  0  0  0  0  0
   -5.8460   25.9900  -29.6500 O   0  0  0  0  0  0  0  0  0  0  0  0
   -7.2150   23.8530  -31.1090 C   0  0  0  0  0  0  0  0  0  0  0  0
   -7.3840   22.5560  -31.5370 C   0  0  0  0  0  0  0  0  0  0  0  0
   -8.5480   21.8640  -31.8560 C   0  0  0  0  0  0  0  0  0  0  0  0
   -8.4240   20.5420  -32.3110 C   0  0  0  0  0  0  0  0  0  0  0  0
   -7.1480   19.9390  -32.4380 C   0  0  0  0  0  0  0  0  0  0  0  0
   -7.0240   18.5390  -32.9710 C   0  0  0  0  0  0  0  0  0  0  0  0
   -5.9000   18.4610  -33.9550 C   0  0  0  0  0  0  0  0  0  0  0  0
   -6.0840   18.8000  -35.1530 O   0  0  0  0  0  0  0  0  0  0  0  0
   -4.6630   17.9700  -33.5590 O   0  0  0  0  0  0  0  0  0  0  0  0
   -5.9870   20.6780  -32.1180 C   0  0  0  0  0  0  0  0  0  0  0  0
   -6.1410   21.9870  -31.6480 C   0  0  0  0  0  0  0  0  0  0  0  0
   -2.2535   20.6917  -34.1698 H   0  0  0  0  0  0  0  0  0  0  0  0
   -3.0650   25.2860  -30.3100 H   0  0  0  0  0  0  0  0  0  0  0  0
   -8.0001   24.5992  -30.9171 H   0  0  0  0  0  0  0  0  0  0  0  0
   -9.5353   22.3384  -31.7547 H   0  0  0  0  0  0  0  0  0  0  0  0
   -9.3259   19.9686  -32.5715 H   0  0  0  0  0  0  0  0  0  0  0  0
   -6.8265   17.8487  -32.1377 H   0  0  0  0  0  0  0  0  0  0  0  0
   -7.9622   18.2607  -33.4734 H   0  0  0  0  0  0  0  0  0  0  0  0
   -4.9869   20.2353  -32.2354 H   0  0  0  0  0  0  0  0  0  0  0  0
  1  2  3  0
  2  3  1  0
  3  4  2  0
  3  5  1  0
  5  6  1  0
  6  7  1  0
  7  8  1  0
  7  9  2  0
  6 10  2  0
 10 11  1  0
 11 12  2  0
 12 13  1  0
 13 14  2  0
 14 15  1  0
 15 16  1  0
 16 17  2  0
 16 18  1  0
 14 19  1  0
 19 20  2  0
 20  5  1  0
 20 11  1  0
  1 21  1  0
  8 22  1  0
 10 23  1  0
 12 24  1  0
 13 25  1  0
 15 26  1  0
 15 27  1  0
 19 28  1  0
M  CHG  2   8  -1  18  -1
M  END
>  <UniqueID>  (9) 
9

>  <SMILES>  (9) 
C#CC(=O)n1c(C([NH-])=O)cc2ccc(CC(=O)[O-])cc21

>  <Energy>  (9) 
64.91707849608727

>  <Genealogy>  (9) 
C#CC(=O)n1c(C([NH-])=O)cc2ccc(CC(=O)[O-])cc21 (protonated)
C#CC(=O)n1c(C([NH-])=O)cc2ccc(CC(=O)[O-])cc21 (3D coordinates assigned)
C#CC(=O)n1c(C([NH-])=O)cc2ccc(CC(=O)[O-])cc21 (optimized conformer: 64.91707849608727 kcal/mol)

>  <smiles>  (9) 
C#CC(=O)n1c(C(N)=O)cc2ccc(CC(=O)O)cc21

>  <score_type>  (9) 
oracle

>  <origin>  (9) 
adg

>  <m_score__min__energy>  (9) 
-10.119999999999999

>  <m_primary>  (9) 
energy

$$$$
9:0
     RDKit          3D

 39 41  0  0  0  0  0  0  0  0999 V2000
   -2.6620   19.9480  -33.8530 C   0  0  0  0  0  0  0  0  0  0  0  0
   -2.1720   20.9170  -32.7590 C   0  0  0  0  0  0  0  0  0  0  0  0
   -2.1600   20.2300  -31.3810 C   0  0  0  0  0  0  0  0  0  0  0  0
   -3.0000   22.0910  -32.7300 O   0  0  0  0  0  0  0  0  0  0  0  0
   -3.5410   22.7040  -31.5900 C   0  0  0  0  0  0  0  0  0  0  0  0
   -2.7950   23.1660  -30.6860 O   0  0  0  0  0  0  0  0  0  0  0  0
   -4.9670   22.7830  -31.4430 N   0  0  0  0  0  0  0  0  0  0  0  0
   -5.6990   23.8420  -30.9950 C   0  0  0  0  0  0  0  0  0  0  0  0
   -5.1590   25.0780  -30.3930 C   0  0  0  0  0  0  0  0  0  0  0  0
   -3.9380   25.6480  -30.8580 N   0  0  0  0  0  0  0  0  0  0  0  0
   -5.7570   25.6120  -29.4210 O   0  0  0  0  0  0  0  0  0  0  0  0
   -7.0630   23.5760  -31.1070 C   0  0  0  0  0  0  0  0  0  0  0  0
   -7.1450   22.3090  -31.6340 C   0  0  0  0  0  0  0  0  0  0  0  0
   -8.2630   21.5500  -31.9670 C   0  0  0  0  0  0  0  0  0  0  0  0
   -8.0520   20.2810  -32.5310 C   0  0  0  0  0  0  0  0  0  0  0  0
   -6.7390   19.7980  -32.7600 C   0  0  0  0  0  0  0  0  0  0  0  0
   -6.5370   18.4670  -33.3660 C   0  0  0  0  0  0  0  0  0  0  0  0
   -5.6040   18.2010  -34.3060 N   0  0  0  0  0  0  0  0  0  0  0  0
   -5.7790   16.8910  -34.5590 C   0  0  0  0  0  0  0  0  0  0  0  0
   -6.8020   16.4110  -33.7750 C   0  0  0  0  0  0  0  0  0  0  0  0
   -7.2490   17.4060  -33.0500 O   0  0  0  0  0  0  0  0  0  0  0  0
   -5.6290   20.6000  -32.4090 C   0  0  0  0  0  0  0  0  0  0  0  0
   -5.8680   21.8520  -31.8300 C   0  0  0  0  0  0  0  0  0  0  0  0
   -0.7650   21.3560  -33.0890 C   0  0  0  0  0  0  0  0  0  0  0  0
   -0.4990   21.8630  -34.2120 O   0  0  0  0  0  0  0  0  0  0  0  0
    0.2590   21.1850  -32.1640 O   0  0  0  0  0  0  0  0  0  0  0  0
   -3.1107   19.0606  -33.3827 H   0  0  0  0  0  0  0  0  0  0  0  0
   -3.4140   20.4512  -34.4785 H   0  0  0  0  0  0  0  0  0  0  0  0
   -1.8110   19.6406  -34.4785 H   0  0  0  0  0  0  0  0  0  0  0  0
   -2.1734   20.9944  -30.5901 H   0  0  0  0  0  0  0  0  0  0  0  0
   -3.0470   19.5867  -31.2843 H   0  0  0  0  0  0  0  0  0  0  0  0
   -1.2510   19.6181  -31.2843 H   0  0  0  0  0  0  0  0  0  0  0  0
   -3.0160   25.2940  -30.5210 H   0  0  0  0  0  0  0  0  0  0  0  0
   -7.8965   24.2391  -30.8321 H   0  0  0  0  0  0  0  0  0  0  0  0
   -9.2800   21.9319  -31.7939 H   0  0  0  0  0  0  0  0  0  0  0  0
   -8.9158   19.6546  -32.7982 H   0  0  0  0  0  0  0  0  0  0  0  0
   -5.1961   16.2979  -35.2790 H   0  0  0  0  0  0  0  0  0  0  0  0
   -7.1774   15.3771  -33.7596 H   0  0  0  0  0  0  0  0  0  0  0  0
   -4.6019   20.2486  -32.5866 H   0  0  0  0  0  0  0  0  0  0  0  0
  1  2  1  0
  2  3  1  0
  2  4  1  0
  4  5  1  0
  5  6  2  0
  5  7  1  0
  7  8  1  0
  8  9  1  0
  9 10  1  0
  9 11  2  0
  8 12  2  0
 12 13  1  0
 13 14  2  0
 14 15  1  0
 15 16  2  0
 16 17  1  0
 17 18  2  0
 18 19  1  0
 19 20  2  0
 20 21  1  0
 16 22  1  0
 22 23  2  0
  2 24  1  0
 24 25  2  0
 24 26  1  0
 23  7  1  0
 23 13  1  0
 21 17  1  0
  1 27  1  0
  1 28  1  0
  1 29  1  0
  3 30  1  0
  3 31  1  0
  3 32  1  0
 10 33  1  0
 12 34  1  0
 14 35  1  0
 15 36  1  0
 19 37  1  0
 20 38  1  0
 22 39  1  0
M  CHG  2  10  -1  26  -1
M  END
>  <UniqueID>  (10) 
10

>  <SMILES>  (10) 
CC(C)(OC(=O)n1c(C([NH-])=O)cc2ccc(-c3ncco3)cc21)C(=O)[O-]

>  <Energy>  (10) 
107.71982005847794

>  <Genealogy>  (10) 
CC(C)(OC(=O)n1c(C([NH-])=O)cc2ccc(-c3ncco3)cc21)C(=O)[O-] (protonated)
CC(C)(OC(=O)n1c(C([NH-])=O)cc2ccc(-c3ncco3)cc21)C(=O)[O-] (3D coordinates assigned)
CC(C)(OC(=O)n1c(C([NH-])=O)cc2ccc(-c3ncco3)cc21)C(=O)[O-] (optimized conformer: 107.71982005847794 kcal/mol)

>  <smiles>  (10) 
CC(C)(OC(=O)n1c(C(N)=O)cc2ccc(-c3ncco3)cc21)C(=O)O

>  <score_type>  (10) 
oracle

>  <origin>  (10) 
adg

>  <m_score__min__energy>  (10) 
-13.26

>  <m_primary>  (10) 
energy

$$$$
10:0
     RDKit          3D

 32 33  0  0  0  0  0  0  0  0999 V2000
   -4.1730   25.6590  -30.8850 N   0  0  0  0  0  0  0  0  0  0  0  0
   -5.4020   25.0850  -30.4500 C   0  0  0  0  0  0  0  0  0  0  0  0
   -6.0540   25.6490  -29.5290 O   0  0  0  0  0  0  0  0  0  0  0  0
   -5.8940   23.8140  -31.0210 C   0  0  0  0  0  0  0  0  0  0  0  0
   -7.2470   23.5000  -31.1400 C   0  0  0  0  0  0  0  0  0  0  0  0
   -7.2800   22.2110  -31.6220 C   0  0  0  0  0  0  0  0  0  0  0  0
   -8.3670   21.3970  -31.9240 C   0  0  0  0  0  0  0  0  0  0  0  0
   -8.1070   20.1110  -32.4260 C   0  0  0  0  0  0  0  0  0  0  0  0
   -6.7750   19.6700  -32.6410 C   0  0  0  0  0  0  0  0  0  0  0  0
   -6.5080   18.2740  -33.1440 C   0  0  0  0  0  0  0  0  0  0  0  0
   -5.4720   17.6890  -32.4370 F   0  0  0  0  0  0  0  0  0  0  0  0
   -7.6320   17.4800  -33.0010 F   0  0  0  0  0  0  0  0  0  0  0  0
   -6.1640   18.3310  -34.4820 F   0  0  0  0  0  0  0  0  0  0  0  0
   -5.6960   20.5200  -32.2980 C   0  0  0  0  0  0  0  0  0  0  0  0
   -5.9860   21.7890  -31.7830 C   0  0  0  0  0  0  0  0  0  0  0  0
   -5.1230   22.7640  -31.4220 N   0  0  0  0  0  0  0  0  0  0  0  0
   -3.6910   22.7110  -31.5250 C   0  0  0  0  0  0  0  0  0  0  0  0
   -3.1520   22.2800  -32.5800 O   0  0  0  0  0  0  0  0  0  0  0  0
   -2.9030   23.1140  -30.4400 O   0  0  0  0  0  0  0  0  0  0  0  0
   -3.3750   23.1440  -29.0940 C   0  0  0  0  0  0  0  0  0  0  0  0
   -2.7850   24.3390  -28.3450 C   0  0  0  0  0  0  0  0  0  0  0  0
   -2.2390   25.2580  -29.2500 O   0  0  0  0  0  0  0  0  0  0  0  0
   -3.2840   25.1120  -30.8580 H   0  0  0  0  0  0  0  0  0  0  0  0
   -8.1053   24.1448  -30.8999 H   0  0  0  0  0  0  0  0  0  0  0  0
   -9.3982   21.7495  -31.7743 H   0  0  0  0  0  0  0  0  0  0  0  0
   -8.9459   19.4375  -32.6553 H   0  0  0  0  0  0  0  0  0  0  0  0
   -4.6550   20.1912  -32.4329 H   0  0  0  0  0  0  0  0  0  0  0  0
   -4.4720   23.2247  -29.0970 H   0  0  0  0  0  0  0  0  0  0  0  0
   -3.0637   22.2184  -28.5876 H   0  0  0  0  0  0  0  0  0  0  0  0
   -3.5786   24.8304  -27.7631 H   0  0  0  0  0  0  0  0  0  0  0  0
   -1.9903   23.9833  -27.6727 H   0  0  0  0  0  0  0  0  0  0  0  0
   -3.0030   25.6740  -29.7290 H   0  0  0  0  0  0  0  0  0  0  0  0
  1  2  1  0
  2  3  2  0
  2  4  1  0
  4  5  2  0
  5  6  1  0
  6  7  2  0
  7  8  1  0
  8  9  2  0
  9 10  1  0
 10 11  1  0
 10 12  1  0
 10 13  1  0
  9 14  1  0
 14 15  2  0
 15 16  1  0
 16 17  1  0
 17 18  2  0
 17 19  1  0
 19 20  1  0
 20 21  1  0
 21 22  1  0
 16  4  1  0
 15  6  1  0
  1 23  1  0
  5 24  1  0
  7 25  1  0
  8 26  1  0
 14 27  1  0
 20 28  1  0
 20 29  1  0
 21 30  1  0
 21 31  1  0
 22 32  1  0
M  CHG  1   1  -1
M  END
>  <UniqueID>  (11) 
11

>  <SMILES>  (11) 
[NH-]C(=O)c1cc2ccc(C(F)(F)F)cc2n1C(=O)OCCO

>  <Energy>  (11) 
68.54596740619303

>  <Genealogy>  (11) 
[NH-]C(=O)c1cc2ccc(C(F)(F)F)cc2n1C(=O)OCCO (protonated)
[NH-]C(=O)c1cc2ccc(C(F)(F)F)cc2n1C(=O)OCCO (3D coordinates assigned)
[NH-]C(=O)c1cc2ccc(C(F)(F)F)cc2n1C(=O)OCCO (optimized conformer: 68.54596740619303 kcal/mol)

>  <smiles>  (11) 
NC(=O)c1cc2ccc(C(F)(F)F)cc2n1C(=O)OCCO

>  <score_type>  (11) 
oracle

>  <origin>  (11) 
adg

>  <m_score__min__energy>  (11) 
-9.6799999999999997

>  <m_primary>  (11) 
energy

$$$$
11:0
     RDKit          3D

 51 54  0  0  0  0  0  0  0  0999 V2000
   -3.8240   25.3000  -30.4710 N   0  0  0  0  0  0  0  0  0  0  0  0
   -5.0400   24.6460  -30.1160 C   0  0  0  0  0  0  0  0  0  0  0  0
   -5.7650   25.1390  -29.2120 O   0  0  0  0  0  0  0  0  0  0  0  0
   -5.4580   23.4280  -30.8400 C   0  0  0  0  0  0  0  0  0  0  0  0
   -6.7610   23.2060  -31.2800 C   0  0  0  0  0  0  0  0  0  0  0  0
   -6.7530   21.9400  -31.8200 C   0  0  0  0  0  0  0  0  0  0  0  0
   -7.7810   21.2150  -32.4180 C   0  0  0  0  0  0  0  0  0  0  0  0
   -7.4790   19.9380  -32.9190 C   0  0  0  0  0  0  0  0  0  0  0  0
   -6.1670   19.4180  -32.8180 C   0  0  0  0  0  0  0  0  0  0  0  0
   -5.8700   18.1230  -33.3440 N   0  0  0  0  0  0  0  0  0  0  0  0
   -5.3050   16.8530  -32.8500 C   0  0  0  0  0  0  0  0  0  0  0  0
   -5.4150   16.1130  -34.1590 C   0  0  0  0  0  0  0  0  0  0  0  0
   -6.4160   14.9420  -34.1350 C   0  0  0  0  0  0  0  0  0  0  0  0
   -5.8040   13.6950  -33.4550 C   0  0  0  0  0  0  0  0  0  0  0  0
   -4.3420   13.7950  -33.2840 N   0  0  0  0  0  0  0  0  0  0  0  0
   -3.6950   14.2610  -34.5170 C   0  0  0  0  0  0  0  0  0  0  0  0
   -4.0640   15.7270  -34.8090 C   0  0  0  0  0  0  0  0  0  0  0  0
   -5.9870   17.4200  -34.6360 C   0  0  0  0  0  0  0  0  0  0  0  0
   -5.1500   20.1790  -32.2060 C   0  0  0  0  0  0  0  0  0  0  0  0
   -5.4810   21.4420  -31.7010 C   0  0  0  0  0  0  0  0  0  0  0  0
   -4.6730   22.3450  -31.1030 N   0  0  0  0  0  0  0  0  0  0  0  0
   -3.2600   22.2140  -30.8840 C   0  0  0  0  0  0  0  0  0  0  0  0
   -2.8250   21.8970  -29.7430 O   0  0  0  0  0  0  0  0  0  0  0  0
   -2.3710   22.4180  -31.9440 O   0  0  0  0  0  0  0  0  0  0  0  0
   -2.3040   21.5510  -33.0720 C   0  0  0  0  0  0  0  0  0  0  0  0
   -1.5430   20.2780  -32.7060 C   0  0  0  0  0  0  0  0  0  0  0  0
   -2.2150   19.0580  -33.2630 C   0  0  0  0  0  0  0  0  0  0  0  0
   -2.9880   19.1520  -34.2040 O   0  0  0  0  0  0  0  0  0  0  0  0
   -3.8160   26.0730  -31.1740 H   0  0  0  0  0  0  0  0  0  0  0  0
   -7.6149   23.8960  -31.2106 H   0  0  0  0  0  0  0  0  0  0  0  0
   -8.7970   21.6293  -32.4955 H   0  0  0  0  0  0  0  0  0  0  0  0
   -8.2689   19.3374  -33.3937 H   0  0  0  0  0  0  0  0  0  0  0  0
   -4.2653   16.9556  -32.5057 H   0  0  0  0  0  0  0  0  0  0  0  0
   -5.7870   16.3964  -31.9730 H   0  0  0  0  0  0  0  0  0  0  0  0
   -7.3139   15.2492  -33.5789 H   0  0  0  0  0  0  0  0  0  0  0  0
   -6.6717   14.6818  -35.1727 H   0  0  0  0  0  0  0  0  0  0  0  0
   -6.2659   13.5730  -32.4642 H   0  0  0  0  0  0  0  0  0  0  0  0
   -6.0022   12.8319  -34.1075 H   0  0  0  0  0  0  0  0  0  0  0  0
   -3.9780   12.8380  -33.0680 H   0  0  0  0  0  0  0  0  0  0  0  0
   -2.6038   14.1795  -34.4044 H   0  0  0  0  0  0  0  0  0  0  0  0
   -4.0418   13.6372  -35.3540 H   0  0  0  0  0  0  0  0  0  0  0  0
   -3.2751   16.3806  -34.4085 H   0  0  0  0  0  0  0  0  0  0  0  0
   -4.1582   15.8485  -35.8982 H   0  0  0  0  0  0  0  0  0  0  0  0
   -5.3817   17.8844  -35.4284 H   0  0  0  0  0  0  0  0  0  0  0  0
   -6.9830   17.3906  -35.1019 H   0  0  0  0  0  0  0  0  0  0  0  0
   -4.1238   19.7906  -32.1274 H   0  0  0  0  0  0  0  0  0  0  0  0
   -3.3234   21.2875  -33.3904 H   0  0  0  0  0  0  0  0  0  0  0  0
   -1.7788   22.0635  -33.8915 H   0  0  0  0  0  0  0  0  0  0  0  0
   -0.5229   20.3416  -33.1127 H   0  0  0  0  0  0  0  0  0  0  0  0
   -1.5220   20.1909  -31.6097 H   0  0  0  0  0  0  0  0  0  0  0  0
   -2.0102   18.0718  -32.8209 H   0  0  0  0  0  0  0  0  0  0  0  0
  1  2  1  0
  2  3  2  0
  2  4  1  0
  4  5  2  0
  5  6  1  0
  6  7  2  0
  7  8  1  0
  8  9  2  0
  9 10  1  0
 10 11  1  0
 11 12  1  0
 12 13  1  0
 13 14  1  0
 14 15  1  0
 15 16  1  0
 16 17  1  0
 12 18  1  0
  9 19  1  0
 19 20  2  0
 20 21  1  0
 21 22  1  0
 22 23  2  0
 22 24  1  0
 24 25  1  0
 25 26  1  0
 26 27  1  0
 27 28  2  0
 21  4  1  0
 20  6  1  0
 18 10  1  0
 17 12  1  0
  1 29  1  0
  5 30  1  0
  7 31  1  0
  8 32  1  0
 11 33  1  0
 11 34  1  0
 13 35  1  0
 13 36  1  0
 14 37  1  0
 14 38  1  0
 15 39  1  0
 16 40  1  0
 16 41  1  0
 17 42  1  0
 17 43  1  0
 18 44  1  0
 18 45  1  0
 19 46  1  0
 25 47  1  0
 25 48  1  0
 26 49  1  0
 26 50  1  0
 27 51  1  0
M  CHG  1   1  -1
M  END
>  <UniqueID>  (12) 
12

>  <SMILES>  (12) 
[NH-]C(=O)c1cc2ccc(N3CC4(CCNCC4)C3)cc2n1C(=O)OCCC=O

>  <Energy>  (12) 
136.0663844175018

>  <Genealogy>  (12) 
[NH-]C(=O)c1cc2ccc(N3CC4(CCNCC4)C3)cc2n1C(=O)OCCC=O (protonated)
[NH-]C(=O)c1cc2ccc(N3CC4(CCNCC4)C3)cc2n1C(=O)OCCC=O (3D coordinates assigned)
[NH-]C(=O)c1cc2ccc(N3CC4(CCNCC4)C3)cc2n1C(=O)OCCC=O (nonaromatic ring conformer: 136.0663844175018 kcal/mol)

>  <smiles>  (12) 
NC(=O)c1cc2ccc(N3CC4(CCNCC4)C3)cc2n1C(=O)OCCC=O

>  <score_type>  (12) 
oracle

>  <origin>  (12) 
adg

>  <m_score__min__energy>  (12) 
-10.77

>  <m_primary>  (12) 
energy

$$$$
12:0
     RDKit          3D

 40 42  0  0  0  0  0  0  0  0999 V2000
   -2.2420   17.8110  -34.2640 C   0  0  0  0  0  0  0  0  0  0  0  0
   -3.3190   16.9060  -34.6840 N   0  0  0  0  0  0  0  0  0  0  0  0
   -3.0410   15.8500  -35.6650 C   0  0  0  0  0  0  0  0  0  0  0  0
   -4.6570   17.0290  -34.1480 C   0  0  0  0  0  0  0  0  0  0  0  0
   -5.5570   15.9460  -34.1340 C   0  0  0  0  0  0  0  0  0  0  0  0
   -6.8380   16.1220  -33.6150 C   0  0  0  0  0  0  0  0  0  0  0  0
   -7.2250   17.3630  -33.1080 C   0  0  0  0  0  0  0  0  0  0  0  0
   -6.3110   18.4280  -33.1180 C   0  0  0  0  0  0  0  0  0  0  0  0
   -6.6640   19.7730  -32.5960 C   0  0  0  0  0  0  0  0  0  0  0  0
   -8.0150   20.2110  -32.5300 C   0  0  0  0  0  0  0  0  0  0  0  0
   -8.3360   21.4850  -32.0310 C   0  0  0  0  0  0  0  0  0  0  0  0
   -7.2950   22.2950  -31.5900 C   0  0  0  0  0  0  0  0  0  0  0  0
   -7.3190   23.5750  -31.0850 C   0  0  0  0  0  0  0  0  0  0  0  0
   -5.9880   23.8950  -30.8220 C   0  0  0  0  0  0  0  0  0  0  0  0
   -5.5550   25.1750  -30.2220 C   0  0  0  0  0  0  0  0  0  0  0  0
   -4.2450   25.6890  -30.4510 N   0  0  0  0  0  0  0  0  0  0  0  0
   -6.3440   25.8100  -29.4730 O   0  0  0  0  0  0  0  0  0  0  0  0
   -5.1760   22.8490  -31.1480 N   0  0  0  0  0  0  0  0  0  0  0  0
   -3.7410   22.8030  -31.0960 C   0  0  0  0  0  0  0  0  0  0  0  0
   -3.0860   22.5940  -32.1530 O   0  0  0  0  0  0  0  0  0  0  0  0
   -3.0250   23.0000  -29.8290 C   0  0  0  0  0  0  0  0  0  0  0  0
   -3.2280   22.2280  -28.8550 O   0  0  0  0  0  0  0  0  0  0  0  0
   -2.1270   24.0510  -29.6920 O   0  0  0  0  0  0  0  0  0  0  0  0
   -5.9900   21.8820  -31.6210 C   0  0  0  0  0  0  0  0  0  0  0  0
   -5.6380   20.6300  -32.1320 C   0  0  0  0  0  0  0  0  0  0  0  0
   -5.0690   18.2260  -33.6410 N   0  0  0  0  0  0  0  0  0  0  0  0
   -2.2002   17.8462  -33.1654 H   0  0  0  0  0  0  0  0  0  0  0  0
   -1.2816   17.4449  -34.6560 H   0  0  0  0  0  0  0  0  0  0  0  0
   -2.4372   18.8201  -34.6560 H   0  0  0  0  0  0  0  0  0  0  0  0
   -2.7951   14.9160  -35.1386 H   0  0  0  0  0  0  0  0  0  0  0  0
   -3.9283   15.6927  -36.2958 H   0  0  0  0  0  0  0  0  0  0  0  0
   -2.1912   16.1500  -36.2958 H   0  0  0  0  0  0  0  0  0  0  0  0
   -5.2505   14.9668  -34.5305 H   0  0  0  0  0  0  0  0  0  0  0  0
   -7.5462   15.2803  -33.6049 H   0  0  0  0  0  0  0  0  0  0  0  0
   -8.2381   17.5055  -32.7038 H   0  0  0  0  0  0  0  0  0  0  0  0
   -8.8194   19.5441  -32.8739 H   0  0  0  0  0  0  0  0  0  0  0  0
   -9.3793   21.8311  -31.9904 H   0  0  0  0  0  0  0  0  0  0  0  0
   -8.2018   24.2110  -30.9231 H   0  0  0  0  0  0  0  0  0  0  0  0
   -3.5240   25.6770  -29.6960 H   0  0  0  0  0  0  0  0  0  0  0  0
   -4.5843   20.3168  -32.1728 H   0  0  0  0  0  0  0  0  0  0  0  0
  1  2  1  0
  2  3  1  0
  2  4  1  0
  4  5  2  0
  5  6  1  0
  6  7  2  0
  7  8  1  0
  8  9  1  0
  9 10  2  0
 10 11  1  0
 11 12  2  0
 12 13  1  0
 13 14  2  0
 14 15  1  0
 15 16  1  0
 15 17  2  0
 14 18  1  0
 18 19  1  0
 19 20  2  0
 19 21  1  0
 21 22  2  0
 21 23  1  0
 18 24  1  0
 24 25  2  0
  8 26  2  0
 26  4  1  0
 25  9  1  0
 24 12  1  0
  1 27  1  0
  1 28  1  0
  1 29  1  0
  3 30  1  0
  3 31  1  0
  3 32  1  0
  5 33  1  0
  6 34  1  0
  7 35  1  0
 10 36  1  0
 11 37  1  0
 13 38  1  0
 16 39  1  0
 25 40  1  0
M  CHG  2  16  -1  23  -1
M  END
>  <UniqueID>  (13) 
13

>  <SMILES>  (13) 
CN(C)c1cccc(-c2ccc3cc(C([NH-])=O)n(C(=O)C(=O)[O-])c3c2)n1

>  <Energy>  (13) 
84.99479579547973

>  <Genealogy>  (13) 
CN(C)c1cccc(-c2ccc3cc(C([NH-])=O)n(C(=O)C(=O)[O-])c3c2)n1 (protonated)
CN(C)c1cccc(-c2ccc3cc(C([NH-])=O)n(C(=O)C(=O)[O-])c3c2)n1 (3D coordinates assigned)
CN(C)c1cccc(-c2ccc3cc(C([NH-])=O)n(C(=O)C(=O)[O-])c3c2)n1 (optimized conformer: 84.99479579547973 kcal/mol)

>  <smiles>  (13) 
CN(C)c1cccc(-c2ccc3cc(C(N)=O)n(C(=O)C(=O)O)c3c2)n1

>  <score_type>  (13) 
oracle

>  <origin>  (13) 
adg

>  <m_score__min__energy>  (13) 
-12.19

>  <m_primary>  (13) 
energy

$$$$
13:0
     RDKit          3D

 58 59  0  0  0  0  0  0  0  0999 V2000
   -3.1570   19.0920  -26.5600 C   0  0  0  0  0  0  0  0  0  0  0  0
   -2.0400   20.0180  -26.8010 N   0  0  0  0  0  0  0  0  0  0  0  0
   -0.9360   19.3460  -27.5030 C   0  0  0  0  0  0  0  0  0  0  0  0
   -2.4630   21.2770  -27.4560 C   0  0  0  0  0  0  0  0  0  0  0  0
   -1.5870   22.4980  -27.1110 C   0  0  0  0  0  0  0  0  0  0  0  0
   -2.1930   23.7300  -27.6360 N   0  0  0  0  0  0  0  0  0  0  0  0
   -2.8680   24.6370  -26.7020 C   0  0  0  0  0  0  0  0  0  0  0  0
   -2.1130   24.1070  -29.0320 C   0  0  0  0  0  0  0  0  0  0  0  0
   -1.7510   25.2770  -29.3380 O   0  0  0  0  0  0  0  0  0  0  0  0
   -2.4610   23.1620  -30.1560 C   0  0  0  0  0  0  0  0  0  0  0  0
   -3.9440   23.1350  -30.4260 C   0  0  0  0  0  0  0  0  0  0  0  0
   -4.7940   24.1190  -29.8660 C   0  0  0  0  0  0  0  0  0  0  0  0
   -6.1800   24.0760  -30.0870 C   0  0  0  0  0  0  0  0  0  0  0  0
   -6.6840   23.0500  -30.8800 C   0  0  0  0  0  0  0  0  0  0  0  0
   -7.9850   22.7520  -31.2040 C   0  0  0  0  0  0  0  0  0  0  0  0
   -7.9150   21.5950  -31.9700 C   0  0  0  0  0  0  0  0  0  0  0  0
   -9.1130   20.8790  -32.4340 C   0  0  0  0  0  0  0  0  0  0  0  0
   -9.0150   19.8800  -33.4490 N   0  0  0  0  0  0  0  0  0  0  0  0
  -10.2220   21.0930  -31.8750 O   0  0  0  0  0  0  0  0  0  0  0  0
   -6.6200   21.2010  -32.1530 N   0  0  0  0  0  0  0  0  0  0  0  0
   -6.1470   20.1160  -32.9840 C   0  0  0  0  0  0  0  0  0  0  0  0
   -6.3090   20.1530  -34.2330 O   0  0  0  0  0  0  0  0  0  0  0  0
   -5.5420   18.9930  -32.4070 O   0  0  0  0  0  0  0  0  0  0  0  0
   -4.6180   18.1450  -33.0910 C   0  0  0  0  0  0  0  0  0  0  0  0
   -5.3280   17.2250  -34.0970 C   0  0  2  0  0  0  0  0  0  0  0  0
   -5.6520   17.9610  -35.2480 O   0  0  0  0  0  0  0  0  0  0  0  0
   -6.5920   16.5870  -33.5040 C   0  0  0  0  0  0  0  0  0  0  0  0
   -7.6180   17.5390  -33.4380 O   0  0  0  0  0  0  0  0  0  0  0  0
   -5.8770   22.1030  -31.4610 C   0  0  0  0  0  0  0  0  0  0  0  0
   -4.4890   22.1310  -31.2580 C   0  0  0  0  0  0  0  0  0  0  0  0
   -3.3046   18.9696  -25.4768 H   0  0  0  0  0  0  0  0  0  0  0  0
   -4.0741   19.4984  -27.0115 H   0  0  0  0  0  0  0  0  0  0  0  0
   -2.9277   18.1155  -27.0115 H   0  0  0  0  0  0  0  0  0  0  0  0
   -0.2379   18.9211  -26.7667 H   0  0  0  0  0  0  0  0  0  0  0  0
   -1.3392   18.5400  -28.1337 H   0  0  0  0  0  0  0  0  0  0  0  0
   -0.4052   20.0744  -28.1337 H   0  0  0  0  0  0  0  0  0  0  0  0
   -2.4303   21.1264  -28.5452 H   0  0  0  0  0  0  0  0  0  0  0  0
   -3.4742   21.5003  -27.0851 H   0  0  0  0  0  0  0  0  0  0  0  0
   -1.4920   22.5784  -26.0181 H   0  0  0  0  0  0  0  0  0  0  0  0
   -0.5955   22.3657  -27.5686 H   0  0  0  0  0  0  0  0  0  0  0  0
   -2.6424   24.3339  -25.6689 H   0  0  0  0  0  0  0  0  0  0  0  0
   -2.5134   25.6649  -26.8682 H   0  0  0  0  0  0  0  0  0  0  0  0
   -3.9545   24.5925  -26.8682 H   0  0  0  0  0  0  0  0  0  0  0  0
   -1.9389   23.4862  -31.0683 H   0  0  0  0  0  0  0  0  0  0  0  0
   -2.1488   22.1495  -29.8604 H   0  0  0  0  0  0  0  0  0  0  0  0
   -4.3647   24.9246  -29.2522 H   0  0  0  0  0  0  0  0  0  0  0  0
   -6.8475   24.8311  -29.6462 H   0  0  0  0  0  0  0  0  0  0  0  0
   -8.8889   23.3099  -30.9182 H   0  0  0  0  0  0  0  0  0  0  0  0
   -8.0860   19.6140  -33.8450 H   0  0  0  0  0  0  0  0  0  0  0  0
   -9.8690   19.3790  -33.7810 H   0  0  0  0  0  0  0  0  0  0  0  0
   -3.8922   18.7709  -33.6309 H   0  0  0  0  0  0  0  0  0  0  0  0
   -4.1150   17.5131  -32.3442 H   0  0  0  0  0  0  0  0  0  0  0  0
   -4.6411   16.4049  -34.3534 H   0  0  0  0  0  0  0  0  0  0  0  0
   -6.5070   18.4310  -35.0600 H   0  0  0  0  0  0  0  0  0  0  0  0
   -6.9116   15.7493  -34.1412 H   0  0  0  0  0  0  0  0  0  0  0  0
   -6.3721   16.2192  -32.4909 H   0  0  0  0  0  0  0  0  0  0  0  0
   -7.2190   18.3940  -33.7470 H   0  0  0  0  0  0  0  0  0  0  0  0
   -3.8374   21.3856  -31.7373 H   0  0  0  0  0  0  0  0  0  0  0  0
  1  2  1  0
  2  3  1  0
  2  4  1  0
  4  5  1  0
  5  6  1  0
  6  7  1  0
  6  8  1  0
  8  9  2  0
  8 10  1  0
 10 11  1  0
 11 12  2  0
 12 13  1  0
 13 14  2  0
 14 15  1  0
 15 16  2  0
 16 17  1  0
 17 18  1  0
 17 19  2  0
 16 20  1  0
 20 21  1  0
 21 22  2  0
 21 23  1  0
 23 24  1  0
 24 25  1  0
 25 26  1  0
 25 27  1  0
 27 28  1  0
 20 29  1  0
 29 30  2  0
 30 11  1  0
 29 14  1  0
  1 31  1  0
  1 32  1  0
  1 33  1  0
  3 34  1  0
  3 35  1  0
  3 36  1  0
  4 37  1  0
  4 38  1  0
  5 39  1  0
  5 40  1  0
  7 41  1  0
  7 42  1  0
  7 43  1  0
 10 44  1  0
 10 45  1  0
 12 46  1  0
 13 47  1  0
 15 48  1  0
 18 49  1  0
 18 50  1  0
 24 51  1  0
 24 52  1  0
 25 53  1  6
 26 54  1  0
 27 55  1  0
 27 56  1  0
 28 57  1  0
 30 58  1  0
M  END
>  <UniqueID>  (14) 
14

>  <SMILES>  (14) 
CN(C)CCN(C)C(=O)Cc1ccc2cc(C(N)=O)n(C(=O)OC[C@H](O)CO)c2c1

>  <Energy>  (14) 
90.88324182598328

>  <Genealogy>  (14) 
CN(C)CCN(C)C(=O)Cc1ccc2cc(C(N)=O)n(C(=O)OC[C@H](O)CO)c2c1 (chirality)
CN(C)CCN(C)C(=O)Cc1ccc2cc(C(N)=O)n(C(=O)OC[C@H](O)CO)c2c1 (3D coordinates assigned)
CN(C)CCN(C)C(=O)Cc1ccc2cc(C(N)=O)n(C(=O)OC[C@H](O)CO)c2c1 (optimized conformer: 90.88324182598328 kcal/mol)

>  <smiles>  (14) 
CN(C)CCN(C)C(=O)Cc1ccc2cc(C(N)=O)n(C(=O)OCC(O)CO)c2c1

>  <score_type>  (14) 
oracle

>  <origin>  (14) 
adg

>  <m_score__min__energy>  (14) 
-8.5800000000000001

>  <m_primary>  (14) 
energy

$$$$
14:0
     RDKit          3D

 37 38  0  0  0  0  0  0  0  0999 V2000
   -1.6590   25.4140  -29.2480 N   0  0  0  0  0  0  0  0  0  0  0  0
   -1.2270   24.0570  -29.3100 C   0  0  0  0  0  0  0  0  0  0  0  0
   -0.2010   23.7080  -28.6670 O   0  0  0  0  0  0  0  0  0  0  0  0
   -1.9810   23.0510  -30.0880 C   0  0  0  0  0  0  0  0  0  0  0  0
   -1.3750   22.0650  -30.8670 C   0  0  0  0  0  0  0  0  0  0  0  0
   -2.4110   21.3200  -31.3830 C   0  0  0  0  0  0  0  0  0  0  0  0
   -2.3880   20.2290  -32.2470 C   0  0  0  0  0  0  0  0  0  0  0  0
   -3.6180   19.6810  -32.6490 C   0  0  0  0  0  0  0  0  0  0  0  0
   -4.8400   20.2350  -32.1900 C   0  0  0  0  0  0  0  0  0  0  0  0
   -6.1540   19.6750  -32.6680 C   0  0  0  0  0  0  0  0  0  0  0  0
   -7.2480   20.7510  -32.7760 C   0  0  0  0  0  0  0  0  0  0  0  0
   -7.8640   21.1420  -31.4180 C   0  0  0  0  0  0  0  0  0  0  0  0
   -7.5770   22.6010  -31.0390 C   0  0  0  0  0  0  0  0  0  0  0  0
   -7.1140   22.6780  -29.6570 N   0  0  0  0  0  0  0  0  0  0  0  0
   -4.8230   21.3440  -31.3150 C   0  0  0  0  0  0  0  0  0  0  0  0
   -3.5840   21.8550  -30.9180 C   0  0  0  0  0  0  0  0  0  0  0  0
   -3.3360   22.9160  -30.1190 N   0  0  0  0  0  0  0  0  0  0  0  0
   -4.3170   23.7750  -29.5180 C   0  0  0  0  0  0  0  0  0  0  0  0
   -4.8650   23.4340  -28.4370 O   0  0  0  0  0  0  0  0  0  0  0  0
   -4.6930   25.0480  -30.1510 C   0  0  0  0  0  0  0  0  0  0  0  0
   -3.8620   25.6810  -30.8520 O   0  0  0  0  0  0  0  0  0  0  0  0
   -5.9770   25.5530  -29.9880 O   0  0  0  0  0  0  0  0  0  0  0  0
   -2.6730   25.6570  -29.2970 H   0  0  0  0  0  0  0  0  0  0  0  0
   -0.2981   21.9148  -31.0335 H   0  0  0  0  0  0  0  0  0  0  0  0
   -1.4363   19.8087  -32.6042 H   0  0  0  0  0  0  0  0  0  0  0  0
   -3.6330   18.8142  -33.3261 H   0  0  0  0  0  0  0  0  0  0  0  0
   -6.0050   19.2226  -33.6595 H   0  0  0  0  0  0  0  0  0  0  0  0
   -6.4885   18.9308  -31.9303 H   0  0  0  0  0  0  0  0  0  0  0  0
   -6.8074   21.6508  -33.2302 H   0  0  0  0  0  0  0  0  0  0  0  0
   -8.0580   20.3277  -33.3882 H   0  0  0  0  0  0  0  0  0  0  0  0
   -8.9534   20.9994  -31.4710 H   0  0  0  0  0  0  0  0  0  0  0  0
   -7.4084   20.5017  -30.6483 H   0  0  0  0  0  0  0  0  0  0  0  0
   -6.8007   23.0043  -31.7059 H   0  0  0  0  0  0  0  0  0  0  0  0
   -8.5012   23.1885  -31.1425 H   0  0  0  0  0  0  0  0  0  0  0  0
   -6.8550   23.6710  -29.4560 H   0  0  0  0  0  0  0  0  0  0  0  0
   -6.2310   22.1210  -29.5850 H   0  0  0  0  0  0  0  0  0  0  0  0
   -5.7603   21.7936  -30.9555 H   0  0  0  0  0  0  0  0  0  0  0  0
  1  2  1  0
  2  3  2  0
  2  4  1  0
  4  5  2  0
  5  6  1  0
  6  7  2  0
  7  8  1  0
  8  9  2  0
  9 10  1  0
 10 11  1  0
 11 12  1  0
 12 13  1  0
 13 14  1  0
  9 15  1  0
 15 16  2  0
 16 17  1  0
 17 18  1  0
 18 19  2  0
 18 20  1  0
 20 21  2  0
 20 22  1  0
 17  4  1  0
 16  6  1  0
  1 23  1  0
  5 24  1  0
  7 25  1  0
  8 26  1  0
 10 27  1  0
 10 28  1  0
 11 29  1  0
 11 30  1  0
 12 31  1  0
 12 32  1  0
 13 33  1  0
 13 34  1  0
 14 35  1  0
 14 36  1  0
 15 37  1  0
M  CHG  2   1  -1  22  -1
M  END
>  <UniqueID>  (15) 
15

>  <SMILES>  (15) 
[NH-]C(=O)c1cc2ccc(CCCCN)cc2n1C(=O)C(=O)[O-]

>  <Energy>  (15) 
70.21825380749203

>  <Genealogy>  (15) 
[NH-]C(=O)c1cc2ccc(CCCCN)cc2n1C(=O)C(=O)[O-] (protonated)
[NH-]C(=O)c1cc2ccc(CCCCN)cc2n1C(=O)C(=O)[O-] (3D coordinates assigned)
[NH-]C(=O)c1cc2ccc(CCCCN)cc2n1C(=O)C(=O)[O-] (optimized conformer: 70.21825380749203 kcal/mol)

>  <smiles>  (15) 
NCCCCc1ccc2cc(C(N)=O)n(C(=O)C(=O)O)c2c1

>  <score_type>  (15) 
oracle

>  <origin>  (15) 
adg

>  <m_score__min__energy>  (15) 
-11.119999999999999

>  <m_primary>  (15) 
energy

$$$$
15:0
     RDKit          3D

 39 40  0  0  0  0  0  0  0  0999 V2000
   -6.7320   17.3630  -32.3270 C   0  0  0  0  0  0  0  0  0  0  0  0
   -7.0910   18.5310  -33.1240 N   0  0  0  0  0  0  0  0  0  0  0  0
   -7.3010   19.8410  -32.5650 C   0  0  0  0  0  0  0  0  0  0  0  0
   -8.6090   20.3640  -32.3670 C   0  0  0  0  0  0  0  0  0  0  0  0
   -8.7930   21.6500  -31.8310 C   0  0  0  0  0  0  0  0  0  0  0  0
   -7.6620   22.3860  -31.4940 C   0  0  0  0  0  0  0  0  0  0  0  0
   -7.5530   23.6620  -30.9880 C   0  0  0  0  0  0  0  0  0  0  0  0
   -6.1820   23.8960  -30.8660 C   0  0  0  0  0  0  0  0  0  0  0  0
   -5.5880   25.1360  -30.3140 C   0  0  0  0  0  0  0  0  0  0  0  0
   -4.2550   25.5250  -30.6490 N   0  0  0  0  0  0  0  0  0  0  0  0
   -6.2660   25.8720  -29.5480 O   0  0  0  0  0  0  0  0  0  0  0  0
   -5.4790   22.8020  -31.2710 N   0  0  0  0  0  0  0  0  0  0  0  0
   -4.0520   22.6660  -31.3550 C   0  0  0  0  0  0  0  0  0  0  0  0
   -3.5020   22.5670  -32.4850 O   0  0  0  0  0  0  0  0  0  0  0  0
   -3.2220   22.6590  -30.1410 C   0  0  0  0  0  0  0  0  0  0  0  0
   -3.2160   21.6480  -29.3880 O   0  0  0  0  0  0  0  0  0  0  0  0
   -2.4300   23.8070  -29.8160 N   0  0  0  0  0  0  0  0  0  0  0  0
   -2.0360   24.1630  -28.4550 C   0  0  0  0  0  0  0  0  0  0  0  0
   -1.2600   25.4780  -28.4870 C   0  0  0  0  0  0  0  0  0  0  0  0
   -3.2750   24.2920  -27.5650 C   0  0  0  0  0  0  0  0  0  0  0  0
   -6.3970   21.8910  -31.6600 C   0  0  0  0  0  0  0  0  0  0  0  0
   -6.1810   20.6240  -32.2100 C   0  0  0  0  0  0  0  0  0  0  0  0
   -6.8082   17.6110  -31.2580 H   0  0  0  0  0  0  0  0  0  0  0  0
   -7.4170   16.5348  -32.5610 H   0  0  0  0  0  0  0  0  0  0  0  0
   -5.7000   17.0625  -32.5610 H   0  0  0  0  0  0  0  0  0  0  0  0
   -7.1970   18.3990  -34.1550 H   0  0  0  0  0  0  0  0  0  0  0  0
   -9.4851   19.7558  -32.6361 H   0  0  0  0  0  0  0  0  0  0  0  0
   -9.8019   22.0624  -31.6823 H   0  0  0  0  0  0  0  0  0  0  0  0
   -8.3722   24.3507  -30.7339 H   0  0  0  0  0  0  0  0  0  0  0  0
   -3.6350   24.9150  -31.2250 H   0  0  0  0  0  0  0  0  0  0  0  0
   -3.8650   26.4200  -30.2790 H   0  0  0  0  0  0  0  0  0  0  0  0
   -1.3937   23.3737  -28.0374 H   0  0  0  0  0  0  0  0  0  0  0  0
   -1.0627   25.8124  -27.4578 H   0  0  0  0  0  0  0  0  0  0  0  0
   -0.3057   25.3279  -29.0131 H   0  0  0  0  0  0  0  0  0  0  0  0
   -1.8527   26.2408  -29.0131 H   0  0  0  0  0  0  0  0  0  0  0  0
   -2.9721   24.2605  -26.5080 H   0  0  0  0  0  0  0  0  0  0  0  0
   -3.7786   25.2474  -27.7738 H   0  0  0  0  0  0  0  0  0  0  0  0
   -3.9646   23.4608  -27.7738 H   0  0  0  0  0  0  0  0  0  0  0  0
   -5.1597   20.2450  -32.3630 H   0  0  0  0  0  0  0  0  0  0  0  0
  1  2  1  0
  2  3  1  0
  3  4  2  0
  4  5  1  0
  5  6  2  0
  6  7  1  0
  7  8  2  0
  8  9  1  0
  9 10  1  0
  9 11  2  0
  8 12  1  0
 12 13  1  0
 13 14  2  0
 13 15  1  0
 15 16  2  0
 15 17  1  0
 17 18  1  0
 18 19  1  0
 18 20  1  0
 12 21  1  0
 21 22  2  0
 22  3  1  0
 21  6  1  0
  1 23  1  0
  1 24  1  0
  1 25  1  0
  2 26  1  0
  4 27  1  0
  5 28  1  0
  7 29  1  0
 10 30  1  0
 10 31  1  0
 18 32  1  0
 19 33  1  0
 19 34  1  0
 19 35  1  0
 20 36  1  0
 20 37  1  0
 20 38  1  0
 22 39  1  0
M  CHG  1  17  -1
M  END
>  <UniqueID>  (16) 
16

>  <SMILES>  (16) 
CNc1ccc2cc(C(N)=O)n(C(=O)C(=O)[N-]C(C)C)c2c1

>  <Energy>  (16) 
69.89949050910504

>  <Genealogy>  (16) 
CNc1ccc2cc(C(N)=O)n(C(=O)C(=O)[N-]C(C)C)c2c1 (protonated)
CNc1ccc2cc(C(N)=O)n(C(=O)C(=O)[N-]C(C)C)c2c1 (3D coordinates assigned)
CNc1ccc2cc(C(N)=O)n(C(=O)C(=O)[N-]C(C)C)c2c1 (optimized conformer: 69.89949050910504 kcal/mol)

>  <smiles>  (16) 
CNc1ccc2cc(C(N)=O)n(C(=O)C(=O)NC(C)C)c2c1

>  <score_type>  (16) 
oracle

>  <origin>  (16) 
adg

>  <m_score__min__energy>  (16) 
-9.3499999999999996

>  <m_primary>  (16) 
energy

$$$$
16:0
     RDKit          3D

 41 43  0  0  0  0  0  0  0  0999 V2000
   -1.5040   26.1940  -28.5950 N   0  0  0  0  0  0  0  0  0  0  0  0
   -0.8380   24.9360  -28.7010 C   0  0  0  0  0  0  0  0  0  0  0  0
    0.2400   24.7530  -28.0740 O   0  0  0  0  0  0  0  0  0  0  0  0
   -1.4200   23.8240  -29.4790 C   0  0  0  0  0  0  0  0  0  0  0  0
   -0.6880   22.7160  -29.8960 C   0  0  0  0  0  0  0  0  0  0  0  0
   -1.5970   21.8970  -30.5240 C   0  0  0  0  0  0  0  0  0  0  0  0
   -1.4080   20.6690  -31.1490 C   0  0  0  0  0  0  0  0  0  0  0  0
   -2.5180   20.0620  -31.7580 C   0  0  0  0  0  0  0  0  0  0  0  0
   -3.7900   20.6880  -31.7380 C   0  0  0  0  0  0  0  0  0  0  0  0
   -4.9160   20.0690  -32.3910 N   0  0  0  0  0  0  0  0  0  0  0  0
   -5.1040   18.6130  -32.3500 C   0  0  0  0  0  0  0  0  0  0  0  0
   -6.4740   18.2580  -31.7490 C   0  0  0  0  0  0  0  0  0  0  0  0
   -7.5750   19.3100  -32.0560 C   0  0  0  0  0  0  0  0  0  0  0  0
   -8.9490   18.6370  -32.1990 C   0  0  0  0  0  0  0  0  0  0  0  0
   -9.7840   19.4140  -33.0140 O   0  0  0  0  0  0  0  0  0  0  0  0
   -7.2260   20.1430  -33.3070 C   0  0  0  0  0  0  0  0  0  0  0  0
   -5.9080   20.9010  -33.0880 C   0  0  0  0  0  0  0  0  0  0  0  0
   -3.9380   21.9430  -31.1020 C   0  0  0  0  0  0  0  0  0  0  0  0
   -2.8210   22.5150  -30.4820 C   0  0  0  0  0  0  0  0  0  0  0  0
   -2.7280   23.7050  -29.8460 N   0  0  0  0  0  0  0  0  0  0  0  0
   -3.7710   24.6840  -29.6990 C   0  0  0  0  0  0  0  0  0  0  0  0
   -3.8590   25.6450  -30.5080 O   0  0  0  0  0  0  0  0  0  0  0  0
   -4.6930   24.5820  -28.6650 O   0  0  0  0  0  0  0  0  0  0  0  0
   -1.0590   26.9800  -28.0730 H   0  0  0  0  0  0  0  0  0  0  0  0
   -2.4740   26.3220  -28.9580 H   0  0  0  0  0  0  0  0  0  0  0  0
    0.3875   22.5343  -29.7537 H   0  0  0  0  0  0  0  0  0  0  0  0
   -0.4189   20.1879  -31.1657 H   0  0  0  0  0  0  0  0  0  0  0  0
   -2.3993   19.0888  -32.2568 H   0  0  0  0  0  0  0  0  0  0  0  0
   -5.0437   18.2123  -33.3726 H   0  0  0  0  0  0  0  0  0  0  0  0
   -4.3170   18.1727  -31.7202 H   0  0  0  0  0  0  0  0  0  0  0  0
   -6.7940   17.2888  -32.1593 H   0  0  0  0  0  0  0  0  0  0  0  0
   -6.3506   18.2273  -30.6564 H   0  0  0  0  0  0  0  0  0  0  0  0
   -7.6242   20.0040  -31.2040 H   0  0  0  0  0  0  0  0  0  0  0  0
   -8.8216   17.6427  -32.6518 H   0  0  0  0  0  0  0  0  0  0  0  0
   -9.4072   18.5394  -31.2037 H   0  0  0  0  0  0  0  0  0  0  0  0
   -9.4660   19.2770  -33.9440 H   0  0  0  0  0  0  0  0  0  0  0  0
   -7.1201   19.4723  -34.1724 H   0  0  0  0  0  0  0  0  0  0  0  0
   -8.0316   20.8690  -33.4914 H   0  0  0  0  0  0  0  0  0  0  0  0
   -5.5007   21.1991  -34.0654 H   0  0  0  0  0  0  0  0  0  0  0  0
   -6.1171   21.7829  -32.4647 H   0  0  0  0  0  0  0  0  0  0  0  0
   -4.9099   22.4582  -31.0949 H   0  0  0  0  0  0  0  0  0  0  0  0
  1  2  1  0
  2  3  2  0
  2  4  1  0
  4  5  2  0
  5  6  1  0
  6  7  2  0
  7  8  1  0
  8  9  2  0
  9 10  1  0
 10 11  1  0
 11 12  1  0
 12 13  1  0
 13 14  1  0
 14 15  1  0
 13 16  1  0
 16 17  1  0
  9 18  1  0
 18 19  2  0
 19 20  1  0
 20 21  1  0
 21 22  2  0
 21 23  1  0
 20  4  1  0
 19  6  1  0
 17 10  1  0
  1 24  1  0
  1 25  1  0
  5 26  1  0
  7 27  1  0
  8 28  1  0
 11 29  1  0
 11 30  1  0
 12 31  1  0
 12 32  1  0
 13 33  1  0
 14 34  1  0
 14 35  1  0
 15 36  1  0
 16 37  1  0
 16 38  1  0
 17 39  1  0
 17 40  1  0
 18 41  1  0
M  CHG  1  23  -1
M  END
>  <UniqueID>  (17) 
17

>  <SMILES>  (17) 
NC(=O)c1cc2ccc(N3CCC(CO)CC3)cc2n1C(=O)[O-]

>  <Energy>  (17) 
86.48999555646667

>  <Genealogy>  (17) 
NC(=O)c1cc2ccc(N3CCC(CO)CC3)cc2n1C(=O)[O-] (protonated)
NC(=O)c1cc2ccc(N3CCC(CO)CC3)cc2n1C(=O)[O-] (3D coordinates assigned)
NC(=O)c1cc2ccc(N3CCC(CO)CC3)cc2n1C(=O)[O-] (nonaromatic ring conformer: 86.48999555646667 kcal/mol)

>  <smiles>  (17) 
NC(=O)c1cc2ccc(N3CCC(CO)CC3)cc2n1C(=O)O

>  <score_type>  (17) 
oracle

>  <origin>  (17) 
adg

>  <m_score__min__energy>  (17) 
-9.5099999999999998

>  <m_primary>  (17) 
energy

$$$$
17:0
     RDKit          3D

 35 36  0  0  0  0  0  0  0  0999 V2000
   -3.9320   25.6700  -30.8480 N   0  0  0  0  0  0  0  0  0  0  0  0
   -5.2360   25.2580  -30.4480 C   0  0  0  0  0  0  0  0  0  0  0  0
   -5.9800   26.0720  -29.8360 O   0  0  0  0  0  0  0  0  0  0  0  0
   -5.7480   23.9150  -30.7890 C   0  0  0  0  0  0  0  0  0  0  0  0
   -7.0990   23.6350  -30.9860 C   0  0  0  0  0  0  0  0  0  0  0  0
   -7.1460   22.3150  -31.3680 C   0  0  0  0  0  0  0  0  0  0  0  0
   -8.2410   21.5110  -31.6720 C   0  0  0  0  0  0  0  0  0  0  0  0
   -7.9990   20.1660  -31.9990 C   0  0  0  0  0  0  0  0  0  0  0  0
   -6.6780   19.6530  -32.0150 C   0  0  0  0  0  0  0  0  0  0  0  0
   -6.4310   18.2000  -32.3260 C   0  0  0  0  0  0  0  0  0  0  0  0
   -6.4600   17.9300  -33.8350 C   0  0  0  0  0  0  0  0  0  0  0  0
   -6.4220   19.1800  -34.5880 N   0  0  0  0  0  0  0  0  0  0  0  0
   -5.5930   20.4980  -31.6930 C   0  0  0  0  0  0  0  0  0  0  0  0
   -5.8620   21.8370  -31.3890 C   0  0  0  0  0  0  0  0  0  0  0  0
   -4.9900   22.8080  -31.0320 N   0  0  0  0  0  0  0  0  0  0  0  0
   -3.5750   22.6550  -30.8460 C   0  0  0  0  0  0  0  0  0  0  0  0
   -2.9220   21.8790  -31.5960 O   0  0  0  0  0  0  0  0  0  0  0  0
   -2.9310   23.3510  -29.8160 O   0  0  0  0  0  0  0  0  0  0  0  0
   -1.5570   23.1670  -29.4860 C   0  0  0  0  0  0  0  0  0  0  0  0
   -0.9360   24.4690  -29.0930 C   0  0  0  0  0  0  0  0  0  0  0  0
    0.2200   24.4920  -28.5950 O   0  0  0  0  0  0  0  0  0  0  0  0
   -1.6210   25.6590  -29.3000 O   0  0  0  0  0  0  0  0  0  0  0  0
   -3.0810   25.2850  -30.3830 H   0  0  0  0  0  0  0  0  0  0  0  0
   -7.9476   24.3239  -30.8622 H   0  0  0  0  0  0  0  0  0  0  0  0
   -9.2637   21.9159  -31.6567 H   0  0  0  0  0  0  0  0  0  0  0  0
   -8.8431   19.5049  -32.2449 H   0  0  0  0  0  0  0  0  0  0  0  0
   -5.4449   17.9137  -31.9315 H   0  0  0  0  0  0  0  0  0  0  0  0
   -7.2305   17.6082  -31.8564 H   0  0  0  0  0  0  0  0  0  0  0  0
   -5.5877   17.3181  -34.1083 H   0  0  0  0  0  0  0  0  0  0  0  0
   -7.3924   17.4002  -34.0797 H   0  0  0  0  0  0  0  0  0  0  0  0
   -7.2860   19.7260  -34.3650 H   0  0  0  0  0  0  0  0  0  0  0  0
   -6.4830   18.9420  -35.6050 H   0  0  0  0  0  0  0  0  0  0  0  0
   -4.5626   20.1131  -31.6815 H   0  0  0  0  0  0  0  0  0  0  0  0
   -1.4773   22.4598  -28.6473 H   0  0  0  0  0  0  0  0  0  0  0  0
   -1.0288   22.7712  -30.3660 H   0  0  0  0  0  0  0  0  0  0  0  0
  1  2  1  0
  2  3  2  0
  2  4  1  0
  4  5  2  0
  5  6  1  0
  6  7  2  0
  7  8  1  0
  8  9  2  0
  9 10  1  0
 10 11  1  0
 11 12  1  0
  9 13  1  0
 13 14  2  0
 14 15  1  0
 15 16  1  0
 16 17  2  0
 16 18  1  0
 18 19  1  0
 19 20  1  0
 20 21  2  0
 20 22  1  0
 15  4  1  0
 14  6  1  0
  1 23  1  0
  5 24  1  0
  7 25  1  0
  8 26  1  0
 10 27  1  0
 10 28  1  0
 11 29  1  0
 11 30  1  0
 12 31  1  0
 12 32  1  0
 13 33  1  0
 19 34  1  0
 19 35  1  0
M  CHG  2   1  -1  22  -1
M  END
>  <UniqueID>  (18) 
18

>  <SMILES>  (18) 
[NH-]C(=O)c1cc2ccc(CCN)cc2n1C(=O)OCC(=O)[O-]

>  <Energy>  (18) 
68.34555941551456

>  <Genealogy>  (18) 
[NH-]C(=O)c1cc2ccc(CCN)cc2n1C(=O)OCC(=O)[O-] (protonated)
[NH-]C(=O)c1cc2ccc(CCN)cc2n1C(=O)OCC(=O)[O-] (3D coordinates assigned)
[NH-]C(=O)c1cc2ccc(CCN)cc2n1C(=O)OCC(=O)[O-] (optimized conformer: 68.34555941551456 kcal/mol)

>  <smiles>  (18) 
NCCc1ccc2cc(C(N)=O)n(C(=O)OCC(=O)O)c2c1

>  <score_type>  (18) 
oracle

>  <origin>  (18) 
adg

>  <m_score__min__energy>  (18) 
-12.380000000000001

>  <m_primary>  (18) 
energy

$$$$
18:0
     RDKit          3D

 26 27  0  0  0  0  0  0  0  0999 V2000
   -1.6310   25.5810  -29.0530 N   0  0  0  0  0  0  0  0  0  0  0  0
   -0.9570   24.3310  -29.1800 C   0  0  0  0  0  0  0  0  0  0  0  0
    0.1500   24.1660  -28.6050 O   0  0  0  0  0  0  0  0  0  0  0  0
   -1.5730   23.2400  -29.9650 C   0  0  0  0  0  0  0  0  0  0  0  0
   -0.8460   22.2940  -30.6850 C   0  0  0  0  0  0  0  0  0  0  0  0
   -1.7880   21.4980  -31.2970 C   0  0  0  0  0  0  0  0  0  0  0  0
   -1.6250   20.3960  -32.1300 C   0  0  0  0  0  0  0  0  0  0  0  0
   -2.7810   19.7490  -32.5990 C   0  0  0  0  0  0  0  0  0  0  0  0
   -4.0720   20.1940  -32.2090 C   0  0  0  0  0  0  0  0  0  0  0  0
   -5.3040   19.5150  -32.7510 C   0  0  0  0  0  0  0  0  0  0  0  0
   -5.0150   18.9650  -33.9860 F   0  0  0  0  0  0  0  0  0  0  0  0
   -5.7230   18.5100  -31.8960 F   0  0  0  0  0  0  0  0  0  0  0  0
   -6.3390   20.4220  -32.8920 F   0  0  0  0  0  0  0  0  0  0  0  0
   -4.1940   21.3320  -31.3780 C   0  0  0  0  0  0  0  0  0  0  0  0
   -3.0260   21.9660  -30.9430 C   0  0  0  0  0  0  0  0  0  0  0  0
   -2.9110   23.0390  -30.1300 N   0  0  0  0  0  0  0  0  0  0  0  0
   -3.9880   23.7640  -29.5170 C   0  0  0  0  0  0  0  0  0  0  0  0
   -4.3810   23.4410  -28.3640 O   0  0  0  0  0  0  0  0  0  0  0  0
   -4.6340   24.8870  -30.2130 C   0  0  0  0  0  0  0  0  0  0  0  0
   -3.9540   25.6710  -30.9250 O   0  0  0  0  0  0  0  0  0  0  0  0
   -6.0000   25.0980  -30.0740 O   0  0  0  0  0  0  0  0  0  0  0  0
   -2.6380   25.6760  -29.3100 H   0  0  0  0  0  0  0  0  0  0  0  0
    0.2482   22.2026  -30.7505 H   0  0  0  0  0  0  0  0  0  0  0  0
   -0.6226   20.0421  -32.4128 H   0  0  0  0  0  0  0  0  0  0  0  0
   -2.6847   18.8876  -33.2763 H   0  0  0  0  0  0  0  0  0  0  0  0
   -5.1837   21.7092  -31.0811 H   0  0  0  0  0  0  0  0  0  0  0  0
  1  2  1  0
  2  3  2  0
  2  4  1  0
  4  5  2  0
  5  6  1  0
  6  7  2  0
  7  8  1  0
  8  9  2  0
  9 10  1  0
 10 11  1  0
 10 12  1  0
 10 13  1  0
  9 14  1  0
 14 15  2  0
 15 16  1  0
 16 17  1  0
 17 18  2  0
 17 19  1  0
 19 20  2  0
 19 21  1  0
 16  4  1  0
 15  6  1  0
  1 22  1  0
  5 23  1  0
  7 24  1  0
  8 25  1  0
 14 26  1  0
M  CHG  2   1  -1  21  -1
M  END
>  <UniqueID>  (19) 
19

>  <SMILES>  (19) 
[NH-]C(=O)c1cc2ccc(C(F)(F)F)cc2n1C(=O)C(=O)[O-]

>  <Energy>  (19) 
66.29654149719634

>  <Genealogy>  (19) 
[NH-]C(=O)c1cc2ccc(C(F)(F)F)cc2n1C(=O)C(=O)[O-] (protonated)
[NH-]C(=O)c1cc2ccc(C(F)(F)F)cc2n1C(=O)C(=O)[O-] (3D coordinates assigned)
[NH-]C(=O)c1cc2ccc(C(F)(F)F)cc2n1C(=O)C(=O)[O-] (optimized conformer: 66.29654149719634 kcal/mol)

>  <smiles>  (19) 
NC(=O)c1cc2ccc(C(F)(F)F)cc2n1C(=O)C(=O)O

>  <score_type>  (19) 
oracle

>  <origin>  (19) 
adg

>  <m_score__min__energy>  (19) 
-9.6199999999999992

>  <m_primary>  (19) 
energy

$$$$
19:0
     RDKit          3D

 38 40  0  0  0  0  0  0  0  0999 V2000
   -2.2600   20.7750  -32.3780 C   0  0  0  0  0  0  0  0  0  0  0  0
   -2.8850   21.9390  -32.5360 C   0  0  0  0  0  0  0  0  0  0  0  0
   -3.5450   22.6450  -31.4200 C   0  0  0  0  0  0  0  0  0  0  0  0
   -2.8590   23.1500  -30.4900 O   0  0  0  0  0  0  0  0  0  0  0  0
   -4.9720   22.8070  -31.4140 N   0  0  0  0  0  0  0  0  0  0  0  0
   -5.7000   23.8370  -30.8950 C   0  0  0  0  0  0  0  0  0  0  0  0
   -5.1500   25.0890  -30.3390 C   0  0  0  0  0  0  0  0  0  0  0  0
   -3.9240   25.6130  -30.8460 N   0  0  0  0  0  0  0  0  0  0  0  0
   -5.7350   25.6890  -29.3990 O   0  0  0  0  0  0  0  0  0  0  0  0
   -7.0640   23.5870  -31.0360 C   0  0  0  0  0  0  0  0  0  0  0  0
   -7.1480   22.3680  -31.6710 C   0  0  0  0  0  0  0  0  0  0  0  0
   -8.2650   21.6320  -32.0530 C   0  0  0  0  0  0  0  0  0  0  0  0
   -8.0540   20.3900  -32.6760 C   0  0  0  0  0  0  0  0  0  0  0  0
   -6.7390   19.9080  -32.9060 C   0  0  0  0  0  0  0  0  0  0  0  0
   -6.5300   18.6260  -33.5290 N   0  0  0  0  0  0  0  0  0  0  0  0
   -7.1970   17.4330  -32.9920 C   0  0  0  0  0  0  0  0  0  0  0  0
   -6.5930   16.1680  -33.6020 C   0  0  0  0  0  0  0  0  0  0  0  0
   -5.1970   16.3320  -33.7370 O   0  0  0  0  0  0  0  0  0  0  0  0
   -4.9110   17.2260  -34.8000 C   0  0  0  0  0  0  0  0  0  0  0  0
   -5.7590   18.5200  -34.7740 C   0  0  0  0  0  0  0  0  0  0  0  0
   -5.6310   20.6850  -32.4980 C   0  0  0  0  0  0  0  0  0  0  0  0
   -5.8730   21.9220  -31.8910 C   0  0  0  0  0  0  0  0  0  0  0  0
   -1.7822   20.2859  -33.2397 H   0  0  0  0  0  0  0  0  0  0  0  0
   -2.2211   20.3019  -31.3857 H   0  0  0  0  0  0  0  0  0  0  0  0
   -2.9109   22.3931  -33.5376 H   0  0  0  0  0  0  0  0  0  0  0  0
   -3.0060   25.3000  -30.4590 H   0  0  0  0  0  0  0  0  0  0  0  0
   -7.8965   24.2275  -30.7094 H   0  0  0  0  0  0  0  0  0  0  0  0
   -9.2820   22.0105  -31.8730 H   0  0  0  0  0  0  0  0  0  0  0  0
   -8.9176   19.7847  -32.9888 H   0  0  0  0  0  0  0  0  0  0  0  0
   -7.0688   17.4062  -31.8998 H   0  0  0  0  0  0  0  0  0  0  0  0
   -8.2667   17.4767  -33.2447 H   0  0  0  0  0  0  0  0  0  0  0  0
   -6.7998   15.3096  -32.9460 H   0  0  0  0  0  0  0  0  0  0  0  0
   -7.0389   15.9885  -34.5914 H   0  0  0  0  0  0  0  0  0  0  0  0
   -3.8489   17.5063  -34.7410 H   0  0  0  0  0  0  0  0  0  0  0  0
   -5.1570   16.7009  -35.7348 H   0  0  0  0  0  0  0  0  0  0  0  0
   -5.0897   19.3891  -34.8564 H   0  0  0  0  0  0  0  0  0  0  0  0
   -6.4637   18.4910  -35.6181 H   0  0  0  0  0  0  0  0  0  0  0  0
   -4.6031   20.3257  -32.6540 H   0  0  0  0  0  0  0  0  0  0  0  0
  1  2  2  0
  2  3  1  0
  3  4  2  0
  3  5  1  0
  5  6  1  0
  6  7  1  0
  7  8  1  0
  7  9  2  0
  6 10  2  0
 10 11  1  0
 11 12  2  0
 12 13  1  0
 13 14  2  0
 14 15  1  0
 15 16  1  0
 16 17  1  0
 17 18  1  0
 18 19  1  0
 19 20  1  0
 14 21  1  0
 21 22  2  0
 22  5  1  0
 22 11  1  0
 20 15  1  0
  1 23  1  0
  1 24  1  0
  2 25  1  0
  8 26  1  0
 10 27  1  0
 12 28  1  0
 13 29  1  0
 16 30  1  0
 16 31  1  0
 17 32  1  0
 17 33  1  0
 19 34  1  0
 19 35  1  0
 20 36  1  0
 20 37  1  0
 21 38  1  0
M  CHG  1   8  -1
M  END
>  <UniqueID>  (20) 
20

>  <SMILES>  (20) 
C=CC(=O)n1c(C([NH-])=O)cc2ccc(N3CCOCC3)cc21

>  <Energy>  (20) 
88.27193496005371

>  <Genealogy>  (20) 
C=CC(=O)n1c(C([NH-])=O)cc2ccc(N3CCOCC3)cc21 (protonated)
C=CC(=O)n1c(C([NH-])=O)cc2ccc(N3CCOCC3)cc21 (3D coordinates assigned)
C=CC(=O)n1c(C([NH-])=O)cc2ccc(N3CCOCC3)cc21 (nonaromatic ring conformer: 88.27193496005371 kcal/mol)

>  <smiles>  (20) 
C=CC(=O)n1c(C(N)=O)cc2ccc(N3CCOCC3)cc21

>  <score_type>  (20) 
oracle

>  <origin>  (20) 
adg

>  <m_score__min__energy>  (20) 
-10.31

>  <m_primary>  (20) 
energy

$$$$
20:0
     RDKit          3D

 45 46  0  0  0  0  0  0  0  0999 V2000
   -5.9660   18.3840  -34.4490 C   0  0  0  0  0  0  0  0  0  0  0  0
   -6.7460   18.6110  -33.2270 N   0  0  0  0  0  0  0  0  0  0  0  0
   -7.3480   17.4580  -32.5450 C   0  0  0  0  0  0  0  0  0  0  0  0
   -6.9190   19.9520  -32.6990 C   0  0  0  0  0  0  0  0  0  0  0  0
   -8.2210   20.4990  -32.5190 C   0  0  0  0  0  0  0  0  0  0  0  0
   -8.4000   21.7910  -31.9970 C   0  0  0  0  0  0  0  0  0  0  0  0
   -7.2670   22.5250  -31.6690 C   0  0  0  0  0  0  0  0  0  0  0  0
   -7.1590   23.7810  -31.1180 C   0  0  0  0  0  0  0  0  0  0  0  0
   -5.7900   24.0090  -30.9880 C   0  0  0  0  0  0  0  0  0  0  0  0
   -5.2200   25.2840  -30.5040 C   0  0  0  0  0  0  0  0  0  0  0  0
   -3.8940   25.6730  -30.8510 N   0  0  0  0  0  0  0  0  0  0  0  0
   -5.9310   26.0620  -29.8130 O   0  0  0  0  0  0  0  0  0  0  0  0
   -5.0830   22.9330  -31.4350 N   0  0  0  0  0  0  0  0  0  0  0  0
   -3.6620   22.7350  -31.3740 C   0  0  0  0  0  0  0  0  0  0  0  0
   -3.0400   22.2990  -32.3820 O   0  0  0  0  0  0  0  0  0  0  0  0
   -2.9770   23.0040  -30.1870 O   0  0  0  0  0  0  0  0  0  0  0  0
   -2.0490   22.0920  -29.6070 C   0  0  0  0  0  0  0  0  0  0  0  0
   -0.6480   22.7070  -29.5810 C   0  0  0  0  0  0  0  0  0  0  0  0
   -0.2580   23.3060  -28.2200 C   0  0  0  0  0  0  0  0  0  0  0  0
   -0.7020   25.0330  -28.0440 S   0  0  0  0  0  0  0  0  0  0  0  0
   -1.8970   25.2660  -26.7450 C   0  0  0  0  0  0  0  0  0  0  0  0
   -1.2620   25.5510  -29.3390 O   0  0  0  0  0  0  0  0  0  0  0  0
    0.5370   25.8140  -27.7050 O   0  0  0  0  0  0  0  0  0  0  0  0
   -6.0030   22.0330  -31.8480 C   0  0  0  0  0  0  0  0  0  0  0  0
   -5.7930   20.7430  -32.3470 C   0  0  0  0  0  0  0  0  0  0  0  0
   -4.9418   18.0859  -34.1802 H   0  0  0  0  0  0  0  0  0  0  0  0
   -6.4367   17.5856  -35.0414 H   0  0  0  0  0  0  0  0  0  0  0  0
   -5.9348   19.3103  -35.0414 H   0  0  0  0  0  0  0  0  0  0  0  0
   -7.2754   17.5971  -31.4562 H   0  0  0  0  0  0  0  0  0  0  0  0
   -8.4059   17.3724  -32.8340 H   0  0  0  0  0  0  0  0  0  0  0  0
   -6.8136   16.5410  -32.8340 H   0  0  0  0  0  0  0  0  0  0  0  0
   -9.1018   19.8999  -32.7933 H   0  0  0  0  0  0  0  0  0  0  0  0
   -9.4072   22.2089  -31.8523 H   0  0  0  0  0  0  0  0  0  0  0  0
   -7.9781   24.4603  -30.8395 H   0  0  0  0  0  0  0  0  0  0  0  0
   -3.0670   25.1710  -30.4610 H   0  0  0  0  0  0  0  0  0  0  0  0
   -2.3627   21.8595  -28.5786 H   0  0  0  0  0  0  0  0  0  0  0  0
   -2.0256   21.1723  -30.2100 H   0  0  0  0  0  0  0  0  0  0  0  0
    0.0798   21.9226  -29.8359 H   0  0  0  0  0  0  0  0  0  0  0  0
   -0.6478   23.5338  -30.3066 H   0  0  0  0  0  0  0  0  0  0  0  0
   -0.7659   22.7339  -27.4296 H   0  0  0  0  0  0  0  0  0  0  0  0
    0.8375   23.2445  -28.1420 H   0  0  0  0  0  0  0  0  0  0  0  0
   -1.4004   25.1692  -25.7683 H   0  0  0  0  0  0  0  0  0  0  0  0
   -2.3426   26.2679  -26.8321 H   0  0  0  0  0  0  0  0  0  0  0  0
   -2.6863   24.5048  -26.8321 H   0  0  0  0  0  0  0  0  0  0  0  0
   -4.7731   20.3480  -32.4648 H   0  0  0  0  0  0  0  0  0  0  0  0
  1  2  1  0
  2  3  1  0
  2  4  1  0
  4  5  2  0
  5  6  1  0
  6  7  2  0
  7  8  1  0
  8  9  2  0
  9 10  1  0
 10 11  1  0
 10 12  2  0
  9 13  1  0
 13 14  1  0
 14 15  2  0
 14 16  1  0
 16 17  1  0
 17 18  1  0
 18 19  1  0
 19 20  1  0
 20 21  1  0
 20 22  2  0
 20 23  2  0
 13 24  1  0
 24 25  2  0
 25  4  1  0
 24  7  1  0
  1 26  1  0
  1 27  1  0
  1 28  1  0
  3 29  1  0
  3 30  1  0
  3 31  1  0
  5 32  1  0
  6 33  1  0
  8 34  1  0
 11 35  1  0
 17 36  1  0
 17 37  1  0
 18 38  1  0
 18 39  1  0
 19 40  1  0
 19 41  1  0
 21 42  1  0
 21 43  1  0
 21 44  1  0
 25 45  1  0
M  CHG  1  11  -1
M  END
>  <UniqueID>  (21) 
21

>  <SMILES>  (21) 
CN(C)c1ccc2cc(C([NH-])=O)n(C(=O)OCCCS(C)(=O)=O)c2c1

>  <Energy>  (21) 
72.74880426063507

>  <Genealogy>  (21) 
CN(C)c1ccc2cc(C([NH-])=O)n(C(=O)OCCCS(C)(=O)=O)c2c1 (protonated)
CN(C)c1ccc2cc(C([NH-])=O)n(C(=O)OCCCS(C)(=O)=O)c2c1 (3D coordinates assigned)
CN(C)c1ccc2cc(C([NH-])=O)n(C(=O)OCCCS(C)(=O)=O)c2c1 (optimized conformer: 72.74880426063507 kcal/mol)

>  <smiles>  (21) 
CN(C)c1ccc2cc(C(N)=O)n(C(=O)OCCCS(C)(=O)=O)c2c1

>  <score_type>  (21) 
oracle

>  <origin>  (21) 
adg

>  <m_score__min__energy>  (21) 
-11.08

>  <m_primary>  (21) 
energy

$$$$
21:0
     RDKit          3D

 35 37  0  0  0  0  0  0  0  0999 V2000
   -1.5920   25.7340  -28.9190 N   0  0  0  0  0  0  0  0  0  0  0  0
   -1.0480   24.4250  -29.0790 C   0  0  0  0  0  0  0  0  0  0  0  0
    0.0830   24.1630  -28.5900 O   0  0  0  0  0  0  0  0  0  0  0  0
   -1.8040   23.4010  -29.8310 C   0  0  0  0  0  0  0  0  0  0  0  0
   -1.2400   22.5740  -30.8000 C   0  0  0  0  0  0  0  0  0  0  0  0
   -2.2620   21.7500  -31.2160 C   0  0  0  0  0  0  0  0  0  0  0  0
   -2.2690   20.7450  -32.1770 C   0  0  0  0  0  0  0  0  0  0  0  0
   -3.4780   20.0730  -32.4210 C   0  0  0  0  0  0  0  0  0  0  0  0
   -4.6600   20.4190  -31.7100 C   0  0  0  0  0  0  0  0  0  0  0  0
   -5.9420   19.7220  -31.9700 C   0  0  0  0  0  0  0  0  0  0  0  0
   -6.2090   18.3660  -31.8020 C   0  0  0  0  0  0  0  0  0  0  0  0
   -7.5290   18.2190  -32.1730 C   0  0  0  0  0  0  0  0  0  0  0  0
   -7.9950   19.4250  -32.5330 N   0  0  0  0  0  0  0  0  0  0  0  0
   -9.2970   19.6940  -32.9750 N   0  0  0  0  0  0  0  0  0  0  0  0
   -7.0540   20.3450  -32.4180 N   0  0  0  0  0  0  0  0  0  0  0  0
   -4.6080   21.4500  -30.7430 C   0  0  0  0  0  0  0  0  0  0  0  0
   -3.3850   22.0870  -30.5100 C   0  0  0  0  0  0  0  0  0  0  0  0
   -3.1190   23.0960  -29.6540 N   0  0  0  0  0  0  0  0  0  0  0  0
   -4.0560   23.7350  -28.7740 C   0  0  0  0  0  0  0  0  0  0  0  0
   -3.8800   23.6830  -27.5270 O   0  0  0  0  0  0  0  0  0  0  0  0
   -5.2730   24.4160  -29.3220 C   0  0  0  0  0  0  0  0  0  0  0  0
   -4.9510   25.0520  -30.6350 C   0  0  0  0  0  0  0  0  0  0  0  0
   -3.8630   25.6660  -30.7920 O   0  0  0  0  0  0  0  0  0  0  0  0
   -5.8300   24.9240  -31.7030 O   0  0  0  0  0  0  0  0  0  0  0  0
   -2.6200   25.9000  -28.9930 H   0  0  0  0  0  0  0  0  0  0  0  0
   -0.1995   22.5783  -31.1569 H   0  0  0  0  0  0  0  0  0  0  0  0
   -1.3546   20.4839  -32.7299 H   0  0  0  0  0  0  0  0  0  0  0  0
   -3.5110   19.2692  -33.1713 H   0  0  0  0  0  0  0  0  0  0  0  0
   -5.5193   17.5844  -31.4508 H   0  0  0  0  0  0  0  0  0  0  0  0
   -8.0997   17.2786  -32.1737 H   0  0  0  0  0  0  0  0  0  0  0  0
   -9.9360   20.2860  -32.3970 H   0  0  0  0  0  0  0  0  0  0  0  0
   -9.6410   19.3080  -33.8820 H   0  0  0  0  0  0  0  0  0  0  0  0
   -5.5099   21.7444  -30.1863 H   0  0  0  0  0  0  0  0  0  0  0  0
   -6.0738   23.6750  -29.4621 H   0  0  0  0  0  0  0  0  0  0  0  0
   -5.6038   25.1912  -28.6152 H   0  0  0  0  0  0  0  0  0  0  0  0
  1  2  1  0
  2  3  2  0
  2  4  1  0
  4  5  2  0
  5  6  1  0
  6  7  2  0
  7  8  1  0
  8  9  2  0
  9 10  1  0
 10 11  1  0
 11 12  2  0
 12 13  1  0
 13 14  1  0
 13 15  1  0
  9 16  1  0
 16 17  2  0
 17 18  1  0
 18 19  1  0
 19 20  2  0
 19 21  1  0
 21 22  1  0
 22 23  2  0
 22 24  1  0
 18  4  1  0
 17  6  1  0
 15 10  2  0
  1 25  1  0
  5 26  1  0
  7 27  1  0
  8 28  1  0
 11 29  1  0
 12 30  1  0
 14 31  1  0
 14 32  1  0
 16 33  1  0
 21 34  1  0
 21 35  1  0
M  CHG  2   1  -1  24  -1
M  END
>  <UniqueID>  (22) 
22

>  <SMILES>  (22) 
[NH-]C(=O)c1cc2ccc(-c3ccn(N)n3)cc2n1C(=O)CC(=O)[O-]

>  <Energy>  (22) 
105.29616758350947

>  <Genealogy>  (22) 
[NH-]C(=O)c1cc2ccc(-c3ccn(N)n3)cc2n1C(=O)CC(=O)[O-] (protonated)
[NH-]C(=O)c1cc2ccc(-c3ccn(N)n3)cc2n1C(=O)CC(=O)[O-] (3D coordinates assigned)
[NH-]C(=O)c1cc2ccc(-c3ccn(N)n3)cc2n1C(=O)CC(=O)[O-] (optimized conformer: 105.29616758350947 kcal/mol)

>  <smiles>  (22) 
NC(=O)c1cc2ccc(-c3ccn(N)n3)cc2n1C(=O)CC(=O)O

>  <score_type>  (22) 
oracle

>  <origin>  (22) 
adg

>  <m_score__min__energy>  (22) 
-12.08

>  <m_primary>  (22) 
energy

$$$$
22:0
     RDKit          3D

 44 45  0  0  0  0  0  0  0  0999 V2000
   -3.2760   15.9490  -35.4400 C   0  0  0  0  0  0  0  0  0  0  0  0
   -4.2980   15.6350  -34.3590 C   0  0  0  0  0  0  0  0  0  0  0  0
   -5.4610   16.3870  -34.5990 O   0  0  0  0  0  0  0  0  0  0  0  0
   -5.3030   17.9010  -33.8270 P   0  0  0  0  0  0  0  0  0  0  0  0
   -5.8690   18.9720  -34.7340 O   0  0  0  0  0  0  0  0  0  0  0  0
   -6.2840   17.8330  -32.2870 C   0  0  0  0  0  0  0  0  0  0  0  0
   -7.6620   18.4890  -32.4470 C   0  0  0  0  0  0  0  0  0  0  0  0
   -7.6550   19.9430  -32.0460 C   0  0  0  0  0  0  0  0  0  0  0  0
   -8.8410   20.7150  -32.1460 C   0  0  0  0  0  0  0  0  0  0  0  0
   -8.8280   22.0880  -31.8510 C   0  0  0  0  0  0  0  0  0  0  0  0
   -7.6220   22.6600  -31.4580 C   0  0  0  0  0  0  0  0  0  0  0  0
   -7.3220   23.9650  -31.1460 C   0  0  0  0  0  0  0  0  0  0  0  0
   -5.9640   23.9680  -30.8350 C   0  0  0  0  0  0  0  0  0  0  0  0
   -5.2520   25.1670  -30.3460 C   0  0  0  0  0  0  0  0  0  0  0  0
   -3.8540   25.3070  -30.5870 N   0  0  0  0  0  0  0  0  0  0  0  0
   -5.8720   26.0930  -29.7620 O   0  0  0  0  0  0  0  0  0  0  0  0
   -5.4400   22.7150  -30.9670 N   0  0  0  0  0  0  0  0  0  0  0  0
   -4.0720   22.2940  -30.8350 C   0  0  0  0  0  0  0  0  0  0  0  0
   -3.7660   21.2880  -30.1420 O   0  0  0  0  0  0  0  0  0  0  0  0
   -6.4710   21.9250  -31.3390 C   0  0  0  0  0  0  0  0  0  0  0  0
   -6.4510   20.5570  -31.6330 C   0  0  0  0  0  0  0  0  0  0  0  0
   -3.6610   18.2180  -33.4690 O   0  0  0  0  0  0  0  0  0  0  0  0
   -3.5860   19.3560  -32.6430 C   0  0  0  0  0  0  0  0  0  0  0  0
   -3.1440   20.5440  -33.4800 C   0  0  0  0  0  0  0  0  0  0  0  0
   -2.3247   16.2413  -34.9714 H   0  0  0  0  0  0  0  0  0  0  0  0
   -3.1182   15.0579  -36.0653 H   0  0  0  0  0  0  0  0  0  0  0  0
   -3.6457   16.7750  -36.0653 H   0  0  0  0  0  0  0  0  0  0  0  0
   -4.5409   14.5624  -34.3810 H   0  0  0  0  0  0  0  0  0  0  0  0
   -3.8862   15.8908  -33.3716 H   0  0  0  0  0  0  0  0  0  0  0  0
   -6.4242   16.7797  -32.0027 H   0  0  0  0  0  0  0  0  0  0  0  0
   -5.7343   18.3876  -31.5122 H   0  0  0  0  0  0  0  0  0  0  0  0
   -7.9689   18.4143  -33.5007 H   0  0  0  0  0  0  0  0  0  0  0  0
   -8.3643   17.9612  -31.7850 H   0  0  0  0  0  0  0  0  0  0  0  0
   -9.7797   20.2336  -32.4576 H   0  0  0  0  0  0  0  0  0  0  0  0
   -9.7435   22.6929  -31.9283 H   0  0  0  0  0  0  0  0  0  0  0  0
   -8.0086   24.8244  -31.1427 H   0  0  0  0  0  0  0  0  0  0  0  0
   -3.4930   26.0140  -31.2660 H   0  0  0  0  0  0  0  0  0  0  0  0
   -3.2798   22.8595  -31.3474 H   0  0  0  0  0  0  0  0  0  0  0  0
   -5.5220   19.9746  -31.5449 H   0  0  0  0  0  0  0  0  0  0  0  0
   -4.5743   19.5601  -32.2052 H   0  0  0  0  0  0  0  0  0  0  0  0
   -2.8625   19.1813  -31.8331 H   0  0  0  0  0  0  0  0  0  0  0  0
   -2.8380   21.3664  -32.8166 H   0  0  0  0  0  0  0  0  0  0  0  0
   -2.2952   20.2498  -34.1148 H   0  0  0  0  0  0  0  0  0  0  0  0
   -3.9787   20.8762  -34.1148 H   0  0  0  0  0  0  0  0  0  0  0  0
  1  2  1  0
  2  3  1  0
  3  4  1  0
  4  5  2  0
  4  6  1  0
  6  7  1  0
  7  8  1  0
  8  9  2  0
  9 10  1  0
 10 11  2  0
 11 12  1  0
 12 13  2  0
 13 14  1  0
 14 15  1  0
 14 16  2  0
 13 17  1  0
 17 18  1  0
 18 19  2  0
 17 20  1  0
 20 21  2  0
  4 22  1  0
 22 23  1  0
 23 24  1  0
 21  8  1  0
 20 11  1  0
  1 25  1  0
  1 26  1  0
  1 27  1  0
  2 28  1  0
  2 29  1  0
  6 30  1  0
  6 31  1  0
  7 32  1  0
  7 33  1  0
  9 34  1  0
 10 35  1  0
 12 36  1  0
 15 37  1  0
 18 38  1  0
 21 39  1  0
 23 40  1  0
 23 41  1  0
 24 42  1  0
 24 43  1  0
 24 44  1  0
M  CHG  1  15  -1
M  END
>  <UniqueID>  (23) 
23

>  <SMILES>  (23) 
CCOP(=O)(CCc1ccc2cc(C([NH-])=O)n(C=O)c2c1)OCC

>  <Energy>  (23) 
66.41919845244051

>  <Genealogy>  (23) 
CCOP(=O)(CCc1ccc2cc(C([NH-])=O)n(C=O)c2c1)OCC (protonated)
CCOP(=O)(CCc1ccc2cc(C([NH-])=O)n(C=O)c2c1)OCC (3D coordinates assigned)
CCOP(=O)(CCc1ccc2cc(C([NH-])=O)n(C=O)c2c1)OCC (optimized conformer: 66.41919845244051 kcal/mol)

>  <smiles>  (23) 
CCOP(=O)(CCc1ccc2cc(C(N)=O)n(C=O)c2c1)OCC

>  <score_type>  (23) 
oracle

>  <origin>  (23) 
adg

>  <m_score__min__energy>  (23) 
-10.24

>  <m_primary>  (23) 
energy

$$$$
23:0
     RDKit          3D

 35 37  0  0  0  0  0  0  0  0999 V2000
   -4.5970   14.9070  -32.3370 C   0  0  0  0  0  0  0  0  0  0  0  0
   -5.4510   14.3870  -33.3480 O   0  0  0  0  0  0  0  0  0  0  0  0
   -6.4190   15.1650  -33.9910 C   0  0  0  0  0  0  0  0  0  0  0  0
   -7.3970   14.6230  -34.5740 O   0  0  0  0  0  0  0  0  0  0  0  0
   -6.2930   16.6230  -33.9880 C   0  0  0  0  0  0  0  0  0  0  0  0
   -6.8810   17.4270  -33.0830 N   0  0  0  0  0  0  0  0  0  0  0  0
   -6.4710   18.6450  -33.5010 C   0  0  0  0  0  0  0  0  0  0  0  0
   -6.8440   19.9110  -32.8360 C   0  0  0  0  0  0  0  0  0  0  0  0
   -8.2090   20.2230  -32.6040 C   0  0  0  0  0  0  0  0  0  0  0  0
   -8.5740   21.4220  -31.9680 C   0  0  0  0  0  0  0  0  0  0  0  0
   -7.5590   22.2880  -31.5770 C   0  0  0  0  0  0  0  0  0  0  0  0
   -7.6280   23.5070  -30.9380 C   0  0  0  0  0  0  0  0  0  0  0  0
   -6.3060   23.9280  -30.8010 C   0  0  0  0  0  0  0  0  0  0  0  0
   -5.9020   25.2410  -30.2510 C   0  0  0  0  0  0  0  0  0  0  0  0
   -6.3250   25.6520  -28.9490 N   0  0  0  0  0  0  0  0  0  0  0  0
   -5.1920   26.0220  -30.9370 O   0  0  0  0  0  0  0  0  0  0  0  0
   -5.4560   23.0010  -31.3280 N   0  0  0  0  0  0  0  0  0  0  0  0
   -4.0200   23.0340  -31.3590 C   0  0  0  0  0  0  0  0  0  0  0  0
   -3.4080   22.5620  -32.3550 O   0  0  0  0  0  0  0  0  0  0  0  0
   -3.2510   23.5670  -30.2250 C   0  0  0  0  0  0  0  0  0  0  0  0
   -2.7350   22.7880  -29.3820 O   0  0  0  0  0  0  0  0  0  0  0  0
   -3.0750   24.9380  -30.0870 O   0  0  0  0  0  0  0  0  0  0  0  0
   -6.2380   22.0100  -31.8040 C   0  0  0  0  0  0  0  0  0  0  0  0
   -5.8420   20.8210  -32.4250 C   0  0  0  0  0  0  0  0  0  0  0  0
   -5.6840   18.5720  -34.5930 N   0  0  0  0  0  0  0  0  0  0  0  0
   -5.5990   17.3060  -34.8630 O   0  0  0  0  0  0  0  0  0  0  0  0
   -5.0066   14.6576  -31.3470 H   0  0  0  0  0  0  0  0  0  0  0  0
   -3.5948   14.4657  -32.4409 H   0  0  0  0  0  0  0  0  0  0  0  0
   -4.5290   16.0000  -32.4409 H   0  0  0  0  0  0  0  0  0  0  0  0
   -8.9901   19.5184  -32.9256 H   0  0  0  0  0  0  0  0  0  0  0  0
   -9.6305   21.6678  -31.7852 H   0  0  0  0  0  0  0  0  0  0  0  0
   -8.5339   24.0357  -30.6064 H   0  0  0  0  0  0  0  0  0  0  0  0
   -6.8600   25.0120  -28.3230 H   0  0  0  0  0  0  0  0  0  0  0  0
   -6.0630   26.5970  -28.5880 H   0  0  0  0  0  0  0  0  0  0  0  0
   -4.7773   20.5989  -32.5898 H   0  0  0  0  0  0  0  0  0  0  0  0
  1  2  1  0
  2  3  1  0
  3  4  2  0
  3  5  1  0
  5  6  2  0
  6  7  1  0
  7  8  1  0
  8  9  2  0
  9 10  1  0
 10 11  2  0
 11 12  1  0
 12 13  2  0
 13 14  1  0
 14 15  1  0
 14 16  2  0
 13 17  1  0
 17 18  1  0
 18 19  2  0
 18 20  1  0
 20 21  2  0
 20 22  1  0
 17 23  1  0
 23 24  2  0
  7 25  2  0
 25 26  1  0
 26  5  1  0
 24  8  1  0
 23 11  1  0
  1 27  1  0
  1 28  1  0
  1 29  1  0
  9 30  1  0
 10 31  1  0
 12 32  1  0
 15 33  1  0
 15 34  1  0
 24 35  1  0
M  CHG  1  22  -1
M  END
>  <UniqueID>  (24) 
24

>  <SMILES>  (24) 
COC(=O)c1nc(-c2ccc3cc(C(N)=O)n(C(=O)C(=O)[O-])c3c2)no1

>  <Energy>  (24) 
106.6011610004389

>  <Genealogy>  (24) 
COC(=O)c1nc(-c2ccc3cc(C(N)=O)n(C(=O)C(=O)[O-])c3c2)no1 (protonated)
COC(=O)c1nc(-c2ccc3cc(C(N)=O)n(C(=O)C(=O)[O-])c3c2)no1 (3D coordinates assigned)
COC(=O)c1nc(-c2ccc3cc(C(N)=O)n(C(=O)C(=O)[O-])c3c2)no1 (optimized conformer: 106.6011610004389 kcal/mol)

>  <smiles>  (24) 
COC(=O)c1nc(-c2ccc3cc(C(N)=O)n(C(=O)C(=O)O)c3c2)no1

>  <score_type>  (24) 
oracle

>  <origin>  (24) 
adg

>  <m_score__min__energy>  (24) 
-10.31

>  <m_primary>  (24) 
energy

$$$$
24:0
     RDKit          3D

 46 48  0  0  0  0  0  0  0  0999 V2000
   -1.8850   25.6270  -28.9590 N   0  0  0  0  0  0  0  0  0  0  0  0
   -1.1400   24.4290  -29.1690 C   0  0  0  0  0  0  0  0  0  0  0  0
   -0.0290   24.2860  -28.5960 O   0  0  0  0  0  0  0  0  0  0  0  0
   -1.6690   23.3830  -30.0700 C   0  0  0  0  0  0  0  0  0  0  0  0
   -0.9020   22.3340  -30.5720 C   0  0  0  0  0  0  0  0  0  0  0  0
   -1.7720   21.5680  -31.3150 C   0  0  0  0  0  0  0  0  0  0  0  0
   -1.5400   20.4120  -32.0530 C   0  0  0  0  0  0  0  0  0  0  0  0
   -2.6200   19.8490  -32.7510 C   0  0  0  0  0  0  0  0  0  0  0  0
   -3.9060   20.4500  -32.7080 C   0  0  0  0  0  0  0  0  0  0  0  0
   -5.0000   19.8860  -33.4590 N   0  0  0  0  0  0  0  0  0  0  0  0
   -5.6860   18.8160  -32.7120 C   0  0  0  0  0  0  0  0  0  0  0  0
   -6.9850   19.2920  -32.0290 C   0  0  0  0  0  0  0  0  0  0  0  0
   -7.6140   20.4010  -32.7830 N   0  0  0  0  0  0  0  0  0  0  0  0
   -9.0810   20.3710  -32.6700 C   0  0  0  0  0  0  0  0  0  0  0  0
   -9.4920   21.3070  -31.5400 C   0  0  0  0  0  0  0  0  0  0  0  0
   -8.2430   22.0860  -31.1780 C   0  0  0  0  0  0  0  0  0  0  0  0
   -7.2230   21.7090  -32.2370 C   0  0  0  0  0  0  0  0  0  0  0  0
   -4.0990   21.6260  -31.9460 C   0  0  0  0  0  0  0  0  0  0  0  0
   -3.0080   22.1540  -31.2460 C   0  0  0  0  0  0  0  0  0  0  0  0
   -2.9620   23.2670  -30.4820 N   0  0  0  0  0  0  0  0  0  0  0  0
   -4.0460   24.1720  -30.2110 C   0  0  0  0  0  0  0  0  0  0  0  0
   -4.2350   25.1600  -30.9700 O   0  0  0  0  0  0  0  0  0  0  0  0
   -4.9790   23.9500  -29.0580 C   0  0  0  0  0  0  0  0  0  0  0  0
   -4.4970   24.5950  -27.9120 O   0  0  0  0  0  0  0  0  0  0  0  0
   -2.8980   25.6800  -29.2070 H   0  0  0  0  0  0  0  0  0  0  0  0
    0.1712   22.1555  -30.4093 H   0  0  0  0  0  0  0  0  0  0  0  0
   -0.5409   19.9531  -32.0886 H   0  0  0  0  0  0  0  0  0  0  0  0
   -2.4684   18.9313  -33.3383 H   0  0  0  0  0  0  0  0  0  0  0  0
   -5.6840   20.6290  -33.7350 H   0  0  0  0  0  0  0  0  0  0  0  0
   -4.6230   19.4800  -34.3470 H   0  0  0  0  0  0  0  0  0  0  0  0
   -5.9354   18.0049  -33.4119 H   0  0  0  0  0  0  0  0  0  0  0  0
   -5.0024   18.4796  -31.9186 H   0  0  0  0  0  0  0  0  0  0  0  0
   -7.6907   18.4500  -31.9748 H   0  0  0  0  0  0  0  0  0  0  0  0
   -6.7346   19.6552  -31.0214 H   0  0  0  0  0  0  0  0  0  0  0  0
   -9.5339   20.7066  -33.6146 H   0  0  0  0  0  0  0  0  0  0  0  0
   -9.4244   19.3475  -32.4588 H   0  0  0  0  0  0  0  0  0  0  0  0
  -10.2857   21.9899  -31.8771 H   0  0  0  0  0  0  0  0  0  0  0  0
   -9.8888   20.7520  -30.6771 H   0  0  0  0  0  0  0  0  0  0  0  0
   -8.4420   23.1676  -31.2008 H   0  0  0  0  0  0  0  0  0  0  0  0
   -7.8900   21.8516  -30.1629 H   0  0  0  0  0  0  0  0  0  0  0  0
   -7.2168   22.4633  -33.0376 H   0  0  0  0  0  0  0  0  0  0  0  0
   -6.2137   21.6608  -31.8023 H   0  0  0  0  0  0  0  0  0  0  0  0
   -5.0838   22.1143  -31.9045 H   0  0  0  0  0  0  0  0  0  0  0  0
   -5.9709   24.3527  -29.3110 H   0  0  0  0  0  0  0  0  0  0  0  0
   -5.0505   22.8707  -28.8580 H   0  0  0  0  0  0  0  0  0  0  0  0
   -3.8830   25.3050  -28.2330 H   0  0  0  0  0  0  0  0  0  0  0  0
  1  2  1  0
  2  3  2  0
  2  4  1  0
  4  5  2  0
  5  6  1  0
  6  7  2  0
  7  8  1  0
  8  9  2  0
  9 10  1  0
 10 11  1  0
 11 12  1  0
 12 13  1  0
 13 14  1  0
 14 15  1  0
 15 16  1  0
 16 17  1  0
  9 18  1  0
 18 19  2  0
 19 20  1  0
 20 21  1  0
 21 22  2  0
 21 23  1  0
 23 24  1  0
 20  4  1  0
 19  6  1  0
 17 13  1  0
  1 25  1  0
  5 26  1  0
  7 27  1  0
  8 28  1  0
 10 29  1  0
 10 30  1  0
 11 31  1  0
 11 32  1  0
 12 33  1  0
 12 34  1  0
 14 35  1  0
 14 36  1  0
 15 37  1  0
 15 38  1  0
 16 39  1  0
 16 40  1  0
 17 41  1  0
 17 42  1  0
 18 43  1  0
 23 44  1  0
 23 45  1  0
 24 46  1  0
M  CHG  2   1  -1  10   1
M  END
>  <UniqueID>  (25) 
25

>  <SMILES>  (25) 
[NH-]C(=O)c1cc2ccc([NH2+]CCN3CCCC3)cc2n1C(=O)CO

>  <Energy>  (25) 
88.42945751287591

>  <Genealogy>  (25) 
[NH-]C(=O)c1cc2ccc([NH2+]CCN3CCCC3)cc2n1C(=O)CO (protonated)
[NH-]C(=O)c1cc2ccc([NH2+]CCN3CCCC3)cc2n1C(=O)CO (3D coordinates assigned)
[NH-]C(=O)c1cc2ccc([NH2+]CCN3CCCC3)cc2n1C(=O)CO (nonaromatic ring conformer: 88.42945751287591 kcal/mol)

>  <smiles>  (25) 
NC(=O)c1cc2ccc(NCCN3CCCC3)cc2n1C(=O)CO

>  <score_type>  (25) 
oracle

>  <origin>  (25) 
adg

>  <m_score__min__energy>  (25) 
-9.6199999999999992

>  <m_primary>  (25) 
energy

$$$$
25:0
     RDKit          3D

 40 42  0  0  0  0  0  0  0  0999 V2000
   -3.1130   20.0390  -32.3570 C   0  0  0  0  0  0  0  0  0  0  0  0
   -2.7180   21.1390  -33.3370 C   0  0  1  0  0  0  0  0  0  0  0  0
   -3.5140   22.2980  -33.0890 O   0  0  0  0  0  0  0  0  0  0  0  0
   -3.9400   22.6830  -31.8120 C   0  0  0  0  0  0  0  0  0  0  0  0
   -3.1090   22.7830  -30.8690 O   0  0  0  0  0  0  0  0  0  0  0  0
   -5.3240   23.0000  -31.5860 N   0  0  0  0  0  0  0  0  0  0  0  0
   -5.8370   24.1110  -30.9870 C   0  0  0  0  0  0  0  0  0  0  0  0
   -5.0810   25.3210  -30.6050 C   0  0  0  0  0  0  0  0  0  0  0  0
   -3.6650   25.2800  -30.4530 N   0  0  0  0  0  0  0  0  0  0  0  0
   -5.6850   26.4160  -30.4620 O   0  0  0  0  0  0  0  0  0  0  0  0
   -7.2180   23.9980  -30.8450 C   0  0  0  0  0  0  0  0  0  0  0  0
   -7.5400   22.7760  -31.3860 C   0  0  0  0  0  0  0  0  0  0  0  0
   -8.7740   22.1430  -31.4900 C   0  0  0  0  0  0  0  0  0  0  0  0
   -8.8130   20.8600  -32.0610 C   0  0  0  0  0  0  0  0  0  0  0  0
   -7.6240   20.2320  -32.5230 C   0  0  0  0  0  0  0  0  0  0  0  0
   -7.6160   18.8980  -33.0770 N   0  0  0  0  0  0  0  0  0  0  0  0
   -6.5690   17.8670  -32.9650 C   0  0  0  0  0  0  0  0  0  0  0  0
   -6.8580   16.6080  -33.7390 C   0  0  0  0  0  0  0  0  0  0  0  0
   -5.7610   16.8130  -34.6020 O   0  0  0  0  0  0  0  0  0  0  0  0
   -5.4030   17.9930  -33.9170 C   0  0  0  0  0  0  0  0  0  0  0  0
   -6.3900   20.9060  -32.3780 C   0  0  0  0  0  0  0  0  0  0  0  0
   -6.3830   22.1910  -31.8240 C   0  0  0  0  0  0  0  0  0  0  0  0
   -1.2580   21.4600  -33.1930 C   0  0  0  0  0  0  0  0  0  0  0  0
   -0.6740   21.3020  -32.0890 O   0  0  0  0  0  0  0  0  0  0  0  0
   -0.5350   21.9090  -34.2920 O   0  0  0  0  0  0  0  0  0  0  0  0
   -2.9828   20.4017  -31.3267 H   0  0  0  0  0  0  0  0  0  0  0  0
   -4.1659   19.7645  -32.5188 H   0  0  0  0  0  0  0  0  0  0  0  0
   -2.4753   19.1575  -32.5188 H   0  0  0  0  0  0  0  0  0  0  0  0
   -2.8938   20.7953  -34.3670 H   0  0  0  0  0  0  0  0  0  0  0  0
   -3.0520   24.9240  -31.2200 H   0  0  0  0  0  0  0  0  0  0  0  0
   -7.9047   24.7305  -30.3957 H   0  0  0  0  0  0  0  0  0  0  0  0
   -9.6929   22.6328  -31.1354 H   0  0  0  0  0  0  0  0  0  0  0  0
   -9.7753   20.3348  -32.1518 H   0  0  0  0  0  0  0  0  0  0  0  0
   -8.5310   18.5430  -33.4400 H   0  0  0  0  0  0  0  0  0  0  0  0
   -6.4522   17.9145  -31.8723 H   0  0  0  0  0  0  0  0  0  0  0  0
   -6.7763   15.6925  -33.1347 H   0  0  0  0  0  0  0  0  0  0  0  0
   -7.8590   16.4650  -34.1721 H   0  0  0  0  0  0  0  0  0  0  0  0
   -4.4225   17.9340  -33.4219 H   0  0  0  0  0  0  0  0  0  0  0  0
   -5.2744   18.9253  -34.4865 H   0  0  0  0  0  0  0  0  0  0  0  0
   -5.4512   20.4285  -32.6952 H   0  0  0  0  0  0  0  0  0  0  0  0
  1  2  1  0
  2  3  1  0
  3  4  1  0
  4  5  2  0
  4  6  1  0
  6  7  1  0
  7  8  1  0
  8  9  1  0
  8 10  2  0
  7 11  2  0
 11 12  1  0
 12 13  2  0
 13 14  1  0
 14 15  2  0
 15 16  1  0
 16 17  1  0
 17 18  1  0
 18 19  1  0
 19 20  1  0
 15 21  1  0
 21 22  2  0
  2 23  1  0
 23 24  2  0
 23 25  1  0
 22  6  1  0
 22 12  1  0
 20 17  1  0
  1 26  1  0
  1 27  1  0
  1 28  1  0
  2 29  1  6
  9 30  1  0
 11 31  1  0
 13 32  1  0
 14 33  1  0
 16 34  1  0
 17 35  1  0
 18 36  1  0
 18 37  1  0
 20 38  1  0
 20 39  1  0
 21 40  1  0
M  CHG  2   9  -1  25  -1
M  END
>  <UniqueID>  (26) 
26

>  <SMILES>  (26) 
C[C@@H](OC(=O)n1c(C([NH-])=O)cc2ccc(NC3COC3)cc21)C(=O)[O-]

>  <Energy>  (26) 
147.17956202331564

>  <Genealogy>  (26) 
CC(OC(=O)n1c(C([NH-])=O)cc2ccc(NC3COC3)cc21)C(=O)[O-] (protonated)
C[C@@H](OC(=O)n1c(C([NH-])=O)cc2ccc(NC3COC3)cc21)C(=O)[O-] (chirality)
C[C@@H](OC(=O)n1c(C([NH-])=O)cc2ccc(NC3COC3)cc21)C(=O)[O-] (3D coordinates assigned)
C[C@@H](OC(=O)n1c(C([NH-])=O)cc2ccc(NC3COC3)cc21)C(=O)[O-] (nonaromatic ring conformer: 147.17956202331564 kcal/mol)

>  <smiles>  (26) 
CC(OC(=O)n1c(C(N)=O)cc2ccc(NC3COC3)cc21)C(=O)O

>  <score_type>  (26) 
oracle

>  <origin>  (26) 
adg

>  <m_score__min__energy>  (26) 
-12.74

>  <m_primary>  (26) 
energy

$$$$
26:0
     RDKit          3D

 46 47  0  0  0  0  0  0  0  0999 V2000
   -4.1250   19.0040  -33.5800 C   0  0  0  0  0  0  0  0  0  0  0  0
   -5.5050   18.5040  -33.7180 N   0  0  0  0  0  0  0  0  0  0  0  0
   -5.6570   17.8270  -35.0140 C   0  0  0  0  0  0  0  0  0  0  0  0
   -5.8530   17.5920  -32.6070 C   0  0  0  0  0  0  0  0  0  0  0  0
   -7.3120   17.7850  -32.1700 C   0  0  0  0  0  0  0  0  0  0  0  0
   -7.9050   18.9520  -32.8270 N   0  0  0  0  0  0  0  0  0  0  0  0
   -7.8160   20.3040  -32.3400 C   0  0  0  0  0  0  0  0  0  0  0  0
   -9.0120   21.0170  -32.0730 C   0  0  0  0  0  0  0  0  0  0  0  0
   -8.9750   22.3350  -31.5890 C   0  0  0  0  0  0  0  0  0  0  0  0
   -7.7290   22.9170  -31.3820 C   0  0  0  0  0  0  0  0  0  0  0  0
   -7.4050   24.1630  -30.8950 C   0  0  0  0  0  0  0  0  0  0  0  0
   -6.0120   24.2020  -30.8810 C   0  0  0  0  0  0  0  0  0  0  0  0
   -5.2360   25.4000  -30.5020 C   0  0  0  0  0  0  0  0  0  0  0  0
   -3.8850   25.5650  -30.9250 N   0  0  0  0  0  0  0  0  0  0  0  0
   -5.7870   26.3150  -29.8330 O   0  0  0  0  0  0  0  0  0  0  0  0
   -5.4960   23.0250  -31.3330 N   0  0  0  0  0  0  0  0  0  0  0  0
   -4.1160   22.6330  -31.3840 C   0  0  0  0  0  0  0  0  0  0  0  0
   -3.5750   22.3860  -32.4970 O   0  0  0  0  0  0  0  0  0  0  0  0
   -3.3850   22.5100  -30.1980 O   0  0  0  0  0  0  0  0  0  0  0  0
   -2.0830   23.0640  -30.0160 C   0  0  0  0  0  0  0  0  0  0  0  0
   -1.9580   23.6940  -28.6280 C   0  0  0  0  0  0  0  0  0  0  0  0
   -1.0850   24.9060  -28.6790 C   0  0  0  0  0  0  0  0  0  0  0  0
   -1.5760   26.0280  -28.9730 O   0  0  0  0  0  0  0  0  0  0  0  0
    0.2620   24.8090  -28.3540 O   0  0  0  0  0  0  0  0  0  0  0  0
   -6.5610   22.2490  -31.6370 C   0  0  0  0  0  0  0  0  0  0  0  0
   -6.5680   20.9270  -32.0970 C   0  0  0  0  0  0  0  0  0  0  0  0
   -3.8731   19.0953  -32.5131 H   0  0  0  0  0  0  0  0  0  0  0  0
   -3.4302   18.3005  -34.0619 H   0  0  0  0  0  0  0  0  0  0  0  0
   -4.0421   19.9893  -34.0619 H   0  0  0  0  0  0  0  0  0  0  0  0
   -5.8952   16.7660  -34.8478 H   0  0  0  0  0  0  0  0  0  0  0  0
   -6.4711   18.3009  -35.5820 H   0  0  0  0  0  0  0  0  0  0  0  0
   -4.7184   17.9074  -35.5820 H   0  0  0  0  0  0  0  0  0  0  0  0
   -5.7115   16.5525  -32.9378 H   0  0  0  0  0  0  0  0  0  0  0  0
   -5.1993   17.8179  -31.7517 H   0  0  0  0  0  0  0  0  0  0  0  0
   -7.8899   16.8883  -32.4385 H   0  0  0  0  0  0  0  0  0  0  0  0
   -7.3344   17.9454  -31.0820 H   0  0  0  0  0  0  0  0  0  0  0  0
   -8.3550   18.7920  -33.7570 H   0  0  0  0  0  0  0  0  0  0  0  0
   -9.9832   20.5308  -32.2475 H   0  0  0  0  0  0  0  0  0  0  0  0
   -9.9020   22.8892  -31.3803 H   0  0  0  0  0  0  0  0  0  0  0  0
   -8.0979   24.9584  -30.5833 H   0  0  0  0  0  0  0  0  0  0  0  0
   -3.0910   25.2850  -30.3080 H   0  0  0  0  0  0  0  0  0  0  0  0
   -1.3325   22.2666  -30.1205 H   0  0  0  0  0  0  0  0  0  0  0  0
   -1.9181   23.8420  -30.7759 H   0  0  0  0  0  0  0  0  0  0  0  0
   -2.9574   23.9827  -28.2704 H   0  0  0  0  0  0  0  0  0  0  0  0
   -1.5073   22.9600  -27.9438 H   0  0  0  0  0  0  0  0  0  0  0  0
   -5.6259   20.3848  -32.2658 H   0  0  0  0  0  0  0  0  0  0  0  0
  1  2  1  0
  2  3  1  0
  2  4  1  0
  4  5  1  0
  5  6  1  0
  6  7  1  0
  7  8  2  0
  8  9  1  0
  9 10  2  0
 10 11  1  0
 11 12  2  0
 12 13  1  0
 13 14  1  0
 13 15  2  0
 12 16  1  0
 16 17  1  0
 17 18  2  0
 17 19  1  0
 19 20  1  0
 20 21  1  0
 21 22  1  0
 22 23  2  0
 22 24  1  0
 16 25  1  0
 25 26  2  0
 26  7  1  0
 25 10  1  0
  1 27  1  0
  1 28  1  0
  1 29  1  0
  3 30  1  0
  3 31  1  0
  3 32  1  0
  4 33  1  0
  4 34  1  0
  5 35  1  0
  5 36  1  0
  6 37  1  0
  8 38  1  0
  9 39  1  0
 11 40  1  0
 14 41  1  0
 20 42  1  0
 20 43  1  0
 21 44  1  0
 21 45  1  0
 26 46  1  0
M  CHG  2  14  -1  24  -1
M  END
>  <UniqueID>  (27) 
27

>  <SMILES>  (27) 
CN(C)CCNc1ccc2cc(C([NH-])=O)n(C(=O)OCCC(=O)[O-])c2c1

>  <Energy>  (27) 
78.77536276391565

>  <Genealogy>  (27) 
CN(C)CCNc1ccc2cc(C([NH-])=O)n(C(=O)OCCC(=O)[O-])c2c1 (protonated)
CN(C)CCNc1ccc2cc(C([NH-])=O)n(C(=O)OCCC(=O)[O-])c2c1 (3D coordinates assigned)
CN(C)CCNc1ccc2cc(C([NH-])=O)n(C(=O)OCCC(=O)[O-])c2c1 (optimized conformer: 78.77536276391565 kcal/mol)

>  <smiles>  (27) 
CN(C)CCNc1ccc2cc(C(N)=O)n(C(=O)OCCC(=O)O)c2c1

>  <score_type>  (27) 
oracle

>  <origin>  (27) 
adg

>  <m_score__min__energy>  (27) 
-12.66

>  <m_primary>  (27) 
energy

$$$$
27:0
     RDKit          3D

 32 33  0  0  0  0  0  0  0  0999 V2000
   -5.3250   24.5570  -28.9200 N   0  0  0  0  0  0  0  0  0  0  0  0
   -6.2960   24.2400  -29.9180 C   0  0  0  0  0  0  0  0  0  0  0  0
   -7.2490   25.0380  -30.1250 O   0  0  0  0  0  0  0  0  0  0  0  0
   -6.1760   23.0230  -30.7490 C   0  0  0  0  0  0  0  0  0  0  0  0
   -7.1940   22.5530  -31.5720 C   0  0  0  0  0  0  0  0  0  0  0  0
   -6.6770   21.4340  -32.1850 C   0  0  0  0  0  0  0  0  0  0  0  0
   -7.2610   20.5680  -33.1040 C   0  0  0  0  0  0  0  0  0  0  0  0
   -6.5050   19.4690  -33.5470 C   0  0  0  0  0  0  0  0  0  0  0  0
   -5.1990   19.2370  -33.0440 C   0  0  0  0  0  0  0  0  0  0  0  0
   -4.3810   18.0780  -33.5530 C   0  0  0  0  0  0  0  0  0  0  0  0
   -4.7110   17.7810  -34.8640 F   0  0  0  0  0  0  0  0  0  0  0  0
   -4.6070   16.9480  -32.7840 F   0  0  0  0  0  0  0  0  0  0  0  0
   -3.0400   18.4060  -33.4880 F   0  0  0  0  0  0  0  0  0  0  0  0
   -4.6350   20.1500  -32.1220 C   0  0  0  0  0  0  0  0  0  0  0  0
   -5.3990   21.2520  -31.7200 C   0  0  0  0  0  0  0  0  0  0  0  0
   -5.0750   22.2270  -30.8390 N   0  0  0  0  0  0  0  0  0  0  0  0
   -3.8710   22.3270  -30.0570 C   0  0  0  0  0  0  0  0  0  0  0  0
   -3.9090   22.0660  -28.8240 O   0  0  0  0  0  0  0  0  0  0  0  0
   -2.5660   22.7380  -30.6720 C   0  0  0  0  0  0  0  0  0  0  0  0
   -1.7590   23.3630  -29.7020 O   0  0  0  0  0  0  0  0  0  0  0  0
   -2.4370   24.8820  -29.3300 P   0  0  0  0  0  0  0  0  0  0  0  0
   -3.0780   24.8380  -27.9610 O   0  0  0  0  0  0  0  0  0  0  0  0
   -3.5980   25.3090  -30.4860 O   0  0  0  0  0  0  0  0  0  0  0  0
   -1.2100   26.0450  -29.3270 O   0  0  0  0  0  0  0  0  0  0  0  0
   -4.4270   24.0290  -28.8510 H   0  0  0  0  0  0  0  0  0  0  0  0
   -5.4580   25.3930  -28.3090 H   0  0  0  0  0  0  0  0  0  0  0  0
   -8.1976   22.9834  -31.7047 H   0  0  0  0  0  0  0  0  0  0  0  0
   -8.2833   20.7382  -33.4727 H   0  0  0  0  0  0  0  0  0  0  0  0
   -6.9309   18.7810  -34.2922 H   0  0  0  0  0  0  0  0  0  0  0  0
   -3.6187   19.9973  -31.7298 H   0  0  0  0  0  0  0  0  0  0  0  0
   -2.0484   21.8482  -31.0598 H   0  0  0  0  0  0  0  0  0  0  0  0
   -2.7574   23.4425  -31.4948 H   0  0  0  0  0  0  0  0  0  0  0  0
  1  2  1  0
  2  3  2  0
  2  4  1  0
  4  5  2  0
  5  6  1  0
  6  7  2  0
  7  8  1  0
  8  9  2  0
  9 10  1  0
 10 11  1  0
 10 12  1  0
 10 13  1  0
  9 14  1  0
 14 15  2  0
 15 16  1  0
 16 17  1  0
 17 18  2  0
 17 19  1  0
 19 20  1  0
 20 21  1  0
 21 22  2  0
 21 23  1  0
 21 24  1  0
 16  4  1  0
 15  6  1  0
  1 25  1  0
  1 26  1  0
  5 27  1  0
  7 28  1  0
  8 29  1  0
 14 30  1  0
 19 31  1  0
 19 32  1  0
M  CHG  2  23  -1  24  -1
M  END
>  <UniqueID>  (28) 
28

>  <SMILES>  (28) 
NC(=O)c1cc2ccc(C(F)(F)F)cc2n1C(=O)COP(=O)([O-])[O-]

>  <Energy>  (28) 
71.14988995645764

>  <Genealogy>  (28) 
NC(=O)c1cc2ccc(C(F)(F)F)cc2n1C(=O)COP(=O)([O-])[O-] (protonated)
NC(=O)c1cc2ccc(C(F)(F)F)cc2n1C(=O)COP(=O)([O-])[O-] (3D coordinates assigned)
NC(=O)c1cc2ccc(C(F)(F)F)cc2n1C(=O)COP(=O)([O-])[O-] (optimized conformer: 71.14988995645764 kcal/mol)

>  <smiles>  (28) 
NC(=O)c1cc2ccc(C(F)(F)F)cc2n1C(=O)COP(=O)(O)O

>  <score_type>  (28) 
oracle

>  <origin>  (28) 
adg

>  <m_score__min__energy>  (28) 
-12.44

>  <m_primary>  (28) 
energy

$$$$
28:0
     RDKit          3D

 31 32  0  0  0  0  0  0  0  0999 V2000
   -2.1710   24.2960  -28.2500 C   0  0  0  0  0  0  0  0  0  0  0  0
   -2.4700   23.9440  -29.5960 O   0  0  0  0  0  0  0  0  0  0  0  0
   -3.1540   22.7720  -29.9330 C   0  0  0  0  0  0  0  0  0  0  0  0
   -3.1930   21.8000  -29.1310 O   0  0  0  0  0  0  0  0  0  0  0  0
   -3.8140   22.6710  -31.2430 C   0  0  0  0  0  0  0  0  0  0  0  0
   -3.1170   22.4740  -32.2740 O   0  0  0  0  0  0  0  0  0  0  0  0
   -5.2430   22.7620  -31.3600 N   0  0  0  0  0  0  0  0  0  0  0  0
   -6.0370   23.7980  -30.9700 C   0  0  0  0  0  0  0  0  0  0  0  0
   -5.5660   25.1090  -30.4790 C   0  0  0  0  0  0  0  0  0  0  0  0
   -4.2020   25.5120  -30.6190 N   0  0  0  0  0  0  0  0  0  0  0  0
   -6.3920   25.9080  -29.9620 O   0  0  0  0  0  0  0  0  0  0  0  0
   -7.3810   23.4610  -31.1000 C   0  0  0  0  0  0  0  0  0  0  0  0
   -7.3870   22.1730  -31.5870 C   0  0  0  0  0  0  0  0  0  0  0  0
   -8.4560   21.3340  -31.8850 C   0  0  0  0  0  0  0  0  0  0  0  0
   -8.1680   20.0320  -32.3270 C   0  0  0  0  0  0  0  0  0  0  0  0
   -6.8260   19.5810  -32.4330 C   0  0  0  0  0  0  0  0  0  0  0  0
   -6.5290   18.1930  -32.9390 C   0  0  0  0  0  0  0  0  0  0  0  0
   -7.6160   17.3570  -32.7440 F   0  0  0  0  0  0  0  0  0  0  0  0
   -6.2390   18.2180  -34.2920 F   0  0  0  0  0  0  0  0  0  0  0  0
   -5.4410   17.6830  -32.2540 F   0  0  0  0  0  0  0  0  0  0  0  0
   -5.7670   20.4720  -32.1370 C   0  0  0  0  0  0  0  0  0  0  0  0
   -6.0850   21.7710  -31.7260 C   0  0  0  0  0  0  0  0  0  0  0  0
   -2.7290   23.6391  -27.5666 H   0  0  0  0  0  0  0  0  0  0  0  0
   -1.0919   24.1791  -28.0715 H   0  0  0  0  0  0  0  0  0  0  0  0
   -2.4609   25.3420  -28.0715 H   0  0  0  0  0  0  0  0  0  0  0  0
   -3.5350   24.9700  -31.2100 H   0  0  0  0  0  0  0  0  0  0  0  0
   -3.8800   26.4180  -30.2120 H   0  0  0  0  0  0  0  0  0  0  0  0
   -8.2525   24.0894  -30.8641 H   0  0  0  0  0  0  0  0  0  0  0  0
   -9.4948   21.6795  -31.7778 H   0  0  0  0  0  0  0  0  0  0  0  0
   -8.9920   19.3540  -32.5941 H   0  0  0  0  0  0  0  0  0  0  0  0
   -4.7189   20.1509  -32.2279 H   0  0  0  0  0  0  0  0  0  0  0  0
  1  2  1  0
  2  3  1  0
  3  4  2  0
  3  5  1  0
  5  6  2  0
  5  7  1  0
  7  8  1  0
  8  9  1  0
  9 10  1  0
  9 11  2  0
  8 12  2  0
 12 13  1  0
 13 14  2  0
 14 15  1  0
 15 16  2  0
 16 17  1  0
 17 18  1  0
 17 19  1  0
 17 20  1  0
 16 21  1  0
 21 22  2  0
 22  7  1  0
 22 13  1  0
  1 23  1  0
  1 24  1  0
  1 25  1  0
 10 26  1  0
 10 27  1  0
 12 28  1  0
 14 29  1  0
 15 30  1  0
 21 31  1  0
M  END
>  <UniqueID>  (29) 
29

>  <SMILES>  (29) 
COC(=O)C(=O)n1c(C(N)=O)cc2ccc(C(F)(F)F)cc21

>  <Energy>  (29) 
69.70167444107216

>  <Genealogy>  (29) 
COC(=O)C(=O)n1c(C(N)=O)cc2ccc(C(F)(F)F)cc21 (3D coordinates assigned)
COC(=O)C(=O)n1c(C(N)=O)cc2ccc(C(F)(F)F)cc21 (optimized conformer: 69.70167444107216 kcal/mol)

>  <smiles>  (29) 
COC(=O)C(=O)n1c(C(N)=O)cc2ccc(C(F)(F)F)cc21

>  <score_type>  (29) 
oracle

>  <origin>  (29) 
adg

>  <m_score__min__energy>  (29) 
-7.5700000000000003

>  <m_primary>  (29) 
energy

$$$$
29:0
     RDKit          3D

 54 56  0  0  0  0  0  0  0  0999 V2000
   -2.3580   15.2190  -34.3090 C   0  0  0  0  0  0  0  0  0  0  0  0
   -3.6210   15.6520  -35.0580 C   0  0  1  0  0  0  0  0  0  0  0  0
   -4.6030   14.6580  -34.9330 O   0  0  0  0  0  0  0  0  0  0  0  0
   -4.1410   16.9650  -34.5230 C   0  0  0  0  0  0  0  0  0  0  0  0
   -3.4270   17.9570  -34.6070 O   0  0  0  0  0  0  0  0  0  0  0  0
   -5.4340   17.0500  -33.8660 N   0  0  1  0  0  0  0  0  0  0  0  0
   -5.3360   16.7990  -32.4260 C   0  0  0  0  0  0  0  0  0  0  0  0
   -6.5740   17.4290  -31.8010 C   0  0  0  0  0  0  0  0  0  0  0  0
   -7.0290   18.4860  -32.8180 C   0  0  1  0  0  0  0  0  0  0  0  0
   -7.1120   19.9060  -32.2870 C   0  0  0  0  0  0  0  0  0  0  0  0
   -8.3730   20.5520  -32.2830 C   0  0  0  0  0  0  0  0  0  0  0  0
   -8.4930   21.8980  -31.9150 C   0  0  0  0  0  0  0  0  0  0  0  0
   -7.3390   22.5770  -31.5430 C   0  0  0  0  0  0  0  0  0  0  0  0
   -7.1830   23.8840  -31.1660 C   0  0  0  0  0  0  0  0  0  0  0  0
   -5.8260   24.0330  -30.9110 C   0  0  0  0  0  0  0  0  0  0  0  0
   -5.2370   25.3180  -30.4920 C   0  0  0  0  0  0  0  0  0  0  0  0
   -3.9020   25.6610  -30.8530 N   0  0  0  0  0  0  0  0  0  0  0  0
   -5.9450   26.1510  -29.8610 O   0  0  0  0  0  0  0  0  0  0  0  0
   -5.1570   22.8560  -31.0990 N   0  0  0  0  0  0  0  0  0  0  0  0
   -3.8150   22.5460  -30.6610 C   0  0  0  0  0  0  0  0  0  0  0  0
   -2.8230   23.0490  -31.2460 O   0  0  0  0  0  0  0  0  0  0  0  0
   -3.6050   21.6030  -29.6530 O   0  0  0  0  0  0  0  0  0  0  0  0
   -3.2460   21.9550  -28.3220 C   0  0  0  0  0  0  0  0  0  0  0  0
   -4.1090   23.1330  -27.8500 C   0  0  0  0  0  0  0  0  0  0  0  0
   -3.2790   24.2730  -27.2400 C   0  0  0  0  0  0  0  0  0  0  0  0
   -2.3320   24.8370  -28.2100 C   0  0  0  0  0  0  0  0  0  0  0  0
   -1.5810   25.2970  -28.9600 N   0  0  0  0  0  0  0  0  0  0  0  0
   -6.1050   21.9780  -31.5200 C   0  0  0  0  0  0  0  0  0  0  0  0
   -5.9530   20.6400  -31.9240 C   0  0  0  0  0  0  0  0  0  0  0  0
   -6.0450   18.3770  -33.9850 C   0  0  0  0  0  0  0  0  0  0  0  0
   -2.5355   15.2798  -33.2251 H   0  0  0  0  0  0  0  0  0  0  0  0
   -2.1068   14.1834  -34.5818 H   0  0  0  0  0  0  0  0  0  0  0  0
   -1.5242   15.8826  -34.5818 H   0  0  0  0  0  0  0  0  0  0  0  0
   -3.3712   15.7909  -36.1202 H   0  0  0  0  0  0  0  0  0  0  0  0
   -4.3050   13.8910  -35.4940 H   0  0  0  0  0  0  0  0  0  0  0  0
   -6.0920   16.3450  -34.2810 H   0  0  0  0  0  0  0  0  0  0  0  0
   -5.3169   15.7172  -32.2277 H   0  0  0  0  0  0  0  0  0  0  0  0
   -4.4131   17.2255  -32.0061 H   0  0  0  0  0  0  0  0  0  0  0  0
   -7.3590   16.6736  -31.6491 H   0  0  0  0  0  0  0  0  0  0  0  0
   -6.3655   17.8648  -30.8128 H   0  0  0  0  0  0  0  0  0  0  0  0
   -8.0689   18.2794  -33.1112 H   0  0  0  0  0  0  0  0  0  0  0  0
   -9.2715   19.9877  -32.5734 H   0  0  0  0  0  0  0  0  0  0  0  0
   -9.4706   22.4022  -31.9203 H   0  0  0  0  0  0  0  0  0  0  0  0
   -7.9658   24.6523  -31.0828 H   0  0  0  0  0  0  0  0  0  0  0  0
   -3.0970   25.0950  -30.5020 H   0  0  0  0  0  0  0  0  0  0  0  0
   -3.4092   21.0928  -27.6587 H   0  0  0  0  0  0  0  0  0  0  0  0
   -2.1854   22.2453  -28.2946 H   0  0  0  0  0  0  0  0  0  0  0  0
   -4.6672   23.5271  -28.7120 H   0  0  0  0  0  0  0  0  0  0  0  0
   -4.7818   22.7568  -27.0652 H   0  0  0  0  0  0  0  0  0  0  0  0
   -3.9600   25.0685  -26.9032 H   0  0  0  0  0  0  0  0  0  0  0  0
   -2.7024   23.8634  -26.3975 H   0  0  0  0  0  0  0  0  0  0  0  0
   -4.9579   20.1725  -31.9580 H   0  0  0  0  0  0  0  0  0  0  0  0
   -6.5756   18.4703  -34.9440 H   0  0  0  0  0  0  0  0  0  0  0  0
   -5.2895   19.1760  -33.9550 H   0  0  0  0  0  0  0  0  0  0  0  0
  1  2  1  0
  2  3  1  0
  2  4  1  0
  4  5  2  0
  4  6  1  0
  6  7  1  0
  7  8  1  0
  8  9  1  0
  9 10  1  0
 10 11  2  0
 11 12  1  0
 12 13  2  0
 13 14  1  0
 14 15  2  0
 15 16  1  0
 16 17  1  0
 16 18  2  0
 15 19  1  0
 19 20  1  0
 20 21  2  0
 20 22  1  0
 22 23  1  0
 23 24  1  0
 24 25  1  0
 25 26  1  0
 26 27  3  0
 19 28  1  0
 28 29  2  0
  9 30  1  0
 30  6  1  0
 29 10  1  0
 28 13  1  0
  1 31  1  0
  1 32  1  0
  1 33  1  0
  2 34  1  6
  3 35  1  0
  6 36  1  6
  7 37  1  0
  7 38  1  0
  8 39  1  0
  8 40  1  0
  9 41  1  6
 11 42  1  0
 12 43  1  0
 14 44  1  0
 17 45  1  0
 23 46  1  0
 23 47  1  0
 24 48  1  0
 24 49  1  0
 25 50  1  0
 25 51  1  0
 29 52  1  0
 30 53  1  0
 30 54  1  0
M  CHG  2   6   1  17  -1
M  END
>  <UniqueID>  (30) 
30

>  <SMILES>  (30) 
C[C@@H](O)C(=O)[N@H+]1CC[C@@H](c2ccc3cc(C([NH-])=O)n(C(=O)OCCCC#N)c3c2)C1

>  <Energy>  (30) 
94.47305122356492

>  <Genealogy>  (30) 
C[C@@H](O)C(=O)[NH+]1CCC(c2ccc3cc(C([NH-])=O)n(C(=O)OCCCC#N)c3c2)C1 (protonated)
C[C@@H](O)C(=O)[N@H+]1CC[C@@H](c2ccc3cc(C([NH-])=O)n(C(=O)OCCCC#N)c3c2)C1 (chirality)
C[C@@H](O)C(=O)[N@H+]1CC[C@@H](c2ccc3cc(C([NH-])=O)n(C(=O)OCCCC#N)c3c2)C1 (3D coordinates assigned)
C[C@@H](O)C(=O)[N@H+]1CC[C@@H](c2ccc3cc(C([NH-])=O)n(C(=O)OCCCC#N)c3c2)C1 (nonaromatic ring conformer: 94.47305122356492 kcal/mol)

>  <smiles>  (30) 
C[C@@H](O)C(=O)N1CCC(c2ccc3cc(C(N)=O)n(C(=O)OCCCC#N)c3c2)C1

>  <score_type>  (30) 
oracle

>  <origin>  (30) 
adg

>  <m_score__min__energy>  (30) 
-10.92

>  <m_primary>  (30) 
energy

$$$$
30:0
     RDKit          3D

 37 38  0  0  0  0  0  0  0  0999 V2000
   -7.6730   23.4040  -31.6560 C   0  0  0  0  0  0  0  0  0  0  0  0
   -8.3420   22.3310  -32.3080 O   0  0  0  0  0  0  0  0  0  0  0  0
   -8.6190   21.1190  -31.6690 C   0  0  0  0  0  0  0  0  0  0  0  0
   -9.0510   21.1000  -30.4840 O   0  0  0  0  0  0  0  0  0  0  0  0
   -8.4500   19.8380  -32.4190 C   0  0  0  0  0  0  0  0  0  0  0  0
   -7.0110   19.6660  -32.8210 C   0  0  0  0  0  0  0  0  0  0  0  0
   -6.6000   18.4970  -33.5100 C   0  0  0  0  0  0  0  0  0  0  0  0
   -5.2560   18.3150  -33.8730 C   0  0  0  0  0  0  0  0  0  0  0  0
   -4.3450   19.3070  -33.5190 C   0  0  0  0  0  0  0  0  0  0  0  0
   -2.9940   19.3950  -33.7620 C   0  0  0  0  0  0  0  0  0  0  0  0
   -2.5910   20.5970  -33.1840 C   0  0  0  0  0  0  0  0  0  0  0  0
   -1.1840   21.0450  -33.1360 C   0  0  0  0  0  0  0  0  0  0  0  0
   -0.5710   21.6650  -34.2630 N   0  0  0  0  0  0  0  0  0  0  0  0
   -0.5280   20.9230  -32.0670 O   0  0  0  0  0  0  0  0  0  0  0  0
   -3.6550   21.2330  -32.6160 N   0  0  0  0  0  0  0  0  0  0  0  0
   -3.6790   22.5260  -31.9910 C   0  0  0  0  0  0  0  0  0  0  0  0
   -4.7180   23.2370  -32.0580 O   0  0  0  0  0  0  0  0  0  0  0  0
   -2.5580   22.9740  -31.2820 O   0  0  0  0  0  0  0  0  0  0  0  0
   -2.5120   23.0750  -29.8620 C   0  0  0  0  0  0  0  0  0  0  0  0
   -2.8420   24.7860  -29.3370 P   0  0  0  0  0  0  0  0  0  0  0  0
   -3.5140   24.7790  -27.9830 O   0  0  0  0  0  0  0  0  0  0  0  0
   -1.3950   25.6550  -29.2420 O   0  0  0  0  0  0  0  0  0  0  0  0
   -3.8620   25.5270  -30.4640 O   0  0  0  0  0  0  0  0  0  0  0  0
   -4.7210   20.4300  -32.8270 C   0  0  0  0  0  0  0  0  0  0  0  0
   -6.0570   20.6450  -32.4700 C   0  0  0  0  0  0  0  0  0  0  0  0
   -7.7520   23.2772  -30.5662 H   0  0  0  0  0  0  0  0  0  0  0  0
   -6.6127   23.4070  -31.9488 H   0  0  0  0  0  0  0  0  0  0  0  0
   -8.1370   24.3574  -31.9488 H   0  0  0  0  0  0  0  0  0  0  0  0
   -8.7525   18.9972  -31.7775 H   0  0  0  0  0  0  0  0  0  0  0  0
   -9.0778   19.8615  -33.3219 H   0  0  0  0  0  0  0  0  0  0  0  0
   -7.3416   17.7249  -33.7627 H   0  0  0  0  0  0  0  0  0  0  0  0
   -4.9327   17.4170  -34.4199 H   0  0  0  0  0  0  0  0  0  0  0  0
   -2.3649   18.6699  -34.2990 H   0  0  0  0  0  0  0  0  0  0  0  0
   -1.1260   22.2610  -34.9160 H   0  0  0  0  0  0  0  0  0  0  0  0
   -3.2717   22.4093  -29.4264 H   0  0  0  0  0  0  0  0  0  0  0  0
   -1.5098   22.7824  -29.5156 H   0  0  0  0  0  0  0  0  0  0  0  0
   -6.3562   21.5548  -31.9290 H   0  0  0  0  0  0  0  0  0  0  0  0
  1  2  1  0
  2  3  1  0
  3  4  2  0
  3  5  1  0
  5  6  1  0
  6  7  2  0
  7  8  1  0
  8  9  2  0
  9 10  1  0
 10 11  2  0
 11 12  1  0
 12 13  1  0
 12 14  2  0
 11 15  1  0
 15 16  1  0
 16 17  2  0
 16 18  1  0
 18 19  1  0
 19 20  1  0
 20 21  2  0
 20 22  1  0
 20 23  1  0
 15 24  1  0
 24 25  2  0
 25  6  1  0
 24  9  1  0
  1 26  1  0
  1 27  1  0
  1 28  1  0
  5 29  1  0
  5 30  1  0
  7 31  1  0
  8 32  1  0
 10 33  1  0
 13 34  1  0
 19 35  1  0
 19 36  1  0
 25 37  1  0
M  CHG  3  13  -1  22  -1  23  -1
M  END
>  <UniqueID>  (31) 
31

>  <SMILES>  (31) 
COC(=O)Cc1ccc2cc(C([NH-])=O)n(C(=O)OCP(=O)([O-])[O-])c2c1

>  <Energy>  (31) 
67.17226708428642

>  <Genealogy>  (31) 
COC(=O)Cc1ccc2cc(C([NH-])=O)n(C(=O)OCP(=O)([O-])[O-])c2c1 (protonated)
COC(=O)Cc1ccc2cc(C([NH-])=O)n(C(=O)OCP(=O)([O-])[O-])c2c1 (3D coordinates assigned)
COC(=O)Cc1ccc2cc(C([NH-])=O)n(C(=O)OCP(=O)([O-])[O-])c2c1 (optimized conformer: 67.17226708428642 kcal/mol)

>  <smiles>  (31) 
COC(=O)Cc1ccc2cc(C(N)=O)n(C(=O)OCP(=O)(O)O)c2c1

>  <score_type>  (31) 
oracle

>  <origin>  (31) 
adg

>  <m_score__min__energy>  (31) 
-13.75

>  <m_primary>  (31) 
energy

$$$$
31:0
     RDKit          3D

 44 46  0  0  0  0  0  0  0  0999 V2000
   -3.5310   22.3410  -28.8630 C   0  0  0  0  0  0  0  0  0  0  0  0
   -2.9890   22.5420  -30.0640 C   0  0  0  0  0  0  0  0  0  0  0  0
   -3.7790   22.5280  -31.3080 C   0  0  0  0  0  0  0  0  0  0  0  0
   -3.1940   22.2990  -32.4000 O   0  0  0  0  0  0  0  0  0  0  0  0
   -5.2010   22.7350  -31.3010 N   0  0  0  0  0  0  0  0  0  0  0  0
   -5.8870   23.8460  -30.9170 C   0  0  0  0  0  0  0  0  0  0  0  0
   -5.2850   25.1190  -30.4710 C   0  0  0  0  0  0  0  0  0  0  0  0
   -3.8760   25.3160  -30.5780 N   0  0  0  0  0  0  0  0  0  0  0  0
   -5.9990   26.0340  -29.9820 O   0  0  0  0  0  0  0  0  0  0  0  0
   -7.2600   23.6400  -31.0520 C   0  0  0  0  0  0  0  0  0  0  0  0
   -7.3880   22.3600  -31.5460 C   0  0  0  0  0  0  0  0  0  0  0  0
   -8.5270   21.6340  -31.8770 C   0  0  0  0  0  0  0  0  0  0  0  0
   -8.3580   20.3270  -32.3650 C   0  0  0  0  0  0  0  0  0  0  0  0
   -7.0620   19.7630  -32.5070 C   0  0  0  0  0  0  0  0  0  0  0  0
   -6.9120   18.3570  -33.0680 C   0  0  2  0  0  0  0  0  0  0  0  0
   -6.3870   17.3420  -32.0190 C   0  0  0  0  0  0  0  0  0  0  0  0
   -5.2110   16.5100  -32.5480 C   0  0  0  0  0  0  0  0  0  0  0  0
   -4.1320   17.3900  -33.0440 N   0  0  1  0  0  0  0  0  0  0  0  0
   -2.9780   16.5760  -33.4630 C   0  0  0  0  0  0  0  0  0  0  0  0
   -4.5630   18.3050  -34.1420 C   0  0  0  0  0  0  0  0  0  0  0  0
   -6.0870   18.3560  -34.3730 C   0  0  0  0  0  0  0  0  0  0  0  0
   -5.9280   20.5430  -32.1660 C   0  0  0  0  0  0  0  0  0  0  0  0
   -6.1300   21.8400  -31.6910 C   0  0  0  0  0  0  0  0  0  0  0  0
   -2.8981   22.3613  -27.9636 H   0  0  0  0  0  0  0  0  0  0  0  0
   -4.6112   22.1548  -28.7713 H   0  0  0  0  0  0  0  0  0  0  0  0
   -1.9065   22.7261  -30.1294 H   0  0  0  0  0  0  0  0  0  0  0  0
   -3.4830   26.0430  -31.2160 H   0  0  0  0  0  0  0  0  0  0  0  0
   -8.0678   24.3480  -30.8148 H   0  0  0  0  0  0  0  0  0  0  0  0
   -9.5302   22.0698  -31.7603 H   0  0  0  0  0  0  0  0  0  0  0  0
   -9.2415   19.7325  -32.6408 H   0  0  0  0  0  0  0  0  0  0  0  0
   -7.9214   18.0059  -33.3285 H   0  0  0  0  0  0  0  0  0  0  0  0
   -6.0560   17.8947  -31.1274 H   0  0  0  0  0  0  0  0  0  0  0  0
   -7.2081   16.6495  -31.7819 H   0  0  0  0  0  0  0  0  0  0  0  0
   -4.8192   15.8805  -31.7354 H   0  0  0  0  0  0  0  0  0  0  0  0
   -5.5662   15.8822  -33.3785 H   0  0  0  0  0  0  0  0  0  0  0  0
   -3.8060   17.9730  -32.2370 H   0  0  0  0  0  0  0  0  0  0  0  0
   -2.4497   16.2033  -32.5730 H   0  0  0  0  0  0  0  0  0  0  0  0
   -3.3290   15.7245  -34.0644 H   0  0  0  0  0  0  0  0  0  0  0  0
   -2.2936   17.1923  -34.0644 H   0  0  0  0  0  0  0  0  0  0  0  0
   -4.2187   19.3207  -33.8974 H   0  0  0  0  0  0  0  0  0  0  0  0
   -4.1199   17.9111  -35.0685 H   0  0  0  0  0  0  0  0  0  0  0  0
   -6.3229   19.2724  -34.9339 H   0  0  0  0  0  0  0  0  0  0  0  0
   -6.3595   17.4446  -34.9253 H   0  0  0  0  0  0  0  0  0  0  0  0
   -4.9120   20.1352  -32.2733 H   0  0  0  0  0  0  0  0  0  0  0  0
  1  2  2  0
  2  3  1  0
  3  4  2  0
  3  5  1  0
  5  6  1  0
  6  7  1  0
  7  8  1  0
  7  9  2  0
  6 10  2  0
 10 11  1  0
 11 12  2  0
 12 13  1  0
 13 14  2  0
 14 15  1  0
 15 16  1  0
 16 17  1  0
 17 18  1  0
 18 19  1  0
 18 20  1  0
 20 21  1  0
 14 22  1  0
 22 23  2  0
 23  5  1  0
 23 11  1  0
 21 15  1  0
  1 24  1  0
  1 25  1  0
  2 26  1  0
  8 27  1  0
 10 28  1  0
 12 29  1  0
 13 30  1  0
 15 31  1  6
 16 32  1  0
 16 33  1  0
 17 34  1  0
 17 35  1  0
 18 36  1  1
 19 37  1  0
 19 38  1  0
 19 39  1  0
 20 40  1  0
 20 41  1  0
 21 42  1  0
 21 43  1  0
 22 44  1  0
M  CHG  2   8  -1  18   1
M  END
>  <UniqueID>  (32) 
32

>  <SMILES>  (32) 
C=CC(=O)n1c(C([NH-])=O)cc2ccc(C3CC[NH+](C)CC3)cc21

>  <Energy>  (32) 
93.64488679501571

>  <Genealogy>  (32) 
C=CC(=O)n1c(C([NH-])=O)cc2ccc(C3CC[NH+](C)CC3)cc21 (protonated)
C=CC(=O)n1c(C([NH-])=O)cc2ccc(C3CC[NH+](C)CC3)cc21 (3D coordinates assigned)
C=CC(=O)n1c(C([NH-])=O)cc2ccc(C3CC[NH+](C)CC3)cc21 (nonaromatic ring conformer: 93.64488679501571 kcal/mol)

>  <smiles>  (32) 
C=CC(=O)n1c(C(N)=O)cc2ccc(C3CCN(C)CC3)cc21

>  <score_type>  (32) 
oracle

>  <origin>  (32) 
adg

>  <m_score__min__energy>  (32) 
-11.01

>  <m_primary>  (32) 
energy

$$$$
32:0
     RDKit          3D

 36 37  0  0  0  0  0  0  0  0999 V2000
   -4.2230   25.5360  -30.6420 N   0  0  0  0  0  0  0  0  0  0  0  0
   -5.5970   25.1830  -30.4860 C   0  0  0  0  0  0  0  0  0  0  0  0
   -6.4050   26.0290  -30.0190 O   0  0  0  0  0  0  0  0  0  0  0  0
   -6.1010   23.8750  -30.9410 C   0  0  0  0  0  0  0  0  0  0  0  0
   -7.4490   23.6180  -31.1670 C   0  0  0  0  0  0  0  0  0  0  0  0
   -7.5050   22.3010  -31.5570 C   0  0  0  0  0  0  0  0  0  0  0  0
   -8.5960   21.5310  -31.9500 C   0  0  0  0  0  0  0  0  0  0  0  0
   -8.3580   20.2040  -32.3430 C   0  0  0  0  0  0  0  0  0  0  0  0
   -7.0440   19.6690  -32.3360 C   0  0  0  0  0  0  0  0  0  0  0  0
   -6.7930   18.2660  -32.8270 C   0  0  0  0  0  0  0  0  0  0  0  0
   -6.4510   18.2720  -34.1680 F   0  0  0  0  0  0  0  0  0  0  0  0
   -7.9400   17.5130  -32.6580 F   0  0  0  0  0  0  0  0  0  0  0  0
   -5.7600   17.6770  -32.1190 F   0  0  0  0  0  0  0  0  0  0  0  0
   -5.9590   20.4930  -31.9550 C   0  0  0  0  0  0  0  0  0  0  0  0
   -6.2270   21.8030  -31.5420 C   0  0  0  0  0  0  0  0  0  0  0  0
   -5.3510   22.7550  -31.1470 N   0  0  0  0  0  0  0  0  0  0  0  0
   -3.9480   22.5800  -30.8630 C   0  0  0  0  0  0  0  0  0  0  0  0
   -3.0880   22.9150  -31.7190 O   0  0  0  0  0  0  0  0  0  0  0  0
   -3.4850   21.9600  -29.5690 C   0  0  0  0  0  0  0  0  0  0  0  0
   -3.4040   22.9780  -28.4160 C   0  0  0  0  0  0  0  0  0  0  0  0
   -1.9640   23.3330  -28.0170 C   0  0  0  0  0  0  0  0  0  0  0  0
   -1.4620   24.5530  -28.7240 C   0  0  0  0  0  0  0  0  0  0  0  0
   -2.2630   25.2920  -29.3540 O   0  0  0  0  0  0  0  0  0  0  0  0
   -0.1130   24.8770  -28.6790 O   0  0  0  0  0  0  0  0  0  0  0  0
   -3.5860   24.9500  -31.2250 H   0  0  0  0  0  0  0  0  0  0  0  0
   -3.8690   26.4430  -30.2680 H   0  0  0  0  0  0  0  0  0  0  0  0
   -8.2900   24.3184  -31.0572 H   0  0  0  0  0  0  0  0  0  0  0  0
   -9.6134   21.9492  -31.9526 H   0  0  0  0  0  0  0  0  0  0  0  0
   -9.2005   19.5718  -32.6601 H   0  0  0  0  0  0  0  0  0  0  0  0
   -4.9273   20.1124  -31.9828 H   0  0  0  0  0  0  0  0  0  0  0  0
   -4.1914   21.1652  -29.2874 H   0  0  0  0  0  0  0  0  0  0  0  0
   -2.4718   21.5650  -29.7344 H   0  0  0  0  0  0  0  0  0  0  0  0
   -3.9169   23.8998  -28.7278 H   0  0  0  0  0  0  0  0  0  0  0  0
   -3.8795   22.5145  -27.5390 H   0  0  0  0  0  0  0  0  0  0  0  0
   -1.9322   23.5146  -26.9326 H   0  0  0  0  0  0  0  0  0  0  0  0
   -1.3184   22.4894  -28.3027 H   0  0  0  0  0  0  0  0  0  0  0  0
  1  2  1  0
  2  3  2  0
  2  4  1  0
  4  5  2  0
  5  6  1  0
  6  7  2  0
  7  8  1  0
  8  9  2  0
  9 10  1  0
 10 11  1  0
 10 12  1  0
 10 13  1  0
  9 14  1  0
 14 15  2  0
 15 16  1  0
 16 17  1  0
 17 18  2  0
 17 19  1  0
 19 20  1  0
 20 21  1  0
 21 22  1  0
 22 23  2  0
 22 24  1  0
 16  4  1  0
 15  6  1  0
  1 25  1  0
  1 26  1  0
  5 27  1  0
  7 28  1  0
  8 29  1  0
 14 30  1  0
 19 31  1  0
 19 32  1  0
 20 33  1  0
 20 34  1  0
 21 35  1  0
 21 36  1  0
M  CHG  1  24  -1
M  END
>  <UniqueID>  (33) 
33

>  <SMILES>  (33) 
NC(=O)c1cc2ccc(C(F)(F)F)cc2n1C(=O)CCCC(=O)[O-]

>  <Energy>  (33) 
75.72424887177117

>  <Genealogy>  (33) 
NC(=O)c1cc2ccc(C(F)(F)F)cc2n1C(=O)CCCC(=O)[O-] (protonated)
NC(=O)c1cc2ccc(C(F)(F)F)cc2n1C(=O)CCCC(=O)[O-] (3D coordinates assigned)
NC(=O)c1cc2ccc(C(F)(F)F)cc2n1C(=O)CCCC(=O)[O-] (optimized conformer: 75.72424887177117 kcal/mol)

>  <smiles>  (33) 
NC(=O)c1cc2ccc(C(F)(F)F)cc2n1C(=O)CCCC(=O)O

>  <score_type>  (33) 
oracle

>  <origin>  (33) 
adg

>  <m_score__min__energy>  (33) 
-10.59

>  <m_primary>  (33) 
energy

$$$$
33:0
     RDKit          3D

 33 34  0  0  0  0  0  0  0  0999 V2000
   -6.0960   25.3020  -28.9750 N   0  0  0  0  0  0  0  0  0  0  0  0
   -6.1360   24.9420  -30.3550 C   0  0  0  0  0  0  0  0  0  0  0  0
   -5.8260   25.7970  -31.2250 O   0  0  0  0  0  0  0  0  0  0  0  0
   -6.4770   23.5680  -30.7750 C   0  0  0  0  0  0  0  0  0  0  0  0
   -7.7850   23.1140  -30.8940 C   0  0  0  0  0  0  0  0  0  0  0  0
   -7.6770   21.8040  -31.2940 C   0  0  0  0  0  0  0  0  0  0  0  0
   -8.6750   20.8660  -31.5350 C   0  0  0  0  0  0  0  0  0  0  0  0
   -8.2860   19.5610  -31.8740 C   0  0  0  0  0  0  0  0  0  0  0  0
   -6.9140   19.2070  -31.9280 C   0  0  0  0  0  0  0  0  0  0  0  0
   -6.5050   17.8070  -32.3160 C   0  0  0  0  0  0  0  0  0  0  0  0
   -5.5240   17.8740  -33.2860 F   0  0  0  0  0  0  0  0  0  0  0  0
   -6.0100   17.1230  -31.2180 F   0  0  0  0  0  0  0  0  0  0  0  0
   -7.5850   17.1000  -32.8150 F   0  0  0  0  0  0  0  0  0  0  0  0
   -5.9290   20.1950  -31.6940 C   0  0  0  0  0  0  0  0  0  0  0  0
   -6.3430   21.5000  -31.3940 C   0  0  0  0  0  0  0  0  0  0  0  0
   -5.5870   22.5840  -31.0910 N   0  0  0  0  0  0  0  0  0  0  0  0
   -4.1510   22.6460  -30.9620 C   0  0  0  0  0  0  0  0  0  0  0  0
   -3.4560   23.0110  -31.9480 O   0  0  0  0  0  0  0  0  0  0  0  0
   -3.4660   22.3340  -29.6540 C   0  0  0  0  0  0  0  0  0  0  0  0
   -3.4060   23.5330  -28.6980 C   0  0  0  0  0  0  0  0  0  0  0  0
   -2.8590   24.7620  -29.3580 C   0  0  0  0  0  0  0  0  0  0  0  0
   -1.7990   25.2900  -28.9300 O   0  0  0  0  0  0  0  0  0  0  0  0
   -3.4910   25.2990  -30.4730 O   0  0  0  0  0  0  0  0  0  0  0  0
   -6.1470   24.5700  -28.2340 H   0  0  0  0  0  0  0  0  0  0  0  0
   -5.9060   26.2890  -28.6940 H   0  0  0  0  0  0  0  0  0  0  0  0
   -8.7087   23.6816  -30.7079 H   0  0  0  0  0  0  0  0  0  0  0  0
   -9.7381   21.1390  -31.4620 H   0  0  0  0  0  0  0  0  0  0  0  0
   -9.0528   18.8054  -32.1000 H   0  0  0  0  0  0  0  0  0  0  0  0
   -4.8593   19.9440  -31.7465 H   0  0  0  0  0  0  0  0  0  0  0  0
   -4.0146   21.5196  -29.1583 H   0  0  0  0  0  0  0  0  0  0  0  0
   -2.4288   22.0528  -29.8888 H   0  0  0  0  0  0  0  0  0  0  0  0
   -4.4225   23.7484  -28.3370 H   0  0  0  0  0  0  0  0  0  0  0  0
   -2.7322   23.2686  -27.8697 H   0  0  0  0  0  0  0  0  0  0  0  0
  1  2  1  0
  2  3  2  0
  2  4  1  0
  4  5  2  0
  5  6  1  0
  6  7  2  0
  7  8  1  0
  8  9  2  0
  9 10  1  0
 10 11  1  0
 10 12  1  0
 10 13  1  0
  9 14  1  0
 14 15  2  0
 15 16  1  0
 16 17  1  0
 17 18  2  0
 17 19  1  0
 19 20  1  0
 20 21  1  0
 21 22  2  0
 21 23  1  0
 16  4  1  0
 15  6  1  0
  1 24  1  0
  1 25  1  0
  5 26  1  0
  7 27  1  0
  8 28  1  0
 14 29  1  0
 19 30  1  0
 19 31  1  0
 20 32  1  0
 20 33  1  0
M  CHG  1  23  -1
M  END
>  <UniqueID>  (34) 
34

>  <SMILES>  (34) 
NC(=O)c1cc2ccc(C(F)(F)F)cc2n1C(=O)CCC(=O)[O-]

>  <Energy>  (34) 
72.11849547174005

>  <Genealogy>  (34) 
NC(=O)c1cc2ccc(C(F)(F)F)cc2n1C(=O)CCC(=O)[O-] (protonated)
NC(=O)c1cc2ccc(C(F)(F)F)cc2n1C(=O)CCC(=O)[O-] (3D coordinates assigned)
NC(=O)c1cc2ccc(C(F)(F)F)cc2n1C(=O)CCC(=O)[O-] (optimized conformer: 72.11849547174005 kcal/mol)

>  <smiles>  (34) 
NC(=O)c1cc2ccc(C(F)(F)F)cc2n1C(=O)CCC(=O)O

>  <score_type>  (34) 
oracle

>  <origin>  (34) 
adg

>  <m_score__min__energy>  (34) 
-10.74

>  <m_primary>  (34) 
energy

$$$$
34:0
     RDKit          3D

 36 37  0  0  0  0  0  0  0  0999 V2000
   -3.0980   24.2490  -27.4850 C   0  0  0  0  0  0  0  0  0  0  0  0
   -4.1510   23.2190  -27.8790 C   0  0  0  0  0  0  0  0  0  0  0  0
   -3.5060   21.9660  -28.4060 C   0  0  0  0  0  0  0  0  0  0  0  0
   -3.4460   21.5980  -29.6950 C   0  0  0  0  0  0  0  0  0  0  0  0
   -3.8950   22.4140  -30.8430 C   0  0  0  0  0  0  0  0  0  0  0  0
   -3.0230   22.9230  -31.5960 O   0  0  0  0  0  0  0  0  0  0  0  0
   -5.2820   22.7240  -31.0580 N   0  0  0  0  0  0  0  0  0  0  0  0
   -5.9190   23.9010  -30.8040 C   0  0  0  0  0  0  0  0  0  0  0  0
   -5.2710   25.1560  -30.3690 C   0  0  0  0  0  0  0  0  0  0  0  0
   -3.8660   25.3290  -30.5480 N   0  0  0  0  0  0  0  0  0  0  0  0
   -5.9390   26.0710  -29.8200 O   0  0  0  0  0  0  0  0  0  0  0  0
   -7.2820   23.7860  -31.0740 C   0  0  0  0  0  0  0  0  0  0  0  0
   -7.4620   22.4880  -31.4950 C   0  0  0  0  0  0  0  0  0  0  0  0
   -8.6240   21.8230  -31.8760 C   0  0  0  0  0  0  0  0  0  0  0  0
   -8.5200   20.4690  -32.2350 C   0  0  0  0  0  0  0  0  0  0  0  0
   -7.2650   19.8090  -32.2070 C   0  0  0  0  0  0  0  0  0  0  0  0
   -7.1740   18.3500  -32.5540 C   0  0  0  0  0  0  0  0  0  0  0  0
   -6.3880   18.1690  -33.8120 C   0  0  0  0  0  0  0  0  0  0  0  0
   -5.9850   17.0250  -34.1490 O   0  0  0  0  0  0  0  0  0  0  0  0
   -6.0590   19.2720  -34.5900 O   0  0  0  0  0  0  0  0  0  0  0  0
   -6.1110   20.5120  -31.8000 C   0  0  0  0  0  0  0  0  0  0  0  0
   -6.2410   21.8660  -31.4690 C   0  0  0  0  0  0  0  0  0  0  0  0
   -3.0364   24.3093  -26.3884 H   0  0  0  0  0  0  0  0  0  0  0  0
   -2.1210   23.9483  -27.8912 H   0  0  0  0  0  0  0  0  0  0  0  0
   -3.3770   25.2324  -27.8912 H   0  0  0  0  0  0  0  0  0  0  0  0
   -4.7573   22.9680  -26.9961 H   0  0  0  0  0  0  0  0  0  0  0  0
   -4.7834   23.6481  -28.6702 H   0  0  0  0  0  0  0  0  0  0  0  0
   -3.0429   21.2924  -27.6699 H   0  0  0  0  0  0  0  0  0  0  0  0
   -3.0273   20.6051  -29.9162 H   0  0  0  0  0  0  0  0  0  0  0  0
   -3.4940   26.0390  -31.2170 H   0  0  0  0  0  0  0  0  0  0  0  0
   -8.0502   24.5667  -30.9722 H   0  0  0  0  0  0  0  0  0  0  0  0
   -9.5938   22.3418  -31.8953 H   0  0  0  0  0  0  0  0  0  0  0  0
   -9.4201   19.9155  -32.5406 H   0  0  0  0  0  0  0  0  0  0  0  0
   -6.6769   17.8114  -31.7338 H   0  0  0  0  0  0  0  0  0  0  0  0
   -8.1884   17.9516  -32.7030 H   0  0  0  0  0  0  0  0  0  0  0  0
   -5.1344   20.0089  -31.7443 H   0  0  0  0  0  0  0  0  0  0  0  0
  1  2  1  0
  2  3  1  0
  3  4  2  3
  4  5  1  0
  5  6  2  0
  5  7  1  0
  7  8  1  0
  8  9  1  0
  9 10  1  0
  9 11  2  0
  8 12  2  0
 12 13  1  0
 13 14  2  0
 14 15  1  0
 15 16  2  0
 16 17  1  0
 17 18  1  0
 18 19  2  0
 18 20  1  0
 16 21  1  0
 21 22  2  0
 22  7  1  0
 22 13  1  0
  1 23  1  0
  1 24  1  0
  1 25  1  0
  2 26  1  0
  2 27  1  0
  3 28  1  0
  4 29  1  0
 10 30  1  0
 12 31  1  0
 14 32  1  0
 15 33  1  0
 17 34  1  0
 17 35  1  0
 21 36  1  0
M  CHG  2  10  -1  20  -1
M  END
>  <UniqueID>  (35) 
35

>  <SMILES>  (35) 
CCC=CC(=O)n1c(C([NH-])=O)cc2ccc(CC(=O)[O-])cc21

>  <Energy>  (35) 
73.25003244231374

>  <Genealogy>  (35) 
CCC=CC(=O)n1c(C([NH-])=O)cc2ccc(CC(=O)[O-])cc21 (protonated)
CCC=CC(=O)n1c(C([NH-])=O)cc2ccc(CC(=O)[O-])cc21 (3D coordinates assigned)
CCC=CC(=O)n1c(C([NH-])=O)cc2ccc(CC(=O)[O-])cc21 (optimized conformer: 73.25003244231374 kcal/mol)

>  <smiles>  (35) 
CCC=CC(=O)n1c(C(N)=O)cc2ccc(CC(=O)O)cc21

>  <score_type>  (35) 
oracle

>  <origin>  (35) 
adg

>  <m_score__min__energy>  (35) 
-10.710000000000001

>  <m_primary>  (35) 
energy

$$$$
35:0
     RDKit          3D

 56 59  0  0  0  0  0  0  0  0999 V2000
   -0.8730   22.5550  -26.3090 C   0  0  0  0  0  0  0  0  0  0  0  0
   -0.6660   21.4180  -27.1420 O   0  0  0  0  0  0  0  0  0  0  0  0
   -1.0140   21.3560  -28.5020 C   0  0  0  0  0  0  0  0  0  0  0  0
   -0.2140   21.9700  -29.5090 C   0  0  0  0  0  0  0  0  0  0  0  0
   -0.5900   21.9090  -30.8630 C   0  0  0  0  0  0  0  0  0  0  0  0
   -1.7610   21.2320  -31.1800 C   0  0  0  0  0  0  0  0  0  0  0  0
   -2.3130   21.0660  -32.3940 N   0  0  0  0  0  0  0  0  0  0  0  0
   -3.4310   20.3510  -32.0970 C   0  0  0  0  0  0  0  0  0  0  0  0
   -4.3980   19.9080  -33.1120 C   0  0  0  0  0  0  0  0  0  0  0  0
   -3.9820   19.4530  -34.2100 O   0  0  0  0  0  0  0  0  0  0  0  0
   -5.8100   19.9500  -32.8450 N   0  0  0  0  0  0  0  0  0  0  0  0
   -6.7430   18.9960  -33.1200 C   0  0  0  0  0  0  0  0  0  0  0  0
   -6.4550   17.6380  -33.6300 C   0  0  0  0  0  0  0  0  0  0  0  0
   -5.7430   17.4530  -34.8540 N   0  0  0  0  0  0  0  0  0  0  0  0
   -6.8540   16.6270  -32.9940 O   0  0  0  0  0  0  0  0  0  0  0  0
   -8.0150   19.4450  -32.7650 C   0  0  0  0  0  0  0  0  0  0  0  0
   -7.8260   20.7100  -32.2550 C   0  0  0  0  0  0  0  0  0  0  0  0
   -8.7490   21.6230  -31.7560 C   0  0  0  0  0  0  0  0  0  0  0  0
   -8.2700   22.8660  -31.3110 C   0  0  0  0  0  0  0  0  0  0  0  0
   -6.8880   23.1780  -31.3690 C   0  0  0  0  0  0  0  0  0  0  0  0
   -6.4440   24.4670  -30.9040 N   0  0  0  0  0  0  0  0  0  0  0  0
   -5.8150   24.7090  -29.6050 C   0  0  0  0  0  0  0  0  0  0  0  0
   -4.3230   24.8700  -29.7500 C   0  0  0  0  0  0  0  0  0  0  0  0
   -3.8730   25.2970  -30.8470 O   0  0  0  0  0  0  0  0  0  0  0  0
   -3.4080   24.5490  -28.6780 N   0  0  0  0  0  0  0  0  0  0  0  0
   -3.8980   24.1410  -27.3570 C   0  0  0  0  0  0  0  0  0  0  0  0
   -1.9650   24.6550  -28.9240 C   0  0  0  0  0  0  0  0  0  0  0  0
   -5.9820   22.2240  -31.8910 C   0  0  0  0  0  0  0  0  0  0  0  0
   -6.4870   20.9890  -32.3130 C   0  0  0  0  0  0  0  0  0  0  0  0
   -3.5630   20.0910  -30.8070 O   0  0  0  0  0  0  0  0  0  0  0  0
   -2.5300   20.6380  -30.2270 C   0  0  0  0  0  0  0  0  0  0  0  0
   -2.1940   20.6620  -28.8720 C   0  0  0  0  0  0  0  0  0  0  0  0
   -3.0860   20.0310  -27.8410 C   0  0  0  0  0  0  0  0  0  0  0  0
   -0.8177   22.2510  -25.2533 H   0  0  0  0  0  0  0  0  0  0  0  0
   -0.0970   23.3068  -26.5153 H   0  0  0  0  0  0  0  0  0  0  0  0
   -1.8642   22.9851  -26.5153 H   0  0  0  0  0  0  0  0  0  0  0  0
    0.7081   22.4977  -29.2241 H   0  0  0  0  0  0  0  0  0  0  0  0
    0.0227   22.3816  -31.6448 H   0  0  0  0  0  0  0  0  0  0  0  0
   -5.3410   18.2610  -35.3770 H   0  0  0  0  0  0  0  0  0  0  0  0
   -5.5740   16.4900  -35.2210 H   0  0  0  0  0  0  0  0  0  0  0  0
   -8.9668   18.9036  -32.8701 H   0  0  0  0  0  0  0  0  0  0  0  0
   -9.8207   21.3791  -31.7113 H   0  0  0  0  0  0  0  0  0  0  0  0
   -8.9770   23.6081  -30.9118 H   0  0  0  0  0  0  0  0  0  0  0  0
   -6.5960   25.2970  -31.5220 H   0  0  0  0  0  0  0  0  0  0  0  0
   -6.2351   25.6264  -29.1670 H   0  0  0  0  0  0  0  0  0  0  0  0
   -6.0131   23.8456  -28.9529 H   0  0  0  0  0  0  0  0  0  0  0  0
   -3.3027   24.6366  -26.5760 H   0  0  0  0  0  0  0  0  0  0  0  0
   -4.9541   24.4304  -27.2522 H   0  0  0  0  0  0  0  0  0  0  0  0
   -3.8047   23.0500  -27.2522 H   0  0  0  0  0  0  0  0  0  0  0  0
   -1.4311   24.6942  -27.9630 H   0  0  0  0  0  0  0  0  0  0  0  0
   -1.6254   23.7794  -29.4967 H   0  0  0  0  0  0  0  0  0  0  0  0
   -1.7570   25.5708  -29.4967 H   0  0  0  0  0  0  0  0  0  0  0  0
   -4.9074   22.4479  -31.9632 H   0  0  0  0  0  0  0  0  0  0  0  0
   -2.7226   20.2880  -26.8351 H   0  0  0  0  0  0  0  0  0  0  0  0
   -4.1129   20.4047  -27.9665 H   0  0  0  0  0  0  0  0  0  0  0  0
   -3.0756   18.9382  -27.9665 H   0  0  0  0  0  0  0  0  0  0  0  0
  1  2  1  0
  2  3  1  0
  3  4  2  0
  4  5  1  0
  5  6  2  0
  6  7  1  0
  7  8  2  0
  8  9  1  0
  9 10  2  0
  9 11  1  0
 11 12  1  0
 12 13  1  0
 13 14  1  0
 13 15  2  0
 12 16  2  0
 16 17  1  0
 17 18  2  0
 18 19  1  0
 19 20  2  0
 20 21  1  0
 21 22  1  0
 22 23  1  0
 23 24  2  0
 23 25  1  0
 25 26  1  0
 25 27  1  0
 20 28  1  0
 28 29  2  0
  8 30  1  0
 30 31  1  0
 31 32  2  0
 32 33  1  0
 32  3  1  0
 31  6  1  0
 29 11  1  0
 29 17  1  0
  1 34  1  0
  1 35  1  0
  1 36  1  0
  4 37  1  0
  5 38  1  0
 14 39  1  0
 14 40  1  0
 16 41  1  0
 18 42  1  0
 19 43  1  0
 21 44  1  0
 22 45  1  0
 22 46  1  0
 26 47  1  0
 26 48  1  0
 26 49  1  0
 27 50  1  0
 27 51  1  0
 27 52  1  0
 28 53  1  0
 33 54  1  0
 33 55  1  0
 33 56  1  0
M  END
>  <UniqueID>  (36) 
36

>  <SMILES>  (36) 
COc1ccc2nc(C(=O)n3c(C(N)=O)cc4ccc(NCC(=O)N(C)C)cc43)oc2c1C

>  <Energy>  (36) 
130.41900231356365

>  <Genealogy>  (36) 
COc1ccc2nc(C(=O)n3c(C(N)=O)cc4ccc(NCC(=O)N(C)C)cc43)oc2c1C (3D coordinates assigned)
COc1ccc2nc(C(=O)n3c(C(N)=O)cc4ccc(NCC(=O)N(C)C)cc43)oc2c1C (optimized conformer: 130.41900231356365 kcal/mol)

>  <smiles>  (36) 
COc1ccc2nc(C(=O)n3c(C(N)=O)cc4ccc(NCC(=O)N(C)C)cc43)oc2c1C

>  <score_type>  (36) 
oracle

>  <origin>  (36) 
adg

>  <m_score__min__energy>  (36) 
-10.23

>  <m_primary>  (36) 
energy

$$$$
36:0
     RDKit          3D

 50 52  0  0  0  0  0  0  0  0999 V2000
   -5.3590   18.1680  -35.2550 N   0  0  0  0  0  0  0  0  0  0  0  0
   -5.9330   18.0770  -34.2520 C   0  0  0  0  0  0  0  0  0  0  0  0
   -6.6630   17.9620  -32.9800 C   0  0  0  0  0  0  0  0  0  0  0  0
   -7.9570   18.7820  -32.9980 C   0  0  0  0  0  0  0  0  0  0  0  0
   -7.7990   20.1020  -32.2850 C   0  0  0  0  0  0  0  0  0  0  0  0
   -8.9370   20.9000  -32.0040 C   0  0  0  0  0  0  0  0  0  0  0  0
   -8.7980   22.1410  -31.3580 C   0  0  0  0  0  0  0  0  0  0  0  0
   -7.5170   22.5480  -30.9970 C   0  0  0  0  0  0  0  0  0  0  0  0
   -7.0920   23.7160  -30.4010 C   0  0  0  0  0  0  0  0  0  0  0  0
   -5.7070   23.5980  -30.3060 C   0  0  0  0  0  0  0  0  0  0  0  0
   -4.8320   24.6170  -29.6890 C   0  0  0  0  0  0  0  0  0  0  0  0
   -3.8430   25.2780  -30.4780 N   0  0  0  0  0  0  0  0  0  0  0  0
   -4.9620   24.9270  -28.4740 O   0  0  0  0  0  0  0  0  0  0  0  0
   -5.2940   22.4040  -30.8170 N   0  0  0  0  0  0  0  0  0  0  0  0
   -3.9460   21.9330  -30.9490 C   0  0  0  0  0  0  0  0  0  0  0  0
   -3.2900   22.2130  -31.9890 O   0  0  0  0  0  0  0  0  0  0  0  0
   -3.2870   21.1890  -29.8240 C   0  0  0  0  0  0  0  0  0  0  0  0
   -3.2240   22.0370  -28.5490 C   0  0  0  0  0  0  0  0  0  0  0  0
   -1.9320   23.2840  -28.6150 S   0  0  0  0  0  0  0  0  0  0  0  0
   -1.5890   23.5340  -30.0570 O   0  0  0  0  0  0  0  0  0  0  0  0
   -0.7190   22.7080  -27.9380 O   0  0  0  0  0  0  0  0  0  0  0  0
   -2.3160   24.8090  -27.8400 N   0  0  0  0  0  0  0  0  0  0  0  0
   -2.8830   24.6430  -26.4940 C   0  0  0  0  0  0  0  0  0  0  0  0
   -2.3770   25.8010  -25.6360 C   0  0  0  0  0  0  0  0  0  0  0  0
   -1.4800   26.6230  -26.5440 C   0  0  0  0  0  0  0  0  0  0  0  0
   -1.1610   25.6990  -27.7030 C   0  0  0  0  0  0  0  0  0  0  0  0
   -6.4110   21.7740  -31.2390 C   0  0  0  0  0  0  0  0  0  0  0  0
   -6.5170   20.5410  -31.8880 C   0  0  0  0  0  0  0  0  0  0  0  0
   -6.9123   16.9049  -32.8055 H   0  0  0  0  0  0  0  0  0  0  0  0
   -6.0196   18.3509  -32.1770 H   0  0  0  0  0  0  0  0  0  0  0  0
   -8.2410   18.9746  -34.0431 H   0  0  0  0  0  0  0  0  0  0  0  0
   -8.7331   18.2039  -32.4751 H   0  0  0  0  0  0  0  0  0  0  0  0
   -9.9370   20.5451  -32.2939 H   0  0  0  0  0  0  0  0  0  0  0  0
   -9.6744   22.7706  -31.1446 H   0  0  0  0  0  0  0  0  0  0  0  0
   -7.7138   24.5611  -30.0708 H   0  0  0  0  0  0  0  0  0  0  0  0
   -2.8430   25.2980  -30.1780 H   0  0  0  0  0  0  0  0  0  0  0  0
   -3.8610   20.2739  -29.6164 H   0  0  0  0  0  0  0  0  0  0  0  0
   -2.2580   20.9462  -30.1276 H   0  0  0  0  0  0  0  0  0  0  0  0
   -4.1927   22.5397  -28.4115 H   0  0  0  0  0  0  0  0  0  0  0  0
   -2.9954   21.3630  -27.7103 H   0  0  0  0  0  0  0  0  0  0  0  0
   -3.0280   25.2910  -28.4380 H   0  0  0  0  0  0  0  0  0  0  0  0
   -3.9816   24.6649  -26.5441 H   0  0  0  0  0  0  0  0  0  0  0  0
   -2.5780   23.6786  -26.0616 H   0  0  0  0  0  0  0  0  0  0  0  0
   -3.2202   26.4093  -25.2768 H   0  0  0  0  0  0  0  0  0  0  0  0
   -1.8365   25.4424  -24.7476 H   0  0  0  0  0  0  0  0  0  0  0  0
   -2.0048   27.5228  -26.8975 H   0  0  0  0  0  0  0  0  0  0  0  0
   -0.5740   26.9747  -26.0288 H   0  0  0  0  0  0  0  0  0  0  0  0
   -1.0146   26.2798  -28.6256 H   0  0  0  0  0  0  0  0  0  0  0  0
   -0.2352   25.1327  -27.5235 H   0  0  0  0  0  0  0  0  0  0  0  0
   -5.6248   19.9283  -32.0845 H   0  0  0  0  0  0  0  0  0  0  0  0
  1  2  3  0
  2  3  1  0
  3  4  1  0
  4  5  1  0
  5  6  2  0
  6  7  1  0
  7  8  2  0
  8  9  1  0
  9 10  2  0
 10 11  1  0
 11 12  1  0
 11 13  2  0
 10 14  1  0
 14 15  1  0
 15 16  2  0
 15 17  1  0
 17 18  1  0
 18 19  1  0
 19 20  2  0
 19 21  2  0
 19 22  1  0
 22 23  1  0
 23 24  1  0
 24 25  1  0
 25 26  1  0
 14 27  1  0
 27 28  2  0
 28  5  1  0
 27  8  1  0
 26 22  1  0
  3 29  1  0
  3 30  1  0
  4 31  1  0
  4 32  1  0
  6 33  1  0
  7 34  1  0
  9 35  1  0
 12 36  1  0
 17 37  1  0
 17 38  1  0
 18 39  1  0
 18 40  1  0
 22 41  1  0
 23 42  1  0
 23 43  1  0
 24 44  1  0
 24 45  1  0
 25 46  1  0
 25 47  1  0
 26 48  1  0
 26 49  1  0
 28 50  1  0
M  CHG  2  12  -1  22   1
M  END
>  <UniqueID>  (37) 
37

>  <SMILES>  (37) 
N#CCCc1ccc2cc(C([NH-])=O)n(C(=O)CCS(=O)(=O)[NH+]3CCCC3)c2c1

>  <Energy>  (37) 
81.12762663805839

>  <Genealogy>  (37) 
N#CCCc1ccc2cc(C([NH-])=O)n(C(=O)CCS(=O)(=O)[NH+]3CCCC3)c2c1 (protonated)
N#CCCc1ccc2cc(C([NH-])=O)n(C(=O)CCS(=O)(=O)[NH+]3CCCC3)c2c1 (3D coordinates assigned)
N#CCCc1ccc2cc(C([NH-])=O)n(C(=O)CCS(=O)(=O)[NH+]3CCCC3)c2c1 (nonaromatic ring conformer: 81.12762663805839 kcal/mol)

>  <smiles>  (37) 
N#CCCc1ccc2cc(C(N)=O)n(C(=O)CCS(=O)(=O)N3CCCC3)c2c1

>  <score_type>  (37) 
oracle

>  <origin>  (37) 
adg

>  <m_score__min__energy>  (37) 
-11.59

>  <m_primary>  (37) 
energy

$$$$
37:0
     RDKit          3D

 56 58  0  0  0  0  0  0  0  0999 V2000
   -0.8410   21.7450  -29.9030 C   0  0  0  0  0  0  0  0  0  0  0  0
   -1.5280   23.0440  -30.3160 C   0  0  1  0  0  0  0  0  0  0  0  0
   -2.9320   22.8000  -30.3390 O   0  0  0  0  0  0  0  0  0  0  0  0
   -3.6670   22.6170  -31.5150 C   0  0  0  0  0  0  0  0  0  0  0  0
   -3.0860   22.3180  -32.5910 O   0  0  0  0  0  0  0  0  0  0  0  0
   -5.0910   22.8010  -31.4950 N   0  0  0  0  0  0  0  0  0  0  0  0
   -5.7950   23.8690  -31.0220 C   0  0  0  0  0  0  0  0  0  0  0  0
   -5.2200   25.1430  -30.5440 C   0  0  0  0  0  0  0  0  0  0  0  0
   -3.8640   25.4650  -30.8430 N   0  0  0  0  0  0  0  0  0  0  0  0
   -5.9020   25.9370  -29.8440 O   0  0  0  0  0  0  0  0  0  0  0  0
   -7.1640   23.6310  -31.1220 C   0  0  0  0  0  0  0  0  0  0  0  0
   -7.2780   22.3790  -31.6800 C   0  0  0  0  0  0  0  0  0  0  0  0
   -8.4140   21.6380  -31.9920 C   0  0  0  0  0  0  0  0  0  0  0  0
   -8.2360   20.3540  -32.5360 C   0  0  0  0  0  0  0  0  0  0  0  0
   -6.9330   19.8310  -32.7490 C   0  0  0  0  0  0  0  0  0  0  0  0
   -6.7310   18.4760  -33.3070 C   0  0  0  0  0  0  0  0  0  0  0  0
   -5.9960   18.1130  -34.4190 C   0  0  0  0  0  0  0  0  0  0  0  0
   -6.0750   16.7780  -34.5750 N   0  0  0  0  0  0  0  0  0  0  0  0
   -6.8560   16.3800  -33.5510 C   0  0  0  0  0  0  0  0  0  0  0  0
   -7.2460   17.3830  -32.7980 O   0  0  0  0  0  0  0  0  0  0  0  0
   -5.8060   20.6170  -32.4170 C   0  0  0  0  0  0  0  0  0  0  0  0
   -6.0140   21.8990  -31.8950 C   0  0  0  0  0  0  0  0  0  0  0  0
   -1.2590   24.0420  -29.3510 O   0  0  0  0  0  0  0  0  0  0  0  0
   -2.0470   23.7410  -27.8260 Si  0  0  0  0  0  4  0  0  0  0  0  0
   -1.5200   22.0780  -27.1400 C   0  0  0  0  0  0  0  0  0  0  0  0
   -3.9140   23.7250  -28.0030 C   0  0  0  0  0  0  0  0  0  0  0  0
   -1.5220   25.1280  -26.6360 C   0  0  0  0  0  0  0  0  0  0  0  0
   -0.8500   26.2710  -27.4170 C   0  0  0  0  0  0  0  0  0  0  0  0
   -2.7660   25.6650  -25.9070 C   0  0  0  0  0  0  0  0  0  0  0  0
   -0.5350   24.5600  -25.6030 C   0  0  0  0  0  0  0  0  0  0  0  0
   -0.8072   21.6810  -28.8054 H   0  0  0  0  0  0  0  0  0  0  0  0
   -1.4043   20.8890  -30.3030 H   0  0  0  0  0  0  0  0  0  0  0  0
    0.1836   21.7288  -30.3030 H   0  0  0  0  0  0  0  0  0  0  0  0
   -1.1658   23.3764  -31.3000 H   0  0  0  0  0  0  0  0  0  0  0  0
   -3.0770   24.9680  -30.3690 H   0  0  0  0  0  0  0  0  0  0  0  0
   -7.9810   24.3023  -30.8188 H   0  0  0  0  0  0  0  0  0  0  0  0
   -9.4211   22.0449  -31.8181 H   0  0  0  0  0  0  0  0  0  0  0  0
   -9.1154   19.7480  -32.7995 H   0  0  0  0  0  0  0  0  0  0  0  0
   -5.4378   18.8017  -35.0702 H   0  0  0  0  0  0  0  0  0  0  0  0
   -7.1355   15.3322  -33.3666 H   0  0  0  0  0  0  0  0  0  0  0  0
   -4.7873   20.2295  -32.5657 H   0  0  0  0  0  0  0  0  0  0  0  0
   -1.5316   22.1145  -26.0407 H   0  0  0  0  0  0  0  0  0  0  0  0
   -2.2158   21.3005  -27.4884 H   0  0  0  0  0  0  0  0  0  0  0  0
   -0.5034   21.8431  -27.4884 H   0  0  0  0  0  0  0  0  0  0  0  0
   -4.3769   23.7210  -27.0051 H   0  0  0  0  0  0  0  0  0  0  0  0
   -4.2378   24.6204  -28.5538 H   0  0  0  0  0  0  0  0  0  0  0  0
   -4.2224   22.8242  -28.5538 H   0  0  0  0  0  0  0  0  0  0  0  0
   -0.4231   26.9971  -26.7095 H   0  0  0  0  0  0  0  0  0  0  0  0
   -0.0490   25.8613  -28.0499 H   0  0  0  0  0  0  0  0  0  0  0  0
   -1.5975   26.7717  -28.0499 H   0  0  0  0  0  0  0  0  0  0  0  0
   -2.6113   25.5982  -24.8200 H   0  0  0  0  0  0  0  0  0  0  0  0
   -2.9321   26.7149  -26.1899 H   0  0  0  0  0  0  0  0  0  0  0  0
   -3.6440   25.0657  -26.1899 H   0  0  0  0  0  0  0  0  0  0  0  0
   -0.9035   24.7721  -24.5885 H   0  0  0  0  0  0  0  0  0  0  0  0
   -0.4456   23.4723  -25.7407 H   0  0  0  0  0  0  0  0  0  0  0  0
    0.4503   25.0292  -25.7407 H   0  0  0  0  0  0  0  0  0  0  0  0
  1  2  1  0
  2  3  1  0
  3  4  1  0
  4  5  2  0
  4  6  1  0
  6  7  1  0
  7  8  1  0
  8  9  1  0
  8 10  2  0
  7 11  2  0
 11 12  1  0
 12 13  2  0
 13 14  1  0
 14 15  2  0
 15 16  1  0
 16 17  2  0
 17 18  1  0
 18 19  2  0
 19 20  1  0
 15 21  1  0
 21 22  2  0
  2 23  1  0
 23 24  1  0
 24 25  1  0
 24 26  1  0
 24 27  1  0
 27 28  1  0
 27 29  1  0
 27 30  1  0
 22  6  1  0
 22 12  1  0
 20 16  1  0
  1 31  1  0
  1 32  1  0
  1 33  1  0
  2 34  1  6
  9 35  1  0
 11 36  1  0
 13 37  1  0
 14 38  1  0
 17 39  1  0
 19 40  1  0
 21 41  1  0
 25 42  1  0
 25 43  1  0
 25 44  1  0
 26 45  1  0
 26 46  1  0
 26 47  1  0
 28 48  1  0
 28 49  1  0
 28 50  1  0
 29 51  1  0
 29 52  1  0
 29 53  1  0
 30 54  1  0
 30 55  1  0
 30 56  1  0
M  CHG  1   9  -1
M  END
>  <UniqueID>  (38) 
38

>  <SMILES>  (38) 
C[C@@H](OC(=O)n1c(C([NH-])=O)cc2ccc(-c3cnco3)cc21)O[Si](C)(C)C(C)(C)C

>  <Energy>  (38) 
106.90165437155333

>  <Genealogy>  (38) 
CC(OC(=O)n1c(C([NH-])=O)cc2ccc(-c3cnco3)cc21)O[Si](C)(C)C(C)(C)C (protonated)
C[C@@H](OC(=O)n1c(C([NH-])=O)cc2ccc(-c3cnco3)cc21)O[Si](C)(C)C(C)(C)C (chirality)
C[C@@H](OC(=O)n1c(C([NH-])=O)cc2ccc(-c3cnco3)cc21)O[Si](C)(C)C(C)(C)C (3D coordinates assigned)
C[C@@H](OC(=O)n1c(C([NH-])=O)cc2ccc(-c3cnco3)cc21)O[Si](C)(C)C(C)(C)C (optimized conformer: 106.90165437155333 kcal/mol)

>  <smiles>  (38) 
CC(OC(=O)n1c(C(N)=O)cc2ccc(-c3cnco3)cc21)O[Si](C)(C)C(C)(C)C

>  <score_type>  (38) 
oracle

>  <origin>  (38) 
adg

>  <m_score__min__energy>  (38) 
-11.59

>  <m_primary>  (38) 
energy

$$$$
38:0
     RDKit          3D

 36 37  0  0  0  0  0  0  0  0999 V2000
   -6.9930   18.3390  -32.9060 C   0  0  0  0  0  0  0  0  0  0  0  0
   -7.2000   19.7270  -32.3820 C   0  0  0  0  0  0  0  0  0  0  0  0
   -8.4950   20.3010  -32.3860 C   0  0  0  0  0  0  0  0  0  0  0  0
   -8.6950   21.6210  -31.9480 C   0  0  0  0  0  0  0  0  0  0  0  0
   -7.5840   22.3390  -31.5140 C   0  0  0  0  0  0  0  0  0  0  0  0
   -7.4850   23.6430  -31.0810 C   0  0  0  0  0  0  0  0  0  0  0  0
   -6.1300   23.8430  -30.8110 C   0  0  0  0  0  0  0  0  0  0  0  0
   -5.5570   25.1060  -30.2890 C   0  0  0  0  0  0  0  0  0  0  0  0
   -4.2380   25.5200  -30.6480 N   0  0  0  0  0  0  0  0  0  0  0  0
   -6.2370   25.8410  -29.5250 O   0  0  0  0  0  0  0  0  0  0  0  0
   -5.4260   22.7020  -31.0580 N   0  0  0  0  0  0  0  0  0  0  0  0
   -4.0090   22.5050  -30.9360 C   0  0  0  0  0  0  0  0  0  0  0  0
   -3.2200   23.2150  -31.6170 O   0  0  0  0  0  0  0  0  0  0  0  0
   -3.4550   21.5110  -29.9620 C   0  0  0  0  0  0  0  0  0  0  0  0
   -2.6900   22.3490  -28.5880 S   0  0  0  0  0  0  0  0  0  0  0  0
   -2.3530   21.3510  -27.5150 O   0  0  0  0  0  0  0  0  0  0  0  0
   -3.6320   23.3820  -28.0350 O   0  0  0  0  0  0  0  0  0  0  0  0
   -1.1970   23.1450  -29.1510 C   0  0  0  0  0  0  0  0  0  0  0  0
   -1.2750   24.6180  -28.9170 C   0  0  0  0  0  0  0  0  0  0  0  0
   -2.2320   25.2850  -29.3880 O   0  0  0  0  0  0  0  0  0  0  0  0
   -0.2630   25.2650  -28.2180 O   0  0  0  0  0  0  0  0  0  0  0  0
   -6.3260   21.7960  -31.4960 C   0  0  0  0  0  0  0  0  0  0  0  0
   -6.0940   20.4930  -31.9520 C   0  0  0  0  0  0  0  0  0  0  0  0
   -6.8888   17.6405  -32.0627 H   0  0  0  0  0  0  0  0  0  0  0  0
   -7.8574   18.0462  -33.5200 H   0  0  0  0  0  0  0  0  0  0  0  0
   -6.0808   18.3111  -33.5200 H   0  0  0  0  0  0  0  0  0  0  0  0
   -9.3526   19.7074  -32.7355 H   0  0  0  0  0  0  0  0  0  0  0  0
   -9.6979   22.0729  -31.9480 H   0  0  0  0  0  0  0  0  0  0  0  0
   -8.3010   24.3724  -30.9712 H   0  0  0  0  0  0  0  0  0  0  0  0
   -3.8630   26.4310  -30.2990 H   0  0  0  0  0  0  0  0  0  0  0  0
   -3.6080   24.9150  -31.2190 H   0  0  0  0  0  0  0  0  0  0  0  0
   -4.2713   20.8746  -29.5896 H   0  0  0  0  0  0  0  0  0  0  0  0
   -2.6986   20.8956  -30.4710 H   0  0  0  0  0  0  0  0  0  0  0  0
   -0.3375   22.7351  -28.6004 H   0  0  0  0  0  0  0  0  0  0  0  0
   -1.0773   22.9598  -30.2287 H   0  0  0  0  0  0  0  0  0  0  0  0
   -5.0762   20.0763  -31.9749 H   0  0  0  0  0  0  0  0  0  0  0  0
  1  2  1  0
  2  3  2  0
  3  4  1  0
  4  5  2  0
  5  6  1  0
  6  7  2  0
  7  8  1  0
  8  9  1  0
  8 10  2  0
  7 11  1  0
 11 12  1  0
 12 13  2  0
 12 14  1  0
 14 15  1  0
 15 16  2  0
 15 17  2  0
 15 18  1  0
 18 19  1  0
 19 20  2  0
 19 21  1  0
 11 22  1  0
 22 23  2  0
 23  2  1  0
 22  5  1  0
  1 24  1  0
  1 25  1  0
  1 26  1  0
  3 27  1  0
  4 28  1  0
  6 29  1  0
  9 30  1  0
  9 31  1  0
 14 32  1  0
 14 33  1  0
 18 34  1  0
 18 35  1  0
 23 36  1  0
M  CHG  1  21  -1
M  END
>  <UniqueID>  (39) 
39

>  <SMILES>  (39) 
Cc1ccc2cc(C(N)=O)n(C(=O)CS(=O)(=O)CC(=O)[O-])c2c1

>  <Energy>  (39) 
65.40343825077501

>  <Genealogy>  (39) 
Cc1ccc2cc(C(N)=O)n(C(=O)CS(=O)(=O)CC(=O)[O-])c2c1 (protonated)
Cc1ccc2cc(C(N)=O)n(C(=O)CS(=O)(=O)CC(=O)[O-])c2c1 (3D coordinates assigned)
Cc1ccc2cc(C(N)=O)n(C(=O)CS(=O)(=O)CC(=O)[O-])c2c1 (optimized conformer: 65.40343825077501 kcal/mol)

>  <smiles>  (39) 
Cc1ccc2cc(C(N)=O)n(C(=O)CS(=O)(=O)CC(=O)O)c2c1

>  <score_type>  (39) 
oracle

>  <origin>  (39) 
adg

>  <m_score__min__energy>  (39) 
-11.470000000000001

>  <m_primary>  (39) 
energy

$$$$
39:0
     RDKit          3D

 35 36  0  0  0  0  0  0  0  0999 V2000
   -7.2910   18.4040  -32.8570 C   0  0  0  0  0  0  0  0  0  0  0  0
   -7.4020   19.8210  -32.3790 C   0  0  0  0  0  0  0  0  0  0  0  0
   -8.6760   20.3790  -32.1050 C   0  0  0  0  0  0  0  0  0  0  0  0
   -8.7910   21.6900  -31.6120 C   0  0  0  0  0  0  0  0  0  0  0  0
   -7.6200   22.4120  -31.4000 C   0  0  0  0  0  0  0  0  0  0  0  0
   -7.4390   23.6830  -30.9000 C   0  0  0  0  0  0  0  0  0  0  0  0
   -6.0580   23.8790  -30.8810 C   0  0  0  0  0  0  0  0  0  0  0  0
   -5.4160   25.1390  -30.4510 C   0  0  0  0  0  0  0  0  0  0  0  0
   -4.0060   25.3170  -30.5510 N   0  0  0  0  0  0  0  0  0  0  0  0
   -6.1260   26.0840  -30.0150 O   0  0  0  0  0  0  0  0  0  0  0  0
   -5.4150   22.7750  -31.3510 N   0  0  0  0  0  0  0  0  0  0  0  0
   -3.9990   22.5470  -31.4210 C   0  0  0  0  0  0  0  0  0  0  0  0
   -3.4540   22.3690  -32.5440 O   0  0  0  0  0  0  0  0  0  0  0  0
   -3.1830   22.5100  -30.1940 C   0  0  0  0  0  0  0  0  0  0  0  0
   -3.3240   21.5520  -29.3850 O   0  0  0  0  0  0  0  0  0  0  0  0
   -2.2290   23.5480  -29.9190 N   0  0  0  0  0  0  0  0  0  0  0  0
   -1.3710   23.5320  -28.7360 C   0  0  0  0  0  0  0  0  0  0  0  0
   -1.1810   24.9490  -28.1920 C   0  0  0  0  0  0  0  0  0  0  0  0
   -1.2700   25.8830  -29.2340 O   0  0  0  0  0  0  0  0  0  0  0  0
   -6.3830   21.8850  -31.6620 C   0  0  0  0  0  0  0  0  0  0  0  0
   -6.2360   20.5770  -32.1350 C   0  0  0  0  0  0  0  0  0  0  0  0
   -7.2380   17.7280  -31.9909 H   0  0  0  0  0  0  0  0  0  0  0  0
   -8.1722   18.1522  -33.4654 H   0  0  0  0  0  0  0  0  0  0  0  0
   -6.3814   18.2924  -33.4654 H   0  0  0  0  0  0  0  0  0  0  0  0
   -9.5824   19.7807  -32.2798 H   0  0  0  0  0  0  0  0  0  0  0  0
   -9.7758   22.1319  -31.4002 H   0  0  0  0  0  0  0  0  0  0  0  0
   -8.2178   24.3923  -30.5832 H   0  0  0  0  0  0  0  0  0  0  0  0
   -3.4460   25.6490  -29.7340 H   0  0  0  0  0  0  0  0  0  0  0  0
   -2.1790   24.3790  -30.5510 H   0  0  0  0  0  0  0  0  0  0  0  0
   -1.8359   22.9059  -27.9602 H   0  0  0  0  0  0  0  0  0  0  0  0
   -0.3885   23.1236  -29.0150 H   0  0  0  0  0  0  0  0  0  0  0  0
   -1.9622   25.1601  -27.4469 H   0  0  0  0  0  0  0  0  0  0  0  0
   -0.1876   25.0246  -27.7257 H   0  0  0  0  0  0  0  0  0  0  0  0
   -2.1000   25.6710  -29.7350 H   0  0  0  0  0  0  0  0  0  0  0  0
   -5.2382   20.1492  -32.3120 H   0  0  0  0  0  0  0  0  0  0  0  0
  1  2  1  0
  2  3  2  0
  3  4  1  0
  4  5  2  0
  5  6  1  0
  6  7  2  0
  7  8  1  0
  8  9  1  0
  8 10  2  0
  7 11  1  0
 11 12  1  0
 12 13  2  0
 12 14  1  0
 14 15  2  0
 14 16  1  0
 16 17  1  0
 17 18  1  0
 18 19  1  0
 11 20  1  0
 20 21  2  0
 21  2  1  0
 20  5  1  0
  1 22  1  0
  1 23  1  0
  1 24  1  0
  3 25  1  0
  4 26  1  0
  6 27  1  0
  9 28  1  0
 16 29  1  0
 17 30  1  0
 17 31  1  0
 18 32  1  0
 18 33  1  0
 19 34  1  0
 21 35  1  0
M  CHG  1   9  -1
M  END
>  <UniqueID>  (40) 
40

>  <SMILES>  (40) 
Cc1ccc2cc(C([NH-])=O)n(C(=O)C(=O)NCCO)c2c1

>  <Energy>  (40) 
69.27231166140476

>  <Genealogy>  (40) 
Cc1ccc2cc(C([NH-])=O)n(C(=O)C(=O)NCCO)c2c1 (protonated)
Cc1ccc2cc(C([NH-])=O)n(C(=O)C(=O)NCCO)c2c1 (3D coordinates assigned)
Cc1ccc2cc(C([NH-])=O)n(C(=O)C(=O)NCCO)c2c1 (optimized conformer: 69.27231166140476 kcal/mol)

>  <smiles>  (40) 
Cc1ccc2cc(C(N)=O)n(C(=O)C(=O)NCCO)c2c1

>  <score_type>  (40) 
oracle

>  <origin>  (40) 
adg

>  <m_score__min__energy>  (40) 
-10.93

>  <m_primary>  (40) 
energy

$$$$
40:0
     RDKit          3D

 32 33  0  0  0  0  0  0  0  0999 V2000
   -3.8890   22.3730  -28.3580 C   0  0  0  0  0  0  0  0  0  0  0  0
   -3.2530   22.9170  -29.5620 N   0  0  0  0  0  0  0  0  0  0  0  0
   -2.1240   23.8030  -29.4280 C   0  0  0  0  0  0  0  0  0  0  0  0
   -0.9560   23.3380  -29.3350 O   0  0  0  0  0  0  0  0  0  0  0  0
   -2.3040   25.1810  -29.3790 O   0  0  0  0  0  0  0  0  0  0  0  0
   -3.8000   22.6160  -30.8600 C   0  0  0  0  0  0  0  0  0  0  0  0
   -3.0410   22.2510  -31.7980 O   0  0  0  0  0  0  0  0  0  0  0  0
   -5.2130   22.7200  -31.1000 N   0  0  0  0  0  0  0  0  0  0  0  0
   -6.0140   23.8020  -30.8920 C   0  0  0  0  0  0  0  0  0  0  0  0
   -5.5440   25.1450  -30.4800 C   0  0  0  0  0  0  0  0  0  0  0  0
   -4.1890   25.5460  -30.6940 N   0  0  0  0  0  0  0  0  0  0  0  0
   -6.3360   25.9460  -29.9160 O   0  0  0  0  0  0  0  0  0  0  0  0
   -7.3400   23.4880  -31.1940 C   0  0  0  0  0  0  0  0  0  0  0  0
   -7.3220   22.1690  -31.5870 C   0  0  0  0  0  0  0  0  0  0  0  0
   -8.3620   21.3410  -31.9960 C   0  0  0  0  0  0  0  0  0  0  0  0
   -8.0550   20.0100  -32.3280 C   0  0  0  0  0  0  0  0  0  0  0  0
   -6.7250   19.5230  -32.2190 C   0  0  0  0  0  0  0  0  0  0  0  0
   -6.4000   18.1060  -32.6150 C   0  0  0  0  0  0  0  0  0  0  0  0
   -7.5590   17.3780  -32.8230 F   0  0  0  0  0  0  0  0  0  0  0  0
   -5.6670   17.4780  -31.6240 F   0  0  0  0  0  0  0  0  0  0  0  0
   -5.6610   18.1190  -33.7830 F   0  0  0  0  0  0  0  0  0  0  0  0
   -5.6940   20.4040  -31.8200 C   0  0  0  0  0  0  0  0  0  0  0  0
   -6.0280   21.7280  -31.5170 C   0  0  0  0  0  0  0  0  0  0  0  0
   -3.4009   22.7905  -27.4650 H   0  0  0  0  0  0  0  0  0  0  0  0
   -4.9554   22.6427  -28.3529 H   0  0  0  0  0  0  0  0  0  0  0  0
   -3.7878   21.2777  -28.3529 H   0  0  0  0  0  0  0  0  0  0  0  0
   -3.8630   26.4820  -30.3650 H   0  0  0  0  0  0  0  0  0  0  0  0
   -3.5160   24.9420  -31.2140 H   0  0  0  0  0  0  0  0  0  0  0  0
   -8.2138   24.1533  -31.1313 H   0  0  0  0  0  0  0  0  0  0  0  0
   -9.3941   21.7165  -32.0578 H   0  0  0  0  0  0  0  0  0  0  0  0
   -8.8534   19.3382  -32.6760 H   0  0  0  0  0  0  0  0  0  0  0  0
   -4.6528   20.0562  -31.7494 H   0  0  0  0  0  0  0  0  0  0  0  0
  1  2  1  0
  2  3  1  0
  3  4  2  0
  3  5  1  0
  2  6  1  0
  6  7  2  0
  6  8  1  0
  8  9  1  0
  9 10  1  0
 10 11  1  0
 10 12  2  0
  9 13  2  0
 13 14  1  0
 14 15  2  0
 15 16  1  0
 16 17  2  0
 17 18  1  0
 18 19  1  0
 18 20  1  0
 18 21  1  0
 17 22  1  0
 22 23  2  0
 23  8  1  0
 23 14  1  0
  1 24  1  0
  1 25  1  0
  1 26  1  0
 11 27  1  0
 11 28  1  0
 13 29  1  0
 15 30  1  0
 16 31  1  0
 22 32  1  0
M  CHG  1   5  -1
M  END
>  <UniqueID>  (41) 
41

>  <SMILES>  (41) 
CN(C(=O)[O-])C(=O)n1c(C(N)=O)cc2ccc(C(F)(F)F)cc21

>  <Energy>  (41) 
73.40926820818116

>  <Genealogy>  (41) 
CN(C(=O)[O-])C(=O)n1c(C(N)=O)cc2ccc(C(F)(F)F)cc21 (protonated)
CN(C(=O)[O-])C(=O)n1c(C(N)=O)cc2ccc(C(F)(F)F)cc21 (3D coordinates assigned)
CN(C(=O)[O-])C(=O)n1c(C(N)=O)cc2ccc(C(F)(F)F)cc21 (optimized conformer: 73.40926820818116 kcal/mol)

>  <smiles>  (41) 
CN(C(=O)O)C(=O)n1c(C(N)=O)cc2ccc(C(F)(F)F)cc21

>  <score_type>  (41) 
oracle

>  <origin>  (41) 
adg

>  <m_score__min__energy>  (41) 
-9.8800000000000008

>  <m_primary>  (41) 
energy

$$$$
41:0
     RDKit          3D

 36 37  0  0  0  0  0  0  0  0999 V2000
   -6.5010   17.3930  -33.5540 C   0  0  0  0  0  0  0  0  0  0  0  0
   -6.4270   18.0180  -32.2270 N   0  0  0  0  0  0  0  0  0  0  0  0
   -6.0960   17.1810  -31.0670 C   0  0  0  0  0  0  0  0  0  0  0  0
   -6.6760   19.4380  -32.0650 C   0  0  0  0  0  0  0  0  0  0  0  0
   -7.8930   20.0190  -32.5230 C   0  0  0  0  0  0  0  0  0  0  0  0
   -8.1500   21.3900  -32.3590 C   0  0  0  0  0  0  0  0  0  0  0  0
   -7.1750   22.1680  -31.7460 C   0  0  0  0  0  0  0  0  0  0  0  0
   -7.1830   23.5070  -31.4320 C   0  0  0  0  0  0  0  0  0  0  0  0
   -5.9590   23.7470  -30.8140 C   0  0  0  0  0  0  0  0  0  0  0  0
   -5.5240   25.0820  -30.3570 C   0  0  0  0  0  0  0  0  0  0  0  0
   -4.1800   25.5270  -30.5410 N   0  0  0  0  0  0  0  0  0  0  0  0
   -6.3680   25.8640  -29.8420 O   0  0  0  0  0  0  0  0  0  0  0  0
   -5.2280   22.6000  -30.7370 N   0  0  0  0  0  0  0  0  0  0  0  0
   -3.9650   22.4160  -30.0760 C   0  0  0  0  0  0  0  0  0  0  0  0
   -3.9080   21.7530  -29.0060 O   0  0  0  0  0  0  0  0  0  0  0  0
   -2.7760   22.9950  -30.6270 N   0  0  0  0  0  0  0  0  0  0  0  0
   -1.4830   22.9700  -29.9550 C   0  0  0  0  0  0  0  0  0  0  0  0
   -1.1890   24.3060  -29.3520 C   0  0  0  0  0  0  0  0  0  0  0  0
   -0.0500   24.5450  -28.8700 O   0  0  0  0  0  0  0  0  0  0  0  0
   -2.1570   25.3020  -29.3540 O   0  0  0  0  0  0  0  0  0  0  0  0
   -5.9870   21.6410  -31.3150 C   0  0  0  0  0  0  0  0  0  0  0  0
   -5.7140   20.2750  -31.4420 C   0  0  0  0  0  0  0  0  0  0  0  0
   -6.6297   16.3064  -33.4409 H   0  0  0  0  0  0  0  0  0  0  0  0
   -7.3563   17.8078  -34.1075 H   0  0  0  0  0  0  0  0  0  0  0  0
   -5.5725   17.5966  -34.1075 H   0  0  0  0  0  0  0  0  0  0  0  0
   -6.3147   17.7339  -30.1415 H   0  0  0  0  0  0  0  0  0  0  0  0
   -6.6979   16.2607  -31.0952 H   0  0  0  0  0  0  0  0  0  0  0  0
   -5.0275   16.9213  -31.0952 H   0  0  0  0  0  0  0  0  0  0  0  0
   -8.6446   19.3830  -33.0136 H   0  0  0  0  0  0  0  0  0  0  0  0
   -9.0946   21.8347  -32.7053 H   0  0  0  0  0  0  0  0  0  0  0  0
   -7.9855   24.2334  -31.6275 H   0  0  0  0  0  0  0  0  0  0  0  0
   -3.8810   26.4560  -30.1690 H   0  0  0  0  0  0  0  0  0  0  0  0
   -3.5040   24.9820  -31.1200 H   0  0  0  0  0  0  0  0  0  0  0  0
   -1.5007   22.2089  -29.1610 H   0  0  0  0  0  0  0  0  0  0  0  0
   -0.7011   22.7278  -30.6898 H   0  0  0  0  0  0  0  0  0  0  0  0
   -4.7691   19.8564  -31.0652 H   0  0  0  0  0  0  0  0  0  0  0  0
  1  2  1  0
  2  3  1  0
  2  4  1  0
  4  5  2  0
  5  6  1  0
  6  7  2  0
  7  8  1  0
  8  9  2  0
  9 10  1  0
 10 11  1  0
 10 12  2  0
  9 13  1  0
 13 14  1  0
 14 15  2  0
 14 16  1  0
 16 17  1  0
 17 18  1  0
 18 19  2  0
 18 20  1  0
 13 21  1  0
 21 22  2  0
 22  4  1  0
 21  7  1  0
  1 23  1  0
  1 24  1  0
  1 25  1  0
  3 26  1  0
  3 27  1  0
  3 28  1  0
  5 29  1  0
  6 30  1  0
  8 31  1  0
 11 32  1  0
 11 33  1  0
 17 34  1  0
 17 35  1  0
 22 36  1  0
M  CHG  2  16  -1  20  -1
M  END
>  <UniqueID>  (42) 
42

>  <SMILES>  (42) 
CN(C)c1ccc2cc(C(N)=O)n(C(=O)[N-]CC(=O)[O-])c2c1

>  <Energy>  (42) 
74.2270274833225

>  <Genealogy>  (42) 
CN(C)c1ccc2cc(C(N)=O)n(C(=O)[N-]CC(=O)[O-])c2c1 (protonated)
CN(C)c1ccc2cc(C(N)=O)n(C(=O)[N-]CC(=O)[O-])c2c1 (3D coordinates assigned)
CN(C)c1ccc2cc(C(N)=O)n(C(=O)[N-]CC(=O)[O-])c2c1 (optimized conformer: 74.2270274833225 kcal/mol)

>  <smiles>  (42) 
CN(C)c1ccc2cc(C(N)=O)n(C(=O)NCC(=O)O)c2c1

>  <score_type>  (42) 
oracle

>  <origin>  (42) 
adg

>  <m_score__min__energy>  (42) 
-10.800000000000001

>  <m_primary>  (42) 
energy

$$$$
42:0
     RDKit          3D

 24 25  0  0  0  0  0  0  0  0999 V2000
   -3.8710   25.6450  -30.8430 N   0  0  0  0  0  0  0  0  0  0  0  0
   -5.1920   25.3020  -30.4320 C   0  0  0  0  0  0  0  0  0  0  0  0
   -5.8320   26.0900  -29.6870 O   0  0  0  0  0  0  0  0  0  0  0  0
   -5.7800   24.0130  -30.8480 C   0  0  0  0  0  0  0  0  0  0  0  0
   -7.1470   23.8090  -31.0270 C   0  0  0  0  0  0  0  0  0  0  0  0
   -7.2650   22.5230  -31.5060 C   0  0  0  0  0  0  0  0  0  0  0  0
   -8.4000   21.7930  -31.8430 C   0  0  0  0  0  0  0  0  0  0  0  0
   -8.2250   20.4720  -32.2870 C   0  0  0  0  0  0  0  0  0  0  0  0
   -6.9270   19.9100  -32.4000 C   0  0  0  0  0  0  0  0  0  0  0  0
   -6.7570   18.4720  -32.8230 C   0  0  0  0  0  0  0  0  0  0  0  0
   -7.9530   17.7860  -32.7120 F   0  0  0  0  0  0  0  0  0  0  0  0
   -6.3350   18.3960  -34.1390 F   0  0  0  0  0  0  0  0  0  0  0  0
   -5.8140   17.8680  -32.0120 F   0  0  0  0  0  0  0  0  0  0  0  0
   -5.8000   20.6780  -32.0260 C   0  0  0  0  0  0  0  0  0  0  0  0
   -6.0050   21.9950  -31.6000 C   0  0  0  0  0  0  0  0  0  0  0  0
   -5.0830   22.8940  -31.1930 N   0  0  0  0  0  0  0  0  0  0  0  0
   -3.6700   22.6630  -31.0870 C   0  0  0  0  0  0  0  0  0  0  0  0
   -3.0230   23.1450  -30.1210 O   0  0  0  0  0  0  0  0  0  0  0  0
   -2.7900   21.7600  -32.3760 S   0  0  0  0  0  0  0  0  0  0  0  0
   -3.0380   25.2880  -30.3240 H   0  0  0  0  0  0  0  0  0  0  0  0
   -7.9594   24.5235  -30.8280 H   0  0  0  0  0  0  0  0  0  0  0  0
   -9.4035   22.2365  -31.7642 H   0  0  0  0  0  0  0  0  0  0  0  0
   -9.1045   19.8660  -32.5502 H   0  0  0  0  0  0  0  0  0  0  0  0
   -4.7873   20.2507  -32.0689 H   0  0  0  0  0  0  0  0  0  0  0  0
  1  2  1  0
  2  3  2  0
  2  4  1  0
  4  5  2  0
  5  6  1  0
  6  7  2  0
  7  8  1  0
  8  9  2  0
  9 10  1  0
 10 11  1  0
 10 12  1  0
 10 13  1  0
  9 14  1  0
 14 15  2  0
 15 16  1  0
 16 17  1  0
 17 18  2  0
 17 19  1  0
 16  4  1  0
 15  6  1  0
  1 20  1  0
  5 21  1  0
  7 22  1  0
  8 23  1  0
 14 24  1  0
M  CHG  2   1  -1  19  -1
M  END
>  <UniqueID>  (43) 
43

>  <SMILES>  (43) 
[NH-]C(=O)c1cc2ccc(C(F)(F)F)cc2n1C(=O)[S-]

>  <Energy>  (43) 
65.4860906202045

>  <Genealogy>  (43) 
[NH-]C(=O)c1cc2ccc(C(F)(F)F)cc2n1C(=O)[S-] (protonated)
[NH-]C(=O)c1cc2ccc(C(F)(F)F)cc2n1C(=O)[S-] (3D coordinates assigned)
[NH-]C(=O)c1cc2ccc(C(F)(F)F)cc2n1C(=O)[S-] (optimized conformer: 65.4860906202045 kcal/mol)

>  <smiles>  (43) 
NC(=O)c1cc2ccc(C(F)(F)F)cc2n1C(=O)S

>  <score_type>  (43) 
oracle

>  <origin>  (43) 
adg

>  <m_score__min__energy>  (43) 
-9.5099999999999998

>  <m_primary>  (43) 
energy

$$$$
43:0
     RDKit          3D

 41 42  0  0  0  0  0  0  0  0999 V2000
   -2.0270   19.9480  -33.2060 C   0  0  0  0  0  0  0  0  0  0  0  0
   -2.8710   19.1320  -34.1770 C   0  0  0  0  0  0  0  0  0  0  0  0
   -3.5610   18.0070  -33.4640 C   0  0  0  0  0  0  0  0  0  0  0  0
   -2.8830   17.0390  -33.0270 O   0  0  0  0  0  0  0  0  0  0  0  0
   -4.9770   18.0460  -33.2310 N   0  0  0  0  0  0  0  0  0  0  0  0
   -5.9010   17.1120  -33.5930 C   0  0  0  0  0  0  0  0  0  0  0  0
   -5.5920   15.8050  -34.2200 C   0  0  0  0  0  0  0  0  0  0  0  0
   -4.3580   15.5930  -34.9080 N   0  0  0  0  0  0  0  0  0  0  0  0
   -6.4290   14.8650  -34.1650 O   0  0  0  0  0  0  0  0  0  0  0  0
   -7.1820   17.5360  -33.2380 C   0  0  0  0  0  0  0  0  0  0  0  0
   -7.0110   18.7700  -32.6520 C   0  0  0  0  0  0  0  0  0  0  0  0
   -7.9520   19.6550  -32.1320 C   0  0  0  0  0  0  0  0  0  0  0  0
   -7.4900   20.8800  -31.6200 C   0  0  0  0  0  0  0  0  0  0  0  0
   -6.1110   21.1940  -31.6470 C   0  0  0  0  0  0  0  0  0  0  0  0
   -5.6520   22.4560  -31.1330 C   0  0  0  0  0  0  0  0  0  0  0  0
   -5.2650   23.5140  -30.7030 C   0  0  0  0  0  0  0  0  0  0  0  0
   -4.7940   24.8100  -30.1770 C   0  0  2  0  0  0  0  0  0  0  0  0
   -6.0070   25.7090  -29.8760 C   0  0  0  0  0  0  0  0  0  0  0  0
   -3.9550   25.4250  -31.1260 O   0  0  0  0  0  0  0  0  0  0  0  0
   -3.9840   24.5520  -28.8910 C   0  0  0  0  0  0  0  0  0  0  0  0
   -2.7270   25.1750  -28.9500 O   0  0  0  0  0  0  0  0  0  0  0  0
   -5.1850   20.2770  -32.1820 C   0  0  0  0  0  0  0  0  0  0  0  0
   -5.6700   19.0570  -32.6650 C   0  0  0  0  0  0  0  0  0  0  0  0
   -2.2991   19.6849  -32.1732 H   0  0  0  0  0  0  0  0  0  0  0  0
   -0.9620   19.7284  -33.3719 H   0  0  0  0  0  0  0  0  0  0  0  0
   -2.2105   21.0198  -33.3719 H   0  0  0  0  0  0  0  0  0  0  0  0
   -3.6269   19.7861  -34.6361 H   0  0  0  0  0  0  0  0  0  0  0  0
   -2.2118   18.7095  -34.9496 H   0  0  0  0  0  0  0  0  0  0  0  0
   -4.1720   14.6780  -35.3750 H   0  0  0  0  0  0  0  0  0  0  0  0
   -3.6080   16.3180  -34.9230 H   0  0  0  0  0  0  0  0  0  0  0  0
   -8.1287   16.9979  -33.3935 H   0  0  0  0  0  0  0  0  0  0  0  0
   -9.0228   19.4035  -32.1222 H   0  0  0  0  0  0  0  0  0  0  0  0
   -8.2058   21.5993  -31.1954 H   0  0  0  0  0  0  0  0  0  0  0  0
   -6.1330   25.8024  -28.7872 H   0  0  0  0  0  0  0  0  0  0  0  0
   -5.8426   26.7051  -30.3128 H   0  0  0  0  0  0  0  0  0  0  0  0
   -6.9121   25.2619  -30.3128 H   0  0  0  0  0  0  0  0  0  0  0  0
   -3.1080   25.6770  -30.6720 H   0  0  0  0  0  0  0  0  0  0  0  0
   -4.5414   24.9492  -28.0299 H   0  0  0  0  0  0  0  0  0  0  0  0
   -3.8312   23.4677  -28.7868 H   0  0  0  0  0  0  0  0  0  0  0  0
   -2.8720   26.0750  -29.3420 H   0  0  0  0  0  0  0  0  0  0  0  0
   -4.1114   20.5135  -32.2189 H   0  0  0  0  0  0  0  0  0  0  0  0
  1  2  1  0
  2  3  1  0
  3  4  2  0
  3  5  1  0
  5  6  1  0
  6  7  1  0
  7  8  1  0
  7  9  2  0
  6 10  2  0
 10 11  1  0
 11 12  2  0
 12 13  1  0
 13 14  2  0
 14 15  1  0
 15 16  3  0
 17 16  1  6
 17 18  1  0
 17 19  1  0
 17 20  1  0
 20 21  1  0
 14 22  1  0
 22 23  2  0
 23  5  1  0
 23 11  1  0
  1 24  1  0
  1 25  1  0
  1 26  1  0
  2 27  1  0
  2 28  1  0
  8 29  1  0
  8 30  1  0
 10 31  1  0
 12 32  1  0
 13 33  1  0
 18 34  1  0
 18 35  1  0
 18 36  1  0
 19 37  1  0
 20 38  1  0
 20 39  1  0
 21 40  1  0
 22 41  1  0
M  END
>  <UniqueID>  (44) 
44

>  <SMILES>  (44) 
CCC(=O)n1c(C(N)=O)cc2ccc(C#C[C@](C)(O)CO)cc21

>  <Energy>  (44) 
70.31636310443615

>  <Genealogy>  (44) 
CCC(=O)n1c(C(N)=O)cc2ccc(C#C[C@](C)(O)CO)cc21 (3D coordinates assigned)
CCC(=O)n1c(C(N)=O)cc2ccc(C#C[C@](C)(O)CO)cc21 (optimized conformer: 70.31636310443615 kcal/mol)

>  <smiles>  (44) 
CCC(=O)n1c(C(N)=O)cc2ccc(C#C[C@](C)(O)CO)cc21

>  <score_type>  (44) 
oracle

>  <origin>  (44) 
adg

>  <m_score__min__energy>  (44) 
-8.4900000000000002

>  <m_primary>  (44) 
energy

$$$$
44:0
     RDKit          3D

 58 61  0  0  0  0  0  0  0  0999 V2000
   -2.7900   12.6320  -32.4660 C   0  0  0  0  0  0  0  0  0  0  0  0
   -3.9660   13.5930  -32.2340 C   0  0  0  0  0  0  0  0  0  0  0  0
   -4.5840   13.3090  -30.8480 C   0  0  0  0  0  0  0  0  0  0  0  0
   -5.0090   13.3780  -33.3520 C   0  0  0  0  0  0  0  0  0  0  0  0
   -3.4370   14.9290  -32.2840 O   0  0  0  0  0  0  0  0  0  0  0  0
   -3.5020   15.8070  -33.3810 C   0  0  0  0  0  0  0  0  0  0  0  0
   -2.7110   15.6740  -34.3570 O   0  0  0  0  0  0  0  0  0  0  0  0
   -4.4860   16.8600  -33.3900 N   0  0  0  0  0  0  0  0  0  0  0  0
   -4.3360   17.9950  -34.3120 C   0  0  0  0  0  0  0  0  0  0  0  0
   -5.6930   18.5550  -34.7860 C   0  0  0  0  0  0  0  0  0  0  0  0
   -6.8380   18.5340  -33.7410 C   0  0  0  0  0  0  0  0  0  0  0  0
   -6.9510   19.8030  -32.9040 C   0  0  0  0  0  0  0  0  0  0  0  0
   -8.2070   20.3670  -32.5390 C   0  0  0  0  0  0  0  0  0  0  0  0
   -8.2730   21.5420  -31.7710 C   0  0  0  0  0  0  0  0  0  0  0  0
   -7.0790   22.1490  -31.4000 C   0  0  0  0  0  0  0  0  0  0  0  0
   -6.8530   23.2920  -30.6690 C   0  0  0  0  0  0  0  0  0  0  0  0
   -5.4670   23.4390  -30.6220 C   0  0  0  0  0  0  0  0  0  0  0  0
   -4.7840   24.5960  -30.0010 C   0  0  0  0  0  0  0  0  0  0  0  0
   -3.8640   25.3710  -30.7720 N   0  0  0  0  0  0  0  0  0  0  0  0
   -4.9960   24.9080  -28.7960 O   0  0  0  0  0  0  0  0  0  0  0  0
   -4.8610   22.4250  -31.3080 N   0  0  0  0  0  0  0  0  0  0  0  0
   -3.4470   22.2380  -31.5040 C   0  0  0  0  0  0  0  0  0  0  0  0
   -2.6440   23.1490  -31.1590 O   0  0  0  0  0  0  0  0  0  0  0  0
   -2.9570   21.0370  -32.1230 N   0  0  0  0  0  0  0  0  0  0  0  0
   -1.7830   21.0270  -32.9480 C   0  0  0  0  0  0  0  0  0  0  0  0
   -0.5930   21.5410  -32.5700 N   0  0  0  0  0  0  0  0  0  0  0  0
    0.1560   21.4460  -33.6240 O   0  0  0  0  0  0  0  0  0  0  0  0
   -0.5400   20.9110  -34.5950 C   0  0  0  0  0  0  0  0  0  0  0  0
   -0.0770   20.6960  -35.7460 O   0  0  0  0  0  0  0  0  0  0  0  0
   -1.8020   20.6130  -34.2340 N   0  0  0  0  0  0  0  0  0  0  0  0
   -5.8600   21.6450  -31.7740 C   0  0  0  0  0  0  0  0  0  0  0  0
   -5.7620   20.4690  -32.5250 C   0  0  0  0  0  0  0  0  0  0  0  0
   -6.8370   17.2650  -32.8670 C   0  0  0  0  0  0  0  0  0  0  0  0
   -5.4580   16.9650  -32.2950 C   0  0  0  0  0  0  0  0  0  0  0  0
   -2.3881   12.3035  -31.4962 H   0  0  0  0  0  0  0  0  0  0  0  0
   -3.1383   11.7567  -33.0340 H   0  0  0  0  0  0  0  0  0  0  0  0
   -2.0016   13.1477  -33.0340 H   0  0  0  0  0  0  0  0  0  0  0  0
   -3.8848   13.6303  -30.0620 H   0  0  0  0  0  0  0  0  0  0  0  0
   -5.5288   13.8633  -30.7473 H   0  0  0  0  0  0  0  0  0  0  0  0
   -4.7787   12.2311  -30.7473 H   0  0  0  0  0  0  0  0  0  0  0  0
   -5.9922   13.1753  -32.9022 H   0  0  0  0  0  0  0  0  0  0  0  0
   -5.0703   14.2824  -33.9751 H   0  0  0  0  0  0  0  0  0  0  0  0
   -4.7076   12.5231  -33.9751 H   0  0  0  0  0  0  0  0  0  0  0  0
   -3.7839   18.7959  -33.7985 H   0  0  0  0  0  0  0  0  0  0  0  0
   -3.7948   17.6352  -35.1995 H   0  0  0  0  0  0  0  0  0  0  0  0
   -5.5372   19.5995  -35.0939 H   0  0  0  0  0  0  0  0  0  0  0  0
   -6.0208   17.8907  -35.5992 H   0  0  0  0  0  0  0  0  0  0  0  0
   -7.7536   18.5031  -34.3498 H   0  0  0  0  0  0  0  0  0  0  0  0
   -9.1370   19.8766  -32.8624 H   0  0  0  0  0  0  0  0  0  0  0  0
   -9.2417   21.9690  -31.4721 H   0  0  0  0  0  0  0  0  0  0  0  0
   -7.6076   23.9520  -30.2162 H   0  0  0  0  0  0  0  0  0  0  0  0
   -2.8340   25.2810  -30.6180 H   0  0  0  0  0  0  0  0  0  0  0  0
   -3.5830   20.1990  -32.1510 H   0  0  0  0  0  0  0  0  0  0  0  0
   -4.7790   20.0697  -32.8153 H   0  0  0  0  0  0  0  0  0  0  0  0
   -7.5429   17.4065  -32.0354 H   0  0  0  0  0  0  0  0  0  0  0  0
   -7.1327   16.4164  -33.5013 H   0  0  0  0  0  0  0  0  0  0  0  0
   -5.1585   17.7765  -31.6155 H   0  0  0  0  0  0  0  0  0  0  0  0
   -5.4897   16.0154  -31.7407 H   0  0  0  0  0  0  0  0  0  0  0  0
  1  2  1  0
  2  3  1  0
  2  4  1  0
  2  5  1  0
  5  6  1  0
  6  7  2  0
  6  8  1  0
  8  9  1  0
  9 10  1  0
 10 11  1  0
 11 12  1  0
 12 13  2  0
 13 14  1  0
 14 15  2  0
 15 16  1  0
 16 17  2  0
 17 18  1  0
 18 19  1  0
 18 20  2  0
 17 21  1  0
 21 22  1  0
 22 23  2  0
 22 24  1  0
 24 25  1  0
 25 26  2  0
 26 27  1  0
 27 28  1  0
 28 29  2  0
 28 30  1  0
 21 31  1  0
 31 32  2  0
 11 33  1  0
 33 34  1  0
 34  8  1  0
 32 12  1  0
 31 15  1  0
 30 25  1  0
  1 35  1  0
  1 36  1  0
  1 37  1  0
  3 38  1  0
  3 39  1  0
  3 40  1  0
  4 41  1  0
  4 42  1  0
  4 43  1  0
  9 44  1  0
  9 45  1  0
 10 46  1  0
 10 47  1  0
 11 48  1  0
 13 49  1  0
 14 50  1  0
 16 51  1  0
 19 52  1  0
 24 53  1  0
 32 54  1  0
 33 55  1  0
 33 56  1  0
 34 57  1  0
 34 58  1  0
M  CHG  2  19  -1  30  -1
M  END
>  <UniqueID>  (45) 
45

>  <SMILES>  (45) 
CC(C)(C)OC(=O)N1CCC(c2ccc3cc(C([NH-])=O)n(C(=O)Nc4noc(=O)[n-]4)c3c2)CC1

>  <Energy>  (45) 
136.23940374920568

>  <Genealogy>  (45) 
CC(C)(C)OC(=O)N1CCC(c2ccc3cc(C([NH-])=O)n(C(=O)Nc4noc(=O)[n-]4)c3c2)CC1 (protonated)
CC(C)(C)OC(=O)N1CCC(c2ccc3cc(C([NH-])=O)n(C(=O)Nc4noc(=O)[n-]4)c3c2)CC1 (3D coordinates assigned)
CC(C)(C)OC(=O)N1CCC(c2ccc3cc(C([NH-])=O)n(C(=O)Nc4noc(=O)[n-]4)c3c2)CC1 (nonaromatic ring conformer: 136.23940374920568 kcal/mol)

>  <smiles>  (45) 
CC(C)(C)OC(=O)N1CCC(c2ccc3cc(C(N)=O)n(C(=O)Nc4noc(=O)[nH]4)c3c2)CC1

>  <score_type>  (45) 
oracle

>  <origin>  (45) 
adg

>  <m_score__min__energy>  (45) 
-12.720000000000001

>  <m_primary>  (45) 
energy

$$$$
45:0
     RDKit          3D

 44 46  0  0  0  0  0  0  0  0999 V2000
   -4.2480   22.4040  -28.2580 C   0  0  0  0  0  0  0  0  0  0  0  0
   -3.0290   22.3540  -29.0720 N   0  0  0  0  0  0  0  0  0  0  0  0
   -1.7200   22.3830  -28.4100 C   0  0  0  0  0  0  0  0  0  0  0  0
   -0.9420   23.6840  -28.7070 C   0  0  1  0  0  0  0  0  0  0  0  0
   -0.8470   23.8730  -30.1000 O   0  0  0  0  0  0  0  0  0  0  0  0
   -1.5820   24.9250  -28.0520 C   0  0  0  0  0  0  0  0  0  0  0  0
   -1.6170   26.0070  -28.9450 O   0  0  0  0  0  0  0  0  0  0  0  0
   -3.1060   22.2780  -30.5060 C   0  0  0  0  0  0  0  0  0  0  0  0
   -2.0600   22.0570  -31.1760 O   0  0  0  0  0  0  0  0  0  0  0  0
   -4.3670   22.3910  -31.1800 N   0  0  0  0  0  0  0  0  0  0  0  0
   -5.2040   23.4620  -31.2090 C   0  0  0  0  0  0  0  0  0  0  0  0
   -4.9400   24.7710  -30.5850 C   0  0  0  0  0  0  0  0  0  0  0  0
   -3.6200   25.2980  -30.5160 N   0  0  0  0  0  0  0  0  0  0  0  0
   -5.8970   25.4320  -30.1110 O   0  0  0  0  0  0  0  0  0  0  0  0
   -6.4190   23.1180  -31.7960 C   0  0  0  0  0  0  0  0  0  0  0  0
   -6.2930   21.7900  -32.1430 C   0  0  0  0  0  0  0  0  0  0  0  0
   -7.2130   20.9200  -32.7190 C   0  0  0  0  0  0  0  0  0  0  0  0
   -6.8260   19.5840  -32.9110 C   0  0  0  0  0  0  0  0  0  0  0  0
   -5.5310   19.1410  -32.5290 C   0  0  0  0  0  0  0  0  0  0  0  0
   -5.1130   17.7320  -32.7220 C   0  0  0  0  0  0  0  0  0  0  0  0
   -4.2270   17.2330  -33.6620 C   0  0  0  0  0  0  0  0  0  0  0  0
   -4.1470   15.9030  -33.4850 N   0  0  0  0  0  0  0  0  0  0  0  0
   -4.9750   15.6310  -32.4590 C   0  0  0  0  0  0  0  0  0  0  0  0
   -5.5520   16.7200  -32.0020 O   0  0  0  0  0  0  0  0  0  0  0  0
   -4.6320   20.0560  -31.9400 C   0  0  0  0  0  0  0  0  0  0  0  0
   -5.0480   21.3790  -31.7620 C   0  0  0  0  0  0  0  0  0  0  0  0
   -3.9776   22.3929  -27.1918 H   0  0  0  0  0  0  0  0  0  0  0  0
   -4.8035   23.3257  -28.4858 H   0  0  0  0  0  0  0  0  0  0  0  0
   -4.8771   21.5309  -28.4858 H   0  0  0  0  0  0  0  0  0  0  0  0
   -1.8711   22.3013  -27.3235 H   0  0  0  0  0  0  0  0  0  0  0  0
   -1.1280   21.5408  -28.7975 H   0  0  0  0  0  0  0  0  0  0  0  0
    0.0607   23.5703  -28.2691 H   0  0  0  0  0  0  0  0  0  0  0  0
   -1.7330   24.1920  -30.4200 H   0  0  0  0  0  0  0  0  0  0  0  0
   -2.6093   24.6794  -27.7449 H   0  0  0  0  0  0  0  0  0  0  0  0
   -0.9755   25.2114  -27.1802 H   0  0  0  0  0  0  0  0  0  0  0  0
   -2.0160   25.6720  -29.7900 H   0  0  0  0  0  0  0  0  0  0  0  0
   -2.8240   24.7130  -30.1850 H   0  0  0  0  0  0  0  0  0  0  0  0
   -7.2932   23.7677  -31.9500 H   0  0  0  0  0  0  0  0  0  0  0  0
   -8.2135   21.2682  -33.0151 H   0  0  0  0  0  0  0  0  0  0  0  0
   -7.5332   18.8724  -33.3621 H   0  0  0  0  0  0  0  0  0  0  0  0
   -3.6855   17.8201  -34.4183 H   0  0  0  0  0  0  0  0  0  0  0  0
   -3.5730   15.2250  -34.0320 H   0  0  0  0  0  0  0  0  0  0  0  0
   -5.1472   14.6230  -32.0536 H   0  0  0  0  0  0  0  0  0  0  0  0
   -3.6270   19.7355  -31.6281 H   0  0  0  0  0  0  0  0  0  0  0  0
  1  2  1  0
  2  3  1  0
  3  4  1  0
  4  5  1  0
  4  6  1  0
  6  7  1  0
  2  8  1  0
  8  9  2  0
  8 10  1  0
 10 11  1  0
 11 12  1  0
 12 13  1  0
 12 14  2  0
 11 15  2  0
 15 16  1  0
 16 17  2  0
 17 18  1  0
 18 19  2  0
 19 20  1  0
 20 21  2  0
 21 22  1  0
 22 23  2  0
 23 24  1  0
 19 25  1  0
 25 26  2  0
 26 10  1  0
 26 16  1  0
 24 20  1  0
  1 27  1  0
  1 28  1  0
  1 29  1  0
  3 30  1  0
  3 31  1  0
  4 32  1  1
  5 33  1  0
  6 34  1  0
  6 35  1  0
  7 36  1  0
 13 37  1  0
 15 38  1  0
 17 39  1  0
 18 40  1  0
 21 41  1  0
 22 42  1  0
 23 43  1  0
 25 44  1  0
M  CHG  2  13  -1  22   1
M  END
>  <UniqueID>  (46) 
46

>  <SMILES>  (46) 
CN(C[C@@H](O)CO)C(=O)n1c(C([NH-])=O)cc2ccc(-c3c[nH+]co3)cc21

>  <Energy>  (46) 
118.46024640317496

>  <Genealogy>  (46) 
CN(C[C@@H](O)CO)C(=O)n1c(C([NH-])=O)cc2ccc(-c3c[nH+]co3)cc21 (protonated)
CN(C[C@@H](O)CO)C(=O)n1c(C([NH-])=O)cc2ccc(-c3c[nH+]co3)cc21 (3D coordinates assigned)
CN(C[C@@H](O)CO)C(=O)n1c(C([NH-])=O)cc2ccc(-c3c[nH+]co3)cc21 (optimized conformer: 118.46024640317496 kcal/mol)

>  <smiles>  (46) 
CN(C[C@@H](O)CO)C(=O)n1c(C(N)=O)cc2ccc(-c3cnco3)cc21

>  <score_type>  (46) 
oracle

>  <origin>  (46) 
adg

>  <m_score__min__energy>  (46) 
-9.6199999999999992

>  <m_primary>  (46) 
energy

$$$$
46:0
     RDKit          3D

 45 46  0  0  0  0  0  0  0  0999 V2000
   -2.9510   20.7410  -32.1990 C   0  0  0  0  0  0  0  0  0  0  0  0
   -3.3390   22.0000  -32.3190 C   0  0  0  0  0  0  0  0  0  0  0  0
   -3.8920   22.7440  -31.1780 C   0  0  0  0  0  0  0  0  0  0  0  0
   -3.1100   23.1190  -30.2630 O   0  0  0  0  0  0  0  0  0  0  0  0
   -5.3060   23.0020  -31.0640 N   0  0  0  0  0  0  0  0  0  0  0  0
   -5.9130   24.1930  -30.7910 C   0  0  0  0  0  0  0  0  0  0  0  0
   -5.2330   25.4560  -30.4560 C   0  0  0  0  0  0  0  0  0  0  0  0
   -3.8900   25.6580  -30.8650 N   0  0  0  0  0  0  0  0  0  0  0  0
   -5.8320   26.3610  -29.8110 O   0  0  0  0  0  0  0  0  0  0  0  0
   -7.2890   24.0590  -30.8240 C   0  0  0  0  0  0  0  0  0  0  0  0
   -7.5180   22.7310  -31.1090 C   0  0  0  0  0  0  0  0  0  0  0  0
   -8.7150   22.0450  -31.2660 C   0  0  0  0  0  0  0  0  0  0  0  0
   -8.6560   20.6790  -31.5780 C   0  0  0  0  0  0  0  0  0  0  0  0
   -7.4070   20.0080  -31.7210 C   0  0  0  0  0  0  0  0  0  0  0  0
   -7.3380   18.5180  -32.0860 C   0  0  0  0  0  0  0  0  0  0  0  0
   -6.4120   17.8110  -31.0790 C   0  0  0  0  0  0  0  0  0  0  0  0
   -8.7390   17.8690  -32.0200 C   0  0  0  0  0  0  0  0  0  0  0  0
   -6.8150   18.3200  -33.5010 C   0  0  0  0  0  0  0  0  0  0  0  0
   -6.6380   19.3220  -34.2430 O   0  0  0  0  0  0  0  0  0  0  0  0
   -6.5210   17.0350  -33.9700 O   0  0  0  0  0  0  0  0  0  0  0  0
   -5.3400   16.3210  -33.6250 C   0  0  1  0  0  0  0  0  0  0  0  0
   -5.3760   14.9140  -34.2190 C   0  0  0  0  0  0  0  0  0  0  0  0
   -4.1630   17.0850  -34.1550 C   0  0  0  0  0  0  0  0  0  0  0  0
   -3.0710   17.0880  -33.5300 O   0  0  0  0  0  0  0  0  0  0  0  0
   -4.2720   17.8020  -35.3390 O   0  0  0  0  0  0  0  0  0  0  0  0
   -6.2160   20.7670  -31.6080 C   0  0  0  0  0  0  0  0  0  0  0  0
   -6.3080   22.1160  -31.2570 C   0  0  0  0  0  0  0  0  0  0  0  0
   -2.5405   20.2067  -33.0685 H   0  0  0  0  0  0  0  0  0  0  0  0
   -3.0389   20.2284  -31.2297 H   0  0  0  0  0  0  0  0  0  0  0  0
   -3.2458   22.5011  -33.2938 H   0  0  0  0  0  0  0  0  0  0  0  0
   -3.0950   25.2880  -30.2930 H   0  0  0  0  0  0  0  0  0  0  0  0
   -8.0403   24.8452  -30.6581 H   0  0  0  0  0  0  0  0  0  0  0  0
   -9.6811   22.5579  -31.1491 H   0  0  0  0  0  0  0  0  0  0  0  0
   -9.5907   20.1154  -31.7148 H   0  0  0  0  0  0  0  0  0  0  0  0
   -6.7305   18.0542  -30.0546 H   0  0  0  0  0  0  0  0  0  0  0  0
   -6.4670   16.7230  -31.2315 H   0  0  0  0  0  0  0  0  0  0  0  0
   -5.3770   18.1507  -31.2315 H   0  0  0  0  0  0  0  0  0  0  0  0
   -9.0312   17.7336  -30.9682 H   0  0  0  0  0  0  0  0  0  0  0  0
   -9.4690   18.5207  -32.5224 H   0  0  0  0  0  0  0  0  0  0  0  0
   -8.7140   16.8908  -32.5224 H   0  0  0  0  0  0  0  0  0  0  0  0
   -5.2633   16.2208  -32.5323 H   0  0  0  0  0  0  0  0  0  0  0  0
   -5.3950   14.1732  -33.4061 H   0  0  0  0  0  0  0  0  0  0  0  0
   -6.2773   14.8008  -34.8393 H   0  0  0  0  0  0  0  0  0  0  0  0
   -4.4816   14.7549  -34.8393 H   0  0  0  0  0  0  0  0  0  0  0  0
   -5.2363   20.3023  -31.7933 H   0  0  0  0  0  0  0  0  0  0  0  0
  1  2  2  0
  2  3  1  0
  3  4  2  0
  3  5  1  0
  5  6  1  0
  6  7  1  0
  7  8  1  0
  7  9  2  0
  6 10  2  0
 10 11  1  0
 11 12  2  0
 12 13  1  0
 13 14  2  0
 14 15  1  0
 15 16  1  0
 15 17  1  0
 15 18  1  0
 18 19  2  0
 18 20  1  0
 20 21  1  0
 21 22  1  0
 21 23  1  0
 23 24  2  0
 23 25  1  0
 14 26  1  0
 26 27  2  0
 27  5  1  0
 27 11  1  0
  1 28  1  0
  1 29  1  0
  2 30  1  0
  8 31  1  0
 10 32  1  0
 12 33  1  0
 13 34  1  0
 16 35  1  0
 16 36  1  0
 16 37  1  0
 17 38  1  0
 17 39  1  0
 17 40  1  0
 21 41  1  1
 22 42  1  0
 22 43  1  0
 22 44  1  0
 26 45  1  0
M  CHG  2   8  -1  25  -1
M  END
>  <UniqueID>  (47) 
47

>  <SMILES>  (47) 
C=CC(=O)n1c(C([NH-])=O)cc2ccc(C(C)(C)C(=O)O[C@@H](C)C(=O)[O-])cc21

>  <Energy>  (47) 
87.28718658413557

>  <Genealogy>  (47) 
C=CC(=O)n1c(C([NH-])=O)cc2ccc(C(C)(C)C(=O)OC(C)C(=O)[O-])cc21 (protonated)
C=CC(=O)n1c(C([NH-])=O)cc2ccc(C(C)(C)C(=O)O[C@@H](C)C(=O)[O-])cc21 (chirality)
C=CC(=O)n1c(C([NH-])=O)cc2ccc(C(C)(C)C(=O)O[C@@H](C)C(=O)[O-])cc21 (3D coordinates assigned)
C=CC(=O)n1c(C([NH-])=O)cc2ccc(C(C)(C)C(=O)O[C@@H](C)C(=O)[O-])cc21 (optimized conformer: 87.28718658413557 kcal/mol)

>  <smiles>  (47) 
C=CC(=O)n1c(C(N)=O)cc2ccc(C(C)(C)C(=O)OC(C)C(=O)O)cc21

>  <score_type>  (47) 
oracle

>  <origin>  (47) 
adg

>  <m_score__min__energy>  (47) 
-10.640000000000001

>  <m_primary>  (47) 
energy

$$$$
47:0
     RDKit          3D

 47 50  0  0  0  0  0  0  0  0999 V2000
   -4.2220   22.7170  -28.1950 C   0  0  0  0  0  0  0  0  0  0  0  0
   -2.8530   22.5490  -28.8890 C   0  0  0  0  0  0  0  0  0  0  0  0
   -2.5080   21.0410  -29.0210 C   0  0  0  0  0  0  0  0  0  0  0  0
   -2.9000   23.1510  -30.1920 O   0  0  0  0  0  0  0  0  0  0  0  0
   -3.6270   22.6930  -31.3030 C   0  0  0  0  0  0  0  0  0  0  0  0
   -3.0540   22.0960  -32.2530 O   0  0  0  0  0  0  0  0  0  0  0  0
   -5.0490   22.8840  -31.3390 N   0  0  0  0  0  0  0  0  0  0  0  0
   -5.7560   23.9520  -30.8730 C   0  0  0  0  0  0  0  0  0  0  0  0
   -5.1850   25.2280  -30.3990 C   0  0  0  0  0  0  0  0  0  0  0  0
   -3.8970   25.6570  -30.8340 N   0  0  0  0  0  0  0  0  0  0  0  0
   -5.8620   25.9740  -29.6420 O   0  0  0  0  0  0  0  0  0  0  0  0
   -7.1250   23.7150  -30.9760 C   0  0  0  0  0  0  0  0  0  0  0  0
   -7.2370   22.4610  -31.5330 C   0  0  0  0  0  0  0  0  0  0  0  0
   -8.3710   21.7180  -31.8440 C   0  0  0  0  0  0  0  0  0  0  0  0
   -8.1890   20.4310  -32.3780 C   0  0  0  0  0  0  0  0  0  0  0  0
   -6.8880   19.9060  -32.5830 C   0  0  0  0  0  0  0  0  0  0  0  0
   -6.7340   18.5410  -33.1350 C   0  0  0  0  0  0  0  0  0  0  0  0
   -5.8430   18.1190  -34.1050 C   0  0  0  0  0  0  0  0  0  0  0  0
   -6.1180   16.7760  -34.2470 C   0  0  0  0  0  0  0  0  0  0  0  0
   -7.1130   16.4340  -33.4060 N   0  0  0  0  0  0  0  0  0  0  0  0
   -7.4550   17.5090  -32.7610 O   0  0  0  0  0  0  0  0  0  0  0  0
   -5.7590   20.6940  -32.2530 C   0  0  0  0  0  0  0  0  0  0  0  0
   -5.9700   21.9790  -31.7400 C   0  0  0  0  0  0  0  0  0  0  0  0
   -1.7960   23.3630  -28.0750 C   0  0  0  0  0  0  0  0  0  0  0  0
   -0.8520   24.2820  -28.8580 C   0  0  0  0  0  0  0  0  0  0  0  0
   -1.3950   25.4830  -28.0940 C   0  0  0  0  0  0  0  0  0  0  0  0
   -2.3200   24.5720  -27.2970 C   0  0  0  0  0  0  0  0  0  0  0  0
   -4.0844   22.7001  -27.1038 H   0  0  0  0  0  0  0  0  0  0  0  0
   -4.6690   23.6767  -28.4934 H   0  0  0  0  0  0  0  0  0  0  0  0
   -4.8878   21.8938  -28.4934 H   0  0  0  0  0  0  0  0  0  0  0  0
   -2.4069   20.5989  -28.0188 H   0  0  0  0  0  0  0  0  0  0  0  0
   -3.3119   20.5275  -29.5688 H   0  0  0  0  0  0  0  0  0  0  0  0
   -1.5608   20.9281  -29.5688 H   0  0  0  0  0  0  0  0  0  0  0  0
   -3.0290   25.2930  -30.3810 H   0  0  0  0  0  0  0  0  0  0  0  0
   -7.9426   24.3870  -30.6760 H   0  0  0  0  0  0  0  0  0  0  0  0
   -9.3791   22.1253  -31.6771 H   0  0  0  0  0  0  0  0  0  0  0  0
   -9.0673   19.8229  -32.6404 H   0  0  0  0  0  0  0  0  0  0  0  0
   -5.0897   18.7166  -34.6392 H   0  0  0  0  0  0  0  0  0  0  0  0
   -5.6055   16.0910  -34.9385 H   0  0  0  0  0  0  0  0  0  0  0  0
   -4.7400   20.3054  -32.3964 H   0  0  0  0  0  0  0  0  0  0  0  0
   -1.3900   22.4872  -27.5475 H   0  0  0  0  0  0  0  0  0  0  0  0
    0.2158   24.0835  -28.6839 H   0  0  0  0  0  0  0  0  0  0  0  0
   -0.8505   24.2743  -29.9580 H   0  0  0  0  0  0  0  0  0  0  0  0
   -0.6422   26.0019  -27.4824 H   0  0  0  0  0  0  0  0  0  0  0  0
   -1.8043   26.3463  -28.6392 H   0  0  0  0  0  0  0  0  0  0  0  0
   -2.1018   24.5418  -26.2193 H   0  0  0  0  0  0  0  0  0  0  0  0
   -3.3994   24.7784  -27.2483 H   0  0  0  0  0  0  0  0  0  0  0  0
  1  2  1  0
  2  3  1  0
  2  4  1  0
  4  5  1  0
  5  6  2  0
  5  7  1  0
  7  8  1  0
  8  9  1  0
  9 10  1  0
  9 11  2  0
  8 12  2  0
 12 13  1  0
 13 14  2  0
 14 15  1  0
 15 16  2  0
 16 17  1  0
 17 18  2  0
 18 19  1  0
 19 20  2  0
 20 21  1  0
 16 22  1  0
 22 23  2  0
  2 24  1  0
 24 25  1  0
 25 26  1  0
 26 27  1  0
 23  7  1  0
 27 24  1  0
 23 13  1  0
 21 17  1  0
  1 28  1  0
  1 29  1  0
  1 30  1  0
  3 31  1  0
  3 32  1  0
  3 33  1  0
 10 34  1  0
 12 35  1  0
 14 36  1  0
 15 37  1  0
 18 38  1  0
 19 39  1  0
 22 40  1  0
 24 41  1  0
 25 42  1  0
 25 43  1  0
 26 44  1  0
 26 45  1  0
 27 46  1  0
 27 47  1  0
M  CHG  1  10  -1
M  END
>  <UniqueID>  (48) 
48

>  <SMILES>  (48) 
CC(C)(OC(=O)n1c(C([NH-])=O)cc2ccc(-c3ccno3)cc21)C1CCC1

>  <Energy>  (48) 
180.94091371500755

>  <Genealogy>  (48) 
CC(C)(OC(=O)n1c(C([NH-])=O)cc2ccc(-c3ccno3)cc21)C1CCC1 (protonated)
CC(C)(OC(=O)n1c(C([NH-])=O)cc2ccc(-c3ccno3)cc21)C1CCC1 (3D coordinates assigned)
CC(C)(OC(=O)n1c(C([NH-])=O)cc2ccc(-c3ccno3)cc21)C1CCC1 (nonaromatic ring conformer: 180.94091371500755 kcal/mol)

>  <smiles>  (48) 
CC(C)(OC(=O)n1c(C(N)=O)cc2ccc(-c3ccno3)cc21)C1CCC1

>  <score_type>  (48) 
oracle

>  <origin>  (48) 
adg

>  <m_score__min__energy>  (48) 
-11.880000000000001

>  <m_primary>  (48) 
energy

$$$$
48:0
     RDKit          3D

 44 45  0  0  0  0  0  0  0  0999 V2000
   -6.1370   17.1440  -31.1270 C   0  0  0  0  0  0  0  0  0  0  0  0
   -6.5030   18.0280  -32.2410 N   0  0  0  0  0  0  0  0  0  0  0  0
   -6.5300   17.4620  -33.5990 C   0  0  0  0  0  0  0  0  0  0  0  0
   -5.6270   18.2690  -34.5370 C   0  0  0  0  0  0  0  0  0  0  0  0
   -3.9060   18.0090  -34.1410 S   0  0  0  0  0  0  0  0  0  0  0  0
   -3.1470   19.5730  -33.7670 C   0  0  0  0  0  0  0  0  0  0  0  0
   -3.2030   17.3840  -35.3130 O   0  0  0  0  0  0  0  0  0  0  0  0
   -3.7900   17.1020  -32.9470 O   0  0  0  0  0  0  0  0  0  0  0  0
   -6.7870   19.4300  -31.9970 C   0  0  0  0  0  0  0  0  0  0  0  0
   -8.1180   19.9300  -32.0700 C   0  0  0  0  0  0  0  0  0  0  0  0
   -8.3980   21.2840  -31.8230 C   0  0  0  0  0  0  0  0  0  0  0  0
   -7.3360   22.1260  -31.5210 C   0  0  0  0  0  0  0  0  0  0  0  0
   -7.3350   23.4610  -31.1860 C   0  0  0  0  0  0  0  0  0  0  0  0
   -6.0000   23.7780  -30.9470 C   0  0  0  0  0  0  0  0  0  0  0  0
   -5.5420   25.1260  -30.5510 C   0  0  0  0  0  0  0  0  0  0  0  0
   -4.1790   25.5230  -30.7040 N   0  0  0  0  0  0  0  0  0  0  0  0
   -6.3790   25.9590  -30.1110 O   0  0  0  0  0  0  0  0  0  0  0  0
   -5.2060   22.6850  -31.1270 N   0  0  0  0  0  0  0  0  0  0  0  0
   -3.7980   22.5810  -30.8540 C   0  0  0  0  0  0  0  0  0  0  0  0
   -3.0070   22.2610  -31.7840 O   0  0  0  0  0  0  0  0  0  0  0  0
   -3.2560   22.8470  -29.4800 C   0  0  0  0  0  0  0  0  0  0  0  0
   -2.1020   23.7970  -29.5420 C   0  0  0  0  0  0  0  0  0  0  0  0
   -0.9450   23.3720  -29.8050 O   0  0  0  0  0  0  0  0  0  0  0  0
   -2.3090   25.1560  -29.3480 O   0  0  0  0  0  0  0  0  0  0  0  0
   -6.0420   21.6780  -31.4710 C   0  0  0  0  0  0  0  0  0  0  0  0
   -5.7370   20.3290  -31.6790 C   0  0  0  0  0  0  0  0  0  0  0  0
   -6.3466   17.6502  -30.1731 H   0  0  0  0  0  0  0  0  0  0  0  0
   -6.7250   16.2162  -31.1867 H   0  0  0  0  0  0  0  0  0  0  0  0
   -5.0653   16.9034  -31.1867 H   0  0  0  0  0  0  0  0  0  0  0  0
   -6.1766   16.4209  -33.5639 H   0  0  0  0  0  0  0  0  0  0  0  0
   -7.5615   17.5008  -33.9791 H   0  0  0  0  0  0  0  0  0  0  0  0
   -5.8100   17.9522  -35.5744 H   0  0  0  0  0  0  0  0  0  0  0  0
   -5.8587   19.3375  -34.4159 H   0  0  0  0  0  0  0  0  0  0  0  0
   -3.0857   19.6993  -32.6760 H   0  0  0  0  0  0  0  0  0  0  0  0
   -2.1349   19.6015  -34.1968 H   0  0  0  0  0  0  0  0  0  0  0  0
   -3.7509   20.3857  -34.1968 H   0  0  0  0  0  0  0  0  0  0  0  0
   -8.9403   19.2449  -32.3239 H   0  0  0  0  0  0  0  0  0  0  0  0
   -9.4285   21.6662  -31.8675 H   0  0  0  0  0  0  0  0  0  0  0  0
   -8.2029   24.1337  -31.1209 H   0  0  0  0  0  0  0  0  0  0  0  0
   -3.8640   26.4580  -30.3590 H   0  0  0  0  0  0  0  0  0  0  0  0
   -3.5040   24.9380  -31.2420 H   0  0  0  0  0  0  0  0  0  0  0  0
   -4.0502   23.2837  -28.8567 H   0  0  0  0  0  0  0  0  0  0  0  0
   -2.9096   21.8973  -29.0463 H   0  0  0  0  0  0  0  0  0  0  0  0
   -4.7000   19.9712  -31.5973 H   0  0  0  0  0  0  0  0  0  0  0  0
  1  2  1  0
  2  3  1  0
  3  4  1  0
  4  5  1  0
  5  6  1  0
  5  7  2  0
  5  8  2  0
  2  9  1  0
  9 10  2  0
 10 11  1  0
 11 12  2  0
 12 13  1  0
 13 14  2  0
 14 15  1  0
 15 16  1  0
 15 17  2  0
 14 18  1  0
 18 19  1  0
 19 20  2  0
 19 21  1  0
 21 22  1  0
 22 23  2  0
 22 24  1  0
 18 25  1  0
 25 26  2  0
 26  9  1  0
 25 12  1  0
  1 27  1  0
  1 28  1  0
  1 29  1  0
  3 30  1  0
  3 31  1  0
  4 32  1  0
  4 33  1  0
  6 34  1  0
  6 35  1  0
  6 36  1  0
 10 37  1  0
 11 38  1  0
 13 39  1  0
 16 40  1  0
 16 41  1  0
 21 42  1  0
 21 43  1  0
 26 44  1  0
M  CHG  1  24  -1
M  END
>  <UniqueID>  (49) 
49

>  <SMILES>  (49) 
CN(CCS(C)(=O)=O)c1ccc2cc(C(N)=O)n(C(=O)CC(=O)[O-])c2c1

>  <Energy>  (49) 
75.02413659753805

>  <Genealogy>  (49) 
CN(CCS(C)(=O)=O)c1ccc2cc(C(N)=O)n(C(=O)CC(=O)[O-])c2c1 (protonated)
CN(CCS(C)(=O)=O)c1ccc2cc(C(N)=O)n(C(=O)CC(=O)[O-])c2c1 (3D coordinates assigned)
CN(CCS(C)(=O)=O)c1ccc2cc(C(N)=O)n(C(=O)CC(=O)[O-])c2c1 (optimized conformer: 75.02413659753805 kcal/mol)

>  <smiles>  (49) 
CN(CCS(C)(=O)=O)c1ccc2cc(C(N)=O)n(C(=O)CC(=O)O)c2c1

>  <score_type>  (49) 
oracle

>  <origin>  (49) 
adg

>  <m_score__min__energy>  (49) 
-10.74

>  <m_primary>  (49) 
energy

$$$$
49:0
     RDKit          3D

 43 45  0  0  0  0  0  0  0  0999 V2000
   -2.0350   24.9250  -27.6900 C   0  0  0  0  0  0  0  0  0  0  0  0
   -2.3770   24.9150  -29.0580 O   0  0  0  0  0  0  0  0  0  0  0  0
   -1.7910   23.8030  -29.7110 C   0  0  0  0  0  0  0  0  0  0  0  0
   -2.2540   22.5060  -29.0530 C   0  0  0  0  0  0  0  0  0  0  0  0
   -3.6100   22.2510  -29.4000 O   0  0  0  0  0  0  0  0  0  0  0  0
   -4.1080   22.4090  -30.6950 C   0  0  0  0  0  0  0  0  0  0  0  0
   -3.3170   22.5010  -31.6730 O   0  0  0  0  0  0  0  0  0  0  0  0
   -5.5280   22.4580  -30.9110 N   0  0  0  0  0  0  0  0  0  0  0  0
   -6.3790   23.4820  -30.6170 C   0  0  0  0  0  0  0  0  0  0  0  0
   -6.0340   24.7070  -29.8680 C   0  0  0  0  0  0  0  0  0  0  0  0
   -4.8590   24.7720  -29.0590 N   0  0  0  0  0  0  0  0  0  0  0  0
   -6.8190   25.6920  -29.8970 O   0  0  0  0  0  0  0  0  0  0  0  0
   -7.6650   23.2010  -31.0700 C   0  0  0  0  0  0  0  0  0  0  0  0
   -7.5820   21.9520  -31.6440 C   0  0  0  0  0  0  0  0  0  0  0  0
   -8.5670   21.1820  -32.2530 C   0  0  0  0  0  0  0  0  0  0  0  0
   -8.1950   19.9360  -32.7850 C   0  0  0  0  0  0  0  0  0  0  0  0
   -6.8500   19.4940  -32.7180 C   0  0  0  0  0  0  0  0  0  0  0  0
   -6.4550   18.1800  -33.2760 C   0  0  0  0  0  0  0  0  0  0  0  0
   -7.2030   17.0220  -33.1920 C   0  0  0  0  0  0  0  0  0  0  0  0
   -6.4440   16.0680  -33.8380 C   0  0  0  0  0  0  0  0  0  0  0  0
   -5.2940   16.6200  -34.2720 N   0  0  0  0  0  0  0  0  0  0  0  0
   -5.3000   17.8970  -33.9220 N   0  0  0  0  0  0  0  0  0  0  0  0
   -4.1860   18.7980  -34.2000 C   0  0  0  0  0  0  0  0  0  0  0  0
   -5.8800   20.2990  -32.0810 C   0  0  0  0  0  0  0  0  0  0  0  0
   -6.2830   21.5250  -31.5370 C   0  0  0  0  0  0  0  0  0  0  0  0
   -2.9517   24.8982  -27.0827 H   0  0  0  0  0  0  0  0  0  0  0  0
   -1.4170   24.0445  -27.4601 H   0  0  0  0  0  0  0  0  0  0  0  0
   -1.4695   25.8401  -27.4601 H   0  0  0  0  0  0  0  0  0  0  0  0
   -2.0919   23.8020  -30.7690 H   0  0  0  0  0  0  0  0  0  0  0  0
   -0.6961   23.8755  -29.6339 H   0  0  0  0  0  0  0  0  0  0  0  0
   -1.6245   21.6740  -29.4015 H   0  0  0  0  0  0  0  0  0  0  0  0
   -2.1687   22.6006  -27.9604 H   0  0  0  0  0  0  0  0  0  0  0  0
   -4.2810   23.9210  -28.8780 H   0  0  0  0  0  0  0  0  0  0  0  0
   -4.6110   25.6580  -28.5660 H   0  0  0  0  0  0  0  0  0  0  0  0
   -8.5566   23.8399  -30.9872 H   0  0  0  0  0  0  0  0  0  0  0  0
   -9.6060   21.5377  -32.3163 H   0  0  0  0  0  0  0  0  0  0  0  0
   -8.9552   19.2971  -33.2582 H   0  0  0  0  0  0  0  0  0  0  0  0
   -8.1857   16.8897  -32.7158 H   0  0  0  0  0  0  0  0  0  0  0  0
   -6.7338   15.0161  -33.9776 H   0  0  0  0  0  0  0  0  0  0  0  0
   -3.7525   19.1486  -33.2517 H   0  0  0  0  0  0  0  0  0  0  0  0
   -3.4181   18.2639  -34.7789 H   0  0  0  0  0  0  0  0  0  0  0  0
   -4.5477   19.6606  -34.7789 H   0  0  0  0  0  0  0  0  0  0  0  0
   -4.8323   19.9707  -32.0137 H   0  0  0  0  0  0  0  0  0  0  0  0
  1  2  1  0
  2  3  1  0
  3  4  1  0
  4  5  1  0
  5  6  1  0
  6  7  2  0
  6  8  1  0
  8  9  1  0
  9 10  1  0
 10 11  1  0
 10 12  2  0
  9 13  2  0
 13 14  1  0
 14 15  2  0
 15 16  1  0
 16 17  2  0
 17 18  1  0
 18 19  2  0
 19 20  1  0
 20 21  2  0
 21 22  1  0
 22 23  1  0
 17 24  1  0
 24 25  2  0
 25  8  1  0
 25 14  1  0
 22 18  1  0
  1 26  1  0
  1 27  1  0
  1 28  1  0
  3 29  1  0
  3 30  1  0
  4 31  1  0
  4 32  1  0
 11 33  1  0
 11 34  1  0
 13 35  1  0
 15 36  1  0
 16 37  1  0
 19 38  1  0
 20 39  1  0
 23 40  1  0
 23 41  1  0
 23 42  1  0
 24 43  1  0
M  END
>  <UniqueID>  (50) 
50

>  <SMILES>  (50) 
COCCOC(=O)n1c(C(N)=O)cc2ccc(-c3ccnn3C)cc21

>  <Energy>  (50) 
115.40581405795864

>  <Genealogy>  (50) 
COCCOC(=O)n1c(C(N)=O)cc2ccc(-c3ccnn3C)cc21 (3D coordinates assigned)
COCCOC(=O)n1c(C(N)=O)cc2ccc(-c3ccnn3C)cc21 (optimized conformer: 115.40581405795864 kcal/mol)

>  <smiles>  (50) 
COCCOC(=O)n1c(C(N)=O)cc2ccc(-c3ccnn3C)cc21

>  <score_type>  (50) 
oracle

>  <origin>  (50) 
adg

>  <m_score__min__energy>  (50) 
-8.9600000000000009

>  <m_primary>  (50) 
energy

$$$$
50:0
     RDKit          3D

 43 45  0  0  0  0  0  0  0  0999 V2000
   -3.9250   18.9260  -33.8220 C   0  0  0  0  0  0  0  0  0  0  0  0
   -4.3580   17.5370  -33.9440 N   0  0  0  0  0  0  0  0  0  0  0  0
   -3.7920   16.5880  -34.7140 C   0  0  0  0  0  0  0  0  0  0  0  0
   -4.4120   15.3940  -34.6040 N   0  0  0  0  0  0  0  0  0  0  0  0
   -5.4040   15.6090  -33.7160 C   0  0  0  0  0  0  0  0  0  0  0  0
   -5.3640   16.9220  -33.2960 C   0  0  0  0  0  0  0  0  0  0  0  0
   -6.3100   17.5710  -32.3200 C   0  0  0  0  0  0  0  0  0  0  0  0
   -7.1490   18.5650  -32.9920 N   0  0  0  0  0  0  0  0  0  0  0  0
   -7.3070   19.9260  -32.5460 C   0  0  0  0  0  0  0  0  0  0  0  0
   -8.6110   20.4640  -32.4110 C   0  0  0  0  0  0  0  0  0  0  0  0
   -8.8070   21.7690  -31.9290 C   0  0  0  0  0  0  0  0  0  0  0  0
   -7.6830   22.5190  -31.6010 C   0  0  0  0  0  0  0  0  0  0  0  0
   -7.5860   23.7760  -31.0460 C   0  0  0  0  0  0  0  0  0  0  0  0
   -6.2210   24.0020  -30.8850 C   0  0  0  0  0  0  0  0  0  0  0  0
   -5.6580   25.2520  -30.3340 C   0  0  0  0  0  0  0  0  0  0  0  0
   -4.2700   25.5610  -30.4630 N   0  0  0  0  0  0  0  0  0  0  0  0
   -6.4260   26.0830  -29.7810 O   0  0  0  0  0  0  0  0  0  0  0  0
   -5.5030   22.9290  -31.3190 N   0  0  0  0  0  0  0  0  0  0  0  0
   -4.0910   22.7090  -31.1820 C   0  0  0  0  0  0  0  0  0  0  0  0
   -3.4410   22.1810  -32.1260 O   0  0  0  0  0  0  0  0  0  0  0  0
   -3.4460   23.0640  -29.9920 O   0  0  0  0  0  0  0  0  0  0  0  0
   -2.0390   22.9330  -29.7990 C   0  0  0  0  0  0  0  0  0  0  0  0
   -1.4510   24.2350  -29.3550 C   0  0  0  0  0  0  0  0  0  0  0  0
   -2.1540   25.2800  -29.3520 O   0  0  0  0  0  0  0  0  0  0  0  0
   -0.1260   24.2960  -28.9450 O   0  0  0  0  0  0  0  0  0  0  0  0
   -6.4130   22.0300  -31.7530 C   0  0  0  0  0  0  0  0  0  0  0  0
   -6.1880   20.7300  -32.2170 C   0  0  0  0  0  0  0  0  0  0  0  0
   -3.8421   19.1921  -32.7579 H   0  0  0  0  0  0  0  0  0  0  0  0
   -2.9459   19.0489  -34.3081 H   0  0  0  0  0  0  0  0  0  0  0  0
   -4.6608   19.5835  -34.3081 H   0  0  0  0  0  0  0  0  0  0  0  0
   -2.9206   16.7662  -35.3612 H   0  0  0  0  0  0  0  0  0  0  0  0
   -6.1310   14.8552  -33.3795 H   0  0  0  0  0  0  0  0  0  0  0  0
   -6.9534   16.7986  -31.8734 H   0  0  0  0  0  0  0  0  0  0  0  0
   -5.7207   18.0760  -31.5404 H   0  0  0  0  0  0  0  0  0  0  0  0
   -7.6890   18.2490  -33.8300 H   0  0  0  0  0  0  0  0  0  0  0  0
   -9.4818   19.8514  -32.6874 H   0  0  0  0  0  0  0  0  0  0  0  0
   -9.8189   22.1848  -31.8146 H   0  0  0  0  0  0  0  0  0  0  0  0
   -8.4104   24.4561  -30.7856 H   0  0  0  0  0  0  0  0  0  0  0  0
   -3.8830   26.4250  -30.0230 H   0  0  0  0  0  0  0  0  0  0  0  0
   -3.6410   24.9860  -31.0670 H   0  0  0  0  0  0  0  0  0  0  0  0
   -1.8479   22.1684  -29.0317 H   0  0  0  0  0  0  0  0  0  0  0  0
   -1.5739   22.6371  -30.7509 H   0  0  0  0  0  0  0  0  0  0  0  0
   -5.1649   20.3405  -32.3241 H   0  0  0  0  0  0  0  0  0  0  0  0
  1  2  1  0
  2  3  1  0
  3  4  2  0
  4  5  1  0
  5  6  2  0
  6  7  1  0
  7  8  1  0
  8  9  1  0
  9 10  2  0
 10 11  1  0
 11 12  2  0
 12 13  1  0
 13 14  2  0
 14 15  1  0
 15 16  1  0
 15 17  2  0
 14 18  1  0
 18 19  1  0
 19 20  2  0
 19 21  1  0
 21 22  1  0
 22 23  1  0
 23 24  2  0
 23 25  1  0
 18 26  1  0
 26 27  2  0
  6  2  1  0
 27  9  1  0
 26 12  1  0
  1 28  1  0
  1 29  1  0
  1 30  1  0
  3 31  1  0
  5 32  1  0
  7 33  1  0
  7 34  1  0
  8 35  1  0
 10 36  1  0
 11 37  1  0
 13 38  1  0
 16 39  1  0
 16 40  1  0
 22 41  1  0
 22 42  1  0
 27 43  1  0
M  CHG  1  25  -1
M  END
>  <UniqueID>  (51) 
51

>  <SMILES>  (51) 
Cn1cncc1CNc1ccc2cc(C(N)=O)n(C(=O)OCC(=O)[O-])c2c1

>  <Energy>  (51) 
108.35025868245637

>  <Genealogy>  (51) 
Cn1cncc1CNc1ccc2cc(C(N)=O)n(C(=O)OCC(=O)[O-])c2c1 (protonated)
Cn1cncc1CNc1ccc2cc(C(N)=O)n(C(=O)OCC(=O)[O-])c2c1 (3D coordinates assigned)
Cn1cncc1CNc1ccc2cc(C(N)=O)n(C(=O)OCC(=O)[O-])c2c1 (optimized conformer: 108.35025868245637 kcal/mol)

>  <smiles>  (51) 
Cn1cncc1CNc1ccc2cc(C(N)=O)n(C(=O)OCC(=O)O)c2c1

>  <score_type>  (51) 
oracle

>  <origin>  (51) 
adg

>  <m_score__min__energy>  (51) 
-11.23

>  <m_primary>  (51) 
energy

$$$$
51:0
     RDKit          3D

 48 49  0  0  0  0  0  0  0  0999 V2000
   -3.1360   15.7800  -35.8150 C   0  0  0  0  0  0  0  0  0  0  0  0
   -3.6510   17.0500  -35.4260 O   0  0  0  0  0  0  0  0  0  0  0  0
   -3.0890   17.8020  -34.3880 C   0  0  0  0  0  0  0  0  0  0  0  0
   -2.8550   19.0330  -34.5370 O   0  0  0  0  0  0  0  0  0  0  0  0
   -2.7240   17.1370  -33.0990 C   0  0  0  0  0  0  0  0  0  0  0  0
   -3.7500   16.2200  -32.7210 O   0  0  0  0  0  0  0  0  0  0  0  0
   -5.1020   16.5800  -32.6330 C   0  0  0  0  0  0  0  0  0  0  0  0
   -5.6840   16.5960  -31.5070 O   0  0  0  0  0  0  0  0  0  0  0  0
   -5.8180   16.9510  -33.8290 N   0  0  1  0  0  0  0  0  0  0  0  0
   -6.8490   15.9510  -34.1550 C   0  0  0  0  0  0  0  0  0  0  0  0
   -6.4040   18.2680  -33.6620 C   0  0  0  0  0  0  0  0  0  0  0  0
   -6.0900   19.1830  -34.4150 O   0  0  0  0  0  0  0  0  0  0  0  0
   -7.4110   18.5370  -32.5660 C   0  0  0  0  0  0  0  0  0  0  0  0
   -7.4280   20.0000  -32.2010 C   0  0  0  0  0  0  0  0  0  0  0  0
   -8.6570   20.7060  -32.1790 C   0  0  0  0  0  0  0  0  0  0  0  0
   -8.7020   22.0570  -31.7950 C   0  0  0  0  0  0  0  0  0  0  0  0
   -7.5040   22.6730  -31.4390 C   0  0  0  0  0  0  0  0  0  0  0  0
   -7.2670   23.9600  -31.0120 C   0  0  0  0  0  0  0  0  0  0  0  0
   -5.8920   24.0290  -30.7950 C   0  0  0  0  0  0  0  0  0  0  0  0
   -5.1940   25.2760  -30.4170 C   0  0  0  0  0  0  0  0  0  0  0  0
   -3.8610   25.5300  -30.8510 N   0  0  0  0  0  0  0  0  0  0  0  0
   -5.8010   26.1520  -29.7450 O   0  0  0  0  0  0  0  0  0  0  0  0
   -5.3030   22.8300  -31.0700 N   0  0  0  0  0  0  0  0  0  0  0  0
   -3.9200   22.4740  -30.9050 C   0  0  0  0  0  0  0  0  0  0  0  0
   -3.2100   23.0900  -30.0630 O   0  0  0  0  0  0  0  0  0  0  0  0
   -3.3640   21.4620  -31.6930 O   0  0  0  0  0  0  0  0  0  0  0  0
   -3.2840   21.5490  -33.1130 C   0  0  0  0  0  0  0  0  0  0  0  0
   -6.3040   22.0090  -31.4650 C   0  0  0  0  0  0  0  0  0  0  0  0
   -6.2330   20.6560  -31.8240 C   0  0  0  0  0  0  0  0  0  0  0  0
   -2.8970   15.1907  -34.9174 H   0  0  0  0  0  0  0  0  0  0  0  0
   -3.8890   15.2468  -36.4140 H   0  0  0  0  0  0  0  0  0  0  0  0
   -2.2243   15.9219  -36.4140 H   0  0  0  0  0  0  0  0  0  0  0  0
   -1.7761   16.5932  -33.2242 H   0  0  0  0  0  0  0  0  0  0  0  0
   -2.6123   17.9006  -32.3151 H   0  0  0  0  0  0  0  0  0  0  0  0
   -5.1360   16.9660  -34.6250 H   0  0  0  0  0  0  0  0  0  0  0  0
   -7.2704   15.5422  -33.2248 H   0  0  0  0  0  0  0  0  0  0  0  0
   -7.6486   16.4267  -34.7418 H   0  0  0  0  0  0  0  0  0  0  0  0
   -6.3980   15.1373  -34.7418 H   0  0  0  0  0  0  0  0  0  0  0  0
   -8.4113   18.2408  -32.9148 H   0  0  0  0  0  0  0  0  0  0  0  0
   -7.1275   17.9552  -31.6765 H   0  0  0  0  0  0  0  0  0  0  0  0
   -9.5856   20.1907  -32.4656 H   0  0  0  0  0  0  0  0  0  0  0  0
   -9.6524   22.6104  -31.7761 H   0  0  0  0  0  0  0  0  0  0  0  0
   -8.0056   24.7630  -30.8719 H   0  0  0  0  0  0  0  0  0  0  0  0
   -3.0420   25.2640  -30.2580 H   0  0  0  0  0  0  0  0  0  0  0  0
   -2.5639   22.3322  -33.3924 H   0  0  0  0  0  0  0  0  0  0  0  0
   -2.9521   20.5831  -33.5214 H   0  0  0  0  0  0  0  0  0  0  0  0
   -4.2743   21.7989  -33.5214 H   0  0  0  0  0  0  0  0  0  0  0  0
   -5.2733   20.1186  -31.8128 H   0  0  0  0  0  0  0  0  0  0  0  0
  1  2  1  0
  2  3  1  0
  3  4  2  0
  3  5  1  0
  5  6  1  0
  6  7  1  0
  7  8  2  0
  7  9  1  0
  9 10  1  0
  9 11  1  0
 11 12  2  0
 11 13  1  0
 13 14  1  0
 14 15  2  0
 15 16  1  0
 16 17  2  0
 17 18  1  0
 18 19  2  0
 19 20  1  0
 20 21  1  0
 20 22  2  0
 19 23  1  0
 23 24  1  0
 24 25  2  0
 24 26  1  0
 26 27  1  0
 23 28  1  0
 28 29  2  0
 29 14  1  0
 28 17  1  0
  1 30  1  0
  1 31  1  0
  1 32  1  0
  5 33  1  0
  5 34  1  0
  9 35  1  6
 10 36  1  0
 10 37  1  0
 10 38  1  0
 13 39  1  0
 13 40  1  0
 15 41  1  0
 16 42  1  0
 18 43  1  0
 21 44  1  0
 27 45  1  0
 27 46  1  0
 27 47  1  0
 29 48  1  0
M  CHG  2   9   1  21  -1
M  END
>  <UniqueID>  (52) 
52

>  <SMILES>  (52) 
COC(=O)COC(=O)[NH+](C)C(=O)Cc1ccc2cc(C([NH-])=O)n(C(=O)OC)c2c1

>  <Energy>  (52) 
77.7936075836266

>  <Genealogy>  (52) 
COC(=O)COC(=O)[NH+](C)C(=O)Cc1ccc2cc(C([NH-])=O)n(C(=O)OC)c2c1 (protonated)
COC(=O)COC(=O)[NH+](C)C(=O)Cc1ccc2cc(C([NH-])=O)n(C(=O)OC)c2c1 (3D coordinates assigned)
COC(=O)COC(=O)[NH+](C)C(=O)Cc1ccc2cc(C([NH-])=O)n(C(=O)OC)c2c1 (optimized conformer: 77.7936075836266 kcal/mol)

>  <smiles>  (52) 
COC(=O)COC(=O)N(C)C(=O)Cc1ccc2cc(C(N)=O)n(C(=O)OC)c2c1

>  <score_type>  (52) 
oracle

>  <origin>  (52) 
adg

>  <m_score__min__energy>  (52) 
-9.2400000000000002

>  <m_primary>  (52) 
energy

$$$$
52:0
     RDKit          3D

 36 37  0  0  0  0  0  0  0  0999 V2000
   -6.1320   15.5120  -33.8540 C   0  0  0  0  0  0  0  0  0  0  0  0
   -5.9060   16.6930  -34.6140 O   0  0  0  0  0  0  0  0  0  0  0  0
   -6.1080   17.9730  -34.0920 C   0  0  0  0  0  0  0  0  0  0  0  0
   -6.1080   18.9840  -34.8450 O   0  0  0  0  0  0  0  0  0  0  0  0
   -6.2750   18.1460  -32.6170 C   0  0  0  0  0  0  0  0  0  0  0  0
   -6.5460   19.5890  -32.2970 C   0  0  0  0  0  0  0  0  0  0  0  0
   -7.8640   20.1020  -32.3890 C   0  0  0  0  0  0  0  0  0  0  0  0
   -8.1330   21.4440  -32.0720 C   0  0  0  0  0  0  0  0  0  0  0  0
   -7.0730   22.2400  -31.6500 C   0  0  0  0  0  0  0  0  0  0  0  0
   -7.0500   23.5700  -31.3010 C   0  0  0  0  0  0  0  0  0  0  0  0
   -5.7250   23.8420  -30.9660 C   0  0  0  0  0  0  0  0  0  0  0  0
   -5.2680   25.1490  -30.4480 C   0  0  0  0  0  0  0  0  0  0  0  0
   -4.0050   25.6700  -30.8540 N   0  0  0  0  0  0  0  0  0  0  0  0
   -5.9960   25.8290  -29.6790 O   0  0  0  0  0  0  0  0  0  0  0  0
   -4.9570   22.7250  -31.1080 N   0  0  0  0  0  0  0  0  0  0  0  0
   -3.5360   22.6080  -30.9350 C   0  0  0  0  0  0  0  0  0  0  0  0
   -2.8720   21.8460  -31.6890 O   0  0  0  0  0  0  0  0  0  0  0  0
   -2.8930   23.3570  -29.9430 O   0  0  0  0  0  0  0  0  0  0  0  0
   -1.5310   23.1580  -29.5700 C   0  0  0  0  0  0  0  0  0  0  0  0
   -0.9220   24.4470  -29.1220 C   0  0  0  0  0  0  0  0  0  0  0  0
    0.2280   24.4620  -28.6090 O   0  0  0  0  0  0  0  0  0  0  0  0
   -1.6130   25.6390  -29.2960 O   0  0  0  0  0  0  0  0  0  0  0  0
   -5.7970   21.7520  -31.5260 C   0  0  0  0  0  0  0  0  0  0  0  0
   -5.4960   20.4240  -31.8530 C   0  0  0  0  0  0  0  0  0  0  0  0
   -6.0861   15.7518  -32.7814 H   0  0  0  0  0  0  0  0  0  0  0  0
   -7.1245   15.1043  -34.0964 H   0  0  0  0  0  0  0  0  0  0  0  0
   -5.3602   14.7667  -34.0964 H   0  0  0  0  0  0  0  0  0  0  0  0
   -7.1192   17.5313  -32.2713 H   0  0  0  0  0  0  0  0  0  0  0  0
   -5.3516   17.8304  -32.1093 H   0  0  0  0  0  0  0  0  0  0  0  0
   -8.6838   19.4434  -32.7116 H   0  0  0  0  0  0  0  0  0  0  0  0
   -9.1508   21.8529  -32.1550 H   0  0  0  0  0  0  0  0  0  0  0  0
   -7.8979   24.2707  -31.2889 H   0  0  0  0  0  0  0  0  0  0  0  0
   -3.1150   25.2840  -30.4680 H   0  0  0  0  0  0  0  0  0  0  0  0
   -1.4828   22.4289  -28.7478 H   0  0  0  0  0  0  0  0  0  0  0  0
   -0.9730   22.7822  -30.4403 H   0  0  0  0  0  0  0  0  0  0  0  0
   -4.4686   20.0407  -31.7665 H   0  0  0  0  0  0  0  0  0  0  0  0
  1  2  1  0
  2  3  1  0
  3  4  2  0
  3  5  1  0
  5  6  1  0
  6  7  2  0
  7  8  1  0
  8  9  2  0
  9 10  1  0
 10 11  2  0
 11 12  1  0
 12 13  1  0
 12 14  2  0
 11 15  1  0
 15 16  1  0
 16 17  2  0
 16 18  1  0
 18 19  1  0
 19 20  1  0
 20 21  2  0
 20 22  1  0
 15 23  1  0
 23 24  2  0
 24  6  1  0
 23  9  1  0
  1 25  1  0
  1 26  1  0
  1 27  1  0
  5 28  1  0
  5 29  1  0
  7 30  1  0
  8 31  1  0
 10 32  1  0
 13 33  1  0
 19 34  1  0
 19 35  1  0
 24 36  1  0
M  CHG  2  13  -1  22  -1
M  END
>  <UniqueID>  (53) 
53

>  <SMILES>  (53) 
COC(=O)Cc1ccc2cc(C([NH-])=O)n(C(=O)OCC(=O)[O-])c2c1

>  <Energy>  (53) 
68.53889866565954

>  <Genealogy>  (53) 
COC(=O)Cc1ccc2cc(C([NH-])=O)n(C(=O)OCC(=O)[O-])c2c1 (protonated)
COC(=O)Cc1ccc2cc(C([NH-])=O)n(C(=O)OCC(=O)[O-])c2c1 (3D coordinates assigned)
COC(=O)Cc1ccc2cc(C([NH-])=O)n(C(=O)OCC(=O)[O-])c2c1 (optimized conformer: 68.53889866565954 kcal/mol)

>  <smiles>  (53) 
COC(=O)Cc1ccc2cc(C(N)=O)n(C(=O)OCC(=O)O)c2c1

>  <score_type>  (53) 
oracle

>  <origin>  (53) 
adg

>  <m_score__min__energy>  (53) 
-12.039999999999999

>  <m_primary>  (53) 
energy

$$$$
53:0
     RDKit          3D

 52 53  0  0  0  0  0  0  0  0999 V2000
   -7.1640   17.5640  -33.1750 C   0  0  0  0  0  0  0  0  0  0  0  0
   -7.0260   18.4030  -31.9710 N   0  0  1  0  0  0  0  0  0  0  0  0
   -5.6120   18.5720  -31.5620 C   0  0  0  0  0  0  0  0  0  0  0  0
   -4.7230   19.0680  -32.7170 C   0  0  0  0  0  0  0  0  0  0  0  0
   -3.6150   19.9410  -32.1910 C   0  0  0  0  0  0  0  0  0  0  0  0
   -2.2630   19.6140  -32.4600 C   0  0  0  0  0  0  0  0  0  0  0  0
   -1.2190   20.4050  -31.9510 C   0  0  0  0  0  0  0  0  0  0  0  0
   -1.5580   21.5050  -31.1680 C   0  0  0  0  0  0  0  0  0  0  0  0
   -0.7550   22.4430  -30.5570 C   0  0  0  0  0  0  0  0  0  0  0  0
   -1.6310   23.3100  -29.9040 C   0  0  0  0  0  0  0  0  0  0  0  0
   -1.1900   24.4310  -29.0500 C   0  0  0  0  0  0  0  0  0  0  0  0
   -1.9820   25.6120  -28.9630 N   0  0  0  0  0  0  0  0  0  0  0  0
   -0.1030   24.3690  -28.4190 O   0  0  0  0  0  0  0  0  0  0  0  0
   -2.9220   22.9260  -30.1110 N   0  0  0  0  0  0  0  0  0  0  0  0
   -4.1250   23.5750  -29.6710 C   0  0  0  0  0  0  0  0  0  0  0  0
   -4.5850   23.3170  -28.5260 O   0  0  0  0  0  0  0  0  0  0  0  0
   -4.8690   24.5310  -30.5600 C   0  0  0  0  0  0  0  0  0  0  0  0
   -4.3170   25.8180  -30.4950 O   0  0  0  0  0  0  0  0  0  0  0  0
   -2.8600   21.8200  -30.8800 C   0  0  0  0  0  0  0  0  0  0  0  0
   -3.9200   21.0580  -31.3820 C   0  0  0  0  0  0  0  0  0  0  0  0
   -7.6160   19.6970  -32.2160 C   0  0  0  0  0  0  0  0  0  0  0  0
   -8.0770   19.9740  -33.3580 O   0  0  0  0  0  0  0  0  0  0  0  0
   -7.6620   20.6350  -31.1720 O   0  0  0  0  0  0  0  0  0  0  0  0
   -7.8550   22.0510  -31.3110 C   0  0  0  0  0  0  0  0  0  0  0  0
   -7.5560   22.6850  -29.9440 C   0  0  0  0  0  0  0  0  0  0  0  0
   -6.8800   22.6320  -32.3520 C   0  0  0  0  0  0  0  0  0  0  0  0
   -9.3130   22.3640  -31.6970 C   0  0  0  0  0  0  0  0  0  0  0  0
   -7.3358   16.5194  -32.8762 H   0  0  0  0  0  0  0  0  0  0  0  0
   -8.0158   17.9190  -33.7736 H   0  0  0  0  0  0  0  0  0  0  0  0
   -6.2433   17.6275  -33.7736 H   0  0  0  0  0  0  0  0  0  0  0  0
   -7.5570   17.9480  -31.1910 H   0  0  0  0  0  0  0  0  0  0  0  0
   -5.5664   19.3035  -30.7417 H   0  0  0  0  0  0  0  0  0  0  0  0
   -5.2341   17.5885  -31.2460 H   0  0  0  0  0  0  0  0  0  0  0  0
   -4.2863   18.2018  -33.2356 H   0  0  0  0  0  0  0  0  0  0  0  0
   -5.3391   19.6555  -33.4136 H   0  0  0  0  0  0  0  0  0  0  0  0
   -2.0281   18.7318  -33.0736 H   0  0  0  0  0  0  0  0  0  0  0  0
   -0.1675   20.1627  -32.1645 H   0  0  0  0  0  0  0  0  0  0  0  0
    0.3435   22.4968  -30.5794 H   0  0  0  0  0  0  0  0  0  0  0  0
   -2.9550   25.6360  -29.3420 H   0  0  0  0  0  0  0  0  0  0  0  0
   -4.8170   24.1703  -31.5979 H   0  0  0  0  0  0  0  0  0  0  0  0
   -5.9136   24.5824  -30.2191 H   0  0  0  0  0  0  0  0  0  0  0  0
   -4.1170   25.9930  -29.5390 H   0  0  0  0  0  0  0  0  0  0  0  0
   -4.9631   21.3215  -31.1530 H   0  0  0  0  0  0  0  0  0  0  0  0
   -7.8783   22.0016  -29.1445 H   0  0  0  0  0  0  0  0  0  0  0  0
   -6.4755   22.8706  -29.8543 H   0  0  0  0  0  0  0  0  0  0  0  0
   -8.1002   23.6368  -29.8543 H   0  0  0  0  0  0  0  0  0  0  0  0
   -6.0457   23.1292  -31.8355 H   0  0  0  0  0  0  0  0  0  0  0  0
   -6.4892   21.8194  -32.9820 H   0  0  0  0  0  0  0  0  0  0  0  0
   -7.4087   23.3624  -32.9820 H   0  0  0  0  0  0  0  0  0  0  0  0
   -9.9142   22.4931  -30.7849 H   0  0  0  0  0  0  0  0  0  0  0  0
   -9.3445   23.2894  -32.2909 H   0  0  0  0  0  0  0  0  0  0  0  0
   -9.7215   21.5331  -32.2909 H   0  0  0  0  0  0  0  0  0  0  0  0
  1  2  1  0
  2  3  1  0
  3  4  1  0
  4  5  1  0
  5  6  2  0
  6  7  1  0
  7  8  2  0
  8  9  1  0
  9 10  2  0
 10 11  1  0
 11 12  1  0
 11 13  2  0
 10 14  1  0
 14 15  1  0
 15 16  2  0
 15 17  1  0
 17 18  1  0
 14 19  1  0
 19 20  2  0
  2 21  1  0
 21 22  2  0
 21 23  1  0
 23 24  1  0
 24 25  1  0
 24 26  1  0
 24 27  1  0
 20  5  1  0
 19  8  1  0
  1 28  1  0
  1 29  1  0
  1 30  1  0
  2 31  1  1
  3 32  1  0
  3 33  1  0
  4 34  1  0
  4 35  1  0
  6 36  1  0
  7 37  1  0
  9 38  1  0
 12 39  1  0
 17 40  1  0
 17 41  1  0
 18 42  1  0
 20 43  1  0
 25 44  1  0
 25 45  1  0
 25 46  1  0
 26 47  1  0
 26 48  1  0
 26 49  1  0
 27 50  1  0
 27 51  1  0
 27 52  1  0
M  CHG  2   2   1  12  -1
M  END
>  <UniqueID>  (54) 
54

>  <SMILES>  (54) 
C[N@@H+](CCc1ccc2cc(C([NH-])=O)n(C(=O)CO)c2c1)C(=O)OC(C)(C)C

>  <Energy>  (54) 
86.38555573954609

>  <Genealogy>  (54) 
C[NH+](CCc1ccc2cc(C([NH-])=O)n(C(=O)CO)c2c1)C(=O)OC(C)(C)C (protonated)
C[N@@H+](CCc1ccc2cc(C([NH-])=O)n(C(=O)CO)c2c1)C(=O)OC(C)(C)C (chirality)
C[N@@H+](CCc1ccc2cc(C([NH-])=O)n(C(=O)CO)c2c1)C(=O)OC(C)(C)C (3D coordinates assigned)
C[N@@H+](CCc1ccc2cc(C([NH-])=O)n(C(=O)CO)c2c1)C(=O)OC(C)(C)C (optimized conformer: 86.38555573954609 kcal/mol)

>  <smiles>  (54) 
CN(CCc1ccc2cc(C(N)=O)n(C(=O)CO)c2c1)C(=O)OC(C)(C)C

>  <score_type>  (54) 
oracle

>  <origin>  (54) 
adg

>  <m_score__min__energy>  (54) 
-10.279999999999999

>  <m_primary>  (54) 
energy

$$$$
54:0
     RDKit          3D

 40 42  0  0  0  0  0  0  0  0999 V2000
   -1.4580   25.9300  -28.9630 N   0  0  0  0  0  0  0  0  0  0  0  0
   -0.8620   24.6350  -28.9700 C   0  0  0  0  0  0  0  0  0  0  0  0
    0.2840   24.4820  -28.4690 O   0  0  0  0  0  0  0  0  0  0  0  0
   -1.5420   23.4860  -29.6040 C   0  0  0  0  0  0  0  0  0  0  0  0
   -0.9310   22.6630  -30.5490 C   0  0  0  0  0  0  0  0  0  0  0  0
   -1.9160   21.7970  -30.9680 C   0  0  0  0  0  0  0  0  0  0  0  0
   -1.8680   20.7730  -31.9100 C   0  0  0  0  0  0  0  0  0  0  0  0
   -3.0390   20.0350  -32.1420 C   0  0  0  0  0  0  0  0  0  0  0  0
   -4.2300   20.3240  -31.4270 C   0  0  0  0  0  0  0  0  0  0  0  0
   -5.4800   19.5200  -31.6750 C   0  0  0  0  0  0  0  0  0  0  0  0
   -6.3810   20.2110  -32.6550 C   0  0  0  0  0  0  0  0  0  0  0  0
   -6.2070   20.0460  -33.8920 O   0  0  0  0  0  0  0  0  0  0  0  0
   -7.4360   21.0520  -32.1800 N   0  0  0  0  0  0  0  0  0  0  0  0
   -8.6880   20.5120  -31.6670 C   0  0  0  0  0  0  0  0  0  0  0  0
   -8.6810   19.0000  -31.5580 C   0  0  0  0  0  0  0  0  0  0  0  0
   -9.4440   19.6800  -32.6850 C   0  0  0  0  0  0  0  0  0  0  0  0
   -4.2320   21.3580  -30.4630 C   0  0  0  0  0  0  0  0  0  0  0  0
   -3.0600   22.0990  -30.2780 C   0  0  0  0  0  0  0  0  0  0  0  0
   -2.8480   23.1340  -29.4370 N   0  0  0  0  0  0  0  0  0  0  0  0
   -3.8120   23.7040  -28.5380 C   0  0  0  0  0  0  0  0  0  0  0  0
   -3.4280   24.2840  -27.4860 O   0  0  0  0  0  0  0  0  0  0  0  0
   -5.1780   23.5890  -28.8260 O   0  0  0  0  0  0  0  0  0  0  0  0
   -5.8850   24.5050  -29.6560 C   0  0  0  0  0  0  0  0  0  0  0  0
   -5.0390   24.9120  -30.8200 C   0  0  0  0  0  0  0  0  0  0  0  0
   -5.3440   24.5390  -31.9820 O   0  0  0  0  0  0  0  0  0  0  0  0
   -3.8940   25.6740  -30.6180 O   0  0  0  0  0  0  0  0  0  0  0  0
   -2.4960   26.0440  -28.9690 H   0  0  0  0  0  0  0  0  0  0  0  0
    0.1150   22.6980  -30.8877 H   0  0  0  0  0  0  0  0  0  0  0  0
   -0.9398   20.5490  -32.4562 H   0  0  0  0  0  0  0  0  0  0  0  0
   -3.0334   19.2244  -32.8856 H   0  0  0  0  0  0  0  0  0  0  0  0
   -5.1998   18.5352  -32.0771 H   0  0  0  0  0  0  0  0  0  0  0  0
   -6.0191   19.4096  -30.7225 H   0  0  0  0  0  0  0  0  0  0  0  0
   -8.9465   21.3430  -30.9942 H   0  0  0  0  0  0  0  0  0  0  0  0
   -7.7619   18.4368  -31.7772 H   0  0  0  0  0  0  0  0  0  0  0  0
   -8.9371   18.2752  -30.7712 H   0  0  0  0  0  0  0  0  0  0  0  0
   -9.0768   19.6089  -33.7195 H   0  0  0  0  0  0  0  0  0  0  0  0
  -10.4807   19.6513  -33.0515 H   0  0  0  0  0  0  0  0  0  0  0  0
   -5.1341   21.5748  -29.8721 H   0  0  0  0  0  0  0  0  0  0  0  0
   -6.8034   24.0253  -30.0253 H   0  0  0  0  0  0  0  0  0  0  0  0
   -6.1369   25.3994  -29.0673 H   0  0  0  0  0  0  0  0  0  0  0  0
  1  2  1  0
  2  3  2  0
  2  4  1  0
  4  5  2  0
  5  6  1  0
  6  7  2  0
  7  8  1  0
  8  9  2  0
  9 10  1  0
 10 11  1  0
 11 12  2  0
 11 13  1  0
 13 14  1  0
 14 15  1  0
 15 16  1  0
  9 17  1  0
 17 18  2  0
 18 19  1  0
 19 20  1  0
 20 21  2  0
 20 22  1  0
 22 23  1  0
 23 24  1  0
 24 25  2  0
 24 26  1  0
 19  4  1  0
 18  6  1  0
 16 14  1  0
  1 27  1  0
  5 28  1  0
  7 29  1  0
  8 30  1  0
 10 31  1  0
 10 32  1  0
 14 33  1  0
 15 34  1  0
 15 35  1  0
 16 36  1  0
 16 37  1  0
 17 38  1  0
 23 39  1  0
 23 40  1  0
M  CHG  3   1  -1  13  -1  26  -1
M  END
>  <UniqueID>  (55) 
55

>  <SMILES>  (55) 
[NH-]C(=O)c1cc2ccc(CC(=O)[N-]C3CC3)cc2n1C(=O)OCC(=O)[O-]

>  <Energy>  (55) 
338.90678337009706

>  <Genealogy>  (55) 
[NH-]C(=O)c1cc2ccc(CC(=O)[N-]C3CC3)cc2n1C(=O)OCC(=O)[O-] (protonated)
[NH-]C(=O)c1cc2ccc(CC(=O)[N-]C3CC3)cc2n1C(=O)OCC(=O)[O-] (3D coordinates assigned)
[NH-]C(=O)c1cc2ccc(CC(=O)[N-]C3CC3)cc2n1C(=O)OCC(=O)[O-] (nonaromatic ring conformer: 338.90678337009706 kcal/mol)

>  <smiles>  (55) 
NC(=O)c1cc2ccc(CC(=O)NC3CC3)cc2n1C(=O)OCC(=O)O

>  <score_type>  (55) 
oracle

>  <origin>  (55) 
adg

>  <m_score__min__energy>  (55) 
-12.34

>  <m_primary>  (55) 
energy

$$$$
55:0
     RDKit          3D

 30 31  0  0  0  0  0  0  0  0999 V2000
   -4.0050   25.6790  -30.8470 N   0  0  0  0  0  0  0  0  0  0  0  0
   -5.1520   25.0330  -30.3010 C   0  0  0  0  0  0  0  0  0  0  0  0
   -5.7780   25.5810  -29.3560 O   0  0  0  0  0  0  0  0  0  0  0  0
   -5.6170   23.7510  -30.8740 C   0  0  0  0  0  0  0  0  0  0  0  0
   -6.8830   23.5730  -31.4280 C   0  0  0  0  0  0  0  0  0  0  0  0
   -6.9530   22.2390  -31.7560 C   0  0  0  0  0  0  0  0  0  0  0  0
   -7.9890   21.5130  -32.3360 C   0  0  0  0  0  0  0  0  0  0  0  0
   -7.7800   20.1460  -32.5790 C   0  0  0  0  0  0  0  0  0  0  0  0
   -6.5390   19.5330  -32.2630 C   0  0  0  0  0  0  0  0  0  0  0  0
   -6.3410   18.0560  -32.4940 C   0  0  0  0  0  0  0  0  0  0  0  0
   -7.5550   17.4260  -32.6980 F   0  0  0  0  0  0  0  0  0  0  0  0
   -5.5480   17.8390  -33.6090 F   0  0  0  0  0  0  0  0  0  0  0  0
   -5.7250   17.5030  -31.3880 F   0  0  0  0  0  0  0  0  0  0  0  0
   -5.5190   20.3010  -31.6530 C   0  0  0  0  0  0  0  0  0  0  0  0
   -5.7620   21.6580  -31.4070 C   0  0  0  0  0  0  0  0  0  0  0  0
   -4.9290   22.5740  -30.8660 N   0  0  0  0  0  0  0  0  0  0  0  0
   -3.5800   22.3430  -30.4320 C   0  0  0  0  0  0  0  0  0  0  0  0
   -3.1690   21.1640  -30.2550 O   0  0  0  0  0  0  0  0  0  0  0  0
   -2.7340   23.4310  -30.1840 O   0  0  0  0  0  0  0  0  0  0  0  0
   -1.4160   23.2950  -29.6600 C   0  0  0  0  0  0  0  0  0  0  0  0
   -0.9390   24.5990  -29.1070 C   0  0  0  0  0  0  0  0  0  0  0  0
   -1.6100   25.6500  -29.2880 O   0  0  0  0  0  0  0  0  0  0  0  0
    0.2340   24.6500  -28.3660 O   0  0  0  0  0  0  0  0  0  0  0  0
   -3.0470   25.2980  -30.6820 H   0  0  0  0  0  0  0  0  0  0  0  0
   -7.6612   24.3370  -31.5724 H   0  0  0  0  0  0  0  0  0  0  0  0
   -8.9427   21.9955  -32.5962 H   0  0  0  0  0  0  0  0  0  0  0  0
   -8.5875   19.5427  -33.0195 H   0  0  0  0  0  0  0  0  0  0  0  0
   -4.5575   19.8427  -31.3784 H   0  0  0  0  0  0  0  0  0  0  0  0
   -1.4203   22.5412  -28.8589 H   0  0  0  0  0  0  0  0  0  0  0  0
   -0.7403   22.9817  -30.4695 H   0  0  0  0  0  0  0  0  0  0  0  0
  1  2  1  0
  2  3  2  0
  2  4  1  0
  4  5  2  0
  5  6  1  0
  6  7  2  0
  7  8  1  0
  8  9  2  0
  9 10  1  0
 10 11  1  0
 10 12  1  0
 10 13  1  0
  9 14  1  0
 14 15  2  0
 15 16  1  0
 16 17  1  0
 17 18  2  0
 17 19  1  0
 19 20  1  0
 20 21  1  0
 21 22  2  0
 21 23  1  0
 16  4  1  0
 15  6  1  0
  1 24  1  0
  5 25  1  0
  7 26  1  0
  8 27  1  0
 14 28  1  0
 20 29  1  0
 20 30  1  0
M  CHG  2   1  -1  23  -1
M  END
>  <UniqueID>  (56) 
56

>  <SMILES>  (56) 
[NH-]C(=O)c1cc2ccc(C(F)(F)F)cc2n1C(=O)OCC(=O)[O-]

>  <Energy>  (56) 
67.65651169428979

>  <Genealogy>  (56) 
[NH-]C(=O)c1cc2ccc(C(F)(F)F)cc2n1C(=O)OCC(=O)[O-] (protonated)
[NH-]C(=O)c1cc2ccc(C(F)(F)F)cc2n1C(=O)OCC(=O)[O-] (3D coordinates assigned)
[NH-]C(=O)c1cc2ccc(C(F)(F)F)cc2n1C(=O)OCC(=O)[O-] (optimized conformer: 67.65651169428979 kcal/mol)

>  <smiles>  (56) 
NC(=O)c1cc2ccc(C(F)(F)F)cc2n1C(=O)OCC(=O)O

>  <score_type>  (56) 
oracle

>  <origin>  (56) 
adg

>  <m_score__min__energy>  (56) 
-11.67

>  <m_primary>  (56) 
energy

$$$$
56:0
     RDKit          3D

 55 58  0  0  0  0  0  0  0  0999 V2000
   -3.4810   22.3940  -28.7620 C   0  0  0  0  0  0  0  0  0  0  0  0
   -2.9070   22.5800  -29.9490 C   0  0  0  0  0  0  0  0  0  0  0  0
   -3.6610   22.5360  -31.2160 C   0  0  0  0  0  0  0  0  0  0  0  0
   -3.0340   22.3430  -32.2920 O   0  0  0  0  0  0  0  0  0  0  0  0
   -5.0880   22.6990  -31.2510 N   0  0  0  0  0  0  0  0  0  0  0  0
   -5.8050   23.8090  -30.9230 C   0  0  0  0  0  0  0  0  0  0  0  0
   -5.2490   25.0550  -30.3560 C   0  0  0  0  0  0  0  0  0  0  0  0
   -3.8620   25.3500  -30.5120 N   0  0  0  0  0  0  0  0  0  0  0  0
   -5.9890   25.8720  -29.7460 O   0  0  0  0  0  0  0  0  0  0  0  0
   -7.1630   23.6000  -31.1590 C   0  0  0  0  0  0  0  0  0  0  0  0
   -7.2530   22.3170  -31.6530 C   0  0  0  0  0  0  0  0  0  0  0  0
   -8.3660   21.5910  -32.0730 C   0  0  0  0  0  0  0  0  0  0  0  0
   -8.1550   20.2910  -32.5630 C   0  0  0  0  0  0  0  0  0  0  0  0
   -6.8490   19.7500  -32.6310 C   0  0  0  0  0  0  0  0  0  0  0  0
   -6.6470   18.4310  -33.1390 N   0  0  0  0  0  0  0  0  0  0  0  0
   -6.9430   17.0460  -32.7190 C   0  0  0  0  0  0  0  0  0  0  0  0
   -6.3180   16.3860  -33.9110 C   0  0  0  0  0  0  0  0  0  0  0  0
   -5.1430   15.5360  -33.5720 N   0  0  0  0  0  0  0  0  0  0  0  0
   -3.9070   16.1030  -34.1470 C   0  0  0  0  0  0  0  0  0  0  0  0
   -2.6550   15.3230  -33.6870 C   0  0  0  0  0  0  0  0  0  0  0  0
   -3.0210   13.9690  -33.2130 N   0  0  0  0  0  0  0  0  0  0  0  0
   -1.8400   13.1930  -32.8850 C   0  0  0  0  0  0  0  0  0  0  0  0
   -1.4200   12.3130  -33.6870 O   0  0  0  0  0  0  0  0  0  0  0  0
   -1.0550   13.4230  -31.6500 C   0  0  0  0  0  0  0  0  0  0  0  0
   -0.0620   14.3070  -31.5450 C   0  0  0  0  0  0  0  0  0  0  0  0
   -3.9230   14.0380  -32.0370 C   0  0  0  0  0  0  0  0  0  0  0  0
   -4.9380   15.1930  -32.1480 C   0  0  0  0  0  0  0  0  0  0  0  0
   -6.0570   17.8030  -34.3370 C   0  0  0  0  0  0  0  0  0  0  0  0
   -5.7460   20.5130  -32.2000 C   0  0  0  0  0  0  0  0  0  0  0  0
   -5.9860   21.7980  -31.7030 C   0  0  0  0  0  0  0  0  0  0  0  0
   -2.8747   22.4366  -27.8452 H   0  0  0  0  0  0  0  0  0  0  0  0
   -4.5615   22.1977  -28.6983 H   0  0  0  0  0  0  0  0  0  0  0  0
   -1.8250   22.7747  -29.9863 H   0  0  0  0  0  0  0  0  0  0  0  0
   -3.5370   26.0410  -31.2240 H   0  0  0  0  0  0  0  0  0  0  0  0
   -7.9869   24.3083  -30.9874 H   0  0  0  0  0  0  0  0  0  0  0  0
   -9.3769   22.0217  -32.0226 H   0  0  0  0  0  0  0  0  0  0  0  0
   -9.0126   19.6884  -32.8967 H   0  0  0  0  0  0  0  0  0  0  0  0
   -6.4495   16.7734  -31.7745 H   0  0  0  0  0  0  0  0  0  0  0  0
   -7.9929   16.8003  -32.5015 H   0  0  0  0  0  0  0  0  0  0  0  0
   -6.8074   15.6573  -34.5739 H   0  0  0  0  0  0  0  0  0  0  0  0
   -3.9713   16.0596  -35.2443 H   0  0  0  0  0  0  0  0  0  0  0  0
   -3.8115   17.1423  -33.7995 H   0  0  0  0  0  0  0  0  0  0  0  0
   -1.9566   15.2323  -34.5320 H   0  0  0  0  0  0  0  0  0  0  0  0
   -2.1847   15.8708  -32.8571 H   0  0  0  0  0  0  0  0  0  0  0  0
   -3.5220   13.5020  -34.0050 H   0  0  0  0  0  0  0  0  0  0  0  0
   -1.3076   12.8257  -30.7615 H   0  0  0  0  0  0  0  0  0  0  0  0
    0.4750   14.4202  -30.5917 H   0  0  0  0  0  0  0  0  0  0  0  0
    0.2200   14.9229  -32.4117 H   0  0  0  0  0  0  0  0  0  0  0  0
   -4.4736   13.0891  -31.9568 H   0  0  0  0  0  0  0  0  0  0  0  0
   -3.3031   14.2179  -31.1463 H   0  0  0  0  0  0  0  0  0  0  0  0
   -5.8956   14.8831  -31.7042 H   0  0  0  0  0  0  0  0  0  0  0  0
   -4.5520   16.0723  -31.6116 H   0  0  0  0  0  0  0  0  0  0  0  0
   -4.9851   18.0232  -34.4488 H   0  0  0  0  0  0  0  0  0  0  0  0
   -6.4517   18.1153  -35.3151 H   0  0  0  0  0  0  0  0  0  0  0  0
   -4.7242   20.1092  -32.2529 H   0  0  0  0  0  0  0  0  0  0  0  0
  1  2  2  0
  2  3  1  0
  3  4  2  0
  3  5  1  0
  5  6  1  0
  6  7  1  0
  7  8  1  0
  7  9  2  0
  6 10  2  0
 10 11  1  0
 11 12  2  0
 12 13  1  0
 13 14  2  0
 14 15  1  0
 15 16  1  0
 16 17  1  0
 17 18  1  0
 18 19  1  0
 19 20  1  0
 20 21  1  0
 21 22  1  0
 22 23  2  0
 22 24  1  0
 24 25  2  0
 21 26  1  0
 26 27  1  0
 17 28  1  0
 14 29  1  0
 29 30  2  0
 30  5  1  0
 30 11  1  0
 28 15  1  0
 27 18  1  0
  1 31  1  0
  1 32  1  0
  2 33  1  0
  8 34  1  0
 10 35  1  0
 12 36  1  0
 13 37  1  0
 16 38  1  0
 16 39  1  0
 17 40  1  0
 19 41  1  0
 19 42  1  0
 20 43  1  0
 20 44  1  0
 21 45  1  0
 24 46  1  0
 25 47  1  0
 25 48  1  0
 26 49  1  0
 26 50  1  0
 27 51  1  0
 27 52  1  0
 28 53  1  0
 28 54  1  0
 29 55  1  0
M  CHG  2   8  -1  21   1
M  END
>  <UniqueID>  (57) 
57

>  <SMILES>  (57) 
C=CC(=O)n1c(C([NH-])=O)cc2ccc(N3CC(N4CC[NH+](C(=O)C=C)CC4)C3)cc21

>  <Energy>  (57) 
158.01159150013405

>  <Genealogy>  (57) 
C=CC(=O)n1c(C([NH-])=O)cc2ccc(N3CC(N4CC[NH+](C(=O)C=C)CC4)C3)cc21 (protonated)
C=CC(=O)n1c(C([NH-])=O)cc2ccc(N3CC(N4CC[NH+](C(=O)C=C)CC4)C3)cc21 (3D coordinates assigned)
C=CC(=O)n1c(C([NH-])=O)cc2ccc(N3CC(N4CC[NH+](C(=O)C=C)CC4)C3)cc21 (nonaromatic ring conformer: 158.01159150013405 kcal/mol)

>  <smiles>  (57) 
C=CC(=O)N1CCN(C2CN(c3ccc4cc(C(N)=O)n(C(=O)C=C)c4c3)C2)CC1

>  <score_type>  (57) 
oracle

>  <origin>  (57) 
adg

>  <m_score__min__energy>  (57) 
-10.699999999999999

>  <m_primary>  (57) 
energy

$$$$
57:0
     RDKit          3D

 38 39  0  0  0  0  0  0  0  0999 V2000
   -6.0770   17.3650  -31.5440 C   0  0  0  0  0  0  0  0  0  0  0  0
   -6.8610   18.0560  -32.6630 C   0  0  2  0  0  0  0  0  0  0  0  0
   -6.0870   18.0420  -33.9150 C   0  0  0  0  0  0  0  0  0  0  0  0
   -5.4790   18.0320  -34.8990 N   0  0  0  0  0  0  0  0  0  0  0  0
   -7.2220   19.4740  -32.2760 C   0  0  0  0  0  0  0  0  0  0  0  0
   -8.5690   19.9270  -32.3410 C   0  0  0  0  0  0  0  0  0  0  0  0
   -8.8990   21.2510  -32.0060 C   0  0  0  0  0  0  0  0  0  0  0  0
   -7.8700   22.0990  -31.6110 C   0  0  0  0  0  0  0  0  0  0  0  0
   -7.9050   23.4270  -31.2490 C   0  0  0  0  0  0  0  0  0  0  0  0
   -6.5840   23.7660  -30.9600 C   0  0  0  0  0  0  0  0  0  0  0  0
   -6.1580   25.0810  -30.4350 C   0  0  0  0  0  0  0  0  0  0  0  0
   -4.9260   25.6730  -30.8530 N   0  0  0  0  0  0  0  0  0  0  0  0
   -6.8940   25.7040  -29.6260 O   0  0  0  0  0  0  0  0  0  0  0  0
   -5.7680   22.6900  -31.1410 N   0  0  0  0  0  0  0  0  0  0  0  0
   -4.3380   22.6300  -31.0170 C   0  0  0  0  0  0  0  0  0  0  0  0
   -3.6200   23.0380  -31.9680 O   0  0  0  0  0  0  0  0  0  0  0  0
   -3.7150   22.2560  -29.6990 C   0  0  0  0  0  0  0  0  0  0  0  0
   -3.0560   23.6680  -28.8160 S   0  0  0  0  0  0  0  0  0  0  0  0
   -4.1310   24.1440  -27.4810 C   0  0  0  0  0  0  0  0  0  0  0  0
   -1.6970   23.3350  -28.2670 O   0  0  0  0  0  0  0  0  0  0  0  0
   -2.9270   24.8220  -29.7710 O   0  0  0  0  0  0  0  0  0  0  0  0
   -6.5690   21.6790  -31.5360 C   0  0  0  0  0  0  0  0  0  0  0  0
   -6.2060   20.3720  -31.8740 C   0  0  0  0  0  0  0  0  0  0  0  0
   -6.4579   17.7007  -30.5682 H   0  0  0  0  0  0  0  0  0  0  0  0
   -6.1988   16.2751  -31.6300 H   0  0  0  0  0  0  0  0  0  0  0  0
   -5.0111   17.6227  -31.6300 H   0  0  0  0  0  0  0  0  0  0  0  0
   -7.7962   17.4991  -32.8221 H   0  0  0  0  0  0  0  0  0  0  0  0
   -9.3614   19.2326  -32.6572 H   0  0  0  0  0  0  0  0  0  0  0  0
   -9.9391   21.6058  -32.0547 H   0  0  0  0  0  0  0  0  0  0  0  0
   -8.7877   24.0814  -31.1986 H   0  0  0  0  0  0  0  0  0  0  0  0
   -4.2610   25.1640  -31.4750 H   0  0  0  0  0  0  0  0  0  0  0  0
   -4.6550   26.6190  -30.5020 H   0  0  0  0  0  0  0  0  0  0  0  0
   -4.4808   21.7759  -29.0721 H   0  0  0  0  0  0  0  0  0  0  0  0
   -2.8758   21.5771  -29.9106 H   0  0  0  0  0  0  0  0  0  0  0  0
   -3.6409   23.9270  -26.5204 H   0  0  0  0  0  0  0  0  0  0  0  0
   -4.3448   25.2209  -27.5485 H   0  0  0  0  0  0  0  0  0  0  0  0
   -5.0720   23.5784  -27.5485 H   0  0  0  0  0  0  0  0  0  0  0  0
   -5.1553   20.0497  -31.8284 H   0  0  0  0  0  0  0  0  0  0  0  0
  1  2  1  0
  2  3  1  0
  3  4  3  0
  2  5  1  0
  5  6  2  0
  6  7  1  0
  7  8  2  0
  8  9  1  0
  9 10  2  0
 10 11  1  0
 11 12  1  0
 11 13  2  0
 10 14  1  0
 14 15  1  0
 15 16  2  0
 15 17  1  0
 17 18  1  0
 18 19  1  0
 18 20  2  0
 18 21  2  0
 14 22  1  0
 22 23  2  0
 23  5  1  0
 22  8  1  0
  1 24  1  0
  1 25  1  0
  1 26  1  0
  2 27  1  6
  6 28  1  0
  7 29  1  0
  9 30  1  0
 12 31  1  0
 12 32  1  0
 17 33  1  0
 17 34  1  0
 19 35  1  0
 19 36  1  0
 19 37  1  0
 23 38  1  0
M  END
>  <UniqueID>  (58) 
58

>  <SMILES>  (58) 
C[C@H](C#N)c1ccc2cc(C(N)=O)n(C(=O)CS(C)(=O)=O)c2c1

>  <Energy>  (58) 
68.31133070890687

>  <Genealogy>  (58) 
C[C@H](C#N)c1ccc2cc(C(N)=O)n(C(=O)CS(C)(=O)=O)c2c1 (chirality)
C[C@H](C#N)c1ccc2cc(C(N)=O)n(C(=O)CS(C)(=O)=O)c2c1 (3D coordinates assigned)
C[C@H](C#N)c1ccc2cc(C(N)=O)n(C(=O)CS(C)(=O)=O)c2c1 (optimized conformer: 68.31133070890687 kcal/mol)

>  <smiles>  (58) 
CC(C#N)c1ccc2cc(C(N)=O)n(C(=O)CS(C)(=O)=O)c2c1

>  <score_type>  (58) 
oracle

>  <origin>  (58) 
adg

>  <m_score__min__energy>  (58) 
-9.5700000000000003

>  <m_primary>  (58) 
energy

$$$$
58:0
     RDKit          3D

 42 43  0  0  0  0  0  0  0  0999 V2000
    0.9940   24.4410  -27.0090 C   0  0  0  0  0  0  0  0  0  0  0  0
    0.7330   24.3570  -28.4040 O   0  0  0  0  0  0  0  0  0  0  0  0
   -0.5370   24.0800  -28.9190 C   0  0  0  0  0  0  0  0  0  0  0  0
   -1.3150   25.0150  -29.2530 O   0  0  0  0  0  0  0  0  0  0  0  0
   -0.9940   22.6590  -29.0220 C   0  0  0  0  0  0  0  0  0  0  0  0
   -1.5070   22.3510  -30.4310 C   0  0  0  0  0  0  0  0  0  0  0  0
   -2.9240   22.1760  -30.4340 O   0  0  0  0  0  0  0  0  0  0  0  0
   -3.7080   22.2300  -31.5910 C   0  0  0  0  0  0  0  0  0  0  0  0
   -3.1920   21.9950  -32.7190 O   0  0  0  0  0  0  0  0  0  0  0  0
   -5.1050   22.5530  -31.4950 N   0  0  0  0  0  0  0  0  0  0  0  0
   -5.6600   23.6960  -31.0010 C   0  0  0  0  0  0  0  0  0  0  0  0
   -4.9240   24.9120  -30.5990 C   0  0  0  0  0  0  0  0  0  0  0  0
   -3.6150   24.8330  -30.0340 N   0  0  0  0  0  0  0  0  0  0  0  0
   -5.4380   26.0430  -30.8100 O   0  0  0  0  0  0  0  0  0  0  0  0
   -7.0470   23.5980  -30.9730 C   0  0  0  0  0  0  0  0  0  0  0  0
   -7.3330   22.3540  -31.4850 C   0  0  0  0  0  0  0  0  0  0  0  0
   -8.5620   21.7320  -31.6860 C   0  0  0  0  0  0  0  0  0  0  0  0
   -8.5630   20.4270  -32.2070 C   0  0  0  0  0  0  0  0  0  0  0  0
   -7.3430   19.7660  -32.4980 C   0  0  0  0  0  0  0  0  0  0  0  0
   -7.3570   18.3770  -33.0760 C   0  0  0  0  0  0  0  0  0  0  0  0
   -6.0790   18.1150  -33.8770 C   0  0  0  0  0  0  0  0  0  0  0  0
   -6.0420   18.9370  -35.0110 O   0  0  0  0  0  0  0  0  0  0  0  0
   -6.1160   20.4330  -32.2900 C   0  0  0  0  0  0  0  0  0  0  0  0
   -6.1440   21.7410  -31.7900 C   0  0  0  0  0  0  0  0  0  0  0  0
    0.0926   24.1509  -26.4492 H   0  0  0  0  0  0  0  0  0  0  0  0
    1.8208   23.7636  -26.7492 H   0  0  0  0  0  0  0  0  0  0  0  0
    1.2705   25.4735  -26.7492 H   0  0  0  0  0  0  0  0  0  0  0  0
   -0.1502   21.9918  -28.7921 H   0  0  0  0  0  0  0  0  0  0  0  0
   -1.8147   22.5010  -28.3068 H   0  0  0  0  0  0  0  0  0  0  0  0
   -1.2464   23.1853  -31.0988 H   0  0  0  0  0  0  0  0  0  0  0  0
   -1.0385   21.4181  -30.7778 H   0  0  0  0  0  0  0  0  0  0  0  0
   -3.0950   23.9290  -30.0040 H   0  0  0  0  0  0  0  0  0  0  0  0
   -3.1270   25.7000  -29.7190 H   0  0  0  0  0  0  0  0  0  0  0  0
   -7.7625   24.3540  -30.6173 H   0  0  0  0  0  0  0  0  0  0  0  0
   -9.5038   22.2464  -31.4443 H   0  0  0  0  0  0  0  0  0  0  0  0
   -9.5185   19.9139  -32.3906 H   0  0  0  0  0  0  0  0  0  0  0  0
   -7.4273   17.6454  -32.2576 H   0  0  0  0  0  0  0  0  0  0  0  0
   -8.2230   18.2805  -33.7474 H   0  0  0  0  0  0  0  0  0  0  0  0
   -5.2041   18.3278  -33.2452 H   0  0  0  0  0  0  0  0  0  0  0  0
   -6.0646   17.0623  -34.1959 H   0  0  0  0  0  0  0  0  0  0  0  0
   -6.9560   19.3060  -35.1250 H   0  0  0  0  0  0  0  0  0  0  0  0
   -5.1604   19.9369  -32.5154 H   0  0  0  0  0  0  0  0  0  0  0  0
  1  2  1  0
  2  3  1  0
  3  4  2  0
  3  5  1  0
  5  6  1  0
  6  7  1  0
  7  8  1  0
  8  9  2  0
  8 10  1  0
 10 11  1  0
 11 12  1  0
 12 13  1  0
 12 14  2  0
 11 15  2  0
 15 16  1  0
 16 17  2  0
 17 18  1  0
 18 19  2  0
 19 20  1  0
 20 21  1  0
 21 22  1  0
 19 23  1  0
 23 24  2  0
 24 10  1  0
 24 16  1  0
  1 25  1  0
  1 26  1  0
  1 27  1  0
  5 28  1  0
  5 29  1  0
  6 30  1  0
  6 31  1  0
 13 32  1  0
 13 33  1  0
 15 34  1  0
 17 35  1  0
 18 36  1  0
 20 37  1  0
 20 38  1  0
 21 39  1  0
 21 40  1  0
 22 41  1  0
 23 42  1  0
M  END
>  <UniqueID>  (59) 
59

>  <SMILES>  (59) 
COC(=O)CCOC(=O)n1c(C(N)=O)cc2ccc(CCO)cc21

>  <Energy>  (59) 
70.42738203121769

>  <Genealogy>  (59) 
COC(=O)CCOC(=O)n1c(C(N)=O)cc2ccc(CCO)cc21 (3D coordinates assigned)
COC(=O)CCOC(=O)n1c(C(N)=O)cc2ccc(CCO)cc21 (optimized conformer: 70.42738203121769 kcal/mol)

>  <smiles>  (59) 
COC(=O)CCOC(=O)n1c(C(N)=O)cc2ccc(CCO)cc21

>  <score_type>  (59) 
oracle

>  <origin>  (59) 
adg

>  <m_score__min__energy>  (59) 
-8.9900000000000002

>  <m_primary>  (59) 
energy

$$$$
59:0
     RDKit          3D

 34 35  0  0  0  0  0  0  0  0999 V2000
   -1.3070   20.9160  -31.2010 C   0  0  0  0  0  0  0  0  0  0  0  0
   -2.2120   20.9140  -32.3570 N   0  0  0  0  0  0  0  0  0  0  0  0
   -1.9590   19.9960  -33.4730 C   0  0  0  0  0  0  0  0  0  0  0  0
   -3.2880   21.8710  -32.4730 C   0  0  0  0  0  0  0  0  0  0  0  0
   -3.8160   22.0740  -33.6000 O   0  0  0  0  0  0  0  0  0  0  0  0
   -3.8080   22.6350  -31.3140 C   0  0  0  0  0  0  0  0  0  0  0  0
   -3.0210   23.0760  -30.4350 O   0  0  0  0  0  0  0  0  0  0  0  0
   -5.2190   22.8510  -31.1670 N   0  0  0  0  0  0  0  0  0  0  0  0
   -5.8560   24.0100  -30.8380 C   0  0  0  0  0  0  0  0  0  0  0  0
   -5.1990   25.2750  -30.4520 C   0  0  0  0  0  0  0  0  0  0  0  0
   -3.8620   25.5390  -30.8700 N   0  0  0  0  0  0  0  0  0  0  0  0
   -5.8150   26.1400  -29.7730 O   0  0  0  0  0  0  0  0  0  0  0  0
   -7.2380   23.8280  -30.8570 C   0  0  0  0  0  0  0  0  0  0  0  0
   -7.4290   22.5130  -31.2140 C   0  0  0  0  0  0  0  0  0  0  0  0
   -8.6070   21.7930  -31.3900 C   0  0  0  0  0  0  0  0  0  0  0  0
   -8.5040   20.4480  -31.7840 C   0  0  0  0  0  0  0  0  0  0  0  0
   -7.2370   19.8550  -32.0220 C   0  0  0  0  0  0  0  0  0  0  0  0
   -7.1390   18.4020  -32.4090 C   0  0  0  0  0  0  0  0  0  0  0  0
   -6.7280   18.2720  -33.7230 F   0  0  0  0  0  0  0  0  0  0  0  0
   -6.2220   17.7720  -31.5870 F   0  0  0  0  0  0  0  0  0  0  0  0
   -8.3670   17.7770  -32.2750 F   0  0  0  0  0  0  0  0  0  0  0  0
   -6.0620   20.6150  -31.8100 C   0  0  0  0  0  0  0  0  0  0  0  0
   -6.1960   21.9450  -31.3990 C   0  0  0  0  0  0  0  0  0  0  0  0
   -1.8976   20.9147  -30.2730 H   0  0  0  0  0  0  0  0  0  0  0  0
   -0.6707   20.0193  -31.2319 H   0  0  0  0  0  0  0  0  0  0  0  0
   -0.6747   21.8155  -31.2319 H   0  0  0  0  0  0  0  0  0  0  0  0
   -1.6862   19.0060  -33.0788 H   0  0  0  0  0  0  0  0  0  0  0  0
   -2.8664   19.9082  -34.0885 H   0  0  0  0  0  0  0  0  0  0  0  0
   -1.1347   20.3855  -34.0885 H   0  0  0  0  0  0  0  0  0  0  0  0
   -3.0480   25.2410  -30.2860 H   0  0  0  0  0  0  0  0  0  0  0  0
   -8.0120   24.5771  -30.6338 H   0  0  0  0  0  0  0  0  0  0  0  0
   -9.5883   22.2622  -31.2258 H   0  0  0  0  0  0  0  0  0  0  0  0
   -9.4170   19.8474  -31.9095 H   0  0  0  0  0  0  0  0  0  0  0  0
   -5.0678   20.1705  -31.9647 H   0  0  0  0  0  0  0  0  0  0  0  0
  1  2  1  0
  2  3  1  0
  2  4  1  0
  4  5  2  0
  4  6  1  0
  6  7  2  0
  6  8  1  0
  8  9  1  0
  9 10  1  0
 10 11  1  0
 10 12  2  0
  9 13  2  0
 13 14  1  0
 14 15  2  0
 15 16  1  0
 16 17  2  0
 17 18  1  0
 18 19  1  0
 18 20  1  0
 18 21  1  0
 17 22  1  0
 22 23  2  0
 23  8  1  0
 23 14  1  0
  1 24  1  0
  1 25  1  0
  1 26  1  0
  3 27  1  0
  3 28  1  0
  3 29  1  0
 11 30  1  0
 13 31  1  0
 15 32  1  0
 16 33  1  0
 22 34  1  0
M  CHG  1  11  -1
M  END
>  <UniqueID>  (60) 
60

>  <SMILES>  (60) 
CN(C)C(=O)C(=O)n1c(C([NH-])=O)cc2ccc(C(F)(F)F)cc21

>  <Energy>  (60) 
74.10367169851007

>  <Genealogy>  (60) 
CN(C)C(=O)C(=O)n1c(C([NH-])=O)cc2ccc(C(F)(F)F)cc21 (protonated)
CN(C)C(=O)C(=O)n1c(C([NH-])=O)cc2ccc(C(F)(F)F)cc21 (3D coordinates assigned)
CN(C)C(=O)C(=O)n1c(C([NH-])=O)cc2ccc(C(F)(F)F)cc21 (optimized conformer: 74.10367169851007 kcal/mol)

>  <smiles>  (60) 
CN(C)C(=O)C(=O)n1c(C(N)=O)cc2ccc(C(F)(F)F)cc21

>  <score_type>  (60) 
oracle

>  <origin>  (60) 
adg

>  <m_score__min__energy>  (60) 
-10.039999999999999

>  <m_primary>  (60) 
energy

$$$$
60:0
     RDKit          3D

 35 36  0  0  0  0  0  0  0  0999 V2000
   -2.4320   25.0220  -26.5500 C   0  0  0  0  0  0  0  0  0  0  0  0
   -1.9650   24.2440  -27.7870 C   0  0  1  0  0  0  0  0  0  0  0  0
   -3.1010   23.8560  -28.6290 N   0  0  0  0  0  0  0  0  0  0  0  0
   -3.3290   22.6300  -29.3430 C   0  0  0  0  0  0  0  0  0  0  0  0
   -3.1280   21.5440  -28.7370 O   0  0  0  0  0  0  0  0  0  0  0  0
   -3.7940   22.5720  -30.7440 C   0  0  0  0  0  0  0  0  0  0  0  0
   -3.0020   22.2560  -31.6690 O   0  0  0  0  0  0  0  0  0  0  0  0
   -5.1710   22.8360  -31.0560 N   0  0  0  0  0  0  0  0  0  0  0  0
   -5.8490   24.0100  -30.9120 C   0  0  0  0  0  0  0  0  0  0  0  0
   -5.2600   25.3040  -30.5080 C   0  0  0  0  0  0  0  0  0  0  0  0
   -3.9110   25.6070  -30.8520 N   0  0  0  0  0  0  0  0  0  0  0  0
   -5.9280   26.1360  -29.8390 O   0  0  0  0  0  0  0  0  0  0  0  0
   -7.1890   23.8430  -31.2560 C   0  0  0  0  0  0  0  0  0  0  0  0
   -7.3120   22.5210  -31.6160 C   0  0  0  0  0  0  0  0  0  0  0  0
   -8.4320   21.8030  -32.0270 C   0  0  0  0  0  0  0  0  0  0  0  0
   -8.2720   20.4330  -32.3040 C   0  0  0  0  0  0  0  0  0  0  0  0
   -7.0070   19.8090  -32.1570 C   0  0  0  0  0  0  0  0  0  0  0  0
   -6.8420   18.3440  -32.4380 C   0  0  0  0  0  0  0  0  0  0  0  0
   -8.0520   17.6970  -32.2650 F   0  0  0  0  0  0  0  0  0  0  0  0
   -6.4120   18.1660  -33.7400 F   0  0  0  0  0  0  0  0  0  0  0  0
   -5.8940   20.5710  -31.7350 C   0  0  0  0  0  0  0  0  0  0  0  0
   -6.0800   21.9350  -31.4850 C   0  0  0  0  0  0  0  0  0  0  0  0
   -0.9120   24.9660  -28.5810 C   0  0  0  0  0  0  0  0  0  0  0  0
   -1.2340   25.9310  -29.3230 O   0  0  0  0  0  0  0  0  0  0  0  0
    0.4100   24.5340  -28.5670 O   0  0  0  0  0  0  0  0  0  0  0  0
   -2.1132   24.4910  -25.6409 H   0  0  0  0  0  0  0  0  0  0  0  0
   -1.9887   26.0287  -26.5611 H   0  0  0  0  0  0  0  0  0  0  0  0
   -3.5289   25.1042  -26.5611 H   0  0  0  0  0  0  0  0  0  0  0  0
   -1.4850   23.3281  -27.4119 H   0  0  0  0  0  0  0  0  0  0  0  0
   -3.1190   25.2930  -30.2490 H   0  0  0  0  0  0  0  0  0  0  0  0
   -7.9807   24.6065  -31.2425 H   0  0  0  0  0  0  0  0  0  0  0  0
   -9.4118   22.2919  -32.1319 H   0  0  0  0  0  0  0  0  0  0  0  0
   -9.1364   19.8401  -32.6378 H   0  0  0  0  0  0  0  0  0  0  0  0
   -6.0986   17.9253  -31.7437 H   0  0  0  0  0  0  0  0  0  0  0  0
   -4.9066   20.1036  -31.6064 H   0  0  0  0  0  0  0  0  0  0  0  0
  1  2  1  0
  2  3  1  0
  3  4  1  0
  4  5  2  0
  4  6  1  0
  6  7  2  0
  6  8  1  0
  8  9  1  0
  9 10  1  0
 10 11  1  0
 10 12  2  0
  9 13  2  0
 13 14  1  0
 14 15  2  0
 15 16  1  0
 16 17  2  0
 17 18  1  0
 18 19  1  0
 18 20  1  0
 17 21  1  0
 21 22  2  0
  2 23  1  0
 23 24  2  0
 23 25  1  0
 22  8  1  0
 22 14  1  0
  1 26  1  0
  1 27  1  0
  1 28  1  0
  2 29  1  1
 11 30  1  0
 13 31  1  0
 15 32  1  0
 16 33  1  0
 18 34  1  0
 21 35  1  0
M  CHG  3   3  -1  11  -1  25  -1
M  END
>  <UniqueID>  (61) 
61

>  <SMILES>  (61) 
C[C@@H]([N-]C(=O)C(=O)n1c(C([NH-])=O)cc2ccc(C(F)F)cc21)C(=O)[O-]

>  <Energy>  (61) 
75.98695974378191

>  <Genealogy>  (61) 
CC([N-]C(=O)C(=O)n1c(C([NH-])=O)cc2ccc(C(F)F)cc21)C(=O)[O-] (protonated)
C[C@@H]([N-]C(=O)C(=O)n1c(C([NH-])=O)cc2ccc(C(F)F)cc21)C(=O)[O-] (chirality)
C[C@@H]([N-]C(=O)C(=O)n1c(C([NH-])=O)cc2ccc(C(F)F)cc21)C(=O)[O-] (3D coordinates assigned)
C[C@@H]([N-]C(=O)C(=O)n1c(C([NH-])=O)cc2ccc(C(F)F)cc21)C(=O)[O-] (optimized conformer: 75.98695974378191 kcal/mol)

>  <smiles>  (61) 
CC(NC(=O)C(=O)n1c(C(N)=O)cc2ccc(C(F)F)cc21)C(=O)O

>  <score_type>  (61) 
oracle

>  <origin>  (61) 
adg

>  <m_score__min__energy>  (61) 
-13.08

>  <m_primary>  (61) 
energy

$$$$
61:0
     RDKit          3D

 42 44  0  0  0  0  0  0  0  0999 V2000
   -4.2070   24.8800  -26.6970 C   0  0  0  0  0  0  0  0  0  0  0  0
   -3.1690   24.2370  -27.5550 C   0  0  0  0  0  0  0  0  0  0  0  0
   -2.9110   22.8870  -27.6290 C   0  0  0  0  0  0  0  0  0  0  0  0
   -1.9480   22.7110  -28.5470 N   0  0  0  0  0  0  0  0  0  0  0  0
   -1.3790   21.4390  -28.9920 C   0  0  0  0  0  0  0  0  0  0  0  0
   -2.0360   20.9660  -30.2910 C   0  0  0  0  0  0  0  0  0  0  0  0
   -3.4410   21.3710  -30.3350 N   0  0  0  0  0  0  0  0  0  0  0  0
   -3.9020   22.5530  -31.0060 C   0  0  0  0  0  0  0  0  0  0  0  0
   -3.0820   23.3470  -31.5400 O   0  0  0  0  0  0  0  0  0  0  0  0
   -5.3090   22.8330  -31.0720 N   0  0  0  0  0  0  0  0  0  0  0  0
   -5.9390   24.0160  -30.8290 C   0  0  0  0  0  0  0  0  0  0  0  0
   -5.2930   25.2610  -30.3620 C   0  0  0  0  0  0  0  0  0  0  0  0
   -4.0120   25.6280  -30.8680 N   0  0  0  0  0  0  0  0  0  0  0  0
   -5.8710   26.0180  -29.5390 O   0  0  0  0  0  0  0  0  0  0  0  0
   -7.3150   23.8800  -31.0100 C   0  0  0  0  0  0  0  0  0  0  0  0
   -7.5070   22.5650  -31.3720 C   0  0  0  0  0  0  0  0  0  0  0  0
   -8.6800   21.8790  -31.6670 C   0  0  0  0  0  0  0  0  0  0  0  0
   -8.5780   20.5250  -32.0270 C   0  0  0  0  0  0  0  0  0  0  0  0
   -7.3110   19.8890  -32.1130 C   0  0  0  0  0  0  0  0  0  0  0  0
   -7.2130   18.4280  -32.4680 C   0  0  0  0  0  0  0  0  0  0  0  0
   -6.8230   18.2730  -33.7870 F   0  0  0  0  0  0  0  0  0  0  0  0
   -6.2780   17.8230  -31.6490 F   0  0  0  0  0  0  0  0  0  0  0  0
   -8.4330   17.7970  -32.3010 F   0  0  0  0  0  0  0  0  0  0  0  0
   -6.1450   20.6170  -31.7830 C   0  0  0  0  0  0  0  0  0  0  0  0
   -6.2810   21.9570  -31.4060 C   0  0  0  0  0  0  0  0  0  0  0  0
   -1.6490   23.9410  -29.0110 C   0  0  0  0  0  0  0  0  0  0  0  0
   -2.3870   24.9070  -28.4270 N   0  0  0  0  0  0  0  0  0  0  0  0
   -3.9551   24.7240  -25.6376 H   0  0  0  0  0  0  0  0  0  0  0  0
   -4.2425   25.9585  -26.9105 H   0  0  0  0  0  0  0  0  0  0  0  0
   -5.1885   24.4315  -26.9105 H   0  0  0  0  0  0  0  0  0  0  0  0
   -3.4038   22.0972  -27.0431 H   0  0  0  0  0  0  0  0  0  0  0  0
   -0.2998   21.5679  -29.1614 H   0  0  0  0  0  0  0  0  0  0  0  0
   -1.5606   20.6835  -28.2133 H   0  0  0  0  0  0  0  0  0  0  0  0
   -1.5052   21.4089  -31.1466 H   0  0  0  0  0  0  0  0  0  0  0  0
   -1.9820   19.8683  -30.3363 H   0  0  0  0  0  0  0  0  0  0  0  0
   -4.1370   20.8050  -29.7990 H   0  0  0  0  0  0  0  0  0  0  0  0
   -3.1370   25.2420  -30.4460 H   0  0  0  0  0  0  0  0  0  0  0  0
   -8.0836   24.6576  -30.8893 H   0  0  0  0  0  0  0  0  0  0  0  0
   -9.6576   22.3811  -31.6199 H   0  0  0  0  0  0  0  0  0  0  0  0
   -9.4904   19.9504  -32.2449 H   0  0  0  0  0  0  0  0  0  0  0  0
   -5.1542   20.1408  -31.8218 H   0  0  0  0  0  0  0  0  0  0  0  0
   -0.8875   24.1352  -29.7807 H   0  0  0  0  0  0  0  0  0  0  0  0
  1  2  1  0
  2  3  2  0
  3  4  1  0
  4  5  1  0
  5  6  1  0
  6  7  1  0
  7  8  1  0
  8  9  2  0
  8 10  1  0
 10 11  1  0
 11 12  1  0
 12 13  1  0
 12 14  2  0
 11 15  2  0
 15 16  1  0
 16 17  2  0
 17 18  1  0
 18 19  2  0
 19 20  1  0
 20 21  1  0
 20 22  1  0
 20 23  1  0
 19 24  1  0
 24 25  2  0
  4 26  1  0
 26 27  2  0
 27  2  1  0
 25 10  1  0
 25 16  1  0
  1 28  1  0
  1 29  1  0
  1 30  1  0
  3 31  1  0
  5 32  1  0
  5 33  1  0
  6 34  1  0
  6 35  1  0
  7 36  1  0
 13 37  1  0
 15 38  1  0
 17 39  1  0
 18 40  1  0
 24 41  1  0
 26 42  1  0
M  CHG  1  13  -1
M  END
>  <UniqueID>  (62) 
62

>  <SMILES>  (62) 
Cc1cn(CCNC(=O)n2c(C([NH-])=O)cc3ccc(C(F)(F)F)cc32)cn1

>  <Energy>  (62) 
105.79573916679655

>  <Genealogy>  (62) 
Cc1cn(CCNC(=O)n2c(C([NH-])=O)cc3ccc(C(F)(F)F)cc32)cn1 (protonated)
Cc1cn(CCNC(=O)n2c(C([NH-])=O)cc3ccc(C(F)(F)F)cc32)cn1 (3D coordinates assigned)
Cc1cn(CCNC(=O)n2c(C([NH-])=O)cc3ccc(C(F)(F)F)cc32)cn1 (optimized conformer: 105.79573916679655 kcal/mol)

>  <smiles>  (62) 
Cc1cn(CCNC(=O)n2c(C(N)=O)cc3ccc(C(F)(F)F)cc32)cn1

>  <score_type>  (62) 
oracle

>  <origin>  (62) 
adg

>  <m_score__min__energy>  (62) 
-10.710000000000001

>  <m_primary>  (62) 
energy

$$$$
62:0
     RDKit          3D

 39 40  0  0  0  0  0  0  0  0999 V2000
   -4.2260   25.5410  -30.6960 N   0  0  0  0  0  0  0  0  0  0  0  0
   -5.5580   25.1260  -30.3760 C   0  0  0  0  0  0  0  0  0  0  0  0
   -6.2730   25.8720  -29.6580 O   0  0  0  0  0  0  0  0  0  0  0  0
   -6.1000   23.8510  -30.8980 C   0  0  0  0  0  0  0  0  0  0  0  0
   -7.4380   23.6470  -31.2340 C   0  0  0  0  0  0  0  0  0  0  0  0
   -7.5250   22.3240  -31.6030 C   0  0  0  0  0  0  0  0  0  0  0  0
   -8.6190   21.5880  -32.0510 C   0  0  0  0  0  0  0  0  0  0  0  0
   -8.4080   20.2450  -32.4050 C   0  0  0  0  0  0  0  0  0  0  0  0
   -7.1150   19.6740  -32.3260 C   0  0  0  0  0  0  0  0  0  0  0  0
   -6.9010   18.2370  -32.6980 C   0  0  0  0  0  0  0  0  0  0  0  0
   -6.4870   18.1580  -34.0140 F   0  0  0  0  0  0  0  0  0  0  0  0
   -6.0330   20.4460  -31.8500 C   0  0  0  0  0  0  0  0  0  0  0  0
   -6.2750   21.7740  -31.4860 C   0  0  0  0  0  0  0  0  0  0  0  0
   -5.3910   22.6960  -31.0500 N   0  0  0  0  0  0  0  0  0  0  0  0
   -3.9800   22.5050  -30.8620 C   0  0  0  0  0  0  0  0  0  0  0  0
   -3.1590   23.1790  -31.5410 O   0  0  0  0  0  0  0  0  0  0  0  0
   -3.5090   21.5600  -29.8950 N   0  0  0  0  0  0  0  0  0  0  0  0
   -3.0700   21.9330  -28.5530 C   0  0  0  0  0  0  0  0  0  0  0  0
   -3.7260   23.2460  -28.1070 C   0  0  0  0  0  0  0  0  0  0  0  0
   -2.7440   24.1380  -27.3330 C   0  0  0  0  0  0  0  0  0  0  0  0
   -1.6560   24.7060  -28.2460 C   0  0  0  0  0  0  0  0  0  0  0  0
   -2.2340   25.2390  -29.4060 O   0  0  0  0  0  0  0  0  0  0  0  0
   -3.8620   26.4530  -30.3400 H   0  0  0  0  0  0  0  0  0  0  0  0
   -3.5780   24.9230  -31.2310 H   0  0  0  0  0  0  0  0  0  0  0  0
   -8.2516   24.3869  -31.2093 H   0  0  0  0  0  0  0  0  0  0  0  0
   -9.6173   22.0440  -32.1254 H   0  0  0  0  0  0  0  0  0  0  0  0
   -9.2549   19.6317  -32.7466 H   0  0  0  0  0  0  0  0  0  0  0  0
   -6.1314   17.8000  -32.0448 H   0  0  0  0  0  0  0  0  0  0  0  0
   -7.8434   17.6828  -32.5765 H   0  0  0  0  0  0  0  0  0  0  0  0
   -5.0249   20.0135  -31.7676 H   0  0  0  0  0  0  0  0  0  0  0  0
   -3.3470   21.1347  -27.8487 H   0  0  0  0  0  0  0  0  0  0  0  0
   -1.9789   22.0724  -28.5665 H   0  0  0  0  0  0  0  0  0  0  0  0
   -4.0760   23.7898  -28.9968 H   0  0  0  0  0  0  0  0  0  0  0  0
   -4.5651   23.0004  -27.4394 H   0  0  0  0  0  0  0  0  0  0  0  0
   -3.3006   24.9718  -26.8802 H   0  0  0  0  0  0  0  0  0  0  0  0
   -2.2577   23.5235  -26.5610 H   0  0  0  0  0  0  0  0  0  0  0  0
   -1.1107   25.4990  -27.7132 H   0  0  0  0  0  0  0  0  0  0  0  0
   -0.9622   23.8996  -28.5260 H   0  0  0  0  0  0  0  0  0  0  0  0
   -2.2440   24.5040  -30.0740 H   0  0  0  0  0  0  0  0  0  0  0  0
  1  2  1  0
  2  3  2  0
  2  4  1  0
  4  5  2  0
  5  6  1  0
  6  7  2  0
  7  8  1  0
  8  9  2  0
  9 10  1  0
 10 11  1  0
  9 12  1  0
 12 13  2  0
 13 14  1  0
 14 15  1  0
 15 16  2  0
 15 17  1  0
 17 18  1  0
 18 19  1  0
 19 20  1  0
 20 21  1  0
 21 22  1  0
 14  4  1  0
 13  6  1  0
  1 23  1  0
  1 24  1  0
  5 25  1  0
  7 26  1  0
  8 27  1  0
 10 28  1  0
 10 29  1  0
 12 30  1  0
 18 31  1  0
 18 32  1  0
 19 33  1  0
 19 34  1  0
 20 35  1  0
 20 36  1  0
 21 37  1  0
 21 38  1  0
 22 39  1  0
M  CHG  1  17  -1
M  END
>  <UniqueID>  (63) 
63

>  <SMILES>  (63) 
NC(=O)c1cc2ccc(CF)cc2n1C(=O)[N-]CCCCO

>  <Energy>  (63) 
68.74156413496085

>  <Genealogy>  (63) 
NC(=O)c1cc2ccc(CF)cc2n1C(=O)[N-]CCCCO (protonated)
NC(=O)c1cc2ccc(CF)cc2n1C(=O)[N-]CCCCO (3D coordinates assigned)
NC(=O)c1cc2ccc(CF)cc2n1C(=O)[N-]CCCCO (optimized conformer: 68.74156413496085 kcal/mol)

>  <smiles>  (63) 
NC(=O)c1cc2ccc(CF)cc2n1C(=O)NCCCCO

>  <score_type>  (63) 
oracle

>  <origin>  (63) 
adg

>  <m_score__min__energy>  (63) 
-8.3100000000000005

>  <m_primary>  (63) 
energy

$$$$
63:0
     RDKit          3D

 38 39  0  0  0  0  0  0  0  0999 V2000
   -4.1090   23.7770  -27.5720 C   0  0  0  0  0  0  0  0  0  0  0  0
   -3.0500   22.9970  -28.2210 N   0  0  0  0  0  0  0  0  0  0  0  0
   -1.6590   23.2170  -27.8020 C   0  0  0  0  0  0  0  0  0  0  0  0
   -0.9800   24.2480  -28.7060 C   0  0  0  0  0  0  0  0  0  0  0  0
   -1.9410   25.0630  -29.3190 O   0  0  0  0  0  0  0  0  0  0  0  0
   -3.3260   22.1400  -29.3560 C   0  0  0  0  0  0  0  0  0  0  0  0
   -3.2320   20.8900  -29.2170 O   0  0  0  0  0  0  0  0  0  0  0  0
   -3.7190   22.6630  -30.6880 C   0  0  0  0  0  0  0  0  0  0  0  0
   -2.8520   22.9670  -31.5480 O   0  0  0  0  0  0  0  0  0  0  0  0
   -5.1070   22.8390  -31.0100 N   0  0  0  0  0  0  0  0  0  0  0  0
   -5.8470   23.9760  -30.8930 C   0  0  0  0  0  0  0  0  0  0  0  0
   -5.3320   25.3000  -30.4880 C   0  0  0  0  0  0  0  0  0  0  0  0
   -3.9950   25.6740  -30.8170 N   0  0  0  0  0  0  0  0  0  0  0  0
   -6.0550   26.1030  -29.8400 O   0  0  0  0  0  0  0  0  0  0  0  0
   -7.1730   23.7310  -31.2480 C   0  0  0  0  0  0  0  0  0  0  0  0
   -7.2210   22.3960  -31.5830 C   0  0  0  0  0  0  0  0  0  0  0  0
   -8.2960   21.6090  -31.9830 C   0  0  0  0  0  0  0  0  0  0  0  0
   -8.0590   20.2460  -32.2270 C   0  0  0  0  0  0  0  0  0  0  0  0
   -6.7590   19.6960  -32.0800 C   0  0  0  0  0  0  0  0  0  0  0  0
   -6.5310   18.2210  -32.2880 C   0  0  0  0  0  0  0  0  0  0  0  0
   -5.5700   18.0070  -33.2610 F   0  0  0  0  0  0  0  0  0  0  0  0
   -6.1020   17.6220  -31.1170 F   0  0  0  0  0  0  0  0  0  0  0  0
   -7.7150   17.6300  -32.6880 F   0  0  0  0  0  0  0  0  0  0  0  0
   -5.6990   20.5250  -31.6470 C   0  0  0  0  0  0  0  0  0  0  0  0
   -5.9620   21.8810  -31.4270 C   0  0  0  0  0  0  0  0  0  0  0  0
   -4.0042   23.6998  -26.4797 H   0  0  0  0  0  0  0  0  0  0  0  0
   -4.0259   24.8312  -27.8748 H   0  0  0  0  0  0  0  0  0  0  0  0
   -5.0911   23.3849  -27.8748 H   0  0  0  0  0  0  0  0  0  0  0  0
   -1.6476   23.5828  -26.7647 H   0  0  0  0  0  0  0  0  0  0  0  0
   -1.1119   22.2656  -27.8765 H   0  0  0  0  0  0  0  0  0  0  0  0
   -0.3060   24.8729  -28.1017 H   0  0  0  0  0  0  0  0  0  0  0  0
   -0.4079   23.7212  -29.4839 H   0  0  0  0  0  0  0  0  0  0  0  0
   -2.2960   24.5510  -30.0920 H   0  0  0  0  0  0  0  0  0  0  0  0
   -3.2330   24.9620  -30.8550 H   0  0  0  0  0  0  0  0  0  0  0  0
   -8.0044   24.4512  -31.2583 H   0  0  0  0  0  0  0  0  0  0  0  0
   -9.3005   22.0405  -32.1045 H   0  0  0  0  0  0  0  0  0  0  0  0
   -8.8916   19.5968  -32.5359 H   0  0  0  0  0  0  0  0  0  0  0  0
   -4.6915   20.1135  -31.4869 H   0  0  0  0  0  0  0  0  0  0  0  0
  1  2  1  0
  2  3  1  0
  3  4  1  0
  4  5  1  0
  2  6  1  0
  6  7  2  0
  6  8  1  0
  8  9  2  0
  8 10  1  0
 10 11  1  0
 11 12  1  0
 12 13  1  0
 12 14  2  0
 11 15  2  0
 15 16  1  0
 16 17  2  0
 17 18  1  0
 18 19  2  0
 19 20  1  0
 20 21  1  0
 20 22  1  0
 20 23  1  0
 19 24  1  0
 24 25  2  0
 25 10  1  0
 25 16  1  0
  1 26  1  0
  1 27  1  0
  1 28  1  0
  3 29  1  0
  3 30  1  0
  4 31  1  0
  4 32  1  0
  5 33  1  0
 13 34  1  0
 15 35  1  0
 17 36  1  0
 18 37  1  0
 24 38  1  0
M  CHG  1  13  -1
M  END
>  <UniqueID>  (64) 
64

>  <SMILES>  (64) 
CN(CCO)C(=O)C(=O)n1c(C([NH-])=O)cc2ccc(C(F)(F)F)cc21

>  <Energy>  (64) 
76.70917225394568

>  <Genealogy>  (64) 
CN(CCO)C(=O)C(=O)n1c(C([NH-])=O)cc2ccc(C(F)(F)F)cc21 (protonated)
CN(CCO)C(=O)C(=O)n1c(C([NH-])=O)cc2ccc(C(F)(F)F)cc21 (3D coordinates assigned)
CN(CCO)C(=O)C(=O)n1c(C([NH-])=O)cc2ccc(C(F)(F)F)cc21 (optimized conformer: 76.70917225394568 kcal/mol)

>  <smiles>  (64) 
CN(CCO)C(=O)C(=O)n1c(C(N)=O)cc2ccc(C(F)(F)F)cc21

>  <score_type>  (64) 
oracle

>  <origin>  (64) 
adg

>  <m_score__min__energy>  (64) 
-10.140000000000001

>  <m_primary>  (64) 
energy

$$$$
64:0
     RDKit          3D

 43 44  0  0  0  0  0  0  0  0999 V2000
   -4.7510   17.2560  -32.8120 C   0  0  0  0  0  0  0  0  0  0  0  0
   -6.1020   17.8310  -32.8360 N   0  0  0  0  0  0  0  0  0  0  0  0
   -7.2370   16.9590  -33.1660 C   0  0  0  0  0  0  0  0  0  0  0  0
   -6.3130   19.2380  -32.5380 C   0  0  0  0  0  0  0  0  0  0  0  0
   -7.4870   19.9120  -32.9830 C   0  0  0  0  0  0  0  0  0  0  0  0
   -7.6930   21.2740  -32.7030 C   0  0  0  0  0  0  0  0  0  0  0  0
   -6.7220   21.9440  -31.9690 C   0  0  0  0  0  0  0  0  0  0  0  0
   -6.6570   23.2640  -31.5810 C   0  0  0  0  0  0  0  0  0  0  0  0
   -5.4550   23.3850  -30.8830 C   0  0  0  0  0  0  0  0  0  0  0  0
   -5.0020   24.6360  -30.2400 C   0  0  0  0  0  0  0  0  0  0  0  0
   -3.8350   25.3150  -30.6950 N   0  0  0  0  0  0  0  0  0  0  0  0
   -5.6380   25.0970  -29.2530 O   0  0  0  0  0  0  0  0  0  0  0  0
   -4.8100   22.1850  -30.8410 N   0  0  0  0  0  0  0  0  0  0  0  0
   -3.5220   21.8950  -30.2770 C   0  0  0  0  0  0  0  0  0  0  0  0
   -3.4270   21.0910  -29.3100 O   0  0  0  0  0  0  0  0  0  0  0  0
   -2.3160   22.5550  -30.7910 C   0  0  0  0  0  0  0  0  0  0  0  0
   -1.9270   22.3240  -31.9690 O   0  0  0  0  0  0  0  0  0  0  0  0
   -1.6150   23.4480  -29.9730 O   0  0  0  0  0  0  0  0  0  0  0  0
   -1.4160   23.2390  -28.5760 C   0  0  0  0  0  0  0  0  0  0  0  0
   -1.8880   24.4550  -27.7530 C   0  0  2  0  0  0  0  0  0  0  0  0
   -3.2270   24.7460  -28.0610 O   0  0  0  0  0  0  0  0  0  0  0  0
   -1.0260   25.6980  -28.0160 C   0  0  0  0  0  0  0  0  0  0  0  0
   -1.2170   26.1830  -29.3190 O   0  0  0  0  0  0  0  0  0  0  0  0
   -5.5960   21.3170  -31.5140 C   0  0  0  0  0  0  0  0  0  0  0  0
   -5.3500   19.9700  -31.7950 C   0  0  0  0  0  0  0  0  0  0  0  0
   -4.4293   17.1191  -31.7691 H   0  0  0  0  0  0  0  0  0  0  0  0
   -4.7576   16.2827  -33.3245 H   0  0  0  0  0  0  0  0  0  0  0  0
   -4.0541   17.9355  -33.3245 H   0  0  0  0  0  0  0  0  0  0  0  0
   -7.7051   16.5994  -32.2378 H   0  0  0  0  0  0  0  0  0  0  0  0
   -7.9751   17.5245  -33.7537 H   0  0  0  0  0  0  0  0  0  0  0  0
   -6.8808   16.1001  -33.7537 H   0  0  0  0  0  0  0  0  0  0  0  0
   -8.2449   19.3570  -33.5553 H   0  0  0  0  0  0  0  0  0  0  0  0
   -8.5963   21.7940  -33.0546 H   0  0  0  0  0  0  0  0  0  0  0  0
   -7.3956   24.0546  -31.7793 H   0  0  0  0  0  0  0  0  0  0  0  0
   -2.9200   25.2000  -30.2040 H   0  0  0  0  0  0  0  0  0  0  0  0
   -1.9851   22.3515  -28.2621 H   0  0  0  0  0  0  0  0  0  0  0  0
   -0.3402   23.0958  -28.3968 H   0  0  0  0  0  0  0  0  0  0  0  0
   -1.7891   24.1922  -26.6894 H   0  0  0  0  0  0  0  0  0  0  0  0
   -3.2170   25.3080  -28.8800 H   0  0  0  0  0  0  0  0  0  0  0  0
   -1.3010   26.4838  -27.2970 H   0  0  0  0  0  0  0  0  0  0  0  0
    0.0316   25.4186  -27.9004 H   0  0  0  0  0  0  0  0  0  0  0  0
   -1.9680   25.6640  -29.7110 H   0  0  0  0  0  0  0  0  0  0  0  0
   -4.4260   19.4855  -31.4464 H   0  0  0  0  0  0  0  0  0  0  0  0
  1  2  1  0
  2  3  1  0
  2  4  1  0
  4  5  2  0
  5  6  1  0
  6  7  2  0
  7  8  1  0
  8  9  2  0
  9 10  1  0
 10 11  1  0
 10 12  2  0
  9 13  1  0
 13 14  1  0
 14 15  2  0
 14 16  1  0
 16 17  2  0
 16 18  1  0
 18 19  1  0
 19 20  1  0
 20 21  1  0
 20 22  1  0
 22 23  1  0
 13 24  1  0
 24 25  2  0
 25  4  1  0
 24  7  1  0
  1 26  1  0
  1 27  1  0
  1 28  1  0
  3 29  1  0
  3 30  1  0
  3 31  1  0
  5 32  1  0
  6 33  1  0
  8 34  1  0
 11 35  1  0
 19 36  1  0
 19 37  1  0
 20 38  1  1
 21 39  1  0
 22 40  1  0
 22 41  1  0
 23 42  1  0
 25 43  1  0
M  CHG  1  11  -1
M  END
>  <UniqueID>  (65) 
65

>  <SMILES>  (65) 
CN(C)c1ccc2cc(C([NH-])=O)n(C(=O)C(=O)OC[C@H](O)CO)c2c1

>  <Energy>  (65) 
77.6642367507519

>  <Genealogy>  (65) 
CN(C)c1ccc2cc(C([NH-])=O)n(C(=O)C(=O)OCC(O)CO)c2c1 (protonated)
CN(C)c1ccc2cc(C([NH-])=O)n(C(=O)C(=O)OC[C@H](O)CO)c2c1 (chirality)
CN(C)c1ccc2cc(C([NH-])=O)n(C(=O)C(=O)OC[C@H](O)CO)c2c1 (3D coordinates assigned)
CN(C)c1ccc2cc(C([NH-])=O)n(C(=O)C(=O)OC[C@H](O)CO)c2c1 (optimized conformer: 77.6642367507519 kcal/mol)

>  <smiles>  (65) 
CN(C)c1ccc2cc(C(N)=O)n(C(=O)C(=O)OCC(O)CO)c2c1

>  <score_type>  (65) 
oracle

>  <origin>  (65) 
adg

>  <m_score__min__energy>  (65) 
-9.2599999999999998

>  <m_primary>  (65) 
energy

$$$$
65:0
     RDKit          3D

 39 40  0  0  0  0  0  0  0  0999 V2000
   -4.7750   25.7070  -29.7150 H   0  0  0  0  0  0  0  0  0  0  0  0
   -4.1900   25.2990  -30.4600 N   0  0  0  0  0  0  0  0  0  0  0  0
   -4.6020   24.3630  -31.1760 N   0  0  0  0  0  0  0  0  0  0  0  0
   -5.9200   23.7930  -31.0030 C   0  0  0  0  0  0  0  0  0  0  0  0
   -5.8263   22.8005  -30.5381 H   0  0  0  0  0  0  0  0  0  0  0  0
   -6.5130   24.4602  -30.3603 H   0  0  0  0  0  0  0  0  0  0  0  0
   -6.6290   23.6510  -32.3550 C   0  0  0  0  0  0  0  0  0  0  0  0
   -6.9413   24.6459  -32.7051 H   0  0  0  0  0  0  0  0  0  0  0  0
   -5.9321   23.1948  -33.0734 H   0  0  0  0  0  0  0  0  0  0  0  0
   -7.8130   22.7890  -32.2330 N   0  0  0  0  0  0  0  0  0  0  0  0
   -7.7110   21.3420  -32.3150 C   0  0  0  0  0  0  0  0  0  0  0  0
   -8.8240   20.5110  -31.9990 C   0  0  0  0  0  0  0  0  0  0  0  0
   -9.7691   20.9720  -31.6762 H   0  0  0  0  0  0  0  0  0  0  0  0
   -8.7340   19.1120  -32.0930 C   0  0  0  0  0  0  0  0  0  0  0  0
   -9.5964   18.4722  -31.8545 H   0  0  0  0  0  0  0  0  0  0  0  0
   -7.5240   18.5600  -32.4960 C   0  0  0  0  0  0  0  0  0  0  0  0
   -7.1760   17.2440  -32.6990 C   0  0  0  0  0  0  0  0  0  0  0  0
   -7.8118   16.3571  -32.5609 H   0  0  0  0  0  0  0  0  0  0  0  0
   -5.8460   17.2740  -33.1170 C   0  0  0  0  0  0  0  0  0  0  0  0
   -5.0300   16.0690  -33.3970 C   0  0  0  0  0  0  0  0  0  0  0  0
   -4.9410   15.1540  -32.5370 O   0  0  0  0  0  0  0  0  0  0  0  0
   -4.3530   15.9160  -34.6460 N   0  0  0  0  0  0  0  0  0  0  0  0
   -3.8120   15.0450  -34.8430 H   0  0  0  0  0  0  0  0  0  0  0  0
   -4.3460   16.6760  -35.3610 H   0  0  0  0  0  0  0  0  0  0  0  0
   -5.3930   18.5590  -33.1620 N   0  0  0  0  0  0  0  0  0  0  0  0
   -4.0990   19.0100  -33.5930 C   0  0  0  0  0  0  0  0  0  0  0  0
   -3.6170   18.5740  -34.6750 O   0  0  0  0  0  0  0  0  0  0  0  0
   -3.3340   19.9630  -32.7660 C   0  0  0  0  0  0  0  0  0  0  0  0
   -2.8747   19.6035  -31.8334 H   0  0  0  0  0  0  0  0  0  0  0  0
   -3.1780   21.2420  -33.1050 C   0  0  0  0  0  0  0  0  0  0  0  0
   -2.5989   21.9161  -32.4568 H   0  0  0  0  0  0  0  0  0  0  0  0
   -3.6283   21.6239  -34.0331 H   0  0  0  0  0  0  0  0  0  0  0  0
   -6.4340   19.3330  -32.7870 C   0  0  0  0  0  0  0  0  0  0  0  0
   -6.4980   20.7290  -32.7240 C   0  0  0  0  0  0  0  0  0  0  0  0
   -5.6229   21.3414  -32.9870 H   0  0  0  0  0  0  0  0  0  0  0  0
   -9.1130   23.4260  -31.9870 C   0  0  0  0  0  0  0  0  0  0  0  0
   -9.2816   23.5086  -30.9031 H   0  0  0  0  0  0  0  0  0  0  0  0
   -9.1204   24.4298  -32.4368 H   0  0  0  0  0  0  0  0  0  0  0  0
   -9.9108   22.8168  -32.4368 H   0  0  0  0  0  0  0  0  0  0  0  0
  1  2  1  0
  2  3  2  0
  3  4  1  0
  4  5  1  0
  4  6  1  0
  4  7  1  0
  7  8  1  0
  7  9  1  0
  7 10  1  0
 10 11  1  0
 11 12  2  0
 12 13  1  0
 12 14  1  0
 14 15  1  0
 14 16  2  0
 16 17  1  0
 17 18  1  0
 17 19  2  0
 19 20  1  0
 20 21  2  0
 20 22  1  0
 22 23  1  0
 22 24  1  0
 19 25  1  0
 25 26  1  0
 26 27  2  0
 26 28  1  0
 28 29  1  0
 28 30  2  0
 30 31  1  0
 30 32  1  0
 25 33  1  0
 33 34  2  0
 34 35  1  0
 10 36  1  0
 36 37  1  0
 36 38  1  0
 36 39  1  0
 34 11  1  0
 33 16  1  0
M  END
>  <UniqueID>  (66) 
66

>  <SMILES>  (66) 
[H]/N=N\CCN(C)c1ccc2cc(C(N)=O)n(C(=O)C=C)c2c1

>  <Energy>  (66) 
76.67489078168599

>  <Genealogy>  (66) 
[H]/N=N\CCN(C)c1ccc2cc(C(N)=O)n(C(=O)C=C)c2c1 (cis-trans isomerization)
[H]/N=N\CCN(C)c1ccc2cc(C(N)=O)n(C(=O)C=C)c2c1 (3D coordinates assigned)
[H]/N=N\CCN(C)c1ccc2cc(C(N)=O)n(C(=O)C=C)c2c1 (optimized conformer: 76.67489078168599 kcal/mol)

>  <smiles>  (66) 
C=CC(=O)n1c(C(N)=O)cc2ccc(N(C)CCN=N)cc21

>  <score_type>  (66) 
oracle

>  <origin>  (66) 
adg

>  <m_score__min__energy>  (66) 
-7.9400000000000004

>  <m_primary>  (66) 
energy

$$$$
66:0
     RDKit          3D

 31 32  0  0  0  0  0  0  0  0999 V2000
   -9.1400   20.7940  -31.9990 C   0  0  0  0  0  0  0  0  0  0  0  0
   -9.1070   21.7720  -30.9670 O   0  0  0  0  0  0  0  0  0  0  0  0
   -7.9410   22.4610  -30.6190 C   0  0  0  0  0  0  0  0  0  0  0  0
   -7.6400   22.6370  -29.4070 O   0  0  0  0  0  0  0  0  0  0  0  0
   -7.0560   22.9670  -31.6780 C   0  0  0  0  0  0  0  0  0  0  0  0
   -7.5030   23.7960  -32.5150 O   0  0  0  0  0  0  0  0  0  0  0  0
   -5.6950   22.5190  -31.7790 N   0  0  0  0  0  0  0  0  0  0  0  0
   -4.5950   23.0830  -31.2050 C   0  0  0  0  0  0  0  0  0  0  0  0
   -4.5870   24.3590  -30.4520 C   0  0  0  0  0  0  0  0  0  0  0  0
   -5.3730   24.5190  -29.2690 N   0  0  0  0  0  0  0  0  0  0  0  0
   -3.8670   25.3170  -30.8410 O   0  0  0  0  0  0  0  0  0  0  0  0
   -3.4600   22.3190  -31.4780 C   0  0  0  0  0  0  0  0  0  0  0  0
   -3.9060   21.2570  -32.2320 C   0  0  0  0  0  0  0  0  0  0  0  0
   -3.2080   20.1770  -32.7610 C   0  0  0  0  0  0  0  0  0  0  0  0
   -3.9340   19.2060  -33.4720 C   0  0  0  0  0  0  0  0  0  0  0  0
   -5.3380   19.3300  -33.6340 C   0  0  0  0  0  0  0  0  0  0  0  0
   -6.1140   18.2810  -34.3780 C   0  0  0  0  0  0  0  0  0  0  0  0
   -5.3230   17.7330  -35.3710 F   0  0  0  0  0  0  0  0  0  0  0  0
   -6.5030   17.2820  -33.5030 F   0  0  0  0  0  0  0  0  0  0  0  0
   -6.0130   20.4390  -33.0790 C   0  0  0  0  0  0  0  0  0  0  0  0
   -5.2600   21.4000  -32.3950 C   0  0  0  0  0  0  0  0  0  0  0  0
   -9.1739   19.7897  -31.5515 H   0  0  0  0  0  0  0  0  0  0  0  0
  -10.0335   20.9482  -32.6219 H   0  0  0  0  0  0  0  0  0  0  0  0
   -8.2382   20.8876  -32.6219 H   0  0  0  0  0  0  0  0  0  0  0  0
   -6.0330   23.7800  -28.9470 H   0  0  0  0  0  0  0  0  0  0  0  0
   -5.3280   25.4130  -28.7290 H   0  0  0  0  0  0  0  0  0  0  0  0
   -2.4273   22.5222  -31.1584 H   0  0  0  0  0  0  0  0  0  0  0  0
   -2.1200   20.0853  -32.6270 H   0  0  0  0  0  0  0  0  0  0  0  0
   -3.4091   18.3425  -33.9066 H   0  0  0  0  0  0  0  0  0  0  0  0
   -7.0040   18.7437  -34.8293 H   0  0  0  0  0  0  0  0  0  0  0  0
   -7.1031   20.5449  -33.1817 H   0  0  0  0  0  0  0  0  0  0  0  0
  1  2  1  0
  2  3  1  0
  3  4  2  0
  3  5  1  0
  5  6  2  0
  5  7  1  0
  7  8  1  0
  8  9  1  0
  9 10  1  0
  9 11  2  0
  8 12  2  0
 12 13  1  0
 13 14  2  0
 14 15  1  0
 15 16  2  0
 16 17  1  0
 17 18  1  0
 17 19  1  0
 16 20  1  0
 20 21  2  0
 21  7  1  0
 21 13  1  0
  1 22  1  0
  1 23  1  0
  1 24  1  0
 10 25  1  0
 10 26  1  0
 12 27  1  0
 14 28  1  0
 15 29  1  0
 17 30  1  0
 20 31  1  0
M  END
>  <UniqueID>  (67) 
67

>  <SMILES>  (67) 
COC(=O)C(=O)n1c(C(N)=O)cc2ccc(C(F)F)cc21

>  <Energy>  (67) 
67.55435258394809

>  <Genealogy>  (67) 
COC(=O)C(=O)n1c(C(N)=O)cc2ccc(C(F)F)cc21 (3D coordinates assigned)
COC(=O)C(=O)n1c(C(N)=O)cc2ccc(C(F)F)cc21 (optimized conformer: 67.55435258394809 kcal/mol)

>  <smiles>  (67) 
COC(=O)C(=O)n1c(C(N)=O)cc2ccc(C(F)F)cc21

>  <score_type>  (67) 
oracle

>  <origin>  (67) 
adg

>  <m_score__min__energy>  (67) 
-7.2999999999999998

>  <m_primary>  (67) 
energy

$$$$
67:0
     RDKit          3D

 27 29  0  0  0  0  0  0  0  0999 V2000
   -1.5630   25.9850  -28.8990 N   0  0  0  0  0  0  0  0  0  0  0  0
   -0.8640   24.7420  -28.9030 C   0  0  0  0  0  0  0  0  0  0  0  0
    0.1760   24.6170  -28.2050 O   0  0  0  0  0  0  0  0  0  0  0  0
   -1.3920   23.6050  -29.6860 C   0  0  0  0  0  0  0  0  0  0  0  0
   -0.6230   22.5040  -30.0550 C   0  0  0  0  0  0  0  0  0  0  0  0
   -1.4450   21.7300  -30.8400 C   0  0  0  0  0  0  0  0  0  0  0  0
   -1.1960   20.5160  -31.4670 C   0  0  0  0  0  0  0  0  0  0  0  0
   -2.2410   19.9230  -32.1960 C   0  0  0  0  0  0  0  0  0  0  0  0
   -3.5170   20.5430  -32.2800 C   0  0  0  0  0  0  0  0  0  0  0  0
   -4.6240   19.9110  -33.0420 C   0  0  0  0  0  0  0  0  0  0  0  0
   -5.9700   20.2850  -33.0420 C   0  0  0  0  0  0  0  0  0  0  0  0
   -6.7780   19.5330  -33.8360 N   0  0  0  0  0  0  0  0  0  0  0  0
   -6.1050   18.5530  -34.4770 C   0  0  0  0  0  0  0  0  0  0  0  0
   -4.4750   18.5900  -34.0810 S   0  0  0  0  0  0  0  0  0  0  0  0
   -3.7240   21.7830  -31.6270 C   0  0  0  0  0  0  0  0  0  0  0  0
   -2.6590   22.3580  -30.9230 C   0  0  0  0  0  0  0  0  0  0  0  0
   -2.6450   23.5120  -30.2160 N   0  0  0  0  0  0  0  0  0  0  0  0
   -3.7530   24.4030  -30.0130 C   0  0  0  0  0  0  0  0  0  0  0  0
   -4.6240   24.1470  -29.1390 O   0  0  0  0  0  0  0  0  0  0  0  0
   -3.8630   25.5690  -30.7600 O   0  0  0  0  0  0  0  0  0  0  0  0
   -2.6040   26.0150  -28.9660 H   0  0  0  0  0  0  0  0  0  0  0  0
    0.4211   22.2973  -29.7772 H   0  0  0  0  0  0  0  0  0  0  0  0
   -0.2103   20.0331  -31.3951 H   0  0  0  0  0  0  0  0  0  0  0  0
   -2.0688   18.9653  -32.7089 H   0  0  0  0  0  0  0  0  0  0  0  0
   -6.3486   21.1265  -32.4433 H   0  0  0  0  0  0  0  0  0  0  0  0
   -6.5637   17.8283  -35.1658 H   0  0  0  0  0  0  0  0  0  0  0  0
   -4.7021   22.2842  -31.6721 H   0  0  0  0  0  0  0  0  0  0  0  0
  1  2  1  0
  2  3  2  0
  2  4  1  0
  4  5  2  0
  5  6  1  0
  6  7  2  0
  7  8  1  0
  8  9  2  0
  9 10  1  0
 10 11  2  0
 11 12  1  0
 12 13  2  0
 13 14  1  0
  9 15  1  0
 15 16  2  0
 16 17  1  0
 17 18  1  0
 18 19  2  0
 18 20  1  0
 17  4  1  0
 16  6  1  0
 14 10  1  0
  1 21  1  0
  5 22  1  0
  7 23  1  0
  8 24  1  0
 11 25  1  0
 13 26  1  0
 15 27  1  0
M  CHG  2   1  -1  20  -1
M  END
>  <UniqueID>  (68) 
68

>  <SMILES>  (68) 
[NH-]C(=O)c1cc2ccc(-c3cncs3)cc2n1C(=O)[O-]

>  <Energy>  (68) 
101.37909433600474

>  <Genealogy>  (68) 
[NH-]C(=O)c1cc2ccc(-c3cncs3)cc2n1C(=O)[O-] (protonated)
[NH-]C(=O)c1cc2ccc(-c3cncs3)cc2n1C(=O)[O-] (3D coordinates assigned)
[NH-]C(=O)c1cc2ccc(-c3cncs3)cc2n1C(=O)[O-] (optimized conformer: 101.37909433600474 kcal/mol)

>  <smiles>  (68) 
NC(=O)c1cc2ccc(-c3cncs3)cc2n1C(=O)O

>  <score_type>  (68) 
oracle

>  <origin>  (68) 
adg

>  <m_score__min__energy>  (68) 
-10.84

>  <m_primary>  (68) 
energy

$$$$
68:0
     RDKit          3D

 42 44  0  0  0  0  0  0  0  0999 V2000
   -4.1130   25.5220  -30.3250 N   0  0  0  0  0  0  0  0  0  0  0  0
   -5.4800   25.1070  -30.3580 C   0  0  0  0  0  0  0  0  0  0  0  0
   -6.3750   25.9120  -29.9870 O   0  0  0  0  0  0  0  0  0  0  0  0
   -5.8430   23.7360  -30.7860 C   0  0  0  0  0  0  0  0  0  0  0  0
   -7.1530   23.3070  -30.9900 C   0  0  0  0  0  0  0  0  0  0  0  0
   -7.0440   22.0220  -31.4710 C   0  0  0  0  0  0  0  0  0  0  0  0
   -8.0360   21.1190  -31.8400 C   0  0  0  0  0  0  0  0  0  0  0  0
   -7.6380   19.8470  -32.2840 C   0  0  0  0  0  0  0  0  0  0  0  0
   -6.2640   19.4960  -32.3390 C   0  0  0  0  0  0  0  0  0  0  0  0
   -5.8680   18.1890  -32.7970 N   0  0  0  0  0  0  0  0  0  0  0  0
   -6.8240   17.0770  -32.8370 C   0  0  0  0  0  0  0  0  0  0  0  0
   -6.8040   16.3920  -34.2190 C   0  0  0  0  0  0  0  0  0  0  0  0
   -5.5130   16.5150  -34.9280 N   0  0  0  0  0  0  0  0  0  0  0  0
   -4.3740   16.6380  -34.0080 C   0  0  0  0  0  0  0  0  0  0  0  0
   -4.4780   17.9370  -33.1960 C   0  0  0  0  0  0  0  0  0  0  0  0
   -5.2860   20.4450  -31.9640 C   0  0  0  0  0  0  0  0  0  0  0  0
   -5.7120   21.7110  -31.5450 C   0  0  0  0  0  0  0  0  0  0  0  0
   -4.9600   22.7540  -31.1260 N   0  0  0  0  0  0  0  0  0  0  0  0
   -3.5280   22.7820  -31.0140 C   0  0  0  0  0  0  0  0  0  0  0  0
   -2.8130   22.3950  -31.9790 O   0  0  0  0  0  0  0  0  0  0  0  0
   -2.9310   23.2540  -29.8390 O   0  0  0  0  0  0  0  0  0  0  0  0
   -1.5290   23.1900  -29.5920 C   0  0  0  0  0  0  0  0  0  0  0  0
   -1.0250   24.5130  -29.1130 C   0  0  0  0  0  0  0  0  0  0  0  0
    0.0660   24.5890  -28.4880 O   0  0  0  0  0  0  0  0  0  0  0  0
   -1.7740   25.6610  -29.3320 O   0  0  0  0  0  0  0  0  0  0  0  0
   -3.8650   26.4770  -29.9830 H   0  0  0  0  0  0  0  0  0  0  0  0
   -3.3490   24.9040  -30.6760 H   0  0  0  0  0  0  0  0  0  0  0  0
   -8.0772   23.8744  -30.8059 H   0  0  0  0  0  0  0  0  0  0  0  0
   -9.1000   21.3928  -31.7857 H   0  0  0  0  0  0  0  0  0  0  0  0
   -8.3994   19.1154  -32.5923 H   0  0  0  0  0  0  0  0  0  0  0  0
   -6.5548   16.3411  -32.0650 H   0  0  0  0  0  0  0  0  0  0  0  0
   -7.8340   17.4714  -32.6517 H   0  0  0  0  0  0  0  0  0  0  0  0
   -7.0222   15.3230  -34.0792 H   0  0  0  0  0  0  0  0  0  0  0  0
   -7.5588   16.8988  -34.8383 H   0  0  0  0  0  0  0  0  0  0  0  0
   -5.5410   17.3680  -35.5350 H   0  0  0  0  0  0  0  0  0  0  0  0
   -4.3700   15.7799  -33.3197 H   0  0  0  0  0  0  0  0  0  0  0  0
   -3.4433   16.6577  -34.5939 H   0  0  0  0  0  0  0  0  0  0  0  0
   -3.8535   17.8505  -32.2946 H   0  0  0  0  0  0  0  0  0  0  0  0
   -4.1320   18.7736  -33.8208 H   0  0  0  0  0  0  0  0  0  0  0  0
   -4.2155   20.1947  -32.0005 H   0  0  0  0  0  0  0  0  0  0  0  0
   -1.3303   22.4269  -28.8251 H   0  0  0  0  0  0  0  0  0  0  0  0
   -1.0128   22.9282  -30.5274 H   0  0  0  0  0  0  0  0  0  0  0  0
  1  2  1  0
  2  3  2  0
  2  4  1  0
  4  5  2  0
  5  6  1  0
  6  7  2  0
  7  8  1  0
  8  9  2  0
  9 10  1  0
 10 11  1  0
 11 12  1  0
 12 13  1  0
 13 14  1  0
 14 15  1  0
  9 16  1  0
 16 17  2  0
 17 18  1  0
 18 19  1  0
 19 20  2  0
 19 21  1  0
 21 22  1  0
 22 23  1  0
 23 24  2  0
 23 25  1  0
 18  4  1  0
 17  6  1  0
 15 10  1  0
  1 26  1  0
  1 27  1  0
  5 28  1  0
  7 29  1  0
  8 30  1  0
 11 31  1  0
 11 32  1  0
 12 33  1  0
 12 34  1  0
 13 35  1  0
 14 36  1  0
 14 37  1  0
 15 38  1  0
 15 39  1  0
 16 40  1  0
 22 41  1  0
 22 42  1  0
M  CHG  1  25  -1
M  END
>  <UniqueID>  (69) 
69

>  <SMILES>  (69) 
NC(=O)c1cc2ccc(N3CCNCC3)cc2n1C(=O)OCC(=O)[O-]

>  <Energy>  (69) 
87.84231556769939

>  <Genealogy>  (69) 
NC(=O)c1cc2ccc(N3CCNCC3)cc2n1C(=O)OCC(=O)[O-] (protonated)
NC(=O)c1cc2ccc(N3CCNCC3)cc2n1C(=O)OCC(=O)[O-] (3D coordinates assigned)
NC(=O)c1cc2ccc(N3CCNCC3)cc2n1C(=O)OCC(=O)[O-] (nonaromatic ring conformer: 87.84231556769939 kcal/mol)

>  <smiles>  (69) 
NC(=O)c1cc2ccc(N3CCNCC3)cc2n1C(=O)OCC(=O)O

>  <score_type>  (69) 
oracle

>  <origin>  (69) 
adg

>  <m_score__min__energy>  (69) 
-11.19

>  <m_primary>  (69) 
energy

$$$$
69:0
     RDKit          3D

 47 49  0  0  0  0  0  0  0  0999 V2000
   -1.2540   21.6470  -26.3880 C   0  0  0  0  0  0  0  0  0  0  0  0
   -1.9980   20.5940  -26.7180 C   0  0  0  0  0  0  0  0  0  0  0  0
   -1.5620   19.5890  -27.7040 C   0  0  0  0  0  0  0  0  0  0  0  0
   -1.6280   18.3680  -27.4010 O   0  0  0  0  0  0  0  0  0  0  0  0
   -1.0540   19.9680  -28.9950 N   0  0  0  0  0  0  0  0  0  0  0  0
    0.1780   19.6970  -29.5050 C   0  0  0  0  0  0  0  0  0  0  0  0
    1.3090   19.1060  -28.7610 C   0  0  0  0  0  0  0  0  0  0  0  0
    1.1730   17.8700  -28.0570 N   0  0  0  0  0  0  0  0  0  0  0  0
    2.4050   19.7240  -28.7100 O   0  0  0  0  0  0  0  0  0  0  0  0
    0.2380   20.0470  -30.8520 C   0  0  0  0  0  0  0  0  0  0  0  0
   -1.0100   20.5450  -31.1550 C   0  0  0  0  0  0  0  0  0  0  0  0
   -1.5250   20.9960  -32.3660 C   0  0  0  0  0  0  0  0  0  0  0  0
   -2.8740   21.3860  -32.4030 C   0  0  0  0  0  0  0  0  0  0  0  0
   -3.6800   21.3220  -31.2380 C   0  0  0  0  0  0  0  0  0  0  0  0
   -5.1070   21.7230  -31.2900 C   0  0  0  0  0  0  0  0  0  0  0  0
   -5.9910   21.0040  -32.1150 C   0  0  0  0  0  0  0  0  0  0  0  0
   -7.3310   21.3810  -32.2230 C   0  0  0  0  0  0  0  0  0  0  0  0
   -7.8070   22.4810  -31.5100 C   0  0  0  0  0  0  0  0  0  0  0  0
   -6.9470   23.2010  -30.6790 C   0  0  0  0  0  0  0  0  0  0  0  0
   -5.5990   22.8280  -30.5510 C   0  0  0  0  0  0  0  0  0  0  0  0
   -4.7520   23.5560  -29.6440 N   0  0  0  0  0  0  0  0  0  0  0  0
   -4.5910   23.0800  -28.2680 C   0  0  0  0  0  0  0  0  0  0  0  0
   -3.9240   24.6240  -30.1380 C   0  0  0  0  0  0  0  0  0  0  0  0
   -4.2950   25.3020  -31.1360 O   0  0  0  0  0  0  0  0  0  0  0  0
   -2.7110   24.9160  -29.5050 O   0  0  0  0  0  0  0  0  0  0  0  0
   -1.6900   23.9450  -29.3190 C   0  0  0  0  0  0  0  0  0  0  0  0
   -3.1230   20.8460  -30.0290 C   0  0  0  0  0  0  0  0  0  0  0  0
   -1.7730   20.4780  -30.0180 C   0  0  0  0  0  0  0  0  0  0  0  0
   -1.6230   22.3703  -25.6460 H   0  0  0  0  0  0  0  0  0  0  0  0
   -0.2700   21.7940  -26.8573 H   0  0  0  0  0  0  0  0  0  0  0  0
   -2.9784   20.4686  -26.2351 H   0  0  0  0  0  0  0  0  0  0  0  0
    2.0020   17.4420  -27.5880 H   0  0  0  0  0  0  0  0  0  0  0  0
    0.2380   17.4310  -27.9080 H   0  0  0  0  0  0  0  0  0  0  0  0
    1.0988   19.9470  -31.5295 H   0  0  0  0  0  0  0  0  0  0  0  0
   -0.8954   21.0457  -33.2666 H   0  0  0  0  0  0  0  0  0  0  0  0
   -3.3103   21.7453  -33.3467 H   0  0  0  0  0  0  0  0  0  0  0  0
   -5.6226   20.1357  -32.6809 H   0  0  0  0  0  0  0  0  0  0  0  0
   -8.0120   20.8098  -32.8711 H   0  0  0  0  0  0  0  0  0  0  0  0
   -8.8611   22.7815  -31.6025 H   0  0  0  0  0  0  0  0  0  0  0  0
   -7.3283   24.0680  -30.1196 H   0  0  0  0  0  0  0  0  0  0  0  0
   -4.8628   23.8837  -27.5678 H   0  0  0  0  0  0  0  0  0  0  0  0
   -5.2454   22.2117  -28.1015 H   0  0  0  0  0  0  0  0  0  0  0  0
   -3.5438   22.7872  -28.1015 H   0  0  0  0  0  0  0  0  0  0  0  0
   -1.5249   23.7880  -28.2428 H   0  0  0  0  0  0  0  0  0  0  0  0
   -1.9964   22.9969  -29.7851 H   0  0  0  0  0  0  0  0  0  0  0  0
   -0.7585   24.2985  -29.7851 H   0  0  0  0  0  0  0  0  0  0  0  0
   -3.7359   20.7668  -29.1190 H   0  0  0  0  0  0  0  0  0  0  0  0
  1  2  2  0
  2  3  1  0
  3  4  2  0
  3  5  1  0
  5  6  1  0
  6  7  1  0
  7  8  1  0
  7  9  2  0
  6 10  2  0
 10 11  1  0
 11 12  2  0
 12 13  1  0
 13 14  2  0
 14 15  1  0
 15 16  2  0
 16 17  1  0
 17 18  2  0
 18 19  1  0
 19 20  2  0
 20 21  1  0
 21 22  1  0
 21 23  1  0
 23 24  2  0
 23 25  1  0
 25 26  1  0
 14 27  1  0
 27 28  2  0
 28  5  1  0
 28 11  1  0
 20 15  1  0
  1 29  1  0
  1 30  1  0
  2 31  1  0
  8 32  1  0
  8 33  1  0
 10 34  1  0
 12 35  1  0
 13 36  1  0
 16 37  1  0
 17 38  1  0
 18 39  1  0
 19 40  1  0
 22 41  1  0
 22 42  1  0
 22 43  1  0
 26 44  1  0
 26 45  1  0
 26 46  1  0
 27 47  1  0
M  END
>  <UniqueID>  (70) 
70

>  <SMILES>  (70) 
C=CC(=O)n1c(C(N)=O)cc2ccc(-c3ccccc3N(C)C(=O)OC)cc21

>  <Energy>  (70) 
95.38382397769064

>  <Genealogy>  (70) 
C=CC(=O)n1c(C(N)=O)cc2ccc(-c3ccccc3N(C)C(=O)OC)cc21 (3D coordinates assigned)
C=CC(=O)n1c(C(N)=O)cc2ccc(-c3ccccc3N(C)C(=O)OC)cc21 (optimized conformer: 95.38382397769064 kcal/mol)

>  <smiles>  (70) 
C=CC(=O)n1c(C(N)=O)cc2ccc(-c3ccccc3N(C)C(=O)OC)cc21

>  <score_type>  (70) 
oracle

>  <origin>  (70) 
adg

>  <m_score__min__energy>  (70) 
-8.4499999999999993

>  <m_primary>  (70) 
energy

$$$$
70:0
     RDKit          3D

 36 37  0  0  0  0  0  0  0  0999 V2000
   -3.9010   25.5550  -30.8150 N   0  0  0  0  0  0  0  0  0  0  0  0
   -5.1220   24.9810  -30.3580 C   0  0  0  0  0  0  0  0  0  0  0  0
   -5.8100   25.5950  -29.4990 O   0  0  0  0  0  0  0  0  0  0  0  0
   -5.6190   23.7060  -30.9170 C   0  0  0  0  0  0  0  0  0  0  0  0
   -6.9730   23.4020  -31.0490 C   0  0  0  0  0  0  0  0  0  0  0  0
   -7.0120   22.1830  -31.6870 C   0  0  0  0  0  0  0  0  0  0  0  0
   -8.1020   21.4080  -32.0700 C   0  0  0  0  0  0  0  0  0  0  0  0
   -7.8470   20.1750  -32.6930 C   0  0  0  0  0  0  0  0  0  0  0  0
   -6.5160   19.7280  -32.8990 C   0  0  0  0  0  0  0  0  0  0  0  0
   -6.2550   18.4200  -33.6030 C   0  0  0  0  0  0  0  0  0  0  0  0
   -5.1180   17.8380  -33.0740 F   0  0  0  0  0  0  0  0  0  0  0  0
   -6.0690   18.6240  -34.9600 F   0  0  0  0  0  0  0  0  0  0  0  0
   -7.3220   17.5540  -33.4390 F   0  0  0  0  0  0  0  0  0  0  0  0
   -5.4350   20.5560  -32.5150 C   0  0  0  0  0  0  0  0  0  0  0  0
   -5.7200   21.7870  -31.9120 C   0  0  0  0  0  0  0  0  0  0  0  0
   -4.8520   22.7110  -31.4440 N   0  0  0  0  0  0  0  0  0  0  0  0
   -3.4220   22.5940  -31.4210 C   0  0  0  0  0  0  0  0  0  0  0  0
   -2.8460   21.7650  -32.1770 O   0  0  0  0  0  0  0  0  0  0  0  0
   -2.6550   23.4020  -30.5210 N   0  0  0  0  0  0  0  0  0  0  0  0
   -2.0640   22.8990  -29.2860 C   0  0  0  0  0  0  0  0  0  0  0  0
   -2.1090   23.9720  -28.1840 C   0  0  2  0  0  0  0  0  0  0  0  0
   -3.3340   24.6620  -28.2120 O   0  0  0  0  0  0  0  0  0  0  0  0
   -0.9290   24.9490  -28.3160 C   0  0  0  0  0  0  0  0  0  0  0  0
   -1.2630   26.0050  -29.1750 O   0  0  0  0  0  0  0  0  0  0  0  0
   -2.9910   25.3070  -30.3680 H   0  0  0  0  0  0  0  0  0  0  0  0
   -7.8283   24.0075  -30.7145 H   0  0  0  0  0  0  0  0  0  0  0  0
   -9.1319   21.7502  -31.8905 H   0  0  0  0  0  0  0  0  0  0  0  0
   -8.6884   19.5490  -33.0249 H   0  0  0  0  0  0  0  0  0  0  0  0
   -4.3953   20.2401  -32.6861 H   0  0  0  0  0  0  0  0  0  0  0  0
   -2.6255   22.0142  -28.9514 H   0  0  0  0  0  0  0  0  0  0  0  0
   -1.0138   22.6347  -29.4790 H   0  0  0  0  0  0  0  0  0  0  0  0
   -2.0209   23.4649  -27.2118 H   0  0  0  0  0  0  0  0  0  0  0  0
   -3.3810   25.1550  -29.0730 H   0  0  0  0  0  0  0  0  0  0  0  0
   -0.6806   25.3536  -27.3237 H   0  0  0  0  0  0  0  0  0  0  0  0
   -0.0646   24.4105  -28.7317 H   0  0  0  0  0  0  0  0  0  0  0  0
   -2.0110   25.6860  -29.7450 H   0  0  0  0  0  0  0  0  0  0  0  0
  1  2  1  0
  2  3  2  0
  2  4  1  0
  4  5  2  0
  5  6  1  0
  6  7  2  0
  7  8  1  0
  8  9  2  0
  9 10  1  0
 10 11  1  0
 10 12  1  0
 10 13  1  0
  9 14  1  0
 14 15  2  0
 15 16  1  0
 16 17  1  0
 17 18  2  0
 17 19  1  0
 19 20  1  0
 20 21  1  0
 21 22  1  0
 21 23  1  0
 23 24  1  0
 16  4  1  0
 15  6  1  0
  1 25  1  0
  5 26  1  0
  7 27  1  0
  8 28  1  0
 14 29  1  0
 20 30  1  0
 20 31  1  0
 21 32  1  1
 22 33  1  0
 23 34  1  0
 23 35  1  0
 24 36  1  0
M  CHG  2   1  -1  19  -1
M  END
>  <UniqueID>  (71) 
71

>  <SMILES>  (71) 
[NH-]C(=O)c1cc2ccc(C(F)(F)F)cc2n1C(=O)[N-]C[C@H](O)CO

>  <Energy>  (71) 
71.77827475877731

>  <Genealogy>  (71) 
[NH-]C(=O)c1cc2ccc(C(F)(F)F)cc2n1C(=O)[N-]C[C@H](O)CO (protonated)
[NH-]C(=O)c1cc2ccc(C(F)(F)F)cc2n1C(=O)[N-]C[C@H](O)CO (3D coordinates assigned)
[NH-]C(=O)c1cc2ccc(C(F)(F)F)cc2n1C(=O)[N-]C[C@H](O)CO (optimized conformer: 71.77827475877731 kcal/mol)

>  <smiles>  (71) 
NC(=O)c1cc2ccc(C(F)(F)F)cc2n1C(=O)NC[C@H](O)CO

>  <score_type>  (71) 
oracle

>  <origin>  (71) 
adg

>  <m_score__min__energy>  (71) 
-10.390000000000001

>  <m_primary>  (71) 
energy

$$$$
71:0
     RDKit          3D

 32 33  0  0  0  0  0  0  0  0999 V2000
   -3.5560   21.8810  -33.2120 C   0  0  0  0  0  0  0  0  0  0  0  0
   -3.0910   21.8530  -31.8230 N   0  0  0  0  0  0  0  0  0  0  0  0
   -1.7530   21.3510  -31.4960 C   0  0  0  0  0  0  0  0  0  0  0  0
   -3.9250   22.3800  -30.7740 C   0  0  0  0  0  0  0  0  0  0  0  0
   -3.4490   22.5740  -29.6220 O   0  0  0  0  0  0  0  0  0  0  0  0
   -5.3030   22.6930  -31.0210 N   0  0  0  0  0  0  0  0  0  0  0  0
   -5.9260   23.8900  -30.8490 C   0  0  0  0  0  0  0  0  0  0  0  0
   -5.2710   25.1470  -30.4300 C   0  0  0  0  0  0  0  0  0  0  0  0
   -3.8640   25.3060  -30.6010 N   0  0  0  0  0  0  0  0  0  0  0  0
   -5.9400   26.0790  -29.9110 O   0  0  0  0  0  0  0  0  0  0  0  0
   -7.2820   23.7800  -31.1570 C   0  0  0  0  0  0  0  0  0  0  0  0
   -7.4670   22.4620  -31.5170 C   0  0  0  0  0  0  0  0  0  0  0  0
   -8.6190   21.7930  -31.9180 C   0  0  0  0  0  0  0  0  0  0  0  0
   -8.5140   20.4240  -32.2210 C   0  0  0  0  0  0  0  0  0  0  0  0
   -7.2730   19.7450  -32.0960 C   0  0  0  0  0  0  0  0  0  0  0  0
   -7.1640   18.2890  -32.4670 C   0  0  0  0  0  0  0  0  0  0  0  0
   -6.7660   18.1480  -33.7850 F   0  0  0  0  0  0  0  0  0  0  0  0
   -8.3950   17.6830  -32.3000 F   0  0  0  0  0  0  0  0  0  0  0  0
   -6.2340   17.6490  -31.6650 F   0  0  0  0  0  0  0  0  0  0  0  0
   -6.1220   20.4670  -31.7040 C   0  0  0  0  0  0  0  0  0  0  0  0
   -6.2560   21.8300  -31.4220 C   0  0  0  0  0  0  0  0  0  0  0  0
   -4.6539   21.9471  -33.2299 H   0  0  0  0  0  0  0  0  0  0  0  0
   -3.1277   22.7550  -33.7245 H   0  0  0  0  0  0  0  0  0  0  0  0
   -3.2356   20.9619  -33.7245 H   0  0  0  0  0  0  0  0  0  0  0  0
   -1.6349   21.3067  -30.4033 H   0  0  0  0  0  0  0  0  0  0  0  0
   -1.6256   20.3439  -31.9197 H   0  0  0  0  0  0  0  0  0  0  0  0
   -0.9946   22.0257  -31.9197 H   0  0  0  0  0  0  0  0  0  0  0  0
   -3.4810   26.0490  -31.2260 H   0  0  0  0  0  0  0  0  0  0  0  0
   -8.0415   24.5749  -31.1205 H   0  0  0  0  0  0  0  0  0  0  0  0
   -9.5821   22.3187  -31.9956 H   0  0  0  0  0  0  0  0  0  0  0  0
   -9.4037   19.8724  -32.5589 H   0  0  0  0  0  0  0  0  0  0  0  0
   -5.1448   19.9684  -31.6229 H   0  0  0  0  0  0  0  0  0  0  0  0
  1  2  1  0
  2  3  1  0
  2  4  1  0
  4  5  2  0
  4  6  1  0
  6  7  1  0
  7  8  1  0
  8  9  1  0
  8 10  2  0
  7 11  2  0
 11 12  1  0
 12 13  2  0
 13 14  1  0
 14 15  2  0
 15 16  1  0
 16 17  1  0
 16 18  1  0
 16 19  1  0
 15 20  1  0
 20 21  2  0
 21  6  1  0
 21 12  1  0
  1 22  1  0
  1 23  1  0
  1 24  1  0
  3 25  1  0
  3 26  1  0
  3 27  1  0
  9 28  1  0
 11 29  1  0
 13 30  1  0
 14 31  1  0
 20 32  1  0
M  CHG  1   9  -1
M  END
>  <UniqueID>  (72) 
72

>  <SMILES>  (72) 
CN(C)C(=O)n1c(C([NH-])=O)cc2ccc(C(F)(F)F)cc21

>  <Energy>  (72) 
69.42724741572732

>  <Genealogy>  (72) 
CN(C)C(=O)n1c(C([NH-])=O)cc2ccc(C(F)(F)F)cc21 (protonated)
CN(C)C(=O)n1c(C([NH-])=O)cc2ccc(C(F)(F)F)cc21 (3D coordinates assigned)
CN(C)C(=O)n1c(C([NH-])=O)cc2ccc(C(F)(F)F)cc21 (optimized conformer: 69.42724741572732 kcal/mol)

>  <smiles>  (72) 
CN(C)C(=O)n1c(C(N)=O)cc2ccc(C(F)(F)F)cc21

>  <score_type>  (72) 
oracle

>  <origin>  (72) 
adg

>  <m_score__min__energy>  (72) 
-9.8399999999999999

>  <m_primary>  (72) 
energy

$$$$
72:0
     RDKit          3D

 43 45  0  0  0  0  0  0  0  0999 V2000
   -2.0770   20.8730  -27.3890 C   0  0  0  0  0  0  0  0  0  0  0  0
   -1.8000   22.3710  -27.4420 C   0  0  0  0  0  0  0  0  0  0  0  0
   -2.6010   23.1280  -28.8480 S   0  0  0  0  0  0  0  0  0  0  0  0
   -1.5830   23.8680  -29.6710 O   0  0  0  0  0  0  0  0  0  0  0  0
   -3.6300   24.1030  -28.3510 O   0  0  0  0  0  0  0  0  0  0  0  0
   -3.3820   21.8700  -29.8530 C   0  0  0  0  0  0  0  0  0  0  0  0
   -3.9650   22.4490  -31.1100 C   0  0  0  0  0  0  0  0  0  0  0  0
   -3.2430   22.5720  -32.1350 O   0  0  0  0  0  0  0  0  0  0  0  0
   -5.3620   22.7770  -31.1830 N   0  0  0  0  0  0  0  0  0  0  0  0
   -5.9500   23.9690  -30.8830 C   0  0  0  0  0  0  0  0  0  0  0  0
   -5.2430   25.2110  -30.5060 C   0  0  0  0  0  0  0  0  0  0  0  0
   -3.8670   25.3770  -30.8450 N   0  0  0  0  0  0  0  0  0  0  0  0
   -5.8340   26.1210  -29.8680 O   0  0  0  0  0  0  0  0  0  0  0  0
   -7.3330   23.8840  -31.0410 C   0  0  0  0  0  0  0  0  0  0  0  0
   -7.5760   22.5920  -31.4500 C   0  0  0  0  0  0  0  0  0  0  0  0
   -8.7770   21.9570  -31.7530 C   0  0  0  0  0  0  0  0  0  0  0  0
   -8.7290   20.6060  -32.1350 C   0  0  0  0  0  0  0  0  0  0  0  0
   -7.4940   19.9140  -32.1870 C   0  0  0  0  0  0  0  0  0  0  0  0
   -7.4460   18.4770  -32.6230 C   0  0  0  0  0  0  0  0  0  0  0  0
   -6.0420   18.1330  -33.1350 C   0  0  0  0  0  0  0  0  0  0  0  0
   -5.7580   18.5680  -34.5660 C   0  0  0  0  0  0  0  0  0  0  0  0
   -5.9760   17.0960  -34.2470 C   0  0  0  0  0  0  0  0  0  0  0  0
   -6.2960   20.5950  -31.8800 C   0  0  0  0  0  0  0  0  0  0  0  0
   -6.3700   21.9440  -31.5250 C   0  0  0  0  0  0  0  0  0  0  0  0
   -2.1371   20.5481  -26.3398 H   0  0  0  0  0  0  0  0  0  0  0  0
   -3.0301   20.6582  -27.8945 H   0  0  0  0  0  0  0  0  0  0  0  0
   -1.2637   20.3316  -27.8945 H   0  0  0  0  0  0  0  0  0  0  0  0
   -2.1768   22.8382  -26.5202 H   0  0  0  0  0  0  0  0  0  0  0  0
   -0.7145   22.5209  -27.5377 H   0  0  0  0  0  0  0  0  0  0  0  0
   -2.6316   21.1126  -30.1236 H   0  0  0  0  0  0  0  0  0  0  0  0
   -4.1997   21.4222  -29.2692 H   0  0  0  0  0  0  0  0  0  0  0  0
   -3.1220   25.3080  -30.1170 H   0  0  0  0  0  0  0  0  0  0  0  0
   -8.0730   24.6806  -30.8742 H   0  0  0  0  0  0  0  0  0  0  0  0
   -9.7340   22.4963  -31.6951 H   0  0  0  0  0  0  0  0  0  0  0  0
   -9.6593   20.0804  -32.3962 H   0  0  0  0  0  0  0  0  0  0  0  0
   -7.6918   17.8285  -31.7692 H   0  0  0  0  0  0  0  0  0  0  0  0
   -8.1748   18.3196  -33.4317 H   0  0  0  0  0  0  0  0  0  0  0  0
   -5.5432   18.2576  -32.1625 H   0  0  0  0  0  0  0  0  0  0  0  0
   -6.5179   19.1265  -35.1322 H   0  0  0  0  0  0  0  0  0  0  0  0
   -4.9642   19.1476  -35.0598 H   0  0  0  0  0  0  0  0  0  0  0  0
   -6.8935   16.5905  -34.5828 H   0  0  0  0  0  0  0  0  0  0  0  0
   -5.4049   16.1710  -34.4149 H   0  0  0  0  0  0  0  0  0  0  0  0
   -5.3272   20.0756  -31.9194 H   0  0  0  0  0  0  0  0  0  0  0  0
  1  2  1  0
  2  3  1  0
  3  4  2  0
  3  5  2  0
  3  6  1  0
  6  7  1  0
  7  8  2  0
  7  9  1  0
  9 10  1  0
 10 11  1  0
 11 12  1  0
 11 13  2  0
 10 14  2  0
 14 15  1  0
 15 16  2  0
 16 17  1  0
 17 18  2  0
 18 19  1  0
 19 20  1  0
 20 21  1  0
 21 22  1  0
 18 23  1  0
 23 24  2  0
 24  9  1  0
 24 15  1  0
 22 20  1  0
  1 25  1  0
  1 26  1  0
  1 27  1  0
  2 28  1  0
  2 29  1  0
  6 30  1  0
  6 31  1  0
 12 32  1  0
 14 33  1  0
 16 34  1  0
 17 35  1  0
 19 36  1  0
 19 37  1  0
 20 38  1  0
 21 39  1  0
 21 40  1  0
 22 41  1  0
 22 42  1  0
 23 43  1  0
M  CHG  1  12  -1
M  END
>  <UniqueID>  (73) 
73

>  <SMILES>  (73) 
CCS(=O)(=O)CC(=O)n1c(C([NH-])=O)cc2ccc(CC3CC3)cc21

>  <Energy>  (73) 
333.7859599912153

>  <Genealogy>  (73) 
CCS(=O)(=O)CC(=O)n1c(C([NH-])=O)cc2ccc(CC3CC3)cc21 (protonated)
CCS(=O)(=O)CC(=O)n1c(C([NH-])=O)cc2ccc(CC3CC3)cc21 (3D coordinates assigned)
CCS(=O)(=O)CC(=O)n1c(C([NH-])=O)cc2ccc(CC3CC3)cc21 (nonaromatic ring conformer: 333.7859599912153 kcal/mol)

>  <smiles>  (73) 
CCS(=O)(=O)CC(=O)n1c(C(N)=O)cc2ccc(CC3CC3)cc21

>  <score_type>  (73) 
oracle

>  <origin>  (73) 
adg

>  <m_score__min__energy>  (73) 
-11.16

>  <m_primary>  (73) 
energy

$$$$
73:0
     RDKit          3D

 53 55  0  0  0  0  0  0  0  0999 V2000
   -3.4880   26.0480  -31.2800 H   0  0  0  0  0  0  0  0  0  0  0  0
   -3.8560   25.2880  -30.6630 N   0  0  0  0  0  0  0  0  0  0  0  0
   -5.2600   25.1390  -30.4420 C   0  0  0  0  0  0  0  0  0  0  0  0
   -5.8970   26.0780  -29.8950 O   0  0  0  0  0  0  0  0  0  0  0  0
   -5.9490   23.9040  -30.8660 C   0  0  0  0  0  0  0  0  0  0  0  0
   -7.3320   23.8290  -31.0050 C   0  0  0  0  0  0  0  0  0  0  0  0
   -8.0654   24.6235  -30.8029 H   0  0  0  0  0  0  0  0  0  0  0  0
   -7.5880   22.5560  -31.4470 C   0  0  0  0  0  0  0  0  0  0  0  0
   -8.7890   21.9460  -31.7600 C   0  0  0  0  0  0  0  0  0  0  0  0
   -9.7373   22.4981  -31.6832 H   0  0  0  0  0  0  0  0  0  0  0  0
   -8.7700   20.6060  -32.1780 C   0  0  0  0  0  0  0  0  0  0  0  0
   -9.7152   20.0997  -32.4237 H   0  0  0  0  0  0  0  0  0  0  0  0
   -7.5490   19.8990  -32.2870 C   0  0  0  0  0  0  0  0  0  0  0  0
   -7.6080   18.4500  -32.7190 C   0  0  0  0  0  0  0  0  0  0  0  0
   -8.7041   18.4147  -32.8045 H   0  0  0  0  0  0  0  0  0  0  0  0
   -6.3820   18.0530  -33.5370 C   0  0  0  0  0  0  0  0  0  0  0  0
   -6.4985   17.4217  -34.4302 H   0  0  0  0  0  0  0  0  0  0  0  0
   -5.5667   18.6024  -34.0305 H   0  0  0  0  0  0  0  0  0  0  0  0
   -6.5910   17.4590  -32.1570 C   0  0  0  0  0  0  0  0  0  0  0  0
   -6.8591   16.3975  -32.0505 H   0  0  0  0  0  0  0  0  0  0  0  0
   -5.9901   17.4002  -31.2375 H   0  0  0  0  0  0  0  0  0  0  0  0
   -6.3360   20.5510  -31.9540 C   0  0  0  0  0  0  0  0  0  0  0  0
   -5.3771   20.0141  -32.0014 H   0  0  0  0  0  0  0  0  0  0  0  0
   -6.3860   21.8950  -31.5630 C   0  0  0  0  0  0  0  0  0  0  0  0
   -5.3610   22.7160  -31.2240 N   0  0  0  0  0  0  0  0  0  0  0  0
   -3.9580   22.4190  -31.3650 C   0  0  0  0  0  0  0  0  0  0  0  0
   -3.4830   22.1160  -32.4910 O   0  0  0  0  0  0  0  0  0  0  0  0
   -3.0460   22.5080  -30.1990 C   0  0  0  0  0  0  0  0  0  0  0  0
   -3.4118   22.1629  -29.2207 H   0  0  0  0  0  0  0  0  0  0  0  0
   -1.7940   22.9900  -30.2800 C   0  0  0  0  0  0  0  0  0  0  0  0
   -1.3995   23.3099  -31.2557 H   0  0  0  0  0  0  0  0  0  0  0  0
   -0.9240   23.0990  -29.0590 C   0  0  0  0  0  0  0  0  0  0  0  0
   -0.0789   22.4005  -29.1480 H   0  0  0  0  0  0  0  0  0  0  0  0
   -1.5151   22.8495  -28.1655 H   0  0  0  0  0  0  0  0  0  0  0  0
   -0.4130   24.4730  -28.9390 N   0  0  0  0  0  0  0  0  0  0  0  0
    0.5410   24.4980  -29.3770 H   0  0  0  0  0  0  0  0  0  0  0  0
   -0.3890   25.0640  -27.5660 C   0  0  0  0  0  0  0  0  0  0  0  0
   -1.3530   24.3210  -26.5940 C   0  0  0  0  0  0  0  0  0  0  0  0
   -1.0673   24.5412  -25.5548 H   0  0  0  0  0  0  0  0  0  0  0  0
   -2.3845   24.6599  -26.7704 H   0  0  0  0  0  0  0  0  0  0  0  0
   -1.2879   23.2372  -26.7704 H   0  0  0  0  0  0  0  0  0  0  0  0
   -0.8260   26.5430  -27.6720 C   0  0  0  0  0  0  0  0  0  0  0  0
   -0.9498   26.9620  -26.6625 H   0  0  0  0  0  0  0  0  0  0  0  0
   -0.0582   27.1142  -28.2145 H   0  0  0  0  0  0  0  0  0  0  0  0
   -1.7809   26.6052  -28.2145 H   0  0  0  0  0  0  0  0  0  0  0  0
    1.0810   24.9700  -27.0050 C   0  0  0  0  0  0  0  0  0  0  0  0
    1.1099   24.1795  -26.2407 H   0  0  0  0  0  0  0  0  0  0  0  0
    1.3310   25.9609  -26.5981 H   0  0  0  0  0  0  0  0  0  0  0  0
    2.0550   24.6730  -27.9910 O   0  0  0  0  0  0  0  0  0  0  0  0
    3.2040   25.4810  -27.8270 C   0  0  0  0  0  0  0  0  0  0  0  0
    3.4035   25.6213  -26.7544 H   0  0  0  0  0  0  0  0  0  0  0  0
    4.0677   24.9904  -28.2995 H   0  0  0  0  0  0  0  0  0  0  0  0
    3.0345   26.4598  -28.2995 H   0  0  0  0  0  0  0  0  0  0  0  0
  1  2  1  0
  2  3  1  0
  3  4  2  0
  3  5  1  0
  5  6  2  0
  6  7  1  0
  6  8  1  0
  8  9  2  0
  9 10  1  0
  9 11  1  0
 11 12  1  0
 11 13  2  0
 13 14  1  0
 14 15  1  0
 14 16  1  0
 16 17  1  0
 16 18  1  0
 16 19  1  0
 19 20  1  0
 19 21  1  0
 13 22  1  0
 22 23  1  0
 22 24  2  0
 24 25  1  0
 25 26  1  0
 26 27  2  0
 26 28  1  0
 28 29  1  0
 28 30  2  0
 30 31  1  0
 30 32  1  0
 32 33  1  0
 32 34  1  0
 32 35  1  0
 35 36  1  0
 35 37  1  0
 37 38  1  0
 38 39  1  0
 38 40  1  0
 38 41  1  0
 37 42  1  0
 42 43  1  0
 42 44  1  0
 42 45  1  0
 37 46  1  0
 46 47  1  0
 46 48  1  0
 46 49  1  0
 49 50  1  0
 50 51  1  0
 50 52  1  0
 50 53  1  0
 25  5  1  0
 24  8  1  0
 19 14  1  0
M  CHG  1   2  -1
M  END
>  <UniqueID>  (74) 
74

>  <SMILES>  (74) 
COCC(C)(C)NC/C=C/C(=O)n1c(C([NH-])=O)cc2ccc(C3CC3)cc21

>  <Energy>  (74) 
364.69380160165827

>  <Genealogy>  (74) 
COCC(C)(C)NC/C=C/C(=O)n1c(C([NH-])=O)cc2ccc(C3CC3)cc21 (protonated)
COCC(C)(C)NC/C=C/C(=O)n1c(C([NH-])=O)cc2ccc(C3CC3)cc21 (cis-trans isomerization)
COCC(C)(C)NC/C=C/C(=O)n1c(C([NH-])=O)cc2ccc(C3CC3)cc21 (3D coordinates assigned)
COCC(C)(C)NC/C=C/C(=O)n1c(C([NH-])=O)cc2ccc(C3CC3)cc21 (nonaromatic ring conformer: 364.69380160165827 kcal/mol)

>  <smiles>  (74) 
COCC(C)(C)NC/C=C/C(=O)n1c(C(N)=O)cc2ccc(C3CC3)cc21

>  <score_type>  (74) 
oracle

>  <origin>  (74) 
adg

>  <m_score__min__energy>  (74) 
-12.470000000000001

>  <m_primary>  (74) 
energy

$$$$
74:0
     RDKit          3D

 40 42  0  0  0  0  0  0  0  0999 V2000
   -5.3570   26.4490  -30.4510 N   0  0  0  0  0  0  0  0  0  0  0  0
   -6.2820   25.4390  -30.0440 C   0  0  0  0  0  0  0  0  0  0  0  0
   -7.0090   25.6400  -29.0350 O   0  0  0  0  0  0  0  0  0  0  0  0
   -6.3550   24.1410  -30.7430 C   0  0  0  0  0  0  0  0  0  0  0  0
   -7.5490   23.5660  -31.1650 C   0  0  0  0  0  0  0  0  0  0  0  0
   -7.1970   22.3510  -31.7050 C   0  0  0  0  0  0  0  0  0  0  0  0
   -7.9910   21.3690  -32.2880 C   0  0  0  0  0  0  0  0  0  0  0  0
   -7.3560   20.2260  -32.8000 C   0  0  0  0  0  0  0  0  0  0  0  0
   -5.9450   20.0910  -32.7360 C   0  0  0  0  0  0  0  0  0  0  0  0
   -5.2810   18.8860  -33.2880 C   0  0  0  0  0  0  0  0  0  0  0  0
   -5.9840   17.6680  -33.3220 C   0  0  0  0  0  0  0  0  0  0  0  0
   -5.3870   16.5200  -33.8430 C   0  0  0  0  0  0  0  0  0  0  0  0
   -4.0840   16.5740  -34.3370 C   0  0  0  0  0  0  0  0  0  0  0  0
   -3.3690   17.7730  -34.3030 C   0  0  0  0  0  0  0  0  0  0  0  0
   -3.9530   18.9390  -33.7660 C   0  0  0  0  0  0  0  0  0  0  0  0
   -3.2540   20.1590  -33.6870 O   0  0  0  0  0  0  0  0  0  0  0  0
   -1.9440   20.4210  -34.1940 C   0  0  0  0  0  0  0  0  0  0  0  0
   -0.9890   20.8150  -33.0650 C   0  0  0  0  0  0  0  0  0  0  0  0
   -1.5440   20.5340  -31.8100 O   0  0  0  0  0  0  0  0  0  0  0  0
   -5.1720   21.1090  -32.1310 C   0  0  0  0  0  0  0  0  0  0  0  0
   -5.8330   22.2270  -31.6090 C   0  0  0  0  0  0  0  0  0  0  0  0
   -5.3000   23.3230  -31.0210 N   0  0  0  0  0  0  0  0  0  0  0  0
   -3.9020   23.6080  -30.8440 C   0  0  0  0  0  0  0  0  0  0  0  0
   -3.5030   24.7980  -30.7500 O   0  0  0  0  0  0  0  0  0  0  0  0
   -2.9750   22.5760  -30.7770 O   0  0  0  0  0  0  0  0  0  0  0  0
   -5.3470   27.3750  -29.9690 H   0  0  0  0  0  0  0  0  0  0  0  0
   -4.6270   26.2510  -31.1710 H   0  0  0  0  0  0  0  0  0  0  0  0
   -8.5598   23.9923  -31.0841 H   0  0  0  0  0  0  0  0  0  0  0  0
   -9.0834   21.4843  -32.3462 H   0  0  0  0  0  0  0  0  0  0  0  0
   -7.9589   19.4267  -33.2556 H   0  0  0  0  0  0  0  0  0  0  0  0
   -7.0125   17.6205  -32.9347 H   0  0  0  0  0  0  0  0  0  0  0  0
   -5.9442   15.5718  -33.8642 H   0  0  0  0  0  0  0  0  0  0  0  0
   -3.6180   15.6694  -34.7547 H   0  0  0  0  0  0  0  0  0  0  0  0
   -2.3429   17.8083  -34.6979 H   0  0  0  0  0  0  0  0  0  0  0  0
   -1.5620   19.5161  -34.6892 H   0  0  0  0  0  0  0  0  0  0  0  0
   -2.0047   21.2545  -34.9093 H   0  0  0  0  0  0  0  0  0  0  0  0
   -0.0505   20.2522  -33.1763 H   0  0  0  0  0  0  0  0  0  0  0  0
   -0.8026   21.8972  -33.1287 H   0  0  0  0  0  0  0  0  0  0  0  0
   -2.4680   20.8970  -31.8210 H   0  0  0  0  0  0  0  0  0  0  0  0
   -4.0769   21.0242  -32.0720 H   0  0  0  0  0  0  0  0  0  0  0  0
  1  2  1  0
  2  3  2  0
  2  4  1  0
  4  5  2  0
  5  6  1  0
  6  7  2  0
  7  8  1  0
  8  9  2  0
  9 10  1  0
 10 11  2  0
 11 12  1  0
 12 13  2  0
 13 14  1  0
 14 15  2  0
 15 16  1  0
 16 17  1  0
 17 18  1  0
 18 19  1  0
  9 20  1  0
 20 21  2  0
 21 22  1  0
 22 23  1  0
 23 24  2  0
 23 25  1  0
 22  4  1  0
 21  6  1  0
 15 10  1  0
  1 26  1  0
  1 27  1  0
  5 28  1  0
  7 29  1  0
  8 30  1  0
 11 31  1  0
 12 32  1  0
 13 33  1  0
 14 34  1  0
 17 35  1  0
 17 36  1  0
 18 37  1  0
 18 38  1  0
 19 39  1  0
 20 40  1  0
M  CHG  1  25  -1
M  END
>  <UniqueID>  (75) 
75

>  <SMILES>  (75) 
NC(=O)c1cc2ccc(-c3ccccc3OCCO)cc2n1C(=O)[O-]

>  <Energy>  (75) 
88.39058693509297

>  <Genealogy>  (75) 
NC(=O)c1cc2ccc(-c3ccccc3OCCO)cc2n1C(=O)[O-] (protonated)
NC(=O)c1cc2ccc(-c3ccccc3OCCO)cc2n1C(=O)[O-] (3D coordinates assigned)
NC(=O)c1cc2ccc(-c3ccccc3OCCO)cc2n1C(=O)[O-] (optimized conformer: 88.39058693509297 kcal/mol)

>  <smiles>  (75) 
NC(=O)c1cc2ccc(-c3ccccc3OCCO)cc2n1C(=O)O

>  <score_type>  (75) 
oracle

>  <origin>  (75) 
adg

>  <m_score__min__energy>  (75) 
-9.6500000000000004

>  <m_primary>  (75) 
energy

$$$$
75:0
     RDKit          3D

 43 45  0  0  0  0  0  0  0  0999 V2000
   -7.3950   18.0390  -32.9030 C   0  0  0  0  0  0  0  0  0  0  0  0
   -7.5420   19.4530  -32.4240 C   0  0  0  0  0  0  0  0  0  0  0  0
   -8.8190   20.0680  -32.4000 C   0  0  0  0  0  0  0  0  0  0  0  0
   -8.9650   21.4030  -31.9840 C   0  0  0  0  0  0  0  0  0  0  0  0
   -7.8180   22.0980  -31.6140 C   0  0  0  0  0  0  0  0  0  0  0  0
   -7.6650   23.3950  -31.1690 C   0  0  0  0  0  0  0  0  0  0  0  0
   -6.2950   23.5530  -30.9530 C   0  0  0  0  0  0  0  0  0  0  0  0
   -5.6490   24.8060  -30.5010 C   0  0  0  0  0  0  0  0  0  0  0  0
   -6.0030   25.4100  -29.2550 N   0  0  0  0  0  0  0  0  0  0  0  0
   -4.7710   25.3570  -31.2160 O   0  0  0  0  0  0  0  0  0  0  0  0
   -5.6380   22.3960  -31.2460 N   0  0  0  0  0  0  0  0  0  0  0  0
   -4.2310   22.1350  -31.1420 C   0  0  0  0  0  0  0  0  0  0  0  0
   -3.5910   21.8440  -32.1890 O   0  0  0  0  0  0  0  0  0  0  0  0
   -3.4890   22.2390  -29.8210 C   0  0  1  0  0  0  0  0  0  0  0  0
   -2.5460   21.0320  -29.5310 C   0  0  0  0  0  0  0  0  0  0  0  0
   -1.1160   21.3000  -30.0060 C   0  0  0  0  0  0  0  0  0  0  0  0
   -0.4870   22.5040  -29.2710 C   0  0  0  0  0  0  0  0  0  0  0  0
   -1.5350   23.5360  -28.7830 C   0  0  1  0  0  0  0  0  0  0  0  0
   -0.9060   24.8920  -28.6200 C   0  0  0  0  0  0  0  0  0  0  0  0
    0.2740   24.9940  -28.1890 O   0  0  0  0  0  0  0  0  0  0  0  0
   -1.6100   26.0400  -28.9670 O   0  0  0  0  0  0  0  0  0  0  0  0
   -2.7350   23.5970  -29.7430 C   0  0  0  0  0  0  0  0  0  0  0  0
   -6.5770   21.5200  -31.6520 C   0  0  0  0  0  0  0  0  0  0  0  0
   -6.3990   20.1940  -32.0570 C   0  0  0  0  0  0  0  0  0  0  0  0
   -7.3248   17.3640  -32.0373 H   0  0  0  0  0  0  0  0  0  0  0  0
   -8.2695   17.7652  -33.5115 H   0  0  0  0  0  0  0  0  0  0  0  0
   -6.4829   17.9509  -33.5115 H   0  0  0  0  0  0  0  0  0  0  0  0
   -9.7050   19.4946  -32.7101 H   0  0  0  0  0  0  0  0  0  0  0  0
   -9.9544   21.8826  -31.9521 H   0  0  0  0  0  0  0  0  0  0  0  0
   -8.4549   24.1452  -31.0168 H   0  0  0  0  0  0  0  0  0  0  0  0
   -5.5650   26.3120  -28.9670 H   0  0  0  0  0  0  0  0  0  0  0  0
   -6.6580   24.9450  -28.5870 H   0  0  0  0  0  0  0  0  0  0  0  0
   -4.2456   22.2007  -29.0235 H   0  0  0  0  0  0  0  0  0  0  0  0
   -2.5317   20.8439  -28.4473 H   0  0  0  0  0  0  0  0  0  0  0  0
   -2.9301   20.1591  -30.0792 H   0  0  0  0  0  0  0  0  0  0  0  0
   -0.5036   20.4063  -29.8156 H   0  0  0  0  0  0  0  0  0  0  0  0
   -1.1492   21.5330  -31.0805 H   0  0  0  0  0  0  0  0  0  0  0  0
    0.0681   22.1298  -28.3981 H   0  0  0  0  0  0  0  0  0  0  0  0
    0.1694   23.0185  -29.9882 H   0  0  0  0  0  0  0  0  0  0  0  0
   -1.9068   23.2101  -27.8004 H   0  0  0  0  0  0  0  0  0  0  0  0
   -3.4328   24.3708  -29.3904 H   0  0  0  0  0  0  0  0  0  0  0  0
   -2.3543   23.8322  -30.7479 H   0  0  0  0  0  0  0  0  0  0  0  0
   -5.3969   19.7415  -32.0886 H   0  0  0  0  0  0  0  0  0  0  0  0
  1  2  1  0
  2  3  2  0
  3  4  1  0
  4  5  2  0
  5  6  1  0
  6  7  2  0
  7  8  1  0
  8  9  1  0
  8 10  2  0
  7 11  1  0
 11 12  1  0
 12 13  2  0
 12 14  1  0
 14 15  1  0
 15 16  1  0
 16 17  1  0
 17 18  1  0
 18 19  1  0
 19 20  2  0
 19 21  1  0
 18 22  1  0
 11 23  1  0
 23 24  2  0
 24  2  1  0
 23  5  1  0
 22 14  1  0
  1 25  1  0
  1 26  1  0
  1 27  1  0
  3 28  1  0
  4 29  1  0
  6 30  1  0
  9 31  1  0
  9 32  1  0
 14 33  1  1
 15 34  1  0
 15 35  1  0
 16 36  1  0
 16 37  1  0
 17 38  1  0
 17 39  1  0
 18 40  1  1
 22 41  1  0
 22 42  1  0
 24 43  1  0
M  CHG  1  21  -1
M  END
>  <UniqueID>  (76) 
76

>  <SMILES>  (76) 
Cc1ccc2cc(C(N)=O)n(C(=O)[C@H]3CCC[C@@H](C(=O)[O-])C3)c2c1

>  <Energy>  (76) 
87.46929353775488

>  <Genealogy>  (76) 
Cc1ccc2cc(C(N)=O)n(C(=O)C3CCCC(C(=O)[O-])C3)c2c1 (protonated)
Cc1ccc2cc(C(N)=O)n(C(=O)[C@H]3CCC[C@@H](C(=O)[O-])C3)c2c1 (chirality)
Cc1ccc2cc(C(N)=O)n(C(=O)[C@H]3CCC[C@@H](C(=O)[O-])C3)c2c1 (3D coordinates assigned)
Cc1ccc2cc(C(N)=O)n(C(=O)[C@H]3CCC[C@@H](C(=O)[O-])C3)c2c1 (nonaromatic ring conformer: 87.46929353775488 kcal/mol)

>  <smiles>  (76) 
Cc1ccc2cc(C(N)=O)n(C(=O)C3CCCC(C(=O)O)C3)c2c1

>  <score_type>  (76) 
oracle

>  <origin>  (76) 
adg

>  <m_score__min__energy>  (76) 
-12.449999999999999

>  <m_primary>  (76) 
energy

$$$$
76:0
     RDKit          3D

 29 31  0  0  0  0  0  0  0  0999 V2000
   -1.5980   25.4780  -29.1360 N   0  0  0  0  0  0  0  0  0  0  0  0
   -1.0620   24.1710  -29.3270 C   0  0  0  0  0  0  0  0  0  0  0  0
    0.0680   23.8920  -28.8460 O   0  0  0  0  0  0  0  0  0  0  0  0
   -1.8260   23.1320  -30.0520 C   0  0  0  0  0  0  0  0  0  0  0  0
   -1.2360   22.1720  -30.8730 C   0  0  0  0  0  0  0  0  0  0  0  0
   -2.2750   21.3820  -31.3140 C   0  0  0  0  0  0  0  0  0  0  0  0
   -2.2660   20.2890  -32.1720 C   0  0  0  0  0  0  0  0  0  0  0  0
   -3.4960   19.6840  -32.4820 C   0  0  0  0  0  0  0  0  0  0  0  0
   -4.7120   20.1820  -31.9400 C   0  0  0  0  0  0  0  0  0  0  0  0
   -6.0080   19.5410  -32.2820 C   0  0  0  0  0  0  0  0  0  0  0  0
   -7.2360   20.1510  -32.4670 C   0  0  0  0  0  0  0  0  0  0  0  0
   -8.1530   19.2110  -32.7610 N   0  0  0  0  0  0  0  0  0  0  0  0
   -7.5410   18.0630  -32.7650 O   0  0  0  0  0  0  0  0  0  0  0  0
   -6.2650   18.1980  -32.4870 C   0  0  0  0  0  0  0  0  0  0  0  0
   -4.6740   21.3000  -31.0730 C   0  0  0  0  0  0  0  0  0  0  0  0
   -3.4320   21.8680  -30.7680 C   0  0  0  0  0  0  0  0  0  0  0  0
   -3.1730   22.9390  -29.9870 N   0  0  0  0  0  0  0  0  0  0  0  0
   -4.1440   23.7530  -29.3120 C   0  0  0  0  0  0  0  0  0  0  0  0
   -4.5290   23.4350  -28.1560 O   0  0  0  0  0  0  0  0  0  0  0  0
   -4.7010   24.9520  -29.9570 C   0  0  0  0  0  0  0  0  0  0  0  0
   -5.8670   25.3400  -29.6810 O   0  0  0  0  0  0  0  0  0  0  0  0
   -3.9350   25.6740  -30.8650 O   0  0  0  0  0  0  0  0  0  0  0  0
   -2.6120   25.6700  -29.2940 H   0  0  0  0  0  0  0  0  0  0  0  0
   -0.1684   22.0676  -31.1167 H   0  0  0  0  0  0  0  0  0  0  0  0
   -1.3247   19.9089  -32.5957 H   0  0  0  0  0  0  0  0  0  0  0  0
   -3.5180   18.8130  -33.1534 H   0  0  0  0  0  0  0  0  0  0  0  0
   -7.4313   21.2305  -32.3867 H   0  0  0  0  0  0  0  0  0  0  0  0
   -5.5280   17.3836  -32.4275 H   0  0  0  0  0  0  0  0  0  0  0  0
   -5.6006   21.7134  -30.6482 H   0  0  0  0  0  0  0  0  0  0  0  0
  1  2  1  0
  2  3  2  0
  2  4  1  0
  4  5  2  0
  5  6  1  0
  6  7  2  0
  7  8  1  0
  8  9  2  0
  9 10  1  0
 10 11  1  0
 11 12  2  0
 12 13  1  0
 13 14  1  0
  9 15  1  0
 15 16  2  0
 16 17  1  0
 17 18  1  0
 18 19  2  0
 18 20  1  0
 20 21  2  0
 20 22  1  0
 17  4  1  0
 16  6  1  0
 14 10  2  0
  1 23  1  0
  5 24  1  0
  7 25  1  0
  8 26  1  0
 11 27  1  0
 14 28  1  0
 15 29  1  0
M  CHG  2   1  -1  22  -1
M  END
>  <UniqueID>  (77) 
77

>  <SMILES>  (77) 
[NH-]C(=O)c1cc2ccc(-c3cnoc3)cc2n1C(=O)C(=O)[O-]

>  <Energy>  (77) 
103.75656060138456

>  <Genealogy>  (77) 
[NH-]C(=O)c1cc2ccc(-c3cnoc3)cc2n1C(=O)C(=O)[O-] (protonated)
[NH-]C(=O)c1cc2ccc(-c3cnoc3)cc2n1C(=O)C(=O)[O-] (3D coordinates assigned)
[NH-]C(=O)c1cc2ccc(-c3cnoc3)cc2n1C(=O)C(=O)[O-] (optimized conformer: 103.75656060138456 kcal/mol)

>  <smiles>  (77) 
NC(=O)c1cc2ccc(-c3cnoc3)cc2n1C(=O)C(=O)O

>  <score_type>  (77) 
oracle

>  <origin>  (77) 
adg

>  <m_score__min__energy>  (77) 
-10.74

>  <m_primary>  (77) 
energy

$$$$
77:0
     RDKit          3D

 25 26  0  0  0  0  0  0  0  0999 V2000
   -5.6260   26.4500  -30.3460 N   0  0  0  0  0  0  0  0  0  0  0  0
   -6.4140   25.3180  -29.9770 C   0  0  0  0  0  0  0  0  0  0  0  0
   -7.2240   25.4210  -29.0180 O   0  0  0  0  0  0  0  0  0  0  0  0
   -6.2580   24.0260  -30.6810 C   0  0  0  0  0  0  0  0  0  0  0  0
   -7.3260   23.2650  -31.1530 C   0  0  0  0  0  0  0  0  0  0  0  0
   -6.7530   22.2090  -31.8240 C   0  0  0  0  0  0  0  0  0  0  0  0
   -7.3510   21.1470  -32.4940 C   0  0  0  0  0  0  0  0  0  0  0  0
   -6.5150   20.1860  -33.0850 C   0  0  0  0  0  0  0  0  0  0  0  0
   -5.1040   20.2880  -32.9780 C   0  0  0  0  0  0  0  0  0  0  0  0
   -4.2160   19.2700  -33.6490 C   0  0  0  0  0  0  0  0  0  0  0  0
   -3.8300   18.3220  -32.7210 F   0  0  0  0  0  0  0  0  0  0  0  0
   -3.0860   19.8740  -34.1730 F   0  0  0  0  0  0  0  0  0  0  0  0
   -4.8890   18.6410  -34.6820 F   0  0  0  0  0  0  0  0  0  0  0  0
   -4.5340   21.3970  -32.3100 C   0  0  0  0  0  0  0  0  0  0  0  0
   -5.3910   22.3500  -31.7450 C   0  0  0  0  0  0  0  0  0  0  0  0
   -5.0710   23.4620  -31.0460 N   0  0  0  0  0  0  0  0  0  0  0  0
   -3.7480   23.9060  -30.6960 C   0  0  0  0  0  0  0  0  0  0  0  0
   -2.8120   23.0760  -30.5600 O   0  0  0  0  0  0  0  0  0  0  0  0
   -3.4950   25.2570  -30.4880 O   0  0  0  0  0  0  0  0  0  0  0  0
   -4.9830   26.4190  -31.1670 H   0  0  0  0  0  0  0  0  0  0  0  0
   -5.7160   27.3450  -29.8170 H   0  0  0  0  0  0  0  0  0  0  0  0
   -8.3990   23.4658  -31.0179 H   0  0  0  0  0  0  0  0  0  0  0  0
   -8.4458   21.0624  -32.5590 H   0  0  0  0  0  0  0  0  0  0  0  0
   -6.9591   19.3446  -33.6371 H   0  0  0  0  0  0  0  0  0  0  0  0
   -3.4422   21.5085  -32.2359 H   0  0  0  0  0  0  0  0  0  0  0  0
  1  2  1  0
  2  3  2  0
  2  4  1  0
  4  5  2  0
  5  6  1  0
  6  7  2  0
  7  8  1  0
  8  9  2  0
  9 10  1  0
 10 11  1  0
 10 12  1  0
 10 13  1  0
  9 14  1  0
 14 15  2  0
 15 16  1  0
 16 17  1  0
 17 18  2  0
 17 19  1  0
 16  4  1  0
 15  6  1  0
  1 20  1  0
  1 21  1  0
  5 22  1  0
  7 23  1  0
  8 24  1  0
 14 25  1  0
M  CHG  1  19  -1
M  END
>  <UniqueID>  (78) 
78

>  <SMILES>  (78) 
NC(=O)c1cc2ccc(C(F)(F)F)cc2n1C(=O)[O-]

>  <Energy>  (78) 
65.43113066240146

>  <Genealogy>  (78) 
NC(=O)c1cc2ccc(C(F)(F)F)cc2n1C(=O)[O-] (protonated)
NC(=O)c1cc2ccc(C(F)(F)F)cc2n1C(=O)[O-] (3D coordinates assigned)
NC(=O)c1cc2ccc(C(F)(F)F)cc2n1C(=O)[O-] (optimized conformer: 65.43113066240146 kcal/mol)

>  <smiles>  (78) 
NC(=O)c1cc2ccc(C(F)(F)F)cc2n1C(=O)O

>  <score_type>  (78) 
oracle

>  <origin>  (78) 
adg

>  <m_score__min__energy>  (78) 
-7.9900000000000002

>  <m_primary>  (78) 
energy

$$$$
78:0
     RDKit          3D

 44 46  0  0  0  0  0  0  0  0999 V2000
   -7.2670   17.8720  -31.2110 C   0  0  0  0  0  0  0  0  0  0  0  0
   -7.6220   18.2560  -32.5890 N   0  0  0  0  0  0  0  0  0  0  0  0
   -7.7660   19.7300  -32.7320 C   0  0  0  0  0  0  0  0  0  0  0  0
   -6.6010   20.4010  -33.4830 C   0  0  0  0  0  0  0  0  0  0  0  0
   -5.3490   19.6900  -33.2120 N   0  0  0  0  0  0  0  0  0  0  0  0
   -4.2050   20.3710  -32.6580 C   0  0  0  0  0  0  0  0  0  0  0  0
   -2.9260   20.2210  -33.2540 C   0  0  0  0  0  0  0  0  0  0  0  0
   -1.7990   20.8600  -32.7090 C   0  0  0  0  0  0  0  0  0  0  0  0
   -1.9770   21.6390  -31.5710 C   0  0  0  0  0  0  0  0  0  0  0  0
   -1.0620   22.3520  -30.8290 C   0  0  0  0  0  0  0  0  0  0  0  0
   -1.7970   22.9330  -29.7950 C   0  0  0  0  0  0  0  0  0  0  0  0
   -1.2360   23.8740  -28.8050 C   0  0  0  0  0  0  0  0  0  0  0  0
   -1.4930   25.2760  -28.9000 N   0  0  0  0  0  0  0  0  0  0  0  0
   -0.5440   23.4390  -27.8460 O   0  0  0  0  0  0  0  0  0  0  0  0
   -3.1110   22.5870  -29.8940 N   0  0  0  0  0  0  0  0  0  0  0  0
   -4.1830   22.9190  -28.9980 C   0  0  0  0  0  0  0  0  0  0  0  0
   -4.2590   22.3400  -27.8790 O   0  0  0  0  0  0  0  0  0  0  0  0
   -5.1180   24.0510  -29.3160 C   0  0  0  0  0  0  0  0  0  0  0  0
   -4.8160   24.6580  -30.6530 C   0  0  0  0  0  0  0  0  0  0  0  0
   -5.4110   24.2470  -31.6860 O   0  0  0  0  0  0  0  0  0  0  0  0
   -3.8770   25.6760  -30.7620 O   0  0  0  0  0  0  0  0  0  0  0  0
   -3.2060   21.8000  -30.9860 C   0  0  0  0  0  0  0  0  0  0  0  0
   -4.3430   21.1660  -31.4960 C   0  0  0  0  0  0  0  0  0  0  0  0
   -5.2890   18.2500  -33.4870 C   0  0  0  0  0  0  0  0  0  0  0  0
   -6.7050   17.6550  -33.5810 C   0  0  0  0  0  0  0  0  0  0  0  0
   -7.8369   18.4885  -30.5002 H   0  0  0  0  0  0  0  0  0  0  0  0
   -7.5091   16.8108  -31.0522 H   0  0  0  0  0  0  0  0  0  0  0  0
   -6.1901   18.0302  -31.0522 H   0  0  0  0  0  0  0  0  0  0  0  0
   -8.6964   19.9354  -33.2817 H   0  0  0  0  0  0  0  0  0  0  0  0
   -7.7745   20.1500  -31.7154 H   0  0  0  0  0  0  0  0  0  0  0  0
   -6.8047   20.3793  -34.5638 H   0  0  0  0  0  0  0  0  0  0  0  0
   -6.5046   21.4418  -33.1402 H   0  0  0  0  0  0  0  0  0  0  0  0
   -2.8152   19.5972  -34.1532 H   0  0  0  0  0  0  0  0  0  0  0  0
   -0.8061   20.7473  -33.1688 H   0  0  0  0  0  0  0  0  0  0  0  0
    0.0187   22.4440  -31.0124 H   0  0  0  0  0  0  0  0  0  0  0  0
   -2.0160   25.6780  -29.7080 H   0  0  0  0  0  0  0  0  0  0  0  0
   -1.1120   25.9270  -28.1770 H   0  0  0  0  0  0  0  0  0  0  0  0
   -6.1501   23.6705  -29.3218 H   0  0  0  0  0  0  0  0  0  0  0  0
   -4.9899   24.8286  -28.5486 H   0  0  0  0  0  0  0  0  0  0  0  0
   -5.3208   21.2825  -31.0058 H   0  0  0  0  0  0  0  0  0  0  0  0
   -4.7643   18.0858  -34.4398 H   0  0  0  0  0  0  0  0  0  0  0  0
   -4.7511   17.7550  -32.6650 H   0  0  0  0  0  0  0  0  0  0  0  0
   -7.1021   17.8395  -34.5901 H   0  0  0  0  0  0  0  0  0  0  0  0
   -6.6365   16.5770  -33.3731 H   0  0  0  0  0  0  0  0  0  0  0  0
  1  2  1  0
  2  3  1  0
  3  4  1  0
  4  5  1  0
  5  6  1  0
  6  7  2  0
  7  8  1  0
  8  9  2  0
  9 10  1  0
 10 11  2  0
 11 12  1  0
 12 13  1  0
 12 14  2  0
 11 15  1  0
 15 16  1  0
 16 17  2  0
 16 18  1  0
 18 19  1  0
 19 20  2  0
 19 21  1  0
 15 22  1  0
 22 23  2  0
  5 24  1  0
 24 25  1  0
 25  2  1  0
 23  6  1  0
 22  9  1  0
  1 26  1  0
  1 27  1  0
  1 28  1  0
  3 29  1  0
  3 30  1  0
  4 31  1  0
  4 32  1  0
  7 33  1  0
  8 34  1  0
 10 35  1  0
 13 36  1  0
 13 37  1  0
 18 38  1  0
 18 39  1  0
 23 40  1  0
 24 41  1  0
 24 42  1  0
 25 43  1  0
 25 44  1  0
M  CHG  1  21  -1
M  END
>  <UniqueID>  (79) 
79

>  <SMILES>  (79) 
CN1CCN(c2ccc3cc(C(N)=O)n(C(=O)CC(=O)[O-])c3c2)CC1

>  <Energy>  (79) 
95.05004430638029

>  <Genealogy>  (79) 
CN1CCN(c2ccc3cc(C(N)=O)n(C(=O)CC(=O)[O-])c3c2)CC1 (protonated)
CN1CCN(c2ccc3cc(C(N)=O)n(C(=O)CC(=O)[O-])c3c2)CC1 (3D coordinates assigned)
CN1CCN(c2ccc3cc(C(N)=O)n(C(=O)CC(=O)[O-])c3c2)CC1 (nonaromatic ring conformer: 95.05004430638029 kcal/mol)

>  <smiles>  (79) 
CN1CCN(c2ccc3cc(C(N)=O)n(C(=O)CC(=O)O)c3c2)CC1

>  <score_type>  (79) 
oracle

>  <origin>  (79) 
adg

>  <m_score__min__energy>  (79) 
-11.529999999999999

>  <m_primary>  (79) 
energy

$$$$
79:0
     RDKit          3D

 30 31  0  0  0  0  0  0  0  0999 V2000
   -6.2280   18.1510  -32.7630 C   0  0  0  0  0  0  0  0  0  0  0  0
   -6.5210   19.5610  -32.3480 C   0  0  0  0  0  0  0  0  0  0  0  0
   -7.8350   20.0760  -32.4630 C   0  0  0  0  0  0  0  0  0  0  0  0
   -8.1140   21.4100  -32.1240 C   0  0  0  0  0  0  0  0  0  0  0  0
   -7.0600   22.2030  -31.6790 C   0  0  0  0  0  0  0  0  0  0  0  0
   -7.0420   23.5300  -31.3160 C   0  0  0  0  0  0  0  0  0  0  0  0
   -5.7180   23.8030  -30.9770 C   0  0  0  0  0  0  0  0  0  0  0  0
   -5.2680   25.1050  -30.4430 C   0  0  0  0  0  0  0  0  0  0  0  0
   -4.0190   25.6670  -30.8400 N   0  0  0  0  0  0  0  0  0  0  0  0
   -5.9700   25.7060  -29.5870 O   0  0  0  0  0  0  0  0  0  0  0  0
   -4.9460   22.6910  -31.1340 N   0  0  0  0  0  0  0  0  0  0  0  0
   -3.5220   22.5790  -30.9860 C   0  0  0  0  0  0  0  0  0  0  0  0
   -2.8640   21.8440  -31.7710 O   0  0  0  0  0  0  0  0  0  0  0  0
   -2.8490   23.3270  -29.9670 N   0  0  0  0  0  0  0  0  0  0  0  0
   -1.4260   23.1970  -29.6790 C   0  0  0  0  0  0  0  0  0  0  0  0
   -0.8840   24.4890  -29.1530 C   0  0  0  0  0  0  0  0  0  0  0  0
    0.2290   24.5140  -28.5670 O   0  0  0  0  0  0  0  0  0  0  0  0
   -1.6230   25.6570  -29.2790 O   0  0  0  0  0  0  0  0  0  0  0  0
   -5.7830   21.7200  -31.5600 C   0  0  0  0  0  0  0  0  0  0  0  0
   -5.4730   20.3990  -31.9080 C   0  0  0  0  0  0  0  0  0  0  0  0
   -6.0979   17.5249  -31.8680 H   0  0  0  0  0  0  0  0  0  0  0  0
   -7.0649   17.7639  -33.3628 H   0  0  0  0  0  0  0  0  0  0  0  0
   -5.3062   18.1294  -33.3628 H   0  0  0  0  0  0  0  0  0  0  0  0
   -8.6456   19.4245  -32.8215 H   0  0  0  0  0  0  0  0  0  0  0  0
   -9.1332   21.8154  -32.2075 H   0  0  0  0  0  0  0  0  0  0  0  0
   -7.8923   24.2276  -31.2973 H   0  0  0  0  0  0  0  0  0  0  0  0
   -3.1190   25.2970  -30.4620 H   0  0  0  0  0  0  0  0  0  0  0  0
   -1.2783   22.4081  -28.9268 H   0  0  0  0  0  0  0  0  0  0  0  0
   -0.8949   22.9365  -30.6064 H   0  0  0  0  0  0  0  0  0  0  0  0
   -4.4409   20.0245  -31.8404 H   0  0  0  0  0  0  0  0  0  0  0  0
  1  2  1  0
  2  3  2  0
  3  4  1  0
  4  5  2  0
  5  6  1  0
  6  7  2  0
  7  8  1  0
  8  9  1  0
  8 10  2  0
  7 11  1  0
 11 12  1  0
 12 13  2  0
 12 14  1  0
 14 15  1  0
 15 16  1  0
 16 17  2  0
 16 18  1  0
 11 19  1  0
 19 20  2  0
 20  2  1  0
 19  5  1  0
  1 21  1  0
  1 22  1  0
  1 23  1  0
  3 24  1  0
  4 25  1  0
  6 26  1  0
  9 27  1  0
 15 28  1  0
 15 29  1  0
 20 30  1  0
M  CHG  3   9  -1  14  -1  18  -1
M  END
>  <UniqueID>  (80) 
80

>  <SMILES>  (80) 
Cc1ccc2cc(C([NH-])=O)n(C(=O)[N-]CC(=O)[O-])c2c1

>  <Energy>  (80) 
66.42561707366431

>  <Genealogy>  (80) 
Cc1ccc2cc(C([NH-])=O)n(C(=O)[N-]CC(=O)[O-])c2c1 (protonated)
Cc1ccc2cc(C([NH-])=O)n(C(=O)[N-]CC(=O)[O-])c2c1 (3D coordinates assigned)
Cc1ccc2cc(C([NH-])=O)n(C(=O)[N-]CC(=O)[O-])c2c1 (optimized conformer: 66.42561707366431 kcal/mol)

>  <smiles>  (80) 
Cc1ccc2cc(C(N)=O)n(C(=O)NCC(=O)O)c2c1

>  <score_type>  (80) 
oracle

>  <origin>  (80) 
adg

>  <m_score__min__energy>  (80) 
-12.41

>  <m_primary>  (80) 
energy

$$$$
80:0
     RDKit          3D

 31 33  0  0  0  0  0  0  0  0999 V2000
   -5.0190   26.0150  -30.8450 N   0  0  0  0  0  0  0  0  0  0  0  0
   -6.0770   25.1840  -30.3620 C   0  0  0  0  0  0  0  0  0  0  0  0
   -6.7320   25.5460  -29.3480 O   0  0  0  0  0  0  0  0  0  0  0  0
   -6.3730   23.8810  -30.9900 C   0  0  0  0  0  0  0  0  0  0  0  0
   -7.6650   23.4240  -31.2290 C   0  0  0  0  0  0  0  0  0  0  0  0
   -7.5130   22.1640  -31.7590 C   0  0  0  0  0  0  0  0  0  0  0  0
   -8.4720   21.2550  -32.1890 C   0  0  0  0  0  0  0  0  0  0  0  0
   -8.0310   20.0360  -32.7300 C   0  0  0  0  0  0  0  0  0  0  0  0
   -6.6440   19.7520  -32.8490 C   0  0  0  0  0  0  0  0  0  0  0  0
   -6.1690   18.4680  -33.4270 C   0  0  0  0  0  0  0  0  0  0  0  0
   -6.6830   17.2290  -33.0020 C   0  0  0  0  0  0  0  0  0  0  0  0
   -6.2070   16.0510  -33.5810 C   0  0  0  0  0  0  0  0  0  0  0  0
   -5.2320   16.1100  -34.5780 C   0  0  0  0  0  0  0  0  0  0  0  0
   -4.7500   17.3530  -34.9870 C   0  0  0  0  0  0  0  0  0  0  0  0
   -5.2240   18.4900  -34.4120 N   0  0  0  0  0  0  0  0  0  0  0  0
   -5.7010   20.7020  -32.3900 C   0  0  0  0  0  0  0  0  0  0  0  0
   -6.1700   21.8990  -31.8350 C   0  0  0  0  0  0  0  0  0  0  0  0
   -5.4540   22.9480  -31.3690 N   0  0  0  0  0  0  0  0  0  0  0  0
   -4.0230   23.0890  -31.3860 C   0  0  0  0  0  0  0  0  0  0  0  0
   -3.4750   24.0830  -30.8410 O   0  0  0  0  0  0  0  0  0  0  0  0
   -3.2280   22.1320  -32.0050 O   0  0  0  0  0  0  0  0  0  0  0  0
   -4.3520   25.6700  -31.5700 H   0  0  0  0  0  0  0  0  0  0  0  0
   -4.8490   26.9500  -30.4140 H   0  0  0  0  0  0  0  0  0  0  0  0
   -8.6076   23.9569  -31.0353 H   0  0  0  0  0  0  0  0  0  0  0  0
   -9.5450   21.4833  -32.1081 H   0  0  0  0  0  0  0  0  0  0  0  0
   -8.7686   19.2921  -33.0656 H   0  0  0  0  0  0  0  0  0  0  0  0
   -7.4545   17.1888  -32.2190 H   0  0  0  0  0  0  0  0  0  0  0  0
   -6.5999   15.0777  -33.2518 H   0  0  0  0  0  0  0  0  0  0  0  0
   -4.8481   15.1865  -35.0359 H   0  0  0  0  0  0  0  0  0  0  0  0
   -3.9855   17.4135  -35.7756 H   0  0  0  0  0  0  0  0  0  0  0  0
   -4.6217   20.5042  -32.4676 H   0  0  0  0  0  0  0  0  0  0  0  0
  1  2  1  0
  2  3  2  0
  2  4  1  0
  4  5  2  0
  5  6  1  0
  6  7  2  0
  7  8  1  0
  8  9  2  0
  9 10  1  0
 10 11  2  0
 11 12  1  0
 12 13  2  0
 13 14  1  0
 14 15  2  0
  9 16  1  0
 16 17  2  0
 17 18  1  0
 18 19  1  0
 19 20  2  0
 19 21  1  0
 18  4  1  0
 17  6  1  0
 15 10  1  0
  1 22  1  0
  1 23  1  0
  5 24  1  0
  7 25  1  0
  8 26  1  0
 11 27  1  0
 12 28  1  0
 13 29  1  0
 14 30  1  0
 16 31  1  0
M  CHG  1  21  -1
M  END
>  <UniqueID>  (81) 
81

>  <SMILES>  (81) 
NC(=O)c1cc2ccc(-c3ccccn3)cc2n1C(=O)[O-]

>  <Energy>  (81) 
78.81702995500119

>  <Genealogy>  (81) 
NC(=O)c1cc2ccc(-c3ccccn3)cc2n1C(=O)[O-] (protonated)
NC(=O)c1cc2ccc(-c3ccccn3)cc2n1C(=O)[O-] (3D coordinates assigned)
NC(=O)c1cc2ccc(-c3ccccn3)cc2n1C(=O)[O-] (optimized conformer: 78.81702995500119 kcal/mol)

>  <smiles>  (81) 
NC(=O)c1cc2ccc(-c3ccccn3)cc2n1C(=O)O

>  <score_type>  (81) 
oracle

>  <origin>  (81) 
adg

>  <m_score__min__energy>  (81) 
-9.1799999999999997

>  <m_primary>  (81) 
energy

$$$$
81:0
     RDKit          3D

 63 66  0  0  0  0  0  0  0  0999 V2000
   -3.1030   15.9330  -33.1380 C   0  0  0  0  0  0  0  0  0  0  0  0
   -4.0870   14.7630  -33.2760 C   0  0  0  0  0  0  0  0  0  0  0  0
   -3.6700   13.9020  -34.4870 C   0  0  0  0  0  0  0  0  0  0  0  0
   -4.0580   13.9270  -31.9820 C   0  0  0  0  0  0  0  0  0  0  0  0
   -5.3930   15.3270  -33.4770 O   0  0  0  0  0  0  0  0  0  0  0  0
   -5.9650   16.3720  -32.7320 C   0  0  0  0  0  0  0  0  0  0  0  0
   -5.7260   16.4760  -31.4960 O   0  0  0  0  0  0  0  0  0  0  0  0
   -6.7960   17.3460  -33.4090 N   0  0  0  0  0  0  0  0  0  0  0  0
   -6.1400   17.9270  -34.5870 C   0  0  0  0  0  0  0  0  0  0  0  0
   -4.9030   18.7620  -34.2280 C   0  0  0  0  0  0  0  0  0  0  0  0
   -5.0010   19.5010  -32.9490 N   0  0  0  0  0  0  0  0  0  0  0  0
   -3.8300   20.2390  -32.4770 C   0  0  0  0  0  0  0  0  0  0  0  0
   -2.5320   19.6410  -32.4650 C   0  0  0  0  0  0  0  0  0  0  0  0
   -1.4400   20.2780  -31.8510 C   0  0  0  0  0  0  0  0  0  0  0  0
   -1.6550   21.5070  -31.2480 C   0  0  0  0  0  0  0  0  0  0  0  0
   -0.8060   22.2850  -30.4970 C   0  0  0  0  0  0  0  0  0  0  0  0
   -1.5700   23.3670  -30.0710 C   0  0  0  0  0  0  0  0  0  0  0  0
   -1.0780   24.3860  -29.1160 C   0  0  0  0  0  0  0  0  0  0  0  0
   -1.7350   25.6430  -28.9700 N   0  0  0  0  0  0  0  0  0  0  0  0
   -0.0900   24.1240  -28.3820 O   0  0  0  0  0  0  0  0  0  0  0  0
   -2.8480   23.2600  -30.5430 N   0  0  0  0  0  0  0  0  0  0  0  0
   -3.9330   24.1770  -30.3250 C   0  0  0  0  0  0  0  0  0  0  0  0
   -3.8750   25.3280  -30.8380 O   0  0  0  0  0  0  0  0  0  0  0  0
   -5.1520   23.8100  -29.5090 C   0  0  0  0  0  0  0  0  0  0  0  0
   -6.4750   23.8010  -30.2920 C   0  0  0  0  0  0  0  0  0  0  0  0
   -7.1160   22.5550  -30.1740 O   0  0  0  0  0  0  0  0  0  0  0  0
   -7.7980   22.3930  -31.3770 C   0  0  0  0  0  0  0  0  0  0  0  0
   -7.1880   23.3670  -32.3520 C   0  0  0  0  0  0  0  0  0  0  0  0
   -6.2560   24.1200  -31.6420 O   0  0  0  0  0  0  0  0  0  0  0  0
   -2.8760   22.1230  -31.2720 C   0  0  0  0  0  0  0  0  0  0  0  0
   -3.9660   21.5450  -31.9260 C   0  0  0  0  0  0  0  0  0  0  0  0
   -6.1650   19.3660  -32.0420 C   0  0  0  0  0  0  0  0  0  0  0  0
   -7.2770   18.4190  -32.5270 C   0  0  0  0  0  0  0  0  0  0  0  0
   -2.9280   16.1411  -32.0721 H   0  0  0  0  0  0  0  0  0  0  0  0
   -2.1506   15.6701  -33.6215 H   0  0  0  0  0  0  0  0  0  0  0  0
   -3.5253   16.8263  -33.6215 H   0  0  0  0  0  0  0  0  0  0  0  0
   -3.2162   12.9650  -34.1318 H   0  0  0  0  0  0  0  0  0  0  0  0
   -4.5566   13.6722  -35.0962 H   0  0  0  0  0  0  0  0  0  0  0  0
   -2.9400   14.4551  -35.0962 H   0  0  0  0  0  0  0  0  0  0  0  0
   -4.0813   14.5985  -31.1111 H   0  0  0  0  0  0  0  0  0  0  0  0
   -4.9336   13.2617  -31.9556 H   0  0  0  0  0  0  0  0  0  0  0  0
   -3.1384   13.3240  -31.9556 H   0  0  0  0  0  0  0  0  0  0  0  0
   -7.6440   16.8370  -33.7540 H   0  0  0  0  0  0  0  0  0  0  0  0
   -5.8306   17.1101  -35.2556 H   0  0  0  0  0  0  0  0  0  0  0  0
   -6.8638   18.5989  -35.0713 H   0  0  0  0  0  0  0  0  0  0  0  0
   -4.0391   18.0840  -34.1658 H   0  0  0  0  0  0  0  0  0  0  0  0
   -4.8034   19.5219  -35.0171 H   0  0  0  0  0  0  0  0  0  0  0  0
   -2.3847   18.6627  -32.9459 H   0  0  0  0  0  0  0  0  0  0  0  0
   -0.4426   19.8140  -31.8491 H   0  0  0  0  0  0  0  0  0  0  0  0
    0.2548   22.0925  -30.2787 H   0  0  0  0  0  0  0  0  0  0  0  0
   -2.7660   25.7290  -29.1030 H   0  0  0  0  0  0  0  0  0  0  0  0
   -4.9944   22.8042  -29.0924 H   0  0  0  0  0  0  0  0  0  0  0  0
   -5.2541   24.5886  -28.7387 H   0  0  0  0  0  0  0  0  0  0  0  0
   -7.1338   24.5684  -29.8595 H   0  0  0  0  0  0  0  0  0  0  0  0
   -7.6794   21.3631  -31.7449 H   0  0  0  0  0  0  0  0  0  0  0  0
   -8.8747   22.5795  -31.2510 H   0  0  0  0  0  0  0  0  0  0  0  0
   -6.6914   22.8233  -33.1692 H   0  0  0  0  0  0  0  0  0  0  0  0
   -7.9588   24.0130  -32.7976 H   0  0  0  0  0  0  0  0  0  0  0  0
   -4.9168   22.0911  -32.0143 H   0  0  0  0  0  0  0  0  0  0  0  0
   -5.7991   18.9915  -31.0746 H   0  0  0  0  0  0  0  0  0  0  0  0
   -6.6221   20.3650  -31.9868 H   0  0  0  0  0  0  0  0  0  0  0  0
   -7.7500   17.9592  -31.6468 H   0  0  0  0  0  0  0  0  0  0  0  0
   -7.9826   19.0255  -33.1137 H   0  0  0  0  0  0  0  0  0  0  0  0
  1  2  1  0
  2  3  1  0
  2  4  1  0
  2  5  1  0
  5  6  1  0
  6  7  2  0
  6  8  1  0
  8  9  1  0
  9 10  1  0
 10 11  1  0
 11 12  1  0
 12 13  2  0
 13 14  1  0
 14 15  2  0
 15 16  1  0
 16 17  2  0
 17 18  1  0
 18 19  1  0
 18 20  2  0
 17 21  1  0
 21 22  1  0
 22 23  2  0
 22 24  1  0
 24 25  1  0
 25 26  1  0
 26 27  1  0
 27 28  1  0
 28 29  1  0
 21 30  1  0
 30 31  2  0
 11 32  1  0
 32 33  1  0
 33  8  1  0
 31 12  1  0
 30 15  1  0
 29 25  1  0
  1 34  1  0
  1 35  1  0
  1 36  1  0
  3 37  1  0
  3 38  1  0
  3 39  1  0
  4 40  1  0
  4 41  1  0
  4 42  1  0
  8 43  1  0
  9 44  1  0
  9 45  1  0
 10 46  1  0
 10 47  1  0
 13 48  1  0
 14 49  1  0
 16 50  1  0
 19 51  1  0
 24 52  1  0
 24 53  1  0
 25 54  1  0
 27 55  1  0
 27 56  1  0
 28 57  1  0
 28 58  1  0
 31 59  1  0
 32 60  1  0
 32 61  1  0
 33 62  1  0
 33 63  1  0
M  CHG  2   8   1  19  -1
M  END
>  <UniqueID>  (82) 
82

>  <SMILES>  (82) 
CC(C)(C)OC(=O)[NH+]1CCN(c2ccc3cc(C([NH-])=O)n(C(=O)CC4OCCO4)c3c2)CC1

>  <Energy>  (82) 
108.02676301478365

>  <Genealogy>  (82) 
CC(C)(C)OC(=O)[NH+]1CCN(c2ccc3cc(C([NH-])=O)n(C(=O)CC4OCCO4)c3c2)CC1 (protonated)
CC(C)(C)OC(=O)[NH+]1CCN(c2ccc3cc(C([NH-])=O)n(C(=O)CC4OCCO4)c3c2)CC1 (3D coordinates assigned)
CC(C)(C)OC(=O)[NH+]1CCN(c2ccc3cc(C([NH-])=O)n(C(=O)CC4OCCO4)c3c2)CC1 (nonaromatic ring conformer: 108.02676301478365 kcal/mol)

>  <smiles>  (82) 
CC(C)(C)OC(=O)N1CCN(c2ccc3cc(C(N)=O)n(C(=O)CC4OCCO4)c3c2)CC1

>  <score_type>  (82) 
oracle

>  <origin>  (82) 
adg

>  <m_score__min__energy>  (82) 
-11.1

>  <m_primary>  (82) 
energy

$$$$
82:0
     RDKit          3D

 48 50  0  0  0  0  0  0  0  0999 V2000
   -2.2700   16.8450  -34.8230 C   0  0  0  0  0  0  0  0  0  0  0  0
   -3.5670   16.5540  -35.3330 O   0  0  0  0  0  0  0  0  0  0  0  0
   -4.7630   16.7680  -34.6290 C   0  0  0  0  0  0  0  0  0  0  0  0
   -5.6550   15.6980  -34.4970 C   0  0  0  0  0  0  0  0  0  0  0  0
   -6.8540   15.8580  -33.8020 C   0  0  0  0  0  0  0  0  0  0  0  0
   -7.1750   17.0910  -33.2310 C   0  0  0  0  0  0  0  0  0  0  0  0
   -6.2960   18.1820  -33.3500 C   0  0  0  0  0  0  0  0  0  0  0  0
   -6.6300   19.4900  -32.7290 C   0  0  0  0  0  0  0  0  0  0  0  0
   -7.9820   19.8520  -32.4850 C   0  0  0  0  0  0  0  0  0  0  0  0
   -8.3020   21.0990  -31.9210 C   0  0  0  0  0  0  0  0  0  0  0  0
   -7.2580   21.9640  -31.6130 C   0  0  0  0  0  0  0  0  0  0  0  0
   -7.2810   23.2350  -31.0810 C   0  0  0  0  0  0  0  0  0  0  0  0
   -5.9440   23.6240  -30.9990 C   0  0  0  0  0  0  0  0  0  0  0  0
   -5.4930   24.8810  -30.3710 C   0  0  0  0  0  0  0  0  0  0  0  0
   -4.3190   25.5330  -30.8500 N   0  0  0  0  0  0  0  0  0  0  0  0
   -6.1570   25.4070  -29.4390 O   0  0  0  0  0  0  0  0  0  0  0  0
   -5.1320   22.6400  -31.4780 N   0  0  0  0  0  0  0  0  0  0  0  0
   -3.7070   22.6670  -31.6450 C   0  0  0  0  0  0  0  0  0  0  0  0
   -3.1910   22.1210  -32.6550 O   0  0  0  0  0  0  0  0  0  0  0  0
   -2.8260   23.3760  -30.6530 C   0  0  0  0  0  0  0  0  0  0  0  0
   -2.0790   22.2520  -29.4740 S   0  0  0  0  0  0  0  0  0  0  0  0
   -0.8480   21.6720  -30.1140 O   0  0  0  0  0  0  0  0  0  0  0  0
   -3.0130   21.1240  -29.1380 O   0  0  0  0  0  0  0  0  0  0  0  0
   -1.5610   23.0990  -27.9830 C   0  0  0  0  0  0  0  0  0  0  0  0
   -2.1520   24.8210  -27.9170 P   0  0  1  0  0  0  0  0  0  0  0  0
   -1.6690   25.4880  -26.6510 O   0  0  0  0  0  0  0  0  0  0  0  0
   -1.6000   25.6850  -29.2630 O   0  0  0  0  0  0  0  0  0  0  0  0
   -3.8430   24.8120  -27.9250 O   0  0  0  0  0  0  0  0  0  0  0  0
   -5.9500   21.6270  -31.8310 C   0  0  0  0  0  0  0  0  0  0  0  0
   -5.5980   20.3950  -32.3880 C   0  0  0  0  0  0  0  0  0  0  0  0
   -5.0890   18.0120  -34.0540 C   0  0  0  0  0  0  0  0  0  0  0  0
   -2.2985   16.8386  -33.7234 H   0  0  0  0  0  0  0  0  0  0  0  0
   -1.5581   16.0842  -35.1758 H   0  0  0  0  0  0  0  0  0  0  0  0
   -1.9513   17.8370  -35.1758 H   0  0  0  0  0  0  0  0  0  0  0  0
   -5.4090   14.7237  -34.9445 H   0  0  0  0  0  0  0  0  0  0  0  0
   -7.5483   15.0105  -33.7036 H   0  0  0  0  0  0  0  0  0  0  0  0
   -8.1221   17.2097  -32.6843 H   0  0  0  0  0  0  0  0  0  0  0  0
   -8.7878   19.1481  -32.7405 H   0  0  0  0  0  0  0  0  0  0  0  0
   -9.3474   21.3822  -31.7290 H   0  0  0  0  0  0  0  0  0  0  0  0
   -8.1651   23.8183  -30.7843 H   0  0  0  0  0  0  0  0  0  0  0  0
   -3.4880   25.6610  -30.2320 H   0  0  0  0  0  0  0  0  0  0  0  0
   -2.0261   23.8964  -31.2001 H   0  0  0  0  0  0  0  0  0  0  0  0
   -3.4555   24.0812  -30.0905 H   0  0  0  0  0  0  0  0  0  0  0  0
   -1.9585   22.5561  -27.1128 H   0  0  0  0  0  0  0  0  0  0  0  0
   -0.4613   23.1229  -27.9773 H   0  0  0  0  0  0  0  0  0  0  0  0
   -4.0950   25.3630  -28.7090 H   0  0  0  0  0  0  0  0  0  0  0  0
   -4.5427   20.1349  -32.5574 H   0  0  0  0  0  0  0  0  0  0  0  0
   -4.3939   18.8584  -34.1561 H   0  0  0  0  0  0  0  0  0  0  0  0
  1  2  1  0
  2  3  1  0
  3  4  2  0
  4  5  1  0
  5  6  2  0
  6  7  1  0
  7  8  1  0
  8  9  2  0
  9 10  1  0
 10 11  2  0
 11 12  1  0
 12 13  2  0
 13 14  1  0
 14 15  1  0
 14 16  2  0
 13 17  1  0
 17 18  1  0
 18 19  2  0
 18 20  1  0
 20 21  1  0
 21 22  2  0
 21 23  2  0
 21 24  1  0
 24 25  1  0
 25 26  2  0
 25 27  1  6
 25 28  1  0
 17 29  1  0
 29 30  2  0
  7 31  2  0
 31  3  1  0
 30  8  1  0
 29 11  1  0
  1 32  1  0
  1 33  1  0
  1 34  1  0
  4 35  1  0
  5 36  1  0
  6 37  1  0
  9 38  1  0
 10 39  1  0
 12 40  1  0
 15 41  1  0
 20 42  1  0
 20 43  1  0
 24 44  1  0
 24 45  1  0
 28 46  1  0
 30 47  1  0
 31 48  1  0
M  CHG  2  15  -1  27  -1
M  END
>  <UniqueID>  (83) 
83

>  <SMILES>  (83) 
COc1cccc(-c2ccc3cc(C([NH-])=O)n(C(=O)CS(=O)(=O)C[P@@](=O)([O-])O)c3c2)c1

>  <Energy>  (83) 
82.55869066342872

>  <Genealogy>  (83) 
COc1cccc(-c2ccc3cc(C([NH-])=O)n(C(=O)CS(=O)(=O)CP(=O)([O-])O)c3c2)c1 (protonated)
COc1cccc(-c2ccc3cc(C([NH-])=O)n(C(=O)CS(=O)(=O)C[P@@](=O)([O-])O)c3c2)c1 (chirality)
COc1cccc(-c2ccc3cc(C([NH-])=O)n(C(=O)CS(=O)(=O)C[P@@](=O)([O-])O)c3c2)c1 (3D coordinates assigned)
COc1cccc(-c2ccc3cc(C([NH-])=O)n(C(=O)CS(=O)(=O)C[P@@](=O)([O-])O)c3c2)c1 (optimized conformer: 82.55869066342872 kcal/mol)

>  <smiles>  (83) 
COc1cccc(-c2ccc3cc(C(N)=O)n(C(=O)CS(=O)(=O)CP(=O)(O)O)c3c2)c1

>  <score_type>  (83) 
oracle

>  <origin>  (83) 
adg

>  <m_score__min__energy>  (83) 
-13.58

>  <m_primary>  (83) 
energy

$$$$
83:0
     RDKit          3D

 47 48  0  0  0  0  0  0  0  0999 V2000
   -2.5180   19.1330  -34.1460 C   0  0  0  0  0  0  0  0  0  0  0  0
   -2.2800   20.0500  -33.4010 C   0  0  0  0  0  0  0  0  0  0  0  0
   -1.9900   21.1720  -32.5000 C   0  0  0  0  0  0  0  0  0  0  0  0
   -3.0270   22.1480  -32.5790 O   0  0  0  0  0  0  0  0  0  0  0  0
   -3.6960   22.6510  -31.4610 C   0  0  0  0  0  0  0  0  0  0  0  0
   -3.0480   23.0940  -30.4730 O   0  0  0  0  0  0  0  0  0  0  0  0
   -5.1290   22.6970  -31.4460 N   0  0  0  0  0  0  0  0  0  0  0  0
   -5.9380   23.6870  -30.9700 C   0  0  0  0  0  0  0  0  0  0  0  0
   -5.4760   24.9860  -30.4180 C   0  0  0  0  0  0  0  0  0  0  0  0
   -4.1710   25.4900  -30.7080 N   0  0  0  0  0  0  0  0  0  0  0  0
   -6.2250   25.6570  -29.6590 O   0  0  0  0  0  0  0  0  0  0  0  0
   -7.2790   23.3310  -31.1400 C   0  0  0  0  0  0  0  0  0  0  0  0
   -7.2590   22.0920  -31.7420 C   0  0  0  0  0  0  0  0  0  0  0  0
   -8.3110   21.2600  -32.1230 C   0  0  0  0  0  0  0  0  0  0  0  0
   -7.9920   20.0150  -32.6900 C   0  0  0  0  0  0  0  0  0  0  0  0
   -6.6410   19.6310  -32.8650 C   0  0  0  0  0  0  0  0  0  0  0  0
   -6.3270   18.3400  -33.4050 N   0  0  0  0  0  0  0  0  0  0  0  0
   -5.8570   18.2520  -34.7850 C   0  0  0  0  0  0  0  0  0  0  0  0
   -6.8310   17.1370  -32.7330 C   0  0  0  0  0  0  0  0  0  0  0  0
   -5.7280   16.4840  -31.8910 C   0  0  0  0  0  0  0  0  0  0  0  0
   -4.9180   15.5570  -32.7110 N   0  0  0  0  0  0  0  0  0  0  0  0
   -4.6060   14.3230  -31.9660 C   0  0  0  0  0  0  0  0  0  0  0  0
   -3.6640   16.2110  -33.1130 C   0  0  0  0  0  0  0  0  0  0  0  0
   -5.6030   20.4980  -32.4720 C   0  0  0  0  0  0  0  0  0  0  0  0
   -5.9500   21.7350  -31.9160 C   0  0  0  0  0  0  0  0  0  0  0  0
   -2.7352   18.2961  -34.8260 H   0  0  0  0  0  0  0  0  0  0  0  0
   -1.9193   20.7998  -31.4673 H   0  0  0  0  0  0  0  0  0  0  0  0
   -1.0379   21.6350  -32.7984 H   0  0  0  0  0  0  0  0  0  0  0  0
   -3.8890   26.4320  -30.3560 H   0  0  0  0  0  0  0  0  0  0  0  0
   -3.4770   24.9360  -31.2400 H   0  0  0  0  0  0  0  0  0  0  0  0
   -8.1645   23.9172  -30.8532 H   0  0  0  0  0  0  0  0  0  0  0  0
   -9.3576   21.5688  -31.9840 H   0  0  0  0  0  0  0  0  0  0  0  0
   -8.7979   19.3336  -33.0002 H   0  0  0  0  0  0  0  0  0  0  0  0
   -4.7758   18.0496  -34.7919 H   0  0  0  0  0  0  0  0  0  0  0  0
   -6.3859   17.4373  -35.3012 H   0  0  0  0  0  0  0  0  0  0  0  0
   -6.0553   19.2029  -35.3012 H   0  0  0  0  0  0  0  0  0  0  0  0
   -7.6695   17.4142  -32.0772 H   0  0  0  0  0  0  0  0  0  0  0  0
   -7.1648   16.4190  -33.4966 H   0  0  0  0  0  0  0  0  0  0  0  0
   -5.0743   17.2687  -31.4825 H   0  0  0  0  0  0  0  0  0  0  0  0
   -6.1983   15.9137  -31.0764 H   0  0  0  0  0  0  0  0  0  0  0  0
   -4.6568   14.5241  -30.8857 H   0  0  0  0  0  0  0  0  0  0  0  0
   -5.3350   13.5421  -32.2283 H   0  0  0  0  0  0  0  0  0  0  0  0
   -3.5935   13.9824  -32.2283 H   0  0  0  0  0  0  0  0  0  0  0  0
   -3.0999   16.5052  -32.2157 H   0  0  0  0  0  0  0  0  0  0  0  0
   -3.0617   15.5122  -33.7120 H   0  0  0  0  0  0  0  0  0  0  0  0
   -3.8923   17.1049  -33.7120 H   0  0  0  0  0  0  0  0  0  0  0  0
   -4.5486   20.2110  -32.5985 H   0  0  0  0  0  0  0  0  0  0  0  0
  1  2  3  0
  2  3  1  0
  3  4  1  0
  4  5  1  0
  5  6  2  0
  5  7  1  0
  7  8  1  0
  8  9  1  0
  9 10  1  0
  9 11  2  0
  8 12  2  0
 12 13  1  0
 13 14  2  0
 14 15  1  0
 15 16  2  0
 16 17  1  0
 17 18  1  0
 17 19  1  0
 19 20  1  0
 20 21  1  0
 21 22  1  0
 21 23  1  0
 16 24  1  0
 24 25  2  0
 25  7  1  0
 25 13  1  0
  1 26  1  0
  3 27  1  0
  3 28  1  0
 10 29  1  0
 10 30  1  0
 12 31  1  0
 14 32  1  0
 15 33  1  0
 18 34  1  0
 18 35  1  0
 18 36  1  0
 19 37  1  0
 19 38  1  0
 20 39  1  0
 20 40  1  0
 22 41  1  0
 22 42  1  0
 22 43  1  0
 23 44  1  0
 23 45  1  0
 23 46  1  0
 24 47  1  0
M  END
>  <UniqueID>  (84) 
84

>  <SMILES>  (84) 
C#CCOC(=O)n1c(C(N)=O)cc2ccc(N(C)CCN(C)C)cc21

>  <Energy>  (84) 
85.49333651131553

>  <Genealogy>  (84) 
C#CCOC(=O)n1c(C(N)=O)cc2ccc(N(C)CCN(C)C)cc21 (3D coordinates assigned)
C#CCOC(=O)n1c(C(N)=O)cc2ccc(N(C)CCN(C)C)cc21 (optimized conformer: 85.49333651131553 kcal/mol)

>  <smiles>  (84) 
C#CCOC(=O)n1c(C(N)=O)cc2ccc(N(C)CCN(C)C)cc21

>  <score_type>  (84) 
oracle

>  <origin>  (84) 
adg

>  <m_score__min__energy>  (84) 
-8.2699999999999996

>  <m_primary>  (84) 
energy

$$$$
84:0
     RDKit          3D

 54 58  0  0  0  0  0  0  0  0999 V2000
   -5.3110   11.9680  -31.7880 C   0  0  0  0  0  0  0  0  0  0  0  0
   -4.8780   11.7750  -33.1830 N   0  0  0  0  0  0  0  0  0  0  0  0
   -5.9960   11.9480  -34.1360 C   0  0  0  0  0  0  0  0  0  0  0  0
   -6.4850   13.4050  -34.1850 C   0  0  0  0  0  0  0  0  0  0  0  0
   -5.3560   14.3370  -34.0790 N   0  0  0  0  0  0  0  0  0  0  0  0
   -5.5780   15.7030  -33.6790 C   0  0  0  0  0  0  0  0  0  0  0  0
   -4.4950   16.5820  -33.5190 C   0  0  0  0  0  0  0  0  0  0  0  0
   -4.7100   17.9110  -33.1440 C   0  0  0  0  0  0  0  0  0  0  0  0
   -6.0150   18.3910  -32.9300 C   0  0  0  0  0  0  0  0  0  0  0  0
   -6.2420   19.8030  -32.5320 C   0  0  0  0  0  0  0  0  0  0  0  0
   -7.5180   20.4030  -32.7050 C   0  0  0  0  0  0  0  0  0  0  0  0
   -7.7420   21.7390  -32.3280 C   0  0  0  0  0  0  0  0  0  0  0  0
   -6.6750   22.4540  -31.7950 C   0  0  0  0  0  0  0  0  0  0  0  0
   -6.6190   23.7480  -31.3290 C   0  0  0  0  0  0  0  0  0  0  0  0
   -5.3050   23.9300  -30.8980 C   0  0  0  0  0  0  0  0  0  0  0  0
   -4.7870   25.2100  -30.3700 C   0  0  0  0  0  0  0  0  0  0  0  0
   -3.4830   25.2990  -29.8040 N   0  0  0  0  0  0  0  0  0  0  0  0
   -5.4960   26.2490  -30.4470 O   0  0  0  0  0  0  0  0  0  0  0  0
   -4.5800   22.7930  -31.0910 N   0  0  0  0  0  0  0  0  0  0  0  0
   -3.2130   22.5490  -30.7250 C   0  0  0  0  0  0  0  0  0  0  0  0
   -2.3270   22.4940  -31.6190 O   0  0  0  0  0  0  0  0  0  0  0  0
   -2.8390   22.3630  -29.3160 C   0  0  0  0  0  0  0  0  0  0  0  0
   -2.9260   23.3150  -28.3650 N   0  0  0  0  0  0  0  0  0  0  0  0
   -2.5090   22.7590  -27.2680 O   0  0  0  0  0  0  0  0  0  0  0  0
   -2.1800   21.5210  -27.5400 C   0  0  0  0  0  0  0  0  0  0  0  0
   -1.7370   20.7010  -26.6950 O   0  0  0  0  0  0  0  0  0  0  0  0
   -2.3730   21.2430  -28.8090 O   0  0  0  0  0  0  0  0  0  0  0  0
   -5.4340   21.8990  -31.6360 C   0  0  0  0  0  0  0  0  0  0  0  0
   -5.1870   20.5640  -31.9790 C   0  0  0  0  0  0  0  0  0  0  0  0
   -7.0990   17.5120  -33.1020 C   0  0  0  0  0  0  0  0  0  0  0  0
   -6.8820   16.1830  -33.4750 C   0  0  0  0  0  0  0  0  0  0  0  0
   -4.0100   13.8400  -34.3790 C   0  0  0  0  0  0  0  0  0  0  0  0
   -3.6890   12.6070  -33.5130 C   0  0  0  0  0  0  0  0  0  0  0  0
   -4.5219   11.6163  -31.1071 H   0  0  0  0  0  0  0  0  0  0  0  0
   -5.5015   13.0363  -31.6077 H   0  0  0  0  0  0  0  0  0  0  0  0
   -6.2329   11.3956  -31.6077 H   0  0  0  0  0  0  0  0  0  0  0  0
   -5.6570   11.6523  -35.1398 H   0  0  0  0  0  0  0  0  0  0  0  0
   -6.8325   11.3180  -33.7994 H   0  0  0  0  0  0  0  0  0  0  0  0
   -7.0076   13.5783  -35.1373 H   0  0  0  0  0  0  0  0  0  0  0  0
   -7.1655   13.5774  -33.3382 H   0  0  0  0  0  0  0  0  0  0  0  0
   -3.4697   16.2220  -33.6901 H   0  0  0  0  0  0  0  0  0  0  0  0
   -3.8520   18.5872  -33.0151 H   0  0  0  0  0  0  0  0  0  0  0  0
   -8.3405   19.8155  -33.1390 H   0  0  0  0  0  0  0  0  0  0  0  0
   -8.7311   22.2044  -32.4509 H   0  0  0  0  0  0  0  0  0  0  0  0
   -7.4371   24.4828  -31.3022 H   0  0  0  0  0  0  0  0  0  0  0  0
   -2.6330   25.2980  -30.4100 H   0  0  0  0  0  0  0  0  0  0  0  0
   -3.2580   24.3000  -28.4630 H   0  0  0  0  0  0  0  0  0  0  0  0
   -4.1941   20.1175  -31.8216 H   0  0  0  0  0  0  0  0  0  0  0  0
   -8.1255   17.8733  -32.9417 H   0  0  0  0  0  0  0  0  0  0  0  0
   -7.7394   15.5073  -33.6099 H   0  0  0  0  0  0  0  0  0  0  0  0
   -3.9548   13.5612  -35.4417 H   0  0  0  0  0  0  0  0  0  0  0  0
   -3.2791   14.6319  -34.1583 H   0  0  0  0  0  0  0  0  0  0  0  0
   -2.9678   11.9797  -34.0575 H   0  0  0  0  0  0  0  0  0  0  0  0
   -3.2878   12.9822  -32.5600 H   0  0  0  0  0  0  0  0  0  0  0  0
  1  2  1  0
  2  3  1  0
  3  4  1  0
  4  5  1  0
  5  6  1  0
  6  7  2  0
  7  8  1  0
  8  9  2  0
  9 10  1  0
 10 11  2  0
 11 12  1  0
 12 13  2  0
 13 14  1  0
 14 15  2  0
 15 16  1  0
 16 17  1  0
 16 18  2  0
 15 19  1  0
 19 20  1  0
 20 21  2  0
 20 22  1  0
 22 23  2  0
 23 24  1  0
 24 25  1  0
 25 26  2  0
 25 27  1  0
 19 28  1  0
 28 29  2  0
  9 30  1  0
 30 31  2  0
  5 32  1  0
 32 33  1  0
 33  2  1  0
 31  6  1  0
 29 10  1  0
 28 13  1  0
 27 22  1  0
  1 34  1  0
  1 35  1  0
  1 36  1  0
  3 37  1  0
  3 38  1  0
  4 39  1  0
  4 40  1  0
  7 41  1  0
  8 42  1  0
 11 43  1  0
 12 44  1  0
 14 45  1  0
 17 46  1  0
 23 47  1  0
 29 48  1  0
 30 49  1  0
 31 50  1  0
 32 51  1  0
 32 52  1  0
 33 53  1  0
 33 54  1  0
M  CHG  2  17  -1  23   1
M  END
>  <UniqueID>  (85) 
85

>  <SMILES>  (85) 
CN1CCN(c2ccc(-c3ccc4cc(C([NH-])=O)n(C(=O)c5[nH+]oc(=O)o5)c4c3)cc2)CC1

>  <Energy>  (85) 
153.1135530878052

>  <Genealogy>  (85) 
CN1CCN(c2ccc(-c3ccc4cc(C([NH-])=O)n(C(=O)c5[nH+]oc(=O)o5)c4c3)cc2)CC1 (protonated)
CN1CCN(c2ccc(-c3ccc4cc(C([NH-])=O)n(C(=O)c5[nH+]oc(=O)o5)c4c3)cc2)CC1 (3D coordinates assigned)
CN1CCN(c2ccc(-c3ccc4cc(C([NH-])=O)n(C(=O)c5[nH+]oc(=O)o5)c4c3)cc2)CC1 (nonaromatic ring conformer: 153.1135530878052 kcal/mol)

>  <smiles>  (85) 
CN1CCN(c2ccc(-c3ccc4cc(C(N)=O)n(C(=O)c5noc(=O)o5)c4c3)cc2)CC1

>  <score_type>  (85) 
oracle

>  <origin>  (85) 
adg

>  <m_score__min__energy>  (85) 
-11.24

>  <m_primary>  (85) 
energy

$$$$
85:0
     RDKit          3D

 50 52  0  0  0  0  0  0  0  0999 V2000
   -4.0770   22.4350  -28.1290 C   0  0  0  0  0  0  0  0  0  0  0  0
   -4.1750   23.3940  -27.0990 O   0  0  0  0  0  0  0  0  0  0  0  0
   -3.4440   24.5600  -27.4360 C   0  0  0  0  0  0  0  0  0  0  0  0
   -1.9360   24.2950  -27.3810 C   0  0  0  0  0  0  0  0  0  0  0  0
   -1.2960   24.5420  -28.7110 C   0  0  0  0  0  0  0  0  0  0  0  0
   -1.2530   25.7130  -29.1770 O   0  0  0  0  0  0  0  0  0  0  0  0
   -0.7100   23.4770  -29.4010 O   0  0  0  0  0  0  0  0  0  0  0  0
   -1.4590   22.5850  -30.2190 C   0  0  0  0  0  0  0  0  0  0  0  0
   -2.7070   23.1790  -30.5560 O   0  0  0  0  0  0  0  0  0  0  0  0
   -3.5290   22.6910  -31.5760 C   0  0  0  0  0  0  0  0  0  0  0  0
   -3.0210   22.1900  -32.6160 O   0  0  0  0  0  0  0  0  0  0  0  0
   -4.9560   22.7780  -31.4430 N   0  0  0  0  0  0  0  0  0  0  0  0
   -5.6860   23.8450  -31.0110 C   0  0  0  0  0  0  0  0  0  0  0  0
   -5.1440   25.0840  -30.4170 C   0  0  0  0  0  0  0  0  0  0  0  0
   -3.8960   25.6200  -30.8500 N   0  0  0  0  0  0  0  0  0  0  0  0
   -5.7690   25.6540  -29.4830 O   0  0  0  0  0  0  0  0  0  0  0  0
   -7.0500   23.5860  -31.1310 C   0  0  0  0  0  0  0  0  0  0  0  0
   -7.1340   22.3130  -31.6480 C   0  0  0  0  0  0  0  0  0  0  0  0
   -8.2500   21.5590  -31.9850 C   0  0  0  0  0  0  0  0  0  0  0  0
   -8.0440   20.2840  -32.5370 C   0  0  0  0  0  0  0  0  0  0  0  0
   -6.7300   19.7820  -32.7530 C   0  0  0  0  0  0  0  0  0  0  0  0
   -6.5290   18.4720  -33.3330 N   0  0  0  0  0  0  0  0  0  0  0  0
   -5.6080   18.2000  -34.4260 C   0  0  0  0  0  0  0  0  0  0  0  0
   -5.5990   16.6870  -34.5970 C   0  0  0  0  0  0  0  0  0  0  0  0
   -6.8520   16.1850  -33.8900 C   0  0  0  0  0  0  0  0  0  0  0  0
   -7.2300   17.2740  -32.8960 C   0  0  0  0  0  0  0  0  0  0  0  0
   -5.6210   20.5880  -32.3950 C   0  0  0  0  0  0  0  0  0  0  0  0
   -5.8580   21.8480  -31.8290 C   0  0  0  0  0  0  0  0  0  0  0  0
   -3.9746   21.4325  -27.6880 H   0  0  0  0  0  0  0  0  0  0  0  0
   -4.9835   22.4711  -28.7510 H   0  0  0  0  0  0  0  0  0  0  0  0
   -3.1965   22.6537  -28.7510 H   0  0  0  0  0  0  0  0  0  0  0  0
   -3.7174   24.8748  -28.4539 H   0  0  0  0  0  0  0  0  0  0  0  0
   -3.6886   25.3500  -26.7107 H   0  0  0  0  0  0  0  0  0  0  0  0
   -1.4811   24.9623  -26.6341 H   0  0  0  0  0  0  0  0  0  0  0  0
   -1.7764   23.2417  -27.1071 H   0  0  0  0  0  0  0  0  0  0  0  0
   -0.8951   22.3714  -31.1390 H   0  0  0  0  0  0  0  0  0  0  0  0
   -1.6370   21.6487  -29.6698 H   0  0  0  0  0  0  0  0  0  0  0  0
   -2.9960   25.2930  -30.4330 H   0  0  0  0  0  0  0  0  0  0  0  0
   -7.8821   24.2559  -30.8686 H   0  0  0  0  0  0  0  0  0  0  0  0
   -9.2660   21.9488  -31.8244 H   0  0  0  0  0  0  0  0  0  0  0  0
   -8.9117   19.6639  -32.8065 H   0  0  0  0  0  0  0  0  0  0  0  0
   -5.9550   18.6874  -35.3491 H   0  0  0  0  0  0  0  0  0  0  0  0
   -4.6013   18.5884  -34.2121 H   0  0  0  0  0  0  0  0  0  0  0  0
   -5.6282   16.4214  -35.6641 H   0  0  0  0  0  0  0  0  0  0  0  0
   -4.6876   16.2363  -34.1772 H   0  0  0  0  0  0  0  0  0  0  0  0
   -7.6645   16.0288  -34.6148 H   0  0  0  0  0  0  0  0  0  0  0  0
   -6.6763   15.2218  -33.3887 H   0  0  0  0  0  0  0  0  0  0  0  0
   -8.3172   17.4413  -32.9065 H   0  0  0  0  0  0  0  0  0  0  0  0
   -6.9543   16.9965  -31.8679 H   0  0  0  0  0  0  0  0  0  0  0  0
   -4.5933   20.2314  -32.5583 H   0  0  0  0  0  0  0  0  0  0  0  0
  1  2  1  0
  2  3  1  0
  3  4  1  0
  4  5  1  0
  5  6  2  0
  5  7  1  0
  7  8  1  0
  8  9  1  0
  9 10  1  0
 10 11  2  0
 10 12  1  0
 12 13  1  0
 13 14  1  0
 14 15  1  0
 14 16  2  0
 13 17  2  0
 17 18  1  0
 18 19  2  0
 19 20  1  0
 20 21  2  0
 21 22  1  0
 22 23  1  0
 23 24  1  0
 24 25  1  0
 25 26  1  0
 21 27  1  0
 27 28  2  0
 28 12  1  0
 28 18  1  0
 26 22  1  0
  1 29  1  0
  1 30  1  0
  1 31  1  0
  3 32  1  0
  3 33  1  0
  4 34  1  0
  4 35  1  0
  8 36  1  0
  8 37  1  0
 15 38  1  0
 17 39  1  0
 19 40  1  0
 20 41  1  0
 23 42  1  0
 23 43  1  0
 24 44  1  0
 24 45  1  0
 25 46  1  0
 25 47  1  0
 26 48  1  0
 26 49  1  0
 27 50  1  0
M  CHG  1  15  -1
M  END
>  <UniqueID>  (86) 
86

>  <SMILES>  (86) 
COCCC(=O)OCOC(=O)n1c(C([NH-])=O)cc2ccc(N3CCCC3)cc21

>  <Energy>  (86) 
86.4942656608151

>  <Genealogy>  (86) 
COCCC(=O)OCOC(=O)n1c(C([NH-])=O)cc2ccc(N3CCCC3)cc21 (protonated)
COCCC(=O)OCOC(=O)n1c(C([NH-])=O)cc2ccc(N3CCCC3)cc21 (3D coordinates assigned)
COCCC(=O)OCOC(=O)n1c(C([NH-])=O)cc2ccc(N3CCCC3)cc21 (nonaromatic ring conformer: 86.4942656608151 kcal/mol)

>  <smiles>  (86) 
COCCC(=O)OCOC(=O)n1c(C(N)=O)cc2ccc(N3CCCC3)cc21

>  <score_type>  (86) 
oracle

>  <origin>  (86) 
adg

>  <m_score__min__energy>  (86) 
-10.800000000000001

>  <m_primary>  (86) 
energy

$$$$
86:0
     RDKit          3D

 48 49  0  0  0  0  0  0  0  0999 V2000
   -5.9210   14.5420  -34.1910 C   0  0  0  0  0  0  0  0  0  0  0  0
   -5.3510   15.9480  -33.9110 C   0  0  0  0  0  0  0  0  0  0  0  0
   -5.0030   16.0890  -32.4160 C   0  0  0  0  0  0  0  0  0  0  0  0
   -4.0670   16.1660  -34.7410 C   0  0  0  0  0  0  0  0  0  0  0  0
   -4.2270   17.2290  -35.6460 O   0  0  0  0  0  0  0  0  0  0  0  0
   -6.3220   16.9770  -34.2990 N   0  0  0  0  0  0  0  0  0  0  0  0
   -6.4250   18.3070  -33.7740 C   0  0  0  0  0  0  0  0  0  0  0  0
   -5.8630   19.2780  -34.3500 O   0  0  0  0  0  0  0  0  0  0  0  0
   -7.1630   18.5320  -32.4950 C   0  0  0  0  0  0  0  0  0  0  0  0
   -7.2430   20.0050  -32.2050 C   0  0  0  0  0  0  0  0  0  0  0  0
   -8.4910   20.6750  -32.2720 C   0  0  0  0  0  0  0  0  0  0  0  0
   -8.5870   22.0400  -31.9540 C   0  0  0  0  0  0  0  0  0  0  0  0
   -7.4250   22.7050  -31.5750 C   0  0  0  0  0  0  0  0  0  0  0  0
   -7.2380   24.0110  -31.1830 C   0  0  0  0  0  0  0  0  0  0  0  0
   -5.8810   24.1200  -30.8910 C   0  0  0  0  0  0  0  0  0  0  0  0
   -5.2300   25.3840  -30.4820 C   0  0  0  0  0  0  0  0  0  0  0  0
   -3.8810   25.6670  -30.8420 N   0  0  0  0  0  0  0  0  0  0  0  0
   -5.8880   26.2420  -29.8350 O   0  0  0  0  0  0  0  0  0  0  0  0
   -5.2520   22.9270  -31.0910 N   0  0  0  0  0  0  0  0  0  0  0  0
   -3.8790   22.6010  -30.8290 C   0  0  0  0  0  0  0  0  0  0  0  0
   -3.0090   22.8580  -31.7050 O   0  0  0  0  0  0  0  0  0  0  0  0
   -3.5130   21.9570  -29.5470 C   0  0  0  0  0  0  0  0  0  0  0  0
   -3.0340   22.5820  -28.4600 C   0  0  0  0  0  0  0  0  0  0  0  0
   -2.8030   24.0640  -28.3580 C   0  0  0  0  0  0  0  0  0  0  0  0
   -1.9000   24.4830  -29.3440 O   0  0  0  0  0  0  0  0  0  0  0  0
   -6.2100   22.0720  -31.5100 C   0  0  0  0  0  0  0  0  0  0  0  0
   -6.0880   20.7080  -31.8010 C   0  0  0  0  0  0  0  0  0  0  0  0
   -6.1272   14.0334  -33.2377 H   0  0  0  0  0  0  0  0  0  0  0  0
   -6.8535   14.6325  -34.7675 H   0  0  0  0  0  0  0  0  0  0  0  0
   -5.1888   13.9576  -34.7675 H   0  0  0  0  0  0  0  0  0  0  0  0
   -5.8525   15.7448  -31.8078 H   0  0  0  0  0  0  0  0  0  0  0  0
   -4.1168   15.4790  -32.1867 H   0  0  0  0  0  0  0  0  0  0  0  0
   -4.7914   17.1438  -32.1867 H   0  0  0  0  0  0  0  0  0  0  0  0
   -3.2335   16.3950  -34.0607 H   0  0  0  0  0  0  0  0  0  0  0  0
   -3.8582   15.2487  -35.3111 H   0  0  0  0  0  0  0  0  0  0  0  0
   -5.1310   17.6090  -35.4910 H   0  0  0  0  0  0  0  0  0  0  0  0
   -8.1797   18.1215  -32.5831 H   0  0  0  0  0  0  0  0  0  0  0  0
   -6.6297   18.0290  -31.6749 H   0  0  0  0  0  0  0  0  0  0  0  0
   -9.3916   20.1212  -32.5756 H   0  0  0  0  0  0  0  0  0  0  0  0
   -9.5513   22.5670  -32.0031 H   0  0  0  0  0  0  0  0  0  0  0  0
   -7.9997   24.8017  -31.1148 H   0  0  0  0  0  0  0  0  0  0  0  0
   -3.1910   24.8960  -30.9880 H   0  0  0  0  0  0  0  0  0  0  0  0
   -3.6457   20.8671  -29.4792 H   0  0  0  0  0  0  0  0  0  0  0  0
   -2.7933   21.9659  -27.5811 H   0  0  0  0  0  0  0  0  0  0  0  0
   -3.7591   24.5907  -28.4937 H   0  0  0  0  0  0  0  0  0  0  0  0
   -2.3841   24.2941  -27.3672 H   0  0  0  0  0  0  0  0  0  0  0  0
   -2.3260   24.2940  -30.2210 H   0  0  0  0  0  0  0  0  0  0  0  0
   -5.1172   20.1976  -31.7169 H   0  0  0  0  0  0  0  0  0  0  0  0
  1  2  1  0
  2  3  1  0
  2  4  1  0
  4  5  1  0
  2  6  1  0
  6  7  1  0
  7  8  2  0
  7  9  1  0
  9 10  1  0
 10 11  2  0
 11 12  1  0
 12 13  2  0
 13 14  1  0
 14 15  2  0
 15 16  1  0
 16 17  1  0
 16 18  2  0
 15 19  1  0
 19 20  1  0
 20 21  2  0
 20 22  1  0
 22 23  2  3
 23 24  1  0
 24 25  1  0
 19 26  1  0
 26 27  2  0
 27 10  1  0
 26 13  1  0
  1 28  1  0
  1 29  1  0
  1 30  1  0
  3 31  1  0
  3 32  1  0
  3 33  1  0
  4 34  1  0
  4 35  1  0
  5 36  1  0
  9 37  1  0
  9 38  1  0
 11 39  1  0
 12 40  1  0
 14 41  1  0
 17 42  1  0
 22 43  1  0
 23 44  1  0
 24 45  1  0
 24 46  1  0
 25 47  1  0
 27 48  1  0
M  CHG  2   6  -1  17  -1
M  END
>  <UniqueID>  (87) 
87

>  <SMILES>  (87) 
CC(C)(CO)[N-]C(=O)Cc1ccc2cc(C([NH-])=O)n(C(=O)C=CCO)c2c1

>  <Energy>  (87) 
80.68464272231063

>  <Genealogy>  (87) 
CC(C)(CO)[N-]C(=O)Cc1ccc2cc(C([NH-])=O)n(C(=O)C=CCO)c2c1 (protonated)
CC(C)(CO)[N-]C(=O)Cc1ccc2cc(C([NH-])=O)n(C(=O)C=CCO)c2c1 (3D coordinates assigned)
CC(C)(CO)[N-]C(=O)Cc1ccc2cc(C([NH-])=O)n(C(=O)C=CCO)c2c1 (optimized conformer: 80.68464272231063 kcal/mol)

>  <smiles>  (87) 
CC(C)(CO)NC(=O)Cc1ccc2cc(C(N)=O)n(C(=O)C=CCO)c2c1

>  <score_type>  (87) 
oracle

>  <origin>  (87) 
adg

>  <m_score__min__energy>  (87) 
-9.8499999999999996

>  <m_primary>  (87) 
energy

$$$$
87:0
     RDKit          3D

 46 48  0  0  0  0  0  0  0  0999 V2000
   -3.8830   25.6430  -30.6910 N   0  0  0  0  0  0  0  0  0  0  0  0
   -5.2130   25.1690  -30.4930 C   0  0  0  0  0  0  0  0  0  0  0  0
   -6.0250   25.8690  -29.8330 O   0  0  0  0  0  0  0  0  0  0  0  0
   -5.6340   23.8860  -31.0970 C   0  0  0  0  0  0  0  0  0  0  0  0
   -6.9550   23.5900  -31.4240 C   0  0  0  0  0  0  0  0  0  0  0  0
   -6.9380   22.2890  -31.8700 C   0  0  0  0  0  0  0  0  0  0  0  0
   -7.9770   21.4900  -32.3320 C   0  0  0  0  0  0  0  0  0  0  0  0
   -7.6690   20.1860  -32.7550 C   0  0  0  0  0  0  0  0  0  0  0  0
   -6.3320   19.7010  -32.7190 C   0  0  0  0  0  0  0  0  0  0  0  0
   -6.0250   18.3600  -33.1680 N   0  0  0  0  0  0  0  0  0  0  0  0
   -5.0380   18.0530  -34.1930 C   0  0  0  0  0  0  0  0  0  0  0  0
   -5.1750   16.5630  -34.4670 C   0  0  0  0  0  0  0  0  0  0  0  0
   -5.9110   15.9840  -33.2570 C   0  0  1  0  0  0  0  0  0  0  0  0
   -4.9880   15.4810  -32.3250 O   0  0  0  0  0  0  0  0  0  0  0  0
   -6.6650   17.1610  -32.6470 C   0  0  0  0  0  0  0  0  0  0  0  0
   -5.3050   20.5540  -32.2410 C   0  0  0  0  0  0  0  0  0  0  0  0
   -5.6460   21.8400  -31.8080 C   0  0  0  0  0  0  0  0  0  0  0  0
   -4.8300   22.8100  -31.3370 N   0  0  0  0  0  0  0  0  0  0  0  0
   -3.4040   22.7200  -31.1840 C   0  0  0  0  0  0  0  0  0  0  0  0
   -2.6900   22.3450  -32.1530 O   0  0  0  0  0  0  0  0  0  0  0  0
   -2.8200   23.0250  -29.9480 O   0  0  0  0  0  0  0  0  0  0  0  0
   -1.4290   23.2840  -29.7670 C   0  0  0  0  0  0  0  0  0  0  0  0
   -1.2020   24.3850  -28.7160 C   0  0  1  0  0  0  0  0  0  0  0  0
   -1.2200   25.6500  -29.3310 O   0  0  0  0  0  0  0  0  0  0  0  0
   -2.2290   24.3280  -27.5750 C   0  0  0  0  0  0  0  0  0  0  0  0
   -3.4600   24.8240  -28.0220 O   0  0  0  0  0  0  0  0  0  0  0  0
   -3.0750   25.1830  -30.2180 H   0  0  0  0  0  0  0  0  0  0  0  0
   -7.8270   24.2555  -31.3428 H   0  0  0  0  0  0  0  0  0  0  0  0
   -9.0098   21.8672  -32.3655 H   0  0  0  0  0  0  0  0  0  0  0  0
   -8.4736   19.5304  -33.1194 H   0  0  0  0  0  0  0  0  0  0  0  0
   -5.2420   18.6308  -35.1065 H   0  0  0  0  0  0  0  0  0  0  0  0
   -4.0204   18.3127  -33.8659 H   0  0  0  0  0  0  0  0  0  0  0  0
   -5.7558   16.3941  -35.3858 H   0  0  0  0  0  0  0  0  0  0  0  0
   -4.1946   16.0856  -34.6118 H   0  0  0  0  0  0  0  0  0  0  0  0
   -6.5812   15.1592  -33.5408 H   0  0  0  0  0  0  0  0  0  0  0  0
   -5.3400   15.7090  -31.4260 H   0  0  0  0  0  0  0  0  0  0  0  0
   -7.7236   17.1326  -32.9447 H   0  0  0  0  0  0  0  0  0  0  0  0
   -6.6348   17.1331  -31.5478 H   0  0  0  0  0  0  0  0  0  0  0  0
   -4.2602   20.2112  -32.2112 H   0  0  0  0  0  0  0  0  0  0  0  0
   -0.9323   22.3610  -29.4333 H   0  0  0  0  0  0  0  0  0  0  0  0
   -1.0097   23.6243  -30.7253 H   0  0  0  0  0  0  0  0  0  0  0  0
   -0.2136   24.2100  -28.2660 H   0  0  0  0  0  0  0  0  0  0  0  0
   -2.0030   25.6740  -29.9430 H   0  0  0  0  0  0  0  0  0  0  0  0
   -2.3526   23.2856  -27.2462 H   0  0  0  0  0  0  0  0  0  0  0  0
   -1.8732   24.9412  -26.7340 H   0  0  0  0  0  0  0  0  0  0  0  0
   -3.3610   24.9700  -28.9980 H   0  0  0  0  0  0  0  0  0  0  0  0
  1  2  1  0
  2  3  2  0
  2  4  1  0
  4  5  2  0
  5  6  1  0
  6  7  2  0
  7  8  1  0
  8  9  2  0
  9 10  1  0
 10 11  1  0
 11 12  1  0
 12 13  1  0
 13 14  1  0
 13 15  1  0
  9 16  1  0
 16 17  2  0
 17 18  1  0
 18 19  1  0
 19 20  2  0
 19 21  1  0
 21 22  1  0
 22 23  1  0
 23 24  1  0
 23 25  1  0
 25 26  1  0
 18  4  1  0
 17  6  1  0
 15 10  1  0
  1 27  1  0
  5 28  1  0
  7 29  1  0
  8 30  1  0
 11 31  1  0
 11 32  1  0
 12 33  1  0
 12 34  1  0
 13 35  1  6
 14 36  1  0
 15 37  1  0
 15 38  1  0
 16 39  1  0
 22 40  1  0
 22 41  1  0
 23 42  1  1
 24 43  1  0
 25 44  1  0
 25 45  1  0
 26 46  1  0
M  CHG  1   1  -1
M  END
>  <UniqueID>  (88) 
88

>  <SMILES>  (88) 
[NH-]C(=O)c1cc2ccc(N3CC[C@@H](O)C3)cc2n1C(=O)OC[C@@H](O)CO

>  <Energy>  (88) 
84.28418238521334

>  <Genealogy>  (88) 
[NH-]C(=O)c1cc2ccc(N3CC[C@@H](O)C3)cc2n1C(=O)OCC(O)CO (protonated)
[NH-]C(=O)c1cc2ccc(N3CC[C@@H](O)C3)cc2n1C(=O)OC[C@@H](O)CO (chirality)
[NH-]C(=O)c1cc2ccc(N3CC[C@@H](O)C3)cc2n1C(=O)OC[C@@H](O)CO (3D coordinates assigned)
[NH-]C(=O)c1cc2ccc(N3CC[C@@H](O)C3)cc2n1C(=O)OC[C@@H](O)CO (nonaromatic ring conformer: 84.28418238521334 kcal/mol)

>  <smiles>  (88) 
NC(=O)c1cc2ccc(N3CC[C@@H](O)C3)cc2n1C(=O)OCC(O)CO

>  <score_type>  (88) 
oracle

>  <origin>  (88) 
adg

>  <m_score__min__energy>  (88) 
-10.56

>  <m_primary>  (88) 
energy

$$$$
88:0
     RDKit          3D

 38 39  0  0  0  0  0  0  0  0999 V2000
   -4.7940   24.8510  -29.7700 N   0  0  0  0  0  0  0  0  0  0  0  0
   -6.1260   24.5430  -30.1900 C   0  0  0  0  0  0  0  0  0  0  0  0
   -7.0450   25.3790  -29.9860 O   0  0  0  0  0  0  0  0  0  0  0  0
   -6.4530   23.2400  -30.8020 C   0  0  0  0  0  0  0  0  0  0  0  0
   -7.7300   22.8960  -31.2390 C   0  0  0  0  0  0  0  0  0  0  0  0
   -7.6230   21.6030  -31.6960 C   0  0  0  0  0  0  0  0  0  0  0  0
   -8.5820   20.7760  -32.2720 C   0  0  0  0  0  0  0  0  0  0  0  0
   -8.1800   19.5020  -32.7050 C   0  0  0  0  0  0  0  0  0  0  0  0
   -6.8350   19.0810  -32.5560 C   0  0  0  0  0  0  0  0  0  0  0  0
   -6.4010   17.7320  -33.0670 C   0  0  0  0  0  0  0  0  0  0  0  0
   -6.1360   17.7680  -34.5720 C   0  0  0  0  0  0  0  0  0  0  0  0
   -5.9990   19.0930  -35.0050 O   0  0  0  0  0  0  0  0  0  0  0  0
   -5.8870   19.9510  -31.9760 C   0  0  0  0  0  0  0  0  0  0  0  0
   -6.3180   21.2080  -31.5350 C   0  0  0  0  0  0  0  0  0  0  0  0
   -5.5860   22.2050  -30.9890 N   0  0  0  0  0  0  0  0  0  0  0  0
   -4.1620   22.2130  -30.7940 C   0  0  0  0  0  0  0  0  0  0  0  0
   -3.4190   22.8150  -31.6150 O   0  0  0  0  0  0  0  0  0  0  0  0
   -3.5910   21.5390  -29.6720 N   0  0  0  0  0  0  0  0  0  0  0  0
   -2.6830   22.3640  -28.4490 S   0  0  0  0  0  0  0  0  0  0  0  0
   -2.2150   21.3630  -27.4300 O   0  0  0  0  0  0  0  0  0  0  0  0
   -3.5580   23.3790  -27.7710 O   0  0  0  0  0  0  0  0  0  0  0  0
   -1.2670   23.1690  -29.1770 C   0  0  0  0  0  0  0  0  0  0  0  0
   -1.3460   24.6450  -28.9690 C   0  0  0  0  0  0  0  0  0  0  0  0
   -2.3660   25.2840  -29.3390 O   0  0  0  0  0  0  0  0  0  0  0  0
   -0.3090   25.3140  -28.3300 O   0  0  0  0  0  0  0  0  0  0  0  0
   -4.5740   25.7930  -29.3800 H   0  0  0  0  0  0  0  0  0  0  0  0
   -4.0490   24.1200  -29.7630 H   0  0  0  0  0  0  0  0  0  0  0  0
   -8.6324   23.5248  -31.2222 H   0  0  0  0  0  0  0  0  0  0  0  0
   -9.6240   21.1100  -32.3849 H   0  0  0  0  0  0  0  0  0  0  0  0
   -8.9155   18.8249  -33.1639 H   0  0  0  0  0  0  0  0  0  0  0  0
   -5.4789   17.4317  -32.5478 H   0  0  0  0  0  0  0  0  0  0  0  0
   -7.2087   17.0108  -32.8735 H   0  0  0  0  0  0  0  0  0  0  0  0
   -5.2103   17.2159  -34.7917 H   0  0  0  0  0  0  0  0  0  0  0  0
   -6.9829   17.3031  -35.0979 H   0  0  0  0  0  0  0  0  0  0  0  0
   -6.8790   19.3500  -35.3860 H   0  0  0  0  0  0  0  0  0  0  0  0
   -4.8344   19.6486  -31.8729 H   0  0  0  0  0  0  0  0  0  0  0  0
   -0.3498   22.7849  -28.7067 H   0  0  0  0  0  0  0  0  0  0  0  0
   -1.2529   22.9602  -30.2569 H   0  0  0  0  0  0  0  0  0  0  0  0
  1  2  1  0
  2  3  2  0
  2  4  1  0
  4  5  2  0
  5  6  1  0
  6  7  2  0
  7  8  1  0
  8  9  2  0
  9 10  1  0
 10 11  1  0
 11 12  1  0
  9 13  1  0
 13 14  2  0
 14 15  1  0
 15 16  1  0
 16 17  2  0
 16 18  1  0
 18 19  1  0
 19 20  2  0
 19 21  2  0
 19 22  1  0
 22 23  1  0
 23 24  2  0
 23 25  1  0
 15  4  1  0
 14  6  1  0
  1 26  1  0
  1 27  1  0
  5 28  1  0
  7 29  1  0
  8 30  1  0
 10 31  1  0
 10 32  1  0
 11 33  1  0
 11 34  1  0
 12 35  1  0
 13 36  1  0
 22 37  1  0
 22 38  1  0
M  CHG  2  18  -1  25  -1
M  END
>  <UniqueID>  (89) 
89

>  <SMILES>  (89) 
NC(=O)c1cc2ccc(CCO)cc2n1C(=O)[N-]S(=O)(=O)CC(=O)[O-]

>  <Energy>  (89) 
69.8765143754897

>  <Genealogy>  (89) 
NC(=O)c1cc2ccc(CCO)cc2n1C(=O)[N-]S(=O)(=O)CC(=O)[O-] (protonated)
NC(=O)c1cc2ccc(CCO)cc2n1C(=O)[N-]S(=O)(=O)CC(=O)[O-] (3D coordinates assigned)
NC(=O)c1cc2ccc(CCO)cc2n1C(=O)[N-]S(=O)(=O)CC(=O)[O-] (optimized conformer: 69.8765143754897 kcal/mol)

>  <smiles>  (89) 
NC(=O)c1cc2ccc(CCO)cc2n1C(=O)NS(=O)(=O)CC(=O)O

>  <score_type>  (89) 
oracle

>  <origin>  (89) 
adg

>  <m_score__min__energy>  (89) 
-11.48

>  <m_primary>  (89) 
energy

$$$$
89:0
     RDKit          3D

 48 49  0  0  0  0  0  0  0  0999 V2000
   -5.2420   15.8760  -34.2430 C   0  0  0  0  0  0  0  0  0  0  0  0
   -6.0060   17.0840  -33.8840 N   0  0  0  0  0  0  0  0  0  0  0  0
   -5.4320   18.2520  -34.5700 C   0  0  0  0  0  0  0  0  0  0  0  0
   -6.0150   17.2910  -32.4190 C   0  0  0  0  0  0  0  0  0  0  0  0
   -7.3900   17.7750  -31.9360 C   0  0  0  0  0  0  0  0  0  0  0  0
   -7.8450   18.9330  -32.7110 N   0  0  0  0  0  0  0  0  0  0  0  0
   -7.7730   20.3010  -32.2680 C   0  0  0  0  0  0  0  0  0  0  0  0
   -8.9780   21.0040  -32.0140 C   0  0  0  0  0  0  0  0  0  0  0  0
   -8.9570   22.3320  -31.5530 C   0  0  0  0  0  0  0  0  0  0  0  0
   -7.7180   22.9350  -31.3640 C   0  0  0  0  0  0  0  0  0  0  0  0
   -7.4020   24.1850  -30.8790 C   0  0  0  0  0  0  0  0  0  0  0  0
   -6.0090   24.2330  -30.8680 C   0  0  0  0  0  0  0  0  0  0  0  0
   -5.2270   25.4110  -30.4420 C   0  0  0  0  0  0  0  0  0  0  0  0
   -3.8650   25.5440  -30.8410 N   0  0  0  0  0  0  0  0  0  0  0  0
   -5.7430   26.2930  -29.7060 O   0  0  0  0  0  0  0  0  0  0  0  0
   -5.4890   23.0620  -31.3300 N   0  0  0  0  0  0  0  0  0  0  0  0
   -4.1140   22.6490  -31.3530 C   0  0  0  0  0  0  0  0  0  0  0  0
   -3.5620   22.3920  -32.4560 O   0  0  0  0  0  0  0  0  0  0  0  0
   -3.3300   22.4880  -30.0820 C   0  0  0  0  0  0  0  0  0  0  0  0
   -2.1500   23.3570  -30.0930 N   0  0  0  0  0  0  0  0  0  0  0  0
   -2.0210   24.2090  -28.5850 S   0  0  0  0  0  0  0  0  0  0  0  0
   -3.5770   24.1580  -27.7210 C   0  0  0  0  0  0  0  0  0  0  0  0
   -1.6220   25.6380  -28.8250 O   0  0  0  0  0  0  0  0  0  0  0  0
   -0.9740   23.5430  -27.7370 O   0  0  0  0  0  0  0  0  0  0  0  0
   -6.5460   22.2800  -31.6290 C   0  0  0  0  0  0  0  0  0  0  0  0
   -6.5340   20.9610  -32.0870 C   0  0  0  0  0  0  0  0  0  0  0  0
   -4.9169   15.3619  -33.3265 H   0  0  0  0  0  0  0  0  0  0  0  0
   -5.8785   15.2021  -34.8352 H   0  0  0  0  0  0  0  0  0  0  0  0
   -4.3604   16.1623  -34.8352 H   0  0  0  0  0  0  0  0  0  0  0  0
   -5.0756   18.9771  -33.8235 H   0  0  0  0  0  0  0  0  0  0  0  0
   -4.5895   17.9300  -35.1997 H   0  0  0  0  0  0  0  0  0  0  0  0
   -6.2017   18.7222  -35.1997 H   0  0  0  0  0  0  0  0  0  0  0  0
   -5.7736   16.3405  -31.9207 H   0  0  0  0  0  0  0  0  0  0  0  0
   -5.2679   18.0592  -32.1707 H   0  0  0  0  0  0  0  0  0  0  0  0
   -8.1183   16.9584  -32.0494 H   0  0  0  0  0  0  0  0  0  0  0  0
   -7.3040   18.0733  -30.8807 H   0  0  0  0  0  0  0  0  0  0  0  0
   -8.3110   18.7350  -33.6260 H   0  0  0  0  0  0  0  0  0  0  0  0
   -9.9431   20.5031  -32.1801 H   0  0  0  0  0  0  0  0  0  0  0  0
   -9.8905   22.8767  -31.3483 H   0  0  0  0  0  0  0  0  0  0  0  0
   -8.0998   24.9761  -30.5671 H   0  0  0  0  0  0  0  0  0  0  0  0
   -3.0880   25.2980  -30.1880 H   0  0  0  0  0  0  0  0  0  0  0  0
   -3.9682   22.7550  -29.2268 H   0  0  0  0  0  0  0  0  0  0  0  0
   -3.0005   21.4419  -29.9974 H   0  0  0  0  0  0  0  0  0  0  0  0
   -2.2820   24.0790  -30.8400 H   0  0  0  0  0  0  0  0  0  0  0  0
   -3.3944   24.1640  -26.6363 H   0  0  0  0  0  0  0  0  0  0  0  0
   -4.1783   25.0369  -27.9965 H   0  0  0  0  0  0  0  0  0  0  0  0
   -4.1195   23.2416  -27.9965 H   0  0  0  0  0  0  0  0  0  0  0  0
   -5.5852   20.4475  -32.3018 H   0  0  0  0  0  0  0  0  0  0  0  0
  1  2  1  0
  2  3  1  0
  2  4  1  0
  4  5  1  0
  5  6  1  0
  6  7  1  0
  7  8  2  0
  8  9  1  0
  9 10  2  0
 10 11  1  0
 11 12  2  0
 12 13  1  0
 13 14  1  0
 13 15  2  0
 12 16  1  0
 16 17  1  0
 17 18  2  0
 17 19  1  0
 19 20  1  0
 20 21  1  0
 21 22  1  0
 21 23  2  0
 21 24  2  0
 16 25  1  0
 25 26  2  0
 26  7  1  0
 25 10  1  0
  1 27  1  0
  1 28  1  0
  1 29  1  0
  3 30  1  0
  3 31  1  0
  3 32  1  0
  4 33  1  0
  4 34  1  0
  5 35  1  0
  5 36  1  0
  6 37  1  0
  8 38  1  0
  9 39  1  0
 11 40  1  0
 14 41  1  0
 19 42  1  0
 19 43  1  0
 20 44  1  0
 22 45  1  0
 22 46  1  0
 22 47  1  0
 26 48  1  0
M  CHG  1  14  -1
M  END
>  <UniqueID>  (90) 
90

>  <SMILES>  (90) 
CN(C)CCNc1ccc2cc(C([NH-])=O)n(C(=O)CNS(C)(=O)=O)c2c1

>  <Energy>  (90) 
76.9341365181444

>  <Genealogy>  (90) 
CN(C)CCNc1ccc2cc(C([NH-])=O)n(C(=O)CNS(C)(=O)=O)c2c1 (protonated)
CN(C)CCNc1ccc2cc(C([NH-])=O)n(C(=O)CNS(C)(=O)=O)c2c1 (3D coordinates assigned)
CN(C)CCNc1ccc2cc(C([NH-])=O)n(C(=O)CNS(C)(=O)=O)c2c1 (optimized conformer: 76.9341365181444 kcal/mol)

>  <smiles>  (90) 
CN(C)CCNc1ccc2cc(C(N)=O)n(C(=O)CNS(C)(=O)=O)c2c1

>  <score_type>  (90) 
oracle

>  <origin>  (90) 
adg

>  <m_score__min__energy>  (90) 
-10.83

>  <m_primary>  (90) 
energy

$$$$
90:0
     RDKit          3D

 37 38  0  0  0  0  0  0  0  0999 V2000
   -1.0290   22.0010  -30.1320 C   0  0  0  0  0  0  0  0  0  0  0  0
   -1.8610   22.8110  -29.1180 C   0  0  0  0  0  0  0  0  0  0  0  0
   -1.6480   22.2760  -27.6900 C   0  0  0  0  0  0  0  0  0  0  0  0
   -3.2520   22.7690  -29.4800 O   0  0  0  0  0  0  0  0  0  0  0  0
   -3.7740   22.6240  -30.7740 C   0  0  0  0  0  0  0  0  0  0  0  0
   -3.0010   22.4550  -31.7550 O   0  0  0  0  0  0  0  0  0  0  0  0
   -5.1970   22.7000  -30.9920 N   0  0  0  0  0  0  0  0  0  0  0  0
   -5.9770   23.8170  -30.9540 C   0  0  0  0  0  0  0  0  0  0  0  0
   -5.5320   25.1640  -30.5680 C   0  0  0  0  0  0  0  0  0  0  0  0
   -4.1910   25.5820  -30.8120 N   0  0  0  0  0  0  0  0  0  0  0  0
   -6.3240   25.9280  -29.9550 O   0  0  0  0  0  0  0  0  0  0  0  0
   -7.2700   23.5400  -31.3820 C   0  0  0  0  0  0  0  0  0  0  0  0
   -7.2740   22.1950  -31.6660 C   0  0  0  0  0  0  0  0  0  0  0  0
   -8.3110   21.3830  -32.1160 C   0  0  0  0  0  0  0  0  0  0  0  0
   -8.0410   20.0200  -32.3160 C   0  0  0  0  0  0  0  0  0  0  0  0
   -6.7490   19.4950  -32.0600 C   0  0  0  0  0  0  0  0  0  0  0  0
   -6.4710   18.0320  -32.2540 C   0  0  0  0  0  0  0  0  0  0  0  0
   -6.1800   17.4450  -31.0360 F   0  0  0  0  0  0  0  0  0  0  0  0
   -7.5790   17.4160  -32.8050 F   0  0  0  0  0  0  0  0  0  0  0  0
   -5.7230   20.3500  -31.6010 C   0  0  0  0  0  0  0  0  0  0  0  0
   -6.0140   21.7090  -31.4230 C   0  0  0  0  0  0  0  0  0  0  0  0
   -1.4220   24.2570  -29.1430 C   0  0  0  0  0  0  0  0  0  0  0  0
   -0.2020   24.5490  -29.0360 O   0  0  0  0  0  0  0  0  0  0  0  0
   -2.3410   25.2760  -29.3760 O   0  0  0  0  0  0  0  0  0  0  0  0
   -0.3423   21.3325  -29.5920 H   0  0  0  0  0  0  0  0  0  0  0  0
   -1.7020   21.4027  -30.7638 H   0  0  0  0  0  0  0  0  0  0  0  0
   -0.4490   22.6898  -30.7638 H   0  0  0  0  0  0  0  0  0  0  0  0
   -1.9531   23.0422  -26.9621 H   0  0  0  0  0  0  0  0  0  0  0  0
   -2.2538   21.3696  -27.5439 H   0  0  0  0  0  0  0  0  0  0  0  0
   -0.5849   22.0340  -27.5439 H   0  0  0  0  0  0  0  0  0  0  0  0
   -3.4970   24.9240  -31.2300 H   0  0  0  0  0  0  0  0  0  0  0  0
   -3.8790   26.5420  -30.5400 H   0  0  0  0  0  0  0  0  0  0  0  0
   -8.1093   24.2451  -31.4737 H   0  0  0  0  0  0  0  0  0  0  0  0
   -9.3118   21.7967  -32.3091 H   0  0  0  0  0  0  0  0  0  0  0  0
   -8.8390   19.3532  -32.6746 H   0  0  0  0  0  0  0  0  0  0  0  0
   -5.6115   17.9167  -32.9308 H   0  0  0  0  0  0  0  0  0  0  0  0
   -4.7176   19.9578  -31.3879 H   0  0  0  0  0  0  0  0  0  0  0  0
  1  2  1  0
  2  3  1  0
  2  4  1  0
  4  5  1  0
  5  6  2  0
  5  7  1  0
  7  8  1  0
  8  9  1  0
  9 10  1  0
  9 11  2  0
  8 12  2  0
 12 13  1  0
 13 14  2  0
 14 15  1  0
 15 16  2  0
 16 17  1  0
 17 18  1  0
 17 19  1  0
 16 20  1  0
 20 21  2  0
  2 22  1  0
 22 23  2  0
 22 24  1  0
 21  7  1  0
 21 13  1  0
  1 25  1  0
  1 26  1  0
  1 27  1  0
  3 28  1  0
  3 29  1  0
  3 30  1  0
 10 31  1  0
 10 32  1  0
 12 33  1  0
 14 34  1  0
 15 35  1  0
 17 36  1  0
 20 37  1  0
M  CHG  1  24  -1
M  END
>  <UniqueID>  (91) 
91

>  <SMILES>  (91) 
CC(C)(OC(=O)n1c(C(N)=O)cc2ccc(C(F)F)cc21)C(=O)[O-]

>  <Energy>  (91) 
77.04664617147131

>  <Genealogy>  (91) 
CC(C)(OC(=O)n1c(C(N)=O)cc2ccc(C(F)F)cc21)C(=O)[O-] (protonated)
CC(C)(OC(=O)n1c(C(N)=O)cc2ccc(C(F)F)cc21)C(=O)[O-] (3D coordinates assigned)
CC(C)(OC(=O)n1c(C(N)=O)cc2ccc(C(F)F)cc21)C(=O)[O-] (optimized conformer: 77.04664617147131 kcal/mol)

>  <smiles>  (91) 
CC(C)(OC(=O)n1c(C(N)=O)cc2ccc(C(F)F)cc21)C(=O)O

>  <score_type>  (91) 
oracle

>  <origin>  (91) 
adg

>  <m_score__min__energy>  (91) 
-10.779999999999999

>  <m_primary>  (91) 
energy

$$$$
91:0
     RDKit          3D

 47 50  0  0  0  0  0  0  0  0999 V2000
   -5.9170   25.3390  -29.0230 N   0  0  0  0  0  0  0  0  0  0  0  0
   -5.3930   24.9480  -30.2930 C   0  0  0  0  0  0  0  0  0  0  0  0
   -4.5170   25.6660  -30.8440 O   0  0  0  0  0  0  0  0  0  0  0  0
   -5.8190   23.6950  -30.9490 C   0  0  0  0  0  0  0  0  0  0  0  0
   -7.1460   23.3890  -31.2410 C   0  0  0  0  0  0  0  0  0  0  0  0
   -7.1100   22.1500  -31.8420 C   0  0  0  0  0  0  0  0  0  0  0  0
   -8.1450   21.3470  -32.3000 C   0  0  0  0  0  0  0  0  0  0  0  0
   -7.8220   20.0810  -32.8190 C   0  0  0  0  0  0  0  0  0  0  0  0
   -6.4710   19.6180  -32.8640 C   0  0  0  0  0  0  0  0  0  0  0  0
   -6.1440   18.2920  -33.3850 N   0  0  0  0  0  0  0  0  0  0  0  0
   -7.0550   17.1610  -33.1100 C   0  0  0  0  0  0  0  0  0  0  0  0
   -6.6320   15.8580  -33.7920 C   0  0  0  0  0  0  0  0  0  0  0  0
   -5.2330   15.7020  -33.7560 O   0  0  0  0  0  0  0  0  0  0  0  0
   -4.6580   16.6650  -34.6070 C   0  0  0  0  0  0  0  0  0  0  0  0
   -4.8380   18.0770  -34.0460 C   0  0  0  0  0  0  0  0  0  0  0  0
   -5.4530   20.4810  -32.3700 C   0  0  0  0  0  0  0  0  0  0  0  0
   -5.8040   21.7460  -31.8900 C   0  0  0  0  0  0  0  0  0  0  0  0
   -4.9980   22.6870  -31.3540 N   0  0  0  0  0  0  0  0  0  0  0  0
   -3.5890   22.5580  -31.1100 C   0  0  0  0  0  0  0  0  0  0  0  0
   -2.7830   22.6350  -32.0760 O   0  0  0  0  0  0  0  0  0  0  0  0
   -3.0840   22.3350  -29.7420 C   0  0  0  0  0  0  0  0  0  0  0  0
   -2.3160   21.3620  -29.5160 O   0  0  0  0  0  0  0  0  0  0  0  0
   -3.5240   23.1980  -28.5980 C   0  0  0  0  0  0  0  0  0  0  0  0
   -2.4740   24.2240  -28.3130 C   0  0  0  0  0  0  0  0  0  0  0  0
   -1.5850   24.1980  -27.2560 C   0  0  0  0  0  0  0  0  0  0  0  0
   -0.7870   25.3090  -27.4180 C   0  0  0  0  0  0  0  0  0  0  0  0
   -1.2350   25.9400  -28.5610 C   0  0  0  0  0  0  0  0  0  0  0  0
   -2.2390   25.2680  -29.0740 O   0  0  0  0  0  0  0  0  0  0  0  0
   -5.6470   26.2570  -28.6070 H   0  0  0  0  0  0  0  0  0  0  0  0
   -6.4890   24.6830  -28.4480 H   0  0  0  0  0  0  0  0  0  0  0  0
   -8.0336   24.0053  -31.0355 H   0  0  0  0  0  0  0  0  0  0  0  0
   -9.1889   21.6914  -32.2581 H   0  0  0  0  0  0  0  0  0  0  0  0
   -8.6261   19.4334  -33.1984 H   0  0  0  0  0  0  0  0  0  0  0  0
   -7.0828   16.9923  -32.0234 H   0  0  0  0  0  0  0  0  0  0  0  0
   -8.0409   17.4333  -33.5148 H   0  0  0  0  0  0  0  0  0  0  0  0
   -7.1022   15.0104  -33.2719 H   0  0  0  0  0  0  0  0  0  0  0  0
   -6.9545   15.8913  -34.8431 H   0  0  0  0  0  0  0  0  0  0  0  0
   -3.5834   16.4550  -34.7122 H   0  0  0  0  0  0  0  0  0  0  0  0
   -5.1610   16.6115  -35.5838 H   0  0  0  0  0  0  0  0  0  0  0  0
   -4.0416   18.2626  -33.3103 H   0  0  0  0  0  0  0  0  0  0  0  0
   -4.7912   18.7702  -34.8988 H   0  0  0  0  0  0  0  0  0  0  0  0
   -4.4020   20.1563  -32.3659 H   0  0  0  0  0  0  0  0  0  0  0  0
   -4.4664   23.7012  -28.8600 H   0  0  0  0  0  0  0  0  0  0  0  0
   -3.6769   22.5731  -27.7057 H   0  0  0  0  0  0  0  0  0  0  0  0
   -1.5266   23.4478  -26.4536 H   0  0  0  0  0  0  0  0  0  0  0  0
    0.0405   25.6289  -26.7676 H   0  0  0  0  0  0  0  0  0  0  0  0
   -0.8141   26.8664  -28.9789 H   0  0  0  0  0  0  0  0  0  0  0  0
  1  2  1  0
  2  3  2  0
  2  4  1  0
  4  5  2  0
  5  6  1  0
  6  7  2  0
  7  8  1  0
  8  9  2  0
  9 10  1  0
 10 11  1  0
 11 12  1  0
 12 13  1  0
 13 14  1  0
 14 15  1  0
  9 16  1  0
 16 17  2  0
 17 18  1  0
 18 19  1  0
 19 20  2  0
 19 21  1  0
 21 22  2  0
 21 23  1  0
 23 24  1  0
 24 25  2  0
 25 26  1  0
 26 27  2  0
 27 28  1  0
 18  4  1  0
 28 24  1  0
 17  6  1  0
 15 10  1  0
  1 29  1  0
  1 30  1  0
  5 31  1  0
  7 32  1  0
  8 33  1  0
 11 34  1  0
 11 35  1  0
 12 36  1  0
 12 37  1  0
 14 38  1  0
 14 39  1  0
 15 40  1  0
 15 41  1  0
 16 42  1  0
 23 43  1  0
 23 44  1  0
 25 45  1  0
 26 46  1  0
 27 47  1  0
M  END
>  <UniqueID>  (92) 
92

>  <SMILES>  (92) 
NC(=O)c1cc2ccc(N3CCOCC3)cc2n1C(=O)C(=O)Cc1ccco1

>  <Energy>  (92) 
119.3161035074544

>  <Genealogy>  (92) 
NC(=O)c1cc2ccc(N3CCOCC3)cc2n1C(=O)C(=O)Cc1ccco1 (3D coordinates assigned)
NC(=O)c1cc2ccc(N3CCOCC3)cc2n1C(=O)C(=O)Cc1ccco1 (nonaromatic ring conformer: 119.3161035074544 kcal/mol)

>  <smiles>  (92) 
NC(=O)c1cc2ccc(N3CCOCC3)cc2n1C(=O)C(=O)Cc1ccco1

>  <score_type>  (92) 
oracle

>  <origin>  (92) 
adg

>  <m_score__min__energy>  (92) 
-10.800000000000001

>  <m_primary>  (92) 
energy

$$$$
92:0
     RDKit          3D

 42 44  0  0  0  0  0  0  0  0999 V2000
   -2.1380   24.5260  -26.8420 C   0  0  0  0  0  0  0  0  0  0  0  0
   -2.5910   24.6870  -28.2920 C   0  0  1  0  0  0  0  0  0  0  0  0
   -1.6640   25.4960  -28.9690 O   0  0  0  0  0  0  0  0  0  0  0  0
   -2.7020   23.3170  -28.9760 C   0  0  0  0  0  0  0  0  0  0  0  0
   -2.8260   23.4670  -30.3900 O   0  0  0  0  0  0  0  0  0  0  0  0
   -3.6670   22.6800  -31.1870 C   0  0  0  0  0  0  0  0  0  0  0  0
   -3.1830   21.8110  -31.9630 O   0  0  0  0  0  0  0  0  0  0  0  0
   -5.0910   22.8470  -31.0940 N   0  0  0  0  0  0  0  0  0  0  0  0
   -5.7900   23.9830  -30.8100 C   0  0  0  0  0  0  0  0  0  0  0  0
   -5.2110   25.2920  -30.4400 C   0  0  0  0  0  0  0  0  0  0  0  0
   -3.9240   25.6620  -30.9290 N   0  0  0  0  0  0  0  0  0  0  0  0
   -5.8550   26.1030  -29.7250 O   0  0  0  0  0  0  0  0  0  0  0  0
   -7.1600   23.7270  -30.8220 C   0  0  0  0  0  0  0  0  0  0  0  0
   -7.2810   22.3880  -31.1110 C   0  0  0  0  0  0  0  0  0  0  0  0
   -8.4180   21.5930  -31.2220 C   0  0  0  0  0  0  0  0  0  0  0  0
   -8.2430   20.2310  -31.5210 C   0  0  0  0  0  0  0  0  0  0  0  0
   -6.9460   19.6940  -31.7250 C   0  0  0  0  0  0  0  0  0  0  0  0
   -6.7740   18.2870  -31.9980 N   0  0  0  0  0  0  0  0  0  0  0  0
   -6.8340   18.0130  -33.4430 C   0  0  0  0  0  0  0  0  0  0  0  0
   -5.4710   17.7480  -34.0150 C   0  0  0  0  0  0  0  0  0  0  0  0
   -4.3620   17.5620  -33.2770 N   0  0  0  0  0  0  0  0  0  0  0  0
   -3.4170   17.2860  -34.1610 N   0  0  0  0  0  0  0  0  0  0  0  0
   -3.9280   17.2930  -35.3810 N   0  0  0  0  0  0  0  0  0  0  0  0
   -5.2190   17.5740  -35.3240 N   0  0  0  0  0  0  0  0  0  0  0  0
   -5.8160   20.5380  -31.6090 C   0  0  0  0  0  0  0  0  0  0  0  0
   -6.0180   21.8810  -31.2750 C   0  0  0  0  0  0  0  0  0  0  0  0
   -2.9568   24.8170  -26.1676 H   0  0  0  0  0  0  0  0  0  0  0  0
   -1.8663   23.4762  -26.6572 H   0  0  0  0  0  0  0  0  0  0  0  0
   -1.2647   25.1688  -26.6572 H   0  0  0  0  0  0  0  0  0  0  0  0
   -3.5837   25.1603  -28.3162 H   0  0  0  0  0  0  0  0  0  0  0  0
   -2.0380   25.6730  -29.8720 H   0  0  0  0  0  0  0  0  0  0  0  0
   -1.8000   22.7281  -28.7532 H   0  0  0  0  0  0  0  0  0  0  0  0
   -3.5971   22.8034  -28.5953 H   0  0  0  0  0  0  0  0  0  0  0  0
   -3.0550   25.2950  -30.4810 H   0  0  0  0  0  0  0  0  0  0  0  0
   -7.9732   24.4448  -30.6389 H   0  0  0  0  0  0  0  0  0  0  0  0
   -9.4227   22.0177  -31.0801 H   0  0  0  0  0  0  0  0  0  0  0  0
   -9.1218   19.5739  -31.5977 H   0  0  0  0  0  0  0  0  0  0  0  0
   -5.8420   17.9750  -31.6360 H   0  0  0  0  0  0  0  0  0  0  0  0
   -7.5020   17.7270  -31.4950 H   0  0  0  0  0  0  0  0  0  0  0  0
   -7.4694   17.1312  -33.6126 H   0  0  0  0  0  0  0  0  0  0  0  0
   -7.2494   18.9002  -33.9434 H   0  0  0  0  0  0  0  0  0  0  0  0
   -4.8019   20.1467  -31.7777 H   0  0  0  0  0  0  0  0  0  0  0  0
  1  2  1  0
  2  3  1  0
  2  4  1  0
  4  5  1  0
  5  6  1  0
  6  7  2  0
  6  8  1  0
  8  9  1  0
  9 10  1  0
 10 11  1  0
 10 12  2  0
  9 13  2  0
 13 14  1  0
 14 15  2  0
 15 16  1  0
 16 17  2  0
 17 18  1  0
 18 19  1  0
 19 20  1  0
 20 21  1  0
 21 22  2  0
 22 23  1  0
 23 24  1  0
 17 25  1  0
 25 26  2  0
 26  8  1  0
 26 14  1  0
 24 20  2  0
  1 27  1  0
  1 28  1  0
  1 29  1  0
  2 30  1  1
  3 31  1  0
  4 32  1  0
  4 33  1  0
 11 34  1  0
 13 35  1  0
 15 36  1  0
 16 37  1  0
 18 38  1  0
 18 39  1  0
 19 40  1  0
 19 41  1  0
 25 42  1  0
M  CHG  3  11  -1  18   1  23  -1
M  END
>  <UniqueID>  (93) 
93

>  <SMILES>  (93) 
C[C@@H](O)COC(=O)n1c(C([NH-])=O)cc2ccc([NH2+]Cc3nn[n-]n3)cc21

>  <Energy>  (93) 
115.17289954420629

>  <Genealogy>  (93) 
CC(O)COC(=O)n1c(C([NH-])=O)cc2ccc([NH2+]Cc3nn[n-]n3)cc21 (protonated)
C[C@@H](O)COC(=O)n1c(C([NH-])=O)cc2ccc([NH2+]Cc3nn[n-]n3)cc21 (chirality)
C[C@@H](O)COC(=O)n1c(C([NH-])=O)cc2ccc([NH2+]Cc3nn[n-]n3)cc21 (3D coordinates assigned)
C[C@@H](O)COC(=O)n1c(C([NH-])=O)cc2ccc([NH2+]Cc3nn[n-]n3)cc21 (optimized conformer: 115.17289954420629 kcal/mol)

>  <smiles>  (93) 
CC(O)COC(=O)n1c(C(N)=O)cc2ccc(NCc3nn[nH]n3)cc21

>  <score_type>  (93) 
oracle

>  <origin>  (93) 
adg

>  <m_score__min__energy>  (93) 
-10.1

>  <m_primary>  (93) 
energy

$$$$
93:0
     RDKit          3D

 32 34  0  0  0  0  0  0  0  0999 V2000
   -1.6450   25.6250  -28.9480 N   0  0  0  0  0  0  0  0  0  0  0  0
   -0.9000   24.4160  -29.0660 C   0  0  0  0  0  0  0  0  0  0  0  0
    0.2110   24.3190  -28.4810 O   0  0  0  0  0  0  0  0  0  0  0  0
   -1.4260   23.2670  -29.8340 C   0  0  0  0  0  0  0  0  0  0  0  0
   -0.6170   22.3300  -30.4750 C   0  0  0  0  0  0  0  0  0  0  0  0
   -1.4830   21.4150  -31.0270 C   0  0  0  0  0  0  0  0  0  0  0  0
   -1.2240   20.2880  -31.7990 C   0  0  0  0  0  0  0  0  0  0  0  0
   -2.3190   19.5450  -32.2700 C   0  0  0  0  0  0  0  0  0  0  0  0
   -3.6510   19.9380  -31.9680 C   0  0  0  0  0  0  0  0  0  0  0  0
   -4.7890   19.1420  -32.4950 C   0  0  0  0  0  0  0  0  0  0  0  0
   -4.8840   18.7980  -33.8570 C   0  0  0  0  0  0  0  0  0  0  0  0
   -5.9760   18.0510  -34.3050 C   0  0  0  0  0  0  0  0  0  0  0  0
   -6.9650   17.6560  -33.4040 C   0  0  0  0  0  0  0  0  0  0  0  0
   -6.8500   18.0210  -32.0630 C   0  0  0  0  0  0  0  0  0  0  0  0
   -5.7790   18.7470  -31.6450 N   0  0  0  0  0  0  0  0  0  0  0  0
   -3.8690   21.1010  -31.1910 C   0  0  0  0  0  0  0  0  0  0  0  0
   -2.7590   21.8080  -30.7190 C   0  0  0  0  0  0  0  0  0  0  0  0
   -2.7410   22.9410  -29.9840 N   0  0  0  0  0  0  0  0  0  0  0  0
   -3.8860   23.6850  -29.5410 C   0  0  0  0  0  0  0  0  0  0  0  0
   -4.3570   23.4780  -28.3910 O   0  0  0  0  0  0  0  0  0  0  0  0
   -4.5190   24.6830  -30.4140 C   0  0  0  0  0  0  0  0  0  0  0  0
   -3.8590   25.6670  -30.8400 O   0  0  0  0  0  0  0  0  0  0  0  0
   -5.8490   24.5380  -30.7860 O   0  0  0  0  0  0  0  0  0  0  0  0
   -2.6380   25.6770  -29.2640 H   0  0  0  0  0  0  0  0  0  0  0  0
    0.4817   22.3237  -30.5281 H   0  0  0  0  0  0  0  0  0  0  0  0
   -0.1923   19.9872  -32.0339 H   0  0  0  0  0  0  0  0  0  0  0  0
   -2.1433   18.6471  -32.8807 H   0  0  0  0  0  0  0  0  0  0  0  0
   -4.1032   19.1155  -34.5638 H   0  0  0  0  0  0  0  0  0  0  0  0
   -6.0559   17.7746  -35.3667 H   0  0  0  0  0  0  0  0  0  0  0  0
   -7.8258   17.0634  -33.7474 H   0  0  0  0  0  0  0  0  0  0  0  0
   -7.6260   17.7215  -31.3432 H   0  0  0  0  0  0  0  0  0  0  0  0
   -4.8900   21.4413  -30.9634 H   0  0  0  0  0  0  0  0  0  0  0  0
  1  2  1  0
  2  3  2  0
  2  4  1  0
  4  5  2  0
  5  6  1  0
  6  7  2  0
  7  8  1  0
  8  9  2  0
  9 10  1  0
 10 11  2  0
 11 12  1  0
 12 13  2  0
 13 14  1  0
 14 15  2  0
  9 16  1  0
 16 17  2  0
 17 18  1  0
 18 19  1  0
 19 20  2  0
 19 21  1  0
 21 22  2  0
 21 23  1  0
 18  4  1  0
 17  6  1  0
 15 10  1  0
  1 24  1  0
  5 25  1  0
  7 26  1  0
  8 27  1  0
 11 28  1  0
 12 29  1  0
 13 30  1  0
 14 31  1  0
 16 32  1  0
M  CHG  2   1  -1  23  -1
M  END
>  <UniqueID>  (94) 
94

>  <SMILES>  (94) 
[NH-]C(=O)c1cc2ccc(-c3ccccn3)cc2n1C(=O)C(=O)[O-]

>  <Energy>  (94) 
78.9995375576588

>  <Genealogy>  (94) 
[NH-]C(=O)c1cc2ccc(-c3ccccn3)cc2n1C(=O)C(=O)[O-] (protonated)
[NH-]C(=O)c1cc2ccc(-c3ccccn3)cc2n1C(=O)C(=O)[O-] (3D coordinates assigned)
[NH-]C(=O)c1cc2ccc(-c3ccccn3)cc2n1C(=O)C(=O)[O-] (optimized conformer: 78.9995375576588 kcal/mol)

>  <smiles>  (94) 
NC(=O)c1cc2ccc(-c3ccccn3)cc2n1C(=O)C(=O)O

>  <score_type>  (94) 
oracle

>  <origin>  (94) 
adg

>  <m_score__min__energy>  (94) 
-11.33

>  <m_primary>  (94) 
energy

$$$$
