0:0
     RDKit          3D

 37 38  0  0  0  0  0  0  0  0999 V2000
   -4.1780   21.7510  -33.4270 N   0  0  0  0  0  0  0  0  0  0  0  0
   -4.2380   22.4860  -32.2080 C   0  0  0  0  0  0  0  0  0  0  0  0
   -3.1710   22.9080  -31.6840 O   0  0  0  0  0  0  0  0  0  0  0  0
   -5.5030   22.7430  -31.5750 N   0  0  0  0  0  0  0  0  0  0  0  0
   -5.8330   23.7980  -30.7770 C   0  0  0  0  0  0  0  0  0  0  0  0
   -4.9790   24.9790  -30.5180 C   0  0  0  0  0  0  0  0  0  0  0  0
   -3.6790   24.8290  -29.9450 N   0  0  0  0  0  0  0  0  0  0  0  0
   -5.4050   26.1360  -30.7760 O   0  0  0  0  0  0  0  0  0  0  0  0
   -7.1340   23.6590  -30.2980 C   0  0  0  0  0  0  0  0  0  0  0  0
   -7.5950   22.4770  -30.8300 C   0  0  0  0  0  0  0  0  0  0  0  0
   -8.8240   21.8430  -30.6680 C   0  0  0  0  0  0  0  0  0  0  0  0
   -9.0160   20.6070  -31.3070 C   0  0  0  0  0  0  0  0  0  0  0  0
   -7.9810   20.0250  -32.0800 C   0  0  0  0  0  0  0  0  0  0  0  0
   -8.1890   18.6830  -32.7300 C   0  0  0  0  0  0  0  0  0  0  0  0
   -6.8810   17.8860  -32.9080 C   0  0  0  0  0  0  0  0  0  0  0  0
   -6.0520   18.2320  -34.1720 C   0  0  1  0  0  0  0  0  0  0  0  0
   -6.2440   19.5690  -34.5520 O   0  0  0  0  0  0  0  0  0  0  0  0
   -4.5460   17.9610  -34.0180 C   0  0  0  0  0  0  0  0  0  0  0  0
   -3.8440   19.1570  -33.8010 O   0  0  0  0  0  0  0  0  0  0  0  0
   -6.7500   20.7040  -32.2300 C   0  0  0  0  0  0  0  0  0  0  0  0
   -6.5930   21.9420  -31.5970 C   0  0  0  0  0  0  0  0  0  0  0  0
   -4.9290   21.0730  -33.6820 H   0  0  0  0  0  0  0  0  0  0  0  0
   -3.1010   25.6720  -29.7310 H   0  0  0  0  0  0  0  0  0  0  0  0
   -3.2660   23.8860  -29.7720 H   0  0  0  0  0  0  0  0  0  0  0  0
   -7.6774   24.3483  -29.6350 H   0  0  0  0  0  0  0  0  0  0  0  0
   -9.6198   22.2960  -30.0585 H   0  0  0  0  0  0  0  0  0  0  0  0
   -9.9794   20.0857  -31.2063 H   0  0  0  0  0  0  0  0  0  0  0  0
   -8.8752   18.0937  -32.1040 H   0  0  0  0  0  0  0  0  0  0  0  0
   -8.6001   18.8657  -33.7338 H   0  0  0  0  0  0  0  0  0  0  0  0
   -6.2488   18.0722  -32.0273 H   0  0  0  0  0  0  0  0  0  0  0  0
   -7.1829   16.8347  -33.0247 H   0  0  0  0  0  0  0  0  0  0  0  0
   -6.4267   17.5581  -34.9565 H   0  0  0  0  0  0  0  0  0  0  0  0
   -5.4240   20.0630  -34.2880 H   0  0  0  0  0  0  0  0  0  0  0  0
   -4.3862   17.2887  -33.1622 H   0  0  0  0  0  0  0  0  0  0  0  0
   -4.1747   17.4972  -34.9438 H   0  0  0  0  0  0  0  0  0  0  0  0
   -4.4580   19.7710  -33.3200 H   0  0  0  0  0  0  0  0  0  0  0  0
   -5.9361   20.2700  -32.8293 H   0  0  0  0  0  0  0  0  0  0  0  0
  1  2  1  0
  2  3  2  0
  2  4  1  0
  4  5  1  0
  5  6  1  0
  6  7  1  0
  6  8  2  0
  5  9  2  0
  9 10  1  0
 10 11  2  0
 11 12  1  0
 12 13  2  0
 13 14  1  0
 14 15  1  0
 15 16  1  0
 16 17  1  0
 16 18  1  0
 18 19  1  0
 13 20  1  0
 20 21  2  0
 21  4  1  0
 21 10  1  0
  1 22  1  0
  7 23  1  0
  7 24  1  0
  9 25  1  0
 11 26  1  0
 12 27  1  0
 14 28  1  0
 14 29  1  0
 15 30  1  0
 15 31  1  0
 16 32  1  6
 17 33  1  0
 18 34  1  0
 18 35  1  0
 19 36  1  0
 20 37  1  0
M  CHG  1   1  -1
M  END
>  <UniqueID>  (1) 
1

>  <SMILES>  (1) 
[NH-]C(=O)n1c(C(N)=O)cc2ccc(CC[C@@H](O)CO)cc21

>  <Energy>  (1) 
72.97710014492817

>  <Genealogy>  (1) 
[NH-]C(=O)n1c(C(N)=O)cc2ccc(CCC(O)CO)cc21 (protonated)
[NH-]C(=O)n1c(C(N)=O)cc2ccc(CC[C@@H](O)CO)cc21 (chirality)
[NH-]C(=O)n1c(C(N)=O)cc2ccc(CC[C@@H](O)CO)cc21 (3D coordinates assigned)
[NH-]C(=O)n1c(C(N)=O)cc2ccc(CC[C@@H](O)CO)cc21 (optimized conformer: 72.97710014492817 kcal/mol)

>  <smiles>  (1) 
NC(=O)c1cc2ccc(CCC(O)CO)cc2n1C(N)=O

>  <score_type>  (1) 
oracle

>  <origin>  (1) 
adg

>  <m_score__min__energy>  (1) 
-7.1799999999999997

>  <m_primary>  (1) 
energy

$$$$
1:0
     RDKit          3D

 40 43  0  0  0  0  0  0  0  0999 V2000
   -3.3200   24.4950  -30.4580 N   0  0  0  0  0  0  0  0  0  0  0  0
   -3.9850   23.2620  -30.7170 C   0  0  0  0  0  0  0  0  0  0  0  0
   -3.3160   22.1950  -30.7020 O   0  0  0  0  0  0  0  0  0  0  0  0
   -5.3920   23.2400  -31.0350 N   0  0  0  0  0  0  0  0  0  0  0  0
   -6.3150   24.2070  -30.7580 C   0  0  0  0  0  0  0  0  0  0  0  0
   -6.0310   25.5340  -30.1910 C   0  0  0  0  0  0  0  0  0  0  0  0
   -6.4100   25.8530  -28.8530 N   0  0  0  0  0  0  0  0  0  0  0  0
   -5.3810   26.3730  -30.8710 O   0  0  0  0  0  0  0  0  0  0  0  0
   -7.6030   23.7630  -31.0380 C   0  0  0  0  0  0  0  0  0  0  0  0
   -7.4460   22.4890  -31.5290 C   0  0  0  0  0  0  0  0  0  0  0  0
   -8.4020   21.5880  -31.9860 C   0  0  0  0  0  0  0  0  0  0  0  0
   -7.9610   20.3440  -32.4610 C   0  0  0  0  0  0  0  0  0  0  0  0
   -6.5780   20.0230  -32.4830 C   0  0  0  0  0  0  0  0  0  0  0  0
   -6.1210   18.7090  -33.0040 C   0  0  0  0  0  0  0  0  0  0  0  0
   -6.8670   17.5440  -32.7530 C   0  0  0  0  0  0  0  0  0  0  0  0
   -6.4430   16.3070  -33.2460 C   0  0  0  0  0  0  0  0  0  0  0  0
   -5.2540   16.2090  -33.9810 C   0  0  0  0  0  0  0  0  0  0  0  0
   -4.5050   17.3730  -34.2430 C   0  0  0  0  0  0  0  0  0  0  0  0
   -4.9370   18.6110  -33.7580 C   0  0  0  0  0  0  0  0  0  0  0  0
   -3.2910   17.2870  -34.9950 N   0  0  0  0  0  0  0  0  0  0  0  0
   -2.7270   16.0160  -35.3220 C   0  0  0  0  0  0  0  0  0  0  0  0
   -1.6970   15.9540  -36.0440 O   0  0  0  0  0  0  0  0  0  0  0  0
   -3.3170   14.7690  -34.7330 C   0  0  0  0  0  0  0  0  0  0  0  0
   -4.8420   14.8940  -34.6000 C   0  0  0  0  0  0  0  0  0  0  0  0
   -5.6370   20.9680  -32.0090 C   0  0  0  0  0  0  0  0  0  0  0  0
   -6.1060   22.1950  -31.5190 C   0  0  0  0  0  0  0  0  0  0  0  0
   -3.4950   25.3360  -31.0510 H   0  0  0  0  0  0  0  0  0  0  0  0
   -6.8300   25.1270  -28.2310 H   0  0  0  0  0  0  0  0  0  0  0  0
   -6.2170   26.8020  -28.4620 H   0  0  0  0  0  0  0  0  0  0  0  0
   -8.5449   24.3133  -30.8968 H   0  0  0  0  0  0  0  0  0  0  0  0
   -9.4719   21.8433  -31.9753 H   0  0  0  0  0  0  0  0  0  0  0  0
   -8.6954   19.6083  -32.8208 H   0  0  0  0  0  0  0  0  0  0  0  0
   -7.7932   17.6068  -32.1629 H   0  0  0  0  0  0  0  0  0  0  0  0
   -7.0453   15.4063  -33.0562 H   0  0  0  0  0  0  0  0  0  0  0  0
   -4.3468   19.5154  -33.9674 H   0  0  0  0  0  0  0  0  0  0  0  0
   -3.0812   13.9158  -35.3860 H   0  0  0  0  0  0  0  0  0  0  0  0
   -2.8882   14.6164  -33.7316 H   0  0  0  0  0  0  0  0  0  0  0  0
   -5.2926   14.8166  -35.6005 H   0  0  0  0  0  0  0  0  0  0  0  0
   -5.1913   14.0858  -33.9406 H   0  0  0  0  0  0  0  0  0  0  0  0
   -4.5601   20.7444  -32.0247 H   0  0  0  0  0  0  0  0  0  0  0  0
  1  2  1  0
  2  3  2  0
  2  4  1  0
  4  5  1  0
  5  6  1  0
  6  7  1  0
  6  8  2  0
  5  9  2  0
  9 10  1  0
 10 11  2  0
 11 12  1  0
 12 13  2  0
 13 14  1  0
 14 15  2  0
 15 16  1  0
 16 17  2  0
 17 18  1  0
 18 19  2  0
 18 20  1  0
 20 21  1  0
 21 22  2  0
 21 23  1  0
 23 24  1  0
 13 25  1  0
 25 26  2  0
 26  4  1  0
 26 10  1  0
 19 14  1  0
 24 17  1  0
  1 27  1  0
  7 28  1  0
  7 29  1  0
  9 30  1  0
 11 31  1  0
 12 32  1  0
 15 33  1  0
 16 34  1  0
 19 35  1  0
 23 36  1  0
 23 37  1  0
 24 38  1  0
 24 39  1  0
 25 40  1  0
M  CHG  2   1  -1  20  -1
M  END
>  <UniqueID>  (2) 
2

>  <SMILES>  (2) 
[NH-]C(=O)n1c(C(N)=O)cc2ccc(-c3ccc4c(c3)[N-]C(=O)CC4)cc21

>  <Energy>  (2) 
92.16096490755152

>  <Genealogy>  (2) 
[NH-]C(=O)n1c(C(N)=O)cc2ccc(-c3ccc4c(c3)[N-]C(=O)CC4)cc21 (protonated)
[NH-]C(=O)n1c(C(N)=O)cc2ccc(-c3ccc4c(c3)[N-]C(=O)CC4)cc21 (3D coordinates assigned)
[NH-]C(=O)n1c(C(N)=O)cc2ccc(-c3ccc4c(c3)[N-]C(=O)CC4)cc21 (nonaromatic ring conformer: 92.16096490755152 kcal/mol)

>  <smiles>  (2) 
NC(=O)c1cc2ccc(-c3ccc4c(c3)NC(=O)CC4)cc2n1C(N)=O

>  <score_type>  (2) 
oracle

>  <origin>  (2) 
adg

>  <m_score__min__energy>  (2) 
-10.58

>  <m_primary>  (2) 
energy

$$$$
2:0
     RDKit          3D

 40 41  0  0  0  0  0  0  0  0999 V2000
   -0.8090   24.5060  -28.6720 C   0  0  0  0  0  0  0  0  0  0  0  0
   -2.1220   24.9460  -28.9390 O   0  0  0  0  0  0  0  0  0  0  0  0
   -3.0520   24.2500  -28.1310 C   0  0  0  0  0  0  0  0  0  0  0  0
   -3.5370   22.9910  -28.8510 C   0  0  0  0  0  0  0  0  0  0  0  0
   -3.0170   22.9390  -30.1770 O   0  0  0  0  0  0  0  0  0  0  0  0
   -3.8110   22.7240  -31.3100 C   0  0  0  0  0  0  0  0  0  0  0  0
   -3.2930   22.3140  -32.3840 O   0  0  0  0  0  0  0  0  0  0  0  0
   -5.2280   22.9470  -31.2370 N   0  0  0  0  0  0  0  0  0  0  0  0
   -5.8810   24.1050  -30.9330 C   0  0  0  0  0  0  0  0  0  0  0  0
   -5.2510   25.3640  -30.4820 C   0  0  0  0  0  0  0  0  0  0  0  0
   -3.9070   25.6570  -30.8550 N   0  0  0  0  0  0  0  0  0  0  0  0
   -5.8990   26.2020  -29.8010 O   0  0  0  0  0  0  0  0  0  0  0  0
   -7.2600   23.9260  -31.0210 C   0  0  0  0  0  0  0  0  0  0  0  0
   -7.4350   22.6100  -31.3820 C   0  0  0  0  0  0  0  0  0  0  0  0
   -8.6050   21.8910  -31.6070 C   0  0  0  0  0  0  0  0  0  0  0  0
   -8.4880   20.5430  -31.9860 C   0  0  0  0  0  0  0  0  0  0  0  0
   -7.2120   19.9460  -32.1430 C   0  0  0  0  0  0  0  0  0  0  0  0
   -7.0960   18.4910  -32.5200 C   0  0  0  0  0  0  0  0  0  0  0  0
   -5.6510   18.1030  -32.8570 C   0  0  0  0  0  0  0  0  0  0  0  0
   -5.3900   18.1680  -34.3320 C   0  0  0  0  0  0  0  0  0  0  0  0
   -6.0900   18.9140  -35.0660 O   0  0  0  0  0  0  0  0  0  0  0  0
   -4.1060   17.1440  -35.0750 S   0  0  0  0  0  0  0  0  0  0  0  0
   -6.0470   20.7060  -31.9010 C   0  0  0  0  0  0  0  0  0  0  0  0
   -6.1940   22.0400  -31.5060 C   0  0  0  0  0  0  0  0  0  0  0  0
   -0.6538   24.4540  -27.5842 H   0  0  0  0  0  0  0  0  0  0  0  0
   -0.6599   23.5088  -29.1117 H   0  0  0  0  0  0  0  0  0  0  0  0
   -0.0892   25.2120  -29.1117 H   0  0  0  0  0  0  0  0  0  0  0  0
   -2.5693   23.9645  -27.1847 H   0  0  0  0  0  0  0  0  0  0  0  0
   -3.9136   24.9037  -27.9302 H   0  0  0  0  0  0  0  0  0  0  0  0
   -3.1990   22.1040  -28.2952 H   0  0  0  0  0  0  0  0  0  0  0  0
   -4.6356   23.0128  -28.9018 H   0  0  0  0  0  0  0  0  0  0  0  0
   -3.1100   25.1020  -30.4700 H   0  0  0  0  0  0  0  0  0  0  0  0
   -8.0427   24.6775  -30.8402 H   0  0  0  0  0  0  0  0  0  0  0  0
   -9.5916   22.3636  -31.4917 H   0  0  0  0  0  0  0  0  0  0  0  0
   -9.3947   19.9457  -32.1624 H   0  0  0  0  0  0  0  0  0  0  0  0
   -7.4422   17.8760  -31.6763 H   0  0  0  0  0  0  0  0  0  0  0  0
   -7.7133   18.3194  -33.4141 H   0  0  0  0  0  0  0  0  0  0  0  0
   -4.9670   18.7943  -32.3430 H   0  0  0  0  0  0  0  0  0  0  0  0
   -5.4872   17.0673  -32.5247 H   0  0  0  0  0  0  0  0  0  0  0  0
   -5.0484   20.2602  -32.0201 H   0  0  0  0  0  0  0  0  0  0  0  0
  1  2  1  0
  2  3  1  0
  3  4  1  0
  4  5  1  0
  5  6  1  0
  6  7  2  0
  6  8  1  0
  8  9  1  0
  9 10  1  0
 10 11  1  0
 10 12  2  0
  9 13  2  0
 13 14  1  0
 14 15  2  0
 15 16  1  0
 16 17  2  0
 17 18  1  0
 18 19  1  0
 19 20  1  0
 20 21  2  0
 20 22  1  0
 17 23  1  0
 23 24  2  0
 24  8  1  0
 24 14  1  0
  1 25  1  0
  1 26  1  0
  1 27  1  0
  3 28  1  0
  3 29  1  0
  4 30  1  0
  4 31  1  0
 11 32  1  0
 13 33  1  0
 15 34  1  0
 16 35  1  0
 18 36  1  0
 18 37  1  0
 19 38  1  0
 19 39  1  0
 23 40  1  0
M  CHG  2  11  -1  22  -1
M  END
>  <UniqueID>  (3) 
3

>  <SMILES>  (3) 
COCCOC(=O)n1c(C([NH-])=O)cc2ccc(CCC(=O)[S-])cc21

>  <Energy>  (3) 
73.29644000052397

>  <Genealogy>  (3) 
COCCOC(=O)n1c(C([NH-])=O)cc2ccc(CCC(=O)[S-])cc21 (protonated)
COCCOC(=O)n1c(C([NH-])=O)cc2ccc(CCC(=O)[S-])cc21 (3D coordinates assigned)
COCCOC(=O)n1c(C([NH-])=O)cc2ccc(CCC(=O)[S-])cc21 (optimized conformer: 73.29644000052397 kcal/mol)

>  <smiles>  (3) 
COCCOC(=O)n1c(C(N)=O)cc2ccc(CCC(=O)S)cc21

>  <score_type>  (3) 
oracle

>  <origin>  (3) 
adg

>  <m_score__min__energy>  (3) 
-10.15

>  <m_primary>  (3) 
energy

$$$$
3:0
     RDKit          3D

 32 34  0  0  0  0  0  0  0  0999 V2000
   -0.9480   18.7500  -34.2180 N   0  0  0  0  0  0  0  0  0  0  0  0
   -2.1010   18.8000  -34.1240 C   0  0  0  0  0  0  0  0  0  0  0  0
   -3.5390   18.8650  -34.0070 C   0  0  0  0  0  0  0  0  0  0  0  0
   -4.3200   18.1990  -34.9600 C   0  0  0  0  0  0  0  0  0  0  0  0
   -5.7130   18.2580  -34.8950 C   0  0  0  0  0  0  0  0  0  0  0  0
   -6.3360   18.9820  -33.8780 C   0  0  0  0  0  0  0  0  0  0  0  0
   -5.5730   19.6520  -32.9170 C   0  0  0  0  0  0  0  0  0  0  0  0
   -6.4190   20.5140  -31.6340 Cl  0  0  0  0  0  0  0  0  0  0  0  0
   -4.1630   19.6010  -32.9720 C   0  0  0  0  0  0  0  0  0  0  0  0
   -3.3520   20.3130  -31.9580 C   0  0  0  0  0  0  0  0  0  0  0  0
   -2.2280   19.6770  -31.3740 C   0  0  0  0  0  0  0  0  0  0  0  0
   -1.4560   20.3380  -30.4060 C   0  0  0  0  0  0  0  0  0  0  0  0
   -1.8250   21.6310  -30.0490 C   0  0  0  0  0  0  0  0  0  0  0  0
   -1.2710   22.4860  -29.1230 C   0  0  0  0  0  0  0  0  0  0  0  0
   -2.0490   23.6410  -29.1740 C   0  0  0  0  0  0  0  0  0  0  0  0
   -1.7460   24.8580  -28.3940 C   0  0  0  0  0  0  0  0  0  0  0  0
   -1.2400   26.0290  -29.0290 N   0  0  0  0  0  0  0  0  0  0  0  0
   -1.8860   24.8470  -27.1420 O   0  0  0  0  0  0  0  0  0  0  0  0
   -3.0510   23.5040  -30.0890 N   0  0  0  0  0  0  0  0  0  0  0  0
   -4.1170   24.4250  -30.3670 C   0  0  0  0  0  0  0  0  0  0  0  0
   -3.8650   25.5690  -30.8290 O   0  0  0  0  0  0  0  0  0  0  0  0
   -5.4390   24.0530  -30.1570 O   0  0  0  0  0  0  0  0  0  0  0  0
   -2.8970   22.2690  -30.6180 C   0  0  0  0  0  0  0  0  0  0  0  0
   -3.6950   21.6280  -31.5730 C   0  0  0  0  0  0  0  0  0  0  0  0
   -3.8332   17.6267  -35.7635 H   0  0  0  0  0  0  0  0  0  0  0  0
   -6.3206   17.7329  -35.6467 H   0  0  0  0  0  0  0  0  0  0  0  0
   -7.4342   19.0259  -33.8320 H   0  0  0  0  0  0  0  0  0  0  0  0
   -1.9583   18.6561  -31.6822 H   0  0  0  0  0  0  0  0  0  0  0  0
   -0.5859   19.8487  -29.9438 H   0  0  0  0  0  0  0  0  0  0  0  0
   -0.3991   22.2974  -28.4794 H   0  0  0  0  0  0  0  0  0  0  0  0
   -1.0990   26.0610  -30.0630 H   0  0  0  0  0  0  0  0  0  0  0  0
   -4.5666   22.1353  -32.0122 H   0  0  0  0  0  0  0  0  0  0  0  0
  1  2  3  0
  2  3  1  0
  3  4  2  0
  4  5  1  0
  5  6  2  0
  6  7  1  0
  7  8  1  0
  7  9  2  0
  9 10  1  0
 10 11  2  0
 11 12  1  0
 12 13  2  0
 13 14  1  0
 14 15  2  0
 15 16  1  0
 16 17  1  0
 16 18  2  0
 15 19  1  0
 19 20  1  0
 20 21  2  0
 20 22  1  0
 19 23  1  0
 23 24  2  0
  9  3  1  0
 24 10  1  0
 23 13  1  0
  4 25  1  0
  5 26  1  0
  6 27  1  0
 11 28  1  0
 12 29  1  0
 14 30  1  0
 17 31  1  0
 24 32  1  0
M  CHG  2  17  -1  22  -1
M  END
>  <UniqueID>  (4) 
4

>  <SMILES>  (4) 
N#Cc1cccc(Cl)c1-c1ccc2cc(C([NH-])=O)n(C(=O)[O-])c2c1

>  <Energy>  (4) 
83.27920756306932

>  <Genealogy>  (4) 
N#Cc1cccc(Cl)c1-c1ccc2cc(C([NH-])=O)n(C(=O)[O-])c2c1 (protonated)
N#Cc1cccc(Cl)c1-c1ccc2cc(C([NH-])=O)n(C(=O)[O-])c2c1 (3D coordinates assigned)
N#Cc1cccc(Cl)c1-c1ccc2cc(C([NH-])=O)n(C(=O)[O-])c2c1 (optimized conformer: 83.27920756306932 kcal/mol)

>  <smiles>  (4) 
N#Cc1cccc(Cl)c1-c1ccc2cc(C(N)=O)n(C(=O)O)c2c1

>  <score_type>  (4) 
oracle

>  <origin>  (4) 
adg

>  <m_score__min__energy>  (4) 
-12.01

>  <m_primary>  (4) 
energy

$$$$
4:0
     RDKit          3D

 38 40  0  0  0  0  0  0  0  0999 V2000
   -9.1660   20.5780  -32.2970 C   0  0  0  0  0  0  0  0  0  0  0  0
   -9.3190   21.9250  -31.5930 C   0  0  0  0  0  0  0  0  0  0  0  0
   -8.1470   22.7190  -31.7580 O   0  0  0  0  0  0  0  0  0  0  0  0
   -7.1200   22.7930  -30.8070 C   0  0  0  0  0  0  0  0  0  0  0  0
   -7.3910   23.0530  -29.6030 O   0  0  0  0  0  0  0  0  0  0  0  0
   -5.7530   22.5740  -31.2000 N   0  0  0  0  0  0  0  0  0  0  0  0
   -4.6780   23.3600  -30.9110 C   0  0  0  0  0  0  0  0  0  0  0  0
   -4.7280   24.6870  -30.2740 C   0  0  0  0  0  0  0  0  0  0  0  0
   -5.4070   24.8780  -29.0300 N   0  0  0  0  0  0  0  0  0  0  0  0
   -4.2010   25.6760  -30.8540 O   0  0  0  0  0  0  0  0  0  0  0  0
   -3.4970   22.7650  -31.3430 C   0  0  0  0  0  0  0  0  0  0  0  0
   -3.8800   21.5830  -31.9300 C   0  0  0  0  0  0  0  0  0  0  0  0
   -3.1080   20.5920  -32.5310 C   0  0  0  0  0  0  0  0  0  0  0  0
   -3.7670   19.4620  -33.0390 C   0  0  0  0  0  0  0  0  0  0  0  0
   -5.1700   19.3360  -32.9230 C   0  0  0  0  0  0  0  0  0  0  0  0
   -5.8260   18.1770  -33.4390 N   0  0  0  0  0  0  0  0  0  0  0  0
   -5.7440   17.3200  -34.6360 C   0  0  0  0  0  0  0  0  0  0  0  0
   -6.8110   16.3600  -34.2190 C   0  0  0  0  0  0  0  0  0  0  0  0
   -6.3080   15.1010  -33.9270 F   0  0  0  0  0  0  0  0  0  0  0  0
   -6.8850   17.2400  -33.0160 C   0  0  0  0  0  0  0  0  0  0  0  0
   -5.9240   20.3540  -32.3030 C   0  0  0  0  0  0  0  0  0  0  0  0
   -5.2470   21.4870  -31.8280 C   0  0  0  0  0  0  0  0  0  0  0  0
   -9.0753   19.7798  -31.5456 H   0  0  0  0  0  0  0  0  0  0  0  0
  -10.0487   20.3908  -32.9262 H   0  0  0  0  0  0  0  0  0  0  0  0
   -8.2638   20.5935  -32.9262 H   0  0  0  0  0  0  0  0  0  0  0  0
  -10.1799   22.4597  -32.0209 H   0  0  0  0  0  0  0  0  0  0  0  0
   -9.4746   21.7455  -30.5190 H   0  0  0  0  0  0  0  0  0  0  0  0
   -5.9290   24.0960  -28.5780 H   0  0  0  0  0  0  0  0  0  0  0  0
   -5.4320   25.8230  -28.5860 H   0  0  0  0  0  0  0  0  0  0  0  0
   -2.4747   23.1571  -31.2373 H   0  0  0  0  0  0  0  0  0  0  0  0
   -2.0151   20.6919  -32.6052 H   0  0  0  0  0  0  0  0  0  0  0  0
   -3.1869   18.6677  -33.5316 H   0  0  0  0  0  0  0  0  0  0  0  0
   -5.9958   17.8585  -35.5615 H   0  0  0  0  0  0  0  0  0  0  0  0
   -4.7588   16.8972  -34.8822 H   0  0  0  0  0  0  0  0  0  0  0  0
   -7.6764   16.0868  -34.8406 H   0  0  0  0  0  0  0  0  0  0  0  0
   -7.8647   17.7282  -32.9072 H   0  0  0  0  0  0  0  0  0  0  0  0
   -6.7631   16.7573  -32.0351 H   0  0  0  0  0  0  0  0  0  0  0  0
   -7.0148   20.2619  -32.1947 H   0  0  0  0  0  0  0  0  0  0  0  0
  1  2  1  0
  2  3  1  0
  3  4  1  0
  4  5  2  0
  4  6  1  0
  6  7  1  0
  7  8  1  0
  8  9  1  0
  8 10  2  0
  7 11  2  0
 11 12  1  0
 12 13  2  0
 13 14  1  0
 14 15  2  0
 15 16  1  0
 16 17  1  0
 17 18  1  0
 18 19  1  0
 18 20  1  0
 15 21  1  0
 21 22  2  0
 22  6  1  0
 22 12  1  0
 20 16  1  0
  1 23  1  0
  1 24  1  0
  1 25  1  0
  2 26  1  0
  2 27  1  0
  9 28  1  0
  9 29  1  0
 11 30  1  0
 13 31  1  0
 14 32  1  0
 17 33  1  0
 17 34  1  0
 18 35  1  0
 20 36  1  0
 20 37  1  0
 21 38  1  0
M  END
>  <UniqueID>  (5) 
5

>  <SMILES>  (5) 
CCOC(=O)n1c(C(N)=O)cc2ccc(N3CC(F)C3)cc21

>  <Energy>  (5) 
118.40812821152262

>  <Genealogy>  (5) 
CCOC(=O)n1c(C(N)=O)cc2ccc(N3CC(F)C3)cc21 (3D coordinates assigned)
CCOC(=O)n1c(C(N)=O)cc2ccc(N3CC(F)C3)cc21 (nonaromatic ring conformer: 118.40812821152262 kcal/mol)

>  <smiles>  (5) 
CCOC(=O)n1c(C(N)=O)cc2ccc(N3CC(F)C3)cc21

>  <score_type>  (5) 
oracle

>  <origin>  (5) 
adg

>  <m_score__min__energy>  (5) 
-8.3200000000000003

>  <m_primary>  (5) 
energy

$$$$
5:0
     RDKit          3D

 33 35  0  0  0  0  0  0  0  0999 V2000
   -3.9030   25.6220  -30.4750 N   0  0  0  0  0  0  0  0  0  0  0  0
   -5.2720   25.2270  -30.4310 C   0  0  0  0  0  0  0  0  0  0  0  0
   -6.1130   25.9800  -29.8720 O   0  0  0  0  0  0  0  0  0  0  0  0
   -5.7070   23.9290  -30.9860 C   0  0  0  0  0  0  0  0  0  0  0  0
   -7.0400   23.6080  -31.2370 C   0  0  0  0  0  0  0  0  0  0  0  0
   -7.0280   22.2950  -31.6480 C   0  0  0  0  0  0  0  0  0  0  0  0
   -8.0770   21.4670  -32.0340 C   0  0  0  0  0  0  0  0  0  0  0  0
   -7.7690   20.1550  -32.4340 C   0  0  0  0  0  0  0  0  0  0  0  0
   -6.4260   19.6990  -32.4480 C   0  0  0  0  0  0  0  0  0  0  0  0
   -6.1130   18.3170  -32.8810 C   0  0  0  0  0  0  0  0  0  0  0  0
   -5.9420   17.2910  -31.9320 C   0  0  0  0  0  0  0  0  0  0  0  0
   -6.0910   17.5400  -30.6060 F   0  0  0  0  0  0  0  0  0  0  0  0
   -5.6480   15.9880  -32.3470 C   0  0  0  0  0  0  0  0  0  0  0  0
   -5.5210   15.6960  -33.7060 C   0  0  0  0  0  0  0  0  0  0  0  0
   -5.6880   16.7060  -34.6560 C   0  0  0  0  0  0  0  0  0  0  0  0
   -5.9820   18.0120  -34.2510 C   0  0  0  0  0  0  0  0  0  0  0  0
   -6.1100   18.9800  -35.1940 F   0  0  0  0  0  0  0  0  0  0  0  0
   -5.3870   20.5710  -32.0490 C   0  0  0  0  0  0  0  0  0  0  0  0
   -5.7270   21.8660  -31.6410 C   0  0  0  0  0  0  0  0  0  0  0  0
   -4.9030   22.8590  -31.2440 N   0  0  0  0  0  0  0  0  0  0  0  0
   -3.4690   22.7980  -31.1900 C   0  0  0  0  0  0  0  0  0  0  0  0
   -2.7610   23.3670  -30.0890 N   0  0  0  0  0  0  0  0  0  0  0  0
   -2.8260   22.2700  -32.1360 O   0  0  0  0  0  0  0  0  0  0  0  0
   -3.4930   26.0420  -31.3380 H   0  0  0  0  0  0  0  0  0  0  0  0
   -7.9157   24.2650  -31.1293 H   0  0  0  0  0  0  0  0  0  0  0  0
   -9.1161   21.8279  -32.0265 H   0  0  0  0  0  0  0  0  0  0  0  0
   -8.5779   19.4750  -32.7393 H   0  0  0  0  0  0  0  0  0  0  0  0
   -5.5165   15.1911  -31.6002 H   0  0  0  0  0  0  0  0  0  0  0  0
   -5.2894   14.6703  -34.0288 H   0  0  0  0  0  0  0  0  0  0  0  0
   -5.5880   16.4735  -35.7265 H   0  0  0  0  0  0  0  0  0  0  0  0
   -4.3380   20.2400  -32.0590 H   0  0  0  0  0  0  0  0  0  0  0  0
   -3.2740   23.8760  -29.3340 H   0  0  0  0  0  0  0  0  0  0  0  0
   -1.7200   23.3110  -30.0450 H   0  0  0  0  0  0  0  0  0  0  0  0
  1  2  1  0
  2  3  2  0
  2  4  1  0
  4  5  2  0
  5  6  1  0
  6  7  2  0
  7  8  1  0
  8  9  2  0
  9 10  1  0
 10 11  2  0
 11 12  1  0
 11 13  1  0
 13 14  2  0
 14 15  1  0
 15 16  2  0
 16 17  1  0
  9 18  1  0
 18 19  2  0
 19 20  1  0
 20 21  1  0
 21 22  1  0
 21 23  2  0
 20  4  1  0
 19  6  1  0
 16 10  1  0
  1 24  1  0
  5 25  1  0
  7 26  1  0
  8 27  1  0
 13 28  1  0
 14 29  1  0
 15 30  1  0
 18 31  1  0
 22 32  1  0
 22 33  1  0
M  CHG  1   1  -1
M  END
>  <UniqueID>  (6) 
6

>  <SMILES>  (6) 
[NH-]C(=O)c1cc2ccc(-c3c(F)cccc3F)cc2n1C(N)=O

>  <Energy>  (6) 
81.45338636539206

>  <Genealogy>  (6) 
[NH-]C(=O)c1cc2ccc(-c3c(F)cccc3F)cc2n1C(N)=O (protonated)
[NH-]C(=O)c1cc2ccc(-c3c(F)cccc3F)cc2n1C(N)=O (3D coordinates assigned)
[NH-]C(=O)c1cc2ccc(-c3c(F)cccc3F)cc2n1C(N)=O (optimized conformer: 81.45338636539206 kcal/mol)

>  <smiles>  (6) 
NC(=O)c1cc2ccc(-c3c(F)cccc3F)cc2n1C(N)=O

>  <score_type>  (6) 
oracle

>  <origin>  (6) 
adg

>  <m_score__min__energy>  (6) 
-10.49

>  <m_primary>  (6) 
energy

$$$$
6:0
     RDKit          3D

 47 49  0  0  0  0  0  0  0  0999 V2000
   -4.0580   23.1830  -28.5020 C   0  0  0  0  0  0  0  0  0  0  0  0
   -2.9440   23.7140  -29.3970 C   0  0  0  0  0  0  0  0  0  0  0  0
   -3.4300   23.9950  -30.7090 O   0  0  0  0  0  0  0  0  0  0  0  0
   -4.0530   23.0460  -31.5320 C   0  0  0  0  0  0  0  0  0  0  0  0
   -3.3500   22.3070  -32.2780 O   0  0  0  0  0  0  0  0  0  0  0  0
   -5.4920   22.9160  -31.5190 N   0  0  0  0  0  0  0  0  0  0  0  0
   -6.3940   23.8640  -31.1240 C   0  0  0  0  0  0  0  0  0  0  0  0
   -6.0820   25.1190  -30.4110 C   0  0  0  0  0  0  0  0  0  0  0  0
   -5.0070   25.9560  -30.8350 N   0  0  0  0  0  0  0  0  0  0  0  0
   -6.7160   25.4090  -29.3600 O   0  0  0  0  0  0  0  0  0  0  0  0
   -7.6990   23.4460  -31.3610 C   0  0  0  0  0  0  0  0  0  0  0  0
   -7.5820   22.1850  -31.8880 C   0  0  0  0  0  0  0  0  0  0  0  0
   -8.5750   21.2850  -32.2540 C   0  0  0  0  0  0  0  0  0  0  0  0
   -8.1810   20.0240  -32.7220 C   0  0  0  0  0  0  0  0  0  0  0  0
   -6.8080   19.6850  -32.8310 C   0  0  0  0  0  0  0  0  0  0  0  0
   -6.4340   18.3240  -33.2790 C   0  0  0  0  0  0  0  0  0  0  0  0
   -7.1570   17.1530  -33.0900 C   0  0  0  0  0  0  0  0  0  0  0  0
   -6.4240   16.1540  -33.6930 C   0  0  0  0  0  0  0  0  0  0  0  0
   -5.3030   16.7730  -34.2120 C   0  0  0  0  0  0  0  0  0  0  0  0
   -4.2050   16.1040  -34.9930 C   0  0  0  0  0  0  0  0  0  0  0  0
   -2.8790   16.1970  -34.3420 N   0  0  0  0  0  0  0  0  0  0  0  0
   -2.4250   17.5890  -34.1880 C   0  0  0  0  0  0  0  0  0  0  0  0
   -2.8330   15.4820  -33.0570 C   0  0  0  0  0  0  0  0  0  0  0  0
   -5.3350   18.0600  -33.9470 O   0  0  0  0  0  0  0  0  0  0  0  0
   -5.8240   20.6370  -32.4680 C   0  0  0  0  0  0  0  0  0  0  0  0
   -6.2420   21.8820  -31.9760 C   0  0  0  0  0  0  0  0  0  0  0  0
   -3.7763   23.3173  -27.4472 H   0  0  0  0  0  0  0  0  0  0  0  0
   -4.9872   23.7350  -28.7065 H   0  0  0  0  0  0  0  0  0  0  0  0
   -4.2143   22.1135  -28.7065 H   0  0  0  0  0  0  0  0  0  0  0  0
   -2.5398   24.6380  -28.9579 H   0  0  0  0  0  0  0  0  0  0  0  0
   -2.1595   22.9465  -29.4716 H   0  0  0  0  0  0  0  0  0  0  0  0
   -4.3680   25.6500  -31.6040 H   0  0  0  0  0  0  0  0  0  0  0  0
   -4.8150   26.8550  -30.3360 H   0  0  0  0  0  0  0  0  0  0  0  0
   -8.6257   24.0061  -31.1675 H   0  0  0  0  0  0  0  0  0  0  0  0
   -9.6389   21.5541  -32.1787 H   0  0  0  0  0  0  0  0  0  0  0  0
   -8.9464   19.2877  -33.0085 H   0  0  0  0  0  0  0  0  0  0  0  0
   -8.1182   17.0452  -32.5661 H   0  0  0  0  0  0  0  0  0  0  0  0
   -6.6785   15.0853  -33.7495 H   0  0  0  0  0  0  0  0  0  0  0  0
   -4.4606   15.0409  -35.1130 H   0  0  0  0  0  0  0  0  0  0  0  0
   -4.1296   16.6254  -35.9586 H   0  0  0  0  0  0  0  0  0  0  0  0
   -2.3456   17.8325  -33.1182 H   0  0  0  0  0  0  0  0  0  0  0  0
   -1.4412   17.7088  -34.6653 H   0  0  0  0  0  0  0  0  0  0  0  0
   -3.1490   18.2657  -34.6653 H   0  0  0  0  0  0  0  0  0  0  0  0
   -2.8797   16.2077  -32.2317 H   0  0  0  0  0  0  0  0  0  0  0  0
   -3.6888   14.7942  -32.9893 H   0  0  0  0  0  0  0  0  0  0  0  0
   -1.8962   14.9095  -32.9893 H   0  0  0  0  0  0  0  0  0  0  0  0
   -4.7537   20.4045  -32.5699 H   0  0  0  0  0  0  0  0  0  0  0  0
  1  2  1  0
  2  3  1  0
  3  4  1  0
  4  5  2  0
  4  6  1  0
  6  7  1  0
  7  8  1  0
  8  9  1  0
  8 10  2  0
  7 11  2  0
 11 12  1  0
 12 13  2  0
 13 14  1  0
 14 15  2  0
 15 16  1  0
 16 17  2  0
 17 18  1  0
 18 19  2  0
 19 20  1  0
 20 21  1  0
 21 22  1  0
 21 23  1  0
 19 24  1  0
 15 25  1  0
 25 26  2  0
 26  6  1  0
 26 12  1  0
 24 16  1  0
  1 27  1  0
  1 28  1  0
  1 29  1  0
  2 30  1  0
  2 31  1  0
  9 32  1  0
  9 33  1  0
 11 34  1  0
 13 35  1  0
 14 36  1  0
 17 37  1  0
 18 38  1  0
 20 39  1  0
 20 40  1  0
 22 41  1  0
 22 42  1  0
 22 43  1  0
 23 44  1  0
 23 45  1  0
 23 46  1  0
 25 47  1  0
M  END
>  <UniqueID>  (7) 
7

>  <SMILES>  (7) 
CCOC(=O)n1c(C(N)=O)cc2ccc(-c3ccc(CN(C)C)o3)cc21

>  <Energy>  (7) 
113.4171118026058

>  <Genealogy>  (7) 
CCOC(=O)n1c(C(N)=O)cc2ccc(-c3ccc(CN(C)C)o3)cc21 (3D coordinates assigned)
CCOC(=O)n1c(C(N)=O)cc2ccc(-c3ccc(CN(C)C)o3)cc21 (optimized conformer: 113.4171118026058 kcal/mol)

>  <smiles>  (7) 
CCOC(=O)n1c(C(N)=O)cc2ccc(-c3ccc(CN(C)C)o3)cc21

>  <score_type>  (7) 
oracle

>  <origin>  (7) 
adg

>  <m_score__min__energy>  (7) 
-8.4499999999999993

>  <m_primary>  (7) 
energy

$$$$
7:0
     RDKit          3D

 41 42  0  0  0  0  0  0  0  0999 V2000
   -5.7310   18.5950  -34.5050 C   0  0  0  0  0  0  0  0  0  0  0  0
   -6.8260   18.4880  -33.4480 C   0  0  0  0  0  0  0  0  0  0  0  0
   -7.0600   19.8190  -32.7870 C   0  0  0  0  0  0  0  0  0  0  0  0
   -8.3710   20.2070  -32.4150 C   0  0  0  0  0  0  0  0  0  0  0  0
   -8.5950   21.4280  -31.7560 C   0  0  0  0  0  0  0  0  0  0  0  0
   -7.4940   22.2340  -31.4820 C   0  0  0  0  0  0  0  0  0  0  0  0
   -7.4240   23.4470  -30.8340 C   0  0  0  0  0  0  0  0  0  0  0  0
   -6.0720   23.7850  -30.8280 C   0  0  0  0  0  0  0  0  0  0  0  0
   -5.5440   25.0660  -30.3070 C   0  0  0  0  0  0  0  0  0  0  0  0
   -6.1020   25.6630  -29.1350 N   0  0  0  0  0  0  0  0  0  0  0  0
   -4.6140   25.6600  -30.9130 O   0  0  0  0  0  0  0  0  0  0  0  0
   -5.3350   22.8190  -31.4460 N   0  0  0  0  0  0  0  0  0  0  0  0
   -3.9090   22.7620  -31.5990 C   0  0  0  0  0  0  0  0  0  0  0  0
   -3.4010   21.9630  -32.4300 O   0  0  0  0  0  0  0  0  0  0  0  0
   -3.1000   23.6130  -30.8310 O   0  0  0  0  0  0  0  0  0  0  0  0
   -2.5320   23.3200  -29.5460 C   0  0  0  0  0  0  0  0  0  0  0  0
   -1.9630   24.5970  -28.9000 C   0  0  0  0  0  0  0  0  0  0  0  0
   -3.5830   22.6660  -28.6280 C   0  0  0  0  0  0  0  0  0  0  0  0
   -1.3850   22.3250  -29.7750 C   0  0  0  0  0  0  0  0  0  0  0  0
   -6.2210   21.8770  -31.8410 C   0  0  0  0  0  0  0  0  0  0  0  0
   -5.9650   20.6580  -32.4810 C   0  0  0  0  0  0  0  0  0  0  0  0
   -4.7527   18.6906  -34.0112 H   0  0  0  0  0  0  0  0  0  0  0  0
   -5.7380   17.6919  -35.1330 H   0  0  0  0  0  0  0  0  0  0  0  0
   -5.9127   19.4797  -35.1330 H   0  0  0  0  0  0  0  0  0  0  0  0
   -7.7583   18.1538  -33.9267 H   0  0  0  0  0  0  0  0  0  0  0  0
   -6.5088   17.7644  -32.6827 H   0  0  0  0  0  0  0  0  0  0  0  0
   -9.2207   19.5470  -32.6439 H   0  0  0  0  0  0  0  0  0  0  0  0
   -9.6099   21.7373  -31.4656 H   0  0  0  0  0  0  0  0  0  0  0  0
   -8.2580   24.0262  -30.4110 H   0  0  0  0  0  0  0  0  0  0  0  0
   -5.7480   26.5860  -28.7990 H   0  0  0  0  0  0  0  0  0  0  0  0
   -6.8350   25.1760  -28.5740 H   0  0  0  0  0  0  0  0  0  0  0  0
   -2.0046   24.5037  -27.8048 H   0  0  0  0  0  0  0  0  0  0  0  0
   -0.9186   24.7342  -29.2169 H   0  0  0  0  0  0  0  0  0  0  0  0
   -2.5594   25.4653  -29.2169 H   0  0  0  0  0  0  0  0  0  0  0  0
   -3.3085   22.8368  -27.5766 H   0  0  0  0  0  0  0  0  0  0  0  0
   -4.5698   23.1098  -28.8261 H   0  0  0  0  0  0  0  0  0  0  0  0
   -3.6208   21.5846  -28.8261 H   0  0  0  0  0  0  0  0  0  0  0  0
   -0.9943   21.9861  -28.8042 H   0  0  0  0  0  0  0  0  0  0  0  0
   -1.7581   21.4596  -30.3424 H   0  0  0  0  0  0  0  0  0  0  0  0
   -0.5810   22.8165  -30.3424 H   0  0  0  0  0  0  0  0  0  0  0  0
   -4.9377   20.3612  -32.7389 H   0  0  0  0  0  0  0  0  0  0  0  0
  1  2  1  0
  2  3  1  0
  3  4  2  0
  4  5  1  0
  5  6  2  0
  6  7  1  0
  7  8  2  0
  8  9  1  0
  9 10  1  0
  9 11  2  0
  8 12  1  0
 12 13  1  0
 13 14  2  0
 13 15  1  0
 15 16  1  0
 16 17  1  0
 16 18  1  0
 16 19  1  0
 12 20  1  0
 20 21  2  0
 21  3  1  0
 20  6  1  0
  1 22  1  0
  1 23  1  0
  1 24  1  0
  2 25  1  0
  2 26  1  0
  4 27  1  0
  5 28  1  0
  7 29  1  0
 10 30  1  0
 10 31  1  0
 17 32  1  0
 17 33  1  0
 17 34  1  0
 18 35  1  0
 18 36  1  0
 18 37  1  0
 19 38  1  0
 19 39  1  0
 19 40  1  0
 21 41  1  0
M  END
>  <UniqueID>  (8) 
8

>  <SMILES>  (8) 
CCc1ccc2cc(C(N)=O)n(C(=O)OC(C)(C)C)c2c1

>  <Energy>  (8) 
70.87214996921455

>  <Genealogy>  (8) 
CCc1ccc2cc(C(N)=O)n(C(=O)OC(C)(C)C)c2c1 (3D coordinates assigned)
CCc1ccc2cc(C(N)=O)n(C(=O)OC(C)(C)C)c2c1 (optimized conformer: 70.87214996921455 kcal/mol)

>  <smiles>  (8) 
CCc1ccc2cc(C(N)=O)n(C(=O)OC(C)(C)C)c2c1

>  <score_type>  (8) 
oracle

>  <origin>  (8) 
adg

>  <m_score__min__energy>  (8) 
-8.9000000000000004

>  <m_primary>  (8) 
energy

$$$$
8:0
     RDKit          3D

 44 46  0  0  0  0  0  0  0  0999 V2000
   -7.4690   19.6710  -31.6260 C   0  0  0  0  0  0  0  0  0  0  0  0
   -6.2080   18.8650  -31.6130 C   0  0  0  0  0  0  0  0  0  0  0  0
   -6.1540   17.8210  -30.9100 O   0  0  0  0  0  0  0  0  0  0  0  0
   -5.0740   19.2510  -32.4090 N   0  0  0  0  0  0  0  0  0  0  0  0
   -4.6540   18.7150  -33.5900 C   0  0  0  0  0  0  0  0  0  0  0  0
   -5.3830   17.7150  -34.3950 C   0  0  0  0  0  0  0  0  0  0  0  0
   -6.1570   16.6880  -33.7750 N   0  0  0  0  0  0  0  0  0  0  0  0
   -5.3640   17.8000  -35.6520 O   0  0  0  0  0  0  0  0  0  0  0  0
   -3.4480   19.2870  -33.9860 C   0  0  0  0  0  0  0  0  0  0  0  0
   -3.1470   20.2120  -33.0130 C   0  0  0  0  0  0  0  0  0  0  0  0
   -2.0570   21.0680  -32.8960 C   0  0  0  0  0  0  0  0  0  0  0  0
   -1.9930   21.9040  -31.7690 C   0  0  0  0  0  0  0  0  0  0  0  0
   -3.0130   21.8720  -30.7800 C   0  0  0  0  0  0  0  0  0  0  0  0
   -2.9450   22.7630  -29.5560 C   0  0  1  0  0  0  0  0  0  0  0  0
   -1.6380   22.5310  -28.7890 C   0  0  0  0  0  0  0  0  0  0  0  0
   -3.1200   24.2260  -29.9110 C   0  0  0  0  0  0  0  0  0  0  0  0
   -2.3970   25.0960  -29.3560 O   0  0  0  0  0  0  0  0  0  0  0  0
   -4.1540   24.6630  -30.8040 N   0  0  0  0  0  0  0  0  0  0  0  0
   -5.4130   24.0090  -30.9980 C   0  0  0  0  0  0  0  0  0  0  0  0
   -5.9300   23.7990  -32.2870 C   0  0  0  0  0  0  0  0  0  0  0  0
   -7.1660   23.1660  -32.4540 C   0  0  0  0  0  0  0  0  0  0  0  0
   -7.9030   22.7650  -31.3370 C   0  0  0  0  0  0  0  0  0  0  0  0
   -7.4100   23.0060  -30.0510 C   0  0  0  0  0  0  0  0  0  0  0  0
   -6.1720   23.6350  -29.8810 C   0  0  0  0  0  0  0  0  0  0  0  0
   -4.0930   20.9700  -30.9270 C   0  0  0  0  0  0  0  0  0  0  0  0
   -4.1430   20.1690  -32.0720 C   0  0  0  0  0  0  0  0  0  0  0  0
   -7.7855   19.8733  -30.5921 H   0  0  0  0  0  0  0  0  0  0  0  0
   -7.2904   20.6228  -32.1477 H   0  0  0  0  0  0  0  0  0  0  0  0
   -8.2578   19.1093  -32.1477 H   0  0  0  0  0  0  0  0  0  0  0  0
   -6.3320   16.6910  -32.7460 H   0  0  0  0  0  0  0  0  0  0  0  0
   -6.6280   15.9620  -34.3590 H   0  0  0  0  0  0  0  0  0  0  0  0
   -2.8608   19.0498  -34.8854 H   0  0  0  0  0  0  0  0  0  0  0  0
   -1.2688   21.0897  -33.6630 H   0  0  0  0  0  0  0  0  0  0  0  0
   -1.1429   22.5919  -31.6505 H   0  0  0  0  0  0  0  0  0  0  0  0
   -3.7840   22.4890  -28.8995 H   0  0  0  0  0  0  0  0  0  0  0  0
   -1.8363   22.5662  -27.7076 H   0  0  0  0  0  0  0  0  0  0  0  0
   -1.2269   21.5459  -29.0545 H   0  0  0  0  0  0  0  0  0  0  0  0
   -0.9130   23.3145  -29.0545 H   0  0  0  0  0  0  0  0  0  0  0  0
   -5.3614   24.1332  -33.1673 H   0  0  0  0  0  0  0  0  0  0  0  0
   -7.5580   22.9838  -33.4655 H   0  0  0  0  0  0  0  0  0  0  0  0
   -8.8711   22.2597  -31.4692 H   0  0  0  0  0  0  0  0  0  0  0  0
   -7.9963   22.7006  -29.1718 H   0  0  0  0  0  0  0  0  0  0  0  0
   -5.7935   23.8365  -28.8680 H   0  0  0  0  0  0  0  0  0  0  0  0
   -4.8760   20.9004  -30.1576 H   0  0  0  0  0  0  0  0  0  0  0  0
  1  2  1  0
  2  3  2  0
  2  4  1  0
  4  5  1  0
  5  6  1  0
  6  7  1  0
  6  8  2  0
  5  9  2  0
  9 10  1  0
 10 11  2  0
 11 12  1  0
 12 13  2  0
 13 14  1  0
 14 15  1  0
 14 16  1  0
 16 17  2  0
 16 18  1  0
 18 19  1  0
 19 20  2  0
 20 21  1  0
 21 22  2  0
 22 23  1  0
 23 24  2  0
 13 25  1  0
 25 26  2  0
 26  4  1  0
 26 10  1  0
 24 19  1  0
  1 27  1  0
  1 28  1  0
  1 29  1  0
  7 30  1  0
  7 31  1  0
  9 32  1  0
 11 33  1  0
 12 34  1  0
 14 35  1  1
 15 36  1  0
 15 37  1  0
 15 38  1  0
 20 39  1  0
 21 40  1  0
 22 41  1  0
 23 42  1  0
 24 43  1  0
 25 44  1  0
M  CHG  1  18  -1
M  END
>  <UniqueID>  (9) 
9

>  <SMILES>  (9) 
CC(=O)n1c(C(N)=O)cc2ccc([C@@H](C)C(=O)[N-]c3ccccc3)cc21

>  <Energy>  (9) 
88.67288931597189

>  <Genealogy>  (9) 
CC(=O)n1c(C(N)=O)cc2ccc(C(C)C(=O)[N-]c3ccccc3)cc21 (protonated)
CC(=O)n1c(C(N)=O)cc2ccc([C@@H](C)C(=O)[N-]c3ccccc3)cc21 (chirality)
CC(=O)n1c(C(N)=O)cc2ccc([C@@H](C)C(=O)[N-]c3ccccc3)cc21 (3D coordinates assigned)
CC(=O)n1c(C(N)=O)cc2ccc([C@@H](C)C(=O)[N-]c3ccccc3)cc21 (optimized conformer: 88.67288931597189 kcal/mol)

>  <smiles>  (9) 
CC(=O)n1c(C(N)=O)cc2ccc(C(C)C(=O)Nc3ccccc3)cc21

>  <score_type>  (9) 
oracle

>  <origin>  (9) 
adg

>  <m_score__min__energy>  (9) 
-10.18

>  <m_primary>  (9) 
energy

$$$$
9:0
     RDKit          3D

 45 47  0  0  0  0  0  0  0  0999 V2000
   -6.0930   25.7810  -29.3430 N   0  0  0  0  0  0  0  0  0  0  0  0
   -6.3700   24.7460  -30.2870 C   0  0  0  0  0  0  0  0  0  0  0  0
   -7.5590   24.5490  -30.6550 O   0  0  0  0  0  0  0  0  0  0  0  0
   -5.3000   23.8610  -30.7890 C   0  0  0  0  0  0  0  0  0  0  0  0
   -5.4520   23.0300  -31.8950 C   0  0  0  0  0  0  0  0  0  0  0  0
   -4.2670   22.3380  -31.9930 C   0  0  0  0  0  0  0  0  0  0  0  0
   -3.8570   21.3990  -32.9360 C   0  0  0  0  0  0  0  0  0  0  0  0
   -2.5530   20.8860  -32.8310 C   0  0  0  0  0  0  0  0  0  0  0  0
   -1.6910   21.3150  -31.7920 C   0  0  0  0  0  0  0  0  0  0  0  0
   -0.2710   20.8190  -31.7360 C   0  0  0  0  0  0  0  0  0  0  0  0
   -0.1260   19.8080  -30.6320 C   0  0  0  0  0  0  0  0  0  0  0  0
    0.4280   18.5460  -30.8960 C   0  0  0  0  0  0  0  0  0  0  0  0
    0.6180   17.6320  -29.8570 C   0  0  0  0  0  0  0  0  0  0  0  0
    0.2790   17.9780  -28.5470 C   0  0  0  0  0  0  0  0  0  0  0  0
   -0.2510   19.2420  -28.2590 C   0  0  0  0  0  0  0  0  0  0  0  0
   -0.5450   19.5470  -26.9200 O   0  0  0  0  0  0  0  0  0  0  0  0
   -1.8050   20.0070  -26.4240 C   0  0  0  0  0  0  0  0  0  0  0  0
   -2.1370   21.3400  -27.0970 C   0  0  0  0  0  0  0  0  0  0  0  0
   -3.0520   21.1510  -28.1200 F   0  0  0  0  0  0  0  0  0  0  0  0
   -2.9010   18.9650  -26.6980 C   0  0  0  0  0  0  0  0  0  0  0  0
   -3.1080   18.1750  -25.5810 F   0  0  0  0  0  0  0  0  0  0  0  0
   -0.4670   20.1500  -29.3130 C   0  0  0  0  0  0  0  0  0  0  0  0
   -2.1400   22.2750  -30.8570 C   0  0  0  0  0  0  0  0  0  0  0  0
   -3.4480   22.7600  -30.9770 C   0  0  0  0  0  0  0  0  0  0  0  0
   -4.0680   23.7030  -30.2300 N   0  0  0  0  0  0  0  0  0  0  0  0
   -3.4870   24.4790  -29.1670 C   0  0  0  0  0  0  0  0  0  0  0  0
   -2.5540   25.2900  -29.4040 O   0  0  0  0  0  0  0  0  0  0  0  0
   -3.9570   24.3480  -27.8660 O   0  0  0  0  0  0  0  0  0  0  0  0
   -6.8550   26.4200  -29.0270 H   0  0  0  0  0  0  0  0  0  0  0  0
   -5.1530   25.8640  -28.8960 H   0  0  0  0  0  0  0  0  0  0  0  0
   -6.3313   22.9447  -32.5504 H   0  0  0  0  0  0  0  0  0  0  0  0
   -4.5331   21.0690  -33.7385 H   0  0  0  0  0  0  0  0  0  0  0  0
   -2.1984   20.1446  -33.5622 H   0  0  0  0  0  0  0  0  0  0  0  0
   -0.0100   20.3505  -32.6964 H   0  0  0  0  0  0  0  0  0  0  0  0
    0.4019   21.6672  -31.5415 H   0  0  0  0  0  0  0  0  0  0  0  0
    0.7133   18.2760  -31.9235 H   0  0  0  0  0  0  0  0  0  0  0  0
    1.0357   16.6372  -30.0710 H   0  0  0  0  0  0  0  0  0  0  0  0
    0.4295   17.2517  -27.7347 H   0  0  0  0  0  0  0  0  0  0  0  0
   -1.7496   20.1517  -25.3350 H   0  0  0  0  0  0  0  0  0  0  0  0
   -2.5644   22.0260  -26.3508 H   0  0  0  0  0  0  0  0  0  0  0  0
   -1.2145   21.7660  -27.5182 H   0  0  0  0  0  0  0  0  0  0  0  0
   -3.8372   19.4829  -26.9538 H   0  0  0  0  0  0  0  0  0  0  0  0
   -2.5821   18.3241  -27.5332 H   0  0  0  0  0  0  0  0  0  0  0  0
   -0.9067   21.1359  -29.1017 H   0  0  0  0  0  0  0  0  0  0  0  0
   -1.4780   22.6325  -30.0545 H   0  0  0  0  0  0  0  0  0  0  0  0
  1  2  1  0
  2  3  2  0
  2  4  1  0
  4  5  2  0
  5  6  1  0
  6  7  2  0
  7  8  1  0
  8  9  2  0
  9 10  1  0
 10 11  1  0
 11 12  2  0
 12 13  1  0
 13 14  2  0
 14 15  1  0
 15 16  1  0
 16 17  1  0
 17 18  1  0
 18 19  1  0
 17 20  1  0
 20 21  1  0
 15 22  2  0
  9 23  1  0
 23 24  2  0
 24 25  1  0
 25 26  1  0
 26 27  2  0
 26 28  1  0
 25  4  1  0
 24  6  1  0
 22 11  1  0
  1 29  1  0
  1 30  1  0
  5 31  1  0
  7 32  1  0
  8 33  1  0
 10 34  1  0
 10 35  1  0
 12 36  1  0
 13 37  1  0
 14 38  1  0
 17 39  1  0
 18 40  1  0
 18 41  1  0
 20 42  1  0
 20 43  1  0
 22 44  1  0
 23 45  1  0
M  CHG  1  28  -1
M  END
>  <UniqueID>  (10) 
10

>  <SMILES>  (10) 
NC(=O)c1cc2ccc(Cc3cccc(OC(CF)CF)c3)cc2n1C(=O)[O-]

>  <Energy>  (10) 
81.59311996418653

>  <Genealogy>  (10) 
NC(=O)c1cc2ccc(Cc3cccc(OC(CF)CF)c3)cc2n1C(=O)[O-] (protonated)
NC(=O)c1cc2ccc(Cc3cccc(OC(CF)CF)c3)cc2n1C(=O)[O-] (3D coordinates assigned)
NC(=O)c1cc2ccc(Cc3cccc(OC(CF)CF)c3)cc2n1C(=O)[O-] (optimized conformer: 81.59311996418653 kcal/mol)

>  <smiles>  (10) 
NC(=O)c1cc2ccc(Cc3cccc(OC(CF)CF)c3)cc2n1C(=O)O

>  <score_type>  (10) 
oracle

>  <origin>  (10) 
adg

>  <m_score__min__energy>  (10) 
-9.3000000000000007

>  <m_primary>  (10) 
energy

$$$$
10:0
     RDKit          3D

 58 60  0  0  0  0  0  0  0  0999 V2000
   -1.0970   27.4560  -25.5250 C   0  0  0  0  0  0  0  0  0  0  0  0
   -1.2400   25.9860  -25.9440 C   0  0  0  0  0  0  0  0  0  0  0  0
   -2.7330   25.6070  -25.9350 C   0  0  0  0  0  0  0  0  0  0  0  0
   -0.4510   25.1110  -24.9540 C   0  0  0  0  0  0  0  0  0  0  0  0
   -0.6920   25.8660  -27.2660 O   0  0  0  0  0  0  0  0  0  0  0  0
   -1.0590   24.9250  -28.2400 C   0  0  0  0  0  0  0  0  0  0  0  0
   -1.5590   25.2840  -29.3390 O   0  0  0  0  0  0  0  0  0  0  0  0
   -0.8630   23.5320  -27.9920 N   0  0  0  0  0  0  0  0  0  0  0  0
   -1.7220   22.4860  -28.5420 C   0  0  0  0  0  0  0  0  0  0  0  0
   -0.9140   21.4890  -29.3820 C   0  0  0  0  0  0  0  0  0  0  0  0
   -1.6440   21.0270  -30.6450 C   0  0  0  0  0  0  0  0  0  0  0  0
   -3.0230   21.3690  -30.5620 O   0  0  0  0  0  0  0  0  0  0  0  0
   -3.5410   22.5840  -31.0180 C   0  0  0  0  0  0  0  0  0  0  0  0
   -2.7740   23.5640  -31.2210 O   0  0  0  0  0  0  0  0  0  0  0  0
   -4.9510   22.7030  -31.2760 N   0  0  0  0  0  0  0  0  0  0  0  0
   -5.7750   23.7220  -30.9000 C   0  0  0  0  0  0  0  0  0  0  0  0
   -5.3490   25.0230  -30.3490 C   0  0  0  0  0  0  0  0  0  0  0  0
   -4.1740   25.6710  -30.8270 N   0  0  0  0  0  0  0  0  0  0  0  0
   -6.0600   25.5980  -29.4820 O   0  0  0  0  0  0  0  0  0  0  0  0
   -7.1040   23.4040  -31.1660 C   0  0  0  0  0  0  0  0  0  0  0  0
   -7.0730   22.1500  -31.7280 C   0  0  0  0  0  0  0  0  0  0  0  0
   -8.1180   21.3350  -32.1490 C   0  0  0  0  0  0  0  0  0  0  0  0
   -7.8040   20.0550  -32.6310 C   0  0  0  0  0  0  0  0  0  0  0  0
   -6.4570   19.6080  -32.6810 C   0  0  0  0  0  0  0  0  0  0  0  0
   -6.1400   18.2360  -33.1510 C   0  0  0  0  0  0  0  0  0  0  0  0
   -4.8110   17.8660  -33.4260 C   0  0  0  0  0  0  0  0  0  0  0  0
   -4.5120   16.5720  -33.8650 C   0  0  0  0  0  0  0  0  0  0  0  0
   -5.5370   15.6320  -34.0340 C   0  0  0  0  0  0  0  0  0  0  0  0
   -5.2510   14.3410  -34.4710 O   0  0  0  0  0  0  0  0  0  0  0  0
   -6.8600   15.9920  -33.7620 C   0  0  0  0  0  0  0  0  0  0  0  0
   -7.1620   17.2840  -33.3220 C   0  0  0  0  0  0  0  0  0  0  0  0
   -5.4220   20.4720  -32.2560 C   0  0  0  0  0  0  0  0  0  0  0  0
   -5.7630   21.7480  -31.7880 C   0  0  0  0  0  0  0  0  0  0  0  0
   -1.0903   27.5254  -24.4272 H   0  0  0  0  0  0  0  0  0  0  0  0
   -0.1552   27.8610  -25.9238 H   0  0  0  0  0  0  0  0  0  0  0  0
   -1.9431   28.0349  -25.9238 H   0  0  0  0  0  0  0  0  0  0  0  0
   -3.0825   25.5183  -24.8958 H   0  0  0  0  0  0  0  0  0  0  0  0
   -3.3123   26.3866  -26.4514 H   0  0  0  0  0  0  0  0  0  0  0  0
   -2.8703   24.6455  -26.4514 H   0  0  0  0  0  0  0  0  0  0  0  0
   -0.7098   25.3980  -23.9241 H   0  0  0  0  0  0  0  0  0  0  0  0
   -0.7066   24.0533  -25.1151 H   0  0  0  0  0  0  0  0  0  0  0  0
    0.6274   25.2562  -25.1151 H   0  0  0  0  0  0  0  0  0  0  0  0
   -2.2067   21.9477  -27.7142 H   0  0  0  0  0  0  0  0  0  0  0  0
   -2.4743   22.9585  -29.1907 H   0  0  0  0  0  0  0  0  0  0  0  0
    0.0297   21.9688  -29.6805 H   0  0  0  0  0  0  0  0  0  0  0  0
   -0.7483   20.5982  -28.7584 H   0  0  0  0  0  0  0  0  0  0  0  0
   -1.1991   21.5178  -31.5232 H   0  0  0  0  0  0  0  0  0  0  0  0
   -1.5475   19.9353  -30.7393 H   0  0  0  0  0  0  0  0  0  0  0  0
   -3.2240   25.3010  -30.5990 H   0  0  0  0  0  0  0  0  0  0  0  0
   -7.9906   24.0245  -30.9684 H   0  0  0  0  0  0  0  0  0  0  0  0
   -9.1604   21.6834  -32.1055 H   0  0  0  0  0  0  0  0  0  0  0  0
   -8.6105   19.3903  -32.9740 H   0  0  0  0  0  0  0  0  0  0  0  0
   -4.0015   18.5992  -33.2949 H   0  0  0  0  0  0  0  0  0  0  0  0
   -3.4698   16.2918  -34.0780 H   0  0  0  0  0  0  0  0  0  0  0  0
   -4.7680   14.1720  -35.3460 H   0  0  0  0  0  0  0  0  0  0  0  0
   -7.6665   15.2558  -33.8947 H   0  0  0  0  0  0  0  0  0  0  0  0
   -8.2055   17.5583  -33.1080 H   0  0  0  0  0  0  0  0  0  0  0  0
   -4.3710   20.1494  -32.2919 H   0  0  0  0  0  0  0  0  0  0  0  0
  1  2  1  0
  2  3  1  0
  2  4  1  0
  2  5  1  0
  5  6  1  0
  6  7  2  0
  6  8  1  0
  8  9  1  0
  9 10  1  0
 10 11  1  0
 11 12  1  0
 12 13  1  0
 13 14  2  0
 13 15  1  0
 15 16  1  0
 16 17  1  0
 17 18  1  0
 17 19  2  0
 16 20  2  0
 20 21  1  0
 21 22  2  0
 22 23  1  0
 23 24  2  0
 24 25  1  0
 25 26  2  0
 26 27  1  0
 27 28  2  0
 28 29  1  0
 28 30  1  0
 30 31  2  0
 24 32  1  0
 32 33  2  0
 33 15  1  0
 33 21  1  0
 31 25  1  0
  1 34  1  0
  1 35  1  0
  1 36  1  0
  3 37  1  0
  3 38  1  0
  3 39  1  0
  4 40  1  0
  4 41  1  0
  4 42  1  0
  9 43  1  0
  9 44  1  0
 10 45  1  0
 10 46  1  0
 11 47  1  0
 11 48  1  0
 18 49  1  0
 20 50  1  0
 22 51  1  0
 23 52  1  0
 26 53  1  0
 27 54  1  0
 29 55  1  0
 30 56  1  0
 31 57  1  0
 32 58  1  0
M  CHG  2   8  -1  18  -1
M  END
>  <UniqueID>  (11) 
11

>  <SMILES>  (11) 
CC(C)(C)OC(=O)[N-]CCCOC(=O)n1c(C([NH-])=O)cc2ccc(-c3ccc(O)cc3)cc21

>  <Energy>  (11) 
87.73927673301291

>  <Genealogy>  (11) 
CC(C)(C)OC(=O)[N-]CCCOC(=O)n1c(C([NH-])=O)cc2ccc(-c3ccc(O)cc3)cc21 (protonated)
CC(C)(C)OC(=O)[N-]CCCOC(=O)n1c(C([NH-])=O)cc2ccc(-c3ccc(O)cc3)cc21 (3D coordinates assigned)
CC(C)(C)OC(=O)[N-]CCCOC(=O)n1c(C([NH-])=O)cc2ccc(-c3ccc(O)cc3)cc21 (optimized conformer: 87.73927673301291 kcal/mol)

>  <smiles>  (11) 
CC(C)(C)OC(=O)NCCCOC(=O)n1c(C(N)=O)cc2ccc(-c3ccc(O)cc3)cc21

>  <score_type>  (11) 
oracle

>  <origin>  (11) 
adg

>  <m_score__min__energy>  (11) 
-12.779999999999999

>  <m_primary>  (11) 
energy

$$$$
11:0
     RDKit          3D

 36 38  0  0  0  0  0  0  0  0999 V2000
   -2.5330   20.3120  -33.7720 C   0  0  0  0  0  0  0  0  0  0  0  0
   -2.2430   21.1340  -32.5210 C   0  0  0  0  0  0  0  0  0  0  0  0
   -3.0590   22.3010  -32.4860 O   0  0  0  0  0  0  0  0  0  0  0  0
   -3.7640   22.7170  -31.3480 C   0  0  0  0  0  0  0  0  0  0  0  0
   -3.1440   23.0270  -30.2940 O   0  0  0  0  0  0  0  0  0  0  0  0
   -5.1980   22.7710  -31.3790 N   0  0  0  0  0  0  0  0  0  0  0  0
   -6.0040   23.7720  -30.9200 C   0  0  0  0  0  0  0  0  0  0  0  0
   -5.5410   25.0850  -30.4190 C   0  0  0  0  0  0  0  0  0  0  0  0
   -4.1950   25.5150  -30.6370 N   0  0  0  0  0  0  0  0  0  0  0  0
   -6.3220   25.8260  -29.7670 O   0  0  0  0  0  0  0  0  0  0  0  0
   -7.3450   23.4280  -31.0770 C   0  0  0  0  0  0  0  0  0  0  0  0
   -7.3360   22.1770  -31.6510 C   0  0  0  0  0  0  0  0  0  0  0  0
   -8.3960   21.3540  -32.0150 C   0  0  0  0  0  0  0  0  0  0  0  0
   -8.0960   20.0980  -32.5660 C   0  0  0  0  0  0  0  0  0  0  0  0
   -6.7500   19.6790  -32.7390 C   0  0  0  0  0  0  0  0  0  0  0  0
   -6.4530   18.3400  -33.3110 C   0  0  0  0  0  0  0  0  0  0  0  0
   -7.1500   17.1540  -33.0750 C   0  0  0  0  0  0  0  0  0  0  0  0
   -6.6270   16.0500  -33.7590 C   0  0  0  0  0  0  0  0  0  0  0  0
   -5.5170   16.3460  -34.5380 C   0  0  0  0  0  0  0  0  0  0  0  0
   -5.1890   17.9840  -34.3710 S   0  0  0  0  0  0  0  0  0  0  0  0
   -5.7010   20.5480  -32.3500 C   0  0  0  0  0  0  0  0  0  0  0  0
   -6.0300   21.8020  -31.8240 C   0  0  0  0  0  0  0  0  0  0  0  0
   -2.8858   19.3119  -33.4800 H   0  0  0  0  0  0  0  0  0  0  0  0
   -3.3082   20.8144  -34.3693 H   0  0  0  0  0  0  0  0  0  0  0  0
   -1.6142   20.2167  -34.3693 H   0  0  0  0  0  0  0  0  0  0  0  0
   -2.4495   20.5219  -31.6307 H   0  0  0  0  0  0  0  0  0  0  0  0
   -1.1868   21.4409  -32.5360 H   0  0  0  0  0  0  0  0  0  0  0  0
   -3.8670   26.4260  -30.2460 H   0  0  0  0  0  0  0  0  0  0  0  0
   -3.5340   24.9560  -31.2190 H   0  0  0  0  0  0  0  0  0  0  0  0
   -8.2242   24.0286  -30.8009 H   0  0  0  0  0  0  0  0  0  0  0  0
   -9.4381   21.6772  -31.8755 H   0  0  0  0  0  0  0  0  0  0  0  0
   -8.9152   19.4289  -32.8681 H   0  0  0  0  0  0  0  0  0  0  0  0
   -8.0272   17.0925  -32.4141 H   0  0  0  0  0  0  0  0  0  0  0  0
   -7.0566   15.0400  -33.6857 H   0  0  0  0  0  0  0  0  0  0  0  0
   -4.9517   15.6329  -35.1560 H   0  0  0  0  0  0  0  0  0  0  0  0
   -4.6497   20.2432  -32.4592 H   0  0  0  0  0  0  0  0  0  0  0  0
  1  2  1  0
  2  3  1  0
  3  4  1  0
  4  5  2  0
  4  6  1  0
  6  7  1  0
  7  8  1  0
  8  9  1  0
  8 10  2  0
  7 11  2  0
 11 12  1  0
 12 13  2  0
 13 14  1  0
 14 15  2  0
 15 16  1  0
 16 17  2  0
 17 18  1  0
 18 19  2  0
 19 20  1  0
 15 21  1  0
 21 22  2  0
 22  6  1  0
 22 12  1  0
 20 16  1  0
  1 23  1  0
  1 24  1  0
  1 25  1  0
  2 26  1  0
  2 27  1  0
  9 28  1  0
  9 29  1  0
 11 30  1  0
 13 31  1  0
 14 32  1  0
 17 33  1  0
 18 34  1  0
 19 35  1  0
 21 36  1  0
M  END
>  <UniqueID>  (12) 
12

>  <SMILES>  (12) 
CCOC(=O)n1c(C(N)=O)cc2ccc(-c3cccs3)cc21

>  <Energy>  (12) 
101.13617042846637

>  <Genealogy>  (12) 
CCOC(=O)n1c(C(N)=O)cc2ccc(-c3cccs3)cc21 (3D coordinates assigned)
CCOC(=O)n1c(C(N)=O)cc2ccc(-c3cccs3)cc21 (optimized conformer: 101.13617042846637 kcal/mol)

>  <smiles>  (12) 
CCOC(=O)n1c(C(N)=O)cc2ccc(-c3cccs3)cc21

>  <score_type>  (12) 
oracle

>  <origin>  (12) 
adg

>  <m_score__min__energy>  (12) 
-9.0500000000000007

>  <m_primary>  (12) 
energy

$$$$
12:0
     RDKit          3D

 38 40  0  0  0  0  0  0  0  0999 V2000
   -7.9840   18.1330  -32.7130 C   0  0  0  0  0  0  0  0  0  0  0  0
   -7.9130   19.5350  -32.1880 C   0  0  0  0  0  0  0  0  0  0  0  0
   -9.0980   20.2990  -32.0430 C   0  0  0  0  0  0  0  0  0  0  0  0
   -9.0410   21.6310  -31.6000 C   0  0  0  0  0  0  0  0  0  0  0  0
   -7.7890   22.1710  -31.3150 C   0  0  0  0  0  0  0  0  0  0  0  0
   -7.4460   23.4360  -30.8990 C   0  0  0  0  0  0  0  0  0  0  0  0
   -6.0580   23.4260  -30.7900 C   0  0  0  0  0  0  0  0  0  0  0  0
   -5.2610   24.5630  -30.2790 C   0  0  0  0  0  0  0  0  0  0  0  0
   -5.2660   24.8920  -28.8890 N   0  0  0  0  0  0  0  0  0  0  0  0
   -4.5430   25.2380  -31.0650 O   0  0  0  0  0  0  0  0  0  0  0  0
   -5.5610   22.2020  -31.1280 N   0  0  0  0  0  0  0  0  0  0  0  0
   -4.1800   21.8130  -31.2130 C   0  0  0  0  0  0  0  0  0  0  0  0
   -3.5340   21.5620  -30.1600 O   0  0  0  0  0  0  0  0  0  0  0  0
   -3.5680   21.6420  -32.4970 N   0  0  0  0  0  0  0  0  0  0  0  0
   -3.1680   20.3990  -33.0990 C   0  0  0  0  0  0  0  0  0  0  0  0
   -4.1090   19.4440  -33.5200 C   0  0  0  0  0  0  0  0  0  0  0  0
   -3.6810   18.2380  -34.0760 C   0  0  0  0  0  0  0  0  0  0  0  0
   -2.3160   17.9870  -34.1950 C   0  0  0  0  0  0  0  0  0  0  0  0
   -1.4140   18.9060  -33.7620 N   0  0  0  0  0  0  0  0  0  0  0  0
   -1.7990   20.0920  -33.2140 C   0  0  0  0  0  0  0  0  0  0  0  0
   -0.7490   21.0570  -32.7530 C   0  0  0  0  0  0  0  0  0  0  0  0
   -6.6330   21.4440  -31.4470 C   0  0  0  0  0  0  0  0  0  0  0  0
   -6.6600   20.1210  -31.9050 C   0  0  0  0  0  0  0  0  0  0  0  0
   -8.0197   17.4272  -31.8701 H   0  0  0  0  0  0  0  0  0  0  0  0
   -8.8892   18.0168  -33.3271 H   0  0  0  0  0  0  0  0  0  0  0  0
   -7.0952   17.9260  -33.3271 H   0  0  0  0  0  0  0  0  0  0  0  0
  -10.0715   19.8447  -32.2796 H   0  0  0  0  0  0  0  0  0  0  0  0
   -9.9567   22.2290  -31.4819 H   0  0  0  0  0  0  0  0  0  0  0  0
   -8.1245   24.2776  -30.6955 H   0  0  0  0  0  0  0  0  0  0  0  0
   -4.6710   25.6730  -28.5330 H   0  0  0  0  0  0  0  0  0  0  0  0
   -5.8870   24.3920  -28.2160 H   0  0  0  0  0  0  0  0  0  0  0  0
   -5.1845   19.6475  -33.4111 H   0  0  0  0  0  0  0  0  0  0  0  0
   -4.4145   17.4926  -34.4171 H   0  0  0  0  0  0  0  0  0  0  0  0
   -1.9679   17.0433  -34.6402 H   0  0  0  0  0  0  0  0  0  0  0  0
   -0.7270   21.0772  -31.6534 H   0  0  0  0  0  0  0  0  0  0  0  0
    0.2331   20.7397  -33.1336 H   0  0  0  0  0  0  0  0  0  0  0  0
   -0.9824   22.0623  -33.1336 H   0  0  0  0  0  0  0  0  0  0  0  0
   -5.7282   19.5524  -32.0409 H   0  0  0  0  0  0  0  0  0  0  0  0
  1  2  1  0
  2  3  2  0
  3  4  1  0
  4  5  2  0
  5  6  1  0
  6  7  2  0
  7  8  1  0
  8  9  1  0
  8 10  2  0
  7 11  1  0
 11 12  1  0
 12 13  2  0
 12 14  1  0
 14 15  1  0
 15 16  2  0
 16 17  1  0
 17 18  2  0
 18 19  1  0
 19 20  2  0
 20 21  1  0
 11 22  1  0
 22 23  2  0
 23  2  1  0
 22  5  1  0
 20 15  1  0
  1 24  1  0
  1 25  1  0
  1 26  1  0
  3 27  1  0
  4 28  1  0
  6 29  1  0
  9 30  1  0
  9 31  1  0
 16 32  1  0
 17 33  1  0
 18 34  1  0
 21 35  1  0
 21 36  1  0
 21 37  1  0
 23 38  1  0
M  CHG  1  14  -1
M  END
>  <UniqueID>  (13) 
13

>  <SMILES>  (13) 
Cc1ccc2cc(C(N)=O)n(C(=O)[N-]c3cccnc3C)c2c1

>  <Energy>  (13) 
82.0820054966815

>  <Genealogy>  (13) 
Cc1ccc2cc(C(N)=O)n(C(=O)[N-]c3cccnc3C)c2c1 (protonated)
Cc1ccc2cc(C(N)=O)n(C(=O)[N-]c3cccnc3C)c2c1 (3D coordinates assigned)
Cc1ccc2cc(C(N)=O)n(C(=O)[N-]c3cccnc3C)c2c1 (optimized conformer: 82.0820054966815 kcal/mol)

>  <smiles>  (13) 
Cc1ccc2cc(C(N)=O)n(C(=O)Nc3cccnc3C)c2c1

>  <score_type>  (13) 
oracle

>  <origin>  (13) 
adg

>  <m_score__min__energy>  (13) 
-9.5299999999999994

>  <m_primary>  (13) 
energy

$$$$
13:0
     RDKit          3D

 47 48  0  0  0  0  0  0  0  0999 V2000
   -0.8950   20.1770  -28.7230 C   0  0  0  0  0  0  0  0  0  0  0  0
   -2.1070   21.0050  -28.8410 N   0  0  0  0  0  0  0  0  0  0  0  0
   -3.0860   20.9700  -27.7530 C   0  0  0  0  0  0  0  0  0  0  0  0
   -2.2760   21.9360  -29.9360 C   0  0  0  0  0  0  0  0  0  0  0  0
   -1.4710   21.9370  -30.9080 O   0  0  0  0  0  0  0  0  0  0  0  0
   -3.3500   22.8840  -29.9410 N   0  0  0  0  0  0  0  0  0  0  0  0
   -3.3180   24.1550  -29.4560 C   0  0  0  0  0  0  0  0  0  0  0  0
   -2.2600   24.7150  -28.5910 C   0  0  0  0  0  0  0  0  0  0  0  0
   -1.5940   25.9190  -28.9670 N   0  0  0  0  0  0  0  0  0  0  0  0
   -1.9620   24.1560  -27.4960 O   0  0  0  0  0  0  0  0  0  0  0  0
   -4.4690   24.8480  -29.8320 C   0  0  0  0  0  0  0  0  0  0  0  0
   -5.2060   23.9550  -30.5790 C   0  0  0  0  0  0  0  0  0  0  0  0
   -6.4260   24.1140  -31.2300 C   0  0  0  0  0  0  0  0  0  0  0  0
   -6.9420   23.0120  -31.9420 C   0  0  0  0  0  0  0  0  0  0  0  0
   -6.2240   21.7860  -32.0120 C   0  0  0  0  0  0  0  0  0  0  0  0
   -6.8560   20.5870  -32.6970 C   0  0  1  0  0  0  0  0  0  0  0  0
   -6.0780   19.2720  -32.4020 C   0  0  0  0  0  0  0  0  0  0  0  0
   -6.2630   18.0920  -33.4070 C   0  0  0  0  0  0  0  0  0  0  0  0
   -5.5190   16.8270  -32.9200 C   0  0  0  0  0  0  0  0  0  0  0  0
   -5.7840   18.4720  -34.8250 C   0  0  0  0  0  0  0  0  0  0  0  0
   -7.6460   17.8110  -33.4490 O   0  0  0  0  0  0  0  0  0  0  0  0
   -8.2960   20.5130  -32.2600 C   0  0  0  0  0  0  0  0  0  0  0  0
   -9.1800   20.1030  -33.0610 O   0  0  0  0  0  0  0  0  0  0  0  0
   -8.6740   20.9520  -30.9930 O   0  0  0  0  0  0  0  0  0  0  0  0
   -4.9850   21.6670  -31.3320 C   0  0  0  0  0  0  0  0  0  0  0  0
   -4.5080   22.7770  -30.6230 C   0  0  0  0  0  0  0  0  0  0  0  0
   -0.6618   20.0177  -27.6599 H   0  0  0  0  0  0  0  0  0  0  0  0
   -1.0655   19.2058  -29.2105 H   0  0  0  0  0  0  0  0  0  0  0  0
   -0.0523   20.6890  -29.2105 H   0  0  0  0  0  0  0  0  0  0  0  0
   -2.5610   20.9888  -26.7866 H   0  0  0  0  0  0  0  0  0  0  0  0
   -3.7484   21.8450  -27.8275 H   0  0  0  0  0  0  0  0  0  0  0  0
   -3.6842   20.0499  -27.8275 H   0  0  0  0  0  0  0  0  0  0  0  0
   -1.2360   26.0540  -29.9400 H   0  0  0  0  0  0  0  0  0  0  0  0
   -4.7323   25.8870  -29.5846 H   0  0  0  0  0  0  0  0  0  0  0  0
   -6.9702   25.0691  -31.1902 H   0  0  0  0  0  0  0  0  0  0  0  0
   -7.9133   23.1015  -32.4505 H   0  0  0  0  0  0  0  0  0  0  0  0
   -6.8095   20.7098  -33.7891 H   0  0  0  0  0  0  0  0  0  0  0  0
   -5.0066   19.5201  -32.3768 H   0  0  0  0  0  0  0  0  0  0  0  0
   -6.4943   18.9035  -31.4529 H   0  0  0  0  0  0  0  0  0  0  0  0
   -5.5082   16.8086  -31.8202 H   0  0  0  0  0  0  0  0  0  0  0  0
   -6.0340   15.9309  -33.2967 H   0  0  0  0  0  0  0  0  0  0  0  0
   -4.4856   16.8416  -33.2967 H   0  0  0  0  0  0  0  0  0  0  0  0
   -4.9242   19.1541  -34.7511 H   0  0  0  0  0  0  0  0  0  0  0  0
   -5.4851   17.5627  -35.3670 H   0  0  0  0  0  0  0  0  0  0  0  0
   -6.6015   18.9699  -35.3670 H   0  0  0  0  0  0  0  0  0  0  0  0
   -8.1390   18.6580  -33.6160 H   0  0  0  0  0  0  0  0  0  0  0  0
   -4.4135   20.7275  -31.3606 H   0  0  0  0  0  0  0  0  0  0  0  0
  1  2  1  0
  2  3  1  0
  2  4  1  0
  4  5  2  0
  4  6  1  0
  6  7  1  0
  7  8  1  0
  8  9  1  0
  8 10  2  0
  7 11  2  0
 11 12  1  0
 12 13  2  0
 13 14  1  0
 14 15  2  0
 15 16  1  0
 16 17  1  0
 17 18  1  0
 18 19  1  0
 18 20  1  0
 18 21  1  0
 16 22  1  0
 22 23  2  0
 22 24  1  0
 15 25  1  0
 25 26  2  0
 26  6  1  0
 26 12  1  0
  1 27  1  0
  1 28  1  0
  1 29  1  0
  3 30  1  0
  3 31  1  0
  3 32  1  0
  9 33  1  0
 11 34  1  0
 13 35  1  0
 14 36  1  0
 16 37  1  6
 17 38  1  0
 17 39  1  0
 19 40  1  0
 19 41  1  0
 19 42  1  0
 20 43  1  0
 20 44  1  0
 20 45  1  0
 21 46  1  0
 25 47  1  0
M  CHG  2   9  -1  24  -1
M  END
>  <UniqueID>  (14) 
14

>  <SMILES>  (14) 
CN(C)C(=O)n1c(C([NH-])=O)cc2ccc([C@@H](CC(C)(C)O)C(=O)[O-])cc21

>  <Energy>  (14) 
86.70834882417279

>  <Genealogy>  (14) 
CN(C)C(=O)n1c(C([NH-])=O)cc2ccc([C@@H](CC(C)(C)O)C(=O)[O-])cc21 (protonated)
CN(C)C(=O)n1c(C([NH-])=O)cc2ccc([C@@H](CC(C)(C)O)C(=O)[O-])cc21 (3D coordinates assigned)
CN(C)C(=O)n1c(C([NH-])=O)cc2ccc([C@@H](CC(C)(C)O)C(=O)[O-])cc21 (optimized conformer: 86.70834882417279 kcal/mol)

>  <smiles>  (14) 
CN(C)C(=O)n1c(C(N)=O)cc2ccc([C@@H](CC(C)(C)O)C(=O)O)cc21

>  <score_type>  (14) 
oracle

>  <origin>  (14) 
adg

>  <m_score__min__energy>  (14) 
-10.460000000000001

>  <m_primary>  (14) 
energy

$$$$
14:0
     RDKit          3D

 46 48  0  0  0  0  0  0  0  0999 V2000
   -6.2260   23.7810  -31.7970 C   0  0  0  0  0  0  0  0  0  0  0  0
   -6.3020   23.7680  -30.2580 C   0  0  0  0  0  0  0  0  0  0  0  0
   -7.2710   22.6740  -29.7710 C   0  0  0  0  0  0  0  0  0  0  0  0
   -6.8120   25.1330  -29.7750 C   0  0  0  0  0  0  0  0  0  0  0  0
   -4.9980   23.5790  -29.6910 O   0  0  0  0  0  0  0  0  0  0  0  0
   -3.7800   24.0130  -30.2390 C   0  0  0  0  0  0  0  0  0  0  0  0
   -3.6480   25.1900  -30.6710 O   0  0  0  0  0  0  0  0  0  0  0  0
   -2.6660   23.1100  -30.2850 N   0  0  0  0  0  0  0  0  0  0  0  0
   -1.3990   23.3280  -29.8300 C   0  0  0  0  0  0  0  0  0  0  0  0
   -0.9500   24.4860  -29.0310 C   0  0  0  0  0  0  0  0  0  0  0  0
   -1.7260   25.6810  -28.9730 N   0  0  0  0  0  0  0  0  0  0  0  0
    0.1070   24.4030  -28.3510 O   0  0  0  0  0  0  0  0  0  0  0  0
   -0.5710   22.2550  -30.1560 C   0  0  0  0  0  0  0  0  0  0  0  0
   -1.3790   21.3620  -30.8230 C   0  0  0  0  0  0  0  0  0  0  0  0
   -1.0710   20.1270  -31.3850 C   0  0  0  0  0  0  0  0  0  0  0  0
   -2.0960   19.4310  -32.0480 C   0  0  0  0  0  0  0  0  0  0  0  0
   -3.4020   19.9790  -32.1450 C   0  0  0  0  0  0  0  0  0  0  0  0
   -4.4740   19.2410  -32.8580 C   0  0  0  0  0  0  0  0  0  0  0  0
   -4.1650   18.4190  -33.9560 C   0  0  0  0  0  0  0  0  0  0  0  0
   -5.1750   17.7280  -34.6280 C   0  0  0  0  0  0  0  0  0  0  0  0
   -6.5040   17.8460  -34.2150 C   0  0  0  0  0  0  0  0  0  0  0  0
   -6.8400   18.6610  -33.1210 C   0  0  0  0  0  0  0  0  0  0  0  0
   -8.2100   18.7780  -32.6970 N   0  0  0  0  0  0  0  0  0  0  0  0
   -8.7330   17.8990  -31.9810 O   0  0  0  0  0  0  0  0  0  0  0  0
   -8.9680   19.8630  -33.0740 O   0  0  0  0  0  0  0  0  0  0  0  0
   -5.8160   19.3560  -32.4480 C   0  0  0  0  0  0  0  0  0  0  0  0
   -3.6720   21.2400  -31.5590 C   0  0  0  0  0  0  0  0  0  0  0  0
   -2.6360   21.9000  -30.8880 C   0  0  0  0  0  0  0  0  0  0  0  0
   -5.1870   23.9587  -32.1113 H   0  0  0  0  0  0  0  0  0  0  0  0
   -6.5670   22.8115  -32.1892 H   0  0  0  0  0  0  0  0  0  0  0  0
   -6.8698   24.5821  -32.1892 H   0  0  0  0  0  0  0  0  0  0  0  0
   -7.2843   22.6590  -28.6712 H   0  0  0  0  0  0  0  0  0  0  0  0
   -8.2827   22.8864  -30.1470 H   0  0  0  0  0  0  0  0  0  0  0  0
   -6.9380   21.6954  -30.1470 H   0  0  0  0  0  0  0  0  0  0  0  0
   -6.8196   25.1534  -28.6752 H   0  0  0  0  0  0  0  0  0  0  0  0
   -6.1496   25.9262  -30.1518 H   0  0  0  0  0  0  0  0  0  0  0  0
   -7.8323   25.2975  -30.1518 H   0  0  0  0  0  0  0  0  0  0  0  0
   -2.7430   25.6740  -29.2090 H   0  0  0  0  0  0  0  0  0  0  0  0
    0.4997   22.1452  -29.9288 H   0  0  0  0  0  0  0  0  0  0  0  0
   -0.0564   19.7084  -31.3125 H   0  0  0  0  0  0  0  0  0  0  0  0
   -1.8838   18.4496  -32.4973 H   0  0  0  0  0  0  0  0  0  0  0  0
   -3.1209   18.3197  -34.2877 H   0  0  0  0  0  0  0  0  0  0  0  0
   -4.9230   17.0879  -35.4864 H   0  0  0  0  0  0  0  0  0  0  0  0
   -7.2930   17.2971  -34.7499 H   0  0  0  0  0  0  0  0  0  0  0  0
   -6.0683   19.9972  -31.5906 H   0  0  0  0  0  0  0  0  0  0  0  0
   -4.6731   21.6903  -31.6297 H   0  0  0  0  0  0  0  0  0  0  0  0
  1  2  1  0
  2  3  1  0
  2  4  1  0
  2  5  1  0
  5  6  1  0
  6  7  2  0
  6  8  1  0
  8  9  1  0
  9 10  1  0
 10 11  1  0
 10 12  2  0
  9 13  2  0
 13 14  1  0
 14 15  2  0
 15 16  1  0
 16 17  2  0
 17 18  1  0
 18 19  2  0
 19 20  1  0
 20 21  2  0
 21 22  1  0
 22 23  1  0
 23 24  2  0
 23 25  1  0
 22 26  2  0
 17 27  1  0
 27 28  2  0
 28  8  1  0
 28 14  1  0
 26 18  1  0
  1 29  1  0
  1 30  1  0
  1 31  1  0
  3 32  1  0
  3 33  1  0
  3 34  1  0
  4 35  1  0
  4 36  1  0
  4 37  1  0
 11 38  1  0
 13 39  1  0
 15 40  1  0
 16 41  1  0
 19 42  1  0
 20 43  1  0
 21 44  1  0
 26 45  1  0
 27 46  1  0
M  CHG  3  11  -1  23   1  25  -1
M  END
>  <UniqueID>  (15) 
15

>  <SMILES>  (15) 
CC(C)(C)OC(=O)n1c(C([NH-])=O)cc2ccc(-c3cccc([N+](=O)[O-])c3)cc21

>  <Energy>  (15) 
88.98491806952566

>  <Genealogy>  (15) 
CC(C)(C)OC(=O)n1c(C([NH-])=O)cc2ccc(-c3cccc([N+](=O)[O-])c3)cc21 (protonated)
CC(C)(C)OC(=O)n1c(C([NH-])=O)cc2ccc(-c3cccc([N+](=O)[O-])c3)cc21 (3D coordinates assigned)
CC(C)(C)OC(=O)n1c(C([NH-])=O)cc2ccc(-c3cccc([N+](=O)[O-])c3)cc21 (optimized conformer: 88.98491806952566 kcal/mol)

>  <smiles>  (15) 
CC(C)(C)OC(=O)n1c(C(N)=O)cc2ccc(-c3cccc([N+](=O)[O-])c3)cc21

>  <score_type>  (15) 
oracle

>  <origin>  (15) 
adg

>  <m_score__min__energy>  (15) 
-11.859999999999999

>  <m_primary>  (15) 
energy

$$$$
15:0
     RDKit          3D

 47 49  0  0  0  0  0  0  0  0999 V2000
   -2.4670   20.1050  -33.5600 C   0  0  0  0  0  0  0  0  0  0  0  0
   -2.1520   20.9010  -32.3000 C   0  0  0  0  0  0  0  0  0  0  0  0
   -2.8010   22.1710  -32.3330 O   0  0  0  0  0  0  0  0  0  0  0  0
   -3.4820   22.7170  -31.2390 C   0  0  0  0  0  0  0  0  0  0  0  0
   -2.8420   23.1570  -30.2440 O   0  0  0  0  0  0  0  0  0  0  0  0
   -4.9150   22.8040  -31.2620 N   0  0  0  0  0  0  0  0  0  0  0  0
   -5.6920   23.8980  -31.0220 C   0  0  0  0  0  0  0  0  0  0  0  0
   -5.2190   25.2070  -30.5240 C   0  0  0  0  0  0  0  0  0  0  0  0
   -3.9060   25.6740  -30.8190 N   0  0  0  0  0  0  0  0  0  0  0  0
   -5.9700   25.9010  -29.7870 O   0  0  0  0  0  0  0  0  0  0  0  0
   -7.0360   23.5970  -31.2310 C   0  0  0  0  0  0  0  0  0  0  0  0
   -7.0610   22.2710  -31.5990 C   0  0  0  0  0  0  0  0  0  0  0  0
   -8.1360   21.4550  -31.9320 C   0  0  0  0  0  0  0  0  0  0  0  0
   -7.8660   20.1270  -32.3010 C   0  0  0  0  0  0  0  0  0  0  0  0
   -6.5340   19.6390  -32.3380 C   0  0  0  0  0  0  0  0  0  0  0  0
   -6.2580   18.2360  -32.7420 C   0  0  0  0  0  0  0  0  0  0  0  0
   -6.3800   17.8260  -34.0760 C   0  0  0  0  0  0  0  0  0  0  0  0
   -6.1250   16.5390  -34.4200 N   0  0  0  0  0  0  0  0  0  0  0  0
   -5.7290   15.6200  -33.4970 C   0  0  0  0  0  0  0  0  0  0  0  0
   -5.5000   14.1750  -33.9050 C   0  0  0  0  0  0  0  0  0  0  0  0
   -4.3280   14.0620  -34.9030 C   0  0  0  0  0  0  0  0  0  0  0  0
   -6.7890   13.6350  -34.5470 C   0  0  0  0  0  0  0  0  0  0  0  0
   -5.1900   13.4280  -32.7500 O   0  0  0  0  0  0  0  0  0  0  0  0
   -5.6260   15.9920  -32.1870 N   0  0  0  0  0  0  0  0  0  0  0  0
   -5.8750   17.2710  -31.8000 C   0  0  0  0  0  0  0  0  0  0  0  0
   -5.4670   20.5030  -31.9920 C   0  0  0  0  0  0  0  0  0  0  0  0
   -5.7680   21.8160  -31.6110 C   0  0  0  0  0  0  0  0  0  0  0  0
   -2.8585   19.1158  -33.2805 H   0  0  0  0  0  0  0  0  0  0  0  0
   -3.2201   20.6427  -34.1547 H   0  0  0  0  0  0  0  0  0  0  0  0
   -1.5499   19.9817  -34.1547 H   0  0  0  0  0  0  0  0  0  0  0  0
   -2.5010   20.3394  -31.4209 H   0  0  0  0  0  0  0  0  0  0  0  0
   -1.0650   21.0596  -32.2432 H   0  0  0  0  0  0  0  0  0  0  0  0
   -3.0760   25.3030  -30.3070 H   0  0  0  0  0  0  0  0  0  0  0  0
   -7.8953   24.2754  -31.1245 H   0  0  0  0  0  0  0  0  0  0  0  0
   -9.1669   21.8378  -31.9073 H   0  0  0  0  0  0  0  0  0  0  0  0
   -8.6975   19.4568  -32.5646 H   0  0  0  0  0  0  0  0  0  0  0  0
   -6.6835   18.5499  -34.8467 H   0  0  0  0  0  0  0  0  0  0  0  0
   -3.3821   13.9708  -34.3489 H   0  0  0  0  0  0  0  0  0  0  0  0
   -4.4695   13.1733  -35.5357 H   0  0  0  0  0  0  0  0  0  0  0  0
   -4.2971   14.9613  -35.5357 H   0  0  0  0  0  0  0  0  0  0  0  0
   -7.4956   13.3390  -33.7577 H   0  0  0  0  0  0  0  0  0  0  0  0
   -7.2437   14.4183  -35.1713 H   0  0  0  0  0  0  0  0  0  0  0  0
   -6.5496   12.7615  -35.1713 H   0  0  0  0  0  0  0  0  0  0  0  0
   -4.8220   12.5510  -33.0380 H   0  0  0  0  0  0  0  0  0  0  0  0
   -5.3560   15.2940  -31.4590 H   0  0  0  0  0  0  0  0  0  0  0  0
   -5.7753   17.5507  -30.7408 H   0  0  0  0  0  0  0  0  0  0  0  0
   -4.4254   20.1506  -32.0219 H   0  0  0  0  0  0  0  0  0  0  0  0
  1  2  1  0
  2  3  1  0
  3  4  1  0
  4  5  2  0
  4  6  1  0
  6  7  1  0
  7  8  1  0
  8  9  1  0
  8 10  2  0
  7 11  2  0
 11 12  1  0
 12 13  2  0
 13 14  1  0
 14 15  2  0
 15 16  1  0
 16 17  2  0
 17 18  1  0
 18 19  2  0
 19 20  1  0
 20 21  1  0
 20 22  1  0
 20 23  1  0
 19 24  1  0
 24 25  2  0
 15 26  1  0
 26 27  2  0
 27  6  1  0
 27 12  1  0
 25 16  1  0
  1 28  1  0
  1 29  1  0
  1 30  1  0
  2 31  1  0
  2 32  1  0
  9 33  1  0
 11 34  1  0
 13 35  1  0
 14 36  1  0
 17 37  1  0
 21 38  1  0
 21 39  1  0
 21 40  1  0
 22 41  1  0
 22 42  1  0
 22 43  1  0
 23 44  1  0
 24 45  1  0
 25 46  1  0
 26 47  1  0
M  CHG  2   9  -1  24   1
M  END
>  <UniqueID>  (16) 
16

>  <SMILES>  (16) 
CCOC(=O)n1c(C([NH-])=O)cc2ccc(-c3cnc(C(C)(C)O)[nH+]c3)cc21

>  <Energy>  (16) 
88.42456145571711

>  <Genealogy>  (16) 
CCOC(=O)n1c(C([NH-])=O)cc2ccc(-c3cnc(C(C)(C)O)[nH+]c3)cc21 (protonated)
CCOC(=O)n1c(C([NH-])=O)cc2ccc(-c3cnc(C(C)(C)O)[nH+]c3)cc21 (3D coordinates assigned)
CCOC(=O)n1c(C([NH-])=O)cc2ccc(-c3cnc(C(C)(C)O)[nH+]c3)cc21 (optimized conformer: 88.42456145571711 kcal/mol)

>  <smiles>  (16) 
CCOC(=O)n1c(C(N)=O)cc2ccc(-c3cnc(C(C)(C)O)nc3)cc21

>  <score_type>  (16) 
oracle

>  <origin>  (16) 
adg

>  <m_score__min__energy>  (16) 
-9.7599999999999998

>  <m_primary>  (16) 
energy

$$$$
17:0
     RDKit          3D

 38 40  0  0  0  0  0  0  0  0999 V2000
   -9.0820   18.5610  -31.5850 C   0  0  0  0  0  0  0  0  0  0  0  0
   -8.5620   19.9570  -31.7210 C   0  0  0  0  0  0  0  0  0  0  0  0
   -9.3370   21.0500  -31.5730 N   0  0  0  0  0  0  0  0  0  0  0  0
   -8.5450   22.1000  -31.8560 C   0  0  0  0  0  0  0  0  0  0  0  0
   -7.2900   21.6290  -32.1840 C   0  0  0  0  0  0  0  0  0  0  0  0
   -7.3030   20.2840  -32.1010 N   0  0  0  0  0  0  0  0  0  0  0  0
   -6.2000   19.3910  -32.4640 C   0  0  0  0  0  0  0  0  0  0  0  0
   -5.2330   20.0650  -33.4470 C   0  0  0  0  0  0  0  0  0  0  0  0
   -4.0340   20.6360  -32.7380 C   0  0  0  0  0  0  0  0  0  0  0  0
   -2.8040   19.9310  -32.7410 C   0  0  0  0  0  0  0  0  0  0  0  0
   -1.6930   20.4300  -32.0400 C   0  0  0  0  0  0  0  0  0  0  0  0
   -1.8480   21.6180  -31.3320 C   0  0  0  0  0  0  0  0  0  0  0  0
   -0.9400   22.3220  -30.5740 C   0  0  0  0  0  0  0  0  0  0  0  0
   -1.6390   23.4250  -30.0890 C   0  0  0  0  0  0  0  0  0  0  0  0
   -1.0580   24.4060  -29.1480 C   0  0  0  0  0  0  0  0  0  0  0  0
   -1.6900   25.6700  -28.9600 N   0  0  0  0  0  0  0  0  0  0  0  0
    0.0130   24.1550  -28.5350 O   0  0  0  0  0  0  0  0  0  0  0  0
   -2.9280   23.4100  -30.5370 N   0  0  0  0  0  0  0  0  0  0  0  0
   -3.9590   24.3830  -30.3010 C   0  0  0  0  0  0  0  0  0  0  0  0
   -4.9370   24.1070  -29.5570 O   0  0  0  0  0  0  0  0  0  0  0  0
   -3.8760   25.6460  -30.8740 O   0  0  0  0  0  0  0  0  0  0  0  0
   -3.0390   22.2970  -31.2960 C   0  0  0  0  0  0  0  0  0  0  0  0
   -4.1520   21.8400  -32.0080 C   0  0  0  0  0  0  0  0  0  0  0  0
   -9.1765   18.3072  -30.5189 H   0  0  0  0  0  0  0  0  0  0  0  0
  -10.0676   18.4881  -32.0681 H   0  0  0  0  0  0  0  0  0  0  0  0
   -8.3843   17.8611  -32.0681 H   0  0  0  0  0  0  0  0  0  0  0  0
  -10.3490   21.0800  -31.3160 H   0  0  0  0  0  0  0  0  0  0  0  0
   -8.8473   23.1573  -31.8303 H   0  0  0  0  0  0  0  0  0  0  0  0
   -6.4249   22.2472  -32.4657 H   0  0  0  0  0  0  0  0  0  0  0  0
   -5.6490   19.1145  -31.5530 H   0  0  0  0  0  0  0  0  0  0  0  0
   -6.6225   18.4997  -32.9508 H   0  0  0  0  0  0  0  0  0  0  0  0
   -4.8927   19.3199  -34.1811 H   0  0  0  0  0  0  0  0  0  0  0  0
   -5.7652   20.8897  -33.9437 H   0  0  0  0  0  0  0  0  0  0  0  0
   -2.7186   18.9855  -33.2967 H   0  0  0  0  0  0  0  0  0  0  0  0
   -0.7303   19.8979  -32.0506 H   0  0  0  0  0  0  0  0  0  0  0  0
    0.1143   22.0675  -30.3902 H   0  0  0  0  0  0  0  0  0  0  0  0
   -2.7250   25.7720  -29.0580 H   0  0  0  0  0  0  0  0  0  0  0  0
   -5.0964   22.4039  -32.0001 H   0  0  0  0  0  0  0  0  0  0  0  0
  1  2  1  0
  2  3  2  0
  3  4  1  0
  4  5  2  0
  5  6  1  0
  6  7  1  0
  7  8  1  0
  8  9  1  0
  9 10  2  0
 10 11  1  0
 11 12  2  0
 12 13  1  0
 13 14  2  0
 14 15  1  0
 15 16  1  0
 15 17  2  0
 14 18  1  0
 18 19  1  0
 19 20  2  0
 19 21  1  0
 18 22  1  0
 22 23  2  0
  6  2  1  0
 23  9  1  0
 22 12  1  0
  1 24  1  0
  1 25  1  0
  1 26  1  0
  3 27  1  0
  4 28  1  0
  5 29  1  0
  7 30  1  0
  7 31  1  0
  8 32  1  0
  8 33  1  0
 10 34  1  0
 11 35  1  0
 13 36  1  0
 16 37  1  0
 23 38  1  0
M  CHG  3   3   1  16  -1  21  -1
M  END
>  <UniqueID>  (17) 
17

>  <SMILES>  (17) 
Cc1[nH+]ccn1CCc1ccc2cc(C([NH-])=O)n(C(=O)[O-])c2c1

>  <Energy>  (17) 
103.74942151443321

>  <Genealogy>  (17) 
Cc1[nH+]ccn1CCc1ccc2cc(C([NH-])=O)n(C(=O)[O-])c2c1 (protonated)
Cc1[nH+]ccn1CCc1ccc2cc(C([NH-])=O)n(C(=O)[O-])c2c1 (3D coordinates assigned)
Cc1[nH+]ccn1CCc1ccc2cc(C([NH-])=O)n(C(=O)[O-])c2c1 (optimized conformer: 103.74942151443321 kcal/mol)

>  <smiles>  (17) 
Cc1nccn1CCc1ccc2cc(C(N)=O)n(C(=O)O)c2c1

>  <score_type>  (17) 
oracle

>  <origin>  (17) 
adg

>  <m_score__min__energy>  (17) 
-11.02

>  <m_primary>  (17) 
energy

$$$$
18:0
     RDKit          3D

 37 39  0  0  0  0  0  0  0  0999 V2000
   -3.2150   24.1820  -30.4540 N   0  0  0  0  0  0  0  0  0  0  0  0
   -3.8740   23.1360  -31.1620 C   0  0  0  0  0  0  0  0  0  0  0  0
   -3.1900   22.3010  -31.8120 O   0  0  0  0  0  0  0  0  0  0  0  0
   -5.3090   23.0370  -31.1480 N   0  0  0  0  0  0  0  0  0  0  0  0
   -6.1990   24.0070  -30.7950 C   0  0  0  0  0  0  0  0  0  0  0  0
   -5.8620   25.3160  -30.2000 C   0  0  0  0  0  0  0  0  0  0  0  0
   -6.4920   25.7700  -29.0010 N   0  0  0  0  0  0  0  0  0  0  0  0
   -5.0440   26.0710  -30.7910 O   0  0  0  0  0  0  0  0  0  0  0  0
   -7.5050   23.5840  -31.0230 C   0  0  0  0  0  0  0  0  0  0  0  0
   -7.3910   22.3070  -31.5210 C   0  0  0  0  0  0  0  0  0  0  0  0
   -8.3780   21.4190  -31.9310 C   0  0  0  0  0  0  0  0  0  0  0  0
   -7.9750   20.1740  -32.4420 C   0  0  0  0  0  0  0  0  0  0  0  0
   -6.5980   19.8420  -32.5450 C   0  0  0  0  0  0  0  0  0  0  0  0
   -6.1830   18.5270  -33.0970 C   0  0  0  0  0  0  0  0  0  0  0  0
   -5.7630   18.4130  -34.4340 C   0  0  0  0  0  0  0  0  0  0  0  0
   -5.3700   17.1760  -34.9540 C   0  0  0  0  0  0  0  0  0  0  0  0
   -5.3870   16.0260  -34.1420 C   0  0  0  0  0  0  0  0  0  0  0  0
   -5.0010   14.7600  -34.6100 O   0  0  0  0  0  0  0  0  0  0  0  0
   -5.7910   13.5750  -34.5310 C   0  0  0  0  0  0  0  0  0  0  0  0
   -5.4410   12.7000  -35.5430 F   0  0  0  0  0  0  0  0  0  0  0  0
   -7.1220   13.9130  -34.6760 F   0  0  0  0  0  0  0  0  0  0  0  0
   -5.6180   12.9680  -33.3000 F   0  0  0  0  0  0  0  0  0  0  0  0
   -5.8040   16.1390  -32.8120 C   0  0  0  0  0  0  0  0  0  0  0  0
   -6.2000   17.3740  -32.2920 C   0  0  0  0  0  0  0  0  0  0  0  0
   -5.6250   20.7770  -32.1190 C   0  0  0  0  0  0  0  0  0  0  0  0
   -6.0560   21.9990  -31.5890 C   0  0  0  0  0  0  0  0  0  0  0  0
   -3.1550   25.1450  -30.8530 H   0  0  0  0  0  0  0  0  0  0  0  0
   -7.2900   25.2450  -28.5810 H   0  0  0  0  0  0  0  0  0  0  0  0
   -6.2190   26.6840  -28.5790 H   0  0  0  0  0  0  0  0  0  0  0  0
   -8.4309   24.1501  -30.8433 H   0  0  0  0  0  0  0  0  0  0  0  0
   -9.4433   21.6831  -31.8576 H   0  0  0  0  0  0  0  0  0  0  0  0
   -8.7349   19.4478  -32.7662 H   0  0  0  0  0  0  0  0  0  0  0  0
   -5.7434   19.3053  -35.0769 H   0  0  0  0  0  0  0  0  0  0  0  0
   -5.0460   17.1010  -36.0025 H   0  0  0  0  0  0  0  0  0  0  0  0
   -5.8204   15.2468  -32.1688 H   0  0  0  0  0  0  0  0  0  0  0  0
   -6.5277   17.4450  -31.2444 H   0  0  0  0  0  0  0  0  0  0  0  0
   -4.5523   20.5484  -32.2026 H   0  0  0  0  0  0  0  0  0  0  0  0
  1  2  1  0
  2  3  2  0
  2  4  1  0
  4  5  1  0
  5  6  1  0
  6  7  1  0
  6  8  2  0
  5  9  2  0
  9 10  1  0
 10 11  2  0
 11 12  1  0
 12 13  2  0
 13 14  1  0
 14 15  2  0
 15 16  1  0
 16 17  2  0
 17 18  1  0
 18 19  1  0
 19 20  1  0
 19 21  1  0
 19 22  1  0
 17 23  1  0
 23 24  2  0
 13 25  1  0
 25 26  2  0
 26  4  1  0
 26 10  1  0
 24 14  1  0
  1 27  1  0
  7 28  1  0
  7 29  1  0
  9 30  1  0
 11 31  1  0
 12 32  1  0
 15 33  1  0
 16 34  1  0
 23 35  1  0
 24 36  1  0
 25 37  1  0
M  CHG  1   1  -1
M  END
>  <UniqueID>  (18) 
18

>  <SMILES>  (18) 
[NH-]C(=O)n1c(C(N)=O)cc2ccc(-c3ccc(OC(F)(F)F)cc3)cc21

>  <Energy>  (18) 
84.86478204656424

>  <Genealogy>  (18) 
[NH-]C(=O)n1c(C(N)=O)cc2ccc(-c3ccc(OC(F)(F)F)cc3)cc21 (protonated)
[NH-]C(=O)n1c(C(N)=O)cc2ccc(-c3ccc(OC(F)(F)F)cc3)cc21 (3D coordinates assigned)
[NH-]C(=O)n1c(C(N)=O)cc2ccc(-c3ccc(OC(F)(F)F)cc3)cc21 (optimized conformer: 84.86478204656424 kcal/mol)

>  <smiles>  (18) 
NC(=O)c1cc2ccc(-c3ccc(OC(F)(F)F)cc3)cc2n1C(N)=O

>  <score_type>  (18) 
oracle

>  <origin>  (18) 
adg

>  <m_score__min__energy>  (18) 
-9.3300000000000001

>  <m_primary>  (18) 
energy

$$$$
19:0
     RDKit          3D

 73 77  0  0  0  0  0  0  0  0999 V2000
   -1.9840   19.2450  -32.7950 C   0  0  0  0  0  0  0  0  0  0  0  0
   -1.6570   18.1140  -33.7560 C   0  0  0  0  0  0  0  0  0  0  0  0
   -1.1360   17.0080  -33.0290 O   0  0  0  0  0  0  0  0  0  0  0  0
   -1.1290   15.7050  -33.5370 C   0  0  0  0  0  0  0  0  0  0  0  0
   -0.0380   15.1020  -33.7400 O   0  0  0  0  0  0  0  0  0  0  0  0
   -2.4350   15.0470  -33.8860 C   0  0  1  0  0  0  0  0  0  0  0  0
   -2.2010   13.6130  -34.3910 C   0  0  0  0  0  0  0  0  0  0  0  0
   -3.5100   12.9730  -34.9000 C   0  0  0  0  0  0  0  0  0  0  0  0
   -4.7860   13.4970  -34.1880 C   0  0  2  0  0  0  0  0  0  0  0  0
   -5.3450   14.6120  -34.8910 O   0  0  0  0  0  0  0  0  0  0  0  0
   -5.6580   15.8640  -34.3360 C   0  0  0  0  0  0  0  0  0  0  0  0
   -6.7840   16.0660  -33.5190 C   0  0  0  0  0  0  0  0  0  0  0  0
   -7.0490   17.3380  -33.0130 C   0  0  0  0  0  0  0  0  0  0  0  0
   -6.1970   18.4110  -33.3120 C   0  0  0  0  0  0  0  0  0  0  0  0
   -6.4750   19.7740  -32.7920 C   0  0  0  0  0  0  0  0  0  0  0  0
   -7.8080   20.2600  -32.7260 C   0  0  0  0  0  0  0  0  0  0  0  0
   -8.0820   21.5480  -32.2350 C   0  0  0  0  0  0  0  0  0  0  0  0
   -7.0090   22.3290  -31.8190 C   0  0  0  0  0  0  0  0  0  0  0  0
   -6.9880   23.5960  -31.2800 C   0  0  0  0  0  0  0  0  0  0  0  0
   -5.6430   23.8700  -31.0320 C   0  0  0  0  0  0  0  0  0  0  0  0
   -5.1510   25.1590  -30.5030 C   0  0  0  0  0  0  0  0  0  0  0  0
   -3.8730   25.6650  -30.8750 N   0  0  0  0  0  0  0  0  0  0  0  0
   -5.8830   25.8400  -29.7360 O   0  0  0  0  0  0  0  0  0  0  0  0
   -4.8690   22.8110  -31.4010 N   0  0  0  0  0  0  0  0  0  0  0  0
   -3.4560   22.6410  -31.2230 C   0  0  0  0  0  0  0  0  0  0  0  0
   -2.7460   22.2890  -32.2030 O   0  0  0  0  0  0  0  0  0  0  0  0
   -2.8560   22.7340  -29.8420 C   0  0  0  0  0  0  0  0  0  0  0  0
   -1.3560   23.0800  -29.8840 C   0  0  0  0  0  0  0  0  0  0  0  0
   -0.7910   23.3110  -28.4680 C   0  0  0  0  0  0  0  0  0  0  0  0
   -1.5290   22.5100  -27.3750 C   0  0  0  0  0  0  0  0  0  0  0  0
   -2.0890   21.1910  -27.9180 C   0  0  0  0  0  0  0  0  0  0  0  0
   -3.0980   21.4190  -29.0640 C   0  0  0  0  0  0  0  0  0  0  0  0
   -5.7180   21.8810  -31.8820 C   0  0  0  0  0  0  0  0  0  0  0  0
   -5.4120   20.6030  -32.3580 C   0  0  0  0  0  0  0  0  0  0  0  0
   -5.0750   18.1640  -34.1200 C   0  0  0  0  0  0  0  0  0  0  0  0
   -4.8350   16.9150  -34.6040 N   0  0  0  0  0  0  0  0  0  0  0  0
   -4.4690   13.9320  -32.7490 C   0  0  0  0  0  0  0  0  0  0  0  0
   -3.4230   15.0660  -32.6920 C   0  0  0  0  0  0  0  0  0  0  0  0
   -1.8807   18.8879  -31.7597 H   0  0  0  0  0  0  0  0  0  0  0  0
   -1.2912   20.0823  -32.9648 H   0  0  0  0  0  0  0  0  0  0  0  0
   -3.0168   19.5834  -32.9648 H   0  0  0  0  0  0  0  0  0  0  0  0
   -2.5712   17.8068  -34.2850 H   0  0  0  0  0  0  0  0  0  0  0  0
   -0.9087   18.4580  -34.4851 H   0  0  0  0  0  0  0  0  0  0  0  0
   -2.8967   15.6279  -34.6980 H   0  0  0  0  0  0  0  0  0  0  0  0
   -1.8023   13.0040  -33.5663 H   0  0  0  0  0  0  0  0  0  0  0  0
   -1.4879   13.6533  -35.2276 H   0  0  0  0  0  0  0  0  0  0  0  0
   -3.4477   11.8860  -34.7431 H   0  0  0  0  0  0  0  0  0  0  0  0
   -3.6044   13.2422  -35.9624 H   0  0  0  0  0  0  0  0  0  0  0  0
   -5.5129   12.6716  -34.1731 H   0  0  0  0  0  0  0  0  0  0  0  0
   -7.4522   15.2254  -33.2803 H   0  0  0  0  0  0  0  0  0  0  0  0
   -7.9309   17.5007  -32.3760 H   0  0  0  0  0  0  0  0  0  0  0  0
   -8.6365   19.6200  -33.0635 H   0  0  0  0  0  0  0  0  0  0  0  0
   -9.1133   21.9268  -32.1814 H   0  0  0  0  0  0  0  0  0  0  0  0
   -7.8490   24.2526  -31.0862 H   0  0  0  0  0  0  0  0  0  0  0  0
   -2.9990   25.2970  -30.4380 H   0  0  0  0  0  0  0  0  0  0  0  0
   -3.3594   23.5577  -29.3147 H   0  0  0  0  0  0  0  0  0  0  0  0
   -0.8104   22.2495  -30.3557 H   0  0  0  0  0  0  0  0  0  0  0  0
   -1.2312   24.0078  -30.4617 H   0  0  0  0  0  0  0  0  0  0  0  0
    0.2681   23.0141  -28.4626 H   0  0  0  0  0  0  0  0  0  0  0  0
   -0.9252   24.3776  -28.2351 H   0  0  0  0  0  0  0  0  0  0  0  0
   -0.8254   22.2892  -26.5588 H   0  0  0  0  0  0  0  0  0  0  0  0
   -2.3724   23.1179  -27.0156 H   0  0  0  0  0  0  0  0  0  0  0  0
   -1.2557   20.5798  -28.2949 H   0  0  0  0  0  0  0  0  0  0  0  0
   -2.6162   20.6824  -27.0974 H   0  0  0  0  0  0  0  0  0  0  0  0
   -3.0216   20.5777  -29.7686 H   0  0  0  0  0  0  0  0  0  0  0  0
   -4.0967   21.4899  -28.6085 H   0  0  0  0  0  0  0  0  0  0  0  0
   -4.3709   20.2497  -32.3946 H   0  0  0  0  0  0  0  0  0  0  0  0
   -4.3855   18.9858  -34.3632 H   0  0  0  0  0  0  0  0  0  0  0  0
   -3.9980   16.7640  -35.2110 H   0  0  0  0  0  0  0  0  0  0  0  0
   -4.0797   13.0646  -32.1958 H   0  0  0  0  0  0  0  0  0  0  0  0
   -5.3993   14.3121  -32.3017 H   0  0  0  0  0  0  0  0  0  0  0  0
   -2.8472   14.9638  -31.7603 H   0  0  0  0  0  0  0  0  0  0  0  0
   -3.9713   16.0185  -32.7370 H   0  0  0  0  0  0  0  0  0  0  0  0
  1  2  1  0
  2  3  1  0
  3  4  1  0
  4  5  2  0
  4  6  1  0
  6  7  1  0
  7  8  1  0
  8  9  1  0
  9 10  1  0
 10 11  1  0
 11 12  2  0
 12 13  1  0
 13 14  2  0
 14 15  1  0
 15 16  2  0
 16 17  1  0
 17 18  2  0
 18 19  1  0
 19 20  2  0
 20 21  1  0
 21 22  1  0
 21 23  2  0
 20 24  1  0
 24 25  1  0
 25 26  2  0
 25 27  1  0
 27 28  1  0
 28 29  1  0
 29 30  1  0
 30 31  1  0
 31 32  1  0
 24 33  1  0
 33 34  2  0
 14 35  1  0
 35 36  2  0
  9 37  1  0
 37 38  1  0
 38  6  1  0
 36 11  1  0
 34 15  1  0
 33 18  1  0
 32 27  1  0
  1 39  1  0
  1 40  1  0
  1 41  1  0
  2 42  1  0
  2 43  1  0
  6 44  1  6
  7 45  1  0
  7 46  1  0
  8 47  1  0
  8 48  1  0
  9 49  1  1
 12 50  1  0
 13 51  1  0
 16 52  1  0
 17 53  1  0
 19 54  1  0
 22 55  1  0
 27 56  1  0
 28 57  1  0
 28 58  1  0
 29 59  1  0
 29 60  1  0
 30 61  1  0
 30 62  1  0
 31 63  1  0
 31 64  1  0
 32 65  1  0
 32 66  1  0
 34 67  1  0
 35 68  1  0
 36 69  1  0
 37 70  1  0
 37 71  1  0
 38 72  1  0
 38 73  1  0
M  CHG  2  22  -1  36   1
M  END
>  <UniqueID>  (19) 
19

>  <SMILES>  (19) 
CCOC(=O)C1CCC(Oc2ccc(-c3ccc4cc(C([NH-])=O)n(C(=O)C5CCCCC5)c4c3)c[nH+]2)CC1

>  <Energy>  (19) 
121.02034694769739

>  <Genealogy>  (19) 
CCOC(=O)C1CCC(Oc2ccc(-c3ccc4cc(C([NH-])=O)n(C(=O)C5CCCCC5)c4c3)c[nH+]2)CC1 (protonated)
CCOC(=O)C1CCC(Oc2ccc(-c3ccc4cc(C([NH-])=O)n(C(=O)C5CCCCC5)c4c3)c[nH+]2)CC1 (3D coordinates assigned)
CCOC(=O)C1CCC(Oc2ccc(-c3ccc4cc(C([NH-])=O)n(C(=O)C5CCCCC5)c4c3)c[nH+]2)CC1 (nonaromatic ring conformer: 121.02034694769739 kcal/mol)

>  <smiles>  (19) 
CCOC(=O)C1CCC(Oc2ccc(-c3ccc4cc(C(N)=O)n(C(=O)C5CCCCC5)c4c3)cn2)CC1

>  <score_type>  (19) 
oracle

>  <origin>  (19) 
adg

>  <m_score__min__energy>  (19) 
-11.699999999999999

>  <m_primary>  (19) 
energy

$$$$
20:0
     RDKit          3D

 40 42  0  0  0  0  0  0  0  0999 V2000
   -2.8890   14.6880  -32.7330 N   0  0  0  0  0  0  0  0  0  0  0  0
   -3.9700   13.7670  -32.6040 C   0  0  0  0  0  0  0  0  0  0  0  0
   -3.9810   12.9390  -31.6540 O   0  0  0  0  0  0  0  0  0  0  0  0
   -5.0600   13.7500  -33.6230 C   0  0  0  0  0  0  0  0  0  0  0  0
   -4.9760   14.9300  -34.4160 O   0  0  0  0  0  0  0  0  0  0  0  0
   -5.3720   16.2050  -33.9870 C   0  0  0  0  0  0  0  0  0  0  0  0
   -5.2490   17.3460  -34.8010 C   0  0  0  0  0  0  0  0  0  0  0  0
   -5.6590   18.5970  -34.3290 C   0  0  0  0  0  0  0  0  0  0  0  0
   -6.1990   18.7320  -33.0370 C   0  0  0  0  0  0  0  0  0  0  0  0
   -6.6350   20.0600  -32.5340 C   0  0  0  0  0  0  0  0  0  0  0  0
   -8.0130   20.4020  -32.5150 C   0  0  0  0  0  0  0  0  0  0  0  0
   -8.4360   21.6480  -32.0260 C   0  0  0  0  0  0  0  0  0  0  0  0
   -7.4660   22.5370  -31.5760 C   0  0  0  0  0  0  0  0  0  0  0  0
   -7.6100   23.7950  -31.0420 C   0  0  0  0  0  0  0  0  0  0  0  0
   -6.3190   24.2160  -30.7490 C   0  0  0  0  0  0  0  0  0  0  0  0
   -6.0210   25.5310  -30.1610 C   0  0  0  0  0  0  0  0  0  0  0  0
   -6.5480   25.8960  -28.8850 N   0  0  0  0  0  0  0  0  0  0  0  0
   -5.3510   26.3700  -30.8210 O   0  0  0  0  0  0  0  0  0  0  0  0
   -5.4000   23.2750  -31.1130 N   0  0  0  0  0  0  0  0  0  0  0  0
   -3.9640   23.4230  -31.1380 C   0  0  0  0  0  0  0  0  0  0  0  0
   -3.3360   24.5320  -30.4990 N   0  0  0  0  0  0  0  0  0  0  0  0
   -3.2420   22.5500  -31.6840 O   0  0  0  0  0  0  0  0  0  0  0  0
   -6.1270   22.2410  -31.6060 C   0  0  0  0  0  0  0  0  0  0  0  0
   -5.6810   20.9940  -32.0650 C   0  0  0  0  0  0  0  0  0  0  0  0
   -6.3190   17.5870  -32.2290 C   0  0  0  0  0  0  0  0  0  0  0  0
   -5.9090   16.3380  -32.7030 C   0  0  0  0  0  0  0  0  0  0  0  0
   -2.9000   15.4260  -33.4710 H   0  0  0  0  0  0  0  0  0  0  0  0
   -4.9485   12.8650  -34.2667 H   0  0  0  0  0  0  0  0  0  0  0  0
   -6.0371   13.7111  -33.1193 H   0  0  0  0  0  0  0  0  0  0  0  0
   -4.8284   17.2537  -35.8132 H   0  0  0  0  0  0  0  0  0  0  0  0
   -5.5584   19.4828  -34.9734 H   0  0  0  0  0  0  0  0  0  0  0  0
   -8.7572   19.6827  -32.8875 H   0  0  0  0  0  0  0  0  0  0  0  0
   -9.5032   21.9133  -31.9996 H   0  0  0  0  0  0  0  0  0  0  0  0
   -8.5463   24.3495  -30.8811 H   0  0  0  0  0  0  0  0  0  0  0  0
   -7.2070   25.2630  -28.3810 H   0  0  0  0  0  0  0  0  0  0  0  0
   -6.3030   26.8170  -28.4580 H   0  0  0  0  0  0  0  0  0  0  0  0
   -3.3750   25.4870  -30.9190 H   0  0  0  0  0  0  0  0  0  0  0  0
   -4.6093   20.7460  -32.0607 H   0  0  0  0  0  0  0  0  0  0  0  0
   -6.7388   17.6754  -31.2161 H   0  0  0  0  0  0  0  0  0  0  0  0
   -6.0097   15.4512  -32.0599 H   0  0  0  0  0  0  0  0  0  0  0  0
  1  2  1  0
  2  3  2  0
  2  4  1  0
  4  5  1  0
  5  6  1  0
  6  7  2  0
  7  8  1  0
  8  9  2  0
  9 10  1  0
 10 11  2  0
 11 12  1  0
 12 13  2  0
 13 14  1  0
 14 15  2  0
 15 16  1  0
 16 17  1  0
 16 18  2  0
 15 19  1  0
 19 20  1  0
 20 21  1  0
 20 22  2  0
 19 23  1  0
 23 24  2  0
  9 25  1  0
 25 26  2  0
 26  6  1  0
 24 10  1  0
 23 13  1  0
  1 27  1  0
  4 28  1  0
  4 29  1  0
  7 30  1  0
  8 31  1  0
 11 32  1  0
 12 33  1  0
 14 34  1  0
 17 35  1  0
 17 36  1  0
 21 37  1  0
 24 38  1  0
 25 39  1  0
 26 40  1  0
M  CHG  2   1  -1  21  -1
M  END
>  <UniqueID>  (20) 
20

>  <SMILES>  (20) 
[NH-]C(=O)COc1ccc(-c2ccc3cc(C(N)=O)n(C([NH-])=O)c3c2)cc1

>  <Energy>  (20) 
88.00254394006984

>  <Genealogy>  (20) 
[NH-]C(=O)COc1ccc(-c2ccc3cc(C(N)=O)n(C([NH-])=O)c3c2)cc1 (protonated)
[NH-]C(=O)COc1ccc(-c2ccc3cc(C(N)=O)n(C([NH-])=O)c3c2)cc1 (3D coordinates assigned)
[NH-]C(=O)COc1ccc(-c2ccc3cc(C(N)=O)n(C([NH-])=O)c3c2)cc1 (optimized conformer: 88.00254394006984 kcal/mol)

>  <smiles>  (20) 
NC(=O)COc1ccc(-c2ccc3cc(C(N)=O)n(C(N)=O)c3c2)cc1

>  <score_type>  (20) 
oracle

>  <origin>  (20) 
adg

>  <m_score__min__energy>  (20) 
-9.5600000000000005

>  <m_primary>  (20) 
energy

$$$$
21:0
     RDKit          3D

 52 54  0  0  0  0  0  0  0  0999 V2000
   -6.7950   23.1940  -30.0420 C   0  0  0  0  0  0  0  0  0  0  0  0
   -6.6620   22.4330  -31.3680 C   0  0  0  0  0  0  0  0  0  0  0  0
   -8.0690   22.2010  -31.9510 C   0  0  0  0  0  0  0  0  0  0  0  0
   -5.8040   23.2680  -32.3380 C   0  0  0  0  0  0  0  0  0  0  0  0
   -6.0230   21.1830  -31.0760 O   0  0  0  0  0  0  0  0  0  0  0  0
   -5.8550   20.1060  -31.9600 C   0  0  0  0  0  0  0  0  0  0  0  0
   -6.8520   19.4890  -32.4220 O   0  0  0  0  0  0  0  0  0  0  0  0
   -4.5280   19.7010  -32.3320 N   0  0  0  0  0  0  0  0  0  0  0  0
   -4.1500   19.0790  -33.4830 C   0  0  0  0  0  0  0  0  0  0  0  0
   -5.0600   18.5420  -34.5150 C   0  0  0  0  0  0  0  0  0  0  0  0
   -6.2110   19.2750  -34.9390 N   0  0  0  0  0  0  0  0  0  0  0  0
   -4.8460   17.3970  -34.9940 O   0  0  0  0  0  0  0  0  0  0  0  0
   -2.7640   18.9740  -33.5550 C   0  0  0  0  0  0  0  0  0  0  0  0
   -2.2960   19.5480  -32.3950 C   0  0  0  0  0  0  0  0  0  0  0  0
   -0.9890   19.7360  -31.9540 C   0  0  0  0  0  0  0  0  0  0  0  0
   -0.7960   20.4020  -30.7330 C   0  0  0  0  0  0  0  0  0  0  0  0
   -1.9040   20.8650  -29.9850 C   0  0  0  0  0  0  0  0  0  0  0  0
   -1.6890   21.5820  -28.7140 C   0  0  0  0  0  0  0  0  0  0  0  0
   -0.7470   21.0610  -27.8160 C   0  0  0  0  0  0  0  0  0  0  0  0
   -0.5140   21.6870  -26.5970 C   0  0  0  0  0  0  0  0  0  0  0  0
   -1.2030   22.8500  -26.2640 C   0  0  0  0  0  0  0  0  0  0  0  0
   -2.1310   23.4140  -27.1530 C   0  0  0  0  0  0  0  0  0  0  0  0
   -2.7850   24.6350  -26.7720 N   0  0  0  0  0  0  0  0  0  0  0  0
   -2.1170   25.6140  -26.3820 O   0  0  0  0  0  0  0  0  0  0  0  0
   -4.1510   24.6550  -26.6080 O   0  0  0  0  0  0  0  0  0  0  0  0
   -2.4050   22.7650  -28.3890 C   0  0  0  0  0  0  0  0  0  0  0  0
   -3.4490   23.3080  -29.3490 C   0  0  0  0  0  0  0  0  0  0  0  0
   -3.1010   24.6940  -29.7980 C   0  0  0  0  0  0  0  0  0  0  0  0
   -3.8520   25.3150  -30.5960 O   0  0  0  0  0  0  0  0  0  0  0  0
   -1.9320   25.2960  -29.3480 O   0  0  0  0  0  0  0  0  0  0  0  0
   -3.2150   20.6690  -30.4650 C   0  0  0  0  0  0  0  0  0  0  0  0
   -3.3810   19.9810  -31.6730 C   0  0  0  0  0  0  0  0  0  0  0  0
   -6.6725   22.4931  -29.2031 H   0  0  0  0  0  0  0  0  0  0  0  0
   -6.0192   23.9718  -29.9862 H   0  0  0  0  0  0  0  0  0  0  0  0
   -7.7886   23.6626  -29.9862 H   0  0  0  0  0  0  0  0  0  0  0  0
   -8.7911   22.0819  -31.1298 H   0  0  0  0  0  0  0  0  0  0  0  0
   -8.3564   23.0639  -32.5697 H   0  0  0  0  0  0  0  0  0  0  0  0
   -8.0641   21.2915  -32.5697 H   0  0  0  0  0  0  0  0  0  0  0  0
   -5.1320   23.9220  -31.7630 H   0  0  0  0  0  0  0  0  0  0  0  0
   -5.2074   22.5954  -32.9717 H   0  0  0  0  0  0  0  0  0  0  0  0
   -6.4602   23.8827  -32.9717 H   0  0  0  0  0  0  0  0  0  0  0  0
   -6.5120   20.1390  -34.4370 H   0  0  0  0  0  0  0  0  0  0  0  0
   -6.8110   18.9080  -35.7100 H   0  0  0  0  0  0  0  0  0  0  0  0
   -2.1696   18.5276  -34.3658 H   0  0  0  0  0  0  0  0  0  0  0  0
   -0.1340   19.3740  -32.5438 H   0  0  0  0  0  0  0  0  0  0  0  0
    0.2242   20.5649  -30.3553 H   0  0  0  0  0  0  0  0  0  0  0  0
   -0.1883   20.1504  -28.0779 H   0  0  0  0  0  0  0  0  0  0  0  0
    0.2170   21.2622  -25.8933 H   0  0  0  0  0  0  0  0  0  0  0  0
   -1.0179   23.3324  -25.2929 H   0  0  0  0  0  0  0  0  0  0  0  0
   -3.5055   22.6493  -30.2282 H   0  0  0  0  0  0  0  0  0  0  0  0
   -4.4174   23.3426  -28.8284 H   0  0  0  0  0  0  0  0  0  0  0  0
   -4.0838   21.0463  -29.9057 H   0  0  0  0  0  0  0  0  0  0  0  0
  1  2  1  0
  2  3  1  0
  2  4  1  0
  2  5  1  0
  5  6  1  0
  6  7  2  0
  6  8  1  0
  8  9  1  0
  9 10  1  0
 10 11  1  0
 10 12  2  0
  9 13  2  0
 13 14  1  0
 14 15  2  0
 15 16  1  0
 16 17  2  0
 17 18  1  0
 18 19  2  0
 19 20  1  0
 20 21  2  0
 21 22  1  0
 22 23  1  0
 23 24  2  0
 23 25  1  0
 22 26  2  0
 26 27  1  0
 27 28  1  0
 28 29  2  0
 28 30  1  0
 17 31  1  0
 31 32  2  0
 32  8  1  0
 32 14  1  0
 26 18  1  0
  1 33  1  0
  1 34  1  0
  1 35  1  0
  3 36  1  0
  3 37  1  0
  3 38  1  0
  4 39  1  0
  4 40  1  0
  4 41  1  0
 11 42  1  0
 11 43  1  0
 13 44  1  0
 15 45  1  0
 16 46  1  0
 19 47  1  0
 20 48  1  0
 21 49  1  0
 27 50  1  0
 27 51  1  0
 31 52  1  0
M  CHG  3  23   1  25  -1  30  -1
M  END
>  <UniqueID>  (21) 
21

>  <SMILES>  (21) 
CC(C)(C)OC(=O)n1c(C(N)=O)cc2ccc(-c3cccc([N+](=O)[O-])c3CC(=O)[O-])cc21

>  <Energy>  (21) 
102.01905373696779

>  <Genealogy>  (21) 
CC(C)(C)OC(=O)n1c(C(N)=O)cc2ccc(-c3cccc([N+](=O)[O-])c3CC(=O)[O-])cc21 (protonated)
CC(C)(C)OC(=O)n1c(C(N)=O)cc2ccc(-c3cccc([N+](=O)[O-])c3CC(=O)[O-])cc21 (3D coordinates assigned)
CC(C)(C)OC(=O)n1c(C(N)=O)cc2ccc(-c3cccc([N+](=O)[O-])c3CC(=O)[O-])cc21 (optimized conformer: 102.01905373696779 kcal/mol)

>  <smiles>  (21) 
CC(C)(C)OC(=O)n1c(C(N)=O)cc2ccc(-c3cccc([N+](=O)[O-])c3CC(=O)O)cc21

>  <score_type>  (21) 
oracle

>  <origin>  (21) 
adg

>  <m_score__min__energy>  (21) 
-11.470000000000001

>  <m_primary>  (21) 
energy

$$$$
22:0
     RDKit          3D

 33 35  0  0  0  0  0  0  0  0999 V2000
   -1.6020   25.7770  -28.7880 N   0  0  0  0  0  0  0  0  0  0  0  0
   -0.9490   24.5240  -28.9990 C   0  0  0  0  0  0  0  0  0  0  0  0
    0.1890   24.3280  -28.4960 O   0  0  0  0  0  0  0  0  0  0  0  0
   -1.5530   23.4800  -29.8520 C   0  0  0  0  0  0  0  0  0  0  0  0
   -0.8780   22.3280  -30.2440 C   0  0  0  0  0  0  0  0  0  0  0  0
   -1.7520   21.6590  -31.0680 C   0  0  0  0  0  0  0  0  0  0  0  0
   -1.6000   20.4460  -31.7360 C   0  0  0  0  0  0  0  0  0  0  0  0
   -2.6820   19.9730  -32.4950 C   0  0  0  0  0  0  0  0  0  0  0  0
   -3.8940   20.6970  -32.5550 C   0  0  0  0  0  0  0  0  0  0  0  0
   -4.9440   20.1800  -33.3280 O   0  0  0  0  0  0  0  0  0  0  0  0
   -6.2230   19.8600  -32.8500 C   0  0  0  0  0  0  0  0  0  0  0  0
   -6.4910   18.5360  -32.4800 C   0  0  0  0  0  0  0  0  0  0  0  0
   -7.7500   18.1800  -31.9860 C   0  0  0  0  0  0  0  0  0  0  0  0
   -8.7460   19.1500  -31.8470 C   0  0  0  0  0  0  0  0  0  0  0  0
   -8.4830   20.4780  -32.1940 C   0  0  0  0  0  0  0  0  0  0  0  0
   -9.4450   21.4210  -32.0430 F   0  0  0  0  0  0  0  0  0  0  0  0
   -7.2240   20.8360  -32.6880 C   0  0  0  0  0  0  0  0  0  0  0  0
   -4.0070   21.9350  -31.8780 C   0  0  0  0  0  0  0  0  0  0  0  0
   -2.9070   22.3960  -31.1450 C   0  0  0  0  0  0  0  0  0  0  0  0
   -2.8010   23.5200  -30.3990 N   0  0  0  0  0  0  0  0  0  0  0  0
   -3.8380   24.4810  -30.1420 C   0  0  0  0  0  0  0  0  0  0  0  0
   -4.7260   24.2430  -29.2810 O   0  0  0  0  0  0  0  0  0  0  0  0
   -3.8770   25.6810  -30.8400 O   0  0  0  0  0  0  0  0  0  0  0  0
   -2.4590   26.0340  -29.3240 H   0  0  0  0  0  0  0  0  0  0  0  0
   -1.1790   26.4870  -28.1520 H   0  0  0  0  0  0  0  0  0  0  0  0
    0.1376   22.0187  -29.9562 H   0  0  0  0  0  0  0  0  0  0  0  0
   -0.6612   19.8765  -31.6707 H   0  0  0  0  0  0  0  0  0  0  0  0
   -2.5853   19.0279  -33.0494 H   0  0  0  0  0  0  0  0  0  0  0  0
   -5.7063   17.7714  -32.5786 H   0  0  0  0  0  0  0  0  0  0  0  0
   -7.9562   17.1362  -31.7068 H   0  0  0  0  0  0  0  0  0  0  0  0
   -9.7380   18.8682  -31.4641 H   0  0  0  0  0  0  0  0  0  0  0  0
   -7.0158   21.8837  -32.9506 H   0  0  0  0  0  0  0  0  0  0  0  0
   -4.9368   22.5207  -31.9267 H   0  0  0  0  0  0  0  0  0  0  0  0
  1  2  1  0
  2  3  2  0
  2  4  1  0
  4  5  2  0
  5  6  1  0
  6  7  2  0
  7  8  1  0
  8  9  2  0
  9 10  1  0
 10 11  1  0
 11 12  2  0
 12 13  1  0
 13 14  2  0
 14 15  1  0
 15 16  1  0
 15 17  2  0
  9 18  1  0
 18 19  2  0
 19 20  1  0
 20 21  1  0
 21 22  2  0
 21 23  1  0
 20  4  1  0
 19  6  1  0
 17 11  1  0
  1 24  1  0
  1 25  1  0
  5 26  1  0
  7 27  1  0
  8 28  1  0
 12 29  1  0
 13 30  1  0
 14 31  1  0
 17 32  1  0
 18 33  1  0
M  CHG  1  23  -1
M  END
>  <UniqueID>  (22) 
22

>  <SMILES>  (22) 
NC(=O)c1cc2ccc(Oc3cccc(F)c3)cc2n1C(=O)[O-]

>  <Energy>  (22) 
82.48295206377203

>  <Genealogy>  (22) 
NC(=O)c1cc2ccc(Oc3cccc(F)c3)cc2n1C(=O)[O-] (protonated)
NC(=O)c1cc2ccc(Oc3cccc(F)c3)cc2n1C(=O)[O-] (3D coordinates assigned)
NC(=O)c1cc2ccc(Oc3cccc(F)c3)cc2n1C(=O)[O-] (optimized conformer: 82.48295206377203 kcal/mol)

>  <smiles>  (22) 
NC(=O)c1cc2ccc(Oc3cccc(F)c3)cc2n1C(=O)O

>  <score_type>  (22) 
oracle

>  <origin>  (22) 
adg

>  <m_score__min__energy>  (22) 
-9.5399999999999991

>  <m_primary>  (22) 
energy

$$$$
23:0
     RDKit          3D

 64 66  0  0  0  0  0  0  0  0999 V2000
   -0.9060   21.2130  -31.7760 C   0  0  0  0  0  0  0  0  0  0  0  0
   -0.7150   20.8720  -33.2490 C   0  0  0  0  0  0  0  0  0  0  0  0
   -1.8250   20.1240  -33.7400 O   0  0  0  0  0  0  0  0  0  0  0  0
   -3.1610   20.4720  -33.4980 C   0  0  0  0  0  0  0  0  0  0  0  0
   -3.5250   21.6810  -33.5570 O   0  0  0  0  0  0  0  0  0  0  0  0
   -4.1020   19.4420  -33.1310 N   0  0  0  0  0  0  0  0  0  0  0  0
   -3.5050   18.1030  -33.2740 C   0  0  0  0  0  0  0  0  0  0  0  0
   -4.4620   17.0150  -32.7360 C   0  0  0  0  0  0  0  0  0  0  0  0
   -5.9020   17.3550  -32.8850 N   0  0  0  0  0  0  0  0  0  0  0  0
   -6.5290   17.8390  -31.6320 C   0  0  0  0  0  0  0  0  0  0  0  0
   -7.8950   18.4850  -31.9130 C   0  0  0  0  0  0  0  0  0  0  0  0
   -7.8210   19.9820  -31.7530 C   0  0  0  0  0  0  0  0  0  0  0  0
   -8.9670   20.7910  -31.9620 C   0  0  0  0  0  0  0  0  0  0  0  0
   -8.8910   22.1880  -31.8170 C   0  0  0  0  0  0  0  0  0  0  0  0
   -7.6690   22.7420  -31.4420 C   0  0  0  0  0  0  0  0  0  0  0  0
   -7.3130   24.0550  -31.2280 C   0  0  0  0  0  0  0  0  0  0  0  0
   -5.9720   24.0180  -30.8470 C   0  0  0  0  0  0  0  0  0  0  0  0
   -5.2140   25.2150  -30.4220 C   0  0  0  0  0  0  0  0  0  0  0  0
   -3.8690   25.4210  -30.8440 N   0  0  0  0  0  0  0  0  0  0  0  0
   -5.7490   26.0450  -29.6400 O   0  0  0  0  0  0  0  0  0  0  0  0
   -5.5150   22.7340  -30.8390 N   0  0  0  0  0  0  0  0  0  0  0  0
   -4.2070   22.2520  -30.5030 C   0  0  0  0  0  0  0  0  0  0  0  0
   -3.9040   21.0500  -30.7280 O   0  0  0  0  0  0  0  0  0  0  0  0
   -3.2970   23.1280  -29.8910 O   0  0  0  0  0  0  0  0  0  0  0  0
   -2.9370   23.1550  -28.5020 C   0  0  0  0  0  0  0  0  0  0  0  0
   -1.7230   24.0730  -28.2730 C   0  0  0  0  0  0  0  0  0  0  0  0
   -4.1420   23.7210  -27.7340 C   0  0  0  0  0  0  0  0  0  0  0  0
   -2.6490   21.7290  -27.9930 C   0  0  0  0  0  0  0  0  0  0  0  0
   -6.5630   21.9680  -31.2080 C   0  0  0  0  0  0  0  0  0  0  0  0
   -6.5980   20.5830  -31.3840 C   0  0  0  0  0  0  0  0  0  0  0  0
   -6.1360   18.2550  -34.0350 C   0  0  0  0  0  0  0  0  0  0  0  0
   -5.3390   19.5770  -33.9350 C   0  0  0  0  0  0  0  0  0  0  0  0
   -0.4621   20.4205  -31.1556 H   0  0  0  0  0  0  0  0  0  0  0  0
   -0.4133   22.1712  -31.5546 H   0  0  0  0  0  0  0  0  0  0  0  0
   -1.9805   21.2934  -31.5546 H   0  0  0  0  0  0  0  0  0  0  0  0
   -0.6232   21.8037  -33.8266 H   0  0  0  0  0  0  0  0  0  0  0  0
    0.1963   20.2655  -33.3568 H   0  0  0  0  0  0  0  0  0  0  0  0
   -4.3290   19.5870  -32.1200 H   0  0  0  0  0  0  0  0  0  0  0  0
   -3.3018   17.9105  -34.3378 H   0  0  0  0  0  0  0  0  0  0  0  0
   -2.5712   18.0695  -32.6936 H   0  0  0  0  0  0  0  0  0  0  0  0
   -4.2678   16.0809  -33.2834 H   0  0  0  0  0  0  0  0  0  0  0  0
   -4.2652   16.9200  -31.6579 H   0  0  0  0  0  0  0  0  0  0  0  0
   -6.6671   16.9892  -30.9473 H   0  0  0  0  0  0  0  0  0  0  0  0
   -5.8702   18.5952  -31.1800 H   0  0  0  0  0  0  0  0  0  0  0  0
   -8.2019   18.2468  -32.9421 H   0  0  0  0  0  0  0  0  0  0  0  0
   -8.6274   18.0889  -31.1942 H   0  0  0  0  0  0  0  0  0  0  0  0
   -9.9226   20.3223  -32.2396 H   0  0  0  0  0  0  0  0  0  0  0  0
   -9.7705   22.8243  -31.9945 H   0  0  0  0  0  0  0  0  0  0  0  0
   -7.9512   24.9445  -31.3349 H   0  0  0  0  0  0  0  0  0  0  0  0
   -3.0720   25.2860  -30.1810 H   0  0  0  0  0  0  0  0  0  0  0  0
   -1.5569   24.1986  -27.1929 H   0  0  0  0  0  0  0  0  0  0  0  0
   -0.8305   23.6218  -28.7312 H   0  0  0  0  0  0  0  0  0  0  0  0
   -1.9140   25.0546  -28.7312 H   0  0  0  0  0  0  0  0  0  0  0  0
   -3.9604   23.6357  -26.6524 H   0  0  0  0  0  0  0  0  0  0  0  0
   -4.2822   24.7791  -27.9999 H   0  0  0  0  0  0  0  0  0  0  0  0
   -5.0458   23.1533  -27.9999 H   0  0  0  0  0  0  0  0  0  0  0  0
   -2.6483   21.7255  -26.8930 H   0  0  0  0  0  0  0  0  0  0  0  0
   -3.4270   21.0441  -28.3614 H   0  0  0  0  0  0  0  0  0  0  0  0
   -1.6662   21.3997  -28.3614 H   0  0  0  0  0  0  0  0  0  0  0  0
   -5.6934   19.9743  -31.2384 H   0  0  0  0  0  0  0  0  0  0  0  0
   -5.8367   17.7332  -34.9559 H   0  0  0  0  0  0  0  0  0  0  0  0
   -7.2053   18.5131  -34.0407 H   0  0  0  0  0  0  0  0  0  0  0  0
   -5.0649   19.8998  -34.9502 H   0  0  0  0  0  0  0  0  0  0  0  0
   -5.9821   20.3143  -33.4322 H   0  0  0  0  0  0  0  0  0  0  0  0
  1  2  1  0
  2  3  1  0
  3  4  1  0
  4  5  2  0
  4  6  1  0
  6  7  1  0
  7  8  1  0
  8  9  1  0
  9 10  1  0
 10 11  1  0
 11 12  1  0
 12 13  2  0
 13 14  1  0
 14 15  2  0
 15 16  1  0
 16 17  2  0
 17 18  1  0
 18 19  1  0
 18 20  2  0
 17 21  1  0
 21 22  1  0
 22 23  2  0
 22 24  1  0
 24 25  1  0
 25 26  1  0
 25 27  1  0
 25 28  1  0
 21 29  1  0
 29 30  2  0
  9 31  1  0
 31 32  1  0
 32  6  1  0
 30 12  1  0
 29 15  1  0
  1 33  1  0
  1 34  1  0
  1 35  1  0
  2 36  1  0
  2 37  1  0
  6 38  1  0
  7 39  1  0
  7 40  1  0
  8 41  1  0
  8 42  1  0
 10 43  1  0
 10 44  1  0
 11 45  1  0
 11 46  1  0
 13 47  1  0
 14 48  1  0
 16 49  1  0
 19 50  1  0
 26 51  1  0
 26 52  1  0
 26 53  1  0
 27 54  1  0
 27 55  1  0
 27 56  1  0
 28 57  1  0
 28 58  1  0
 28 59  1  0
 30 60  1  0
 31 61  1  0
 31 62  1  0
 32 63  1  0
 32 64  1  0
M  CHG  2   6   1  19  -1
M  END
>  <UniqueID>  (23) 
23

>  <SMILES>  (23) 
CCOC(=O)[NH+]1CCN(CCc2ccc3cc(C([NH-])=O)n(C(=O)OC(C)(C)C)c3c2)CC1

>  <Energy>  (23) 
105.44726581423627

>  <Genealogy>  (23) 
CCOC(=O)[NH+]1CCN(CCc2ccc3cc(C([NH-])=O)n(C(=O)OC(C)(C)C)c3c2)CC1 (protonated)
CCOC(=O)[NH+]1CCN(CCc2ccc3cc(C([NH-])=O)n(C(=O)OC(C)(C)C)c3c2)CC1 (3D coordinates assigned)
CCOC(=O)[NH+]1CCN(CCc2ccc3cc(C([NH-])=O)n(C(=O)OC(C)(C)C)c3c2)CC1 (nonaromatic ring conformer: 105.44726581423627 kcal/mol)

>  <smiles>  (23) 
CCOC(=O)N1CCN(CCc2ccc3cc(C(N)=O)n(C(=O)OC(C)(C)C)c3c2)CC1

>  <score_type>  (23) 
oracle

>  <origin>  (23) 
adg

>  <m_score__min__energy>  (23) 
-11.050000000000001

>  <m_primary>  (23) 
energy

$$$$
24:0
     RDKit          3D

 36 38  0  0  0  0  0  0  0  0999 V2000
   -4.6990   13.6800  -33.0990 C   0  0  0  0  0  0  0  0  0  0  0  0
   -5.1730   14.6730  -34.0530 N   0  0  0  0  0  0  0  0  0  0  0  0
   -5.5650   15.9900  -33.6480 C   0  0  0  0  0  0  0  0  0  0  0  0
   -5.7620   16.2580  -32.3320 N   0  0  0  0  0  0  0  0  0  0  0  0
   -6.1350   17.4950  -31.9150 C   0  0  0  0  0  0  0  0  0  0  0  0
   -6.3200   18.5280  -32.8460 C   0  0  0  0  0  0  0  0  0  0  0  0
   -6.7240   19.8900  -32.4150 C   0  0  0  0  0  0  0  0  0  0  0  0
   -8.0740   20.3110  -32.5450 C   0  0  0  0  0  0  0  0  0  0  0  0
   -8.4670   21.6010  -32.1540 C   0  0  0  0  0  0  0  0  0  0  0  0
   -7.4960   22.4480  -31.6290 C   0  0  0  0  0  0  0  0  0  0  0  0
   -7.5990   23.7500  -31.1980 C   0  0  0  0  0  0  0  0  0  0  0  0
   -6.3170   24.1070  -30.7860 C   0  0  0  0  0  0  0  0  0  0  0  0
   -5.9790   25.4070  -30.1660 C   0  0  0  0  0  0  0  0  0  0  0  0
   -6.3150   25.6770  -28.8040 N   0  0  0  0  0  0  0  0  0  0  0  0
   -5.3650   26.2840  -30.8290 O   0  0  0  0  0  0  0  0  0  0  0  0
   -5.4540   23.0630  -30.9550 N   0  0  0  0  0  0  0  0  0  0  0  0
   -4.0390   23.0500  -30.7050 C   0  0  0  0  0  0  0  0  0  0  0  0
   -3.3140   24.2730  -30.6090 N   0  0  0  0  0  0  0  0  0  0  0  0
   -3.4300   21.9550  -30.5670 O   0  0  0  0  0  0  0  0  0  0  0  0
   -6.1920   22.0570  -31.4750 C   0  0  0  0  0  0  0  0  0  0  0  0
   -5.7680   20.7840  -31.8760 C   0  0  0  0  0  0  0  0  0  0  0  0
   -6.1070   18.2260  -34.2000 C   0  0  0  0  0  0  0  0  0  0  0  0
   -5.7380   16.9730  -34.5700 N   0  0  0  0  0  0  0  0  0  0  0  0
   -4.8723   14.0431  -32.0752 H   0  0  0  0  0  0  0  0  0  0  0  0
   -5.2439   12.7365  -33.2506 H   0  0  0  0  0  0  0  0  0  0  0  0
   -3.6228   13.5103  -33.2506 H   0  0  0  0  0  0  0  0  0  0  0  0
   -5.2290   14.4160  -35.0650 H   0  0  0  0  0  0  0  0  0  0  0  0
   -6.2927   17.6879  -30.8436 H   0  0  0  0  0  0  0  0  0  0  0  0
   -8.8216   19.6174  -32.9574 H   0  0  0  0  0  0  0  0  0  0  0  0
   -9.5107   21.9319  -32.2595 H   0  0  0  0  0  0  0  0  0  0  0  0
   -8.5027   24.3770  -31.1820 H   0  0  0  0  0  0  0  0  0  0  0  0
   -6.0370   26.5830  -28.3660 H   0  0  0  0  0  0  0  0  0  0  0  0
   -6.8740   25.0020  -28.2380 H   0  0  0  0  0  0  0  0  0  0  0  0
   -3.5730   25.0970  -31.1940 H   0  0  0  0  0  0  0  0  0  0  0  0
   -4.7143   20.4851  -31.7743 H   0  0  0  0  0  0  0  0  0  0  0  0
   -6.2394   19.0067  -34.9635 H   0  0  0  0  0  0  0  0  0  0  0  0
  1  2  1  0
  2  3  1  0
  3  4  2  0
  4  5  1  0
  5  6  2  0
  6  7  1  0
  7  8  2  0
  8  9  1  0
  9 10  2  0
 10 11  1  0
 11 12  2  0
 12 13  1  0
 13 14  1  0
 13 15  2  0
 12 16  1  0
 16 17  1  0
 17 18  1  0
 17 19  2  0
 16 20  1  0
 20 21  2  0
  6 22  1  0
 22 23  2  0
 23  3  1  0
 21  7  1  0
 20 10  1  0
  1 24  1  0
  1 25  1  0
  1 26  1  0
  2 27  1  0
  5 28  1  0
  8 29  1  0
  9 30  1  0
 11 31  1  0
 14 32  1  0
 14 33  1  0
 18 34  1  0
 21 35  1  0
 22 36  1  0
M  CHG  1  18  -1
M  END
>  <UniqueID>  (24) 
24

>  <SMILES>  (24) 
CNc1ncc(-c2ccc3cc(C(N)=O)n(C([NH-])=O)c3c2)cn1

>  <Energy>  (24) 
80.42511618712133

>  <Genealogy>  (24) 
CNc1ncc(-c2ccc3cc(C(N)=O)n(C([NH-])=O)c3c2)cn1 (protonated)
CNc1ncc(-c2ccc3cc(C(N)=O)n(C([NH-])=O)c3c2)cn1 (3D coordinates assigned)
CNc1ncc(-c2ccc3cc(C(N)=O)n(C([NH-])=O)c3c2)cn1 (optimized conformer: 80.42511618712133 kcal/mol)

>  <smiles>  (24) 
CNc1ncc(-c2ccc3cc(C(N)=O)n(C(N)=O)c3c2)cn1

>  <score_type>  (24) 
oracle

>  <origin>  (24) 
adg

>  <m_score__min__energy>  (24) 
-9.1899999999999995

>  <m_primary>  (24) 
energy

$$$$
25:0
     RDKit          3D

 46 48  0  0  0  0  0  0  0  0999 V2000
   -3.7930   20.2800  -33.0200 N   0  0  0  0  0  0  0  0  0  0  0  0
   -4.6680   19.3030  -33.5910 C   0  0  0  0  0  0  0  0  0  0  0  0
   -4.2450   18.5720  -34.5430 O   0  0  0  0  0  0  0  0  0  0  0  0
   -6.0200   19.1630  -33.0940 N   0  0  0  0  0  0  0  0  0  0  0  0
   -6.7480   18.0110  -33.0150 C   0  0  0  0  0  0  0  0  0  0  0  0
   -6.3660   16.7160  -33.6060 C   0  0  0  0  0  0  0  0  0  0  0  0
   -5.0030   16.2950  -33.5950 N   0  0  0  0  0  0  0  0  0  0  0  0
   -7.2370   16.0100  -34.1830 O   0  0  0  0  0  0  0  0  0  0  0  0
   -7.9870   18.2400  -32.4270 C   0  0  0  0  0  0  0  0  0  0  0  0
   -8.0160   19.5850  -32.1590 C   0  0  0  0  0  0  0  0  0  0  0  0
   -9.0400   20.3620  -31.6240 C   0  0  0  0  0  0  0  0  0  0  0  0
   -8.8200   21.7400  -31.4890 C   0  0  0  0  0  0  0  0  0  0  0  0
   -7.5810   22.3140  -31.8660 C   0  0  0  0  0  0  0  0  0  0  0  0
   -7.3620   23.8000  -31.7190 C   0  0  0  0  0  0  0  0  0  0  0  0
   -6.5860   24.1600  -30.4440 C   0  0  0  0  0  0  0  0  0  0  0  0
   -4.8110   24.0040  -30.6350 S   0  0  0  0  0  0  0  0  0  0  0  0
   -4.2140   25.3740  -30.8090 O   0  0  0  0  0  0  0  0  0  0  0  0
   -4.5490   23.2110  -31.8840 O   0  0  0  0  0  0  0  0  0  0  0  0
   -4.0300   23.2070  -29.2140 C   0  0  0  0  0  0  0  0  0  0  0  0
   -3.9570   24.1710  -28.0100 C   0  0  0  0  0  0  0  0  0  0  0  0
   -2.5800   24.8550  -27.8950 C   0  0  0  0  0  0  0  0  0  0  0  0
   -1.9980   25.0280  -29.1720 O   0  0  0  0  0  0  0  0  0  0  0  0
   -1.5840   23.7790  -29.7060 C   0  0  0  0  0  0  0  0  0  0  0  0
   -2.6330   22.6530  -29.5460 C   0  0  0  0  0  0  0  0  0  0  0  0
   -6.5620   21.4940  -32.4050 C   0  0  0  0  0  0  0  0  0  0  0  0
   -6.8180   20.1230  -32.5610 C   0  0  0  0  0  0  0  0  0  0  0  0
   -4.1720   21.2110  -32.7200 H   0  0  0  0  0  0  0  0  0  0  0  0
   -4.2630   16.8950  -33.1630 H   0  0  0  0  0  0  0  0  0  0  0  0
   -4.7340   15.3780  -34.0180 H   0  0  0  0  0  0  0  0  0  0  0  0
   -8.7752   17.5009  -32.2209 H   0  0  0  0  0  0  0  0  0  0  0  0
   -9.9935   19.9080  -31.3163 H   0  0  0  0  0  0  0  0  0  0  0  0
   -9.6174   22.3819  -31.0863 H   0  0  0  0  0  0  0  0  0  0  0  0
   -6.7948   24.1602  -32.5900 H   0  0  0  0  0  0  0  0  0  0  0  0
   -8.3509   24.2772  -31.6526 H   0  0  0  0  0  0  0  0  0  0  0  0
   -6.8191   25.2006  -30.1741 H   0  0  0  0  0  0  0  0  0  0  0  0
   -6.8954   23.4526  -29.6605 H   0  0  0  0  0  0  0  0  0  0  0  0
   -4.6648   22.3502  -28.9438 H   0  0  0  0  0  0  0  0  0  0  0  0
   -4.7287   24.9458  -28.1291 H   0  0  0  0  0  0  0  0  0  0  0  0
   -4.1193   23.5821  -27.0952 H   0  0  0  0  0  0  0  0  0  0  0  0
   -2.7045   25.8388  -27.4189 H   0  0  0  0  0  0  0  0  0  0  0  0
   -1.9189   24.2179  -27.2892 H   0  0  0  0  0  0  0  0  0  0  0  0
   -1.3782   23.9114  -30.7784 H   0  0  0  0  0  0  0  0  0  0  0  0
   -0.6924   23.4688  -29.1414 H   0  0  0  0  0  0  0  0  0  0  0  0
   -2.6907   22.0855  -30.4866 H   0  0  0  0  0  0  0  0  0  0  0  0
   -2.3160   22.0104  -28.7114 H   0  0  0  0  0  0  0  0  0  0  0  0
   -5.5909   21.9214  -32.6953 H   0  0  0  0  0  0  0  0  0  0  0  0
  1  2  1  0
  2  3  2  0
  2  4  1  0
  4  5  1  0
  5  6  1  0
  6  7  1  0
  6  8  2  0
  5  9  2  0
  9 10  1  0
 10 11  2  0
 11 12  1  0
 12 13  2  0
 13 14  1  0
 14 15  1  0
 15 16  1  0
 16 17  2  0
 16 18  2  0
 16 19  1  0
 19 20  1  0
 20 21  1  0
 21 22  1  0
 22 23  1  0
 23 24  1  0
 13 25  1  0
 25 26  2  0
 26  4  1  0
 26 10  1  0
 24 19  1  0
  1 27  1  0
  7 28  1  0
  7 29  1  0
  9 30  1  0
 11 31  1  0
 12 32  1  0
 14 33  1  0
 14 34  1  0
 15 35  1  0
 15 36  1  0
 19 37  1  0
 20 38  1  0
 20 39  1  0
 21 40  1  0
 21 41  1  0
 23 42  1  0
 23 43  1  0
 24 44  1  0
 24 45  1  0
 25 46  1  0
M  CHG  1   1  -1
M  END
>  <UniqueID>  (25) 
25

>  <SMILES>  (25) 
[NH-]C(=O)n1c(C(N)=O)cc2ccc(CCS(=O)(=O)C3CCOCC3)cc21

>  <Energy>  (25) 
86.82949029819245

>  <Genealogy>  (25) 
[NH-]C(=O)n1c(C(N)=O)cc2ccc(CCS(=O)(=O)C3CCOCC3)cc21 (protonated)
[NH-]C(=O)n1c(C(N)=O)cc2ccc(CCS(=O)(=O)C3CCOCC3)cc21 (3D coordinates assigned)
[NH-]C(=O)n1c(C(N)=O)cc2ccc(CCS(=O)(=O)C3CCOCC3)cc21 (nonaromatic ring conformer: 86.82949029819245 kcal/mol)

>  <smiles>  (25) 
NC(=O)c1cc2ccc(CCS(=O)(=O)C3CCOCC3)cc2n1C(N)=O

>  <score_type>  (25) 
oracle

>  <origin>  (25) 
adg

>  <m_score__min__energy>  (25) 
-10.4

>  <m_primary>  (25) 
energy

$$$$
26:0
     RDKit          3D

 69 73  0  0  0  0  0  0  0  0999 V2000
   -1.1820   21.5630  -32.5410 C   0  0  0  0  0  0  0  0  0  0  0  0
   -2.5510   20.8800  -32.6820 C   0  0  0  0  0  0  0  0  0  0  0  0
   -3.5960   21.9360  -33.0950 C   0  0  0  0  0  0  0  0  0  0  0  0
   -2.9290   20.2370  -31.3330 C   0  0  0  0  0  0  0  0  0  0  0  0
   -2.4180   19.8730  -33.6960 O   0  0  0  0  0  0  0  0  0  0  0  0
   -2.1230   18.5170  -33.4860 C   0  0  0  0  0  0  0  0  0  0  0  0
   -0.9820   18.1560  -33.0890 O   0  0  0  0  0  0  0  0  0  0  0  0
   -3.1290   17.5270  -33.7520 N   0  0  0  0  0  0  0  0  0  0  0  0
   -2.9600   16.2920  -34.3080 C   0  0  0  0  0  0  0  0  0  0  0  0
   -1.6580   15.6490  -34.6020 C   0  0  0  0  0  0  0  0  0  0  0  0
   -0.5990   15.6580  -33.6380 N   0  0  0  0  0  0  0  0  0  0  0  0
   -1.4570   15.1050  -35.7220 O   0  0  0  0  0  0  0  0  0  0  0  0
   -4.1950   15.6660  -34.4800 C   0  0  0  0  0  0  0  0  0  0  0  0
   -5.1270   16.5610  -34.0120 C   0  0  0  0  0  0  0  0  0  0  0  0
   -6.5140   16.4610  -33.9630 C   0  0  0  0  0  0  0  0  0  0  0  0
   -7.2350   17.5460  -33.4410 C   0  0  0  0  0  0  0  0  0  0  0  0
   -6.5650   18.7110  -32.9770 C   0  0  0  0  0  0  0  0  0  0  0  0
   -7.3410   19.8380  -32.3950 C   0  0  0  0  0  0  0  0  0  0  0  0
   -8.7400   19.7580  -32.2600 C   0  0  0  0  0  0  0  0  0  0  0  0
   -9.4610   20.8250  -31.7200 C   0  0  0  0  0  0  0  0  0  0  0  0
   -8.7990   21.9820  -31.3030 C   0  0  0  0  0  0  0  0  0  0  0  0
   -7.4020   22.0740  -31.4080 C   0  0  0  0  0  0  0  0  0  0  0  0
   -6.6970   23.2940  -30.9630 C   0  0  0  0  0  0  0  0  0  0  0  0
   -6.8690   24.3730  -31.5870 O   0  0  0  0  0  0  0  0  0  0  0  0
   -5.7980   23.2740  -29.8490 N   0  0  0  0  0  0  0  0  0  0  0  0
   -4.3420   23.2490  -29.9770 C   0  0  2  0  0  0  0  0  0  0  0  0
   -3.6770   22.8980  -28.6390 C   0  0  0  0  0  0  0  0  0  0  0  0
   -2.4670   23.8640  -28.4900 C   0  0  0  0  0  0  0  0  0  0  0  0
   -2.3300   24.4010  -27.0450 C   0  0  0  0  0  0  0  0  0  0  0  0
   -0.9070   24.9180  -26.7560 C   0  0  0  0  0  0  0  0  0  0  0  0
   -0.2400   25.2730  -27.9500 O   0  0  0  0  0  0  0  0  0  0  0  0
    0.0640   24.1080  -28.7030 C   0  0  0  0  0  0  0  0  0  0  0  0
   -1.1530   23.1740  -28.9100 C   0  0  0  0  0  0  0  0  0  0  0  0
   -2.7440   24.9660  -29.4040 N   0  0  0  0  0  0  0  0  0  0  0  0
   -3.8110   24.5990  -30.2540 C   0  0  0  0  0  0  0  0  0  0  0  0
   -4.1990   25.3270  -31.2030 O   0  0  0  0  0  0  0  0  0  0  0  0
   -6.6840   21.0080  -31.9720 C   0  0  0  0  0  0  0  0  0  0  0  0
   -5.1540   18.7780  -33.0640 C   0  0  0  0  0  0  0  0  0  0  0  0
   -4.4610   17.6750  -33.5750 C   0  0  0  0  0  0  0  0  0  0  0  0
   -0.9405   21.6835  -31.4746 H   0  0  0  0  0  0  0  0  0  0  0  0
   -0.4117   20.9436  -33.0237 H   0  0  0  0  0  0  0  0  0  0  0  0
   -1.2137   22.5509  -33.0237 H   0  0  0  0  0  0  0  0  0  0  0  0
   -4.0399   22.3845  -32.1940 H   0  0  0  0  0  0  0  0  0  0  0  0
   -3.1084   22.7201  -33.6928 H   0  0  0  0  0  0  0  0  0  0  0  0
   -4.3852   21.4566  -33.6928 H   0  0  0  0  0  0  0  0  0  0  0  0
   -2.5590   20.8665  -30.5103 H   0  0  0  0  0  0  0  0  0  0  0  0
   -4.0232   20.1480  -31.2630 H   0  0  0  0  0  0  0  0  0  0  0  0
   -2.4746   19.2377  -31.2630 H   0  0  0  0  0  0  0  0  0  0  0  0
    0.3220   15.2220  -33.8680 H   0  0  0  0  0  0  0  0  0  0  0  0
   -0.7350   16.0450  -32.6790 H   0  0  0  0  0  0  0  0  0  0  0  0
   -4.3829   14.6673  -34.9011 H   0  0  0  0  0  0  0  0  0  0  0  0
   -7.0299   15.5585  -34.3227 H   0  0  0  0  0  0  0  0  0  0  0  0
   -8.3326   17.4944  -33.3902 H   0  0  0  0  0  0  0  0  0  0  0  0
   -9.2688   18.8488  -32.5821 H   0  0  0  0  0  0  0  0  0  0  0  0
  -10.5544   20.7540  -31.6227 H   0  0  0  0  0  0  0  0  0  0  0  0
   -9.3742   22.8242  -30.8908 H   0  0  0  0  0  0  0  0  0  0  0  0
   -4.1318   22.5222  -30.7755 H   0  0  0  0  0  0  0  0  0  0  0  0
   -4.3860   23.0441  -27.8107 H   0  0  0  0  0  0  0  0  0  0  0  0
   -3.3560   21.8462  -28.6144 H   0  0  0  0  0  0  0  0  0  0  0  0
   -3.0437   25.2260  -26.9031 H   0  0  0  0  0  0  0  0  0  0  0  0
   -2.5387   23.5723  -26.3523 H   0  0  0  0  0  0  0  0  0  0  0  0
   -0.9718   25.8021  -26.1047 H   0  0  0  0  0  0  0  0  0  0  0  0
   -0.3378   24.1152  -26.2646 H   0  0  0  0  0  0  0  0  0  0  0  0
    0.4370   24.4185  -29.6902 H   0  0  0  0  0  0  0  0  0  0  0  0
    0.8152   23.5407  -28.1339 H   0  0  0  0  0  0  0  0  0  0  0  0
   -1.2167   22.8988  -29.9731 H   0  0  0  0  0  0  0  0  0  0  0  0
   -1.0149   22.2800  -28.2841 H   0  0  0  0  0  0  0  0  0  0  0  0
   -5.5928   21.0884  -32.0848 H   0  0  0  0  0  0  0  0  0  0  0  0
   -4.6134   19.6784  -32.7367 H   0  0  0  0  0  0  0  0  0  0  0  0
  1  2  1  0
  2  3  1  0
  2  4  1  0
  2  5  1  0
  5  6  1  0
  6  7  2  0
  6  8  1  0
  8  9  1  0
  9 10  1  0
 10 11  1  0
 10 12  2  0
  9 13  2  0
 13 14  1  0
 14 15  2  0
 15 16  1  0
 16 17  2  0
 17 18  1  0
 18 19  2  0
 19 20  1  0
 20 21  2  0
 21 22  1  0
 22 23  1  0
 23 24  2  0
 23 25  1  0
 25 26  1  0
 26 27  1  0
 27 28  1  0
 28 29  1  0
 29 30  1  0
 30 31  1  0
 31 32  1  0
 32 33  1  0
 28 34  1  0
 34 35  1  0
 35 36  2  0
 22 37  2  0
 17 38  1  0
 38 39  2  0
 39  8  1  0
 39 14  1  0
 37 18  1  0
 35 26  1  0
 33 28  1  0
  1 40  1  0
  1 41  1  0
  1 42  1  0
  3 43  1  0
  3 44  1  0
  3 45  1  0
  4 46  1  0
  4 47  1  0
  4 48  1  0
 11 49  1  0
 11 50  1  0
 13 51  1  0
 15 52  1  0
 16 53  1  0
 19 54  1  0
 20 55  1  0
 21 56  1  0
 26 57  1  6
 27 58  1  0
 27 59  1  0
 29 60  1  0
 29 61  1  0
 30 62  1  0
 30 63  1  0
 32 64  1  0
 32 65  1  0
 33 66  1  0
 33 67  1  0
 37 68  1  0
 38 69  1  0
M  CHG  2  25  -1  34  -1
M  END
>  <UniqueID>  (26) 
26

>  <SMILES>  (26) 
CC(C)(C)OC(=O)n1c(C(N)=O)cc2ccc(-c3cccc(C(=O)[N-][C@@H]4CC5(CCOCC5)[N-]C4=O)c3)cc21

>  <Energy>  (26) 
133.57509974261984

>  <Genealogy>  (26) 
CC(C)(C)OC(=O)n1c(C(N)=O)cc2ccc(-c3cccc(C(=O)[N-]C4CC5(CCOCC5)[N-]C4=O)c3)cc21 (protonated)
CC(C)(C)OC(=O)n1c(C(N)=O)cc2ccc(-c3cccc(C(=O)[N-][C@@H]4CC5(CCOCC5)[N-]C4=O)c3)cc21 (chirality)
CC(C)(C)OC(=O)n1c(C(N)=O)cc2ccc(-c3cccc(C(=O)[N-][C@@H]4CC5(CCOCC5)[N-]C4=O)c3)cc21 (3D coordinates assigned)
CC(C)(C)OC(=O)n1c(C(N)=O)cc2ccc(-c3cccc(C(=O)[N-][C@@H]4CC5(CCOCC5)[N-]C4=O)c3)cc21 (nonaromatic ring conformer: 133.57509974261984 kcal/mol)

>  <smiles>  (26) 
CC(C)(C)OC(=O)n1c(C(N)=O)cc2ccc(-c3cccc(C(=O)NC4CC5(CCOCC5)NC4=O)c3)cc21

>  <score_type>  (26) 
oracle

>  <origin>  (26) 
adg

>  <m_score__min__energy>  (26) 
-13.32

>  <m_primary>  (26) 
energy

$$$$
27:0
     RDKit          3D

 43 44  0  0  0  0  0  0  0  0999 V2000
   -3.9050   23.2560  -27.8740 C   0  0  0  0  0  0  0  0  0  0  0  0
   -3.3480   21.9070  -28.3140 C   0  0  0  0  0  0  0  0  0  0  0  0
   -3.7280   21.6210  -29.6580 O   0  0  0  0  0  0  0  0  0  0  0  0
   -4.0000   22.6100  -30.6110 C   0  0  0  0  0  0  0  0  0  0  0  0
   -3.0580   23.1660  -31.2390 O   0  0  0  0  0  0  0  0  0  0  0  0
   -5.3600   22.9800  -30.8860 N   0  0  0  0  0  0  0  0  0  0  0  0
   -5.9350   24.2080  -30.7470 C   0  0  0  0  0  0  0  0  0  0  0  0
   -5.2270   25.4640  -30.4270 C   0  0  0  0  0  0  0  0  0  0  0  0
   -3.8780   25.6450  -30.8490 N   0  0  0  0  0  0  0  0  0  0  0  0
   -5.7870   26.3660  -29.7500 O   0  0  0  0  0  0  0  0  0  0  0  0
   -7.2980   24.1440  -31.0310 C   0  0  0  0  0  0  0  0  0  0  0  0
   -7.5420   22.8290  -31.3560 C   0  0  0  0  0  0  0  0  0  0  0  0
   -8.7340   22.2000  -31.7050 C   0  0  0  0  0  0  0  0  0  0  0  0
   -8.7000   20.8180  -31.9550 C   0  0  0  0  0  0  0  0  0  0  0  0
   -7.4840   20.0970  -31.8570 C   0  0  0  0  0  0  0  0  0  0  0  0
   -7.4690   18.6090  -32.0780 C   0  0  0  0  0  0  0  0  0  0  0  0
   -6.0480   18.1250  -32.3680 C   0  0  0  0  0  0  0  0  0  0  0  0
   -5.5460   18.5400  -34.0330 S   0  0  0  0  0  0  0  0  0  0  0  0
   -5.8000   17.3490  -34.9140 O   0  0  0  0  0  0  0  0  0  0  0  0
   -6.3700   19.6950  -34.5290 O   0  0  0  0  0  0  0  0  0  0  0  0
   -3.7920   18.9260  -34.0820 C   0  0  0  0  0  0  0  0  0  0  0  0
   -3.4290   20.1420  -33.2270 C   0  0  0  0  0  0  0  0  0  0  0  0
   -4.2960   21.1880  -33.4810 F   0  0  0  0  0  0  0  0  0  0  0  0
   -3.5200   19.8020  -31.8900 F   0  0  0  0  0  0  0  0  0  0  0  0
   -2.1320   20.5430  -33.4960 F   0  0  0  0  0  0  0  0  0  0  0  0
   -6.2960   20.7680  -31.4900 C   0  0  0  0  0  0  0  0  0  0  0  0
   -6.3570   22.1470  -31.2620 C   0  0  0  0  0  0  0  0  0  0  0  0
   -3.9247   23.3038  -26.7752 H   0  0  0  0  0  0  0  0  0  0  0  0
   -3.2659   24.0616  -28.2646 H   0  0  0  0  0  0  0  0  0  0  0  0
   -4.9263   23.3761  -28.2646 H   0  0  0  0  0  0  0  0  0  0  0  0
   -2.2504   21.9295  -28.2458 H   0  0  0  0  0  0  0  0  0  0  0  0
   -3.7543   21.1243  -27.6566 H   0  0  0  0  0  0  0  0  0  0  0  0
   -3.0930   25.1580  -30.3620 H   0  0  0  0  0  0  0  0  0  0  0  0
   -8.0246   24.9694  -31.0016 H   0  0  0  0  0  0  0  0  0  0  0  0
   -9.6731   22.7675  -31.7826 H   0  0  0  0  0  0  0  0  0  0  0  0
   -9.6256   20.2908  -32.2293 H   0  0  0  0  0  0  0  0  0  0  0  0
   -7.8459   18.1052  -31.1757 H   0  0  0  0  0  0  0  0  0  0  0  0
   -8.1089   18.3710  -32.9405 H   0  0  0  0  0  0  0  0  0  0  0  0
   -5.3560   18.5993  -31.6566 H   0  0  0  0  0  0  0  0  0  0  0  0
   -6.0262   17.0303  -32.2620 H   0  0  0  0  0  0  0  0  0  0  0  0
   -3.2300   18.0557  -33.7121 H   0  0  0  0  0  0  0  0  0  0  0  0
   -3.5341   19.1648  -35.1243 H   0  0  0  0  0  0  0  0  0  0  0  0
   -5.3477   20.2203  -31.3862 H   0  0  0  0  0  0  0  0  0  0  0  0
  1  2  1  0
  2  3  1  0
  3  4  1  0
  4  5  2  0
  4  6  1  0
  6  7  1  0
  7  8  1  0
  8  9  1  0
  8 10  2  0
  7 11  2  0
 11 12  1  0
 12 13  2  0
 13 14  1  0
 14 15  2  0
 15 16  1  0
 16 17  1  0
 17 18  1  0
 18 19  2  0
 18 20  2  0
 18 21  1  0
 21 22  1  0
 22 23  1  0
 22 24  1  0
 22 25  1  0
 15 26  1  0
 26 27  2  0
 27  6  1  0
 27 12  1  0
  1 28  1  0
  1 29  1  0
  1 30  1  0
  2 31  1  0
  2 32  1  0
  9 33  1  0
 11 34  1  0
 13 35  1  0
 14 36  1  0
 16 37  1  0
 16 38  1  0
 17 39  1  0
 17 40  1  0
 21 41  1  0
 21 42  1  0
 26 43  1  0
M  CHG  1   9  -1
M  END
>  <UniqueID>  (27) 
27

>  <SMILES>  (27) 
CCOC(=O)n1c(C([NH-])=O)cc2ccc(CCS(=O)(=O)CC(F)(F)F)cc21

>  <Energy>  (27) 
67.2622248376061

>  <Genealogy>  (27) 
CCOC(=O)n1c(C([NH-])=O)cc2ccc(CCS(=O)(=O)CC(F)(F)F)cc21 (protonated)
CCOC(=O)n1c(C([NH-])=O)cc2ccc(CCS(=O)(=O)CC(F)(F)F)cc21 (3D coordinates assigned)
CCOC(=O)n1c(C([NH-])=O)cc2ccc(CCS(=O)(=O)CC(F)(F)F)cc21 (optimized conformer: 67.2622248376061 kcal/mol)

>  <smiles>  (27) 
CCOC(=O)n1c(C(N)=O)cc2ccc(CCS(=O)(=O)CC(F)(F)F)cc21

>  <score_type>  (27) 
oracle

>  <origin>  (27) 
adg

>  <m_score__min__energy>  (27) 
-10.279999999999999

>  <m_primary>  (27) 
energy

$$$$
28:0
     RDKit          3D

 30 31  0  0  0  0  0  0  0  0999 V2000
   -5.5570   18.9690  -34.0340 C   0  0  0  0  0  0  0  0  0  0  0  0
   -5.8120   20.2840  -33.2890 C   0  0  0  0  0  0  0  0  0  0  0  0
   -7.0010   20.1530  -32.3300 C   0  0  0  0  0  0  0  0  0  0  0  0
   -4.5680   20.7460  -32.5540 C   0  0  0  0  0  0  0  0  0  0  0  0
   -3.3980   19.9440  -32.5780 C   0  0  0  0  0  0  0  0  0  0  0  0
   -2.2290   20.3550  -31.9150 C   0  0  0  0  0  0  0  0  0  0  0  0
   -2.2580   21.5660  -31.2320 C   0  0  0  0  0  0  0  0  0  0  0  0
   -1.2650   22.2090  -30.5300 C   0  0  0  0  0  0  0  0  0  0  0  0
   -1.8450   23.3870  -30.0640 C   0  0  0  0  0  0  0  0  0  0  0  0
   -1.1460   24.3440  -29.1820 C   0  0  0  0  0  0  0  0  0  0  0  0
   -1.6970   25.6420  -28.9660 N   0  0  0  0  0  0  0  0  0  0  0  0
   -0.0460   24.0440  -28.6480 O   0  0  0  0  0  0  0  0  0  0  0  0
   -3.1440   23.4730  -30.4690 N   0  0  0  0  0  0  0  0  0  0  0  0
   -4.0590   24.5610  -30.2590 C   0  0  0  0  0  0  0  0  0  0  0  0
   -3.8660   25.6730  -30.8170 O   0  0  0  0  0  0  0  0  0  0  0  0
   -5.1530   24.4050  -29.4170 O   0  0  0  0  0  0  0  0  0  0  0  0
   -3.3820   22.3480  -31.1810 C   0  0  0  0  0  0  0  0  0  0  0  0
   -4.5550   21.9730  -31.8460 C   0  0  0  0  0  0  0  0  0  0  0  0
   -5.4000   18.1596  -33.3059 H   0  0  0  0  0  0  0  0  0  0  0  0
   -6.4257   18.7309  -34.6654 H   0  0  0  0  0  0  0  0  0  0  0  0
   -4.6623   19.0728  -34.6654 H   0  0  0  0  0  0  0  0  0  0  0  0
   -6.0648   21.0499  -34.0370 H   0  0  0  0  0  0  0  0  0  0  0  0
   -6.6405   20.1927  -31.2915 H   0  0  0  0  0  0  0  0  0  0  0  0
   -7.7061   20.9789  -32.5052 H   0  0  0  0  0  0  0  0  0  0  0  0
   -7.5094   19.1934  -32.5052 H   0  0  0  0  0  0  0  0  0  0  0  0
   -3.4059   18.9883  -33.1225 H   0  0  0  0  0  0  0  0  0  0  0  0
   -1.3188   19.7376  -31.9357 H   0  0  0  0  0  0  0  0  0  0  0  0
   -0.2321   21.8659  -30.3704 H   0  0  0  0  0  0  0  0  0  0  0  0
   -2.7300   25.7950  -28.9800 H   0  0  0  0  0  0  0  0  0  0  0  0
   -5.4467   22.6165  -31.8195 H   0  0  0  0  0  0  0  0  0  0  0  0
  1  2  1  0
  2  3  1  0
  2  4  1  0
  4  5  2  0
  5  6  1  0
  6  7  2  0
  7  8  1  0
  8  9  2  0
  9 10  1  0
 10 11  1  0
 10 12  2  0
  9 13  1  0
 13 14  1  0
 14 15  2  0
 14 16  1  0
 13 17  1  0
 17 18  2  0
 18  4  1  0
 17  7  1  0
  1 19  1  0
  1 20  1  0
  1 21  1  0
  2 22  1  0
  3 23  1  0
  3 24  1  0
  3 25  1  0
  5 26  1  0
  6 27  1  0
  8 28  1  0
 11 29  1  0
 18 30  1  0
M  CHG  2  11  -1  16  -1
M  END
>  <UniqueID>  (28) 
28

>  <SMILES>  (28) 
CC(C)c1ccc2cc(C([NH-])=O)n(C(=O)[O-])c2c1

>  <Energy>  (28) 
66.03756954087272

>  <Genealogy>  (28) 
CC(C)c1ccc2cc(C([NH-])=O)n(C(=O)[O-])c2c1 (protonated)
CC(C)c1ccc2cc(C([NH-])=O)n(C(=O)[O-])c2c1 (3D coordinates assigned)
CC(C)c1ccc2cc(C([NH-])=O)n(C(=O)[O-])c2c1 (optimized conformer: 66.03756954087272 kcal/mol)

>  <smiles>  (28) 
CC(C)c1ccc2cc(C(N)=O)n(C(=O)O)c2c1

>  <score_type>  (28) 
oracle

>  <origin>  (28) 
adg

>  <m_score__min__energy>  (28) 
-10.56

>  <m_primary>  (28) 
energy

$$$$
29:0
     RDKit          3D

 39 41  0  0  0  0  0  0  0  0999 V2000
   -6.8790   13.8170  -34.6000 C   0  0  0  0  0  0  0  0  0  0  0  0
   -5.4610   13.7460  -34.5100 O   0  0  0  0  0  0  0  0  0  0  0  0
   -4.6400   14.8760  -34.6020 C   0  0  0  0  0  0  0  0  0  0  0  0
   -3.4990   14.7860  -35.1350 O   0  0  0  0  0  0  0  0  0  0  0  0
   -5.1140   16.1740  -34.0740 C   0  0  0  0  0  0  0  0  0  0  0  0
   -5.7450   16.2430  -32.8220 C   0  0  0  0  0  0  0  0  0  0  0  0
   -6.1940   17.4680  -32.3190 C   0  0  0  0  0  0  0  0  0  0  0  0
   -6.0220   18.6510  -33.0590 C   0  0  0  0  0  0  0  0  0  0  0  0
   -6.5000   19.9520  -32.5250 C   0  0  0  0  0  0  0  0  0  0  0  0
   -7.8900   20.2210  -32.4320 C   0  0  0  0  0  0  0  0  0  0  0  0
   -8.3540   21.4430  -31.9180 C   0  0  0  0  0  0  0  0  0  0  0  0
   -7.4100   22.3800  -31.5110 C   0  0  0  0  0  0  0  0  0  0  0  0
   -7.5850   23.6230  -30.9480 C   0  0  0  0  0  0  0  0  0  0  0  0
   -6.3000   24.1120  -30.7310 C   0  0  0  0  0  0  0  0  0  0  0  0
   -6.0260   25.4600  -30.1950 C   0  0  0  0  0  0  0  0  0  0  0  0
   -6.4610   25.8380  -28.8880 N   0  0  0  0  0  0  0  0  0  0  0  0
   -5.3480   26.2720  -30.8790 O   0  0  0  0  0  0  0  0  0  0  0  0
   -5.3650   23.2040  -31.1290 N   0  0  0  0  0  0  0  0  0  0  0  0
   -3.9390   23.2860  -30.9610 C   0  0  0  0  0  0  0  0  0  0  0  0
   -3.3390   24.4900  -30.4880 N   0  0  0  0  0  0  0  0  0  0  0  0
   -3.2110   22.2910  -31.2180 O   0  0  0  0  0  0  0  0  0  0  0  0
   -6.0620   22.1500  -31.6090 C   0  0  0  0  0  0  0  0  0  0  0  0
   -5.5720   20.9320  -32.1000 C   0  0  0  0  0  0  0  0  0  0  0  0
   -5.3910   18.5820  -34.3120 C   0  0  0  0  0  0  0  0  0  0  0  0
   -4.9420   17.3570  -34.8150 C   0  0  0  0  0  0  0  0  0  0  0  0
   -7.3100   13.8386  -33.5882 H   0  0  0  0  0  0  0  0  0  0  0  0
   -7.1668   14.7307  -35.1407 H   0  0  0  0  0  0  0  0  0  0  0  0
   -7.2566   12.9366  -35.1407 H   0  0  0  0  0  0  0  0  0  0  0  0
   -5.8874   15.3258  -32.2317 H   0  0  0  0  0  0  0  0  0  0  0  0
   -6.6860   17.5064  -31.3359 H   0  0  0  0  0  0  0  0  0  0  0  0
   -8.6134   19.4629  -32.7667 H   0  0  0  0  0  0  0  0  0  0  0  0
   -9.4310   21.6526  -31.8397 H   0  0  0  0  0  0  0  0  0  0  0  0
   -8.5372   24.1236  -30.7183 H   0  0  0  0  0  0  0  0  0  0  0  0
   -6.8780   25.1400  -28.2350 H   0  0  0  0  0  0  0  0  0  0  0  0
   -6.2910   26.8080  -28.5400 H   0  0  0  0  0  0  0  0  0  0  0  0
   -3.3900   25.3700  -31.0460 H   0  0  0  0  0  0  0  0  0  0  0  0
   -4.4898   20.7422  -32.1537 H   0  0  0  0  0  0  0  0  0  0  0  0
   -5.2489   19.4992  -34.9024 H   0  0  0  0  0  0  0  0  0  0  0  0
   -4.4503   17.3182  -35.7982 H   0  0  0  0  0  0  0  0  0  0  0  0
  1  2  1  0
  2  3  1  0
  3  4  2  0
  3  5  1  0
  5  6  2  0
  6  7  1  0
  7  8  2  0
  8  9  1  0
  9 10  2  0
 10 11  1  0
 11 12  2  0
 12 13  1  0
 13 14  2  0
 14 15  1  0
 15 16  1  0
 15 17  2  0
 14 18  1  0
 18 19  1  0
 19 20  1  0
 19 21  2  0
 18 22  1  0
 22 23  2  0
  8 24  1  0
 24 25  2  0
 25  5  1  0
 23  9  1  0
 22 12  1  0
  1 26  1  0
  1 27  1  0
  1 28  1  0
  6 29  1  0
  7 30  1  0
 10 31  1  0
 11 32  1  0
 13 33  1  0
 16 34  1  0
 16 35  1  0
 20 36  1  0
 23 37  1  0
 24 38  1  0
 25 39  1  0
M  CHG  1  20  -1
M  END
>  <UniqueID>  (29) 
29

>  <SMILES>  (29) 
COC(=O)c1ccc(-c2ccc3cc(C(N)=O)n(C([NH-])=O)c3c2)cc1

>  <Energy>  (29) 
84.8453489484972

>  <Genealogy>  (29) 
COC(=O)c1ccc(-c2ccc3cc(C(N)=O)n(C([NH-])=O)c3c2)cc1 (protonated)
COC(=O)c1ccc(-c2ccc3cc(C(N)=O)n(C([NH-])=O)c3c2)cc1 (3D coordinates assigned)
COC(=O)c1ccc(-c2ccc3cc(C(N)=O)n(C([NH-])=O)c3c2)cc1 (optimized conformer: 84.8453489484972 kcal/mol)

>  <smiles>  (29) 
COC(=O)c1ccc(-c2ccc3cc(C(N)=O)n(C(N)=O)c3c2)cc1

>  <score_type>  (29) 
oracle

>  <origin>  (29) 
adg

>  <m_score__min__energy>  (29) 
-9.5999999999999996

>  <m_primary>  (29) 
energy

$$$$
30:0
     RDKit          3D

 50 53  0  0  0  0  0  0  0  0999 V2000
   -2.6970   11.4630  -38.0550 C   0  0  0  0  0  0  0  0  0  0  0  0
   -2.7750   11.9710  -36.6760 N   0  0  0  0  0  0  0  0  0  0  0  0
   -4.1820   12.2710  -36.3190 C   0  0  0  0  0  0  0  0  0  0  0  0
   -4.2860   13.2570  -35.1510 C   0  0  0  0  0  0  0  0  0  0  0  0
   -3.5920   14.5070  -35.4870 N   0  0  0  0  0  0  0  0  0  0  0  0
   -4.0130   15.7590  -34.9020 C   0  0  0  0  0  0  0  0  0  0  0  0
   -3.1670   16.8820  -34.9340 C   0  0  0  0  0  0  0  0  0  0  0  0
   -3.5650   18.0880  -34.3510 C   0  0  0  0  0  0  0  0  0  0  0  0
   -4.8150   18.1990  -33.7190 C   0  0  0  0  0  0  0  0  0  0  0  0
   -5.2270   19.4730  -33.0760 C   0  0  0  0  0  0  0  0  0  0  0  0
   -6.5840   19.8940  -33.1130 C   0  0  0  0  0  0  0  0  0  0  0  0
   -6.9880   21.0820  -32.4780 C   0  0  0  0  0  0  0  0  0  0  0  0
   -6.0180   21.8350  -31.8240 C   0  0  0  0  0  0  0  0  0  0  0  0
   -6.1390   22.9990  -31.1000 C   0  0  0  0  0  0  0  0  0  0  0  0
   -4.8510   23.2930  -30.6540 C   0  0  0  0  0  0  0  0  0  0  0  0
   -4.5130   24.5070  -29.8790 C   0  0  0  0  0  0  0  0  0  0  0  0
   -4.2420   25.7460  -30.5300 N   0  0  0  0  0  0  0  0  0  0  0  0
   -4.4960   24.4580  -28.6200 O   0  0  0  0  0  0  0  0  0  0  0  0
   -3.9710   22.3450  -31.0850 N   0  0  0  0  0  0  0  0  0  0  0  0
   -2.5690   22.2440  -30.7880 C   0  0  0  0  0  0  0  0  0  0  0  0
   -2.0350   22.8560  -29.6150 N   0  0  0  0  0  0  0  0  0  0  0  0
   -1.8040   21.6150  -31.5650 O   0  0  0  0  0  0  0  0  0  0  0  0
   -4.7000   21.4600  -31.7980 C   0  0  0  0  0  0  0  0  0  0  0  0
   -4.2730   20.2720  -32.4000 C   0  0  0  0  0  0  0  0  0  0  0  0
   -5.6630   17.0780  -33.6930 C   0  0  0  0  0  0  0  0  0  0  0  0
   -5.2660   15.8730  -34.2780 C   0  0  0  0  0  0  0  0  0  0  0  0
   -2.5080   14.4710  -36.4780 C   0  0  0  0  0  0  0  0  0  0  0  0
   -1.8270   13.0970  -36.4630 C   0  0  0  0  0  0  0  0  0  0  0  0
   -2.5301   10.3759  -38.0364 H   0  0  0  0  0  0  0  0  0  0  0  0
   -3.6390   11.6804  -38.5797 H   0  0  0  0  0  0  0  0  0  0  0  0
   -1.8636   11.9530  -38.5797 H   0  0  0  0  0  0  0  0  0  0  0  0
   -4.6847   12.7060  -37.1954 H   0  0  0  0  0  0  0  0  0  0  0  0
   -4.6595   11.3297  -36.0093 H   0  0  0  0  0  0  0  0  0  0  0  0
   -5.3457   13.4715  -34.9484 H   0  0  0  0  0  0  0  0  0  0  0  0
   -3.8189   12.8124  -34.2598 H   0  0  0  0  0  0  0  0  0  0  0  0
   -2.1838   16.8104  -35.4220 H   0  0  0  0  0  0  0  0  0  0  0  0
   -2.8935   18.9585  -34.3872 H   0  0  0  0  0  0  0  0  0  0  0  0
   -7.3278   19.2828  -33.6451 H   0  0  0  0  0  0  0  0  0  0  0  0
   -8.0390   21.4060  -32.4978 H   0  0  0  0  0  0  0  0  0  0  0  0
   -7.0571   23.5753  -30.9128 H   0  0  0  0  0  0  0  0  0  0  0  0
   -3.4640   25.8310  -31.2200 H   0  0  0  0  0  0  0  0  0  0  0  0
   -2.6640   23.3280  -28.9270 H   0  0  0  0  0  0  0  0  0  0  0  0
   -1.0120   22.8070  -29.4150 H   0  0  0  0  0  0  0  0  0  0  0  0
   -3.2180   19.9646  -32.3494 H   0  0  0  0  0  0  0  0  0  0  0  0
   -6.6476   17.1503  -33.2079 H   0  0  0  0  0  0  0  0  0  0  0  0
   -5.9413   15.0052  -34.2496 H   0  0  0  0  0  0  0  0  0  0  0  0
   -2.9233   14.6605  -37.4788 H   0  0  0  0  0  0  0  0  0  0  0  0
   -1.7660   15.2438  -36.2287 H   0  0  0  0  0  0  0  0  0  0  0  0
   -1.0706   13.0730  -37.2613 H   0  0  0  0  0  0  0  0  0  0  0  0
   -1.3804   12.9643  -35.4665 H   0  0  0  0  0  0  0  0  0  0  0  0
  1  2  1  0
  2  3  1  0
  3  4  1  0
  4  5  1  0
  5  6  1  0
  6  7  2  0
  7  8  1  0
  8  9  2  0
  9 10  1  0
 10 11  2  0
 11 12  1  0
 12 13  2  0
 13 14  1  0
 14 15  2  0
 15 16  1  0
 16 17  1  0
 16 18  2  0
 15 19  1  0
 19 20  1  0
 20 21  1  0
 20 22  2  0
 19 23  1  0
 23 24  2  0
  9 25  1  0
 25 26  2  0
  5 27  1  0
 27 28  1  0
 28  2  1  0
 26  6  1  0
 24 10  1  0
 23 13  1  0
  1 29  1  0
  1 30  1  0
  1 31  1  0
  3 32  1  0
  3 33  1  0
  4 34  1  0
  4 35  1  0
  7 36  1  0
  8 37  1  0
 11 38  1  0
 12 39  1  0
 14 40  1  0
 17 41  1  0
 21 42  1  0
 21 43  1  0
 24 44  1  0
 25 45  1  0
 26 46  1  0
 27 47  1  0
 27 48  1  0
 28 49  1  0
 28 50  1  0
M  CHG  1  17  -1
M  END
>  <UniqueID>  (30) 
30

>  <SMILES>  (30) 
CN1CCN(c2ccc(-c3ccc4cc(C([NH-])=O)n(C(N)=O)c4c3)cc2)CC1

>  <Energy>  (30) 
106.6780594936377

>  <Genealogy>  (30) 
CN1CCN(c2ccc(-c3ccc4cc(C([NH-])=O)n(C(N)=O)c4c3)cc2)CC1 (protonated)
CN1CCN(c2ccc(-c3ccc4cc(C([NH-])=O)n(C(N)=O)c4c3)cc2)CC1 (3D coordinates assigned)
CN1CCN(c2ccc(-c3ccc4cc(C([NH-])=O)n(C(N)=O)c4c3)cc2)CC1 (nonaromatic ring conformer: 106.6780594936377 kcal/mol)

>  <smiles>  (30) 
CN1CCN(c2ccc(-c3ccc4cc(C(N)=O)n(C(N)=O)c4c3)cc2)CC1

>  <score_type>  (30) 
oracle

>  <origin>  (30) 
adg

>  <m_score__min__energy>  (30) 
-10.390000000000001

>  <m_primary>  (30) 
energy

$$$$
31:0
     RDKit          3D

 54 57  0  0  0  0  0  0  0  0999 V2000
   -2.7430   21.5010  -31.9010 C   0  0  0  0  0  0  0  0  0  0  0  0
   -3.8670   22.2230  -32.6370 C   0  0  0  0  0  0  0  0  0  0  0  0
   -5.0380   22.2880  -31.8250 O   0  0  0  0  0  0  0  0  0  0  0  0
   -6.3340   22.3810  -32.3470 C   0  0  0  0  0  0  0  0  0  0  0  0
   -6.7860   23.4940  -32.7340 O   0  0  0  0  0  0  0  0  0  0  0  0
   -7.1520   21.2060  -32.4400 N   0  0  0  0  0  0  0  0  0  0  0  0
   -8.4430   21.0590  -32.0280 C   0  0  0  0  0  0  0  0  0  0  0  0
   -9.3220   22.1370  -31.5310 C   0  0  0  0  0  0  0  0  0  0  0  0
   -9.3780   23.4070  -32.1810 N   0  0  0  0  0  0  0  0  0  0  0  0
  -10.0780   21.9140  -30.5480 O   0  0  0  0  0  0  0  0  0  0  0  0
   -8.8560   19.7370  -32.1700 C   0  0  0  0  0  0  0  0  0  0  0  0
   -7.7720   19.0730  -32.6980 C   0  0  0  0  0  0  0  0  0  0  0  0
   -7.6150   17.7280  -33.0100 C   0  0  0  0  0  0  0  0  0  0  0  0
   -6.3650   17.3020  -33.4880 C   0  0  0  0  0  0  0  0  0  0  0  0
   -5.2920   18.2220  -33.6460 C   0  0  0  0  0  0  0  0  0  0  0  0
   -3.9540   17.7710  -34.1100 C   0  0  0  0  0  0  0  0  0  0  0  0
   -2.8350   18.6180  -34.0810 C   0  0  0  0  0  0  0  0  0  0  0  0
   -1.6070   18.1420  -34.5680 C   0  0  0  0  0  0  0  0  0  0  0  0
   -0.4330   18.9800  -34.5870 N   0  0  0  0  0  0  0  0  0  0  0  0
    0.5160   18.9220  -35.7130 C   0  0  0  0  0  0  0  0  0  0  0  0
    0.5660   20.2670  -36.4320 C   0  0  0  0  0  0  0  0  0  0  0  0
    1.0020   21.5470  -35.2670 S   0  0  0  0  0  0  0  0  0  0  0  0
   -0.0010   22.6650  -35.3360 O   0  0  0  0  0  0  0  0  0  0  0  0
    2.3730   22.0800  -35.5790 O   0  0  0  0  0  0  0  0  0  0  0  0
    0.9960   20.8230  -33.6360 C   0  0  0  0  0  0  0  0  0  0  0  0
   -0.2230   19.9080  -33.4580 C   0  0  0  0  0  0  0  0  0  0  0  0
   -1.5230   16.8570  -35.0050 N   0  0  0  0  0  0  0  0  0  0  0  0
   -2.6040   16.0370  -35.0040 C   0  0  0  0  0  0  0  0  0  0  0  0
   -2.4800   14.6940  -35.4660 N   0  0  0  0  0  0  0  0  0  0  0  0
   -3.8030   16.4970  -34.5660 N   0  0  0  0  0  0  0  0  0  0  0  0
   -5.4940   19.5810  -33.3070 C   0  0  0  0  0  0  0  0  0  0  0  0
   -6.7570   19.9800  -32.8500 C   0  0  0  0  0  0  0  0  0  0  0  0
   -2.8939   21.5979  -30.8157 H   0  0  0  0  0  0  0  0  0  0  0  0
   -2.7477   20.4365  -32.1782 H   0  0  0  0  0  0  0  0  0  0  0  0
   -1.7769   21.9479  -32.1782 H   0  0  0  0  0  0  0  0  0  0  0  0
   -3.5405   23.2442  -32.8831 H   0  0  0  0  0  0  0  0  0  0  0  0
   -4.1033   21.6672  -33.5564 H   0  0  0  0  0  0  0  0  0  0  0  0
   -8.9050   23.5680  -33.0970 H   0  0  0  0  0  0  0  0  0  0  0  0
   -9.9610   24.1750  -31.7800 H   0  0  0  0  0  0  0  0  0  0  0  0
   -9.8386   19.3136  -31.9148 H   0  0  0  0  0  0  0  0  0  0  0  0
   -8.4457   17.0176  -32.8862 H   0  0  0  0  0  0  0  0  0  0  0  0
   -6.2139   16.2428  -33.7435 H   0  0  0  0  0  0  0  0  0  0  0  0
   -2.9189   19.6399  -33.6825 H   0  0  0  0  0  0  0  0  0  0  0  0
    1.5180   18.6771  -35.3310 H   0  0  0  0  0  0  0  0  0  0  0  0
    0.1841   18.1490  -36.4218 H   0  0  0  0  0  0  0  0  0  0  0  0
    1.3194   20.2273  -37.2325 H   0  0  0  0  0  0  0  0  0  0  0  0
   -0.4197   20.4873  -36.8677 H   0  0  0  0  0  0  0  0  0  0  0  0
    1.9143   20.2333  -33.4985 H   0  0  0  0  0  0  0  0  0  0  0  0
    0.9474   21.6293  -32.8893 H   0  0  0  0  0  0  0  0  0  0  0  0
   -0.0828   19.3156  -32.5418 H   0  0  0  0  0  0  0  0  0  0  0  0
   -1.1094   20.5571  -33.4037 H   0  0  0  0  0  0  0  0  0  0  0  0
   -2.3550   13.9100  -34.7880 H   0  0  0  0  0  0  0  0  0  0  0  0
   -2.5210   14.4810  -36.4870 H   0  0  0  0  0  0  0  0  0  0  0  0
   -4.6755   20.3099  -33.4004 H   0  0  0  0  0  0  0  0  0  0  0  0
  1  2  1  0
  2  3  1  0
  3  4  1  0
  4  5  2  0
  4  6  1  0
  6  7  1  0
  7  8  1  0
  8  9  1  0
  8 10  2  0
  7 11  2  0
 11 12  1  0
 12 13  2  0
 13 14  1  0
 14 15  2  0
 15 16  1  0
 16 17  2  0
 17 18  1  0
 18 19  1  0
 19 20  1  0
 20 21  1  0
 21 22  1  0
 22 23  2  0
 22 24  2  0
 22 25  1  0
 25 26  1  0
 18 27  2  0
 27 28  1  0
 28 29  1  0
 28 30  2  0
 15 31  1  0
 31 32  2  0
 32  6  1  0
 32 12  1  0
 30 16  1  0
 26 19  1  0
  1 33  1  0
  1 34  1  0
  1 35  1  0
  2 36  1  0
  2 37  1  0
  9 38  1  0
  9 39  1  0
 11 40  1  0
 13 41  1  0
 14 42  1  0
 17 43  1  0
 20 44  1  0
 20 45  1  0
 21 46  1  0
 21 47  1  0
 25 48  1  0
 25 49  1  0
 26 50  1  0
 26 51  1  0
 29 52  1  0
 29 53  1  0
 31 54  1  0
M  END
>  <UniqueID>  (31) 
31

>  <SMILES>  (31) 
CCOC(=O)n1c(C(N)=O)cc2ccc(-c3cc(N4CCS(=O)(=O)CC4)nc(N)n3)cc21

>  <Energy>  (31) 
94.09260355619364

>  <Genealogy>  (31) 
CCOC(=O)n1c(C(N)=O)cc2ccc(-c3cc(N4CCS(=O)(=O)CC4)nc(N)n3)cc21 (3D coordinates assigned)
CCOC(=O)n1c(C(N)=O)cc2ccc(-c3cc(N4CCS(=O)(=O)CC4)nc(N)n3)cc21 (nonaromatic ring conformer: 94.09260355619364 kcal/mol)

>  <smiles>  (31) 
CCOC(=O)n1c(C(N)=O)cc2ccc(-c3cc(N4CCS(=O)(=O)CC4)nc(N)n3)cc21

>  <score_type>  (31) 
oracle

>  <origin>  (31) 
adg

>  <m_score__min__energy>  (31) 
-8.9100000000000001

>  <m_primary>  (31) 
energy

$$$$
32:0
     RDKit          3D

 25 26  0  0  0  0  0  0  0  0999 V2000
   -5.6440   26.5160  -30.1440 N   0  0  0  0  0  0  0  0  0  0  0  0
   -6.4130   25.3350  -29.9110 C   0  0  0  0  0  0  0  0  0  0  0  0
   -7.2610   25.3240  -28.9800 O   0  0  0  0  0  0  0  0  0  0  0  0
   -6.1850   24.1070  -30.6990 C   0  0  0  0  0  0  0  0  0  0  0  0
   -7.2130   23.3700  -31.2810 C   0  0  0  0  0  0  0  0  0  0  0  0
   -6.5980   22.2860  -31.8610 C   0  0  0  0  0  0  0  0  0  0  0  0
   -7.1440   21.2420  -32.6000 C   0  0  0  0  0  0  0  0  0  0  0  0
   -6.2680   20.2770  -33.1260 C   0  0  0  0  0  0  0  0  0  0  0  0
   -4.8700   20.3670  -32.9000 C   0  0  0  0  0  0  0  0  0  0  0  0
   -3.9340   19.3620  -33.5230 C   0  0  0  0  0  0  0  0  0  0  0  0
   -2.7960   19.9860  -34.0040 F   0  0  0  0  0  0  0  0  0  0  0  0
   -4.5790   18.7300  -34.5700 F   0  0  0  0  0  0  0  0  0  0  0  0
   -3.5470   18.4130  -32.5930 F   0  0  0  0  0  0  0  0  0  0  0  0
   -4.3520   21.4600  -32.1650 C   0  0  0  0  0  0  0  0  0  0  0  0
   -5.2500   22.3940  -31.6340 C   0  0  0  0  0  0  0  0  0  0  0  0
   -4.9790   23.5120  -30.9220 N   0  0  0  0  0  0  0  0  0  0  0  0
   -3.6770   24.0210  -30.5840 C   0  0  0  0  0  0  0  0  0  0  0  0
   -3.4920   25.2600  -30.4600 O   0  0  0  0  0  0  0  0  0  0  0  0
   -2.6100   23.1540  -30.3910 O   0  0  0  0  0  0  0  0  0  0  0  0
   -4.8220   26.5060  -30.7880 H   0  0  0  0  0  0  0  0  0  0  0  0
   -5.8440   27.3860  -29.6040 H   0  0  0  0  0  0  0  0  0  0  0  0
   -8.2876   23.6050  -31.2774 H   0  0  0  0  0  0  0  0  0  0  0  0
   -8.2290   21.1736  -32.7678 H   0  0  0  0  0  0  0  0  0  0  0  0
   -6.6705   19.4428  -33.7194 H   0  0  0  0  0  0  0  0  0  0  0  0
   -3.2683   21.5732  -32.0143 H   0  0  0  0  0  0  0  0  0  0  0  0
  1  2  1  0
  2  3  2  0
  2  4  1  0
  4  5  2  0
  5  6  1  0
  6  7  2  0
  7  8  1  0
  8  9  2  0
  9 10  1  0
 10 11  1  0
 10 12  1  0
 10 13  1  0
  9 14  1  0
 14 15  2  0
 15 16  1  0
 16 17  1  0
 17 18  2  0
 17 19  1  0
 16  4  1  0
 15  6  1  0
  1 20  1  0
  1 21  1  0
  5 22  1  0
  7 23  1  0
  8 24  1  0
 14 25  1  0
M  CHG  1  19  -1
M  END
>  <UniqueID>  (32) 
32

>  <SMILES>  (32) 
NC(=O)c1cc2ccc(C(F)(F)F)cc2n1C(=O)[O-]

>  <Energy>  (32) 
66.34749039743565

>  <Genealogy>  (32) 
NC(=O)c1cc2ccc(C(F)(F)F)cc2n1C(=O)[O-] (protonated)
NC(=O)c1cc2ccc(C(F)(F)F)cc2n1C(=O)[O-] (3D coordinates assigned)
NC(=O)c1cc2ccc(C(F)(F)F)cc2n1C(=O)[O-] (optimized conformer: 66.34749039743565 kcal/mol)

>  <smiles>  (32) 
NC(=O)c1cc2ccc(C(F)(F)F)cc2n1C(=O)O

>  <score_type>  (32) 
oracle

>  <origin>  (32) 
adg

>  <m_score__min__energy>  (32) 
-7.8499999999999996

>  <m_primary>  (32) 
energy

$$$$
33:0
     RDKit          3D

 54 56  0  0  0  0  0  0  0  0999 V2000
   -2.8540   18.8860  -33.8150 C   0  0  0  0  0  0  0  0  0  0  0  0
   -3.0850   17.5430  -33.1300 C   0  0  0  0  0  0  0  0  0  0  0  0
   -4.1010   16.7590  -33.8670 N   0  0  0  0  0  0  0  0  0  0  0  0
   -5.1150   16.1700  -32.9640 C   0  0  0  0  0  0  0  0  0  0  0  0
   -5.9690   17.2560  -32.2890 C   0  0  0  0  0  0  0  0  0  0  0  0
   -6.2320   18.3540  -33.2250 N   0  0  0  0  0  0  0  0  0  0  0  0
   -6.5080   19.6760  -32.7240 C   0  0  0  0  0  0  0  0  0  0  0  0
   -7.8450   20.1130  -32.5590 C   0  0  0  0  0  0  0  0  0  0  0  0
   -8.1240   21.3980  -32.0610 C   0  0  0  0  0  0  0  0  0  0  0  0
   -7.0480   22.2120  -31.7190 C   0  0  0  0  0  0  0  0  0  0  0  0
   -7.0280   23.4970  -31.2240 C   0  0  0  0  0  0  0  0  0  0  0  0
   -5.6790   23.8080  -31.0550 C   0  0  0  0  0  0  0  0  0  0  0  0
   -5.2060   25.0710  -30.4520 C   0  0  0  0  0  0  0  0  0  0  0  0
   -3.9670   25.6540  -30.8460 N   0  0  0  0  0  0  0  0  0  0  0  0
   -5.8840   25.6200  -29.5420 O   0  0  0  0  0  0  0  0  0  0  0  0
   -4.8970   22.7600  -31.4400 N   0  0  0  0  0  0  0  0  0  0  0  0
   -3.4650   22.6870  -31.4800 C   0  0  0  0  0  0  0  0  0  0  0  0
   -2.8920   22.1560  -32.4690 O   0  0  0  0  0  0  0  0  0  0  0  0
   -2.7250   23.1770  -30.3940 O   0  0  0  0  0  0  0  0  0  0  0  0
   -2.6500   22.6020  -29.0830 C   0  0  0  0  0  0  0  0  0  0  0  0
   -2.7250   21.0660  -29.1580 C   0  0  0  0  0  0  0  0  0  0  0  0
   -3.7690   23.1620  -28.1830 C   0  0  0  0  0  0  0  0  0  0  0  0
   -1.2910   23.0070  -28.4910 C   0  0  0  0  0  0  0  0  0  0  0  0
   -5.7500   21.7930  -31.8430 C   0  0  0  0  0  0  0  0  0  0  0  0
   -5.4440   20.5300  -32.3610 C   0  0  0  0  0  0  0  0  0  0  0  0
   -6.1080   18.0960  -34.6620 C   0  0  0  0  0  0  0  0  0  0  0  0
   -4.7110   17.5280  -34.9860 C   0  0  0  0  0  0  0  0  0  0  0  0
   -2.7195   19.6679  -33.0531 H   0  0  0  0  0  0  0  0  0  0  0  0
   -1.9528   18.8271  -34.4430 H   0  0  0  0  0  0  0  0  0  0  0  0
   -3.7231   19.1316  -34.4430 H   0  0  0  0  0  0  0  0  0  0  0  0
   -2.1399   16.9806  -33.1058 H   0  0  0  0  0  0  0  0  0  0  0  0
   -3.4439   17.7207  -32.1055 H   0  0  0  0  0  0  0  0  0  0  0  0
   -5.7730   15.5098  -33.5481 H   0  0  0  0  0  0  0  0  0  0  0  0
   -4.5908   15.6060  -32.1784 H   0  0  0  0  0  0  0  0  0  0  0  0
   -6.9249   16.8174  -31.9669 H   0  0  0  0  0  0  0  0  0  0  0  0
   -5.4227   17.6509  -31.4198 H   0  0  0  0  0  0  0  0  0  0  0  0
   -8.6740   19.4400  -32.8232 H   0  0  0  0  0  0  0  0  0  0  0  0
   -9.1601   21.7489  -31.9453 H   0  0  0  0  0  0  0  0  0  0  0  0
   -7.8928   24.1415  -31.0077 H   0  0  0  0  0  0  0  0  0  0  0  0
   -3.0620   25.3040  -30.4610 H   0  0  0  0  0  0  0  0  0  0  0  0
   -2.7453   20.6497  -28.1400 H   0  0  0  0  0  0  0  0  0  0  0  0
   -3.6387   20.7692  -29.6938 H   0  0  0  0  0  0  0  0  0  0  0  0
   -1.8446   20.6816  -29.6938 H   0  0  0  0  0  0  0  0  0  0  0  0
   -3.4937   23.0242  -27.1270 H   0  0  0  0  0  0  0  0  0  0  0  0
   -3.9040   24.2339  -28.3899 H   0  0  0  0  0  0  0  0  0  0  0  0
   -4.7079   22.6275  -28.3899 H   0  0  0  0  0  0  0  0  0  0  0  0
   -1.3496   22.9895  -27.3927 H   0  0  0  0  0  0  0  0  0  0  0  0
   -0.5188   22.3000  -28.8283 H   0  0  0  0  0  0  0  0  0  0  0  0
   -1.0318   24.0214  -28.8283 H   0  0  0  0  0  0  0  0  0  0  0  0
   -4.3987   20.2098  -32.4826 H   0  0  0  0  0  0  0  0  0  0  0  0
   -6.8750   17.3691  -34.9675 H   0  0  0  0  0  0  0  0  0  0  0  0
   -6.2452   19.0410  -35.2081 H   0  0  0  0  0  0  0  0  0  0  0  0
   -4.8009   16.8614  -35.8564 H   0  0  0  0  0  0  0  0  0  0  0  0
   -4.0528   18.3876  -35.1803 H   0  0  0  0  0  0  0  0  0  0  0  0
  1  2  1  0
  2  3  1  0
  3  4  1  0
  4  5  1  0
  5  6  1  0
  6  7  1  0
  7  8  2  0
  8  9  1  0
  9 10  2  0
 10 11  1  0
 11 12  2  0
 12 13  1  0
 13 14  1  0
 13 15  2  0
 12 16  1  0
 16 17  1  0
 17 18  2  0
 17 19  1  0
 19 20  1  0
 20 21  1  0
 20 22  1  0
 20 23  1  0
 16 24  1  0
 24 25  2  0
  6 26  1  0
 26 27  1  0
 27  3  1  0
 25  7  1  0
 24 10  1  0
  1 28  1  0
  1 29  1  0
  1 30  1  0
  2 31  1  0
  2 32  1  0
  4 33  1  0
  4 34  1  0
  5 35  1  0
  5 36  1  0
  8 37  1  0
  9 38  1  0
 11 39  1  0
 14 40  1  0
 21 41  1  0
 21 42  1  0
 21 43  1  0
 22 44  1  0
 22 45  1  0
 22 46  1  0
 23 47  1  0
 23 48  1  0
 23 49  1  0
 25 50  1  0
 26 51  1  0
 26 52  1  0
 27 53  1  0
 27 54  1  0
M  CHG  1  14  -1
M  END
>  <UniqueID>  (33) 
33

>  <SMILES>  (33) 
CCN1CCN(c2ccc3cc(C([NH-])=O)n(C(=O)OC(C)(C)C)c3c2)CC1

>  <Energy>  (33) 
97.11349885984576

>  <Genealogy>  (33) 
CCN1CCN(c2ccc3cc(C([NH-])=O)n(C(=O)OC(C)(C)C)c3c2)CC1 (protonated)
CCN1CCN(c2ccc3cc(C([NH-])=O)n(C(=O)OC(C)(C)C)c3c2)CC1 (3D coordinates assigned)
CCN1CCN(c2ccc3cc(C([NH-])=O)n(C(=O)OC(C)(C)C)c3c2)CC1 (nonaromatic ring conformer: 97.11349885984576 kcal/mol)

>  <smiles>  (33) 
CCN1CCN(c2ccc3cc(C(N)=O)n(C(=O)OC(C)(C)C)c3c2)CC1

>  <score_type>  (33) 
oracle

>  <origin>  (33) 
adg

>  <m_score__min__energy>  (33) 
-11.48

>  <m_primary>  (33) 
energy

$$$$
34:0
     RDKit          3D

 57 59  0  0  0  0  0  0  0  0999 V2000
   -3.9210   23.1380  -28.2130 C   0  0  0  0  0  0  0  0  0  0  0  0
   -3.0720   22.3200  -29.1730 C   0  0  0  0  0  0  0  0  0  0  0  0
   -2.9850   22.9970  -30.4220 O   0  0  0  0  0  0  0  0  0  0  0  0
   -3.8170   22.6990  -31.5060 C   0  0  0  0  0  0  0  0  0  0  0  0
   -3.3320   22.2260  -32.5710 O   0  0  0  0  0  0  0  0  0  0  0  0
   -5.2350   22.9050  -31.3930 N   0  0  0  0  0  0  0  0  0  0  0  0
   -5.8930   24.0330  -31.0000 C   0  0  0  0  0  0  0  0  0  0  0  0
   -5.2740   25.2570  -30.4490 C   0  0  0  0  0  0  0  0  0  0  0  0
   -3.9600   25.6530  -30.8310 N   0  0  0  0  0  0  0  0  0  0  0  0
   -5.8940   25.9330  -29.5850 O   0  0  0  0  0  0  0  0  0  0  0  0
   -7.2720   23.8550  -31.1010 C   0  0  0  0  0  0  0  0  0  0  0  0
   -7.4410   22.5680  -31.5600 C   0  0  0  0  0  0  0  0  0  0  0  0
   -8.6090   21.8650  -31.8360 C   0  0  0  0  0  0  0  0  0  0  0  0
   -8.4870   20.5500  -32.3140 C   0  0  0  0  0  0  0  0  0  0  0  0
   -7.2080   19.9710  -32.5210 C   0  0  0  0  0  0  0  0  0  0  0  0
   -7.0890   18.5480  -33.0060 C   0  0  0  0  0  0  0  0  0  0  0  0
   -5.6820   17.9800  -32.7320 C   0  0  2  0  0  0  0  0  0  0  0  0
   -4.8110   18.0980  -33.9040 N   0  0  0  0  0  0  0  0  0  0  0  0
   -3.5010   18.6750  -33.9470 C   0  0  0  0  0  0  0  0  0  0  0  0
   -3.3900   19.9220  -34.0900 O   0  0  0  0  0  0  0  0  0  0  0  0
   -2.3610   17.8680  -33.8510 O   0  0  0  0  0  0  0  0  0  0  0  0
   -1.0310   18.3770  -33.9140 C   0  0  0  0  0  0  0  0  0  0  0  0
   -0.7430   19.2220  -32.7050 C   0  0  0  0  0  0  0  0  0  0  0  0
   -0.5350   18.6110  -31.4580 C   0  0  0  0  0  0  0  0  0  0  0  0
   -0.3130   19.3890  -30.3190 C   0  0  0  0  0  0  0  0  0  0  0  0
   -0.2970   20.7840  -30.4180 C   0  0  0  0  0  0  0  0  0  0  0  0
   -0.5040   21.4000  -31.6550 C   0  0  0  0  0  0  0  0  0  0  0  0
   -0.7300   20.6240  -32.7960 C   0  0  0  0  0  0  0  0  0  0  0  0
   -5.7230   16.5570  -32.2450 C   0  0  0  0  0  0  0  0  0  0  0  0
   -5.7630   16.3270  -31.0040 O   0  0  0  0  0  0  0  0  0  0  0  0
   -5.7220   15.4960  -33.1580 O   0  0  0  0  0  0  0  0  0  0  0  0
   -4.5270   14.9960  -33.7450 C   0  0  0  0  0  0  0  0  0  0  0  0
   -6.0460   20.7150  -32.2220 C   0  0  0  0  0  0  0  0  0  0  0  0
   -6.1960   22.0160  -31.7280 C   0  0  0  0  0  0  0  0  0  0  0  0
   -3.6542   22.8809  -27.1773 H   0  0  0  0  0  0  0  0  0  0  0  0
   -3.7384   24.2092  -28.3836 H   0  0  0  0  0  0  0  0  0  0  0  0
   -4.9847   22.9157  -28.3836 H   0  0  0  0  0  0  0  0  0  0  0  0
   -2.0631   22.1928  -28.7535 H   0  0  0  0  0  0  0  0  0  0  0  0
   -3.5336   21.3327  -29.3217 H   0  0  0  0  0  0  0  0  0  0  0  0
   -3.1200   25.2630  -30.3480 H   0  0  0  0  0  0  0  0  0  0  0  0
   -8.0580   24.5872  -30.8643 H   0  0  0  0  0  0  0  0  0  0  0  0
   -9.5970   22.3244  -31.6847 H   0  0  0  0  0  0  0  0  0  0  0  0
   -9.3919   19.9630  -32.5301 H   0  0  0  0  0  0  0  0  0  0  0  0
   -7.8336   17.9282  -32.4851 H   0  0  0  0  0  0  0  0  0  0  0  0
   -7.2639   18.5349  -34.0919 H   0  0  0  0  0  0  0  0  0  0  0  0
   -5.2558   18.5934  -31.9245 H   0  0  0  0  0  0  0  0  0  0  0  0
   -0.3214   17.5372  -33.9482 H   0  0  0  0  0  0  0  0  0  0  0  0
   -0.9245   18.9944  -34.8181 H   0  0  0  0  0  0  0  0  0  0  0  0
   -0.5469   17.5140  -31.3775 H   0  0  0  0  0  0  0  0  0  0  0  0
   -0.1509   18.9046  -29.3448 H   0  0  0  0  0  0  0  0  0  0  0  0
   -0.1213   21.3967  -29.5215 H   0  0  0  0  0  0  0  0  0  0  0  0
   -0.4891   22.4972  -31.7313 H   0  0  0  0  0  0  0  0  0  0  0  0
   -0.8980   21.1124  -33.7672 H   0  0  0  0  0  0  0  0  0  0  0  0
   -3.8240   14.7019  -32.9517 H   0  0  0  0  0  0  0  0  0  0  0  0
   -4.7630   14.1212  -34.3687 H   0  0  0  0  0  0  0  0  0  0  0  0
   -4.0697   15.7782  -34.3687 H   0  0  0  0  0  0  0  0  0  0  0  0
   -5.0461   20.2824  -32.3737 H   0  0  0  0  0  0  0  0  0  0  0  0
  1  2  1  0
  2  3  1  0
  3  4  1  0
  4  5  2  0
  4  6  1  0
  6  7  1  0
  7  8  1  0
  8  9  1  0
  8 10  2  0
  7 11  2  0
 11 12  1  0
 12 13  2  0
 13 14  1  0
 14 15  2  0
 15 16  1  0
 16 17  1  0
 17 18  1  0
 18 19  1  0
 19 20  2  0
 19 21  1  0
 21 22  1  0
 22 23  1  0
 23 24  2  0
 24 25  1  0
 25 26  2  0
 26 27  1  0
 27 28  2  0
 17 29  1  0
 29 30  2  0
 29 31  1  0
 31 32  1  0
 15 33  1  0
 33 34  2  0
 34  6  1  0
 34 12  1  0
 28 23  1  0
  1 35  1  0
  1 36  1  0
  1 37  1  0
  2 38  1  0
  2 39  1  0
  9 40  1  0
 11 41  1  0
 13 42  1  0
 14 43  1  0
 16 44  1  0
 16 45  1  0
 17 46  1  1
 22 47  1  0
 22 48  1  0
 24 49  1  0
 25 50  1  0
 26 51  1  0
 27 52  1  0
 28 53  1  0
 32 54  1  0
 32 55  1  0
 32 56  1  0
 33 57  1  0
M  CHG  2   9  -1  18  -1
M  END
>  <UniqueID>  (34) 
34

>  <SMILES>  (34) 
CCOC(=O)n1c(C([NH-])=O)cc2ccc(C[C@H]([N-]C(=O)OCc3ccccc3)C(=O)OC)cc21

>  <Energy>  (34) 
84.53998559557904

>  <Genealogy>  (34) 
CCOC(=O)n1c(C([NH-])=O)cc2ccc(C[C@H]([N-]C(=O)OCc3ccccc3)C(=O)OC)cc21 (protonated)
CCOC(=O)n1c(C([NH-])=O)cc2ccc(C[C@H]([N-]C(=O)OCc3ccccc3)C(=O)OC)cc21 (3D coordinates assigned)
CCOC(=O)n1c(C([NH-])=O)cc2ccc(C[C@H]([N-]C(=O)OCc3ccccc3)C(=O)OC)cc21 (optimized conformer: 84.53998559557904 kcal/mol)

>  <smiles>  (34) 
CCOC(=O)n1c(C(N)=O)cc2ccc(C[C@H](NC(=O)OCc3ccccc3)C(=O)OC)cc21

>  <score_type>  (34) 
oracle

>  <origin>  (34) 
adg

>  <m_score__min__energy>  (34) 
-10.630000000000001

>  <m_primary>  (34) 
energy

$$$$
35:0
     RDKit          3D

 51 53  0  0  0  0  0  0  0  0999 V2000
   -5.7860   16.7550  -34.1350 C   0  0  0  0  0  0  0  0  0  0  0  0
   -5.9810   18.2440  -33.8320 C   0  0  1  0  0  0  0  0  0  0  0  0
   -6.0410   18.9460  -35.0450 O   0  0  0  0  0  0  0  0  0  0  0  0
   -7.2680   18.5010  -33.0270 C   0  0  0  0  0  0  0  0  0  0  0  0
   -7.3440   19.9180  -32.5150 C   0  0  0  0  0  0  0  0  0  0  0  0
   -8.6040   20.5220  -32.2690 C   0  0  0  0  0  0  0  0  0  0  0  0
   -8.6840   21.8280  -31.7570 C   0  0  0  0  0  0  0  0  0  0  0  0
   -7.4940   22.5030  -31.5020 C   0  0  0  0  0  0  0  0  0  0  0  0
   -7.2750   23.7620  -30.9830 C   0  0  0  0  0  0  0  0  0  0  0  0
   -5.8880   23.8990  -30.9220 C   0  0  0  0  0  0  0  0  0  0  0  0
   -5.1950   25.1150  -30.4500 C   0  0  0  0  0  0  0  0  0  0  0  0
   -3.8650   25.3910  -30.8860 N   0  0  0  0  0  0  0  0  0  0  0  0
   -5.7610   25.9100  -29.6530 O   0  0  0  0  0  0  0  0  0  0  0  0
   -5.2810   22.7750  -31.3880 N   0  0  0  0  0  0  0  0  0  0  0  0
   -3.8780   22.4910  -31.4440 C   0  0  0  0  0  0  0  0  0  0  0  0
   -3.3100   22.3630  -32.5610 O   0  0  0  0  0  0  0  0  0  0  0  0
   -3.1200   22.2210  -30.1860 C   0  0  0  0  0  0  0  0  0  0  0  0
   -3.2520   23.3410  -29.3370 O   0  0  0  0  0  0  0  0  0  0  0  0
   -3.5690   22.9410  -28.0130 C   0  0  0  0  0  0  0  0  0  0  0  0
   -4.1500   24.1410  -27.2220 C   0  0  0  0  0  0  0  0  0  0  0  0
   -3.0850   24.9820  -26.4870 C   0  0  0  0  0  0  0  0  0  0  0  0
   -1.7270   24.9270  -27.1930 C   0  0  0  0  0  0  0  0  0  0  0  0
   -1.1840   23.4870  -27.2610 C   0  0  0  0  0  0  0  0  0  0  0  0
   -2.2930   22.4160  -27.3380 C   0  0  0  0  0  0  0  0  0  0  0  0
   -6.2710   21.9310  -31.7390 C   0  0  0  0  0  0  0  0  0  0  0  0
   -6.1570   20.6340  -32.2440 C   0  0  0  0  0  0  0  0  0  0  0  0
   -5.7127   16.1952  -33.1909 H   0  0  0  0  0  0  0  0  0  0  0  0
   -6.6432   16.3837  -34.7158 H   0  0  0  0  0  0  0  0  0  0  0  0
   -4.8621   16.6169  -34.7158 H   0  0  0  0  0  0  0  0  0  0  0  0
   -5.1324   18.5880  -33.2225 H   0  0  0  0  0  0  0  0  0  0  0  0
   -6.9350   19.3760  -35.0860 H   0  0  0  0  0  0  0  0  0  0  0  0
   -8.1359   18.3113  -33.6757 H   0  0  0  0  0  0  0  0  0  0  0  0
   -7.2641   17.8267  -32.1579 H   0  0  0  0  0  0  0  0  0  0  0  0
   -9.5270   19.9625  -32.4811 H   0  0  0  0  0  0  0  0  0  0  0  0
   -9.6574   22.3024  -31.5636 H   0  0  0  0  0  0  0  0  0  0  0  0
   -8.0324   24.5005  -30.6815 H   0  0  0  0  0  0  0  0  0  0  0  0
   -3.0560   25.2970  -30.2330 H   0  0  0  0  0  0  0  0  0  0  0  0
   -3.5293   21.3286  -29.6900 H   0  0  0  0  0  0  0  0  0  0  0  0
   -2.0589   22.0434  -30.4149 H   0  0  0  0  0  0  0  0  0  0  0  0
   -4.3270   22.1441  -28.0315 H   0  0  0  0  0  0  0  0  0  0  0  0
   -4.6815   24.7961  -27.9280 H   0  0  0  0  0  0  0  0  0  0  0  0
   -4.8137   23.7229  -26.4509 H   0  0  0  0  0  0  0  0  0  0  0  0
   -3.4231   26.0280  -26.4472 H   0  0  0  0  0  0  0  0  0  0  0  0
   -2.9608   24.5668  -25.4760 H   0  0  0  0  0  0  0  0  0  0  0  0
   -1.8400   25.3151  -28.2160 H   0  0  0  0  0  0  0  0  0  0  0  0
   -1.0146   25.5378  -26.6190 H   0  0  0  0  0  0  0  0  0  0  0  0
   -0.5487   23.3958  -28.1544 H   0  0  0  0  0  0  0  0  0  0  0  0
   -0.6234   23.3074  -26.3318 H   0  0  0  0  0  0  0  0  0  0  0  0
   -1.9161   21.5581  -27.9142 H   0  0  0  0  0  0  0  0  0  0  0  0
   -2.5527   22.1278  -26.3087 H   0  0  0  0  0  0  0  0  0  0  0  0
   -5.1705   20.1826  -32.4256 H   0  0  0  0  0  0  0  0  0  0  0  0
  1  2  1  0
  2  3  1  0
  2  4  1  0
  4  5  1  0
  5  6  2  0
  6  7  1  0
  7  8  2  0
  8  9  1  0
  9 10  2  0
 10 11  1  0
 11 12  1  0
 11 13  2  0
 10 14  1  0
 14 15  1  0
 15 16  2  0
 15 17  1  0
 17 18  1  0
 18 19  1  0
 19 20  1  0
 20 21  1  0
 21 22  1  0
 22 23  1  0
 23 24  1  0
 14 25  1  0
 25 26  2  0
 26  5  1  0
 25  8  1  0
 24 19  1  0
  1 27  1  0
  1 28  1  0
  1 29  1  0
  2 30  1  1
  3 31  1  0
  4 32  1  0
  4 33  1  0
  6 34  1  0
  7 35  1  0
  9 36  1  0
 12 37  1  0
 17 38  1  0
 17 39  1  0
 19 40  1  0
 20 41  1  0
 20 42  1  0
 21 43  1  0
 21 44  1  0
 22 45  1  0
 22 46  1  0
 23 47  1  0
 23 48  1  0
 24 49  1  0
 24 50  1  0
 26 51  1  0
M  CHG  1  12  -1
M  END
>  <UniqueID>  (35) 
35

>  <SMILES>  (35) 
C[C@@H](O)Cc1ccc2cc(C([NH-])=O)n(C(=O)COC3CCCCC3)c2c1

>  <Energy>  (35) 
88.50539753843155

>  <Genealogy>  (35) 
CC(O)Cc1ccc2cc(C([NH-])=O)n(C(=O)COC3CCCCC3)c2c1 (protonated)
C[C@@H](O)Cc1ccc2cc(C([NH-])=O)n(C(=O)COC3CCCCC3)c2c1 (chirality)
C[C@@H](O)Cc1ccc2cc(C([NH-])=O)n(C(=O)COC3CCCCC3)c2c1 (3D coordinates assigned)
C[C@@H](O)Cc1ccc2cc(C([NH-])=O)n(C(=O)COC3CCCCC3)c2c1 (nonaromatic ring conformer: 88.50539753843155 kcal/mol)

>  <smiles>  (35) 
CC(O)Cc1ccc2cc(C(N)=O)n(C(=O)COC3CCCCC3)c2c1

>  <score_type>  (35) 
oracle

>  <origin>  (35) 
adg

>  <m_score__min__energy>  (35) 
-11.85

>  <m_primary>  (35) 
energy

$$$$
36:0
     RDKit          3D

 46 48  0  0  0  0  0  0  0  0999 V2000
   -6.4210   17.4050  -30.8400 C   0  0  0  0  0  0  0  0  0  0  0  0
   -6.0900   17.3410  -32.3020 C   0  0  0  0  0  0  0  0  0  0  0  0
   -5.7980   16.1280  -32.8470 N   0  0  0  0  0  0  0  0  0  0  0  0
   -5.4640   15.9810  -34.1550 C   0  0  0  0  0  0  0  0  0  0  0  0
   -5.4060   17.0950  -34.9900 C   0  0  0  0  0  0  0  0  0  0  0  0
   -5.7080   18.3540  -34.4710 C   0  0  0  0  0  0  0  0  0  0  0  0
   -6.0700   18.4950  -33.1230 C   0  0  0  0  0  0  0  0  0  0  0  0
   -6.3990   19.8420  -32.6050 C   0  0  0  0  0  0  0  0  0  0  0  0
   -7.7460   20.2730  -32.5270 C   0  0  0  0  0  0  0  0  0  0  0  0
   -8.0620   21.5520  -32.0360 C   0  0  0  0  0  0  0  0  0  0  0  0
   -7.0120   22.3800  -31.6510 C   0  0  0  0  0  0  0  0  0  0  0  0
   -7.0330   23.6530  -31.1280 C   0  0  0  0  0  0  0  0  0  0  0  0
   -5.6960   23.9950  -30.9310 C   0  0  0  0  0  0  0  0  0  0  0  0
   -5.2570   25.3250  -30.4620 C   0  0  0  0  0  0  0  0  0  0  0  0
   -3.8710   25.6620  -30.4810 N   0  0  0  0  0  0  0  0  0  0  0  0
   -6.0870   26.1590  -30.0120 O   0  0  0  0  0  0  0  0  0  0  0  0
   -4.8810   22.9680  -31.3090 N   0  0  0  0  0  0  0  0  0  0  0  0
   -3.4500   22.8960  -31.2240 C   0  0  0  0  0  0  0  0  0  0  0  0
   -2.8630   23.3140  -30.1900 O   0  0  0  0  0  0  0  0  0  0  0  0
   -2.7270   22.3310  -32.2850 O   0  0  0  0  0  0  0  0  0  0  0  0
   -2.0010   21.0940  -32.2600 C   0  0  0  0  0  0  0  0  0  0  0  0
   -2.3080   20.3130  -30.9670 C   0  0  0  0  0  0  0  0  0  0  0  0
   -2.4750   20.2670  -33.4640 C   0  0  0  0  0  0  0  0  0  0  0  0
   -0.4880   21.3500  -32.3940 C   0  0  0  0  0  0  0  0  0  0  0  0
   -5.7020   21.9900  -31.7490 C   0  0  0  0  0  0  0  0  0  0  0  0
   -5.3600   20.7140  -32.2140 C   0  0  0  0  0  0  0  0  0  0  0  0
   -5.5097   17.2288  -30.2497 H   0  0  0  0  0  0  0  0  0  0  0  0
   -6.8275   18.3984  -30.5992 H   0  0  0  0  0  0  0  0  0  0  0  0
   -7.1685   16.6348  -30.5992 H   0  0  0  0  0  0  0  0  0  0  0  0
   -5.2390   14.9816  -34.5557 H   0  0  0  0  0  0  0  0  0  0  0  0
   -5.1250   16.9827  -36.0476 H   0  0  0  0  0  0  0  0  0  0  0  0
   -5.6621   19.2400  -35.1214 H   0  0  0  0  0  0  0  0  0  0  0  0
   -8.5528   19.6005  -32.8538 H   0  0  0  0  0  0  0  0  0  0  0  0
   -9.1067   21.8876  -31.9586 H   0  0  0  0  0  0  0  0  0  0  0  0
   -7.9176   24.2699  -30.9113 H   0  0  0  0  0  0  0  0  0  0  0  0
   -3.2230   25.2300  -31.1770 H   0  0  0  0  0  0  0  0  0  0  0  0
   -2.0628   20.9369  -30.0948 H   0  0  0  0  0  0  0  0  0  0  0  0
   -3.3760   20.0510  -30.9417 H   0  0  0  0  0  0  0  0  0  0  0  0
   -1.7043   19.3938  -30.9417 H   0  0  0  0  0  0  0  0  0  0  0  0
   -2.9925   19.3641  -33.1077 H   0  0  0  0  0  0  0  0  0  0  0  0
   -3.1652   20.8689  -34.0734 H   0  0  0  0  0  0  0  0  0  0  0  0
   -1.6068   19.9756  -34.0734 H   0  0  0  0  0  0  0  0  0  0  0  0
   -0.0389   21.4260  -31.3927 H   0  0  0  0  0  0  0  0  0  0  0  0
   -0.0225   20.5179  -32.9425 H   0  0  0  0  0  0  0  0  0  0  0  0
   -0.3222   22.2890  -32.9425 H   0  0  0  0  0  0  0  0  0  0  0  0
   -4.3077   20.3990  -32.2731 H   0  0  0  0  0  0  0  0  0  0  0  0
  1  2  1  0
  2  3  2  0
  3  4  1  0
  4  5  2  0
  5  6  1  0
  6  7  2  0
  7  8  1  0
  8  9  2  0
  9 10  1  0
 10 11  2  0
 11 12  1  0
 12 13  2  0
 13 14  1  0
 14 15  1  0
 14 16  2  0
 13 17  1  0
 17 18  1  0
 18 19  2  0
 18 20  1  0
 20 21  1  0
 21 22  1  0
 21 23  1  0
 21 24  1  0
 17 25  1  0
 25 26  2  0
  7  2  1  0
 26  8  1  0
 25 11  1  0
  1 27  1  0
  1 28  1  0
  1 29  1  0
  4 30  1  0
  5 31  1  0
  6 32  1  0
  9 33  1  0
 10 34  1  0
 12 35  1  0
 15 36  1  0
 22 37  1  0
 22 38  1  0
 22 39  1  0
 23 40  1  0
 23 41  1  0
 23 42  1  0
 24 43  1  0
 24 44  1  0
 24 45  1  0
 26 46  1  0
M  CHG  1  15  -1
M  END
>  <UniqueID>  (36) 
36

>  <SMILES>  (36) 
Cc1ncccc1-c1ccc2cc(C([NH-])=O)n(C(=O)OC(C)(C)C)c2c1

>  <Energy>  (36) 
88.93599281252068

>  <Genealogy>  (36) 
Cc1ncccc1-c1ccc2cc(C([NH-])=O)n(C(=O)OC(C)(C)C)c2c1 (protonated)
Cc1ncccc1-c1ccc2cc(C([NH-])=O)n(C(=O)OC(C)(C)C)c2c1 (3D coordinates assigned)
Cc1ncccc1-c1ccc2cc(C([NH-])=O)n(C(=O)OC(C)(C)C)c2c1 (optimized conformer: 88.93599281252068 kcal/mol)

>  <smiles>  (36) 
Cc1ncccc1-c1ccc2cc(C(N)=O)n(C(=O)OC(C)(C)C)c2c1

>  <score_type>  (36) 
oracle

>  <origin>  (36) 
adg

>  <m_score__min__energy>  (36) 
-11.23

>  <m_primary>  (36) 
energy

$$$$
37:0
     RDKit          3D

 29 30  0  0  0  0  0  0  0  0999 V2000
   -3.4730   22.6820  -28.8390 C   0  0  0  0  0  0  0  0  0  0  0  0
   -3.2310   23.1550  -30.1580 O   0  0  0  0  0  0  0  0  0  0  0  0
   -3.9170   22.6620  -31.2730 C   0  0  0  0  0  0  0  0  0  0  0  0
   -3.2860   22.0930  -32.2060 O   0  0  0  0  0  0  0  0  0  0  0  0
   -5.3450   22.8070  -31.3570 N   0  0  0  0  0  0  0  0  0  0  0  0
   -6.0990   23.8560  -30.9200 C   0  0  0  0  0  0  0  0  0  0  0  0
   -5.5810   25.1410  -30.4090 C   0  0  0  0  0  0  0  0  0  0  0  0
   -4.2250   25.5320  -30.6290 N   0  0  0  0  0  0  0  0  0  0  0  0
   -6.3630   25.9320  -29.8160 O   0  0  0  0  0  0  0  0  0  0  0  0
   -7.4550   23.5800  -31.0610 C   0  0  0  0  0  0  0  0  0  0  0  0
   -7.5140   22.3230  -31.6180 C   0  0  0  0  0  0  0  0  0  0  0  0
   -8.6180   21.5450  -31.9530 C   0  0  0  0  0  0  0  0  0  0  0  0
   -8.3860   20.2610  -32.4720 C   0  0  0  0  0  0  0  0  0  0  0  0
   -7.0640   19.7820  -32.6470 C   0  0  0  0  0  0  0  0  0  0  0  0
   -6.8320   18.3890  -33.1510 C   0  0  0  0  0  0  0  0  0  0  0  0
   -5.9680   20.5920  -32.2790 C   0  0  0  0  0  0  0  0  0  0  0  0
   -6.2270   21.8780  -31.7850 C   0  0  0  0  0  0  0  0  0  0  0  0
   -3.0972   23.4164  -28.1114 H   0  0  0  0  0  0  0  0  0  0  0  0
   -4.5541   22.5409  -28.6926 H   0  0  0  0  0  0  0  0  0  0  0  0
   -2.9549   21.7228  -28.6926 H   0  0  0  0  0  0  0  0  0  0  0  0
   -3.6000   24.9830  -31.2600 H   0  0  0  0  0  0  0  0  0  0  0  0
   -3.8660   26.4260  -30.2260 H   0  0  0  0  0  0  0  0  0  0  0  0
   -8.3000   24.2283  -30.7859 H   0  0  0  0  0  0  0  0  0  0  0  0
   -9.6413   21.9243  -31.8154 H   0  0  0  0  0  0  0  0  0  0  0  0
   -9.2382   19.6213  -32.7451 H   0  0  0  0  0  0  0  0  0  0  0  0
   -6.7180   17.7045  -32.2975 H   0  0  0  0  0  0  0  0  0  0  0  0
   -7.6898   18.0727  -33.7626 H   0  0  0  0  0  0  0  0  0  0  0  0
   -5.9180   18.3678  -33.7626 H   0  0  0  0  0  0  0  0  0  0  0  0
   -4.9364   20.2232  -32.3775 H   0  0  0  0  0  0  0  0  0  0  0  0
  1  2  1  0
  2  3  1  0
  3  4  2  0
  3  5  1  0
  5  6  1  0
  6  7  1  0
  7  8  1  0
  7  9  2  0
  6 10  2  0
 10 11  1  0
 11 12  2  0
 12 13  1  0
 13 14  2  0
 14 15  1  0
 14 16  1  0
 16 17  2  0
 17  5  1  0
 17 11  1  0
  1 18  1  0
  1 19  1  0
  1 20  1  0
  8 21  1  0
  8 22  1  0
 10 23  1  0
 12 24  1  0
 13 25  1  0
 15 26  1  0
 15 27  1  0
 15 28  1  0
 16 29  1  0
M  END
>  <UniqueID>  (37) 
37

>  <SMILES>  (37) 
COC(=O)n1c(C(N)=O)cc2ccc(C)cc21

>  <Energy>  (37) 
66.0063069913449

>  <Genealogy>  (37) 
COC(=O)n1c(C(N)=O)cc2ccc(C)cc21 (3D coordinates assigned)
COC(=O)n1c(C(N)=O)cc2ccc(C)cc21 (optimized conformer: 66.0063069913449 kcal/mol)

>  <smiles>  (37) 
COC(=O)n1c(C(N)=O)cc2ccc(C)cc21

>  <score_type>  (37) 
oracle

>  <origin>  (37) 
adg

>  <m_score__min__energy>  (37) 
-7.7199999999999998

>  <m_primary>  (37) 
energy

$$$$
38:0
     RDKit          3D

 46 48  0  0  0  0  0  0  0  0999 V2000
   -1.2480   26.0370  -29.0010 N   0  0  0  0  0  0  0  0  0  0  0  0
   -1.8460   24.8500  -28.4830 C   0  0  0  0  0  0  0  0  0  0  0  0
   -2.2760   24.8420  -27.2990 O   0  0  0  0  0  0  0  0  0  0  0  0
   -1.9790   23.6570  -29.3450 C   0  0  0  0  0  0  0  0  0  0  0  0
   -1.0110   22.6570  -29.4340 C   0  0  0  0  0  0  0  0  0  0  0  0
   -1.4870   21.7710  -30.3740 C   0  0  0  0  0  0  0  0  0  0  0  0
   -0.9370   20.5810  -30.8430 C   0  0  0  0  0  0  0  0  0  0  0  0
   -1.6690   19.8480  -31.7950 C   0  0  0  0  0  0  0  0  0  0  0  0
   -2.9240   20.3150  -32.2460 C   0  0  0  0  0  0  0  0  0  0  0  0
   -3.6700   19.5460  -33.2050 C   0  0  0  0  0  0  0  0  0  0  0  0
   -4.2860   18.8870  -34.0050 C   0  0  0  0  0  0  0  0  0  0  0  0
   -5.0490   18.0840  -34.9720 C   0  0  0  0  0  0  0  0  0  0  0  0
   -6.3040   17.5540  -34.4010 N   0  0  0  0  0  0  0  0  0  0  0  0
   -6.9610   18.4750  -33.4400 C   0  0  0  0  0  0  0  0  0  0  0  0
   -7.1050   17.9020  -32.0170 C   0  0  0  0  0  0  0  0  0  0  0  0
   -5.7920   17.3980  -31.3650 C   0  0  0  0  0  0  0  0  0  0  0  0
   -5.4170   15.9330  -31.6560 C   0  0  0  0  0  0  0  0  0  0  0  0
   -5.1880   15.6270  -33.1450 C   0  0  0  0  0  0  0  0  0  0  0  0
   -6.2960   16.1010  -34.1070 C   0  0  0  0  0  0  0  0  0  0  0  0
   -3.4540   21.5240  -31.7510 C   0  0  0  0  0  0  0  0  0  0  0  0
   -2.6960   22.2410  -30.8190 C   0  0  0  0  0  0  0  0  0  0  0  0
   -3.0110   23.3990  -30.1980 N   0  0  0  0  0  0  0  0  0  0  0  0
   -4.2200   24.1540  -30.3700 C   0  0  0  0  0  0  0  0  0  0  0  0
   -4.6790   25.0260  -29.3380 N   0  0  0  0  0  0  0  0  0  0  0  0
   -4.8790   24.0530  -31.4390 O   0  0  0  0  0  0  0  0  0  0  0  0
   -1.0450   26.1340  -30.0200 H   0  0  0  0  0  0  0  0  0  0  0  0
   -0.0675   22.5904  -28.8724 H   0  0  0  0  0  0  0  0  0  0  0  0
    0.0388   20.2253  -30.4807 H   0  0  0  0  0  0  0  0  0  0  0  0
   -1.2619   18.9058  -32.1906 H   0  0  0  0  0  0  0  0  0  0  0  0
   -5.2946   18.7151  -35.8388 H   0  0  0  0  0  0  0  0  0  0  0  0
   -4.4244   17.2259  -35.2609 H   0  0  0  0  0  0  0  0  0  0  0  0
   -6.3641   19.3972  -33.3822 H   0  0  0  0  0  0  0  0  0  0  0  0
   -7.9798   18.6510  -33.8155 H   0  0  0  0  0  0  0  0  0  0  0  0
   -7.5214   18.6916  -31.3742 H   0  0  0  0  0  0  0  0  0  0  0  0
   -7.7541   17.0189  -32.1111 H   0  0  0  0  0  0  0  0  0  0  0  0
   -4.9705   18.0344  -31.7256 H   0  0  0  0  0  0  0  0  0  0  0  0
   -5.9581   17.4532  -30.2790 H   0  0  0  0  0  0  0  0  0  0  0  0
   -4.4920   15.6981  -31.1089 H   0  0  0  0  0  0  0  0  0  0  0  0
   -6.2697   15.3175  -31.3334 H   0  0  0  0  0  0  0  0  0  0  0  0
   -4.2481   16.1115  -33.4482 H   0  0  0  0  0  0  0  0  0  0  0  0
   -5.1728   14.5300  -33.2251 H   0  0  0  0  0  0  0  0  0  0  0  0
   -6.1725   15.5629  -35.0584 H   0  0  0  0  0  0  0  0  0  0  0  0
   -7.2488   15.8891  -33.5998 H   0  0  0  0  0  0  0  0  0  0  0  0
   -4.4343   21.8926  -32.0875 H   0  0  0  0  0  0  0  0  0  0  0  0
   -4.1820   25.0730  -28.4210 H   0  0  0  0  0  0  0  0  0  0  0  0
   -5.5380   25.6030  -29.4790 H   0  0  0  0  0  0  0  0  0  0  0  0
  1  2  1  0
  2  3  2  0
  2  4  1  0
  4  5  2  0
  5  6  1  0
  6  7  2  0
  7  8  1  0
  8  9  2  0
  9 10  1  0
 10 11  3  0
 11 12  1  0
 12 13  1  0
 13 14  1  0
 14 15  1  0
 15 16  1  0
 16 17  1  0
 17 18  1  0
 18 19  1  0
  9 20  1  0
 20 21  2  0
 21 22  1  0
 22 23  1  0
 23 24  1  0
 23 25  2  0
 22  4  1  0
 21  6  1  0
 19 13  1  0
  1 26  1  0
  5 27  1  0
  7 28  1  0
  8 29  1  0
 12 30  1  0
 12 31  1  0
 14 32  1  0
 14 33  1  0
 15 34  1  0
 15 35  1  0
 16 36  1  0
 16 37  1  0
 17 38  1  0
 17 39  1  0
 18 40  1  0
 18 41  1  0
 19 42  1  0
 19 43  1  0
 20 44  1  0
 24 45  1  0
 24 46  1  0
M  CHG  1   1  -1
M  END
>  <UniqueID>  (38) 
38

>  <SMILES>  (38) 
[NH-]C(=O)c1cc2ccc(C#CCN3CCCCCC3)cc2n1C(N)=O

>  <Energy>  (38) 
96.92429863512076

>  <Genealogy>  (38) 
[NH-]C(=O)c1cc2ccc(C#CCN3CCCCCC3)cc2n1C(N)=O (protonated)
[NH-]C(=O)c1cc2ccc(C#CCN3CCCCCC3)cc2n1C(N)=O (3D coordinates assigned)
[NH-]C(=O)c1cc2ccc(C#CCN3CCCCCC3)cc2n1C(N)=O (nonaromatic ring conformer: 96.92429863512076 kcal/mol)

>  <smiles>  (38) 
NC(=O)c1cc2ccc(C#CCN3CCCCCC3)cc2n1C(N)=O

>  <score_type>  (38) 
oracle

>  <origin>  (38) 
adg

>  <m_score__min__energy>  (38) 
-8.8800000000000008

>  <m_primary>  (38) 
energy

$$$$
39:0
     RDKit          3D

 43 45  0  0  0  0  0  0  0  0999 V2000
   -5.7590   23.3920  -29.9550 C   0  0  0  0  0  0  0  0  0  0  0  0
   -4.4360   23.7980  -30.5190 C   0  0  0  0  0  0  0  0  0  0  0  0
   -4.2660   24.9900  -30.8910 O   0  0  0  0  0  0  0  0  0  0  0  0
   -3.3680   22.8480  -30.6560 N   0  0  0  0  0  0  0  0  0  0  0  0
   -2.1280   22.9090  -30.0920 C   0  0  0  0  0  0  0  0  0  0  0  0
   -1.6720   23.9220  -29.1160 C   0  0  0  0  0  0  0  0  0  0  0  0
   -1.9600   25.3000  -29.3360 N   0  0  0  0  0  0  0  0  0  0  0  0
   -1.0090   23.5840  -28.0990 O   0  0  0  0  0  0  0  0  0  0  0  0
   -1.3430   21.8410  -30.5210 C   0  0  0  0  0  0  0  0  0  0  0  0
   -2.1440   21.1180  -31.3750 C   0  0  0  0  0  0  0  0  0  0  0  0
   -1.8630   19.9730  -32.1120 C   0  0  0  0  0  0  0  0  0  0  0  0
   -2.8710   19.4620  -32.9460 C   0  0  0  0  0  0  0  0  0  0  0  0
   -4.1360   20.0970  -33.0230 C   0  0  0  0  0  0  0  0  0  0  0  0
   -5.2090   19.5310  -33.9170 C   0  0  0  0  0  0  0  0  0  0  0  0
   -6.4070   18.9010  -33.1610 C   0  0  0  0  0  0  0  0  0  0  0  0
   -7.6320   19.7310  -32.9840 N   0  0  0  0  0  0  0  0  0  0  0  0
   -8.5850   19.2180  -31.9800 C   0  0  0  0  0  0  0  0  0  0  0  0
   -9.1010   20.4050  -31.1770 C   0  0  0  0  0  0  0  0  0  0  0  0
   -8.6430   21.6310  -31.9410 C   0  0  0  0  0  0  0  0  0  0  0  0
   -7.4180   21.1600  -32.6980 C   0  0  0  0  0  0  0  0  0  0  0  0
   -4.3780   21.2700  -32.2730 C   0  0  0  0  0  0  0  0  0  0  0  0
   -3.3610   21.7470  -31.4390 C   0  0  0  0  0  0  0  0  0  0  0  0
   -5.7094   23.4072  -28.8562 H   0  0  0  0  0  0  0  0  0  0  0  0
   -6.5342   24.0936  -30.2968 H   0  0  0  0  0  0  0  0  0  0  0  0
   -6.0072   22.3763  -30.2968 H   0  0  0  0  0  0  0  0  0  0  0  0
   -2.9450   25.6480  -29.3390 H   0  0  0  0  0  0  0  0  0  0  0  0
   -0.3031   21.6220  -30.2372 H   0  0  0  0  0  0  0  0  0  0  0  0
   -0.8809   19.4822  -32.0440 H   0  0  0  0  0  0  0  0  0  0  0  0
   -2.6769   18.5602  -33.5453 H   0  0  0  0  0  0  0  0  0  0  0  0
   -5.5919   20.3437  -34.5517 H   0  0  0  0  0  0  0  0  0  0  0  0
   -4.7408   18.7200  -34.4941 H   0  0  0  0  0  0  0  0  0  0  0  0
   -6.7015   17.9947  -33.7105 H   0  0  0  0  0  0  0  0  0  0  0  0
   -6.0340   18.7370  -32.1393 H   0  0  0  0  0  0  0  0  0  0  0  0
   -8.1330   19.6950  -33.9050 H   0  0  0  0  0  0  0  0  0  0  0  0
   -9.4233   18.7141  -32.4833 H   0  0  0  0  0  0  0  0  0  0  0  0
   -8.0908   18.4922  -31.3175 H   0  0  0  0  0  0  0  0  0  0  0  0
  -10.1988   20.3788  -31.1121 H   0  0  0  0  0  0  0  0  0  0  0  0
   -8.7219   20.3987  -30.1444 H   0  0  0  0  0  0  0  0  0  0  0  0
   -9.4242   21.9720  -32.6363 H   0  0  0  0  0  0  0  0  0  0  0  0
   -8.4283   22.4838  -31.2802 H   0  0  0  0  0  0  0  0  0  0  0  0
   -7.3100   21.7241  -33.6362 H   0  0  0  0  0  0  0  0  0  0  0  0
   -6.5009   21.3170  -32.1112 H   0  0  0  0  0  0  0  0  0  0  0  0
   -5.3421   21.7950  -32.3432 H   0  0  0  0  0  0  0  0  0  0  0  0
  1  2  1  0
  2  3  2  0
  2  4  1  0
  4  5  1  0
  5  6  1  0
  6  7  1  0
  6  8  2  0
  5  9  2  0
  9 10  1  0
 10 11  2  0
 11 12  1  0
 12 13  2  0
 13 14  1  0
 14 15  1  0
 15 16  1  0
 16 17  1  0
 17 18  1  0
 18 19  1  0
 19 20  1  0
 13 21  1  0
 21 22  2  0
 22  4  1  0
 22 10  1  0
 20 16  1  0
  1 23  1  0
  1 24  1  0
  1 25  1  0
  7 26  1  0
  9 27  1  0
 11 28  1  0
 12 29  1  0
 14 30  1  0
 14 31  1  0
 15 32  1  0
 15 33  1  0
 16 34  1  0
 17 35  1  0
 17 36  1  0
 18 37  1  0
 18 38  1  0
 19 39  1  0
 19 40  1  0
 20 41  1  0
 20 42  1  0
 21 43  1  0
M  CHG  2   7  -1  16   1
M  END
>  <UniqueID>  (39) 
39

>  <SMILES>  (39) 
CC(=O)n1c(C([NH-])=O)cc2ccc(CC[NH+]3CCCC3)cc21

>  <Energy>  (39) 
89.39235300897612

>  <Genealogy>  (39) 
CC(=O)n1c(C([NH-])=O)cc2ccc(CC[NH+]3CCCC3)cc21 (protonated)
CC(=O)n1c(C([NH-])=O)cc2ccc(CC[NH+]3CCCC3)cc21 (3D coordinates assigned)
CC(=O)n1c(C([NH-])=O)cc2ccc(CC[NH+]3CCCC3)cc21 (nonaromatic ring conformer: 89.39235300897612 kcal/mol)

>  <smiles>  (39) 
CC(=O)n1c(C(N)=O)cc2ccc(CCN3CCCC3)cc21

>  <score_type>  (39) 
oracle

>  <origin>  (39) 
adg

>  <m_score__min__energy>  (39) 
-10.779999999999999

>  <m_primary>  (39) 
energy

$$$$
40:0
     RDKit          3D

 33 34  0  0  0  0  0  0  0  0999 V2000
   -3.2740   19.9610  -32.9170 C   0  0  0  0  0  0  0  0  0  0  0  0
   -3.5510   21.3750  -33.4130 C   0  0  0  0  0  0  0  0  0  0  0  0
   -3.3430   22.3250  -32.3700 O   0  0  0  0  0  0  0  0  0  0  0  0
   -4.0620   22.3220  -31.1690 C   0  0  0  0  0  0  0  0  0  0  0  0
   -3.4910   22.0270  -30.0840 O   0  0  0  0  0  0  0  0  0  0  0  0
   -5.4510   22.6880  -31.1710 N   0  0  0  0  0  0  0  0  0  0  0  0
   -5.9940   23.9110  -30.9110 C   0  0  0  0  0  0  0  0  0  0  0  0
   -5.2680   25.0970  -30.4100 C   0  0  0  0  0  0  0  0  0  0  0  0
   -3.8730   25.2580  -30.6510 N   0  0  0  0  0  0  0  0  0  0  0  0
   -5.8780   25.9560  -29.7190 O   0  0  0  0  0  0  0  0  0  0  0  0
   -7.3740   23.8830  -31.1030 C   0  0  0  0  0  0  0  0  0  0  0  0
   -7.6640   22.5920  -31.4810 C   0  0  0  0  0  0  0  0  0  0  0  0
   -8.8830   22.0090  -31.8150 C   0  0  0  0  0  0  0  0  0  0  0  0
   -8.8820   20.6580  -32.2020 C   0  0  0  0  0  0  0  0  0  0  0  0
   -7.6730   19.9210  -32.2470 C   0  0  0  0  0  0  0  0  0  0  0  0
   -7.6800   18.4900  -32.7080 C   0  0  0  0  0  0  0  0  0  0  0  0
   -6.3820   18.1570  -33.3700 C   0  0  0  0  0  0  0  0  0  0  0  0
   -5.5700   17.3710  -32.8150 O   0  0  0  0  0  0  0  0  0  0  0  0
   -6.0890   18.6750  -34.6250 O   0  0  0  0  0  0  0  0  0  0  0  0
   -6.4540   20.5500  -31.9140 C   0  0  0  0  0  0  0  0  0  0  0  0
   -6.4860   21.8910  -31.5130 C   0  0  0  0  0  0  0  0  0  0  0  0
   -3.2722   19.9520  -31.8170 H   0  0  0  0  0  0  0  0  0  0  0  0
   -4.0563   19.2825  -33.2880 H   0  0  0  0  0  0  0  0  0  0  0  0
   -2.2935   19.6278  -33.2880 H   0  0  0  0  0  0  0  0  0  0  0  0
   -2.8742   21.6033  -34.2495 H   0  0  0  0  0  0  0  0  0  0  0  0
   -4.5988   21.4353  -33.7424 H   0  0  0  0  0  0  0  0  0  0  0  0
   -3.5150   26.0570  -31.2220 H   0  0  0  0  0  0  0  0  0  0  0  0
   -8.0814   24.7161  -30.9788 H   0  0  0  0  0  0  0  0  0  0  0  0
   -9.8178   22.5876  -31.7772 H   0  0  0  0  0  0  0  0  0  0  0  0
   -9.8290   20.1681  -32.4726 H   0  0  0  0  0  0  0  0  0  0  0  0
   -7.8262   17.8292  -31.8408 H   0  0  0  0  0  0  0  0  0  0  0  0
   -8.4985   18.3482  -33.4290 H   0  0  0  0  0  0  0  0  0  0  0  0
   -5.5027   20.0003  -31.9682 H   0  0  0  0  0  0  0  0  0  0  0  0
  1  2  1  0
  2  3  1  0
  3  4  1  0
  4  5  2  0
  4  6  1  0
  6  7  1  0
  7  8  1  0
  8  9  1  0
  8 10  2  0
  7 11  2  0
 11 12  1  0
 12 13  2  0
 13 14  1  0
 14 15  2  0
 15 16  1  0
 16 17  1  0
 17 18  2  0
 17 19  1  0
 15 20  1  0
 20 21  2  0
 21  6  1  0
 21 12  1  0
  1 22  1  0
  1 23  1  0
  1 24  1  0
  2 25  1  0
  2 26  1  0
  9 27  1  0
 11 28  1  0
 13 29  1  0
 14 30  1  0
 16 31  1  0
 16 32  1  0
 20 33  1  0
M  CHG  2   9  -1  19  -1
M  END
>  <UniqueID>  (40) 
40

>  <SMILES>  (40) 
CCOC(=O)n1c(C([NH-])=O)cc2ccc(CC(=O)[O-])cc21

>  <Energy>  (40) 
66.76628040990218

>  <Genealogy>  (40) 
CCOC(=O)n1c(C([NH-])=O)cc2ccc(CC(=O)[O-])cc21 (protonated)
CCOC(=O)n1c(C([NH-])=O)cc2ccc(CC(=O)[O-])cc21 (3D coordinates assigned)
CCOC(=O)n1c(C([NH-])=O)cc2ccc(CC(=O)[O-])cc21 (optimized conformer: 66.76628040990218 kcal/mol)

>  <smiles>  (40) 
CCOC(=O)n1c(C(N)=O)cc2ccc(CC(=O)O)cc21

>  <score_type>  (40) 
oracle

>  <origin>  (40) 
adg

>  <m_score__min__energy>  (40) 
-9.6699999999999999

>  <m_primary>  (40) 
energy

$$$$
41:0
     RDKit          3D

 47 49  0  0  0  0  0  0  0  0999 V2000
   -6.8070   17.8140  -33.0990 C   0  0  0  0  0  0  0  0  0  0  0  0
   -8.0850   18.3370  -32.4550 C   0  0  0  0  0  0  0  0  0  0  0  0
   -7.9260   19.7750  -32.0370 C   0  0  0  0  0  0  0  0  0  0  0  0
   -9.0630   20.5550  -31.7170 C   0  0  0  0  0  0  0  0  0  0  0  0
   -8.9210   21.8950  -31.3360 C   0  0  0  0  0  0  0  0  0  0  0  0
   -7.6350   22.4210  -31.2530 C   0  0  0  0  0  0  0  0  0  0  0  0
   -7.2420   23.6920  -30.9380 C   0  0  0  0  0  0  0  0  0  0  0  0
   -5.8590   23.6790  -31.0300 C   0  0  0  0  0  0  0  0  0  0  0  0
   -5.0520   24.8980  -30.8510 C   0  0  0  0  0  0  0  0  0  0  0  0
   -3.6770   24.8110  -30.4780 N   0  0  0  0  0  0  0  0  0  0  0  0
   -5.5500   26.0200  -31.1360 O   0  0  0  0  0  0  0  0  0  0  0  0
   -5.3860   22.4350  -31.3510 N   0  0  0  0  0  0  0  0  0  0  0  0
   -3.9850   22.0360  -31.3430 C   0  0  0  0  0  0  0  0  0  0  0  0
   -3.1340   22.7440  -31.9490 O   0  0  0  0  0  0  0  0  0  0  0  0
   -3.4500   20.8540  -30.5730 C   0  0  0  0  0  0  0  0  0  0  0  0
   -3.0260   21.2170  -29.1390 C   0  0  0  0  0  0  0  0  0  0  0  0
   -2.6670   22.6470  -29.0380 N   0  0  0  0  0  0  0  0  0  0  0  0
   -1.2020   22.8160  -29.0090 C   0  0  0  0  0  0  0  0  0  0  0  0
   -0.8380   24.3160  -28.9660 C   0  0  0  0  0  0  0  0  0  0  0  0
   -1.9630   25.1390  -28.7110 O   0  0  0  0  0  0  0  0  0  0  0  0
   -2.6520   24.6670  -27.5720 C   0  0  0  0  0  0  0  0  0  0  0  0
   -3.2670   23.2790  -27.8400 C   0  0  0  0  0  0  0  0  0  0  0  0
   -6.5070   21.6750  -31.5160 C   0  0  0  0  0  0  0  0  0  0  0  0
   -6.6360   20.3420  -31.9420 C   0  0  0  0  0  0  0  0  0  0  0  0
   -6.0938   17.5221  -32.3141 H   0  0  0  0  0  0  0  0  0  0  0  0
   -7.0425   16.9399  -33.7239 H   0  0  0  0  0  0  0  0  0  0  0  0
   -6.3621   18.6024  -33.7239 H   0  0  0  0  0  0  0  0  0  0  0  0
   -8.9101   18.2613  -33.1786 H   0  0  0  0  0  0  0  0  0  0  0  0
   -8.3012   17.7329  -31.5615 H   0  0  0  0  0  0  0  0  0  0  0  0
  -10.0655   20.1052  -31.7680 H   0  0  0  0  0  0  0  0  0  0  0  0
   -9.8011   22.5145  -31.1087 H   0  0  0  0  0  0  0  0  0  0  0  0
   -7.8855   24.5427  -30.6691 H   0  0  0  0  0  0  0  0  0  0  0  0
   -3.0980   25.6740  -30.3940 H   0  0  0  0  0  0  0  0  0  0  0  0
   -3.2150   23.8820  -30.3580 H   0  0  0  0  0  0  0  0  0  0  0  0
   -4.2336   20.0836  -30.5231 H   0  0  0  0  0  0  0  0  0  0  0  0
   -2.5550   20.4933  -31.1010 H   0  0  0  0  0  0  0  0  0  0  0  0
   -3.8599   21.0063  -28.4533 H   0  0  0  0  0  0  0  0  0  0  0  0
   -2.1450   20.6151  -28.8714 H   0  0  0  0  0  0  0  0  0  0  0  0
   -0.7966   22.3182  -28.1158 H   0  0  0  0  0  0  0  0  0  0  0  0
   -0.7714   22.3685  -29.9169 H   0  0  0  0  0  0  0  0  0  0  0  0
   -0.0956   24.4764  -28.1703 H   0  0  0  0  0  0  0  0  0  0  0  0
   -0.4381   24.5919  -29.9529 H   0  0  0  0  0  0  0  0  0  0  0  0
   -1.9483   24.5931  -26.7298 H   0  0  0  0  0  0  0  0  0  0  0  0
   -3.4624   25.3714  -27.3333 H   0  0  0  0  0  0  0  0  0  0  0  0
   -3.0890   22.6336  -26.9672 H   0  0  0  0  0  0  0  0  0  0  0  0
   -4.3453   23.4052  -28.0171 H   0  0  0  0  0  0  0  0  0  0  0  0
   -5.7455   19.7491  -32.1976 H   0  0  0  0  0  0  0  0  0  0  0  0
  1  2  1  0
  2  3  1  0
  3  4  2  0
  4  5  1  0
  5  6  2  0
  6  7  1  0
  7  8  2  0
  8  9  1  0
  9 10  1  0
  9 11  2  0
  8 12  1  0
 12 13  1  0
 13 14  2  0
 13 15  1  0
 15 16  1  0
 16 17  1  0
 17 18  1  0
 18 19  1  0
 19 20  1  0
 20 21  1  0
 21 22  1  0
 12 23  1  0
 23 24  2  0
 24  3  1  0
 23  6  1  0
 22 17  1  0
  1 25  1  0
  1 26  1  0
  1 27  1  0
  2 28  1  0
  2 29  1  0
  4 30  1  0
  5 31  1  0
  7 32  1  0
 10 33  1  0
 10 34  1  0
 15 35  1  0
 15 36  1  0
 16 37  1  0
 16 38  1  0
 18 39  1  0
 18 40  1  0
 19 41  1  0
 19 42  1  0
 21 43  1  0
 21 44  1  0
 22 45  1  0
 22 46  1  0
 24 47  1  0
M  END
>  <UniqueID>  (41) 
41

>  <SMILES>  (41) 
CCc1ccc2cc(C(N)=O)n(C(=O)CCN3CCOCC3)c2c1

>  <Energy>  (41) 
98.53283590758835

>  <Genealogy>  (41) 
CCc1ccc2cc(C(N)=O)n(C(=O)CCN3CCOCC3)c2c1 (3D coordinates assigned)
CCc1ccc2cc(C(N)=O)n(C(=O)CCN3CCOCC3)c2c1 (nonaromatic ring conformer: 98.53283590758835 kcal/mol)

>  <smiles>  (41) 
CCc1ccc2cc(C(N)=O)n(C(=O)CCN3CCOCC3)c2c1

>  <score_type>  (41) 
oracle

>  <origin>  (41) 
adg

>  <m_score__min__energy>  (41) 
-8.6999999999999993

>  <m_primary>  (41) 
energy

$$$$
42:0
     RDKit          3D

 52 54  0  0  0  0  0  0  0  0999 V2000
   -2.4760   20.1030  -31.4650 C   0  0  0  0  0  0  0  0  0  0  0  0
   -2.0960   21.2040  -32.4590 C   0  0  0  0  0  0  0  0  0  0  0  0
   -1.8520   20.6130  -33.8450 C   0  0  0  0  0  0  0  0  0  0  0  0
   -3.1500   22.1610  -32.5500 O   0  0  0  0  0  0  0  0  0  0  0  0
   -3.7380   22.7710  -31.4380 C   0  0  0  0  0  0  0  0  0  0  0  0
   -3.0290   23.1200  -30.4530 O   0  0  0  0  0  0  0  0  0  0  0  0
   -5.1600   22.9640  -31.4030 N   0  0  0  0  0  0  0  0  0  0  0  0
   -5.8490   24.0290  -30.9010 C   0  0  0  0  0  0  0  0  0  0  0  0
   -5.2600   25.3070  -30.4490 C   0  0  0  0  0  0  0  0  0  0  0  0
   -3.9350   25.6560  -30.8440 N   0  0  0  0  0  0  0  0  0  0  0  0
   -5.9010   26.0790  -29.6880 O   0  0  0  0  0  0  0  0  0  0  0  0
   -7.2190   23.7840  -30.9360 C   0  0  0  0  0  0  0  0  0  0  0  0
   -7.3500   22.5270  -31.4810 C   0  0  0  0  0  0  0  0  0  0  0  0
   -8.4930   21.7740  -31.7230 C   0  0  0  0  0  0  0  0  0  0  0  0
   -8.3330   20.4850  -32.2560 C   0  0  0  0  0  0  0  0  0  0  0  0
   -7.0410   19.9620  -32.5280 C   0  0  0  0  0  0  0  0  0  0  0  0
   -6.9160   18.5730  -33.1370 C   0  0  0  0  0  0  0  0  0  0  0  0
   -6.3840   17.5040  -32.1420 C   0  0  0  0  0  0  0  0  0  0  0  0
   -5.1260   16.7950  -32.6530 C   0  0  0  0  0  0  0  0  0  0  0  0
   -4.1250   17.7820  -33.0890 N   0  0  0  0  0  0  0  0  0  0  0  0
   -2.6360   16.9640  -33.5110 S   0  0  0  0  0  0  0  0  0  0  0  0
   -2.8750   15.1990  -33.5440 C   0  0  0  0  0  0  0  0  0  0  0  0
   -2.1610   17.4230  -34.8620 O   0  0  0  0  0  0  0  0  0  0  0  0
   -1.5770   17.2770  -32.4900 O   0  0  0  0  0  0  0  0  0  0  0  0
   -4.5830   18.6260  -34.2220 C   0  0  0  0  0  0  0  0  0  0  0  0
   -6.1090   18.6160  -34.4470 C   0  0  0  0  0  0  0  0  0  0  0  0
   -5.9040   20.7720  -32.2880 C   0  0  0  0  0  0  0  0  0  0  0  0
   -6.0940   22.0550  -31.7600 C   0  0  0  0  0  0  0  0  0  0  0  0
   -2.3473   20.4758  -30.4381 H   0  0  0  0  0  0  0  0  0  0  0  0
   -3.5258   19.8142  -31.6214 H   0  0  0  0  0  0  0  0  0  0  0  0
   -1.8278   19.2281  -31.6214 H   0  0  0  0  0  0  0  0  0  0  0  0
   -1.1759   21.6883  -32.1001 H   0  0  0  0  0  0  0  0  0  0  0  0
   -1.4340   19.6006  -33.7435 H   0  0  0  0  0  0  0  0  0  0  0  0
   -2.8032   20.5635  -34.3952 H   0  0  0  0  0  0  0  0  0  0  0  0
   -1.1429   21.2490  -34.3952 H   0  0  0  0  0  0  0  0  0  0  0  0
   -3.1070   25.2830  -30.3310 H   0  0  0  0  0  0  0  0  0  0  0  0
   -8.0251   24.4527  -30.5997 H   0  0  0  0  0  0  0  0  0  0  0  0
   -9.4931   22.1760  -31.5035 H   0  0  0  0  0  0  0  0  0  0  0  0
   -9.2214   19.8712  -32.4660 H   0  0  0  0  0  0  0  0  0  0  0  0
   -7.9364   18.2440  -33.3832 H   0  0  0  0  0  0  0  0  0  0  0  0
   -6.1466   17.9981  -31.1883 H   0  0  0  0  0  0  0  0  0  0  0  0
   -7.1687   16.7426  -32.0214 H   0  0  0  0  0  0  0  0  0  0  0  0
   -4.7020   16.1808  -31.8449 H   0  0  0  0  0  0  0  0  0  0  0  0
   -5.3966   16.1580  -33.5080 H   0  0  0  0  0  0  0  0  0  0  0  0
   -2.9268   14.8167  -32.5139 H   0  0  0  0  0  0  0  0  0  0  0  0
   -3.8129   14.9657  -34.0692 H   0  0  0  0  0  0  0  0  0  0  0  0
   -2.0329   14.7247  -34.0692 H   0  0  0  0  0  0  0  0  0  0  0  0
   -4.2706   19.6626  -34.0272 H   0  0  0  0  0  0  0  0  0  0  0  0
   -4.1286   18.2052  -35.1311 H   0  0  0  0  0  0  0  0  0  0  0  0
   -6.3868   19.5262  -34.9988 H   0  0  0  0  0  0  0  0  0  0  0  0
   -6.3500   17.7016  -35.0090 H   0  0  0  0  0  0  0  0  0  0  0  0
   -4.8929   20.4009  -32.5117 H   0  0  0  0  0  0  0  0  0  0  0  0
  1  2  1  0
  2  3  1  0
  2  4  1  0
  4  5  1  0
  5  6  2  0
  5  7  1  0
  7  8  1  0
  8  9  1  0
  9 10  1  0
  9 11  2  0
  8 12  2  0
 12 13  1  0
 13 14  2  0
 14 15  1  0
 15 16  2  0
 16 17  1  0
 17 18  1  0
 18 19  1  0
 19 20  1  0
 20 21  1  0
 21 22  1  0
 21 23  2  0
 21 24  2  0
 20 25  1  0
 25 26  1  0
 16 27  1  0
 27 28  2  0
 28  7  1  0
 28 13  1  0
 26 17  1  0
  1 29  1  0
  1 30  1  0
  1 31  1  0
  2 32  1  0
  3 33  1  0
  3 34  1  0
  3 35  1  0
 10 36  1  0
 12 37  1  0
 14 38  1  0
 15 39  1  0
 17 40  1  0
 18 41  1  0
 18 42  1  0
 19 43  1  0
 19 44  1  0
 22 45  1  0
 22 46  1  0
 22 47  1  0
 25 48  1  0
 25 49  1  0
 26 50  1  0
 26 51  1  0
 27 52  1  0
M  CHG  1  10  -1
M  END
>  <UniqueID>  (42) 
42

>  <SMILES>  (42) 
CC(C)OC(=O)n1c(C([NH-])=O)cc2ccc(C3CCN(S(C)(=O)=O)CC3)cc21

>  <Energy>  (42) 
86.54108811958011

>  <Genealogy>  (42) 
CC(C)OC(=O)n1c(C([NH-])=O)cc2ccc(C3CCN(S(C)(=O)=O)CC3)cc21 (protonated)
CC(C)OC(=O)n1c(C([NH-])=O)cc2ccc(C3CCN(S(C)(=O)=O)CC3)cc21 (3D coordinates assigned)
CC(C)OC(=O)n1c(C([NH-])=O)cc2ccc(C3CCN(S(C)(=O)=O)CC3)cc21 (nonaromatic ring conformer: 86.54108811958011 kcal/mol)

>  <smiles>  (42) 
CC(C)OC(=O)n1c(C(N)=O)cc2ccc(C3CCN(S(C)(=O)=O)CC3)cc21

>  <score_type>  (42) 
oracle

>  <origin>  (42) 
adg

>  <m_score__min__energy>  (42) 
-11.99

>  <m_primary>  (42) 
energy

$$$$
43:0
     RDKit          3D

 43 45  0  0  0  0  0  0  0  0999 V2000
   -3.0570   21.1340  -29.1880 C   0  0  0  0  0  0  0  0  0  0  0  0
   -2.8220   22.6400  -28.9920 C   0  0  0  0  0  0  0  0  0  0  0  0
   -1.4680   22.8460  -28.2880 C   0  0  0  0  0  0  0  0  0  0  0  0
   -3.9710   23.2160  -28.1420 C   0  0  0  0  0  0  0  0  0  0  0  0
   -2.8080   23.2380  -30.2970 O   0  0  0  0  0  0  0  0  0  0  0  0
   -3.5240   22.7980  -31.4220 C   0  0  0  0  0  0  0  0  0  0  0  0
   -2.9300   22.2810  -32.4050 O   0  0  0  0  0  0  0  0  0  0  0  0
   -4.9540   22.9210  -31.4390 N   0  0  0  0  0  0  0  0  0  0  0  0
   -5.7060   23.9610  -30.9810 C   0  0  0  0  0  0  0  0  0  0  0  0
   -5.1870   25.2620  -30.5060 C   0  0  0  0  0  0  0  0  0  0  0  0
   -3.8680   25.6710  -30.8610 N   0  0  0  0  0  0  0  0  0  0  0  0
   -5.8810   25.9990  -29.7590 O   0  0  0  0  0  0  0  0  0  0  0  0
   -7.0630   23.6700  -31.0910 C   0  0  0  0  0  0  0  0  0  0  0  0
   -7.1220   22.4100  -31.6420 C   0  0  0  0  0  0  0  0  0  0  0  0
   -8.2240   21.6240  -31.9600 C   0  0  0  0  0  0  0  0  0  0  0  0
   -7.9890   20.3450  -32.4930 C   0  0  0  0  0  0  0  0  0  0  0  0
   -6.6650   19.8700  -32.6900 C   0  0  0  0  0  0  0  0  0  0  0  0
   -6.4310   18.5120  -33.2410 C   0  0  0  0  0  0  0  0  0  0  0  0
   -5.3470   18.2580  -34.0990 C   0  0  0  0  0  0  0  0  0  0  0  0
   -5.1400   16.9740  -34.6070 C   0  0  0  0  0  0  0  0  0  0  0  0
   -6.0180   15.9490  -34.2570 C   0  0  0  0  0  0  0  0  0  0  0  0
   -7.0640   16.2040  -33.4280 N   0  0  0  0  0  0  0  0  0  0  0  0
   -7.2890   17.4440  -32.9170 C   0  0  0  0  0  0  0  0  0  0  0  0
   -5.5720   20.7030  -32.3530 C   0  0  0  0  0  0  0  0  0  0  0  0
   -5.8360   21.9790  -31.8410 C   0  0  0  0  0  0  0  0  0  0  0  0
   -3.1335   20.6440  -28.2061 H   0  0  0  0  0  0  0  0  0  0  0  0
   -3.9903   20.9785  -29.7491 H   0  0  0  0  0  0  0  0  0  0  0  0
   -2.2155   20.7015  -29.7491 H   0  0  0  0  0  0  0  0  0  0  0  0
   -1.6143   22.8237  -27.1980 H   0  0  0  0  0  0  0  0  0  0  0  0
   -0.7761   22.0428  -28.5816 H   0  0  0  0  0  0  0  0  0  0  0  0
   -1.0463   23.8186  -28.5816 H   0  0  0  0  0  0  0  0  0  0  0  0
   -3.7330   23.0967  -27.0747 H   0  0  0  0  0  0  0  0  0  0  0  0
   -4.0976   24.2842  -28.3723 H   0  0  0  0  0  0  0  0  0  0  0  0
   -4.9026   22.6783  -28.3723 H   0  0  0  0  0  0  0  0  0  0  0  0
   -3.0360   25.2940  -30.3560 H   0  0  0  0  0  0  0  0  0  0  0  0
   -7.9083   24.3107  -30.7996 H   0  0  0  0  0  0  0  0  0  0  0  0
   -9.2481   21.9919  -31.7994 H   0  0  0  0  0  0  0  0  0  0  0  0
   -8.8414   19.7035  -32.7611 H   0  0  0  0  0  0  0  0  0  0  0  0
   -4.6600   19.0729  -34.3709 H   0  0  0  0  0  0  0  0  0  0  0  0
   -4.2915   16.7728  -35.2776 H   0  0  0  0  0  0  0  0  0  0  0  0
   -5.8639   14.9340  -34.6519 H   0  0  0  0  0  0  0  0  0  0  0  0
   -8.1452   17.6132  -32.2475 H   0  0  0  0  0  0  0  0  0  0  0  0
   -4.5374   20.3556  -32.4903 H   0  0  0  0  0  0  0  0  0  0  0  0
  1  2  1  0
  2  3  1  0
  2  4  1  0
  2  5  1  0
  5  6  1  0
  6  7  2  0
  6  8  1  0
  8  9  1  0
  9 10  1  0
 10 11  1  0
 10 12  2  0
  9 13  2  0
 13 14  1  0
 14 15  2  0
 15 16  1  0
 16 17  2  0
 17 18  1  0
 18 19  2  0
 19 20  1  0
 20 21  2  0
 21 22  1  0
 22 23  2  0
 17 24  1  0
 24 25  2  0
 25  8  1  0
 25 14  1  0
 23 18  1  0
  1 26  1  0
  1 27  1  0
  1 28  1  0
  3 29  1  0
  3 30  1  0
  3 31  1  0
  4 32  1  0
  4 33  1  0
  4 34  1  0
 11 35  1  0
 13 36  1  0
 15 37  1  0
 16 38  1  0
 19 39  1  0
 20 40  1  0
 21 41  1  0
 23 42  1  0
 24 43  1  0
M  CHG  1  11  -1
M  END
>  <UniqueID>  (43) 
43

>  <SMILES>  (43) 
CC(C)(C)OC(=O)n1c(C([NH-])=O)cc2ccc(-c3cccnc3)cc21

>  <Energy>  (43) 
85.26059219498755

>  <Genealogy>  (43) 
CC(C)(C)OC(=O)n1c(C([NH-])=O)cc2ccc(-c3cccnc3)cc21 (protonated)
CC(C)(C)OC(=O)n1c(C([NH-])=O)cc2ccc(-c3cccnc3)cc21 (3D coordinates assigned)
CC(C)(C)OC(=O)n1c(C([NH-])=O)cc2ccc(-c3cccnc3)cc21 (optimized conformer: 85.26059219498755 kcal/mol)

>  <smiles>  (43) 
CC(C)(C)OC(=O)n1c(C(N)=O)cc2ccc(-c3cccnc3)cc21

>  <score_type>  (43) 
oracle

>  <origin>  (43) 
adg

>  <m_score__min__energy>  (43) 
-11.06

>  <m_primary>  (43) 
energy

$$$$
44:0
     RDKit          3D

 58 61  0  0  0  0  0  0  0  0999 V2000
   -2.6070   21.8710  -32.2490 C   0  0  0  0  0  0  0  0  0  0  0  0
   -3.3930   22.6200  -31.2200 C   0  0  0  0  0  0  0  0  0  0  0  0
   -2.7880   23.1630  -30.2580 O   0  0  0  0  0  0  0  0  0  0  0  0
   -4.8220   22.7310  -31.3200 N   0  0  0  0  0  0  0  0  0  0  0  0
   -5.5910   23.8210  -31.0430 C   0  0  0  0  0  0  0  0  0  0  0  0
   -5.1180   25.0910  -30.4520 C   0  0  0  0  0  0  0  0  0  0  0  0
   -3.8740   25.6660  -30.8460 N   0  0  0  0  0  0  0  0  0  0  0  0
   -5.8050   25.6590  -29.5620 O   0  0  0  0  0  0  0  0  0  0  0  0
   -6.9270   23.5630  -31.3410 C   0  0  0  0  0  0  0  0  0  0  0  0
   -6.9530   22.2700  -31.8120 C   0  0  0  0  0  0  0  0  0  0  0  0
   -8.0220   21.5060  -32.2720 C   0  0  0  0  0  0  0  0  0  0  0  0
   -7.7520   20.2070  -32.7330 C   0  0  0  0  0  0  0  0  0  0  0  0
   -6.4270   19.6970  -32.7380 C   0  0  0  0  0  0  0  0  0  0  0  0
   -6.1520   18.3250  -33.2360 C   0  0  0  0  0  0  0  0  0  0  0  0
   -7.0860   17.2930  -33.0420 C   0  0  0  0  0  0  0  0  0  0  0  0
   -6.8260   16.0040  -33.5160 C   0  0  0  0  0  0  0  0  0  0  0  0
   -5.6370   15.7190  -34.1930 C   0  0  0  0  0  0  0  0  0  0  0  0
   -5.4320   14.4050  -34.6480 O   0  0  0  0  0  0  0  0  0  0  0  0
   -6.4280   13.3850  -34.7210 C   0  0  0  0  0  0  0  0  0  0  0  0
   -6.3150   12.4360  -33.5100 C   0  0  0  0  0  0  0  0  0  0  0  0
   -4.9510   12.3350  -32.9480 N   0  0  0  0  0  0  0  0  0  0  0  0
   -3.8890   12.0810  -33.9520 C   0  0  0  0  0  0  0  0  0  0  0  0
   -2.8850   13.2380  -34.0370 C   0  0  0  0  0  0  0  0  0  0  0  0
   -2.2410   13.4860  -32.7260 N   0  0  0  0  0  0  0  0  0  0  0  0
   -1.5930   14.8060  -32.7210 C   0  0  0  0  0  0  0  0  0  0  0  0
   -3.1550   13.3250  -31.5660 C   0  0  0  0  0  0  0  0  0  0  0  0
   -4.6340   13.3930  -31.9650 C   0  0  0  0  0  0  0  0  0  0  0  0
   -4.6950   16.7470  -34.3840 C   0  0  0  0  0  0  0  0  0  0  0  0
   -4.9530   18.0380  -33.9120 C   0  0  0  0  0  0  0  0  0  0  0  0
   -5.3690   20.5100  -32.2650 C   0  0  0  0  0  0  0  0  0  0  0  0
   -5.6700   21.7920  -31.7920 C   0  0  0  0  0  0  0  0  0  0  0  0
   -1.8979   21.1953  -31.7485 H   0  0  0  0  0  0  0  0  0  0  0  0
   -3.2922   21.2833  -32.8776 H   0  0  0  0  0  0  0  0  0  0  0  0
   -2.0530   22.5837  -32.8776 H   0  0  0  0  0  0  0  0  0  0  0  0
   -2.9720   25.3110  -30.4590 H   0  0  0  0  0  0  0  0  0  0  0  0
   -7.7802   24.2474  -31.2246 H   0  0  0  0  0  0  0  0  0  0  0  0
   -9.0462   21.9072  -32.2744 H   0  0  0  0  0  0  0  0  0  0  0  0
   -8.5777   19.5767  -33.0948 H   0  0  0  0  0  0  0  0  0  0  0  0
   -8.0281   17.5010  -32.5136 H   0  0  0  0  0  0  0  0  0  0  0  0
   -7.5651   15.2054  -33.3545 H   0  0  0  0  0  0  0  0  0  0  0  0
   -7.4244   13.8509  -34.7247 H   0  0  0  0  0  0  0  0  0  0  0  0
   -6.2785   12.8054  -35.6439 H   0  0  0  0  0  0  0  0  0  0  0  0
   -6.9879   12.8018  -32.7204 H   0  0  0  0  0  0  0  0  0  0  0  0
   -6.5863   11.4317  -33.8674 H   0  0  0  0  0  0  0  0  0  0  0  0
   -3.3499   11.1636  -33.6734 H   0  0  0  0  0  0  0  0  0  0  0  0
   -4.3709   11.9783  -34.9355 H   0  0  0  0  0  0  0  0  0  0  0  0
   -2.1097   12.9867  -34.7758 H   0  0  0  0  0  0  0  0  0  0  0  0
   -3.4262   14.1475  -34.3368 H   0  0  0  0  0  0  0  0  0  0  0  0
   -1.4330   15.1320  -31.6827 H   0  0  0  0  0  0  0  0  0  0  0  0
   -0.6244   14.7409  -33.2383 H   0  0  0  0  0  0  0  0  0  0  0  0
   -2.2369   15.5325  -33.2383 H   0  0  0  0  0  0  0  0  0  0  0  0
   -2.9612   12.3486  -31.0979 H   0  0  0  0  0  0  0  0  0  0  0  0
   -2.9596   14.1549  -30.8709 H   0  0  0  0  0  0  0  0  0  0  0  0
   -5.2578   13.2547  -31.0696 H   0  0  0  0  0  0  0  0  0  0  0  0
   -4.8368   14.3744  -32.4186 H   0  0  0  0  0  0  0  0  0  0  0  0
   -3.7511   16.5340  -34.9071 H   0  0  0  0  0  0  0  0  0  0  0  0
   -4.2120   18.8352  -34.0709 H   0  0  0  0  0  0  0  0  0  0  0  0
   -4.3325   20.1418  -32.2692 H   0  0  0  0  0  0  0  0  0  0  0  0
  1  2  1  0
  2  3  2  0
  2  4  1  0
  4  5  1  0
  5  6  1  0
  6  7  1  0
  6  8  2  0
  5  9  2  0
  9 10  1  0
 10 11  2  0
 11 12  1  0
 12 13  2  0
 13 14  1  0
 14 15  2  0
 15 16  1  0
 16 17  2  0
 17 18  1  0
 18 19  1  0
 19 20  1  0
 20 21  1  0
 21 22  1  0
 22 23  1  0
 23 24  1  0
 24 25  1  0
 24 26  1  0
 26 27  1  0
 17 28  1  0
 28 29  2  0
 13 30  1  0
 30 31  2  0
 31  4  1  0
 31 10  1  0
 29 14  1  0
 27 21  1  0
  1 32  1  0
  1 33  1  0
  1 34  1  0
  7 35  1  0
  9 36  1  0
 11 37  1  0
 12 38  1  0
 15 39  1  0
 16 40  1  0
 19 41  1  0
 19 42  1  0
 20 43  1  0
 20 44  1  0
 22 45  1  0
 22 46  1  0
 23 47  1  0
 23 48  1  0
 25 49  1  0
 25 50  1  0
 25 51  1  0
 26 52  1  0
 26 53  1  0
 27 54  1  0
 27 55  1  0
 28 56  1  0
 29 57  1  0
 30 58  1  0
M  CHG  1   7  -1
M  END
>  <UniqueID>  (44) 
44

>  <SMILES>  (44) 
CC(=O)n1c(C([NH-])=O)cc2ccc(-c3ccc(OCCN4CCN(C)CC4)cc3)cc21

>  <Energy>  (44) 
118.61513815295659

>  <Genealogy>  (44) 
CC(=O)n1c(C([NH-])=O)cc2ccc(-c3ccc(OCCN4CCN(C)CC4)cc3)cc21 (protonated)
CC(=O)n1c(C([NH-])=O)cc2ccc(-c3ccc(OCCN4CCN(C)CC4)cc3)cc21 (3D coordinates assigned)
CC(=O)n1c(C([NH-])=O)cc2ccc(-c3ccc(OCCN4CCN(C)CC4)cc3)cc21 (nonaromatic ring conformer: 118.61513815295659 kcal/mol)

>  <smiles>  (44) 
CC(=O)n1c(C(N)=O)cc2ccc(-c3ccc(OCCN4CCN(C)CC4)cc3)cc21

>  <score_type>  (44) 
oracle

>  <origin>  (44) 
adg

>  <m_score__min__energy>  (44) 
-10.640000000000001

>  <m_primary>  (44) 
energy

$$$$
46:0
     RDKit          3D

 47 49  0  0  0  0  0  0  0  0999 V2000
   -6.1570   25.6900  -29.6550 C   0  0  0  0  0  0  0  0  0  0  0  0
   -5.3190   25.2990  -30.8760 C   0  0  0  0  0  0  0  0  0  0  0  0
   -5.9690   24.1330  -31.6170 C   0  0  0  0  0  0  0  0  0  0  0  0
   -4.0050   24.9130  -30.4720 O   0  0  0  0  0  0  0  0  0  0  0  0
   -3.6950   23.6520  -29.9460 C   0  0  0  0  0  0  0  0  0  0  0  0
   -4.3940   23.1590  -29.0200 O   0  0  0  0  0  0  0  0  0  0  0  0
   -2.5650   22.9260  -30.4610 N   0  0  0  0  0  0  0  0  0  0  0  0
   -1.2610   23.0620  -30.0910 C   0  0  0  0  0  0  0  0  0  0  0  0
   -0.7210   24.1040  -29.1980 C   0  0  0  0  0  0  0  0  0  0  0  0
   -1.3300   25.3930  -29.1140 N   0  0  0  0  0  0  0  0  0  0  0  0
    0.3290   23.8740  -28.5400 O   0  0  0  0  0  0  0  0  0  0  0  0
   -0.4680   22.1030  -30.7160 C   0  0  0  0  0  0  0  0  0  0  0  0
   -1.3330   21.3750  -31.5010 C   0  0  0  0  0  0  0  0  0  0  0  0
   -1.0840   20.2880  -32.3310 C   0  0  0  0  0  0  0  0  0  0  0  0
   -2.1730   19.7070  -33.0000 C   0  0  0  0  0  0  0  0  0  0  0  0
   -3.4870   20.2090  -32.8250 C   0  0  0  0  0  0  0  0  0  0  0  0
   -4.5740   19.5820  -33.5320 N   0  0  0  0  0  0  0  0  0  0  0  0
   -5.5180   18.6390  -32.9290 C   0  0  0  0  0  0  0  0  0  0  0  0
   -6.8060   19.3320  -32.5630 C   0  0  0  0  0  0  0  0  0  0  0  0
   -6.8660   20.7350  -32.5260 C   0  0  0  0  0  0  0  0  0  0  0  0
   -8.0580   21.3810  -32.1860 C   0  0  0  0  0  0  0  0  0  0  0  0
   -9.2000   20.6330  -31.8880 C   0  0  0  0  0  0  0  0  0  0  0  0
   -9.1530   19.2360  -31.9350 C   0  0  0  0  0  0  0  0  0  0  0  0
   -7.9620   18.5870  -32.2760 C   0  0  0  0  0  0  0  0  0  0  0  0
   -3.7000   21.3090  -31.9590 C   0  0  0  0  0  0  0  0  0  0  0  0
   -2.5930   21.8880  -31.3270 C   0  0  0  0  0  0  0  0  0  0  0  0
   -5.6084   25.4340  -28.7366 H   0  0  0  0  0  0  0  0  0  0  0  0
   -6.3525   26.7723  -29.6758 H   0  0  0  0  0  0  0  0  0  0  0  0
   -7.1120   25.1445  -29.6758 H   0  0  0  0  0  0  0  0  0  0  0  0
   -5.2600   26.1719  -31.5427 H   0  0  0  0  0  0  0  0  0  0  0  0
   -6.3702   23.4134  -30.8882 H   0  0  0  0  0  0  0  0  0  0  0  0
   -6.7870   24.5101  -32.2483 H   0  0  0  0  0  0  0  0  0  0  0  0
   -5.2181   23.6355  -32.2483 H   0  0  0  0  0  0  0  0  0  0  0  0
   -2.0950   25.6710  -29.7690 H   0  0  0  0  0  0  0  0  0  0  0  0
   -0.9630   26.1050  -28.4430 H   0  0  0  0  0  0  0  0  0  0  0  0
    0.6169   21.9583  -30.6060 H   0  0  0  0  0  0  0  0  0  0  0  0
   -0.0647   19.8950  -32.4597 H   0  0  0  0  0  0  0  0  0  0  0  0
   -2.0042   18.8504  -33.6692 H   0  0  0  0  0  0  0  0  0  0  0  0
   -4.7340   19.8400  -34.5330 H   0  0  0  0  0  0  0  0  0  0  0  0
   -5.7329   17.8344  -33.6477 H   0  0  0  0  0  0  0  0  0  0  0  0
   -5.0678   18.2252  -32.0146 H   0  0  0  0  0  0  0  0  0  0  0  0
   -5.9710   21.3279  -32.7657 H   0  0  0  0  0  0  0  0  0  0  0  0
   -8.0971   22.4798  -32.1530 H   0  0  0  0  0  0  0  0  0  0  0  0
  -10.1361   21.1429  -31.6164 H   0  0  0  0  0  0  0  0  0  0  0  0
  -10.0531   18.6475  -31.7037 H   0  0  0  0  0  0  0  0  0  0  0  0
   -7.9302   17.4883  -32.3197 H   0  0  0  0  0  0  0  0  0  0  0  0
   -4.7135   21.7002  -31.7866 H   0  0  0  0  0  0  0  0  0  0  0  0
  1  2  1  0
  2  3  1  0
  2  4  1  0
  4  5  1  0
  5  6  2  0
  5  7  1  0
  7  8  1  0
  8  9  1  0
  9 10  1  0
  9 11  2  0
  8 12  2  0
 12 13  1  0
 13 14  2  0
 14 15  1  0
 15 16  2  0
 16 17  1  0
 17 18  1  0
 18 19  1  0
 19 20  2  0
 20 21  1  0
 21 22  2  0
 22 23  1  0
 23 24  2  0
 16 25  1  0
 25 26  2  0
 26  7  1  0
 26 13  1  0
 24 19  1  0
  1 27  1  0
  1 28  1  0
  1 29  1  0
  2 30  1  0
  3 31  1  0
  3 32  1  0
  3 33  1  0
 10 34  1  0
 10 35  1  0
 12 36  1  0
 14 37  1  0
 15 38  1  0
 17 39  1  0
 18 40  1  0
 18 41  1  0
 20 42  1  0
 21 43  1  0
 22 44  1  0
 23 45  1  0
 24 46  1  0
 25 47  1  0
M  END
>  <UniqueID>  (45) 
45

>  <SMILES>  (45) 
CC(C)OC(=O)n1c(C(N)=O)cc2ccc(NCc3ccccc3)cc21

>  <Energy>  (45) 
80.51797569287186

>  <Genealogy>  (45) 
CC(C)OC(=O)n1c(C(N)=O)cc2ccc(NCc3ccccc3)cc21 (3D coordinates assigned)
CC(C)OC(=O)n1c(C(N)=O)cc2ccc(NCc3ccccc3)cc21 (optimized conformer: 80.51797569287186 kcal/mol)

>  <smiles>  (45) 
CC(C)OC(=O)n1c(C(N)=O)cc2ccc(NCc3ccccc3)cc21

>  <score_type>  (45) 
oracle

>  <origin>  (45) 
adg

>  <m_score__min__energy>  (45) 
-9.6400000000000006

>  <m_primary>  (45) 
energy

$$$$
47:0
     RDKit          3D

 39 41  0  0  0  0  0  0  0  0999 V2000
   -3.4770   22.2730  -28.9300 C   0  0  0  0  0  0  0  0  0  0  0  0
   -2.5660   22.3630  -30.1490 C   0  0  0  0  0  0  0  0  0  0  0  0
   -3.2550   22.9600  -31.2480 O   0  0  0  0  0  0  0  0  0  0  0  0
   -4.2590   22.3110  -31.9750 C   0  0  0  0  0  0  0  0  0  0  0  0
   -3.9670   21.6270  -32.9930 O   0  0  0  0  0  0  0  0  0  0  0  0
   -5.6280   22.4160  -31.5500 N   0  0  0  0  0  0  0  0  0  0  0  0
   -6.1910   23.4110  -30.8090 C   0  0  0  0  0  0  0  0  0  0  0  0
   -5.5280   24.6790  -30.4300 C   0  0  0  0  0  0  0  0  0  0  0  0
   -5.8280   25.3160  -29.1870 N   0  0  0  0  0  0  0  0  0  0  0  0
   -4.7140   25.2270  -31.2190 O   0  0  0  0  0  0  0  0  0  0  0  0
   -7.5230   23.1160  -30.5260 C   0  0  0  0  0  0  0  0  0  0  0  0
   -7.7610   21.8990  -31.1240 C   0  0  0  0  0  0  0  0  0  0  0  0
   -8.9170   21.1230  -31.1420 C   0  0  0  0  0  0  0  0  0  0  0  0
   -8.8680   19.8860  -31.8060 C   0  0  0  0  0  0  0  0  0  0  0  0
   -7.6770   19.4540  -32.4390 C   0  0  0  0  0  0  0  0  0  0  0  0
   -7.6200   18.1030  -33.0950 C   0  0  0  0  0  0  0  0  0  0  0  0
   -6.2720   17.8530  -33.5950 N   0  0  0  0  0  0  0  0  0  0  0  0
   -5.2630   17.2940  -32.9010 C   0  0  0  0  0  0  0  0  0  0  0  0
   -4.1380   17.3000  -33.6980 C   0  0  0  0  0  0  0  0  0  0  0  0
   -4.5430   17.8980  -34.8750 C   0  0  0  0  0  0  0  0  0  0  0  0
   -5.8450   18.2330  -34.7880 N   0  0  0  0  0  0  0  0  0  0  0  0
   -6.5210   20.2610  -32.3890 C   0  0  0  0  0  0  0  0  0  0  0  0
   -6.6010   21.4970  -31.7350 C   0  0  0  0  0  0  0  0  0  0  0  0
   -2.8708   22.3329  -28.0140 H   0  0  0  0  0  0  0  0  0  0  0  0
   -4.1971   23.1044  -28.9482 H   0  0  0  0  0  0  0  0  0  0  0  0
   -4.0205   21.3168  -28.9482 H   0  0  0  0  0  0  0  0  0  0  0  0
   -1.6864   22.9742  -29.8987 H   0  0  0  0  0  0  0  0  0  0  0  0
   -2.2546   21.3475  -30.4349 H   0  0  0  0  0  0  0  0  0  0  0  0
   -6.4550   24.8660  -28.4840 H   0  0  0  0  0  0  0  0  0  0  0  0
   -5.3840   26.2300  -28.9460 H   0  0  0  0  0  0  0  0  0  0  0  0
   -8.2331   23.7256  -29.9479 H   0  0  0  0  0  0  0  0  0  0  0  0
   -9.8394   21.4677  -30.6518 H   0  0  0  0  0  0  0  0  0  0  0  0
   -9.7629   19.2470  -31.8345 H   0  0  0  0  0  0  0  0  0  0  0  0
   -7.8865   17.3288  -32.3604 H   0  0  0  0  0  0  0  0  0  0  0  0
   -8.3297   18.0768  -33.9350 H   0  0  0  0  0  0  0  0  0  0  0  0
   -5.3253   16.9006  -31.8756 H   0  0  0  0  0  0  0  0  0  0  0  0
   -3.1382   16.9136  -33.4508 H   0  0  0  0  0  0  0  0  0  0  0  0
   -3.9004   18.0740  -35.7503 H   0  0  0  0  0  0  0  0  0  0  0  0
   -5.5804   19.9279  -32.8520 H   0  0  0  0  0  0  0  0  0  0  0  0
  1  2  1  0
  2  3  1  0
  3  4  1  0
  4  5  2  0
  4  6  1  0
  6  7  1  0
  7  8  1  0
  8  9  1  0
  8 10  2  0
  7 11  2  0
 11 12  1  0
 12 13  2  0
 13 14  1  0
 14 15  2  0
 15 16  1  0
 16 17  1  0
 17 18  1  0
 18 19  2  0
 19 20  1  0
 20 21  2  0
 15 22  1  0
 22 23  2  0
 23  6  1  0
 23 12  1  0
 21 17  1  0
  1 24  1  0
  1 25  1  0
  1 26  1  0
  2 27  1  0
  2 28  1  0
  9 29  1  0
  9 30  1  0
 11 31  1  0
 13 32  1  0
 14 33  1  0
 16 34  1  0
 16 35  1  0
 18 36  1  0
 19 37  1  0
 20 38  1  0
 22 39  1  0
M  END
>  <UniqueID>  (46) 
46

>  <SMILES>  (46) 
CCOC(=O)n1c(C(N)=O)cc2ccc(Cn3cccn3)cc21

>  <Energy>  (46) 
103.1773493380811

>  <Genealogy>  (46) 
CCOC(=O)n1c(C(N)=O)cc2ccc(Cn3cccn3)cc21 (3D coordinates assigned)
CCOC(=O)n1c(C(N)=O)cc2ccc(Cn3cccn3)cc21 (optimized conformer: 103.1773493380811 kcal/mol)

>  <smiles>  (46) 
CCOC(=O)n1c(C(N)=O)cc2ccc(Cn3cccn3)cc21

>  <score_type>  (46) 
oracle

>  <origin>  (46) 
adg

>  <m_score__min__energy>  (46) 
-8.5099999999999998

>  <m_primary>  (46) 
energy

$$$$
48:0
     RDKit          3D

 34 36  0  0  0  0  0  0  0  0999 V2000
   -1.6050   26.0300  -28.9050 N   0  0  0  0  0  0  0  0  0  0  0  0
   -0.8990   24.7930  -28.8570 C   0  0  0  0  0  0  0  0  0  0  0  0
    0.1830   24.7260  -28.2150 O   0  0  0  0  0  0  0  0  0  0  0  0
   -1.3870   23.6090  -29.5950 C   0  0  0  0  0  0  0  0  0  0  0  0
   -0.5830   22.5120  -29.8980 C   0  0  0  0  0  0  0  0  0  0  0  0
   -1.3730   21.6800  -30.6580 C   0  0  0  0  0  0  0  0  0  0  0  0
   -1.0840   20.4400  -31.2170 C   0  0  0  0  0  0  0  0  0  0  0  0
   -2.1030   19.7840  -31.9280 C   0  0  0  0  0  0  0  0  0  0  0  0
   -3.3860   20.3730  -32.0640 C   0  0  0  0  0  0  0  0  0  0  0  0
   -4.4580   19.6600  -32.8010 C   0  0  0  0  0  0  0  0  0  0  0  0
   -4.1210   18.7280  -33.7970 C   0  0  0  0  0  0  0  0  0  0  0  0
   -5.1200   18.0500  -34.4980 C   0  0  0  0  0  0  0  0  0  0  0  0
   -6.4650   18.2920  -34.2150 C   0  0  0  0  0  0  0  0  0  0  0  0
   -6.8240   19.2120  -33.2180 C   0  0  0  0  0  0  0  0  0  0  0  0
   -8.2760   19.4960  -32.9510 C   0  0  0  0  0  0  0  0  0  0  0  0
   -8.8220   18.5640  -31.5360 Cl  0  0  0  0  0  0  0  0  0  0  0  0
   -5.8180   19.9070  -32.5210 C   0  0  0  0  0  0  0  0  0  0  0  0
   -6.1650   20.8470  -31.6040 F   0  0  0  0  0  0  0  0  0  0  0  0
   -3.6420   21.6330  -31.4730 C   0  0  0  0  0  0  0  0  0  0  0  0
   -2.6020   22.2720  -30.7880 C   0  0  0  0  0  0  0  0  0  0  0  0
   -2.6300   23.4560  -30.1380 N   0  0  0  0  0  0  0  0  0  0  0  0
   -3.7700   24.3170  -29.9880 C   0  0  0  0  0  0  0  0  0  0  0  0
   -4.6980   24.0120  -29.1930 O   0  0  0  0  0  0  0  0  0  0  0  0
   -3.8720   25.4820  -30.7370 O   0  0  0  0  0  0  0  0  0  0  0  0
   -2.6480   26.0500  -28.9670 H   0  0  0  0  0  0  0  0  0  0  0  0
    0.4612   22.3463  -29.5943 H   0  0  0  0  0  0  0  0  0  0  0  0
   -0.0880   19.9865  -31.1060 H   0  0  0  0  0  0  0  0  0  0  0  0
   -1.9035   18.8031  -32.3840 H   0  0  0  0  0  0  0  0  0  0  0  0
   -3.0632   18.5313  -34.0259 H   0  0  0  0  0  0  0  0  0  0  0  0
   -4.8460   17.3224  -35.2762 H   0  0  0  0  0  0  0  0  0  0  0  0
   -7.2471   17.7593  -34.7759 H   0  0  0  0  0  0  0  0  0  0  0  0
   -8.4078   20.5701  -32.7539 H   0  0  0  0  0  0  0  0  0  0  0  0
   -8.8707   19.2048  -33.8294 H   0  0  0  0  0  0  0  0  0  0  0  0
   -4.6352   22.0994  -31.5501 H   0  0  0  0  0  0  0  0  0  0  0  0
  1  2  1  0
  2  3  2  0
  2  4  1  0
  4  5  2  0
  5  6  1  0
  6  7  2  0
  7  8  1  0
  8  9  2  0
  9 10  1  0
 10 11  2  0
 11 12  1  0
 12 13  2  0
 13 14  1  0
 14 15  1  0
 15 16  1  0
 14 17  2  0
 17 18  1  0
  9 19  1  0
 19 20  2  0
 20 21  1  0
 21 22  1  0
 22 23  2  0
 22 24  1  0
 21  4  1  0
 20  6  1  0
 17 10  1  0
  1 25  1  0
  5 26  1  0
  7 27  1  0
  8 28  1  0
 11 29  1  0
 12 30  1  0
 13 31  1  0
 15 32  1  0
 15 33  1  0
 19 34  1  0
M  CHG  2   1  -1  24  -1
M  END
>  <UniqueID>  (47) 
47

>  <SMILES>  (47) 
[NH-]C(=O)c1cc2ccc(-c3cccc(CCl)c3F)cc2n1C(=O)[O-]

>  <Energy>  (47) 
82.28292361903613

>  <Genealogy>  (47) 
[NH-]C(=O)c1cc2ccc(-c3cccc(CCl)c3F)cc2n1C(=O)[O-] (protonated)
[NH-]C(=O)c1cc2ccc(-c3cccc(CCl)c3F)cc2n1C(=O)[O-] (3D coordinates assigned)
[NH-]C(=O)c1cc2ccc(-c3cccc(CCl)c3F)cc2n1C(=O)[O-] (optimized conformer: 82.28292361903613 kcal/mol)

>  <smiles>  (47) 
NC(=O)c1cc2ccc(-c3cccc(CCl)c3F)cc2n1C(=O)O

>  <score_type>  (47) 
oracle

>  <origin>  (47) 
adg

>  <m_score__min__energy>  (47) 
-12.24

>  <m_primary>  (47) 
energy

$$$$
49:0
     RDKit          3D

 35 36  0  0  0  0  0  0  0  0999 V2000
   -4.2740   17.5070  -34.9480 C   0  0  0  0  0  0  0  0  0  0  0  0
   -5.6030   17.0410  -35.0180 O   0  0  0  0  0  0  0  0  0  0  0  0
   -5.9810   16.4340  -33.7960 C   0  0  0  0  0  0  0  0  0  0  0  0
   -6.6890   17.4450  -32.8860 C   0  0  0  0  0  0  0  0  0  0  0  0
   -6.8960   18.7240  -33.5680 N   0  0  0  0  0  0  0  0  0  0  0  0
   -7.1280   19.9620  -32.8700 C   0  0  0  0  0  0  0  0  0  0  0  0
   -8.4340   20.3560  -32.4670 C   0  0  0  0  0  0  0  0  0  0  0  0
   -8.6380   21.5610  -31.7750 C   0  0  0  0  0  0  0  0  0  0  0  0
   -7.5290   22.3580  -31.5090 C   0  0  0  0  0  0  0  0  0  0  0  0
   -7.4430   23.5520  -30.8300 C   0  0  0  0  0  0  0  0  0  0  0  0
   -6.0930   23.8880  -30.8530 C   0  0  0  0  0  0  0  0  0  0  0  0
   -5.5610   25.1460  -30.2890 C   0  0  0  0  0  0  0  0  0  0  0  0
   -6.1180   25.7180  -29.1050 N   0  0  0  0  0  0  0  0  0  0  0  0
   -4.5640   25.6930  -30.8300 O   0  0  0  0  0  0  0  0  0  0  0  0
   -5.3680   22.9360  -31.5050 N   0  0  0  0  0  0  0  0  0  0  0  0
   -3.9370   22.8590  -31.6330 C   0  0  0  0  0  0  0  0  0  0  0  0
   -3.0970   23.5710  -30.7280 N   0  0  0  0  0  0  0  0  0  0  0  0
   -3.4180   22.1540  -32.5380 O   0  0  0  0  0  0  0  0  0  0  0  0
   -6.2650   22.0060  -31.9040 C   0  0  0  0  0  0  0  0  0  0  0  0
   -6.0300   20.8000  -32.5760 C   0  0  0  0  0  0  0  0  0  0  0  0
   -3.9770   17.6111  -33.8940 H   0  0  0  0  0  0  0  0  0  0  0  0
   -3.6069   16.7891  -35.4477 H   0  0  0  0  0  0  0  0  0  0  0  0
   -4.2013   18.4842  -35.4477 H   0  0  0  0  0  0  0  0  0  0  0  0
   -6.6627   15.5962  -34.0044 H   0  0  0  0  0  0  0  0  0  0  0  0
   -5.0763   16.0714  -33.2860 H   0  0  0  0  0  0  0  0  0  0  0  0
   -7.6657   17.0359  -32.5883 H   0  0  0  0  0  0  0  0  0  0  0  0
   -6.0547   17.6212  -32.0048 H   0  0  0  0  0  0  0  0  0  0  0  0
   -6.8780   18.7470  -34.6140 H   0  0  0  0  0  0  0  0  0  0  0  0
   -9.2934   19.7100  -32.6998 H   0  0  0  0  0  0  0  0  0  0  0  0
   -9.6447   21.8656  -31.4529 H   0  0  0  0  0  0  0  0  0  0  0  0
   -8.2649   24.1189  -30.3683 H   0  0  0  0  0  0  0  0  0  0  0  0
   -6.8330   25.2060  -28.5430 H   0  0  0  0  0  0  0  0  0  0  0  0
   -5.7540   26.6270  -28.7420 H   0  0  0  0  0  0  0  0  0  0  0  0
   -2.8900   24.5850  -30.8720 H   0  0  0  0  0  0  0  0  0  0  0  0
   -5.0099   20.5111  -32.8691 H   0  0  0  0  0  0  0  0  0  0  0  0
  1  2  1  0
  2  3  1  0
  3  4  1  0
  4  5  1  0
  5  6  1  0
  6  7  2  0
  7  8  1  0
  8  9  2  0
  9 10  1  0
 10 11  2  0
 11 12  1  0
 12 13  1  0
 12 14  2  0
 11 15  1  0
 15 16  1  0
 16 17  1  0
 16 18  2  0
 15 19  1  0
 19 20  2  0
 20  6  1  0
 19  9  1  0
  1 21  1  0
  1 22  1  0
  1 23  1  0
  3 24  1  0
  3 25  1  0
  4 26  1  0
  4 27  1  0
  5 28  1  0
  7 29  1  0
  8 30  1  0
 10 31  1  0
 13 32  1  0
 13 33  1  0
 17 34  1  0
 20 35  1  0
M  CHG  1  17  -1
M  END
>  <UniqueID>  (48) 
48

>  <SMILES>  (48) 
COCCNc1ccc2cc(C(N)=O)n(C([NH-])=O)c2c1

>  <Energy>  (48) 
74.41201441332149

>  <Genealogy>  (48) 
COCCNc1ccc2cc(C(N)=O)n(C([NH-])=O)c2c1 (protonated)
COCCNc1ccc2cc(C(N)=O)n(C([NH-])=O)c2c1 (3D coordinates assigned)
COCCNc1ccc2cc(C(N)=O)n(C([NH-])=O)c2c1 (optimized conformer: 74.41201441332149 kcal/mol)

>  <smiles>  (48) 
COCCNc1ccc2cc(C(N)=O)n(C(N)=O)c2c1

>  <score_type>  (48) 
oracle

>  <origin>  (48) 
adg

>  <m_score__min__energy>  (48) 
-8.3599999999999994

>  <m_primary>  (48) 
energy

$$$$
50:0
     RDKit          3D

 38 39  0  0  0  0  0  0  0  0999 V2000
   -1.1290   22.3940  -29.4960 C   0  0  0  0  0  0  0  0  0  0  0  0
   -2.3930   23.2620  -29.3590 C   0  0  0  0  0  0  0  0  0  0  0  0
   -2.0900   24.5440  -28.5590 C   0  0  0  0  0  0  0  0  0  0  0  0
   -3.4700   22.4580  -28.6150 C   0  0  0  0  0  0  0  0  0  0  0  0
   -2.9270   23.5840  -30.6520 O   0  0  0  0  0  0  0  0  0  0  0  0
   -3.6220   22.7150  -31.5060 C   0  0  0  0  0  0  0  0  0  0  0  0
   -3.0030   21.9380  -32.2810 O   0  0  0  0  0  0  0  0  0  0  0  0
   -5.0600   22.7140  -31.4900 N   0  0  0  0  0  0  0  0  0  0  0  0
   -5.8760   23.6190  -30.8790 C   0  0  0  0  0  0  0  0  0  0  0  0
   -5.4450   24.8860  -30.2550 C   0  0  0  0  0  0  0  0  0  0  0  0
   -5.9200   25.2740  -28.9670 N   0  0  0  0  0  0  0  0  0  0  0  0
   -4.6020   25.6120  -30.8470 O   0  0  0  0  0  0  0  0  0  0  0  0
   -7.2050   23.2160  -30.9600 C   0  0  0  0  0  0  0  0  0  0  0  0
   -7.1840   22.0310  -31.6560 C   0  0  0  0  0  0  0  0  0  0  0  0
   -8.2310   21.1910  -32.0200 C   0  0  0  0  0  0  0  0  0  0  0  0
   -7.9180   20.0070  -32.7090 C   0  0  0  0  0  0  0  0  0  0  0  0
   -6.5710   19.6710  -32.9980 C   0  0  0  0  0  0  0  0  0  0  0  0
   -6.2500   18.4170  -33.7700 C   0  0  0  0  0  0  0  0  0  0  0  0
   -6.1100   18.6920  -35.1190 F   0  0  0  0  0  0  0  0  0  0  0  0
   -5.0680   17.8800  -33.2950 F   0  0  0  0  0  0  0  0  0  0  0  0
   -7.2600   17.4810  -33.6230 F   0  0  0  0  0  0  0  0  0  0  0  0
   -5.5360   20.5630  -32.6310 C   0  0  0  0  0  0  0  0  0  0  0  0
   -5.8780   21.7450  -31.9630 C   0  0  0  0  0  0  0  0  0  0  0  0
   -0.7519   22.1350  -28.4957 H   0  0  0  0  0  0  0  0  0  0  0  0
   -1.3744   21.4730  -30.0451 H   0  0  0  0  0  0  0  0  0  0  0  0
   -0.3576   22.9538  -30.0451 H   0  0  0  0  0  0  0  0  0  0  0  0
   -2.1417   24.3251  -27.4822 H   0  0  0  0  0  0  0  0  0  0  0  0
   -1.0819   24.9044  -28.8119 H   0  0  0  0  0  0  0  0  0  0  0  0
   -2.8301   25.3175  -28.8119 H   0  0  0  0  0  0  0  0  0  0  0  0
   -3.3246   22.5666  -27.5301 H   0  0  0  0  0  0  0  0  0  0  0  0
   -4.4656   22.8356  -28.8911 H   0  0  0  0  0  0  0  0  0  0  0  0
   -3.3910   21.3961  -28.8911 H   0  0  0  0  0  0  0  0  0  0  0  0
   -6.4810   24.6170  -28.3790 H   0  0  0  0  0  0  0  0  0  0  0  0
   -5.6460   26.1960  -28.5610 H   0  0  0  0  0  0  0  0  0  0  0  0
   -8.0854   23.7353  -30.5535 H   0  0  0  0  0  0  0  0  0  0  0  0
   -9.2729   21.4458  -31.7759 H   0  0  0  0  0  0  0  0  0  0  0  0
   -8.7270   19.3332  -33.0278 H   0  0  0  0  0  0  0  0  0  0  0  0
   -4.4861   20.3331  -32.8652 H   0  0  0  0  0  0  0  0  0  0  0  0
  1  2  1  0
  2  3  1  0
  2  4  1  0
  2  5  1  0
  5  6  1  0
  6  7  2  0
  6  8  1  0
  8  9  1  0
  9 10  1  0
 10 11  1  0
 10 12  2  0
  9 13  2  0
 13 14  1  0
 14 15  2  0
 15 16  1  0
 16 17  2  0
 17 18  1  0
 18 19  1  0
 18 20  1  0
 18 21  1  0
 17 22  1  0
 22 23  2  0
 23  8  1  0
 23 14  1  0
  1 24  1  0
  1 25  1  0
  1 26  1  0
  3 27  1  0
  3 28  1  0
  3 29  1  0
  4 30  1  0
  4 31  1  0
  4 32  1  0
 11 33  1  0
 11 34  1  0
 13 35  1  0
 15 36  1  0
 16 37  1  0
 22 38  1  0
M  END
>  <UniqueID>  (49) 
49

>  <SMILES>  (49) 
CC(C)(C)OC(=O)n1c(C(N)=O)cc2ccc(C(F)(F)F)cc21

>  <Energy>  (49) 
72.6980679317646

>  <Genealogy>  (49) 
CC(C)(C)OC(=O)n1c(C(N)=O)cc2ccc(C(F)(F)F)cc21 (3D coordinates assigned)
CC(C)(C)OC(=O)n1c(C(N)=O)cc2ccc(C(F)(F)F)cc21 (optimized conformer: 72.6980679317646 kcal/mol)

>  <smiles>  (49) 
CC(C)(C)OC(=O)n1c(C(N)=O)cc2ccc(C(F)(F)F)cc21

>  <score_type>  (49) 
oracle

>  <origin>  (49) 
adg

>  <m_score__min__energy>  (49) 
-8.4100000000000001

>  <m_primary>  (49) 
energy

$$$$
51:0
     RDKit          3D

 51 53  0  0  0  0  0  0  0  0999 V2000
   -1.7620   20.4890  -30.9700 C   0  0  0  0  0  0  0  0  0  0  0  0
   -2.1820   21.7730  -30.2390 C   0  0  0  0  0  0  0  0  0  0  0  0
   -0.9160   22.5160  -29.7710 C   0  0  0  0  0  0  0  0  0  0  0  0
   -3.0670   21.3950  -29.0370 C   0  0  0  0  0  0  0  0  0  0  0  0
   -2.9190   22.5710  -31.1770 O   0  0  0  0  0  0  0  0  0  0  0  0
   -3.8630   23.5620  -30.8660 C   0  0  0  0  0  0  0  0  0  0  0  0
   -3.4980   24.6960  -30.4540 O   0  0  0  0  0  0  0  0  0  0  0  0
   -5.2630   23.2730  -31.0100 N   0  0  0  0  0  0  0  0  0  0  0  0
   -6.3120   24.0850  -30.7000 C   0  0  0  0  0  0  0  0  0  0  0  0
   -6.2140   25.3830  -29.9960 C   0  0  0  0  0  0  0  0  0  0  0  0
   -5.3330   26.4040  -30.4670 N   0  0  0  0  0  0  0  0  0  0  0  0
   -6.9340   25.6120  -28.9880 O   0  0  0  0  0  0  0  0  0  0  0  0
   -7.5180   23.4840  -31.0550 C   0  0  0  0  0  0  0  0  0  0  0  0
   -7.1720   22.2670  -31.5970 C   0  0  0  0  0  0  0  0  0  0  0  0
   -7.9760   21.2640  -32.1260 C   0  0  0  0  0  0  0  0  0  0  0  0
   -7.3470   20.1200  -32.6470 C   0  0  0  0  0  0  0  0  0  0  0  0
   -5.9330   20.0000  -32.6360 C   0  0  0  0  0  0  0  0  0  0  0  0
   -5.2770   18.7930  -33.2010 C   0  0  0  0  0  0  0  0  0  0  0  0
   -6.0180   17.6200  -33.4240 C   0  0  0  0  0  0  0  0  0  0  0  0
   -5.4080   16.4810  -33.9680 C   0  0  0  0  0  0  0  0  0  0  0  0
   -6.2250   15.2460  -34.2260 C   0  0  0  0  0  0  0  0  0  0  0  0
   -5.7440   14.1980  -33.4620 F   0  0  0  0  0  0  0  0  0  0  0  0
   -7.5460   15.4840  -33.8920 F   0  0  0  0  0  0  0  0  0  0  0  0
   -4.0430   16.5150  -34.2910 C   0  0  0  0  0  0  0  0  0  0  0  0
   -3.2790   17.6680  -34.0480 C   0  0  0  0  0  0  0  0  0  0  0  0
   -1.8210   17.7130  -34.4350 C   0  0  0  0  0  0  0  0  0  0  0  0
   -1.4040   19.0190  -34.6230 F   0  0  0  0  0  0  0  0  0  0  0  0
   -1.6060   17.0170  -35.6120 F   0  0  0  0  0  0  0  0  0  0  0  0
   -1.0670   17.1390  -33.4280 F   0  0  0  0  0  0  0  0  0  0  0  0
   -3.9090   18.8100  -33.5250 C   0  0  0  0  0  0  0  0  0  0  0  0
   -5.1520   21.0440  -32.0880 C   0  0  0  0  0  0  0  0  0  0  0  0
   -5.8060   22.1630  -31.5590 C   0  0  0  0  0  0  0  0  0  0  0  0
   -1.5083   19.7134  -30.2324 H   0  0  0  0  0  0  0  0  0  0  0  0
   -2.5921   20.1378  -31.6006 H   0  0  0  0  0  0  0  0  0  0  0  0
   -0.8848   20.6963  -31.6006 H   0  0  0  0  0  0  0  0  0  0  0  0
   -0.8864   22.5334  -28.6715 H   0  0  0  0  0  0  0  0  0  0  0  0
   -0.0243   21.9980  -30.1537 H   0  0  0  0  0  0  0  0  0  0  0  0
   -0.9335   23.5471  -30.1537 H   0  0  0  0  0  0  0  0  0  0  0  0
   -2.5332   21.6230  -28.1026 H   0  0  0  0  0  0  0  0  0  0  0  0
   -4.0028   21.9719  -29.0749 H   0  0  0  0  0  0  0  0  0  0  0  0
   -3.2972   20.3200  -29.0749 H   0  0  0  0  0  0  0  0  0  0  0  0
   -4.6830   26.2340  -31.2650 H   0  0  0  0  0  0  0  0  0  0  0  0
   -5.2990   27.3300  -29.9850 H   0  0  0  0  0  0  0  0  0  0  0  0
   -8.5307   23.8946  -30.9290 H   0  0  0  0  0  0  0  0  0  0  0  0
   -9.0715   21.3626  -32.1366 H   0  0  0  0  0  0  0  0  0  0  0  0
   -7.9581   19.3081  -33.0682 H   0  0  0  0  0  0  0  0  0  0  0  0
   -7.0878   17.5953  -33.1691 H   0  0  0  0  0  0  0  0  0  0  0  0
   -6.1546   14.9853  -35.2923 H   0  0  0  0  0  0  0  0  0  0  0  0
   -3.5669   15.6302  -34.7388 H   0  0  0  0  0  0  0  0  0  0  0  0
   -3.3247   19.7285  -33.3672 H   0  0  0  0  0  0  0  0  0  0  0  0
   -4.0540   20.9781  -32.0777 H   0  0  0  0  0  0  0  0  0  0  0  0
  1  2  1  0
  2  3  1  0
  2  4  1  0
  2  5  1  0
  5  6  1  0
  6  7  2  0
  6  8  1  0
  8  9  1  0
  9 10  1  0
 10 11  1  0
 10 12  2  0
  9 13  2  0
 13 14  1  0
 14 15  2  0
 15 16  1  0
 16 17  2  0
 17 18  1  0
 18 19  2  0
 19 20  1  0
 20 21  1  0
 21 22  1  0
 21 23  1  0
 20 24  2  0
 24 25  1  0
 25 26  1  0
 26 27  1  0
 26 28  1  0
 26 29  1  0
 25 30  2  0
 17 31  1  0
 31 32  2  0
 32  8  1  0
 32 14  1  0
 30 18  1  0
  1 33  1  0
  1 34  1  0
  1 35  1  0
  3 36  1  0
  3 37  1  0
  3 38  1  0
  4 39  1  0
  4 40  1  0
  4 41  1  0
 11 42  1  0
 11 43  1  0
 13 44  1  0
 15 45  1  0
 16 46  1  0
 19 47  1  0
 21 48  1  0
 24 49  1  0
 30 50  1  0
 31 51  1  0
M  END
>  <UniqueID>  (50) 
50

>  <SMILES>  (50) 
CC(C)(C)OC(=O)n1c(C(N)=O)cc2ccc(-c3cc(C(F)F)cc(C(F)(F)F)c3)cc21

>  <Energy>  (50) 
91.88807919860504

>  <Genealogy>  (50) 
CC(C)(C)OC(=O)n1c(C(N)=O)cc2ccc(-c3cc(C(F)F)cc(C(F)(F)F)c3)cc21 (3D coordinates assigned)
CC(C)(C)OC(=O)n1c(C(N)=O)cc2ccc(-c3cc(C(F)F)cc(C(F)(F)F)c3)cc21 (optimized conformer: 91.88807919860504 kcal/mol)

>  <smiles>  (50) 
CC(C)(C)OC(=O)n1c(C(N)=O)cc2ccc(-c3cc(C(F)F)cc(C(F)(F)F)c3)cc21

>  <score_type>  (50) 
oracle

>  <origin>  (50) 
adg

>  <m_score__min__energy>  (50) 
-9.3200000000000003

>  <m_primary>  (50) 
energy

$$$$
52:0
     RDKit          3D

 31 32  0  0  0  0  0  0  0  0999 V2000
   -6.7960   17.0980  -33.8350 C   0  0  0  0  0  0  0  0  0  0  0  0
   -6.1930   18.0690  -33.4490 C   0  0  0  0  0  0  0  0  0  0  0  0
   -5.4720   19.2260  -32.9890 C   0  0  0  0  0  0  0  0  0  0  0  0
   -4.0800   19.3260  -33.2170 C   0  0  0  0  0  0  0  0  0  0  0  0
   -3.3690   20.4580  -32.7840 C   0  0  0  0  0  0  0  0  0  0  0  0
   -4.0750   21.4600  -32.1250 C   0  0  0  0  0  0  0  0  0  0  0  0
   -3.6400   22.6660  -31.6260 C   0  0  0  0  0  0  0  0  0  0  0  0
   -4.7710   23.2710  -31.0820 C   0  0  0  0  0  0  0  0  0  0  0  0
   -4.7490   24.5580  -30.3510 C   0  0  0  0  0  0  0  0  0  0  0  0
   -5.3770   24.6810  -29.0740 N   0  0  0  0  0  0  0  0  0  0  0  0
   -4.2020   25.5680  -30.8660 O   0  0  0  0  0  0  0  0  0  0  0  0
   -5.8640   22.4720  -31.2410 N   0  0  0  0  0  0  0  0  0  0  0  0
   -7.2240   22.7700  -30.8830 C   0  0  0  0  0  0  0  0  0  0  0  0
   -7.5010   23.1310  -29.7070 O   0  0  0  0  0  0  0  0  0  0  0  0
   -8.2360   22.6470  -31.8420 O   0  0  0  0  0  0  0  0  0  0  0  0
   -9.4410   21.9160  -31.6230 C   0  0  0  0  0  0  0  0  0  0  0  0
   -9.3530   20.5310  -32.2530 C   0  0  0  0  0  0  0  0  0  0  0  0
   -5.4210   21.3660  -31.8820 C   0  0  0  0  0  0  0  0  0  0  0  0
   -6.1580   20.2580  -32.3190 C   0  0  0  0  0  0  0  0  0  0  0  0
   -7.3458   16.2127  -34.1869 H   0  0  0  0  0  0  0  0  0  0  0  0
   -3.5509   18.5132  -33.7361 H   0  0  0  0  0  0  0  0  0  0  0  0
   -2.2871   20.5494  -32.9606 H   0  0  0  0  0  0  0  0  0  0  0  0
   -2.6162   23.0675  -31.6512 H   0  0  0  0  0  0  0  0  0  0  0  0
   -5.7940   23.8560  -28.5920 H   0  0  0  0  0  0  0  0  0  0  0  0
   -5.3900   25.6040  -28.5840 H   0  0  0  0  0  0  0  0  0  0  0  0
   -9.6077   21.8105  -30.5408 H   0  0  0  0  0  0  0  0  0  0  0  0
  -10.2755   22.4628  -32.0862 H   0  0  0  0  0  0  0  0  0  0  0  0
   -9.3046   19.7700  -31.4602 H   0  0  0  0  0  0  0  0  0  0  0  0
  -10.2418   20.3548  -32.8767 H   0  0  0  0  0  0  0  0  0  0  0  0
   -8.4491   20.4687  -32.8767 H   0  0  0  0  0  0  0  0  0  0  0  0
   -7.2422   20.1954  -32.1439 H   0  0  0  0  0  0  0  0  0  0  0  0
  1  2  3  0
  2  3  1  0
  3  4  2  0
  4  5  1  0
  5  6  2  0
  6  7  1  0
  7  8  2  0
  8  9  1  0
  9 10  1  0
  9 11  2  0
  8 12  1  0
 12 13  1  0
 13 14  2  0
 13 15  1  0
 15 16  1  0
 16 17  1  0
 12 18  1  0
 18 19  2  0
 19  3  1  0
 18  6  1  0
  1 20  1  0
  4 21  1  0
  5 22  1  0
  7 23  1  0
 10 24  1  0
 10 25  1  0
 16 26  1  0
 16 27  1  0
 17 28  1  0
 17 29  1  0
 17 30  1  0
 19 31  1  0
M  END
>  <UniqueID>  (51) 
51

>  <SMILES>  (51) 
C#Cc1ccc2cc(C(N)=O)n(C(=O)OCC)c2c1

>  <Energy>  (51) 
64.12641500281988

>  <Genealogy>  (51) 
C#Cc1ccc2cc(C(N)=O)n(C(=O)OCC)c2c1 (3D coordinates assigned)
C#Cc1ccc2cc(C(N)=O)n(C(=O)OCC)c2c1 (optimized conformer: 64.12641500281988 kcal/mol)

>  <smiles>  (51) 
C#Cc1ccc2cc(C(N)=O)n(C(=O)OCC)c2c1

>  <score_type>  (51) 
oracle

>  <origin>  (51) 
adg

>  <m_score__min__energy>  (51) 
-8.2899999999999991

>  <m_primary>  (51) 
energy

$$$$
53:0
     RDKit          3D

 47 49  0  0  0  0  0  0  0  0999 V2000
   -4.2250   23.0310  -28.0570 C   0  0  0  0  0  0  0  0  0  0  0  0
   -3.1270   22.1570  -28.6890 C   0  0  0  0  0  0  0  0  0  0  0  0
   -1.8740   23.0160  -28.9150 C   0  0  0  0  0  0  0  0  0  0  0  0
   -2.7630   20.9830  -27.7600 C   0  0  0  0  0  0  0  0  0  0  0  0
   -3.5460   21.6740  -29.9750 O   0  0  0  0  0  0  0  0  0  0  0  0
   -3.9520   22.4570  -31.0660 C   0  0  0  0  0  0  0  0  0  0  0  0
   -3.1360   22.7830  -31.9690 O   0  0  0  0  0  0  0  0  0  0  0  0
   -5.3250   22.8690  -31.1640 N   0  0  0  0  0  0  0  0  0  0  0  0
   -5.8510   24.0890  -30.8640 C   0  0  0  0  0  0  0  0  0  0  0  0
   -5.0840   25.3100  -30.5430 C   0  0  0  0  0  0  0  0  0  0  0  0
   -3.6610   25.2850  -30.4750 N   0  0  0  0  0  0  0  0  0  0  0  0
   -5.6910   26.4010  -30.3720 O   0  0  0  0  0  0  0  0  0  0  0  0
   -7.2400   24.0630  -30.9740 C   0  0  0  0  0  0  0  0  0  0  0  0
   -7.5510   22.7790  -31.3600 C   0  0  0  0  0  0  0  0  0  0  0  0
   -8.7900   22.1900  -31.5930 C   0  0  0  0  0  0  0  0  0  0  0  0
   -8.8170   20.8290  -31.9400 C   0  0  0  0  0  0  0  0  0  0  0  0
   -7.6140   20.0860  -32.0460 C   0  0  0  0  0  0  0  0  0  0  0  0
   -7.6580   18.6160  -32.3660 C   0  0  0  0  0  0  0  0  0  0  0  0
   -6.6400   18.2630  -33.4650 C   0  0  0  0  0  0  0  0  0  0  0  0
   -6.4690   19.2060  -34.5780 N   0  0  0  0  0  0  0  0  0  0  0  0
   -6.4330   16.7950  -33.8070 C   0  0  0  0  0  0  0  0  0  0  0  0
   -5.3690   17.5540  -33.0150 C   0  0  0  0  0  0  0  0  0  0  0  0
   -6.3760   20.7170  -31.7950 C   0  0  0  0  0  0  0  0  0  0  0  0
   -6.3780   22.0790  -31.4690 C   0  0  0  0  0  0  0  0  0  0  0  0
   -4.1534   22.9740  -26.9608 H   0  0  0  0  0  0  0  0  0  0  0  0
   -4.0938   24.0745  -28.3792 H   0  0  0  0  0  0  0  0  0  0  0  0
   -5.2125   22.6691  -28.3792 H   0  0  0  0  0  0  0  0  0  0  0  0
   -1.4490   23.3074  -27.9432 H   0  0  0  0  0  0  0  0  0  0  0  0
   -1.1300   22.4371  -29.4819 H   0  0  0  0  0  0  0  0  0  0  0  0
   -2.1456   23.9187  -29.4819 H   0  0  0  0  0  0  0  0  0  0  0  0
   -2.8616   21.3009  -26.7116 H   0  0  0  0  0  0  0  0  0  0  0  0
   -3.4416   20.1390  -27.9526 H   0  0  0  0  0  0  0  0  0  0  0  0
   -1.7259   20.6709  -27.9526 H   0  0  0  0  0  0  0  0  0  0  0  0
   -3.0950   24.8200  -31.2180 H   0  0  0  0  0  0  0  0  0  0  0  0
   -7.9392   24.8923  -30.7912 H   0  0  0  0  0  0  0  0  0  0  0  0
   -9.7195   22.7721  -31.5081 H   0  0  0  0  0  0  0  0  0  0  0  0
   -9.7809   20.3348  -32.1314 H   0  0  0  0  0  0  0  0  0  0  0  0
   -7.4211   18.0424  -31.4578 H   0  0  0  0  0  0  0  0  0  0  0  0
   -8.6663   18.3647  -32.7268 H   0  0  0  0  0  0  0  0  0  0  0  0
   -6.4940   18.7290  -35.5080 H   0  0  0  0  0  0  0  0  0  0  0  0
   -5.5500   19.6940  -34.4750 H   0  0  0  0  0  0  0  0  0  0  0  0
   -7.2380   19.9130  -34.5490 H   0  0  0  0  0  0  0  0  0  0  0  0
   -7.0414   16.0237  -33.3121 H   0  0  0  0  0  0  0  0  0  0  0  0
   -6.4385   16.2038  -34.7346 H   0  0  0  0  0  0  0  0  0  0  0  0
   -5.2114   17.3299  -31.9497 H   0  0  0  0  0  0  0  0  0  0  0  0
   -4.2910   17.7366  -33.1353 H   0  0  0  0  0  0  0  0  0  0  0  0
   -5.4335   20.1529  -31.8540 H   0  0  0  0  0  0  0  0  0  0  0  0
  1  2  1  0
  2  3  1  0
  2  4  1  0
  2  5  1  0
  5  6  1  0
  6  7  2  0
  6  8  1  0
  8  9  1  0
  9 10  1  0
 10 11  1  0
 10 12  2  0
  9 13  2  0
 13 14  1  0
 14 15  2  0
 15 16  1  0
 16 17  2  0
 17 18  1  0
 18 19  1  0
 19 20  1  0
 19 21  1  0
 21 22  1  0
 17 23  1  0
 23 24  2  0
 24  8  1  0
 24 14  1  0
 22 19  1  0
  1 25  1  0
  1 26  1  0
  1 27  1  0
  3 28  1  0
  3 29  1  0
  3 30  1  0
  4 31  1  0
  4 32  1  0
  4 33  1  0
 11 34  1  0
 13 35  1  0
 15 36  1  0
 16 37  1  0
 18 38  1  0
 18 39  1  0
 20 40  1  0
 20 41  1  0
 20 42  1  0
 21 43  1  0
 21 44  1  0
 22 45  1  0
 22 46  1  0
 23 47  1  0
M  CHG  2  11  -1  20   1
M  END
>  <UniqueID>  (52) 
52

>  <SMILES>  (52) 
CC(C)(C)OC(=O)n1c(C([NH-])=O)cc2ccc(CC3([NH3+])CC3)cc21

>  <Energy>  (52) 
347.9777312385077

>  <Genealogy>  (52) 
CC(C)(C)OC(=O)n1c(C([NH-])=O)cc2ccc(CC3([NH3+])CC3)cc21 (protonated)
CC(C)(C)OC(=O)n1c(C([NH-])=O)cc2ccc(CC3([NH3+])CC3)cc21 (3D coordinates assigned)
CC(C)(C)OC(=O)n1c(C([NH-])=O)cc2ccc(CC3([NH3+])CC3)cc21 (nonaromatic ring conformer: 347.9777312385077 kcal/mol)

>  <smiles>  (52) 
CC(C)(C)OC(=O)n1c(C(N)=O)cc2ccc(CC3(N)CC3)cc21

>  <score_type>  (52) 
oracle

>  <origin>  (52) 
adg

>  <m_score__min__energy>  (52) 
-10.789999999999999

>  <m_primary>  (52) 
energy

$$$$
54:0
     RDKit          3D

 65 67  0  0  0  0  0  0  0  0999 V2000
   -4.6290   13.0050  -30.9000 C   0  0  0  0  0  0  0  0  0  0  0  0
   -4.1090   14.0160  -31.9150 C   0  0  0  0  0  0  0  0  0  0  0  0
   -3.4560   13.3040  -33.0370 N   0  0  0  0  0  0  0  0  0  0  0  0
   -2.5310   14.1750  -33.7980 C   0  0  0  0  0  0  0  0  0  0  0  0
   -2.3240   15.5240  -33.1090 C   0  0  0  0  0  0  0  0  0  0  0  0
   -4.4230   12.5460  -33.8720 C   0  0  0  0  0  0  0  0  0  0  0  0
   -5.7000   13.3280  -34.2430 C   0  0  0  0  0  0  0  0  0  0  0  0
   -5.3600   14.5530  -34.8940 O   0  0  0  0  0  0  0  0  0  0  0  0
   -5.5780   15.8410  -34.3770 C   0  0  0  0  0  0  0  0  0  0  0  0
   -6.4130   15.9670  -33.2610 C   0  0  0  0  0  0  0  0  0  0  0  0
   -6.6770   17.2230  -32.7090 C   0  0  0  0  0  0  0  0  0  0  0  0
   -6.1020   18.3810  -33.2620 C   0  0  0  0  0  0  0  0  0  0  0  0
   -6.4060   19.7180  -32.6910 C   0  0  0  0  0  0  0  0  0  0  0  0
   -7.7480   20.1740  -32.6080 C   0  0  0  0  0  0  0  0  0  0  0  0
   -8.0450   21.4490  -32.1010 C   0  0  0  0  0  0  0  0  0  0  0  0
   -6.9850   22.2510  -31.6920 C   0  0  0  0  0  0  0  0  0  0  0  0
   -6.9910   23.5210  -31.1640 C   0  0  0  0  0  0  0  0  0  0  0  0
   -5.6530   23.8340  -30.9400 C   0  0  0  0  0  0  0  0  0  0  0  0
   -5.1980   25.1570  -30.4630 C   0  0  0  0  0  0  0  0  0  0  0  0
   -3.9170   25.6480  -30.8500 N   0  0  0  0  0  0  0  0  0  0  0  0
   -5.9100   25.8430  -29.6820 O   0  0  0  0  0  0  0  0  0  0  0  0
   -4.8490   22.7950  -31.3070 N   0  0  0  0  0  0  0  0  0  0  0  0
   -3.4250   22.6920  -31.1470 C   0  0  0  0  0  0  0  0  0  0  0  0
   -2.7410   22.0950  -32.0210 O   0  0  0  0  0  0  0  0  0  0  0  0
   -2.8160   23.2580  -30.0160 O   0  0  0  0  0  0  0  0  0  0  0  0
   -2.8210   22.7210  -28.6860 C   0  0  0  0  0  0  0  0  0  0  0  0
   -2.9870   21.1880  -28.7080 C   0  0  0  0  0  0  0  0  0  0  0  0
   -1.4620   23.0650  -28.0570 C   0  0  0  0  0  0  0  0  0  0  0  0
   -3.9380   23.3770  -27.8490 C   0  0  0  0  0  0  0  0  0  0  0  0
   -5.6820   21.8340  -31.7690 C   0  0  0  0  0  0  0  0  0  0  0  0
   -5.3570   20.5610  -32.2500 C   0  0  0  0  0  0  0  0  0  0  0  0
   -5.2500   18.2530  -34.3740 C   0  0  0  0  0  0  0  0  0  0  0  0
   -4.9880   16.9960  -34.9260 C   0  0  0  0  0  0  0  0  0  0  0  0
   -4.4382   13.3760  -29.8822 H   0  0  0  0  0  0  0  0  0  0  0  0
   -5.7108   12.8655  -31.0426 H   0  0  0  0  0  0  0  0  0  0  0  0
   -4.1134   12.0439  -31.0426 H   0  0  0  0  0  0  0  0  0  0  0  0
   -4.9488   14.6131  -32.2999 H   0  0  0  0  0  0  0  0  0  0  0  0
   -3.3780   14.6785  -31.4285 H   0  0  0  0  0  0  0  0  0  0  0  0
   -1.5587   13.6686  -33.8884 H   0  0  0  0  0  0  0  0  0  0  0  0
   -2.9737   14.3613  -34.7876 H   0  0  0  0  0  0  0  0  0  0  0  0
   -2.3452   15.3856  -32.0180 H   0  0  0  0  0  0  0  0  0  0  0  0
   -1.3512   15.9423  -33.4067 H   0  0  0  0  0  0  0  0  0  0  0  0
   -3.1267   16.2147  -33.4067 H   0  0  0  0  0  0  0  0  0  0  0  0
   -3.9167   12.2534  -34.8037 H   0  0  0  0  0  0  0  0  0  0  0  0
   -4.7480   11.6848  -33.2697 H   0  0  0  0  0  0  0  0  0  0  0  0
   -6.3162   12.7168  -34.9189 H   0  0  0  0  0  0  0  0  0  0  0  0
   -6.2601   13.5549  -33.3239 H   0  0  0  0  0  0  0  0  0  0  0  0
   -6.8654   15.0693  -32.8145 H   0  0  0  0  0  0  0  0  0  0  0  0
   -7.3398   17.3067  -31.8351 H   0  0  0  0  0  0  0  0  0  0  0  0
   -8.5655   19.5199  -32.9453 H   0  0  0  0  0  0  0  0  0  0  0  0
   -9.0841   21.8028  -32.0295 H   0  0  0  0  0  0  0  0  0  0  0  0
   -7.8670   24.1548  -30.9617 H   0  0  0  0  0  0  0  0  0  0  0  0
   -3.0410   25.2890  -30.4070 H   0  0  0  0  0  0  0  0  0  0  0  0
   -3.0281   20.8088  -27.6762 H   0  0  0  0  0  0  0  0  0  0  0  0
   -3.9186   20.9275  -29.2317 H   0  0  0  0  0  0  0  0  0  0  0  0
   -2.1327   20.7342  -29.2317 H   0  0  0  0  0  0  0  0  0  0  0  0
   -1.5493   23.0429  -26.9607 H   0  0  0  0  0  0  0  0  0  0  0  0
   -0.7115   22.3285  -28.3800 H   0  0  0  0  0  0  0  0  0  0  0  0
   -1.1523   24.0699  -28.3800 H   0  0  0  0  0  0  0  0  0  0  0  0
   -3.7182   23.2479  -26.7789 H   0  0  0  0  0  0  0  0  0  0  0  0
   -3.9914   24.4499  -28.0855 H   0  0  0  0  0  0  0  0  0  0  0  0
   -4.9011   22.9010  -28.0855 H   0  0  0  0  0  0  0  0  0  0  0  0
   -4.3109   20.2228  -32.2848 H   0  0  0  0  0  0  0  0  0  0  0  0
   -4.7864   19.1490  -34.8124 H   0  0  0  0  0  0  0  0  0  0  0  0
   -4.3176   16.9083  -35.7937 H   0  0  0  0  0  0  0  0  0  0  0  0
  1  2  1  0
  2  3  1  0
  3  4  1  0
  4  5  1  0
  3  6  1  0
  6  7  1  0
  7  8  1  0
  8  9  1  0
  9 10  2  0
 10 11  1  0
 11 12  2  0
 12 13  1  0
 13 14  2  0
 14 15  1  0
 15 16  2  0
 16 17  1  0
 17 18  2  0
 18 19  1  0
 19 20  1  0
 19 21  2  0
 18 22  1  0
 22 23  1  0
 23 24  2  0
 23 25  1  0
 25 26  1  0
 26 27  1  0
 26 28  1  0
 26 29  1  0
 22 30  1  0
 30 31  2  0
 12 32  1  0
 32 33  2  0
 33  9  1  0
 31 13  1  0
 30 16  1  0
  1 34  1  0
  1 35  1  0
  1 36  1  0
  2 37  1  0
  2 38  1  0
  4 39  1  0
  4 40  1  0
  5 41  1  0
  5 42  1  0
  5 43  1  0
  6 44  1  0
  6 45  1  0
  7 46  1  0
  7 47  1  0
 10 48  1  0
 11 49  1  0
 14 50  1  0
 15 51  1  0
 17 52  1  0
 20 53  1  0
 27 54  1  0
 27 55  1  0
 27 56  1  0
 28 57  1  0
 28 58  1  0
 28 59  1  0
 29 60  1  0
 29 61  1  0
 29 62  1  0
 31 63  1  0
 32 64  1  0
 33 65  1  0
M  CHG  1  20  -1
M  END
>  <UniqueID>  (53) 
53

>  <SMILES>  (53) 
CCN(CC)CCOc1ccc(-c2ccc3cc(C([NH-])=O)n(C(=O)OC(C)(C)C)c3c2)cc1

>  <Energy>  (53) 
107.43714133622983

>  <Genealogy>  (53) 
CCN(CC)CCOc1ccc(-c2ccc3cc(C([NH-])=O)n(C(=O)OC(C)(C)C)c3c2)cc1 (protonated)
CCN(CC)CCOc1ccc(-c2ccc3cc(C([NH-])=O)n(C(=O)OC(C)(C)C)c3c2)cc1 (3D coordinates assigned)
CCN(CC)CCOc1ccc(-c2ccc3cc(C([NH-])=O)n(C(=O)OC(C)(C)C)c3c2)cc1 (optimized conformer: 107.43714133622983 kcal/mol)

>  <smiles>  (53) 
CCN(CC)CCOc1ccc(-c2ccc3cc(C(N)=O)n(C(=O)OC(C)(C)C)c3c2)cc1

>  <score_type>  (53) 
oracle

>  <origin>  (53) 
adg

>  <m_score__min__energy>  (53) 
-10.470000000000001

>  <m_primary>  (53) 
energy

$$$$
55:0
     RDKit          3D

 24 25  0  0  0  0  0  0  0  0999 V2000
   -5.8280   20.1840  -33.0030 C   0  0  0  0  0  0  0  0  0  0  0  0
   -4.5590   20.6890  -32.3830 C   0  0  0  0  0  0  0  0  0  0  0  0
   -3.3830   19.9000  -32.4310 C   0  0  0  0  0  0  0  0  0  0  0  0
   -2.1950   20.3500  -31.8320 C   0  0  0  0  0  0  0  0  0  0  0  0
   -2.2180   21.5790  -31.1770 C   0  0  0  0  0  0  0  0  0  0  0  0
   -1.2090   22.2580  -30.5350 C   0  0  0  0  0  0  0  0  0  0  0  0
   -1.7940   23.4340  -30.0680 C   0  0  0  0  0  0  0  0  0  0  0  0
   -1.0760   24.4220  -29.2370 C   0  0  0  0  0  0  0  0  0  0  0  0
   -1.6390   25.7050  -28.9730 N   0  0  0  0  0  0  0  0  0  0  0  0
    0.0250   24.1120  -28.7110 O   0  0  0  0  0  0  0  0  0  0  0  0
   -3.1110   23.4840  -30.4170 N   0  0  0  0  0  0  0  0  0  0  0  0
   -4.0340   24.5670  -30.2080 C   0  0  0  0  0  0  0  0  0  0  0  0
   -3.8710   25.6650  -30.8030 O   0  0  0  0  0  0  0  0  0  0  0  0
   -5.0980   24.4210  -29.3260 O   0  0  0  0  0  0  0  0  0  0  0  0
   -3.3560   22.3400  -31.0930 C   0  0  0  0  0  0  0  0  0  0  0  0
   -4.5500   21.9240  -31.6970 C   0  0  0  0  0  0  0  0  0  0  0  0
   -6.5365   19.9020  -32.2102 H   0  0  0  0  0  0  0  0  0  0  0  0
   -6.2712   20.9743  -33.6267 H   0  0  0  0  0  0  0  0  0  0  0  0
   -5.6070   19.3053  -33.6267 H   0  0  0  0  0  0  0  0  0  0  0  0
   -3.4007   18.9261  -32.9421 H   0  0  0  0  0  0  0  0  0  0  0  0
   -1.2742   19.7500  -31.8787 H   0  0  0  0  0  0  0  0  0  0  0  0
   -0.1626   21.9406  -30.4154 H   0  0  0  0  0  0  0  0  0  0  0  0
   -2.6730   25.8510  -28.9920 H   0  0  0  0  0  0  0  0  0  0  0  0
   -5.4572   22.5433  -31.6385 H   0  0  0  0  0  0  0  0  0  0  0  0
  1  2  1  0
  2  3  2  0
  3  4  1  0
  4  5  2  0
  5  6  1  0
  6  7  2  0
  7  8  1  0
  8  9  1  0
  8 10  2  0
  7 11  1  0
 11 12  1  0
 12 13  2  0
 12 14  1  0
 11 15  1  0
 15 16  2  0
 16  2  1  0
 15  5  1  0
  1 17  1  0
  1 18  1  0
  1 19  1  0
  3 20  1  0
  4 21  1  0
  6 22  1  0
  9 23  1  0
 16 24  1  0
M  CHG  2   9  -1  14  -1
M  END
>  <UniqueID>  (54) 
54

>  <SMILES>  (54) 
Cc1ccc2cc(C([NH-])=O)n(C(=O)[O-])c2c1

>  <Energy>  (54) 
63.79671712125899

>  <Genealogy>  (54) 
Cc1ccc2cc(C([NH-])=O)n(C(=O)[O-])c2c1 (protonated)
Cc1ccc2cc(C([NH-])=O)n(C(=O)[O-])c2c1 (3D coordinates assigned)
Cc1ccc2cc(C([NH-])=O)n(C(=O)[O-])c2c1 (optimized conformer: 63.79671712125899 kcal/mol)

>  <smiles>  (54) 
Cc1ccc2cc(C(N)=O)n(C(=O)O)c2c1

>  <score_type>  (54) 
oracle

>  <origin>  (54) 
adg

>  <m_score__min__energy>  (54) 
-9.6400000000000006

>  <m_primary>  (54) 
energy

$$$$
56:0
     RDKit          3D

 32 34  0  0  0  0  0  0  0  0999 V2000
   -2.2340   25.2740  -28.6350 N   0  0  0  0  0  0  0  0  0  0  0  0
   -1.4540   24.2210  -29.2030 C   0  0  0  0  0  0  0  0  0  0  0  0
   -0.2430   24.1020  -28.8740 O   0  0  0  0  0  0  0  0  0  0  0  0
   -2.0570   23.2310  -30.1180 C   0  0  0  0  0  0  0  0  0  0  0  0
   -1.4040   22.0720  -30.5280 C   0  0  0  0  0  0  0  0  0  0  0  0
   -2.3150   21.4000  -31.3090 C   0  0  0  0  0  0  0  0  0  0  0  0
   -2.1920   20.1880  -31.9810 C   0  0  0  0  0  0  0  0  0  0  0  0
   -3.2850   19.7430  -32.7430 C   0  0  0  0  0  0  0  0  0  0  0  0
   -4.4630   20.5240  -32.8380 C   0  0  0  0  0  0  0  0  0  0  0  0
   -5.6360   20.0250  -33.6330 C   0  0  0  0  0  0  0  0  0  0  0  0
   -6.7760   19.8060  -32.7490 N   0  0  0  0  0  0  0  0  0  0  0  0
   -7.6370   20.7470  -32.3210 C   0  0  0  0  0  0  0  0  0  0  0  0
   -8.6110   20.1280  -31.5660 C   0  0  0  0  0  0  0  0  0  0  0  0
   -8.2750   18.7880  -31.5880 C   0  0  0  0  0  0  0  0  0  0  0  0
   -7.1580   18.6140  -32.3210 N   0  0  0  0  0  0  0  0  0  0  0  0
   -4.5560   21.7440  -32.1320 C   0  0  0  0  0  0  0  0  0  0  0  0
   -3.4610   22.1520  -31.3610 C   0  0  0  0  0  0  0  0  0  0  0  0
   -3.3180   23.2840  -30.6350 N   0  0  0  0  0  0  0  0  0  0  0  0
   -4.2580   24.3670  -30.5360 C   0  0  0  0  0  0  0  0  0  0  0  0
   -5.4540   24.1440  -30.2110 O   0  0  0  0  0  0  0  0  0  0  0  0
   -3.8600   25.6730  -30.7960 O   0  0  0  0  0  0  0  0  0  0  0  0
   -3.2700   25.3000  -28.7510 H   0  0  0  0  0  0  0  0  0  0  0  0
   -1.7810   25.9870  -28.0200 H   0  0  0  0  0  0  0  0  0  0  0  0
   -0.3786   21.7603  -30.2803 H   0  0  0  0  0  0  0  0  0  0  0  0
   -1.2670   19.5962  -31.9175 H   0  0  0  0  0  0  0  0  0  0  0  0
   -3.2256   18.7796  -33.2706 H   0  0  0  0  0  0  0  0  0  0  0  0
   -5.9037   20.7708  -34.3960 H   0  0  0  0  0  0  0  0  0  0  0  0
   -5.3670   19.0761  -34.1200 H   0  0  0  0  0  0  0  0  0  0  0  0
   -7.5748   21.8240  -32.5361 H   0  0  0  0  0  0  0  0  0  0  0  0
   -9.4665   20.5975  -31.0584 H   0  0  0  0  0  0  0  0  0  0  0  0
   -8.8340   17.9858  -31.0841 H   0  0  0  0  0  0  0  0  0  0  0  0
   -5.4667   22.3585  -32.1867 H   0  0  0  0  0  0  0  0  0  0  0  0
  1  2  1  0
  2  3  2  0
  2  4  1  0
  4  5  2  0
  5  6  1  0
  6  7  2  0
  7  8  1  0
  8  9  2  0
  9 10  1  0
 10 11  1  0
 11 12  1  0
 12 13  2  0
 13 14  1  0
 14 15  2  0
  9 16  1  0
 16 17  2  0
 17 18  1  0
 18 19  1  0
 19 20  2  0
 19 21  1  0
 18  4  1  0
 17  6  1  0
 15 11  1  0
  1 22  1  0
  1 23  1  0
  5 24  1  0
  7 25  1  0
  8 26  1  0
 10 27  1  0
 10 28  1  0
 12 29  1  0
 13 30  1  0
 14 31  1  0
 16 32  1  0
M  CHG  1  21  -1
M  END
>  <UniqueID>  (55) 
55

>  <SMILES>  (55) 
NC(=O)c1cc2ccc(Cn3cccn3)cc2n1C(=O)[O-]

>  <Energy>  (55) 
102.16511092518637

>  <Genealogy>  (55) 
NC(=O)c1cc2ccc(Cn3cccn3)cc2n1C(=O)[O-] (protonated)
NC(=O)c1cc2ccc(Cn3cccn3)cc2n1C(=O)[O-] (3D coordinates assigned)
NC(=O)c1cc2ccc(Cn3cccn3)cc2n1C(=O)[O-] (optimized conformer: 102.16511092518637 kcal/mol)

>  <smiles>  (55) 
NC(=O)c1cc2ccc(Cn3cccn3)cc2n1C(=O)O

>  <score_type>  (55) 
oracle

>  <origin>  (55) 
adg

>  <m_score__min__energy>  (55) 
-9.0199999999999996

>  <m_primary>  (55) 
energy

$$$$
57:0
     RDKit          3D

 70 72  0  0  0  0  0  0  0  0999 V2000
   -9.0920   20.0360  -31.9180 C   0  0  0  0  0  0  0  0  0  0  0  0
   -9.6750   21.4500  -31.9560 C   0  0  0  0  0  0  0  0  0  0  0  0
   -8.5950   22.5380  -31.8530 C   0  0  0  0  0  0  0  0  0  0  0  0
   -7.9900   22.6320  -30.4470 C   0  0  0  0  0  0  0  0  0  0  0  0
   -6.5150   23.6440  -30.4620 S   0  0  0  0  0  0  0  0  0  0  0  0
   -6.2480   24.1220  -31.8610 O   0  0  0  0  0  0  0  0  0  0  0  0
   -6.7700   24.8480  -29.6010 O   0  0  0  0  0  0  0  0  0  0  0  0
   -5.0980   22.8350  -29.8260 N   0  0  0  0  0  0  0  0  0  0  0  0
   -3.7770   23.1310  -30.4350 C   0  0  1  0  0  0  0  0  0  0  0  0
   -3.8430   22.8280  -31.9620 C   0  0  0  0  0  0  0  0  0  0  0  0
   -4.2670   21.4080  -32.2720 C   0  0  0  0  0  0  0  0  0  0  0  0
   -5.6140   21.0090  -32.0910 C   0  0  0  0  0  0  0  0  0  0  0  0
   -6.0170   19.6960  -32.3870 C   0  0  0  0  0  0  0  0  0  0  0  0
   -5.0570   18.8090  -32.8610 C   0  0  0  0  0  0  0  0  0  0  0  0
   -5.1800   17.4880  -33.2300 C   0  0  0  0  0  0  0  0  0  0  0  0
   -3.9090   17.1040  -33.6530 C   0  0  0  0  0  0  0  0  0  0  0  0
   -3.6180   15.7770  -34.2370 C   0  0  0  0  0  0  0  0  0  0  0  0
   -2.5210   15.5970  -35.1320 N   0  0  0  0  0  0  0  0  0  0  0  0
   -4.3690   14.8010  -33.9720 O   0  0  0  0  0  0  0  0  0  0  0  0
   -3.0280   18.1390  -33.5310 N   0  0  0  0  0  0  0  0  0  0  0  0
   -1.6090   18.1180  -33.7740 C   0  0  0  0  0  0  0  0  0  0  0  0
   -0.9020   17.2020  -33.2750 O   0  0  0  0  0  0  0  0  0  0  0  0
   -1.0200   19.1490  -34.5210 O   0  0  0  0  0  0  0  0  0  0  0  0
   -0.0580   20.1050  -34.0530 C   0  0  0  0  0  0  0  0  0  0  0  0
    0.3050   19.8170  -32.5850 C   0  0  0  0  0  0  0  0  0  0  0  0
    1.1980   19.9370  -34.9270 C   0  0  0  0  0  0  0  0  0  0  0  0
   -0.5800   21.5470  -34.2100 C   0  0  0  0  0  0  0  0  0  0  0  0
   -3.7500   19.1790  -33.0510 C   0  0  0  0  0  0  0  0  0  0  0  0
   -3.3180   20.4760  -32.7460 C   0  0  0  0  0  0  0  0  0  0  0  0
   -3.3500   24.5680  -30.1810 C   0  0  0  0  0  0  0  0  0  0  0  0
   -3.9130   25.5120  -30.8000 O   0  0  0  0  0  0  0  0  0  0  0  0
   -2.3270   24.8650  -29.2900 O   0  0  0  0  0  0  0  0  0  0  0  0
   -2.7090   22.2250  -29.8010 C   0  0  0  0  0  0  0  0  0  0  0  0
   -1.4080   22.1080  -30.3420 C   0  0  0  0  0  0  0  0  0  0  0  0
   -0.4530   21.2910  -29.7350 C   0  0  0  0  0  0  0  0  0  0  0  0
   -0.7610   20.5760  -28.5670 C   0  0  0  0  0  0  0  0  0  0  0  0
    0.2650   19.7160  -27.9340 C   0  0  0  0  0  0  0  0  0  0  0  0
   -0.0500   18.5970  -27.4410 O   0  0  0  0  0  0  0  0  0  0  0  0
    1.5840   20.1480  -27.8320 O   0  0  0  0  0  0  0  0  0  0  0  0
   -2.0530   20.6770  -28.0260 C   0  0  0  0  0  0  0  0  0  0  0  0
   -3.0110   21.4890  -28.6340 C   0  0  0  0  0  0  0  0  0  0  0  0
   -8.9621   19.7209  -30.8721 H   0  0  0  0  0  0  0  0  0  0  0  0
   -9.7777   19.3429  -32.4273 H   0  0  0  0  0  0  0  0  0  0  0  0
   -8.1170   20.0276  -32.4273 H   0  0  0  0  0  0  0  0  0  0  0  0
  -10.2183   21.5816  -32.9034 H   0  0  0  0  0  0  0  0  0  0  0  0
  -10.3411   21.5589  -31.0874 H   0  0  0  0  0  0  0  0  0  0  0  0
   -7.7918   22.3069  -32.5682 H   0  0  0  0  0  0  0  0  0  0  0  0
   -9.0705   23.5040  -32.0781 H   0  0  0  0  0  0  0  0  0  0  0  0
   -8.7282   23.0792  -29.7650 H   0  0  0  0  0  0  0  0  0  0  0  0
   -7.7223   21.6204  -30.1080 H   0  0  0  0  0  0  0  0  0  0  0  0
   -4.5654   23.5170  -32.4240 H   0  0  0  0  0  0  0  0  0  0  0  0
   -2.8282   22.9608  -32.3651 H   0  0  0  0  0  0  0  0  0  0  0  0
   -6.3513   21.7337  -31.7153 H   0  0  0  0  0  0  0  0  0  0  0  0
   -7.0612   19.3792  -32.2478 H   0  0  0  0  0  0  0  0  0  0  0  0
   -6.0881   16.8680  -33.1977 H   0  0  0  0  0  0  0  0  0  0  0  0
   -1.6380   16.1430  -35.0120 H   0  0  0  0  0  0  0  0  0  0  0  0
   -0.3833   20.3631  -31.9232 H   0  0  0  0  0  0  0  0  0  0  0  0
    0.2206   18.7375  -32.3914 H   0  0  0  0  0  0  0  0  0  0  0  0
    1.3371   20.1447  -32.3914 H   0  0  0  0  0  0  0  0  0  0  0  0
    2.0808   19.8189  -34.2815 H   0  0  0  0  0  0  0  0  0  0  0  0
    1.0863   19.0458  -35.5620 H   0  0  0  0  0  0  0  0  0  0  0  0
    1.3244   20.8262  -35.5620 H   0  0  0  0  0  0  0  0  0  0  0  0
   -0.7401   21.9893  -33.2156 H   0  0  0  0  0  0  0  0  0  0  0  0
    0.1583   22.1460  -34.7632 H   0  0  0  0  0  0  0  0  0  0  0  0
   -1.5307   21.5346  -34.7632 H   0  0  0  0  0  0  0  0  0  0  0  0
   -2.2634   20.7620  -32.8728 H   0  0  0  0  0  0  0  0  0  0  0  0
   -1.1454   22.6674  -31.2520 H   0  0  0  0  0  0  0  0  0  0  0  0
    0.5510   21.2066  -30.1763 H   0  0  0  0  0  0  0  0  0  0  0  0
   -2.3112   20.1127  -27.1177 H   0  0  0  0  0  0  0  0  0  0  0  0
   -4.0182   21.5571  -28.1972 H   0  0  0  0  0  0  0  0  0  0  0  0
  1  2  1  0
  2  3  1  0
  3  4  1  0
  4  5  1  0
  5  6  2  0
  5  7  2  0
  5  8  1  0
  9  8  1  1
  9 10  1  0
 10 11  1  0
 11 12  2  0
 12 13  1  0
 13 14  2  0
 14 15  1  0
 15 16  2  0
 16 17  1  0
 17 18  1  0
 17 19  2  0
 16 20  1  0
 20 21  1  0
 21 22  2  0
 21 23  1  0
 23 24  1  0
 24 25  1  0
 24 26  1  0
 24 27  1  0
 20 28  1  0
 28 29  2  0
  9 30  1  0
 30 31  2  0
 30 32  1  0
  9 33  1  0
 33 34  2  0
 34 35  1  0
 35 36  2  0
 36 37  1  0
 37 38  2  0
 37 39  1  0
 36 40  1  0
 40 41  2  0
 29 11  1  0
 41 33  1  0
 28 14  1  0
  1 42  1  0
  1 43  1  0
  1 44  1  0
  2 45  1  0
  2 46  1  0
  3 47  1  0
  3 48  1  0
  4 49  1  0
  4 50  1  0
 10 51  1  0
 10 52  1  0
 12 53  1  0
 13 54  1  0
 15 55  1  0
 18 56  1  0
 25 57  1  0
 25 58  1  0
 25 59  1  0
 26 60  1  0
 26 61  1  0
 26 62  1  0
 27 63  1  0
 27 64  1  0
 27 65  1  0
 29 66  1  0
 34 67  1  0
 35 68  1  0
 40 69  1  0
 41 70  1  0
M  CHG  4   8  -1  18  -1  32  -1  39  -1
M  END
>  <UniqueID>  (56) 
56

>  <SMILES>  (56) 
CCCCS(=O)(=O)[N-][C@@](Cc1ccc2cc(C([NH-])=O)n(C(=O)OC(C)(C)C)c2c1)(C(=O)[O-])c1ccc(C(=O)[O-])cc1

>  <Energy>  (56) 
105.424031989316

>  <Genealogy>  (56) 
CCCCS(=O)(=O)[N-]C(Cc1ccc2cc(C([NH-])=O)n(C(=O)OC(C)(C)C)c2c1)(C(=O)[O-])c1ccc(C(=O)[O-])cc1 (protonated)
CCCCS(=O)(=O)[N-][C@@](Cc1ccc2cc(C([NH-])=O)n(C(=O)OC(C)(C)C)c2c1)(C(=O)[O-])c1ccc(C(=O)[O-])cc1 (chirality)
CCCCS(=O)(=O)[N-][C@@](Cc1ccc2cc(C([NH-])=O)n(C(=O)OC(C)(C)C)c2c1)(C(=O)[O-])c1ccc(C(=O)[O-])cc1 (3D coordinates assigned)
CCCCS(=O)(=O)[N-][C@@](Cc1ccc2cc(C([NH-])=O)n(C(=O)OC(C)(C)C)c2c1)(C(=O)[O-])c1ccc(C(=O)[O-])cc1 (optimized conformer: 105.424031989316 kcal/mol)

>  <smiles>  (56) 
CCCCS(=O)(=O)NC(Cc1ccc2cc(C(N)=O)n(C(=O)OC(C)(C)C)c2c1)(C(=O)O)c1ccc(C(=O)O)cc1

>  <score_type>  (56) 
oracle

>  <origin>  (56) 
adg

>  <m_score__min__energy>  (56) 
-12.02

>  <m_primary>  (56) 
energy

$$$$
58:0
     RDKit          3D

 35 37  0  0  0  0  0  0  0  0999 V2000
   -3.3560   24.3540  -30.6080 N   0  0  0  0  0  0  0  0  0  0  0  0
   -4.0220   23.2120  -31.1390 C   0  0  0  0  0  0  0  0  0  0  0  0
   -3.3440   22.2430  -31.5720 O   0  0  0  0  0  0  0  0  0  0  0  0
   -5.4590   23.1620  -31.1790 N   0  0  0  0  0  0  0  0  0  0  0  0
   -6.3330   24.1460  -30.8260 C   0  0  0  0  0  0  0  0  0  0  0  0
   -5.9670   25.4310  -30.1870 C   0  0  0  0  0  0  0  0  0  0  0  0
   -6.2630   25.6730  -28.8100 N   0  0  0  0  0  0  0  0  0  0  0  0
   -5.3630   26.3170  -30.8470 O   0  0  0  0  0  0  0  0  0  0  0  0
   -7.6460   23.7430  -31.0650 C   0  0  0  0  0  0  0  0  0  0  0  0
   -7.5470   22.4720  -31.5820 C   0  0  0  0  0  0  0  0  0  0  0  0
   -8.5450   21.6010  -32.0080 C   0  0  0  0  0  0  0  0  0  0  0  0
   -8.1560   20.3550  -32.5260 C   0  0  0  0  0  0  0  0  0  0  0  0
   -6.7840   20.0030  -32.6200 C   0  0  0  0  0  0  0  0  0  0  0  0
   -6.3840   18.6890  -33.1850 C   0  0  0  0  0  0  0  0  0  0  0  0
   -7.1560   17.5400  -32.9330 C   0  0  0  0  0  0  0  0  0  0  0  0
   -6.7790   16.3040  -33.4630 C   0  0  0  0  0  0  0  0  0  0  0  0
   -5.6300   16.1980  -34.2500 C   0  0  0  0  0  0  0  0  0  0  0  0
   -4.8490   17.3320  -34.5120 C   0  0  0  0  0  0  0  0  0  0  0  0
   -3.6760   17.2240  -35.3210 N   0  0  0  0  0  0  0  0  0  0  0  0
   -5.2280   18.5740  -33.9800 C   0  0  0  0  0  0  0  0  0  0  0  0
   -5.8000   20.9180  -32.1750 C   0  0  0  0  0  0  0  0  0  0  0  0
   -6.2170   22.1440  -31.6430 C   0  0  0  0  0  0  0  0  0  0  0  0
   -3.4580   25.2920  -31.0560 H   0  0  0  0  0  0  0  0  0  0  0  0
   -5.9660   26.5670  -28.3600 H   0  0  0  0  0  0  0  0  0  0  0  0
   -6.8140   24.9890  -28.2440 H   0  0  0  0  0  0  0  0  0  0  0  0
   -8.5650   24.3185  -30.8797 H   0  0  0  0  0  0  0  0  0  0  0  0
   -9.6069   21.8801  -31.9410 H   0  0  0  0  0  0  0  0  0  0  0  0
   -8.9238   19.6431  -32.8630 H   0  0  0  0  0  0  0  0  0  0  0  0
   -8.0625   17.6157  -32.3145 H   0  0  0  0  0  0  0  0  0  0  0  0
   -7.3888   15.4113  -33.2600 H   0  0  0  0  0  0  0  0  0  0  0  0
   -5.3373   15.2223  -34.6652 H   0  0  0  0  0  0  0  0  0  0  0  0
   -2.7260   17.3550  -34.9060 H   0  0  0  0  0  0  0  0  0  0  0  0
   -3.7470   17.0130  -36.3420 H   0  0  0  0  0  0  0  0  0  0  0  0
   -4.6167   19.4650  -34.1859 H   0  0  0  0  0  0  0  0  0  0  0  0
   -4.7304   20.6710  -32.2457 H   0  0  0  0  0  0  0  0  0  0  0  0
  1  2  1  0
  2  3  2  0
  2  4  1  0
  4  5  1  0
  5  6  1  0
  6  7  1  0
  6  8  2  0
  5  9  2  0
  9 10  1  0
 10 11  2  0
 11 12  1  0
 12 13  2  0
 13 14  1  0
 14 15  2  0
 15 16  1  0
 16 17  2  0
 17 18  1  0
 18 19  1  0
 18 20  2  0
 13 21  1  0
 21 22  2  0
 22  4  1  0
 22 10  1  0
 20 14  1  0
  1 23  1  0
  7 24  1  0
  7 25  1  0
  9 26  1  0
 11 27  1  0
 12 28  1  0
 15 29  1  0
 16 30  1  0
 17 31  1  0
 19 32  1  0
 19 33  1  0
 20 34  1  0
 21 35  1  0
M  CHG  1   1  -1
M  END
>  <UniqueID>  (57) 
57

>  <SMILES>  (57) 
[NH-]C(=O)n1c(C(N)=O)cc2ccc(-c3cccc(N)c3)cc21

>  <Energy>  (57) 
80.76668425934601

>  <Genealogy>  (57) 
[NH-]C(=O)n1c(C(N)=O)cc2ccc(-c3cccc(N)c3)cc21 (protonated)
[NH-]C(=O)n1c(C(N)=O)cc2ccc(-c3cccc(N)c3)cc21 (3D coordinates assigned)
[NH-]C(=O)n1c(C(N)=O)cc2ccc(-c3cccc(N)c3)cc21 (optimized conformer: 80.76668425934601 kcal/mol)

>  <smiles>  (57) 
NC(=O)c1cc2ccc(-c3cccc(N)c3)cc2n1C(N)=O

>  <score_type>  (57) 
oracle

>  <origin>  (57) 
adg

>  <m_score__min__energy>  (57) 
-9.7200000000000006

>  <m_primary>  (57) 
energy

$$$$
59:0
     RDKit          3D

 25 26  0  0  0  0  0  0  0  0999 V2000
   -2.0090   25.5440  -28.9820 N   0  0  0  0  0  0  0  0  0  0  0  0
   -1.2900   24.3560  -29.3000 C   0  0  0  0  0  0  0  0  0  0  0  0
   -0.0800   24.2590  -28.9640 O   0  0  0  0  0  0  0  0  0  0  0  0
   -1.9270   23.2610  -30.0630 C   0  0  0  0  0  0  0  0  0  0  0  0
   -1.2370   22.1350  -30.5070 C   0  0  0  0  0  0  0  0  0  0  0  0
   -2.1530   21.4090  -31.2350 C   0  0  0  0  0  0  0  0  0  0  0  0
   -2.0060   20.1990  -31.9050 C   0  0  0  0  0  0  0  0  0  0  0  0
   -3.1290   19.6660  -32.5570 C   0  0  0  0  0  0  0  0  0  0  0  0
   -4.3810   20.3320  -32.5070 C   0  0  0  0  0  0  0  0  0  0  0  0
   -5.5710   19.7670  -33.2410 C   0  0  0  0  0  0  0  0  0  0  0  0
   -5.1520   19.2400  -34.4480 F   0  0  0  0  0  0  0  0  0  0  0  0
   -6.1760   18.7670  -32.4980 F   0  0  0  0  0  0  0  0  0  0  0  0
   -6.5100   20.7550  -33.4820 F   0  0  0  0  0  0  0  0  0  0  0  0
   -4.4830   21.5730  -31.8350 C   0  0  0  0  0  0  0  0  0  0  0  0
   -3.3420   22.0910  -31.2110 C   0  0  0  0  0  0  0  0  0  0  0  0
   -3.2210   23.2300  -30.4940 N   0  0  0  0  0  0  0  0  0  0  0  0
   -4.2730   24.1580  -30.1850 C   0  0  0  0  0  0  0  0  0  0  0  0
   -4.2190   25.4950  -30.6760 N   0  0  0  0  0  0  0  0  0  0  0  0
   -5.2570   23.7890  -29.4880 O   0  0  0  0  0  0  0  0  0  0  0  0
   -3.0000   25.6700  -29.2860 H   0  0  0  0  0  0  0  0  0  0  0  0
   -0.1840   21.8801  -30.3165 H   0  0  0  0  0  0  0  0  0  0  0  0
   -1.0387   19.6755  -31.9234 H   0  0  0  0  0  0  0  0  0  0  0  0
   -3.0375   18.7213  -33.1130 H   0  0  0  0  0  0  0  0  0  0  0  0
   -5.4376   22.1186  -31.8036 H   0  0  0  0  0  0  0  0  0  0  0  0
   -3.9000   26.2770  -30.0630 H   0  0  0  0  0  0  0  0  0  0  0  0
  1  2  1  0
  2  3  2  0
  2  4  1  0
  4  5  2  0
  5  6  1  0
  6  7  2  0
  7  8  1  0
  8  9  2  0
  9 10  1  0
 10 11  1  0
 10 12  1  0
 10 13  1  0
  9 14  1  0
 14 15  2  0
 15 16  1  0
 16 17  1  0
 17 18  1  0
 17 19  2  0
 16  4  1  0
 15  6  1  0
  1 20  1  0
  5 21  1  0
  7 22  1  0
  8 23  1  0
 14 24  1  0
 18 25  1  0
M  CHG  2   1  -1  18  -1
M  END
>  <UniqueID>  (58) 
58

>  <SMILES>  (58) 
[NH-]C(=O)c1cc2ccc(C(F)(F)F)cc2n1C([NH-])=O

>  <Energy>  (58) 
65.66266129242497

>  <Genealogy>  (58) 
[NH-]C(=O)c1cc2ccc(C(F)(F)F)cc2n1C([NH-])=O (protonated)
[NH-]C(=O)c1cc2ccc(C(F)(F)F)cc2n1C([NH-])=O (3D coordinates assigned)
[NH-]C(=O)c1cc2ccc(C(F)(F)F)cc2n1C([NH-])=O (optimized conformer: 65.66266129242497 kcal/mol)

>  <smiles>  (58) 
NC(=O)c1cc2ccc(C(F)(F)F)cc2n1C(N)=O

>  <score_type>  (58) 
oracle

>  <origin>  (58) 
adg

>  <m_score__min__energy>  (58) 
-9.2799999999999994

>  <m_primary>  (58) 
energy

$$$$
60:0
     RDKit          3D

 32 33  0  0  0  0  0  0  0  0999 V2000
   -6.6530   18.1920  -32.7970 C   0  0  0  0  0  0  0  0  0  0  0  0
   -7.9960   18.9290  -32.7270 C   0  0  0  0  0  0  0  0  0  0  0  0
   -9.0390   18.1060  -31.9620 C   0  0  0  0  0  0  0  0  0  0  0  0
   -7.8320   20.3080  -32.1160 C   0  0  0  0  0  0  0  0  0  0  0  0
   -8.9250   20.9620  -31.4870 C   0  0  0  0  0  0  0  0  0  0  0  0
   -8.7700   22.2340  -30.9130 C   0  0  0  0  0  0  0  0  0  0  0  0
   -7.5160   22.8330  -30.9850 C   0  0  0  0  0  0  0  0  0  0  0  0
   -7.0840   24.0460  -30.4990 C   0  0  0  0  0  0  0  0  0  0  0  0
   -5.7380   24.1280  -30.8520 C   0  0  0  0  0  0  0  0  0  0  0  0
   -4.9010   25.3180  -30.6010 C   0  0  0  0  0  0  0  0  0  0  0  0
   -3.4890   25.2020  -30.4440 N   0  0  0  0  0  0  0  0  0  0  0  0
   -5.4330   26.4600  -30.5680 O   0  0  0  0  0  0  0  0  0  0  0  0
   -5.3530   23.0050  -31.5220 N   0  0  0  0  0  0  0  0  0  0  0  0
   -4.0370   22.6610  -31.9830 C   0  0  0  0  0  0  0  0  0  0  0  0
   -3.8240   22.2790  -33.3420 N   0  0  0  0  0  0  0  0  0  0  0  0
   -3.0570   22.7300  -31.1950 O   0  0  0  0  0  0  0  0  0  0  0  0
   -6.4530   22.2260  -31.6000 C   0  0  0  0  0  0  0  0  0  0  0  0
   -6.5740   20.9520  -32.1670 C   0  0  0  0  0  0  0  0  0  0  0  0
   -6.2904   17.9930  -31.7777 H   0  0  0  0  0  0  0  0  0  0  0  0
   -6.7847   17.2398  -33.3317 H   0  0  0  0  0  0  0  0  0  0  0  0
   -5.9205   18.8145  -33.3317 H   0  0  0  0  0  0  0  0  0  0  0  0
   -8.3610   19.0595  -33.7564 H   0  0  0  0  0  0  0  0  0  0  0  0
   -8.8822   18.2297  -30.8803 H   0  0  0  0  0  0  0  0  0  0  0  0
  -10.0479   18.4540  -32.2284 H   0  0  0  0  0  0  0  0  0  0  0  0
   -8.9352   17.0438  -32.2284 H   0  0  0  0  0  0  0  0  0  0  0  0
   -9.9058   20.4653  -31.4491 H   0  0  0  0  0  0  0  0  0  0  0  0
   -9.6135   22.7412  -30.4217 H   0  0  0  0  0  0  0  0  0  0  0  0
   -7.6755   24.7925  -29.9487 H   0  0  0  0  0  0  0  0  0  0  0  0
   -2.8860   24.8770  -31.2310 H   0  0  0  0  0  0  0  0  0  0  0  0
   -2.8690   22.0170  -33.6730 H   0  0  0  0  0  0  0  0  0  0  0  0
   -4.6120   22.2910  -34.0260 H   0  0  0  0  0  0  0  0  0  0  0  0
   -5.7104   20.4630  -32.6414 H   0  0  0  0  0  0  0  0  0  0  0  0
  1  2  1  0
  2  3  1  0
  2  4  1  0
  4  5  2  0
  5  6  1  0
  6  7  2  0
  7  8  1  0
  8  9  2  0
  9 10  1  0
 10 11  1  0
 10 12  2  0
  9 13  1  0
 13 14  1  0
 14 15  1  0
 14 16  2  0
 13 17  1  0
 17 18  2  0
 18  4  1  0
 17  7  1  0
  1 19  1  0
  1 20  1  0
  1 21  1  0
  2 22  1  0
  3 23  1  0
  3 24  1  0
  3 25  1  0
  5 26  1  0
  6 27  1  0
  8 28  1  0
 11 29  1  0
 15 30  1  0
 15 31  1  0
 18 32  1  0
M  CHG  1  11  -1
M  END
>  <UniqueID>  (59) 
59

>  <SMILES>  (59) 
CC(C)c1ccc2cc(C([NH-])=O)n(C(N)=O)c2c1

>  <Energy>  (59) 
67.20341668062275

>  <Genealogy>  (59) 
CC(C)c1ccc2cc(C([NH-])=O)n(C(N)=O)c2c1 (protonated)
CC(C)c1ccc2cc(C([NH-])=O)n(C(N)=O)c2c1 (3D coordinates assigned)
CC(C)c1ccc2cc(C([NH-])=O)n(C(N)=O)c2c1 (optimized conformer: 67.20341668062275 kcal/mol)

>  <smiles>  (59) 
CC(C)c1ccc2cc(C(N)=O)n(C(N)=O)c2c1

>  <score_type>  (59) 
oracle

>  <origin>  (59) 
adg

>  <m_score__min__energy>  (59) 
-10.779999999999999

>  <m_primary>  (59) 
energy

$$$$
61:0
     RDKit          3D

 28 29  0  0  0  0  0  0  0  0999 V2000
   -5.7650   18.7620  -34.2760 C   0  0  0  0  0  0  0  0  0  0  0  0
   -6.0540   20.0760  -33.8140 O   0  0  0  0  0  0  0  0  0  0  0  0
   -5.5560   20.5780  -32.6070 C   0  0  0  0  0  0  0  0  0  0  0  0
   -4.3710   20.3250  -32.2560 O   0  0  0  0  0  0  0  0  0  0  0  0
   -6.3990   21.3850  -31.7680 N   0  0  0  0  0  0  0  0  0  0  0  0
   -7.7100   21.1680  -31.4650 C   0  0  0  0  0  0  0  0  0  0  0  0
   -8.4870   19.9570  -31.8000 C   0  0  0  0  0  0  0  0  0  0  0  0
   -8.7000   19.5680  -33.1570 N   0  0  0  0  0  0  0  0  0  0  0  0
   -8.9210   19.2240  -30.8720 O   0  0  0  0  0  0  0  0  0  0  0  0
   -8.2310   22.2330  -30.7350 C   0  0  0  0  0  0  0  0  0  0  0  0
   -7.1870   23.1160  -30.5860 C   0  0  0  0  0  0  0  0  0  0  0  0
   -7.1470   24.3550  -29.9540 C   0  0  0  0  0  0  0  0  0  0  0  0
   -5.9400   25.0730  -29.9860 C   0  0  0  0  0  0  0  0  0  0  0  0
   -4.8080   24.5470  -30.6510 C   0  0  0  0  0  0  0  0  0  0  0  0
   -3.5900   25.2940  -30.6880 N   0  0  0  0  0  0  0  0  0  0  0  0
   -4.8820   23.2880  -31.2840 C   0  0  0  0  0  0  0  0  0  0  0  0
   -6.0910   22.5830  -31.2200 C   0  0  0  0  0  0  0  0  0  0  0  0
   -5.6182   18.0943  -33.4142 H   0  0  0  0  0  0  0  0  0  0  0  0
   -6.6039   18.3949  -34.8855 H   0  0  0  0  0  0  0  0  0  0  0  0
   -4.8495   18.7807  -34.8855 H   0  0  0  0  0  0  0  0  0  0  0  0
   -8.2160   20.0580  -33.9420 H   0  0  0  0  0  0  0  0  0  0  0  0
   -9.2840   18.7310  -33.3760 H   0  0  0  0  0  0  0  0  0  0  0  0
   -9.2583   22.3444  -30.3579 H   0  0  0  0  0  0  0  0  0  0  0  0
   -8.0338   24.7601  -29.4446 H   0  0  0  0  0  0  0  0  0  0  0  0
   -5.8747   26.0525  -29.4897 H   0  0  0  0  0  0  0  0  0  0  0  0
   -3.1400   25.6290  -29.8060 H   0  0  0  0  0  0  0  0  0  0  0  0
   -3.1260   25.5170  -31.5970 H   0  0  0  0  0  0  0  0  0  0  0  0
   -4.0130   22.8709  -31.8139 H   0  0  0  0  0  0  0  0  0  0  0  0
  1  2  1  0
  2  3  1  0
  3  4  2  0
  3  5  1  0
  5  6  1  0
  6  7  1  0
  7  8  1  0
  7  9  2  0
  6 10  2  0
 10 11  1  0
 11 12  2  0
 12 13  1  0
 13 14  2  0
 14 15  1  0
 14 16  1  0
 16 17  2  0
 17  5  1  0
 17 11  1  0
  1 18  1  0
  1 19  1  0
  1 20  1  0
  8 21  1  0
  8 22  1  0
 10 23  1  0
 12 24  1  0
 13 25  1  0
 15 26  1  0
 15 27  1  0
 16 28  1  0
M  END
>  <UniqueID>  (60) 
60

>  <SMILES>  (60) 
COC(=O)n1c(C(N)=O)cc2ccc(N)cc21

>  <Energy>  (60) 
64.82519960523486

>  <Genealogy>  (60) 
COC(=O)n1c(C(N)=O)cc2ccc(N)cc21 (3D coordinates assigned)
COC(=O)n1c(C(N)=O)cc2ccc(N)cc21 (optimized conformer: 64.82519960523486 kcal/mol)

>  <smiles>  (60) 
COC(=O)n1c(C(N)=O)cc2ccc(N)cc21

>  <score_type>  (60) 
oracle

>  <origin>  (60) 
adg

>  <m_score__min__energy>  (60) 
-7.1699999999999999

>  <m_primary>  (60) 
energy

$$$$
62:0
     RDKit          3D

 25 26  0  0  0  0  0  0  0  0999 V2000
   -6.8350   18.6060  -33.2440 C   0  0  0  0  0  0  0  0  0  0  0  0
   -6.9870   19.9540  -32.6060 C   0  0  0  0  0  0  0  0  0  0  0  0
   -8.2790   20.4670  -32.3310 C   0  0  0  0  0  0  0  0  0  0  0  0
   -8.4350   21.7400  -31.7570 C   0  0  0  0  0  0  0  0  0  0  0  0
   -7.2870   22.4810  -31.4900 C   0  0  0  0  0  0  0  0  0  0  0  0
   -7.1500   23.7270  -30.9230 C   0  0  0  0  0  0  0  0  0  0  0  0
   -5.7780   23.9710  -30.8960 C   0  0  0  0  0  0  0  0  0  0  0  0
   -5.1900   25.2490  -30.4440 C   0  0  0  0  0  0  0  0  0  0  0  0
   -3.8780   25.6330  -30.8430 N   0  0  0  0  0  0  0  0  0  0  0  0
   -5.8760   26.0370  -29.7390 O   0  0  0  0  0  0  0  0  0  0  0  0
   -5.0940   22.9140  -31.4180 N   0  0  0  0  0  0  0  0  0  0  0  0
   -3.6710   22.7330  -31.4840 C   0  0  0  0  0  0  0  0  0  0  0  0
   -2.8420   23.1440  -30.3980 N   0  0  0  0  0  0  0  0  0  0  0  0
   -3.1490   22.1810  -32.4900 O   0  0  0  0  0  0  0  0  0  0  0  0
   -6.0320   22.0110  -31.7800 C   0  0  0  0  0  0  0  0  0  0  0  0
   -5.8460   20.7410  -32.3350 C   0  0  0  0  0  0  0  0  0  0  0  0
   -6.7484   17.8377  -32.4616 H   0  0  0  0  0  0  0  0  0  0  0  0
   -7.7150   18.3949  -33.8693 H   0  0  0  0  0  0  0  0  0  0  0  0
   -5.9301   18.5962  -33.8693 H   0  0  0  0  0  0  0  0  0  0  0  0
   -9.1674   19.8635  -32.5689 H   0  0  0  0  0  0  0  0  0  0  0  0
   -9.4337   22.1389  -31.5257 H   0  0  0  0  0  0  0  0  0  0  0  0
   -7.9525   24.3897  -30.5668 H   0  0  0  0  0  0  0  0  0  0  0  0
   -3.0380   25.2920  -30.3240 H   0  0  0  0  0  0  0  0  0  0  0  0
   -2.4270   24.1010  -30.3730 H   0  0  0  0  0  0  0  0  0  0  0  0
   -4.8362   20.3643  -32.5550 H   0  0  0  0  0  0  0  0  0  0  0  0
  1  2  1  0
  2  3  2  0
  3  4  1  0
  4  5  2  0
  5  6  1  0
  6  7  2  0
  7  8  1  0
  8  9  1  0
  8 10  2  0
  7 11  1  0
 11 12  1  0
 12 13  1  0
 12 14  2  0
 11 15  1  0
 15 16  2  0
 16  2  1  0
 15  5  1  0
  1 17  1  0
  1 18  1  0
  1 19  1  0
  3 20  1  0
  4 21  1  0
  6 22  1  0
  9 23  1  0
 13 24  1  0
 16 25  1  0
M  CHG  2   9  -1  13  -1
M  END
>  <UniqueID>  (61) 
61

>  <SMILES>  (61) 
Cc1ccc2cc(C([NH-])=O)n(C([NH-])=O)c2c1

>  <Energy>  (61) 
64.29056216914441

>  <Genealogy>  (61) 
Cc1ccc2cc(C([NH-])=O)n(C([NH-])=O)c2c1 (protonated)
Cc1ccc2cc(C([NH-])=O)n(C([NH-])=O)c2c1 (3D coordinates assigned)
Cc1ccc2cc(C([NH-])=O)n(C([NH-])=O)c2c1 (optimized conformer: 64.29056216914441 kcal/mol)

>  <smiles>  (61) 
Cc1ccc2cc(C(N)=O)n(C(N)=O)c2c1

>  <score_type>  (61) 
oracle

>  <origin>  (61) 
adg

>  <m_score__min__energy>  (61) 
-9.3599999999999994

>  <m_primary>  (61) 
energy

$$$$
63:0
     RDKit          3D

 48 51  0  0  0  0  0  0  0  0999 V2000
   -6.1040   25.6990  -29.1230 N   0  0  0  0  0  0  0  0  0  0  0  0
   -5.4900   25.1150  -30.2740 C   0  0  0  0  0  0  0  0  0  0  0  0
   -4.4930   25.6810  -30.8000 O   0  0  0  0  0  0  0  0  0  0  0  0
   -5.9660   23.8290  -30.8220 C   0  0  0  0  0  0  0  0  0  0  0  0
   -7.3120   23.4900  -30.9130 C   0  0  0  0  0  0  0  0  0  0  0  0
   -7.3330   22.2530  -31.5140 C   0  0  0  0  0  0  0  0  0  0  0  0
   -8.4130   21.4410  -31.8390 C   0  0  0  0  0  0  0  0  0  0  0  0
   -8.1490   20.1940  -32.4280 C   0  0  0  0  0  0  0  0  0  0  0  0
   -6.8150   19.7690  -32.6740 C   0  0  0  0  0  0  0  0  0  0  0  0
   -6.5540   18.4830  -33.2840 N   0  0  0  0  0  0  0  0  0  0  0  0
   -5.6560   18.2870  -34.4130 C   0  0  0  0  0  0  0  0  0  0  0  0
   -5.5230   16.7800  -34.5830 C   0  0  0  0  0  0  0  0  0  0  0  0
   -6.7110   16.1800  -33.8410 C   0  0  0  0  0  0  0  0  0  0  0  0
   -7.1380   17.2310  -32.8280 C   0  0  0  0  0  0  0  0  0  0  0  0
   -5.7430   20.6270  -32.3170 C   0  0  0  0  0  0  0  0  0  0  0  0
   -6.0360   21.8770  -31.7550 C   0  0  0  0  0  0  0  0  0  0  0  0
   -5.1790   22.8380  -31.3310 N   0  0  0  0  0  0  0  0  0  0  0  0
   -3.7420   22.7730  -31.3040 C   0  0  0  0  0  0  0  0  0  0  0  0
   -3.1150   22.1690  -32.2120 O   0  0  0  0  0  0  0  0  0  0  0  0
   -3.0390   23.3970  -30.2700 O   0  0  0  0  0  0  0  0  0  0  0  0
   -3.2670   23.1190  -28.8930 C   0  0  0  0  0  0  0  0  0  0  0  0
   -2.5720   24.1600  -28.0670 C   0  0  0  0  0  0  0  0  0  0  0  0
   -1.4640   24.8470  -28.5910 C   0  0  0  0  0  0  0  0  0  0  0  0
   -0.8380   25.8490  -27.8420 C   0  0  0  0  0  0  0  0  0  0  0  0
   -1.3250   26.1840  -26.5750 C   0  0  0  0  0  0  0  0  0  0  0  0
   -2.4380   25.5170  -26.0540 C   0  0  0  0  0  0  0  0  0  0  0  0
   -3.0660   24.5120  -26.7990 C   0  0  0  0  0  0  0  0  0  0  0  0
   -5.7650   26.6150  -28.7530 H   0  0  0  0  0  0  0  0  0  0  0  0
   -6.8320   25.1870  -28.5870 H   0  0  0  0  0  0  0  0  0  0  0  0
   -8.1746   24.0839  -30.5765 H   0  0  0  0  0  0  0  0  0  0  0  0
   -9.4450   21.7659  -31.6405 H   0  0  0  0  0  0  0  0  0  0  0  0
   -8.9867   19.5363  -32.7031 H   0  0  0  0  0  0  0  0  0  0  0  0
   -6.0798   18.7387  -35.3220 H   0  0  0  0  0  0  0  0  0  0  0  0
   -4.6791   18.7618  -34.2394 H   0  0  0  0  0  0  0  0  0  0  0  0
   -5.5584   16.5087  -35.6484 H   0  0  0  0  0  0  0  0  0  0  0  0
   -4.5657   16.4079  -34.1891 H   0  0  0  0  0  0  0  0  0  0  0  0
   -7.5321   15.9664  -34.5411 H   0  0  0  0  0  0  0  0  0  0  0  0
   -6.4469   15.2301  -33.3532 H   0  0  0  0  0  0  0  0  0  0  0  0
   -8.2348   17.3092  -32.7966 H   0  0  0  0  0  0  0  0  0  0  0  0
   -6.8018   16.9741  -31.8126 H   0  0  0  0  0  0  0  0  0  0  0  0
   -4.7001   20.3166  -32.4785 H   0  0  0  0  0  0  0  0  0  0  0  0
   -4.3469   23.1428  -28.6851 H   0  0  0  0  0  0  0  0  0  0  0  0
   -2.8751   22.1219  -28.6437 H   0  0  0  0  0  0  0  0  0  0  0  0
   -1.0875   24.5961  -29.5936 H   0  0  0  0  0  0  0  0  0  0  0  0
    0.0383   26.3739  -28.2503 H   0  0  0  0  0  0  0  0  0  0  0  0
   -0.8323   26.9728  -25.9876 H   0  0  0  0  0  0  0  0  0  0  0  0
   -2.8206   25.7824  -25.0574 H   0  0  0  0  0  0  0  0  0  0  0  0
   -3.9481   23.9966  -26.3912 H   0  0  0  0  0  0  0  0  0  0  0  0
  1  2  1  0
  2  3  2  0
  2  4  1  0
  4  5  2  0
  5  6  1  0
  6  7  2  0
  7  8  1  0
  8  9  2  0
  9 10  1  0
 10 11  1  0
 11 12  1  0
 12 13  1  0
 13 14  1  0
  9 15  1  0
 15 16  2  0
 16 17  1  0
 17 18  1  0
 18 19  2  0
 18 20  1  0
 20 21  1  0
 21 22  1  0
 22 23  2  0
 23 24  1  0
 24 25  2  0
 25 26  1  0
 26 27  2  0
 17  4  1  0
 27 22  1  0
 16  6  1  0
 14 10  1  0
  1 28  1  0
  1 29  1  0
  5 30  1  0
  7 31  1  0
  8 32  1  0
 11 33  1  0
 11 34  1  0
 12 35  1  0
 12 36  1  0
 13 37  1  0
 13 38  1  0
 14 39  1  0
 14 40  1  0
 15 41  1  0
 21 42  1  0
 21 43  1  0
 23 44  1  0
 24 45  1  0
 25 46  1  0
 26 47  1  0
 27 48  1  0
M  END
>  <UniqueID>  (62) 
62

>  <SMILES>  (62) 
NC(=O)c1cc2ccc(N3CCCC3)cc2n1C(=O)OCc1ccccc1

>  <Energy>  (62) 
89.45091023420936

>  <Genealogy>  (62) 
NC(=O)c1cc2ccc(N3CCCC3)cc2n1C(=O)OCc1ccccc1 (3D coordinates assigned)
NC(=O)c1cc2ccc(N3CCCC3)cc2n1C(=O)OCc1ccccc1 (nonaromatic ring conformer: 89.45091023420936 kcal/mol)

>  <smiles>  (62) 
NC(=O)c1cc2ccc(N3CCCC3)cc2n1C(=O)OCc1ccccc1

>  <score_type>  (62) 
oracle

>  <origin>  (62) 
adg

>  <m_score__min__energy>  (62) 
-10.390000000000001

>  <m_primary>  (62) 
energy

$$$$
64:0
     RDKit          3D

 30 31  0  0  0  0  0  0  0  0999 V2000
   -6.4000   18.1390  -33.5540 C   0  0  0  0  0  0  0  0  0  0  0  0
   -7.6450   18.4300  -32.7240 C   0  0  0  0  0  0  0  0  0  0  0  0
   -7.6570   19.8620  -32.2640 C   0  0  0  0  0  0  0  0  0  0  0  0
   -8.8880   20.5500  -32.1150 C   0  0  0  0  0  0  0  0  0  0  0  0
   -8.9110   21.9000  -31.7250 C   0  0  0  0  0  0  0  0  0  0  0  0
   -7.6930   22.5350  -31.4980 C   0  0  0  0  0  0  0  0  0  0  0  0
   -7.4230   23.8340  -31.1350 C   0  0  0  0  0  0  0  0  0  0  0  0
   -6.0320   23.9180  -31.0650 C   0  0  0  0  0  0  0  0  0  0  0  0
   -5.3090   25.1270  -30.6230 C   0  0  0  0  0  0  0  0  0  0  0  0
   -3.8990   25.2430  -30.8030 N   0  0  0  0  0  0  0  0  0  0  0  0
   -5.9340   26.0530  -30.0420 O   0  0  0  0  0  0  0  0  0  0  0  0
   -5.4680   22.7180  -31.3830 N   0  0  0  0  0  0  0  0  0  0  0  0
   -4.0740   22.3990  -31.5070 C   0  0  0  0  0  0  0  0  0  0  0  0
   -3.2070   22.2680  -30.2940 C   0  0  0  0  0  0  0  0  0  0  0  0
   -3.5540   22.2990  -32.6500 O   0  0  0  0  0  0  0  0  0  0  0  0
   -6.4960   21.8830  -31.6380 C   0  0  0  0  0  0  0  0  0  0  0  0
   -6.4410   20.5430  -32.0370 C   0  0  0  0  0  0  0  0  0  0  0  0
   -5.5507   17.9405  -32.8838 H   0  0  0  0  0  0  0  0  0  0  0  0
   -6.5799   17.2587  -34.1886 H   0  0  0  0  0  0  0  0  0  0  0  0
   -6.1710   19.0078  -34.1886 H   0  0  0  0  0  0  0  0  0  0  0  0
   -8.5391   18.2402  -33.3361 H   0  0  0  0  0  0  0  0  0  0  0  0
   -7.6405   17.7755  -31.8399 H   0  0  0  0  0  0  0  0  0  0  0  0
   -9.8338   20.0220  -32.3065 H   0  0  0  0  0  0  0  0  0  0  0  0
   -9.8624   22.4385  -31.6028 H   0  0  0  0  0  0  0  0  0  0  0  0
   -8.1498   24.6366  -30.9410 H   0  0  0  0  0  0  0  0  0  0  0  0
   -3.4900   26.0480  -31.3280 H   0  0  0  0  0  0  0  0  0  0  0  0
   -3.8257   22.3615  -29.3893 H   0  0  0  0  0  0  0  0  0  0  0  0
   -2.7133   21.2851  -30.3006 H   0  0  0  0  0  0  0  0  0  0  0  0
   -2.4449   23.0612  -30.3006 H   0  0  0  0  0  0  0  0  0  0  0  0
   -5.4754   20.0332  -32.1704 H   0  0  0  0  0  0  0  0  0  0  0  0
  1  2  1  0
  2  3  1  0
  3  4  2  0
  4  5  1  0
  5  6  2  0
  6  7  1  0
  7  8  2  0
  8  9  1  0
  9 10  1  0
  9 11  2  0
  8 12  1  0
 12 13  1  0
 13 14  1  0
 13 15  2  0
 12 16  1  0
 16 17  2  0
 17  3  1  0
 16  6  1  0
  1 18  1  0
  1 19  1  0
  1 20  1  0
  2 21  1  0
  2 22  1  0
  4 23  1  0
  5 24  1  0
  7 25  1  0
 10 26  1  0
 14 27  1  0
 14 28  1  0
 14 29  1  0
 17 30  1  0
M  CHG  1  10  -1
M  END
>  <UniqueID>  (63) 
63

>  <SMILES>  (63) 
CCc1ccc2cc(C([NH-])=O)n(C(C)=O)c2c1

>  <Energy>  (63) 
65.92836465489562

>  <Genealogy>  (63) 
CCc1ccc2cc(C([NH-])=O)n(C(C)=O)c2c1 (protonated)
CCc1ccc2cc(C([NH-])=O)n(C(C)=O)c2c1 (3D coordinates assigned)
CCc1ccc2cc(C([NH-])=O)n(C(C)=O)c2c1 (optimized conformer: 65.92836465489562 kcal/mol)

>  <smiles>  (63) 
CCc1ccc2cc(C(N)=O)n(C(C)=O)c2c1

>  <score_type>  (63) 
oracle

>  <origin>  (63) 
adg

>  <m_score__min__energy>  (63) 
-9.9499999999999993

>  <m_primary>  (63) 
energy

$$$$
65:0
     RDKit          3D

 29 31  0  0  0  0  0  0  0  0999 V2000
   -3.7710   25.3000  -30.4890 N   0  0  0  0  0  0  0  0  0  0  0  0
   -5.1760   25.1220  -30.6520 C   0  0  0  0  0  0  0  0  0  0  0  0
   -5.9550   26.0720  -30.3750 O   0  0  0  0  0  0  0  0  0  0  0  0
   -5.7040   23.8170  -31.1020 C   0  0  0  0  0  0  0  0  0  0  0  0
   -7.0640   23.5160  -31.1540 C   0  0  0  0  0  0  0  0  0  0  0  0
   -7.1370   22.2590  -31.7100 C   0  0  0  0  0  0  0  0  0  0  0  0
   -8.2460   21.4670  -31.9860 C   0  0  0  0  0  0  0  0  0  0  0  0
   -8.0260   20.1950  -32.5400 C   0  0  0  0  0  0  0  0  0  0  0  0
   -6.7120   19.7330  -32.8010 C   0  0  0  0  0  0  0  0  0  0  0  0
   -6.5190   18.3810  -33.3760 C   0  0  0  0  0  0  0  0  0  0  0  0
   -5.6810   18.0300  -34.4240 C   0  0  0  0  0  0  0  0  0  0  0  0
   -5.8440   16.6710  -34.5950 C   0  0  0  0  0  0  0  0  0  0  0  0
   -6.7650   16.2740  -33.6510 C   0  0  0  0  0  0  0  0  0  0  0  0
   -7.1470   17.3110  -32.9420 O   0  0  0  0  0  0  0  0  0  0  0  0
   -5.6080   20.5700  -32.5050 C   0  0  0  0  0  0  0  0  0  0  0  0
   -5.8590   21.8390  -31.9690 C   0  0  0  0  0  0  0  0  0  0  0  0
   -4.9660   22.7830  -31.5980 N   0  0  0  0  0  0  0  0  0  0  0  0
   -3.5340   22.6690  -31.6550 C   0  0  0  0  0  0  0  0  0  0  0  0
   -2.7440   22.9510  -30.5020 N   0  0  0  0  0  0  0  0  0  0  0  0
   -2.9720   22.2910  -32.7160 O   0  0  0  0  0  0  0  0  0  0  0  0
   -3.1010   24.9850  -31.2250 H   0  0  0  0  0  0  0  0  0  0  0  0
   -7.9005   24.1482  -30.8216 H   0  0  0  0  0  0  0  0  0  0  0  0
   -9.2647   21.8256  -31.7769 H   0  0  0  0  0  0  0  0  0  0  0  0
   -8.8850   19.5491  -32.7743 H   0  0  0  0  0  0  0  0  0  0  0  0
   -5.0227   18.6973  -34.9996 H   0  0  0  0  0  0  0  0  0  0  0  0
   -5.3400   16.0330  -35.3359 H   0  0  0  0  0  0  0  0  0  0  0  0
   -7.1259   15.2442  -33.5121 H   0  0  0  0  0  0  0  0  0  0  0  0
   -4.5783   20.2311  -32.6918 H   0  0  0  0  0  0  0  0  0  0  0  0
   -2.4500   23.9270  -30.2790 H   0  0  0  0  0  0  0  0  0  0  0  0
  1  2  1  0
  2  3  2  0
  2  4  1  0
  4  5  2  0
  5  6  1  0
  6  7  2  0
  7  8  1  0
  8  9  2  0
  9 10  1  0
 10 11  2  0
 11 12  1  0
 12 13  2  0
 13 14  1  0
  9 15  1  0
 15 16  2  0
 16 17  1  0
 17 18  1  0
 18 19  1  0
 18 20  2  0
 17  4  1  0
 16  6  1  0
 14 10  1  0
  1 21  1  0
  5 22  1  0
  7 23  1  0
  8 24  1  0
 11 25  1  0
 12 26  1  0
 13 27  1  0
 15 28  1  0
 19 29  1  0
M  CHG  2   1  -1  19  -1
M  END
>  <UniqueID>  (64) 
64

>  <SMILES>  (64) 
[NH-]C(=O)c1cc2ccc(-c3ccco3)cc2n1C([NH-])=O

>  <Energy>  (64) 
97.72415368574734

>  <Genealogy>  (64) 
[NH-]C(=O)c1cc2ccc(-c3ccco3)cc2n1C([NH-])=O (protonated)
[NH-]C(=O)c1cc2ccc(-c3ccco3)cc2n1C([NH-])=O (3D coordinates assigned)
[NH-]C(=O)c1cc2ccc(-c3ccco3)cc2n1C([NH-])=O (optimized conformer: 97.72415368574734 kcal/mol)

>  <smiles>  (64) 
NC(=O)c1cc2ccc(-c3ccco3)cc2n1C(N)=O

>  <score_type>  (64) 
oracle

>  <origin>  (64) 
adg

>  <m_score__min__energy>  (64) 
-10.34

>  <m_primary>  (64) 
energy

$$$$
66:0
     RDKit          3D

 35 36  0  0  0  0  0  0  0  0999 V2000
   -6.9830   18.2010  -32.5540 C   0  0  0  0  0  0  0  0  0  0  0  0
   -7.1730   19.6290  -32.1390 C   0  0  0  0  0  0  0  0  0  0  0  0
   -8.4480   20.2370  -32.2540 C   0  0  0  0  0  0  0  0  0  0  0  0
   -8.6280   21.5890  -31.9190 C   0  0  0  0  0  0  0  0  0  0  0  0
   -7.5200   22.3050  -31.4760 C   0  0  0  0  0  0  0  0  0  0  0  0
   -7.4060   23.6310  -31.1270 C   0  0  0  0  0  0  0  0  0  0  0  0
   -6.0680   23.8090  -30.7890 C   0  0  0  0  0  0  0  0  0  0  0  0
   -5.5170   25.0870  -30.2950 C   0  0  0  0  0  0  0  0  0  0  0  0
   -4.2220   25.5380  -30.6950 N   0  0  0  0  0  0  0  0  0  0  0  0
   -6.1770   25.7650  -29.4640 O   0  0  0  0  0  0  0  0  0  0  0  0
   -5.3750   22.6450  -30.9360 N   0  0  0  0  0  0  0  0  0  0  0  0
   -3.9590   22.4440  -30.7980 C   0  0  0  0  0  0  0  0  0  0  0  0
   -3.1630   22.9990  -31.6040 O   0  0  0  0  0  0  0  0  0  0  0  0
   -3.4700   21.6330  -29.7670 O   0  0  0  0  0  0  0  0  0  0  0  0
   -3.5290   21.9870  -28.3860 C   0  0  0  0  0  0  0  0  0  0  0  0
   -3.2080   23.4740  -28.2090 C   0  0  0  0  0  0  0  0  0  0  0  0
   -2.5290   21.1290  -27.6140 C   0  0  0  0  0  0  0  0  0  0  0  0
   -6.2800   21.7310  -31.3550 C   0  0  0  0  0  0  0  0  0  0  0  0
   -6.0670   20.3920  -31.7040 C   0  0  0  0  0  0  0  0  0  0  0  0
   -6.8987   17.5672  -31.6589 H   0  0  0  0  0  0  0  0  0  0  0  0
   -7.8458   17.8756  -33.1538 H   0  0  0  0  0  0  0  0  0  0  0  0
   -6.0652   18.1125  -33.1538 H   0  0  0  0  0  0  0  0  0  0  0  0
   -9.3043   19.6447  -32.6088 H   0  0  0  0  0  0  0  0  0  0  0  0
   -9.6148   22.0674  -32.0042 H   0  0  0  0  0  0  0  0  0  0  0  0
   -8.2030   24.3891  -31.1173 H   0  0  0  0  0  0  0  0  0  0  0  0
   -3.8650   26.4630  -30.3670 H   0  0  0  0  0  0  0  0  0  0  0  0
   -3.5810   24.9230  -31.2430 H   0  0  0  0  0  0  0  0  0  0  0  0
   -4.5424   21.8069  -27.9980 H   0  0  0  0  0  0  0  0  0  0  0  0
   -3.1564   23.7128  -27.1365 H   0  0  0  0  0  0  0  0  0  0  0  0
   -2.2406   23.6991  -28.6817 H   0  0  0  0  0  0  0  0  0  0  0  0
   -3.9964   24.0781  -28.6817 H   0  0  0  0  0  0  0  0  0  0  0  0
   -2.6868   21.2644  -26.5338 H   0  0  0  0  0  0  0  0  0  0  0  0
   -2.6748   20.0707  -27.8761 H   0  0  0  0  0  0  0  0  0  0  0  0
   -1.5051   21.4339  -27.8761 H   0  0  0  0  0  0  0  0  0  0  0  0
   -5.0637   19.9455  -31.6410 H   0  0  0  0  0  0  0  0  0  0  0  0
  1  2  1  0
  2  3  2  0
  3  4  1  0
  4  5  2  0
  5  6  1  0
  6  7  2  0
  7  8  1  0
  8  9  1  0
  8 10  2  0
  7 11  1  0
 11 12  1  0
 12 13  2  0
 12 14  1  0
 14 15  1  0
 15 16  1  0
 15 17  1  0
 11 18  1  0
 18 19  2  0
 19  2  1  0
 18  5  1  0
  1 20  1  0
  1 21  1  0
  1 22  1  0
  3 23  1  0
  4 24  1  0
  6 25  1  0
  9 26  1  0
  9 27  1  0
 15 28  1  0
 16 29  1  0
 16 30  1  0
 16 31  1  0
 17 32  1  0
 17 33  1  0
 17 34  1  0
 19 35  1  0
M  END
>  <UniqueID>  (65) 
65

>  <SMILES>  (65) 
Cc1ccc2cc(C(N)=O)n(C(=O)OC(C)C)c2c1

>  <Energy>  (65) 
67.37894183349266

>  <Genealogy>  (65) 
Cc1ccc2cc(C(N)=O)n(C(=O)OC(C)C)c2c1 (3D coordinates assigned)
Cc1ccc2cc(C(N)=O)n(C(=O)OC(C)C)c2c1 (optimized conformer: 67.37894183349266 kcal/mol)

>  <smiles>  (65) 
Cc1ccc2cc(C(N)=O)n(C(=O)OC(C)C)c2c1

>  <score_type>  (65) 
oracle

>  <origin>  (65) 
adg

>  <m_score__min__energy>  (65) 
-8.0800000000000001

>  <m_primary>  (65) 
energy

$$$$
67:0
     RDKit          3D

 32 34  0  0  0  0  0  0  0  0999 V2000
   -1.8060   25.6830  -28.9710 N   0  0  0  0  0  0  0  0  0  0  0  0
   -0.9780   24.5250  -28.9180 C   0  0  0  0  0  0  0  0  0  0  0  0
    0.1090   24.5730  -28.2840 O   0  0  0  0  0  0  0  0  0  0  0  0
   -1.3490   23.2920  -29.6430 C   0  0  0  0  0  0  0  0  0  0  0  0
   -0.4470   22.2670  -29.9200 C   0  0  0  0  0  0  0  0  0  0  0  0
   -1.1480   21.3610  -30.6830 C   0  0  0  0  0  0  0  0  0  0  0  0
   -0.7430   20.1470  -31.2270 C   0  0  0  0  0  0  0  0  0  0  0  0
   -1.6890   19.4000  -31.9490 C   0  0  0  0  0  0  0  0  0  0  0  0
   -3.0170   19.8730  -32.1110 C   0  0  0  0  0  0  0  0  0  0  0  0
   -4.0140   19.0690  -32.8580 C   0  0  0  0  0  0  0  0  0  0  0  0
   -5.3290   18.9520  -32.3700 C   0  0  0  0  0  0  0  0  0  0  0  0
   -6.2750   18.1920  -33.0640 C   0  0  0  0  0  0  0  0  0  0  0  0
   -5.9230   17.5450  -34.2510 C   0  0  0  0  0  0  0  0  0  0  0  0
   -6.8430   16.8100  -34.9220 F   0  0  0  0  0  0  0  0  0  0  0  0
   -4.6220   17.6600  -34.7480 C   0  0  0  0  0  0  0  0  0  0  0  0
   -3.6680   18.4170  -34.0590 C   0  0  0  0  0  0  0  0  0  0  0  0
   -2.4240   18.5410  -34.5860 F   0  0  0  0  0  0  0  0  0  0  0  0
   -3.3900   21.1100  -31.5360 C   0  0  0  0  0  0  0  0  0  0  0  0
   -2.4220   21.8400  -30.8380 C   0  0  0  0  0  0  0  0  0  0  0  0
   -2.5630   23.0250  -30.2020 N   0  0  0  0  0  0  0  0  0  0  0  0
   -3.7790   23.7780  -30.0680 C   0  0  0  0  0  0  0  0  0  0  0  0
   -3.8960   25.0660  -30.6700 N   0  0  0  0  0  0  0  0  0  0  0  0
   -4.7380   23.3180  -29.3920 O   0  0  0  0  0  0  0  0  0  0  0  0
   -2.7960   25.6210  -29.2950 H   0  0  0  0  0  0  0  0  0  0  0  0
    0.6023   22.1967  -29.5975 H   0  0  0  0  0  0  0  0  0  0  0  0
    0.2866   19.7826  -31.0961 H   0  0  0  0  0  0  0  0  0  0  0  0
   -1.3968   18.4373  -32.3938 H   0  0  0  0  0  0  0  0  0  0  0  0
   -5.6138   19.4613  -31.4375 H   0  0  0  0  0  0  0  0  0  0  0  0
   -7.2998   18.1032  -32.6742 H   0  0  0  0  0  0  0  0  0  0  0  0
   -4.3467   17.1533  -35.6848 H   0  0  0  0  0  0  0  0  0  0  0  0
   -4.4177   21.4895  -31.6353 H   0  0  0  0  0  0  0  0  0  0  0  0
   -3.0560   25.6700  -30.8110 H   0  0  0  0  0  0  0  0  0  0  0  0
  1  2  1  0
  2  3  2  0
  2  4  1  0
  4  5  2  0
  5  6  1  0
  6  7  2  0
  7  8  1  0
  8  9  2  0
  9 10  1  0
 10 11  2  0
 11 12  1  0
 12 13  2  0
 13 14  1  0
 13 15  1  0
 15 16  2  0
 16 17  1  0
  9 18  1  0
 18 19  2  0
 19 20  1  0
 20 21  1  0
 21 22  1  0
 21 23  2  0
 20  4  1  0
 19  6  1  0
 16 10  1  0
  1 24  1  0
  5 25  1  0
  7 26  1  0
  8 27  1  0
 11 28  1  0
 12 29  1  0
 15 30  1  0
 18 31  1  0
 22 32  1  0
M  CHG  2   1  -1  22  -1
M  END
>  <UniqueID>  (66) 
66

>  <SMILES>  (66) 
[NH-]C(=O)c1cc2ccc(-c3ccc(F)cc3F)cc2n1C([NH-])=O

>  <Energy>  (66) 
80.7104149517742

>  <Genealogy>  (66) 
[NH-]C(=O)c1cc2ccc(-c3ccc(F)cc3F)cc2n1C([NH-])=O (protonated)
[NH-]C(=O)c1cc2ccc(-c3ccc(F)cc3F)cc2n1C([NH-])=O (3D coordinates assigned)
[NH-]C(=O)c1cc2ccc(-c3ccc(F)cc3F)cc2n1C([NH-])=O (optimized conformer: 80.7104149517742 kcal/mol)

>  <smiles>  (66) 
NC(=O)c1cc2ccc(-c3ccc(F)cc3F)cc2n1C(N)=O

>  <score_type>  (66) 
oracle

>  <origin>  (66) 
adg

>  <m_score__min__energy>  (66) 
-10.859999999999999

>  <m_primary>  (66) 
energy

$$$$
68:0
     RDKit          3D

 44 46  0  0  0  0  0  0  0  0999 V2000
   -7.2190   23.7790  -31.2450 C   0  0  0  0  0  0  0  0  0  0  0  0
   -6.5920   24.4840  -30.0540 C   0  0  0  0  0  0  0  0  0  0  0  0
   -5.3150   23.9140  -29.7830 O   0  0  0  0  0  0  0  0  0  0  0  0
   -4.1570   24.2920  -30.4700 C   0  0  0  0  0  0  0  0  0  0  0  0
   -4.0190   25.4760  -30.8810 O   0  0  0  0  0  0  0  0  0  0  0  0
   -3.1310   23.3200  -30.7240 N   0  0  0  0  0  0  0  0  0  0  0  0
   -1.8910   23.2520  -30.1610 C   0  0  0  0  0  0  0  0  0  0  0  0
   -1.2760   24.2740  -29.2900 C   0  0  0  0  0  0  0  0  0  0  0  0
   -1.9840   25.4600  -28.9370 N   0  0  0  0  0  0  0  0  0  0  0  0
   -0.0900   24.1230  -28.8920 O   0  0  0  0  0  0  0  0  0  0  0  0
   -1.2250   22.1030  -30.5830 C   0  0  0  0  0  0  0  0  0  0  0  0
   -2.0970   21.4690  -31.4380 C   0  0  0  0  0  0  0  0  0  0  0  0
   -1.9570   20.2710  -32.1310 C   0  0  0  0  0  0  0  0  0  0  0  0
   -3.0360   19.8350  -32.9180 C   0  0  0  0  0  0  0  0  0  0  0  0
   -4.2270   20.6020  -33.0040 C   0  0  0  0  0  0  0  0  0  0  0  0
   -5.4000   20.1080  -33.8170 C   0  0  0  0  0  0  0  0  0  0  0  0
   -6.5820   19.7180  -32.9480 C   0  0  0  0  0  0  0  0  0  0  0  0
   -7.2830   20.7500  -32.2930 C   0  0  0  0  0  0  0  0  0  0  0  0
   -8.3650   20.4660  -31.4630 C   0  0  0  0  0  0  0  0  0  0  0  0
   -8.7700   19.1500  -31.2710 C   0  0  0  0  0  0  0  0  0  0  0  0
   -8.0960   18.1090  -31.9090 C   0  0  0  0  0  0  0  0  0  0  0  0
   -6.9950   18.3660  -32.7550 C   0  0  0  0  0  0  0  0  0  0  0  0
   -6.3050   17.2030  -33.4480 C   0  0  0  0  0  0  0  0  0  0  0  0
   -5.9940   17.5490  -34.7490 F   0  0  0  0  0  0  0  0  0  0  0  0
   -5.1510   16.8660  -32.7700 F   0  0  0  0  0  0  0  0  0  0  0  0
   -7.1120   16.0790  -33.4910 F   0  0  0  0  0  0  0  0  0  0  0  0
   -4.3390   21.8010  -32.2630 C   0  0  0  0  0  0  0  0  0  0  0  0
   -3.2400   22.2220  -31.5050 C   0  0  0  0  0  0  0  0  0  0  0  0
   -7.9105   23.0014  -30.8884 H   0  0  0  0  0  0  0  0  0  0  0  0
   -7.7713   24.5095  -31.8544 H   0  0  0  0  0  0  0  0  0  0  0  0
   -6.4291   23.3157  -31.8544 H   0  0  0  0  0  0  0  0  0  0  0  0
   -6.4752   25.5540  -30.2811 H   0  0  0  0  0  0  0  0  0  0  0  0
   -7.2410   24.3646  -29.1739 H   0  0  0  0  0  0  0  0  0  0  0  0
   -2.9280   25.6620  -29.3330 H   0  0  0  0  0  0  0  0  0  0  0  0
   -0.2163   21.7729  -30.2940 H   0  0  0  0  0  0  0  0  0  0  0  0
   -1.0297   19.6830  -32.0648 H   0  0  0  0  0  0  0  0  0  0  0  0
   -2.9569   18.8889  -33.4736 H   0  0  0  0  0  0  0  0  0  0  0  0
   -5.7151   20.9069  -34.5044 H   0  0  0  0  0  0  0  0  0  0  0  0
   -5.0751   19.2108  -34.3643 H   0  0  0  0  0  0  0  0  0  0  0  0
   -6.9714   21.7948  -32.4392 H   0  0  0  0  0  0  0  0  0  0  0  0
   -8.8998   21.2843  -30.9587 H   0  0  0  0  0  0  0  0  0  0  0  0
   -9.6243   18.9292  -30.6142 H   0  0  0  0  0  0  0  0  0  0  0  0
   -8.4271   17.0720  -31.7508 H   0  0  0  0  0  0  0  0  0  0  0  0
   -5.2682   22.3894  -32.2817 H   0  0  0  0  0  0  0  0  0  0  0  0
  1  2  1  0
  2  3  1  0
  3  4  1  0
  4  5  2  0
  4  6  1  0
  6  7  1  0
  7  8  1  0
  8  9  1  0
  8 10  2  0
  7 11  2  0
 11 12  1  0
 12 13  2  0
 13 14  1  0
 14 15  2  0
 15 16  1  0
 16 17  1  0
 17 18  2  0
 18 19  1  0
 19 20  2  0
 20 21  1  0
 21 22  2  0
 22 23  1  0
 23 24  1  0
 23 25  1  0
 23 26  1  0
 15 27  1  0
 27 28  2  0
 28  6  1  0
 28 12  1  0
 22 17  1  0
  1 29  1  0
  1 30  1  0
  1 31  1  0
  2 32  1  0
  2 33  1  0
  9 34  1  0
 11 35  1  0
 13 36  1  0
 14 37  1  0
 16 38  1  0
 16 39  1  0
 18 40  1  0
 19 41  1  0
 20 42  1  0
 21 43  1  0
 27 44  1  0
M  CHG  1   9  -1
M  END
>  <UniqueID>  (67) 
67

>  <SMILES>  (67) 
CCOC(=O)n1c(C([NH-])=O)cc2ccc(Cc3ccccc3C(F)(F)F)cc21

>  <Energy>  (67) 
84.346579035355

>  <Genealogy>  (67) 
CCOC(=O)n1c(C([NH-])=O)cc2ccc(Cc3ccccc3C(F)(F)F)cc21 (protonated)
CCOC(=O)n1c(C([NH-])=O)cc2ccc(Cc3ccccc3C(F)(F)F)cc21 (3D coordinates assigned)
CCOC(=O)n1c(C([NH-])=O)cc2ccc(Cc3ccccc3C(F)(F)F)cc21 (optimized conformer: 84.346579035355 kcal/mol)

>  <smiles>  (67) 
CCOC(=O)n1c(C(N)=O)cc2ccc(Cc3ccccc3C(F)(F)F)cc21

>  <score_type>  (67) 
oracle

>  <origin>  (67) 
adg

>  <m_score__min__energy>  (67) 
-11.33

>  <m_primary>  (67) 
energy

$$$$
69:0
     RDKit          3D

 56 59  0  0  0  0  0  0  0  0999 V2000
   -1.6680   25.2600  -28.0130 N   0  0  0  0  0  0  0  0  0  0  0  0
   -0.8080   24.3100  -28.6440 C   0  0  0  0  0  0  0  0  0  0  0  0
    0.3850   24.2000  -28.2530 O   0  0  0  0  0  0  0  0  0  0  0  0
   -1.3160   23.4080  -29.6960 C   0  0  0  0  0  0  0  0  0  0  0  0
   -0.5260   22.4560  -30.3340 C   0  0  0  0  0  0  0  0  0  0  0  0
   -1.3850   21.7670  -31.1600 C   0  0  0  0  0  0  0  0  0  0  0  0
   -1.1330   20.7090  -32.0290 C   0  0  0  0  0  0  0  0  0  0  0  0
   -2.2080   20.1980  -32.7750 C   0  0  0  0  0  0  0  0  0  0  0  0
   -3.5060   20.7510  -32.6400 C   0  0  0  0  0  0  0  0  0  0  0  0
   -4.6510   20.2130  -33.4580 C   0  0  0  0  0  0  0  0  0  0  0  0
   -5.1730   18.8820  -32.8860 C   0  0  2  0  0  0  0  0  0  0  0  0
   -6.1480   18.1950  -33.8180 C   0  0  0  0  0  0  0  0  0  0  0  0
   -7.0570   17.4000  -32.8920 C   0  0  0  0  0  0  0  0  0  0  0  0
   -6.9310   17.9430  -31.5350 N   0  0  0  0  0  0  0  0  0  0  0  0
   -5.9710   19.0460  -31.5990 C   0  0  0  0  0  0  0  0  0  0  0  0
   -3.7200   21.8350  -31.7590 C   0  0  0  0  0  0  0  0  0  0  0  0
   -2.6350   22.3100  -31.0130 C   0  0  0  0  0  0  0  0  0  0  0  0
   -2.6080   23.3270  -30.1190 N   0  0  0  0  0  0  0  0  0  0  0  0
   -3.6920   24.2130  -29.7870 C   0  0  0  0  0  0  0  0  0  0  0  0
   -4.1500   24.2360  -28.6130 O   0  0  0  0  0  0  0  0  0  0  0  0
   -4.2660   25.0480  -30.7990 N   0  0  0  0  0  0  0  0  0  0  0  0
   -5.6690   25.4510  -30.8330 C   0  0  0  0  0  0  0  0  0  0  0  0
   -6.4840   24.5220  -31.7410 C   0  0  0  0  0  0  0  0  0  0  0  0
   -6.2490   23.0990  -31.3970 N   0  0  0  0  0  0  0  0  0  0  0  0
   -6.9170   22.1950  -32.3500 C   0  0  0  0  0  0  0  0  0  0  0  0
   -8.2810   21.8270  -31.7760 C   0  0  0  0  0  0  0  0  0  0  0  0
   -8.2410   22.2580  -30.3210 C   0  0  0  0  0  0  0  0  0  0  0  0
   -6.8260   22.7600  -30.0890 C   0  0  0  0  0  0  0  0  0  0  0  0
   -2.6920   25.2710  -28.2130 H   0  0  0  0  0  0  0  0  0  0  0  0
   -1.2840   25.9330  -27.3140 H   0  0  0  0  0  0  0  0  0  0  0  0
    0.5538   22.2898  -30.2056 H   0  0  0  0  0  0  0  0  0  0  0  0
   -0.1225   20.2859  -32.1285 H   0  0  0  0  0  0  0  0  0  0  0  0
   -2.0410   19.3617  -33.4698 H   0  0  0  0  0  0  0  0  0  0  0  0
   -5.4688   20.9486  -33.4563 H   0  0  0  0  0  0  0  0  0  0  0  0
   -4.2907   20.0325  -34.4815 H   0  0  0  0  0  0  0  0  0  0  0  0
   -4.2499   18.3051  -32.7276 H   0  0  0  0  0  0  0  0  0  0  0  0
   -6.7264   18.9347  -34.3910 H   0  0  0  0  0  0  0  0  0  0  0  0
   -5.6430   17.5584  -34.5594 H   0  0  0  0  0  0  0  0  0  0  0  0
   -8.0998   17.4875  -33.2311 H   0  0  0  0  0  0  0  0  0  0  0  0
   -6.7680   16.3387  -32.9010 H   0  0  0  0  0  0  0  0  0  0  0  0
   -6.5300   17.1980  -30.9170 H   0  0  0  0  0  0  0  0  0  0  0  0
   -6.5040   20.0082  -31.6072 H   0  0  0  0  0  0  0  0  0  0  0  0
   -5.3042   19.0314  -30.7243 H   0  0  0  0  0  0  0  0  0  0  0  0
   -4.7148   22.2942  -31.6619 H   0  0  0  0  0  0  0  0  0  0  0  0
   -6.0802   25.4097  -29.8136 H   0  0  0  0  0  0  0  0  0  0  0  0
   -5.7309   26.4744  -31.2315 H   0  0  0  0  0  0  0  0  0  0  0  0
   -7.5535   24.7490  -31.6201 H   0  0  0  0  0  0  0  0  0  0  0  0
   -6.1693   24.6865  -32.7821 H   0  0  0  0  0  0  0  0  0  0  0  0
   -7.0441   22.7015  -33.3182 H   0  0  0  0  0  0  0  0  0  0  0  0
   -6.3117   21.2898  -32.5054 H   0  0  0  0  0  0  0  0  0  0  0  0
   -9.0799   22.3598  -32.3125 H   0  0  0  0  0  0  0  0  0  0  0  0
   -8.4883   20.7514  -31.8765 H   0  0  0  0  0  0  0  0  0  0  0  0
   -8.9696   23.0614  -30.1372 H   0  0  0  0  0  0  0  0  0  0  0  0
   -8.4991   21.4320  -29.6419 H   0  0  0  0  0  0  0  0  0  0  0  0
   -6.8464   23.6526  -29.4464 H   0  0  0  0  0  0  0  0  0  0  0  0
   -6.2214   21.9877  -29.5911 H   0  0  0  0  0  0  0  0  0  0  0  0
  1  2  1  0
  2  3  2  0
  2  4  1  0
  4  5  2  0
  5  6  1  0
  6  7  2  0
  7  8  1  0
  8  9  2  0
  9 10  1  0
 10 11  1  0
 11 12  1  0
 12 13  1  0
 13 14  1  0
 14 15  1  0
  9 16  1  0
 16 17  2  0
 17 18  1  0
 18 19  1  0
 19 20  2  0
 19 21  1  0
 21 22  1  0
 22 23  1  0
 23 24  1  0
 24 25  1  0
 25 26  1  0
 26 27  1  0
 27 28  1  0
 18  4  1  0
 28 24  1  0
 17  6  1  0
 15 11  1  0
  1 29  1  0
  1 30  1  0
  5 31  1  0
  7 32  1  0
  8 33  1  0
 10 34  1  0
 10 35  1  0
 11 36  1  1
 12 37  1  0
 12 38  1  0
 13 39  1  0
 13 40  1  0
 14 41  1  0
 15 42  1  0
 15 43  1  0
 16 44  1  0
 22 45  1  0
 22 46  1  0
 23 47  1  0
 23 48  1  0
 25 49  1  0
 25 50  1  0
 26 51  1  0
 26 52  1  0
 27 53  1  0
 27 54  1  0
 28 55  1  0
 28 56  1  0
M  CHG  1  21  -1
M  END
>  <UniqueID>  (68) 
68

>  <SMILES>  (68) 
NC(=O)c1cc2ccc(C[C@@H]3CCNC3)cc2n1C(=O)[N-]CCN1CCCC1

>  <Energy>  (68) 
94.64036526100568

>  <Genealogy>  (68) 
NC(=O)c1cc2ccc(CC3CCNC3)cc2n1C(=O)[N-]CCN1CCCC1 (protonated)
NC(=O)c1cc2ccc(C[C@@H]3CCNC3)cc2n1C(=O)[N-]CCN1CCCC1 (chirality)
NC(=O)c1cc2ccc(C[C@@H]3CCNC3)cc2n1C(=O)[N-]CCN1CCCC1 (3D coordinates assigned)
NC(=O)c1cc2ccc(C[C@@H]3CCNC3)cc2n1C(=O)[N-]CCN1CCCC1 (nonaromatic ring conformer: 94.64036526100568 kcal/mol)

>  <smiles>  (68) 
NC(=O)c1cc2ccc(CC3CCNC3)cc2n1C(=O)NCCN1CCCC1

>  <score_type>  (68) 
oracle

>  <origin>  (68) 
adg

>  <m_score__min__energy>  (68) 
-10.99

>  <m_primary>  (68) 
energy

$$$$
70:0
     RDKit          3D

 37 38  0  0  0  0  0  0  0  0999 V2000
   -4.1920   23.0350  -28.0240 C   0  0  0  0  0  0  0  0  0  0  0  0
   -3.0710   22.2080  -28.6710 C   0  0  0  0  0  0  0  0  0  0  0  0
   -2.7070   21.0400  -27.7330 C   0  0  0  0  0  0  0  0  0  0  0  0
   -1.8510   23.1200  -28.9030 C   0  0  0  0  0  0  0  0  0  0  0  0
   -3.5760   21.7150  -29.9200 O   0  0  0  0  0  0  0  0  0  0  0  0
   -3.9860   22.4890  -31.0160 C   0  0  0  0  0  0  0  0  0  0  0  0
   -3.1660   22.8380  -31.9070 O   0  0  0  0  0  0  0  0  0  0  0  0
   -5.3560   22.9100  -31.1050 N   0  0  0  0  0  0  0  0  0  0  0  0
   -5.8730   24.1460  -30.8490 C   0  0  0  0  0  0  0  0  0  0  0  0
   -5.0950   25.3670  -30.5510 C   0  0  0  0  0  0  0  0  0  0  0  0
   -3.6740   25.2950  -30.4470 N   0  0  0  0  0  0  0  0  0  0  0  0
   -5.6720   26.4680  -30.3520 O   0  0  0  0  0  0  0  0  0  0  0  0
   -7.2590   24.1340  -30.9910 C   0  0  0  0  0  0  0  0  0  0  0  0
   -7.5780   22.8440  -31.3500 C   0  0  0  0  0  0  0  0  0  0  0  0
   -8.8180   22.2710  -31.6190 C   0  0  0  0  0  0  0  0  0  0  0  0
   -8.8530   20.9050  -31.9490 C   0  0  0  0  0  0  0  0  0  0  0  0
   -7.6610   20.1400  -31.9840 C   0  0  0  0  0  0  0  0  0  0  0  0
   -7.7090   18.6900  -32.3620 C   0  0  0  0  0  0  0  0  0  0  0  0
   -8.9160   18.1480  -31.9620 F   0  0  0  0  0  0  0  0  0  0  0  0
   -6.4200   20.7600  -31.7210 C   0  0  0  0  0  0  0  0  0  0  0  0
   -6.4120   22.1260  -31.4120 C   0  0  0  0  0  0  0  0  0  0  0  0
   -4.1081   22.9731  -26.9290 H   0  0  0  0  0  0  0  0  0  0  0  0
   -4.1022   24.0848  -28.3398 H   0  0  0  0  0  0  0  0  0  0  0  0
   -5.1686   22.6393  -28.3398 H   0  0  0  0  0  0  0  0  0  0  0  0
   -2.8082   21.3646  -26.6869 H   0  0  0  0  0  0  0  0  0  0  0  0
   -3.3840   20.1937  -27.9214 H   0  0  0  0  0  0  0  0  0  0  0  0
   -1.6691   20.7282  -27.9214 H   0  0  0  0  0  0  0  0  0  0  0  0
   -1.4356   23.4305  -27.9329 H   0  0  0  0  0  0  0  0  0  0  0  0
   -1.0855   22.5709  -29.4708 H   0  0  0  0  0  0  0  0  0  0  0  0
   -2.1610   24.0097  -29.4708 H   0  0  0  0  0  0  0  0  0  0  0  0
   -3.0990   24.8860  -31.2160 H   0  0  0  0  0  0  0  0  0  0  0  0
   -7.9513   24.9765  -30.8468 H   0  0  0  0  0  0  0  0  0  0  0  0
   -9.7408   22.8681  -31.5747 H   0  0  0  0  0  0  0  0  0  0  0  0
   -9.8151   20.4254  -32.1823 H   0  0  0  0  0  0  0  0  0  0  0  0
   -7.6070   18.5921  -33.4529 H   0  0  0  0  0  0  0  0  0  0  0  0
   -6.8854   18.1551  -31.8666 H   0  0  0  0  0  0  0  0  0  0  0  0
   -5.4832   20.1847  -31.7579 H   0  0  0  0  0  0  0  0  0  0  0  0
  1  2  1  0
  2  3  1  0
  2  4  1  0
  2  5  1  0
  5  6  1  0
  6  7  2  0
  6  8  1  0
  8  9  1  0
  9 10  1  0
 10 11  1  0
 10 12  2  0
  9 13  2  0
 13 14  1  0
 14 15  2  0
 15 16  1  0
 16 17  2  0
 17 18  1  0
 18 19  1  0
 17 20  1  0
 20 21  2  0
 21  8  1  0
 21 14  1  0
  1 22  1  0
  1 23  1  0
  1 24  1  0
  3 25  1  0
  3 26  1  0
  3 27  1  0
  4 28  1  0
  4 29  1  0
  4 30  1  0
 11 31  1  0
 13 32  1  0
 15 33  1  0
 16 34  1  0
 18 35  1  0
 18 36  1  0
 20 37  1  0
M  CHG  1  11  -1
M  END
>  <UniqueID>  (69) 
69

>  <SMILES>  (69) 
CC(C)(C)OC(=O)n1c(C([NH-])=O)cc2ccc(CF)cc21

>  <Energy>  (69) 
70.03243078048715

>  <Genealogy>  (69) 
CC(C)(C)OC(=O)n1c(C([NH-])=O)cc2ccc(CF)cc21 (protonated)
CC(C)(C)OC(=O)n1c(C([NH-])=O)cc2ccc(CF)cc21 (3D coordinates assigned)
CC(C)(C)OC(=O)n1c(C([NH-])=O)cc2ccc(CF)cc21 (optimized conformer: 70.03243078048715 kcal/mol)

>  <smiles>  (69) 
CC(C)(C)OC(=O)n1c(C(N)=O)cc2ccc(CF)cc21

>  <score_type>  (69) 
oracle

>  <origin>  (69) 
adg

>  <m_score__min__energy>  (69) 
-9.7300000000000004

>  <m_primary>  (69) 
energy

$$$$
71:0
     RDKit          3D

 35 36  0  0  0  0  0  0  0  0999 V2000
   -5.7220   18.1820  -34.9620 C   0  0  0  0  0  0  0  0  0  0  0  0
   -6.0170   17.7230  -33.5350 C   0  0  0  0  0  0  0  0  0  0  0  0
   -7.4440   18.0690  -33.0890 C   0  0  0  0  0  0  0  0  0  0  0  0
   -7.5160   19.4240  -32.4300 C   0  0  0  0  0  0  0  0  0  0  0  0
   -8.7240   19.8550  -31.8290 C   0  0  0  0  0  0  0  0  0  0  0  0
   -8.7950   21.0970  -31.1770 C   0  0  0  0  0  0  0  0  0  0  0  0
   -7.6480   21.8830  -31.1440 C   0  0  0  0  0  0  0  0  0  0  0  0
   -7.4330   23.1090  -30.5560 C   0  0  0  0  0  0  0  0  0  0  0  0
   -6.1000   23.4160  -30.8190 C   0  0  0  0  0  0  0  0  0  0  0  0
   -5.4590   24.6980  -30.4450 C   0  0  0  0  0  0  0  0  0  0  0  0
   -5.8070   25.3580  -29.2270 N   0  0  0  0  0  0  0  0  0  0  0  0
   -4.6200   25.2340  -31.2160 O   0  0  0  0  0  0  0  0  0  0  0  0
   -5.5120   22.4180  -31.5400 N   0  0  0  0  0  0  0  0  0  0  0  0
   -4.1400   22.3250  -31.9570 C   0  0  0  0  0  0  0  0  0  0  0  0
   -3.2340   22.8740  -31.2720 O   0  0  0  0  0  0  0  0  0  0  0  0
   -3.8120   21.6140  -33.1160 O   0  0  0  0  0  0  0  0  0  0  0  0
   -2.9230   20.5040  -33.1080 C   0  0  0  0  0  0  0  0  0  0  0  0
   -6.4740   21.4870  -31.7310 C   0  0  0  0  0  0  0  0  0  0  0  0
   -6.3690   20.2470  -32.3710 C   0  0  0  0  0  0  0  0  0  0  0  0
   -5.1275   19.1071  -34.9341 H   0  0  0  0  0  0  0  0  0  0  0  0
   -5.1575   17.3991  -35.4897 H   0  0  0  0  0  0  0  0  0  0  0  0
   -6.6686   18.3703  -35.4897 H   0  0  0  0  0  0  0  0  0  0  0  0
   -5.8854   16.6322  -33.4811 H   0  0  0  0  0  0  0  0  0  0  0  0
   -5.3209   18.2483  -32.8645 H   0  0  0  0  0  0  0  0  0  0  0  0
   -8.1021   18.0671  -33.9704 H   0  0  0  0  0  0  0  0  0  0  0  0
   -7.7627   17.3156  -32.3536 H   0  0  0  0  0  0  0  0  0  0  0  0
   -9.6147   19.2111  -31.8733 H   0  0  0  0  0  0  0  0  0  0  0  0
   -9.7293   21.4377  -30.7068 H   0  0  0  0  0  0  0  0  0  0  0  0
   -8.1596   23.7171  -29.9971 H   0  0  0  0  0  0  0  0  0  0  0  0
   -5.3780   26.2800  -28.9920 H   0  0  0  0  0  0  0  0  0  0  0  0
   -6.4550   24.9190  -28.5370 H   0  0  0  0  0  0  0  0  0  0  0  0
   -2.6974   20.2224  -32.0689 H   0  0  0  0  0  0  0  0  0  0  0  0
   -3.3930   19.6541  -33.6245 H   0  0  0  0  0  0  0  0  0  0  0  0
   -1.9909   20.7770  -33.6245 H   0  0  0  0  0  0  0  0  0  0  0  0
   -5.4176   19.9212  -32.8168 H   0  0  0  0  0  0  0  0  0  0  0  0
  1  2  1  0
  2  3  1  0
  3  4  1  0
  4  5  2  0
  5  6  1  0
  6  7  2  0
  7  8  1  0
  8  9  2  0
  9 10  1  0
 10 11  1  0
 10 12  2  0
  9 13  1  0
 13 14  1  0
 14 15  2  0
 14 16  1  0
 16 17  1  0
 13 18  1  0
 18 19  2  0
 19  4  1  0
 18  7  1  0
  1 20  1  0
  1 21  1  0
  1 22  1  0
  2 23  1  0
  2 24  1  0
  3 25  1  0
  3 26  1  0
  5 27  1  0
  6 28  1  0
  8 29  1  0
 11 30  1  0
 11 31  1  0
 17 32  1  0
 17 33  1  0
 17 34  1  0
 19 35  1  0
M  END
>  <UniqueID>  (70) 
70

>  <SMILES>  (70) 
CCCc1ccc2cc(C(N)=O)n(C(=O)OC)c2c1

>  <Energy>  (70) 
66.45274227916448

>  <Genealogy>  (70) 
CCCc1ccc2cc(C(N)=O)n(C(=O)OC)c2c1 (3D coordinates assigned)
CCCc1ccc2cc(C(N)=O)n(C(=O)OC)c2c1 (optimized conformer: 66.45274227916448 kcal/mol)

>  <smiles>  (70) 
CCCc1ccc2cc(C(N)=O)n(C(=O)OC)c2c1

>  <score_type>  (70) 
oracle

>  <origin>  (70) 
adg

>  <m_score__min__energy>  (70) 
-8.1500000000000004

>  <m_primary>  (70) 
energy

$$$$
72:0
     RDKit          3D

 47 48  0  0  0  0  0  0  0  0999 V2000
   -2.9330   20.1740  -33.8250 C   0  0  0  0  0  0  0  0  0  0  0  0
   -2.2730   21.0780  -32.7670 C   0  0  0  0  0  0  0  0  0  0  0  0
   -0.8280   21.4260  -33.1720 C   0  0  0  0  0  0  0  0  0  0  0  0
   -2.2480   20.3330  -31.4240 C   0  0  0  0  0  0  0  0  0  0  0  0
   -3.0430   22.2750  -32.5720 O   0  0  0  0  0  0  0  0  0  0  0  0
   -3.6910   22.6650  -31.3900 C   0  0  0  0  0  0  0  0  0  0  0  0
   -3.0290   23.0020  -30.3710 O   0  0  0  0  0  0  0  0  0  0  0  0
   -5.1270   22.6770  -31.3460 N   0  0  0  0  0  0  0  0  0  0  0  0
   -5.9310   23.7320  -31.0340 C   0  0  0  0  0  0  0  0  0  0  0  0
   -5.4800   25.0350  -30.5090 C   0  0  0  0  0  0  0  0  0  0  0  0
   -4.1680   25.5290  -30.7830 N   0  0  0  0  0  0  0  0  0  0  0  0
   -6.2470   25.7000  -29.7610 O   0  0  0  0  0  0  0  0  0  0  0  0
   -7.2690   23.4060  -31.2340 C   0  0  0  0  0  0  0  0  0  0  0  0
   -7.2620   22.1020  -31.6710 C   0  0  0  0  0  0  0  0  0  0  0  0
   -8.3200   21.2810  -32.0390 C   0  0  0  0  0  0  0  0  0  0  0  0
   -8.0260   19.9860  -32.4950 C   0  0  0  0  0  0  0  0  0  0  0  0
   -6.6780   19.5240  -32.5930 C   0  0  0  0  0  0  0  0  0  0  0  0
   -6.3200   18.1140  -33.1080 C   0  0  0  0  0  0  0  0  0  0  0  0
   -7.5800   17.2210  -33.0890 C   0  0  0  0  0  0  0  0  0  0  0  0
   -5.2390   17.4930  -32.1960 C   0  0  0  0  0  0  0  0  0  0  0  0
   -5.7710   18.1170  -34.5540 C   0  0  0  0  0  0  0  0  0  0  0  0
   -5.6350   20.4080  -32.2070 C   0  0  0  0  0  0  0  0  0  0  0  0
   -5.9600   21.6840  -31.7330 C   0  0  0  0  0  0  0  0  0  0  0  0
   -3.5102   19.3834  -33.3232 H   0  0  0  0  0  0  0  0  0  0  0  0
   -3.6055   20.7761  -34.4537 H   0  0  0  0  0  0  0  0  0  0  0  0
   -2.1547   19.7169  -34.4537 H   0  0  0  0  0  0  0  0  0  0  0  0
   -0.2190   21.5727  -32.2678 H   0  0  0  0  0  0  0  0  0  0  0  0
   -0.4063   20.6037  -33.7687 H   0  0  0  0  0  0  0  0  0  0  0  0
   -0.8269   22.3501  -33.7687 H   0  0  0  0  0  0  0  0  0  0  0  0
   -2.2724   21.0614  -30.6001 H   0  0  0  0  0  0  0  0  0  0  0  0
   -3.1245   19.6719  -31.3551 H   0  0  0  0  0  0  0  0  0  0  0  0
   -1.3292   19.7321  -31.3551 H   0  0  0  0  0  0  0  0  0  0  0  0
   -3.4550   24.9280  -31.2500 H   0  0  0  0  0  0  0  0  0  0  0  0
   -3.8830   26.4750  -30.4460 H   0  0  0  0  0  0  0  0  0  0  0  0
   -8.1447   24.0528  -31.0763 H   0  0  0  0  0  0  0  0  0  0  0  0
   -9.3594   21.6354  -31.9750 H   0  0  0  0  0  0  0  0  0  0  0  0
   -8.8489   19.3149  -32.7821 H   0  0  0  0  0  0  0  0  0  0  0  0
   -7.8687   17.0164  -32.0475 H   0  0  0  0  0  0  0  0  0  0  0  0
   -8.4037   17.7381  -33.6030 H   0  0  0  0  0  0  0  0  0  0  0  0
   -7.3650   16.2725  -33.6030 H   0  0  0  0  0  0  0  0  0  0  0  0
   -5.5133   17.6506  -31.1425 H   0  0  0  0  0  0  0  0  0  0  0  0
   -5.1643   16.4143  -32.3980 H   0  0  0  0  0  0  0  0  0  0  0  0
   -4.2695   17.9719  -32.3980 H   0  0  0  0  0  0  0  0  0  0  0  0
   -4.6713   18.1230  -34.5287 H   0  0  0  0  0  0  0  0  0  0  0  0
   -6.1207   17.2169  -35.0809 H   0  0  0  0  0  0  0  0  0  0  0  0
   -6.1305   19.0132  -35.0809 H   0  0  0  0  0  0  0  0  0  0  0  0
   -4.5836   20.0930  -32.2799 H   0  0  0  0  0  0  0  0  0  0  0  0
  1  2  1  0
  2  3  1  0
  2  4  1  0
  2  5  1  0
  5  6  1  0
  6  7  2  0
  6  8  1  0
  8  9  1  0
  9 10  1  0
 10 11  1  0
 10 12  2  0
  9 13  2  0
 13 14  1  0
 14 15  2  0
 15 16  1  0
 16 17  2  0
 17 18  1  0
 18 19  1  0
 18 20  1  0
 18 21  1  0
 17 22  1  0
 22 23  2  0
 23  8  1  0
 23 14  1  0
  1 24  1  0
  1 25  1  0
  1 26  1  0
  3 27  1  0
  3 28  1  0
  3 29  1  0
  4 30  1  0
  4 31  1  0
  4 32  1  0
 11 33  1  0
 11 34  1  0
 13 35  1  0
 15 36  1  0
 16 37  1  0
 19 38  1  0
 19 39  1  0
 19 40  1  0
 20 41  1  0
 20 42  1  0
 20 43  1  0
 21 44  1  0
 21 45  1  0
 21 46  1  0
 22 47  1  0
M  END
>  <UniqueID>  (71) 
71

>  <SMILES>  (71) 
CC(C)(C)OC(=O)n1c(C(N)=O)cc2ccc(C(C)(C)C)cc21

>  <Energy>  (71) 
81.62526113896745

>  <Genealogy>  (71) 
CC(C)(C)OC(=O)n1c(C(N)=O)cc2ccc(C(C)(C)C)cc21 (3D coordinates assigned)
CC(C)(C)OC(=O)n1c(C(N)=O)cc2ccc(C(C)(C)C)cc21 (optimized conformer: 81.62526113896745 kcal/mol)

>  <smiles>  (71) 
CC(C)(C)OC(=O)n1c(C(N)=O)cc2ccc(C(C)(C)C)cc21

>  <score_type>  (71) 
oracle

>  <origin>  (71) 
adg

>  <m_score__min__energy>  (71) 
-9.3900000000000006

>  <m_primary>  (71) 
energy

$$$$
73:0
     RDKit          3D

 73 75  0  0  0  0  0  0  0  0999 V2000
    1.3990   18.1720  -33.6500 C   0  0  0  0  0  0  0  0  0  0  0  0
    0.6110   17.2550  -34.5850 C   0  0  0  0  0  0  0  0  0  0  0  0
   -0.8130   17.7640  -34.8800 C   0  0  0  0  0  0  0  0  0  0  0  0
   -1.9140   17.3080  -33.8850 C   0  0  2  0  0  0  0  0  0  0  0  0
   -2.0150   15.8030  -33.9400 C   0  0  0  0  0  0  0  0  0  0  0  0
   -1.8800   15.1110  -32.8950 O   0  0  0  0  0  0  0  0  0  0  0  0
   -2.3570   15.1870  -35.1480 O   0  0  0  0  0  0  0  0  0  0  0  0
   -3.4780   14.3190  -35.2750 C   0  0  0  0  0  0  0  0  0  0  0  0
   -3.2740   18.0550  -34.0840 C   0  0  2  0  0  0  0  0  0  0  0  0
   -3.1770   19.6040  -34.1350 C   0  0  0  0  0  0  0  0  0  0  0  0
   -2.4940   20.2650  -32.9610 C   0  0  0  0  0  0  0  0  0  0  0  0
   -1.2500   19.7740  -32.4920 C   0  0  0  0  0  0  0  0  0  0  0  0
   -0.5900   20.3980  -31.4190 C   0  0  0  0  0  0  0  0  0  0  0  0
   -1.1900   21.5130  -30.8440 C   0  0  0  0  0  0  0  0  0  0  0  0
   -0.7590   22.3190  -29.8170 C   0  0  0  0  0  0  0  0  0  0  0  0
   -1.7400   23.2980  -29.6790 C   0  0  0  0  0  0  0  0  0  0  0  0
   -1.7190   24.3260  -28.6180 C   0  0  0  0  0  0  0  0  0  0  0  0
   -1.6240   25.7100  -28.9420 N   0  0  0  0  0  0  0  0  0  0  0  0
   -1.8380   23.9810  -27.4120 O   0  0  0  0  0  0  0  0  0  0  0  0
   -2.7340   23.1120  -30.5930 N   0  0  0  0  0  0  0  0  0  0  0  0
   -3.8740   23.9510  -30.8420 C   0  0  0  0  0  0  0  0  0  0  0  0
   -3.8630   25.3180  -30.4330 N   0  0  0  0  0  0  0  0  0  0  0  0
   -4.8740   23.4950  -31.4590 O   0  0  0  0  0  0  0  0  0  0  0  0
   -2.3850   22.0110  -31.2950 C   0  0  0  0  0  0  0  0  0  0  0  0
   -3.0490   21.4260  -32.3780 C   0  0  0  0  0  0  0  0  0  0  0  0
   -4.3960   17.5470  -33.2080 C   0  0  0  0  0  0  0  0  0  0  0  0
   -4.5320   16.2800  -32.7660 N   0  0  0  0  0  0  0  0  0  0  0  0
   -5.6450   16.2810  -32.0500 N   0  0  0  0  0  0  0  0  0  0  0  0
   -6.1600   17.4970  -32.0700 N   0  0  0  0  0  0  0  0  0  0  0  0
   -7.3600   17.8950  -31.3420 C   0  0  0  0  0  0  0  0  0  0  0  0
   -7.5570   19.2930  -31.4310 O   0  0  0  0  0  0  0  0  0  0  0  0
   -8.9280   19.5860  -31.6190 C   0  0  0  0  0  0  0  0  0  0  0  0
   -9.0840   20.9970  -32.1820 C   0  0  0  0  0  0  0  0  0  0  0  0
   -7.5620   22.0660  -31.8950 Si  0  0  0  0  0  4  0  0  0  0  0  0
   -6.0990   21.2360  -32.7080 C   0  0  0  0  0  0  0  0  0  0  0  0
   -7.7930   23.7560  -32.6590 C   0  0  0  0  0  0  0  0  0  0  0  0
   -7.2110   22.2530  -30.0680 C   0  0  0  0  0  0  0  0  0  0  0  0
   -5.4080   18.3240  -32.7760 N   0  0  0  0  0  0  0  0  0  0  0  0
    1.1746   17.9108  -32.6053 H   0  0  0  0  0  0  0  0  0  0  0  0
    2.4760   18.0472  -33.8359 H   0  0  0  0  0  0  0  0  0  0  0  0
    1.1136   19.2179  -33.8359 H   0  0  0  0  0  0  0  0  0  0  0  0
    1.1570   17.1740  -35.5365 H   0  0  0  0  0  0  0  0  0  0  0  0
    0.5115   16.2827  -34.0803 H   0  0  0  0  0  0  0  0  0  0  0  0
   -0.7864   18.8637  -34.8729 H   0  0  0  0  0  0  0  0  0  0  0  0
   -1.0901   17.3289  -35.8516 H   0  0  0  0  0  0  0  0  0  0  0  0
   -1.6255   17.5949  -32.8630 H   0  0  0  0  0  0  0  0  0  0  0  0
   -3.8399   14.0388  -34.2748 H   0  0  0  0  0  0  0  0  0  0  0  0
   -4.2801   14.8339  -35.8242 H   0  0  0  0  0  0  0  0  0  0  0  0
   -3.1803   13.4136  -35.8242 H   0  0  0  0  0  0  0  0  0  0  0  0
   -3.5619   17.7756  -35.1082 H   0  0  0  0  0  0  0  0  0  0  0  0
   -2.6213   19.8764  -35.0444 H   0  0  0  0  0  0  0  0  0  0  0  0
   -4.2154   19.9664  -34.1157 H   0  0  0  0  0  0  0  0  0  0  0  0
   -0.7959   18.8950  -32.9728 H   0  0  0  0  0  0  0  0  0  0  0  0
    0.3716   20.0160  -31.0457 H   0  0  0  0  0  0  0  0  0  0  0  0
    0.1646   22.2131  -29.2290 H   0  0  0  0  0  0  0  0  0  0  0  0
   -1.2240   26.0210  -29.8550 H   0  0  0  0  0  0  0  0  0  0  0  0
   -3.7150   25.5790  -29.4340 H   0  0  0  0  0  0  0  0  0  0  0  0
   -3.9820   21.8599  -32.7669 H   0  0  0  0  0  0  0  0  0  0  0  0
   -8.2312   17.3793  -31.7721 H   0  0  0  0  0  0  0  0  0  0  0  0
   -7.2392   17.6211  -30.2835 H   0  0  0  0  0  0  0  0  0  0  0  0
   -9.3627   18.8617  -32.3236 H   0  0  0  0  0  0  0  0  0  0  0  0
   -9.4486   19.5216  -30.6522 H   0  0  0  0  0  0  0  0  0  0  0  0
   -9.2650   20.9259  -33.2647 H   0  0  0  0  0  0  0  0  0  0  0  0
   -9.9270   21.4720  -31.6589 H   0  0  0  0  0  0  0  0  0  0  0  0
   -5.4193   20.8504  -31.9338 H   0  0  0  0  0  0  0  0  0  0  0  0
   -6.4513   20.4033  -33.3344 H   0  0  0  0  0  0  0  0  0  0  0  0
   -5.5649   21.9656  -33.3344 H   0  0  0  0  0  0  0  0  0  0  0  0
   -7.8957   24.5076  -31.8624 H   0  0  0  0  0  0  0  0  0  0  0  0
   -6.9197   23.9992  -33.2821 H   0  0  0  0  0  0  0  0  0  0  0  0
   -8.6995   23.7559  -33.2821 H   0  0  0  0  0  0  0  0  0  0  0  0
   -8.0365   21.8132  -29.4891 H   0  0  0  0  0  0  0  0  0  0  0  0
   -6.2727   21.7352  -29.8200 H   0  0  0  0  0  0  0  0  0  0  0  0
   -7.1173   23.3206  -29.8200 H   0  0  0  0  0  0  0  0  0  0  0  0
  1  2  1  0
  2  3  1  0
  3  4  1  0
  4  5  1  0
  5  6  2  0
  5  7  1  0
  7  8  1  0
  4  9  1  0
  9 10  1  0
 10 11  1  0
 11 12  2  0
 12 13  1  0
 13 14  2  0
 14 15  1  0
 15 16  2  0
 16 17  1  0
 17 18  1  0
 17 19  2  0
 16 20  1  0
 20 21  1  0
 21 22  1  0
 21 23  2  0
 20 24  1  0
 24 25  2  0
  9 26  1  0
 26 27  1  0
 27 28  2  0
 28 29  1  0
 29 30  1  0
 30 31  1  0
 31 32  1  0
 32 33  1  0
 33 34  1  0
 34 35  1  0
 34 36  1  0
 34 37  1  0
 29 38  1  0
 25 11  1  0
 38 26  2  0
 24 14  1  0
  1 39  1  0
  1 40  1  0
  1 41  1  0
  2 42  1  0
  2 43  1  0
  3 44  1  0
  3 45  1  0
  4 46  1  1
  8 47  1  0
  8 48  1  0
  8 49  1  0
  9 50  1  6
 10 51  1  0
 10 52  1  0
 12 53  1  0
 13 54  1  0
 15 55  1  0
 18 56  1  0
 22 57  1  0
 25 58  1  0
 30 59  1  0
 30 60  1  0
 32 61  1  0
 32 62  1  0
 33 63  1  0
 33 64  1  0
 35 65  1  0
 35 66  1  0
 35 67  1  0
 36 68  1  0
 36 69  1  0
 36 70  1  0
 37 71  1  0
 37 72  1  0
 37 73  1  0
M  CHG  2  18  -1  22  -1
M  END
>  <UniqueID>  (72) 
72

>  <SMILES>  (72) 
CCC[C@H](C(=O)OC)[C@H](Cc1ccc2cc(C([NH-])=O)n(C([NH-])=O)c2c1)c1nnn(COCC[Si](C)(C)C)n1

>  <Energy>  (72) 
131.01549981716124

>  <Genealogy>  (72) 
CCC[C@H](C(=O)OC)[C@H](Cc1ccc2cc(C([NH-])=O)n(C([NH-])=O)c2c1)c1nnn(COCC[Si](C)(C)C)n1 (protonated)
CCC[C@H](C(=O)OC)[C@H](Cc1ccc2cc(C([NH-])=O)n(C([NH-])=O)c2c1)c1nnn(COCC[Si](C)(C)C)n1 (3D coordinates assigned)
CCC[C@H](C(=O)OC)[C@H](Cc1ccc2cc(C([NH-])=O)n(C([NH-])=O)c2c1)c1nnn(COCC[Si](C)(C)C)n1 (optimized conformer: 131.01549981716124 kcal/mol)

>  <smiles>  (72) 
CCC[C@H](C(=O)OC)[C@H](Cc1ccc2cc(C(N)=O)n(C(N)=O)c2c1)c1nnn(COCC[Si](C)(C)C)n1

>  <score_type>  (72) 
oracle

>  <origin>  (72) 
adg

>  <m_score__min__energy>  (72) 
-12.27

>  <m_primary>  (72) 
energy

$$$$
74:0
     RDKit          3D

 27 28  0  0  0  0  0  0  0  0999 V2000
   -7.0850   20.7470  -32.3930 C   0  0  0  0  0  0  0  0  0  0  0  0
   -5.8500   20.1950  -33.0980 C   0  0  0  0  0  0  0  0  0  0  0  0
   -4.5930   20.6850  -32.4300 C   0  0  0  0  0  0  0  0  0  0  0  0
   -3.4260   19.8820  -32.4360 C   0  0  0  0  0  0  0  0  0  0  0  0
   -2.2540   20.3190  -31.7990 C   0  0  0  0  0  0  0  0  0  0  0  0
   -2.2820   21.5510  -31.1520 C   0  0  0  0  0  0  0  0  0  0  0  0
   -1.2860   22.2210  -30.4800 C   0  0  0  0  0  0  0  0  0  0  0  0
   -1.8700   23.4070  -30.0390 C   0  0  0  0  0  0  0  0  0  0  0  0
   -1.1650   24.3910  -29.1920 C   0  0  0  0  0  0  0  0  0  0  0  0
   -1.7090   25.6900  -28.9700 N   0  0  0  0  0  0  0  0  0  0  0  0
   -0.0930   24.0650  -28.6180 O   0  0  0  0  0  0  0  0  0  0  0  0
   -3.1750   23.4730  -30.4330 N   0  0  0  0  0  0  0  0  0  0  0  0
   -4.0960   24.5610  -30.2550 C   0  0  0  0  0  0  0  0  0  0  0  0
   -3.8690   25.6790  -30.7870 O   0  0  0  0  0  0  0  0  0  0  0  0
   -5.2590   24.3830  -29.5150 O   0  0  0  0  0  0  0  0  0  0  0  0
   -3.4120   22.3270  -31.1110 C   0  0  0  0  0  0  0  0  0  0  0  0
   -4.5900   21.9250  -31.7530 C   0  0  0  0  0  0  0  0  0  0  0  0
   -6.9443   20.6841  -31.3039 H   0  0  0  0  0  0  0  0  0  0  0  0
   -7.2342   21.7974  -32.6834 H   0  0  0  0  0  0  0  0  0  0  0  0
   -7.9671   20.1575  -32.6834 H   0  0  0  0  0  0  0  0  0  0  0  0
   -5.8739   19.0959  -33.0608 H   0  0  0  0  0  0  0  0  0  0  0  0
   -5.8540   20.5414  -34.1420 H   0  0  0  0  0  0  0  0  0  0  0  0
   -3.4384   18.9068  -32.9447 H   0  0  0  0  0  0  0  0  0  0  0  0
   -1.3407   19.7061  -31.8108 H   0  0  0  0  0  0  0  0  0  0  0  0
   -0.2485   21.8906  -30.3238 H   0  0  0  0  0  0  0  0  0  0  0  0
   -2.7410   25.8480  -28.9780 H   0  0  0  0  0  0  0  0  0  0  0  0
   -5.4893   22.5581  -31.7307 H   0  0  0  0  0  0  0  0  0  0  0  0
  1  2  1  0
  2  3  1  0
  3  4  2  0
  4  5  1  0
  5  6  2  0
  6  7  1  0
  7  8  2  0
  8  9  1  0
  9 10  1  0
  9 11  2  0
  8 12  1  0
 12 13  1  0
 13 14  2  0
 13 15  1  0
 12 16  1  0
 16 17  2  0
 17  3  1  0
 16  6  1  0
  1 18  1  0
  1 19  1  0
  1 20  1  0
  2 21  1  0
  2 22  1  0
  4 23  1  0
  5 24  1  0
  7 25  1  0
 10 26  1  0
 17 27  1  0
M  CHG  2  10  -1  15  -1
M  END
>  <UniqueID>  (73) 
73

>  <SMILES>  (73) 
CCc1ccc2cc(C([NH-])=O)n(C(=O)[O-])c2c1

>  <Energy>  (73) 
64.01229427161668

>  <Genealogy>  (73) 
CCc1ccc2cc(C([NH-])=O)n(C(=O)[O-])c2c1 (protonated)
CCc1ccc2cc(C([NH-])=O)n(C(=O)[O-])c2c1 (3D coordinates assigned)
CCc1ccc2cc(C([NH-])=O)n(C(=O)[O-])c2c1 (optimized conformer: 64.01229427161668 kcal/mol)

>  <smiles>  (73) 
CCc1ccc2cc(C(N)=O)n(C(=O)O)c2c1

>  <score_type>  (73) 
oracle

>  <origin>  (73) 
adg

>  <m_score__min__energy>  (73) 
-9.9399999999999995

>  <m_primary>  (73) 
energy

$$$$
75:0
     RDKit          3D

 36 38  0  0  0  0  0  0  0  0999 V2000
   -4.1710   25.6460  -30.5390 N   0  0  0  0  0  0  0  0  0  0  0  0
   -5.5190   25.1990  -30.4180 C   0  0  0  0  0  0  0  0  0  0  0  0
   -6.3670   25.9520  -29.8690 O   0  0  0  0  0  0  0  0  0  0  0  0
   -5.9300   23.8630  -30.8990 C   0  0  0  0  0  0  0  0  0  0  0  0
   -7.2260   23.5610  -31.3170 C   0  0  0  0  0  0  0  0  0  0  0  0
   -7.2030   22.2250  -31.6460 C   0  0  0  0  0  0  0  0  0  0  0  0
   -8.2140   21.4060  -32.1390 C   0  0  0  0  0  0  0  0  0  0  0  0
   -7.8960   20.0670  -32.4250 C   0  0  0  0  0  0  0  0  0  0  0  0
   -6.5800   19.5730  -32.2280 C   0  0  0  0  0  0  0  0  0  0  0  0
   -6.2530   18.1610  -32.5470 C   0  0  0  0  0  0  0  0  0  0  0  0
   -6.3450   17.6810  -33.8650 C   0  0  0  0  0  0  0  0  0  0  0  0
   -6.0370   16.3510  -34.1490 C   0  0  0  0  0  0  0  0  0  0  0  0
   -5.6360   15.5030  -33.1170 C   0  0  0  0  0  0  0  0  0  0  0  0
   -5.3330   14.2090  -33.3830 F   0  0  0  0  0  0  0  0  0  0  0  0
   -5.5470   15.9740  -31.8440 N   0  0  0  0  0  0  0  0  0  0  0  0
   -5.8440   17.2680  -31.5400 C   0  0  0  0  0  0  0  0  0  0  0  0
   -5.5810   20.4420  -31.7270 C   0  0  0  0  0  0  0  0  0  0  0  0
   -5.9320   21.7630  -31.4310 C   0  0  0  0  0  0  0  0  0  0  0  0
   -5.1410   22.7540  -30.9650 N   0  0  0  0  0  0  0  0  0  0  0  0
   -3.7400   22.6510  -30.6700 C   0  0  0  0  0  0  0  0  0  0  0  0
   -2.8930   22.8120  -31.5890 O   0  0  0  0  0  0  0  0  0  0  0  0
   -3.2720   22.3850  -29.2710 C   0  0  0  0  0  0  0  0  0  0  0  0
   -2.5630   23.8980  -28.5480 S   0  0  0  0  0  0  0  0  0  0  0  0
   -4.0890   24.4670  -27.9980 O   0  0  0  0  0  0  0  0  0  0  0  0
   -3.5380   25.6760  -29.7110 H   0  0  0  0  0  0  0  0  0  0  0  0
   -8.0849   24.2460  -31.3720 H   0  0  0  0  0  0  0  0  0  0  0  0
   -9.2305   21.7943  -32.2999 H   0  0  0  0  0  0  0  0  0  0  0  0
   -8.6773   19.3931  -32.8065 H   0  0  0  0  0  0  0  0  0  0  0  0
   -6.6607   18.3560  -34.6741 H   0  0  0  0  0  0  0  0  0  0  0  0
   -6.1098   15.9734  -35.1796 H   0  0  0  0  0  0  0  0  0  0  0  0
   -5.2410   15.3310  -31.0800 H   0  0  0  0  0  0  0  0  0  0  0  0
   -5.7635   17.6171  -30.5000 H   0  0  0  0  0  0  0  0  0  0  0  0
   -4.5515   20.0861  -31.5739 H   0  0  0  0  0  0  0  0  0  0  0  0
   -4.1244   22.0546  -28.6592 H   0  0  0  0  0  0  0  0  0  0  0  0
   -2.5002   21.6015  -29.2932 H   0  0  0  0  0  0  0  0  0  0  0  0
   -4.3120   25.2160  -28.6060 H   0  0  0  0  0  0  0  0  0  0  0  0
  1  2  1  0
  2  3  2  0
  2  4  1  0
  4  5  2  0
  5  6  1  0
  6  7  2  0
  7  8  1  0
  8  9  2  0
  9 10  1  0
 10 11  2  0
 11 12  1  0
 12 13  2  0
 13 14  1  0
 13 15  1  0
 15 16  2  0
  9 17  1  0
 17 18  2  0
 18 19  1  0
 19 20  1  0
 20 21  2  0
 20 22  1  0
 22 23  1  0
 23 24  1  0
 19  4  1  0
 18  6  1  0
 16 10  1  0
  1 25  1  0
  5 26  1  0
  7 27  1  0
  8 28  1  0
 11 29  1  0
 12 30  1  0
 15 31  1  0
 16 32  1  0
 17 33  1  0
 22 34  1  0
 22 35  1  0
 24 36  1  0
M  CHG  2   1  -1  15   1
M  END
>  <UniqueID>  (74) 
74

>  <SMILES>  (74) 
[NH-]C(=O)c1cc2ccc(-c3ccc(F)[nH+]c3)cc2n1C(=O)CSO

>  <Energy>  (74) 
80.26807985009187

>  <Genealogy>  (74) 
[NH-]C(=O)c1cc2ccc(-c3ccc(F)[nH+]c3)cc2n1C(=O)CSO (protonated)
[NH-]C(=O)c1cc2ccc(-c3ccc(F)[nH+]c3)cc2n1C(=O)CSO (3D coordinates assigned)
[NH-]C(=O)c1cc2ccc(-c3ccc(F)[nH+]c3)cc2n1C(=O)CSO (optimized conformer: 80.26807985009187 kcal/mol)

>  <smiles>  (74) 
NC(=O)c1cc2ccc(-c3ccc(F)nc3)cc2n1C(=O)CSO

>  <score_type>  (74) 
oracle

>  <origin>  (74) 
adg

>  <m_score__min__energy>  (74) 
-9.8599999999999994

>  <m_primary>  (74) 
energy

$$$$
76:0
     RDKit          3D

 35 37  0  0  0  0  0  0  0  0999 V2000
   -3.9210   13.8430  -34.7640 C   0  0  0  0  0  0  0  0  0  0  0  0
   -5.2010   14.4680  -34.7650 O   0  0  0  0  0  0  0  0  0  0  0  0
   -5.4530   15.7570  -34.2750 C   0  0  0  0  0  0  0  0  0  0  0  0
   -4.5200   16.8040  -34.3890 C   0  0  0  0  0  0  0  0  0  0  0  0
   -4.8200   18.0740  -33.8850 C   0  0  0  0  0  0  0  0  0  0  0  0
   -6.0540   18.3220  -33.2580 C   0  0  0  0  0  0  0  0  0  0  0  0
   -6.3700   19.6700  -32.7220 C   0  0  0  0  0  0  0  0  0  0  0  0
   -7.7200   20.0920  -32.5970 C   0  0  0  0  0  0  0  0  0  0  0  0
   -8.0330   21.3580  -32.0780 C   0  0  0  0  0  0  0  0  0  0  0  0
   -6.9820   22.1870  -31.7010 C   0  0  0  0  0  0  0  0  0  0  0  0
   -7.0040   23.4470  -31.1490 C   0  0  0  0  0  0  0  0  0  0  0  0
   -5.6670   23.7930  -30.9660 C   0  0  0  0  0  0  0  0  0  0  0  0
   -5.2330   25.1160  -30.4690 C   0  0  0  0  0  0  0  0  0  0  0  0
   -3.9730   25.6650  -30.8470 N   0  0  0  0  0  0  0  0  0  0  0  0
   -6.0050   25.7920  -29.7390 O   0  0  0  0  0  0  0  0  0  0  0  0
   -4.8500   22.7830  -31.3810 N   0  0  0  0  0  0  0  0  0  0  0  0
   -3.4180   22.7100  -31.2830 C   0  0  0  0  0  0  0  0  0  0  0  0
   -2.8260   23.1600  -30.2670 O   0  0  0  0  0  0  0  0  0  0  0  0
   -2.6750   22.1200  -32.2990 O   0  0  0  0  0  0  0  0  0  0  0  0
   -5.6710   21.8080  -31.8310 C   0  0  0  0  0  0  0  0  0  0  0  0
   -5.3310   20.5430  -32.3250 C   0  0  0  0  0  0  0  0  0  0  0  0
   -6.9810   17.2710  -33.1470 C   0  0  0  0  0  0  0  0  0  0  0  0
   -6.6810   16.0040  -33.6510 C   0  0  0  0  0  0  0  0  0  0  0  0
   -3.5922   13.6824  -33.7267 H   0  0  0  0  0  0  0  0  0  0  0  0
   -3.9853   12.8749  -35.2823 H   0  0  0  0  0  0  0  0  0  0  0  0
   -3.1971   14.4890  -35.2823 H   0  0  0  0  0  0  0  0  0  0  0  0
   -3.5506   16.6231  -34.8765 H   0  0  0  0  0  0  0  0  0  0  0  0
   -4.0840   18.8859  -33.9800 H   0  0  0  0  0  0  0  0  0  0  0  0
   -8.5308   19.4182  -32.9109 H   0  0  0  0  0  0  0  0  0  0  0  0
   -9.0781   21.6846  -31.9726 H   0  0  0  0  0  0  0  0  0  0  0  0
   -7.8891   24.0525  -30.9042 H   0  0  0  0  0  0  0  0  0  0  0  0
   -3.0830   25.2970  -30.4460 H   0  0  0  0  0  0  0  0  0  0  0  0
   -4.2779   20.2347  -32.4027 H   0  0  0  0  0  0  0  0  0  0  0  0
   -7.9508   17.4483  -32.6590 H   0  0  0  0  0  0  0  0  0  0  0  0
   -7.4171   15.1920  -33.5567 H   0  0  0  0  0  0  0  0  0  0  0  0
  1  2  1  0
  2  3  1  0
  3  4  2  0
  4  5  1  0
  5  6  2  0
  6  7  1  0
  7  8  2  0
  8  9  1  0
  9 10  2  0
 10 11  1  0
 11 12  2  0
 12 13  1  0
 13 14  1  0
 13 15  2  0
 12 16  1  0
 16 17  1  0
 17 18  2  0
 17 19  1  0
 16 20  1  0
 20 21  2  0
  6 22  1  0
 22 23  2  0
 23  3  1  0
 21  7  1  0
 20 10  1  0
  1 24  1  0
  1 25  1  0
  1 26  1  0
  4 27  1  0
  5 28  1  0
  8 29  1  0
  9 30  1  0
 11 31  1  0
 14 32  1  0
 21 33  1  0
 22 34  1  0
 23 35  1  0
M  CHG  2  14  -1  19  -1
M  END
>  <UniqueID>  (75) 
75

>  <SMILES>  (75) 
COc1ccc(-c2ccc3cc(C([NH-])=O)n(C(=O)[O-])c3c2)cc1

>  <Energy>  (75) 
82.37918320936186

>  <Genealogy>  (75) 
COc1ccc(-c2ccc3cc(C([NH-])=O)n(C(=O)[O-])c3c2)cc1 (protonated)
COc1ccc(-c2ccc3cc(C([NH-])=O)n(C(=O)[O-])c3c2)cc1 (3D coordinates assigned)
COc1ccc(-c2ccc3cc(C([NH-])=O)n(C(=O)[O-])c3c2)cc1 (optimized conformer: 82.37918320936186 kcal/mol)

>  <smiles>  (75) 
COc1ccc(-c2ccc3cc(C(N)=O)n(C(=O)O)c3c2)cc1

>  <score_type>  (75) 
oracle

>  <origin>  (75) 
adg

>  <m_score__min__energy>  (75) 
-10.539999999999999

>  <m_primary>  (75) 
energy

$$$$
77:0
     RDKit          3D

 38 39  0  0  0  0  0  0  0  0999 V2000
   -6.8690   18.1640  -32.4670 C   0  0  0  0  0  0  0  0  0  0  0  0
   -7.0950   19.5960  -32.0810 C   0  0  0  0  0  0  0  0  0  0  0  0
   -8.3940   20.1560  -32.1630 C   0  0  0  0  0  0  0  0  0  0  0  0
   -8.6090   21.5090  -31.8520 C   0  0  0  0  0  0  0  0  0  0  0  0
   -7.5110   22.2740  -31.4710 C   0  0  0  0  0  0  0  0  0  0  0  0
   -7.4320   23.6080  -31.1450 C   0  0  0  0  0  0  0  0  0  0  0  0
   -6.0870   23.8430  -30.8620 C   0  0  0  0  0  0  0  0  0  0  0  0
   -5.5580   25.1360  -30.3740 C   0  0  0  0  0  0  0  0  0  0  0  0
   -4.2290   25.5480  -30.6950 N   0  0  0  0  0  0  0  0  0  0  0  0
   -6.2890   25.9020  -29.6930 O   0  0  0  0  0  0  0  0  0  0  0  0
   -5.3630   22.6970  -31.0120 N   0  0  0  0  0  0  0  0  0  0  0  0
   -3.9440   22.5280  -30.8690 C   0  0  0  0  0  0  0  0  0  0  0  0
   -3.1590   23.2120  -31.5790 O   0  0  0  0  0  0  0  0  0  0  0  0
   -3.4510   21.5930  -29.9470 O   0  0  0  0  0  0  0  0  0  0  0  0
   -2.9520   21.8730  -28.6310 C   0  0  0  0  0  0  0  0  0  0  0  0
   -1.5950   22.5970  -28.7100 C   0  0  0  0  0  0  0  0  0  0  0  0
   -3.9710   22.7080  -27.8320 C   0  0  0  0  0  0  0  0  0  0  0  0
   -2.7530   20.5230  -27.9260 C   0  0  0  0  0  0  0  0  0  0  0  0
   -6.2490   21.7470  -31.3840 C   0  0  0  0  0  0  0  0  0  0  0  0
   -6.0020   20.4060  -31.7050 C   0  0  0  0  0  0  0  0  0  0  0  0
   -6.7722   17.5504  -31.5592 H   0  0  0  0  0  0  0  0  0  0  0  0
   -7.7217   17.8058  -33.0624 H   0  0  0  0  0  0  0  0  0  0  0  0
   -5.9474   18.0858  -33.0624 H   0  0  0  0  0  0  0  0  0  0  0  0
   -9.2410   19.5262  -32.4727 H   0  0  0  0  0  0  0  0  0  0  0  0
   -9.6150   21.9503  -31.9080 H   0  0  0  0  0  0  0  0  0  0  0  0
   -8.2561   24.3359  -31.1141 H   0  0  0  0  0  0  0  0  0  0  0  0
   -3.8790   26.4800  -30.3790 H   0  0  0  0  0  0  0  0  0  0  0  0
   -3.5740   24.9190  -31.2100 H   0  0  0  0  0  0  0  0  0  0  0  0
   -1.2250   22.7944  -27.6931 H   0  0  0  0  0  0  0  0  0  0  0  0
   -0.8726   21.9644  -29.2467 H   0  0  0  0  0  0  0  0  0  0  0  0
   -1.7182   23.5493  -29.2467 H   0  0  0  0  0  0  0  0  0  0  0  0
   -3.7975   22.5658  -26.7551 H   0  0  0  0  0  0  0  0  0  0  0  0
   -3.8522   23.7718  -28.0852 H   0  0  0  0  0  0  0  0  0  0  0  0
   -4.9907   22.3824  -28.0852 H   0  0  0  0  0  0  0  0  0  0  0  0
   -2.7749   20.6717  -26.8363 H   0  0  0  0  0  0  0  0  0  0  0  0
   -3.5593   19.8343  -28.2184 H   0  0  0  0  0  0  0  0  0  0  0  0
   -1.7822   20.0962  -28.2184 H   0  0  0  0  0  0  0  0  0  0  0  0
   -4.9825   19.9949  -31.6651 H   0  0  0  0  0  0  0  0  0  0  0  0
  1  2  1  0
  2  3  2  0
  3  4  1  0
  4  5  2  0
  5  6  1  0
  6  7  2  0
  7  8  1  0
  8  9  1  0
  8 10  2  0
  7 11  1  0
 11 12  1  0
 12 13  2  0
 12 14  1  0
 14 15  1  0
 15 16  1  0
 15 17  1  0
 15 18  1  0
 11 19  1  0
 19 20  2  0
 20  2  1  0
 19  5  1  0
  1 21  1  0
  1 22  1  0
  1 23  1  0
  3 24  1  0
  4 25  1  0
  6 26  1  0
  9 27  1  0
  9 28  1  0
 16 29  1  0
 16 30  1  0
 16 31  1  0
 17 32  1  0
 17 33  1  0
 17 34  1  0
 18 35  1  0
 18 36  1  0
 18 37  1  0
 20 38  1  0
M  END
>  <UniqueID>  (76) 
76

>  <SMILES>  (76) 
Cc1ccc2cc(C(N)=O)n(C(=O)OC(C)(C)C)c2c1

>  <Energy>  (76) 
70.74974092360243

>  <Genealogy>  (76) 
Cc1ccc2cc(C(N)=O)n(C(=O)OC(C)(C)C)c2c1 (3D coordinates assigned)
Cc1ccc2cc(C(N)=O)n(C(=O)OC(C)(C)C)c2c1 (optimized conformer: 70.74974092360243 kcal/mol)

>  <smiles>  (76) 
Cc1ccc2cc(C(N)=O)n(C(=O)OC(C)(C)C)c2c1

>  <score_type>  (76) 
oracle

>  <origin>  (76) 
adg

>  <m_score__min__energy>  (76) 
-8.5199999999999996

>  <m_primary>  (76) 
energy

$$$$
78:0
     RDKit          3D

 36 38  0  0  0  0  0  0  0  0999 V2000
   -5.5010   26.5340  -30.2890 N   0  0  0  0  0  0  0  0  0  0  0  0
   -6.3730   25.4700  -29.9070 C   0  0  0  0  0  0  0  0  0  0  0  0
   -7.2050   25.6550  -28.9800 O   0  0  0  0  0  0  0  0  0  0  0  0
   -6.3630   24.1800  -30.6240 C   0  0  0  0  0  0  0  0  0  0  0  0
   -7.5210   23.5130  -31.0150 C   0  0  0  0  0  0  0  0  0  0  0  0
   -7.0860   22.4040  -31.7020 C   0  0  0  0  0  0  0  0  0  0  0  0
   -7.8160   21.3820  -32.3000 C   0  0  0  0  0  0  0  0  0  0  0  0
   -7.1070   20.3350  -32.9120 C   0  0  0  0  0  0  0  0  0  0  0  0
   -5.6870   20.3190  -32.9080 C   0  0  0  0  0  0  0  0  0  0  0  0
   -4.9470   19.2010  -33.5460 C   0  0  0  0  0  0  0  0  0  0  0  0
   -5.6430   18.1270  -34.1280 C   0  0  0  0  0  0  0  0  0  0  0  0
   -4.9470   17.0750  -34.7250 C   0  0  0  0  0  0  0  0  0  0  0  0
   -3.5510   17.0820  -34.7500 C   0  0  0  0  0  0  0  0  0  0  0  0
   -2.8350   18.1400  -34.1790 C   0  0  0  0  0  0  0  0  0  0  0  0
   -1.4320   18.0940  -34.2350 O   0  0  0  0  0  0  0  0  0  0  0  0
   -0.5680   17.8890  -33.1190 C   0  0  0  0  0  0  0  0  0  0  0  0
   -0.8800   16.6800  -32.5280 F   0  0  0  0  0  0  0  0  0  0  0  0
    0.7500   17.8560  -33.5360 F   0  0  0  0  0  0  0  0  0  0  0  0
   -0.7430   18.8990  -32.1890 F   0  0  0  0  0  0  0  0  0  0  0  0
   -3.5400   19.2010  -33.5770 C   0  0  0  0  0  0  0  0  0  0  0  0
   -4.9820   21.3770  -32.2850 C   0  0  0  0  0  0  0  0  0  0  0  0
   -5.7150   22.4200  -31.7030 C   0  0  0  0  0  0  0  0  0  0  0  0
   -5.2540   23.5050  -31.0400 N   0  0  0  0  0  0  0  0  0  0  0  0
   -3.8830   23.8100  -30.7300 C   0  0  0  0  0  0  0  0  0  0  0  0
   -3.0280   22.8900  -30.6410 O   0  0  0  0  0  0  0  0  0  0  0  0
   -3.4880   25.1250  -30.5180 O   0  0  0  0  0  0  0  0  0  0  0  0
   -4.9200   26.4710  -31.1540 H   0  0  0  0  0  0  0  0  0  0  0  0
   -5.4970   27.4270  -29.7490 H   0  0  0  0  0  0  0  0  0  0  0  0
   -8.5615   23.8098  -30.8167 H   0  0  0  0  0  0  0  0  0  0  0  0
   -8.9159   21.3933  -32.2938 H   0  0  0  0  0  0  0  0  0  0  0  0
   -7.6583   19.5178  -33.4001 H   0  0  0  0  0  0  0  0  0  0  0  0
   -6.7428   18.1158  -34.1127 H   0  0  0  0  0  0  0  0  0  0  0  0
   -5.4996   16.2382  -35.1770 H   0  0  0  0  0  0  0  0  0  0  0  0
   -3.0097   16.2491  -35.2224 H   0  0  0  0  0  0  0  0  0  0  0  0
   -2.9853   20.0375  -33.1269 H   0  0  0  0  0  0  0  0  0  0  0  0
   -3.8823   21.3802  -32.2584 H   0  0  0  0  0  0  0  0  0  0  0  0
  1  2  1  0
  2  3  2  0
  2  4  1  0
  4  5  2  0
  5  6  1  0
  6  7  2  0
  7  8  1  0
  8  9  2  0
  9 10  1  0
 10 11  2  0
 11 12  1  0
 12 13  2  0
 13 14  1  0
 14 15  1  0
 15 16  1  0
 16 17  1  0
 16 18  1  0
 16 19  1  0
 14 20  2  0
  9 21  1  0
 21 22  2  0
 22 23  1  0
 23 24  1  0
 24 25  2  0
 24 26  1  0
 23  4  1  0
 22  6  1  0
 20 10  1  0
  1 27  1  0
  1 28  1  0
  5 29  1  0
  7 30  1  0
  8 31  1  0
 11 32  1  0
 12 33  1  0
 13 34  1  0
 20 35  1  0
 21 36  1  0
M  CHG  1  26  -1
M  END
>  <UniqueID>  (77) 
77

>  <SMILES>  (77) 
NC(=O)c1cc2ccc(-c3cccc(OC(F)(F)F)c3)cc2n1C(=O)[O-]

>  <Energy>  (77) 
84.21519514883349

>  <Genealogy>  (77) 
NC(=O)c1cc2ccc(-c3cccc(OC(F)(F)F)c3)cc2n1C(=O)[O-] (protonated)
NC(=O)c1cc2ccc(-c3cccc(OC(F)(F)F)c3)cc2n1C(=O)[O-] (3D coordinates assigned)
NC(=O)c1cc2ccc(-c3cccc(OC(F)(F)F)c3)cc2n1C(=O)[O-] (optimized conformer: 84.21519514883349 kcal/mol)

>  <smiles>  (77) 
NC(=O)c1cc2ccc(-c3cccc(OC(F)(F)F)c3)cc2n1C(=O)O

>  <score_type>  (77) 
oracle

>  <origin>  (77) 
adg

>  <m_score__min__energy>  (77) 
-9.2599999999999998

>  <m_primary>  (77) 
energy

$$$$
79:0
     RDKit          3D

 34 36  0  0  0  0  0  0  0  0999 V2000
   -3.8750   25.6570  -30.8300 N   0  0  0  0  0  0  0  0  0  0  0  0
   -5.2040   25.2390  -30.5260 C   0  0  0  0  0  0  0  0  0  0  0  0
   -5.9220   25.9590  -29.7820 O   0  0  0  0  0  0  0  0  0  0  0  0
   -5.7260   23.9490  -31.0210 C   0  0  0  0  0  0  0  0  0  0  0  0
   -7.0850   23.6840  -31.1820 C   0  0  0  0  0  0  0  0  0  0  0  0
   -7.1570   22.3640  -31.5620 C   0  0  0  0  0  0  0  0  0  0  0  0
   -8.2670   21.5780  -31.8650 C   0  0  0  0  0  0  0  0  0  0  0  0
   -8.0430   20.2470  -32.2570 C   0  0  0  0  0  0  0  0  0  0  0  0
   -6.7260   19.7370  -32.3410 C   0  0  0  0  0  0  0  0  0  0  0  0
   -6.5100   18.3760  -32.7540 C   0  0  0  0  0  0  0  0  0  0  0  0
   -6.3290   17.2360  -33.1000 C   0  0  0  0  0  0  0  0  0  0  0  0
   -6.1120   15.8750  -33.5150 C   0  0  0  0  0  0  0  0  0  0  0  0
   -7.1070   15.1910  -34.2270 C   0  0  0  0  0  0  0  0  0  0  0  0
   -6.8960   13.8670  -34.6290 C   0  0  0  0  0  0  0  0  0  0  0  0
   -5.6910   13.2260  -34.3220 C   0  0  0  0  0  0  0  0  0  0  0  0
   -4.6960   13.9080  -33.6140 C   0  0  0  0  0  0  0  0  0  0  0  0
   -4.9060   15.2300  -33.2090 C   0  0  0  0  0  0  0  0  0  0  0  0
   -5.6250   20.5580  -32.0280 C   0  0  0  0  0  0  0  0  0  0  0  0
   -5.8770   21.8750  -31.6250 C   0  0  0  0  0  0  0  0  0  0  0  0
   -4.9860   22.8370  -31.2990 N   0  0  0  0  0  0  0  0  0  0  0  0
   -3.5560   22.7210  -31.3440 C   0  0  0  0  0  0  0  0  0  0  0  0
   -2.7600   23.2000  -30.2610 N   0  0  0  0  0  0  0  0  0  0  0  0
   -2.9930   22.2230  -32.3560 O   0  0  0  0  0  0  0  0  0  0  0  0
   -3.0610   25.2960  -30.2850 H   0  0  0  0  0  0  0  0  0  0  0  0
   -7.9223   24.3824  -31.0361 H   0  0  0  0  0  0  0  0  0  0  0  0
   -9.2863   21.9863  -31.7995 H   0  0  0  0  0  0  0  0  0  0  0  0
   -8.8970   19.5977  -32.5000 H   0  0  0  0  0  0  0  0  0  0  0  0
   -8.0541   15.6950  -34.4699 H   0  0  0  0  0  0  0  0  0  0  0  0
   -7.6778   13.3304  -35.1865 H   0  0  0  0  0  0  0  0  0  0  0  0
   -5.5260   12.1852  -34.6375 H   0  0  0  0  0  0  0  0  0  0  0  0
   -3.7477   13.4042  -33.3756 H   0  0  0  0  0  0  0  0  0  0  0  0
   -4.1238   15.7641  -32.6497 H   0  0  0  0  0  0  0  0  0  0  0  0
   -4.5961   20.1752  -32.0982 H   0  0  0  0  0  0  0  0  0  0  0  0
   -2.3940   24.1770  -30.2560 H   0  0  0  0  0  0  0  0  0  0  0  0
  1  2  1  0
  2  3  2  0
  2  4  1  0
  4  5  2  0
  5  6  1  0
  6  7  2  0
  7  8  1  0
  8  9  2  0
  9 10  1  0
 10 11  3  0
 11 12  1  0
 12 13  2  0
 13 14  1  0
 14 15  2  0
 15 16  1  0
 16 17  2  0
  9 18  1  0
 18 19  2  0
 19 20  1  0
 20 21  1  0
 21 22  1  0
 21 23  2  0
 20  4  1  0
 19  6  1  0
 17 12  1  0
  1 24  1  0
  5 25  1  0
  7 26  1  0
  8 27  1  0
 13 28  1  0
 14 29  1  0
 15 30  1  0
 16 31  1  0
 17 32  1  0
 18 33  1  0
 22 34  1  0
M  CHG  2   1  -1  22  -1
M  END
>  <UniqueID>  (78) 
78

>  <SMILES>  (78) 
[NH-]C(=O)c1cc2ccc(C#Cc3ccccc3)cc2n1C([NH-])=O

>  <Energy>  (78) 
72.57583621758336

>  <Genealogy>  (78) 
[NH-]C(=O)c1cc2ccc(C#Cc3ccccc3)cc2n1C([NH-])=O (protonated)
[NH-]C(=O)c1cc2ccc(C#Cc3ccccc3)cc2n1C([NH-])=O (3D coordinates assigned)
[NH-]C(=O)c1cc2ccc(C#Cc3ccccc3)cc2n1C([NH-])=O (optimized conformer: 72.57583621758336 kcal/mol)

>  <smiles>  (78) 
NC(=O)c1cc2ccc(C#Cc3ccccc3)cc2n1C(N)=O

>  <score_type>  (78) 
oracle

>  <origin>  (78) 
adg

>  <m_score__min__energy>  (78) 
-11.1

>  <m_primary>  (78) 
energy

$$$$
80:0
     RDKit          3D

 41 43  0  0  0  0  0  0  0  0999 V2000
   -1.7220   21.2120  -28.7260 C   0  0  0  0  0  0  0  0  0  0  0  0
   -1.9610   22.1140  -29.8930 C   0  0  0  0  0  0  0  0  0  0  0  0
   -1.1290   22.1320  -30.8400 O   0  0  0  0  0  0  0  0  0  0  0  0
   -3.1270   22.9510  -29.9520 N   0  0  0  0  0  0  0  0  0  0  0  0
   -3.2940   24.1860  -29.3990 C   0  0  0  0  0  0  0  0  0  0  0  0
   -2.3370   24.8770  -28.5100 C   0  0  0  0  0  0  0  0  0  0  0  0
   -1.5930   26.0040  -28.9640 N   0  0  0  0  0  0  0  0  0  0  0  0
   -2.1490   24.4460  -27.3400 O   0  0  0  0  0  0  0  0  0  0  0  0
   -4.5440   24.7050  -29.7360 C   0  0  0  0  0  0  0  0  0  0  0  0
   -5.1410   23.7410  -30.5180 C   0  0  0  0  0  0  0  0  0  0  0  0
   -6.3890   23.7350  -31.1330 C   0  0  0  0  0  0  0  0  0  0  0  0
   -6.7360   22.6130  -31.9060 C   0  0  0  0  0  0  0  0  0  0  0  0
   -5.8330   21.5290  -32.0600 C   0  0  0  0  0  0  0  0  0  0  0  0
   -6.2280   20.3270  -32.9010 C   0  0  1  0  0  0  0  0  0  0  0  0
   -4.9840   19.6160  -33.4660 C   0  0  0  0  0  0  0  0  0  0  0  0
   -5.4150   18.5200  -34.3240 N   0  0  0  0  0  0  0  0  0  0  0  0
   -6.4570   17.6580  -33.8660 C   0  0  0  0  0  0  0  0  0  0  0  0
   -6.8780   16.7240  -34.6000 O   0  0  0  0  0  0  0  0  0  0  0  0
   -7.0070   17.8490  -32.4840 C   0  0  0  0  0  0  0  0  0  0  0  0
   -7.1710   19.3530  -32.1100 C   0  0  2  0  0  0  0  0  0  0  0  0
   -8.6360   19.7900  -32.2660 C   0  0  0  0  0  0  0  0  0  0  0  0
   -4.5740   21.5760  -31.4140 C   0  0  0  0  0  0  0  0  0  0  0  0
   -4.2650   22.6950  -30.6350 C   0  0  0  0  0  0  0  0  0  0  0  0
   -1.8708   21.7736  -27.7920 H   0  0  0  0  0  0  0  0  0  0  0  0
   -2.4278   20.3691  -28.7635 H   0  0  0  0  0  0  0  0  0  0  0  0
   -0.6914   20.8292  -28.7635 H   0  0  0  0  0  0  0  0  0  0  0  0
   -1.2390   26.0530  -29.9440 H   0  0  0  0  0  0  0  0  0  0  0  0
   -4.9639   25.6777  -29.4401 H   0  0  0  0  0  0  0  0  0  0  0  0
   -7.0823   24.5813  -31.0181 H   0  0  0  0  0  0  0  0  0  0  0  0
   -7.7194   22.5749  -32.3974 H   0  0  0  0  0  0  0  0  0  0  0  0
   -6.8096   20.6895  -33.7614 H   0  0  0  0  0  0  0  0  0  0  0  0
   -4.3850   20.3293  -34.0512 H   0  0  0  0  0  0  0  0  0  0  0  0
   -4.3719   19.2241  -32.6403 H   0  0  0  0  0  0  0  0  0  0  0  0
   -5.0440   18.4300  -35.2970 H   0  0  0  0  0  0  0  0  0  0  0  0
   -7.9913   17.3615  -32.4255 H   0  0  0  0  0  0  0  0  0  0  0  0
   -6.2928   17.4041  -31.7754 H   0  0  0  0  0  0  0  0  0  0  0  0
   -6.8629   19.4279  -31.0567 H   0  0  0  0  0  0  0  0  0  0  0  0
   -9.0864   19.9244  -31.2715 H   0  0  0  0  0  0  0  0  0  0  0  0
   -8.6784   20.7399  -32.8191 H   0  0  0  0  0  0  0  0  0  0  0  0
   -9.1918   19.0186  -32.8191 H   0  0  0  0  0  0  0  0  0  0  0  0
   -3.8551   20.7506  -31.5226 H   0  0  0  0  0  0  0  0  0  0  0  0
  1  2  1  0
  2  3  2  0
  2  4  1  0
  4  5  1  0
  5  6  1  0
  6  7  1  0
  6  8  2  0
  5  9  2  0
  9 10  1  0
 10 11  2  0
 11 12  1  0
 12 13  2  0
 13 14  1  0
 14 15  1  0
 15 16  1  0
 16 17  1  0
 17 18  2  0
 17 19  1  0
 19 20  1  0
 20 21  1  0
 13 22  1  0
 22 23  2  0
 23  4  1  0
 23 10  1  0
 20 14  1  0
  1 24  1  0
  1 25  1  0
  1 26  1  0
  7 27  1  0
  9 28  1  0
 11 29  1  0
 12 30  1  0
 14 31  1  6
 15 32  1  0
 15 33  1  0
 16 34  1  0
 19 35  1  0
 19 36  1  0
 20 37  1  1
 21 38  1  0
 21 39  1  0
 21 40  1  0
 22 41  1  0
M  CHG  1   7  -1
M  END
>  <UniqueID>  (79) 
79

>  <SMILES>  (79) 
CC(=O)n1c(C([NH-])=O)cc2ccc([C@H]3CNC(=O)C[C@@H]3C)cc21

>  <Energy>  (79) 
82.76413998636862

>  <Genealogy>  (79) 
CC(=O)n1c(C([NH-])=O)cc2ccc(C3CNC(=O)CC3C)cc21 (protonated)
CC(=O)n1c(C([NH-])=O)cc2ccc([C@H]3CNC(=O)C[C@@H]3C)cc21 (chirality)
CC(=O)n1c(C([NH-])=O)cc2ccc([C@H]3CNC(=O)C[C@@H]3C)cc21 (3D coordinates assigned)
CC(=O)n1c(C([NH-])=O)cc2ccc([C@H]3CNC(=O)C[C@@H]3C)cc21 (nonaromatic ring conformer: 82.76413998636862 kcal/mol)

>  <smiles>  (79) 
CC(=O)n1c(C(N)=O)cc2ccc(C3CNC(=O)CC3C)cc21

>  <score_type>  (79) 
oracle

>  <origin>  (79) 
adg

>  <m_score__min__energy>  (79) 
-11.029999999999999

>  <m_primary>  (79) 
energy

$$$$
81:0
     RDKit          3D

 34 35  0  0  0  0  0  0  0  0999 V2000
   -9.3580   21.6920  -31.9660 C   0  0  0  0  0  0  0  0  0  0  0  0
   -8.5930   20.4990  -31.3910 C   0  0  0  0  0  0  0  0  0  0  0  0
   -7.9350   19.6310  -32.4780 C   0  0  0  0  0  0  0  0  0  0  0  0
   -6.9610   20.3960  -33.3900 C   0  0  0  0  0  0  0  0  0  0  0  0
   -5.6580   20.7070  -32.6990 C   0  0  0  0  0  0  0  0  0  0  0  0
   -4.5960   19.7680  -32.7190 C   0  0  0  0  0  0  0  0  0  0  0  0
   -3.3930   20.0330  -32.0450 C   0  0  0  0  0  0  0  0  0  0  0  0
   -3.2780   21.2440  -31.3680 C   0  0  0  0  0  0  0  0  0  0  0  0
   -2.2420   21.7380  -30.6100 C   0  0  0  0  0  0  0  0  0  0  0  0
   -2.6750   22.9820  -30.1550 C   0  0  0  0  0  0  0  0  0  0  0  0
   -1.8290   23.8970  -29.3600 C   0  0  0  0  0  0  0  0  0  0  0  0
   -2.0730   25.3000  -29.3510 N   0  0  0  0  0  0  0  0  0  0  0  0
   -0.8490   23.4360  -28.7160 O   0  0  0  0  0  0  0  0  0  0  0  0
   -3.9350   23.2430  -30.6080 N   0  0  0  0  0  0  0  0  0  0  0  0
   -4.7650   24.3730  -30.2960 C   0  0  0  0  0  0  0  0  0  0  0  0
   -4.4620   25.6580  -30.8360 N   0  0  0  0  0  0  0  0  0  0  0  0
   -5.7730   24.2330  -29.5530 O   0  0  0  0  0  0  0  0  0  0  0  0
   -4.2890   22.1700  -31.3500 C   0  0  0  0  0  0  0  0  0  0  0  0
   -5.5060   21.9230  -31.9960 C   0  0  0  0  0  0  0  0  0  0  0  0
   -9.7519   22.3062  -31.1428 H   0  0  0  0  0  0  0  0  0  0  0  0
   -8.6801   22.2987  -32.5844 H   0  0  0  0  0  0  0  0  0  0  0  0
  -10.1922   21.3291  -32.5844 H   0  0  0  0  0  0  0  0  0  0  0  0
   -7.8076   20.8760  -30.7194 H   0  0  0  0  0  0  0  0  0  0  0  0
   -9.3183   19.8672  -30.8574 H   0  0  0  0  0  0  0  0  0  0  0  0
   -7.3801   18.8202  -31.9833 H   0  0  0  0  0  0  0  0  0  0  0  0
   -8.7465   19.2604  -33.1215 H   0  0  0  0  0  0  0  0  0  0  0  0
   -6.7527   19.7828  -34.2792 H   0  0  0  0  0  0  0  0  0  0  0  0
   -7.4341   21.3507  -33.6635 H   0  0  0  0  0  0  0  0  0  0  0  0
   -4.7156   18.8223  -33.2680 H   0  0  0  0  0  0  0  0  0  0  0  0
   -2.5672   19.3064  -32.0517 H   0  0  0  0  0  0  0  0  0  0  0  0
   -1.2758   21.2535  -30.4060 H   0  0  0  0  0  0  0  0  0  0  0  0
   -3.0470   25.6770  -29.3460 H   0  0  0  0  0  0  0  0  0  0  0  0
   -3.4760   25.9900  -30.9070 H   0  0  0  0  0  0  0  0  0  0  0  0
   -6.3239   22.6576  -31.9572 H   0  0  0  0  0  0  0  0  0  0  0  0
  1  2  1  0
  2  3  1  0
  3  4  1  0
  4  5  1  0
  5  6  2  0
  6  7  1  0
  7  8  2  0
  8  9  1  0
  9 10  2  0
 10 11  1  0
 11 12  1  0
 11 13  2  0
 10 14  1  0
 14 15  1  0
 15 16  1  0
 15 17  2  0
 14 18  1  0
 18 19  2  0
 19  5  1  0
 18  8  1  0
  1 20  1  0
  1 21  1  0
  1 22  1  0
  2 23  1  0
  2 24  1  0
  3 25  1  0
  3 26  1  0
  4 27  1  0
  4 28  1  0
  6 29  1  0
  7 30  1  0
  9 31  1  0
 12 32  1  0
 16 33  1  0
 19 34  1  0
M  CHG  2  12  -1  16  -1
M  END
>  <UniqueID>  (80) 
80

>  <SMILES>  (80) 
CCCCc1ccc2cc(C([NH-])=O)n(C([NH-])=O)c2c1

>  <Energy>  (80) 
67.26146269694652

>  <Genealogy>  (80) 
CCCCc1ccc2cc(C([NH-])=O)n(C([NH-])=O)c2c1 (protonated)
CCCCc1ccc2cc(C([NH-])=O)n(C([NH-])=O)c2c1 (3D coordinates assigned)
CCCCc1ccc2cc(C([NH-])=O)n(C([NH-])=O)c2c1 (optimized conformer: 67.26146269694652 kcal/mol)

>  <smiles>  (80) 
CCCCc1ccc2cc(C(N)=O)n(C(N)=O)c2c1

>  <score_type>  (80) 
oracle

>  <origin>  (80) 
adg

>  <m_score__min__energy>  (80) 
-10.51

>  <m_primary>  (80) 
energy

$$$$
82:0
     RDKit          3D

 61 63  0  0  0  0  0  0  0  0999 V2000
    0.2220   17.7040  -35.4890 C   0  0  0  0  0  0  0  0  0  0  0  0
   -1.0120   17.0520  -35.0750 N   0  0  0  0  0  0  0  0  0  0  0  0
   -2.0920   17.7600  -34.4580 C   0  0  0  0  0  0  0  0  0  0  0  0
   -2.0910   19.0210  -34.4240 O   0  0  0  0  0  0  0  0  0  0  0  0
   -3.2140   16.9950  -33.8230 C   0  0  0  0  0  0  0  0  0  0  0  0
   -4.5220   17.4200  -34.3640 N   0  0  0  0  0  0  0  0  0  0  0  0
   -4.9340   18.7380  -33.8120 C   0  0  0  0  0  0  0  0  0  0  0  0
   -6.4460   18.9640  -33.9300 C   0  0  0  0  0  0  0  0  0  0  0  0
   -7.2400   17.9090  -33.1180 C   0  0  0  0  0  0  0  0  0  0  0  0
   -7.6490   18.4680  -31.7370 C   0  0  0  0  0  0  0  0  0  0  0  0
   -7.5540   19.9710  -31.6890 C   0  0  0  0  0  0  0  0  0  0  0  0
   -8.6750   20.7680  -32.0310 C   0  0  0  0  0  0  0  0  0  0  0  0
   -8.6060   22.1700  -31.9600 C   0  0  0  0  0  0  0  0  0  0  0  0
   -7.4150   22.7440  -31.5240 C   0  0  0  0  0  0  0  0  0  0  0  0
   -7.0710   24.0680  -31.3690 C   0  0  0  0  0  0  0  0  0  0  0  0
   -5.7600   24.0560  -30.8930 C   0  0  0  0  0  0  0  0  0  0  0  0
   -5.0280   25.2760  -30.4970 C   0  0  0  0  0  0  0  0  0  0  0  0
   -3.6030   25.2940  -30.4460 N   0  0  0  0  0  0  0  0  0  0  0  0
   -5.6710   26.3040  -30.1520 O   0  0  0  0  0  0  0  0  0  0  0  0
   -5.3100   22.7740  -30.7690 N   0  0  0  0  0  0  0  0  0  0  0  0
   -4.0090   22.3220  -30.3620 C   0  0  0  0  0  0  0  0  0  0  0  0
   -3.8310   21.9140  -29.1830 O   0  0  0  0  0  0  0  0  0  0  0  0
   -2.9480   22.3720  -31.2790 O   0  0  0  0  0  0  0  0  0  0  0  0
   -2.6700   21.4190  -32.3130 C   0  0  0  0  0  0  0  0  0  0  0  0
   -1.2080   21.5420  -32.7860 C   0  0  0  0  0  0  0  0  0  0  0  0
   -3.6410   21.6050  -33.4940 C   0  0  0  0  0  0  0  0  0  0  0  0
   -2.8830   20.0220  -31.7110 C   0  0  0  0  0  0  0  0  0  0  0  0
   -6.3320   21.9850  -31.1600 C   0  0  0  0  0  0  0  0  0  0  0  0
   -6.3630   20.5890  -31.2510 C   0  0  0  0  0  0  0  0  0  0  0  0
   -6.4470   16.5850  -32.9810 C   0  0  0  0  0  0  0  0  0  0  0  0
   -5.5470   16.3530  -34.2020 C   0  0  0  0  0  0  0  0  0  0  0  0
    0.7936   18.0060  -34.5990 H   0  0  0  0  0  0  0  0  0  0  0  0
    0.8220   17.0052  -36.0904 H   0  0  0  0  0  0  0  0  0  0  0  0
   -0.0172   18.5934  -36.0904 H   0  0  0  0  0  0  0  0  0  0  0  0
   -3.0747   15.9221  -34.0217 H   0  0  0  0  0  0  0  0  0  0  0  0
   -3.2029   17.1929  -32.7410 H   0  0  0  0  0  0  0  0  0  0  0  0
   -4.6503   18.7825  -32.7502 H   0  0  0  0  0  0  0  0  0  0  0  0
   -4.4272   19.5226  -34.3930 H   0  0  0  0  0  0  0  0  0  0  0  0
   -6.6890   19.9666  -33.5483 H   0  0  0  0  0  0  0  0  0  0  0  0
   -6.7286   18.8707  -34.9890 H   0  0  0  0  0  0  0  0  0  0  0  0
   -8.1612   17.6810  -33.6742 H   0  0  0  0  0  0  0  0  0  0  0  0
   -8.6867   18.1703  -31.5259 H   0  0  0  0  0  0  0  0  0  0  0  0
   -6.9583   18.0585  -30.9852 H   0  0  0  0  0  0  0  0  0  0  0  0
   -9.6083   20.2845  -32.3552 H   0  0  0  0  0  0  0  0  0  0  0  0
   -9.4669   22.7947  -32.2404 H   0  0  0  0  0  0  0  0  0  0  0  0
   -7.6971   24.9483  -31.5765 H   0  0  0  0  0  0  0  0  0  0  0  0
   -3.0400   24.5470  -30.9090 H   0  0  0  0  0  0  0  0  0  0  0  0
   -0.5432   21.5979  -31.9114 H   0  0  0  0  0  0  0  0  0  0  0  0
   -0.9435   20.6629  -33.3920 H   0  0  0  0  0  0  0  0  0  0  0  0
   -1.0941   22.4529  -33.3920 H   0  0  0  0  0  0  0  0  0  0  0  0
   -4.6532   21.7989  -33.1094 H   0  0  0  0  0  0  0  0  0  0  0  0
   -3.3127   22.4566  -34.1080 H   0  0  0  0  0  0  0  0  0  0  0  0
   -3.6506   20.6924  -34.1080 H   0  0  0  0  0  0  0  0  0  0  0  0
   -2.8726   20.0903  -30.6132 H   0  0  0  0  0  0  0  0  0  0  0  0
   -3.8524   19.6230  -32.0444 H   0  0  0  0  0  0  0  0  0  0  0  0
   -2.0766   19.3522  -32.0444 H   0  0  0  0  0  0  0  0  0  0  0  0
   -5.4804   19.9877  -30.9875 H   0  0  0  0  0  0  0  0  0  0  0  0
   -5.8217   16.6323  -32.0772 H   0  0  0  0  0  0  0  0  0  0  0  0
   -7.1636   15.7534  -32.9113 H   0  0  0  0  0  0  0  0  0  0  0  0
   -5.0350   15.3865  -34.0846 H   0  0  0  0  0  0  0  0  0  0  0  0
   -6.1869   16.3649  -35.0967 H   0  0  0  0  0  0  0  0  0  0  0  0
  1  2  1  0
  2  3  1  0
  3  4  2  0
  3  5  1  0
  5  6  1  0
  6  7  1  0
  7  8  1  0
  8  9  1  0
  9 10  1  0
 10 11  1  0
 11 12  2  0
 12 13  1  0
 13 14  2  0
 14 15  1  0
 15 16  2  0
 16 17  1  0
 17 18  1  0
 17 19  2  0
 16 20  1  0
 20 21  1  0
 21 22  2  0
 21 23  1  0
 23 24  1  0
 24 25  1  0
 24 26  1  0
 24 27  1  0
 20 28  1  0
 28 29  2  0
  9 30  1  0
 30 31  1  0
 31  6  1  0
 29 11  1  0
 28 14  1  0
  1 32  1  0
  1 33  1  0
  1 34  1  0
  5 35  1  0
  5 36  1  0
  7 37  1  0
  7 38  1  0
  8 39  1  0
  8 40  1  0
  9 41  1  0
 10 42  1  0
 10 43  1  0
 12 44  1  0
 13 45  1  0
 15 46  1  0
 18 47  1  0
 25 48  1  0
 25 49  1  0
 25 50  1  0
 26 51  1  0
 26 52  1  0
 26 53  1  0
 27 54  1  0
 27 55  1  0
 27 56  1  0
 29 57  1  0
 30 58  1  0
 30 59  1  0
 31 60  1  0
 31 61  1  0
M  CHG  2   2  -1  18  -1
M  END
>  <UniqueID>  (81) 
81

>  <SMILES>  (81) 
C[N-]C(=O)CN1CCC(Cc2ccc3cc(C([NH-])=O)n(C(=O)OC(C)(C)C)c3c2)CC1

>  <Energy>  (81) 
97.83527756507736

>  <Genealogy>  (81) 
C[N-]C(=O)CN1CCC(Cc2ccc3cc(C([NH-])=O)n(C(=O)OC(C)(C)C)c3c2)CC1 (protonated)
C[N-]C(=O)CN1CCC(Cc2ccc3cc(C([NH-])=O)n(C(=O)OC(C)(C)C)c3c2)CC1 (3D coordinates assigned)
C[N-]C(=O)CN1CCC(Cc2ccc3cc(C([NH-])=O)n(C(=O)OC(C)(C)C)c3c2)CC1 (nonaromatic ring conformer: 97.83527756507736 kcal/mol)

>  <smiles>  (81) 
CNC(=O)CN1CCC(Cc2ccc3cc(C(N)=O)n(C(=O)OC(C)(C)C)c3c2)CC1

>  <score_type>  (81) 
oracle

>  <origin>  (81) 
adg

>  <m_score__min__energy>  (81) 
-12.220000000000001

>  <m_primary>  (81) 
energy

$$$$
83:0
     RDKit          3D

 40 42  0  0  0  0  0  0  0  0999 V2000
   -2.2620   20.0740  -33.4470 C   0  0  0  0  0  0  0  0  0  0  0  0
   -2.2230   20.8540  -32.1380 C   0  0  0  0  0  0  0  0  0  0  0  0
   -2.9190   22.0910  -32.2700 O   0  0  0  0  0  0  0  0  0  0  0  0
   -3.6790   22.6630  -31.2430 C   0  0  0  0  0  0  0  0  0  0  0  0
   -3.1120   23.1300  -30.2170 O   0  0  0  0  0  0  0  0  0  0  0  0
   -5.1110   22.7150  -31.3550 N   0  0  0  0  0  0  0  0  0  0  0  0
   -5.9370   23.7220  -30.9590 C   0  0  0  0  0  0  0  0  0  0  0  0
   -5.5110   25.0500  -30.4710 C   0  0  0  0  0  0  0  0  0  0  0  0
   -4.1710   25.5090  -30.6490 N   0  0  0  0  0  0  0  0  0  0  0  0
   -6.3590   25.8130  -29.9380 O   0  0  0  0  0  0  0  0  0  0  0  0
   -7.2710   23.3580  -31.1240 C   0  0  0  0  0  0  0  0  0  0  0  0
   -7.2360   22.0880  -31.6520 C   0  0  0  0  0  0  0  0  0  0  0  0
   -8.2810   21.2390  -32.0010 C   0  0  0  0  0  0  0  0  0  0  0  0
   -7.9570   19.9620  -32.4890 C   0  0  0  0  0  0  0  0  0  0  0  0
   -6.6020   19.5520  -32.6110 C   0  0  0  0  0  0  0  0  0  0  0  0
   -6.2720   18.1940  -33.1160 C   0  0  0  0  0  0  0  0  0  0  0  0
   -5.0150   17.9120  -33.6740 C   0  0  0  0  0  0  0  0  0  0  0  0
   -4.7370   16.6650  -34.1330 N   0  0  0  0  0  0  0  0  0  0  0  0
   -5.6540   15.6650  -34.0490 C   0  0  0  0  0  0  0  0  0  0  0  0
   -5.3350   14.3130  -34.5930 C   0  0  0  0  0  0  0  0  0  0  0  0
   -6.8810   15.9170  -33.5250 N   0  0  0  0  0  0  0  0  0  0  0  0
   -7.2060   17.1500  -33.0580 C   0  0  0  0  0  0  0  0  0  0  0  0
   -5.5710   20.4470  -32.2420 C   0  0  0  0  0  0  0  0  0  0  0  0
   -5.9220   21.7210  -31.7810 C   0  0  0  0  0  0  0  0  0  0  0  0
   -2.3159   18.9969  -33.2305 H   0  0  0  0  0  0  0  0  0  0  0  0
   -3.1462   20.3760  -34.0276 H   0  0  0  0  0  0  0  0  0  0  0  0
   -1.3521   20.2863  -34.0276 H   0  0  0  0  0  0  0  0  0  0  0  0
   -2.6969   20.2553  -31.3462 H   0  0  0  0  0  0  0  0  0  0  0  0
   -1.1741   21.0630  -31.8809 H   0  0  0  0  0  0  0  0  0  0  0  0
   -3.8770   26.4320  -30.2590 H   0  0  0  0  0  0  0  0  0  0  0  0
   -3.4910   24.9780  -31.2370 H   0  0  0  0  0  0  0  0  0  0  0  0
   -8.1616   23.9573  -30.8837 H   0  0  0  0  0  0  0  0  0  0  0  0
   -9.3288   21.5576  -31.8981 H   0  0  0  0  0  0  0  0  0  0  0  0
   -8.7620   19.2712  -32.7801 H   0  0  0  0  0  0  0  0  0  0  0  0
   -4.2536   18.7032  -33.7394 H   0  0  0  0  0  0  0  0  0  0  0  0
   -5.1698   13.6126  -33.7610 H   0  0  0  0  0  0  0  0  0  0  0  0
   -6.1742   13.9585  -35.2095 H   0  0  0  0  0  0  0  0  0  0  0  0
   -4.4259   14.3710  -35.2095 H   0  0  0  0  0  0  0  0  0  0  0  0
   -8.2045   17.3301  -32.6331 H   0  0  0  0  0  0  0  0  0  0  0  0
   -4.5150   20.1480  -32.3158 H   0  0  0  0  0  0  0  0  0  0  0  0
  1  2  1  0
  2  3  1  0
  3  4  1  0
  4  5  2  0
  4  6  1  0
  6  7  1  0
  7  8  1  0
  8  9  1  0
  8 10  2  0
  7 11  2  0
 11 12  1  0
 12 13  2  0
 13 14  1  0
 14 15  2  0
 15 16  1  0
 16 17  2  0
 17 18  1  0
 18 19  2  0
 19 20  1  0
 19 21  1  0
 21 22  2  0
 15 23  1  0
 23 24  2  0
 24  6  1  0
 24 12  1  0
 22 16  1  0
  1 25  1  0
  1 26  1  0
  1 27  1  0
  2 28  1  0
  2 29  1  0
  9 30  1  0
  9 31  1  0
 11 32  1  0
 13 33  1  0
 14 34  1  0
 17 35  1  0
 20 36  1  0
 20 37  1  0
 20 38  1  0
 22 39  1  0
 23 40  1  0
M  END
>  <UniqueID>  (82) 
82

>  <SMILES>  (82) 
CCOC(=O)n1c(C(N)=O)cc2ccc(-c3cnc(C)nc3)cc21

>  <Energy>  (82) 
82.36317832825833

>  <Genealogy>  (82) 
CCOC(=O)n1c(C(N)=O)cc2ccc(-c3cnc(C)nc3)cc21 (3D coordinates assigned)
CCOC(=O)n1c(C(N)=O)cc2ccc(-c3cnc(C)nc3)cc21 (optimized conformer: 82.36317832825833 kcal/mol)

>  <smiles>  (82) 
CCOC(=O)n1c(C(N)=O)cc2ccc(-c3cnc(C)nc3)cc21

>  <score_type>  (82) 
oracle

>  <origin>  (82) 
adg

>  <m_score__min__energy>  (82) 
-8.9399999999999995

>  <m_primary>  (82) 
energy

$$$$
84:0
     RDKit          3D

 33 34  0  0  0  0  0  0  0  0999 V2000
   -3.8740   23.1410  -28.1880 C   0  0  0  0  0  0  0  0  0  0  0  0
   -3.5800   22.0120  -29.1690 C   0  0  0  0  0  0  0  0  0  0  0  0
   -3.2410   22.5360  -30.4510 O   0  0  0  0  0  0  0  0  0  0  0  0
   -4.1200   22.5350  -31.5410 C   0  0  0  0  0  0  0  0  0  0  0  0
   -3.6960   22.2860  -32.7030 O   0  0  0  0  0  0  0  0  0  0  0  0
   -5.5090   22.8390  -31.3380 N   0  0  0  0  0  0  0  0  0  0  0  0
   -6.0500   24.0160  -30.9120 C   0  0  0  0  0  0  0  0  0  0  0  0
   -5.2990   25.1880  -30.4180 C   0  0  0  0  0  0  0  0  0  0  0  0
   -3.8960   25.2830  -30.6550 N   0  0  0  0  0  0  0  0  0  0  0  0
   -5.8880   26.1270  -29.8210 O   0  0  0  0  0  0  0  0  0  0  0  0
   -7.4420   23.9440  -30.9220 C   0  0  0  0  0  0  0  0  0  0  0  0
   -7.7400   22.6760  -31.3650 C   0  0  0  0  0  0  0  0  0  0  0  0
   -8.9720   22.0690  -31.5790 C   0  0  0  0  0  0  0  0  0  0  0  0
   -8.9840   20.7530  -32.0710 C   0  0  0  0  0  0  0  0  0  0  0  0
   -7.7690   20.0710  -32.3480 C   0  0  0  0  0  0  0  0  0  0  0  0
   -7.7590   18.7270  -32.8630 N   0  0  0  0  0  0  0  0  0  0  0  0
   -6.8730   17.6790  -32.3680 C   0  0  0  0  0  0  0  0  0  0  0  0
   -6.5370   20.7250  -32.1160 C   0  0  0  0  0  0  0  0  0  0  0  0
   -6.5570   22.0290  -31.6100 C   0  0  0  0  0  0  0  0  0  0  0  0
   -3.7765   22.7667  -27.1583 H   0  0  0  0  0  0  0  0  0  0  0  0
   -3.1597   23.9619  -28.3489 H   0  0  0  0  0  0  0  0  0  0  0  0
   -4.8980   23.5092  -28.3489 H   0  0  0  0  0  0  0  0  0  0  0  0
   -2.7390   21.4132  -28.7894 H   0  0  0  0  0  0  0  0  0  0  0  0
   -4.4789   21.3859  -29.2685 H   0  0  0  0  0  0  0  0  0  0  0  0
   -3.5010   26.0520  -31.2400 H   0  0  0  0  0  0  0  0  0  0  0  0
   -8.1521   24.7340  -30.6361 H   0  0  0  0  0  0  0  0  0  0  0  0
   -9.9103   22.6034  -31.3693 H   0  0  0  0  0  0  0  0  0  0  0  0
   -9.9445   20.2453  -32.2435 H   0  0  0  0  0  0  0  0  0  0  0  0
   -8.4190   18.4770  -33.6350 H   0  0  0  0  0  0  0  0  0  0  0  0
   -6.8775   17.6843  -31.2680 H   0  0  0  0  0  0  0  0  0  0  0  0
   -7.2226   16.7014  -32.7314 H   0  0  0  0  0  0  0  0  0  0  0  0
   -5.8508   17.8611  -32.7314 H   0  0  0  0  0  0  0  0  0  0  0  0
   -5.5836   20.2194  -32.3288 H   0  0  0  0  0  0  0  0  0  0  0  0
  1  2  1  0
  2  3  1  0
  3  4  1  0
  4  5  2  0
  4  6  1  0
  6  7  1  0
  7  8  1  0
  8  9  1  0
  8 10  2  0
  7 11  2  0
 11 12  1  0
 12 13  2  0
 13 14  1  0
 14 15  2  0
 15 16  1  0
 16 17  1  0
 15 18  1  0
 18 19  2  0
 19  6  1  0
 19 12  1  0
  1 20  1  0
  1 21  1  0
  1 22  1  0
  2 23  1  0
  2 24  1  0
  9 25  1  0
 11 26  1  0
 13 27  1  0
 14 28  1  0
 16 29  1  0
 17 30  1  0
 17 31  1  0
 17 32  1  0
 18 33  1  0
M  CHG  1   9  -1
M  END
>  <UniqueID>  (83) 
83

>  <SMILES>  (83) 
CCOC(=O)n1c(C([NH-])=O)cc2ccc(NC)cc21

>  <Energy>  (83) 
66.62037189094616

>  <Genealogy>  (83) 
CCOC(=O)n1c(C([NH-])=O)cc2ccc(NC)cc21 (protonated)
CCOC(=O)n1c(C([NH-])=O)cc2ccc(NC)cc21 (3D coordinates assigned)
CCOC(=O)n1c(C([NH-])=O)cc2ccc(NC)cc21 (optimized conformer: 66.62037189094616 kcal/mol)

>  <smiles>  (83) 
CCOC(=O)n1c(C(N)=O)cc2ccc(NC)cc21

>  <score_type>  (83) 
oracle

>  <origin>  (83) 
adg

>  <m_score__min__energy>  (83) 
-9.6199999999999992

>  <m_primary>  (83) 
energy

$$$$
85:0
     RDKit          3D

 49 51  0  0  0  0  0  0  0  0999 V2000
   -4.0830   24.1750  -28.0030 C   0  0  0  0  0  0  0  0  0  0  0  0
   -2.9810   23.8240  -29.0200 C   0  0  0  0  0  0  0  0  0  0  0  0
   -1.6920   24.6120  -28.7210 C   0  0  0  0  0  0  0  0  0  0  0  0
   -2.6770   22.3210  -28.9260 C   0  0  0  0  0  0  0  0  0  0  0  0
   -3.4290   24.0800  -30.3580 O   0  0  0  0  0  0  0  0  0  0  0  0
   -3.9940   23.1490  -31.2420 C   0  0  0  0  0  0  0  0  0  0  0  0
   -3.2690   22.4690  -32.0180 O   0  0  0  0  0  0  0  0  0  0  0  0
   -5.4190   22.9670  -31.2580 N   0  0  0  0  0  0  0  0  0  0  0  0
   -6.3790   23.8790  -30.9380 C   0  0  0  0  0  0  0  0  0  0  0  0
   -6.1420   25.2170  -30.3590 C   0  0  0  0  0  0  0  0  0  0  0  0
   -5.0710   26.0440  -30.8170 N   0  0  0  0  0  0  0  0  0  0  0  0
   -6.8630   25.6150  -29.4050 O   0  0  0  0  0  0  0  0  0  0  0  0
   -7.6480   23.3620  -31.1810 C   0  0  0  0  0  0  0  0  0  0  0  0
   -7.4370   22.0860  -31.6520 C   0  0  0  0  0  0  0  0  0  0  0  0
   -8.3510   21.1230  -32.0630 C   0  0  0  0  0  0  0  0  0  0  0  0
   -7.8500   19.9000  -32.5390 C   0  0  0  0  0  0  0  0  0  0  0  0
   -6.4520   19.6640  -32.6040 C   0  0  0  0  0  0  0  0  0  0  0  0
   -5.9340   18.3760  -33.1270 C   0  0  0  0  0  0  0  0  0  0  0  0
   -5.4650   18.2940  -34.4500 C   0  0  0  0  0  0  0  0  0  0  0  0
   -4.9650   17.0890  -34.9520 C   0  0  0  0  0  0  0  0  0  0  0  0
   -4.9180   15.9470  -34.1390 C   0  0  0  0  0  0  0  0  0  0  0  0
   -4.4150   14.6450  -34.6910 C   0  0  0  0  0  0  0  0  0  0  0  0
   -3.4590   14.9010  -35.6810 O   0  0  0  0  0  0  0  0  0  0  0  0
   -5.4060   16.0190  -32.8260 C   0  0  0  0  0  0  0  0  0  0  0  0
   -5.9060   17.2220  -32.3190 C   0  0  0  0  0  0  0  0  0  0  0  0
   -6.3970   17.2460  -31.0540 F   0  0  0  0  0  0  0  0  0  0  0  0
   -5.5550   20.6740  -32.1850 C   0  0  0  0  0  0  0  0  0  0  0  0
   -6.0830   21.8720  -31.6910 C   0  0  0  0  0  0  0  0  0  0  0  0
   -3.6928   24.0507  -26.9821 H   0  0  0  0  0  0  0  0  0  0  0  0
   -4.3991   25.2183  -28.1503 H   0  0  0  0  0  0  0  0  0  0  0  0
   -4.9442   23.5067  -28.1503 H   0  0  0  0  0  0  0  0  0  0  0  0
   -1.5569   24.6946  -27.6325 H   0  0  0  0  0  0  0  0  0  0  0  0
   -0.8308   24.0858  -29.1585 H   0  0  0  0  0  0  0  0  0  0  0  0
   -1.7677   25.6184  -29.1585 H   0  0  0  0  0  0  0  0  0  0  0  0
   -2.6170   22.0245  -27.8684 H   0  0  0  0  0  0  0  0  0  0  0  0
   -3.4785   21.7531  -29.4211 H   0  0  0  0  0  0  0  0  0  0  0  0
   -1.7178   22.1092  -29.4211 H   0  0  0  0  0  0  0  0  0  0  0  0
   -4.3510   25.6760  -31.4790 H   0  0  0  0  0  0  0  0  0  0  0  0
   -4.9450   27.0020  -30.4260 H   0  0  0  0  0  0  0  0  0  0  0  0
   -8.6140   23.8658  -31.0290 H   0  0  0  0  0  0  0  0  0  0  0  0
   -9.4335   21.3127  -32.0170 H   0  0  0  0  0  0  0  0  0  0  0  0
   -8.5494   19.1161  -32.8652 H   0  0  0  0  0  0  0  0  0  0  0  0
   -5.4917   19.1848  -35.0948 H   0  0  0  0  0  0  0  0  0  0  0  0
   -4.6064   17.0361  -35.9905 H   0  0  0  0  0  0  0  0  0  0  0  0
   -3.9581   14.0552  -33.8827 H   0  0  0  0  0  0  0  0  0  0  0  0
   -5.2532   14.0803  -35.1252 H   0  0  0  0  0  0  0  0  0  0  0  0
   -2.8090   14.1520  -35.6370 H   0  0  0  0  0  0  0  0  0  0  0  0
   -5.3952   15.1215  -32.1900 H   0  0  0  0  0  0  0  0  0  0  0  0
   -4.4674   20.5213  -32.2461 H   0  0  0  0  0  0  0  0  0  0  0  0
  1  2  1  0
  2  3  1  0
  2  4  1  0
  2  5  1  0
  5  6  1  0
  6  7  2  0
  6  8  1  0
  8  9  1  0
  9 10  1  0
 10 11  1  0
 10 12  2  0
  9 13  2  0
 13 14  1  0
 14 15  2  0
 15 16  1  0
 16 17  2  0
 17 18  1  0
 18 19  2  0
 19 20  1  0
 20 21  2  0
 21 22  1  0
 22 23  1  0
 21 24  1  0
 24 25  2  0
 25 26  1  0
 17 27  1  0
 27 28  2  0
 28  8  1  0
 28 14  1  0
 25 18  1  0
  1 29  1  0
  1 30  1  0
  1 31  1  0
  3 32  1  0
  3 33  1  0
  3 34  1  0
  4 35  1  0
  4 36  1  0
  4 37  1  0
 11 38  1  0
 11 39  1  0
 13 40  1  0
 15 41  1  0
 16 42  1  0
 19 43  1  0
 20 44  1  0
 22 45  1  0
 22 46  1  0
 23 47  1  0
 24 48  1  0
 27 49  1  0
M  END
>  <UniqueID>  (84) 
84

>  <SMILES>  (84) 
CC(C)(C)OC(=O)n1c(C(N)=O)cc2ccc(-c3ccc(CO)cc3F)cc21

>  <Energy>  (84) 
90.15829400955337

>  <Genealogy>  (84) 
CC(C)(C)OC(=O)n1c(C(N)=O)cc2ccc(-c3ccc(CO)cc3F)cc21 (3D coordinates assigned)
CC(C)(C)OC(=O)n1c(C(N)=O)cc2ccc(-c3ccc(CO)cc3F)cc21 (optimized conformer: 90.15829400955337 kcal/mol)

>  <smiles>  (84) 
CC(C)(C)OC(=O)n1c(C(N)=O)cc2ccc(-c3ccc(CO)cc3F)cc21

>  <score_type>  (84) 
oracle

>  <origin>  (84) 
adg

>  <m_score__min__energy>  (84) 
-9.3900000000000006

>  <m_primary>  (84) 
energy

$$$$
86:0
     RDKit          3D

 44 46  0  0  0  0  0  0  0  0999 V2000
   -3.8450   25.3030  -30.5210 N   0  0  0  0  0  0  0  0  0  0  0  0
   -5.2450   25.1610  -30.2880 C   0  0  0  0  0  0  0  0  0  0  0  0
   -5.8490   26.0390  -29.6170 O   0  0  0  0  0  0  0  0  0  0  0  0
   -5.9810   23.9770  -30.7770 C   0  0  0  0  0  0  0  0  0  0  0  0
   -7.3410   23.9940  -31.0820 C   0  0  0  0  0  0  0  0  0  0  0  0
   -7.6570   22.6970  -31.4140 C   0  0  0  0  0  0  0  0  0  0  0  0
   -8.8720   22.1440  -31.8090 C   0  0  0  0  0  0  0  0  0  0  0  0
   -8.9020   20.7760  -32.1200 C   0  0  0  0  0  0  0  0  0  0  0  0
   -7.7250   19.9910  -32.0440 C   0  0  0  0  0  0  0  0  0  0  0  0
   -7.7730   18.5170  -32.3550 C   0  0  0  0  0  0  0  0  0  0  0  0
   -6.4280   17.9930  -32.8860 C   0  0  0  0  0  0  0  0  0  0  0  0
   -5.9910   18.6490  -34.2080 C   0  0  0  0  0  0  0  0  0  0  0  0
   -4.5280   18.8610  -34.2580 N   0  0  0  0  0  0  0  0  0  0  0  0
   -3.8180   17.6940  -33.7030 C   0  0  0  0  0  0  0  0  0  0  0  0
   -2.2920   17.8990  -33.8130 C   0  0  0  0  0  0  0  0  0  0  0  0
   -1.9480   19.2240  -34.1760 O   0  0  0  0  0  0  0  0  0  0  0  0
   -2.6030   20.1380  -33.3230 C   0  0  0  0  0  0  0  0  0  0  0  0
   -4.1290   20.0890  -33.5370 C   0  0  0  0  0  0  0  0  0  0  0  0
   -6.5100   20.5860  -31.6370 C   0  0  0  0  0  0  0  0  0  0  0  0
   -6.5130   21.9470  -31.3140 C   0  0  0  0  0  0  0  0  0  0  0  0
   -5.4740   22.7190  -30.9230 N   0  0  0  0  0  0  0  0  0  0  0  0
   -4.1070   22.3010  -30.7840 C   0  0  0  0  0  0  0  0  0  0  0  0
   -3.0870   22.9100  -31.5720 N   0  0  0  0  0  0  0  0  0  0  0  0
   -3.8000   21.4040  -29.9530 O   0  0  0  0  0  0  0  0  0  0  0  0
   -3.4840   25.9850  -31.2240 H   0  0  0  0  0  0  0  0  0  0  0  0
   -8.0180   24.8607  -31.0615 H   0  0  0  0  0  0  0  0  0  0  0  0
   -9.7806   22.7605  -31.8753 H   0  0  0  0  0  0  0  0  0  0  0  0
   -9.8493   20.3081  -32.4260 H   0  0  0  0  0  0  0  0  0  0  0  0
   -8.0293   17.9689  -31.4363 H   0  0  0  0  0  0  0  0  0  0  0  0
   -8.5299   18.3607  -33.1377 H   0  0  0  0  0  0  0  0  0  0  0  0
   -5.6548   18.1884  -32.1283 H   0  0  0  0  0  0  0  0  0  0  0  0
   -6.5557   16.9187  -33.0852 H   0  0  0  0  0  0  0  0  0  0  0  0
   -6.2851   17.9968  -35.0435 H   0  0  0  0  0  0  0  0  0  0  0  0
   -6.4817   19.6307  -34.2815 H   0  0  0  0  0  0  0  0  0  0  0  0
   -4.0930   17.5703  -32.6451 H   0  0  0  0  0  0  0  0  0  0  0  0
   -4.1023   16.7962  -34.2715 H   0  0  0  0  0  0  0  0  0  0  0  0
   -1.8341   17.6697  -32.8395 H   0  0  0  0  0  0  0  0  0  0  0  0
   -1.9206   17.2289  -34.6023 H   0  0  0  0  0  0  0  0  0  0  0  0
   -2.3770   19.8813  -32.2775 H   0  0  0  0  0  0  0  0  0  0  0  0
   -2.2469   21.1529  -33.5535 H   0  0  0  0  0  0  0  0  0  0  0  0
   -4.6296   20.1090  -32.5577 H   0  0  0  0  0  0  0  0  0  0  0  0
   -4.4245   20.9595  -34.1410 H   0  0  0  0  0  0  0  0  0  0  0  0
   -5.5850   19.9939  -31.5757 H   0  0  0  0  0  0  0  0  0  0  0  0
   -2.5800   23.7570  -31.2320 H   0  0  0  0  0  0  0  0  0  0  0  0
  1  2  1  0
  2  3  2  0
  2  4  1  0
  4  5  2  0
  5  6  1  0
  6  7  2  0
  7  8  1  0
  8  9  2  0
  9 10  1  0
 10 11  1  0
 11 12  1  0
 12 13  1  0
 13 14  1  0
 14 15  1  0
 15 16  1  0
 16 17  1  0
 17 18  1  0
  9 19  1  0
 19 20  2  0
 20 21  1  0
 21 22  1  0
 22 23  1  0
 22 24  2  0
 21  4  1  0
 20  6  1  0
 18 13  1  0
  1 25  1  0
  5 26  1  0
  7 27  1  0
  8 28  1  0
 10 29  1  0
 10 30  1  0
 11 31  1  0
 11 32  1  0
 12 33  1  0
 12 34  1  0
 14 35  1  0
 14 36  1  0
 15 37  1  0
 15 38  1  0
 17 39  1  0
 17 40  1  0
 18 41  1  0
 18 42  1  0
 19 43  1  0
 23 44  1  0
M  CHG  2   1  -1  23  -1
M  END
>  <UniqueID>  (85) 
85

>  <SMILES>  (85) 
[NH-]C(=O)c1cc2ccc(CCCN3CCOCC3)cc2n1C([NH-])=O

>  <Energy>  (85) 
89.41975105669277

>  <Genealogy>  (85) 
[NH-]C(=O)c1cc2ccc(CCCN3CCOCC3)cc2n1C([NH-])=O (protonated)
[NH-]C(=O)c1cc2ccc(CCCN3CCOCC3)cc2n1C([NH-])=O (3D coordinates assigned)
[NH-]C(=O)c1cc2ccc(CCCN3CCOCC3)cc2n1C([NH-])=O (nonaromatic ring conformer: 89.41975105669277 kcal/mol)

>  <smiles>  (85) 
NC(=O)c1cc2ccc(CCCN3CCOCC3)cc2n1C(N)=O

>  <score_type>  (85) 
oracle

>  <origin>  (85) 
adg

>  <m_score__min__energy>  (85) 
-11.77

>  <m_primary>  (85) 
energy

$$$$
87:0
     RDKit          3D

 47 49  0  0  0  0  0  0  0  0999 V2000
   -6.5220   24.9410  -30.1130 C   0  0  0  0  0  0  0  0  0  0  0  0
   -6.1990   23.5690  -30.7230 C   0  0  0  0  0  0  0  0  0  0  0  0
   -6.2020   23.6930  -32.2590 C   0  0  0  0  0  0  0  0  0  0  0  0
   -7.2630   22.5560  -30.2580 C   0  0  0  0  0  0  0  0  0  0  0  0
   -4.8980   23.1910  -30.2510 O   0  0  0  0  0  0  0  0  0  0  0  0
   -3.6860   23.8350  -30.5430 C   0  0  0  0  0  0  0  0  0  0  0  0
   -3.6570   25.0640  -30.8240 O   0  0  0  0  0  0  0  0  0  0  0  0
   -2.4610   23.0890  -30.4910 N   0  0  0  0  0  0  0  0  0  0  0  0
   -1.3260   23.4000  -29.8030 C   0  0  0  0  0  0  0  0  0  0  0  0
   -1.1810   24.4870  -28.8130 C   0  0  0  0  0  0  0  0  0  0  0  0
   -1.9580   25.6780  -28.9140 N   0  0  0  0  0  0  0  0  0  0  0  0
   -0.3970   24.3410  -27.8380 O   0  0  0  0  0  0  0  0  0  0  0  0
   -0.3100   22.4940  -30.1020 C   0  0  0  0  0  0  0  0  0  0  0  0
   -0.8630   21.6080  -30.9980 C   0  0  0  0  0  0  0  0  0  0  0  0
   -0.2910   20.5180  -31.6470 C   0  0  0  0  0  0  0  0  0  0  0  0
   -1.0850   19.8030  -32.5580 C   0  0  0  0  0  0  0  0  0  0  0  0
   -2.4280   20.1870  -32.8020 C   0  0  0  0  0  0  0  0  0  0  0  0
   -3.2510   19.4510  -33.8230 C   0  0  0  0  0  0  0  0  0  0  0  0
   -4.6560   19.2650  -33.3200 C   0  0  0  0  0  0  0  0  0  0  0  0
   -5.6020   20.2940  -33.4590 C   0  0  0  0  0  0  0  0  0  0  0  0
   -6.9180   20.1060  -33.0270 C   0  0  0  0  0  0  0  0  0  0  0  0
   -7.3020   18.8850  -32.4600 C   0  0  0  0  0  0  0  0  0  0  0  0
   -9.1010   18.6280  -31.8730 Br  0  0  0  0  0  0  0  0  0  0  0  0
   -6.3680   17.8520  -32.3290 C   0  0  0  0  0  0  0  0  0  0  0  0
   -5.0510   18.0380  -32.7620 C   0  0  0  0  0  0  0  0  0  0  0  0
   -2.9710   21.3050  -32.1310 C   0  0  0  0  0  0  0  0  0  0  0  0
   -2.1620   21.9890  -31.2160 C   0  0  0  0  0  0  0  0  0  0  0  0
   -6.5047   24.8676  -29.0156 H   0  0  0  0  0  0  0  0  0  0  0  0
   -5.7721   25.6748  -30.4433 H   0  0  0  0  0  0  0  0  0  0  0  0
   -7.5206   25.2632  -30.4433 H   0  0  0  0  0  0  0  0  0  0  0  0
   -6.2277   24.7559  -32.5410 H   0  0  0  0  0  0  0  0  0  0  0  0
   -5.2923   23.2275  -32.6662 H   0  0  0  0  0  0  0  0  0  0  0  0
   -7.0881   23.1841  -32.6662 H   0  0  0  0  0  0  0  0  0  0  0  0
   -7.2895   22.5308  -29.1586 H   0  0  0  0  0  0  0  0  0  0  0  0
   -8.2488   22.8575  -30.6417 H   0  0  0  0  0  0  0  0  0  0  0  0
   -7.0102   21.5566  -30.6417 H   0  0  0  0  0  0  0  0  0  0  0  0
   -2.9140   25.6620  -29.3310 H   0  0  0  0  0  0  0  0  0  0  0  0
    0.7162   22.4884  -29.7058 H   0  0  0  0  0  0  0  0  0  0  0  0
    0.7514   20.2255  -31.4523 H   0  0  0  0  0  0  0  0  0  0  0  0
   -0.6612   18.9369  -33.0874 H   0  0  0  0  0  0  0  0  0  0  0  0
   -3.2733   20.0301  -34.7579 H   0  0  0  0  0  0  0  0  0  0  0  0
   -2.8005   18.4639  -34.0039 H   0  0  0  0  0  0  0  0  0  0  0  0
   -5.3057   21.2525  -33.9101 H   0  0  0  0  0  0  0  0  0  0  0  0
   -7.6524   20.9181  -33.1326 H   0  0  0  0  0  0  0  0  0  0  0  0
   -6.6696   16.8919  -31.8848 H   0  0  0  0  0  0  0  0  0  0  0  0
   -4.3218   17.2202  -32.6651 H   0  0  0  0  0  0  0  0  0  0  0  0
   -4.0042   21.6302  -32.3227 H   0  0  0  0  0  0  0  0  0  0  0  0
  1  2  1  0
  2  3  1  0
  2  4  1  0
  2  5  1  0
  5  6  1  0
  6  7  2  0
  6  8  1  0
  8  9  1  0
  9 10  1  0
 10 11  1  0
 10 12  2  0
  9 13  2  0
 13 14  1  0
 14 15  2  0
 15 16  1  0
 16 17  2  0
 17 18  1  0
 18 19  1  0
 19 20  2  0
 20 21  1  0
 21 22  2  0
 22 23  1  0
 22 24  1  0
 24 25  2  0
 17 26  1  0
 26 27  2  0
 27  8  1  0
 27 14  1  0
 25 19  1  0
  1 28  1  0
  1 29  1  0
  1 30  1  0
  3 31  1  0
  3 32  1  0
  3 33  1  0
  4 34  1  0
  4 35  1  0
  4 36  1  0
 11 37  1  0
 13 38  1  0
 15 39  1  0
 16 40  1  0
 18 41  1  0
 18 42  1  0
 20 43  1  0
 21 44  1  0
 24 45  1  0
 25 46  1  0
 26 47  1  0
M  CHG  1  11  -1
M  END
>  <UniqueID>  (86) 
86

>  <SMILES>  (86) 
CC(C)(C)OC(=O)n1c(C([NH-])=O)cc2ccc(Cc3ccc(Br)cc3)cc21

>  <Energy>  (86) 
81.40805050417949

>  <Genealogy>  (86) 
CC(C)(C)OC(=O)n1c(C([NH-])=O)cc2ccc(Cc3ccc(Br)cc3)cc21 (protonated)
CC(C)(C)OC(=O)n1c(C([NH-])=O)cc2ccc(Cc3ccc(Br)cc3)cc21 (3D coordinates assigned)
CC(C)(C)OC(=O)n1c(C([NH-])=O)cc2ccc(Cc3ccc(Br)cc3)cc21 (optimized conformer: 81.40805050417949 kcal/mol)

>  <smiles>  (86) 
CC(C)(C)OC(=O)n1c(C(N)=O)cc2ccc(Cc3ccc(Br)cc3)cc21

>  <score_type>  (86) 
oracle

>  <origin>  (86) 
adg

>  <m_score__min__energy>  (86) 
-12.220000000000001

>  <m_primary>  (86) 
energy

$$$$
88:0
     RDKit          3D

 34 36  0  0  0  0  0  0  0  0999 V2000
   -3.2330   19.4230  -32.9460 C   0  0  0  0  0  0  0  0  0  0  0  0
   -4.3540   18.8260  -33.7350 C   0  0  0  0  0  0  0  0  0  0  0  0
   -4.1250   18.3950  -34.8970 O   0  0  0  0  0  0  0  0  0  0  0  0
   -5.6750   18.7100  -33.1780 N   0  0  0  0  0  0  0  0  0  0  0  0
   -6.5620   17.6860  -33.3240 C   0  0  0  0  0  0  0  0  0  0  0  0
   -6.2800   16.3810  -33.9530 C   0  0  0  0  0  0  0  0  0  0  0  0
   -4.9410   15.9600  -34.2130 N   0  0  0  0  0  0  0  0  0  0  0  0
   -7.2340   15.6010  -34.2180 O   0  0  0  0  0  0  0  0  0  0  0  0
   -7.7840   18.0070  -32.7380 C   0  0  0  0  0  0  0  0  0  0  0  0
   -7.6130   19.2650  -32.2080 C   0  0  0  0  0  0  0  0  0  0  0  0
   -8.5090   20.0770  -31.5210 C   0  0  0  0  0  0  0  0  0  0  0  0
   -8.0700   21.3470  -31.1150 C   0  0  0  0  0  0  0  0  0  0  0  0
   -6.7520   21.7900  -31.4070 C   0  0  0  0  0  0  0  0  0  0  0  0
   -6.3020   23.1400  -30.9820 C   0  0  0  0  0  0  0  0  0  0  0  0
   -7.1760   24.0130  -30.3090 C   0  0  0  0  0  0  0  0  0  0  0  0
   -6.7390   25.2780  -29.9170 C   0  0  0  0  0  0  0  0  0  0  0  0
   -5.4280   25.6680  -30.1960 C   0  0  0  0  0  0  0  0  0  0  0  0
   -4.5900   24.8170  -30.8450 N   0  0  0  0  0  0  0  0  0  0  0  0
   -4.9910   23.5800  -31.2410 C   0  0  0  0  0  0  0  0  0  0  0  0
   -5.8730   20.9330  -32.1100 C   0  0  0  0  0  0  0  0  0  0  0  0
   -6.3320   19.6670  -32.4860 C   0  0  0  0  0  0  0  0  0  0  0  0
   -3.4411   19.3122  -31.8716 H   0  0  0  0  0  0  0  0  0  0  0  0
   -2.2944   18.9053  -33.1930 H   0  0  0  0  0  0  0  0  0  0  0  0
   -3.1388   20.4908  -33.1930 H   0  0  0  0  0  0  0  0  0  0  0  0
   -4.1250   16.5030  -33.8540 H   0  0  0  0  0  0  0  0  0  0  0  0
   -4.7610   15.0530  -34.6980 H   0  0  0  0  0  0  0  0  0  0  0  0
   -8.6921   17.3870  -32.7058 H   0  0  0  0  0  0  0  0  0  0  0  0
   -9.5311   19.7343  -31.3023 H   0  0  0  0  0  0  0  0  0  0  0  0
   -8.7552   22.0077  -30.5637 H   0  0  0  0  0  0  0  0  0  0  0  0
   -8.2069   23.6970  -30.0914 H   0  0  0  0  0  0  0  0  0  0  0  0
   -7.4216   25.9627  -29.3924 H   0  0  0  0  0  0  0  0  0  0  0  0
   -5.0733   26.6635  -29.8908 H   0  0  0  0  0  0  0  0  0  0  0  0
   -4.2863   22.9191  -31.7670 H   0  0  0  0  0  0  0  0  0  0  0  0
   -4.8505   21.2557  -32.3555 H   0  0  0  0  0  0  0  0  0  0  0  0
  1  2  1  0
  2  3  2  0
  2  4  1  0
  4  5  1  0
  5  6  1  0
  6  7  1  0
  6  8  2  0
  5  9  2  0
  9 10  1  0
 10 11  2  0
 11 12  1  0
 12 13  2  0
 13 14  1  0
 14 15  2  0
 15 16  1  0
 16 17  2  0
 17 18  1  0
 18 19  2  0
 13 20  1  0
 20 21  2  0
 21  4  1  0
 21 10  1  0
 19 14  1  0
  1 22  1  0
  1 23  1  0
  1 24  1  0
  7 25  1  0
  7 26  1  0
  9 27  1  0
 11 28  1  0
 12 29  1  0
 15 30  1  0
 16 31  1  0
 17 32  1  0
 19 33  1  0
 20 34  1  0
M  END
>  <UniqueID>  (87) 
87

>  <SMILES>  (87) 
CC(=O)n1c(C(N)=O)cc2ccc(-c3cccnc3)cc21

>  <Energy>  (87) 
82.03268081102777

>  <Genealogy>  (87) 
CC(=O)n1c(C(N)=O)cc2ccc(-c3cccnc3)cc21 (3D coordinates assigned)
CC(=O)n1c(C(N)=O)cc2ccc(-c3cccnc3)cc21 (optimized conformer: 82.03268081102777 kcal/mol)

>  <smiles>  (87) 
CC(=O)n1c(C(N)=O)cc2ccc(-c3cccnc3)cc21

>  <score_type>  (87) 
oracle

>  <origin>  (87) 
adg

>  <m_score__min__energy>  (87) 
-9.3599999999999994

>  <m_primary>  (87) 
energy

$$$$
89:0
     RDKit          3D

 68 71  0  0  0  0  0  0  0  0999 V2000
   -1.3910   14.5540  -32.4490 C   0  0  0  0  0  0  0  0  0  0  0  0
   -1.3370   13.0720  -32.0550 C   0  0  0  0  0  0  0  0  0  0  0  0
   -2.6580   12.4270  -31.8320 N   0  0  0  0  0  0  0  0  0  0  0  0
   -3.1250   11.5980  -32.9730 C   0  0  0  0  0  0  0  0  0  0  0  0
   -3.8880   12.3830  -34.0660 C   0  0  0  0  0  0  0  0  0  0  0  0
   -4.2480   13.7440  -33.6340 N   0  0  0  0  0  0  0  0  0  0  0  0
   -5.1930   14.3650  -34.5850 C   0  0  0  0  0  0  0  0  0  0  0  0
   -5.5240   15.7630  -34.1390 C   0  0  0  0  0  0  0  0  0  0  0  0
   -4.5200   16.7400  -34.0980 C   0  0  0  0  0  0  0  0  0  0  0  0
   -4.8060   18.0300  -33.6470 C   0  0  0  0  0  0  0  0  0  0  0  0
   -6.1040   18.3660  -33.2230 C   0  0  0  0  0  0  0  0  0  0  0  0
   -6.4000   19.7310  -32.7180 C   0  0  0  0  0  0  0  0  0  0  0  0
   -7.7310   20.2240  -32.7130 C   0  0  0  0  0  0  0  0  0  0  0  0
   -8.0180   21.5160  -32.2440 C   0  0  0  0  0  0  0  0  0  0  0  0
   -6.9580   22.3000  -31.8010 C   0  0  0  0  0  0  0  0  0  0  0  0
   -6.9530   23.5770  -31.2870 C   0  0  0  0  0  0  0  0  0  0  0  0
   -5.6170   23.8600  -31.0120 C   0  0  0  0  0  0  0  0  0  0  0  0
   -5.1480   25.1750  -30.5280 C   0  0  0  0  0  0  0  0  0  0  0  0
   -3.8620   25.6740  -30.8890 N   0  0  0  0  0  0  0  0  0  0  0  0
   -5.9110   25.8880  -29.8230 O   0  0  0  0  0  0  0  0  0  0  0  0
   -4.8280   22.7950  -31.3310 N   0  0  0  0  0  0  0  0  0  0  0  0
   -3.4120   22.6530  -31.1340 C   0  0  0  0  0  0  0  0  0  0  0  0
   -2.7070   22.0910  -32.0150 O   0  0  0  0  0  0  0  0  0  0  0  0
   -2.8190   23.1680  -29.9770 O   0  0  0  0  0  0  0  0  0  0  0  0
   -3.2300   22.7880  -28.6670 C   0  0  0  0  0  0  0  0  0  0  0  0
   -2.8540   23.8820  -27.6560 C   0  0  0  0  0  0  0  0  0  0  0  0
   -4.1050   24.5440  -27.0630 C   0  0  0  0  0  0  0  0  0  0  0  0
   -1.9590   24.9350  -28.3200 C   0  0  0  0  0  0  0  0  0  0  0  0
   -5.6650   21.8500  -31.8140 C   0  0  0  0  0  0  0  0  0  0  0  0
   -5.3520   20.5570  -32.2470 C   0  0  0  0  0  0  0  0  0  0  0  0
   -7.1090   17.3840  -33.2660 C   0  0  0  0  0  0  0  0  0  0  0  0
   -6.8220   16.0930  -33.7200 C   0  0  0  0  0  0  0  0  0  0  0  0
   -4.8010   13.7030  -32.2740 C   0  0  0  0  0  0  0  0  0  0  0  0
   -3.6910   13.3440  -31.2750 C   0  0  0  0  0  0  0  0  0  0  0  0
   -1.4136   15.1743  -31.5408 H   0  0  0  0  0  0  0  0  0  0  0  0
   -0.5015   14.8078  -33.0443 H   0  0  0  0  0  0  0  0  0  0  0  0
   -2.2966   14.7424  -33.0443 H   0  0  0  0  0  0  0  0  0  0  0  0
   -0.8227   12.5248  -32.8588 H   0  0  0  0  0  0  0  0  0  0  0  0
   -0.8113   13.0321  -31.0896 H   0  0  0  0  0  0  0  0  0  0  0  0
   -2.4640   11.7350  -31.0680 H   0  0  0  0  0  0  0  0  0  0  0  0
   -2.2463   11.1273  -33.4381 H   0  0  0  0  0  0  0  0  0  0  0  0
   -3.8354   10.8674  -32.5589 H   0  0  0  0  0  0  0  0  0  0  0  0
   -3.2507   12.4534  -34.9598 H   0  0  0  0  0  0  0  0  0  0  0  0
   -4.8216   11.8410  -34.2772 H   0  0  0  0  0  0  0  0  0  0  0  0
   -4.7346   14.3999  -35.5843 H   0  0  0  0  0  0  0  0  0  0  0  0
   -6.1162   13.7680  -34.6200 H   0  0  0  0  0  0  0  0  0  0  0  0
   -3.4997   16.4888  -34.4234 H   0  0  0  0  0  0  0  0  0  0  0  0
   -4.0102   18.7890  -33.6232 H   0  0  0  0  0  0  0  0  0  0  0  0
   -8.5479   19.5859  -33.0812 H   0  0  0  0  0  0  0  0  0  0  0  0
   -9.0499   21.8966  -32.2274 H   0  0  0  0  0  0  0  0  0  0  0  0
   -7.8202   24.2346  -31.1273 H   0  0  0  0  0  0  0  0  0  0  0  0
   -2.9940   25.2840  -30.4590 H   0  0  0  0  0  0  0  0  0  0  0  0
   -4.3202   22.6420  -28.6560 H   0  0  0  0  0  0  0  0  0  0  0  0
   -2.7235   21.8520  -28.3887 H   0  0  0  0  0  0  0  0  0  0  0  0
   -2.2982   23.4080  -26.8335 H   0  0  0  0  0  0  0  0  0  0  0  0
   -4.0497   24.5147  -25.9648 H   0  0  0  0  0  0  0  0  0  0  0  0
   -4.1609   25.5897  -27.3996 H   0  0  0  0  0  0  0  0  0  0  0  0
   -5.0011   24.0021  -27.3996 H   0  0  0  0  0  0  0  0  0  0  0  0
   -1.4541   25.5290  -27.5440 H   0  0  0  0  0  0  0  0  0  0  0  0
   -1.2061   24.4340  -28.9462 H   0  0  0  0  0  0  0  0  0  0  0  0
   -2.5747   25.5974  -28.9462 H   0  0  0  0  0  0  0  0  0  0  0  0
   -4.3150   20.1909  -32.2219 H   0  0  0  0  0  0  0  0  0  0  0  0
   -8.1295   17.6332  -32.9398 H   0  0  0  0  0  0  0  0  0  0  0  0
   -7.6168   15.3331  -33.7488 H   0  0  0  0  0  0  0  0  0  0  0  0
   -5.2180   14.6884  -32.0189 H   0  0  0  0  0  0  0  0  0  0  0  0
   -5.5945   12.9427  -32.2259 H   0  0  0  0  0  0  0  0  0  0  0  0
   -3.1955   14.2734  -30.9576 H   0  0  0  0  0  0  0  0  0  0  0  0
   -4.1707   12.8169  -30.4371 H   0  0  0  0  0  0  0  0  0  0  0  0
  1  2  1  0
  2  3  1  0
  3  4  1  0
  4  5  1  0
  5  6  1  0
  6  7  1  0
  7  8  1  0
  8  9  2  0
  9 10  1  0
 10 11  2  0
 11 12  1  0
 12 13  2  0
 13 14  1  0
 14 15  2  0
 15 16  1  0
 16 17  2  0
 17 18  1  0
 18 19  1  0
 18 20  2  0
 17 21  1  0
 21 22  1  0
 22 23  2  0
 22 24  1  0
 24 25  1  0
 25 26  1  0
 26 27  1  0
 26 28  1  0
 21 29  1  0
 29 30  2  0
 11 31  1  0
 31 32  2  0
  6 33  1  0
 33 34  1  0
 34  3  1  0
 32  8  1  0
 30 12  1  0
 29 15  1  0
  1 35  1  0
  1 36  1  0
  1 37  1  0
  2 38  1  0
  2 39  1  0
  3 40  1  0
  4 41  1  0
  4 42  1  0
  5 43  1  0
  5 44  1  0
  7 45  1  0
  7 46  1  0
  9 47  1  0
 10 48  1  0
 13 49  1  0
 14 50  1  0
 16 51  1  0
 19 52  1  0
 25 53  1  0
 25 54  1  0
 26 55  1  0
 27 56  1  0
 27 57  1  0
 27 58  1  0
 28 59  1  0
 28 60  1  0
 28 61  1  0
 30 62  1  0
 31 63  1  0
 32 64  1  0
 33 65  1  0
 33 66  1  0
 34 67  1  0
 34 68  1  0
M  CHG  2   3   1  19  -1
M  END
>  <UniqueID>  (88) 
88

>  <SMILES>  (88) 
CC[NH+]1CCN(Cc2ccc(-c3ccc4cc(C([NH-])=O)n(C(=O)OCC(C)C)c4c3)cc2)CC1

>  <Energy>  (88) 
119.83292890494943

>  <Genealogy>  (88) 
CC[NH+]1CCN(Cc2ccc(-c3ccc4cc(C([NH-])=O)n(C(=O)OCC(C)C)c4c3)cc2)CC1 (protonated)
CC[NH+]1CCN(Cc2ccc(-c3ccc4cc(C([NH-])=O)n(C(=O)OCC(C)C)c4c3)cc2)CC1 (3D coordinates assigned)
CC[NH+]1CCN(Cc2ccc(-c3ccc4cc(C([NH-])=O)n(C(=O)OCC(C)C)c4c3)cc2)CC1 (nonaromatic ring conformer: 119.83292890494943 kcal/mol)

>  <smiles>  (88) 
CCN1CCN(Cc2ccc(-c3ccc4cc(C(N)=O)n(C(=O)OCC(C)C)c4c3)cc2)CC1

>  <score_type>  (88) 
oracle

>  <origin>  (88) 
adg

>  <m_score__min__energy>  (88) 
-11.42

>  <m_primary>  (88) 
energy

$$$$
90:0
     RDKit          3D

 50 51  0  0  0  0  0  0  0  0999 V2000
   -2.5140   16.0550  -33.3310 C   0  0  0  0  0  0  0  0  0  0  0  0
   -3.8070   16.1150  -34.1640 C   0  0  0  0  0  0  0  0  0  0  0  0
   -4.5880   14.8000  -33.9970 C   0  0  0  0  0  0  0  0  0  0  0  0
   -3.4490   16.3140  -35.6470 C   0  0  0  0  0  0  0  0  0  0  0  0
   -4.8580   17.5850  -33.5740 Si  0  0  0  0  0  4  0  0  0  0  0  0
   -3.7680   18.8770  -32.7670 C   0  0  0  0  0  0  0  0  0  0  0  0
   -5.7320   18.3780  -35.0330 C   0  0  0  0  0  0  0  0  0  0  0  0
   -5.9960   16.9770  -32.4100 O   0  0  0  0  0  0  0  0  0  0  0  0
   -6.3880   17.9990  -31.5240 C   0  0  0  0  0  0  0  0  0  0  0  0
   -7.6700   18.6410  -32.0490 C   0  0  0  0  0  0  0  0  0  0  0  0
   -7.6430   20.1320  -31.8420 C   0  0  0  0  0  0  0  0  0  0  0  0
   -8.8330   20.8880  -31.9680 C   0  0  0  0  0  0  0  0  0  0  0  0
   -8.8300   22.2720  -31.7280 C   0  0  0  0  0  0  0  0  0  0  0  0
   -7.6270   22.8680  -31.3630 C   0  0  0  0  0  0  0  0  0  0  0  0
   -7.3500   24.1770  -31.0390 C   0  0  0  0  0  0  0  0  0  0  0  0
   -5.9920   24.2030  -30.7320 C   0  0  0  0  0  0  0  0  0  0  0  0
   -5.2570   25.4430  -30.4020 C   0  0  0  0  0  0  0  0  0  0  0  0
   -3.9180   25.6440  -30.8460 N   0  0  0  0  0  0  0  0  0  0  0  0
   -5.8360   26.3570  -29.7550 O   0  0  0  0  0  0  0  0  0  0  0  0
   -5.4490   22.9570  -30.8530 N   0  0  0  0  0  0  0  0  0  0  0  0
   -4.1080   22.5480  -30.5460 C   0  0  0  0  0  0  0  0  0  0  0  0
   -2.9990   23.2170  -31.1400 N   0  0  0  0  0  0  0  0  0  0  0  0
   -3.9050   21.5860  -29.7580 O   0  0  0  0  0  0  0  0  0  0  0  0
   -6.4640   22.1530  -31.2430 C   0  0  0  0  0  0  0  0  0  0  0  0
   -6.4430   20.7690  -31.4560 C   0  0  0  0  0  0  0  0  0  0  0  0
   -2.7666   16.0667  -32.2605 H   0  0  0  0  0  0  0  0  0  0  0  0
   -1.9673   15.1305  -33.5686 H   0  0  0  0  0  0  0  0  0  0  0  0
   -1.8840   16.9249  -33.5686 H   0  0  0  0  0  0  0  0  0  0  0  0
   -4.7166   14.5834  -32.9262 H   0  0  0  0  0  0  0  0  0  0  0  0
   -5.5751   14.8968  -34.4727 H   0  0  0  0  0  0  0  0  0  0  0  0
   -4.0307   13.9796  -34.4727 H   0  0  0  0  0  0  0  0  0  0  0  0
   -2.4899   16.8471  -35.7243 H   0  0  0  0  0  0  0  0  0  0  0  0
   -3.3642   15.3336  -36.1385 H   0  0  0  0  0  0  0  0  0  0  0  0
   -4.2369   16.9036  -36.1385 H   0  0  0  0  0  0  0  0  0  0  0  0
   -3.8427   18.7884  -31.6731 H   0  0  0  0  0  0  0  0  0  0  0  0
   -2.7241   18.7215  -33.0770 H   0  0  0  0  0  0  0  0  0  0  0  0
   -4.0971   19.8798  -33.0770 H   0  0  0  0  0  0  0  0  0  0  0  0
   -6.4999   19.0748  -34.6659 H   0  0  0  0  0  0  0  0  0  0  0  0
   -5.0007   18.9272  -35.6442 H   0  0  0  0  0  0  0  0  0  0  0  0
   -6.2077   17.5969  -35.6442 H   0  0  0  0  0  0  0  0  0  0  0  0
   -6.5696   17.5735  -30.5260 H   0  0  0  0  0  0  0  0  0  0  0  0
   -5.5933   18.7562  -31.4521 H   0  0  0  0  0  0  0  0  0  0  0  0
   -7.7666   18.4275  -33.1238 H   0  0  0  0  0  0  0  0  0  0  0  0
   -8.5255   18.2233  -31.4980 H   0  0  0  0  0  0  0  0  0  0  0  0
   -9.7688   20.3870  -32.2565 H   0  0  0  0  0  0  0  0  0  0  0  0
   -9.7505   22.8663  -31.8256 H   0  0  0  0  0  0  0  0  0  0  0  0
   -8.0526   25.0232  -31.0255 H   0  0  0  0  0  0  0  0  0  0  0  0
   -3.1110   25.2480  -30.3160 H   0  0  0  0  0  0  0  0  0  0  0  0
   -3.0710   24.2160  -31.4350 H   0  0  0  0  0  0  0  0  0  0  0  0
   -5.5152   20.1925  -31.3259 H   0  0  0  0  0  0  0  0  0  0  0  0
  1  2  1  0
  2  3  1  0
  2  4  1  0
  2  5  1  0
  5  6  1  0
  5  7  1  0
  5  8  1  0
  8  9  1  0
  9 10  1  0
 10 11  1  0
 11 12  2  0
 12 13  1  0
 13 14  2  0
 14 15  1  0
 15 16  2  0
 16 17  1  0
 17 18  1  0
 17 19  2  0
 16 20  1  0
 20 21  1  0
 21 22  1  0
 21 23  2  0
 20 24  1  0
 24 25  2  0
 25 11  1  0
 24 14  1  0
  1 26  1  0
  1 27  1  0
  1 28  1  0
  3 29  1  0
  3 30  1  0
  3 31  1  0
  4 32  1  0
  4 33  1  0
  4 34  1  0
  6 35  1  0
  6 36  1  0
  6 37  1  0
  7 38  1  0
  7 39  1  0
  7 40  1  0
  9 41  1  0
  9 42  1  0
 10 43  1  0
 10 44  1  0
 12 45  1  0
 13 46  1  0
 15 47  1  0
 18 48  1  0
 22 49  1  0
 25 50  1  0
M  CHG  2  18  -1  22  -1
M  END
>  <UniqueID>  (89) 
89

>  <SMILES>  (89) 
CC(C)(C)[Si](C)(C)OCCc1ccc2cc(C([NH-])=O)n(C([NH-])=O)c2c1

>  <Energy>  (89) 
68.59718061425806

>  <Genealogy>  (89) 
CC(C)(C)[Si](C)(C)OCCc1ccc2cc(C([NH-])=O)n(C([NH-])=O)c2c1 (protonated)
CC(C)(C)[Si](C)(C)OCCc1ccc2cc(C([NH-])=O)n(C([NH-])=O)c2c1 (3D coordinates assigned)
CC(C)(C)[Si](C)(C)OCCc1ccc2cc(C([NH-])=O)n(C([NH-])=O)c2c1 (optimized conformer: 68.59718061425806 kcal/mol)

>  <smiles>  (89) 
CC(C)(C)[Si](C)(C)OCCc1ccc2cc(C(N)=O)n(C(N)=O)c2c1

>  <score_type>  (89) 
oracle

>  <origin>  (89) 
adg

>  <m_score__min__energy>  (89) 
-11.35

>  <m_primary>  (89) 
energy

$$$$
91:0
     RDKit          3D

 30 32  0  0  0  0  0  0  0  0999 V2000
   -5.4690   26.5220  -30.3640 N   0  0  0  0  0  0  0  0  0  0  0  0
   -6.3330   25.4660  -29.9370 C   0  0  0  0  0  0  0  0  0  0  0  0
   -7.1220   25.6650  -28.9760 O   0  0  0  0  0  0  0  0  0  0  0  0
   -6.3640   24.1710  -30.6450 C   0  0  0  0  0  0  0  0  0  0  0  0
   -7.5420   23.5160  -30.9880 C   0  0  0  0  0  0  0  0  0  0  0  0
   -7.1450   22.3940  -31.6780 C   0  0  0  0  0  0  0  0  0  0  0  0
   -7.9070   21.3780  -32.2430 C   0  0  0  0  0  0  0  0  0  0  0  0
   -7.2330   20.3160  -32.8680 C   0  0  0  0  0  0  0  0  0  0  0  0
   -5.8140   20.2750  -32.9040 C   0  0  0  0  0  0  0  0  0  0  0  0
   -5.0920   19.1520  -33.5550 C   0  0  0  0  0  0  0  0  0  0  0  0
   -5.7570   17.9950  -33.9940 C   0  0  0  0  0  0  0  0  0  0  0  0
   -5.0260   16.9730  -34.5950 C   0  0  0  0  0  0  0  0  0  0  0  0
   -3.6490   17.1180  -34.7430 C   0  0  0  0  0  0  0  0  0  0  0  0
   -3.0440   18.2470  -34.2960 N   0  0  0  0  0  0  0  0  0  0  0  0
   -3.7410   19.2280  -33.7210 N   0  0  0  0  0  0  0  0  0  0  0  0
   -5.0760   21.3350  -32.3230 C   0  0  0  0  0  0  0  0  0  0  0  0
   -5.7750   22.3930  -31.7270 C   0  0  0  0  0  0  0  0  0  0  0  0
   -5.2780   23.4780  -31.0930 N   0  0  0  0  0  0  0  0  0  0  0  0
   -3.8910   23.7680  -30.8420 C   0  0  0  0  0  0  0  0  0  0  0  0
   -3.0250   22.8580  -30.9360 O   0  0  0  0  0  0  0  0  0  0  0  0
   -3.4910   25.0520  -30.4950 O   0  0  0  0  0  0  0  0  0  0  0  0
   -4.9310   26.4510  -31.2550 H   0  0  0  0  0  0  0  0  0  0  0  0
   -5.4330   27.4170  -29.8280 H   0  0  0  0  0  0  0  0  0  0  0  0
   -8.5711   23.8283  -30.7570 H   0  0  0  0  0  0  0  0  0  0  0  0
   -9.0059   21.4049  -32.2018 H   0  0  0  0  0  0  0  0  0  0  0  0
   -7.8117   19.5057  -33.3355 H   0  0  0  0  0  0  0  0  0  0  0  0
   -6.8449   17.8971  -33.8643 H   0  0  0  0  0  0  0  0  0  0  0  0
   -5.5306   16.0618  -34.9487 H   0  0  0  0  0  0  0  0  0  0  0  0
   -3.0561   16.3230  -35.2189 H   0  0  0  0  0  0  0  0  0  0  0  0
   -3.9761   21.3278  -32.3393 H   0  0  0  0  0  0  0  0  0  0  0  0
  1  2  1  0
  2  3  2  0
  2  4  1  0
  4  5  2  0
  5  6  1  0
  6  7  2  0
  7  8  1  0
  8  9  2  0
  9 10  1  0
 10 11  2  0
 11 12  1  0
 12 13  2  0
 13 14  1  0
 14 15  2  0
  9 16  1  0
 16 17  2  0
 17 18  1  0
 18 19  1  0
 19 20  2  0
 19 21  1  0
 18  4  1  0
 17  6  1  0
 15 10  1  0
  1 22  1  0
  1 23  1  0
  5 24  1  0
  7 25  1  0
  8 26  1  0
 11 27  1  0
 12 28  1  0
 13 29  1  0
 16 30  1  0
M  CHG  1  21  -1
M  END
>  <UniqueID>  (90) 
90

>  <SMILES>  (90) 
NC(=O)c1cc2ccc(-c3cccnn3)cc2n1C(=O)[O-]

>  <Energy>  (90) 
78.40429354488937

>  <Genealogy>  (90) 
NC(=O)c1cc2ccc(-c3cccnn3)cc2n1C(=O)[O-] (protonated)
NC(=O)c1cc2ccc(-c3cccnn3)cc2n1C(=O)[O-] (3D coordinates assigned)
NC(=O)c1cc2ccc(-c3cccnn3)cc2n1C(=O)[O-] (optimized conformer: 78.40429354488937 kcal/mol)

>  <smiles>  (90) 
NC(=O)c1cc2ccc(-c3cccnn3)cc2n1C(=O)O

>  <score_type>  (90) 
oracle

>  <origin>  (90) 
adg

>  <m_score__min__energy>  (90) 
-9.3200000000000003

>  <m_primary>  (90) 
energy

$$$$
92:0
     RDKit          3D

 70 73  0  0  0  0  0  0  0  0999 V2000
   -0.0930   21.1720  -35.1500 C   0  0  0  0  0  0  0  0  0  0  0  0
    0.5690   20.1840  -36.0990 C   0  0  0  0  0  0  0  0  0  0  0  0
    0.0150   18.9010  -35.8900 O   0  0  0  0  0  0  0  0  0  0  0  0
   -0.5070   18.7990  -34.5750 C   0  0  0  0  0  0  0  0  0  0  0  0
    0.3870   18.0530  -33.7700 O   0  0  0  0  0  0  0  0  0  0  0  0
   -0.0180   18.0850  -32.4160 C   0  0  0  0  0  0  0  0  0  0  0  0
   -0.2870   19.5270  -32.0120 C   0  0  0  0  0  0  0  0  0  0  0  0
   -1.7990   18.0870  -34.6080 N   0  0  0  0  0  0  0  0  0  0  0  0
   -2.9690   18.6600  -33.9790 C   0  0  0  0  0  0  0  0  0  0  0  0
   -3.0180   19.8900  -33.7090 O   0  0  0  0  0  0  0  0  0  0  0  0
   -4.0840   17.7650  -33.6230 C   0  0  0  0  0  0  0  0  0  0  0  0
   -5.2960   18.1080  -32.9900 C   0  0  0  0  0  0  0  0  0  0  0  0
   -5.7190   19.4800  -32.6660 C   0  0  0  0  0  0  0  0  0  0  0  0
   -7.0240   19.9180  -32.9950 C   0  0  0  0  0  0  0  0  0  0  0  0
   -7.4440   21.2200  -32.6720 C   0  0  0  0  0  0  0  0  0  0  0  0
   -6.5330   22.0590  -32.0330 C   0  0  0  0  0  0  0  0  0  0  0  0
   -6.6770   23.3570  -31.6000 C   0  0  0  0  0  0  0  0  0  0  0  0
   -5.4460   23.7000  -31.0440 C   0  0  0  0  0  0  0  0  0  0  0  0
   -5.1300   25.0510  -30.5410 C   0  0  0  0  0  0  0  0  0  0  0  0
   -3.8860   25.6750  -30.8480 N   0  0  0  0  0  0  0  0  0  0  0  0
   -5.9920   25.6860  -29.8770 O   0  0  0  0  0  0  0  0  0  0  0  0
   -4.5780   22.6510  -31.1200 N   0  0  0  0  0  0  0  0  0  0  0  0
   -3.2390   22.5790  -30.6050 C   0  0  0  0  0  0  0  0  0  0  0  0
   -2.4330   21.7330  -31.0800 O   0  0  0  0  0  0  0  0  0  0  0  0
   -2.8550   23.4270  -29.5560 O   0  0  0  0  0  0  0  0  0  0  0  0
   -3.0070   23.1640  -28.1520 C   0  0  0  0  0  0  0  0  0  0  0  0
   -3.3080   21.6740  -27.9070 C   0  0  0  0  0  0  0  0  0  0  0  0
   -1.6730   23.5170  -27.4760 C   0  0  0  0  0  0  0  0  0  0  0  0
   -4.1160   24.0490  -27.5510 C   0  0  0  0  0  0  0  0  0  0  0  0
   -5.2580   21.6540  -31.7270 C   0  0  0  0  0  0  0  0  0  0  0  0
   -4.8260   20.3530  -32.0080 C   0  0  0  0  0  0  0  0  0  0  0  0
   -6.0730   16.9960  -32.6670 C   0  0  0  0  0  0  0  0  0  0  0  0
   -5.2660   15.6060  -33.1720 S   0  0  0  0  0  0  0  0  0  0  0  0
   -3.9390   16.4030  -33.8200 C   0  0  0  0  0  0  0  0  0  0  0  0
   -2.6850   15.7760  -34.3420 C   0  0  0  0  0  0  0  0  0  0  0  0
   -1.9350   16.7620  -35.2640 C   0  0  2  0  0  0  0  0  0  0  0  0
   -0.6570   16.2200  -35.5590 O   0  0  0  0  0  0  0  0  0  0  0  0
   -0.7470   15.2410  -36.5700 C   0  0  0  0  0  0  0  0  0  0  0  0
    0.1075   20.8727  -34.1107 H   0  0  0  0  0  0  0  0  0  0  0  0
    0.3136   22.1787  -35.3266 H   0  0  0  0  0  0  0  0  0  0  0  0
   -1.1787   21.1788  -35.3266 H   0  0  0  0  0  0  0  0  0  0  0  0
    0.3923   20.4968  -37.1387 H   0  0  0  0  0  0  0  0  0  0  0  0
    1.6521   20.1558  -35.9087 H   0  0  0  0  0  0  0  0  0  0  0  0
   -0.6407   19.8106  -34.1642 H   0  0  0  0  0  0  0  0  0  0  0  0
   -0.9349   17.4902  -32.2914 H   0  0  0  0  0  0  0  0  0  0  0  0
    0.7755   17.6637  -31.7813 H   0  0  0  0  0  0  0  0  0  0  0  0
   -0.3013   19.6038  -30.9148 H   0  0  0  0  0  0  0  0  0  0  0  0
    0.5058   20.1746  -32.4146 H   0  0  0  0  0  0  0  0  0  0  0  0
   -1.2600   19.8452  -32.4146 H   0  0  0  0  0  0  0  0  0  0  0  0
   -7.7157   19.2335  -33.5080 H   0  0  0  0  0  0  0  0  0  0  0  0
   -8.4594   21.5656  -32.9159 H   0  0  0  0  0  0  0  0  0  0  0  0
   -7.5735   23.9897  -31.6765 H   0  0  0  0  0  0  0  0  0  0  0  0
   -2.9880   25.3020  -30.4690 H   0  0  0  0  0  0  0  0  0  0  0  0
   -3.3470   21.4809  -26.8248 H   0  0  0  0  0  0  0  0  0  0  0  0
   -4.2764   21.4161  -28.3606 H   0  0  0  0  0  0  0  0  0  0  0  0
   -2.5157   21.0604  -28.3606 H   0  0  0  0  0  0  0  0  0  0  0  0
   -1.7958   23.4845  -26.3834 H   0  0  0  0  0  0  0  0  0  0  0  0
   -0.9044   22.7913  -27.7804 H   0  0  0  0  0  0  0  0  0  0  0  0
   -1.3639   24.5279  -27.7804 H   0  0  0  0  0  0  0  0  0  0  0  0
   -4.0637   24.0073  -26.4530 H   0  0  0  0  0  0  0  0  0  0  0  0
   -3.9778   25.0878  -27.8855 H   0  0  0  0  0  0  0  0  0  0  0  0
   -5.0982   23.6837  -27.8855 H   0  0  0  0  0  0  0  0  0  0  0  0
   -3.8171   20.0194  -31.7236 H   0  0  0  0  0  0  0  0  0  0  0  0
   -7.0515   17.0221  -32.1652 H   0  0  0  0  0  0  0  0  0  0  0  0
   -2.0358   15.5050  -33.4963 H   0  0  0  0  0  0  0  0  0  0  0  0
   -2.9483   14.8772  -34.9189 H   0  0  0  0  0  0  0  0  0  0  0  0
   -2.5026   16.9054  -36.1953 H   0  0  0  0  0  0  0  0  0  0  0  0
   -0.8385   14.2461  -36.1099 H   0  0  0  0  0  0  0  0  0  0  0  0
   -1.6307   15.4389  -37.1944 H   0  0  0  0  0  0  0  0  0  0  0  0
    0.1580   15.2744  -37.1944 H   0  0  0  0  0  0  0  0  0  0  0  0
  1  2  1  0
  2  3  1  0
  3  4  1  0
  4  5  1  0
  5  6  1  0
  6  7  1  0
  4  8  1  0
  8  9  1  0
  9 10  2  0
  9 11  1  0
 11 12  1  0
 12 13  1  0
 13 14  2  0
 14 15  1  0
 15 16  2  0
 16 17  1  0
 17 18  2  0
 18 19  1  0
 19 20  1  0
 19 21  2  0
 18 22  1  0
 22 23  1  0
 23 24  2  0
 23 25  1  0
 25 26  1  0
 26 27  1  0
 26 28  1  0
 26 29  1  0
 22 30  1  0
 30 31  2  0
 12 32  2  0
 32 33  1  0
 33 34  1  0
 34 35  1  0
 35 36  1  0
 36 37  1  0
 37 38  1  0
 36  8  1  0
 34 11  2  0
 31 13  1  0
 30 16  1  0
  1 39  1  0
  1 40  1  0
  1 41  1  0
  2 42  1  0
  2 43  1  0
  4 44  1  0
  6 45  1  0
  6 46  1  0
  7 47  1  0
  7 48  1  0
  7 49  1  0
 14 50  1  0
 15 51  1  0
 17 52  1  0
 20 53  1  0
 27 54  1  0
 27 55  1  0
 27 56  1  0
 28 57  1  0
 28 58  1  0
 28 59  1  0
 29 60  1  0
 29 61  1  0
 29 62  1  0
 31 63  1  0
 32 64  1  0
 35 65  1  0
 35 66  1  0
 36 67  1  6
 38 68  1  0
 38 69  1  0
 38 70  1  0
M  CHG  1  20  -1
M  END
>  <UniqueID>  (91) 
91

>  <SMILES>  (91) 
CCOC(OCC)N1C(=O)c2c(-c3ccc4cc(C([NH-])=O)n(C(=O)OC(C)(C)C)c4c3)csc2C[C@@H]1OC

>  <Energy>  (91) 
143.45624456587632

>  <Genealogy>  (91) 
CCOC(OCC)N1C(=O)c2c(-c3ccc4cc(C([NH-])=O)n(C(=O)OC(C)(C)C)c4c3)csc2CC1OC (protonated)
CCOC(OCC)N1C(=O)c2c(-c3ccc4cc(C([NH-])=O)n(C(=O)OC(C)(C)C)c4c3)csc2C[C@@H]1OC (chirality)
CCOC(OCC)N1C(=O)c2c(-c3ccc4cc(C([NH-])=O)n(C(=O)OC(C)(C)C)c4c3)csc2C[C@@H]1OC (3D coordinates assigned)
CCOC(OCC)N1C(=O)c2c(-c3ccc4cc(C([NH-])=O)n(C(=O)OC(C)(C)C)c4c3)csc2C[C@@H]1OC (nonaromatic ring conformer: 143.45624456587632 kcal/mol)

>  <smiles>  (91) 
CCOC(OCC)N1C(=O)c2c(-c3ccc4cc(C(N)=O)n(C(=O)OC(C)(C)C)c4c3)csc2CC1OC

>  <score_type>  (91) 
oracle

>  <origin>  (91) 
adg

>  <m_score__min__energy>  (91) 
-11.4

>  <m_primary>  (91) 
energy

$$$$
93:0
     RDKit          3D

 40 42  0  0  0  0  0  0  0  0999 V2000
   -5.2520   15.0410  -34.1860 C   0  0  0  0  0  0  0  0  0  0  0  0
   -6.0410   16.2820  -34.2230 N   0  0  0  0  0  0  0  0  0  0  0  0
   -6.4760   16.6890  -32.8620 C   0  0  0  0  0  0  0  0  0  0  0  0
   -5.5310   17.7120  -32.2090 C   0  0  0  0  0  0  0  0  0  0  0  0
   -5.3200   18.9740  -33.0870 C   0  0  0  0  0  0  0  0  0  0  0  0
   -6.0060   20.2020  -32.5130 C   0  0  0  0  0  0  0  0  0  0  0  0
   -7.4220   20.3070  -32.5010 C   0  0  0  0  0  0  0  0  0  0  0  0
   -8.0550   21.4380  -31.9630 C   0  0  0  0  0  0  0  0  0  0  0  0
   -7.2540   22.4570  -31.4580 C   0  0  0  0  0  0  0  0  0  0  0  0
   -7.6080   23.6410  -30.8550 C   0  0  0  0  0  0  0  0  0  0  0  0
   -6.4060   24.2650  -30.5350 C   0  0  0  0  0  0  0  0  0  0  0  0
   -6.3250   25.6060  -29.9240 C   0  0  0  0  0  0  0  0  0  0  0  0
   -5.4200   26.5920  -30.4220 N   0  0  0  0  0  0  0  0  0  0  0  0
   -7.1090   25.9050  -28.9840 O   0  0  0  0  0  0  0  0  0  0  0  0
   -5.3480   23.4930  -30.9120 N   0  0  0  0  0  0  0  0  0  0  0  0
   -3.9550   23.7370  -30.6450 C   0  0  0  0  0  0  0  0  0  0  0  0
   -3.1440   22.7780  -30.5580 O   0  0  0  0  0  0  0  0  0  0  0  0
   -3.4920   25.0360  -30.4740 O   0  0  0  0  0  0  0  0  0  0  0  0
   -5.8850   22.3880  -31.4790 C   0  0  0  0  0  0  0  0  0  0  0  0
   -5.2270   21.2620  -31.9890 C   0  0  0  0  0  0  0  0  0  0  0  0
   -5.7350   18.7440  -34.5530 C   0  0  0  0  0  0  0  0  0  0  0  0
   -5.3280   17.3340  -34.9900 C   0  0  0  0  0  0  0  0  0  0  0  0
   -5.0693   14.7537  -33.1400 H   0  0  0  0  0  0  0  0  0  0  0  0
   -5.8063   14.2388  -34.6952 H   0  0  0  0  0  0  0  0  0  0  0  0
   -4.2904   15.2025  -34.6952 H   0  0  0  0  0  0  0  0  0  0  0  0
   -7.4792   17.1345  -32.9334 H   0  0  0  0  0  0  0  0  0  0  0  0
   -6.4705   15.7874  -32.2318 H   0  0  0  0  0  0  0  0  0  0  0  0
   -5.9592   18.0215  -31.2442 H   0  0  0  0  0  0  0  0  0  0  0  0
   -4.5519   17.2272  -32.0812 H   0  0  0  0  0  0  0  0  0  0  0  0
   -4.2374   19.1688  -33.0772 H   0  0  0  0  0  0  0  0  0  0  0  0
   -8.0305   19.4914  -32.9187 H   0  0  0  0  0  0  0  0  0  0  0  0
   -9.1520   21.5164  -31.9413 H   0  0  0  0  0  0  0  0  0  0  0  0
   -8.6249   24.0153  -30.6658 H   0  0  0  0  0  0  0  0  0  0  0  0
   -4.8790   26.4320  -31.3010 H   0  0  0  0  0  0  0  0  0  0  0  0
   -5.3520   27.5230  -29.9550 H   0  0  0  0  0  0  0  0  0  0  0  0
   -4.1286   21.2022  -31.9827 H   0  0  0  0  0  0  0  0  0  0  0  0
   -6.8254   18.8550  -34.6460 H   0  0  0  0  0  0  0  0  0  0  0  0
   -5.2322   19.4832  -35.1940 H   0  0  0  0  0  0  0  0  0  0  0  0
   -5.5610   17.2130  -36.0582 H   0  0  0  0  0  0  0  0  0  0  0  0
   -4.2507   17.2191  -34.7999 H   0  0  0  0  0  0  0  0  0  0  0  0
  1  2  1  0
  2  3  1  0
  3  4  1  0
  4  5  1  0
  5  6  1  0
  6  7  2  0
  7  8  1  0
  8  9  2  0
  9 10  1  0
 10 11  2  0
 11 12  1  0
 12 13  1  0
 12 14  2  0
 11 15  1  0
 15 16  1  0
 16 17  2  0
 16 18  1  0
 15 19  1  0
 19 20  2  0
  5 21  1  0
 21 22  1  0
 22  2  1  0
 20  6  1  0
 19  9  1  0
  1 23  1  0
  1 24  1  0
  1 25  1  0
  3 26  1  0
  3 27  1  0
  4 28  1  0
  4 29  1  0
  5 30  1  0
  7 31  1  0
  8 32  1  0
 10 33  1  0
 13 34  1  0
 13 35  1  0
 20 36  1  0
 21 37  1  0
 21 38  1  0
 22 39  1  0
 22 40  1  0
M  CHG  1  18  -1
M  END
>  <UniqueID>  (92) 
92

>  <SMILES>  (92) 
CN1CCC(c2ccc3cc(C(N)=O)n(C(=O)[O-])c3c2)CC1

>  <Energy>  (92) 
90.29934874154416

>  <Genealogy>  (92) 
CN1CCC(c2ccc3cc(C(N)=O)n(C(=O)[O-])c3c2)CC1 (protonated)
CN1CCC(c2ccc3cc(C(N)=O)n(C(=O)[O-])c3c2)CC1 (3D coordinates assigned)
CN1CCC(c2ccc3cc(C(N)=O)n(C(=O)[O-])c3c2)CC1 (nonaromatic ring conformer: 90.29934874154416 kcal/mol)

>  <smiles>  (92) 
CN1CCC(c2ccc3cc(C(N)=O)n(C(=O)O)c3c2)CC1

>  <score_type>  (92) 
oracle

>  <origin>  (92) 
adg

>  <m_score__min__energy>  (92) 
-9.8800000000000008

>  <m_primary>  (92) 
energy

$$$$
94:0
     RDKit          3D

 27 28  0  0  0  0  0  0  0  0999 V2000
   -3.1530   22.3600  -29.9890 C   0  0  0  0  0  0  0  0  0  0  0  0
   -3.8830   22.4560  -31.2900 C   0  0  0  0  0  0  0  0  0  0  0  0
   -3.2470   22.2990  -32.3670 O   0  0  0  0  0  0  0  0  0  0  0  0
   -5.2920   22.7350  -31.3260 N   0  0  0  0  0  0  0  0  0  0  0  0
   -5.9250   23.8680  -30.9090 C   0  0  0  0  0  0  0  0  0  0  0  0
   -5.2680   25.1080  -30.4450 C   0  0  0  0  0  0  0  0  0  0  0  0
   -3.8650   25.2990  -30.5970 N   0  0  0  0  0  0  0  0  0  0  0  0
   -5.9630   26.0290  -29.9360 O   0  0  0  0  0  0  0  0  0  0  0  0
   -7.3060   23.7260  -31.0320 C   0  0  0  0  0  0  0  0  0  0  0  0
   -7.5010   22.4630  -31.5430 C   0  0  0  0  0  0  0  0  0  0  0  0
   -8.6820   21.7900  -31.8400 C   0  0  0  0  0  0  0  0  0  0  0  0
   -8.5870   20.4730  -32.3210 C   0  0  0  0  0  0  0  0  0  0  0  0
   -7.3220   19.8600  -32.4950 C   0  0  0  0  0  0  0  0  0  0  0  0
   -7.2360   18.4350  -32.9560 C   0  0  0  0  0  0  0  0  0  0  0  0
   -6.1460   20.5670  -32.1660 C   0  0  0  0  0  0  0  0  0  0  0  0
   -6.2700   21.8840  -31.7080 C   0  0  0  0  0  0  0  0  0  0  0  0
   -3.8688   22.4541  -29.1591 H   0  0  0  0  0  0  0  0  0  0  0  0
   -2.6436   21.3871  -29.9253 H   0  0  0  0  0  0  0  0  0  0  0  0
   -2.4094   23.1681  -29.9253 H   0  0  0  0  0  0  0  0  0  0  0  0
   -3.4880   26.0340  -31.2350 H   0  0  0  0  0  0  0  0  0  0  0  0
   -8.0773   24.4669  -30.7749 H   0  0  0  0  0  0  0  0  0  0  0  0
   -9.6602   22.2740  -31.7025 H   0  0  0  0  0  0  0  0  0  0  0  0
   -9.5024   19.9137  -32.5643 H   0  0  0  0  0  0  0  0  0  0  0  0
   -7.1958   17.7686  -32.0818 H   0  0  0  0  0  0  0  0  0  0  0  0
   -8.1211   18.1917  -33.5621 H   0  0  0  0  0  0  0  0  0  0  0  0
   -6.3281   18.2999  -33.5621 H   0  0  0  0  0  0  0  0  0  0  0  0
   -5.1573   20.0954  -32.2668 H   0  0  0  0  0  0  0  0  0  0  0  0
  1  2  1  0
  2  3  2  0
  2  4  1  0
  4  5  1  0
  5  6  1  0
  6  7  1  0
  6  8  2  0
  5  9  2  0
  9 10  1  0
 10 11  2  0
 11 12  1  0
 12 13  2  0
 13 14  1  0
 13 15  1  0
 15 16  2  0
 16  4  1  0
 16 10  1  0
  1 17  1  0
  1 18  1  0
  1 19  1  0
  7 20  1  0
  9 21  1  0
 11 22  1  0
 12 23  1  0
 14 24  1  0
 14 25  1  0
 14 26  1  0
 15 27  1  0
M  CHG  1   7  -1
M  END
>  <UniqueID>  (93) 
93

>  <SMILES>  (93) 
CC(=O)n1c(C([NH-])=O)cc2ccc(C)cc21

>  <Energy>  (93) 
65.33271021039423

>  <Genealogy>  (93) 
CC(=O)n1c(C([NH-])=O)cc2ccc(C)cc21 (protonated)
CC(=O)n1c(C([NH-])=O)cc2ccc(C)cc21 (3D coordinates assigned)
CC(=O)n1c(C([NH-])=O)cc2ccc(C)cc21 (optimized conformer: 65.33271021039423 kcal/mol)

>  <smiles>  (93) 
CC(=O)n1c(C(N)=O)cc2ccc(C)cc21

>  <score_type>  (93) 
oracle

>  <origin>  (93) 
adg

>  <m_score__min__energy>  (93) 
-9.6899999999999995

>  <m_primary>  (93) 
energy

$$$$
95:0
     RDKit          3D

 31 33  0  0  0  0  0  0  0  0999 V2000
   -1.5890   26.0030  -28.9280 N   0  0  0  0  0  0  0  0  0  0  0  0
   -0.9080   24.7560  -28.8170 C   0  0  0  0  0  0  0  0  0  0  0  0
    0.0960   24.6670  -28.0600 O   0  0  0  0  0  0  0  0  0  0  0  0
   -1.3240   23.5880  -29.6190 C   0  0  0  0  0  0  0  0  0  0  0  0
   -0.4630   22.5460  -29.9590 C   0  0  0  0  0  0  0  0  0  0  0  0
   -1.1980   21.7180  -30.7750 C   0  0  0  0  0  0  0  0  0  0  0  0
   -0.8380   20.5250  -31.3940 C   0  0  0  0  0  0  0  0  0  0  0  0
   -1.8090   19.8610  -32.1610 C   0  0  0  0  0  0  0  0  0  0  0  0
   -3.1200   20.3910  -32.2910 C   0  0  0  0  0  0  0  0  0  0  0  0
   -4.1420   19.6730  -33.0940 C   0  0  0  0  0  0  0  0  0  0  0  0
   -3.7850   18.5550  -33.8720 C   0  0  0  0  0  0  0  0  0  0  0  0
   -4.7480   17.8800  -34.6280 C   0  0  0  0  0  0  0  0  0  0  0  0
   -6.0760   18.3120  -34.6160 C   0  0  0  0  0  0  0  0  0  0  0  0
   -6.4450   19.4190  -33.8480 C   0  0  0  0  0  0  0  0  0  0  0  0
   -5.4840   20.0980  -33.0900 C   0  0  0  0  0  0  0  0  0  0  0  0
   -3.4460   21.6070  -31.6430 C   0  0  0  0  0  0  0  0  0  0  0  0
   -2.4510   22.2560  -30.9010 C   0  0  0  0  0  0  0  0  0  0  0  0
   -2.5460   23.4050  -30.1950 N   0  0  0  0  0  0  0  0  0  0  0  0
   -3.7300   24.2000  -30.0130 C   0  0  0  0  0  0  0  0  0  0  0  0
   -4.6510   23.8050  -29.2510 O   0  0  0  0  0  0  0  0  0  0  0  0
   -3.8560   25.4260  -30.6540 O   0  0  0  0  0  0  0  0  0  0  0  0
   -2.6310   26.0450  -28.9630 H   0  0  0  0  0  0  0  0  0  0  0  0
    0.5821   22.4139  -29.6421 H   0  0  0  0  0  0  0  0  0  0  0  0
    0.1767   20.1143  -31.2858 H   0  0  0  0  0  0  0  0  0  0  0  0
   -1.5510   18.9191  -32.6672 H   0  0  0  0  0  0  0  0  0  0  0  0
   -2.7405   18.2101  -33.8851 H   0  0  0  0  0  0  0  0  0  0  0  0
   -4.4594   17.0077  -35.2329 H   0  0  0  0  0  0  0  0  0  0  0  0
   -6.8322   17.7800  -35.2119 H   0  0  0  0  0  0  0  0  0  0  0  0
   -7.4916   19.7573  -33.8389 H   0  0  0  0  0  0  0  0  0  0  0  0
   -5.7794   20.9694  -32.4872 H   0  0  0  0  0  0  0  0  0  0  0  0
   -4.4575   22.0322  -31.7205 H   0  0  0  0  0  0  0  0  0  0  0  0
  1  2  1  0
  2  3  2  0
  2  4  1  0
  4  5  2  0
  5  6  1  0
  6  7  2  0
  7  8  1  0
  8  9  2  0
  9 10  1  0
 10 11  2  0
 11 12  1  0
 12 13  2  0
 13 14  1  0
 14 15  2  0
  9 16  1  0
 16 17  2  0
 17 18  1  0
 18 19  1  0
 19 20  2  0
 19 21  1  0
 18  4  1  0
 17  6  1  0
 15 10  1  0
  1 22  1  0
  5 23  1  0
  7 24  1  0
  8 25  1  0
 11 26  1  0
 12 27  1  0
 13 28  1  0
 14 29  1  0
 15 30  1  0
 16 31  1  0
M  CHG  2   1  -1  21  -1
M  END
>  <UniqueID>  (94) 
94

>  <SMILES>  (94) 
[NH-]C(=O)c1cc2ccc(-c3ccccc3)cc2n1C(=O)[O-]

>  <Energy>  (94) 
79.16839621617996

>  <Genealogy>  (94) 
[NH-]C(=O)c1cc2ccc(-c3ccccc3)cc2n1C(=O)[O-] (protonated)
[NH-]C(=O)c1cc2ccc(-c3ccccc3)cc2n1C(=O)[O-] (3D coordinates assigned)
[NH-]C(=O)c1cc2ccc(-c3ccccc3)cc2n1C(=O)[O-] (optimized conformer: 79.16839621617996 kcal/mol)

>  <smiles>  (94) 
NC(=O)c1cc2ccc(-c3ccccc3)cc2n1C(=O)O

>  <score_type>  (94) 
oracle

>  <origin>  (94) 
adg

>  <m_score__min__energy>  (94) 
-11.31

>  <m_primary>  (94) 
energy

$$$$
