0:0
     RDKit          3D

 52 53  0  0  0  0  0  0  0  0999 V2000
   -6.5530   15.8510  -33.8250 C   0  0  0  0  0  0  0  0  0  0  0  0
   -5.6900   16.8030  -33.0910 N   0  0  2  0  0  0  0  0  0  0  0  0
   -6.5330   17.7080  -32.3210 C   0  0  0  0  0  0  0  0  0  0  0  0
   -6.3700   17.8350  -31.1150 O   0  0  0  0  0  0  0  0  0  0  0  0
   -7.5520   18.5780  -33.0100 C   0  0  0  0  0  0  0  0  0  0  0  0
   -7.5720   19.9430  -32.3820 C   0  0  0  0  0  0  0  0  0  0  0  0
   -8.7960   20.6370  -32.2190 C   0  0  0  0  0  0  0  0  0  0  0  0
   -8.8160   21.9370  -31.6850 C   0  0  0  0  0  0  0  0  0  0  0  0
   -7.6020   22.5130  -31.3260 C   0  0  0  0  0  0  0  0  0  0  0  0
   -7.3300   23.7670  -30.8270 C   0  0  0  0  0  0  0  0  0  0  0  0
   -5.9450   23.8140  -30.6820 C   0  0  0  0  0  0  0  0  0  0  0  0
   -5.2260   24.9660  -30.0980 C   0  0  0  0  0  0  0  0  0  0  0  0
   -4.2320   25.6650  -30.8430 N   0  0  0  0  0  0  0  0  0  0  0  0
   -5.4600   25.3090  -28.9080 O   0  0  0  0  0  0  0  0  0  0  0  0
   -5.3820   22.6390  -31.0810 N   0  0  0  0  0  0  0  0  0  0  0  0
   -3.9850   22.3260  -31.1880 C   0  0  0  0  0  0  0  0  0  0  0  0
   -3.6190   21.3030  -31.8300 O   0  0  0  0  0  0  0  0  0  0  0  0
   -3.0380   23.1690  -30.5960 O   0  0  0  0  0  0  0  0  0  0  0  0
   -2.3620   22.8660  -29.3770 C   0  0  0  0  0  0  0  0  0  0  0  0
   -1.6530   24.1020  -28.8270 C   0  0  0  0  0  0  0  0  0  0  0  0
   -2.3390   25.2620  -29.2040 O   0  0  0  0  0  0  0  0  0  0  0  0
   -6.4090   21.8520  -31.4700 C   0  0  0  0  0  0  0  0  0  0  0  0
   -6.3580   20.5640  -32.0130 C   0  0  0  0  0  0  0  0  0  0  0  0
   -4.6690   17.5190  -33.9390 C   0  0  0  0  0  0  0  0  0  0  0  0
   -5.3410   18.1340  -35.1940 C   0  0  0  0  0  0  0  0  0  0  0  0
   -3.9330   18.6570  -33.1820 C   0  0  0  0  0  0  0  0  0  0  0  0
   -3.6040   16.5110  -34.4470 C   0  0  0  0  0  0  0  0  0  0  0  0
   -7.1123   15.2340  -33.1063 H   0  0  0  0  0  0  0  0  0  0  0  0
   -7.2595   16.4089  -34.4571 H   0  0  0  0  0  0  0  0  0  0  0  0
   -5.9287   15.2025  -34.4571 H   0  0  0  0  0  0  0  0  0  0  0  0
   -5.1550   16.2190  -32.4050 H   0  0  0  0  0  0  0  0  0  0  0  0
   -7.2914   18.6707  -34.0746 H   0  0  0  0  0  0  0  0  0  0  0  0
   -8.5465   18.1191  -32.9076 H   0  0  0  0  0  0  0  0  0  0  0  0
   -9.7396   20.1541  -32.5130 H   0  0  0  0  0  0  0  0  0  0  0  0
   -9.7626   22.4820  -31.5550 H   0  0  0  0  0  0  0  0  0  0  0  0
   -8.0525   24.5627  -30.5926 H   0  0  0  0  0  0  0  0  0  0  0  0
   -3.2470   25.3220  -30.8780 H   0  0  0  0  0  0  0  0  0  0  0  0
   -3.0947   22.5116  -28.6370 H   0  0  0  0  0  0  0  0  0  0  0  0
   -1.6102   22.0879  -29.5753 H   0  0  0  0  0  0  0  0  0  0  0  0
   -1.6174   24.0418  -27.7292 H   0  0  0  0  0  0  0  0  0  0  0  0
   -0.6322   24.1408  -29.2350 H   0  0  0  0  0  0  0  0  0  0  0  0
   -3.2860   24.9950  -29.3290 H   0  0  0  0  0  0  0  0  0  0  0  0
   -5.3964   20.0474  -32.1493 H   0  0  0  0  0  0  0  0  0  0  0  0
   -6.1190   18.8460  -34.8815 H   0  0  0  0  0  0  0  0  0  0  0  0
   -4.5840   18.6587  -35.7953 H   0  0  0  0  0  0  0  0  0  0  0  0
   -5.7967   17.3335  -35.7953 H   0  0  0  0  0  0  0  0  0  0  0  0
   -4.0338   18.5011  -32.0978 H   0  0  0  0  0  0  0  0  0  0  0  0
   -2.8677   18.6504  -33.4559 H   0  0  0  0  0  0  0  0  0  0  0  0
   -4.3760   19.6259  -33.4559 H   0  0  0  0  0  0  0  0  0  0  0  0
   -3.1058   16.0395  -33.5871 H   0  0  0  0  0  0  0  0  0  0  0  0
   -4.0930   15.7372  -35.0570 H   0  0  0  0  0  0  0  0  0  0  0  0
   -2.8583   17.0418  -35.0570 H   0  0  0  0  0  0  0  0  0  0  0  0
  1  2  1  0
  2  3  1  0
  3  4  2  0
  3  5  1  0
  5  6  1  0
  6  7  2  0
  7  8  1  0
  8  9  2  0
  9 10  1  0
 10 11  2  0
 11 12  1  0
 12 13  1  0
 12 14  2  0
 11 15  1  0
 15 16  1  0
 16 17  2  0
 16 18  1  0
 18 19  1  0
 19 20  1  0
 20 21  1  0
 15 22  1  0
 22 23  2  0
  2 24  1  0
 24 25  1  0
 24 26  1  0
 24 27  1  0
 23  6  1  0
 22  9  1  0
  1 28  1  0
  1 29  1  0
  1 30  1  0
  2 31  1  1
  5 32  1  0
  5 33  1  0
  7 34  1  0
  8 35  1  0
 10 36  1  0
 13 37  1  0
 19 38  1  0
 19 39  1  0
 20 40  1  0
 20 41  1  0
 21 42  1  0
 23 43  1  0
 25 44  1  0
 25 45  1  0
 25 46  1  0
 26 47  1  0
 26 48  1  0
 26 49  1  0
 27 50  1  0
 27 51  1  0
 27 52  1  0
M  CHG  2   2   1  13  -1
M  END
>  <UniqueID>  (1) 
1

>  <SMILES>  (1) 
C[N@H+](C(=O)Cc1ccc2cc(C([NH-])=O)n(C(=O)OCCO)c2c1)C(C)(C)C

>  <Energy>  (1) 
90.73555820703855

>  <Genealogy>  (1) 
C[NH+](C(=O)Cc1ccc2cc(C([NH-])=O)n(C(=O)OCCO)c2c1)C(C)(C)C (protonated)
C[N@H+](C(=O)Cc1ccc2cc(C([NH-])=O)n(C(=O)OCCO)c2c1)C(C)(C)C (chirality)
C[N@H+](C(=O)Cc1ccc2cc(C([NH-])=O)n(C(=O)OCCO)c2c1)C(C)(C)C (3D coordinates assigned)
C[N@H+](C(=O)Cc1ccc2cc(C([NH-])=O)n(C(=O)OCCO)c2c1)C(C)(C)C (optimized conformer: 90.73555820703855 kcal/mol)

>  <smiles>  (1) 
CN(C(=O)Cc1ccc2cc(C(N)=O)n(C(=O)OCCO)c2c1)C(C)(C)C

>  <score_type>  (1) 
oracle

>  <origin>  (1) 
adg

>  <m_score__min__energy>  (1) 
-10.15

>  <m_primary>  (1) 
energy

$$$$
1:0
     RDKit          3D

 35 36  0  0  0  0  0  0  0  0999 V2000
   -7.3770   18.4420  -32.0210 C   0  0  0  0  0  0  0  0  0  0  0  0
   -7.7610   19.6230  -32.8140 N   0  0  0  0  0  0  0  0  0  0  0  0
   -9.0320   20.1620  -32.3050 C   0  0  0  0  0  0  0  0  0  0  0  0
   -6.7080   20.6630  -32.7670 C   0  0  0  0  0  0  0  0  0  0  0  0
   -5.3950   20.1590  -33.3810 C   0  0  0  0  0  0  0  0  0  0  0  0
   -4.2020   20.6360  -32.5930 C   0  0  0  0  0  0  0  0  0  0  0  0
   -3.0080   19.8740  -32.5770 C   0  0  0  0  0  0  0  0  0  0  0  0
   -1.8830   20.3210  -31.8640 C   0  0  0  0  0  0  0  0  0  0  0  0
   -1.9780   21.5370  -31.1940 C   0  0  0  0  0  0  0  0  0  0  0  0
   -1.0510   22.1910  -30.4150 C   0  0  0  0  0  0  0  0  0  0  0  0
   -1.6810   23.3600  -29.9950 C   0  0  0  0  0  0  0  0  0  0  0  0
   -1.0030   24.4040  -29.1990 C   0  0  0  0  0  0  0  0  0  0  0  0
   -1.6110   25.6750  -28.9840 N   0  0  0  0  0  0  0  0  0  0  0  0
    0.1520   24.1900  -28.7430 O   0  0  0  0  0  0  0  0  0  0  0  0
   -2.9510   23.4240  -30.4870 N   0  0  0  0  0  0  0  0  0  0  0  0
   -3.9510   24.4190  -30.2210 C   0  0  0  0  0  0  0  0  0  0  0  0
   -4.9180   24.1620  -29.4570 O   0  0  0  0  0  0  0  0  0  0  0  0
   -3.8760   25.6680  -30.8260 O   0  0  0  0  0  0  0  0  0  0  0  0
   -3.1160   22.3000  -31.2220 C   0  0  0  0  0  0  0  0  0  0  0  0
   -4.2580   21.8690  -31.9060 C   0  0  0  0  0  0  0  0  0  0  0  0
   -7.4540   18.6789  -30.9496 H   0  0  0  0  0  0  0  0  0  0  0  0
   -8.0493   17.6050  -32.2607 H   0  0  0  0  0  0  0  0  0  0  0  0
   -6.3410   18.1604  -32.2607 H   0  0  0  0  0  0  0  0  0  0  0  0
   -9.0184   20.1562  -31.2051 H   0  0  0  0  0  0  0  0  0  0  0  0
   -9.1632   21.1932  -32.6647 H   0  0  0  0  0  0  0  0  0  0  0  0
   -9.8645   19.5395  -32.6647 H   0  0  0  0  0  0  0  0  0  0  0  0
   -7.0505   21.5446  -33.3287 H   0  0  0  0  0  0  0  0  0  0  0  0
   -6.5215   20.9193  -31.7137 H   0  0  0  0  0  0  0  0  0  0  0  0
   -5.4024   19.0591  -33.3889 H   0  0  0  0  0  0  0  0  0  0  0  0
   -5.3159   20.5556  -34.4040 H   0  0  0  0  0  0  0  0  0  0  0  0
   -2.9612   18.9232  -33.1281 H   0  0  0  0  0  0  0  0  0  0  0  0
   -0.9565   19.7286  -31.8362 H   0  0  0  0  0  0  0  0  0  0  0  0
   -0.0296   21.8607  -30.1750 H   0  0  0  0  0  0  0  0  0  0  0  0
   -2.6460   25.7940  -29.0490 H   0  0  0  0  0  0  0  0  0  0  0  0
   -5.1761   22.4749  -31.9087 H   0  0  0  0  0  0  0  0  0  0  0  0
  1  2  1  0
  2  3  1  0
  2  4  1  0
  4  5  1  0
  5  6  1  0
  6  7  2  0
  7  8  1  0
  8  9  2  0
  9 10  1  0
 10 11  2  0
 11 12  1  0
 12 13  1  0
 12 14  2  0
 11 15  1  0
 15 16  1  0
 16 17  2  0
 16 18  1  0
 15 19  1  0
 19 20  2  0
 20  6  1  0
 19  9  1  0
  1 21  1  0
  1 22  1  0
  1 23  1  0
  3 24  1  0
  3 25  1  0
  3 26  1  0
  4 27  1  0
  4 28  1  0
  5 29  1  0
  5 30  1  0
  7 31  1  0
  8 32  1  0
 10 33  1  0
 13 34  1  0
 20 35  1  0
M  CHG  2  13  -1  18  -1
M  END
>  <UniqueID>  (2) 
2

>  <SMILES>  (2) 
CN(C)CCc1ccc2cc(C([NH-])=O)n(C(=O)[O-])c2c1

>  <Energy>  (2) 
72.84477947730852

>  <Genealogy>  (2) 
CN(C)CCc1ccc2cc(C([NH-])=O)n(C(=O)[O-])c2c1 (protonated)
CN(C)CCc1ccc2cc(C([NH-])=O)n(C(=O)[O-])c2c1 (3D coordinates assigned)
CN(C)CCc1ccc2cc(C([NH-])=O)n(C(=O)[O-])c2c1 (optimized conformer: 72.84477947730852 kcal/mol)

>  <smiles>  (2) 
CN(C)CCc1ccc2cc(C(N)=O)n(C(=O)O)c2c1

>  <score_type>  (2) 
oracle

>  <origin>  (2) 
adg

>  <m_score__min__energy>  (2) 
-10.890000000000001

>  <m_primary>  (2) 
energy

$$$$
2:0
     RDKit          3D

 51 54  0  0  0  0  0  0  0  0999 V2000
   -0.9020   22.7450  -29.6690 N   0  0  0  0  0  0  0  0  0  0  0  0
   -2.0480   22.7040  -29.5200 C   0  0  0  0  0  0  0  0  0  0  0  0
   -3.5010   22.6520  -29.3310 C   0  0  0  0  0  0  0  0  0  0  0  0
   -4.1640   22.1890  -30.5910 C   0  0  0  0  0  0  0  0  0  0  0  0
   -3.5630   21.3840  -31.3530 O   0  0  0  0  0  0  0  0  0  0  0  0
   -5.4840   22.6390  -30.9320 N   0  0  0  0  0  0  0  0  0  0  0  0
   -5.9870   23.9000  -30.8160 C   0  0  0  0  0  0  0  0  0  0  0  0
   -5.2290   25.0960  -30.3970 C   0  0  0  0  0  0  0  0  0  0  0  0
   -3.8540   25.2250  -30.7500 N   0  0  0  0  0  0  0  0  0  0  0  0
   -5.7780   26.0010  -29.7140 O   0  0  0  0  0  0  0  0  0  0  0  0
   -7.3280   23.9250  -31.2000 C   0  0  0  0  0  0  0  0  0  0  0  0
   -7.6310   22.6290  -31.5530 C   0  0  0  0  0  0  0  0  0  0  0  0
   -8.8310   22.0750  -31.9880 C   0  0  0  0  0  0  0  0  0  0  0  0
   -8.8650   20.6940  -32.2440 C   0  0  0  0  0  0  0  0  0  0  0  0
   -7.7060   19.8980  -32.0630 C   0  0  0  0  0  0  0  0  0  0  0  0
   -7.7670   18.4120  -32.2880 C   0  0  0  0  0  0  0  0  0  0  0  0
   -6.4450   17.9160  -32.7880 C   0  0  0  0  0  0  0  0  0  0  0  0
   -5.6300   17.3970  -31.9780 O   0  0  0  0  0  0  0  0  0  0  0  0
   -6.1320   17.9860  -34.1860 N   0  0  0  0  0  0  0  0  0  0  0  0
   -4.8710   17.4910  -34.7330 C   0  0  0  0  0  0  0  0  0  0  0  0
   -3.7170   18.1820  -34.0800 C   0  0  0  0  0  0  0  0  0  0  0  0
   -3.3960   19.5290  -34.2230 C   0  0  0  0  0  0  0  0  0  0  0  0
   -2.2810   19.8990  -33.4620 C   0  0  0  0  0  0  0  0  0  0  0  0
   -1.7130   18.8480  -32.7640 C   0  0  0  0  0  0  0  0  0  0  0  0
   -2.6180   17.4550  -33.0250 S   0  0  0  0  0  0  0  0  0  0  0  0
   -0.5560   19.0060  -31.8330 C   0  0  0  0  0  0  0  0  0  0  0  0
    0.1610   20.3410  -32.1130 C   0  0  0  0  0  0  0  0  0  0  0  0
   -0.7970   21.4520  -32.2630 N   0  0  0  0  0  0  0  0  0  0  0  0
   -1.6630   21.2690  -33.4440 C   0  0  0  0  0  0  0  0  0  0  0  0
   -6.5090   20.4940  -31.6100 C   0  0  0  0  0  0  0  0  0  0  0  0
   -6.5010   21.8730  -31.3810 C   0  0  0  0  0  0  0  0  0  0  0  0
   -3.7377   21.9520  -28.5162 H   0  0  0  0  0  0  0  0  0  0  0  0
   -3.8688   23.6572  -29.0773 H   0  0  0  0  0  0  0  0  0  0  0  0
   -3.5140   26.0500  -31.2920 H   0  0  0  0  0  0  0  0  0  0  0  0
   -8.0005   24.7953  -31.2171 H   0  0  0  0  0  0  0  0  0  0  0  0
   -9.7259   22.6994  -32.1272 H   0  0  0  0  0  0  0  0  0  0  0  0
   -9.7993   20.2262  -32.5880 H   0  0  0  0  0  0  0  0  0  0  0  0
   -8.0100   17.9095  -31.3401 H   0  0  0  0  0  0  0  0  0  0  0  0
   -8.5425   18.1911  -33.0362 H   0  0  0  0  0  0  0  0  0  0  0  0
   -6.8370   18.3860  -34.8450 H   0  0  0  0  0  0  0  0  0  0  0  0
   -4.7963   16.4087  -34.5513 H   0  0  0  0  0  0  0  0  0  0  0  0
   -4.8451   17.6935  -35.8139 H   0  0  0  0  0  0  0  0  0  0  0  0
   -3.9567   20.2257  -34.8634 H   0  0  0  0  0  0  0  0  0  0  0  0
   -0.9190   18.9972  -30.7947 H   0  0  0  0  0  0  0  0  0  0  0  0
    0.1493   18.1759  -31.9862 H   0  0  0  0  0  0  0  0  0  0  0  0
    0.8384   20.5646  -31.2757 H   0  0  0  0  0  0  0  0  0  0  0  0
    0.7199   20.2398  -33.0550 H   0  0  0  0  0  0  0  0  0  0  0  0
   -1.3990   21.4960  -31.4070 H   0  0  0  0  0  0  0  0  0  0  0  0
   -2.4637   22.0229  -33.4213 H   0  0  0  0  0  0  0  0  0  0  0  0
   -1.0461   21.3831  -34.3475 H   0  0  0  0  0  0  0  0  0  0  0  0
   -5.6060   19.8889  -31.4416 H   0  0  0  0  0  0  0  0  0  0  0  0
  1  2  3  0
  2  3  1  0
  3  4  1  0
  4  5  2  0
  4  6  1  0
  6  7  1  0
  7  8  1  0
  8  9  1  0
  8 10  2  0
  7 11  2  0
 11 12  1  0
 12 13  2  0
 13 14  1  0
 14 15  2  0
 15 16  1  0
 16 17  1  0
 17 18  2  0
 17 19  1  0
 19 20  1  0
 20 21  1  0
 21 22  2  0
 22 23  1  0
 23 24  2  0
 24 25  1  0
 24 26  1  0
 26 27  1  0
 27 28  1  0
 28 29  1  0
 15 30  1  0
 30 31  2  0
 31  6  1  0
 31 12  1  0
 25 21  1  0
 29 23  1  0
  3 32  1  0
  3 33  1  0
  9 34  1  0
 11 35  1  0
 13 36  1  0
 14 37  1  0
 16 38  1  0
 16 39  1  0
 19 40  1  0
 20 41  1  0
 20 42  1  0
 22 43  1  0
 26 44  1  0
 26 45  1  0
 27 46  1  0
 27 47  1  0
 28 48  1  0
 29 49  1  0
 29 50  1  0
 30 51  1  0
M  CHG  1   9  -1
M  END
>  <UniqueID>  (3) 
3

>  <SMILES>  (3) 
N#CCC(=O)n1c(C([NH-])=O)cc2ccc(CC(=O)NCc3cc4c(s3)CCNC4)cc21

>  <Energy>  (3) 
113.78295670389474

>  <Genealogy>  (3) 
N#CCC(=O)n1c(C([NH-])=O)cc2ccc(CC(=O)NCc3cc4c(s3)CCNC4)cc21 (protonated)
N#CCC(=O)n1c(C([NH-])=O)cc2ccc(CC(=O)NCc3cc4c(s3)CCNC4)cc21 (3D coordinates assigned)
N#CCC(=O)n1c(C([NH-])=O)cc2ccc(CC(=O)NCc3cc4c(s3)CCNC4)cc21 (nonaromatic ring conformer: 113.78295670389474 kcal/mol)

>  <smiles>  (3) 
N#CCC(=O)n1c(C(N)=O)cc2ccc(CC(=O)NCc3cc4c(s3)CCNC4)cc21

>  <score_type>  (3) 
oracle

>  <origin>  (3) 
adg

>  <m_score__min__energy>  (3) 
-11.710000000000001

>  <m_primary>  (3) 
energy

$$$$
3:0
     RDKit          3D

 43 44  0  0  0  0  0  0  0  0999 V2000
   -7.5270   21.8320  -31.6560 C   0  0  0  0  0  0  0  0  0  0  0  0
   -7.6220   20.7420  -32.4210 C   0  0  0  0  0  0  0  0  0  0  0  0
   -8.2380   19.4770  -31.9040 C   0  0  0  0  0  0  0  0  0  0  0  0
   -7.4970   18.3590  -32.3770 O   0  0  0  0  0  0  0  0  0  0  0  0
   -6.2270   18.0310  -31.8960 C   0  0  0  0  0  0  0  0  0  0  0  0
   -6.1070   17.3130  -30.8660 O   0  0  0  0  0  0  0  0  0  0  0  0
   -5.0560   18.5010  -32.5850 N   0  0  0  0  0  0  0  0  0  0  0  0
   -4.6140   18.1280  -33.8210 C   0  0  0  0  0  0  0  0  0  0  0  0
   -5.1540   17.0200  -34.6340 C   0  0  0  0  0  0  0  0  0  0  0  0
   -6.3670   16.3590  -34.2710 N   0  0  0  0  0  0  0  0  0  0  0  0
   -4.5050   16.6120  -35.6320 O   0  0  0  0  0  0  0  0  0  0  0  0
   -3.5280   18.9060  -34.2120 C   0  0  0  0  0  0  0  0  0  0  0  0
   -3.3030   19.7680  -33.1630 C   0  0  0  0  0  0  0  0  0  0  0  0
   -2.3530   20.7740  -33.0240 C   0  0  0  0  0  0  0  0  0  0  0  0
   -2.3750   21.5420  -31.8470 C   0  0  0  0  0  0  0  0  0  0  0  0
   -3.3460   21.3000  -30.8430 C   0  0  0  0  0  0  0  0  0  0  0  0
   -3.3760   22.1500  -29.5950 C   0  0  0  0  0  0  0  0  0  0  0  0
   -2.9080   23.6100  -29.8170 C   0  0  2  0  0  0  0  0  0  0  0  0
   -2.4620   24.3210  -28.5190 C   0  0  0  0  0  0  0  0  0  0  0  0
   -1.1860   25.0900  -28.6970 C   0  0  0  0  0  0  0  0  0  0  0  0
   -1.2150   26.2810  -29.1070 O   0  0  0  0  0  0  0  0  0  0  0  0
    0.0320   24.5040  -28.3790 O   0  0  0  0  0  0  0  0  0  0  0  0
   -3.9630   24.4140  -30.5330 C   0  0  0  0  0  0  0  0  0  0  0  0
   -3.8840   25.6700  -30.5600 O   0  0  0  0  0  0  0  0  0  0  0  0
   -4.9970   23.7810  -31.2130 O   0  0  0  0  0  0  0  0  0  0  0  0
   -4.2910   20.2650  -31.0210 C   0  0  0  0  0  0  0  0  0  0  0  0
   -4.2380   19.5050  -32.1940 C   0  0  0  0  0  0  0  0  0  0  0  0
   -7.0707   22.7484  -32.0585 H   0  0  0  0  0  0  0  0  0  0  0  0
   -7.9050   21.8137  -30.6232 H   0  0  0  0  0  0  0  0  0  0  0  0
   -7.2403   20.7728  -33.4522 H   0  0  0  0  0  0  0  0  0  0  0  0
   -8.2252   19.4862  -30.8041 H   0  0  0  0  0  0  0  0  0  0  0  0
   -9.2766   19.4042  -32.2589 H   0  0  0  0  0  0  0  0  0  0  0  0
   -6.8390   16.5600  -33.3610 H   0  0  0  0  0  0  0  0  0  0  0  0
   -6.7530   15.6030  -34.8770 H   0  0  0  0  0  0  0  0  0  0  0  0
   -2.9690   18.8449  -35.1574 H   0  0  0  0  0  0  0  0  0  0  0  0
   -1.6076   20.9628  -33.8106 H   0  0  0  0  0  0  0  0  0  0  0  0
   -1.6309   22.3393  -31.7035 H   0  0  0  0  0  0  0  0  0  0  0  0
   -4.4082   22.1713  -29.2155 H   0  0  0  0  0  0  0  0  0  0  0  0
   -2.6726   21.6947  -28.8823 H   0  0  0  0  0  0  0  0  0  0  0  0
   -2.0135   23.5462  -30.4540 H   0  0  0  0  0  0  0  0  0  0  0  0
   -3.2541   25.0181  -28.2081 H   0  0  0  0  0  0  0  0  0  0  0  0
   -2.2838   23.5475  -27.7574 H   0  0  0  0  0  0  0  0  0  0  0  0
   -5.0522   20.0612  -30.2535 H   0  0  0  0  0  0  0  0  0  0  0  0
  1  2  2  0
  2  3  1  0
  3  4  1  0
  4  5  1  0
  5  6  2  0
  5  7  1  0
  7  8  1  0
  8  9  1  0
  9 10  1  0
  9 11  2  0
  8 12  2  0
 12 13  1  0
 13 14  2  0
 14 15  1  0
 15 16  2  0
 16 17  1  0
 17 18  1  0
 18 19  1  0
 19 20  1  0
 20 21  2  0
 20 22  1  0
 18 23  1  0
 23 24  2  0
 23 25  1  0
 16 26  1  0
 26 27  2  0
 27  7  1  0
 27 13  1  0
  1 28  1  0
  1 29  1  0
  2 30  1  0
  3 31  1  0
  3 32  1  0
 10 33  1  0
 10 34  1  0
 12 35  1  0
 14 36  1  0
 15 37  1  0
 17 38  1  0
 17 39  1  0
 18 40  1  6
 19 41  1  0
 19 42  1  0
 26 43  1  0
M  CHG  2  22  -1  25  -1
M  END
>  <UniqueID>  (4) 
4

>  <SMILES>  (4) 
C=CCOC(=O)n1c(C(N)=O)cc2ccc(C[C@H](CC(=O)[O-])C(=O)[O-])cc21

>  <Energy>  (4) 
73.75840764153062

>  <Genealogy>  (4) 
C=CCOC(=O)n1c(C(N)=O)cc2ccc(C[C@H](CC(=O)[O-])C(=O)[O-])cc21 (protonated)
C=CCOC(=O)n1c(C(N)=O)cc2ccc(C[C@H](CC(=O)[O-])C(=O)[O-])cc21 (3D coordinates assigned)
C=CCOC(=O)n1c(C(N)=O)cc2ccc(C[C@H](CC(=O)[O-])C(=O)[O-])cc21 (optimized conformer: 73.75840764153062 kcal/mol)

>  <smiles>  (4) 
C=CCOC(=O)n1c(C(N)=O)cc2ccc(C[C@H](CC(=O)O)C(=O)O)cc21

>  <score_type>  (4) 
oracle

>  <origin>  (4) 
adg

>  <m_score__min__energy>  (4) 
-11.220000000000001

>  <m_primary>  (4) 
energy

$$$$
4:0
     RDKit          3D

 45 47  0  0  0  0  0  0  0  0999 V2000
   -3.7430   15.3660  -34.9330 C   0  0  0  0  0  0  0  0  0  0  0  0
   -3.5700   16.8080  -35.1750 N   0  0  0  0  0  0  0  0  0  0  0  0
   -2.4090   17.3220  -34.4270 C   0  0  0  0  0  0  0  0  0  0  0  0
   -4.7870   17.6410  -34.9630 C   0  0  1  0  0  0  0  0  0  0  0  0
   -6.0250   16.7840  -34.5830 C   0  0  0  0  0  0  0  0  0  0  0  0
   -6.2400   16.5250  -33.0750 C   0  0  0  0  0  0  0  0  0  0  0  0
   -5.6160   17.5870  -32.1630 C   0  0  0  0  0  0  0  0  0  0  0  0
   -5.4720   18.8540  -32.8810 N   0  0  0  0  0  0  0  0  0  0  0  0
   -6.0900   20.0580  -32.3880 C   0  0  0  0  0  0  0  0  0  0  0  0
   -7.5020   20.1920  -32.3940 C   0  0  0  0  0  0  0  0  0  0  0  0
   -8.1150   21.3550  -31.8990 C   0  0  0  0  0  0  0  0  0  0  0  0
   -7.2950   22.3670  -31.4090 C   0  0  0  0  0  0  0  0  0  0  0  0
   -7.6260   23.5740  -30.8400 C   0  0  0  0  0  0  0  0  0  0  0  0
   -6.4120   24.1730  -30.5160 C   0  0  0  0  0  0  0  0  0  0  0  0
   -6.3060   25.5260  -29.9330 C   0  0  0  0  0  0  0  0  0  0  0  0
   -5.3680   26.4760  -30.4400 N   0  0  0  0  0  0  0  0  0  0  0  0
   -7.0970   25.8670  -29.0140 O   0  0  0  0  0  0  0  0  0  0  0  0
   -5.3690   23.3650  -30.8560 N   0  0  0  0  0  0  0  0  0  0  0  0
   -3.9750   23.5770  -30.5730 C   0  0  0  0  0  0  0  0  0  0  0  0
   -3.2030   22.6000  -30.3920 O   0  0  0  0  0  0  0  0  0  0  0  0
   -3.4650   24.8680  -30.4900 O   0  0  0  0  0  0  0  0  0  0  0  0
   -5.9270   22.2630  -31.4070 C   0  0  0  0  0  0  0  0  0  0  0  0
   -5.2920   21.1060  -31.8760 C   0  0  0  0  0  0  0  0  0  0  0  0
   -4.5810   18.8860  -34.0450 C   0  0  0  0  0  0  0  0  0  0  0  0
   -3.7658   15.1761  -33.8497 H   0  0  0  0  0  0  0  0  0  0  0  0
   -4.6880   15.0293  -35.3842 H   0  0  0  0  0  0  0  0  0  0  0  0
   -2.9045   14.8153  -35.3842 H   0  0  0  0  0  0  0  0  0  0  0  0
   -2.6015   17.2368  -33.3473 H   0  0  0  0  0  0  0  0  0  0  0  0
   -1.5159   16.7352  -34.6877 H   0  0  0  0  0  0  0  0  0  0  0  0
   -2.2430   18.3777  -34.6877 H   0  0  0  0  0  0  0  0  0  0  0  0
   -5.0026   18.0864  -35.9454 H   0  0  0  0  0  0  0  0  0  0  0  0
   -6.9190   17.2980  -34.9658 H   0  0  0  0  0  0  0  0  0  0  0  0
   -5.8453   15.7944  -35.0284 H   0  0  0  0  0  0  0  0  0  0  0  0
   -7.3222   16.4951  -32.8804 H   0  0  0  0  0  0  0  0  0  0  0  0
   -5.7402   15.5732  -32.8420 H   0  0  0  0  0  0  0  0  0  0  0  0
   -6.2636   17.7383  -31.2868 H   0  0  0  0  0  0  0  0  0  0  0  0
   -4.6215   17.2430  -31.8426 H   0  0  0  0  0  0  0  0  0  0  0  0
   -8.1240   19.3761  -32.7907 H   0  0  0  0  0  0  0  0  0  0  0  0
   -9.2097   21.4625  -31.8987 H   0  0  0  0  0  0  0  0  0  0  0  0
   -8.6351   23.9799  -30.6758 H   0  0  0  0  0  0  0  0  0  0  0  0
   -4.8180   26.2830  -31.3050 H   0  0  0  0  0  0  0  0  0  0  0  0
   -5.2830   27.4170  -29.9940 H   0  0  0  0  0  0  0  0  0  0  0  0
   -4.1962   21.0151  -31.8465 H   0  0  0  0  0  0  0  0  0  0  0  0
   -4.7873   19.7963  -34.6271 H   0  0  0  0  0  0  0  0  0  0  0  0
   -3.5424   18.8771  -33.6826 H   0  0  0  0  0  0  0  0  0  0  0  0
  1  2  1  0
  2  3  1  0
  2  4  1  0
  4  5  1  0
  5  6  1  0
  6  7  1  0
  7  8  1  0
  8  9  1  0
  9 10  2  0
 10 11  1  0
 11 12  2  0
 12 13  1  0
 13 14  2  0
 14 15  1  0
 15 16  1  0
 15 17  2  0
 14 18  1  0
 18 19  1  0
 19 20  2  0
 19 21  1  0
 18 22  1  0
 22 23  2  0
  8 24  1  0
 24  4  1  0
 23  9  1  0
 22 12  1  0
  1 25  1  0
  1 26  1  0
  1 27  1  0
  3 28  1  0
  3 29  1  0
  3 30  1  0
  4 31  1  6
  5 32  1  0
  5 33  1  0
  6 34  1  0
  6 35  1  0
  7 36  1  0
  7 37  1  0
 10 38  1  0
 11 39  1  0
 13 40  1  0
 16 41  1  0
 16 42  1  0
 23 43  1  0
 24 44  1  0
 24 45  1  0
M  CHG  1  21  -1
M  END
>  <UniqueID>  (5) 
5

>  <SMILES>  (5) 
CN(C)[C@H]1CCCN(c2ccc3cc(C(N)=O)n(C(=O)[O-])c3c2)C1

>  <Energy>  (5) 
103.73756808265955

>  <Genealogy>  (5) 
CN(C)C1CCCN(c2ccc3cc(C(N)=O)n(C(=O)[O-])c3c2)C1 (protonated)
CN(C)[C@H]1CCCN(c2ccc3cc(C(N)=O)n(C(=O)[O-])c3c2)C1 (chirality)
CN(C)[C@H]1CCCN(c2ccc3cc(C(N)=O)n(C(=O)[O-])c3c2)C1 (3D coordinates assigned)
CN(C)[C@H]1CCCN(c2ccc3cc(C(N)=O)n(C(=O)[O-])c3c2)C1 (nonaromatic ring conformer: 103.73756808265955 kcal/mol)

>  <smiles>  (5) 
CN(C)C1CCCN(c2ccc3cc(C(N)=O)n(C(=O)O)c3c2)C1

>  <score_type>  (5) 
oracle

>  <origin>  (5) 
adg

>  <m_score__min__energy>  (5) 
-9.8900000000000006

>  <m_primary>  (5) 
energy

$$$$
5:0
     RDKit          3D

 58 60  0  0  0  0  0  0  0  0999 V2000
   -3.1210   21.8260  -32.6700 C   0  0  0  0  0  0  0  0  0  0  0  0
   -2.9150   20.7000  -31.6350 C   0  0  0  0  0  0  0  0  0  0  0  0
   -3.4710   21.1120  -30.2640 C   0  0  0  0  0  0  0  0  0  0  0  0
   -1.4060   20.4290  -31.5000 C   0  0  0  0  0  0  0  0  0  0  0  0
   -3.5380   19.4780  -32.0710 O   0  0  0  0  0  0  0  0  0  0  0  0
   -4.4140   19.3280  -33.1670 C   0  0  0  0  0  0  0  0  0  0  0  0
   -3.9550   19.1990  -34.3380 O   0  0  0  0  0  0  0  0  0  0  0  0
   -5.8420   19.3400  -32.9430 N   0  0  0  0  0  0  0  0  0  0  0  0
   -6.7100   18.3020  -33.1250 C   0  0  0  0  0  0  0  0  0  0  0  0
   -6.4070   17.0300  -33.8080 C   0  0  0  0  0  0  0  0  0  0  0  0
   -5.4030   16.9690  -34.8200 N   0  0  0  0  0  0  0  0  0  0  0  0
   -7.1180   16.0140  -33.5770 O   0  0  0  0  0  0  0  0  0  0  0  0
   -7.9890   18.6360  -32.7060 C   0  0  0  0  0  0  0  0  0  0  0  0
   -7.9010   19.9410  -32.2830 C   0  0  0  0  0  0  0  0  0  0  0  0
   -8.9020   20.7910  -31.8240 C   0  0  0  0  0  0  0  0  0  0  0  0
   -8.5520   22.1150  -31.5160 C   0  0  0  0  0  0  0  0  0  0  0  0
   -7.2160   22.5570  -31.6580 C   0  0  0  0  0  0  0  0  0  0  0  0
   -6.8550   23.9970  -31.3920 C   0  0  0  0  0  0  0  0  0  0  0  0
   -5.8420   24.1350  -30.2440 C   0  0  0  0  0  0  0  0  0  0  0  0
   -4.9130   25.3080  -30.4460 C   0  0  0  0  0  0  0  0  0  0  0  0
   -5.4020   26.4170  -30.8020 O   0  0  0  0  0  0  0  0  0  0  0  0
   -3.5030   25.2310  -30.2110 N   0  0  0  0  0  0  0  0  0  0  0  0
   -2.7690   24.1410  -29.5640 C   0  0  0  0  0  0  0  0  0  0  0  0
   -1.4010   24.6080  -29.0280 C   0  0  2  0  0  0  0  0  0  0  0  0
   -1.0810   24.0330  -27.6530 C   0  0  0  0  0  0  0  0  0  0  0  0
   -0.3510   25.1620  -26.9820 C   0  0  0  0  0  0  0  0  0  0  0  0
   -0.9200   26.3790  -27.6740 C   0  0  0  0  0  0  0  0  0  0  0  0
   -1.3280   26.0210  -28.9730 O   0  0  0  0  0  0  0  0  0  0  0  0
   -6.2220   21.6600  -32.1040 C   0  0  0  0  0  0  0  0  0  0  0  0
   -6.5990   20.3480  -32.4320 C   0  0  0  0  0  0  0  0  0  0  0  0
   -3.2951   22.7777  -32.1466 H   0  0  0  0  0  0  0  0  0  0  0  0
   -2.2239   21.9131  -33.3005 H   0  0  0  0  0  0  0  0  0  0  0  0
   -3.9908   21.5898  -33.3005 H   0  0  0  0  0  0  0  0  0  0  0  0
   -2.8599   20.6592  -29.4694 H   0  0  0  0  0  0  0  0  0  0  0  0
   -3.4410   22.2076  -30.1703 H   0  0  0  0  0  0  0  0  0  0  0  0
   -4.5104   20.7644  -30.1703 H   0  0  0  0  0  0  0  0  0  0  0  0
   -1.1360   20.3805  -30.4347 H   0  0  0  0  0  0  0  0  0  0  0  0
   -1.1605   19.4724  -31.9844 H   0  0  0  0  0  0  0  0  0  0  0  0
   -0.8430   21.2404  -31.9844 H   0  0  0  0  0  0  0  0  0  0  0  0
   -5.1940   16.0620  -35.2990 H   0  0  0  0  0  0  0  0  0  0  0  0
   -4.8770   17.8230  -35.1060 H   0  0  0  0  0  0  0  0  0  0  0  0
   -8.8824   17.9943  -32.7110 H   0  0  0  0  0  0  0  0  0  0  0  0
   -9.9365   20.4363  -31.7060 H   0  0  0  0  0  0  0  0  0  0  0  0
   -9.3232   22.8146  -31.1613 H   0  0  0  0  0  0  0  0  0  0  0  0
   -6.4179   24.4278  -32.3049 H   0  0  0  0  0  0  0  0  0  0  0  0
   -7.7728   24.5287  -31.1006 H   0  0  0  0  0  0  0  0  0  0  0  0
   -6.3910   24.2753  -29.3012 H   0  0  0  0  0  0  0  0  0  0  0  0
   -5.2322   23.2198  -30.2177 H   0  0  0  0  0  0  0  0  0  0  0  0
   -3.3679   23.7580  -28.7246 H   0  0  0  0  0  0  0  0  0  0  0  0
   -2.5914   23.3568  -30.3147 H   0  0  0  0  0  0  0  0  0  0  0  0
   -0.6519   24.2276  -29.7380 H   0  0  0  0  0  0  0  0  0  0  0  0
   -2.0008   23.7759  -27.1072 H   0  0  0  0  0  0  0  0  0  0  0  0
   -0.4977   23.1013  -27.6954 H   0  0  0  0  0  0  0  0  0  0  0  0
   -0.5607   25.1846  -25.9024 H   0  0  0  0  0  0  0  0  0  0  0  0
    0.7434   25.0846  -27.0620 H   0  0  0  0  0  0  0  0  0  0  0  0
   -1.7843   26.7549  -27.1068 H   0  0  0  0  0  0  0  0  0  0  0  0
   -0.1536   27.1661  -27.7297 H   0  0  0  0  0  0  0  0  0  0  0  0
   -5.1739   21.9820  -32.1928 H   0  0  0  0  0  0  0  0  0  0  0  0
  1  2  1  0
  2  3  1  0
  2  4  1  0
  2  5  1  0
  5  6  1  0
  6  7  2  0
  6  8  1  0
  8  9  1  0
  9 10  1  0
 10 11  1  0
 10 12  2  0
  9 13  2  0
 13 14  1  0
 14 15  2  0
 15 16  1  0
 16 17  2  0
 17 18  1  0
 18 19  1  0
 19 20  1  0
 20 21  2  0
 20 22  1  0
 22 23  1  0
 23 24  1  0
 24 25  1  0
 25 26  1  0
 26 27  1  0
 27 28  1  0
 17 29  1  0
 29 30  2  0
 30  8  1  0
 30 14  1  0
 28 24  1  0
  1 31  1  0
  1 32  1  0
  1 33  1  0
  3 34  1  0
  3 35  1  0
  3 36  1  0
  4 37  1  0
  4 38  1  0
  4 39  1  0
 11 40  1  0
 11 41  1  0
 13 42  1  0
 15 43  1  0
 16 44  1  0
 18 45  1  0
 18 46  1  0
 19 47  1  0
 19 48  1  0
 23 49  1  0
 23 50  1  0
 24 51  1  6
 25 52  1  0
 25 53  1  0
 26 54  1  0
 26 55  1  0
 27 56  1  0
 27 57  1  0
 29 58  1  0
M  CHG  1  22  -1
M  END
>  <UniqueID>  (6) 
6

>  <SMILES>  (6) 
CC(C)(C)OC(=O)n1c(C(N)=O)cc2ccc(CCC(=O)[N-]C[C@@H]3CCCO3)cc21

>  <Energy>  (6) 
90.89235078362987

>  <Genealogy>  (6) 
CC(C)(C)OC(=O)n1c(C(N)=O)cc2ccc(CCC(=O)[N-]C[C@@H]3CCCO3)cc21 (protonated)
CC(C)(C)OC(=O)n1c(C(N)=O)cc2ccc(CCC(=O)[N-]C[C@@H]3CCCO3)cc21 (3D coordinates assigned)
CC(C)(C)OC(=O)n1c(C(N)=O)cc2ccc(CCC(=O)[N-]C[C@@H]3CCCO3)cc21 (nonaromatic ring conformer: 90.89235078362987 kcal/mol)

>  <smiles>  (6) 
CC(C)(C)OC(=O)n1c(C(N)=O)cc2ccc(CCC(=O)NC[C@@H]3CCCO3)cc21

>  <score_type>  (6) 
oracle

>  <origin>  (6) 
adg

>  <m_score__min__energy>  (6) 
-11.51

>  <m_primary>  (6) 
energy

$$$$
6:0
     RDKit          3D

 48 50  0  0  0  0  0  0  0  0999 V2000
   -3.4740   21.9280  -33.3780 C   0  0  0  0  0  0  0  0  0  0  0  0
   -2.7680   21.9430  -32.0160 C   0  0  0  0  0  0  0  0  0  0  0  0
   -3.5890   22.6560  -30.9820 C   0  0  0  0  0  0  0  0  0  0  0  0
   -3.0460   23.0220  -29.9040 O   0  0  0  0  0  0  0  0  0  0  0  0
   -5.0020   22.8270  -31.1610 N   0  0  0  0  0  0  0  0  0  0  0  0
   -5.7310   23.9720  -31.0560 C   0  0  0  0  0  0  0  0  0  0  0  0
   -5.2250   25.2780  -30.5900 C   0  0  0  0  0  0  0  0  0  0  0  0
   -3.8780   25.6720  -30.8410 N   0  0  0  0  0  0  0  0  0  0  0  0
   -5.9790   26.0420  -29.9310 O   0  0  0  0  0  0  0  0  0  0  0  0
   -7.0670   23.7290  -31.3740 C   0  0  0  0  0  0  0  0  0  0  0  0
   -7.1320   22.3840  -31.6700 C   0  0  0  0  0  0  0  0  0  0  0  0
   -8.2150   21.6010  -32.0500 C   0  0  0  0  0  0  0  0  0  0  0  0
   -7.9830   20.2380  -32.3100 C   0  0  0  0  0  0  0  0  0  0  0  0
   -6.6790   19.6860  -32.1910 C   0  0  0  0  0  0  0  0  0  0  0  0
   -6.4470   18.2910  -32.4810 N   0  0  0  0  0  0  0  0  0  0  0  0
   -6.4740   17.8310  -33.8780 C   0  0  0  0  0  0  0  0  0  0  0  0
   -6.6430   16.3120  -33.9680 C   0  0  0  0  0  0  0  0  0  0  0  0
   -5.6680   15.6350  -33.1010 N   0  0  0  0  0  0  0  0  0  0  0  0
   -5.1160   14.3630  -33.5010 C   0  0  0  0  0  0  0  0  0  0  0  0
   -5.6510   13.7170  -34.4450 O   0  0  0  0  0  0  0  0  0  0  0  0
   -3.9580   13.8190  -32.8440 N   0  0  0  0  0  0  0  0  0  0  0  0
   -3.4030   12.5260  -33.2270 C   0  0  0  0  0  0  0  0  0  0  0  0
   -5.3640   16.1870  -31.7710 C   0  0  0  0  0  0  0  0  0  0  0  0
   -6.3260   17.3180  -31.3860 C   0  0  0  0  0  0  0  0  0  0  0  0
   -5.6060   20.5200  -31.8000 C   0  0  0  0  0  0  0  0  0  0  0  0
   -5.8710   21.8660  -31.5350 C   0  0  0  0  0  0  0  0  0  0  0  0
   -4.5632   21.9049  -33.2262 H   0  0  0  0  0  0  0  0  0  0  0  0
   -3.2016   22.8321  -33.9422 H   0  0  0  0  0  0  0  0  0  0  0  0
   -3.1634   21.0363  -33.9422 H   0  0  0  0  0  0  0  0  0  0  0  0
   -2.6009   20.9064  -31.6880 H   0  0  0  0  0  0  0  0  0  0  0  0
   -1.8122   22.4759  -32.1272 H   0  0  0  0  0  0  0  0  0  0  0  0
   -3.0790   25.1220  -30.4590 H   0  0  0  0  0  0  0  0  0  0  0  0
   -7.8928   24.4555  -31.3861 H   0  0  0  0  0  0  0  0  0  0  0  0
   -9.2221   22.0332  -32.1446 H   0  0  0  0  0  0  0  0  0  0  0  0
   -8.8213   19.5916  -32.6091 H   0  0  0  0  0  0  0  0  0  0  0  0
   -7.3144   18.3151  -34.3970 H   0  0  0  0  0  0  0  0  0  0  0  0
   -5.5158   18.0990  -34.3470 H   0  0  0  0  0  0  0  0  0  0  0  0
   -7.6605   16.0412  -33.6496 H   0  0  0  0  0  0  0  0  0  0  0  0
   -6.4753   15.9956  -35.0081 H   0  0  0  0  0  0  0  0  0  0  0  0
   -3.4720   14.3580  -32.0950 H   0  0  0  0  0  0  0  0  0  0  0  0
   -3.1560   11.9506  -32.3226 H   0  0  0  0  0  0  0  0  0  0  0  0
   -4.1425   11.9718  -33.8236 H   0  0  0  0  0  0  0  0  0  0  0  0
   -2.4918   12.6803  -33.8236 H   0  0  0  0  0  0  0  0  0  0  0  0
   -5.4449   15.3824  -31.0253 H   0  0  0  0  0  0  0  0  0  0  0  0
   -4.3455   16.6015  -31.7993 H   0  0  0  0  0  0  0  0  0  0  0  0
   -7.3169   16.8918  -31.1703 H   0  0  0  0  0  0  0  0  0  0  0  0
   -5.9306   17.8321  -30.4975 H   0  0  0  0  0  0  0  0  0  0  0  0
   -4.5862   20.1183  -31.7066 H   0  0  0  0  0  0  0  0  0  0  0  0
  1  2  1  0
  2  3  1  0
  3  4  2  0
  3  5  1  0
  5  6  1  0
  6  7  1  0
  7  8  1  0
  7  9  2  0
  6 10  2  0
 10 11  1  0
 11 12  2  0
 12 13  1  0
 13 14  2  0
 14 15  1  0
 15 16  1  0
 16 17  1  0
 17 18  1  0
 18 19  1  0
 19 20  2  0
 19 21  1  0
 21 22  1  0
 18 23  1  0
 23 24  1  0
 14 25  1  0
 25 26  2  0
 26  5  1  0
 26 11  1  0
 24 15  1  0
  1 27  1  0
  1 28  1  0
  1 29  1  0
  2 30  1  0
  2 31  1  0
  8 32  1  0
 10 33  1  0
 12 34  1  0
 13 35  1  0
 16 36  1  0
 16 37  1  0
 17 38  1  0
 17 39  1  0
 21 40  1  0
 22 41  1  0
 22 42  1  0
 22 43  1  0
 23 44  1  0
 23 45  1  0
 24 46  1  0
 24 47  1  0
 25 48  1  0
M  CHG  1   8  -1
M  END
>  <UniqueID>  (7) 
7

>  <SMILES>  (7) 
CCC(=O)n1c(C([NH-])=O)cc2ccc(N3CCN(C(=O)NC)CC3)cc21

>  <Energy>  (7) 
89.65308968468203

>  <Genealogy>  (7) 
CCC(=O)n1c(C([NH-])=O)cc2ccc(N3CCN(C(=O)NC)CC3)cc21 (protonated)
CCC(=O)n1c(C([NH-])=O)cc2ccc(N3CCN(C(=O)NC)CC3)cc21 (3D coordinates assigned)
CCC(=O)n1c(C([NH-])=O)cc2ccc(N3CCN(C(=O)NC)CC3)cc21 (nonaromatic ring conformer: 89.65308968468203 kcal/mol)

>  <smiles>  (7) 
CCC(=O)n1c(C(N)=O)cc2ccc(N3CCN(C(=O)NC)CC3)cc21

>  <score_type>  (7) 
oracle

>  <origin>  (7) 
adg

>  <m_score__min__energy>  (7) 
-10.68

>  <m_primary>  (7) 
energy

$$$$
7:0
     RDKit          3D

 46 48  0  0  0  0  0  0  0  0999 V2000
   -4.0050   22.7230  -28.3790 C   0  0  0  0  0  0  0  0  0  0  0  0
   -2.8100   23.0860  -29.2700 C   0  0  2  0  0  0  0  0  0  0  0  0
   -2.8520   24.5300  -29.6920 C   0  0  0  0  0  0  0  0  0  0  0  0
   -1.9600   25.3250  -29.2970 O   0  0  0  0  0  0  0  0  0  0  0  0
   -3.8380   24.9880  -30.5600 O   0  0  0  0  0  0  0  0  0  0  0  0
   -2.7360   22.1780  -30.4800 C   0  0  0  0  0  0  0  0  0  0  0  0
   -1.5050   22.0190  -31.1690 C   0  0  0  0  0  0  0  0  0  0  0  0
   -1.4150   21.1890  -32.2980 C   0  0  0  0  0  0  0  0  0  0  0  0
   -2.5620   20.5200  -32.7110 C   0  0  0  0  0  0  0  0  0  0  0  0
   -2.7590   19.6810  -33.7830 C   0  0  0  0  0  0  0  0  0  0  0  0
   -4.0990   19.3110  -33.7190 C   0  0  0  0  0  0  0  0  0  0  0  0
   -4.7250   18.3490  -34.6490 C   0  0  0  0  0  0  0  0  0  0  0  0
   -6.1030   18.4570  -35.0090 N   0  0  0  0  0  0  0  0  0  0  0  0
   -4.0450   17.3860  -35.0910 O   0  0  0  0  0  0  0  0  0  0  0  0
   -4.7130   19.9090  -32.6600 N   0  0  0  0  0  0  0  0  0  0  0  0
   -6.1070   19.8620  -32.3160 C   0  0  0  0  0  0  0  0  0  0  0  0
   -6.5510   18.9060  -31.6230 O   0  0  0  0  0  0  0  0  0  0  0  0
   -6.9650   20.8770  -32.7530 O   0  0  0  0  0  0  0  0  0  0  0  0
   -8.2450   21.1290  -32.1760 C   0  0  0  0  0  0  0  0  0  0  0  0
   -8.3320   22.5710  -31.6340 C   0  0  1  0  0  0  0  0  0  0  0  0
   -7.9300   22.6560  -30.1740 C   0  0  0  0  0  0  0  0  0  0  0  0
   -6.4390   22.9560  -30.2020 C   0  0  0  0  0  0  0  0  0  0  0  0
   -6.1000   23.4890  -31.5240 N   0  0  0  0  0  0  0  0  0  0  0  0
   -7.3260   23.4850  -32.3250 C   0  0  0  0  0  0  0  0  0  0  0  0
   -3.7570   20.6440  -32.0500 C   0  0  0  0  0  0  0  0  0  0  0  0
   -3.8820   21.4820  -30.9350 C   0  0  0  0  0  0  0  0  0  0  0  0
   -3.7143   22.8113  -27.3218 H   0  0  0  0  0  0  0  0  0  0  0  0
   -4.8398   23.4081  -28.5882 H   0  0  0  0  0  0  0  0  0  0  0  0
   -4.3177   21.6893  -28.5882 H   0  0  0  0  0  0  0  0  0  0  0  0
   -1.8993   22.9378  -28.6711 H   0  0  0  0  0  0  0  0  0  0  0  0
   -0.6109   22.5525  -30.8141 H   0  0  0  0  0  0  0  0  0  0  0  0
   -0.4650   21.0714  -32.8399 H   0  0  0  0  0  0  0  0  0  0  0  0
   -2.0157   19.3690  -34.5314 H   0  0  0  0  0  0  0  0  0  0  0  0
   -6.5160   17.7950  -35.7020 H   0  0  0  0  0  0  0  0  0  0  0  0
   -6.7350   19.1340  -34.5280 H   0  0  0  0  0  0  0  0  0  0  0  0
   -9.0201   20.9855  -32.9432 H   0  0  0  0  0  0  0  0  0  0  0  0
   -8.3967   20.4303  -31.3401 H   0  0  0  0  0  0  0  0  0  0  0  0
   -9.3775   22.8684  -31.8025 H   0  0  0  0  0  0  0  0  0  0  0  0
   -8.4788   23.4631  -29.6667 H   0  0  0  0  0  0  0  0  0  0  0  0
   -8.1586   21.7310  -29.6244 H   0  0  0  0  0  0  0  0  0  0  0  0
   -6.1947   23.6986  -29.4281 H   0  0  0  0  0  0  0  0  0  0  0  0
   -5.8648   22.0386  -30.0054 H   0  0  0  0  0  0  0  0  0  0  0  0
   -5.7690   24.4770  -31.4200 H   0  0  0  0  0  0  0  0  0  0  0  0
   -7.7321   24.5051  -32.3924 H   0  0  0  0  0  0  0  0  0  0  0  0
   -7.1179   23.1262  -33.3438 H   0  0  0  0  0  0  0  0  0  0  0  0
   -4.8492   21.5970  -30.4239 H   0  0  0  0  0  0  0  0  0  0  0  0
  1  2  1  0
  2  3  1  0
  3  4  2  0
  3  5  1  0
  2  6  1  0
  6  7  2  0
  7  8  1  0
  8  9  2  0
  9 10  1  0
 10 11  2  0
 11 12  1  0
 12 13  1  0
 12 14  2  0
 11 15  1  0
 15 16  1  0
 16 17  2  0
 16 18  1  0
 18 19  1  0
 19 20  1  0
 20 21  1  0
 21 22  1  0
 22 23  1  0
 23 24  1  0
 15 25  1  0
 25 26  2  0
 26  6  1  0
 25  9  1  0
 24 20  1  0
  1 27  1  0
  1 28  1  0
  1 29  1  0
  2 30  1  1
  7 31  1  0
  8 32  1  0
 10 33  1  0
 13 34  1  0
 13 35  1  0
 19 36  1  0
 19 37  1  0
 20 38  1  1
 21 39  1  0
 21 40  1  0
 22 41  1  0
 22 42  1  0
 23 43  1  0
 24 44  1  0
 24 45  1  0
 26 46  1  0
M  CHG  1   5  -1
M  END
>  <UniqueID>  (8) 
8

>  <SMILES>  (8) 
C[C@H](C(=O)[O-])c1ccc2cc(C(N)=O)n(C(=O)OC[C@H]3CCNC3)c2c1

>  <Energy>  (8) 
82.43821852606271

>  <Genealogy>  (8) 
CC(C(=O)[O-])c1ccc2cc(C(N)=O)n(C(=O)OC[C@H]3CCNC3)c2c1 (protonated)
C[C@H](C(=O)[O-])c1ccc2cc(C(N)=O)n(C(=O)OC[C@H]3CCNC3)c2c1 (chirality)
C[C@H](C(=O)[O-])c1ccc2cc(C(N)=O)n(C(=O)OC[C@H]3CCNC3)c2c1 (3D coordinates assigned)
C[C@H](C(=O)[O-])c1ccc2cc(C(N)=O)n(C(=O)OC[C@H]3CCNC3)c2c1 (nonaromatic ring conformer: 82.43821852606271 kcal/mol)

>  <smiles>  (8) 
CC(C(=O)O)c1ccc2cc(C(N)=O)n(C(=O)OC[C@H]3CCNC3)c2c1

>  <score_type>  (8) 
oracle

>  <origin>  (8) 
adg

>  <m_score__min__energy>  (8) 
-10.66

>  <m_primary>  (8) 
energy

$$$$
8:0
     RDKit          3D

 45 46  0  0  0  0  0  0  0  0999 V2000
   -2.7390   18.8010  -26.3020 C   0  0  0  0  0  0  0  0  0  0  0  0
   -2.3150   19.9590  -26.8150 C   0  0  0  0  0  0  0  0  0  0  0  0
   -3.1040   20.7070  -27.8520 C   0  0  0  0  0  0  0  0  0  0  0  0
   -2.6840   22.0680  -27.9070 O   0  0  0  0  0  0  0  0  0  0  0  0
   -3.5720   23.1410  -28.0590 C   0  0  0  0  0  0  0  0  0  0  0  0
   -3.9410   23.8070  -27.0530 O   0  0  0  0  0  0  0  0  0  0  0  0
   -4.0150   23.5610  -29.4410 C   0  0  1  0  0  0  0  0  0  0  0  0
   -3.4210   24.8840  -29.8450 C   0  0  0  0  0  0  0  0  0  0  0  0
   -2.3550   25.3000  -29.3150 O   0  0  0  0  0  0  0  0  0  0  0  0
   -4.0240   25.6340  -30.8460 O   0  0  0  0  0  0  0  0  0  0  0  0
   -3.6880   22.5140  -30.4870 C   0  0  0  0  0  0  0  0  0  0  0  0
   -2.3350   22.2380  -30.8130 C   0  0  0  0  0  0  0  0  0  0  0  0
   -2.0110   21.2550  -31.7630 C   0  0  0  0  0  0  0  0  0  0  0  0
   -3.0550   20.5670  -32.3730 C   0  0  0  0  0  0  0  0  0  0  0  0
   -3.0210   19.5570  -33.3060 C   0  0  0  0  0  0  0  0  0  0  0  0
   -4.3540   19.2350  -33.5520 C   0  0  0  0  0  0  0  0  0  0  0  0
   -4.7900   18.2520  -34.5680 C   0  0  0  0  0  0  0  0  0  0  0  0
   -6.1410   18.2320  -35.0310 N   0  0  0  0  0  0  0  0  0  0  0  0
   -3.9770   17.3970  -35.0100 O   0  0  0  0  0  0  0  0  0  0  0  0
   -5.1800   20.0140  -32.7970 N   0  0  0  0  0  0  0  0  0  0  0  0
   -6.6120   19.9370  -32.7110 C   0  0  0  0  0  0  0  0  0  0  0  0
   -7.1800   18.8170  -32.5870 O   0  0  0  0  0  0  0  0  0  0  0  0
   -7.3760   21.1080  -32.7780 O   0  0  0  0  0  0  0  0  0  0  0  0
   -8.4530   21.3760  -31.8870 C   0  0  0  0  0  0  0  0  0  0  0  0
   -8.0330   22.4120  -30.8890 C   0  0  0  0  0  0  0  0  0  0  0  0
   -7.4080   23.5280  -31.2700 C   0  0  0  0  0  0  0  0  0  0  0  0
   -4.3690   20.8250  -32.0820 C   0  0  0  0  0  0  0  0  0  0  0  0
   -4.7210   21.7840  -31.1250 C   0  0  0  0  0  0  0  0  0  0  0  0
   -2.1346   18.2811  -25.5441 H   0  0  0  0  0  0  0  0  0  0  0  0
   -3.6926   18.3672  -26.6374 H   0  0  0  0  0  0  0  0  0  0  0  0
   -1.3590   20.3778  -26.4677 H   0  0  0  0  0  0  0  0  0  0  0  0
   -2.9469   20.2388  -28.8349 H   0  0  0  0  0  0  0  0  0  0  0  0
   -4.1703   20.6723  -27.5840 H   0  0  0  0  0  0  0  0  0  0  0  0
   -5.1083   23.6699  -29.3881 H   0  0  0  0  0  0  0  0  0  0  0  0
   -1.5305   22.8001  -30.3162 H   0  0  0  0  0  0  0  0  0  0  0  0
   -0.9634   21.0359  -32.0169 H   0  0  0  0  0  0  0  0  0  0  0  0
   -2.1300   19.1002  -33.7615 H   0  0  0  0  0  0  0  0  0  0  0  0
   -6.4500   17.5060  -35.7160 H   0  0  0  0  0  0  0  0  0  0  0  0
   -6.8300   18.9540  -34.7270 H   0  0  0  0  0  0  0  0  0  0  0  0
   -9.3171   21.7466  -32.4580 H   0  0  0  0  0  0  0  0  0  0  0  0
   -8.7298   20.4513  -31.3595 H   0  0  0  0  0  0  0  0  0  0  0  0
   -8.2439   22.2495  -29.8217 H   0  0  0  0  0  0  0  0  0  0  0  0
   -7.1091   24.2746  -30.5195 H   0  0  0  0  0  0  0  0  0  0  0  0
   -7.1918   23.7012  -32.3345 H   0  0  0  0  0  0  0  0  0  0  0  0
   -5.7763   21.9667  -30.8739 H   0  0  0  0  0  0  0  0  0  0  0  0
  1  2  2  0
  2  3  1  0
  3  4  1  0
  4  5  1  0
  5  6  2  0
  5  7  1  0
  7  8  1  0
  8  9  2  0
  8 10  1  0
  7 11  1  0
 11 12  2  0
 12 13  1  0
 13 14  2  0
 14 15  1  0
 15 16  2  0
 16 17  1  0
 17 18  1  0
 17 19  2  0
 16 20  1  0
 20 21  1  0
 21 22  2  0
 21 23  1  0
 23 24  1  0
 24 25  1  0
 25 26  2  0
 20 27  1  0
 27 28  2  0
 28 11  1  0
 27 14  1  0
  1 29  1  0
  1 30  1  0
  2 31  1  0
  3 32  1  0
  3 33  1  0
  7 34  1  1
 12 35  1  0
 13 36  1  0
 15 37  1  0
 18 38  1  0
 18 39  1  0
 24 40  1  0
 24 41  1  0
 25 42  1  0
 26 43  1  0
 26 44  1  0
 28 45  1  0
M  CHG  1  10  -1
M  END
>  <UniqueID>  (9) 
9

>  <SMILES>  (9) 
C=CCOC(=O)[C@@H](C(=O)[O-])c1ccc2cc(C(N)=O)n(C(=O)OCC=C)c2c1

>  <Energy>  (9) 
76.02179583100252

>  <Genealogy>  (9) 
C=CCOC(=O)C(C(=O)[O-])c1ccc2cc(C(N)=O)n(C(=O)OCC=C)c2c1 (protonated)
C=CCOC(=O)[C@@H](C(=O)[O-])c1ccc2cc(C(N)=O)n(C(=O)OCC=C)c2c1 (chirality)
C=CCOC(=O)[C@@H](C(=O)[O-])c1ccc2cc(C(N)=O)n(C(=O)OCC=C)c2c1 (3D coordinates assigned)
C=CCOC(=O)[C@@H](C(=O)[O-])c1ccc2cc(C(N)=O)n(C(=O)OCC=C)c2c1 (optimized conformer: 76.02179583100252 kcal/mol)

>  <smiles>  (9) 
C=CCOC(=O)C(C(=O)O)c1ccc2cc(C(N)=O)n(C(=O)OCC=C)c2c1

>  <score_type>  (9) 
oracle

>  <origin>  (9) 
adg

>  <m_score__min__energy>  (9) 
-10.119999999999999

>  <m_primary>  (9) 
energy

$$$$
9:0
     RDKit          3D

 43 45  0  0  0  0  0  0  0  0999 V2000
   -9.1750   18.4220  -31.5980 C   0  0  0  0  0  0  0  0  0  0  0  0
   -8.2580   18.7810  -32.6950 N   0  0  1  0  0  0  0  0  0  0  0  0
   -7.5630   20.0690  -32.4100 C   0  0  0  0  0  0  0  0  0  0  0  0
   -6.1680   19.8670  -31.7980 C   0  0  0  0  0  0  0  0  0  0  0  0
   -5.2470   19.0370  -32.7310 C   0  0  2  0  0  0  0  0  0  0  0  0
   -4.1960   19.8920  -33.4850 C   0  0  0  0  0  0  0  0  0  0  0  0
   -3.1690   20.5540  -32.5930 C   0  0  0  0  0  0  0  0  0  0  0  0
   -1.8790   19.9840  -32.4470 C   0  0  0  0  0  0  0  0  0  0  0  0
   -0.9140   20.5900  -31.6250 C   0  0  0  0  0  0  0  0  0  0  0  0
   -1.2660   21.7610  -30.9610 C   0  0  0  0  0  0  0  0  0  0  0  0
   -0.5370   22.5360  -30.0880 C   0  0  0  0  0  0  0  0  0  0  0  0
   -1.3890   23.5750  -29.7180 C   0  0  0  0  0  0  0  0  0  0  0  0
   -0.9710   24.6960  -28.8500 C   0  0  0  0  0  0  0  0  0  0  0  0
   -1.6150   25.9640  -28.9260 N   0  0  0  0  0  0  0  0  0  0  0  0
    0.0030   24.5460  -28.0640 O   0  0  0  0  0  0  0  0  0  0  0  0
   -2.6010   23.4420  -30.3290 N   0  0  0  0  0  0  0  0  0  0  0  0
   -3.7720   24.2560  -30.1580 C   0  0  0  0  0  0  0  0  0  0  0  0
   -4.7430   23.8360  -29.4750 O   0  0  0  0  0  0  0  0  0  0  0  0
   -3.8550   25.5020  -30.7650 O   0  0  0  0  0  0  0  0  0  0  0  0
   -2.5070   22.3270  -31.0890 C   0  0  0  0  0  0  0  0  0  0  0  0
   -3.4960   21.7320  -31.8820 C   0  0  0  0  0  0  0  0  0  0  0  0
   -6.0560   18.1160  -33.6750 C   0  0  0  0  0  0  0  0  0  0  0  0
   -7.3400   17.6460  -32.9830 C   0  0  0  0  0  0  0  0  0  0  0  0
   -8.6844   18.6141  -30.6324 H   0  0  0  0  0  0  0  0  0  0  0  0
  -10.0898   19.0284  -31.6715 H   0  0  0  0  0  0  0  0  0  0  0  0
   -9.4350   17.3557  -31.6715 H   0  0  0  0  0  0  0  0  0  0  0  0
   -8.8520   18.9290  -33.5470 H   0  0  0  0  0  0  0  0  0  0  0  0
   -8.1754   20.6511  -31.7056 H   0  0  0  0  0  0  0  0  0  0  0  0
   -7.4330   20.5954  -33.3671 H   0  0  0  0  0  0  0  0  0  0  0  0
   -6.2726   19.3391  -30.8386 H   0  0  0  0  0  0  0  0  0  0  0  0
   -5.7095   20.8566  -31.6553 H   0  0  0  0  0  0  0  0  0  0  0  0
   -4.6614   18.3813  -32.0699 H   0  0  0  0  0  0  0  0  0  0  0  0
   -3.6657   19.2385  -34.1933 H   0  0  0  0  0  0  0  0  0  0  0  0
   -4.7497   20.7033  -33.9801 H   0  0  0  0  0  0  0  0  0  0  0  0
   -1.6308   19.0564  -32.9836 H   0  0  0  0  0  0  0  0  0  0  0  0
    0.0886   20.1523  -31.5100 H   0  0  0  0  0  0  0  0  0  0  0  0
    0.4978   22.3706  -29.7535 H   0  0  0  0  0  0  0  0  0  0  0  0
   -2.6560   26.0370  -28.9490 H   0  0  0  0  0  0  0  0  0  0  0  0
   -4.5027   22.1702  -31.9502 H   0  0  0  0  0  0  0  0  0  0  0  0
   -5.4449   17.2407  -33.9404 H   0  0  0  0  0  0  0  0  0  0  0  0
   -6.3222   18.6772  -34.5829 H   0  0  0  0  0  0  0  0  0  0  0  0
   -7.0746   17.1533  -32.0360 H   0  0  0  0  0  0  0  0  0  0  0  0
   -7.8580   16.9494  -33.6586 H   0  0  0  0  0  0  0  0  0  0  0  0
  1  2  1  0
  2  3  1  0
  3  4  1  0
  4  5  1  0
  5  6  1  0
  6  7  1  0
  7  8  2  0
  8  9  1  0
  9 10  2  0
 10 11  1  0
 11 12  2  0
 12 13  1  0
 13 14  1  0
 13 15  2  0
 12 16  1  0
 16 17  1  0
 17 18  2  0
 17 19  1  0
 16 20  1  0
 20 21  2  0
  5 22  1  0
 22 23  1  0
 23  2  1  0
 21  7  1  0
 20 10  1  0
  1 24  1  0
  1 25  1  0
  1 26  1  0
  2 27  1  6
  3 28  1  0
  3 29  1  0
  4 30  1  0
  4 31  1  0
  5 32  1  1
  6 33  1  0
  6 34  1  0
  8 35  1  0
  9 36  1  0
 11 37  1  0
 14 38  1  0
 21 39  1  0
 22 40  1  0
 22 41  1  0
 23 42  1  0
 23 43  1  0
M  CHG  3   2   1  14  -1  19  -1
M  END
>  <UniqueID>  (10) 
10

>  <SMILES>  (10) 
C[NH+]1CCC(Cc2ccc3cc(C([NH-])=O)n(C(=O)[O-])c3c2)CC1

>  <Energy>  (10) 
91.15931413548712

>  <Genealogy>  (10) 
C[NH+]1CCC(Cc2ccc3cc(C([NH-])=O)n(C(=O)[O-])c3c2)CC1 (protonated)
C[NH+]1CCC(Cc2ccc3cc(C([NH-])=O)n(C(=O)[O-])c3c2)CC1 (3D coordinates assigned)
C[NH+]1CCC(Cc2ccc3cc(C([NH-])=O)n(C(=O)[O-])c3c2)CC1 (nonaromatic ring conformer: 91.15931413548712 kcal/mol)

>  <smiles>  (10) 
CN1CCC(Cc2ccc3cc(C(N)=O)n(C(=O)O)c3c2)CC1

>  <score_type>  (10) 
oracle

>  <origin>  (10) 
adg

>  <m_score__min__energy>  (10) 
-11.82

>  <m_primary>  (10) 
energy

$$$$
10:0
     RDKit          3D

 44 45  0  0  0  0  0  0  0  0999 V2000
   -8.8530   19.9520  -32.7560 C   0  0  0  0  0  0  0  0  0  0  0  0
   -7.7160   20.7970  -32.3620 N   0  0  0  0  0  0  0  0  0  0  0  0
   -6.4500   20.1180  -32.2510 C   0  0  0  0  0  0  0  0  0  0  0  0
   -6.3170   19.1650  -31.4350 O   0  0  0  0  0  0  0  0  0  0  0  0
   -5.3210   20.4640  -33.1810 C   0  0  0  0  0  0  0  0  0  0  0  0
   -4.0970   20.8920  -32.4140 C   0  0  0  0  0  0  0  0  0  0  0  0
   -2.9700   20.0350  -32.3300 C   0  0  0  0  0  0  0  0  0  0  0  0
   -1.8460   20.4040  -31.5740 C   0  0  0  0  0  0  0  0  0  0  0  0
   -1.8780   21.6300  -30.9150 C   0  0  0  0  0  0  0  0  0  0  0  0
   -0.9560   22.2020  -30.0690 C   0  0  0  0  0  0  0  0  0  0  0  0
   -1.5240   23.4080  -29.6670 C   0  0  0  0  0  0  0  0  0  0  0  0
   -0.8450   24.3660  -28.7720 C   0  0  0  0  0  0  0  0  0  0  0  0
   -1.5700   25.4000  -28.1030 N   0  0  0  0  0  0  0  0  0  0  0  0
    0.4070   24.3060  -28.6360 O   0  0  0  0  0  0  0  0  0  0  0  0
   -2.7530   23.5750  -30.2310 N   0  0  0  0  0  0  0  0  0  0  0  0
   -3.7090   24.6110  -29.9560 C   0  0  0  0  0  0  0  0  0  0  0  0
   -4.4160   24.5640  -28.9150 O   0  0  0  0  0  0  0  0  0  0  0  0
   -3.8690   25.6740  -30.8360 O   0  0  0  0  0  0  0  0  0  0  0  0
   -2.9520   22.4790  -30.9980 C   0  0  0  0  0  0  0  0  0  0  0  0
   -4.0890   22.1310  -31.7370 C   0  0  0  0  0  0  0  0  0  0  0  0
   -7.9090   22.1720  -31.8220 C   0  0  0  0  0  0  0  0  0  0  0  0
   -9.3830   22.6270  -31.9670 C   0  0  0  0  0  0  0  0  0  0  0  0
   -7.5710   22.2190  -30.3120 C   0  0  0  0  0  0  0  0  0  0  0  0
   -7.0000   23.1540  -32.5840 C   0  0  0  0  0  0  0  0  0  0  0  0
   -9.3596   19.5755  -31.8551 H   0  0  0  0  0  0  0  0  0  0  0  0
   -9.5607   20.5450  -33.3538 H   0  0  0  0  0  0  0  0  0  0  0  0
   -8.4893   19.1033  -33.3538 H   0  0  0  0  0  0  0  0  0  0  0  0
   -5.0733   19.5814  -33.7890 H   0  0  0  0  0  0  0  0  0  0  0  0
   -5.6405   21.2986  -33.8223 H   0  0  0  0  0  0  0  0  0  0  0  0
   -2.9767   19.0723  -32.8621 H   0  0  0  0  0  0  0  0  0  0  0  0
   -0.9678   19.7453  -31.5045 H   0  0  0  0  0  0  0  0  0  0  0  0
    0.0216   21.7936  -29.7732 H   0  0  0  0  0  0  0  0  0  0  0  0
   -2.5740   25.5830  -28.3220 H   0  0  0  0  0  0  0  0  0  0  0  0
   -1.0790   26.0350  -27.4360 H   0  0  0  0  0  0  0  0  0  0  0  0
   -4.9554   22.8067  -31.7890 H   0  0  0  0  0  0  0  0  0  0  0  0
   -9.8245   22.7633  -30.9688 H   0  0  0  0  0  0  0  0  0  0  0  0
   -9.4205   23.5786  -32.5176 H   0  0  0  0  0  0  0  0  0  0  0  0
   -9.9504   21.8622  -32.5176 H   0  0  0  0  0  0  0  0  0  0  0  0
   -8.4929   22.0908  -29.7257 H   0  0  0  0  0  0  0  0  0  0  0  0
   -6.8663   21.4102  -30.0687 H   0  0  0  0  0  0  0  0  0  0  0  0
   -7.1137   23.1894  -30.0687 H   0  0  0  0  0  0  0  0  0  0  0  0
   -6.4349   23.7644  -31.8642 H   0  0  0  0  0  0  0  0  0  0  0  0
   -6.2988   22.5894  -33.2161 H   0  0  0  0  0  0  0  0  0  0  0  0
   -7.6170   23.8096  -33.2161 H   0  0  0  0  0  0  0  0  0  0  0  0
  1  2  1  0
  2  3  1  0
  3  4  2  0
  3  5  1  0
  5  6  1  0
  6  7  2  0
  7  8  1  0
  8  9  2  0
  9 10  1  0
 10 11  2  0
 11 12  1  0
 12 13  1  0
 12 14  2  0
 11 15  1  0
 15 16  1  0
 16 17  2  0
 16 18  1  0
 15 19  1  0
 19 20  2  0
  2 21  1  0
 21 22  1  0
 21 23  1  0
 21 24  1  0
 20  6  1  0
 19  9  1  0
  1 25  1  0
  1 26  1  0
  1 27  1  0
  5 28  1  0
  5 29  1  0
  7 30  1  0
  8 31  1  0
 10 32  1  0
 13 33  1  0
 13 34  1  0
 20 35  1  0
 22 36  1  0
 22 37  1  0
 22 38  1  0
 23 39  1  0
 23 40  1  0
 23 41  1  0
 24 42  1  0
 24 43  1  0
 24 44  1  0
M  CHG  1  18  -1
M  END
>  <UniqueID>  (11) 
11

>  <SMILES>  (11) 
CN(C(=O)Cc1ccc2cc(C(N)=O)n(C(=O)[O-])c2c1)C(C)(C)C

>  <Energy>  (11) 
85.89515032048138

>  <Genealogy>  (11) 
CN(C(=O)Cc1ccc2cc(C(N)=O)n(C(=O)[O-])c2c1)C(C)(C)C (protonated)
CN(C(=O)Cc1ccc2cc(C(N)=O)n(C(=O)[O-])c2c1)C(C)(C)C (3D coordinates assigned)
CN(C(=O)Cc1ccc2cc(C(N)=O)n(C(=O)[O-])c2c1)C(C)(C)C (optimized conformer: 85.89515032048138 kcal/mol)

>  <smiles>  (11) 
CN(C(=O)Cc1ccc2cc(C(N)=O)n(C(=O)O)c2c1)C(C)(C)C

>  <score_type>  (11) 
oracle

>  <origin>  (11) 
adg

>  <m_score__min__energy>  (11) 
-9.4900000000000002

>  <m_primary>  (11) 
energy

$$$$
11:0
     RDKit          3D

 61 62  0  0  0  0  0  0  0  0999 V2000
   -3.4900   18.6040  -25.9620 C   0  0  0  0  0  0  0  0  0  0  0  0
   -2.6810   19.1200  -26.6920 C   0  0  0  0  0  0  0  0  0  0  0  0
   -1.6930   19.7440  -27.5830 C   0  0  0  0  0  0  0  0  0  0  0  0
   -0.6600   18.8250  -27.8900 O   0  0  0  0  0  0  0  0  0  0  0  0
    0.1630   19.3090  -28.9370 C   0  0  0  0  0  0  0  0  0  0  0  0
    0.5620   18.1760  -29.8810 C   0  0  0  0  0  0  0  0  0  0  0  0
   -0.3010   18.1710  -30.9990 O   0  0  0  0  0  0  0  0  0  0  0  0
    0.4380   18.0800  -32.2040 C   0  0  0  0  0  0  0  0  0  0  0  0
   -0.5160   17.7490  -33.3560 C   0  0  0  0  0  0  0  0  0  0  0  0
   -0.5120   16.3610  -33.6280 O   0  0  0  0  0  0  0  0  0  0  0  0
   -1.3610   15.6720  -32.7310 C   0  0  0  0  0  0  0  0  0  0  0  0
   -2.8050   16.1100  -32.9590 C   0  0  0  0  0  0  0  0  0  0  0  0
   -3.1530   15.9730  -34.3260 O   0  0  0  0  0  0  0  0  0  0  0  0
   -4.5050   16.3230  -34.5630 C   0  0  0  0  0  0  0  0  0  0  0  0
   -5.2720   16.5230  -33.2470 C   0  0  0  0  0  0  0  0  0  0  0  0
   -5.3490   17.9380  -32.8840 N   0  0  0  0  0  0  0  0  0  0  0  0
   -5.6740   18.9700  -33.8260 C   0  0  0  0  0  0  0  0  0  0  0  0
   -5.8440   18.6850  -35.0450 O   0  0  0  0  0  0  0  0  0  0  0  0
   -5.7450   20.3980  -33.3550 C   0  0  0  0  0  0  0  0  0  0  0  0
   -4.5070   20.8240  -32.6080 C   0  0  0  0  0  0  0  0  0  0  0  0
   -3.3560   19.9950  -32.6170 C   0  0  0  0  0  0  0  0  0  0  0  0
   -2.1990   20.3730  -31.9130 C   0  0  0  0  0  0  0  0  0  0  0  0
   -2.2180   21.5850  -31.2290 C   0  0  0  0  0  0  0  0  0  0  0  0
   -1.2460   22.1790  -30.4560 C   0  0  0  0  0  0  0  0  0  0  0  0
   -1.8070   23.3740  -30.0100 C   0  0  0  0  0  0  0  0  0  0  0  0
   -1.0640   24.3670  -29.2080 C   0  0  0  0  0  0  0  0  0  0  0  0
   -1.5970   25.6710  -28.9830 N   0  0  0  0  0  0  0  0  0  0  0  0
    0.0760   24.0770  -28.7570 O   0  0  0  0  0  0  0  0  0  0  0  0
   -3.0800   23.5120  -30.4790 N   0  0  0  0  0  0  0  0  0  0  0  0
   -4.0230   24.5520  -30.1740 C   0  0  0  0  0  0  0  0  0  0  0  0
   -3.9340   25.6760  -30.7350 O   0  0  0  0  0  0  0  0  0  0  0  0
   -5.0290   24.3390  -29.2370 O   0  0  0  0  0  0  0  0  0  0  0  0
   -3.3160   22.4080  -31.2240 C   0  0  0  0  0  0  0  0  0  0  0  0
   -4.4920   22.0420  -31.8920 C   0  0  0  0  0  0  0  0  0  0  0  0
   -4.2281   18.1332  -25.2960 H   0  0  0  0  0  0  0  0  0  0  0  0
   -2.1895   20.0564  -28.5136 H   0  0  0  0  0  0  0  0  0  0  0  0
   -1.2564   20.6181  -27.0777 H   0  0  0  0  0  0  0  0  0  0  0  0
   -0.3875   20.0740  -29.5042 H   0  0  0  0  0  0  0  0  0  0  0  0
    1.0749   19.7401  -28.4982 H   0  0  0  0  0  0  0  0  0  0  0  0
    1.5982   18.3268  -30.2179 H   0  0  0  0  0  0  0  0  0  0  0  0
    0.4853   17.2139  -29.3533 H   0  0  0  0  0  0  0  0  0  0  0  0
    0.9364   19.0401  -32.4033 H   0  0  0  0  0  0  0  0  0  0  0  0
    1.1967   17.2887  -32.1134 H   0  0  0  0  0  0  0  0  0  0  0  0
   -1.5348   18.0598  -33.0813 H   0  0  0  0  0  0  0  0  0  0  0  0
   -0.1818   18.2858  -34.2561 H   0  0  0  0  0  0  0  0  0  0  0  0
   -1.2748   14.5890  -32.9032 H   0  0  0  0  0  0  0  0  0  0  0  0
   -1.0667   15.9034  -31.6967 H   0  0  0  0  0  0  0  0  0  0  0  0
   -3.4740   15.4841  -32.3502 H   0  0  0  0  0  0  0  0  0  0  0  0
   -2.9075   17.1661  -32.6689 H   0  0  0  0  0  0  0  0  0  0  0  0
   -4.5364   17.2583  -35.1411 H   0  0  0  0  0  0  0  0  0  0  0  0
   -4.9819   15.5032  -35.1201 H   0  0  0  0  0  0  0  0  0  0  0  0
   -6.2918   16.1273  -33.3634 H   0  0  0  0  0  0  0  0  0  0  0  0
   -4.7351   15.9895  -32.4488 H   0  0  0  0  0  0  0  0  0  0  0  0
   -5.2180   18.2000  -31.8800 H   0  0  0  0  0  0  0  0  0  0  0  0
   -5.8707   21.0519  -34.2305 H   0  0  0  0  0  0  0  0  0  0  0  0
   -6.5962   20.4787  -32.6629 H   0  0  0  0  0  0  0  0  0  0  0  0
   -3.3686   19.0494  -33.1789 H   0  0  0  0  0  0  0  0  0  0  0  0
   -1.3062   19.7305  -31.9031 H   0  0  0  0  0  0  0  0  0  0  0  0
   -0.2398   21.7923  -30.2369 H   0  0  0  0  0  0  0  0  0  0  0  0
   -2.6270   25.8370  -29.0000 H   0  0  0  0  0  0  0  0  0  0  0  0
   -5.3822   22.6874  -31.8598 H   0  0  0  0  0  0  0  0  0  0  0  0
  1  2  3  0
  2  3  1  0
  3  4  1  0
  4  5  1  0
  5  6  1  0
  6  7  1  0
  7  8  1  0
  8  9  1  0
  9 10  1  0
 10 11  1  0
 11 12  1  0
 12 13  1  0
 13 14  1  0
 14 15  1  0
 15 16  1  0
 16 17  1  0
 17 18  2  0
 17 19  1  0
 19 20  1  0
 20 21  2  0
 21 22  1  0
 22 23  2  0
 23 24  1  0
 24 25  2  0
 25 26  1  0
 26 27  1  0
 26 28  2  0
 25 29  1  0
 29 30  1  0
 30 31  2  0
 30 32  1  0
 29 33  1  0
 33 34  2  0
 34 20  1  0
 33 23  1  0
  1 35  1  0
  3 36  1  0
  3 37  1  0
  5 38  1  0
  5 39  1  0
  6 40  1  0
  6 41  1  0
  8 42  1  0
  8 43  1  0
  9 44  1  0
  9 45  1  0
 11 46  1  0
 11 47  1  0
 12 48  1  0
 12 49  1  0
 14 50  1  0
 14 51  1  0
 15 52  1  0
 15 53  1  0
 16 54  1  0
 19 55  1  0
 19 56  1  0
 21 57  1  0
 22 58  1  0
 24 59  1  0
 27 60  1  0
 34 61  1  0
M  CHG  2  27  -1  32  -1
M  END
>  <UniqueID>  (12) 
12

>  <SMILES>  (12) 
C#CCOCCOCCOCCOCCNC(=O)Cc1ccc2cc(C([NH-])=O)n(C(=O)[O-])c2c1

>  <Energy>  (12) 
100.06230779290281

>  <Genealogy>  (12) 
C#CCOCCOCCOCCOCCNC(=O)Cc1ccc2cc(C([NH-])=O)n(C(=O)[O-])c2c1 (protonated)
C#CCOCCOCCOCCOCCNC(=O)Cc1ccc2cc(C([NH-])=O)n(C(=O)[O-])c2c1 (3D coordinates assigned)
C#CCOCCOCCOCCOCCNC(=O)Cc1ccc2cc(C([NH-])=O)n(C(=O)[O-])c2c1 (optimized conformer: 100.06230779290281 kcal/mol)

>  <smiles>  (12) 
C#CCOCCOCCOCCOCCNC(=O)Cc1ccc2cc(C(N)=O)n(C(=O)O)c2c1

>  <score_type>  (12) 
oracle

>  <origin>  (12) 
adg

>  <m_score__min__energy>  (12) 
-11.369999999999999

>  <m_primary>  (12) 
energy

$$$$
12:0
     RDKit          3D

 54 55  0  0  0  0  0  0  0  0999 V2000
   -1.5090   25.6070  -25.6300 C   0  0  0  0  0  0  0  0  0  0  0  0
   -2.9480   25.4070  -26.1010 C   0  0  0  0  0  0  0  0  0  0  0  0
   -3.0670   24.3330  -27.2010 C   0  0  0  0  0  0  0  0  0  0  0  0
   -2.0710   24.5150  -28.1920 O   0  0  0  0  0  0  0  0  0  0  0  0
   -1.3520   23.3190  -28.4480 C   0  0  1  0  0  0  0  0  0  0  0  0
   -1.2010   23.1380  -29.9770 C   0  0  0  0  0  0  0  0  0  0  0  0
   -1.7830   21.8150  -30.5080 C   0  0  0  0  0  0  0  0  0  0  0  0
   -3.2060   21.8280  -30.4570 O   0  0  0  0  0  0  0  0  0  0  0  0
   -4.0010   22.2370  -31.5310 C   0  0  0  0  0  0  0  0  0  0  0  0
   -3.5100   22.3080  -32.6900 O   0  0  0  0  0  0  0  0  0  0  0  0
   -5.3690   22.6130  -31.2990 N   0  0  0  0  0  0  0  0  0  0  0  0
   -5.8350   23.8510  -30.9700 C   0  0  0  0  0  0  0  0  0  0  0  0
   -5.0060   25.0150  -30.6040 C   0  0  0  0  0  0  0  0  0  0  0  0
   -3.7010   24.8430  -30.0520 N   0  0  0  0  0  0  0  0  0  0  0  0
   -5.4800   26.1760  -30.7230 O   0  0  0  0  0  0  0  0  0  0  0  0
   -7.2270   23.8820  -31.0080 C   0  0  0  0  0  0  0  0  0  0  0  0
   -7.6070   22.6110  -31.3700 C   0  0  0  0  0  0  0  0  0  0  0  0
   -8.8790   22.0890  -31.5850 C   0  0  0  0  0  0  0  0  0  0  0  0
   -8.9800   20.7560  -32.0160 C   0  0  0  0  0  0  0  0  0  0  0  0
   -7.8150   19.9840  -32.2490 C   0  0  0  0  0  0  0  0  0  0  0  0
   -7.9350   18.5590  -32.7170 C   0  0  0  0  0  0  0  0  0  0  0  0
   -6.6400   18.0900  -33.3090 C   0  0  0  0  0  0  0  0  0  0  0  0
   -6.2100   18.5930  -34.3350 O   0  0  0  0  0  0  0  0  0  0  0  0
   -6.5410   20.5430  -32.0060 C   0  0  0  0  0  0  0  0  0  0  0  0
   -6.4690   21.8650  -31.5480 C   0  0  0  0  0  0  0  0  0  0  0  0
    0.0160   23.4230  -27.7530 C   0  0  0  0  0  0  0  0  0  0  0  0
    0.6960   24.5890  -28.1830 O   0  0  0  0  0  0  0  0  0  0  0  0
    1.9120   24.7360  -27.4850 C   0  0  0  0  0  0  0  0  0  0  0  0
   -1.4803   25.6110  -24.5304 H   0  0  0  0  0  0  0  0  0  0  0  0
   -0.8815   24.7874  -26.0102 H   0  0  0  0  0  0  0  0  0  0  0  0
   -1.1288   26.5666  -26.0102 H   0  0  0  0  0  0  0  0  0  0  0  0
   -3.5610   25.0999  -25.2408 H   0  0  0  0  0  0  0  0  0  0  0  0
   -3.2953   26.3601  -26.5264 H   0  0  0  0  0  0  0  0  0  0  0  0
   -2.9472   23.3379  -26.7478 H   0  0  0  0  0  0  0  0  0  0  0  0
   -4.0558   24.4216  -27.6746 H   0  0  0  0  0  0  0  0  0  0  0  0
   -1.8838   22.4404  -28.0539 H   0  0  0  0  0  0  0  0  0  0  0  0
   -1.7186   23.9698  -30.4772 H   0  0  0  0  0  0  0  0  0  0  0  0
   -0.1224   23.1221  -30.1922 H   0  0  0  0  0  0  0  0  0  0  0  0
   -1.4615   21.6729  -31.5503 H   0  0  0  0  0  0  0  0  0  0  0  0
   -1.4166   20.9920  -29.8768 H   0  0  0  0  0  0  0  0  0  0  0  0
   -3.3370   23.8920  -29.8200 H   0  0  0  0  0  0  0  0  0  0  0  0
   -3.1150   25.6760  -29.8220 H   0  0  0  0  0  0  0  0  0  0  0  0
   -7.8820   24.7395  -30.7942 H   0  0  0  0  0  0  0  0  0  0  0  0
   -9.7780   22.7017  -31.4224 H   0  0  0  0  0  0  0  0  0  0  0  0
   -9.9720   20.3076  -32.1740 H   0  0  0  0  0  0  0  0  0  0  0  0
   -8.1954   17.9179  -31.8619 H   0  0  0  0  0  0  0  0  0  0  0  0
   -8.7192   18.5020  -33.4863 H   0  0  0  0  0  0  0  0  0  0  0  0
   -6.0731   17.2869  -32.8154 H   0  0  0  0  0  0  0  0  0  0  0  0
   -5.6268   19.9543  -32.1724 H   0  0  0  0  0  0  0  0  0  0  0  0
   -0.1323   23.4697  -26.6640 H   0  0  0  0  0  0  0  0  0  0  0  0
    0.6184   22.5400  -28.0125 H   0  0  0  0  0  0  0  0  0  0  0  0
    1.7185   24.7126  -26.4024 H   0  0  0  0  0  0  0  0  0  0  0  0
    2.5909   23.9134  -27.7540 H   0  0  0  0  0  0  0  0  0  0  0  0
    2.3754   25.6967  -27.7540 H   0  0  0  0  0  0  0  0  0  0  0  0
  1  2  1  0
  2  3  1  0
  3  4  1  0
  4  5  1  0
  5  6  1  0
  6  7  1  0
  7  8  1  0
  8  9  1  0
  9 10  2  0
  9 11  1  0
 11 12  1  0
 12 13  1  0
 13 14  1  0
 13 15  2  0
 12 16  2  0
 16 17  1  0
 17 18  2  0
 18 19  1  0
 19 20  2  0
 20 21  1  0
 21 22  1  0
 22 23  2  0
 20 24  1  0
 24 25  2  0
  5 26  1  0
 26 27  1  0
 27 28  1  0
 25 11  1  0
 25 17  1  0
  1 29  1  0
  1 30  1  0
  1 31  1  0
  2 32  1  0
  2 33  1  0
  3 34  1  0
  3 35  1  0
  5 36  1  1
  6 37  1  0
  6 38  1  0
  7 39  1  0
  7 40  1  0
 14 41  1  0
 14 42  1  0
 16 43  1  0
 18 44  1  0
 19 45  1  0
 21 46  1  0
 21 47  1  0
 22 48  1  0
 24 49  1  0
 26 50  1  0
 26 51  1  0
 28 52  1  0
 28 53  1  0
 28 54  1  0
M  END
>  <UniqueID>  (13) 
13

>  <SMILES>  (13) 
CCCO[C@@H](CCOC(=O)n1c(C(N)=O)cc2ccc(CC=O)cc21)COC

>  <Energy>  (13) 
85.1102197177546

>  <Genealogy>  (13) 
CCCO[C@@H](CCOC(=O)n1c(C(N)=O)cc2ccc(CC=O)cc21)COC (chirality)
CCCO[C@@H](CCOC(=O)n1c(C(N)=O)cc2ccc(CC=O)cc21)COC (3D coordinates assigned)
CCCO[C@@H](CCOC(=O)n1c(C(N)=O)cc2ccc(CC=O)cc21)COC (optimized conformer: 85.1102197177546 kcal/mol)

>  <smiles>  (13) 
CCCOC(CCOC(=O)n1c(C(N)=O)cc2ccc(CC=O)cc21)COC

>  <score_type>  (13) 
oracle

>  <origin>  (13) 
adg

>  <m_score__min__energy>  (13) 
-8.5500000000000007

>  <m_primary>  (13) 
energy

$$$$
13:0
     RDKit          3D

 35 37  0  0  0  0  0  0  0  0999 V2000
   -1.5800   25.7010  -28.9190 N   0  0  0  0  0  0  0  0  0  0  0  0
   -1.0400   24.3940  -29.1060 C   0  0  0  0  0  0  0  0  0  0  0  0
    0.0480   24.0920  -28.5500 O   0  0  0  0  0  0  0  0  0  0  0  0
   -1.7390   23.4290  -29.9790 C   0  0  0  0  0  0  0  0  0  0  0  0
   -1.1450   22.2670  -30.4680 C   0  0  0  0  0  0  0  0  0  0  0  0
   -2.1390   21.6110  -31.1560 C   0  0  0  0  0  0  0  0  0  0  0  0
   -2.0950   20.4100  -31.8590 C   0  0  0  0  0  0  0  0  0  0  0  0
   -3.2660   19.9850  -32.5080 C   0  0  0  0  0  0  0  0  0  0  0  0
   -4.4500   20.7620  -32.4430 C   0  0  0  0  0  0  0  0  0  0  0  0
   -5.6800   20.3290  -33.1960 C   0  0  0  0  0  0  0  0  0  0  0  0
   -6.9190   20.3210  -32.2910 C   0  0  0  0  0  0  0  0  0  0  0  0
   -7.1400   21.6370  -31.6940 N   0  0  0  0  0  0  0  0  0  0  0  0
   -7.4070   22.7850  -32.3440 C   0  0  0  0  0  0  0  0  0  0  0  0
   -7.4630   23.8010  -31.4130 C   0  0  0  0  0  0  0  0  0  0  0  0
   -7.2230   23.2810  -30.1930 N   0  0  0  0  0  0  0  0  0  0  0  0
   -7.0250   21.9640  -30.3910 C   0  0  0  0  0  0  0  0  0  0  0  0
   -4.4540   21.9780  -31.7250 C   0  0  0  0  0  0  0  0  0  0  0  0
   -3.2780   22.3690  -31.0740 C   0  0  0  0  0  0  0  0  0  0  0  0
   -3.0490   23.4920  -30.3570 N   0  0  0  0  0  0  0  0  0  0  0  0
   -3.9890   24.5520  -30.1140 C   0  0  0  0  0  0  0  0  0  0  0  0
   -3.8670   25.6570  -30.7040 O   0  0  0  0  0  0  0  0  0  0  0  0
   -5.0550   24.3580  -29.2460 O   0  0  0  0  0  0  0  0  0  0  0  0
   -2.6110   25.8650  -28.9440 H   0  0  0  0  0  0  0  0  0  0  0  0
   -0.1025   21.9432  -30.3325 H   0  0  0  0  0  0  0  0  0  0  0  0
   -1.1723   19.8128  -31.9047 H   0  0  0  0  0  0  0  0  0  0  0  0
   -3.2643   19.0405  -33.0719 H   0  0  0  0  0  0  0  0  0  0  0  0
   -5.8515   21.0245  -34.0308 H   0  0  0  0  0  0  0  0  0  0  0  0
   -5.5161   19.3062  -33.5662 H   0  0  0  0  0  0  0  0  0  0  0  0
   -7.7998   20.0449  -32.8893 H   0  0  0  0  0  0  0  0  0  0  0  0
   -6.7582   19.5921  -31.4830 H   0  0  0  0  0  0  0  0  0  0  0  0
   -7.5548   22.8939  -33.4286 H   0  0  0  0  0  0  0  0  0  0  0  0
   -7.6692   24.8595  -31.6301 H   0  0  0  0  0  0  0  0  0  0  0  0
   -7.1840   23.7950  -29.2860 H   0  0  0  0  0  0  0  0  0  0  0  0
   -6.7979   21.2450  -29.5901 H   0  0  0  0  0  0  0  0  0  0  0  0
   -5.3585   22.6023  -31.6784 H   0  0  0  0  0  0  0  0  0  0  0  0
  1  2  1  0
  2  3  2  0
  2  4  1  0
  4  5  2  0
  5  6  1  0
  6  7  2  0
  7  8  1  0
  8  9  2  0
  9 10  1  0
 10 11  1  0
 11 12  1  0
 12 13  1  0
 13 14  2  0
 14 15  1  0
 15 16  2  0
  9 17  1  0
 17 18  2  0
 18 19  1  0
 19 20  1  0
 20 21  2  0
 20 22  1  0
 19  4  1  0
 18  6  1  0
 16 12  1  0
  1 23  1  0
  5 24  1  0
  7 25  1  0
  8 26  1  0
 10 27  1  0
 10 28  1  0
 11 29  1  0
 11 30  1  0
 13 31  1  0
 14 32  1  0
 15 33  1  0
 16 34  1  0
 17 35  1  0
M  CHG  3   1  -1  15   1  22  -1
M  END
>  <UniqueID>  (14) 
14

>  <SMILES>  (14) 
[NH-]C(=O)c1cc2ccc(CCn3cc[nH+]c3)cc2n1C(=O)[O-]

>  <Energy>  (14) 
102.27335476948329

>  <Genealogy>  (14) 
[NH-]C(=O)c1cc2ccc(CCn3cc[nH+]c3)cc2n1C(=O)[O-] (protonated)
[NH-]C(=O)c1cc2ccc(CCn3cc[nH+]c3)cc2n1C(=O)[O-] (3D coordinates assigned)
[NH-]C(=O)c1cc2ccc(CCn3cc[nH+]c3)cc2n1C(=O)[O-] (optimized conformer: 102.27335476948329 kcal/mol)

>  <smiles>  (14) 
NC(=O)c1cc2ccc(CCn3ccnc3)cc2n1C(=O)O

>  <score_type>  (14) 
oracle

>  <origin>  (14) 
adg

>  <m_score__min__energy>  (14) 
-10.91

>  <m_primary>  (14) 
energy

$$$$
14:0
     RDKit          3D

 44 46  0  0  0  0  0  0  0  0999 V2000
   -1.0110   21.9680  -30.5640 C   0  0  0  0  0  0  0  0  0  0  0  0
   -1.9080   21.4460  -31.6380 C   0  0  0  0  0  0  0  0  0  0  0  0
   -1.4860   20.9210  -32.7650 O   0  0  0  0  0  0  0  0  0  0  0  0
   -2.5650   20.5910  -33.4350 C   0  0  0  0  0  0  0  0  0  0  0  0
   -2.5430   20.0530  -34.5730 O   0  0  0  0  0  0  0  0  0  0  0  0
   -3.6690   20.8810  -32.7880 O   0  0  0  0  0  0  0  0  0  0  0  0
   -3.2940   21.4200  -31.6510 C   0  0  0  0  0  0  0  0  0  0  0  0
   -4.2260   21.9030  -30.6170 C   0  0  0  0  0  0  0  0  0  0  0  0
   -3.8490   21.9910  -29.4170 O   0  0  0  0  0  0  0  0  0  0  0  0
   -5.5580   22.3070  -30.9710 N   0  0  0  0  0  0  0  0  0  0  0  0
   -6.1370   23.5200  -30.7490 C   0  0  0  0  0  0  0  0  0  0  0  0
   -5.4550   24.7200  -30.2240 C   0  0  0  0  0  0  0  0  0  0  0  0
   -5.8290   25.3000  -28.9720 N   0  0  0  0  0  0  0  0  0  0  0  0
   -4.4960   25.2190  -30.8710 O   0  0  0  0  0  0  0  0  0  0  0  0
   -7.4850   23.4900  -31.0990 C   0  0  0  0  0  0  0  0  0  0  0  0
   -7.7160   22.2090  -31.5490 C   0  0  0  0  0  0  0  0  0  0  0  0
   -8.8940   21.6140  -31.9890 C   0  0  0  0  0  0  0  0  0  0  0  0
   -8.8550   20.2530  -32.3370 C   0  0  0  0  0  0  0  0  0  0  0  0
   -7.6490   19.5170  -32.2350 C   0  0  0  0  0  0  0  0  0  0  0  0
   -7.6260   18.0450  -32.5620 C   0  0  0  0  0  0  0  0  0  0  0  0
   -6.2250   17.4820  -32.5730 C   0  0  0  0  0  0  0  0  0  0  0  0
   -5.8470   16.7390  -31.6240 O   0  0  0  0  0  0  0  0  0  0  0  0
   -5.3260   17.7360  -33.6750 N   0  0  0  0  0  0  0  0  0  0  0  0
   -5.7630   18.5160  -34.8380 C   0  0  0  0  0  0  0  0  0  0  0  0
   -3.9660   17.1870  -33.6280 C   0  0  0  0  0  0  0  0  0  0  0  0
   -6.4760   20.1510  -31.7670 C   0  0  0  0  0  0  0  0  0  0  0  0
   -6.5390   21.5130  -31.4540 C   0  0  0  0  0  0  0  0  0  0  0  0
   -1.4354   21.7210  -29.5797 H   0  0  0  0  0  0  0  0  0  0  0  0
   -0.0167   21.5074  -30.6607 H   0  0  0  0  0  0  0  0  0  0  0  0
   -0.9202   23.0600  -30.6607 H   0  0  0  0  0  0  0  0  0  0  0  0
   -6.4780   24.8090  -28.3200 H   0  0  0  0  0  0  0  0  0  0  0  0
   -5.3720   26.1810  -28.6480 H   0  0  0  0  0  0  0  0  0  0  0  0
   -8.2105   24.3140  -31.0305 H   0  0  0  0  0  0  0  0  0  0  0  0
   -9.8275   22.1912  -32.0623 H   0  0  0  0  0  0  0  0  0  0  0  0
   -9.7692   19.7547  -32.6918 H   0  0  0  0  0  0  0  0  0  0  0  0
   -8.2179   17.5058  -31.8077 H   0  0  0  0  0  0  0  0  0  0  0  0
   -8.0476   17.9177  -33.5700 H   0  0  0  0  0  0  0  0  0  0  0  0
   -6.2741   19.4283  -34.4966 H   0  0  0  0  0  0  0  0  0  0  0  0
   -4.8877   18.7913  -35.4447 H   0  0  0  0  0  0  0  0  0  0  0  0
   -6.4548   17.9133  -35.4447 H   0  0  0  0  0  0  0  0  0  0  0  0
   -3.6570   17.0623  -32.5797 H   0  0  0  0  0  0  0  0  0  0  0  0
   -3.9470   16.2108  -34.1345 H   0  0  0  0  0  0  0  0  0  0  0  0
   -3.2746   17.8764  -34.1345 H   0  0  0  0  0  0  0  0  0  0  0  0
   -5.5379   19.5883  -31.6518 H   0  0  0  0  0  0  0  0  0  0  0  0
  1  2  1  0
  2  3  1  0
  3  4  1  0
  4  5  2  0
  4  6  1  0
  6  7  1  0
  7  8  1  0
  8  9  2  0
  8 10  1  0
 10 11  1  0
 11 12  1  0
 12 13  1  0
 12 14  2  0
 11 15  2  0
 15 16  1  0
 16 17  2  0
 17 18  1  0
 18 19  2  0
 19 20  1  0
 20 21  1  0
 21 22  2  0
 21 23  1  0
 23 24  1  0
 23 25  1  0
 19 26  1  0
 26 27  2  0
  7  2  2  0
 27 10  1  0
 27 16  1  0
  1 28  1  0
  1 29  1  0
  1 30  1  0
 13 31  1  0
 13 32  1  0
 15 33  1  0
 17 34  1  0
 18 35  1  0
 20 36  1  0
 20 37  1  0
 24 38  1  0
 24 39  1  0
 24 40  1  0
 25 41  1  0
 25 42  1  0
 25 43  1  0
 26 44  1  0
M  END
>  <UniqueID>  (15) 
15

>  <SMILES>  (15) 
Cc1oc(=O)oc1C(=O)n1c(C(N)=O)cc2ccc(CC(=O)N(C)C)cc21

>  <Energy>  (15) 
115.5237766033896

>  <Genealogy>  (15) 
Cc1oc(=O)oc1C(=O)n1c(C(N)=O)cc2ccc(CC(=O)N(C)C)cc21 (3D coordinates assigned)
Cc1oc(=O)oc1C(=O)n1c(C(N)=O)cc2ccc(CC(=O)N(C)C)cc21 (optimized conformer: 115.5237766033896 kcal/mol)

>  <smiles>  (15) 
Cc1oc(=O)oc1C(=O)n1c(C(N)=O)cc2ccc(CC(=O)N(C)C)cc21

>  <score_type>  (15) 
oracle

>  <origin>  (15) 
adg

>  <m_score__min__energy>  (15) 
-9.8100000000000005

>  <m_primary>  (15) 
energy

$$$$
15:0
     RDKit          3D

 54 57  0  0  0  0  0  0  0  0999 V2000
   -0.4740   26.7340  -36.3960 C   0  0  0  0  0  0  0  0  0  0  0  0
    0.2760   26.0510  -37.5370 C   0  0  0  0  0  0  0  0  0  0  0  0
    1.6710   25.6110  -37.0960 C   0  0  0  0  0  0  0  0  0  0  0  0
    1.7800   24.1610  -37.1950 N   0  0  0  0  0  0  0  0  0  0  0  0
    1.0920   23.2740  -36.3090 C   0  0  0  0  0  0  0  0  0  0  0  0
    0.3470   23.7340  -35.4010 O   0  0  0  0  0  0  0  0  0  0  0  0
    1.2780   21.8260  -36.4410 C   0  0  0  0  0  0  0  0  0  0  0  0
    0.2910   20.8650  -36.4330 C   0  0  0  0  0  0  0  0  0  0  0  0
    0.9250   19.6820  -36.4970 N   0  0  0  0  0  0  0  0  0  0  0  0
    0.3180   18.3770  -36.2830 C   0  0  0  0  0  0  0  0  0  0  0  0
    0.4090   18.0600  -34.9000 O   0  0  0  0  0  0  0  0  0  0  0  0
   -0.3430   18.6880  -33.9060 C   0  0  0  0  0  0  0  0  0  0  0  0
    0.1700   19.5660  -33.1600 O   0  0  0  0  0  0  0  0  0  0  0  0
   -1.7370   18.2820  -33.7190 C   0  0  0  0  0  0  0  0  0  0  0  0
   -2.8420   18.9790  -34.1450 C   0  0  0  0  0  0  0  0  0  0  0  0
   -3.9040   18.2110  -33.8520 N   0  0  0  0  0  0  0  0  0  0  0  0
   -5.3050   18.5130  -34.1340 C   0  0  0  0  0  0  0  0  0  0  0  0
   -5.7520   19.7030  -33.3260 C   0  0  0  0  0  0  0  0  0  0  0  0
   -7.1300   20.0220  -33.2330 C   0  0  0  0  0  0  0  0  0  0  0  0
   -7.5500   21.1770  -32.5510 C   0  0  0  0  0  0  0  0  0  0  0  0
   -6.5740   22.0030  -31.9990 C   0  0  0  0  0  0  0  0  0  0  0  0
   -6.7010   23.1850  -31.3060 C   0  0  0  0  0  0  0  0  0  0  0  0
   -5.3980   23.5890  -31.0210 C   0  0  0  0  0  0  0  0  0  0  0  0
   -5.0700   24.8780  -30.3760 C   0  0  0  0  0  0  0  0  0  0  0  0
   -3.9160   25.6190  -30.7620 N   0  0  0  0  0  0  0  0  0  0  0  0
   -5.8480   25.3550  -29.5070 O   0  0  0  0  0  0  0  0  0  0  0  0
   -4.5000   22.6870  -31.5090 N   0  0  0  0  0  0  0  0  0  0  0  0
   -3.0700   22.7060  -31.3680 C   0  0  0  0  0  0  0  0  0  0  0  0
   -2.3360   22.2030  -32.2600 O   0  0  0  0  0  0  0  0  0  0  0  0
   -2.4850   23.2560  -30.2350 O   0  0  0  0  0  0  0  0  0  0  0  0
   -5.2360   21.7220  -32.1040 C   0  0  0  0  0  0  0  0  0  0  0  0
   -4.7910   20.5610  -32.7460 C   0  0  0  0  0  0  0  0  0  0  0  0
   -3.4720   17.1060  -33.2630 N   0  0  0  0  0  0  0  0  0  0  0  0
   -2.1480   17.1200  -33.1700 N   0  0  0  0  0  0  0  0  0  0  0  0
    2.2300   19.9040  -36.5180 N   0  0  0  0  0  0  0  0  0  0  0  0
    2.4750   21.2080  -36.4960 N   0  0  0  0  0  0  0  0  0  0  0  0
   -0.0811   26.3762  -35.4329 H   0  0  0  0  0  0  0  0  0  0  0  0
   -0.3359   27.8230  -36.4665 H   0  0  0  0  0  0  0  0  0  0  0  0
   -1.5454   26.4949  -36.4665 H   0  0  0  0  0  0  0  0  0  0  0  0
   -0.2929   25.1674  -37.8621 H   0  0  0  0  0  0  0  0  0  0  0  0
    0.3823   26.7694  -38.3632 H   0  0  0  0  0  0  0  0  0  0  0  0
    2.4251   26.0800  -37.7451 H   0  0  0  0  0  0  0  0  0  0  0  0
    1.8392   25.9198  -36.0537 H   0  0  0  0  0  0  0  0  0  0  0  0
   -0.7951   21.0321  -36.3842 H   0  0  0  0  0  0  0  0  0  0  0  0
   -0.7382   18.4041  -36.5890 H   0  0  0  0  0  0  0  0  0  0  0  0
    0.8405   17.6151  -36.8801 H   0  0  0  0  0  0  0  0  0  0  0  0
   -2.8542   19.9669  -34.6286 H   0  0  0  0  0  0  0  0  0  0  0  0
   -5.4204   18.7365  -35.2049 H   0  0  0  0  0  0  0  0  0  0  0  0
   -5.9217   17.6430  -33.8641 H   0  0  0  0  0  0  0  0  0  0  0  0
   -7.8761   19.3608  -33.6980 H   0  0  0  0  0  0  0  0  0  0  0  0
   -8.6183   21.4214  -32.4560 H   0  0  0  0  0  0  0  0  0  0  0  0
   -7.6334   23.7016  -31.0345 H   0  0  0  0  0  0  0  0  0  0  0  0
   -2.9580   25.2990  -30.4990 H   0  0  0  0  0  0  0  0  0  0  0  0
   -3.7185   20.3221  -32.7979 H   0  0  0  0  0  0  0  0  0  0  0  0
  1  2  1  0
  2  3  1  0
  3  4  1  0
  4  5  1  0
  5  6  2  0
  5  7  1  0
  7  8  2  0
  8  9  1  0
  9 10  1  0
 10 11  1  0
 11 12  1  0
 12 13  2  0
 12 14  1  0
 14 15  2  0
 15 16  1  0
 16 17  1  0
 17 18  1  0
 18 19  2  0
 19 20  1  0
 20 21  2  0
 21 22  1  0
 22 23  2  0
 23 24  1  0
 24 25  1  0
 24 26  2  0
 23 27  1  0
 27 28  1  0
 28 29  2  0
 28 30  1  0
 27 31  1  0
 31 32  2  0
 16 33  1  0
 33 34  2  0
  9 35  2  0
 35 36  1  0
 36  7  1  0
 34 14  1  0
 32 18  1  0
 31 21  1  0
  1 37  1  0
  1 38  1  0
  1 39  1  0
  2 40  1  0
  2 41  1  0
  3 42  1  0
  3 43  1  0
  8 44  1  0
 10 45  1  0
 10 46  1  0
 15 47  1  0
 17 48  1  0
 17 49  1  0
 19 50  1  0
 20 51  1  0
 22 52  1  0
 25 53  1  0
 32 54  1  0
M  CHG  5   4  -1   9   1  25  -1  30  -1  36  -1
M  END
>  <UniqueID>  (16) 
16

>  <SMILES>  (16) 
CCC[N-]C(=O)c1c[n+](COC(=O)c2cn(Cc3ccc4cc(C([NH-])=O)n(C(=O)[O-])c4c3)nn2)n[n-]1

>  <Energy>  (16) 
153.84286251562864

>  <Genealogy>  (16) 
CCC[N-]C(=O)c1c[n+](COC(=O)c2cn(Cc3ccc4cc(C([NH-])=O)n(C(=O)[O-])c4c3)nn2)n[n-]1 (protonated)
CCC[N-]C(=O)c1c[n+](COC(=O)c2cn(Cc3ccc4cc(C([NH-])=O)n(C(=O)[O-])c4c3)nn2)n[n-]1 (3D coordinates assigned)
CCC[N-]C(=O)c1c[n+](COC(=O)c2cn(Cc3ccc4cc(C([NH-])=O)n(C(=O)[O-])c4c3)nn2)n[n-]1 (optimized conformer: 153.84286251562864 kcal/mol)

>  <smiles>  (16) 
CCCNC(=O)c1c[n+](COC(=O)c2cn(Cc3ccc4cc(C(N)=O)n(C(=O)O)c4c3)nn2)n[nH]1

>  <score_type>  (16) 
oracle

>  <origin>  (16) 
adg

>  <m_score__min__energy>  (16) 
-13.52

>  <m_primary>  (16) 
energy

$$$$
16:0
     RDKit          3D

 51 52  0  0  0  0  0  0  0  0999 V2000
   -7.0200   17.1590  -32.6430 C   0  0  0  0  0  0  0  0  0  0  0  0
   -7.1510   18.3340  -32.4110 C   0  0  0  0  0  0  0  0  0  0  0  0
   -7.3080   19.7360  -32.1300 C   0  0  0  0  0  0  0  0  0  0  0  0
   -8.5630   20.3590  -32.3260 C   0  0  0  0  0  0  0  0  0  0  0  0
   -8.7320   21.7250  -32.0400 C   0  0  0  0  0  0  0  0  0  0  0  0
   -7.6310   22.4340  -31.5690 C   0  0  0  0  0  0  0  0  0  0  0  0
   -7.5200   23.7510  -31.1830 C   0  0  0  0  0  0  0  0  0  0  0  0
   -6.1940   23.9080  -30.7830 C   0  0  0  0  0  0  0  0  0  0  0  0
   -5.6250   25.1950  -30.3320 C   0  0  0  0  0  0  0  0  0  0  0  0
   -4.2600   25.5330  -30.5840 N   0  0  0  0  0  0  0  0  0  0  0  0
   -6.3680   26.0290  -29.7510 O   0  0  0  0  0  0  0  0  0  0  0  0
   -5.5160   22.7330  -30.9070 N   0  0  0  0  0  0  0  0  0  0  0  0
   -4.1780   22.4340  -30.4820 C   0  0  0  0  0  0  0  0  0  0  0  0
   -3.2900   22.1910  -31.3420 O   0  0  0  0  0  0  0  0  0  0  0  0
   -3.8560   22.2880  -29.0270 C   0  0  0  0  0  0  0  0  0  0  0  0
   -2.5850   23.4540  -28.5670 S   0  0  0  0  0  0  0  0  0  0  0  0
   -2.3080   24.3770  -29.7210 O   0  0  0  0  0  0  0  0  0  0  0  0
   -3.0540   24.2630  -27.3910 O   0  0  0  0  0  0  0  0  0  0  0  0
   -1.0880   22.5900  -28.1140 C   0  0  0  0  0  0  0  0  0  0  0  0
    0.1250   23.1510  -28.8580 C   0  0  0  0  0  0  0  0  0  0  0  0
    0.7210   24.1870  -28.0990 O   0  0  0  0  0  0  0  0  0  0  0  0
    1.1510   23.7010  -26.8440 C   0  0  0  0  0  0  0  0  0  0  0  0
    0.3090   24.3290  -25.7360 C   0  0  0  0  0  0  0  0  0  0  0  0
   -0.7980   25.0180  -26.2920 O   0  0  0  0  0  0  0  0  0  0  0  0
   -0.6530   26.4210  -26.1740 C   0  0  0  0  0  0  0  0  0  0  0  0
   -0.7320   27.0850  -27.5500 C   0  0  0  0  0  0  0  0  0  0  0  0
   -1.1510   26.1580  -28.5140 O   0  0  0  0  0  0  0  0  0  0  0  0
   -6.4060   21.8430  -31.3920 C   0  0  0  0  0  0  0  0  0  0  0  0
   -6.2120   20.4820  -31.6520 C   0  0  0  0  0  0  0  0  0  0  0  0
   -6.9004   16.0862  -32.8548 H   0  0  0  0  0  0  0  0  0  0  0  0
   -9.4119   19.7708  -32.7046 H   0  0  0  0  0  0  0  0  0  0  0  0
   -9.7046   22.2183  -32.1841 H   0  0  0  0  0  0  0  0  0  0  0  0
   -8.3099   24.5166  -31.1890 H   0  0  0  0  0  0  0  0  0  0  0  0
   -3.8660   26.4240  -30.2100 H   0  0  0  0  0  0  0  0  0  0  0  0
   -3.6660   24.9560  -31.2190 H   0  0  0  0  0  0  0  0  0  0  0  0
   -4.7608   22.4809  -28.4319 H   0  0  0  0  0  0  0  0  0  0  0  0
   -3.4967   21.2660  -28.8360 H   0  0  0  0  0  0  0  0  0  0  0  0
   -0.9257   22.6981  -27.0314 H   0  0  0  0  0  0  0  0  0  0  0  0
   -1.2028   21.5306  -28.3868 H   0  0  0  0  0  0  0  0  0  0  0  0
    0.8589   22.3471  -29.0169 H   0  0  0  0  0  0  0  0  0  0  0  0
   -0.2009   23.5550  -29.8278 H   0  0  0  0  0  0  0  0  0  0  0  0
    1.0361   22.6074  -26.8160 H   0  0  0  0  0  0  0  0  0  0  0  0
    2.2084   23.9640  -26.6931 H   0  0  0  0  0  0  0  0  0  0  0  0
   -0.0557   23.5379  -25.0643 H   0  0  0  0  0  0  0  0  0  0  0  0
    0.9300   25.0424  -25.1744 H   0  0  0  0  0  0  0  0  0  0  0  0
   -1.4567   26.8156  -25.5349 H   0  0  0  0  0  0  0  0  0  0  0  0
    0.3283   26.6412  -25.7283 H   0  0  0  0  0  0  0  0  0  0  0  0
   -1.4502   27.9173  -27.5106 H   0  0  0  0  0  0  0  0  0  0  0  0
    0.2650   27.4603  -27.8240 H   0  0  0  0  0  0  0  0  0  0  0  0
   -1.2130   25.2790  -28.0550 H   0  0  0  0  0  0  0  0  0  0  0  0
   -5.2329   20.0082  -31.4882 H   0  0  0  0  0  0  0  0  0  0  0  0
  1  2  3  0
  2  3  1  0
  3  4  2  0
  4  5  1  0
  5  6  2  0
  6  7  1  0
  7  8  2  0
  8  9  1  0
  9 10  1  0
  9 11  2  0
  8 12  1  0
 12 13  1  0
 13 14  2  0
 13 15  1  0
 15 16  1  0
 16 17  2  0
 16 18  2  0
 16 19  1  0
 19 20  1  0
 20 21  1  0
 21 22  1  0
 22 23  1  0
 23 24  1  0
 24 25  1  0
 25 26  1  0
 26 27  1  0
 12 28  1  0
 28 29  2  0
 29  3  1  0
 28  6  1  0
  1 30  1  0
  4 31  1  0
  5 32  1  0
  7 33  1  0
 10 34  1  0
 10 35  1  0
 15 36  1  0
 15 37  1  0
 19 38  1  0
 19 39  1  0
 20 40  1  0
 20 41  1  0
 22 42  1  0
 22 43  1  0
 23 44  1  0
 23 45  1  0
 25 46  1  0
 25 47  1  0
 26 48  1  0
 26 49  1  0
 27 50  1  0
 29 51  1  0
M  END
>  <UniqueID>  (17) 
17

>  <SMILES>  (17) 
C#Cc1ccc2cc(C(N)=O)n(C(=O)CS(=O)(=O)CCOCCOCCO)c2c1

>  <Energy>  (17) 
79.64702582075333

>  <Genealogy>  (17) 
C#Cc1ccc2cc(C(N)=O)n(C(=O)CS(=O)(=O)CCOCCOCCO)c2c1 (3D coordinates assigned)
C#Cc1ccc2cc(C(N)=O)n(C(=O)CS(=O)(=O)CCOCCOCCO)c2c1 (optimized conformer: 79.64702582075333 kcal/mol)

>  <smiles>  (17) 
C#Cc1ccc2cc(C(N)=O)n(C(=O)CS(=O)(=O)CCOCCOCCO)c2c1

>  <score_type>  (17) 
oracle

>  <origin>  (17) 
adg

>  <m_score__min__energy>  (17) 
-9.3300000000000001

>  <m_primary>  (17) 
energy

$$$$
17:0
     RDKit          3D

 48 49  0  0  0  0  0  0  0  0999 V2000
   -3.3500   23.0800  -28.6650 C   0  0  0  0  0  0  0  0  0  0  0  0
   -2.8980   23.1660  -30.0100 O   0  0  0  0  0  0  0  0  0  0  0  0
   -3.6260   22.6460  -31.0850 C   0  0  0  0  0  0  0  0  0  0  0  0
   -3.0410   21.9930  -31.9920 O   0  0  0  0  0  0  0  0  0  0  0  0
   -5.0490   22.8330  -31.1410 N   0  0  0  0  0  0  0  0  0  0  0  0
   -5.7490   23.9910  -30.9640 C   0  0  0  0  0  0  0  0  0  0  0  0
   -5.1940   25.2830  -30.5080 C   0  0  0  0  0  0  0  0  0  0  0  0
   -3.8630   25.6690  -30.8410 N   0  0  0  0  0  0  0  0  0  0  0  0
   -5.8860   26.0310  -29.7660 O   0  0  0  0  0  0  0  0  0  0  0  0
   -7.1090   23.7780  -31.1850 C   0  0  0  0  0  0  0  0  0  0  0  0
   -7.2240   22.4420  -31.4940 C   0  0  0  0  0  0  0  0  0  0  0  0
   -8.3550   21.6890  -31.8050 C   0  0  0  0  0  0  0  0  0  0  0  0
   -8.1760   20.3270  -32.1000 C   0  0  0  0  0  0  0  0  0  0  0  0
   -6.8820   19.7560  -32.0920 C   0  0  0  0  0  0  0  0  0  0  0  0
   -6.7140   18.3650  -32.3950 N   0  0  0  0  0  0  0  0  0  0  0  0
   -6.5110   17.4230  -31.2960 C   0  0  0  0  0  0  0  0  0  0  0  0
   -6.3870   17.9670  -33.7680 C   0  0  0  0  0  0  0  0  0  0  0  0
   -4.8710   17.8150  -33.9340 C   0  0  0  0  0  0  0  0  0  0  0  0
   -4.1990   19.1930  -34.1130 C   0  0  0  0  0  0  0  0  0  0  0  0
   -2.9190   19.3530  -33.3810 N   0  0  0  0  0  0  0  0  0  0  0  0
   -1.9250   20.1380  -34.1340 C   0  0  0  0  0  0  0  0  0  0  0  0
   -2.3500   18.0630  -32.9500 C   0  0  0  0  0  0  0  0  0  0  0  0
   -5.7590   20.5470  -31.7720 C   0  0  0  0  0  0  0  0  0  0  0  0
   -5.9670   21.8940  -31.4610 C   0  0  0  0  0  0  0  0  0  0  0  0
   -2.5026   23.2412  -27.9824 H   0  0  0  0  0  0  0  0  0  0  0  0
   -4.1164   23.8484  -28.4859 H   0  0  0  0  0  0  0  0  0  0  0  0
   -3.7807   22.0838  -28.4859 H   0  0  0  0  0  0  0  0  0  0  0  0
   -3.0460   25.2950  -30.3090 H   0  0  0  0  0  0  0  0  0  0  0  0
   -7.9184   24.5205  -31.1251 H   0  0  0  0  0  0  0  0  0  0  0  0
   -9.3553   22.1463  -31.8190 H   0  0  0  0  0  0  0  0  0  0  0  0
   -9.0481   19.7005  -32.3388 H   0  0  0  0  0  0  0  0  0  0  0  0
   -6.6243   17.9490  -30.3366 H   0  0  0  0  0  0  0  0  0  0  0  0
   -7.2559   16.6163  -31.3622 H   0  0  0  0  0  0  0  0  0  0  0  0
   -5.4999   16.9948  -31.3622 H   0  0  0  0  0  0  0  0  0  0  0  0
   -6.8742   17.0067  -33.9927 H   0  0  0  0  0  0  0  0  0  0  0  0
   -6.7454   18.7439  -34.4594 H   0  0  0  0  0  0  0  0  0  0  0  0
   -4.4575   17.3254  -33.0400 H   0  0  0  0  0  0  0  0  0  0  0  0
   -4.6732   17.2070  -34.8291 H   0  0  0  0  0  0  0  0  0  0  0  0
   -4.0028   19.3429  -35.1849 H   0  0  0  0  0  0  0  0  0  0  0  0
   -4.8936   19.9364  -33.6947 H   0  0  0  0  0  0  0  0  0  0  0  0
   -3.1390   19.8930  -32.5090 H   0  0  0  0  0  0  0  0  0  0  0  0
   -1.2617   20.6618  -33.4299 H   0  0  0  0  0  0  0  0  0  0  0  0
   -1.3290   19.4643  -34.7671 H   0  0  0  0  0  0  0  0  0  0  0  0
   -2.4423   20.8740  -34.7671 H   0  0  0  0  0  0  0  0  0  0  0  0
   -2.3308   18.0196  -31.8510 H   0  0  0  0  0  0  0  0  0  0  0  0
   -2.9691   17.2410  -33.3387 H   0  0  0  0  0  0  0  0  0  0  0  0
   -1.3256   17.9659  -33.3387 H   0  0  0  0  0  0  0  0  0  0  0  0
   -4.7471   20.1158  -31.7673 H   0  0  0  0  0  0  0  0  0  0  0  0
  1  2  1  0
  2  3  1  0
  3  4  2  0
  3  5  1  0
  5  6  1  0
  6  7  1  0
  7  8  1  0
  7  9  2  0
  6 10  2  0
 10 11  1  0
 11 12  2  0
 12 13  1  0
 13 14  2  0
 14 15  1  0
 15 16  1  0
 15 17  1  0
 17 18  1  0
 18 19  1  0
 19 20  1  0
 20 21  1  0
 20 22  1  0
 14 23  1  0
 23 24  2  0
 24  5  1  0
 24 11  1  0
  1 25  1  0
  1 26  1  0
  1 27  1  0
  8 28  1  0
 10 29  1  0
 12 30  1  0
 13 31  1  0
 16 32  1  0
 16 33  1  0
 16 34  1  0
 17 35  1  0
 17 36  1  0
 18 37  1  0
 18 38  1  0
 19 39  1  0
 19 40  1  0
 20 41  1  0
 21 42  1  0
 21 43  1  0
 21 44  1  0
 22 45  1  0
 22 46  1  0
 22 47  1  0
 23 48  1  0
M  CHG  2   8  -1  20   1
M  END
>  <UniqueID>  (18) 
18

>  <SMILES>  (18) 
COC(=O)n1c(C([NH-])=O)cc2ccc(N(C)CCC[NH+](C)C)cc21

>  <Energy>  (18) 
87.88777790954575

>  <Genealogy>  (18) 
COC(=O)n1c(C([NH-])=O)cc2ccc(N(C)CCC[NH+](C)C)cc21 (protonated)
COC(=O)n1c(C([NH-])=O)cc2ccc(N(C)CCC[NH+](C)C)cc21 (3D coordinates assigned)
COC(=O)n1c(C([NH-])=O)cc2ccc(N(C)CCC[NH+](C)C)cc21 (optimized conformer: 87.88777790954575 kcal/mol)

>  <smiles>  (18) 
COC(=O)n1c(C(N)=O)cc2ccc(N(C)CCCN(C)C)cc21

>  <score_type>  (18) 
oracle

>  <origin>  (18) 
adg

>  <m_score__min__energy>  (18) 
-9.0700000000000003

>  <m_primary>  (18) 
energy

$$$$
18:0
     RDKit          3D

 64 67  0  0  0  0  0  0  0  0999 V2000
   -3.7380   23.6690  -27.5780 C   0  0  0  0  0  0  0  0  0  0  0  0
   -2.7260   23.5500  -28.4410 C   0  0  0  0  0  0  0  0  0  0  0  0
   -2.6930   22.4720  -29.4850 C   0  0  0  0  0  0  0  0  0  0  0  0
   -2.7180   23.0580  -30.7830 O   0  0  0  0  0  0  0  0  0  0  0  0
   -3.5670   22.6230  -31.8070 C   0  0  0  0  0  0  0  0  0  0  0  0
   -3.0890   22.1470  -32.8740 O   0  0  0  0  0  0  0  0  0  0  0  0
   -4.9880   22.7500  -31.6490 N   0  0  0  0  0  0  0  0  0  0  0  0
   -5.6840   23.7140  -30.9860 C   0  0  0  0  0  0  0  0  0  0  0  0
   -5.1180   24.9380  -30.3760 C   0  0  0  0  0  0  0  0  0  0  0  0
   -3.9020   25.5040  -30.8550 N   0  0  0  0  0  0  0  0  0  0  0  0
   -5.7350   25.5140  -29.4400 O   0  0  0  0  0  0  0  0  0  0  0  0
   -7.0490   23.4290  -31.0100 C   0  0  0  0  0  0  0  0  0  0  0  0
   -7.1660   22.2530  -31.7160 C   0  0  0  0  0  0  0  0  0  0  0  0
   -8.2930   21.4940  -32.0160 C   0  0  0  0  0  0  0  0  0  0  0  0
   -8.1080   20.2860  -32.7090 C   0  0  0  0  0  0  0  0  0  0  0  0
   -6.8090   19.8620  -33.0920 C   0  0  0  0  0  0  0  0  0  0  0  0
   -6.6240   18.5900  -33.7430 N   0  0  0  0  0  0  0  0  0  0  0  0
   -5.7560   18.4640  -34.9200 C   0  0  0  0  0  0  0  0  0  0  0  0
   -4.5820   17.5410  -34.5840 C   0  0  0  0  0  0  0  0  0  0  0  0
   -5.0350   16.3410  -33.8600 N   0  0  0  0  0  0  0  0  0  0  0  0
   -4.0490   15.3910  -33.4130 C   0  0  0  0  0  0  0  0  0  0  0  0
   -4.4010   14.3550  -32.7850 O   0  0  0  0  0  0  0  0  0  0  0  0
   -2.6930   15.6290  -33.6680 O   0  0  0  0  0  0  0  0  0  0  0  0
   -1.8070   16.2280  -32.7250 C   0  0  0  0  0  0  0  0  0  0  0  0
   -1.1740   17.4650  -33.3040 C   0  0  0  0  0  0  0  0  0  0  0  0
   -1.9080   18.6590  -33.3770 C   0  0  0  0  0  0  0  0  0  0  0  0
   -1.3330   19.8050  -33.9300 C   0  0  0  0  0  0  0  0  0  0  0  0
   -0.0210   19.7690  -34.4240 C   0  0  0  0  0  0  0  0  0  0  0  0
    0.6860   21.2080  -35.1510 S   0  0  0  0  0  0  0  0  0  0  0  0
   -0.4040   22.5370  -34.9660 N   0  0  0  0  0  0  0  0  0  0  0  0
    0.9430   20.9680  -36.6130 O   0  0  0  0  0  0  0  0  0  0  0  0
    1.9910   21.5270  -34.4770 O   0  0  0  0  0  0  0  0  0  0  0  0
    0.7070   18.5750  -34.3660 C   0  0  0  0  0  0  0  0  0  0  0  0
    0.1370   17.4300  -33.8040 C   0  0  0  0  0  0  0  0  0  0  0  0
   -6.4730   16.1080  -33.6520 C   0  0  0  0  0  0  0  0  0  0  0  0
   -7.1430   17.3740  -33.0980 C   0  0  0  0  0  0  0  0  0  0  0  0
   -5.6920   20.6640  -32.7720 C   0  0  0  0  0  0  0  0  0  0  0  0
   -5.9070   21.8640  -32.0900 C   0  0  0  0  0  0  0  0  0  0  0  0
   -3.7281   24.4718  -26.8261 H   0  0  0  0  0  0  0  0  0  0  0  0
   -4.5816   22.9642  -27.6190 H   0  0  0  0  0  0  0  0  0  0  0  0
   -1.8909   24.2638  -28.3851 H   0  0  0  0  0  0  0  0  0  0  0  0
   -1.7736   21.8793  -29.3693 H   0  0  0  0  0  0  0  0  0  0  0  0
   -3.5710   21.8206  -29.3631 H   0  0  0  0  0  0  0  0  0  0  0  0
   -2.9820   25.2220  -30.4520 H   0  0  0  0  0  0  0  0  0  0  0  0
   -7.8607   24.0193  -30.5598 H   0  0  0  0  0  0  0  0  0  0  0  0
   -9.2978   21.8295  -31.7197 H   0  0  0  0  0  0  0  0  0  0  0  0
   -8.9793   19.6622  -32.9574 H   0  0  0  0  0  0  0  0  0  0  0  0
   -6.3301   18.0391  -35.7566 H   0  0  0  0  0  0  0  0  0  0  0  0
   -5.3758   19.4557  -35.2063 H   0  0  0  0  0  0  0  0  0  0  0  0
   -4.0906   17.2317  -35.5183 H   0  0  0  0  0  0  0  0  0  0  0  0
   -3.8810   18.0915  -33.9394 H   0  0  0  0  0  0  0  0  0  0  0  0
   -2.3715   16.5001  -31.8210 H   0  0  0  0  0  0  0  0  0  0  0  0
   -1.0141   15.5073  -32.4761 H   0  0  0  0  0  0  0  0  0  0  0  0
   -2.9398   18.6921  -32.9973 H   0  0  0  0  0  0  0  0  0  0  0  0
   -1.9113   20.7395  -33.9783 H   0  0  0  0  0  0  0  0  0  0  0  0
   -0.6170   22.8920  -35.9200 H   0  0  0  0  0  0  0  0  0  0  0  0
   -1.2950   22.1530  -34.5830 H   0  0  0  0  0  0  0  0  0  0  0  0
    1.7317   18.5380  -34.7644 H   0  0  0  0  0  0  0  0  0  0  0  0
    0.7180   16.4973  -33.7532 H   0  0  0  0  0  0  0  0  0  0  0  0
   -6.9398   15.8405  -34.6114 H   0  0  0  0  0  0  0  0  0  0  0  0
   -6.6021   15.2891  -32.9290 H   0  0  0  0  0  0  0  0  0  0  0  0
   -8.2267   17.3109  -33.2757 H   0  0  0  0  0  0  0  0  0  0  0  0
   -6.9233   17.4358  -32.0219 H   0  0  0  0  0  0  0  0  0  0  0  0
   -4.6757   20.3511  -33.0533 H   0  0  0  0  0  0  0  0  0  0  0  0
  1  2  2  0
  2  3  1  0
  3  4  1  0
  4  5  1  0
  5  6  2  0
  5  7  1  0
  7  8  1  0
  8  9  1  0
  9 10  1  0
  9 11  2  0
  8 12  2  0
 12 13  1  0
 13 14  2  0
 14 15  1  0
 15 16  2  0
 16 17  1  0
 17 18  1  0
 18 19  1  0
 19 20  1  0
 20 21  1  0
 21 22  2  0
 21 23  1  0
 23 24  1  0
 24 25  1  0
 25 26  2  0
 26 27  1  0
 27 28  2  0
 28 29  1  0
 29 30  1  0
 29 31  2  0
 29 32  2  0
 28 33  1  0
 33 34  2  0
 20 35  1  0
 35 36  1  0
 16 37  1  0
 37 38  2  0
 38  7  1  0
 38 13  1  0
 36 17  1  0
 34 25  1  0
  1 39  1  0
  1 40  1  0
  2 41  1  0
  3 42  1  0
  3 43  1  0
 10 44  1  0
 12 45  1  0
 14 46  1  0
 15 47  1  0
 18 48  1  0
 18 49  1  0
 19 50  1  0
 19 51  1  0
 24 52  1  0
 24 53  1  0
 26 54  1  0
 27 55  1  0
 30 56  1  0
 30 57  1  0
 33 58  1  0
 34 59  1  0
 35 60  1  0
 35 61  1  0
 36 62  1  0
 36 63  1  0
 37 64  1  0
M  CHG  1  10  -1
M  END
>  <UniqueID>  (19) 
19

>  <SMILES>  (19) 
C=CCOC(=O)n1c(C([NH-])=O)cc2ccc(N3CCN(C(=O)OCc4ccc(S(N)(=O)=O)cc4)CC3)cc21

>  <Energy>  (19) 
103.4631554340629

>  <Genealogy>  (19) 
C=CCOC(=O)n1c(C([NH-])=O)cc2ccc(N3CCN(C(=O)OCc4ccc(S(N)(=O)=O)cc4)CC3)cc21 (protonated)
C=CCOC(=O)n1c(C([NH-])=O)cc2ccc(N3CCN(C(=O)OCc4ccc(S(N)(=O)=O)cc4)CC3)cc21 (3D coordinates assigned)
C=CCOC(=O)n1c(C([NH-])=O)cc2ccc(N3CCN(C(=O)OCc4ccc(S(N)(=O)=O)cc4)CC3)cc21 (nonaromatic ring conformer: 103.4631554340629 kcal/mol)

>  <smiles>  (19) 
C=CCOC(=O)n1c(C(N)=O)cc2ccc(N3CCN(C(=O)OCc4ccc(S(N)(=O)=O)cc4)CC3)cc21

>  <score_type>  (19) 
oracle

>  <origin>  (19) 
adg

>  <m_score__min__energy>  (19) 
-12.789999999999999

>  <m_primary>  (19) 
energy

$$$$
19:0
     RDKit          3D

 34 36  0  0  0  0  0  0  0  0999 V2000
   -7.0670   21.5130  -32.1270 C   0  0  0  0  0  0  0  0  0  0  0  0
   -6.4700   20.4160  -32.9510 C   0  0  0  0  0  0  0  0  0  0  0  0
   -7.1720   19.6500  -33.8050 N   0  0  0  0  0  0  0  0  0  0  0  0
   -6.3570   18.8020  -34.3590 O   0  0  0  0  0  0  0  0  0  0  0  0
   -5.1330   18.9790  -33.9140 C   0  0  0  0  0  0  0  0  0  0  0  0
   -3.9610   18.1660  -34.3570 C   0  0  0  0  0  0  0  0  0  0  0  0
   -5.1410   20.0180  -32.9910 C   0  0  0  0  0  0  0  0  0  0  0  0
   -3.9990   20.5730  -32.2340 C   0  0  0  0  0  0  0  0  0  0  0  0
   -2.8030   19.8260  -32.1000 C   0  0  0  0  0  0  0  0  0  0  0  0
   -1.7160   20.3370  -31.3710 C   0  0  0  0  0  0  0  0  0  0  0  0
   -1.8510   21.5970  -30.7960 C   0  0  0  0  0  0  0  0  0  0  0  0
   -0.9700   22.3140  -30.0200 C   0  0  0  0  0  0  0  0  0  0  0  0
   -1.6300   23.5010  -29.7110 C   0  0  0  0  0  0  0  0  0  0  0  0
   -1.0030   24.6050  -28.9560 C   0  0  0  0  0  0  0  0  0  0  0  0
   -1.5700   25.9130  -28.9590 N   0  0  0  0  0  0  0  0  0  0  0  0
    0.0760   24.4040  -28.3380 O   0  0  0  0  0  0  0  0  0  0  0  0
   -2.8760   23.5140  -30.2670 N   0  0  0  0  0  0  0  0  0  0  0  0
   -3.9010   24.5100  -30.1140 C   0  0  0  0  0  0  0  0  0  0  0  0
   -3.8540   25.5770  -30.7820 O   0  0  0  0  0  0  0  0  0  0  0  0
   -4.9380   24.3170  -29.2110 O   0  0  0  0  0  0  0  0  0  0  0  0
   -2.9940   22.3410  -30.9300 C   0  0  0  0  0  0  0  0  0  0  0  0
   -4.0980   21.8490  -31.6350 C   0  0  0  0  0  0  0  0  0  0  0  0
   -6.9403   21.2802  -31.0594 H   0  0  0  0  0  0  0  0  0  0  0  0
   -6.5609   22.4620  -32.3579 H   0  0  0  0  0  0  0  0  0  0  0  0
   -8.1387   21.6033  -32.3579 H   0  0  0  0  0  0  0  0  0  0  0  0
   -8.1970   19.7070  -34.0020 H   0  0  0  0  0  0  0  0  0  0  0  0
   -3.4205   17.7911  -33.4753 H   0  0  0  0  0  0  0  0  0  0  0  0
   -4.3116   17.3161  -34.9610 H   0  0  0  0  0  0  0  0  0  0  0  0
   -3.2877   18.7920  -34.9610 H   0  0  0  0  0  0  0  0  0  0  0  0
   -2.7244   18.8354  -32.5717 H   0  0  0  0  0  0  0  0  0  0  0  0
   -0.7870   19.7589  -31.2583 H   0  0  0  0  0  0  0  0  0  0  0  0
    0.0415   22.0135  -29.7093 H   0  0  0  0  0  0  0  0  0  0  0  0
   -2.6040   26.0490  -28.9800 H   0  0  0  0  0  0  0  0  0  0  0  0
   -5.0209   22.4414  -31.7209 H   0  0  0  0  0  0  0  0  0  0  0  0
  1  2  1  0
  2  3  2  0
  3  4  1  0
  4  5  1  0
  5  6  1  0
  5  7  2  0
  7  8  1  0
  8  9  2  0
  9 10  1  0
 10 11  2  0
 11 12  1  0
 12 13  2  0
 13 14  1  0
 14 15  1  0
 14 16  2  0
 13 17  1  0
 17 18  1  0
 18 19  2  0
 18 20  1  0
 17 21  1  0
 21 22  2  0
  7  2  1  0
 22  8  1  0
 21 11  1  0
  1 23  1  0
  1 24  1  0
  1 25  1  0
  3 26  1  0
  6 27  1  0
  6 28  1  0
  6 29  1  0
  9 30  1  0
 10 31  1  0
 12 32  1  0
 15 33  1  0
 22 34  1  0
M  CHG  3   3   1  15  -1  20  -1
M  END
>  <UniqueID>  (20) 
20

>  <SMILES>  (20) 
Cc1[nH+]oc(C)c1-c1ccc2cc(C([NH-])=O)n(C(=O)[O-])c2c1

>  <Energy>  (20) 
110.32307969398029

>  <Genealogy>  (20) 
Cc1[nH+]oc(C)c1-c1ccc2cc(C([NH-])=O)n(C(=O)[O-])c2c1 (protonated)
Cc1[nH+]oc(C)c1-c1ccc2cc(C([NH-])=O)n(C(=O)[O-])c2c1 (3D coordinates assigned)
Cc1[nH+]oc(C)c1-c1ccc2cc(C([NH-])=O)n(C(=O)[O-])c2c1 (optimized conformer: 110.32307969398029 kcal/mol)

>  <smiles>  (20) 
Cc1noc(C)c1-c1ccc2cc(C(N)=O)n(C(=O)O)c2c1

>  <score_type>  (20) 
oracle

>  <origin>  (20) 
adg

>  <m_score__min__energy>  (20) 
-11.93

>  <m_primary>  (20) 
energy

$$$$
20:0
     RDKit          3D

 25 26  0  0  0  0  0  0  0  0999 V2000
   -5.6470   26.4780  -30.2480 N   0  0  0  0  0  0  0  0  0  0  0  0
   -6.4130   25.3020  -29.9830 C   0  0  0  0  0  0  0  0  0  0  0  0
   -7.2340   25.3020  -29.0280 O   0  0  0  0  0  0  0  0  0  0  0  0
   -6.2100   24.0660  -30.7650 C   0  0  0  0  0  0  0  0  0  0  0  0
   -7.2540   23.3480  -31.3430 C   0  0  0  0  0  0  0  0  0  0  0  0
   -6.6610   22.2460  -31.9150 C   0  0  0  0  0  0  0  0  0  0  0  0
   -7.2280   21.2080  -32.6470 C   0  0  0  0  0  0  0  0  0  0  0  0
   -6.3730   20.2210  -33.1620 C   0  0  0  0  0  0  0  0  0  0  0  0
   -4.9730   20.2820  -32.9340 C   0  0  0  0  0  0  0  0  0  0  0  0
   -4.0600   19.2520  -33.5480 C   0  0  0  0  0  0  0  0  0  0  0  0
   -3.7000   18.2970  -32.6130 F   0  0  0  0  0  0  0  0  0  0  0  0
   -4.7120   18.6310  -34.5970 F   0  0  0  0  0  0  0  0  0  0  0  0
   -2.9040   19.8470  -34.0240 F   0  0  0  0  0  0  0  0  0  0  0  0
   -4.4330   21.3690  -32.2080 C   0  0  0  0  0  0  0  0  0  0  0  0
   -5.3100   22.3280  -31.6870 C   0  0  0  0  0  0  0  0  0  0  0  0
   -5.0160   23.4450  -30.9830 N   0  0  0  0  0  0  0  0  0  0  0  0
   -3.7060   23.9370  -30.6520 C   0  0  0  0  0  0  0  0  0  0  0  0
   -2.7390   23.1430  -30.5240 O   0  0  0  0  0  0  0  0  0  0  0  0
   -3.4930   25.2990  -30.4760 O   0  0  0  0  0  0  0  0  0  0  0  0
   -4.8480   26.4600  -30.9190 H   0  0  0  0  0  0  0  0  0  0  0  0
   -5.8290   27.3540  -29.7090 H   0  0  0  0  0  0  0  0  0  0  0  0
   -8.3232   23.6064  -31.3424 H   0  0  0  0  0  0  0  0  0  0  0  0
   -8.3138   21.1620  -32.8172 H   0  0  0  0  0  0  0  0  0  0  0  0
   -6.7925   19.3907  -33.7490 H   0  0  0  0  0  0  0  0  0  0  0  0
   -3.3473   21.4591  -32.0559 H   0  0  0  0  0  0  0  0  0  0  0  0
  1  2  1  0
  2  3  2  0
  2  4  1  0
  4  5  2  0
  5  6  1  0
  6  7  2  0
  7  8  1  0
  8  9  2  0
  9 10  1  0
 10 11  1  0
 10 12  1  0
 10 13  1  0
  9 14  1  0
 14 15  2  0
 15 16  1  0
 16 17  1  0
 17 18  2  0
 17 19  1  0
 16  4  1  0
 15  6  1  0
  1 20  1  0
  1 21  1  0
  5 22  1  0
  7 23  1  0
  8 24  1  0
 14 25  1  0
M  CHG  1  19  -1
M  END
>  <UniqueID>  (21) 
21

>  <SMILES>  (21) 
NC(=O)c1cc2ccc(C(F)(F)F)cc2n1C(=O)[O-]

>  <Energy>  (21) 
66.26942016801186

>  <Genealogy>  (21) 
NC(=O)c1cc2ccc(C(F)(F)F)cc2n1C(=O)[O-] (protonated)
NC(=O)c1cc2ccc(C(F)(F)F)cc2n1C(=O)[O-] (3D coordinates assigned)
NC(=O)c1cc2ccc(C(F)(F)F)cc2n1C(=O)[O-] (optimized conformer: 66.26942016801186 kcal/mol)

>  <smiles>  (21) 
NC(=O)c1cc2ccc(C(F)(F)F)cc2n1C(=O)O

>  <score_type>  (21) 
oracle

>  <origin>  (21) 
adg

>  <m_score__min__energy>  (21) 
-7.8499999999999996

>  <m_primary>  (21) 
energy

$$$$
21:0
     RDKit          3D

 44 46  0  0  0  0  0  0  0  0999 V2000
   -5.5310   16.0300  -33.2850 C   0  0  0  0  0  0  0  0  0  0  0  0
   -5.7680   17.0370  -34.2610 O   0  0  0  0  0  0  0  0  0  0  0  0
   -6.3370   18.2730  -33.9430 C   0  0  0  0  0  0  0  0  0  0  0  0
   -6.0720   19.2990  -34.6280 O   0  0  0  0  0  0  0  0  0  0  0  0
   -7.2260   18.3890  -32.7490 C   0  0  0  0  0  0  0  0  0  0  0  0
   -7.3210   19.8250  -32.3170 C   0  0  0  0  0  0  0  0  0  0  0  0
   -8.5760   20.4820  -32.3060 C   0  0  0  0  0  0  0  0  0  0  0  0
   -8.6800   21.8170  -31.8830 C   0  0  0  0  0  0  0  0  0  0  0  0
   -7.5210   22.4620  -31.4630 C   0  0  0  0  0  0  0  0  0  0  0  0
   -7.3360   23.7530  -31.0250 C   0  0  0  0  0  0  0  0  0  0  0  0
   -5.9760   23.8570  -30.7440 C   0  0  0  0  0  0  0  0  0  0  0  0
   -5.3470   25.0590  -30.1540 C   0  0  0  0  0  0  0  0  0  0  0  0
   -3.9250   25.1930  -30.1180 N   0  0  0  0  0  0  0  0  0  0  0  0
   -6.0640   25.9940  -29.7080 O   0  0  0  0  0  0  0  0  0  0  0  0
   -5.3430   22.6760  -30.9980 N   0  0  0  0  0  0  0  0  0  0  0  0
   -3.9350   22.4040  -30.9110 C   0  0  0  0  0  0  0  0  0  0  0  0
   -3.1640   22.7680  -31.8400 O   0  0  0  0  0  0  0  0  0  0  0  0
   -3.4200   21.7500  -29.7860 O   0  0  0  0  0  0  0  0  0  0  0  0
   -2.0250   21.5810  -29.5500 C   0  0  0  0  0  0  0  0  0  0  0  0
   -1.4150   22.8810  -29.1240 C   0  0  0  0  0  0  0  0  0  0  0  0
   -1.9030   24.0620  -29.4270 O   0  0  0  0  0  0  0  0  0  0  0  0
   -1.0920   24.9370  -28.8800 C   0  0  0  0  0  0  0  0  0  0  0  0
   -1.2470   26.1830  -28.9690 O   0  0  0  0  0  0  0  0  0  0  0  0
   -0.0990   24.3730  -28.2330 O   0  0  0  0  0  0  0  0  0  0  0  0
   -0.2740   23.0780  -28.3670 C   0  0  0  0  0  0  0  0  0  0  0  0
    0.6190   22.0370  -27.7770 C   0  0  0  0  0  0  0  0  0  0  0  0
   -6.3030   21.8330  -31.4390 C   0  0  0  0  0  0  0  0  0  0  0  0
   -6.1670   20.5080  -31.8730 C   0  0  0  0  0  0  0  0  0  0  0  0
   -5.6329   16.4632  -32.2790 H   0  0  0  0  0  0  0  0  0  0  0  0
   -6.2626   15.2182  -33.4106 H   0  0  0  0  0  0  0  0  0  0  0  0
   -4.5141   15.6298  -33.4106 H   0  0  0  0  0  0  0  0  0  0  0  0
   -8.2296   18.0183  -33.0046 H   0  0  0  0  0  0  0  0  0  0  0  0
   -6.8060   17.7914  -31.9265 H   0  0  0  0  0  0  0  0  0  0  0  0
   -9.4771   19.9416  -32.6317 H   0  0  0  0  0  0  0  0  0  0  0  0
   -9.6491   22.3374  -31.8837 H   0  0  0  0  0  0  0  0  0  0  0  0
   -8.1003   24.5369  -30.9192 H   0  0  0  0  0  0  0  0  0  0  0  0
   -3.3000   24.4130  -30.4140 H   0  0  0  0  0  0  0  0  0  0  0  0
   -3.4910   26.0640  -29.7380 H   0  0  0  0  0  0  0  0  0  0  0  0
   -1.8779   20.8328  -28.7572 H   0  0  0  0  0  0  0  0  0  0  0  0
   -1.5408   21.2425  -30.4779 H   0  0  0  0  0  0  0  0  0  0  0  0
    0.5715   22.0924  -26.6794 H   0  0  0  0  0  0  0  0  0  0  0  0
    0.2900   21.0410  -28.1084 H   0  0  0  0  0  0  0  0  0  0  0  0
    1.6534   22.2106  -28.1084 H   0  0  0  0  0  0  0  0  0  0  0  0
   -5.1854   20.0115  -31.8681 H   0  0  0  0  0  0  0  0  0  0  0  0
  1  2  1  0
  2  3  1  0
  3  4  2  0
  3  5  1  0
  5  6  1  0
  6  7  2  0
  7  8  1  0
  8  9  2  0
  9 10  1  0
 10 11  2  0
 11 12  1  0
 12 13  1  0
 12 14  2  0
 11 15  1  0
 15 16  1  0
 16 17  2  0
 16 18  1  0
 18 19  1  0
 19 20  1  0
 20 21  1  0
 21 22  1  0
 22 23  2  0
 22 24  1  0
 24 25  1  0
 25 26  1  0
 15 27  1  0
 27 28  2  0
 28  6  1  0
 27  9  1  0
 25 20  2  0
  1 29  1  0
  1 30  1  0
  1 31  1  0
  5 32  1  0
  5 33  1  0
  7 34  1  0
  8 35  1  0
 10 36  1  0
 13 37  1  0
 13 38  1  0
 19 39  1  0
 19 40  1  0
 26 41  1  0
 26 42  1  0
 26 43  1  0
 28 44  1  0
M  END
>  <UniqueID>  (22) 
22

>  <SMILES>  (22) 
COC(=O)Cc1ccc2cc(C(N)=O)n(C(=O)OCc3oc(=O)oc3C)c2c1

>  <Energy>  (22) 
109.97208469953017

>  <Genealogy>  (22) 
COC(=O)Cc1ccc2cc(C(N)=O)n(C(=O)OCc3oc(=O)oc3C)c2c1 (3D coordinates assigned)
COC(=O)Cc1ccc2cc(C(N)=O)n(C(=O)OCc3oc(=O)oc3C)c2c1 (optimized conformer: 109.97208469953017 kcal/mol)

>  <smiles>  (22) 
COC(=O)Cc1ccc2cc(C(N)=O)n(C(=O)OCc3oc(=O)oc3C)c2c1

>  <score_type>  (22) 
oracle

>  <origin>  (22) 
adg

>  <m_score__min__energy>  (22) 
-9.0999999999999996

>  <m_primary>  (22) 
energy

$$$$
22:0
     RDKit          3D

 39 40  0  0  0  0  0  0  0  0999 V2000
   -2.9670   20.5010  -33.1030 C   0  0  0  0  0  0  0  0  0  0  0  0
   -3.6300   21.6540  -33.1590 C   0  0  0  0  0  0  0  0  0  0  0  0
   -4.0890   22.3700  -31.9540 C   0  0  0  0  0  0  0  0  0  0  0  0
   -3.2350   22.9270  -31.2150 O   0  0  0  0  0  0  0  0  0  0  0  0
   -5.4820   22.4580  -31.6120 N   0  0  0  0  0  0  0  0  0  0  0  0
   -6.0950   23.4430  -30.8970 C   0  0  0  0  0  0  0  0  0  0  0  0
   -5.4700   24.7090  -30.4620 C   0  0  0  0  0  0  0  0  0  0  0  0
   -5.7830   25.2990  -29.1990 N   0  0  0  0  0  0  0  0  0  0  0  0
   -4.6110   25.2590  -31.2020 O   0  0  0  0  0  0  0  0  0  0  0  0
   -7.4170   23.1010  -30.6240 C   0  0  0  0  0  0  0  0  0  0  0  0
   -7.5980   21.8610  -31.1960 C   0  0  0  0  0  0  0  0  0  0  0  0
   -8.7180   21.0360  -31.2140 C   0  0  0  0  0  0  0  0  0  0  0  0
   -8.6050   19.7850  -31.8450 C   0  0  0  0  0  0  0  0  0  0  0  0
   -7.3750   19.3760  -32.4210 C   0  0  0  0  0  0  0  0  0  0  0  0
   -7.2690   18.0430  -33.1180 C   0  0  0  0  0  0  0  0  0  0  0  0
   -6.1030   17.9900  -34.0780 C   0  0  0  0  0  0  0  0  0  0  0  0
   -6.0970   18.7440  -35.0910 O   0  0  0  0  0  0  0  0  0  0  0  0
   -5.0170   17.0570  -33.8820 N   0  0  0  0  0  0  0  0  0  0  0  0
   -5.0370   16.1040  -32.7670 C   0  0  0  0  0  0  0  0  0  0  0  0
   -3.8940   17.0620  -34.8250 C   0  0  0  0  0  0  0  0  0  0  0  0
   -6.2620   20.2430  -32.3860 C   0  0  0  0  0  0  0  0  0  0  0  0
   -6.4110   21.4920  -31.7760 C   0  0  0  0  0  0  0  0  0  0  0  0
   -2.6458   20.0056  -34.0311 H   0  0  0  0  0  0  0  0  0  0  0  0
   -2.7403   20.0437  -32.1286 H   0  0  0  0  0  0  0  0  0  0  0  0
   -3.8445   22.0911  -34.1454 H   0  0  0  0  0  0  0  0  0  0  0  0
   -5.3760   26.2240  -28.9390 H   0  0  0  0  0  0  0  0  0  0  0  0
   -6.3310   24.7790  -28.4790 H   0  0  0  0  0  0  0  0  0  0  0  0
   -8.1588   23.6946  -30.0696 H   0  0  0  0  0  0  0  0  0  0  0  0
   -9.6630   21.3529  -30.7487 H   0  0  0  0  0  0  0  0  0  0  0  0
   -9.4780   19.1174  -31.8925 H   0  0  0  0  0  0  0  0  0  0  0  0
   -7.1393   17.2565  -32.3599 H   0  0  0  0  0  0  0  0  0  0  0  0
   -8.1909   17.8922  -33.6989 H   0  0  0  0  0  0  0  0  0  0  0  0
   -5.0255   16.6539  -31.8144 H   0  0  0  0  0  0  0  0  0  0  0  0
   -5.9482   15.4906  -32.8252 H   0  0  0  0  0  0  0  0  0  0  0  0
   -4.1523   15.4529  -32.8252 H   0  0  0  0  0  0  0  0  0  0  0  0
   -2.9463   17.0662  -34.2666 H   0  0  0  0  0  0  0  0  0  0  0  0
   -3.9427   16.1636  -35.4579 H   0  0  0  0  0  0  0  0  0  0  0  0
   -3.9507   17.9599  -35.4579 H   0  0  0  0  0  0  0  0  0  0  0  0
   -5.3004   19.9432  -32.8281 H   0  0  0  0  0  0  0  0  0  0  0  0
  1  2  2  0
  2  3  1  0
  3  4  2  0
  3  5  1  0
  5  6  1  0
  6  7  1  0
  7  8  1  0
  7  9  2  0
  6 10  2  0
 10 11  1  0
 11 12  2  0
 12 13  1  0
 13 14  2  0
 14 15  1  0
 15 16  1  0
 16 17  2  0
 16 18  1  0
 18 19  1  0
 18 20  1  0
 14 21  1  0
 21 22  2  0
 22  5  1  0
 22 11  1  0
  1 23  1  0
  1 24  1  0
  2 25  1  0
  8 26  1  0
  8 27  1  0
 10 28  1  0
 12 29  1  0
 13 30  1  0
 15 31  1  0
 15 32  1  0
 19 33  1  0
 19 34  1  0
 19 35  1  0
 20 36  1  0
 20 37  1  0
 20 38  1  0
 21 39  1  0
M  END
>  <UniqueID>  (23) 
23

>  <SMILES>  (23) 
C=CC(=O)n1c(C(N)=O)cc2ccc(CC(=O)N(C)C)cc21

>  <Energy>  (23) 
75.62960989777453

>  <Genealogy>  (23) 
C=CC(=O)n1c(C(N)=O)cc2ccc(CC(=O)N(C)C)cc21 (3D coordinates assigned)
C=CC(=O)n1c(C(N)=O)cc2ccc(CC(=O)N(C)C)cc21 (optimized conformer: 75.62960989777453 kcal/mol)

>  <smiles>  (23) 
C=CC(=O)n1c(C(N)=O)cc2ccc(CC(=O)N(C)C)cc21

>  <score_type>  (23) 
oracle

>  <origin>  (23) 
adg

>  <m_score__min__energy>  (23) 
-9.0999999999999996

>  <m_primary>  (23) 
energy

$$$$
23:0
     RDKit          3D

 38 39  0  0  0  0  0  0  0  0999 V2000
   -7.2080   23.5200  -30.3650 C   0  0  0  0  0  0  0  0  0  0  0  0
   -7.3930   22.8640  -31.7000 C   0  0  0  0  0  0  0  0  0  0  0  0
   -6.8430   23.3360  -32.6830 O   0  0  0  0  0  0  0  0  0  0  0  0
   -8.2400   21.6280  -31.8420 C   0  0  0  0  0  0  0  0  0  0  0  0
   -7.6040   20.6870  -32.7030 O   0  0  0  0  0  0  0  0  0  0  0  0
   -6.4070   20.0390  -32.3790 C   0  0  0  0  0  0  0  0  0  0  0  0
   -6.3060   19.3810  -31.3060 O   0  0  0  0  0  0  0  0  0  0  0  0
   -5.2210   20.2200  -33.2880 C   0  0  2  0  0  0  0  0  0  0  0  0
   -4.8600   18.9390  -34.0530 C   0  0  0  0  0  0  0  0  0  0  0  0
   -4.0360   20.7230  -32.4910 C   0  0  0  0  0  0  0  0  0  0  0  0
   -2.8260   19.9810  -32.4730 C   0  0  0  0  0  0  0  0  0  0  0  0
   -1.7130   20.4420  -31.7520 C   0  0  0  0  0  0  0  0  0  0  0  0
   -1.8320   21.6450  -31.0640 C   0  0  0  0  0  0  0  0  0  0  0  0
   -0.9180   22.3110  -30.2800 C   0  0  0  0  0  0  0  0  0  0  0  0
   -1.5740   23.4590  -29.8400 C   0  0  0  0  0  0  0  0  0  0  0  0
   -0.9190   24.5110  -29.0360 C   0  0  0  0  0  0  0  0  0  0  0  0
   -1.4940   25.8130  -28.9670 N   0  0  0  0  0  0  0  0  0  0  0  0
    0.1270   24.2630  -28.3790 O   0  0  0  0  0  0  0  0  0  0  0  0
   -2.8480   23.4980  -30.3260 N   0  0  0  0  0  0  0  0  0  0  0  0
   -3.8640   24.4760  -30.0530 C   0  0  0  0  0  0  0  0  0  0  0  0
   -4.7290   24.2630  -29.1630 O   0  0  0  0  0  0  0  0  0  0  0  0
   -3.8870   25.6790  -30.7490 O   0  0  0  0  0  0  0  0  0  0  0  0
   -2.9880   22.3810  -31.0750 C   0  0  0  0  0  0  0  0  0  0  0  0
   -4.1200   21.9360  -31.7660 C   0  0  0  0  0  0  0  0  0  0  0  0
   -7.4135   22.7915  -29.5669 H   0  0  0  0  0  0  0  0  0  0  0  0
   -6.1730   23.8812  -30.2742 H   0  0  0  0  0  0  0  0  0  0  0  0
   -7.9018   24.3687  -30.2742 H   0  0  0  0  0  0  0  0  0  0  0  0
   -8.3856   21.1724  -30.8514 H   0  0  0  0  0  0  0  0  0  0  0  0
   -9.2115   21.9086  -32.2750 H   0  0  0  0  0  0  0  0  0  0  0  0
   -5.4970   20.9673  -34.0466 H   0  0  0  0  0  0  0  0  0  0  0  0
   -4.6336   18.1356  -33.3366 H   0  0  0  0  0  0  0  0  0  0  0  0
   -5.7083   18.6381  -34.6853 H   0  0  0  0  0  0  0  0  0  0  0  0
   -3.9794   19.1254  -34.6853 H   0  0  0  0  0  0  0  0  0  0  0  0
   -2.7597   19.0347  -33.0299 H   0  0  0  0  0  0  0  0  0  0  0  0
   -0.7744   19.8687  -31.7318 H   0  0  0  0  0  0  0  0  0  0  0  0
    0.1124   22.0025  -30.0494 H   0  0  0  0  0  0  0  0  0  0  0  0
   -2.5310   25.9440  -28.9810 H   0  0  0  0  0  0  0  0  0  0  0  0
   -5.0546   22.5157  -31.7464 H   0  0  0  0  0  0  0  0  0  0  0  0
  1  2  1  0
  2  3  2  0
  2  4  1  0
  4  5  1  0
  5  6  1  0
  6  7  2  0
  6  8  1  0
  8  9  1  0
  8 10  1  0
 10 11  2  0
 11 12  1  0
 12 13  2  0
 13 14  1  0
 14 15  2  0
 15 16  1  0
 16 17  1  0
 16 18  2  0
 15 19  1  0
 19 20  1  0
 20 21  2  0
 20 22  1  0
 19 23  1  0
 23 24  2  0
 24 10  1  0
 23 13  1  0
  1 25  1  0
  1 26  1  0
  1 27  1  0
  4 28  1  0
  4 29  1  0
  8 30  1  6
  9 31  1  0
  9 32  1  0
  9 33  1  0
 11 34  1  0
 12 35  1  0
 14 36  1  0
 17 37  1  0
 24 38  1  0
M  CHG  2  17  -1  22  -1
M  END
>  <UniqueID>  (24) 
24

>  <SMILES>  (24) 
CC(=O)COC(=O)[C@H](C)c1ccc2cc(C([NH-])=O)n(C(=O)[O-])c2c1

>  <Energy>  (24) 
69.6586328057453

>  <Genealogy>  (24) 
CC(=O)COC(=O)C(C)c1ccc2cc(C([NH-])=O)n(C(=O)[O-])c2c1 (protonated)
CC(=O)COC(=O)[C@H](C)c1ccc2cc(C([NH-])=O)n(C(=O)[O-])c2c1 (chirality)
CC(=O)COC(=O)[C@H](C)c1ccc2cc(C([NH-])=O)n(C(=O)[O-])c2c1 (3D coordinates assigned)
CC(=O)COC(=O)[C@H](C)c1ccc2cc(C([NH-])=O)n(C(=O)[O-])c2c1 (optimized conformer: 69.6586328057453 kcal/mol)

>  <smiles>  (24) 
CC(=O)COC(=O)C(C)c1ccc2cc(C(N)=O)n(C(=O)O)c2c1

>  <score_type>  (24) 
oracle

>  <origin>  (24) 
adg

>  <m_score__min__energy>  (24) 
-11.390000000000001

>  <m_primary>  (24) 
energy

$$$$
24:0
     RDKit          3D

 40 41  0  0  0  0  0  0  0  0999 V2000
   -3.4690   19.9710  -32.3590 C   0  0  0  0  0  0  0  0  0  0  0  0
   -3.0950   21.0060  -33.4230 C   0  0  0  0  0  0  0  0  0  0  0  0
   -1.5790   21.1880  -33.4780 C   0  0  0  0  0  0  0  0  0  0  0  0
   -3.6960   22.2630  -33.1190 O   0  0  0  0  0  0  0  0  0  0  0  0
   -4.0240   22.6750  -31.8220 C   0  0  0  0  0  0  0  0  0  0  0  0
   -3.1320   22.7690  -30.9350 O   0  0  0  0  0  0  0  0  0  0  0  0
   -5.3830   23.0150  -31.5110 N   0  0  0  0  0  0  0  0  0  0  0  0
   -5.8720   24.2020  -31.0510 C   0  0  0  0  0  0  0  0  0  0  0  0
   -5.0710   25.3740  -30.6420 C   0  0  0  0  0  0  0  0  0  0  0  0
   -3.6620   25.2700  -30.4510 N   0  0  0  0  0  0  0  0  0  0  0  0
   -5.6450   26.4720  -30.4110 O   0  0  0  0  0  0  0  0  0  0  0  0
   -7.2600   24.1410  -30.9280 C   0  0  0  0  0  0  0  0  0  0  0  0
   -7.6070   22.8680  -31.3190 C   0  0  0  0  0  0  0  0  0  0  0  0
   -8.8570   22.2600  -31.3850 C   0  0  0  0  0  0  0  0  0  0  0  0
   -8.9190   20.9310  -31.8380 C   0  0  0  0  0  0  0  0  0  0  0  0
   -7.7430   20.2480  -32.2370 C   0  0  0  0  0  0  0  0  0  0  0  0
   -7.8180   18.8150  -32.7000 C   0  0  0  0  0  0  0  0  0  0  0  0
   -6.4350   18.1450  -32.7080 C   0  0  1  0  0  0  0  0  0  0  0  0
   -6.4360   17.0850  -31.7880 O   0  0  0  0  0  0  0  0  0  0  0  0
   -6.0920   17.6270  -34.0770 C   0  0  0  0  0  0  0  0  0  0  0  0
   -5.7260   18.4190  -34.9850 O   0  0  0  0  0  0  0  0  0  0  0  0
   -6.1380   16.2620  -34.3350 O   0  0  0  0  0  0  0  0  0  0  0  0
   -6.4920   20.8980  -32.1530 C   0  0  0  0  0  0  0  0  0  0  0  0
   -6.4570   22.2110  -31.6690 C   0  0  0  0  0  0  0  0  0  0  0  0
   -3.3136   20.4010  -31.3585 H   0  0  0  0  0  0  0  0  0  0  0  0
   -4.5258   19.6893  -32.4769 H   0  0  0  0  0  0  0  0  0  0  0  0
   -2.8364   19.0789  -32.4769 H   0  0  0  0  0  0  0  0  0  0  0  0
   -3.4591   20.6442  -34.3959 H   0  0  0  0  0  0  0  0  0  0  0  0
   -1.1781   21.2361  -32.4548 H   0  0  0  0  0  0  0  0  0  0  0  0
   -1.1267   20.3377  -34.0094 H   0  0  0  0  0  0  0  0  0  0  0  0
   -1.3408   22.1212  -34.0094 H   0  0  0  0  0  0  0  0  0  0  0  0
   -3.0420   24.9140  -31.2110 H   0  0  0  0  0  0  0  0  0  0  0  0
   -7.9347   24.9413  -30.5899 H   0  0  0  0  0  0  0  0  0  0  0  0
   -9.7679   22.8025  -31.0918 H   0  0  0  0  0  0  0  0  0  0  0  0
   -9.8899   20.4158  -31.8833 H   0  0  0  0  0  0  0  0  0  0  0  0
   -8.4805   18.2561  -32.0227 H   0  0  0  0  0  0  0  0  0  0  0  0
   -8.2075   18.8079  -33.7287 H   0  0  0  0  0  0  0  0  0  0  0  0
   -5.6782   18.8920  -32.4267 H   0  0  0  0  0  0  0  0  0  0  0  0
   -6.1560   16.2730  -32.2850 H   0  0  0  0  0  0  0  0  0  0  0  0
   -5.5685   20.3854  -32.4602 H   0  0  0  0  0  0  0  0  0  0  0  0
  1  2  1  0
  2  3  1  0
  2  4  1  0
  4  5  1  0
  5  6  2  0
  5  7  1  0
  7  8  1  0
  8  9  1  0
  9 10  1  0
  9 11  2  0
  8 12  2  0
 12 13  1  0
 13 14  2  0
 14 15  1  0
 15 16  2  0
 16 17  1  0
 17 18  1  0
 18 19  1  0
 18 20  1  0
 20 21  2  0
 20 22  1  0
 16 23  1  0
 23 24  2  0
 24  7  1  0
 24 13  1  0
  1 25  1  0
  1 26  1  0
  1 27  1  0
  2 28  1  0
  3 29  1  0
  3 30  1  0
  3 31  1  0
 10 32  1  0
 12 33  1  0
 14 34  1  0
 15 35  1  0
 17 36  1  0
 17 37  1  0
 18 38  1  1
 19 39  1  0
 23 40  1  0
M  CHG  2  10  -1  22  -1
M  END
>  <UniqueID>  (25) 
25

>  <SMILES>  (25) 
CC(C)OC(=O)n1c(C([NH-])=O)cc2ccc(C[C@@H](O)C(=O)[O-])cc21

>  <Energy>  (25) 
69.68349829413813

>  <Genealogy>  (25) 
CC(C)OC(=O)n1c(C([NH-])=O)cc2ccc(CC(O)C(=O)[O-])cc21 (protonated)
CC(C)OC(=O)n1c(C([NH-])=O)cc2ccc(C[C@@H](O)C(=O)[O-])cc21 (chirality)
CC(C)OC(=O)n1c(C([NH-])=O)cc2ccc(C[C@@H](O)C(=O)[O-])cc21 (3D coordinates assigned)
CC(C)OC(=O)n1c(C([NH-])=O)cc2ccc(C[C@@H](O)C(=O)[O-])cc21 (optimized conformer: 69.68349829413813 kcal/mol)

>  <smiles>  (25) 
CC(C)OC(=O)n1c(C(N)=O)cc2ccc(CC(O)C(=O)O)cc21

>  <score_type>  (25) 
oracle

>  <origin>  (25) 
adg

>  <m_score__min__energy>  (25) 
-10.109999999999999

>  <m_primary>  (25) 
energy

$$$$
25:0
     RDKit          3D

 42 43  0  0  0  0  0  0  0  0999 V2000
   -3.3060   17.8180  -33.7290 C   0  0  0  0  0  0  0  0  0  0  0  0
   -4.1540   16.7200  -33.9780 O   0  0  0  0  0  0  0  0  0  0  0  0
   -5.2850   16.7740  -33.1280 C   0  0  0  0  0  0  0  0  0  0  0  0
   -6.2890   17.7890  -33.6130 C   0  0  0  0  0  0  0  0  0  0  0  0
   -6.1020   18.3540  -34.6810 O   0  0  0  0  0  0  0  0  0  0  0  0
   -7.5360   18.0860  -32.8260 C   0  0  0  0  0  0  0  0  0  0  0  0
   -7.5830   19.5350  -32.4190 C   0  0  0  0  0  0  0  0  0  0  0  0
   -8.8250   20.2180  -32.3710 C   0  0  0  0  0  0  0  0  0  0  0  0
   -8.8890   21.5580  -31.9560 C   0  0  0  0  0  0  0  0  0  0  0  0
   -7.7000   22.1920  -31.6090 C   0  0  0  0  0  0  0  0  0  0  0  0
   -7.4840   23.4490  -31.0870 C   0  0  0  0  0  0  0  0  0  0  0  0
   -6.1110   23.5230  -30.8620 C   0  0  0  0  0  0  0  0  0  0  0  0
   -5.4430   24.7030  -30.2730 C   0  0  0  0  0  0  0  0  0  0  0  0
   -5.8180   25.2110  -28.9910 N   0  0  0  0  0  0  0  0  0  0  0  0
   -4.4950   25.2490  -30.8980 O   0  0  0  0  0  0  0  0  0  0  0  0
   -5.5020   22.3650  -31.2360 N   0  0  0  0  0  0  0  0  0  0  0  0
   -4.1370   21.9800  -31.0120 C   0  0  0  0  0  0  0  0  0  0  0  0
   -3.5900   22.2430  -29.9060 O   0  0  0  0  0  0  0  0  0  0  0  0
   -3.3920   21.3040  -32.0410 N   0  0  0  0  0  0  0  0  0  0  0  0
   -3.6580   21.6170  -33.4460 C   0  0  0  0  0  0  0  0  0  0  0  0
   -2.2430   20.4650  -31.6990 C   0  0  0  0  0  0  0  0  0  0  0  0
   -6.4870   21.5550  -31.6810 C   0  0  0  0  0  0  0  0  0  0  0  0
   -6.3940   20.2160  -32.0740 C   0  0  0  0  0  0  0  0  0  0  0  0
   -3.1974   17.9586  -32.6434 H   0  0  0  0  0  0  0  0  0  0  0  0
   -2.3186   17.6272  -34.1746 H   0  0  0  0  0  0  0  0  0  0  0  0
   -3.7402   18.7251  -34.1746 H   0  0  0  0  0  0  0  0  0  0  0  0
   -5.7615   15.7829  -33.1028 H   0  0  0  0  0  0  0  0  0  0  0  0
   -4.9495   17.0712  -32.1234 H   0  0  0  0  0  0  0  0  0  0  0  0
   -8.4157   17.8573  -33.4455 H   0  0  0  0  0  0  0  0  0  0  0  0
   -7.5338   17.4659  -31.9174 H   0  0  0  0  0  0  0  0  0  0  0  0
   -9.7470   19.6931  -32.6616 H   0  0  0  0  0  0  0  0  0  0  0  0
   -9.8503   22.0905  -31.9067 H   0  0  0  0  0  0  0  0  0  0  0  0
   -8.2354   24.2279  -30.8900 H   0  0  0  0  0  0  0  0  0  0  0  0
   -5.3650   26.0770  -28.6220 H   0  0  0  0  0  0  0  0  0  0  0  0
   -6.4620   24.6840  -28.3640 H   0  0  0  0  0  0  0  0  0  0  0  0
   -4.3692   22.4539  -33.5069 H   0  0  0  0  0  0  0  0  0  0  0  0
   -2.7179   21.8978  -33.9434 H   0  0  0  0  0  0  0  0  0  0  0  0
   -4.0867   20.7345  -33.9434 H   0  0  0  0  0  0  0  0  0  0  0  0
   -2.1508   20.3977  -30.6049 H   0  0  0  0  0  0  0  0  0  0  0  0
   -2.3868   19.4579  -32.1175 H   0  0  0  0  0  0  0  0  0  0  0  0
   -1.3275   20.9086  -32.1175 H   0  0  0  0  0  0  0  0  0  0  0  0
   -5.4201   19.7061  -32.1135 H   0  0  0  0  0  0  0  0  0  0  0  0
  1  2  1  0
  2  3  1  0
  3  4  1  0
  4  5  2  0
  4  6  1  0
  6  7  1  0
  7  8  2  0
  8  9  1  0
  9 10  2  0
 10 11  1  0
 11 12  2  0
 12 13  1  0
 13 14  1  0
 13 15  2  0
 12 16  1  0
 16 17  1  0
 17 18  2  0
 17 19  1  0
 19 20  1  0
 19 21  1  0
 16 22  1  0
 22 23  2  0
 23  7  1  0
 22 10  1  0
  1 24  1  0
  1 25  1  0
  1 26  1  0
  3 27  1  0
  3 28  1  0
  6 29  1  0
  6 30  1  0
  8 31  1  0
  9 32  1  0
 11 33  1  0
 14 34  1  0
 14 35  1  0
 20 36  1  0
 20 37  1  0
 20 38  1  0
 21 39  1  0
 21 40  1  0
 21 41  1  0
 23 42  1  0
M  END
>  <UniqueID>  (26) 
26

>  <SMILES>  (26) 
COCC(=O)Cc1ccc2cc(C(N)=O)n(C(=O)N(C)C)c2c1

>  <Energy>  (26) 
77.2605431575383

>  <Genealogy>  (26) 
COCC(=O)Cc1ccc2cc(C(N)=O)n(C(=O)N(C)C)c2c1 (3D coordinates assigned)
COCC(=O)Cc1ccc2cc(C(N)=O)n(C(=O)N(C)C)c2c1 (optimized conformer: 77.2605431575383 kcal/mol)

>  <smiles>  (26) 
COCC(=O)Cc1ccc2cc(C(N)=O)n(C(=O)N(C)C)c2c1

>  <score_type>  (26) 
oracle

>  <origin>  (26) 
adg

>  <m_score__min__energy>  (26) 
-8.6699999999999999

>  <m_primary>  (26) 
energy

$$$$
26:0
     RDKit          3D

 39 40  0  0  0  0  0  0  0  0999 V2000
   -9.4880   21.6780  -31.7920 C   0  0  0  0  0  0  0  0  0  0  0  0
   -8.8050   21.9100  -30.4550 C   0  0  0  0  0  0  0  0  0  0  0  0
   -7.8730   22.9790  -30.5770 O   0  0  0  0  0  0  0  0  0  0  0  0
   -7.0780   23.1640  -31.7120 C   0  0  0  0  0  0  0  0  0  0  0  0
   -7.5440   23.7590  -32.7220 O   0  0  0  0  0  0  0  0  0  0  0  0
   -5.7270   22.6730  -31.7230 N   0  0  0  0  0  0  0  0  0  0  0  0
   -4.6240   23.2860  -31.2080 C   0  0  0  0  0  0  0  0  0  0  0  0
   -4.6200   24.5100  -30.3820 C   0  0  0  0  0  0  0  0  0  0  0  0
   -5.6770   24.7850  -29.4610 N   0  0  0  0  0  0  0  0  0  0  0  0
   -3.6400   25.2990  -30.4500 O   0  0  0  0  0  0  0  0  0  0  0  0
   -3.4700   22.5750  -31.5250 C   0  0  0  0  0  0  0  0  0  0  0  0
   -3.9030   21.4860  -32.2470 C   0  0  0  0  0  0  0  0  0  0  0  0
   -3.1730   20.4560  -32.8330 C   0  0  0  0  0  0  0  0  0  0  0  0
   -3.8760   19.4810  -33.5600 C   0  0  0  0  0  0  0  0  0  0  0  0
   -5.2860   19.5530  -33.6870 C   0  0  0  0  0  0  0  0  0  0  0  0
   -6.0210   18.5310  -34.5110 C   0  0  0  0  0  0  0  0  0  0  0  0
   -6.3540   17.3200  -33.6870 C   0  0  0  0  0  0  0  0  0  0  0  0
   -7.3060   17.3410  -32.8070 N   0  0  0  0  0  0  0  0  0  0  0  0
   -8.0600   18.4720  -32.5810 O   0  0  0  0  0  0  0  0  0  0  0  0
   -9.0750   18.4710  -31.5930 C   0  0  0  0  0  0  0  0  0  0  0  0
   -5.9920   20.6210  -33.0910 C   0  0  0  0  0  0  0  0  0  0  0  0
   -5.2680   21.5680  -32.3540 C   0  0  0  0  0  0  0  0  0  0  0  0
  -10.5171   21.3284  -31.6223 H   0  0  0  0  0  0  0  0  0  0  0  0
   -9.5096   22.6192  -32.3609 H   0  0  0  0  0  0  0  0  0  0  0  0
   -8.9319   20.9184  -32.3609 H   0  0  0  0  0  0  0  0  0  0  0  0
   -9.5600   22.1666  -29.6973 H   0  0  0  0  0  0  0  0  0  0  0  0
   -8.2756   20.9952  -30.1503 H   0  0  0  0  0  0  0  0  0  0  0  0
   -5.6800   25.6760  -28.9170 H   0  0  0  0  0  0  0  0  0  0  0  0
   -6.4150   24.0750  -29.2610 H   0  0  0  0  0  0  0  0  0  0  0  0
   -2.4340   22.8290  -31.2561 H   0  0  0  0  0  0  0  0  0  0  0  0
   -2.0789   20.4069  -32.7300 H   0  0  0  0  0  0  0  0  0  0  0  0
   -3.3274   18.6543  -34.0350 H   0  0  0  0  0  0  0  0  0  0  0  0
   -6.9526   18.9762  -34.8905 H   0  0  0  0  0  0  0  0  0  0  0  0
   -5.3758   18.2220  -35.3466 H   0  0  0  0  0  0  0  0  0  0  0  0
   -5.7774   16.3948  -33.8334 H   0  0  0  0  0  0  0  0  0  0  0  0
   -8.6144   18.4715  -30.5941 H   0  0  0  0  0  0  0  0  0  0  0  0
   -9.7003   19.3685  -31.7088 H   0  0  0  0  0  0  0  0  0  0  0  0
   -9.6986   17.5722  -31.7088 H   0  0  0  0  0  0  0  0  0  0  0  0
   -7.0829   20.7075  -33.2024 H   0  0  0  0  0  0  0  0  0  0  0  0
  1  2  1  0
  2  3  1  0
  3  4  1  0
  4  5  2  0
  4  6  1  0
  6  7  1  0
  7  8  1  0
  8  9  1  0
  8 10  2  0
  7 11  2  0
 11 12  1  0
 12 13  2  0
 13 14  1  0
 14 15  2  0
 15 16  1  0
 16 17  1  0
 17 18  2  3
 18 19  1  0
 19 20  1  0
 15 21  1  0
 21 22  2  0
 22  6  1  0
 22 12  1  0
  1 23  1  0
  1 24  1  0
  1 25  1  0
  2 26  1  0
  2 27  1  0
  9 28  1  0
  9 29  1  0
 11 30  1  0
 13 31  1  0
 14 32  1  0
 16 33  1  0
 16 34  1  0
 17 35  1  0
 20 36  1  0
 20 37  1  0
 20 38  1  0
 21 39  1  0
M  END
>  <UniqueID>  (27) 
27

>  <SMILES>  (27) 
CCOC(=O)n1c(C(N)=O)cc2ccc(CC=NOC)cc21

>  <Energy>  (27) 
67.44662495158408

>  <Genealogy>  (27) 
CCOC(=O)n1c(C(N)=O)cc2ccc(CC=NOC)cc21 (3D coordinates assigned)
CCOC(=O)n1c(C(N)=O)cc2ccc(CC=NOC)cc21 (optimized conformer: 67.44662495158408 kcal/mol)

>  <smiles>  (27) 
CCOC(=O)n1c(C(N)=O)cc2ccc(CC=NOC)cc21

>  <score_type>  (27) 
oracle

>  <origin>  (27) 
adg

>  <m_score__min__energy>  (27) 
-8.0399999999999991

>  <m_primary>  (27) 
energy

$$$$
27:0
     RDKit          3D

 41 43  0  0  0  0  0  0  0  0999 V2000
   -6.1460   17.4070  -31.2240 C   0  0  0  0  0  0  0  0  0  0  0  0
   -6.6540   17.9080  -32.5110 N   0  0  0  0  0  0  0  0  0  0  0  0
   -6.6690   16.8130  -33.4960 C   0  0  0  0  0  0  0  0  0  0  0  0
   -7.9990   18.4900  -32.3320 C   0  0  0  0  0  0  0  0  0  0  0  0
   -7.9290   19.9880  -32.2360 C   0  0  0  0  0  0  0  0  0  0  0  0
   -8.8900   20.7640  -31.7070 N   0  0  0  0  0  0  0  0  0  0  0  0
   -8.4920   22.0160  -31.8700 N   0  0  0  0  0  0  0  0  0  0  0  0
   -7.3200   22.0240  -32.4870 N   0  0  0  0  0  0  0  0  0  0  0  0
   -6.9510   20.7750  -32.7270 N   0  0  0  0  0  0  0  0  0  0  0  0
   -5.7150   20.3940  -33.4100 C   0  0  0  0  0  0  0  0  0  0  0  0
   -4.5060   20.7910  -32.6020 C   0  0  0  0  0  0  0  0  0  0  0  0
   -3.3680   19.9460  -32.5660 C   0  0  0  0  0  0  0  0  0  0  0  0
   -2.2240   20.3170  -31.8410 C   0  0  0  0  0  0  0  0  0  0  0  0
   -2.2440   21.5350  -31.1680 C   0  0  0  0  0  0  0  0  0  0  0  0
   -1.2780   22.1340  -30.3930 C   0  0  0  0  0  0  0  0  0  0  0  0
   -1.8350   23.3400  -29.9740 C   0  0  0  0  0  0  0  0  0  0  0  0
   -1.0920   24.3460  -29.1890 C   0  0  0  0  0  0  0  0  0  0  0  0
   -1.5920   25.6720  -29.0310 N   0  0  0  0  0  0  0  0  0  0  0  0
    0.0270   24.0470  -28.6910 O   0  0  0  0  0  0  0  0  0  0  0  0
   -3.1030   23.4760  -30.4610 N   0  0  0  0  0  0  0  0  0  0  0  0
   -4.0360   24.5390  -30.2100 C   0  0  0  0  0  0  0  0  0  0  0  0
   -3.8700   25.6700  -30.7400 O   0  0  0  0  0  0  0  0  0  0  0  0
   -5.1170   24.3370  -29.3600 O   0  0  0  0  0  0  0  0  0  0  0  0
   -3.3360   22.3640  -31.1910 C   0  0  0  0  0  0  0  0  0  0  0  0
   -4.5010   22.0040  -31.8770 C   0  0  0  0  0  0  0  0  0  0  0  0
   -6.6652   17.9191  -30.4005 H   0  0  0  0  0  0  0  0  0  0  0  0
   -6.3272   16.3242  -31.1547 H   0  0  0  0  0  0  0  0  0  0  0  0
   -5.0659   17.6032  -31.1547 H   0  0  0  0  0  0  0  0  0  0  0  0
   -6.6822   15.8469  -32.9701 H   0  0  0  0  0  0  0  0  0  0  0  0
   -7.5660   16.8995  -34.1267 H   0  0  0  0  0  0  0  0  0  0  0  0
   -5.7699   16.8748  -34.1267 H   0  0  0  0  0  0  0  0  0  0  0  0
   -8.6278   18.2136  -33.1912 H   0  0  0  0  0  0  0  0  0  0  0  0
   -8.4288   18.0986  -31.3982 H   0  0  0  0  0  0  0  0  0  0  0  0
   -9.7880   20.4660  -31.2630 H   0  0  0  0  0  0  0  0  0  0  0  0
   -5.7069   19.3039  -33.5573 H   0  0  0  0  0  0  0  0  0  0  0  0
   -5.6753   20.9144  -34.3783 H   0  0  0  0  0  0  0  0  0  0  0  0
   -3.3814   18.9907  -33.1112 H   0  0  0  0  0  0  0  0  0  0  0  0
   -1.3390   19.6647  -31.8061 H   0  0  0  0  0  0  0  0  0  0  0  0
   -0.2777   21.7433  -30.1547 H   0  0  0  0  0  0  0  0  0  0  0  0
   -2.6180   25.8540  -28.9580 H   0  0  0  0  0  0  0  0  0  0  0  0
   -5.3914   22.6494  -31.8526 H   0  0  0  0  0  0  0  0  0  0  0  0
  1  2  1  0
  2  3  1  0
  2  4  1  0
  4  5  1  0
  5  6  2  0
  6  7  1  0
  7  8  2  0
  8  9  1  0
  9 10  1  0
 10 11  1  0
 11 12  2  0
 12 13  1  0
 13 14  2  0
 14 15  1  0
 15 16  2  0
 16 17  1  0
 17 18  1  0
 17 19  2  0
 16 20  1  0
 20 21  1  0
 21 22  2  0
 21 23  1  0
 20 24  1  0
 24 25  2  0
  9  5  1  0
 25 11  1  0
 24 14  1  0
  1 26  1  0
  1 27  1  0
  1 28  1  0
  3 29  1  0
  3 30  1  0
  3 31  1  0
  4 32  1  0
  4 33  1  0
  6 34  1  0
 10 35  1  0
 10 36  1  0
 12 37  1  0
 13 38  1  0
 15 39  1  0
 18 40  1  0
 25 41  1  0
M  CHG  3   6   1  18  -1  23  -1
M  END
>  <UniqueID>  (28) 
28

>  <SMILES>  (28) 
CN(C)Cc1[nH+]nnn1Cc1ccc2cc(C([NH-])=O)n(C(=O)[O-])c2c1

>  <Energy>  (28) 
119.36502303801286

>  <Genealogy>  (28) 
CN(C)Cc1[nH+]nnn1Cc1ccc2cc(C([NH-])=O)n(C(=O)[O-])c2c1 (protonated)
CN(C)Cc1[nH+]nnn1Cc1ccc2cc(C([NH-])=O)n(C(=O)[O-])c2c1 (3D coordinates assigned)
CN(C)Cc1[nH+]nnn1Cc1ccc2cc(C([NH-])=O)n(C(=O)[O-])c2c1 (optimized conformer: 119.36502303801286 kcal/mol)

>  <smiles>  (28) 
CN(C)Cc1nnnn1Cc1ccc2cc(C(N)=O)n(C(=O)O)c2c1

>  <score_type>  (28) 
oracle

>  <origin>  (28) 
adg

>  <m_score__min__energy>  (28) 
-12.050000000000001

>  <m_primary>  (28) 
energy

$$$$
28:0
     RDKit          3D

 99105  0  0  0  0  0  0  0  0999 V2000
    4.8650   11.4740  -32.8850 C   0  0  0  0  0  0  0  0  0  0  0  0
    4.5110   12.3170  -31.7400 N   0  0  0  0  0  0  0  0  0  0  0  0
    3.0870   12.1650  -31.4050 C   0  0  2  0  0  0  0  0  0  0  0  0
    2.1730   12.8570  -32.4150 C   0  0  0  0  0  0  0  0  0  0  0  0
    1.6240   13.7710  -31.2990 C   0  0  2  0  0  0  0  0  0  0  0  0
    0.1340   13.4460  -31.0010 C   0  0  0  0  0  0  0  0  0  0  0  0
   -0.8600   14.4510  -31.6110 C   0  0  0  0  0  0  0  0  0  0  0  0
   -0.5650   14.6450  -33.0740 C   0  0  0  0  0  0  0  0  0  0  0  0
   -0.3560   13.5250  -33.9170 C   0  0  0  0  0  0  0  0  0  0  0  0
   -0.0000   13.7010  -35.2630 C   0  0  0  0  0  0  0  0  0  0  0  0
    0.1490   15.0030  -35.7340 C   0  0  0  0  0  0  0  0  0  0  0  0
    0.5190   15.4470  -36.9820 C   0  0  0  0  0  0  0  0  0  0  0  0
    0.5590   16.8320  -36.8800 C   0  0  0  0  0  0  0  0  0  0  0  0
    1.0450   17.7010  -37.9650 C   0  0  0  0  0  0  0  0  0  0  0  0
    0.6410   19.0670  -38.0320 N   0  0  0  0  0  0  0  0  0  0  0  0
    1.8620   17.2490  -38.8090 O   0  0  0  0  0  0  0  0  0  0  0  0
    0.2100   17.2410  -35.6270 N   0  0  0  0  0  0  0  0  0  0  0  0
    0.0550   18.5990  -35.1670 C   0  0  0  0  0  0  0  0  0  0  0  0
   -1.0590   18.9880  -34.7180 O   0  0  0  0  0  0  0  0  0  0  0  0
    1.1490   19.4780  -35.2000 O   0  0  0  0  0  0  0  0  0  0  0  0
    1.1300   20.8820  -34.9050 C   0  0  0  0  0  0  0  0  0  0  0  0
    0.6110   21.1410  -33.4760 C   0  0  0  0  0  0  0  0  0  0  0  0
    0.2740   21.6400  -35.9370 C   0  0  0  0  0  0  0  0  0  0  0  0
    2.5810   21.3750  -34.9970 C   0  0  0  0  0  0  0  0  0  0  0  0
   -0.0350   16.1010  -34.9320 C   0  0  0  0  0  0  0  0  0  0  0  0
   -0.4060   15.9510  -33.5880 C   0  0  0  0  0  0  0  0  0  0  0  0
    1.8640   15.2850  -31.5810 C   0  0  0  0  0  0  0  0  0  0  0  0
    1.1100   16.1610  -30.6480 N   0  0  0  0  0  0  0  0  0  0  0  0
    1.4700   15.8920  -29.2320 C   0  0  0  0  0  0  0  0  0  0  0  0
    0.9590   16.9870  -28.2640 C   0  0  0  0  0  0  0  0  0  0  0  0
   -0.1820   17.8040  -28.8900 C   0  0  0  0  0  0  0  0  0  0  0  0
   -0.6810   18.8390  -27.9200 C   0  0  0  0  0  0  0  0  0  0  0  0
   -0.6770   20.1630  -28.1710 N   0  0  0  0  0  0  0  0  0  0  0  0
   -1.2170   20.6530  -27.0360 C   0  0  0  0  0  0  0  0  0  0  0  0
   -1.4060   22.0920  -26.7700 C   0  0  0  0  0  0  0  0  0  0  0  0
   -2.3410   22.8350  -27.5100 C   0  0  0  0  0  0  0  0  0  0  0  0
   -2.5410   24.1920  -27.2410 C   0  0  0  0  0  0  0  0  0  0  0  0
   -1.8010   24.8330  -26.2330 C   0  0  0  0  0  0  0  0  0  0  0  0
   -1.9980   26.1850  -25.9100 O   0  0  0  0  0  0  0  0  0  0  0  0
   -1.0540   27.0190  -25.2940 C   0  0  0  0  0  0  0  0  0  0  0  0
   -0.6730   26.7490  -23.9730 C   0  0  0  0  0  0  0  0  0  0  0  0
    0.2730   27.5550  -23.3290 C   0  0  0  0  0  0  0  0  0  0  0  0
    0.8570   28.6270  -24.0090 C   0  0  0  0  0  0  0  0  0  0  0  0
    0.5030   28.8890  -25.3370 C   0  0  0  0  0  0  0  0  0  0  0  0
   -0.4470   28.0870  -25.9800 C   0  0  0  0  0  0  0  0  0  0  0  0
   -0.8750   24.0920  -25.4900 C   0  0  0  0  0  0  0  0  0  0  0  0
   -0.6760   22.7330  -25.7540 C   0  0  0  0  0  0  0  0  0  0  0  0
   -1.5370   19.6820  -26.1580 N   0  0  0  0  0  0  0  0  0  0  0  0
   -1.1960   18.5760  -26.7450 O   0  0  0  0  0  0  0  0  0  0  0  0
    0.2550   18.4400  -30.2340 C   0  0  0  0  0  0  0  0  0  0  0  0
    1.3120   17.5910  -30.9570 C   0  0  0  0  0  0  0  0  0  0  0  0
    2.5870   13.1030  -30.3000 C   0  0  0  0  0  0  0  0  0  0  0  0
    5.2674   10.5158  -32.5244 H   0  0  0  0  0  0  0  0  0  0  0  0
    3.9686   11.2889  -33.4951 H   0  0  0  0  0  0  0  0  0  0  0  0
    5.6248   11.9844  -33.4951 H   0  0  0  0  0  0  0  0  0  0  0  0
    5.1060   12.0320  -30.9300 H   0  0  0  0  0  0  0  0  0  0  0  0
    3.0461   11.0770  -31.2484 H   0  0  0  0  0  0  0  0  0  0  0  0
    2.7096   13.3940  -33.2110 H   0  0  0  0  0  0  0  0  0  0  0  0
    1.4849   12.2659  -33.0372 H   0  0  0  0  0  0  0  0  0  0  0  0
   -0.0902   12.4483  -31.4063 H   0  0  0  0  0  0  0  0  0  0  0  0
    0.0091   13.4974  -29.9093 H   0  0  0  0  0  0  0  0  0  0  0  0
   -1.8841   14.0669  -31.4939 H   0  0  0  0  0  0  0  0  0  0  0  0
   -0.7613   15.4159  -31.0922 H   0  0  0  0  0  0  0  0  0  0  0  0
   -0.4739   12.5088  -33.5127 H   0  0  0  0  0  0  0  0  0  0  0  0
    0.1565   12.8370  -35.9256 H   0  0  0  0  0  0  0  0  0  0  0  0
    0.7367   14.8363  -37.8706 H   0  0  0  0  0  0  0  0  0  0  0  0
    0.9860   19.7620  -37.3310 H   0  0  0  0  0  0  0  0  0  0  0  0
    1.3474   20.7735  -32.7462 H   0  0  0  0  0  0  0  0  0  0  0  0
    0.4587   22.2208  -33.3313 H   0  0  0  0  0  0  0  0  0  0  0  0
   -0.3434   20.6135  -33.3313 H   0  0  0  0  0  0  0  0  0  0  0  0
   -0.4500   22.2811  -35.4128 H   0  0  0  0  0  0  0  0  0  0  0  0
    0.9258   22.2625  -36.5676 H   0  0  0  0  0  0  0  0  0  0  0  0
   -0.2651   20.9177  -36.5676 H   0  0  0  0  0  0  0  0  0  0  0  0
    2.9864   21.5127  -33.9837 H   0  0  0  0  0  0  0  0  0  0  0  0
    3.1871   20.6323  -35.5366 H   0  0  0  0  0  0  0  0  0  0  0  0
    2.6092   22.3331  -35.5366 H   0  0  0  0  0  0  0  0  0  0  0  0
   -0.5695   16.8308  -32.9483 H   0  0  0  0  0  0  0  0  0  0  0  0
    2.9380   15.4981  -31.4756 H   0  0  0  0  0  0  0  0  0  0  0  0
    1.5093   15.4967  -32.6005 H   0  0  0  0  0  0  0  0  0  0  0  0
    1.0314   14.9280  -28.9350 H   0  0  0  0  0  0  0  0  0  0  0  0
    2.5680   15.8785  -29.1665 H   0  0  0  0  0  0  0  0  0  0  0  0
    0.5927   16.5081  -27.3439 H   0  0  0  0  0  0  0  0  0  0  0  0
    1.7927   17.6702  -28.0446 H   0  0  0  0  0  0  0  0  0  0  0  0
   -1.0155   17.1217  -29.1129 H   0  0  0  0  0  0  0  0  0  0  0  0
   -2.9199   22.3453  -28.3069 H   0  0  0  0  0  0  0  0  0  0  0  0
   -3.2818   24.7613  -27.8216 H   0  0  0  0  0  0  0  0  0  0  0  0
   -1.1203   25.8980  -23.4384 H   0  0  0  0  0  0  0  0  0  0  0  0
    0.5568   27.3445  -22.2873 H   0  0  0  0  0  0  0  0  0  0  0  0
    1.5949   29.2648  -23.5003 H   0  0  0  0  0  0  0  0  0  0  0  0
    0.9715   29.7257  -25.8760 H   0  0  0  0  0  0  0  0  0  0  0  0
   -0.7201   28.2925  -27.0256 H   0  0  0  0  0  0  0  0  0  0  0  0
   -0.2988   24.5825  -24.6916 H   0  0  0  0  0  0  0  0  0  0  0  0
    0.0559   22.1626  -25.1633 H   0  0  0  0  0  0  0  0  0  0  0  0
   -0.6271   18.5376  -30.8839 H   0  0  0  0  0  0  0  0  0  0  0  0
    0.6998   19.4221  -30.0159 H   0  0  0  0  0  0  0  0  0  0  0  0
    1.2227   17.7451  -32.0425 H   0  0  0  0  0  0  0  0  0  0  0  0
    2.3131   17.8955  -30.6177 H   0  0  0  0  0  0  0  0  0  0  0  0
    3.3587   13.7778  -29.9010 H   0  0  0  0  0  0  0  0  0  0  0  0
    2.2082   12.6930  -29.3521 H   0  0  0  0  0  0  0  0  0  0  0  0
  1  2  1  0
  2  3  1  0
  3  4  1  0
  4  5  1  0
  5  6  1  1
  6  7  1  0
  7  8  1  0
  8  9  2  0
  9 10  1  0
 10 11  2  0
 11 12  1  0
 12 13  2  0
 13 14  1  0
 14 15  1  0
 14 16  2  0
 13 17  1  0
 17 18  1  0
 18 19  2  0
 18 20  1  0
 20 21  1  0
 21 22  1  0
 21 23  1  0
 21 24  1  0
 17 25  1  0
 25 26  2  0
  5 27  1  0
 27 28  1  0
 28 29  1  0
 29 30  1  0
 30 31  1  0
 31 32  1  0
 32 33  2  0
 33 34  1  0
 34 35  1  0
 35 36  2  0
 36 37  1  0
 37 38  2  0
 38 39  1  0
 39 40  1  0
 40 41  2  0
 41 42  1  0
 42 43  2  0
 43 44  1  0
 44 45  2  0
 38 46  1  0
 46 47  2  0
 34 48  2  0
 48 49  1  0
 31 50  1  0
 50 51  1  0
  5 52  1  0
 52  3  1  0
 26  8  1  0
 51 28  1  0
 25 11  1  0
 49 32  1  0
 47 35  1  0
 45 40  1  0
  1 53  1  0
  1 54  1  0
  1 55  1  0
  2 56  1  0
  3 57  1  1
  4 58  1  0
  4 59  1  0
  6 60  1  0
  6 61  1  0
  7 62  1  0
  7 63  1  0
  9 64  1  0
 10 65  1  0
 12 66  1  0
 15 67  1  0
 22 68  1  0
 22 69  1  0
 22 70  1  0
 23 71  1  0
 23 72  1  0
 23 73  1  0
 24 74  1  0
 24 75  1  0
 24 76  1  0
 26 77  1  0
 27 78  1  0
 27 79  1  0
 29 80  1  0
 29 81  1  0
 30 82  1  0
 30 83  1  0
 31 84  1  0
 36 85  1  0
 37 86  1  0
 41 87  1  0
 42 88  1  0
 43 89  1  0
 44 90  1  0
 45 91  1  0
 46 92  1  0
 47 93  1  0
 50 94  1  0
 50 95  1  0
 51 96  1  0
 51 97  1  0
 52 98  1  0
 52 99  1  0
M  CHG  1  15  -1
M  END
>  <UniqueID>  (29) 
29

>  <SMILES>  (29) 
CNC1CC(CCc2ccc3cc(C([NH-])=O)n(C(=O)OC(C)(C)C)c3c2)(CN2CCC(c3nc(-c4ccc(Oc5ccccc5)cc4)no3)CC2)C1

>  <Energy>  (29) 
249.0109533869444

>  <Genealogy>  (29) 
CNC1CC(CCc2ccc3cc(C([NH-])=O)n(C(=O)OC(C)(C)C)c3c2)(CN2CCC(c3nc(-c4ccc(Oc5ccccc5)cc4)no3)CC2)C1 (protonated)
CNC1CC(CCc2ccc3cc(C([NH-])=O)n(C(=O)OC(C)(C)C)c3c2)(CN2CCC(c3nc(-c4ccc(Oc5ccccc5)cc4)no3)CC2)C1 (3D coordinates assigned)
CNC1CC(CCc2ccc3cc(C([NH-])=O)n(C(=O)OC(C)(C)C)c3c2)(CN2CCC(c3nc(-c4ccc(Oc5ccccc5)cc4)no3)CC2)C1 (nonaromatic ring conformer: 249.0109533869444 kcal/mol)

>  <smiles>  (29) 
CNC1CC(CCc2ccc3cc(C(N)=O)n(C(=O)OC(C)(C)C)c3c2)(CN2CCC(c3nc(-c4ccc(Oc5ccccc5)cc4)no3)CC2)C1

>  <score_type>  (29) 
oracle

>  <origin>  (29) 
adg

>  <m_score__min__energy>  (29) 
-13.119999999999999

>  <m_primary>  (29) 
energy

$$$$
29:0
     RDKit          3D

 35 36  0  0  0  0  0  0  0  0999 V2000
   -8.9250   19.6040  -32.5620 C   0  0  0  0  0  0  0  0  0  0  0  0
   -7.7860   20.1540  -31.8110 N   0  0  0  0  0  0  0  0  0  0  0  0
   -7.7180   21.6160  -31.9570 C   0  0  0  0  0  0  0  0  0  0  0  0
   -6.5490   19.5450  -32.2590 C   0  0  0  0  0  0  0  0  0  0  0  0
   -6.2420   18.4220  -31.8820 O   0  0  0  0  0  0  0  0  0  0  0  0
   -5.6060   20.3010  -33.1550 C   0  0  0  0  0  0  0  0  0  0  0  0
   -4.3990   20.7430  -32.3770 C   0  0  0  0  0  0  0  0  0  0  0  0
   -3.2410   19.9260  -32.3320 C   0  0  0  0  0  0  0  0  0  0  0  0
   -2.0960   20.3460  -31.6350 C   0  0  0  0  0  0  0  0  0  0  0  0
   -2.1340   21.5870  -31.0070 C   0  0  0  0  0  0  0  0  0  0  0  0
   -1.1760   22.2250  -30.2530 C   0  0  0  0  0  0  0  0  0  0  0  0
   -1.7500   23.4360  -29.8740 C   0  0  0  0  0  0  0  0  0  0  0  0
   -1.0250   24.4800  -29.1190 C   0  0  0  0  0  0  0  0  0  0  0  0
   -1.6060   25.7720  -28.9600 N   0  0  0  0  0  0  0  0  0  0  0  0
    0.0850   24.2310  -28.5800 O   0  0  0  0  0  0  0  0  0  0  0  0
   -3.0180   23.5410  -30.3680 N   0  0  0  0  0  0  0  0  0  0  0  0
   -3.9640   24.5980  -30.1440 C   0  0  0  0  0  0  0  0  0  0  0  0
   -3.8840   25.6730  -30.7960 O   0  0  0  0  0  0  0  0  0  0  0  0
   -4.9920   24.4380  -29.2240 O   0  0  0  0  0  0  0  0  0  0  0  0
   -3.2360   22.4000  -31.0610 C   0  0  0  0  0  0  0  0  0  0  0  0
   -4.3960   22.0000  -31.7340 C   0  0  0  0  0  0  0  0  0  0  0  0
   -9.6857   19.2367  -31.8574 H   0  0  0  0  0  0  0  0  0  0  0  0
   -9.3611   20.3908  -33.1951 H   0  0  0  0  0  0  0  0  0  0  0  0
   -8.5800   18.7732  -33.1951 H   0  0  0  0  0  0  0  0  0  0  0  0
   -7.9360   19.9390  -30.7960 H   0  0  0  0  0  0  0  0  0  0  0  0
   -7.6963   22.0833  -30.9614 H   0  0  0  0  0  0  0  0  0  0  0  0
   -6.8063   21.8873  -32.5094 H   0  0  0  0  0  0  0  0  0  0  0  0
   -8.6006   21.9708  -32.5094 H   0  0  0  0  0  0  0  0  0  0  0  0
   -5.2875   19.6487  -33.9815 H   0  0  0  0  0  0  0  0  0  0  0  0
   -6.1212   21.1867  -33.5551 H   0  0  0  0  0  0  0  0  0  0  0  0
   -3.2392   18.9543  -32.8476 H   0  0  0  0  0  0  0  0  0  0  0  0
   -1.1973   19.7135  -31.5872 H   0  0  0  0  0  0  0  0  0  0  0  0
   -0.1702   21.8567  -30.0027 H   0  0  0  0  0  0  0  0  0  0  0  0
   -2.6420   25.9020  -28.9820 H   0  0  0  0  0  0  0  0  0  0  0  0
   -5.2837   22.6490  -31.7614 H   0  0  0  0  0  0  0  0  0  0  0  0
  1  2  1  0
  2  3  1  0
  2  4  1  0
  4  5  2  0
  4  6  1  0
  6  7  1  0
  7  8  2  0
  8  9  1  0
  9 10  2  0
 10 11  1  0
 11 12  2  0
 12 13  1  0
 13 14  1  0
 13 15  2  0
 12 16  1  0
 16 17  1  0
 17 18  2  0
 17 19  1  0
 16 20  1  0
 20 21  2  0
 21  7  1  0
 20 10  1  0
  1 22  1  0
  1 23  1  0
  1 24  1  0
  2 25  1  0
  3 26  1  0
  3 27  1  0
  3 28  1  0
  6 29  1  0
  6 30  1  0
  8 31  1  0
  9 32  1  0
 11 33  1  0
 14 34  1  0
 21 35  1  0
M  CHG  3   2   1  14  -1  19  -1
M  END
>  <UniqueID>  (30) 
30

>  <SMILES>  (30) 
C[NH+](C)C(=O)Cc1ccc2cc(C([NH-])=O)n(C(=O)[O-])c2c1

>  <Energy>  (30) 
71.58923430883489

>  <Genealogy>  (30) 
C[NH+](C)C(=O)Cc1ccc2cc(C([NH-])=O)n(C(=O)[O-])c2c1 (protonated)
C[NH+](C)C(=O)Cc1ccc2cc(C([NH-])=O)n(C(=O)[O-])c2c1 (3D coordinates assigned)
C[NH+](C)C(=O)Cc1ccc2cc(C([NH-])=O)n(C(=O)[O-])c2c1 (optimized conformer: 71.58923430883489 kcal/mol)

>  <smiles>  (30) 
CN(C)C(=O)Cc1ccc2cc(C(N)=O)n(C(=O)O)c2c1

>  <score_type>  (30) 
oracle

>  <origin>  (30) 
adg

>  <m_score__min__energy>  (30) 
-10.859999999999999

>  <m_primary>  (30) 
energy

$$$$
30:0
     RDKit          3D

 35 36  0  0  0  0  0  0  0  0999 V2000
   -6.4270   17.3690  -33.8100 C   0  0  0  0  0  0  0  0  0  0  0  0
   -6.6440   18.4550  -33.3360 C   0  0  0  0  0  0  0  0  0  0  0  0
   -6.9020   19.7530  -32.7690 C   0  0  0  0  0  0  0  0  0  0  0  0
   -8.2350   20.1810  -32.5680 C   0  0  0  0  0  0  0  0  0  0  0  0
   -8.5010   21.4390  -32.0030 C   0  0  0  0  0  0  0  0  0  0  0  0
   -7.4160   22.2440  -31.6620 C   0  0  0  0  0  0  0  0  0  0  0  0
   -7.3890   23.4850  -31.0720 C   0  0  0  0  0  0  0  0  0  0  0  0
   -6.0400   23.8060  -30.9510 C   0  0  0  0  0  0  0  0  0  0  0  0
   -5.5550   25.0950  -30.4160 C   0  0  0  0  0  0  0  0  0  0  0  0
   -4.2090   25.5220  -30.6210 N   0  0  0  0  0  0  0  0  0  0  0  0
   -6.3600   25.8560  -29.8150 O   0  0  0  0  0  0  0  0  0  0  0  0
   -5.2600   22.7980  -31.4340 N   0  0  0  0  0  0  0  0  0  0  0  0
   -3.8270   22.7050  -31.3730 C   0  0  0  0  0  0  0  0  0  0  0  0
   -3.1860   22.1660  -32.3160 O   0  0  0  0  0  0  0  0  0  0  0  0
   -3.1470   23.2180  -30.2640 O   0  0  0  0  0  0  0  0  0  0  0  0
   -1.7400   23.0870  -30.0940 C   0  0  0  0  0  0  0  0  0  0  0  0
   -1.1980   24.2960  -29.3330 C   0  0  0  0  0  0  0  0  0  0  0  0
   -2.2380   25.2110  -29.0420 O   0  0  0  0  0  0  0  0  0  0  0  0
   -2.8190   24.9150  -27.7910 C   0  0  0  0  0  0  0  0  0  0  0  0
   -6.1180   21.8480  -31.8690 C   0  0  0  0  0  0  0  0  0  0  0  0
   -5.8260   20.5890  -32.4130 C   0  0  0  0  0  0  0  0  0  0  0  0
   -6.2289   16.3773  -34.2428 H   0  0  0  0  0  0  0  0  0  0  0  0
   -9.0690   19.5242  -32.8561 H   0  0  0  0  0  0  0  0  0  0  0  0
   -9.5338   21.7782  -31.8349 H   0  0  0  0  0  0  0  0  0  0  0  0
   -8.2502   24.0948  -30.7615 H   0  0  0  0  0  0  0  0  0  0  0  0
   -3.5630   24.9940  -31.2480 H   0  0  0  0  0  0  0  0  0  0  0  0
   -3.8740   26.4180  -30.2020 H   0  0  0  0  0  0  0  0  0  0  0  0
   -1.5242   22.1704  -29.5254 H   0  0  0  0  0  0  0  0  0  0  0  0
   -1.2576   23.0319  -31.0810 H   0  0  0  0  0  0  0  0  0  0  0  0
   -0.7425   23.9555  -28.3914 H   0  0  0  0  0  0  0  0  0  0  0  0
   -0.4476   24.8008  -29.9591 H   0  0  0  0  0  0  0  0  0  0  0  0
   -2.1506   25.2555  -26.9865 H   0  0  0  0  0  0  0  0  0  0  0  0
   -3.7874   25.4296  -27.7055 H   0  0  0  0  0  0  0  0  0  0  0  0
   -2.9720   23.8291  -27.7055 H   0  0  0  0  0  0  0  0  0  0  0  0
   -4.7853   20.2634  -32.5577 H   0  0  0  0  0  0  0  0  0  0  0  0
  1  2  3  0
  2  3  1  0
  3  4  2  0
  4  5  1  0
  5  6  2  0
  6  7  1  0
  7  8  2  0
  8  9  1  0
  9 10  1  0
  9 11  2  0
  8 12  1  0
 12 13  1  0
 13 14  2  0
 13 15  1  0
 15 16  1  0
 16 17  1  0
 17 18  1  0
 18 19  1  0
 12 20  1  0
 20 21  2  0
 21  3  1  0
 20  6  1  0
  1 22  1  0
  4 23  1  0
  5 24  1  0
  7 25  1  0
 10 26  1  0
 10 27  1  0
 16 28  1  0
 16 29  1  0
 17 30  1  0
 17 31  1  0
 19 32  1  0
 19 33  1  0
 19 34  1  0
 21 35  1  0
M  END
>  <UniqueID>  (31) 
31

>  <SMILES>  (31) 
C#Cc1ccc2cc(C(N)=O)n(C(=O)OCCOC)c2c1

>  <Energy>  (31) 
69.82327446276865

>  <Genealogy>  (31) 
C#Cc1ccc2cc(C(N)=O)n(C(=O)OCCOC)c2c1 (3D coordinates assigned)
C#Cc1ccc2cc(C(N)=O)n(C(=O)OCCOC)c2c1 (optimized conformer: 69.82327446276865 kcal/mol)

>  <smiles>  (31) 
C#Cc1ccc2cc(C(N)=O)n(C(=O)OCCOC)c2c1

>  <score_type>  (31) 
oracle

>  <origin>  (31) 
adg

>  <m_score__min__energy>  (31) 
-8.9299999999999997

>  <m_primary>  (31) 
energy

$$$$
31:0
     RDKit          3D

 54 56  0  0  0  0  0  0  0  0999 V2000
   -7.4670   23.3990  -32.2730 C   0  0  0  0  0  0  0  0  0  0  0  0
   -8.3680   22.8110  -31.2700 N   0  0  0  0  0  0  0  0  0  0  0  0
   -7.6410   22.4080  -30.0560 C   0  0  0  0  0  0  0  0  0  0  0  0
   -9.2640   21.7610  -31.8110 C   0  0  0  0  0  0  0  0  0  0  0  0
   -9.0080   20.3250  -31.2980 C   0  0  0  0  0  0  0  0  0  0  0  0
   -7.8520   19.6360  -31.9770 C   0  0  0  0  0  0  0  0  0  0  0  0
   -7.9810   18.2940  -32.4150 C   0  0  0  0  0  0  0  0  0  0  0  0
   -6.9060   17.6370  -33.0370 C   0  0  0  0  0  0  0  0  0  0  0  0
   -5.7210   18.3460  -33.2110 C   0  0  0  0  0  0  0  0  0  0  0  0
   -4.5200   17.9410  -33.7450 C   0  0  0  0  0  0  0  0  0  0  0  0
   -3.6800   19.0460  -33.6430 C   0  0  0  0  0  0  0  0  0  0  0  0
   -2.2930   19.0640  -34.1480 C   0  0  0  0  0  0  0  0  0  0  0  0
   -1.6500   20.2880  -34.5060 N   0  0  0  0  0  0  0  0  0  0  0  0
   -1.6830   17.9740  -34.3180 O   0  0  0  0  0  0  0  0  0  0  0  0
   -4.3300   20.0920  -33.0600 N   0  0  0  0  0  0  0  0  0  0  0  0
   -3.7680   21.3550  -32.6670 C   0  0  0  0  0  0  0  0  0  0  0  0
   -3.7640   22.3230  -33.4760 O   0  0  0  0  0  0  0  0  0  0  0  0
   -3.2360   21.5060  -31.3820 O   0  0  0  0  0  0  0  0  0  0  0  0
   -1.8390   21.5890  -31.1180 C   0  0  0  0  0  0  0  0  0  0  0  0
   -1.5490   22.7230  -30.1840 C   0  0  0  0  0  0  0  0  0  0  0  0
   -0.3880   22.9340  -29.6100 O   0  0  0  0  0  0  0  0  0  0  0  0
   -0.5370   24.0180  -28.8830 C   0  0  0  0  0  0  0  0  0  0  0  0
    0.3800   24.5220  -28.1840 O   0  0  0  0  0  0  0  0  0  0  0  0
   -1.7490   24.5180  -28.9640 O   0  0  0  0  0  0  0  0  0  0  0  0
   -2.4110   23.7300  -29.7800 C   0  0  0  0  0  0  0  0  0  0  0  0
   -3.8560   23.9110  -30.1490 C   0  0  2  0  0  0  0  0  0  0  0  0
   -4.0650   25.2530  -30.4990 O   0  0  0  0  0  0  0  0  0  0  0  0
   -4.7630   23.5310  -28.9710 C   0  0  0  0  0  0  0  0  0  0  0  0
   -4.6290   24.4530  -27.9230 O   0  0  0  0  0  0  0  0  0  0  0  0
   -5.5810   19.6470  -32.8010 C   0  0  0  0  0  0  0  0  0  0  0  0
   -6.6270   20.3170  -32.1550 C   0  0  0  0  0  0  0  0  0  0  0  0
   -6.6502   23.9321  -31.7644 H   0  0  0  0  0  0  0  0  0  0  0  0
   -7.0477   22.6002  -32.9023 H   0  0  0  0  0  0  0  0  0  0  0  0
   -8.0294   24.1045  -32.9023 H   0  0  0  0  0  0  0  0  0  0  0  0
   -8.2082   22.7224  -29.1675 H   0  0  0  0  0  0  0  0  0  0  0  0
   -7.5211   21.3146  -30.0464 H   0  0  0  0  0  0  0  0  0  0  0  0
   -6.6502   22.8857  -30.0464 H   0  0  0  0  0  0  0  0  0  0  0  0
  -10.2976   22.0328  -31.5504 H   0  0  0  0  0  0  0  0  0  0  0  0
   -9.0674   21.7302  -32.8928 H   0  0  0  0  0  0  0  0  0  0  0  0
   -8.7981   20.3739  -30.2193 H   0  0  0  0  0  0  0  0  0  0  0  0
   -9.9100   19.7374  -31.5239 H   0  0  0  0  0  0  0  0  0  0  0  0
   -8.9321   17.7617  -32.2665 H   0  0  0  0  0  0  0  0  0  0  0  0
   -6.9981   16.5946  -33.3759 H   0  0  0  0  0  0  0  0  0  0  0  0
   -4.2754   16.9537  -34.1637 H   0  0  0  0  0  0  0  0  0  0  0  0
   -2.1800   21.1870  -34.5360 H   0  0  0  0  0  0  0  0  0  0  0  0
   -0.6550   20.2840  -34.8210 H   0  0  0  0  0  0  0  0  0  0  0  0
   -1.5003   20.6476  -30.6608 H   0  0  0  0  0  0  0  0  0  0  0  0
   -1.3073   21.7629  -32.0651 H   0  0  0  0  0  0  0  0  0  0  0  0
   -4.1025   23.2565  -30.9981 H   0  0  0  0  0  0  0  0  0  0  0  0
   -4.4740   25.6960  -29.7100 H   0  0  0  0  0  0  0  0  0  0  0  0
   -5.8093   23.5199  -29.3102 H   0  0  0  0  0  0  0  0  0  0  0  0
   -4.4689   22.5360  -28.6056 H   0  0  0  0  0  0  0  0  0  0  0  0
   -3.9360   25.1070  -28.2030 H   0  0  0  0  0  0  0  0  0  0  0  0
   -6.4982   21.3484  -31.7949 H   0  0  0  0  0  0  0  0  0  0  0  0
  1  2  1  0
  2  3  1  0
  2  4  1  0
  4  5  1  0
  5  6  1  0
  6  7  2  0
  7  8  1  0
  8  9  2  0
  9 10  1  0
 10 11  2  0
 11 12  1  0
 12 13  1  0
 12 14  2  0
 11 15  1  0
 15 16  1  0
 16 17  2  0
 16 18  1  0
 18 19  1  0
 19 20  1  0
 20 21  1  0
 21 22  1  0
 22 23  2  0
 22 24  1  0
 24 25  1  0
 25 26  1  0
 26 27  1  0
 26 28  1  0
 28 29  1  0
 15 30  1  0
 30 31  2  0
 31  6  1  0
 30  9  1  0
 25 20  2  0
  1 32  1  0
  1 33  1  0
  1 34  1  0
  3 35  1  0
  3 36  1  0
  3 37  1  0
  4 38  1  0
  4 39  1  0
  5 40  1  0
  5 41  1  0
  7 42  1  0
  8 43  1  0
 10 44  1  0
 13 45  1  0
 13 46  1  0
 19 47  1  0
 19 48  1  0
 26 49  1  6
 27 50  1  0
 28 51  1  0
 28 52  1  0
 29 53  1  0
 31 54  1  0
M  END
>  <UniqueID>  (32) 
32

>  <SMILES>  (32) 
CN(C)CCc1ccc2cc(C(N)=O)n(C(=O)OCc3oc(=O)oc3[C@H](O)CO)c2c1

>  <Energy>  (32) 
125.161611241701

>  <Genealogy>  (32) 
CN(C)CCc1ccc2cc(C(N)=O)n(C(=O)OCc3oc(=O)oc3[C@H](O)CO)c2c1 (chirality)
CN(C)CCc1ccc2cc(C(N)=O)n(C(=O)OCc3oc(=O)oc3[C@H](O)CO)c2c1 (3D coordinates assigned)
CN(C)CCc1ccc2cc(C(N)=O)n(C(=O)OCc3oc(=O)oc3[C@H](O)CO)c2c1 (optimized conformer: 125.161611241701 kcal/mol)

>  <smiles>  (32) 
CN(C)CCc1ccc2cc(C(N)=O)n(C(=O)OCc3oc(=O)oc3C(O)CO)c2c1

>  <score_type>  (32) 
oracle

>  <origin>  (32) 
adg

>  <m_score__min__energy>  (32) 
-8.9499999999999993

>  <m_primary>  (32) 
energy

$$$$
32:0
     RDKit          3D

 45 46  0  0  0  0  0  0  0  0999 V2000
   -0.0820   24.5450  -27.6400 C   0  0  0  0  0  0  0  0  0  0  0  0
   -0.6690   24.0320  -28.9530 C   0  0  0  0  0  0  0  0  0  0  0  0
   -2.0000   24.6090  -29.1840 N   0  0  0  0  0  0  0  0  0  0  0  0
   -2.9900   24.0640  -28.2460 C   0  0  0  0  0  0  0  0  0  0  0  0
   -3.0870   22.5740  -28.4120 C   0  0  0  0  0  0  0  0  0  0  0  0
   -3.5380   21.9530  -29.5130 C   0  0  0  0  0  0  0  0  0  0  0  0
   -3.9780   22.6110  -30.7630 C   0  0  0  0  0  0  0  0  0  0  0  0
   -3.1040   22.9280  -31.6140 O   0  0  0  0  0  0  0  0  0  0  0  0
   -5.3480   22.9620  -31.0090 N   0  0  0  0  0  0  0  0  0  0  0  0
   -5.9440   24.1730  -30.8210 C   0  0  0  0  0  0  0  0  0  0  0  0
   -5.2540   25.4290  -30.4560 C   0  0  0  0  0  0  0  0  0  0  0  0
   -3.8980   25.6570  -30.8270 N   0  0  0  0  0  0  0  0  0  0  0  0
   -5.8810   26.3260  -29.8320 O   0  0  0  0  0  0  0  0  0  0  0  0
   -7.3090   24.0910  -31.0910 C   0  0  0  0  0  0  0  0  0  0  0  0
   -7.5330   22.7810  -31.4480 C   0  0  0  0  0  0  0  0  0  0  0  0
   -8.7050   22.1490  -31.8540 C   0  0  0  0  0  0  0  0  0  0  0  0
   -8.6320   20.7880  -32.1990 C   0  0  0  0  0  0  0  0  0  0  0  0
   -7.4030   20.0860  -32.1140 C   0  0  0  0  0  0  0  0  0  0  0  0
   -7.3170   18.6500  -32.5520 C   0  0  0  0  0  0  0  0  0  0  0  0
   -6.0890   18.0140  -31.9770 C   0  0  0  0  0  0  0  0  0  0  0  0
   -6.1450   17.4480  -30.8510 O   0  0  0  0  0  0  0  0  0  0  0  0
   -4.8890   18.0630  -32.6920 O   0  0  0  0  0  0  0  0  0  0  0  0
   -4.8150   18.5340  -34.0310 C   0  0  0  0  0  0  0  0  0  0  0  0
   -6.2390   20.7590  -31.6870 C   0  0  0  0  0  0  0  0  0  0  0  0
   -6.3370   22.1170  -31.3740 C   0  0  0  0  0  0  0  0  0  0  0  0
   -0.6125   24.0814  -26.7953 H   0  0  0  0  0  0  0  0  0  0  0  0
    0.9857   24.2853  -27.5894 H   0  0  0  0  0  0  0  0  0  0  0  0
   -0.1963   25.6379  -27.5894 H   0  0  0  0  0  0  0  0  0  0  0  0
   -0.0034   24.3151  -29.7817 H   0  0  0  0  0  0  0  0  0  0  0  0
   -0.7617   22.9374  -28.8966 H   0  0  0  0  0  0  0  0  0  0  0  0
   -2.3010   24.3400  -30.1510 H   0  0  0  0  0  0  0  0  0  0  0  0
   -2.6828   24.2968  -27.2157 H   0  0  0  0  0  0  0  0  0  0  0  0
   -3.9714   24.5157  -28.4530 H   0  0  0  0  0  0  0  0  0  0  0  0
   -2.7645   21.9455  -27.5688 H   0  0  0  0  0  0  0  0  0  0  0  0
   -3.5848   20.8544  -29.4833 H   0  0  0  0  0  0  0  0  0  0  0  0
   -3.2230   24.8640  -30.9060 H   0  0  0  0  0  0  0  0  0  0  0  0
   -8.0501   24.9017  -31.0313 H   0  0  0  0  0  0  0  0  0  0  0  0
   -9.6576   22.6968  -31.9033 H   0  0  0  0  0  0  0  0  0  0  0  0
   -9.5370   20.2627  -32.5381 H   0  0  0  0  0  0  0  0  0  0  0  0
   -8.2072   18.1076  -32.2007 H   0  0  0  0  0  0  0  0  0  0  0  0
   -7.2657   18.6089  -33.6500 H   0  0  0  0  0  0  0  0  0  0  0  0
   -4.6443   19.6207  -34.0285 H   0  0  0  0  0  0  0  0  0  0  0  0
   -3.9845   18.0335  -34.5504 H   0  0  0  0  0  0  0  0  0  0  0  0
   -5.7590   18.3123  -34.5504 H   0  0  0  0  0  0  0  0  0  0  0  0
   -5.2792   20.2283  -31.6027 H   0  0  0  0  0  0  0  0  0  0  0  0
  1  2  1  0
  2  3  1  0
  3  4  1  0
  4  5  1  0
  5  6  2  3
  6  7  1  0
  7  8  2  0
  7  9  1  0
  9 10  1  0
 10 11  1  0
 11 12  1  0
 11 13  2  0
 10 14  2  0
 14 15  1  0
 15 16  2  0
 16 17  1  0
 17 18  2  0
 18 19  1  0
 19 20  1  0
 20 21  2  0
 20 22  1  0
 22 23  1  0
 18 24  1  0
 24 25  2  0
 25  9  1  0
 25 15  1  0
  1 26  1  0
  1 27  1  0
  1 28  1  0
  2 29  1  0
  2 30  1  0
  3 31  1  0
  4 32  1  0
  4 33  1  0
  5 34  1  0
  6 35  1  0
 12 36  1  0
 14 37  1  0
 16 38  1  0
 17 39  1  0
 19 40  1  0
 19 41  1  0
 23 42  1  0
 23 43  1  0
 23 44  1  0
 24 45  1  0
M  CHG  1  12  -1
M  END
>  <UniqueID>  (33) 
33

>  <SMILES>  (33) 
CCNCC=CC(=O)n1c(C([NH-])=O)cc2ccc(CC(=O)OC)cc21

>  <Energy>  (33) 
76.06674223920024

>  <Genealogy>  (33) 
CCNCC=CC(=O)n1c(C([NH-])=O)cc2ccc(CC(=O)OC)cc21 (protonated)
CCNCC=CC(=O)n1c(C([NH-])=O)cc2ccc(CC(=O)OC)cc21 (3D coordinates assigned)
CCNCC=CC(=O)n1c(C([NH-])=O)cc2ccc(CC(=O)OC)cc21 (optimized conformer: 76.06674223920024 kcal/mol)

>  <smiles>  (33) 
CCNCC=CC(=O)n1c(C(N)=O)cc2ccc(CC(=O)OC)cc21

>  <score_type>  (33) 
oracle

>  <origin>  (33) 
adg

>  <m_score__min__energy>  (33) 
-10.06

>  <m_primary>  (33) 
energy

$$$$
33:0
     RDKit          3D

 59 62  0  0  0  0  0  0  0  0999 V2000
   -4.1460   22.0120  -33.0750 C   0  0  0  0  0  0  0  0  0  0  0  0
   -3.7160   20.6670  -32.6850 N   0  0  0  0  0  0  0  0  0  0  0  0
   -2.6720   20.5250  -31.8190 O   0  0  0  0  0  0  0  0  0  0  0  0
   -2.9740   21.2070  -30.6140 C   0  0  1  0  0  0  0  0  0  0  0  0
   -2.5720   20.4510  -29.3650 C   0  0  0  0  0  0  0  0  0  0  0  0
   -1.2240   21.0460  -28.9810 C   0  0  0  0  0  0  0  0  0  0  0  0
   -0.8920   22.0730  -29.8880 O   0  0  0  0  0  0  0  0  0  0  0  0
   -2.0910   22.4380  -30.5290 C   0  0  0  0  0  0  0  0  0  0  0  0
   -4.1130   19.5230  -33.4710 C   0  0  0  0  0  0  0  0  0  0  0  0
   -3.5560   19.3030  -34.5830 O   0  0  0  0  0  0  0  0  0  0  0  0
   -5.1250   18.6180  -33.0060 N   0  0  0  0  0  0  0  0  0  0  0  0
   -5.0510   17.2640  -32.8950 C   0  0  0  0  0  0  0  0  0  0  0  0
   -3.8420   16.4440  -33.1100 C   0  0  0  0  0  0  0  0  0  0  0  0
   -2.8910   16.7730  -34.1260 N   0  0  0  0  0  0  0  0  0  0  0  0
   -3.6320   15.4480  -32.3660 O   0  0  0  0  0  0  0  0  0  0  0  0
   -6.2830   16.7370  -32.5110 C   0  0  0  0  0  0  0  0  0  0  0  0
   -7.1090   17.8280  -32.3470 C   0  0  0  0  0  0  0  0  0  0  0  0
   -8.4470   17.8910  -31.9700 C   0  0  0  0  0  0  0  0  0  0  0  0
   -9.0420   19.1590  -31.8710 C   0  0  0  0  0  0  0  0  0  0  0  0
   -8.2910   20.3370  -32.1250 C   0  0  0  0  0  0  0  0  0  0  0  0
   -8.9310   21.7000  -31.9540 C   0  0  0  0  0  0  0  0  0  0  0  0
   -7.9720   22.8020  -31.4330 C   0  0  0  0  0  0  0  0  0  0  0  0
   -6.9890   23.2870  -32.5190 C   0  0  0  0  0  0  0  0  0  0  0  0
   -6.0500   24.3640  -31.9580 C   0  0  0  0  0  0  0  0  0  0  0  0
   -5.4030   23.9200  -30.7140 N   0  0  0  0  0  0  0  0  0  0  0  0
   -4.4270   24.7690  -30.0810 C   0  0  0  0  0  0  0  0  0  0  0  0
   -4.2510   25.9490  -30.4860 O   0  0  0  0  0  0  0  0  0  0  0  0
   -3.6670   24.3020  -29.0150 O   0  0  0  0  0  0  0  0  0  0  0  0
   -5.7360   22.6070  -30.1460 C   0  0  0  0  0  0  0  0  0  0  0  0
   -7.2610   22.4260  -30.0970 C   0  0  0  0  0  0  0  0  0  0  0  0
   -6.9460   20.2280  -32.5480 C   0  0  0  0  0  0  0  0  0  0  0  0
   -6.3810   18.9510  -32.6380 C   0  0  0  0  0  0  0  0  0  0  0  0
   -4.3377   22.6116  -32.1730 H   0  0  0  0  0  0  0  0  0  0  0  0
   -3.3561   22.4907  -33.6724 H   0  0  0  0  0  0  0  0  0  0  0  0
   -5.0671   21.9437  -33.6724 H   0  0  0  0  0  0  0  0  0  0  0  0
   -4.0598   21.3802  -30.6453 H   0  0  0  0  0  0  0  0  0  0  0  0
   -3.3085   20.6050  -28.5626 H   0  0  0  0  0  0  0  0  0  0  0  0
   -2.5196   19.3648  -29.5304 H   0  0  0  0  0  0  0  0  0  0  0  0
   -1.2814   21.4592  -27.9632 H   0  0  0  0  0  0  0  0  0  0  0  0
   -0.4528   20.2623  -29.0137 H   0  0  0  0  0  0  0  0  0  0  0  0
   -2.5997   23.2224  -29.9495 H   0  0  0  0  0  0  0  0  0  0  0  0
   -1.8814   22.8268  -31.5364 H   0  0  0  0  0  0  0  0  0  0  0  0
   -2.0740   16.1460  -34.2980 H   0  0  0  0  0  0  0  0  0  0  0  0
   -2.8980   17.7070  -34.5970 H   0  0  0  0  0  0  0  0  0  0  0  0
   -6.5408   15.6771  -32.3692 H   0  0  0  0  0  0  0  0  0  0  0  0
   -9.0202   16.9768  -31.7564 H   0  0  0  0  0  0  0  0  0  0  0  0
  -10.1032   19.2408  -31.5932 H   0  0  0  0  0  0  0  0  0  0  0  0
   -9.3232   22.0200  -32.9306 H   0  0  0  0  0  0  0  0  0  0  0  0
   -9.7154   21.5830  -31.1917 H   0  0  0  0  0  0  0  0  0  0  0  0
   -8.6123   23.6617  -31.1861 H   0  0  0  0  0  0  0  0  0  0  0  0
   -6.3906   22.4340  -32.8715 H   0  0  0  0  0  0  0  0  0  0  0  0
   -7.5652   23.7182  -33.3509 H   0  0  0  0  0  0  0  0  0  0  0  0
   -5.2738   24.5859  -32.7051 H   0  0  0  0  0  0  0  0  0  0  0  0
   -6.6471   25.2607  -31.7356 H   0  0  0  0  0  0  0  0  0  0  0  0
   -5.2955   21.8171  -30.7721 H   0  0  0  0  0  0  0  0  0  0  0  0
   -5.3322   22.5429  -29.1248 H   0  0  0  0  0  0  0  0  0  0  0  0
   -7.4800   21.3722  -29.8699 H   0  0  0  0  0  0  0  0  0  0  0  0
   -7.6443   23.1064  -29.3223 H   0  0  0  0  0  0  0  0  0  0  0  0
   -6.3592   21.1237  -32.7997 H   0  0  0  0  0  0  0  0  0  0  0  0
  1  2  1  0
  2  3  1  0
  3  4  1  0
  4  5  1  0
  5  6  1  0
  6  7  1  0
  7  8  1  0
  2  9  1  0
  9 10  2  0
  9 11  1  0
 11 12  1  0
 12 13  1  0
 13 14  1  0
 13 15  2  0
 12 16  2  0
 16 17  1  0
 17 18  2  0
 18 19  1  0
 19 20  2  0
 20 21  1  0
 21 22  1  0
 22 23  1  0
 23 24  1  0
 24 25  1  0
 25 26  1  0
 26 27  2  0
 26 28  1  0
 25 29  1  0
 29 30  1  0
 20 31  1  0
 31 32  2  0
  8  4  1  0
 32 11  1  0
 32 17  1  0
 30 22  1  0
  1 33  1  0
  1 34  1  0
  1 35  1  0
  4 36  1  1
  5 37  1  0
  5 38  1  0
  6 39  1  0
  6 40  1  0
  8 41  1  0
  8 42  1  0
 14 43  1  0
 14 44  1  0
 16 45  1  0
 18 46  1  0
 19 47  1  0
 21 48  1  0
 21 49  1  0
 22 50  1  0
 23 51  1  0
 23 52  1  0
 24 53  1  0
 24 54  1  0
 29 55  1  0
 29 56  1  0
 30 57  1  0
 30 58  1  0
 31 59  1  0
M  CHG  1  28  -1
M  END
>  <UniqueID>  (34) 
34

>  <SMILES>  (34) 
CN(O[C@H]1CCOC1)C(=O)n1c(C(N)=O)cc2ccc(CC3CCN(C(=O)[O-])CC3)cc21

>  <Energy>  (34) 
105.95671431442483

>  <Genealogy>  (34) 
CN(OC1CCOC1)C(=O)n1c(C(N)=O)cc2ccc(CC3CCN(C(=O)[O-])CC3)cc21 (protonated)
CN(O[C@H]1CCOC1)C(=O)n1c(C(N)=O)cc2ccc(CC3CCN(C(=O)[O-])CC3)cc21 (chirality)
CN(O[C@H]1CCOC1)C(=O)n1c(C(N)=O)cc2ccc(CC3CCN(C(=O)[O-])CC3)cc21 (3D coordinates assigned)
CN(O[C@H]1CCOC1)C(=O)n1c(C(N)=O)cc2ccc(CC3CCN(C(=O)[O-])CC3)cc21 (nonaromatic ring conformer: 105.95671431442483 kcal/mol)

>  <smiles>  (34) 
CN(OC1CCOC1)C(=O)n1c(C(N)=O)cc2ccc(CC3CCN(C(=O)O)CC3)cc21

>  <score_type>  (34) 
oracle

>  <origin>  (34) 
adg

>  <m_score__min__energy>  (34) 
-10.960000000000001

>  <m_primary>  (34) 
energy

$$$$
34:0
     RDKit          3D

 35 37  0  0  0  0  0  0  0  0999 V2000
   -5.4330   26.4980  -30.4480 N   0  0  0  0  0  0  0  0  0  0  0  0
   -6.3070   25.4810  -29.9570 C   0  0  0  0  0  0  0  0  0  0  0  0
   -7.0760   25.7400  -28.9920 O   0  0  0  0  0  0  0  0  0  0  0  0
   -6.3750   24.1550  -30.6020 C   0  0  0  0  0  0  0  0  0  0  0  0
   -7.5710   23.5100  -30.9010 C   0  0  0  0  0  0  0  0  0  0  0  0
   -7.2060   22.3510  -31.5460 C   0  0  0  0  0  0  0  0  0  0  0  0
   -7.9980   21.3230  -32.0500 C   0  0  0  0  0  0  0  0  0  0  0  0
   -7.3530   20.2200  -32.6340 C   0  0  0  0  0  0  0  0  0  0  0  0
   -5.9370   20.1610  -32.7000 C   0  0  0  0  0  0  0  0  0  0  0  0
   -5.2820   19.0150  -33.2790 N   0  0  0  0  0  0  0  0  0  0  0  0
   -5.9430   17.7030  -33.2800 C   0  0  0  0  0  0  0  0  0  0  0  0
   -5.6240   16.9170  -34.5730 C   0  0  0  0  0  0  0  0  0  0  0  0
   -4.6290   17.5220  -35.3810 O   0  0  0  0  0  0  0  0  0  0  0  0
   -3.5240   17.9000  -34.5890 C   0  0  0  0  0  0  0  0  0  0  0  0
   -3.8970   19.1230  -33.7490 C   0  0  0  0  0  0  0  0  0  0  0  0
   -5.1690   21.2220  -32.1700 C   0  0  0  0  0  0  0  0  0  0  0  0
   -5.8370   22.3190  -31.6130 C   0  0  0  0  0  0  0  0  0  0  0  0
   -5.3090   23.4210  -31.0310 N   0  0  0  0  0  0  0  0  0  0  0  0
   -3.9160   23.6920  -30.8020 C   0  0  0  0  0  0  0  0  0  0  0  0
   -3.0670   22.7640  -30.8560 O   0  0  0  0  0  0  0  0  0  0  0  0
   -3.4920   24.9830  -30.5120 O   0  0  0  0  0  0  0  0  0  0  0  0
   -5.3740   27.4180  -29.9570 H   0  0  0  0  0  0  0  0  0  0  0  0
   -4.9080   26.3730  -31.3410 H   0  0  0  0  0  0  0  0  0  0  0  0
   -8.5904   23.8534  -30.6709 H   0  0  0  0  0  0  0  0  0  0  0  0
   -9.0954   21.3728  -31.9927 H   0  0  0  0  0  0  0  0  0  0  0  0
   -7.9520   19.3936  -33.0443 H   0  0  0  0  0  0  0  0  0  0  0  0
   -5.5928   17.1242  -32.4126 H   0  0  0  0  0  0  0  0  0  0  0  0
   -7.0304   17.8608  -33.2276 H   0  0  0  0  0  0  0  0  0  0  0  0
   -5.2774   15.9119  -34.2909 H   0  0  0  0  0  0  0  0  0  0  0  0
   -6.5484   16.8927  -35.1687 H   0  0  0  0  0  0  0  0  0  0  0  0
   -3.2471   17.0685  -33.9242 H   0  0  0  0  0  0  0  0  0  0  0  0
   -2.6721   18.1466  -35.2398 H   0  0  0  0  0  0  0  0  0  0  0  0
   -3.2235   19.1865  -32.8816 H   0  0  0  0  0  0  0  0  0  0  0  0
   -3.7992   20.0262  -34.3692 H   0  0  0  0  0  0  0  0  0  0  0  0
   -4.0698   21.1868  -32.1945 H   0  0  0  0  0  0  0  0  0  0  0  0
  1  2  1  0
  2  3  2  0
  2  4  1  0
  4  5  2  0
  5  6  1  0
  6  7  2  0
  7  8  1  0
  8  9  2  0
  9 10  1  0
 10 11  1  0
 11 12  1  0
 12 13  1  0
 13 14  1  0
 14 15  1  0
  9 16  1  0
 16 17  2  0
 17 18  1  0
 18 19  1  0
 19 20  2  0
 19 21  1  0
 18  4  1  0
 17  6  1  0
 15 10  1  0
  1 22  1  0
  1 23  1  0
  5 24  1  0
  7 25  1  0
  8 26  1  0
 11 27  1  0
 11 28  1  0
 12 29  1  0
 12 30  1  0
 14 31  1  0
 14 32  1  0
 15 33  1  0
 15 34  1  0
 16 35  1  0
M  CHG  1  21  -1
M  END
>  <UniqueID>  (35) 
35

>  <SMILES>  (35) 
NC(=O)c1cc2ccc(N3CCOCC3)cc2n1C(=O)[O-]

>  <Energy>  (35) 
87.2712592246103

>  <Genealogy>  (35) 
NC(=O)c1cc2ccc(N3CCOCC3)cc2n1C(=O)[O-] (protonated)
NC(=O)c1cc2ccc(N3CCOCC3)cc2n1C(=O)[O-] (3D coordinates assigned)
NC(=O)c1cc2ccc(N3CCOCC3)cc2n1C(=O)[O-] (nonaromatic ring conformer: 87.2712592246103 kcal/mol)

>  <smiles>  (35) 
NC(=O)c1cc2ccc(N3CCOCC3)cc2n1C(=O)O

>  <score_type>  (35) 
oracle

>  <origin>  (35) 
adg

>  <m_score__min__energy>  (35) 
-9.0099999999999998

>  <m_primary>  (35) 
energy

$$$$
35:0
     RDKit          3D

 37 38  0  0  0  0  0  0  0  0999 V2000
   -5.2480   18.2030  -34.5850 C   0  0  0  0  0  0  0  0  0  0  0  0
   -5.8640   17.1790  -33.8130 O   0  0  0  0  0  0  0  0  0  0  0  0
   -6.5810   17.4470  -32.6440 C   0  0  0  0  0  0  0  0  0  0  0  0
   -6.1170   17.1220  -31.5160 O   0  0  0  0  0  0  0  0  0  0  0  0
   -7.9310   18.0800  -32.7380 C   0  0  0  0  0  0  0  0  0  0  0  0
   -7.8480   19.5270  -32.3390 C   0  0  0  0  0  0  0  0  0  0  0  0
   -9.0190   20.3250  -32.3130 C   0  0  0  0  0  0  0  0  0  0  0  0
   -8.9630   21.6640  -31.8960 C   0  0  0  0  0  0  0  0  0  0  0  0
   -7.7270   22.1770  -31.5110 C   0  0  0  0  0  0  0  0  0  0  0  0
   -7.4000   23.4220  -31.0270 C   0  0  0  0  0  0  0  0  0  0  0  0
   -6.0300   23.3720  -30.7810 C   0  0  0  0  0  0  0  0  0  0  0  0
   -5.2490   24.5300  -30.3010 C   0  0  0  0  0  0  0  0  0  0  0  0
   -5.1490   24.8290  -28.9080 N   0  0  0  0  0  0  0  0  0  0  0  0
   -4.6140   25.2350  -31.1300 O   0  0  0  0  0  0  0  0  0  0  0  0
   -5.5300   22.1430  -31.0860 N   0  0  0  0  0  0  0  0  0  0  0  0
   -4.1960   21.6640  -30.8510 C   0  0  0  0  0  0  0  0  0  0  0  0
   -3.9550   20.4270  -30.8700 O   0  0  0  0  0  0  0  0  0  0  0  0
   -3.1650   22.5790  -30.6010 O   0  0  0  0  0  0  0  0  0  0  0  0
   -2.7130   22.9110  -29.2910 C   0  0  0  0  0  0  0  0  0  0  0  0
   -1.9720   24.2100  -29.3110 C   0  0  0  0  0  0  0  0  0  0  0  0
   -2.6000   25.3000  -29.3400 O   0  0  0  0  0  0  0  0  0  0  0  0
   -0.5830   24.2140  -29.3250 O   0  0  0  0  0  0  0  0  0  0  0  0
   -6.5820   21.4210  -31.5360 C   0  0  0  0  0  0  0  0  0  0  0  0
   -6.6140   20.0770  -31.9280 C   0  0  0  0  0  0  0  0  0  0  0  0
   -4.7991   18.9491  -33.9128 H   0  0  0  0  0  0  0  0  0  0  0  0
   -4.4647   17.7628  -35.2195 H   0  0  0  0  0  0  0  0  0  0  0  0
   -6.0039   18.6888  -35.2195 H   0  0  0  0  0  0  0  0  0  0  0  0
   -8.2962   18.0077  -33.7731 H   0  0  0  0  0  0  0  0  0  0  0  0
   -8.6233   17.5575  -32.0614 H   0  0  0  0  0  0  0  0  0  0  0  0
   -9.9810   19.8907  -32.6226 H   0  0  0  0  0  0  0  0  0  0  0  0
   -9.8679   22.2891  -31.8740 H   0  0  0  0  0  0  0  0  0  0  0  0
   -8.0760   24.2751  -30.8681 H   0  0  0  0  0  0  0  0  0  0  0  0
   -4.6260   25.6750  -28.5900 H   0  0  0  0  0  0  0  0  0  0  0  0
   -5.5220   24.1730  -28.1870 H   0  0  0  0  0  0  0  0  0  0  0  0
   -3.5798   22.9980  -28.6193 H   0  0  0  0  0  0  0  0  0  0  0  0
   -2.0376   22.1194  -28.9343 H   0  0  0  0  0  0  0  0  0  0  0  0
   -5.7003   19.4647  -31.9161 H   0  0  0  0  0  0  0  0  0  0  0  0
  1  2  1  0
  2  3  1  0
  3  4  2  0
  3  5  1  0
  5  6  1  0
  6  7  2  0
  7  8  1  0
  8  9  2  0
  9 10  1  0
 10 11  2  0
 11 12  1  0
 12 13  1  0
 12 14  2  0
 11 15  1  0
 15 16  1  0
 16 17  2  0
 16 18  1  0
 18 19  1  0
 19 20  1  0
 20 21  2  0
 20 22  1  0
 15 23  1  0
 23 24  2  0
 24  6  1  0
 23  9  1  0
  1 25  1  0
  1 26  1  0
  1 27  1  0
  5 28  1  0
  5 29  1  0
  7 30  1  0
  8 31  1  0
 10 32  1  0
 13 33  1  0
 13 34  1  0
 19 35  1  0
 19 36  1  0
 24 37  1  0
M  CHG  1  22  -1
M  END
>  <UniqueID>  (36) 
36

>  <SMILES>  (36) 
COC(=O)Cc1ccc2cc(C(N)=O)n(C(=O)OCC(=O)[O-])c2c1

>  <Energy>  (36) 
69.92471148162518

>  <Genealogy>  (36) 
COC(=O)Cc1ccc2cc(C(N)=O)n(C(=O)OCC(=O)[O-])c2c1 (protonated)
COC(=O)Cc1ccc2cc(C(N)=O)n(C(=O)OCC(=O)[O-])c2c1 (3D coordinates assigned)
COC(=O)Cc1ccc2cc(C(N)=O)n(C(=O)OCC(=O)[O-])c2c1 (optimized conformer: 69.92471148162518 kcal/mol)

>  <smiles>  (36) 
COC(=O)Cc1ccc2cc(C(N)=O)n(C(=O)OCC(=O)O)c2c1

>  <score_type>  (36) 
oracle

>  <origin>  (36) 
adg

>  <m_score__min__energy>  (36) 
-10.24

>  <m_primary>  (36) 
energy

$$$$
36:0
     RDKit          3D

 55 57  0  0  0  0  0  0  0  0999 V2000
   -0.5780   20.8070  -32.5880 C   0  0  0  0  0  0  0  0  0  0  0  0
   -1.3140   20.7970  -33.9240 C   0  0  0  0  0  0  0  0  0  0  0  0
   -1.9630   19.5440  -34.1310 O   0  0  0  0  0  0  0  0  0  0  0  0
   -3.0150   19.0790  -33.3350 C   0  0  0  0  0  0  0  0  0  0  0  0
   -3.3370   19.6770  -32.2710 O   0  0  0  0  0  0  0  0  0  0  0  0
   -3.7300   17.8300  -33.7450 C   0  0  0  0  0  0  0  0  0  0  0  0
   -5.0820   17.6390  -33.2310 N   0  0  0  0  0  0  0  0  0  0  0  0
   -6.1730   18.4640  -33.6670 C   0  0  0  0  0  0  0  0  0  0  0  0
   -6.0910   19.0740  -34.7670 O   0  0  0  0  0  0  0  0  0  0  0  0
   -7.3760   18.7160  -32.7940 C   0  0  0  0  0  0  0  0  0  0  0  0
   -7.4290   20.1190  -32.2490 C   0  0  0  0  0  0  0  0  0  0  0  0
   -8.6570   20.6690  -31.8070 C   0  0  0  0  0  0  0  0  0  0  0  0
   -8.7060   21.9680  -31.2720 C   0  0  0  0  0  0  0  0  0  0  0  0
   -7.5150   22.6840  -31.1850 C   0  0  0  0  0  0  0  0  0  0  0  0
   -7.2740   23.9360  -30.6690 C   0  0  0  0  0  0  0  0  0  0  0  0
   -5.9010   24.1310  -30.8010 C   0  0  0  0  0  0  0  0  0  0  0  0
   -5.2240   25.3940  -30.4470 C   0  0  0  0  0  0  0  0  0  0  0  0
   -3.9100   25.6730  -30.9210 N   0  0  0  0  0  0  0  0  0  0  0  0
   -5.8350   26.2640  -29.7710 O   0  0  0  0  0  0  0  0  0  0  0  0
   -5.3110   23.0380  -31.3670 N   0  0  0  0  0  0  0  0  0  0  0  0
   -3.9050   22.7820  -31.5290 C   0  0  0  0  0  0  0  0  0  0  0  0
   -3.4760   22.2800  -32.6050 O   0  0  0  0  0  0  0  0  0  0  0  0
   -3.0110   23.1390  -30.5180 O   0  0  0  0  0  0  0  0  0  0  0  0
   -3.2650   22.8990  -29.1380 C   0  0  0  0  0  0  0  0  0  0  0  0
   -3.0310   24.1780  -28.3400 C   0  0  0  0  0  0  0  0  0  0  0  0
   -2.0770   24.9930  -28.9970 O   0  0  0  0  0  0  0  0  0  0  0  0
   -0.7940   24.4070  -28.9330 C   0  0  0  0  0  0  0  0  0  0  0  0
   -6.3170   22.1660  -31.6060 C   0  0  0  0  0  0  0  0  0  0  0  0
   -6.2410   20.8740  -32.1400 C   0  0  0  0  0  0  0  0  0  0  0  0
   -2.8850   16.5660  -33.7210 C   0  0  0  0  0  0  0  0  0  0  0  0
   -3.3870   17.1240  -35.0480 C   0  0  0  0  0  0  0  0  0  0  0  0
   -1.3093   20.7971  -31.7664 H   0  0  0  0  0  0  0  0  0  0  0  0
    0.0653   19.9175  -32.5171 H   0  0  0  0  0  0  0  0  0  0  0  0
    0.0409   21.7136  -32.5171 H   0  0  0  0  0  0  0  0  0  0  0  0
   -2.0669   21.5989  -33.9278 H   0  0  0  0  0  0  0  0  0  0  0  0
   -0.5843   20.9558  -34.7317 H   0  0  0  0  0  0  0  0  0  0  0  0
   -5.1850   17.0300  -32.3900 H   0  0  0  0  0  0  0  0  0  0  0  0
   -8.2837   18.5374  -33.3892 H   0  0  0  0  0  0  0  0  0  0  0  0
   -7.3053   18.0334  -31.9343 H   0  0  0  0  0  0  0  0  0  0  0  0
   -9.5797   20.0750  -31.8830 H   0  0  0  0  0  0  0  0  0  0  0  0
   -9.6564   22.4055  -30.9324 H   0  0  0  0  0  0  0  0  0  0  0  0
   -8.0090   24.6346  -30.2428 H   0  0  0  0  0  0  0  0  0  0  0  0
   -3.0700   25.2970  -30.4270 H   0  0  0  0  0  0  0  0  0  0  0  0
   -4.3080   22.5741  -29.0097 H   0  0  0  0  0  0  0  0  0  0  0  0
   -2.5852   22.1143  -28.7744 H   0  0  0  0  0  0  0  0  0  0  0  0
   -3.9789   24.7286  -28.2487 H   0  0  0  0  0  0  0  0  0  0  0  0
   -2.6535   23.9153  -27.3408 H   0  0  0  0  0  0  0  0  0  0  0  0
   -0.5036   24.2744  -27.8804 H   0  0  0  0  0  0  0  0  0  0  0  0
   -0.8126   23.4281  -29.4344 H   0  0  0  0  0  0  0  0  0  0  0  0
   -0.0663   25.0620  -29.4344 H   0  0  0  0  0  0  0  0  0  0  0  0
   -5.2773   20.4565  -32.4673 H   0  0  0  0  0  0  0  0  0  0  0  0
   -1.8158   16.6237  -33.4691 H   0  0  0  0  0  0  0  0  0  0  0  0
   -2.9527   15.5943  -33.2100 H   0  0  0  0  0  0  0  0  0  0  0  0
   -2.6802   17.5846  -35.7539 H   0  0  0  0  0  0  0  0  0  0  0  0
   -3.9672   16.7222  -35.8917 H   0  0  0  0  0  0  0  0  0  0  0  0
  1  2  1  0
  2  3  1  0
  3  4  1  0
  4  5  2  0
  4  6  1  0
  6  7  1  0
  7  8  1  0
  8  9  2  0
  8 10  1  0
 10 11  1  0
 11 12  2  0
 12 13  1  0
 13 14  2  0
 14 15  1  0
 15 16  2  0
 16 17  1  0
 17 18  1  0
 17 19  2  0
 16 20  1  0
 20 21  1  0
 21 22  2  0
 21 23  1  0
 23 24  1  0
 24 25  1  0
 25 26  1  0
 26 27  1  0
 20 28  1  0
 28 29  2  0
  6 30  1  0
 30 31  1  0
 31  6  1  0
 29 11  1  0
 28 14  1  0
  1 32  1  0
  1 33  1  0
  1 34  1  0
  2 35  1  0
  2 36  1  0
  7 37  1  0
 10 38  1  0
 10 39  1  0
 12 40  1  0
 13 41  1  0
 15 42  1  0
 18 43  1  0
 24 44  1  0
 24 45  1  0
 25 46  1  0
 25 47  1  0
 27 48  1  0
 27 49  1  0
 27 50  1  0
 29 51  1  0
 30 52  1  0
 30 53  1  0
 31 54  1  0
 31 55  1  0
M  CHG  1  18  -1
M  END
>  <UniqueID>  (37) 
37

>  <SMILES>  (37) 
CCOC(=O)C1(NC(=O)Cc2ccc3cc(C([NH-])=O)n(C(=O)OCCOC)c3c2)CC1

>  <Energy>  (37) 
353.4532375121697

>  <Genealogy>  (37) 
CCOC(=O)C1(NC(=O)Cc2ccc3cc(C([NH-])=O)n(C(=O)OCCOC)c3c2)CC1 (protonated)
CCOC(=O)C1(NC(=O)Cc2ccc3cc(C([NH-])=O)n(C(=O)OCCOC)c3c2)CC1 (3D coordinates assigned)
CCOC(=O)C1(NC(=O)Cc2ccc3cc(C([NH-])=O)n(C(=O)OCCOC)c3c2)CC1 (nonaromatic ring conformer: 353.4532375121697 kcal/mol)

>  <smiles>  (37) 
CCOC(=O)C1(NC(=O)Cc2ccc3cc(C(N)=O)n(C(=O)OCCOC)c3c2)CC1

>  <score_type>  (37) 
oracle

>  <origin>  (37) 
adg

>  <m_score__min__energy>  (37) 
-10.369999999999999

>  <m_primary>  (37) 
energy

$$$$
37:0
     RDKit          3D

 60 62  0  0  0  0  0  0  0  0999 V2000
   -7.5380   23.3950  -31.9530 C   0  0  0  0  0  0  0  0  0  0  0  0
   -6.9060   24.0060  -30.9460 C   0  0  0  0  0  0  0  0  0  0  0  0
   -6.4190   23.2380  -29.7550 C   0  0  0  0  0  0  0  0  0  0  0  0
   -5.2520   23.8610  -29.2290 O   0  0  0  0  0  0  0  0  0  0  0  0
   -4.1350   24.1630  -30.0170 C   0  0  0  0  0  0  0  0  0  0  0  0
   -4.0140   25.3040  -30.5380 O   0  0  0  0  0  0  0  0  0  0  0  0
   -3.1180   23.1670  -30.2180 N   0  0  0  0  0  0  0  0  0  0  0  0
   -1.8030   23.2460  -29.8700 C   0  0  0  0  0  0  0  0  0  0  0  0
   -1.1920   24.3180  -29.0490 C   0  0  0  0  0  0  0  0  0  0  0  0
   -1.9920   25.3690  -28.5000 N   0  0  0  0  0  0  0  0  0  0  0  0
    0.0520   24.3270  -28.8470 O   0  0  0  0  0  0  0  0  0  0  0  0
   -1.1150   22.1180  -30.3160 C   0  0  0  0  0  0  0  0  0  0  0  0
   -2.0570   21.3420  -30.9500 C   0  0  0  0  0  0  0  0  0  0  0  0
   -1.9210   20.1180  -31.5890 C   0  0  0  0  0  0  0  0  0  0  0  0
   -3.0600   19.5530  -32.1810 C   0  0  0  0  0  0  0  0  0  0  0  0
   -4.3260   20.2060  -32.1330 C   0  0  0  0  0  0  0  0  0  0  0  0
   -5.5110   19.6060  -32.7450 N   0  0  0  0  0  0  0  0  0  0  0  0
   -5.5170   18.1840  -33.1480 C   0  0  0  0  0  0  0  0  0  0  0  0
   -5.5130   18.0290  -34.6410 C   0  0  0  0  0  0  0  0  0  0  0  0
   -6.0890   18.8830  -35.3710 O   0  0  0  0  0  0  0  0  0  0  0  0
   -4.8680   16.9150  -35.1990 O   0  0  0  0  0  0  0  0  0  0  0  0
   -3.6080   16.3700  -34.7770 C   0  0  0  0  0  0  0  0  0  0  0  0
   -2.5640   17.4890  -34.5920 C   0  0  0  0  0  0  0  0  0  0  0  0
   -3.1260   15.4230  -35.8870 C   0  0  0  0  0  0  0  0  0  0  0  0
   -3.7800   15.5640  -33.4730 C   0  0  0  0  0  0  0  0  0  0  0  0
   -6.7390   20.3900  -32.9790 C   0  0  0  0  0  0  0  0  0  0  0  0
   -7.7790   20.0990  -31.8820 C   0  0  0  0  0  0  0  0  0  0  0  0
   -9.2150   20.3380  -32.3280 C   0  0  0  0  0  0  0  0  0  0  0  0
   -8.7200   18.9230  -32.1130 C   0  0  0  0  0  0  0  0  0  0  0  0
   -4.4050   21.4640  -31.4700 C   0  0  0  0  0  0  0  0  0  0  0  0
   -3.2560   21.9950  -30.8760 C   0  0  0  0  0  0  0  0  0  0  0  0
   -7.8872   23.9782  -32.8178 H   0  0  0  0  0  0  0  0  0  0  0  0
   -7.7089   22.3090  -31.9169 H   0  0  0  0  0  0  0  0  0  0  0  0
   -6.7404   25.0925  -30.9925 H   0  0  0  0  0  0  0  0  0  0  0  0
   -7.2038   23.2212  -28.9844 H   0  0  0  0  0  0  0  0  0  0  0  0
   -6.1781   22.2084  -30.0581 H   0  0  0  0  0  0  0  0  0  0  0  0
   -3.0300   25.3680  -28.5940 H   0  0  0  0  0  0  0  0  0  0  0  0
   -1.5410   26.1390  -27.9550 H   0  0  0  0  0  0  0  0  0  0  0  0
   -0.0453   21.8959  -30.1879 H   0  0  0  0  0  0  0  0  0  0  0  0
   -0.9484   19.6058  -31.6301 H   0  0  0  0  0  0  0  0  0  0  0  0
   -2.9743   18.5838  -32.6941 H   0  0  0  0  0  0  0  0  0  0  0  0
   -4.6227   17.6933  -32.7365 H   0  0  0  0  0  0  0  0  0  0  0  0
   -6.4357   17.7214  -32.7581 H   0  0  0  0  0  0  0  0  0  0  0  0
   -2.4006   17.6642  -33.5184 H   0  0  0  0  0  0  0  0  0  0  0  0
   -1.6165   17.1880  -35.0628 H   0  0  0  0  0  0  0  0  0  0  0  0
   -2.9299   18.4134  -35.0628 H   0  0  0  0  0  0  0  0  0  0  0  0
   -2.6712   14.5294  -35.4347 H   0  0  0  0  0  0  0  0  0  0  0  0
   -3.9813   15.1235  -36.5105 H   0  0  0  0  0  0  0  0  0  0  0  0
   -2.3805   15.9383  -36.5105 H   0  0  0  0  0  0  0  0  0  0  0  0
   -3.6379   16.2298  -32.6090 H   0  0  0  0  0  0  0  0  0  0  0  0
   -4.7907   15.1312  -33.4401 H   0  0  0  0  0  0  0  0  0  0  0  0
   -3.0340   14.7563  -33.4401 H   0  0  0  0  0  0  0  0  0  0  0  0
   -6.4920   21.4619  -32.9691 H   0  0  0  0  0  0  0  0  0  0  0  0
   -7.1615   20.1083  -33.9548 H   0  0  0  0  0  0  0  0  0  0  0  0
   -7.1375   20.4076  -31.0434 H   0  0  0  0  0  0  0  0  0  0  0  0
   -9.9414   20.7781  -31.6289 H   0  0  0  0  0  0  0  0  0  0  0  0
   -9.6898   20.8763  -33.1616 H   0  0  0  0  0  0  0  0  0  0  0  0
   -9.0868   18.3364  -31.2578 H   0  0  0  0  0  0  0  0  0  0  0  0
   -8.6867   18.0100  -32.7257 H   0  0  0  0  0  0  0  0  0  0  0  0
   -5.3582   22.0112  -31.4258 H   0  0  0  0  0  0  0  0  0  0  0  0
  1  2  2  0
  2  3  1  0
  3  4  1  0
  4  5  1  0
  5  6  2  0
  5  7  1  0
  7  8  1  0
  8  9  1  0
  9 10  1  0
  9 11  2  0
  8 12  2  0
 12 13  1  0
 13 14  2  0
 14 15  1  0
 15 16  2  0
 16 17  1  0
 17 18  1  0
 18 19  1  0
 19 20  2  0
 19 21  1  0
 21 22  1  0
 22 23  1  0
 22 24  1  0
 22 25  1  0
 17 26  1  0
 26 27  1  0
 27 28  1  0
 28 29  1  0
 16 30  1  0
 30 31  2  0
 31  7  1  0
 31 13  1  0
 29 27  1  0
  1 32  1  0
  1 33  1  0
  2 34  1  0
  3 35  1  0
  3 36  1  0
 10 37  1  0
 10 38  1  0
 12 39  1  0
 14 40  1  0
 15 41  1  0
 18 42  1  0
 18 43  1  0
 23 44  1  0
 23 45  1  0
 23 46  1  0
 24 47  1  0
 24 48  1  0
 24 49  1  0
 25 50  1  0
 25 51  1  0
 25 52  1  0
 26 53  1  0
 26 54  1  0
 27 55  1  0
 28 56  1  0
 28 57  1  0
 29 58  1  0
 29 59  1  0
 30 60  1  0
M  END
>  <UniqueID>  (38) 
38

>  <SMILES>  (38) 
C=CCOC(=O)n1c(C(N)=O)cc2ccc(N(CC(=O)OC(C)(C)C)CC3CC3)cc21

>  <Energy>  (38) 
355.04561368221846

>  <Genealogy>  (38) 
C=CCOC(=O)n1c(C(N)=O)cc2ccc(N(CC(=O)OC(C)(C)C)CC3CC3)cc21 (3D coordinates assigned)
C=CCOC(=O)n1c(C(N)=O)cc2ccc(N(CC(=O)OC(C)(C)C)CC3CC3)cc21 (nonaromatic ring conformer: 355.04561368221846 kcal/mol)

>  <smiles>  (38) 
C=CCOC(=O)n1c(C(N)=O)cc2ccc(N(CC(=O)OC(C)(C)C)CC3CC3)cc21

>  <score_type>  (38) 
oracle

>  <origin>  (38) 
adg

>  <m_score__min__energy>  (38) 
-9.1199999999999992

>  <m_primary>  (38) 
energy

$$$$
38:0
     RDKit          3D

 48 51  0  0  0  0  0  0  0  0999 V2000
   -1.8620   19.3060  -33.8550 C   0  0  0  0  0  0  0  0  0  0  0  0
   -3.1120   19.0490  -34.4880 O   0  0  0  0  0  0  0  0  0  0  0  0
   -3.9120   17.9180  -34.2460 C   0  0  0  0  0  0  0  0  0  0  0  0
   -3.5180   16.6320  -34.6590 C   0  0  0  0  0  0  0  0  0  0  0  0
   -4.3210   15.5260  -34.3870 C   0  0  0  0  0  0  0  0  0  0  0  0
   -5.5280   15.6830  -33.7100 C   0  0  0  0  0  0  0  0  0  0  0  0
   -5.9570   16.9570  -33.3040 C   0  0  0  0  0  0  0  0  0  0  0  0
   -7.2760   17.0860  -32.5850 C   0  0  0  0  0  0  0  0  0  0  0  0
   -5.1340   18.0830  -33.5580 C   0  0  0  0  0  0  0  0  0  0  0  0
   -5.5340   19.4360  -33.1110 C   0  0  0  0  0  0  0  0  0  0  0  0
   -6.7910   19.9650  -33.4940 C   0  0  0  0  0  0  0  0  0  0  0  0
   -7.1770   21.2530  -33.0910 C   0  0  0  0  0  0  0  0  0  0  0  0
   -6.2910   21.9840  -32.3040 C   0  0  0  0  0  0  0  0  0  0  0  0
   -6.3990   23.2590  -31.8010 C   0  0  0  0  0  0  0  0  0  0  0  0
   -5.2160   23.4830  -31.1020 C   0  0  0  0  0  0  0  0  0  0  0  0
   -4.9520   24.7140  -30.3300 C   0  0  0  0  0  0  0  0  0  0  0  0
   -3.8780   25.5830  -30.6810 N   0  0  0  0  0  0  0  0  0  0  0  0
   -5.6510   24.9760  -29.3150 O   0  0  0  0  0  0  0  0  0  0  0  0
   -4.4030   22.3920  -31.1750 N   0  0  0  0  0  0  0  0  0  0  0  0
   -3.0620   22.2610  -30.6730 C   0  0  0  0  0  0  0  0  0  0  0  0
   -2.0800   22.4380  -31.4430 O   0  0  0  0  0  0  0  0  0  0  0  0
   -2.8540   21.9570  -29.3230 O   0  0  0  0  0  0  0  0  0  0  0  0
   -2.1590   22.8290  -28.4360 C   0  0  0  0  0  0  0  0  0  0  0  0
   -1.7330   24.1080  -29.1270 C   0  0  0  0  0  0  0  0  0  0  0  0
   -2.6570   24.9330  -28.3480 N   0  0  0  0  0  0  0  0  0  0  0  0
   -3.0930   23.7260  -27.6440 C   0  0  0  0  0  0  0  0  0  0  0  0
   -5.0770   21.4810  -31.9120 C   0  0  0  0  0  0  0  0  0  0  0  0
   -4.6580   20.2080  -32.3190 C   0  0  0  0  0  0  0  0  0  0  0  0
   -1.9917   19.2793  -32.7630 H   0  0  0  0  0  0  0  0  0  0  0  0
   -1.1337   18.5388  -34.1566 H   0  0  0  0  0  0  0  0  0  0  0  0
   -1.4954   20.2983  -34.1566 H   0  0  0  0  0  0  0  0  0  0  0  0
   -2.5697   16.4987  -35.2003 H   0  0  0  0  0  0  0  0  0  0  0  0
   -4.0000   14.5242  -34.7085 H   0  0  0  0  0  0  0  0  0  0  0  0
   -6.1499   14.8024  -33.4917 H   0  0  0  0  0  0  0  0  0  0  0  0
   -7.1046   17.0692  -31.4986 H   0  0  0  0  0  0  0  0  0  0  0  0
   -7.7554   18.0353  -32.8659 H   0  0  0  0  0  0  0  0  0  0  0  0
   -7.9303   16.2476  -32.8659 H   0  0  0  0  0  0  0  0  0  0  0  0
   -7.4708   19.3610  -34.1129 H   0  0  0  0  0  0  0  0  0  0  0  0
   -8.1498   21.6721  -33.3879 H   0  0  0  0  0  0  0  0  0  0  0  0
   -7.2418   23.9549  -31.9247 H   0  0  0  0  0  0  0  0  0  0  0  0
   -2.8850   25.3040  -30.5180 H   0  0  0  0  0  0  0  0  0  0  0  0
   -1.4580   22.1269  -27.9610 H   0  0  0  0  0  0  0  0  0  0  0  0
   -0.6756   24.3621  -28.9616 H   0  0  0  0  0  0  0  0  0  0  0  0
   -1.7799   24.1558  -30.2250 H   0  0  0  0  0  0  0  0  0  0  0  0
   -3.4330   25.2460  -28.9790 H   0  0  0  0  0  0  0  0  0  0  0  0
   -2.8718   23.7445  -26.5666 H   0  0  0  0  0  0  0  0  0  0  0  0
   -4.1660   23.4847  -27.6216 H   0  0  0  0  0  0  0  0  0  0  0  0
   -3.6706   19.8198  -32.0284 H   0  0  0  0  0  0  0  0  0  0  0  0
  1  2  1  0
  2  3  1  0
  3  4  2  0
  4  5  1  0
  5  6  2  0
  6  7  1  0
  7  8  1  0
  7  9  2  0
  9 10  1  0
 10 11  2  0
 11 12  1  0
 12 13  2  0
 13 14  1  0
 14 15  2  0
 15 16  1  0
 16 17  1  0
 16 18  2  0
 15 19  1  0
 19 20  1  0
 20 21  2  0
 20 22  1  0
 22 23  1  0
 23 24  1  0
 24 25  1  0
 25 26  1  0
 19 27  1  0
 27 28  2  0
  9  3  1  0
 28 10  1  0
 27 13  1  0
 26 23  1  0
  1 29  1  0
  1 30  1  0
  1 31  1  0
  4 32  1  0
  5 33  1  0
  6 34  1  0
  8 35  1  0
  8 36  1  0
  8 37  1  0
 11 38  1  0
 12 39  1  0
 14 40  1  0
 17 41  1  0
 23 42  1  0
 24 43  1  0
 24 44  1  0
 25 45  1  0
 26 46  1  0
 26 47  1  0
 28 48  1  0
M  CHG  1  17  -1
M  END
>  <UniqueID>  (39) 
39

>  <SMILES>  (39) 
COc1cccc(C)c1-c1ccc2cc(C([NH-])=O)n(C(=O)OC3CNC3)c2c1

>  <Energy>  (39) 
161.70466226701905

>  <Genealogy>  (39) 
COc1cccc(C)c1-c1ccc2cc(C([NH-])=O)n(C(=O)OC3CNC3)c2c1 (protonated)
COc1cccc(C)c1-c1ccc2cc(C([NH-])=O)n(C(=O)OC3CNC3)c2c1 (3D coordinates assigned)
COc1cccc(C)c1-c1ccc2cc(C([NH-])=O)n(C(=O)OC3CNC3)c2c1 (nonaromatic ring conformer: 161.70466226701905 kcal/mol)

>  <smiles>  (39) 
COc1cccc(C)c1-c1ccc2cc(C(N)=O)n(C(=O)OC3CNC3)c2c1

>  <score_type>  (39) 
oracle

>  <origin>  (39) 
adg

>  <m_score__min__energy>  (39) 
-11.390000000000001

>  <m_primary>  (39) 
energy

$$$$
39:0
     RDKit          3D

 31 32  0  0  0  0  0  0  0  0999 V2000
   -3.2810   18.9440  -33.7880 C   0  0  0  0  0  0  0  0  0  0  0  0
   -4.3150   18.0080  -34.0670 O   0  0  0  0  0  0  0  0  0  0  0  0
   -5.6470   18.3920  -34.2510 C   0  0  0  0  0  0  0  0  0  0  0  0
   -6.0330   18.8710  -35.3510 O   0  0  0  0  0  0  0  0  0  0  0  0
   -6.6060   18.2790  -33.1110 C   0  0  0  0  0  0  0  0  0  0  0  0
   -6.8790   19.6390  -32.5330 C   0  0  0  0  0  0  0  0  0  0  0  0
   -8.2130   20.0760  -32.3420 C   0  0  0  0  0  0  0  0  0  0  0  0
   -8.4810   21.3520  -31.8230 C   0  0  0  0  0  0  0  0  0  0  0  0
   -7.3990   22.1750  -31.5230 C   0  0  0  0  0  0  0  0  0  0  0  0
   -7.3750   23.4410  -30.9860 C   0  0  0  0  0  0  0  0  0  0  0  0
   -6.0270   23.7760  -30.8960 C   0  0  0  0  0  0  0  0  0  0  0  0
   -5.5490   25.0920  -30.4270 C   0  0  0  0  0  0  0  0  0  0  0  0
   -4.1970   25.5030  -30.6330 N   0  0  0  0  0  0  0  0  0  0  0  0
   -6.3610   25.8900  -29.8890 O   0  0  0  0  0  0  0  0  0  0  0  0
   -5.2440   22.7550  -31.3460 N   0  0  0  0  0  0  0  0  0  0  0  0
   -3.8090   22.6740  -31.3010 C   0  0  0  0  0  0  0  0  0  0  0  0
   -3.1760   23.0990  -30.2990 O   0  0  0  0  0  0  0  0  0  0  0  0
   -3.1040   22.1310  -32.3680 O   0  0  0  0  0  0  0  0  0  0  0  0
   -6.1010   21.7810  -31.7290 C   0  0  0  0  0  0  0  0  0  0  0  0
   -5.8060   20.5050  -32.2260 C   0  0  0  0  0  0  0  0  0  0  0  0
   -3.1653   19.0488  -32.6991 H   0  0  0  0  0  0  0  0  0  0  0  0
   -2.3363   18.5877  -34.2245 H   0  0  0  0  0  0  0  0  0  0  0  0
   -3.5418   19.9194  -34.2245 H   0  0  0  0  0  0  0  0  0  0  0  0
   -7.5485   17.8397  -33.4699 H   0  0  0  0  0  0  0  0  0  0  0  0
   -6.1680   17.6369  -32.3326 H   0  0  0  0  0  0  0  0  0  0  0  0
   -9.0472   19.4083  -32.6032 H   0  0  0  0  0  0  0  0  0  0  0  0
   -9.5143   21.6915  -31.6583 H   0  0  0  0  0  0  0  0  0  0  0  0
   -8.2370   24.0572  -30.6907 H   0  0  0  0  0  0  0  0  0  0  0  0
   -3.8660   26.4220  -30.2640 H   0  0  0  0  0  0  0  0  0  0  0  0
   -3.5450   24.9370  -31.2200 H   0  0  0  0  0  0  0  0  0  0  0  0
   -4.7640   20.1851  -32.3737 H   0  0  0  0  0  0  0  0  0  0  0  0
  1  2  1  0
  2  3  1  0
  3  4  2  0
  3  5  1  0
  5  6  1  0
  6  7  2  0
  7  8  1  0
  8  9  2  0
  9 10  1  0
 10 11  2  0
 11 12  1  0
 12 13  1  0
 12 14  2  0
 11 15  1  0
 15 16  1  0
 16 17  2  0
 16 18  1  0
 15 19  1  0
 19 20  2  0
 20  6  1  0
 19  9  1  0
  1 21  1  0
  1 22  1  0
  1 23  1  0
  5 24  1  0
  5 25  1  0
  7 26  1  0
  8 27  1  0
 10 28  1  0
 13 29  1  0
 13 30  1  0
 20 31  1  0
M  CHG  1  18  -1
M  END
>  <UniqueID>  (40) 
40

>  <SMILES>  (40) 
COC(=O)Cc1ccc2cc(C(N)=O)n(C(=O)[O-])c2c1

>  <Energy>  (40) 
67.14445780643861

>  <Genealogy>  (40) 
COC(=O)Cc1ccc2cc(C(N)=O)n(C(=O)[O-])c2c1 (protonated)
COC(=O)Cc1ccc2cc(C(N)=O)n(C(=O)[O-])c2c1 (3D coordinates assigned)
COC(=O)Cc1ccc2cc(C(N)=O)n(C(=O)[O-])c2c1 (optimized conformer: 67.14445780643861 kcal/mol)

>  <smiles>  (40) 
COC(=O)Cc1ccc2cc(C(N)=O)n(C(=O)O)c2c1

>  <score_type>  (40) 
oracle

>  <origin>  (40) 
adg

>  <m_score__min__energy>  (40) 
-8.6400000000000006

>  <m_primary>  (40) 
energy

$$$$
40:0
     RDKit          3D

 25 26  0  0  0  0  0  0  0  0999 V2000
   -5.6510   26.4850  -30.2860 N   0  0  0  0  0  0  0  0  0  0  0  0
   -6.4070   25.3070  -29.9990 C   0  0  0  0  0  0  0  0  0  0  0  0
   -7.2170   25.3140  -29.0340 O   0  0  0  0  0  0  0  0  0  0  0  0
   -6.2080   24.0640  -30.7700 C   0  0  0  0  0  0  0  0  0  0  0  0
   -7.2520   23.3450  -31.3430 C   0  0  0  0  0  0  0  0  0  0  0  0
   -6.6620   22.2340  -31.9030 C   0  0  0  0  0  0  0  0  0  0  0  0
   -7.2320   21.1890  -32.6210 C   0  0  0  0  0  0  0  0  0  0  0  0
   -6.3790   20.1920  -33.1230 C   0  0  0  0  0  0  0  0  0  0  0  0
   -4.9820   20.2570  -32.8960 C   0  0  0  0  0  0  0  0  0  0  0  0
   -4.0780   19.2140  -33.4820 C   0  0  0  0  0  0  0  0  0  0  0  0
   -4.7110   18.5970  -34.5450 F   0  0  0  0  0  0  0  0  0  0  0  0
   -4.4360   21.3430  -32.1770 C   0  0  0  0  0  0  0  0  0  0  0  0
   -5.3110   22.3130  -31.6710 C   0  0  0  0  0  0  0  0  0  0  0  0
   -5.0160   23.4360  -30.9770 N   0  0  0  0  0  0  0  0  0  0  0  0
   -3.7040   23.9260  -30.6470 C   0  0  0  0  0  0  0  0  0  0  0  0
   -2.7380   23.1280  -30.5200 O   0  0  0  0  0  0  0  0  0  0  0  0
   -3.4880   25.2870  -30.4710 O   0  0  0  0  0  0  0  0  0  0  0  0
   -5.8300   27.3650  -29.7540 H   0  0  0  0  0  0  0  0  0  0  0  0
   -4.8590   26.4640  -30.9650 H   0  0  0  0  0  0  0  0  0  0  0  0
   -8.3201   23.6077  -31.3477 H   0  0  0  0  0  0  0  0  0  0  0  0
   -8.3179   21.1441  -32.7909 H   0  0  0  0  0  0  0  0  0  0  0  0
   -6.7995   19.3534  -33.6974 H   0  0  0  0  0  0  0  0  0  0  0  0
   -3.1504   19.6891  -33.8338 H   0  0  0  0  0  0  0  0  0  0  0  0
   -3.8386   18.4641  -32.7137 H   0  0  0  0  0  0  0  0  0  0  0  0
   -3.3506   21.4252  -32.0182 H   0  0  0  0  0  0  0  0  0  0  0  0
  1  2  1  0
  2  3  2  0
  2  4  1  0
  4  5  2  0
  5  6  1  0
  6  7  2  0
  7  8  1  0
  8  9  2  0
  9 10  1  0
 10 11  1  0
  9 12  1  0
 12 13  2  0
 13 14  1  0
 14 15  1  0
 15 16  2  0
 15 17  1  0
 14  4  1  0
 13  6  1  0
  1 18  1  0
  1 19  1  0
  5 20  1  0
  7 21  1  0
  8 22  1  0
 10 23  1  0
 10 24  1  0
 12 25  1  0
M  CHG  1  17  -1
M  END
>  <UniqueID>  (41) 
41

>  <SMILES>  (41) 
NC(=O)c1cc2ccc(CF)cc2n1C(=O)[O-]

>  <Energy>  (41) 
64.85050285240472

>  <Genealogy>  (41) 
NC(=O)c1cc2ccc(CF)cc2n1C(=O)[O-] (protonated)
NC(=O)c1cc2ccc(CF)cc2n1C(=O)[O-] (3D coordinates assigned)
NC(=O)c1cc2ccc(CF)cc2n1C(=O)[O-] (optimized conformer: 64.85050285240472 kcal/mol)

>  <smiles>  (41) 
NC(=O)c1cc2ccc(CF)cc2n1C(=O)O

>  <score_type>  (41) 
oracle

>  <origin>  (41) 
adg

>  <m_score__min__energy>  (41) 
-7.75

>  <m_primary>  (41) 
energy

$$$$
41:0
     RDKit          3D

 25 26  0  0  0  0  0  0  0  0999 V2000
   -5.6260   26.4740  -30.2660 N   0  0  0  0  0  0  0  0  0  0  0  0
   -6.3960   25.3020  -29.9950 C   0  0  0  0  0  0  0  0  0  0  0  0
   -7.2090   25.3060  -29.0320 O   0  0  0  0  0  0  0  0  0  0  0  0
   -6.2060   24.0640  -30.7780 C   0  0  0  0  0  0  0  0  0  0  0  0
   -7.2570   23.3480  -31.3420 C   0  0  0  0  0  0  0  0  0  0  0  0
   -6.6760   22.2440  -31.9200 C   0  0  0  0  0  0  0  0  0  0  0  0
   -7.2560   21.1990  -32.6330 C   0  0  0  0  0  0  0  0  0  0  0  0
   -6.4100   20.2050  -33.1500 C   0  0  0  0  0  0  0  0  0  0  0  0
   -5.0090   20.2760  -32.9550 C   0  0  0  0  0  0  0  0  0  0  0  0
   -4.1210   19.2120  -33.5350 C   0  0  0  0  0  0  0  0  0  0  0  0
   -4.7770   18.5700  -34.5700 F   0  0  0  0  0  0  0  0  0  0  0  0
   -2.9590   19.7860  -34.0160 F   0  0  0  0  0  0  0  0  0  0  0  0
   -4.4540   21.3540  -32.2290 C   0  0  0  0  0  0  0  0  0  0  0  0
   -5.3230   22.3210  -31.7050 C   0  0  0  0  0  0  0  0  0  0  0  0
   -5.0170   23.4380  -31.0070 N   0  0  0  0  0  0  0  0  0  0  0  0
   -3.7020   23.9270  -30.6900 C   0  0  0  0  0  0  0  0  0  0  0  0
   -2.7320   23.1310  -30.5920 O   0  0  0  0  0  0  0  0  0  0  0  0
   -3.4870   25.2850  -30.4960 O   0  0  0  0  0  0  0  0  0  0  0  0
   -5.7990   27.3500  -29.7260 H   0  0  0  0  0  0  0  0  0  0  0  0
   -4.8320   26.4520  -30.9440 H   0  0  0  0  0  0  0  0  0  0  0  0
   -8.3254   23.6094  -31.3284 H   0  0  0  0  0  0  0  0  0  0  0  0
   -8.3442   21.1532  -32.7868 H   0  0  0  0  0  0  0  0  0  0  0  0
   -6.8395   19.3627  -33.7121 H   0  0  0  0  0  0  0  0  0  0  0  0
   -3.8725   18.4828  -32.7498 H   0  0  0  0  0  0  0  0  0  0  0  0
   -3.3671   21.4323  -32.0789 H   0  0  0  0  0  0  0  0  0  0  0  0
  1  2  1  0
  2  3  2  0
  2  4  1  0
  4  5  2  0
  5  6  1  0
  6  7  2  0
  7  8  1  0
  8  9  2  0
  9 10  1  0
 10 11  1  0
 10 12  1  0
  9 13  1  0
 13 14  2  0
 14 15  1  0
 15 16  1  0
 16 17  2  0
 16 18  1  0
 15  4  1  0
 14  6  1  0
  1 19  1  0
  1 20  1  0
  5 21  1  0
  7 22  1  0
  8 23  1  0
 10 24  1  0
 13 25  1  0
M  CHG  1  18  -1
M  END
>  <UniqueID>  (42) 
42

>  <SMILES>  (42) 
NC(=O)c1cc2ccc(C(F)F)cc2n1C(=O)[O-]

>  <Energy>  (42) 
65.2563427838691

>  <Genealogy>  (42) 
NC(=O)c1cc2ccc(C(F)F)cc2n1C(=O)[O-] (protonated)
NC(=O)c1cc2ccc(C(F)F)cc2n1C(=O)[O-] (3D coordinates assigned)
NC(=O)c1cc2ccc(C(F)F)cc2n1C(=O)[O-] (optimized conformer: 65.2563427838691 kcal/mol)

>  <smiles>  (42) 
NC(=O)c1cc2ccc(C(F)F)cc2n1C(=O)O

>  <score_type>  (42) 
oracle

>  <origin>  (42) 
adg

>  <m_score__min__energy>  (42) 
-7.7999999999999998

>  <m_primary>  (42) 
energy

$$$$
42:0
     RDKit          3D

 31 32  0  0  0  0  0  0  0  0999 V2000
   -4.1810   25.4790  -30.6110 N   0  0  0  0  0  0  0  0  0  0  0  0
   -5.5450   25.0740  -30.4820 C   0  0  0  0  0  0  0  0  0  0  0  0
   -6.3790   25.8710  -29.9770 O   0  0  0  0  0  0  0  0  0  0  0  0
   -6.0050   23.7650  -30.9880 C   0  0  0  0  0  0  0  0  0  0  0  0
   -7.3480   23.4160  -31.0990 C   0  0  0  0  0  0  0  0  0  0  0  0
   -7.3510   22.1600  -31.6630 C   0  0  0  0  0  0  0  0  0  0  0  0
   -8.4180   21.3240  -31.9740 C   0  0  0  0  0  0  0  0  0  0  0  0
   -8.1280   20.0580  -32.5070 C   0  0  0  0  0  0  0  0  0  0  0  0
   -6.7860   19.6510  -32.7270 C   0  0  0  0  0  0  0  0  0  0  0  0
   -6.4860   18.2650  -33.2370 C   0  0  0  0  0  0  0  0  0  0  0  0
   -6.1460   18.3020  -34.5790 F   0  0  0  0  0  0  0  0  0  0  0  0
   -5.4310   17.7050  -32.5390 F   0  0  0  0  0  0  0  0  0  0  0  0
   -7.6050   17.4690  -33.0790 F   0  0  0  0  0  0  0  0  0  0  0  0
   -5.7290   20.5210  -32.3710 C   0  0  0  0  0  0  0  0  0  0  0  0
   -6.0470   21.7870  -31.8630 C   0  0  0  0  0  0  0  0  0  0  0  0
   -5.2070   22.7610  -31.4480 N   0  0  0  0  0  0  0  0  0  0  0  0
   -3.7730   22.6940  -31.4020 C   0  0  0  0  0  0  0  0  0  0  0  0
   -3.1220   22.4290  -32.4490 O   0  0  0  0  0  0  0  0  0  0  0  0
   -3.1030   22.9230  -30.1940 O   0  0  0  0  0  0  0  0  0  0  0  0
   -1.6880   23.0610  -30.0970 C   0  0  0  0  0  0  0  0  0  0  0  0
   -1.3380   24.3060  -29.3460 C   0  0  0  0  0  0  0  0  0  0  0  0
   -2.1110   25.2980  -29.3670 O   0  0  0  0  0  0  0  0  0  0  0  0
   -0.1390   24.3800  -28.6480 O   0  0  0  0  0  0  0  0  0  0  0  0
   -3.8660   26.3900  -30.2100 H   0  0  0  0  0  0  0  0  0  0  0  0
   -3.5030   24.9210  -31.1760 H   0  0  0  0  0  0  0  0  0  0  0  0
   -8.2204   24.0156  -30.8000 H   0  0  0  0  0  0  0  0  0  0  0  0
   -9.4569   21.6448  -31.8075 H   0  0  0  0  0  0  0  0  0  0  0  0
   -8.9512   19.3727  -32.7573 H   0  0  0  0  0  0  0  0  0  0  0  0
   -4.6806   20.2102  -32.4904 H   0  0  0  0  0  0  0  0  0  0  0  0
   -1.2739   22.1898  -29.5683 H   0  0  0  0  0  0  0  0  0  0  0  0
   -1.2644   23.1234  -31.1102 H   0  0  0  0  0  0  0  0  0  0  0  0
  1  2  1  0
  2  3  2  0
  2  4  1  0
  4  5  2  0
  5  6  1  0
  6  7  2  0
  7  8  1  0
  8  9  2  0
  9 10  1  0
 10 11  1  0
 10 12  1  0
 10 13  1  0
  9 14  1  0
 14 15  2  0
 15 16  1  0
 16 17  1  0
 17 18  2  0
 17 19  1  0
 19 20  1  0
 20 21  1  0
 21 22  2  0
 21 23  1  0
 16  4  1  0
 15  6  1  0
  1 24  1  0
  1 25  1  0
  5 26  1  0
  7 27  1  0
  8 28  1  0
 14 29  1  0
 20 30  1  0
 20 31  1  0
M  CHG  1  23  -1
M  END
>  <UniqueID>  (43) 
43

>  <SMILES>  (43) 
NC(=O)c1cc2ccc(C(F)(F)F)cc2n1C(=O)OCC(=O)[O-]

>  <Energy>  (43) 
69.09420367381975

>  <Genealogy>  (43) 
NC(=O)c1cc2ccc(C(F)(F)F)cc2n1C(=O)OCC(=O)[O-] (protonated)
NC(=O)c1cc2ccc(C(F)(F)F)cc2n1C(=O)OCC(=O)[O-] (3D coordinates assigned)
NC(=O)c1cc2ccc(C(F)(F)F)cc2n1C(=O)OCC(=O)[O-] (optimized conformer: 69.09420367381975 kcal/mol)

>  <smiles>  (43) 
NC(=O)c1cc2ccc(C(F)(F)F)cc2n1C(=O)OCC(=O)O

>  <score_type>  (43) 
oracle

>  <origin>  (43) 
adg

>  <m_score__min__energy>  (43) 
-9.7899999999999991

>  <m_primary>  (43) 
energy

$$$$
43:0
     RDKit          3D

 37 39  0  0  0  0  0  0  0  0999 V2000
   -7.5510   22.1180  -32.3180 C   0  0  0  0  0  0  0  0  0  0  0  0
   -7.5890   20.6190  -32.1870 C   0  0  0  0  0  0  0  0  0  0  0  0
   -8.6160   20.0240  -31.4350 C   0  0  0  0  0  0  0  0  0  0  0  0
   -8.6680   18.6740  -31.2780 N   0  0  0  0  0  0  0  0  0  0  0  0
   -7.7330   17.8590  -31.8310 C   0  0  0  0  0  0  0  0  0  0  0  0
   -6.6890   18.3970  -32.5810 C   0  0  0  0  0  0  0  0  0  0  0  0
   -6.6040   19.7860  -32.7730 C   0  0  0  0  0  0  0  0  0  0  0  0
   -5.4390   20.3410  -33.5660 C   0  0  0  0  0  0  0  0  0  0  0  0
   -4.3180   20.7780  -32.6580 C   0  0  0  0  0  0  0  0  0  0  0  0
   -3.1590   19.9740  -32.5160 C   0  0  0  0  0  0  0  0  0  0  0  0
   -2.1030   20.3790  -31.6810 C   0  0  0  0  0  0  0  0  0  0  0  0
   -2.2400   21.5820  -30.9940 C   0  0  0  0  0  0  0  0  0  0  0  0
   -1.3650   22.2190  -30.1450 C   0  0  0  0  0  0  0  0  0  0  0  0
   -2.0150   23.3880  -29.7540 C   0  0  0  0  0  0  0  0  0  0  0  0
   -1.4590   24.3340  -28.7640 C   0  0  0  0  0  0  0  0  0  0  0  0
   -1.3120   25.7160  -29.0750 N   0  0  0  0  0  0  0  0  0  0  0  0
   -1.1580   23.9250  -27.6120 O   0  0  0  0  0  0  0  0  0  0  0  0
   -3.2420   23.4750  -30.3440 N   0  0  0  0  0  0  0  0  0  0  0  0
   -4.1740   24.5660  -30.2770 C   0  0  0  0  0  0  0  0  0  0  0  0
   -3.9140   25.6600  -30.8420 O   0  0  0  0  0  0  0  0  0  0  0  0
   -5.3570   24.4330  -29.5620 O   0  0  0  0  0  0  0  0  0  0  0  0
   -3.3650   22.3580  -31.0980 C   0  0  0  0  0  0  0  0  0  0  0  0
   -4.4240   21.9870  -31.9350 C   0  0  0  0  0  0  0  0  0  0  0  0
   -7.5395   22.5734  -31.3168 H   0  0  0  0  0  0  0  0  0  0  0  0
   -6.6450   22.4153  -32.8665 H   0  0  0  0  0  0  0  0  0  0  0  0
   -8.4407   22.4608  -32.8665 H   0  0  0  0  0  0  0  0  0  0  0  0
   -9.3857   20.6564  -30.9685 H   0  0  0  0  0  0  0  0  0  0  0  0
   -9.4410   18.2550  -30.7140 H   0  0  0  0  0  0  0  0  0  0  0  0
   -7.8000   16.7706  -31.6864 H   0  0  0  0  0  0  0  0  0  0  0  0
   -5.9310   17.7336  -33.0230 H   0  0  0  0  0  0  0  0  0  0  0  0
   -5.0656   19.5622  -34.2472 H   0  0  0  0  0  0  0  0  0  0  0  0
   -5.7895   21.2169  -34.1317 H   0  0  0  0  0  0  0  0  0  0  0  0
   -3.0852   19.0235  -33.0648 H   0  0  0  0  0  0  0  0  0  0  0  0
   -1.1969   19.7646  -31.5739 H   0  0  0  0  0  0  0  0  0  0  0  0
   -0.3647   21.8781  -29.8396 H   0  0  0  0  0  0  0  0  0  0  0  0
   -1.2380   26.0390  -30.0660 H   0  0  0  0  0  0  0  0  0  0  0  0
   -5.3175   22.6219  -32.0275 H   0  0  0  0  0  0  0  0  0  0  0  0
  1  2  1  0
  2  3  2  0
  3  4  1  0
  4  5  2  0
  5  6  1  0
  6  7  2  0
  7  8  1  0
  8  9  1  0
  9 10  2  0
 10 11  1  0
 11 12  2  0
 12 13  1  0
 13 14  2  0
 14 15  1  0
 15 16  1  0
 15 17  2  0
 14 18  1  0
 18 19  1  0
 19 20  2  0
 19 21  1  0
 18 22  1  0
 22 23  2  0
  7  2  1  0
 23  9  1  0
 22 12  1  0
  1 24  1  0
  1 25  1  0
  1 26  1  0
  3 27  1  0
  4 28  1  0
  5 29  1  0
  6 30  1  0
  8 31  1  0
  8 32  1  0
 10 33  1  0
 11 34  1  0
 13 35  1  0
 16 36  1  0
 23 37  1  0
M  CHG  3   4   1  16  -1  21  -1
M  END
>  <UniqueID>  (44) 
44

>  <SMILES>  (44) 
Cc1c[nH+]ccc1Cc1ccc2cc(C([NH-])=O)n(C(=O)[O-])c2c1

>  <Energy>  (44) 
79.39566575202534

>  <Genealogy>  (44) 
Cc1c[nH+]ccc1Cc1ccc2cc(C([NH-])=O)n(C(=O)[O-])c2c1 (protonated)
Cc1c[nH+]ccc1Cc1ccc2cc(C([NH-])=O)n(C(=O)[O-])c2c1 (3D coordinates assigned)
Cc1c[nH+]ccc1Cc1ccc2cc(C([NH-])=O)n(C(=O)[O-])c2c1 (optimized conformer: 79.39566575202534 kcal/mol)

>  <smiles>  (44) 
Cc1cnccc1Cc1ccc2cc(C(N)=O)n(C(=O)O)c2c1

>  <score_type>  (44) 
oracle

>  <origin>  (44) 
adg

>  <m_score__min__energy>  (44) 
-11.890000000000001

>  <m_primary>  (44) 
energy

$$$$
44:0
     RDKit          3D

 32 34  0  0  0  0  0  0  0  0999 V2000
   -5.3140   26.4440  -30.4720 N   0  0  0  0  0  0  0  0  0  0  0  0
   -6.2240   25.4440  -30.0090 C   0  0  0  0  0  0  0  0  0  0  0  0
   -6.9240   25.6770  -28.9880 O   0  0  0  0  0  0  0  0  0  0  0  0
   -6.3750   24.1650  -30.7370 C   0  0  0  0  0  0  0  0  0  0  0  0
   -7.6040   23.6220  -31.1050 C   0  0  0  0  0  0  0  0  0  0  0  0
   -7.3100   22.3990  -31.6630 C   0  0  0  0  0  0  0  0  0  0  0  0
   -8.1590   21.4370  -32.2010 C   0  0  0  0  0  0  0  0  0  0  0  0
   -7.5810   20.2720  -32.7310 C   0  0  0  0  0  0  0  0  0  0  0  0
   -6.1730   20.0910  -32.7230 C   0  0  0  0  0  0  0  0  0  0  0  0
   -5.5790   18.8580  -33.2910 C   0  0  0  0  0  0  0  0  0  0  0  0
   -6.3190   17.6620  -33.3020 C   0  0  0  0  0  0  0  0  0  0  0  0
   -5.7670   16.4910  -33.8290 C   0  0  0  0  0  0  0  0  0  0  0  0
   -4.4730   16.5020  -34.3530 C   0  0  0  0  0  0  0  0  0  0  0  0
   -3.7280   17.6840  -34.3540 C   0  0  0  0  0  0  0  0  0  0  0  0
   -4.2750   18.8590  -33.8280 C   0  0  0  0  0  0  0  0  0  0  0  0
   -3.5440   20.0020  -33.8770 F   0  0  0  0  0  0  0  0  0  0  0  0
   -5.3460   21.0900  -32.1590 C   0  0  0  0  0  0  0  0  0  0  0  0
   -5.9510   22.2340  -31.6230 C   0  0  0  0  0  0  0  0  0  0  0  0
   -5.3610   23.3110  -31.0560 N   0  0  0  0  0  0  0  0  0  0  0  0
   -3.9490   23.5360  -30.9030 C   0  0  0  0  0  0  0  0  0  0  0  0
   -3.1280   22.6010  -31.1010 O   0  0  0  0  0  0  0  0  0  0  0  0
   -3.4720   24.7930  -30.5500 O   0  0  0  0  0  0  0  0  0  0  0  0
   -5.2440   27.3590  -29.9730 H   0  0  0  0  0  0  0  0  0  0  0  0
   -4.6800   26.2680  -31.2810 H   0  0  0  0  0  0  0  0  0  0  0  0
   -8.5983   24.0747  -30.9768 H   0  0  0  0  0  0  0  0  0  0  0  0
   -9.2490   21.5843  -32.2109 H   0  0  0  0  0  0  0  0  0  0  0  0
   -8.2270   19.4904  -33.1574 H   0  0  0  0  0  0  0  0  0  0  0  0
   -7.3399   17.6481  -32.8927 H   0  0  0  0  0  0  0  0  0  0  0  0
   -6.3527   15.5599  -33.8309 H   0  0  0  0  0  0  0  0  0  0  0  0
   -4.0395   15.5790  -34.7655 H   0  0  0  0  0  0  0  0  0  0  0  0
   -2.7094   17.6906  -34.7692 H   0  0  0  0  0  0  0  0  0  0  0  0
   -4.2526   20.9714  -32.1416 H   0  0  0  0  0  0  0  0  0  0  0  0
  1  2  1  0
  2  3  2  0
  2  4  1  0
  4  5  2  0
  5  6  1  0
  6  7  2  0
  7  8  1  0
  8  9  2  0
  9 10  1  0
 10 11  2  0
 11 12  1  0
 12 13  2  0
 13 14  1  0
 14 15  2  0
 15 16  1  0
  9 17  1  0
 17 18  2  0
 18 19  1  0
 19 20  1  0
 20 21  2  0
 20 22  1  0
 19  4  1  0
 18  6  1  0
 15 10  1  0
  1 23  1  0
  1 24  1  0
  5 25  1  0
  7 26  1  0
  8 27  1  0
 11 28  1  0
 12 29  1  0
 13 30  1  0
 14 31  1  0
 17 32  1  0
M  CHG  1  22  -1
M  END
>  <UniqueID>  (45) 
45

>  <SMILES>  (45) 
NC(=O)c1cc2ccc(-c3ccccc3F)cc2n1C(=O)[O-]

>  <Energy>  (45) 
80.33175941345559

>  <Genealogy>  (45) 
NC(=O)c1cc2ccc(-c3ccccc3F)cc2n1C(=O)[O-] (protonated)
NC(=O)c1cc2ccc(-c3ccccc3F)cc2n1C(=O)[O-] (3D coordinates assigned)
NC(=O)c1cc2ccc(-c3ccccc3F)cc2n1C(=O)[O-] (optimized conformer: 80.33175941345559 kcal/mol)

>  <smiles>  (45) 
NC(=O)c1cc2ccc(-c3ccccc3F)cc2n1C(=O)O

>  <score_type>  (45) 
oracle

>  <origin>  (45) 
adg

>  <m_score__min__energy>  (45) 
-9.9199999999999999

>  <m_primary>  (45) 
energy

$$$$
45:0
     RDKit          3D

 57 59  0  0  0  0  0  0  0  0999 V2000
   -5.6830   25.8680  -30.0980 C   0  0  0  0  0  0  0  0  0  0  0  0
   -4.9140   24.8710  -30.8650 N   0  0  0  0  0  0  0  0  0  0  0  0
   -3.9960   24.1580  -29.9620 C   0  0  0  0  0  0  0  0  0  0  0  0
   -5.8130   23.9140  -31.5500 C   0  0  0  0  0  0  0  0  0  0  0  0
   -7.2270   23.9340  -30.9420 C   0  0  0  0  0  0  0  0  0  0  0  0
   -7.9150   22.5470  -30.9290 C   0  0  1  0  0  0  0  0  0  0  0  0
   -9.0560   22.5100  -31.9680 C   0  0  0  0  0  0  0  0  0  0  0  0
   -9.8420   21.1820  -31.9350 C   0  0  0  0  0  0  0  0  0  0  0  0
   -9.0360   20.0160  -31.3430 C   0  0  0  0  0  0  0  0  0  0  0  0
   -7.6090   20.1750  -31.6500 N   0  0  0  0  0  0  0  0  0  0  0  0
   -6.8910   19.1690  -32.3920 C   0  0  0  0  0  0  0  0  0  0  0  0
   -7.5420   17.9710  -32.7850 C   0  0  0  0  0  0  0  0  0  0  0  0
   -6.8520   16.9790  -33.5020 C   0  0  0  0  0  0  0  0  0  0  0  0
   -5.5100   17.2020  -33.7970 C   0  0  0  0  0  0  0  0  0  0  0  0
   -4.6150   16.4260  -34.4970 C   0  0  0  0  0  0  0  0  0  0  0  0
   -3.4200   17.1470  -34.4990 C   0  0  0  0  0  0  0  0  0  0  0  0
   -2.1550   16.6730  -35.1110 C   0  0  0  0  0  0  0  0  0  0  0  0
   -0.8980   17.2430  -34.7380 N   0  0  0  0  0  0  0  0  0  0  0  0
   -2.1760   15.7650  -35.9830 O   0  0  0  0  0  0  0  0  0  0  0  0
   -3.5720   18.3150  -33.8130 N   0  0  0  0  0  0  0  0  0  0  0  0
   -2.5960   19.3480  -33.6210 C   0  0  0  0  0  0  0  0  0  0  0  0
   -1.8910   19.7310  -34.5930 O   0  0  0  0  0  0  0  0  0  0  0  0
   -2.3810   19.9580  -32.2630 C   0  0  0  0  0  0  0  0  0  0  0  0
   -2.9780   21.3630  -32.1770 C   0  0  0  0  0  0  0  0  0  0  0  0
   -3.9290   21.3940  -31.1750 F   0  0  0  0  0  0  0  0  0  0  0  0
   -1.9860   22.2840  -31.8820 F   0  0  0  0  0  0  0  0  0  0  0  0
   -3.5800   21.7060  -33.3780 F   0  0  0  0  0  0  0  0  0  0  0  0
   -4.8580   18.3390  -33.4010 C   0  0  0  0  0  0  0  0  0  0  0  0
   -5.5250   19.3540  -32.7070 C   0  0  0  0  0  0  0  0  0  0  0  0
   -6.9180   21.3990  -31.2180 C   0  0  0  0  0  0  0  0  0  0  0  0
   -5.5447   25.6887  -29.0215 H   0  0  0  0  0  0  0  0  0  0  0  0
   -5.3278   26.8781  -30.3501 H   0  0  0  0  0  0  0  0  0  0  0  0
   -6.7502   25.7810  -30.3501 H   0  0  0  0  0  0  0  0  0  0  0  0
   -4.2698   24.3707  -28.9181 H   0  0  0  0  0  0  0  0  0  0  0  0
   -4.0670   23.0759  -30.1465 H   0  0  0  0  0  0  0  0  0  0  0  0
   -2.9651   24.4946  -30.1465 H   0  0  0  0  0  0  0  0  0  0  0  0
   -5.8778   24.1837  -32.6145 H   0  0  0  0  0  0  0  0  0  0  0  0
   -5.3986   22.9025  -31.4268 H   0  0  0  0  0  0  0  0  0  0  0  0
   -7.1551   24.2964  -29.9059 H   0  0  0  0  0  0  0  0  0  0  0  0
   -7.8408   24.5930  -31.5737 H   0  0  0  0  0  0  0  0  0  0  0  0
   -8.3217   22.3955  -29.9182 H   0  0  0  0  0  0  0  0  0  0  0  0
   -9.7509   23.3366  -31.7586 H   0  0  0  0  0  0  0  0  0  0  0  0
   -8.6030   22.6058  -32.9658 H   0  0  0  0  0  0  0  0  0  0  0  0
  -10.7467   21.3263  -31.3261 H   0  0  0  0  0  0  0  0  0  0  0  0
  -10.0819   20.9183  -32.9756 H   0  0  0  0  0  0  0  0  0  0  0  0
   -9.1725   19.9977  -30.2517 H   0  0  0  0  0  0  0  0  0  0  0  0
   -9.3939   19.0737  -31.7835 H   0  0  0  0  0  0  0  0  0  0  0  0
   -8.5997   17.8170  -32.5252 H   0  0  0  0  0  0  0  0  0  0  0  0
   -7.3566   16.0549  -33.8203 H   0  0  0  0  0  0  0  0  0  0  0  0
   -4.8018   15.4447  -34.9577 H   0  0  0  0  0  0  0  0  0  0  0  0
   -0.8210   17.9530  -33.9790 H   0  0  0  0  0  0  0  0  0  0  0  0
   -0.0210   16.9220  -35.2060 H   0  0  0  0  0  0  0  0  0  0  0  0
   -2.8590   19.3199  -31.5051 H   0  0  0  0  0  0  0  0  0  0  0  0
   -1.2978   20.0327  -32.0866 H   0  0  0  0  0  0  0  0  0  0  0  0
   -4.9992   20.2745  -32.4132 H   0  0  0  0  0  0  0  0  0  0  0  0
   -6.3483   21.1825  -30.3023 H   0  0  0  0  0  0  0  0  0  0  0  0
   -6.2502   21.7210  -32.0306 H   0  0  0  0  0  0  0  0  0  0  0  0
  1  2  1  0
  2  3  1  0
  2  4  1  0
  4  5  1  0
  5  6  1  0
  6  7  1  0
  7  8  1  0
  8  9  1  0
  9 10  1  0
 10 11  1  0
 11 12  2  0
 12 13  1  0
 13 14  2  0
 14 15  1  0
 15 16  2  0
 16 17  1  0
 17 18  1  0
 17 19  2  0
 16 20  1  0
 20 21  1  0
 21 22  2  0
 21 23  1  0
 23 24  1  0
 24 25  1  0
 24 26  1  0
 24 27  1  0
 20 28  1  0
 28 29  2  0
 10 30  1  0
 30  6  1  0
 29 11  1  0
 28 14  1  0
  1 31  1  0
  1 32  1  0
  1 33  1  0
  3 34  1  0
  3 35  1  0
  3 36  1  0
  4 37  1  0
  4 38  1  0
  5 39  1  0
  5 40  1  0
  6 41  1  1
  7 42  1  0
  7 43  1  0
  8 44  1  0
  8 45  1  0
  9 46  1  0
  9 47  1  0
 12 48  1  0
 13 49  1  0
 15 50  1  0
 18 51  1  0
 18 52  1  0
 23 53  1  0
 23 54  1  0
 29 55  1  0
 30 56  1  0
 30 57  1  0
M  END
>  <UniqueID>  (46) 
46

>  <SMILES>  (46) 
CN(C)CC[C@H]1CCCN(c2ccc3cc(C(N)=O)n(C(=O)CC(F)(F)F)c3c2)C1

>  <Energy>  (46) 
98.0742564874196

>  <Genealogy>  (46) 
CN(C)CC[C@H]1CCCN(c2ccc3cc(C(N)=O)n(C(=O)CC(F)(F)F)c3c2)C1 (chirality)
CN(C)CC[C@H]1CCCN(c2ccc3cc(C(N)=O)n(C(=O)CC(F)(F)F)c3c2)C1 (3D coordinates assigned)
CN(C)CC[C@H]1CCCN(c2ccc3cc(C(N)=O)n(C(=O)CC(F)(F)F)c3c2)C1 (nonaromatic ring conformer: 98.0742564874196 kcal/mol)

>  <smiles>  (46) 
CN(C)CCC1CCCN(c2ccc3cc(C(N)=O)n(C(=O)CC(F)(F)F)c3c2)C1

>  <score_type>  (46) 
oracle

>  <origin>  (46) 
adg

>  <m_score__min__energy>  (46) 
-9.3300000000000001

>  <m_primary>  (46) 
energy

$$$$
46:0
     RDKit          3D

 54 57  0  0  0  0  0  0  0  0999 V2000
   -3.9230   25.3070  -30.8630 N   0  0  0  0  0  0  0  0  0  0  0  0
   -5.2570   25.0600  -30.4290 C   0  0  0  0  0  0  0  0  0  0  0  0
   -5.8600   25.9390  -29.7550 O   0  0  0  0  0  0  0  0  0  0  0  0
   -5.9630   23.8210  -30.8150 C   0  0  0  0  0  0  0  0  0  0  0  0
   -7.3270   23.6190  -30.6140 C   0  0  0  0  0  0  0  0  0  0  0  0
   -7.6040   22.4010  -31.1880 C   0  0  0  0  0  0  0  0  0  0  0  0
   -8.8020   21.6940  -31.2550 C   0  0  0  0  0  0  0  0  0  0  0  0
   -8.7890   20.4340  -31.8770 C   0  0  0  0  0  0  0  0  0  0  0  0
   -7.5910   19.9100  -32.4220 C   0  0  0  0  0  0  0  0  0  0  0  0
   -7.5800   18.5470  -33.0620 C   0  0  0  0  0  0  0  0  0  0  0  0
   -6.4690   17.6770  -32.5500 C   0  0  0  0  0  0  0  0  0  0  0  0
   -6.3280   17.4690  -31.3130 O   0  0  0  0  0  0  0  0  0  0  0  0
   -5.5430   17.1150  -33.4850 N   0  0  0  0  0  0  0  0  0  0  0  0
   -5.7750   15.8740  -34.2160 C   0  0  0  0  0  0  0  0  0  0  0  0
   -5.3230   14.6660  -33.3920 C   0  0  0  0  0  0  0  0  0  0  0  0
   -4.7580   15.0700  -32.1750 O   0  0  0  0  0  0  0  0  0  0  0  0
   -6.3920   20.6490  -32.3220 C   0  0  0  0  0  0  0  0  0  0  0  0
   -6.4360   21.9060  -31.7080 C   0  0  0  0  0  0  0  0  0  0  0  0
   -5.4170   22.7650  -31.4820 N   0  0  0  0  0  0  0  0  0  0  0  0
   -4.0260   22.5290  -31.7540 C   0  0  0  0  0  0  0  0  0  0  0  0
   -3.6430   22.2950  -32.9330 O   0  0  0  0  0  0  0  0  0  0  0  0
   -3.1080   22.5220  -30.6980 O   0  0  0  0  0  0  0  0  0  0  0  0
   -2.5310   21.3330  -30.1560 C   0  0  1  0  0  0  0  0  0  0  0  0
   -1.1110   20.8500  -31.1220 S   0  0  0  0  0  0  0  0  0  0  0  0
   -2.1030   21.5590  -28.7180 C   0  0  0  0  0  0  0  0  0  0  0  0
   -2.1640   20.4880  -27.8090 C   0  0  0  0  0  0  0  0  0  0  0  0
   -1.7580   20.6780  -26.4860 C   0  0  0  0  0  0  0  0  0  0  0  0
   -1.7840   19.7140  -25.6780 O   0  0  0  0  0  0  0  0  0  0  0  0
   -1.3360   21.8660  -26.0750 O   0  0  0  0  0  0  0  0  0  0  0  0
   -1.2900   22.9280  -26.8740 C   0  0  0  0  0  0  0  0  0  0  0  0
   -0.8510   24.1510  -26.3560 C   0  0  0  0  0  0  0  0  0  0  0  0
   -0.8190   25.2930  -27.1610 C   0  0  0  0  0  0  0  0  0  0  0  0
   -0.3730   26.4960  -26.6130 O   0  0  0  0  0  0  0  0  0  0  0  0
   -1.2420   25.2150  -28.4970 C   0  0  0  0  0  0  0  0  0  0  0  0
   -1.2380   26.3460  -29.3020 O   0  0  0  0  0  0  0  0  0  0  0  0
   -1.6770   23.9960  -29.0280 C   0  0  0  0  0  0  0  0  0  0  0  0
   -1.6900   22.8280  -28.2320 C   0  0  0  0  0  0  0  0  0  0  0  0
   -3.3190   24.5290  -31.2100 H   0  0  0  0  0  0  0  0  0  0  0  0
   -8.0325   24.2915  -30.1041 H   0  0  0  0  0  0  0  0  0  0  0  0
   -9.7297   22.1090  -30.8341 H   0  0  0  0  0  0  0  0  0  0  0  0
   -9.7182   19.8488  -31.9413 H   0  0  0  0  0  0  0  0  0  0  0  0
   -8.5398   18.0520  -32.8529 H   0  0  0  0  0  0  0  0  0  0  0  0
   -7.4222   18.6875  -34.1415 H   0  0  0  0  0  0  0  0  0  0  0  0
   -6.8488   15.7798  -34.4352 H   0  0  0  0  0  0  0  0  0  0  0  0
   -5.1948   15.9010  -35.1501 H   0  0  0  0  0  0  0  0  0  0  0  0
   -6.1926   14.0236  -33.1890 H   0  0  0  0  0  0  0  0  0  0  0  0
   -4.5624   14.1160  -33.9655 H   0  0  0  0  0  0  0  0  0  0  0  0
   -4.9020   16.0510  -32.1050 H   0  0  0  0  0  0  0  0  0  0  0  0
   -5.4472   20.2470  -32.7167 H   0  0  0  0  0  0  0  0  0  0  0  0
   -3.2878   20.5352  -30.1861 H   0  0  0  0  0  0  0  0  0  0  0  0
   -2.5300   19.5044  -28.1384 H   0  0  0  0  0  0  0  0  0  0  0  0
   -0.5283   24.2144  -25.3063 H   0  0  0  0  0  0  0  0  0  0  0  0
   -0.3670   27.3590  -27.1420 H   0  0  0  0  0  0  0  0  0  0  0  0
   -2.0120   23.9460  -30.0746 H   0  0  0  0  0  0  0  0  0  0  0  0
  1  2  1  0
  2  3  2  0
  2  4  1  0
  4  5  2  0
  5  6  1  0
  6  7  2  0
  7  8  1  0
  8  9  2  0
  9 10  1  0
 10 11  1  0
 11 12  2  0
 11 13  1  0
 13 14  1  0
 14 15  1  0
 15 16  1  0
  9 17  1  0
 17 18  2  0
 18 19  1  0
 19 20  1  0
 20 21  2  0
 20 22  1  0
 22 23  1  0
 23 24  1  0
 23 25  1  0
 25 26  2  0
 26 27  1  0
 27 28  2  0
 27 29  1  0
 29 30  1  0
 30 31  2  0
 31 32  1  0
 32 33  1  0
 32 34  2  0
 34 35  1  0
 34 36  1  0
 36 37  2  0
 19  4  1  0
 37 25  1  0
 18  6  1  0
 37 30  1  0
  1 38  1  0
  5 39  1  0
  7 40  1  0
  8 41  1  0
 10 42  1  0
 10 43  1  0
 14 44  1  0
 14 45  1  0
 15 46  1  0
 15 47  1  0
 16 48  1  0
 17 49  1  0
 23 50  1  1
 26 51  1  0
 31 52  1  0
 33 53  1  0
 36 54  1  0
M  CHG  4   1  -1  13  -1  24  -1  35  -1
M  END
>  <UniqueID>  (47) 
47

>  <SMILES>  (47) 
[NH-]C(=O)c1cc2ccc(CC(=O)[N-]CCO)cc2n1C(=O)O[C@@H]([S-])c1cc(=O)oc2cc(O)c([O-])cc12

>  <Energy>  (47) 
100.01024980683017

>  <Genealogy>  (47) 
[NH-]C(=O)c1cc2ccc(CC(=O)[N-]CCO)cc2n1C(=O)OC([S-])c1cc(=O)oc2cc(O)c([O-])cc12 (protonated)
[NH-]C(=O)c1cc2ccc(CC(=O)[N-]CCO)cc2n1C(=O)O[C@@H]([S-])c1cc(=O)oc2cc(O)c([O-])cc12 (chirality)
[NH-]C(=O)c1cc2ccc(CC(=O)[N-]CCO)cc2n1C(=O)O[C@@H]([S-])c1cc(=O)oc2cc(O)c([O-])cc12 (3D coordinates assigned)
[NH-]C(=O)c1cc2ccc(CC(=O)[N-]CCO)cc2n1C(=O)O[C@@H]([S-])c1cc(=O)oc2cc(O)c([O-])cc12 (optimized conformer: 100.01024980683017 kcal/mol)

>  <smiles>  (47) 
NC(=O)c1cc2ccc(CC(=O)NCCO)cc2n1C(=O)OC(S)c1cc(=O)oc2cc(O)c(O)cc12

>  <score_type>  (47) 
oracle

>  <origin>  (47) 
adg

>  <m_score__min__energy>  (47) 
-14.44

>  <m_primary>  (47) 
energy

$$$$
47:0
     RDKit          3D

 34 35  0  0  0  0  0  0  0  0999 V2000
   -4.1220   17.0910  -35.3130 C   0  0  0  0  0  0  0  0  0  0  0  0
   -4.8180   17.3820  -34.1070 O   0  0  0  0  0  0  0  0  0  0  0  0
   -5.8760   18.2950  -34.0500 C   0  0  0  0  0  0  0  0  0  0  0  0
   -6.0710   19.1140  -34.9890 O   0  0  0  0  0  0  0  0  0  0  0  0
   -6.8120   18.2620  -32.8850 C   0  0  0  0  0  0  0  0  0  0  0  0
   -7.0440   19.6560  -32.3740 C   0  0  0  0  0  0  0  0  0  0  0  0
   -8.3640   20.1630  -32.2650 C   0  0  0  0  0  0  0  0  0  0  0  0
   -8.5920   21.4790  -31.8330 C   0  0  0  0  0  0  0  0  0  0  0  0
   -7.4860   22.2640  -31.5200 C   0  0  0  0  0  0  0  0  0  0  0  0
   -7.4180   23.5760  -31.1110 C   0  0  0  0  0  0  0  0  0  0  0  0
   -6.0590   23.8460  -30.9640 C   0  0  0  0  0  0  0  0  0  0  0  0
   -5.5350   25.1320  -30.4650 C   0  0  0  0  0  0  0  0  0  0  0  0
   -4.2020   25.5510  -30.7610 N   0  0  0  0  0  0  0  0  0  0  0  0
   -6.2560   25.8490  -29.7210 O   0  0  0  0  0  0  0  0  0  0  0  0
   -5.3150   22.7500  -31.2860 N   0  0  0  0  0  0  0  0  0  0  0  0
   -3.8840   22.6480  -31.3820 C   0  0  0  0  0  0  0  0  0  0  0  0
   -3.2360   21.8960  -32.5020 C   0  0  0  0  0  0  0  0  0  0  0  0
   -3.1580   23.1760  -30.4970 O   0  0  0  0  0  0  0  0  0  0  0  0
   -6.2040   21.7880  -31.6170 C   0  0  0  0  0  0  0  0  0  0  0  0
   -5.9460   20.4870  -32.0610 C   0  0  0  0  0  0  0  0  0  0  0  0
   -3.1314   16.6768  -35.0739 H   0  0  0  0  0  0  0  0  0  0  0  0
   -4.6947   16.3569  -35.8989 H   0  0  0  0  0  0  0  0  0  0  0  0
   -4.0017   18.0142  -35.8989 H   0  0  0  0  0  0  0  0  0  0  0  0
   -7.7710   17.8250  -33.2002 H   0  0  0  0  0  0  0  0  0  0  0  0
   -6.3702   17.6519  -32.0834 H   0  0  0  0  0  0  0  0  0  0  0  0
   -9.2177   19.5185  -32.5216 H   0  0  0  0  0  0  0  0  0  0  0  0
   -9.6134   21.8777  -31.7445 H   0  0  0  0  0  0  0  0  0  0  0  0
   -8.2577   24.2650  -30.9371 H   0  0  0  0  0  0  0  0  0  0  0  0
   -3.5260   24.9080  -31.2290 H   0  0  0  0  0  0  0  0  0  0  0  0
   -3.8620   26.4830  -30.4370 H   0  0  0  0  0  0  0  0  0  0  0  0
   -2.5706   21.1238  -32.0885 H   0  0  0  0  0  0  0  0  0  0  0  0
   -4.0109   21.4194  -33.1203 H   0  0  0  0  0  0  0  0  0  0  0  0
   -2.6502   22.5920  -33.1203 H   0  0  0  0  0  0  0  0  0  0  0  0
   -4.9140   20.1204  -32.1638 H   0  0  0  0  0  0  0  0  0  0  0  0
  1  2  1  0
  2  3  1  0
  3  4  2  0
  3  5  1  0
  5  6  1  0
  6  7  2  0
  7  8  1  0
  8  9  2  0
  9 10  1  0
 10 11  2  0
 11 12  1  0
 12 13  1  0
 12 14  2  0
 11 15  1  0
 15 16  1  0
 16 17  1  0
 16 18  2  0
 15 19  1  0
 19 20  2  0
 20  6  1  0
 19  9  1  0
  1 21  1  0
  1 22  1  0
  1 23  1  0
  5 24  1  0
  5 25  1  0
  7 26  1  0
  8 27  1  0
 10 28  1  0
 13 29  1  0
 13 30  1  0
 17 31  1  0
 17 32  1  0
 17 33  1  0
 20 34  1  0
M  END
>  <UniqueID>  (48) 
48

>  <SMILES>  (48) 
COC(=O)Cc1ccc2cc(C(N)=O)n(C(C)=O)c2c1

>  <Energy>  (48) 
69.159267141228

>  <Genealogy>  (48) 
COC(=O)Cc1ccc2cc(C(N)=O)n(C(C)=O)c2c1 (3D coordinates assigned)
COC(=O)Cc1ccc2cc(C(N)=O)n(C(C)=O)c2c1 (optimized conformer: 69.159267141228 kcal/mol)

>  <smiles>  (48) 
COC(=O)Cc1ccc2cc(C(N)=O)n(C(C)=O)c2c1

>  <score_type>  (48) 
oracle

>  <origin>  (48) 
adg

>  <m_score__min__energy>  (48) 
-8.1400000000000006

>  <m_primary>  (48) 
energy

$$$$
48:0
     RDKit          3D

 42 44  0  0  0  0  0  0  0  0999 V2000
   -6.5640   23.1260  -32.1800 C   0  0  0  0  0  0  0  0  0  0  0  0
   -6.5640   22.7000  -30.9140 C   0  0  0  0  0  0  0  0  0  0  0  0
   -6.1870   23.6070  -29.7830 C   0  0  0  0  0  0  0  0  0  0  0  0
   -4.8320   23.3760  -29.4140 O   0  0  0  0  0  0  0  0  0  0  0  0
   -3.7530   23.9040  -30.1310 C   0  0  0  0  0  0  0  0  0  0  0  0
   -3.8240   25.0610  -30.6270 O   0  0  0  0  0  0  0  0  0  0  0  0
   -2.5710   23.1130  -30.3220 N   0  0  0  0  0  0  0  0  0  0  0  0
   -1.3430   23.3060  -29.7620 C   0  0  0  0  0  0  0  0  0  0  0  0
   -0.9260   24.4830  -28.9740 C   0  0  0  0  0  0  0  0  0  0  0  0
   -1.7050   25.6760  -28.9710 N   0  0  0  0  0  0  0  0  0  0  0  0
    0.1600   24.4540  -28.3340 O   0  0  0  0  0  0  0  0  0  0  0  0
   -0.4820   22.2650  -30.1020 C   0  0  0  0  0  0  0  0  0  0  0  0
   -1.2250   21.4260  -30.9020 C   0  0  0  0  0  0  0  0  0  0  0  0
   -0.8720   20.2290  -31.5060 C   0  0  0  0  0  0  0  0  0  0  0  0
   -1.8490   19.5500  -32.2510 C   0  0  0  0  0  0  0  0  0  0  0  0
   -3.1730   20.0670  -32.3870 C   0  0  0  0  0  0  0  0  0  0  0  0
   -4.1870   19.3490  -33.1570 N   0  0  0  0  0  0  0  0  0  0  0  0
   -3.7640   18.4570  -34.2590 C   0  0  0  0  0  0  0  0  0  0  0  0
   -4.9230   17.7080  -34.9200 C   0  0  0  0  0  0  0  0  0  0  0  0
   -6.0600   18.5310  -35.0270 O   0  0  0  0  0  0  0  0  0  0  0  0
   -6.5670   18.7560  -33.7340 C   0  0  0  0  0  0  0  0  0  0  0  0
   -5.6170   19.6370  -32.9180 C   0  0  0  0  0  0  0  0  0  0  0  0
   -3.4810   21.2970  -31.7380 C   0  0  0  0  0  0  0  0  0  0  0  0
   -2.4790   21.9580  -31.0190 C   0  0  0  0  0  0  0  0  0  0  0  0
   -6.8452   22.4388  -32.9916 H   0  0  0  0  0  0  0  0  0  0  0  0
   -6.2828   24.1641  -32.4110 H   0  0  0  0  0  0  0  0  0  0  0  0
   -6.8473   21.6595  -30.6970 H   0  0  0  0  0  0  0  0  0  0  0  0
   -6.3066   24.6540  -30.0985 H   0  0  0  0  0  0  0  0  0  0  0  0
   -6.8390   23.4042  -28.9206 H   0  0  0  0  0  0  0  0  0  0  0  0
   -2.7040   25.6670  -29.2770 H   0  0  0  0  0  0  0  0  0  0  0  0
    0.5673   22.1400  -29.7966 H   0  0  0  0  0  0  0  0  0  0  0  0
    0.1452   19.8227  -31.4043 H   0  0  0  0  0  0  0  0  0  0  0  0
   -1.5891   18.5997  -32.7403 H   0  0  0  0  0  0  0  0  0  0  0  0
   -3.2610   19.0653  -35.0252 H   0  0  0  0  0  0  0  0  0  0  0  0
   -3.0972   17.6989  -33.8225 H   0  0  0  0  0  0  0  0  0  0  0  0
   -4.6160   17.3861  -35.9260 H   0  0  0  0  0  0  0  0  0  0  0  0
   -5.1779   16.8375  -34.2977 H   0  0  0  0  0  0  0  0  0  0  0  0
   -7.5435   19.2564  -33.8125 H   0  0  0  0  0  0  0  0  0  0  0  0
   -6.6707   17.7866  -33.2245 H   0  0  0  0  0  0  0  0  0  0  0  0
   -5.8079   20.6884  -33.1792 H   0  0  0  0  0  0  0  0  0  0  0  0
   -5.8145   19.4257  -31.8567 H   0  0  0  0  0  0  0  0  0  0  0  0
   -4.4937   21.7218  -31.8012 H   0  0  0  0  0  0  0  0  0  0  0  0
  1  2  2  0
  2  3  1  0
  3  4  1  0
  4  5  1  0
  5  6  2  0
  5  7  1  0
  7  8  1  0
  8  9  1  0
  9 10  1  0
  9 11  2  0
  8 12  2  0
 12 13  1  0
 13 14  2  0
 14 15  1  0
 15 16  2  0
 16 17  1  0
 17 18  1  0
 18 19  1  0
 19 20  1  0
 20 21  1  0
 21 22  1  0
 16 23  1  0
 23 24  2  0
 24  7  1  0
 24 13  1  0
 22 17  1  0
  1 25  1  0
  1 26  1  0
  2 27  1  0
  3 28  1  0
  3 29  1  0
 10 30  1  0
 12 31  1  0
 14 32  1  0
 15 33  1  0
 18 34  1  0
 18 35  1  0
 19 36  1  0
 19 37  1  0
 21 38  1  0
 21 39  1  0
 22 40  1  0
 22 41  1  0
 23 42  1  0
M  CHG  1  10  -1
M  END
>  <UniqueID>  (49) 
49

>  <SMILES>  (49) 
C=CCOC(=O)n1c(C([NH-])=O)cc2ccc(N3CCOCC3)cc21

>  <Energy>  (49) 
84.96573925454372

>  <Genealogy>  (49) 
C=CCOC(=O)n1c(C([NH-])=O)cc2ccc(N3CCOCC3)cc21 (protonated)
C=CCOC(=O)n1c(C([NH-])=O)cc2ccc(N3CCOCC3)cc21 (3D coordinates assigned)
C=CCOC(=O)n1c(C([NH-])=O)cc2ccc(N3CCOCC3)cc21 (nonaromatic ring conformer: 84.96573925454372 kcal/mol)

>  <smiles>  (49) 
C=CCOC(=O)n1c(C(N)=O)cc2ccc(N3CCOCC3)cc21

>  <score_type>  (49) 
oracle

>  <origin>  (49) 
adg

>  <m_score__min__energy>  (49) 
-10.06

>  <m_primary>  (49) 
energy

$$$$
49:0
     RDKit          3D

 38 39  0  0  0  0  0  0  0  0999 V2000
   -2.6520   19.3390  -33.0670 C   0  0  0  0  0  0  0  0  0  0  0  0
   -3.4450   19.0660  -34.1930 O   0  0  0  0  0  0  0  0  0  0  0  0
   -4.4460   18.2540  -33.7640 N   0  0  0  0  0  0  0  0  0  0  0  0
   -5.8080   18.4960  -34.1260 C   0  0  0  0  0  0  0  0  0  0  0  0
   -6.1120   18.7250  -35.3270 O   0  0  0  0  0  0  0  0  0  0  0  0
   -6.8610   18.5350  -33.0660 C   0  0  0  0  0  0  0  0  0  0  0  0
   -7.0210   19.9400  -32.5590 C   0  0  0  0  0  0  0  0  0  0  0  0
   -8.3150   20.4680  -32.3250 C   0  0  0  0  0  0  0  0  0  0  0  0
   -8.4770   21.7720  -31.8240 C   0  0  0  0  0  0  0  0  0  0  0  0
   -7.3300   22.5110  -31.5500 C   0  0  0  0  0  0  0  0  0  0  0  0
   -7.2000   23.7970  -31.0770 C   0  0  0  0  0  0  0  0  0  0  0  0
   -5.8260   24.0220  -30.9960 C   0  0  0  0  0  0  0  0  0  0  0  0
   -5.2350   25.2580  -30.4450 C   0  0  0  0  0  0  0  0  0  0  0  0
   -3.9300   25.6640  -30.8510 N   0  0  0  0  0  0  0  0  0  0  0  0
   -5.8870   25.9840  -29.6480 O   0  0  0  0  0  0  0  0  0  0  0  0
   -5.1350   22.9220  -31.4080 N   0  0  0  0  0  0  0  0  0  0  0  0
   -3.7130   22.7830  -31.5490 C   0  0  0  0  0  0  0  0  0  0  0  0
   -3.2310   22.2680  -32.5960 O   0  0  0  0  0  0  0  0  0  0  0  0
   -2.8670   23.2430  -30.5350 O   0  0  0  0  0  0  0  0  0  0  0  0
   -2.4670   22.4270  -29.4370 C   0  0  0  0  0  0  0  0  0  0  0  0
   -2.2820   23.2810  -28.1830 C   0  0  0  0  0  0  0  0  0  0  0  0
   -3.8650   23.8140  -27.5570 Cl  0  0  0  0  0  0  0  0  0  0  0  0
   -1.3110   24.7210  -28.5770 Cl  0  0  0  0  0  0  0  0  0  0  0  0
   -1.4370   22.3530  -26.9170 Cl  0  0  0  0  0  0  0  0  0  0  0  0
   -6.0700   22.0050  -31.7430 C   0  0  0  0  0  0  0  0  0  0  0  0
   -5.8800   20.7180  -32.2590 C   0  0  0  0  0  0  0  0  0  0  0  0
   -3.2313   19.1396  -32.1534 H   0  0  0  0  0  0  0  0  0  0  0  0
   -1.7593   18.6964  -33.0827 H   0  0  0  0  0  0  0  0  0  0  0  0
   -2.3440   20.3949  -33.0827 H   0  0  0  0  0  0  0  0  0  0  0  0
   -7.8160   18.1878  -33.4871 H   0  0  0  0  0  0  0  0  0  0  0  0
   -6.5630   17.8803  -32.2338 H   0  0  0  0  0  0  0  0  0  0  0  0
   -9.2013   19.8520  -32.5373 H   0  0  0  0  0  0  0  0  0  0  0  0
   -9.4784   22.1944  -31.6541 H   0  0  0  0  0  0  0  0  0  0  0  0
   -8.0074   24.4977  -30.8181 H   0  0  0  0  0  0  0  0  0  0  0  0
   -3.0800   25.2950  -30.3710 H   0  0  0  0  0  0  0  0  0  0  0  0
   -3.2401   21.6676  -29.2484 H   0  0  0  0  0  0  0  0  0  0  0  0
   -1.5122   21.9389  -29.6823 H   0  0  0  0  0  0  0  0  0  0  0  0
   -4.8676   20.3218  -32.4269 H   0  0  0  0  0  0  0  0  0  0  0  0
  1  2  1  0
  2  3  1  0
  3  4  1  0
  4  5  2  0
  4  6  1  0
  6  7  1  0
  7  8  2  0
  8  9  1  0
  9 10  2  0
 10 11  1  0
 11 12  2  0
 12 13  1  0
 13 14  1  0
 13 15  2  0
 12 16  1  0
 16 17  1  0
 17 18  2  0
 17 19  1  0
 19 20  1  0
 20 21  1  0
 21 22  1  0
 21 23  1  0
 21 24  1  0
 16 25  1  0
 25 26  2  0
 26  7  1  0
 25 10  1  0
  1 27  1  0
  1 28  1  0
  1 29  1  0
  6 30  1  0
  6 31  1  0
  8 32  1  0
  9 33  1  0
 11 34  1  0
 14 35  1  0
 20 36  1  0
 20 37  1  0
 26 38  1  0
M  CHG  2   3  -1  14  -1
M  END
>  <UniqueID>  (50) 
50

>  <SMILES>  (50) 
CO[N-]C(=O)Cc1ccc2cc(C([NH-])=O)n(C(=O)OCC(Cl)(Cl)Cl)c2c1

>  <Energy>  (50) 
67.63638740211125

>  <Genealogy>  (50) 
CO[N-]C(=O)Cc1ccc2cc(C([NH-])=O)n(C(=O)OCC(Cl)(Cl)Cl)c2c1 (protonated)
CO[N-]C(=O)Cc1ccc2cc(C([NH-])=O)n(C(=O)OCC(Cl)(Cl)Cl)c2c1 (3D coordinates assigned)
CO[N-]C(=O)Cc1ccc2cc(C([NH-])=O)n(C(=O)OCC(Cl)(Cl)Cl)c2c1 (optimized conformer: 67.63638740211125 kcal/mol)

>  <smiles>  (50) 
CONC(=O)Cc1ccc2cc(C(N)=O)n(C(=O)OCC(Cl)(Cl)Cl)c2c1

>  <score_type>  (50) 
oracle

>  <origin>  (50) 
adg

>  <m_score__min__energy>  (50) 
-10.33

>  <m_primary>  (50) 
energy

$$$$
50:0
     RDKit          3D

 32 34  0  0  0  0  0  0  0  0999 V2000
   -1.3910   25.8800  -28.9670 N   0  0  0  0  0  0  0  0  0  0  0  0
   -0.8660   24.5590  -29.0710 C   0  0  0  0  0  0  0  0  0  0  0  0
    0.2180   24.2800  -28.4930 O   0  0  0  0  0  0  0  0  0  0  0  0
   -1.5720   23.5490  -29.8870 C   0  0  0  0  0  0  0  0  0  0  0  0
   -0.9610   22.4000  -30.3810 C   0  0  0  0  0  0  0  0  0  0  0  0
   -1.9630   21.6890  -31.0000 C   0  0  0  0  0  0  0  0  0  0  0  0
   -1.9130   20.4710  -31.6700 C   0  0  0  0  0  0  0  0  0  0  0  0
   -3.1020   19.9810  -32.2350 C   0  0  0  0  0  0  0  0  0  0  0  0
   -4.3100   20.7140  -32.1270 C   0  0  0  0  0  0  0  0  0  0  0  0
   -5.5870   20.1740  -32.7300 C   0  0  0  0  0  0  0  0  0  0  0  0
   -6.7970   20.2500  -31.7770 C   0  0  1  0  0  0  0  0  0  0  0  0
   -7.9590   21.1360  -32.3120 C   0  0  0  0  0  0  0  0  0  0  0  0
   -9.0680   20.2590  -32.4370 O   0  0  0  0  0  0  0  0  0  0  0  0
   -8.7150   19.0100  -31.9870 C   0  0  0  0  0  0  0  0  0  0  0  0
   -9.5070   18.0320  -31.9650 O   0  0  0  0  0  0  0  0  0  0  0  0
   -7.3740   18.9270  -31.5590 N   0  0  0  0  0  0  0  0  0  0  0  0
   -4.3180   21.9530  -31.4470 C   0  0  0  0  0  0  0  0  0  0  0  0
   -3.1230   22.4060  -30.8750 C   0  0  0  0  0  0  0  0  0  0  0  0
   -2.9020   23.5540  -30.1950 N   0  0  0  0  0  0  0  0  0  0  0  0
   -3.8700   24.5790  -29.9180 C   0  0  0  0  0  0  0  0  0  0  0  0
   -3.8720   25.6500  -30.5790 O   0  0  0  0  0  0  0  0  0  0  0  0
   -4.8300   24.3860  -28.9320 O   0  0  0  0  0  0  0  0  0  0  0  0
   -2.4230   26.0480  -28.9600 H   0  0  0  0  0  0  0  0  0  0  0  0
    0.0992   22.1197  -30.2947 H   0  0  0  0  0  0  0  0  0  0  0  0
   -0.9713   19.9088  -31.7548 H   0  0  0  0  0  0  0  0  0  0  0  0
   -3.0954   19.0182  -32.7669 H   0  0  0  0  0  0  0  0  0  0  0  0
   -5.8186   20.7563  -33.6341 H   0  0  0  0  0  0  0  0  0  0  0  0
   -5.4158   19.1102  -32.9516 H   0  0  0  0  0  0  0  0  0  0  0  0
   -6.3909   20.6889  -30.8537 H   0  0  0  0  0  0  0  0  0  0  0  0
   -8.1853   21.9454  -31.6023 H   0  0  0  0  0  0  0  0  0  0  0  0
   -7.7038   21.6153  -33.2686 H   0  0  0  0  0  0  0  0  0  0  0  0
   -5.2406   22.5469  -31.3690 H   0  0  0  0  0  0  0  0  0  0  0  0
  1  2  1  0
  2  3  2  0
  2  4  1  0
  4  5  2  0
  5  6  1  0
  6  7  2  0
  7  8  1  0
  8  9  2  0
  9 10  1  0
 10 11  1  0
 11 12  1  0
 12 13  1  0
 13 14  1  0
 14 15  2  0
 14 16  1  0
  9 17  1  0
 17 18  2  0
 18 19  1  0
 19 20  1  0
 20 21  2  0
 20 22  1  0
 19  4  1  0
 18  6  1  0
 16 11  1  0
  1 23  1  0
  5 24  1  0
  7 25  1  0
  8 26  1  0
 10 27  1  0
 10 28  1  0
 11 29  1  1
 12 30  1  0
 12 31  1  0
 17 32  1  0
M  CHG  3   1  -1  16  -1  22  -1
M  END
>  <UniqueID>  (51) 
51

>  <SMILES>  (51) 
[NH-]C(=O)c1cc2ccc(C[C@H]3COC(=O)[N-]3)cc2n1C(=O)[O-]

>  <Energy>  (51) 
87.15778886830975

>  <Genealogy>  (51) 
[NH-]C(=O)c1cc2ccc(C[C@H]3COC(=O)[N-]3)cc2n1C(=O)[O-] (protonated)
[NH-]C(=O)c1cc2ccc(C[C@H]3COC(=O)[N-]3)cc2n1C(=O)[O-] (3D coordinates assigned)
[NH-]C(=O)c1cc2ccc(C[C@H]3COC(=O)[N-]3)cc2n1C(=O)[O-] (nonaromatic ring conformer: 87.15778886830975 kcal/mol)

>  <smiles>  (51) 
NC(=O)c1cc2ccc(C[C@H]3COC(=O)N3)cc2n1C(=O)O

>  <score_type>  (51) 
oracle

>  <origin>  (51) 
adg

>  <m_score__min__energy>  (51) 
-10.91

>  <m_primary>  (51) 
energy

$$$$
51:0
     RDKit          3D

 38 39  0  0  0  0  0  0  0  0999 V2000
   -3.2870   20.0940  -33.1880 C   0  0  0  0  0  0  0  0  0  0  0  0
   -3.7360   21.5310  -33.4180 C   0  0  0  0  0  0  0  0  0  0  0  0
   -3.3730   22.3550  -32.3120 O   0  0  0  0  0  0  0  0  0  0  0  0
   -4.0730   22.3730  -31.1010 C   0  0  0  0  0  0  0  0  0  0  0  0
   -3.4830   22.1070  -30.0180 O   0  0  0  0  0  0  0  0  0  0  0  0
   -5.4640   22.7250  -31.0890 N   0  0  0  0  0  0  0  0  0  0  0  0
   -6.0190   23.9500  -30.8630 C   0  0  0  0  0  0  0  0  0  0  0  0
   -5.2970   25.1640  -30.4270 C   0  0  0  0  0  0  0  0  0  0  0  0
   -3.8890   25.2890  -30.6190 N   0  0  0  0  0  0  0  0  0  0  0  0
   -5.9220   26.0820  -29.8330 O   0  0  0  0  0  0  0  0  0  0  0  0
   -7.4030   23.8960  -31.0150 C   0  0  0  0  0  0  0  0  0  0  0  0
   -7.6840   22.5870  -31.3330 C   0  0  0  0  0  0  0  0  0  0  0  0
   -8.9050   21.9710  -31.5920 C   0  0  0  0  0  0  0  0  0  0  0  0
   -8.8970   20.6030  -31.9120 C   0  0  0  0  0  0  0  0  0  0  0  0
   -7.6780   19.8850  -31.9840 C   0  0  0  0  0  0  0  0  0  0  0  0
   -7.6850   18.4150  -32.3120 C   0  0  0  0  0  0  0  0  0  0  0  0
   -6.2930   17.9080  -32.7230 C   0  0  0  0  0  0  0  0  0  0  0  0
   -6.0260   18.0320  -34.2300 C   0  0  0  0  0  0  0  0  0  0  0  0
   -6.0900   19.3700  -34.6450 O   0  0  0  0  0  0  0  0  0  0  0  0
   -6.4580   20.5450  -31.7120 C   0  0  0  0  0  0  0  0  0  0  0  0
   -6.4970   21.9010  -31.3730 C   0  0  0  0  0  0  0  0  0  0  0  0
   -3.2256   19.8975  -32.1074 H   0  0  0  0  0  0  0  0  0  0  0  0
   -4.0128   19.4054  -33.6452 H   0  0  0  0  0  0  0  0  0  0  0  0
   -2.2983   19.9411  -33.6452 H   0  0  0  0  0  0  0  0  0  0  0  0
   -3.2565   21.9178  -34.3293 H   0  0  0  0  0  0  0  0  0  0  0  0
   -4.8305   21.5467  -33.5269 H   0  0  0  0  0  0  0  0  0  0  0  0
   -3.4960   26.0410  -31.2260 H   0  0  0  0  0  0  0  0  0  0  0  0
   -8.1189   24.7238  -30.9043 H   0  0  0  0  0  0  0  0  0  0  0  0
   -9.8468   22.5376  -31.5475 H   0  0  0  0  0  0  0  0  0  0  0  0
   -9.8469   20.0843  -32.1086 H   0  0  0  0  0  0  0  0  0  0  0  0
   -8.0190   17.8554  -31.4259 H   0  0  0  0  0  0  0  0  0  0  0  0
   -8.3664   18.2605  -33.1616 H   0  0  0  0  0  0  0  0  0  0  0  0
   -5.5340   18.4939  -32.1839 H   0  0  0  0  0  0  0  0  0  0  0  0
   -6.2459   16.8388  -32.4691 H   0  0  0  0  0  0  0  0  0  0  0  0
   -5.0245   17.6346  -34.4514 H   0  0  0  0  0  0  0  0  0  0  0  0
   -6.7961   17.4613  -34.7697 H   0  0  0  0  0  0  0  0  0  0  0  0
   -6.8900   19.4480  -35.2270 H   0  0  0  0  0  0  0  0  0  0  0  0
   -5.5012   20.0050  -31.7657 H   0  0  0  0  0  0  0  0  0  0  0  0
  1  2  1  0
  2  3  1  0
  3  4  1  0
  4  5  2  0
  4  6  1  0
  6  7  1  0
  7  8  1  0
  8  9  1  0
  8 10  2  0
  7 11  2  0
 11 12  1  0
 12 13  2  0
 13 14  1  0
 14 15  2  0
 15 16  1  0
 16 17  1  0
 17 18  1  0
 18 19  1  0
 15 20  1  0
 20 21  2  0
 21  6  1  0
 21 12  1  0
  1 22  1  0
  1 23  1  0
  1 24  1  0
  2 25  1  0
  2 26  1  0
  9 27  1  0
 11 28  1  0
 13 29  1  0
 14 30  1  0
 16 31  1  0
 16 32  1  0
 17 33  1  0
 17 34  1  0
 18 35  1  0
 18 36  1  0
 19 37  1  0
 20 38  1  0
M  CHG  1   9  -1
M  END
>  <UniqueID>  (52) 
52

>  <SMILES>  (52) 
CCOC(=O)n1c(C([NH-])=O)cc2ccc(CCCO)cc21

>  <Energy>  (52) 
68.59407432182529

>  <Genealogy>  (52) 
CCOC(=O)n1c(C([NH-])=O)cc2ccc(CCCO)cc21 (protonated)
CCOC(=O)n1c(C([NH-])=O)cc2ccc(CCCO)cc21 (3D coordinates assigned)
CCOC(=O)n1c(C([NH-])=O)cc2ccc(CCCO)cc21 (optimized conformer: 68.59407432182529 kcal/mol)

>  <smiles>  (52) 
CCOC(=O)n1c(C(N)=O)cc2ccc(CCCO)cc21

>  <score_type>  (52) 
oracle

>  <origin>  (52) 
adg

>  <m_score__min__energy>  (52) 
-10.06

>  <m_primary>  (52) 
energy

$$$$
52:0
     RDKit          3D

 44 46  0  0  0  0  0  0  0  0999 V2000
   -0.5170   19.7270  -33.8960 N   0  0  0  0  0  0  0  0  0  0  0  0
   -0.7520   19.2060  -32.5900 C   0  0  0  0  0  0  0  0  0  0  0  0
   -0.4720   18.0030  -32.3450 O   0  0  0  0  0  0  0  0  0  0  0  0
   -1.3340   20.0730  -31.5450 C   0  0  0  0  0  0  0  0  0  0  0  0
   -0.7330   20.3200  -30.3100 C   0  0  0  0  0  0  0  0  0  0  0  0
   -1.5700   21.2070  -29.6690 C   0  0  0  0  0  0  0  0  0  0  0  0
   -1.4630   21.7980  -28.4130 C   0  0  0  0  0  0  0  0  0  0  0  0
   -2.4840   22.6760  -28.0090 C   0  0  0  0  0  0  0  0  0  0  0  0
   -3.5930   22.9320  -28.8540 C   0  0  0  0  0  0  0  0  0  0  0  0
   -4.6630   23.8960  -28.4260 C   0  0  0  0  0  0  0  0  0  0  0  0
   -5.2420   24.8750  -29.8470 P   0  0  2  0  0  0  0  0  0  0  0  0
   -5.9400   23.9740  -30.8400 O   0  0  0  0  0  0  0  0  0  0  0  0
   -3.9110   25.6010  -30.5950 O   0  0  0  0  0  0  0  0  0  0  0  0
   -6.3090   26.0800  -29.3220 O   0  0  0  0  0  0  0  0  0  0  0  0
   -3.6650   22.3180  -30.1240 C   0  0  0  0  0  0  0  0  0  0  0  0
   -2.6260   21.4630  -30.5030 C   0  0  0  0  0  0  0  0  0  0  0  0
   -2.4920   20.7810  -31.6580 N   0  0  0  0  0  0  0  0  0  0  0  0
   -3.4200   20.7800  -32.7520 C   0  0  0  0  0  0  0  0  0  0  0  0
   -3.0760   21.2990  -33.8490 O   0  0  0  0  0  0  0  0  0  0  0  0
   -4.7280   20.1920  -32.6050 N   0  0  0  0  0  0  0  0  0  0  0  0
   -5.8520   21.0790  -32.2340 C   0  0  0  0  0  0  0  0  0  0  0  0
   -7.2330   20.6370  -32.7600 C   0  0  0  0  0  0  0  0  0  0  0  0
   -7.9720   19.5520  -31.9370 C   0  0  0  0  0  0  0  0  0  0  0  0
   -7.4960   17.8250  -32.3240 S   0  0  0  0  0  0  0  0  0  0  0  0
   -5.7100   18.0080  -31.9510 C   0  0  0  0  0  0  0  0  0  0  0  0
   -4.9330   18.7930  -33.0140 C   0  0  0  0  0  0  0  0  0  0  0  0
   -1.1530   20.4430  -34.3100 H   0  0  0  0  0  0  0  0  0  0  0  0
    0.2083   19.8968  -29.9294 H   0  0  0  0  0  0  0  0  0  0  0  0
   -0.6062   21.5846  -27.7570 H   0  0  0  0  0  0  0  0  0  0  0  0
   -2.4217   23.1691  -27.0277 H   0  0  0  0  0  0  0  0  0  0  0  0
   -5.5094   23.3340  -28.0043 H   0  0  0  0  0  0  0  0  0  0  0  0
   -4.2468   24.5776  -27.6695 H   0  0  0  0  0  0  0  0  0  0  0  0
   -5.8200   26.5660  -28.6120 H   0  0  0  0  0  0  0  0  0  0  0  0
   -4.5150   22.5073  -30.7961 H   0  0  0  0  0  0  0  0  0  0  0  0
   -5.9034   21.1235  -31.1361 H   0  0  0  0  0  0  0  0  0  0  0  0
   -5.6424   22.0524  -32.7015 H   0  0  0  0  0  0  0  0  0  0  0  0
   -7.8780   21.5274  -32.7943 H   0  0  0  0  0  0  0  0  0  0  0  0
   -7.0373   20.1761  -33.7394 H   0  0  0  0  0  0  0  0  0  0  0  0
   -7.7649   19.7321  -30.8718 H   0  0  0  0  0  0  0  0  0  0  0  0
   -9.0370   19.6421  -32.1972 H   0  0  0  0  0  0  0  0  0  0  0  0
   -5.6085   18.5325  -30.9894 H   0  0  0  0  0  0  0  0  0  0  0  0
   -5.2827   16.9947  -31.9251 H   0  0  0  0  0  0  0  0  0  0  0  0
   -3.9529   18.3170  -33.1653 H   0  0  0  0  0  0  0  0  0  0  0  0
   -5.5178   18.7867  -33.9456 H   0  0  0  0  0  0  0  0  0  0  0  0
  1  2  1  0
  2  3  2  0
  2  4  1  0
  4  5  2  0
  5  6  1  0
  6  7  2  0
  7  8  1  0
  8  9  2  0
  9 10  1  0
 10 11  1  0
 11 12  2  0
 11 13  1  6
 11 14  1  0
  9 15  1  0
 15 16  2  0
 16 17  1  0
 17 18  1  0
 18 19  2  0
 18 20  1  0
 20 21  1  0
 21 22  1  0
 22 23  1  0
 23 24  1  0
 24 25  1  0
 25 26  1  0
 17  4  1  0
 26 20  1  0
 16  6  1  0
  1 27  1  0
  5 28  1  0
  7 29  1  0
  8 30  1  0
 10 31  1  0
 10 32  1  0
 14 33  1  0
 15 34  1  0
 21 35  1  0
 21 36  1  0
 22 37  1  0
 22 38  1  0
 23 39  1  0
 23 40  1  0
 25 41  1  0
 25 42  1  0
 26 43  1  0
 26 44  1  0
M  CHG  2   1  -1  13  -1
M  END
>  <UniqueID>  (53) 
53

>  <SMILES>  (53) 
[NH-]C(=O)c1cc2ccc(C[P@](=O)([O-])O)cc2n1C(=O)N1CCCSCC1

>  <Energy>  (53) 
84.05519929432054

>  <Genealogy>  (53) 
[NH-]C(=O)c1cc2ccc(CP(=O)([O-])O)cc2n1C(=O)N1CCCSCC1 (protonated)
[NH-]C(=O)c1cc2ccc(C[P@](=O)([O-])O)cc2n1C(=O)N1CCCSCC1 (chirality)
[NH-]C(=O)c1cc2ccc(C[P@](=O)([O-])O)cc2n1C(=O)N1CCCSCC1 (3D coordinates assigned)
[NH-]C(=O)c1cc2ccc(C[P@](=O)([O-])O)cc2n1C(=O)N1CCCSCC1 (nonaromatic ring conformer: 84.05519929432054 kcal/mol)

>  <smiles>  (53) 
NC(=O)c1cc2ccc(CP(=O)(O)O)cc2n1C(=O)N1CCCSCC1

>  <score_type>  (53) 
oracle

>  <origin>  (53) 
adg

>  <m_score__min__energy>  (53) 
-9.3399999999999999

>  <m_primary>  (53) 
energy

$$$$
53:0
     RDKit          3D

 41 42  0  0  0  0  0  0  0  0999 V2000
   -3.1570   21.7840  -32.7040 C   0  0  0  0  0  0  0  0  0  0  0  0
   -3.7860   22.6690  -31.6750 C   0  0  0  0  0  0  0  0  0  0  0  0
   -3.0510   23.4150  -30.9750 O   0  0  0  0  0  0  0  0  0  0  0  0
   -5.2100   22.6800  -31.4770 N   0  0  0  0  0  0  0  0  0  0  0  0
   -5.9550   23.6720  -30.9140 C   0  0  0  0  0  0  0  0  0  0  0  0
   -5.4080   24.8820  -30.2580 C   0  0  0  0  0  0  0  0  0  0  0  0
   -5.8080   25.2450  -28.9340 N   0  0  0  0  0  0  0  0  0  0  0  0
   -4.5620   25.5970  -30.8570 O   0  0  0  0  0  0  0  0  0  0  0  0
   -7.3120   23.3590  -30.9810 C   0  0  0  0  0  0  0  0  0  0  0  0
   -7.3760   22.1410  -31.6170 C   0  0  0  0  0  0  0  0  0  0  0  0
   -8.4800   21.3730  -31.9700 C   0  0  0  0  0  0  0  0  0  0  0  0
   -8.2510   20.1750  -32.6670 C   0  0  0  0  0  0  0  0  0  0  0  0
   -6.9370   19.7700  -33.0080 C   0  0  0  0  0  0  0  0  0  0  0  0
   -6.7550   18.5460  -33.7470 N   0  0  0  0  0  0  0  0  0  0  0  0
   -5.6480   18.2770  -34.6690 C   0  0  0  0  0  0  0  0  0  0  0  0
   -5.2810   16.7860  -34.6710 C   0  0  0  0  0  0  0  0  0  0  0  0
   -6.0900   16.0370  -33.6860 N   0  0  0  0  0  0  0  0  0  0  0  0
   -5.3850   15.9350  -32.3990 C   0  0  0  0  0  0  0  0  0  0  0  0
   -6.4110   14.6870  -34.1820 C   0  0  0  0  0  0  0  0  0  0  0  0
   -5.8390   20.5680  -32.6080 C   0  0  0  0  0  0  0  0  0  0  0  0
   -6.0950   21.7520  -31.9070 C   0  0  0  0  0  0  0  0  0  0  0  0
   -2.5895   20.9856  -32.2035 H   0  0  0  0  0  0  0  0  0  0  0  0
   -3.9415   21.3375  -33.3326 H   0  0  0  0  0  0  0  0  0  0  0  0
   -2.4774   22.3781  -33.3326 H   0  0  0  0  0  0  0  0  0  0  0  0
   -6.5530   24.7200  -28.4270 H   0  0  0  0  0  0  0  0  0  0  0  0
   -5.3860   26.0790  -28.4710 H   0  0  0  0  0  0  0  0  0  0  0  0
   -8.1536   23.9592  -30.6048 H   0  0  0  0  0  0  0  0  0  0  0  0
   -9.5002   21.6933  -31.7117 H   0  0  0  0  0  0  0  0  0  0  0  0
   -9.1044   19.5422  -32.9521 H   0  0  0  0  0  0  0  0  0  0  0  0
   -7.4950   17.8100  -33.6710 H   0  0  0  0  0  0  0  0  0  0  0  0
   -5.9460   18.5751  -35.6850 H   0  0  0  0  0  0  0  0  0  0  0  0
   -4.7706   18.8526  -34.3392 H   0  0  0  0  0  0  0  0  0  0  0  0
   -5.4631   16.3726  -35.6740 H   0  0  0  0  0  0  0  0  0  0  0  0
   -4.2198   16.6872  -34.3987 H   0  0  0  0  0  0  0  0  0  0  0  0
   -6.1073   16.0395  -31.5760 H   0  0  0  0  0  0  0  0  0  0  0  0
   -4.8889   14.9557  -32.3293 H   0  0  0  0  0  0  0  0  0  0  0  0
   -4.6316   16.7335  -32.3293 H   0  0  0  0  0  0  0  0  0  0  0  0
   -6.5716   14.0115  -33.3288 H   0  0  0  0  0  0  0  0  0  0  0  0
   -7.3243   14.7287  -34.7937 H   0  0  0  0  0  0  0  0  0  0  0  0
   -5.5767   14.3131  -34.7937 H   0  0  0  0  0  0  0  0  0  0  0  0
   -4.8080   20.2647  -32.8426 H   0  0  0  0  0  0  0  0  0  0  0  0
  1  2  1  0
  2  3  2  0
  2  4  1  0
  4  5  1  0
  5  6  1  0
  6  7  1  0
  6  8  2  0
  5  9  2  0
  9 10  1  0
 10 11  2  0
 11 12  1  0
 12 13  2  0
 13 14  1  0
 14 15  1  0
 15 16  1  0
 16 17  1  0
 17 18  1  0
 17 19  1  0
 13 20  1  0
 20 21  2  0
 21  4  1  0
 21 10  1  0
  1 22  1  0
  1 23  1  0
  1 24  1  0
  7 25  1  0
  7 26  1  0
  9 27  1  0
 11 28  1  0
 12 29  1  0
 14 30  1  0
 15 31  1  0
 15 32  1  0
 16 33  1  0
 16 34  1  0
 18 35  1  0
 18 36  1  0
 18 37  1  0
 19 38  1  0
 19 39  1  0
 19 40  1  0
 20 41  1  0
M  END
>  <UniqueID>  (54) 
54

>  <SMILES>  (54) 
CC(=O)n1c(C(N)=O)cc2ccc(NCCN(C)C)cc21

>  <Energy>  (54) 
77.16183836734207

>  <Genealogy>  (54) 
CC(=O)n1c(C(N)=O)cc2ccc(NCCN(C)C)cc21 (3D coordinates assigned)
CC(=O)n1c(C(N)=O)cc2ccc(NCCN(C)C)cc21 (optimized conformer: 77.16183836734207 kcal/mol)

>  <smiles>  (54) 
CC(=O)n1c(C(N)=O)cc2ccc(NCCN(C)C)cc21

>  <score_type>  (54) 
oracle

>  <origin>  (54) 
adg

>  <m_score__min__energy>  (54) 
-8.2400000000000002

>  <m_primary>  (54) 
energy

$$$$
54:0
     RDKit          3D

 61 63  0  0  0  0  0  0  0  0999 V2000
   -7.1220   22.0760  -30.4180 C   0  0  0  0  0  0  0  0  0  0  0  0
   -7.8060   21.9920  -31.8000 C   0  0  0  0  0  0  0  0  0  0  0  0
   -7.9460   23.4130  -32.3720 C   0  0  0  0  0  0  0  0  0  0  0  0
   -9.2100   21.3600  -31.6770 C   0  0  0  0  0  0  0  0  0  0  0  0
   -6.9980   21.2430  -32.7220 O   0  0  0  0  0  0  0  0  0  0  0  0
   -6.4390   19.9740  -32.4920 C   0  0  0  0  0  0  0  0  0  0  0  0
   -6.9780   19.1540  -31.6960 O   0  0  0  0  0  0  0  0  0  0  0  0
   -5.1410   19.6350  -33.1650 C   0  0  0  0  0  0  0  0  0  0  0  0
   -3.9620   20.2560  -32.4630 C   0  0  0  0  0  0  0  0  0  0  0  0
   -2.6800   19.6590  -32.5640 C   0  0  0  0  0  0  0  0  0  0  0  0
   -1.5650   20.2570  -31.9580 C   0  0  0  0  0  0  0  0  0  0  0  0
   -1.7590   21.4490  -31.2630 C   0  0  0  0  0  0  0  0  0  0  0  0
   -0.8520   22.2450  -30.6070 C   0  0  0  0  0  0  0  0  0  0  0  0
   -1.5910   23.3120  -30.1010 C   0  0  0  0  0  0  0  0  0  0  0  0
   -1.0000   24.3640  -29.2430 C   0  0  0  0  0  0  0  0  0  0  0  0
   -1.7210   25.5710  -28.9990 N   0  0  0  0  0  0  0  0  0  0  0  0
    0.1490   24.2270  -28.7460 O   0  0  0  0  0  0  0  0  0  0  0  0
   -2.9080   23.1850  -30.4410 N   0  0  0  0  0  0  0  0  0  0  0  0
   -3.9990   24.0620  -30.1160 C   0  0  0  0  0  0  0  0  0  0  0  0
   -4.2640   25.0480  -30.8600 O   0  0  0  0  0  0  0  0  0  0  0  0
   -4.7840   23.8010  -28.9850 O   0  0  0  0  0  0  0  0  0  0  0  0
   -4.2390   23.4130  -27.7250 C   0  0  0  0  0  0  0  0  0  0  0  0
   -3.9180   21.9220  -27.7330 C   0  0  0  0  0  0  0  0  0  0  0  0
   -2.5300   21.7550  -27.9610 O   0  0  0  0  0  0  0  0  0  0  0  0
   -1.8630   21.2960  -26.7980 C   0  0  2  0  0  0  0  0  0  0  0  0
   -0.3350   21.3020  -27.0250 C   0  0  0  0  0  0  0  0  0  0  0  0
    0.0550   20.3670  -28.1800 C   0  0  0  0  0  0  0  0  0  0  0  0
   -0.9380   19.2080  -28.3300 C   0  0  0  0  0  0  0  0  0  0  0  0
   -1.6320   18.9120  -26.9910 C   0  0  0  0  0  0  0  0  0  0  0  0
   -2.3740   20.0090  -26.4650 O   0  0  0  0  0  0  0  0  0  0  0  0
   -2.9920   22.0360  -31.1490 C   0  0  0  0  0  0  0  0  0  0  0  0
   -4.1200   21.4700  -31.7570 C   0  0  0  0  0  0  0  0  0  0  0  0
   -7.8808   21.9828  -29.6271 H   0  0  0  0  0  0  0  0  0  0  0  0
   -6.3895   21.2611  -30.3213 H   0  0  0  0  0  0  0  0  0  0  0  0
   -6.6085   23.0440  -30.3213 H   0  0  0  0  0  0  0  0  0  0  0  0
   -8.0172   24.1355  -31.5456 H   0  0  0  0  0  0  0  0  0  0  0  0
   -7.0666   23.6479  -32.9897 H   0  0  0  0  0  0  0  0  0  0  0  0
   -8.8543   23.4718  -32.9897 H   0  0  0  0  0  0  0  0  0  0  0  0
   -9.4680   21.2439  -30.6140 H   0  0  0  0  0  0  0  0  0  0  0  0
   -9.9496   22.0120  -32.1647 H   0  0  0  0  0  0  0  0  0  0  0  0
   -9.2123   20.3740  -32.1647 H   0  0  0  0  0  0  0  0  0  0  0  0
   -5.0173   18.5420  -33.1677 H   0  0  0  0  0  0  0  0  0  0  0  0
   -5.1752   20.0343  -34.1894 H   0  0  0  0  0  0  0  0  0  0  0  0
   -2.5586   18.7190  -33.1222 H   0  0  0  0  0  0  0  0  0  0  0  0
   -0.5676   19.7987  -32.0294 H   0  0  0  0  0  0  0  0  0  0  0  0
    0.2299   22.0756  -30.5031 H   0  0  0  0  0  0  0  0  0  0  0  0
   -2.7110   25.6800  -29.3140 H   0  0  0  0  0  0  0  0  0  0  0  0
   -3.3175   23.9831  -27.5355 H   0  0  0  0  0  0  0  0  0  0  0  0
   -4.9748   23.6199  -26.9339 H   0  0  0  0  0  0  0  0  0  0  0  0
   -4.1890   21.4803  -26.7627 H   0  0  0  0  0  0  0  0  0  0  0  0
   -4.4902   21.4208  -28.5276 H   0  0  0  0  0  0  0  0  0  0  0  0
   -2.0486   21.9654  -25.9450 H   0  0  0  0  0  0  0  0  0  0  0  0
   -0.0114   22.3253  -27.2660 H   0  0  0  0  0  0  0  0  0  0  0  0
    0.1565   20.9478  -26.1069 H   0  0  0  0  0  0  0  0  0  0  0  0
    0.0731   20.9446  -29.1160 H   0  0  0  0  0  0  0  0  0  0  0  0
    1.0461   19.9437  -27.9595 H   0  0  0  0  0  0  0  0  0  0  0  0
   -1.6974   19.4775  -29.0787 H   0  0  0  0  0  0  0  0  0  0  0  0
   -0.3888   18.3103  -28.6503 H   0  0  0  0  0  0  0  0  0  0  0  0
   -2.3215   18.0677  -27.1385 H   0  0  0  0  0  0  0  0  0  0  0  0
   -0.8369   18.6894  -26.2642 H   0  0  0  0  0  0  0  0  0  0  0  0
   -5.1034   21.9579  -31.6867 H   0  0  0  0  0  0  0  0  0  0  0  0
  1  2  1  0
  2  3  1  0
  2  4  1  0
  2  5  1  0
  5  6  1  0
  6  7  2  0
  6  8  1  0
  8  9  1  0
  9 10  2  0
 10 11  1  0
 11 12  2  0
 12 13  1  0
 13 14  2  0
 14 15  1  0
 15 16  1  0
 15 17  2  0
 14 18  1  0
 18 19  1  0
 19 20  2  0
 19 21  1  0
 21 22  1  0
 22 23  1  0
 23 24  1  0
 24 25  1  0
 25 26  1  0
 26 27  1  0
 27 28  1  0
 28 29  1  0
 29 30  1  0
 18 31  1  0
 31 32  2  0
 32  9  1  0
 31 12  1  0
 30 25  1  0
  1 33  1  0
  1 34  1  0
  1 35  1  0
  3 36  1  0
  3 37  1  0
  3 38  1  0
  4 39  1  0
  4 40  1  0
  4 41  1  0
  8 42  1  0
  8 43  1  0
 10 44  1  0
 11 45  1  0
 13 46  1  0
 16 47  1  0
 22 48  1  0
 22 49  1  0
 23 50  1  0
 23 51  1  0
 25 52  1  1
 26 53  1  0
 26 54  1  0
 27 55  1  0
 27 56  1  0
 28 57  1  0
 28 58  1  0
 29 59  1  0
 29 60  1  0
 32 61  1  0
M  CHG  1  16  -1
M  END
>  <UniqueID>  (55) 
55

>  <SMILES>  (55) 
CC(C)(C)OC(=O)Cc1ccc2cc(C([NH-])=O)n(C(=O)OCCO[C@@H]3CCCCO3)c2c1

>  <Energy>  (55) 
101.98458446464267

>  <Genealogy>  (55) 
CC(C)(C)OC(=O)Cc1ccc2cc(C([NH-])=O)n(C(=O)OCCOC3CCCCO3)c2c1 (protonated)
CC(C)(C)OC(=O)Cc1ccc2cc(C([NH-])=O)n(C(=O)OCCO[C@@H]3CCCCO3)c2c1 (chirality)
CC(C)(C)OC(=O)Cc1ccc2cc(C([NH-])=O)n(C(=O)OCCO[C@@H]3CCCCO3)c2c1 (3D coordinates assigned)
CC(C)(C)OC(=O)Cc1ccc2cc(C([NH-])=O)n(C(=O)OCCO[C@@H]3CCCCO3)c2c1 (nonaromatic ring conformer: 101.98458446464267 kcal/mol)

>  <smiles>  (55) 
CC(C)(C)OC(=O)Cc1ccc2cc(C(N)=O)n(C(=O)OCCOC3CCCCO3)c2c1

>  <score_type>  (55) 
oracle

>  <origin>  (55) 
adg

>  <m_score__min__energy>  (55) 
-12.08

>  <m_primary>  (55) 
energy

$$$$
55:0
     RDKit          3D

 48 50  0  0  0  0  0  0  0  0999 V2000
   -4.7240   17.5090  -34.9420 C   0  0  0  0  0  0  0  0  0  0  0  0
   -6.0710   17.3200  -34.5630 O   0  0  0  0  0  0  0  0  0  0  0  0
   -6.1500   16.8960  -33.2160 C   0  0  0  0  0  0  0  0  0  0  0  0
   -7.0730   17.8320  -32.4190 C   0  0  0  0  0  0  0  0  0  0  0  0
   -7.6580   18.8910  -33.2610 N   0  0  0  0  0  0  0  0  0  0  0  0
   -7.6310   20.1720  -32.5980 C   0  0  0  0  0  0  0  0  0  0  0  0
   -8.8220   20.7190  -32.0530 C   0  0  0  0  0  0  0  0  0  0  0  0
   -8.8050   21.9500  -31.3770 C   0  0  0  0  0  0  0  0  0  0  0  0
   -7.5870   22.6140  -31.2640 C   0  0  0  0  0  0  0  0  0  0  0  0
   -7.2820   23.8020  -30.6380 C   0  0  0  0  0  0  0  0  0  0  0  0
   -5.9120   23.9760  -30.8270 C   0  0  0  0  0  0  0  0  0  0  0  0
   -5.1780   25.1820  -30.3900 C   0  0  0  0  0  0  0  0  0  0  0  0
   -3.8670   25.4580  -30.8760 N   0  0  0  0  0  0  0  0  0  0  0  0
   -5.7340   26.0060  -29.6160 O   0  0  0  0  0  0  0  0  0  0  0  0
   -5.3900   22.9320  -31.5300 N   0  0  0  0  0  0  0  0  0  0  0  0
   -4.0150   22.6930  -31.8620 C   0  0  0  0  0  0  0  0  0  0  0  0
   -3.7100   22.2650  -33.0080 O   0  0  0  0  0  0  0  0  0  0  0  0
   -3.0170   22.9590  -30.9170 O   0  0  0  0  0  0  0  0  0  0  0  0
   -2.8470   22.2050  -29.7180 C   0  0  0  0  0  0  0  0  0  0  0  0
   -1.9440   22.9500  -28.7280 C   0  0  2  0  0  0  0  0  0  0  0  0
   -2.6930   23.4080  -27.4530 C   0  0  0  0  0  0  0  0  0  0  0  0
   -2.3170   24.8790  -27.2370 C   0  0  0  0  0  0  0  0  0  0  0  0
   -1.6210   25.2190  -28.4930 C   0  0  0  0  0  0  0  0  0  0  0  0
   -1.2220   26.3760  -28.7880 O   0  0  0  0  0  0  0  0  0  0  0  0
   -1.4440   24.1350  -29.3210 O   0  0  0  0  0  0  0  0  0  0  0  0
   -6.4290   22.1100  -31.7950 C   0  0  0  0  0  0  0  0  0  0  0  0
   -6.4130   20.8800  -32.4600 C   0  0  0  0  0  0  0  0  0  0  0  0
   -4.0986   17.5968  -34.0414 H   0  0  0  0  0  0  0  0  0  0  0  0
   -4.3872   16.6493  -35.5399 H   0  0  0  0  0  0  0  0  0  0  0  0
   -4.6368   18.4282  -35.5399 H   0  0  0  0  0  0  0  0  0  0  0  0
   -6.5514   15.8725  -33.1800 H   0  0  0  0  0  0  0  0  0  0  0  0
   -5.1438   16.9201  -32.7721 H   0  0  0  0  0  0  0  0  0  0  0  0
   -7.8883   17.2368  -31.9819 H   0  0  0  0  0  0  0  0  0  0  0  0
   -6.4677   18.3178  -31.6395 H   0  0  0  0  0  0  0  0  0  0  0  0
   -7.1560   18.9370  -34.1790 H   0  0  0  0  0  0  0  0  0  0  0  0
   -8.6530   18.6410  -33.4690 H   0  0  0  0  0  0  0  0  0  0  0  0
   -9.7702   20.1720  -32.1614 H   0  0  0  0  0  0  0  0  0  0  0  0
   -9.7251   22.3758  -30.9504 H   0  0  0  0  0  0  0  0  0  0  0  0
   -7.9722   24.4709  -30.1030 H   0  0  0  0  0  0  0  0  0  0  0  0
   -3.0210   25.1260  -30.3610 H   0  0  0  0  0  0  0  0  0  0  0  0
   -3.8305   22.0391  -29.2541 H   0  0  0  0  0  0  0  0  0  0  0  0
   -2.3749   21.2441  -29.9705 H   0  0  0  0  0  0  0  0  0  0  0  0
   -1.1499   22.2366  -28.4623 H   0  0  0  0  0  0  0  0  0  0  0  0
   -3.7795   23.3094  -27.5936 H   0  0  0  0  0  0  0  0  0  0  0  0
   -2.4157   22.7930  -26.5841 H   0  0  0  0  0  0  0  0  0  0  0  0
   -3.2129   25.5019  -27.0979 H   0  0  0  0  0  0  0  0  0  0  0  0
   -1.7062   25.0478  -26.3379 H   0  0  0  0  0  0  0  0  0  0  0  0
   -5.4758   20.4721  -32.8664 H   0  0  0  0  0  0  0  0  0  0  0  0
  1  2  1  0
  2  3  1  0
  3  4  1  0
  4  5  1  0
  5  6  1  0
  6  7  2  0
  7  8  1  0
  8  9  2  0
  9 10  1  0
 10 11  2  0
 11 12  1  0
 12 13  1  0
 12 14  2  0
 11 15  1  0
 15 16  1  0
 16 17  2  0
 16 18  1  0
 18 19  1  0
 19 20  1  0
 20 21  1  0
 21 22  1  0
 22 23  1  0
 23 24  2  0
 23 25  1  0
 15 26  1  0
 26 27  2  0
 27  6  1  0
 26  9  1  0
 25 20  1  0
  1 28  1  0
  1 29  1  0
  1 30  1  0
  3 31  1  0
  3 32  1  0
  4 33  1  0
  4 34  1  0
  5 35  1  0
  5 36  1  0
  7 37  1  0
  8 38  1  0
 10 39  1  0
 13 40  1  0
 19 41  1  0
 19 42  1  0
 20 43  1  1
 21 44  1  0
 21 45  1  0
 22 46  1  0
 22 47  1  0
 27 48  1  0
M  CHG  2   5   1  13  -1
M  END
>  <UniqueID>  (56) 
56

>  <SMILES>  (56) 
COCC[NH2+]c1ccc2cc(C([NH-])=O)n(C(=O)OC[C@@H]3CCC(=O)O3)c2c1

>  <Energy>  (56) 
94.07192358731386

>  <Genealogy>  (56) 
COCC[NH2+]c1ccc2cc(C([NH-])=O)n(C(=O)OCC3CCC(=O)O3)c2c1 (protonated)
COCC[NH2+]c1ccc2cc(C([NH-])=O)n(C(=O)OC[C@@H]3CCC(=O)O3)c2c1 (chirality)
COCC[NH2+]c1ccc2cc(C([NH-])=O)n(C(=O)OC[C@@H]3CCC(=O)O3)c2c1 (3D coordinates assigned)
COCC[NH2+]c1ccc2cc(C([NH-])=O)n(C(=O)OC[C@@H]3CCC(=O)O3)c2c1 (nonaromatic ring conformer: 94.07192358731386 kcal/mol)

>  <smiles>  (56) 
COCCNc1ccc2cc(C(N)=O)n(C(=O)OCC3CCC(=O)O3)c2c1

>  <score_type>  (56) 
oracle

>  <origin>  (56) 
adg

>  <m_score__min__energy>  (56) 
-10.68

>  <m_primary>  (56) 
energy

$$$$
56:0
     RDKit          3D

 42 44  0  0  0  0  0  0  0  0999 V2000
   -6.2070   13.4310  -34.2930 C   0  0  0  0  0  0  0  0  0  0  0  0
   -5.4020   14.2170  -33.4210 O   0  0  0  0  0  0  0  0  0  0  0  0
   -5.6770   15.5600  -33.1430 C   0  0  0  0  0  0  0  0  0  0  0  0
   -6.0130   16.4210  -34.1390 N   0  0  0  0  0  0  0  0  0  0  0  0
   -6.2800   17.7270  -33.8820 C   0  0  0  0  0  0  0  0  0  0  0  0
   -6.2160   18.2120  -32.5680 C   0  0  0  0  0  0  0  0  0  0  0  0
   -6.5030   19.6370  -32.2600 C   0  0  0  0  0  0  0  0  0  0  0  0
   -7.8200   20.1520  -32.4040 C   0  0  0  0  0  0  0  0  0  0  0  0
   -8.1040   21.4940  -32.1050 C   0  0  0  0  0  0  0  0  0  0  0  0
   -7.0580   22.3020  -31.6730 C   0  0  0  0  0  0  0  0  0  0  0  0
   -7.0590   23.6260  -31.2950 C   0  0  0  0  0  0  0  0  0  0  0  0
   -5.7400   23.9120  -30.9490 C   0  0  0  0  0  0  0  0  0  0  0  0
   -5.2770   25.2620  -30.5650 C   0  0  0  0  0  0  0  0  0  0  0  0
   -3.9300   25.6680  -30.7960 N   0  0  0  0  0  0  0  0  0  0  0  0
   -6.0920   26.0850  -30.0710 O   0  0  0  0  0  0  0  0  0  0  0  0
   -4.9570   22.8070  -31.0960 N   0  0  0  0  0  0  0  0  0  0  0  0
   -3.5650   22.6630  -30.7750 C   0  0  0  0  0  0  0  0  0  0  0  0
   -2.6920   22.8510  -31.6650 O   0  0  0  0  0  0  0  0  0  0  0  0
   -3.1860   22.3430  -29.4670 O   0  0  0  0  0  0  0  0  0  0  0  0
   -3.4180   23.1980  -28.3490 C   0  0  0  0  0  0  0  0  0  0  0  0
   -2.2510   24.1660  -28.1510 C   0  0  0  0  0  0  0  0  0  0  0  0
   -1.9620   24.8400  -29.3460 O   0  0  0  0  0  0  0  0  0  0  0  0
   -5.7770   21.8320  -31.5450 C   0  0  0  0  0  0  0  0  0  0  0  0
   -5.4680   20.4940  -31.8170 C   0  0  0  0  0  0  0  0  0  0  0  0
   -5.8690   17.3050  -31.5560 C   0  0  0  0  0  0  0  0  0  0  0  0
   -5.6070   16.0060  -31.8610 N   0  0  0  0  0  0  0  0  0  0  0  0
   -6.8689   12.7847  -33.6979 H   0  0  0  0  0  0  0  0  0  0  0  0
   -6.8145   14.0931  -34.9275 H   0  0  0  0  0  0  0  0  0  0  0  0
   -5.5596   12.8078  -34.9275 H   0  0  0  0  0  0  0  0  0  0  0  0
   -6.5469   18.4055  -34.7056 H   0  0  0  0  0  0  0  0  0  0  0  0
   -8.6266   19.4910  -32.7540 H   0  0  0  0  0  0  0  0  0  0  0  0
   -9.1233   21.8942  -32.2093 H   0  0  0  0  0  0  0  0  0  0  0  0
   -7.9185   24.3121  -31.2712 H   0  0  0  0  0  0  0  0  0  0  0  0
   -3.1820   24.9670  -30.9890 H   0  0  0  0  0  0  0  0  0  0  0  0
   -4.3388   23.7745  -28.5214 H   0  0  0  0  0  0  0  0  0  0  0  0
   -3.5168   22.5772  -27.4463 H   0  0  0  0  0  0  0  0  0  0  0  0
   -2.5177   24.9005  -27.3768 H   0  0  0  0  0  0  0  0  0  0  0  0
   -1.3636   23.5939  -27.8424 H   0  0  0  0  0  0  0  0  0  0  0  0
   -2.3970   24.3240  -30.0750 H   0  0  0  0  0  0  0  0  0  0  0  0
   -4.4426   20.1170  -31.6891 H   0  0  0  0  0  0  0  0  0  0  0  0
   -5.8086   17.6457  -30.5118 H   0  0  0  0  0  0  0  0  0  0  0  0
   -5.3460   15.3440  -31.0960 H   0  0  0  0  0  0  0  0  0  0  0  0
  1  2  1  0
  2  3  1  0
  3  4  2  0
  4  5  1  0
  5  6  2  0
  6  7  1  0
  7  8  2  0
  8  9  1  0
  9 10  2  0
 10 11  1  0
 11 12  2  0
 12 13  1  0
 13 14  1  0
 13 15  2  0
 12 16  1  0
 16 17  1  0
 17 18  2  0
 17 19  1  0
 19 20  1  0
 20 21  1  0
 21 22  1  0
 16 23  1  0
 23 24  2  0
  6 25  1  0
 25 26  2  0
 26  3  1  0
 24  7  1  0
 23 10  1  0
  1 27  1  0
  1 28  1  0
  1 29  1  0
  5 30  1  0
  8 31  1  0
  9 32  1  0
 11 33  1  0
 14 34  1  0
 20 35  1  0
 20 36  1  0
 21 37  1  0
 21 38  1  0
 22 39  1  0
 24 40  1  0
 25 41  1  0
 26 42  1  0
M  CHG  2  14  -1  26   1
M  END
>  <UniqueID>  (57) 
57

>  <SMILES>  (57) 
COc1ncc(-c2ccc3cc(C([NH-])=O)n(C(=O)OCCO)c3c2)c[nH+]1

>  <Energy>  (57) 
83.32501233066229

>  <Genealogy>  (57) 
COc1ncc(-c2ccc3cc(C([NH-])=O)n(C(=O)OCCO)c3c2)c[nH+]1 (protonated)
COc1ncc(-c2ccc3cc(C([NH-])=O)n(C(=O)OCCO)c3c2)c[nH+]1 (3D coordinates assigned)
COc1ncc(-c2ccc3cc(C([NH-])=O)n(C(=O)OCCO)c3c2)c[nH+]1 (optimized conformer: 83.32501233066229 kcal/mol)

>  <smiles>  (57) 
COc1ncc(-c2ccc3cc(C(N)=O)n(C(=O)OCCO)c3c2)cn1

>  <score_type>  (57) 
oracle

>  <origin>  (57) 
adg

>  <m_score__min__energy>  (57) 
-10.48

>  <m_primary>  (57) 
energy

$$$$
57:0
     RDKit          3D

 41 42  0  0  0  0  0  0  0  0999 V2000
   -3.8880   25.4500  -30.8480 N   0  0  0  0  0  0  0  0  0  0  0  0
   -5.2480   25.2130  -30.4840 C   0  0  0  0  0  0  0  0  0  0  0  0
   -5.8750   26.0970  -29.8420 O   0  0  0  0  0  0  0  0  0  0  0  0
   -5.9080   23.9510  -30.8790 C   0  0  0  0  0  0  0  0  0  0  0  0
   -7.2840   23.8270  -31.0670 C   0  0  0  0  0  0  0  0  0  0  0  0
   -7.4910   22.5030  -31.3770 C   0  0  0  0  0  0  0  0  0  0  0  0
   -8.6690   21.8270  -31.6770 C   0  0  0  0  0  0  0  0  0  0  0  0
   -8.5830   20.4600  -31.9890 C   0  0  0  0  0  0  0  0  0  0  0  0
   -7.3280   19.8010  -32.0120 C   0  0  0  0  0  0  0  0  0  0  0  0
   -7.2520   18.3330  -32.3180 C   0  0  0  0  0  0  0  0  0  0  0  0
   -6.0970   18.0400  -33.6940 P   0  0  2  0  0  0  0  0  0  0  0  0
   -6.4870   16.7760  -34.4260 O   0  0  0  0  0  0  0  0  0  0  0  0
   -4.5300   17.8710  -33.0830 O   0  0  0  0  0  0  0  0  0  0  0  0
   -6.1430   19.3490  -34.7670 O   0  0  0  0  0  0  0  0  0  0  0  0
   -6.1530   20.5200  -31.6980 C   0  0  0  0  0  0  0  0  0  0  0  0
   -6.2720   21.8750  -31.3690 C   0  0  0  0  0  0  0  0  0  0  0  0
   -5.2910   22.7510  -31.0630 N   0  0  0  0  0  0  0  0  0  0  0  0
   -3.8800   22.4780  -31.0300 C   0  0  0  0  0  0  0  0  0  0  0  0
   -3.1370   22.9320  -31.9400 O   0  0  0  0  0  0  0  0  0  0  0  0
   -3.2850   21.6290  -29.9380 C   0  0  0  0  0  0  0  0  0  0  0  0
   -2.5240   22.4720  -28.9120 C   0  0  0  0  0  0  0  0  0  0  0  0
   -1.7100   23.4740  -29.5980 N   0  0  0  0  0  0  0  0  0  0  0  0
   -1.1710   24.6730  -28.4600 S   0  0  0  0  0  0  0  0  0  0  0  0
    0.3190   24.5820  -28.2860 O   0  0  0  0  0  0  0  0  0  0  0  0
   -1.5370   26.0480  -28.9490 O   0  0  0  0  0  0  0  0  0  0  0  0
   -1.9650   24.3810  -26.8970 C   0  0  0  0  0  0  0  0  0  0  0  0
   -1.6320   25.3940  -26.0200 F   0  0  0  0  0  0  0  0  0  0  0  0
   -1.5410   23.1680  -26.3810 F   0  0  0  0  0  0  0  0  0  0  0  0
   -3.3350   24.3570  -27.0700 F   0  0  0  0  0  0  0  0  0  0  0  0
   -3.1480   24.7430  -30.6450 H   0  0  0  0  0  0  0  0  0  0  0  0
   -8.0426   24.6194  -30.9849 H   0  0  0  0  0  0  0  0  0  0  0  0
   -9.6383   22.3469  -31.6702 H   0  0  0  0  0  0  0  0  0  0  0  0
   -9.4988   19.8952  -32.2178 H   0  0  0  0  0  0  0  0  0  0  0  0
   -6.9002   17.7932  -31.4264 H   0  0  0  0  0  0  0  0  0  0  0  0
   -8.2512   17.9725  -32.6037 H   0  0  0  0  0  0  0  0  0  0  0  0
   -7.0710   19.3630  -35.1090 H   0  0  0  0  0  0  0  0  0  0  0  0
   -5.1696   20.0272  -31.7118 H   0  0  0  0  0  0  0  0  0  0  0  0
   -4.0951   21.0899  -29.4250 H   0  0  0  0  0  0  0  0  0  0  0  0
   -2.5735   20.9285  -30.3995 H   0  0  0  0  0  0  0  0  0  0  0  0
   -3.2425   22.9769  -28.2496 H   0  0  0  0  0  0  0  0  0  0  0  0
   -1.8689   21.8169  -28.3189 H   0  0  0  0  0  0  0  0  0  0  0  0
  1  2  1  0
  2  3  2  0
  2  4  1  0
  4  5  2  0
  5  6  1  0
  6  7  2  0
  7  8  1  0
  8  9  2  0
  9 10  1  0
 10 11  1  0
 11 12  2  0
 11 13  1  1
 11 14  1  0
  9 15  1  0
 15 16  2  0
 16 17  1  0
 17 18  1  0
 18 19  2  0
 18 20  1  0
 20 21  1  0
 21 22  1  0
 22 23  1  0
 23 24  2  0
 23 25  2  0
 23 26  1  0
 26 27  1  0
 26 28  1  0
 26 29  1  0
 17  4  1  0
 16  6  1  0
  1 30  1  0
  5 31  1  0
  7 32  1  0
  8 33  1  0
 10 34  1  0
 10 35  1  0
 14 36  1  0
 15 37  1  0
 20 38  1  0
 20 39  1  0
 21 40  1  0
 21 41  1  0
M  CHG  3   1  -1  13  -1  22  -1
M  END
>  <UniqueID>  (58) 
58

>  <SMILES>  (58) 
[NH-]C(=O)c1cc2ccc(C[P@](=O)([O-])O)cc2n1C(=O)CC[N-]S(=O)(=O)C(F)(F)F

>  <Energy>  (58) 
64.39061464007888

>  <Genealogy>  (58) 
[NH-]C(=O)c1cc2ccc(CP(=O)([O-])O)cc2n1C(=O)CC[N-]S(=O)(=O)C(F)(F)F (protonated)
[NH-]C(=O)c1cc2ccc(C[P@](=O)([O-])O)cc2n1C(=O)CC[N-]S(=O)(=O)C(F)(F)F (chirality)
[NH-]C(=O)c1cc2ccc(C[P@](=O)([O-])O)cc2n1C(=O)CC[N-]S(=O)(=O)C(F)(F)F (3D coordinates assigned)
[NH-]C(=O)c1cc2ccc(C[P@](=O)([O-])O)cc2n1C(=O)CC[N-]S(=O)(=O)C(F)(F)F (optimized conformer: 64.39061464007888 kcal/mol)

>  <smiles>  (58) 
NC(=O)c1cc2ccc(CP(=O)(O)O)cc2n1C(=O)CCNS(=O)(=O)C(F)(F)F

>  <score_type>  (58) 
oracle

>  <origin>  (58) 
adg

>  <m_score__min__energy>  (58) 
-12.25

>  <m_primary>  (58) 
energy

$$$$
58:0
     RDKit          3D

 65 67  0  0  0  0  0  0  0  0999 V2000
   -2.8270   19.4550  -27.0210 C   0  0  0  0  0  0  0  0  0  0  0  0
   -2.3070   20.8160  -27.4820 C   0  0  0  0  0  0  0  0  0  0  0  0
   -3.0540   21.3630  -28.7110 C   0  0  0  0  0  0  0  0  0  0  0  0
   -2.9530   22.8860  -28.8550 C   0  0  1  0  0  0  0  0  0  0  0  0
   -1.9480   23.3740  -28.0360 F   0  0  0  0  0  0  0  0  0  0  0  0
   -2.6470   23.2030  -30.2080 O   0  0  0  0  0  0  0  0  0  0  0  0
   -3.3030   22.6210  -31.2980 C   0  0  0  0  0  0  0  0  0  0  0  0
   -2.6430   22.0190  -32.1880 O   0  0  0  0  0  0  0  0  0  0  0  0
   -4.7350   22.6860  -31.3860 N   0  0  0  0  0  0  0  0  0  0  0  0
   -5.5510   23.7290  -31.0610 C   0  0  0  0  0  0  0  0  0  0  0  0
   -5.1360   24.9840  -30.3980 C   0  0  0  0  0  0  0  0  0  0  0  0
   -3.9530   25.6550  -30.8290 N   0  0  0  0  0  0  0  0  0  0  0  0
   -5.8340   25.4930  -29.4830 O   0  0  0  0  0  0  0  0  0  0  0  0
   -6.8780   23.4220  -31.3560 C   0  0  0  0  0  0  0  0  0  0  0  0
   -6.8520   22.1450  -31.8680 C   0  0  0  0  0  0  0  0  0  0  0  0
   -7.8940   21.3460  -32.3270 C   0  0  0  0  0  0  0  0  0  0  0  0
   -7.5780   20.0690  -32.8190 C   0  0  0  0  0  0  0  0  0  0  0  0
   -6.2320   19.6160  -32.8520 C   0  0  0  0  0  0  0  0  0  0  0  0
   -5.9080   18.2630  -33.3740 C   0  0  0  0  0  0  0  0  0  0  0  0
   -6.8470   17.2220  -33.3050 C   0  0  0  0  0  0  0  0  0  0  0  0
   -6.5290   15.9520  -33.7880 C   0  0  0  0  0  0  0  0  0  0  0  0
   -5.2640   15.7200  -34.3520 C   0  0  0  0  0  0  0  0  0  0  0  0
   -4.8610   14.4730  -34.8530 O   0  0  0  0  0  0  0  0  0  0  0  0
   -4.5960   12.9720  -33.9810 Si  0  0  0  0  0  4  0  0  0  0  0  0
   -6.2990   12.3160  -33.5660 C   0  0  0  0  0  0  0  0  0  0  0  0
   -3.7950   11.6550  -35.0500 C   0  0  0  0  0  0  0  0  0  0  0  0
   -3.6310   13.2690  -32.3620 C   0  0  0  0  0  0  0  0  0  0  0  0
   -4.5940   13.6400  -31.2220 C   0  0  0  0  0  0  0  0  0  0  0  0
   -2.8710   11.9870  -31.9810 C   0  0  0  0  0  0  0  0  0  0  0  0
   -2.6290   14.4190  -32.5700 C   0  0  0  0  0  0  0  0  0  0  0  0
   -4.3700   16.7430  -34.4060 N   0  0  0  0  0  0  0  0  0  0  0  0
   -4.6530   17.9880  -33.9390 C   0  0  0  0  0  0  0  0  0  0  0  0
   -5.2020   20.4630  -32.3790 C   0  0  0  0  0  0  0  0  0  0  0  0
   -5.5490   21.7220  -31.8760 C   0  0  0  0  0  0  0  0  0  0  0  0
   -2.8401   19.4207  -25.9216 H   0  0  0  0  0  0  0  0  0  0  0  0
   -3.8466   19.3029  -27.4048 H   0  0  0  0  0  0  0  0  0  0  0  0
   -2.1686   18.6618  -27.4048 H   0  0  0  0  0  0  0  0  0  0  0  0
   -2.4212   21.5327  -26.6554 H   0  0  0  0  0  0  0  0  0  0  0  0
   -1.2537   20.6841  -27.7703 H   0  0  0  0  0  0  0  0  0  0  0  0
   -2.6292   20.8983  -29.6130 H   0  0  0  0  0  0  0  0  0  0  0  0
   -4.1185   21.1184  -28.5802 H   0  0  0  0  0  0  0  0  0  0  0  0
   -3.9101   23.3437  -28.5643 H   0  0  0  0  0  0  0  0  0  0  0  0
   -3.0090   25.3000  -30.5600 H   0  0  0  0  0  0  0  0  0  0  0  0
   -7.7591   24.0642  -31.2105 H   0  0  0  0  0  0  0  0  0  0  0  0
   -8.9341   21.7035  -32.3053 H   0  0  0  0  0  0  0  0  0  0  0  0
   -8.3819   19.4122  -33.1829 H   0  0  0  0  0  0  0  0  0  0  0  0
   -7.8390   17.4083  -32.8678 H   0  0  0  0  0  0  0  0  0  0  0  0
   -7.2652   15.1370  -33.7273 H   0  0  0  0  0  0  0  0  0  0  0  0
   -6.4180   12.2701  -32.4734 H   0  0  0  0  0  0  0  0  0  0  0  0
   -7.0628   12.9843  -33.9903 H   0  0  0  0  0  0  0  0  0  0  0  0
   -6.4171   11.3080  -33.9903 H   0  0  0  0  0  0  0  0  0  0  0  0
   -3.3313   10.8926  -34.4067 H   0  0  0  0  0  0  0  0  0  0  0  0
   -4.5593   11.1833  -35.6851 H   0  0  0  0  0  0  0  0  0  0  0  0
   -3.0246   12.1168  -35.6851 H   0  0  0  0  0  0  0  0  0  0  0  0
   -4.1062   13.4521  -30.2542 H   0  0  0  0  0  0  0  0  0  0  0  0
   -4.8595   14.7048  -31.2982 H   0  0  0  0  0  0  0  0  0  0  0  0
   -5.5052   13.0286  -31.2982 H   0  0  0  0  0  0  0  0  0  0  0  0
   -2.8208   11.9024  -30.8854 H   0  0  0  0  0  0  0  0  0  0  0  0
   -3.3969   11.1129  -32.3926 H   0  0  0  0  0  0  0  0  0  0  0  0
   -1.8518   12.0289  -32.3926 H   0  0  0  0  0  0  0  0  0  0  0  0
   -2.2983   14.7986  -31.5920 H   0  0  0  0  0  0  0  0  0  0  0  0
   -1.7592   14.0501  -33.1333 H   0  0  0  0  0  0  0  0  0  0  0  0
   -3.1135   15.2301  -33.1333 H   0  0  0  0  0  0  0  0  0  0  0  0
   -3.8955   18.7829  -34.0042 H   0  0  0  0  0  0  0  0  0  0  0  0
   -4.1512   20.1389  -32.4061 H   0  0  0  0  0  0  0  0  0  0  0  0
  1  2  1  0
  2  3  1  0
  3  4  1  0
  4  5  1  0
  4  6  1  0
  6  7  1  0
  7  8  2  0
  7  9  1  0
  9 10  1  0
 10 11  1  0
 11 12  1  0
 11 13  2  0
 10 14  2  0
 14 15  1  0
 15 16  2  0
 16 17  1  0
 17 18  2  0
 18 19  1  0
 19 20  2  0
 20 21  1  0
 21 22  2  0
 22 23  1  0
 23 24  1  0
 24 25  1  0
 24 26  1  0
 24 27  1  0
 27 28  1  0
 27 29  1  0
 27 30  1  0
 22 31  1  0
 31 32  2  0
 18 33  1  0
 33 34  2  0
 34  9  1  0
 34 15  1  0
 32 19  1  0
  1 35  1  0
  1 36  1  0
  1 37  1  0
  2 38  1  0
  2 39  1  0
  3 40  1  0
  3 41  1  0
  4 42  1  1
 12 43  1  0
 14 44  1  0
 16 45  1  0
 17 46  1  0
 20 47  1  0
 21 48  1  0
 25 49  1  0
 25 50  1  0
 25 51  1  0
 26 52  1  0
 26 53  1  0
 26 54  1  0
 28 55  1  0
 28 56  1  0
 28 57  1  0
 29 58  1  0
 29 59  1  0
 29 60  1  0
 30 61  1  0
 30 62  1  0
 30 63  1  0
 32 64  1  0
 33 65  1  0
M  CHG  1  12  -1
M  END
>  <UniqueID>  (59) 
59

>  <SMILES>  (59) 
CCC[C@@H](F)OC(=O)n1c(C([NH-])=O)cc2ccc(-c3ccc(O[Si](C)(C)C(C)(C)C)nc3)cc21

>  <Energy>  (59) 
90.15747329533883

>  <Genealogy>  (59) 
CCCC(F)OC(=O)n1c(C([NH-])=O)cc2ccc(-c3ccc(O[Si](C)(C)C(C)(C)C)nc3)cc21 (protonated)
CCC[C@@H](F)OC(=O)n1c(C([NH-])=O)cc2ccc(-c3ccc(O[Si](C)(C)C(C)(C)C)nc3)cc21 (chirality)
CCC[C@@H](F)OC(=O)n1c(C([NH-])=O)cc2ccc(-c3ccc(O[Si](C)(C)C(C)(C)C)nc3)cc21 (3D coordinates assigned)
CCC[C@@H](F)OC(=O)n1c(C([NH-])=O)cc2ccc(-c3ccc(O[Si](C)(C)C(C)(C)C)nc3)cc21 (optimized conformer: 90.15747329533883 kcal/mol)

>  <smiles>  (59) 
CCCC(F)OC(=O)n1c(C(N)=O)cc2ccc(-c3ccc(O[Si](C)(C)C(C)(C)C)nc3)cc21

>  <score_type>  (59) 
oracle

>  <origin>  (59) 
adg

>  <m_score__min__energy>  (59) 
-11

>  <m_primary>  (59) 
energy

$$$$
59:0
     RDKit          3D

 46 49  0  0  0  0  0  0  0  0999 V2000
   -3.1550   21.7760  -29.5340 C   0  0  0  0  0  0  0  0  0  0  0  0
   -3.5830   22.7280  -30.6040 C   0  0  0  0  0  0  0  0  0  0  0  0
   -2.7110   23.4010  -31.2150 O   0  0  0  0  0  0  0  0  0  0  0  0
   -4.9630   22.8320  -30.9900 N   0  0  0  0  0  0  0  0  0  0  0  0
   -5.8080   23.8880  -30.8160 C   0  0  0  0  0  0  0  0  0  0  0  0
   -5.4310   25.2210  -30.3030 C   0  0  0  0  0  0  0  0  0  0  0  0
   -4.0790   25.6660  -30.4070 N   0  0  0  0  0  0  0  0  0  0  0  0
   -6.2830   25.9610  -29.7450 O   0  0  0  0  0  0  0  0  0  0  0  0
   -7.0860   23.5690  -31.2710 C   0  0  0  0  0  0  0  0  0  0  0  0
   -6.9940   22.2780  -31.7410 C   0  0  0  0  0  0  0  0  0  0  0  0
   -7.9640   21.4570  -32.3050 C   0  0  0  0  0  0  0  0  0  0  0  0
   -7.5880   20.1580  -32.6880 C   0  0  0  0  0  0  0  0  0  0  0  0
   -6.2570   19.7000  -32.4990 C   0  0  0  0  0  0  0  0  0  0  0  0
   -5.8710   18.3230  -32.9000 C   0  0  0  0  0  0  0  0  0  0  0  0
   -4.5560   17.8750  -32.7480 C   0  0  0  0  0  0  0  0  0  0  0  0
   -4.2130   16.5750  -33.1250 C   0  0  0  0  0  0  0  0  0  0  0  0
   -5.1530   15.6990  -33.6150 N   0  0  0  0  0  0  0  0  0  0  0  0
   -4.7880   14.3130  -34.0310 C   0  0  2  0  0  0  0  0  0  0  0  0
   -4.9650   13.2920  -32.9140 C   0  0  0  0  0  0  0  0  0  0  0  0
   -3.9240   12.2090  -33.1930 C   0  0  0  0  0  0  0  0  0  0  0  0
   -3.0560   12.6710  -34.2780 N   0  0  0  0  0  0  0  0  0  0  0  0
   -3.3250   14.0980  -34.4220 C   0  0  0  0  0  0  0  0  0  0  0  0
   -6.4360   16.1570  -33.8320 C   0  0  0  0  0  0  0  0  0  0  0  0
   -7.2980   15.4240  -34.3890 O   0  0  0  0  0  0  0  0  0  0  0  0
   -6.8100   17.4520  -33.4580 C   0  0  0  0  0  0  0  0  0  0  0  0
   -5.3000   20.5680  -31.9210 C   0  0  0  0  0  0  0  0  0  0  0  0
   -5.7020   21.8580  -31.5610 C   0  0  0  0  0  0  0  0  0  0  0  0
   -3.3544   22.2196  -28.5474 H   0  0  0  0  0  0  0  0  0  0  0  0
   -3.7170   20.8356  -29.6336 H   0  0  0  0  0  0  0  0  0  0  0  0
   -2.0786   21.5722  -29.6336 H   0  0  0  0  0  0  0  0  0  0  0  0
   -3.4910   25.4080  -31.2300 H   0  0  0  0  0  0  0  0  0  0  0  0
   -7.9785   24.2118  -31.2575 H   0  0  0  0  0  0  0  0  0  0  0  0
   -8.9949   21.8134  -32.4472 H   0  0  0  0  0  0  0  0  0  0  0  0
   -8.3340   19.4877  -33.1398 H   0  0  0  0  0  0  0  0  0  0  0  0
   -3.7910   18.5466  -32.3313 H   0  0  0  0  0  0  0  0  0  0  0  0
   -3.1683   16.2445  -33.0279 H   0  0  0  0  0  0  0  0  0  0  0  0
   -5.4637   14.1791  -34.8886 H   0  0  0  0  0  0  0  0  0  0  0  0
   -4.7844   13.7574  -31.9338 H   0  0  0  0  0  0  0  0  0  0  0  0
   -5.9862   12.8839  -32.8879 H   0  0  0  0  0  0  0  0  0  0  0  0
   -3.3243   12.0284  -32.2887 H   0  0  0  0  0  0  0  0  0  0  0  0
   -4.4219   11.2712  -33.4805 H   0  0  0  0  0  0  0  0  0  0  0  0
   -3.3610   12.2000  -35.1630 H   0  0  0  0  0  0  0  0  0  0  0  0
   -2.6664   14.6765  -33.7575 H   0  0  0  0  0  0  0  0  0  0  0  0
   -3.1384   14.4330  -35.4530 H   0  0  0  0  0  0  0  0  0  0  0  0
   -7.8479   17.7860  -33.6039 H   0  0  0  0  0  0  0  0  0  0  0  0
   -4.2641   20.2355  -31.7588 H   0  0  0  0  0  0  0  0  0  0  0  0
  1  2  1  0
  2  3  2  0
  2  4  1  0
  4  5  1  0
  5  6  1  0
  6  7  1  0
  6  8  2  0
  5  9  2  0
  9 10  1  0
 10 11  2  0
 11 12  1  0
 12 13  2  0
 13 14  1  0
 14 15  1  0
 15 16  2  0
 16 17  1  0
 17 18  1  0
 18 19  1  0
 19 20  1  0
 20 21  1  0
 21 22  1  0
 17 23  1  0
 23 24  2  0
 23 25  1  0
 13 26  1  0
 26 27  2  0
 27  4  1  0
 27 10  1  0
 25 14  2  0
 22 18  1  0
  1 28  1  0
  1 29  1  0
  1 30  1  0
  7 31  1  0
  9 32  1  0
 11 33  1  0
 12 34  1  0
 15 35  1  0
 16 36  1  0
 18 37  1  6
 19 38  1  0
 19 39  1  0
 20 40  1  0
 20 41  1  0
 21 42  1  0
 22 43  1  0
 22 44  1  0
 25 45  1  0
 26 46  1  0
M  CHG  1   7  -1
M  END
>  <UniqueID>  (60) 
60

>  <SMILES>  (60) 
CC(=O)n1c(C([NH-])=O)cc2ccc(-c3ccn([C@@H]4CCNC4)c(=O)c3)cc21

>  <Energy>  (60) 
103.63801450048648

>  <Genealogy>  (60) 
CC(=O)n1c(C([NH-])=O)cc2ccc(-c3ccn(C4CCNC4)c(=O)c3)cc21 (protonated)
CC(=O)n1c(C([NH-])=O)cc2ccc(-c3ccn([C@@H]4CCNC4)c(=O)c3)cc21 (chirality)
CC(=O)n1c(C([NH-])=O)cc2ccc(-c3ccn([C@@H]4CCNC4)c(=O)c3)cc21 (3D coordinates assigned)
CC(=O)n1c(C([NH-])=O)cc2ccc(-c3ccn([C@@H]4CCNC4)c(=O)c3)cc21 (nonaromatic ring conformer: 103.63801450048648 kcal/mol)

>  <smiles>  (60) 
CC(=O)n1c(C(N)=O)cc2ccc(-c3ccn(C4CCNC4)c(=O)c3)cc21

>  <score_type>  (60) 
oracle

>  <origin>  (60) 
adg

>  <m_score__min__energy>  (60) 
-10.9

>  <m_primary>  (60) 
energy

$$$$
60:0
     RDKit          3D

 37 38  0  0  0  0  0  0  0  0999 V2000
   -2.5230   19.9810  -33.4150 C   0  0  0  0  0  0  0  0  0  0  0  0
   -2.4510   21.5040  -33.4510 C   0  0  0  0  0  0  0  0  0  0  0  0
   -3.7490   22.0850  -33.1220 N   0  0  0  0  0  0  0  0  0  0  0  0
   -4.0880   22.5250  -31.7990 C   0  0  0  0  0  0  0  0  0  0  0  0
   -3.2070   22.5520  -30.8960 O   0  0  0  0  0  0  0  0  0  0  0  0
   -5.4320   22.9240  -31.4970 N   0  0  0  0  0  0  0  0  0  0  0  0
   -5.8530   24.1020  -30.9540 C   0  0  0  0  0  0  0  0  0  0  0  0
   -5.0010   25.2730  -30.6630 C   0  0  0  0  0  0  0  0  0  0  0  0
   -3.6000   25.1010  -30.4610 N   0  0  0  0  0  0  0  0  0  0  0  0
   -5.5000   26.4250  -30.5630 O   0  0  0  0  0  0  0  0  0  0  0  0
   -7.2340   24.0840  -30.7640 C   0  0  0  0  0  0  0  0  0  0  0  0
   -7.6480   22.8490  -31.2110 C   0  0  0  0  0  0  0  0  0  0  0  0
   -8.9220   22.2890  -31.2450 C   0  0  0  0  0  0  0  0  0  0  0  0
   -9.0510   20.9790  -31.7360 C   0  0  0  0  0  0  0  0  0  0  0  0
   -7.9120   20.2500  -32.1590 C   0  0  0  0  0  0  0  0  0  0  0  0
   -8.0650   18.8550  -32.7010 C   0  0  0  0  0  0  0  0  0  0  0  0
   -6.7320   18.1570  -32.7420 C   0  0  0  0  0  0  0  0  0  0  0  0
   -6.2910   17.6440  -31.7240 O   0  0  0  0  0  0  0  0  0  0  0  0
   -5.9460   18.0830  -34.0210 C   0  0  0  0  0  0  0  0  0  0  0  0
   -6.0760   19.2580  -34.7400 F   0  0  0  0  0  0  0  0  0  0  0  0
   -4.6100   17.8790  -33.7330 F   0  0  0  0  0  0  0  0  0  0  0  0
   -6.4110   17.0330  -34.7900 F   0  0  0  0  0  0  0  0  0  0  0  0
   -6.6360   20.8540  -32.1170 C   0  0  0  0  0  0  0  0  0  0  0  0
   -6.5410   22.1690  -31.6450 C   0  0  0  0  0  0  0  0  0  0  0  0
   -2.5392   19.6393  -32.3695 H   0  0  0  0  0  0  0  0  0  0  0  0
   -3.4380   19.6450  -33.9247 H   0  0  0  0  0  0  0  0  0  0  0  0
   -1.6437   19.5602  -33.9247 H   0  0  0  0  0  0  0  0  0  0  0  0
   -1.7045   21.8485  -32.7202 H   0  0  0  0  0  0  0  0  0  0  0  0
   -2.1650   21.8228  -34.4642 H   0  0  0  0  0  0  0  0  0  0  0  0
   -4.4430   22.2240  -33.8900 H   0  0  0  0  0  0  0  0  0  0  0  0
   -2.9970   24.6900  -31.2070 H   0  0  0  0  0  0  0  0  0  0  0  0
   -7.8600   24.8860  -30.3458 H   0  0  0  0  0  0  0  0  0  0  0  0
   -9.7998   22.8542  -30.8985 H   0  0  0  0  0  0  0  0  0  0  0  0
  -10.0465   20.5145  -31.7926 H   0  0  0  0  0  0  0  0  0  0  0  0
   -8.7508   18.2883  -32.0540 H   0  0  0  0  0  0  0  0  0  0  0  0
   -8.4685   18.9122  -33.7227 H   0  0  0  0  0  0  0  0  0  0  0  0
   -5.7408   20.3061  -32.4462 H   0  0  0  0  0  0  0  0  0  0  0  0
  1  2  1  0
  2  3  1  0
  3  4  1  0
  4  5  2  0
  4  6  1  0
  6  7  1  0
  7  8  1  0
  8  9  1  0
  8 10  2  0
  7 11  2  0
 11 12  1  0
 12 13  2  0
 13 14  1  0
 14 15  2  0
 15 16  1  0
 16 17  1  0
 17 18  2  0
 17 19  1  0
 19 20  1  0
 19 21  1  0
 19 22  1  0
 15 23  1  0
 23 24  2  0
 24  6  1  0
 24 12  1  0
  1 25  1  0
  1 26  1  0
  1 27  1  0
  2 28  1  0
  2 29  1  0
  3 30  1  0
  9 31  1  0
 11 32  1  0
 13 33  1  0
 14 34  1  0
 16 35  1  0
 16 36  1  0
 23 37  1  0
M  CHG  1   9  -1
M  END
>  <UniqueID>  (61) 
61

>  <SMILES>  (61) 
CCNC(=O)n1c(C([NH-])=O)cc2ccc(CC(=O)C(F)(F)F)cc21

>  <Energy>  (61) 
67.70924707881545

>  <Genealogy>  (61) 
CCNC(=O)n1c(C([NH-])=O)cc2ccc(CC(=O)C(F)(F)F)cc21 (protonated)
CCNC(=O)n1c(C([NH-])=O)cc2ccc(CC(=O)C(F)(F)F)cc21 (3D coordinates assigned)
CCNC(=O)n1c(C([NH-])=O)cc2ccc(CC(=O)C(F)(F)F)cc21 (optimized conformer: 67.70924707881545 kcal/mol)

>  <smiles>  (61) 
CCNC(=O)n1c(C(N)=O)cc2ccc(CC(=O)C(F)(F)F)cc21

>  <score_type>  (61) 
oracle

>  <origin>  (61) 
adg

>  <m_score__min__energy>  (61) 
-10.41

>  <m_primary>  (61) 
energy

$$$$
61:0
     RDKit          3D

 40 41  0  0  0  0  0  0  0  0999 V2000
   -8.9040   23.4130  -32.2890 C   0  0  0  0  0  0  0  0  0  0  0  0
   -7.6210   22.9020  -31.6050 C   0  0  0  0  0  0  0  0  0  0  0  0
   -6.8260   24.1070  -31.0780 C   0  0  0  0  0  0  0  0  0  0  0  0
   -7.9660   21.9790  -30.4210 C   0  0  0  0  0  0  0  0  0  0  0  0
   -6.7830   22.2230  -32.5500 O   0  0  0  0  0  0  0  0  0  0  0  0
   -6.3410   20.8930  -32.4700 C   0  0  0  0  0  0  0  0  0  0  0  0
   -7.1640   19.9470  -32.3400 O   0  0  0  0  0  0  0  0  0  0  0  0
   -4.9330   20.6120  -32.5440 N   0  0  0  0  0  0  0  0  0  0  0  0
   -4.3220   19.6710  -33.3170 C   0  0  0  0  0  0  0  0  0  0  0  0
   -4.9700   18.8660  -34.3710 C   0  0  0  0  0  0  0  0  0  0  0  0
   -6.3030   19.1460  -34.8010 N   0  0  0  0  0  0  0  0  0  0  0  0
   -4.3190   17.9490  -34.9380 O   0  0  0  0  0  0  0  0  0  0  0  0
   -2.9650   19.5900  -33.0160 C   0  0  0  0  0  0  0  0  0  0  0  0
   -2.7570   20.5280  -32.0310 C   0  0  0  0  0  0  0  0  0  0  0  0
   -1.5920   20.8560  -31.3420 C   0  0  0  0  0  0  0  0  0  0  0  0
   -1.6730   21.8330  -30.3370 C   0  0  0  0  0  0  0  0  0  0  0  0
   -2.9090   22.4600  -30.0390 C   0  0  0  0  0  0  0  0  0  0  0  0
   -2.9930   23.4680  -28.9270 C   0  0  0  0  0  0  0  0  0  0  0  0
   -2.8210   24.8500  -29.4710 C   0  0  0  0  0  0  0  0  0  0  0  0
   -1.9640   25.6250  -28.9700 O   0  0  0  0  0  0  0  0  0  0  0  0
   -3.6420   25.3010  -30.4960 O   0  0  0  0  0  0  0  0  0  0  0  0
   -4.0730   22.0930  -30.7500 C   0  0  0  0  0  0  0  0  0  0  0  0
   -3.9590   21.1310  -31.7620 C   0  0  0  0  0  0  0  0  0  0  0  0
   -9.6369   23.7049  -31.5224 H   0  0  0  0  0  0  0  0  0  0  0  0
   -8.6631   24.2838  -32.9164 H   0  0  0  0  0  0  0  0  0  0  0  0
   -9.3278   22.6150  -32.9164 H   0  0  0  0  0  0  0  0  0  0  0  0
   -6.8322   24.0976  -29.9781 H   0  0  0  0  0  0  0  0  0  0  0  0
   -5.7887   24.0483  -31.4394 H   0  0  0  0  0  0  0  0  0  0  0  0
   -7.2881   25.0375  -31.4394 H   0  0  0  0  0  0  0  0  0  0  0  0
   -7.7690   22.5060  -29.4758 H   0  0  0  0  0  0  0  0  0  0  0  0
   -9.0290   21.7004  -30.4709 H   0  0  0  0  0  0  0  0  0  0  0  0
   -7.3464   21.0715  -30.4709 H   0  0  0  0  0  0  0  0  0  0  0  0
   -6.8050   20.0000  -34.4740 H   0  0  0  0  0  0  0  0  0  0  0  0
   -6.7650   18.5350  -35.5110 H   0  0  0  0  0  0  0  0  0  0  0  0
   -2.2192   18.9199  -33.4685 H   0  0  0  0  0  0  0  0  0  0  0  0
   -0.6368   20.3642  -31.5782 H   0  0  0  0  0  0  0  0  0  0  0  0
   -0.7696   22.1144  -29.7760 H   0  0  0  0  0  0  0  0  0  0  0  0
   -3.9753   23.3892  -28.4382 H   0  0  0  0  0  0  0  0  0  0  0  0
   -2.1944   23.2665  -28.1979 H   0  0  0  0  0  0  0  0  0  0  0  0
   -5.0450   22.5512  -30.5149 H   0  0  0  0  0  0  0  0  0  0  0  0
  1  2  1  0
  2  3  1  0
  2  4  1  0
  2  5  1  0
  5  6  1  0
  6  7  2  0
  6  8  1  0
  8  9  1  0
  9 10  1  0
 10 11  1  0
 10 12  2  0
  9 13  2  0
 13 14  1  0
 14 15  2  0
 15 16  1  0
 16 17  2  0
 17 18  1  0
 18 19  1  0
 19 20  2  0
 19 21  1  0
 17 22  1  0
 22 23  2  0
 23  8  1  0
 23 14  1  0
  1 24  1  0
  1 25  1  0
  1 26  1  0
  3 27  1  0
  3 28  1  0
  3 29  1  0
  4 30  1  0
  4 31  1  0
  4 32  1  0
 11 33  1  0
 11 34  1  0
 13 35  1  0
 15 36  1  0
 16 37  1  0
 18 38  1  0
 18 39  1  0
 22 40  1  0
M  CHG  1  21  -1
M  END
>  <UniqueID>  (62) 
62

>  <SMILES>  (62) 
CC(C)(C)OC(=O)n1c(C(N)=O)cc2ccc(CC(=O)[O-])cc21

>  <Energy>  (62) 
72.25259054039799

>  <Genealogy>  (62) 
CC(C)(C)OC(=O)n1c(C(N)=O)cc2ccc(CC(=O)[O-])cc21 (protonated)
CC(C)(C)OC(=O)n1c(C(N)=O)cc2ccc(CC(=O)[O-])cc21 (3D coordinates assigned)
CC(C)(C)OC(=O)n1c(C(N)=O)cc2ccc(CC(=O)[O-])cc21 (optimized conformer: 72.25259054039799 kcal/mol)

>  <smiles>  (62) 
CC(C)(C)OC(=O)n1c(C(N)=O)cc2ccc(CC(=O)O)cc21

>  <score_type>  (62) 
oracle

>  <origin>  (62) 
adg

>  <m_score__min__energy>  (62) 
-10.1

>  <m_primary>  (62) 
energy

$$$$
62:0
     RDKit          3D

 31 33  0  0  0  0  0  0  0  0999 V2000
   -1.5890   25.7200  -28.9630 N   0  0  0  0  0  0  0  0  0  0  0  0
   -1.0330   24.4230  -29.1610 C   0  0  0  0  0  0  0  0  0  0  0  0
    0.1200   24.1710  -28.7180 O   0  0  0  0  0  0  0  0  0  0  0  0
   -1.7620   23.3920  -29.9290 C   0  0  0  0  0  0  0  0  0  0  0  0
   -1.1940   22.1800  -30.3140 C   0  0  0  0  0  0  0  0  0  0  0  0
   -2.1510   21.5540  -31.0770 C   0  0  0  0  0  0  0  0  0  0  0  0
   -2.1260   20.3100  -31.7020 C   0  0  0  0  0  0  0  0  0  0  0  0
   -3.2740   19.8990  -32.3970 C   0  0  0  0  0  0  0  0  0  0  0  0
   -4.4190   20.7330  -32.4580 C   0  0  0  0  0  0  0  0  0  0  0  0
   -5.6600   20.2590  -33.1610 C   0  0  0  0  0  0  0  0  0  0  0  0
   -6.7930   20.0690  -32.1470 C   0  0  0  0  0  0  0  0  0  0  0  0
   -8.2020   20.1070  -32.7190 C   0  0  0  0  0  0  0  0  0  0  0  0
   -7.5850   18.7800  -32.3030 C   0  0  0  0  0  0  0  0  0  0  0  0
   -4.4130   21.9840  -31.8010 C   0  0  0  0  0  0  0  0  0  0  0  0
   -3.2480   22.3760  -31.1300 C   0  0  0  0  0  0  0  0  0  0  0  0
   -3.0260   23.5080  -30.4260 N   0  0  0  0  0  0  0  0  0  0  0  0
   -3.9760   24.5570  -30.1740 C   0  0  0  0  0  0  0  0  0  0  0  0
   -3.8630   25.6690  -30.7530 O   0  0  0  0  0  0  0  0  0  0  0  0
   -5.0440   24.3450  -29.3130 O   0  0  0  0  0  0  0  0  0  0  0  0
   -2.6230   25.8670  -28.9700 H   0  0  0  0  0  0  0  0  0  0  0  0
   -0.1919   21.8034  -30.0611 H   0  0  0  0  0  0  0  0  0  0  0  0
   -1.2336   19.6688  -31.6525 H   0  0  0  0  0  0  0  0  0  0  0  0
   -3.2855   18.9204  -32.8992 H   0  0  0  0  0  0  0  0  0  0  0  0
   -5.9624   21.0054  -33.9103 H   0  0  0  0  0  0  0  0  0  0  0  0
   -5.4518   19.2989  -33.6558 H   0  0  0  0  0  0  0  0  0  0  0  0
   -6.2785   20.5769  -31.3179 H   0  0  0  0  0  0  0  0  0  0  0  0
   -9.0234   20.5405  -32.1296 H   0  0  0  0  0  0  0  0  0  0  0  0
   -8.6570   20.4983  -33.6409 H   0  0  0  0  0  0  0  0  0  0  0  0
   -7.9604   18.2540  -31.4128 H   0  0  0  0  0  0  0  0  0  0  0  0
   -7.4092   17.8143  -32.7995 H   0  0  0  0  0  0  0  0  0  0  0  0
   -5.3007   22.6334  -31.8162 H   0  0  0  0  0  0  0  0  0  0  0  0
  1  2  1  0
  2  3  2  0
  2  4  1  0
  4  5  2  0
  5  6  1  0
  6  7  2  0
  7  8  1  0
  8  9  2  0
  9 10  1  0
 10 11  1  0
 11 12  1  0
 12 13  1  0
  9 14  1  0
 14 15  2  0
 15 16  1  0
 16 17  1  0
 17 18  2  0
 17 19  1  0
 16  4  1  0
 15  6  1  0
 13 11  1  0
  1 20  1  0
  5 21  1  0
  7 22  1  0
  8 23  1  0
 10 24  1  0
 10 25  1  0
 11 26  1  0
 12 27  1  0
 12 28  1  0
 13 29  1  0
 13 30  1  0
 14 31  1  0
M  CHG  2   1  -1  19  -1
M  END
>  <UniqueID>  (63) 
63

>  <SMILES>  (63) 
[NH-]C(=O)c1cc2ccc(CC3CC3)cc2n1C(=O)[O-]

>  <Energy>  (63) 
333.91471852415106

>  <Genealogy>  (63) 
[NH-]C(=O)c1cc2ccc(CC3CC3)cc2n1C(=O)[O-] (protonated)
[NH-]C(=O)c1cc2ccc(CC3CC3)cc2n1C(=O)[O-] (3D coordinates assigned)
[NH-]C(=O)c1cc2ccc(CC3CC3)cc2n1C(=O)[O-] (nonaromatic ring conformer: 333.91471852415106 kcal/mol)

>  <smiles>  (63) 
NC(=O)c1cc2ccc(CC3CC3)cc2n1C(=O)O

>  <score_type>  (63) 
oracle

>  <origin>  (63) 
adg

>  <m_score__min__energy>  (63) 
-11.07

>  <m_primary>  (63) 
energy

$$$$
63:0
     RDKit          3D

 54 57  0  0  0  0  0  0  0  0999 V2000
   -3.8720   25.6620  -30.8470 N   0  0  0  0  0  0  0  0  0  0  0  0
   -5.1260   25.0920  -30.4820 C   0  0  0  0  0  0  0  0  0  0  0  0
   -5.8260   25.6570  -29.5990 O   0  0  0  0  0  0  0  0  0  0  0  0
   -5.5880   23.8230  -31.0800 C   0  0  0  0  0  0  0  0  0  0  0  0
   -6.9290   23.5310  -31.3160 C   0  0  0  0  0  0  0  0  0  0  0  0
   -6.9450   22.2380  -31.7840 C   0  0  0  0  0  0  0  0  0  0  0  0
   -8.0140   21.4460  -32.1880 C   0  0  0  0  0  0  0  0  0  0  0  0
   -7.7360   20.1520  -32.6570 C   0  0  0  0  0  0  0  0  0  0  0  0
   -6.4010   19.6740  -32.7240 C   0  0  0  0  0  0  0  0  0  0  0  0
   -6.1170   18.3080  -33.2340 C   0  0  0  0  0  0  0  0  0  0  0  0
   -7.1030   17.3110  -33.2080 C   0  0  0  0  0  0  0  0  0  0  0  0
   -6.8250   16.0320  -33.6900 C   0  0  0  0  0  0  0  0  0  0  0  0
   -5.5470   15.7460  -34.2000 C   0  0  0  0  0  0  0  0  0  0  0  0
   -5.2090   14.4780  -34.6970 O   0  0  0  0  0  0  0  0  0  0  0  0
   -5.2100   13.2800  -33.9230 C   0  0  0  0  0  0  0  0  0  0  0  0
   -4.4680   13.5060  -32.6050 C   0  0  0  0  0  0  0  0  0  0  0  0
   -2.9550   13.6710  -32.8240 C   0  0  0  0  0  0  0  0  0  0  0  0
   -2.6540   14.9210  -33.5540 N   0  0  0  0  0  0  0  0  0  0  0  0
   -2.0810   14.6460  -34.8930 C   0  0  0  0  0  0  0  0  0  0  0  0
   -1.4230   15.9040  -35.4930 C   0  0  0  0  0  0  0  0  0  0  0  0
   -1.9020   17.0680  -34.8530 O   0  0  0  0  0  0  0  0  0  0  0  0
   -1.4580   17.0910  -33.5070 C   0  0  0  0  0  0  0  0  0  0  0  0
   -1.7290   15.7600  -32.7710 C   0  0  0  0  0  0  0  0  0  0  0  0
   -4.6010   16.7260  -34.2170 N   0  0  0  0  0  0  0  0  0  0  0  0
   -4.8530   17.9800  -33.7540 C   0  0  0  0  0  0  0  0  0  0  0  0
   -5.3410   20.5130  -32.3040 C   0  0  0  0  0  0  0  0  0  0  0  0
   -5.6500   21.7900  -31.8230 C   0  0  0  0  0  0  0  0  0  0  0  0
   -4.8020   22.7540  -31.3970 N   0  0  0  0  0  0  0  0  0  0  0  0
   -3.3680   22.6850  -31.3840 C   0  0  0  0  0  0  0  0  0  0  0  0
   -2.7440   22.2140  -32.3710 O   0  0  0  0  0  0  0  0  0  0  0  0
   -2.6530   23.1630  -30.2930 O   0  0  0  0  0  0  0  0  0  0  0  0
   -2.9780   25.2880  -30.4570 H   0  0  0  0  0  0  0  0  0  0  0  0
   -7.7927   24.1943  -31.1609 H   0  0  0  0  0  0  0  0  0  0  0  0
   -9.0467   21.8219  -32.1416 H   0  0  0  0  0  0  0  0  0  0  0  0
   -8.5629   19.5007  -32.9764 H   0  0  0  0  0  0  0  0  0  0  0  0
   -8.1010   17.5389  -32.8053 H   0  0  0  0  0  0  0  0  0  0  0  0
   -7.6008   15.2524  -33.6711 H   0  0  0  0  0  0  0  0  0  0  0  0
   -6.2481   12.9850  -33.7103 H   0  0  0  0  0  0  0  0  0  0  0  0
   -4.7038   12.4845  -34.4896 H   0  0  0  0  0  0  0  0  0  0  0  0
   -4.8601   14.4157  -32.1268 H   0  0  0  0  0  0  0  0  0  0  0  0
   -4.6275   12.6245  -31.9667 H   0  0  0  0  0  0  0  0  0  0  0  0
   -2.4515   13.6962  -31.8463 H   0  0  0  0  0  0  0  0  0  0  0  0
   -2.5950   12.8219  -33.4236 H   0  0  0  0  0  0  0  0  0  0  0  0
   -1.3226   13.8544  -34.8019 H   0  0  0  0  0  0  0  0  0  0  0  0
   -2.8967   14.3306  -35.5602 H   0  0  0  0  0  0  0  0  0  0  0  0
   -0.3330   15.8405  -35.3596 H   0  0  0  0  0  0  0  0  0  0  0  0
   -1.6726   15.9590  -36.5629 H   0  0  0  0  0  0  0  0  0  0  0  0
   -0.3755   17.2859  -33.4961 H   0  0  0  0  0  0  0  0  0  0  0  0
   -2.0169   17.8813  -32.9845 H   0  0  0  0  0  0  0  0  0  0  0  0
   -0.7796   15.2219  -32.6331 H   0  0  0  0  0  0  0  0  0  0  0  0
   -2.1843   15.9781  -31.7937 H   0  0  0  0  0  0  0  0  0  0  0  0
   -3.6510   16.5100  -34.5930 H   0  0  0  0  0  0  0  0  0  0  0  0
   -4.0615   18.7432  -33.7868 H   0  0  0  0  0  0  0  0  0  0  0  0
   -4.2975   20.1686  -32.3547 H   0  0  0  0  0  0  0  0  0  0  0  0
  1  2  1  0
  2  3  2  0
  2  4  1  0
  4  5  2  0
  5  6  1  0
  6  7  2  0
  7  8  1  0
  8  9  2  0
  9 10  1  0
 10 11  2  0
 11 12  1  0
 12 13  2  0
 13 14  1  0
 14 15  1  0
 15 16  1  0
 16 17  1  0
 17 18  1  0
 18 19  1  0
 19 20  1  0
 20 21  1  0
 21 22  1  0
 22 23  1  0
 13 24  1  0
 24 25  2  0
  9 26  1  0
 26 27  2  0
 27 28  1  0
 28 29  1  0
 29 30  2  0
 29 31  1  0
 28  4  1  0
 27  6  1  0
 25 10  1  0
 23 18  1  0
  1 32  1  0
  5 33  1  0
  7 34  1  0
  8 35  1  0
 11 36  1  0
 12 37  1  0
 15 38  1  0
 15 39  1  0
 16 40  1  0
 16 41  1  0
 17 42  1  0
 17 43  1  0
 19 44  1  0
 19 45  1  0
 20 46  1  0
 20 47  1  0
 22 48  1  0
 22 49  1  0
 23 50  1  0
 23 51  1  0
 24 52  1  0
 25 53  1  0
 26 54  1  0
M  CHG  3   1  -1  24   1  31  -1
M  END
>  <UniqueID>  (64) 
64

>  <SMILES>  (64) 
[NH-]C(=O)c1cc2ccc(-c3ccc(OCCCN4CCOCC4)[nH+]c3)cc2n1C(=O)[O-]

>  <Energy>  (64) 
108.29004125512802

>  <Genealogy>  (64) 
[NH-]C(=O)c1cc2ccc(-c3ccc(OCCCN4CCOCC4)[nH+]c3)cc2n1C(=O)[O-] (protonated)
[NH-]C(=O)c1cc2ccc(-c3ccc(OCCCN4CCOCC4)[nH+]c3)cc2n1C(=O)[O-] (3D coordinates assigned)
[NH-]C(=O)c1cc2ccc(-c3ccc(OCCCN4CCOCC4)[nH+]c3)cc2n1C(=O)[O-] (nonaromatic ring conformer: 108.29004125512802 kcal/mol)

>  <smiles>  (64) 
NC(=O)c1cc2ccc(-c3ccc(OCCCN4CCOCC4)nc3)cc2n1C(=O)O

>  <score_type>  (64) 
oracle

>  <origin>  (64) 
adg

>  <m_score__min__energy>  (64) 
-10.050000000000001

>  <m_primary>  (64) 
energy

$$$$
64:0
     RDKit          3D

 40 43  0  0  0  0  0  0  0  0999 V2000
   -4.3260   15.6830  -34.6710 C   0  0  0  0  0  0  0  0  0  0  0  0
   -5.3280   16.5010  -34.0010 N   0  0  0  0  0  0  0  0  0  0  0  0
   -5.1870   17.7940  -33.6620 C   0  0  0  0  0  0  0  0  0  0  0  0
   -6.3770   18.2250  -33.1040 C   0  0  0  0  0  0  0  0  0  0  0  0
   -6.7010   19.5780  -32.5860 C   0  0  0  0  0  0  0  0  0  0  0  0
   -8.0490   20.0190  -32.5110 C   0  0  0  0  0  0  0  0  0  0  0  0
   -8.3640   21.2980  -32.0220 C   0  0  0  0  0  0  0  0  0  0  0  0
   -7.3170   22.1130  -31.6050 C   0  0  0  0  0  0  0  0  0  0  0  0
   -7.3360   23.3980  -31.1100 C   0  0  0  0  0  0  0  0  0  0  0  0
   -6.0000   23.7220  -30.8720 C   0  0  0  0  0  0  0  0  0  0  0  0
   -5.5400   25.0010  -30.2810 C   0  0  0  0  0  0  0  0  0  0  0  0
   -6.1060   25.4940  -29.0650 N   0  0  0  0  0  0  0  0  0  0  0  0
   -4.6250   25.6630  -30.8410 O   0  0  0  0  0  0  0  0  0  0  0  0
   -5.1940   22.6740  -31.1990 N   0  0  0  0  0  0  0  0  0  0  0  0
   -3.7590   22.6280  -31.1460 C   0  0  0  0  0  0  0  0  0  0  0  0
   -3.1120   22.2300  -32.1530 O   0  0  0  0  0  0  0  0  0  0  0  0
   -3.0370   23.0520  -29.9320 C   0  0  0  0  0  0  0  0  0  0  0  0
   -3.0150   22.3050  -28.7530 C   0  0  0  0  0  0  0  0  0  0  0  0
   -2.0880   23.1400  -27.6220 S   0  0  0  0  0  0  0  0  0  0  0  0
   -1.7570   24.3990  -28.6820 C   0  0  0  0  0  0  0  0  0  0  0  0
   -0.9680   25.5400  -28.3590 N   0  0  0  0  0  0  0  0  0  0  0  0
   -2.3310   24.2150  -29.8870 N   0  0  0  0  0  0  0  0  0  0  0  0
   -6.0130   21.7010  -31.6520 C   0  0  0  0  0  0  0  0  0  0  0  0
   -5.6670   20.4430  -32.1580 C   0  0  0  0  0  0  0  0  0  0  0  0
   -7.2090   17.1150  -33.1520 C   0  0  0  0  0  0  0  0  0  0  0  0
   -6.5490   16.0820  -33.7100 N   0  0  0  0  0  0  0  0  0  0  0  0
   -3.7043   15.1755  -33.9188 H   0  0  0  0  0  0  0  0  0  0  0  0
   -4.8265   14.9322  -35.3001 H   0  0  0  0  0  0  0  0  0  0  0  0
   -3.6906   16.3237  -35.3001 H   0  0  0  0  0  0  0  0  0  0  0  0
   -4.2824   18.4035  -33.8037 H   0  0  0  0  0  0  0  0  0  0  0  0
   -8.8576   19.3499  -32.8403 H   0  0  0  0  0  0  0  0  0  0  0  0
   -9.4068   21.6441  -31.9705 H   0  0  0  0  0  0  0  0  0  0  0  0
   -8.2172   24.0338  -30.9387 H   0  0  0  0  0  0  0  0  0  0  0  0
   -5.7450   26.3780  -28.6420 H   0  0  0  0  0  0  0  0  0  0  0  0
   -6.9100   25.0150  -28.6030 H   0  0  0  0  0  0  0  0  0  0  0  0
   -3.5159   21.3392  -28.5910 H   0  0  0  0  0  0  0  0  0  0  0  0
   -0.1490   25.8010  -28.9510 H   0  0  0  0  0  0  0  0  0  0  0  0
   -1.2030   26.1230  -27.5250 H   0  0  0  0  0  0  0  0  0  0  0  0
   -4.6134   20.1335  -32.2215 H   0  0  0  0  0  0  0  0  0  0  0  0
   -8.2473   17.0838  -32.7901 H   0  0  0  0  0  0  0  0  0  0  0  0
  1  2  1  0
  2  3  1  0
  3  4  2  0
  4  5  1  0
  5  6  2  0
  6  7  1  0
  7  8  2  0
  8  9  1  0
  9 10  2  0
 10 11  1  0
 11 12  1  0
 11 13  2  0
 10 14  1  0
 14 15  1  0
 15 16  2  0
 15 17  1  0
 17 18  2  0
 18 19  1  0
 19 20  1  0
 20 21  1  0
 20 22  2  0
 14 23  1  0
 23 24  2  0
  4 25  1  0
 25 26  2  0
 26  2  1  0
 24  5  1  0
 23  8  1  0
 22 17  1  0
  1 27  1  0
  1 28  1  0
  1 29  1  0
  3 30  1  0
  6 31  1  0
  7 32  1  0
  9 33  1  0
 12 34  1  0
 12 35  1  0
 18 36  1  0
 21 37  1  0
 21 38  1  0
 24 39  1  0
 25 40  1  0
M  END
>  <UniqueID>  (65) 
65

>  <SMILES>  (65) 
Cn1cc(-c2ccc3cc(C(N)=O)n(C(=O)c4csc(N)n4)c3c2)cn1

>  <Energy>  (65) 
142.39518090901794

>  <Genealogy>  (65) 
Cn1cc(-c2ccc3cc(C(N)=O)n(C(=O)c4csc(N)n4)c3c2)cn1 (3D coordinates assigned)
Cn1cc(-c2ccc3cc(C(N)=O)n(C(=O)c4csc(N)n4)c3c2)cn1 (optimized conformer: 142.39518090901794 kcal/mol)

>  <smiles>  (65) 
Cn1cc(-c2ccc3cc(C(N)=O)n(C(=O)c4csc(N)n4)c3c2)cn1

>  <score_type>  (65) 
oracle

>  <origin>  (65) 
adg

>  <m_score__min__energy>  (65) 
-9.7300000000000004

>  <m_primary>  (65) 
energy

$$$$
65:0
     RDKit          3D

 39 40  0  0  0  0  0  0  0  0999 V2000
   -8.3590   22.0060  -30.3930 C   0  0  0  0  0  0  0  0  0  0  0  0
   -7.1660   21.9270  -31.2510 N   0  0  0  0  0  0  0  0  0  0  0  0
   -7.1850   22.9810  -32.2840 C   0  0  0  0  0  0  0  0  0  0  0  0
   -6.9540   20.5730  -31.8210 C   0  0  0  0  0  0  0  0  0  0  0  0
   -6.3310   20.5480  -33.2410 C   0  0  0  0  0  0  0  0  0  0  0  0
   -5.0790   19.6630  -33.3150 C   0  0  0  0  0  0  0  0  0  0  0  0
   -3.9320   20.3140  -32.5910 C   0  0  0  0  0  0  0  0  0  0  0  0
   -2.6820   19.6550  -32.5010 C   0  0  0  0  0  0  0  0  0  0  0  0
   -1.6150   20.2390  -31.7970 C   0  0  0  0  0  0  0  0  0  0  0  0
   -1.8340   21.4670  -31.1810 C   0  0  0  0  0  0  0  0  0  0  0  0
   -0.9750   22.2560  -30.4520 C   0  0  0  0  0  0  0  0  0  0  0  0
   -1.7240   23.3690  -30.0740 C   0  0  0  0  0  0  0  0  0  0  0  0
   -1.2040   24.4330  -29.1910 C   0  0  0  0  0  0  0  0  0  0  0  0
   -1.9500   25.6250  -28.9590 N   0  0  0  0  0  0  0  0  0  0  0  0
   -0.1080   24.2660  -28.5920 O   0  0  0  0  0  0  0  0  0  0  0  0
   -2.9960   23.2770  -30.5630 N   0  0  0  0  0  0  0  0  0  0  0  0
   -4.0480   24.2500  -30.4690 C   0  0  0  0  0  0  0  0  0  0  0  0
   -3.8590   25.4340  -30.8540 O   0  0  0  0  0  0  0  0  0  0  0  0
   -5.2970   23.8860  -29.9760 O   0  0  0  0  0  0  0  0  0  0  0  0
   -3.0470   22.1050  -31.2350 C   0  0  0  0  0  0  0  0  0  0  0  0
   -4.1200   21.5560  -31.9460 C   0  0  0  0  0  0  0  0  0  0  0  0
   -8.0529   21.9857  -29.3366 H   0  0  0  0  0  0  0  0  0  0  0  0
   -8.8986   22.9418  -30.6005 H   0  0  0  0  0  0  0  0  0  0  0  0
   -9.0173   21.1495  -30.6005 H   0  0  0  0  0  0  0  0  0  0  0  0
   -6.3390   22.1250  -30.6380 H   0  0  0  0  0  0  0  0  0  0  0  0
   -7.2028   23.9686  -31.7999 H   0  0  0  0  0  0  0  0  0  0  0  0
   -6.2852   22.8962  -32.9110 H   0  0  0  0  0  0  0  0  0  0  0  0
   -8.0812   22.8638  -32.9110 H   0  0  0  0  0  0  0  0  0  0  0  0
   -6.2851   20.0196  -31.1455 H   0  0  0  0  0  0  0  0  0  0  0  0
   -7.9521   20.1205  -31.9160 H   0  0  0  0  0  0  0  0  0  0  0  0
   -7.0794   20.1612  -33.9484 H   0  0  0  0  0  0  0  0  0  0  0  0
   -6.0308   21.5756  -33.4938 H   0  0  0  0  0  0  0  0  0  0  0  0
   -5.2953   18.6898  -32.8501 H   0  0  0  0  0  0  0  0  0  0  0  0
   -4.8019   19.5250  -34.3705 H   0  0  0  0  0  0  0  0  0  0  0  0
   -2.5449   18.6774  -32.9863 H   0  0  0  0  0  0  0  0  0  0  0  0
   -0.6365   19.7403  -31.7349 H   0  0  0  0  0  0  0  0  0  0  0  0
    0.0800   22.0518  -30.2170 H   0  0  0  0  0  0  0  0  0  0  0  0
   -2.9560   25.6910  -29.2330 H   0  0  0  0  0  0  0  0  0  0  0  0
   -5.0861   22.0791  -32.0011 H   0  0  0  0  0  0  0  0  0  0  0  0
  1  2  1  0
  2  3  1  0
  2  4  1  0
  4  5  1  0
  5  6  1  0
  6  7  1  0
  7  8  2  0
  8  9  1  0
  9 10  2  0
 10 11  1  0
 11 12  2  0
 12 13  1  0
 13 14  1  0
 13 15  2  0
 12 16  1  0
 16 17  1  0
 17 18  2  0
 17 19  1  0
 16 20  1  0
 20 21  2  0
 21  7  1  0
 20 10  1  0
  1 22  1  0
  1 23  1  0
  1 24  1  0
  2 25  1  0
  3 26  1  0
  3 27  1  0
  3 28  1  0
  4 29  1  0
  4 30  1  0
  5 31  1  0
  5 32  1  0
  6 33  1  0
  6 34  1  0
  8 35  1  0
  9 36  1  0
 11 37  1  0
 14 38  1  0
 21 39  1  0
M  CHG  3   2   1  14  -1  19  -1
M  END
>  <UniqueID>  (66) 
66

>  <SMILES>  (66) 
C[NH+](C)CCCc1ccc2cc(C([NH-])=O)n(C(=O)[O-])c2c1

>  <Energy>  (66) 
80.17399087098607

>  <Genealogy>  (66) 
C[NH+](C)CCCc1ccc2cc(C([NH-])=O)n(C(=O)[O-])c2c1 (protonated)
C[NH+](C)CCCc1ccc2cc(C([NH-])=O)n(C(=O)[O-])c2c1 (3D coordinates assigned)
C[NH+](C)CCCc1ccc2cc(C([NH-])=O)n(C(=O)[O-])c2c1 (optimized conformer: 80.17399087098607 kcal/mol)

>  <smiles>  (66) 
CN(C)CCCc1ccc2cc(C(N)=O)n(C(=O)O)c2c1

>  <score_type>  (66) 
oracle

>  <origin>  (66) 
adg

>  <m_score__min__energy>  (66) 
-10.48

>  <m_primary>  (66) 
energy

$$$$
66:0
     RDKit          3D

 49 51  0  0  0  0  0  0  0  0999 V2000
   -3.8030   24.0010  -28.4430 C   0  0  0  0  0  0  0  0  0  0  0  0
   -4.4740   24.5610  -29.6610 C   0  0  0  0  0  0  0  0  0  0  0  0
   -3.7810   25.2300  -30.4740 O   0  0  0  0  0  0  0  0  0  0  0  0
   -5.8840   24.3560  -29.9110 N   0  0  0  0  0  0  0  0  0  0  0  0
   -6.8610   25.3960  -29.5720 C   0  0  0  0  0  0  0  0  0  0  0  0
   -6.3800   23.1320  -30.5570 C   0  0  0  0  0  0  0  0  0  0  0  0
   -5.9470   23.0860  -32.0270 C   0  0  0  0  0  0  0  0  0  0  0  0
   -4.4950   22.9490  -32.1320 N   0  0  0  0  0  0  0  0  0  0  0  0
   -3.8120   21.7360  -32.5040 C   0  0  0  0  0  0  0  0  0  0  0  0
   -2.4160   21.5620  -32.2840 C   0  0  0  0  0  0  0  0  0  0  0  0
   -1.7790   20.3590  -32.6300 C   0  0  0  0  0  0  0  0  0  0  0  0
   -2.5490   19.3540  -33.2060 C   0  0  0  0  0  0  0  0  0  0  0  0
   -2.1980   18.0790  -33.5900 C   0  0  0  0  0  0  0  0  0  0  0  0
   -3.3710   17.5050  -34.0720 C   0  0  0  0  0  0  0  0  0  0  0  0
   -3.4530   16.1260  -34.5960 C   0  0  0  0  0  0  0  0  0  0  0  0
   -4.6430   15.3480  -34.4590 N   0  0  0  0  0  0  0  0  0  0  0  0
   -2.4680   15.6400  -35.2130 O   0  0  0  0  0  0  0  0  0  0  0  0
   -4.4060   18.3860  -33.9870 N   0  0  0  0  0  0  0  0  0  0  0  0
   -5.7920   18.1310  -34.2620 C   0  0  0  0  0  0  0  0  0  0  0  0
   -6.1080   17.4940  -35.3030 O   0  0  0  0  0  0  0  0  0  0  0  0
   -6.8410   18.6330  -33.3510 C   0  0  0  0  0  0  0  0  0  0  0  0
   -7.3890   17.8130  -32.3500 C   0  0  0  0  0  0  0  0  0  0  0  0
   -8.3810   18.3270  -31.5110 C   0  0  0  0  0  0  0  0  0  0  0  0
   -8.8200   19.6400  -31.6740 C   0  0  0  0  0  0  0  0  0  0  0  0
   -8.2610   20.4260  -32.6830 C   0  0  0  0  0  0  0  0  0  0  0  0
   -7.2950   19.9100  -33.4900 N   0  0  0  0  0  0  0  0  0  0  0  0
   -3.8870   19.5110  -33.4460 C   0  0  0  0  0  0  0  0  0  0  0  0
   -4.5560   20.6850  -33.0850 C   0  0  0  0  0  0  0  0  0  0  0  0
   -4.2858   24.4039  -27.5405 H   0  0  0  0  0  0  0  0  0  0  0  0
   -3.8909   22.9045  -28.4474 H   0  0  0  0  0  0  0  0  0  0  0  0
   -2.7399   24.2836  -28.4474 H   0  0  0  0  0  0  0  0  0  0  0  0
   -6.9411   25.4813  -28.4782 H   0  0  0  0  0  0  0  0  0  0  0  0
   -6.5327   26.3583  -29.9918 H   0  0  0  0  0  0  0  0  0  0  0  0
   -7.8419   25.1284  -29.9918 H   0  0  0  0  0  0  0  0  0  0  0  0
   -5.9725   22.2553  -30.0322 H   0  0  0  0  0  0  0  0  0  0  0  0
   -7.4790   23.1258  -30.5100 H   0  0  0  0  0  0  0  0  0  0  0  0
   -6.4276   22.2273  -32.5187 H   0  0  0  0  0  0  0  0  0  0  0  0
   -6.2509   24.0235  -32.5156 H   0  0  0  0  0  0  0  0  0  0  0  0
   -3.9220   23.8010  -31.9320 H   0  0  0  0  0  0  0  0  0  0  0  0
   -1.8298   22.3790  -31.8380 H   0  0  0  0  0  0  0  0  0  0  0  0
   -0.7032   20.2159  -32.4508 H   0  0  0  0  0  0  0  0  0  0  0  0
   -1.2032   17.6135  -33.5289 H   0  0  0  0  0  0  0  0  0  0  0  0
   -4.6610   14.3600  -34.7930 H   0  0  0  0  0  0  0  0  0  0  0  0
   -5.5330   15.7730  -34.1190 H   0  0  0  0  0  0  0  0  0  0  0  0
   -7.0405   16.7768  -32.2282 H   0  0  0  0  0  0  0  0  0  0  0  0
   -8.8155   17.6957  -30.7219 H   0  0  0  0  0  0  0  0  0  0  0  0
   -9.5983   20.0521  -31.0148 H   0  0  0  0  0  0  0  0  0  0  0  0
   -8.6014   21.4622  -32.8256 H   0  0  0  0  0  0  0  0  0  0  0  0
   -5.6387   20.7878  -33.2500 H   0  0  0  0  0  0  0  0  0  0  0  0
  1  2  1  0
  2  3  2  0
  2  4  1  0
  4  5  1  0
  4  6  1  0
  6  7  1  0
  7  8  1  0
  8  9  1  0
  9 10  2  0
 10 11  1  0
 11 12  2  0
 12 13  1  0
 13 14  2  0
 14 15  1  0
 15 16  1  0
 15 17  2  0
 14 18  1  0
 18 19  1  0
 19 20  2  0
 19 21  1  0
 21 22  2  0
 22 23  1  0
 23 24  2  0
 24 25  1  0
 25 26  2  0
 18 27  1  0
 27 28  2  0
 28  9  1  0
 27 12  1  0
 26 21  1  0
  1 29  1  0
  1 30  1  0
  1 31  1  0
  5 32  1  0
  5 33  1  0
  5 34  1  0
  6 35  1  0
  6 36  1  0
  7 37  1  0
  7 38  1  0
  8 39  1  0
 10 40  1  0
 11 41  1  0
 13 42  1  0
 16 43  1  0
 16 44  1  0
 22 45  1  0
 23 46  1  0
 24 47  1  0
 25 48  1  0
 28 49  1  0
M  END
>  <UniqueID>  (67) 
67

>  <SMILES>  (67) 
CC(=O)N(C)CCNc1ccc2cc(C(N)=O)n(C(=O)c3ccccn3)c2c1

>  <Energy>  (67) 
88.98838935599355

>  <Genealogy>  (67) 
CC(=O)N(C)CCNc1ccc2cc(C(N)=O)n(C(=O)c3ccccn3)c2c1 (3D coordinates assigned)
CC(=O)N(C)CCNc1ccc2cc(C(N)=O)n(C(=O)c3ccccn3)c2c1 (optimized conformer: 88.98838935599355 kcal/mol)

>  <smiles>  (67) 
CC(=O)N(C)CCNc1ccc2cc(C(N)=O)n(C(=O)c3ccccn3)c2c1

>  <score_type>  (67) 
oracle

>  <origin>  (67) 
adg

>  <m_score__min__energy>  (67) 
-9.1899999999999995

>  <m_primary>  (67) 
energy

$$$$
67:0
     RDKit          3D

 50 51  0  0  0  0  0  0  0  0999 V2000
   -0.0880   21.1920  -32.7140 C   0  0  0  0  0  0  0  0  0  0  0  0
    0.3660   20.2310  -33.8270 C   0  0  0  0  0  0  0  0  0  0  0  0
    0.0070   20.8320  -35.1970 C   0  0  0  0  0  0  0  0  0  0  0  0
    1.8880   20.0250  -33.7390 C   0  0  0  0  0  0  0  0  0  0  0  0
   -0.5390   18.5710  -33.6210 Si  0  0  0  0  0  4  0  0  0  0  0  0
    0.4300   17.2020  -34.4580 C   0  0  0  0  0  0  0  0  0  0  0  0
   -0.7210   18.1520  -31.8020 C   0  0  0  0  0  0  0  0  0  0  0  0
   -2.0960   18.7460  -34.3700 O   0  0  0  0  0  0  0  0  0  0  0  0
   -2.8580   19.7280  -33.7060 C   0  0  0  0  0  0  0  0  0  0  0  0
   -4.3340   19.3350  -33.7540 C   0  0  0  0  0  0  0  0  0  0  0  0
   -5.1940   20.3870  -33.1030 C   0  0  0  0  0  0  0  0  0  0  0  0
   -6.6040   20.2480  -33.0980 C   0  0  0  0  0  0  0  0  0  0  0  0
   -7.4130   21.1920  -32.4450 C   0  0  0  0  0  0  0  0  0  0  0  0
   -6.7870   22.2590  -31.8090 C   0  0  0  0  0  0  0  0  0  0  0  0
   -7.3280   23.2910  -31.0770 C   0  0  0  0  0  0  0  0  0  0  0  0
   -6.2410   24.0560  -30.6610 C   0  0  0  0  0  0  0  0  0  0  0  0
   -6.3800   25.3110  -29.8980 C   0  0  0  0  0  0  0  0  0  0  0  0
   -5.5810   26.4550  -30.2020 N   0  0  0  0  0  0  0  0  0  0  0  0
   -7.2640   25.3970  -29.0040 O   0  0  0  0  0  0  0  0  0  0  0  0
   -5.0710   23.5140  -31.1050 N   0  0  0  0  0  0  0  0  0  0  0  0
   -3.7370   23.9420  -30.7830 C   0  0  0  0  0  0  0  0  0  0  0  0
   -2.7890   23.1140  -30.7590 O   0  0  0  0  0  0  0  0  0  0  0  0
   -3.4800   25.2760  -30.4880 O   0  0  0  0  0  0  0  0  0  0  0  0
   -5.4220   22.4140  -31.8100 C   0  0  0  0  0  0  0  0  0  0  0  0
   -4.5910   21.4770  -32.4360 C   0  0  0  0  0  0  0  0  0  0  0  0
    0.1242   20.7428  -31.7326 H   0  0  0  0  0  0  0  0  0  0  0  0
    0.4557   22.1437  -32.8069 H   0  0  0  0  0  0  0  0  0  0  0  0
   -1.1684   21.3764  -32.8069 H   0  0  0  0  0  0  0  0  0  0  0  0
   -0.5521   21.7681  -35.0516 H   0  0  0  0  0  0  0  0  0  0  0  0
    0.9293   21.0394  -35.7595 H   0  0  0  0  0  0  0  0  0  0  0  0
   -0.6128   20.1182  -35.7595 H   0  0  0  0  0  0  0  0  0  0  0  0
    2.1920   19.9839  -32.6826 H   0  0  0  0  0  0  0  0  0  0  0  0
    2.1597   19.0819  -34.2357 H   0  0  0  0  0  0  0  0  0  0  0  0
    2.4006   20.8620  -34.2357 H   0  0  0  0  0  0  0  0  0  0  0  0
    0.8871   16.5562  -33.6938 H   0  0  0  0  0  0  0  0  0  0  0  0
   -0.2473   16.6043  -35.0857 H   0  0  0  0  0  0  0  0  0  0  0  0
    1.2189   17.6421  -35.0857 H   0  0  0  0  0  0  0  0  0  0  0  0
   -0.3558   18.9927  -31.1938 H   0  0  0  0  0  0  0  0  0  0  0  0
   -1.7807   17.9666  -31.5727 H   0  0  0  0  0  0  0  0  0  0  0  0
   -0.1332   17.2510  -31.5727 H   0  0  0  0  0  0  0  0  0  0  0  0
   -2.5307   19.8019  -32.6584 H   0  0  0  0  0  0  0  0  0  0  0  0
   -2.7181   20.7011  -34.1995 H   0  0  0  0  0  0  0  0  0  0  0  0
   -4.6412   19.2182  -34.8037 H   0  0  0  0  0  0  0  0  0  0  0  0
   -4.4629   18.3892  -33.2073 H   0  0  0  0  0  0  0  0  0  0  0  0
   -7.0692   19.3929  -33.6103 H   0  0  0  0  0  0  0  0  0  0  0  0
   -8.5083   21.0908  -32.4367 H   0  0  0  0  0  0  0  0  0  0  0  0
   -8.3920   23.4730  -30.8655 H   0  0  0  0  0  0  0  0  0  0  0  0
   -4.9590   26.4710  -31.0410 H   0  0  0  0  0  0  0  0  0  0  0  0
   -5.6760   27.3260  -29.6360 H   0  0  0  0  0  0  0  0  0  0  0  0
   -3.4968   21.5866  -32.4092 H   0  0  0  0  0  0  0  0  0  0  0  0
  1  2  1  0
  2  3  1  0
  2  4  1  0
  2  5  1  0
  5  6  1  0
  5  7  1  0
  5  8  1  0
  8  9  1  0
  9 10  1  0
 10 11  1  0
 11 12  2  0
 12 13  1  0
 13 14  2  0
 14 15  1  0
 15 16  2  0
 16 17  1  0
 17 18  1  0
 17 19  2  0
 16 20  1  0
 20 21  1  0
 21 22  2  0
 21 23  1  0
 20 24  1  0
 24 25  2  0
 25 11  1  0
 24 14  1  0
  1 26  1  0
  1 27  1  0
  1 28  1  0
  3 29  1  0
  3 30  1  0
  3 31  1  0
  4 32  1  0
  4 33  1  0
  4 34  1  0
  6 35  1  0
  6 36  1  0
  6 37  1  0
  7 38  1  0
  7 39  1  0
  7 40  1  0
  9 41  1  0
  9 42  1  0
 10 43  1  0
 10 44  1  0
 12 45  1  0
 13 46  1  0
 15 47  1  0
 18 48  1  0
 18 49  1  0
 25 50  1  0
M  CHG  1  23  -1
M  END
>  <UniqueID>  (68) 
68

>  <SMILES>  (68) 
CC(C)(C)[Si](C)(C)OCCc1ccc2cc(C(N)=O)n(C(=O)[O-])c2c1

>  <Energy>  (68) 
68.54050237469382

>  <Genealogy>  (68) 
CC(C)(C)[Si](C)(C)OCCc1ccc2cc(C(N)=O)n(C(=O)[O-])c2c1 (protonated)
CC(C)(C)[Si](C)(C)OCCc1ccc2cc(C(N)=O)n(C(=O)[O-])c2c1 (3D coordinates assigned)
CC(C)(C)[Si](C)(C)OCCc1ccc2cc(C(N)=O)n(C(=O)[O-])c2c1 (optimized conformer: 68.54050237469382 kcal/mol)

>  <smiles>  (68) 
CC(C)(C)[Si](C)(C)OCCc1ccc2cc(C(N)=O)n(C(=O)O)c2c1

>  <score_type>  (68) 
oracle

>  <origin>  (68) 
adg

>  <m_score__min__energy>  (68) 
-9.1099999999999994

>  <m_primary>  (68) 
energy

$$$$
68:0
     RDKit          3D

 66 69  0  0  0  0  0  0  0  0999 V2000
   -5.0810   15.9120  -32.2320 C   0  0  0  0  0  0  0  0  0  0  0  0
   -5.4270   15.7930  -33.6570 N   0  0  0  0  0  0  0  0  0  0  0  0
   -5.7100   17.1080  -34.2690 C   0  0  0  0  0  0  0  0  0  0  0  0
   -4.4470   17.9800  -34.3510 C   0  0  0  0  0  0  0  0  0  0  0  0
   -3.2700   17.1830  -34.7210 N   0  0  0  0  0  0  0  0  0  0  0  0
   -1.9680   17.8110  -34.6600 C   0  0  0  0  0  0  0  0  0  0  0  0
   -1.9050   19.0710  -34.6020 O   0  0  0  0  0  0  0  0  0  0  0  0
   -0.6820   16.9970  -34.5560 C   0  0  0  0  0  0  0  0  0  0  0  0
    0.5970   17.8810  -34.5050 C   0  0  0  0  0  0  0  0  0  0  0  0
    1.0840   18.1860  -33.0740 C   0  0  0  0  0  0  0  0  0  0  0  0
   -0.0250   18.1170  -32.1120 N   0  0  0  0  0  0  0  0  0  0  0  0
   -0.3410   19.2370  -31.2630 C   0  0  0  0  0  0  0  0  0  0  0  0
    0.3940   19.4620  -30.0720 C   0  0  0  0  0  0  0  0  0  0  0  0
    0.0780   20.5360  -29.2240 C   0  0  0  0  0  0  0  0  0  0  0  0
   -0.9750   21.3690  -29.5900 C   0  0  0  0  0  0  0  0  0  0  0  0
   -1.5080   22.4580  -28.9410 C   0  0  0  0  0  0  0  0  0  0  0  0
   -2.5570   22.8930  -29.7490 C   0  0  0  0  0  0  0  0  0  0  0  0
   -3.3530   24.1040  -29.4640 C   0  0  0  0  0  0  0  0  0  0  0  0
   -3.4760   25.1220  -30.4550 N   0  0  0  0  0  0  0  0  0  0  0  0
   -3.9640   24.2310  -28.3710 O   0  0  0  0  0  0  0  0  0  0  0  0
   -2.6720   22.0990  -30.8510 N   0  0  0  0  0  0  0  0  0  0  0  0
   -3.6790   22.1630  -31.8750 C   0  0  0  0  0  0  0  0  0  0  0  0
   -3.3700   21.9420  -33.0780 O   0  0  0  0  0  0  0  0  0  0  0  0
   -5.0040   22.4450  -31.5300 O   0  0  0  0  0  0  0  0  0  0  0  0
   -5.6850   23.6140  -31.9750 C   0  0  0  0  0  0  0  0  0  0  0  0
   -6.9540   23.8270  -31.1490 C   0  0  0  0  0  0  0  0  0  0  0  0
   -6.6660   24.4760  -29.7890 C   0  0  0  0  0  0  0  0  0  0  0  0
   -6.0100   25.7070  -29.9480 O   0  0  0  0  0  0  0  0  0  0  0  0
   -1.6940   21.1730  -30.7400 C   0  0  0  0  0  0  0  0  0  0  0  0
   -1.4110   20.1010  -31.5940 C   0  0  0  0  0  0  0  0  0  0  0  0
   -0.8140   16.8780  -32.0200 C   0  0  0  0  0  0  0  0  0  0  0  0
   -0.7360   16.0670  -33.3260 C   0  0  0  0  0  0  0  0  0  0  0  0
   -3.4900   15.8520  -35.3030 C   0  0  0  0  0  0  0  0  0  0  0  0
   -4.4180   15.0050  -34.4090 C   0  0  0  0  0  0  0  0  0  0  0  0
   -5.9447   15.6150  -31.6189 H   0  0  0  0  0  0  0  0  0  0  0  0
   -4.2277   15.2557  -32.0058 H   0  0  0  0  0  0  0  0  0  0  0  0
   -4.8119   16.9543  -32.0058 H   0  0  0  0  0  0  0  0  0  0  0  0
   -6.1019   16.9516  -35.2849 H   0  0  0  0  0  0  0  0  0  0  0  0
   -6.4460   17.6285  -33.6386 H   0  0  0  0  0  0  0  0  0  0  0  0
   -4.6012   18.7634  -35.1076 H   0  0  0  0  0  0  0  0  0  0  0  0
   -4.2676   18.4243  -33.3609 H   0  0  0  0  0  0  0  0  0  0  0  0
   -0.6147   16.3953  -35.4744 H   0  0  0  0  0  0  0  0  0  0  0  0
    1.4022   17.3578  -35.0416 H   0  0  0  0  0  0  0  0  0  0  0  0
    0.3400   18.8447  -34.9690 H   0  0  0  0  0  0  0  0  0  0  0  0
    1.8513   17.4503  -32.7911 H   0  0  0  0  0  0  0  0  0  0  0  0
    1.4996   19.2043  -33.0558 H   0  0  0  0  0  0  0  0  0  0  0  0
    1.2219   18.7872  -29.8088 H   0  0  0  0  0  0  0  0  0  0  0  0
    0.6456   20.7134  -28.2986 H   0  0  0  0  0  0  0  0  0  0  0  0
   -1.1767   22.8934  -27.9867 H   0  0  0  0  0  0  0  0  0  0  0  0
   -3.8950   26.0500  -30.2220 H   0  0  0  0  0  0  0  0  0  0  0  0
   -5.0247   24.4862  -31.8597 H   0  0  0  0  0  0  0  0  0  0  0  0
   -5.9596   23.4909  -33.0330 H   0  0  0  0  0  0  0  0  0  0  0  0
   -7.6374   24.4785  -31.7134 H   0  0  0  0  0  0  0  0  0  0  0  0
   -7.4008   22.8396  -30.9609 H   0  0  0  0  0  0  0  0  0  0  0  0
   -7.6165   24.6405  -29.2604 H   0  0  0  0  0  0  0  0  0  0  0  0
   -6.0149   23.8039  -29.2107 H   0  0  0  0  0  0  0  0  0  0  0  0
   -5.2040   25.6760  -29.3690 H   0  0  0  0  0  0  0  0  0  0  0  0
   -2.0077   19.9339  -32.5029 H   0  0  0  0  0  0  0  0  0  0  0  0
   -0.4239   16.2653  -31.1939 H   0  0  0  0  0  0  0  0  0  0  0  0
   -1.8652   17.1483  -31.8414 H   0  0  0  0  0  0  0  0  0  0  0  0
    0.1696   15.4429  -33.3076 H   0  0  0  0  0  0  0  0  0  0  0  0
   -1.6366   15.4400  -33.4018 H   0  0  0  0  0  0  0  0  0  0  0  0
   -3.9511   15.9649  -36.2953 H   0  0  0  0  0  0  0  0  0  0  0  0
   -2.5196   15.3405  -35.3852 H   0  0  0  0  0  0  0  0  0  0  0  0
   -4.9497   14.2851  -35.0486 H   0  0  0  0  0  0  0  0  0  0  0  0
   -3.7761   14.5182  -33.6601 H   0  0  0  0  0  0  0  0  0  0  0  0
  1  2  1  0
  2  3  1  0
  3  4  1  0
  4  5  1  0
  5  6  1  0
  6  7  2  0
  6  8  1  0
  8  9  1  0
  9 10  1  0
 10 11  1  0
 11 12  1  0
 12 13  2  0
 13 14  1  0
 14 15  2  0
 15 16  1  0
 16 17  2  0
 17 18  1  0
 18 19  1  0
 18 20  2  0
 17 21  1  0
 21 22  1  0
 22 23  2  0
 22 24  1  0
 24 25  1  0
 25 26  1  0
 26 27  1  0
 27 28  1  0
 21 29  1  0
 29 30  2  0
 11 31  1  0
 31 32  1  0
  5 33  1  0
 33 34  1  0
 34  2  1  0
 32  8  1  0
 30 12  1  0
 29 15  1  0
  1 35  1  0
  1 36  1  0
  1 37  1  0
  3 38  1  0
  3 39  1  0
  4 40  1  0
  4 41  1  0
  8 42  1  0
  9 43  1  0
  9 44  1  0
 10 45  1  0
 10 46  1  0
 13 47  1  0
 14 48  1  0
 16 49  1  0
 19 50  1  0
 25 51  1  0
 25 52  1  0
 26 53  1  0
 26 54  1  0
 27 55  1  0
 27 56  1  0
 28 57  1  0
 30 58  1  0
 31 59  1  0
 31 60  1  0
 32 61  1  0
 32 62  1  0
 33 63  1  0
 33 64  1  0
 34 65  1  0
 34 66  1  0
M  CHG  1  19  -1
M  END
>  <UniqueID>  (69) 
69

>  <SMILES>  (69) 
CN1CCN(C(=O)C2CCN(c3ccc4cc(C([NH-])=O)n(C(=O)OCCCO)c4c3)CC2)CC1

>  <Energy>  (69) 
116.4727678355091

>  <Genealogy>  (69) 
CN1CCN(C(=O)C2CCN(c3ccc4cc(C([NH-])=O)n(C(=O)OCCCO)c4c3)CC2)CC1 (protonated)
CN1CCN(C(=O)C2CCN(c3ccc4cc(C([NH-])=O)n(C(=O)OCCCO)c4c3)CC2)CC1 (3D coordinates assigned)
CN1CCN(C(=O)C2CCN(c3ccc4cc(C([NH-])=O)n(C(=O)OCCCO)c4c3)CC2)CC1 (nonaromatic ring conformer: 116.4727678355091 kcal/mol)

>  <smiles>  (69) 
CN1CCN(C(=O)C2CCN(c3ccc4cc(C(N)=O)n(C(=O)OCCCO)c4c3)CC2)CC1

>  <score_type>  (69) 
oracle

>  <origin>  (69) 
adg

>  <m_score__min__energy>  (69) 
-12.279999999999999

>  <m_primary>  (69) 
energy

$$$$
69:0
     RDKit          3D

 39 41  0  0  0  0  0  0  0  0999 V2000
   -3.9450   23.0450  -28.2930 C   0  0  0  0  0  0  0  0  0  0  0  0
   -2.8600   22.5830  -29.2600 C   0  0  0  0  0  0  0  0  0  0  0  0
   -3.0010   23.2330  -30.5210 O   0  0  0  0  0  0  0  0  0  0  0  0
   -3.7920   22.7310  -31.5610 C   0  0  0  0  0  0  0  0  0  0  0  0
   -3.2540   22.2530  -32.5970 O   0  0  0  0  0  0  0  0  0  0  0  0
   -5.2240   22.7540  -31.4450 N   0  0  0  0  0  0  0  0  0  0  0  0
   -6.0080   23.8030  -31.0630 C   0  0  0  0  0  0  0  0  0  0  0  0
   -5.5260   25.0940  -30.5330 C   0  0  0  0  0  0  0  0  0  0  0  0
   -4.1940   25.5460  -30.7840 N   0  0  0  0  0  0  0  0  0  0  0  0
   -6.2840   25.7830  -29.8000 O   0  0  0  0  0  0  0  0  0  0  0  0
   -7.3560   23.4810  -31.1890 C   0  0  0  0  0  0  0  0  0  0  0  0
   -7.3790   22.1850  -31.6500 C   0  0  0  0  0  0  0  0  0  0  0  0
   -8.4590   21.3650  -31.9650 C   0  0  0  0  0  0  0  0  0  0  0  0
   -8.1880   20.0780  -32.4580 C   0  0  0  0  0  0  0  0  0  0  0  0
   -6.8540   19.6430  -32.6350 C   0  0  0  0  0  0  0  0  0  0  0  0
   -6.5910   18.3370  -33.1500 N   0  0  0  0  0  0  0  0  0  0  0  0
   -6.1090   17.7390  -34.4080 C   0  0  0  0  0  0  0  0  0  0  0  0
   -6.1840   16.3180  -33.9430 C   0  0  0  0  0  0  0  0  0  0  0  0
   -7.1920   15.5930  -34.5930 O   0  0  0  0  0  0  0  0  0  0  0  0
   -6.6710   16.9430  -32.6770 C   0  0  0  0  0  0  0  0  0  0  0  0
   -5.7820   20.4990  -32.3080 C   0  0  0  0  0  0  0  0  0  0  0  0
   -6.0790   21.7690  -31.7980 C   0  0  0  0  0  0  0  0  0  0  0  0
   -3.6008   22.8985  -27.2586 H   0  0  0  0  0  0  0  0  0  0  0  0
   -4.1565   24.1112  -28.4615 H   0  0  0  0  0  0  0  0  0  0  0  0
   -4.8603   22.4585  -28.4615 H   0  0  0  0  0  0  0  0  0  0  0  0
   -1.8732   22.8236  -28.8377 H   0  0  0  0  0  0  0  0  0  0  0  0
   -2.9563   21.4973  -29.4082 H   0  0  0  0  0  0  0  0  0  0  0  0
   -3.8850   26.4810  -30.4350 H   0  0  0  0  0  0  0  0  0  0  0  0
   -3.4890   24.9240  -31.2360 H   0  0  0  0  0  0  0  0  0  0  0  0
   -8.2194   24.1255  -30.9672 H   0  0  0  0  0  0  0  0  0  0  0  0
   -9.4935   21.7145  -31.8318 H   0  0  0  0  0  0  0  0  0  0  0  0
   -9.0198   19.4032  -32.7084 H   0  0  0  0  0  0  0  0  0  0  0  0
   -6.7755   17.9437  -35.2588 H   0  0  0  0  0  0  0  0  0  0  0  0
   -5.1406   18.0911  -34.7929 H   0  0  0  0  0  0  0  0  0  0  0  0
   -5.3490   15.6045  -34.0045 H   0  0  0  0  0  0  0  0  0  0  0  0
   -6.7690   14.7420  -34.8760 H   0  0  0  0  0  0  0  0  0  0  0  0
   -7.6969   16.6397  -32.4210 H   0  0  0  0  0  0  0  0  0  0  0  0
   -6.1263   16.6951  -31.7541 H   0  0  0  0  0  0  0  0  0  0  0  0
   -4.7396   20.1775  -32.4498 H   0  0  0  0  0  0  0  0  0  0  0  0
  1  2  1  0
  2  3  1  0
  3  4  1  0
  4  5  2  0
  4  6  1  0
  6  7  1  0
  7  8  1  0
  8  9  1  0
  8 10  2  0
  7 11  2  0
 11 12  1  0
 12 13  2  0
 13 14  1  0
 14 15  2  0
 15 16  1  0
 16 17  1  0
 17 18  1  0
 18 19  1  0
 18 20  1  0
 15 21  1  0
 21 22  2  0
 22  6  1  0
 22 12  1  0
 20 16  1  0
  1 23  1  0
  1 24  1  0
  1 25  1  0
  2 26  1  0
  2 27  1  0
  9 28  1  0
  9 29  1  0
 11 30  1  0
 13 31  1  0
 14 32  1  0
 17 33  1  0
 17 34  1  0
 18 35  1  0
 19 36  1  0
 20 37  1  0
 20 38  1  0
 21 39  1  0
M  END
>  <UniqueID>  (70) 
70

>  <SMILES>  (70) 
CCOC(=O)n1c(C(N)=O)cc2ccc(N3CC(O)C3)cc21

>  <Energy>  (70) 
119.1226493267359

>  <Genealogy>  (70) 
CCOC(=O)n1c(C(N)=O)cc2ccc(N3CC(O)C3)cc21 (3D coordinates assigned)
CCOC(=O)n1c(C(N)=O)cc2ccc(N3CC(O)C3)cc21 (nonaromatic ring conformer: 119.1226493267359 kcal/mol)

>  <smiles>  (70) 
CCOC(=O)n1c(C(N)=O)cc2ccc(N3CC(O)C3)cc21

>  <score_type>  (70) 
oracle

>  <origin>  (70) 
adg

>  <m_score__min__energy>  (70) 
-7.9699999999999998

>  <m_primary>  (70) 
energy

$$$$
70:0
     RDKit          3D

 54 57  0  0  0  0  0  0  0  0999 V2000
    0.6920   22.7750  -27.6880 C   0  0  0  0  0  0  0  0  0  0  0  0
   -0.0380   24.0070  -28.1070 C   0  0  0  0  0  0  0  0  0  0  0  0
    0.0970   25.1840  -27.5440 O   0  0  0  0  0  0  0  0  0  0  0  0
   -0.7180   25.9870  -28.1910 C   0  0  0  0  0  0  0  0  0  0  0  0
   -0.8560   27.2080  -27.9190 O   0  0  0  0  0  0  0  0  0  0  0  0
   -1.3760   25.3750  -29.1490 O   0  0  0  0  0  0  0  0  0  0  0  0
   -0.9680   24.1270  -29.1230 C   0  0  0  0  0  0  0  0  0  0  0  0
   -1.4640   23.0480  -30.0350 C   0  0  0  0  0  0  0  0  0  0  0  0
   -2.8840   23.0970  -30.1360 O   0  0  0  0  0  0  0  0  0  0  0  0
   -3.5850   22.6890  -31.2760 C   0  0  0  0  0  0  0  0  0  0  0  0
   -2.9690   22.2010  -32.2630 O   0  0  0  0  0  0  0  0  0  0  0  0
   -5.0130   22.8140  -31.3150 N   0  0  0  0  0  0  0  0  0  0  0  0
   -5.7640   23.9210  -31.0510 C   0  0  0  0  0  0  0  0  0  0  0  0
   -5.2620   25.1990  -30.5040 C   0  0  0  0  0  0  0  0  0  0  0  0
   -3.9590   25.6750  -30.8310 N   0  0  0  0  0  0  0  0  0  0  0  0
   -5.9740   25.8540  -29.6970 O   0  0  0  0  0  0  0  0  0  0  0  0
   -7.1130   23.6620  -31.2860 C   0  0  0  0  0  0  0  0  0  0  0  0
   -7.1670   22.3480  -31.6920 C   0  0  0  0  0  0  0  0  0  0  0  0
   -8.2590   21.5700  -32.0690 C   0  0  0  0  0  0  0  0  0  0  0  0
   -8.0170   20.2460  -32.4710 C   0  0  0  0  0  0  0  0  0  0  0  0
   -6.6990   19.7250  -32.4840 C   0  0  0  0  0  0  0  0  0  0  0  0
   -6.4480   18.3150  -32.9530 C   0  0  0  0  0  0  0  0  0  0  0  0
   -5.5720   18.2620  -34.1830 C   0  0  0  0  0  0  0  0  0  0  0  0
   -6.0930   18.0840  -35.3190 O   0  0  0  0  0  0  0  0  0  0  0  0
   -4.1440   18.4280  -34.0810 N   0  0  0  0  0  0  0  0  0  0  0  0
   -3.5250   19.7250  -33.8630 C   0  0  0  0  0  0  0  0  0  0  0  0
   -2.0260   19.4550  -33.7540 C   0  0  2  0  0  0  0  0  0  0  0  0
   -1.2940   20.4440  -34.4280 O   0  0  0  0  0  0  0  0  0  0  0  0
   -1.8160   18.0760  -34.3840 C   0  0  0  0  0  0  0  0  0  0  0  0
   -3.1650   17.3630  -34.2650 C   0  0  1  0  0  0  0  0  0  0  0  0
   -3.1850   16.4200  -33.0900 C   0  0  0  0  0  0  0  0  0  0  0  0
   -4.2410   15.9990  -32.6440 O   0  0  0  0  0  0  0  0  0  0  0  0
   -5.6150   20.5470  -32.1070 C   0  0  0  0  0  0  0  0  0  0  0  0
   -5.8870   21.8580  -31.6990 C   0  0  0  0  0  0  0  0  0  0  0  0
    0.7229   22.7228  -26.5897 H   0  0  0  0  0  0  0  0  0  0  0  0
    0.1729   21.8891  -28.0827 H   0  0  0  0  0  0  0  0  0  0  0  0
    1.7183   22.8048  -28.0827 H   0  0  0  0  0  0  0  0  0  0  0  0
   -1.0246   23.1872  -31.0338 H   0  0  0  0  0  0  0  0  0  0  0  0
   -1.1690   22.0708  -29.6251 H   0  0  0  0  0  0  0  0  0  0  0  0
   -3.1060   25.2370  -30.4150 H   0  0  0  0  0  0  0  0  0  0  0  0
   -7.9557   24.3596  -31.1714 H   0  0  0  0  0  0  0  0  0  0  0  0
   -9.2797   21.9798  -32.0525 H   0  0  0  0  0  0  0  0  0  0  0  0
   -8.8583   19.6076  -32.7786 H   0  0  0  0  0  0  0  0  0  0  0  0
   -5.9544   17.7567  -32.1439 H   0  0  0  0  0  0  0  0  0  0  0  0
   -7.4200   17.8719  -33.2154 H   0  0  0  0  0  0  0  0  0  0  0  0
   -3.7332   20.3963  -34.7092 H   0  0  0  0  0  0  0  0  0  0  0  0
   -3.9160   20.2143  -32.9587 H   0  0  0  0  0  0  0  0  0  0  0  0
   -1.6767   19.4758  -32.7111 H   0  0  0  0  0  0  0  0  0  0  0  0
   -1.9140   21.2070  -34.5640 H   0  0  0  0  0  0  0  0  0  0  0  0
   -1.5258   18.1760  -35.4403 H   0  0  0  0  0  0  0  0  0  0  0  0
   -1.0126   17.5162  -33.8828 H   0  0  0  0  0  0  0  0  0  0  0  0
   -3.3763   16.7508  -35.1541 H   0  0  0  0  0  0  0  0  0  0  0  0
   -2.2369   16.1070  -32.6283 H   0  0  0  0  0  0  0  0  0  0  0  0
   -4.5831   20.1670  -32.1332 H   0  0  0  0  0  0  0  0  0  0  0  0
  1  2  1  0
  2  3  1  0
  3  4  1  0
  4  5  2  0
  4  6  1  0
  6  7  1  0
  7  8  1  0
  8  9  1  0
  9 10  1  0
 10 11  2  0
 10 12  1  0
 12 13  1  0
 13 14  1  0
 14 15  1  0
 14 16  2  0
 13 17  2  0
 17 18  1  0
 18 19  2  0
 19 20  1  0
 20 21  2  0
 21 22  1  0
 22 23  1  0
 23 24  2  0
 23 25  1  0
 25 26  1  0
 26 27  1  0
 27 28  1  0
 27 29  1  0
 29 30  1  0
 30 31  1  0
 31 32  2  0
 21 33  1  0
 33 34  2  0
  7  2  2  0
 34 12  1  0
 34 18  1  0
 30 25  1  0
  1 35  1  0
  1 36  1  0
  1 37  1  0
  8 38  1  0
  8 39  1  0
 15 40  1  0
 17 41  1  0
 19 42  1  0
 20 43  1  0
 22 44  1  0
 22 45  1  0
 26 46  1  0
 26 47  1  0
 27 48  1  1
 28 49  1  0
 29 50  1  0
 29 51  1  0
 30 52  1  6
 31 53  1  0
 33 54  1  0
M  CHG  1  15  -1
M  END
>  <UniqueID>  (71) 
71

>  <SMILES>  (71) 
Cc1oc(=O)oc1COC(=O)n1c(C([NH-])=O)cc2ccc(CC(=O)N3C[C@H](O)C[C@H]3C=O)cc21

>  <Energy>  (71) 
124.91615534419972

>  <Genealogy>  (71) 
Cc1oc(=O)oc1COC(=O)n1c(C([NH-])=O)cc2ccc(CC(=O)N3C[C@H](O)C[C@H]3C=O)cc21 (protonated)
Cc1oc(=O)oc1COC(=O)n1c(C([NH-])=O)cc2ccc(CC(=O)N3C[C@H](O)C[C@H]3C=O)cc21 (3D coordinates assigned)
Cc1oc(=O)oc1COC(=O)n1c(C([NH-])=O)cc2ccc(CC(=O)N3C[C@H](O)C[C@H]3C=O)cc21 (nonaromatic ring conformer: 124.91615534419972 kcal/mol)

>  <smiles>  (71) 
Cc1oc(=O)oc1COC(=O)n1c(C(N)=O)cc2ccc(CC(=O)N3C[C@H](O)C[C@H]3C=O)cc21

>  <score_type>  (71) 
oracle

>  <origin>  (71) 
adg

>  <m_score__min__energy>  (71) 
-11.74

>  <m_primary>  (71) 
energy

$$$$
71:0
     RDKit          3D

 47 49  0  0  0  0  0  0  0  0999 V2000
   -4.1140   25.6640  -30.8170 N   0  0  0  0  0  0  0  0  0  0  0  0
   -5.2250   24.9790  -30.2440 C   0  0  0  0  0  0  0  0  0  0  0  0
   -5.7770   25.4520  -29.2160 O   0  0  0  0  0  0  0  0  0  0  0  0
   -5.7710   23.7570  -30.8720 C   0  0  0  0  0  0  0  0  0  0  0  0
   -7.1330   23.4650  -30.9130 C   0  0  0  0  0  0  0  0  0  0  0  0
   -7.2350   22.3030  -31.6420 C   0  0  0  0  0  0  0  0  0  0  0  0
   -8.3590   21.5640  -31.9940 C   0  0  0  0  0  0  0  0  0  0  0  0
   -8.1690   20.3830  -32.7280 C   0  0  0  0  0  0  0  0  0  0  0  0
   -6.8640   19.9420  -33.0750 C   0  0  0  0  0  0  0  0  0  0  0  0
   -6.6790   18.7110  -33.8160 N   0  0  0  0  0  0  0  0  0  0  0  0
   -7.1060   17.4750  -33.1100 C   0  0  2  0  0  0  0  0  0  0  0  0
   -6.4550   17.2850  -31.7490 C   0  0  0  0  0  0  0  0  0  0  0  0
   -5.3170   16.3040  -31.9890 C   0  0  0  0  0  0  0  0  0  0  0  0
   -5.5420   15.6290  -33.2720 N   0  0  0  0  0  0  0  0  0  0  0  0
   -6.7620   16.1870  -33.8580 C   0  0  0  0  0  0  0  0  0  0  0  0
   -5.7500   20.7460  -32.7300 C   0  0  0  0  0  0  0  0  0  0  0  0
   -5.9700   21.9250  -32.0100 C   0  0  0  0  0  0  0  0  0  0  0  0
   -5.0580   22.8070  -31.5420 N   0  0  0  0  0  0  0  0  0  0  0  0
   -3.6310   22.6900  -31.6560 C   0  0  0  0  0  0  0  0  0  0  0  0
   -3.1190   22.2530  -32.7230 O   0  0  0  0  0  0  0  0  0  0  0  0
   -2.8140   23.0930  -30.5920 O   0  0  0  0  0  0  0  0  0  0  0  0
   -2.6570   22.3530  -29.3810 C   0  0  0  0  0  0  0  0  0  0  0  0
   -1.7380   23.0900  -28.4010 C   0  0  0  0  0  0  0  0  0  0  0  0
   -2.1340   24.5560  -28.1880 C   0  0  0  0  0  0  0  0  0  0  0  0
   -1.9040   25.3140  -29.3440 O   0  0  0  0  0  0  0  0  0  0  0  0
   -3.1660   25.2280  -30.8350 H   0  0  0  0  0  0  0  0  0  0  0  0
   -7.9525   24.0413  -30.4588 H   0  0  0  0  0  0  0  0  0  0  0  0
   -9.3675   21.8953  -31.7056 H   0  0  0  0  0  0  0  0  0  0  0  0
   -9.0424   19.7909  -33.0388 H   0  0  0  0  0  0  0  0  0  0  0  0
   -5.6690   18.6150  -34.0770 H   0  0  0  0  0  0  0  0  0  0  0  0
   -7.2030   18.7730  -34.7210 H   0  0  0  0  0  0  0  0  0  0  0  0
   -8.1918   17.6318  -33.0299 H   0  0  0  0  0  0  0  0  0  0  0  0
   -6.0669   18.2417  -31.3694 H   0  0  0  0  0  0  0  0  0  0  0  0
   -7.1684   16.9139  -30.9985 H   0  0  0  0  0  0  0  0  0  0  0  0
   -4.3605   16.8464  -32.0186 H   0  0  0  0  0  0  0  0  0  0  0  0
   -5.2823   15.5634  -31.1764 H   0  0  0  0  0  0  0  0  0  0  0  0
   -4.7380   15.8400  -33.9100 H   0  0  0  0  0  0  0  0  0  0  0  0
   -6.5963   16.4078  -34.9228 H   0  0  0  0  0  0  0  0  0  0  0  0
   -7.5884   15.4660  -33.7727 H   0  0  0  0  0  0  0  0  0  0  0  0
   -4.7320   20.4491  -33.0225 H   0  0  0  0  0  0  0  0  0  0  0  0
   -3.6432   22.2143  -28.9140 H   0  0  0  0  0  0  0  0  0  0  0  0
   -2.2037   21.3801  -29.6216 H   0  0  0  0  0  0  0  0  0  0  0  0
   -1.7753   22.5732  -27.4307 H   0  0  0  0  0  0  0  0  0  0  0  0
   -0.7267   23.0840  -28.8336 H   0  0  0  0  0  0  0  0  0  0  0  0
   -3.2027   24.6059  -27.9325 H   0  0  0  0  0  0  0  0  0  0  0  0
   -1.5217   24.9682  -27.3724 H   0  0  0  0  0  0  0  0  0  0  0  0
   -2.2470   24.7800  -30.1070 H   0  0  0  0  0  0  0  0  0  0  0  0
  1  2  1  0
  2  3  2  0
  2  4  1  0
  4  5  2  0
  5  6  1  0
  6  7  2  0
  7  8  1  0
  8  9  2  0
  9 10  1  0
 10 11  1  0
 11 12  1  0
 12 13  1  0
 13 14  1  0
 14 15  1  0
  9 16  1  0
 16 17  2  0
 17 18  1  0
 18 19  1  0
 19 20  2  0
 19 21  1  0
 21 22  1  0
 22 23  1  0
 23 24  1  0
 24 25  1  0
 18  4  1  0
 17  6  1  0
 15 11  1  0
  1 26  1  0
  5 27  1  0
  7 28  1  0
  8 29  1  0
 10 30  1  0
 10 31  1  0
 11 32  1  1
 12 33  1  0
 12 34  1  0
 13 35  1  0
 13 36  1  0
 14 37  1  0
 15 38  1  0
 15 39  1  0
 16 40  1  0
 22 41  1  0
 22 42  1  0
 23 43  1  0
 23 44  1  0
 24 45  1  0
 24 46  1  0
 25 47  1  0
M  CHG  2   1  -1  10   1
M  END
>  <UniqueID>  (72) 
72

>  <SMILES>  (72) 
[NH-]C(=O)c1cc2ccc([NH2+][C@@H]3CCNC3)cc2n1C(=O)OCCCO

>  <Energy>  (72) 
88.70985041403607

>  <Genealogy>  (72) 
[NH-]C(=O)c1cc2ccc([NH2+]C3CCNC3)cc2n1C(=O)OCCCO (protonated)
[NH-]C(=O)c1cc2ccc([NH2+][C@@H]3CCNC3)cc2n1C(=O)OCCCO (chirality)
[NH-]C(=O)c1cc2ccc([NH2+][C@@H]3CCNC3)cc2n1C(=O)OCCCO (3D coordinates assigned)
[NH-]C(=O)c1cc2ccc([NH2+][C@@H]3CCNC3)cc2n1C(=O)OCCCO (nonaromatic ring conformer: 88.70985041403607 kcal/mol)

>  <smiles>  (72) 
NC(=O)c1cc2ccc(NC3CCNC3)cc2n1C(=O)OCCCO

>  <score_type>  (72) 
oracle

>  <origin>  (72) 
adg

>  <m_score__min__energy>  (72) 
-10.56

>  <m_primary>  (72) 
energy

$$$$
72:0
     RDKit          3D

 41 43  0  0  0  0  0  0  0  0999 V2000
   -3.3990   21.5450  -33.0980 C   0  0  0  0  0  0  0  0  0  0  0  0
   -3.1140   22.3300  -31.9470 O   0  0  0  0  0  0  0  0  0  0  0  0
   -3.9330   22.3320  -30.8130 C   0  0  0  0  0  0  0  0  0  0  0  0
   -3.4490   22.0630  -29.6790 O   0  0  0  0  0  0  0  0  0  0  0  0
   -5.3330   22.6170  -30.9450 N   0  0  0  0  0  0  0  0  0  0  0  0
   -5.9420   23.8370  -30.9030 C   0  0  0  0  0  0  0  0  0  0  0  0
   -5.3020   25.1140  -30.5270 C   0  0  0  0  0  0  0  0  0  0  0  0
   -3.8920   25.2880  -30.6400 N   0  0  0  0  0  0  0  0  0  0  0  0
   -6.0020   26.0470  -30.0490 O   0  0  0  0  0  0  0  0  0  0  0  0
   -7.3000   23.7160  -31.1910 C   0  0  0  0  0  0  0  0  0  0  0  0
   -7.5080   22.3720  -31.4060 C   0  0  0  0  0  0  0  0  0  0  0  0
   -8.6740   21.6910  -31.7420 C   0  0  0  0  0  0  0  0  0  0  0  0
   -8.5900   20.3040  -31.9440 C   0  0  0  0  0  0  0  0  0  0  0  0
   -7.3480   19.6290  -31.8260 C   0  0  0  0  0  0  0  0  0  0  0  0
   -7.2690   18.1410  -32.0590 C   0  0  0  0  0  0  0  0  0  0  0  0
   -6.8050   17.7160  -33.4760 C   0  0  2  0  0  0  0  0  0  0  0  0
   -6.2050   16.3660  -33.5360 N   0  0  0  0  0  0  0  0  0  0  0  0
   -4.7880   16.2530  -33.1200 C   0  0  0  0  0  0  0  0  0  0  0  0
   -3.9180   17.5010  -33.3950 C   0  0  0  0  0  0  0  0  0  0  0  0
   -4.5500   18.4520  -34.2410 O   0  0  0  0  0  0  0  0  0  0  0  0
   -5.9100   18.7150  -34.1420 C   0  0  0  0  0  0  0  0  0  0  0  0
   -6.3860   19.7670  -34.6460 O   0  0  0  0  0  0  0  0  0  0  0  0
   -6.1920   20.3530  -31.4580 C   0  0  0  0  0  0  0  0  0  0  0  0
   -6.3080   21.7320  -31.2510 C   0  0  0  0  0  0  0  0  0  0  0  0
   -3.7589   20.5536  -32.7857 H   0  0  0  0  0  0  0  0  0  0  0  0
   -4.1735   22.0436  -33.6993 H   0  0  0  0  0  0  0  0  0  0  0  0
   -2.4850   21.4306  -33.6993 H   0  0  0  0  0  0  0  0  0  0  0  0
   -3.4910   26.0280  -31.2570 H   0  0  0  0  0  0  0  0  0  0  0  0
   -8.0467   24.5224  -31.2368 H   0  0  0  0  0  0  0  0  0  0  0  0
   -9.6314   22.2225  -31.8461 H   0  0  0  0  0  0  0  0  0  0  0  0
   -9.4969   19.7349  -32.1964 H   0  0  0  0  0  0  0  0  0  0  0  0
   -6.5618   17.7198  -31.3293 H   0  0  0  0  0  0  0  0  0  0  0  0
   -8.2953   17.7608  -31.9482 H   0  0  0  0  0  0  0  0  0  0  0  0
   -7.7441   17.6784  -34.0476 H   0  0  0  0  0  0  0  0  0  0  0  0
   -6.7790   15.7020  -32.9640 H   0  0  0  0  0  0  0  0  0  0  0  0
   -6.2710   16.0320  -34.5270 H   0  0  0  0  0  0  0  0  0  0  0  0
   -4.7660   16.0549  -32.0382 H   0  0  0  0  0  0  0  0  0  0  0  0
   -4.3568   15.4418  -33.7250 H   0  0  0  0  0  0  0  0  0  0  0  0
   -3.6895   17.9858  -32.4344 H   0  0  0  0  0  0  0  0  0  0  0  0
   -3.0101   17.1574  -33.9125 H   0  0  0  0  0  0  0  0  0  0  0  0
   -5.2239   19.8448  -31.3371 H   0  0  0  0  0  0  0  0  0  0  0  0
  1  2  1  0
  2  3  1  0
  3  4  2  0
  3  5  1  0
  5  6  1  0
  6  7  1  0
  7  8  1  0
  7  9  2  0
  6 10  2  0
 10 11  1  0
 11 12  2  0
 12 13  1  0
 13 14  2  0
 14 15  1  0
 15 16  1  0
 16 17  1  0
 17 18  1  0
 18 19  1  0
 19 20  1  0
 20 21  1  0
 21 22  2  0
 14 23  1  0
 23 24  2  0
 24  5  1  0
 24 11  1  0
 21 16  1  0
  1 25  1  0
  1 26  1  0
  1 27  1  0
  8 28  1  0
 10 29  1  0
 12 30  1  0
 13 31  1  0
 15 32  1  0
 15 33  1  0
 16 34  1  6
 17 35  1  0
 17 36  1  0
 18 37  1  0
 18 38  1  0
 19 39  1  0
 19 40  1  0
 23 41  1  0
M  CHG  2   8  -1  17   1
M  END
>  <UniqueID>  (73) 
73

>  <SMILES>  (73) 
COC(=O)n1c(C([NH-])=O)cc2ccc(C[C@@H]3[NH2+]CCOC3=O)cc21

>  <Energy>  (73) 
87.470922911612

>  <Genealogy>  (73) 
COC(=O)n1c(C([NH-])=O)cc2ccc(C[C@@H]3[NH2+]CCOC3=O)cc21 (protonated)
COC(=O)n1c(C([NH-])=O)cc2ccc(C[C@@H]3[NH2+]CCOC3=O)cc21 (3D coordinates assigned)
COC(=O)n1c(C([NH-])=O)cc2ccc(C[C@@H]3[NH2+]CCOC3=O)cc21 (nonaromatic ring conformer: 87.470922911612 kcal/mol)

>  <smiles>  (73) 
COC(=O)n1c(C(N)=O)cc2ccc(C[C@@H]3NCCOC3=O)cc21

>  <score_type>  (73) 
oracle

>  <origin>  (73) 
adg

>  <m_score__min__energy>  (73) 
-9.7400000000000002

>  <m_primary>  (73) 
energy

$$$$
73:0
     RDKit          3D

 47 48  0  0  0  0  0  0  0  0999 V2000
   -3.0080   20.1500  -33.4180 C   0  0  0  0  0  0  0  0  0  0  0  0
   -3.2770   18.8480  -34.1560 C   0  0  0  0  0  0  0  0  0  0  0  0
   -4.4130   18.2080  -33.5880 O   0  0  0  0  0  0  0  0  0  0  0  0
   -5.7130   18.4040  -34.0660 C   0  0  0  0  0  0  0  0  0  0  0  0
   -5.9220   18.5430  -35.3020 O   0  0  0  0  0  0  0  0  0  0  0  0
   -6.8750   18.4190  -33.1100 C   0  0  1  0  0  0  0  0  0  0  0  0
   -6.6910   17.3600  -32.0160 C   0  0  0  0  0  0  0  0  0  0  0  0
   -7.0870   19.8050  -32.5280 C   0  0  0  0  0  0  0  0  0  0  0  0
   -8.3930   20.3620  -32.4930 C   0  0  0  0  0  0  0  0  0  0  0  0
   -8.6130   21.6490  -31.9760 C   0  0  0  0  0  0  0  0  0  0  0  0
   -7.5130   22.3640  -31.5150 C   0  0  0  0  0  0  0  0  0  0  0  0
   -7.4440   23.6230  -30.9610 C   0  0  0  0  0  0  0  0  0  0  0  0
   -6.0930   23.8370  -30.6950 C   0  0  0  0  0  0  0  0  0  0  0  0
   -5.5410   25.1160  -30.1950 C   0  0  0  0  0  0  0  0  0  0  0  0
   -6.1120   25.7600  -29.0530 N   0  0  0  0  0  0  0  0  0  0  0  0
   -4.5870   25.6720  -30.7990 O   0  0  0  0  0  0  0  0  0  0  0  0
   -5.3560   22.7510  -31.0660 N   0  0  0  0  0  0  0  0  0  0  0  0
   -3.9410   22.5600  -30.9130 C   0  0  0  0  0  0  0  0  0  0  0  0
   -3.1450   23.4910  -31.2100 O   0  0  0  0  0  0  0  0  0  0  0  0
   -3.4540   21.3310  -30.4520 O   0  0  0  0  0  0  0  0  0  0  0  0
   -2.7300   21.1780  -29.2310 C   0  0  0  0  0  0  0  0  0  0  0  0
   -3.4150   22.0040  -28.1450 C   0  0  0  0  0  0  0  0  0  0  0  0
   -1.2780   21.6310  -29.4150 C   0  0  0  0  0  0  0  0  0  0  0  0
   -6.2410   21.8590  -31.5650 C   0  0  0  0  0  0  0  0  0  0  0  0
   -5.9940   20.5710  -32.0510 C   0  0  0  0  0  0  0  0  0  0  0  0
   -3.0450   19.9710  -32.3333 H   0  0  0  0  0  0  0  0  0  0  0  0
   -2.0126   20.5287  -33.6934 H   0  0  0  0  0  0  0  0  0  0  0  0
   -3.7718   20.8921  -33.6934 H   0  0  0  0  0  0  0  0  0  0  0  0
   -3.4688   19.0612  -35.2180 H   0  0  0  0  0  0  0  0  0  0  0  0
   -2.4014   18.1881  -34.0672 H   0  0  0  0  0  0  0  0  0  0  0  0
   -7.7867   18.1615  -33.6690 H   0  0  0  0  0  0  0  0  0  0  0  0
   -6.7736   17.8357  -31.0276 H   0  0  0  0  0  0  0  0  0  0  0  0
   -7.4686   16.5886  -32.1179 H   0  0  0  0  0  0  0  0  0  0  0  0
   -5.6988   16.8961  -32.1179 H   0  0  0  0  0  0  0  0  0  0  0  0
   -9.2429   19.7779  -32.8757 H   0  0  0  0  0  0  0  0  0  0  0  0
   -9.6249   22.0786  -31.9369 H   0  0  0  0  0  0  0  0  0  0  0  0
   -8.2786   24.3134  -30.7691 H   0  0  0  0  0  0  0  0  0  0  0  0
   -5.7600   26.6970  -28.7520 H   0  0  0  0  0  0  0  0  0  0  0  0
   -6.8460   25.2940  -28.4780 H   0  0  0  0  0  0  0  0  0  0  0  0
   -2.7210   20.1187  -28.9347 H   0  0  0  0  0  0  0  0  0  0  0  0
   -3.1086   21.6345  -27.1553 H   0  0  0  0  0  0  0  0  0  0  0  0
   -3.1236   23.0596  -28.2486 H   0  0  0  0  0  0  0  0  0  0  0  0
   -4.5063   21.9130  -28.2486 H   0  0  0  0  0  0  0  0  0  0  0  0
   -0.8116   21.7765  -28.4295 H   0  0  0  0  0  0  0  0  0  0  0  0
   -0.7225   20.8635  -29.9738 H   0  0  0  0  0  0  0  0  0  0  0  0
   -1.2574   22.5783  -29.9738 H   0  0  0  0  0  0  0  0  0  0  0  0
   -4.9732   20.1612  -32.0628 H   0  0  0  0  0  0  0  0  0  0  0  0
  1  2  1  0
  2  3  1  0
  3  4  1  0
  4  5  2  0
  4  6  1  0
  6  7  1  0
  6  8  1  0
  8  9  2  0
  9 10  1  0
 10 11  2  0
 11 12  1  0
 12 13  2  0
 13 14  1  0
 14 15  1  0
 14 16  2  0
 13 17  1  0
 17 18  1  0
 18 19  2  0
 18 20  1  0
 20 21  1  0
 21 22  1  0
 21 23  1  0
 17 24  1  0
 24 25  2  0
 25  8  1  0
 24 11  1  0
  1 26  1  0
  1 27  1  0
  1 28  1  0
  2 29  1  0
  2 30  1  0
  6 31  1  6
  7 32  1  0
  7 33  1  0
  7 34  1  0
  9 35  1  0
 10 36  1  0
 12 37  1  0
 15 38  1  0
 15 39  1  0
 21 40  1  0
 22 41  1  0
 22 42  1  0
 22 43  1  0
 23 44  1  0
 23 45  1  0
 23 46  1  0
 25 47  1  0
M  END
>  <UniqueID>  (74) 
74

>  <SMILES>  (74) 
CCOC(=O)[C@@H](C)c1ccc2cc(C(N)=O)n(C(=O)OC(C)C)c2c1

>  <Energy>  (74) 
71.68083826439727

>  <Genealogy>  (74) 
CCOC(=O)[C@@H](C)c1ccc2cc(C(N)=O)n(C(=O)OC(C)C)c2c1 (chirality)
CCOC(=O)[C@@H](C)c1ccc2cc(C(N)=O)n(C(=O)OC(C)C)c2c1 (3D coordinates assigned)
CCOC(=O)[C@@H](C)c1ccc2cc(C(N)=O)n(C(=O)OC(C)C)c2c1 (optimized conformer: 71.68083826439727 kcal/mol)

>  <smiles>  (74) 
CCOC(=O)C(C)c1ccc2cc(C(N)=O)n(C(=O)OC(C)C)c2c1

>  <score_type>  (74) 
oracle

>  <origin>  (74) 
adg

>  <m_score__min__energy>  (74) 
-8.7799999999999994

>  <m_primary>  (74) 
energy

$$$$
74:0
     RDKit          3D

 43 45  0  0  0  0  0  0  0  0999 V2000
   -1.5350   18.4820  -32.7160 C   0  0  0  0  0  0  0  0  0  0  0  0
   -2.8110   19.0710  -33.2210 C   0  0  0  0  0  0  0  0  0  0  0  0
   -3.7690   18.3890  -33.8030 O   0  0  0  0  0  0  0  0  0  0  0  0
   -4.6930   19.2660  -34.1190 C   0  0  0  0  0  0  0  0  0  0  0  0
   -5.7720   18.9660  -34.6960 O   0  0  0  0  0  0  0  0  0  0  0  0
   -4.3710   20.4890  -33.7690 O   0  0  0  0  0  0  0  0  0  0  0  0
   -3.1890   20.4030  -33.2060 C   0  0  0  0  0  0  0  0  0  0  0  0
   -2.4260   21.5640  -32.6460 C   0  0  0  0  0  0  0  0  0  0  0  0
   -3.1630   22.1960  -31.6030 O   0  0  0  0  0  0  0  0  0  0  0  0
   -4.1560   21.5450  -30.8600 C   0  0  0  0  0  0  0  0  0  0  0  0
   -3.8700   20.5310  -30.1660 O   0  0  0  0  0  0  0  0  0  0  0  0
   -5.5070   22.0280  -30.9060 N   0  0  0  0  0  0  0  0  0  0  0  0
   -5.9360   23.3030  -30.6880 C   0  0  0  0  0  0  0  0  0  0  0  0
   -5.1110   24.4170  -30.1800 C   0  0  0  0  0  0  0  0  0  0  0  0
   -5.2670   24.9080  -28.8480 N   0  0  0  0  0  0  0  0  0  0  0  0
   -4.2890   24.9800  -30.9520 O   0  0  0  0  0  0  0  0  0  0  0  0
   -7.2910   23.4230  -30.9810 C   0  0  0  0  0  0  0  0  0  0  0  0
   -7.6890   22.1680  -31.3820 C   0  0  0  0  0  0  0  0  0  0  0  0
   -8.9310   21.7230  -31.8240 C   0  0  0  0  0  0  0  0  0  0  0  0
   -9.0430   20.3840  -32.2340 C   0  0  0  0  0  0  0  0  0  0  0  0
   -7.9180   19.5220  -32.2010 C   0  0  0  0  0  0  0  0  0  0  0  0
   -8.0350   18.1020  -32.6910 C   0  0  0  0  0  0  0  0  0  0  0  0
   -6.7490   17.3080  -32.4410 C   0  0  0  0  0  0  0  0  0  0  0  0
   -6.2670   16.6970  -33.6780 N   0  0  0  0  0  0  0  0  0  0  0  0
   -6.6700   20.0120  -31.7550 C   0  0  0  0  0  0  0  0  0  0  0  0
   -6.5930   21.3440  -31.3300 C   0  0  0  0  0  0  0  0  0  0  0  0
   -1.5401   18.4844  -31.6160 H   0  0  0  0  0  0  0  0  0  0  0  0
   -1.4389   17.4484  -33.0800 H   0  0  0  0  0  0  0  0  0  0  0  0
   -0.6861   19.0794  -33.0800 H   0  0  0  0  0  0  0  0  0  0  0  0
   -1.4668   21.2055  -32.2441 H   0  0  0  0  0  0  0  0  0  0  0  0
   -2.2541   22.2947  -33.4500 H   0  0  0  0  0  0  0  0  0  0  0  0
   -4.6430   25.6670  -28.4930 H   0  0  0  0  0  0  0  0  0  0  0  0
   -6.0510   24.5810  -28.2410 H   0  0  0  0  0  0  0  0  0  0  0  0
   -7.9118   24.3281  -30.9077 H   0  0  0  0  0  0  0  0  0  0  0  0
   -9.7985   22.3988  -31.8516 H   0  0  0  0  0  0  0  0  0  0  0  0
  -10.0129   20.0007  -32.5840 H   0  0  0  0  0  0  0  0  0  0  0  0
   -8.8657   17.6103  -32.1635 H   0  0  0  0  0  0  0  0  0  0  0  0
   -8.2165   18.1276  -33.7756 H   0  0  0  0  0  0  0  0  0  0  0  0
   -5.9768   17.9864  -32.0493 H   0  0  0  0  0  0  0  0  0  0  0  0
   -6.9629   16.5105  -31.7142 H   0  0  0  0  0  0  0  0  0  0  0  0
   -5.2830   17.0170  -33.8290 H   0  0  0  0  0  0  0  0  0  0  0  0
   -6.8240   17.0820  -34.4750 H   0  0  0  0  0  0  0  0  0  0  0  0
   -5.7815   19.3636  -31.7420 H   0  0  0  0  0  0  0  0  0  0  0  0
  1  2  1  0
  2  3  1  0
  3  4  1  0
  4  5  2  0
  4  6  1  0
  6  7  1  0
  7  8  1  0
  8  9  1  0
  9 10  1  0
 10 11  2  0
 10 12  1  0
 12 13  1  0
 13 14  1  0
 14 15  1  0
 14 16  2  0
 13 17  2  0
 17 18  1  0
 18 19  2  0
 19 20  1  0
 20 21  2  0
 21 22  1  0
 22 23  1  0
 23 24  1  0
 21 25  1  0
 25 26  2  0
  7  2  2  0
 26 12  1  0
 26 18  1  0
  1 27  1  0
  1 28  1  0
  1 29  1  0
  8 30  1  0
  8 31  1  0
 15 32  1  0
 15 33  1  0
 17 34  1  0
 19 35  1  0
 20 36  1  0
 22 37  1  0
 22 38  1  0
 23 39  1  0
 23 40  1  0
 24 41  1  0
 24 42  1  0
 25 43  1  0
M  END
>  <UniqueID>  (75) 
75

>  <SMILES>  (75) 
Cc1oc(=O)oc1COC(=O)n1c(C(N)=O)cc2ccc(CCN)cc21

>  <Energy>  (75) 
109.38196844368044

>  <Genealogy>  (75) 
Cc1oc(=O)oc1COC(=O)n1c(C(N)=O)cc2ccc(CCN)cc21 (3D coordinates assigned)
Cc1oc(=O)oc1COC(=O)n1c(C(N)=O)cc2ccc(CCN)cc21 (optimized conformer: 109.38196844368044 kcal/mol)

>  <smiles>  (75) 
Cc1oc(=O)oc1COC(=O)n1c(C(N)=O)cc2ccc(CCN)cc21

>  <score_type>  (75) 
oracle

>  <origin>  (75) 
adg

>  <m_score__min__energy>  (75) 
-9.0700000000000003

>  <m_primary>  (75) 
energy

$$$$
75:0
     RDKit          3D

 32 33  0  0  0  0  0  0  0  0999 V2000
   -2.9660   21.9250  -32.3130 C   0  0  0  0  0  0  0  0  0  0  0  0
   -3.6710   22.6620  -31.2190 C   0  0  0  0  0  0  0  0  0  0  0  0
   -2.9980   23.1440  -30.2690 O   0  0  0  0  0  0  0  0  0  0  0  0
   -5.0870   22.8940  -31.2800 N   0  0  0  0  0  0  0  0  0  0  0  0
   -5.7760   24.0040  -30.8910 C   0  0  0  0  0  0  0  0  0  0  0  0
   -5.1820   25.2860  -30.4600 C   0  0  0  0  0  0  0  0  0  0  0  0
   -3.8650   25.6550  -30.8590 N   0  0  0  0  0  0  0  0  0  0  0  0
   -5.8620   26.0850  -29.7630 O   0  0  0  0  0  0  0  0  0  0  0  0
   -7.1480   23.7990  -31.0330 C   0  0  0  0  0  0  0  0  0  0  0  0
   -7.2770   22.5230  -31.5340 C   0  0  0  0  0  0  0  0  0  0  0  0
   -8.4200   21.7980  -31.8630 C   0  0  0  0  0  0  0  0  0  0  0  0
   -8.2520   20.4880  -32.3440 C   0  0  0  0  0  0  0  0  0  0  0  0
   -6.9570   19.9350  -32.4810 C   0  0  0  0  0  0  0  0  0  0  0  0
   -6.8000   18.5900  -32.9670 C   0  0  0  0  0  0  0  0  0  0  0  0
   -6.6680   17.4640  -33.3740 C   0  0  0  0  0  0  0  0  0  0  0  0
   -6.5060   16.0900  -33.8700 C   0  0  0  0  0  0  0  0  0  0  0  0
   -5.1020   15.8140  -34.1700 N   0  0  0  0  0  0  0  0  0  0  0  0
   -5.8210   20.6950  -32.1410 C   0  0  0  0  0  0  0  0  0  0  0  0
   -6.0170   22.0000  -31.6760 C   0  0  0  0  0  0  0  0  0  0  0  0
   -2.2688   21.1962  -31.8740 H   0  0  0  0  0  0  0  0  0  0  0  0
   -3.7044   21.3976  -32.9348 H   0  0  0  0  0  0  0  0  0  0  0  0
   -2.4063   22.6392  -32.9348 H   0  0  0  0  0  0  0  0  0  0  0  0
   -3.0280   25.2960  -30.3490 H   0  0  0  0  0  0  0  0  0  0  0  0
   -7.9559   24.5066  -30.7952 H   0  0  0  0  0  0  0  0  0  0  0  0
   -9.4223   22.2368  -31.7500 H   0  0  0  0  0  0  0  0  0  0  0  0
   -9.1334   19.8887  -32.6158 H   0  0  0  0  0  0  0  0  0  0  0  0
   -6.8572   15.3847  -33.1024 H   0  0  0  0  0  0  0  0  0  0  0  0
   -7.0953   15.9736  -34.7915 H   0  0  0  0  0  0  0  0  0  0  0  0
   -5.0000   14.8450  -34.5510 H   0  0  0  0  0  0  0  0  0  0  0  0
   -4.5220   15.9190  -33.3050 H   0  0  0  0  0  0  0  0  0  0  0  0
   -4.7660   16.4960  -34.8880 H   0  0  0  0  0  0  0  0  0  0  0  0
   -4.8091   20.2748  -32.2382 H   0  0  0  0  0  0  0  0  0  0  0  0
  1  2  1  0
  2  3  2  0
  2  4  1  0
  4  5  1  0
  5  6  1  0
  6  7  1  0
  6  8  2  0
  5  9  2  0
  9 10  1  0
 10 11  2  0
 11 12  1  0
 12 13  2  0
 13 14  1  0
 14 15  3  0
 15 16  1  0
 16 17  1  0
 13 18  1  0
 18 19  2  0
 19  4  1  0
 19 10  1  0
  1 20  1  0
  1 21  1  0
  1 22  1  0
  7 23  1  0
  9 24  1  0
 11 25  1  0
 12 26  1  0
 16 27  1  0
 16 28  1  0
 17 29  1  0
 17 30  1  0
 17 31  1  0
 18 32  1  0
M  CHG  2   7  -1  17   1
M  END
>  <UniqueID>  (76) 
76

>  <SMILES>  (76) 
CC(=O)n1c(C([NH-])=O)cc2ccc(C#CC[NH3+])cc21

>  <Energy>  (76) 
65.59840066926974

>  <Genealogy>  (76) 
CC(=O)n1c(C([NH-])=O)cc2ccc(C#CC[NH3+])cc21 (protonated)
CC(=O)n1c(C([NH-])=O)cc2ccc(C#CC[NH3+])cc21 (3D coordinates assigned)
CC(=O)n1c(C([NH-])=O)cc2ccc(C#CC[NH3+])cc21 (optimized conformer: 65.59840066926974 kcal/mol)

>  <smiles>  (76) 
CC(=O)n1c(C(N)=O)cc2ccc(C#CCN)cc21

>  <score_type>  (76) 
oracle

>  <origin>  (76) 
adg

>  <m_score__min__energy>  (76) 
-9.3599999999999994

>  <m_primary>  (76) 
energy

$$$$
76:0
     RDKit          3D

 42 43  0  0  0  0  0  0  0  0999 V2000
   -5.8820   16.6490  -33.5100 C   0  0  0  0  0  0  0  0  0  0  0  0
   -6.5200   17.9950  -33.3360 C   0  0  0  0  0  0  0  0  0  0  0  0
   -6.3100   18.8660  -34.1670 O   0  0  0  0  0  0  0  0  0  0  0  0
   -7.4010   18.2960  -32.1550 C   0  0  0  0  0  0  0  0  0  0  0  0
   -7.4320   19.7750  -31.8950 C   0  0  0  0  0  0  0  0  0  0  0  0
   -8.6160   20.5150  -32.1390 C   0  0  0  0  0  0  0  0  0  0  0  0
   -8.6430   21.9060  -31.9440 C   0  0  0  0  0  0  0  0  0  0  0  0
   -7.4760   22.5260  -31.5070 C   0  0  0  0  0  0  0  0  0  0  0  0
   -7.2150   23.8580  -31.2740 C   0  0  0  0  0  0  0  0  0  0  0  0
   -5.8810   23.9090  -30.8770 C   0  0  0  0  0  0  0  0  0  0  0  0
   -5.2060   25.1540  -30.4560 C   0  0  0  0  0  0  0  0  0  0  0  0
   -3.8630   25.4290  -30.8480 N   0  0  0  0  0  0  0  0  0  0  0  0
   -5.8040   25.9610  -29.6950 O   0  0  0  0  0  0  0  0  0  0  0  0
   -5.3350   22.6600  -30.8720 N   0  0  0  0  0  0  0  0  0  0  0  0
   -3.9680   22.3030  -30.6160 C   0  0  0  0  0  0  0  0  0  0  0  0
   -3.2530   23.0490  -29.8960 O   0  0  0  0  0  0  0  0  0  0  0  0
   -3.4510   21.1190  -31.1630 O   0  0  0  0  0  0  0  0  0  0  0  0
   -3.0400   20.9170  -32.5230 C   0  0  0  0  0  0  0  0  0  0  0  0
   -1.5210   21.1370  -32.6670 C   0  0  0  0  0  0  0  0  0  0  0  0
   -3.8170   21.8500  -33.4720 C   0  0  0  0  0  0  0  0  0  0  0  0
   -3.3660   19.4600  -32.8830 C   0  0  0  0  0  0  0  0  0  0  0  0
   -6.3240   21.8240  -31.2600 C   0  0  0  0  0  0  0  0  0  0  0  0
   -6.2620   20.4420  -31.4660 C   0  0  0  0  0  0  0  0  0  0  0  0
   -5.6745   16.2112  -32.5225 H   0  0  0  0  0  0  0  0  0  0  0  0
   -6.5634   15.9896  -34.0676 H   0  0  0  0  0  0  0  0  0  0  0  0
   -4.9402   16.7590  -34.0676 H   0  0  0  0  0  0  0  0  0  0  0  0
   -8.4215   17.9422  -32.3633 H   0  0  0  0  0  0  0  0  0  0  0  0
   -6.9999   17.7838  -31.2680 H   0  0  0  0  0  0  0  0  0  0  0  0
   -9.5220   19.9954  -32.4842 H   0  0  0  0  0  0  0  0  0  0  0  0
   -9.5581   22.4871  -32.1309 H   0  0  0  0  0  0  0  0  0  0  0  0
   -7.9121   24.7024  -31.3791 H   0  0  0  0  0  0  0  0  0  0  0  0
   -3.0620   25.1960  -30.2210 H   0  0  0  0  0  0  0  0  0  0  0  0
   -1.0638   21.2032  -31.6687 H   0  0  0  0  0  0  0  0  0  0  0  0
   -1.0789   20.2935  -33.2175 H   0  0  0  0  0  0  0  0  0  0  0  0
   -1.3364   22.0713  -33.2175 H   0  0  0  0  0  0  0  0  0  0  0  0
   -4.4106   22.5628  -32.8807 H   0  0  0  0  0  0  0  0  0  0  0  0
   -3.1074   22.4014  -34.1064 H   0  0  0  0  0  0  0  0  0  0  0  0
   -4.4877   21.2519  -34.1064 H   0  0  0  0  0  0  0  0  0  0  0  0
   -3.4969   18.8749  -31.9607 H   0  0  0  0  0  0  0  0  0  0  0  0
   -4.2938   19.4269  -33.4730 H   0  0  0  0  0  0  0  0  0  0  0  0
   -2.5408   19.0347  -33.4730 H   0  0  0  0  0  0  0  0  0  0  0  0
   -5.3264   19.8882  -31.2984 H   0  0  0  0  0  0  0  0  0  0  0  0
  1  2  1  0
  2  3  2  0
  2  4  1  0
  4  5  1  0
  5  6  2  0
  6  7  1  0
  7  8  2  0
  8  9  1  0
  9 10  2  0
 10 11  1  0
 11 12  1  0
 11 13  2  0
 10 14  1  0
 14 15  1  0
 15 16  2  0
 15 17  1  0
 17 18  1  0
 18 19  1  0
 18 20  1  0
 18 21  1  0
 14 22  1  0
 22 23  2  0
 23  5  1  0
 22  8  1  0
  1 24  1  0
  1 25  1  0
  1 26  1  0
  4 27  1  0
  4 28  1  0
  6 29  1  0
  7 30  1  0
  9 31  1  0
 12 32  1  0
 19 33  1  0
 19 34  1  0
 19 35  1  0
 20 36  1  0
 20 37  1  0
 20 38  1  0
 21 39  1  0
 21 40  1  0
 21 41  1  0
 23 42  1  0
M  CHG  1  12  -1
M  END
>  <UniqueID>  (77) 
77

>  <SMILES>  (77) 
CC(=O)Cc1ccc2cc(C([NH-])=O)n(C(=O)OC(C)(C)C)c2c1

>  <Energy>  (77) 
71.62820131062222

>  <Genealogy>  (77) 
CC(=O)Cc1ccc2cc(C([NH-])=O)n(C(=O)OC(C)(C)C)c2c1 (protonated)
CC(=O)Cc1ccc2cc(C([NH-])=O)n(C(=O)OC(C)(C)C)c2c1 (3D coordinates assigned)
CC(=O)Cc1ccc2cc(C([NH-])=O)n(C(=O)OC(C)(C)C)c2c1 (optimized conformer: 71.62820131062222 kcal/mol)

>  <smiles>  (77) 
CC(=O)Cc1ccc2cc(C(N)=O)n(C(=O)OC(C)(C)C)c2c1

>  <score_type>  (77) 
oracle

>  <origin>  (77) 
adg

>  <m_score__min__energy>  (77) 
-10.68

>  <m_primary>  (77) 
energy

$$$$
77:0
     RDKit          3D

 33 34  0  0  0  0  0  0  0  0999 V2000
   -3.8580   25.4440  -30.8440 N   0  0  0  0  0  0  0  0  0  0  0  0
   -5.2250   25.2200  -30.5120 C   0  0  0  0  0  0  0  0  0  0  0  0
   -5.8200   26.0400  -29.7610 O   0  0  0  0  0  0  0  0  0  0  0  0
   -5.9350   24.0150  -30.9860 C   0  0  0  0  0  0  0  0  0  0  0  0
   -7.3170   23.8580  -30.9040 C   0  0  0  0  0  0  0  0  0  0  0  0
   -7.5670   22.5850  -31.3620 C   0  0  0  0  0  0  0  0  0  0  0  0
   -8.7760   21.9110  -31.5160 C   0  0  0  0  0  0  0  0  0  0  0  0
   -8.7420   20.6120  -32.0510 C   0  0  0  0  0  0  0  0  0  0  0  0
   -7.5110   20.0150  -32.4170 C   0  0  0  0  0  0  0  0  0  0  0  0
   -7.4930   18.6480  -33.0340 C   0  0  0  0  0  0  0  0  0  0  0  0
   -6.4180   17.4550  -31.9510 Br  0  0  0  0  0  0  0  0  0  0  0  0
   -6.3060   20.7350  -32.2600 C   0  0  0  0  0  0  0  0  0  0  0  0
   -6.3670   22.0200  -31.7070 C   0  0  0  0  0  0  0  0  0  0  0  0
   -5.3530   22.8870  -31.4840 N   0  0  0  0  0  0  0  0  0  0  0  0
   -3.9710   22.6880  -31.8160 C   0  0  0  0  0  0  0  0  0  0  0  0
   -3.6550   22.1810  -32.9280 O   0  0  0  0  0  0  0  0  0  0  0  0
   -2.9780   23.0790  -30.9120 O   0  0  0  0  0  0  0  0  0  0  0  0
   -2.2090   22.1450  -30.1620 C   0  0  0  0  0  0  0  0  0  0  0  0
   -1.9210   22.6850  -28.8770 O   0  0  0  0  0  0  0  0  0  0  0  0
   -2.1150   24.0330  -28.5580 C   0  0  0  0  0  0  0  0  0  0  0  0
   -3.2250   24.4340  -28.1140 O   0  0  0  0  0  0  0  0  0  0  0  0
   -1.0190   24.9870  -28.7420 C   0  0  0  0  0  0  0  0  0  0  0  0
   -1.2290   26.0860  -29.3200 O   0  0  0  0  0  0  0  0  0  0  0  0
    0.2570   24.6850  -28.2830 O   0  0  0  0  0  0  0  0  0  0  0  0
   -3.0960   25.2080  -30.1690 H   0  0  0  0  0  0  0  0  0  0  0  0
   -8.0520   24.5952  -30.5486 H   0  0  0  0  0  0  0  0  0  0  0  0
   -9.7279   22.3809  -31.2278 H   0  0  0  0  0  0  0  0  0  0  0  0
   -9.6801   20.0538  -32.1867 H   0  0  0  0  0  0  0  0  0  0  0  0
   -8.5208   18.2606  -33.0940 H   0  0  0  0  0  0  0  0  0  0  0  0
   -7.0615   18.7105  -34.0439 H   0  0  0  0  0  0  0  0  0  0  0  0
   -5.3439   20.2973  -32.5645 H   0  0  0  0  0  0  0  0  0  0  0  0
   -2.7783   21.2108  -30.0471 H   0  0  0  0  0  0  0  0  0  0  0  0
   -1.2667   21.9398  -30.6911 H   0  0  0  0  0  0  0  0  0  0  0  0
  1  2  1  0
  2  3  2  0
  2  4  1  0
  4  5  2  0
  5  6  1  0
  6  7  2  0
  7  8  1  0
  8  9  2  0
  9 10  1  0
 10 11  1  0
  9 12  1  0
 12 13  2  0
 13 14  1  0
 14 15  1  0
 15 16  2  0
 15 17  1  0
 17 18  1  0
 18 19  1  0
 19 20  1  0
 20 21  2  0
 20 22  1  0
 22 23  2  0
 22 24  1  0
 14  4  1  0
 13  6  1  0
  1 25  1  0
  5 26  1  0
  7 27  1  0
  8 28  1  0
 10 29  1  0
 10 30  1  0
 12 31  1  0
 18 32  1  0
 18 33  1  0
M  CHG  2   1  -1  24  -1
M  END
>  <UniqueID>  (78) 
78

>  <SMILES>  (78) 
[NH-]C(=O)c1cc2ccc(CBr)cc2n1C(=O)OCOC(=O)C(=O)[O-]

>  <Energy>  (78) 
66.5440086600247

>  <Genealogy>  (78) 
[NH-]C(=O)c1cc2ccc(CBr)cc2n1C(=O)OCOC(=O)C(=O)[O-] (protonated)
[NH-]C(=O)c1cc2ccc(CBr)cc2n1C(=O)OCOC(=O)C(=O)[O-] (3D coordinates assigned)
[NH-]C(=O)c1cc2ccc(CBr)cc2n1C(=O)OCOC(=O)C(=O)[O-] (optimized conformer: 66.5440086600247 kcal/mol)

>  <smiles>  (78) 
NC(=O)c1cc2ccc(CBr)cc2n1C(=O)OCOC(=O)C(=O)O

>  <score_type>  (78) 
oracle

>  <origin>  (78) 
adg

>  <m_score__min__energy>  (78) 
-12.23

>  <m_primary>  (78) 
energy

$$$$
78:0
     RDKit          3D

 48 49  0  0  0  0  0  0  0  0999 V2000
   -5.6730   15.9200  -33.4590 C   0  0  0  0  0  0  0  0  0  0  0  0
   -5.9280   16.9940  -34.3550 O   0  0  0  0  0  0  0  0  0  0  0  0
   -6.2880   18.2710  -33.9170 C   0  0  0  0  0  0  0  0  0  0  0  0
   -6.0670   19.2840  -34.6350 O   0  0  0  0  0  0  0  0  0  0  0  0
   -6.9710   18.4300  -32.5970 C   0  0  0  0  0  0  0  0  0  0  0  0
   -7.1050   19.8880  -32.2510 C   0  0  0  0  0  0  0  0  0  0  0  0
   -8.3690   20.5240  -32.3280 C   0  0  0  0  0  0  0  0  0  0  0  0
   -8.5130   21.8740  -31.9640 C   0  0  0  0  0  0  0  0  0  0  0  0
   -7.3810   22.5580  -31.5310 C   0  0  0  0  0  0  0  0  0  0  0  0
   -7.2410   23.8590  -31.1090 C   0  0  0  0  0  0  0  0  0  0  0  0
   -5.8910   24.0050  -30.7950 C   0  0  0  0  0  0  0  0  0  0  0  0
   -5.2890   25.2960  -30.3960 C   0  0  0  0  0  0  0  0  0  0  0  0
   -3.9890   25.6740  -30.8380 N   0  0  0  0  0  0  0  0  0  0  0  0
   -5.9520   26.0980  -29.6880 O   0  0  0  0  0  0  0  0  0  0  0  0
   -5.2240   22.8340  -31.0080 N   0  0  0  0  0  0  0  0  0  0  0  0
   -3.8300   22.5640  -30.7970 C   0  0  0  0  0  0  0  0  0  0  0  0
   -2.9570   23.2720  -31.3670 O   0  0  0  0  0  0  0  0  0  0  0  0
   -3.3060   21.2210  -29.7210 S   0  0  0  0  0  0  0  0  0  0  0  0
   -1.5300   21.6480  -29.7860 C   0  0  0  0  0  0  0  0  0  0  0  0
   -1.1680   22.6410  -28.6750 C   0  0  0  0  0  0  0  0  0  0  0  0
   -0.9280   24.0510  -29.2520 C   0  0  0  0  0  0  0  0  0  0  0  0
   -1.8170   25.0970  -28.6920 N   0  0  0  0  0  0  0  0  0  0  0  0
   -2.9520   24.5400  -27.9360 C   0  0  0  0  0  0  0  0  0  0  0  0
   -1.0900   26.1030  -27.8990 C   0  0  0  0  0  0  0  0  0  0  0  0
   -6.1490   21.9600  -31.4600 C   0  0  0  0  0  0  0  0  0  0  0  0
   -5.9800   20.6110  -31.7960 C   0  0  0  0  0  0  0  0  0  0  0  0
   -5.7582   16.2789  -32.4227 H   0  0  0  0  0  0  0  0  0  0  0  0
   -6.4056   15.1176  -33.6305 H   0  0  0  0  0  0  0  0  0  0  0  0
   -4.6579   15.5325  -33.6305 H   0  0  0  0  0  0  0  0  0  0  0  0
   -7.9715   17.9759  -32.6491 H   0  0  0  0  0  0  0  0  0  0  0  0
   -6.3711   17.9317  -31.8213 H   0  0  0  0  0  0  0  0  0  0  0  0
   -9.2448   19.9564  -32.6755 H   0  0  0  0  0  0  0  0  0  0  0  0
   -9.4909   22.3747  -32.0197 H   0  0  0  0  0  0  0  0  0  0  0  0
   -8.0285   24.6235  -31.0348 H   0  0  0  0  0  0  0  0  0  0  0  0
   -3.1330   25.2390  -30.4280 H   0  0  0  0  0  0  0  0  0  0  0  0
   -0.9340   20.7322  -29.6595 H   0  0  0  0  0  0  0  0  0  0  0  0
   -1.3145   22.1135  -30.7591 H   0  0  0  0  0  0  0  0  0  0  0  0
   -1.9930   22.6850  -27.9487 H   0  0  0  0  0  0  0  0  0  0  0  0
   -0.2433   22.2996  -28.1868 H   0  0  0  0  0  0  0  0  0  0  0  0
    0.1138   24.3361  -29.0436 H   0  0  0  0  0  0  0  0  0  0  0  0
   -1.1474   23.9933  -30.3284 H   0  0  0  0  0  0  0  0  0  0  0  0
   -2.7567   24.6358  -26.8577 H   0  0  0  0  0  0  0  0  0  0  0  0
   -3.8691   25.0904  -28.1929 H   0  0  0  0  0  0  0  0  0  0  0  0
   -3.0777   23.4778  -28.1929 H   0  0  0  0  0  0  0  0  0  0  0  0
   -1.2361   25.9009  -26.8276 H   0  0  0  0  0  0  0  0  0  0  0  0
   -0.0175   26.0537  -28.1386 H   0  0  0  0  0  0  0  0  0  0  0  0
   -1.4734   27.1058  -28.1386 H   0  0  0  0  0  0  0  0  0  0  0  0
   -4.9963   20.1268  -31.7078 H   0  0  0  0  0  0  0  0  0  0  0  0
  1  2  1  0
  2  3  1  0
  3  4  2  0
  3  5  1  0
  5  6  1  0
  6  7  2  0
  7  8  1  0
  8  9  2  0
  9 10  1  0
 10 11  2  0
 11 12  1  0
 12 13  1  0
 12 14  2  0
 11 15  1  0
 15 16  1  0
 16 17  2  0
 16 18  1  0
 18 19  1  0
 19 20  1  0
 20 21  1  0
 21 22  1  0
 22 23  1  0
 22 24  1  0
 15 25  1  0
 25 26  2  0
 26  6  1  0
 25  9  1  0
  1 27  1  0
  1 28  1  0
  1 29  1  0
  5 30  1  0
  5 31  1  0
  7 32  1  0
  8 33  1  0
 10 34  1  0
 13 35  1  0
 19 36  1  0
 19 37  1  0
 20 38  1  0
 20 39  1  0
 21 40  1  0
 21 41  1  0
 23 42  1  0
 23 43  1  0
 23 44  1  0
 24 45  1  0
 24 46  1  0
 24 47  1  0
 26 48  1  0
M  CHG  1  13  -1
M  END
>  <UniqueID>  (79) 
79

>  <SMILES>  (79) 
COC(=O)Cc1ccc2cc(C([NH-])=O)n(C(=O)SCCCN(C)C)c2c1

>  <Energy>  (79) 
76.8913228939121

>  <Genealogy>  (79) 
COC(=O)Cc1ccc2cc(C([NH-])=O)n(C(=O)SCCCN(C)C)c2c1 (protonated)
COC(=O)Cc1ccc2cc(C([NH-])=O)n(C(=O)SCCCN(C)C)c2c1 (3D coordinates assigned)
COC(=O)Cc1ccc2cc(C([NH-])=O)n(C(=O)SCCCN(C)C)c2c1 (optimized conformer: 76.8913228939121 kcal/mol)

>  <smiles>  (79) 
COC(=O)Cc1ccc2cc(C(N)=O)n(C(=O)SCCCN(C)C)c2c1

>  <score_type>  (79) 
oracle

>  <origin>  (79) 
adg

>  <m_score__min__energy>  (79) 
-10.67

>  <m_primary>  (79) 
energy

$$$$
79:0
     RDKit          3D

 41 42  0  0  0  0  0  0  0  0999 V2000
   -9.4780   19.7500  -32.0700 C   0  0  0  0  0  0  0  0  0  0  0  0
   -8.9640   18.6050  -32.7160 O   0  0  0  0  0  0  0  0  0  0  0  0
   -7.9390   18.0160  -31.9350 C   0  0  0  0  0  0  0  0  0  0  0  0
   -6.8980   17.3540  -32.8470 C   0  0  0  0  0  0  0  0  0  0  0  0
   -5.6200   16.9620  -32.0960 C   0  0  0  0  0  0  0  0  0  0  0  0
   -4.4690   17.1910  -32.9070 O   0  0  0  0  0  0  0  0  0  0  0  0
   -4.3940   18.1840  -33.8910 C   0  0  0  0  0  0  0  0  0  0  0  0
   -4.9950   18.0520  -34.9910 O   0  0  0  0  0  0  0  0  0  0  0  0
   -3.6640   19.4510  -33.5890 C   0  0  0  0  0  0  0  0  0  0  0  0
   -4.6480   20.4900  -33.1300 C   0  0  0  0  0  0  0  0  0  0  0  0
   -6.0340   20.3120  -33.3660 C   0  0  0  0  0  0  0  0  0  0  0  0
   -6.9700   21.2260  -32.8540 C   0  0  0  0  0  0  0  0  0  0  0  0
   -6.4930   22.2990  -32.1090 C   0  0  0  0  0  0  0  0  0  0  0  0
   -7.1820   23.2900  -31.4480 C   0  0  0  0  0  0  0  0  0  0  0  0
   -6.2060   24.0660  -30.8250 C   0  0  0  0  0  0  0  0  0  0  0  0
   -6.4980   25.2960  -30.0560 C   0  0  0  0  0  0  0  0  0  0  0  0
   -5.6990   26.4690  -30.2260 N   0  0  0  0  0  0  0  0  0  0  0  0
   -7.4390   25.3110  -29.2190 O   0  0  0  0  0  0  0  0  0  0  0  0
   -4.9620   23.5750  -31.0930 N   0  0  0  0  0  0  0  0  0  0  0  0
   -3.7050   24.0390  -30.5730 C   0  0  0  0  0  0  0  0  0  0  0  0
   -3.4880   25.2720  -30.4340 O   0  0  0  0  0  0  0  0  0  0  0  0
   -2.7200   23.1320  -30.2020 O   0  0  0  0  0  0  0  0  0  0  0  0
   -5.1560   22.4930  -31.8800 C   0  0  0  0  0  0  0  0  0  0  0  0
   -4.2020   21.5930  -32.3670 C   0  0  0  0  0  0  0  0  0  0  0  0
   -9.4171   19.6144  -30.9801 H   0  0  0  0  0  0  0  0  0  0  0  0
   -8.8893   20.6317  -32.3633 H   0  0  0  0  0  0  0  0  0  0  0  0
  -10.5281   19.8961  -32.3633 H   0  0  0  0  0  0  0  0  0  0  0  0
   -7.4505   18.7934  -31.3292 H   0  0  0  0  0  0  0  0  0  0  0  0
   -8.3802   17.2524  -31.2775 H   0  0  0  0  0  0  0  0  0  0  0  0
   -7.3403   16.4478  -33.2866 H   0  0  0  0  0  0  0  0  0  0  0  0
   -6.6191   18.0854  -33.6198 H   0  0  0  0  0  0  0  0  0  0  0  0
   -5.5411   17.5639  -31.1787 H   0  0  0  0  0  0  0  0  0  0  0  0
   -5.6701   15.8918  -31.8467 H   0  0  0  0  0  0  0  0  0  0  0  0
   -2.9239   19.2692  -32.7958 H   0  0  0  0  0  0  0  0  0  0  0  0
   -3.1474   19.8048  -34.4934 H   0  0  0  0  0  0  0  0  0  0  0  0
   -6.3801   19.4502  -33.9555 H   0  0  0  0  0  0  0  0  0  0  0  0
   -8.0470   21.0969  -33.0368 H   0  0  0  0  0  0  0  0  0  0  0  0
   -8.2715   23.4383  -31.4177 H   0  0  0  0  0  0  0  0  0  0  0  0
   -5.8900   27.3190  -29.6500 H   0  0  0  0  0  0  0  0  0  0  0  0
   -4.9490   26.5140  -30.9500 H   0  0  0  0  0  0  0  0  0  0  0  0
   -3.1315   21.7401  -32.1612 H   0  0  0  0  0  0  0  0  0  0  0  0
  1  2  1  0
  2  3  1  0
  3  4  1  0
  4  5  1  0
  5  6  1  0
  6  7  1  0
  7  8  2  0
  7  9  1  0
  9 10  1  0
 10 11  2  0
 11 12  1  0
 12 13  2  0
 13 14  1  0
 14 15  2  0
 15 16  1  0
 16 17  1  0
 16 18  2  0
 15 19  1  0
 19 20  1  0
 20 21  2  0
 20 22  1  0
 19 23  1  0
 23 24  2  0
 24 10  1  0
 23 13  1  0
  1 25  1  0
  1 26  1  0
  1 27  1  0
  3 28  1  0
  3 29  1  0
  4 30  1  0
  4 31  1  0
  5 32  1  0
  5 33  1  0
  9 34  1  0
  9 35  1  0
 11 36  1  0
 12 37  1  0
 14 38  1  0
 17 39  1  0
 17 40  1  0
 24 41  1  0
M  CHG  1  22  -1
M  END
>  <UniqueID>  (80) 
80

>  <SMILES>  (80) 
COCCCOC(=O)Cc1ccc2cc(C(N)=O)n(C(=O)[O-])c2c1

>  <Energy>  (80) 
72.40488188531448

>  <Genealogy>  (80) 
COCCCOC(=O)Cc1ccc2cc(C(N)=O)n(C(=O)[O-])c2c1 (protonated)
COCCCOC(=O)Cc1ccc2cc(C(N)=O)n(C(=O)[O-])c2c1 (3D coordinates assigned)
COCCCOC(=O)Cc1ccc2cc(C(N)=O)n(C(=O)[O-])c2c1 (optimized conformer: 72.40488188531448 kcal/mol)

>  <smiles>  (80) 
COCCCOC(=O)Cc1ccc2cc(C(N)=O)n(C(=O)O)c2c1

>  <score_type>  (80) 
oracle

>  <origin>  (80) 
adg

>  <m_score__min__energy>  (80) 
-8.5

>  <m_primary>  (80) 
energy

$$$$
80:0
     RDKit          3D

 40 41  0  0  0  0  0  0  0  0999 V2000
   -0.4610   21.1380  -34.3730 C   0  0  0  0  0  0  0  0  0  0  0  0
   -0.8070   21.0970  -33.0820 C   0  0  0  0  0  0  0  0  0  0  0  0
   -2.2240   20.8320  -32.6610 C   0  0  0  0  0  0  0  0  0  0  0  0
   -3.0030   22.0240  -32.7380 O   0  0  0  0  0  0  0  0  0  0  0  0
   -3.5500   22.6600  -31.6170 C   0  0  0  0  0  0  0  0  0  0  0  0
   -2.7970   23.1590  -30.7360 O   0  0  0  0  0  0  0  0  0  0  0  0
   -4.9770   22.7610  -31.4820 N   0  0  0  0  0  0  0  0  0  0  0  0
   -5.7000   23.8040  -30.9850 C   0  0  0  0  0  0  0  0  0  0  0  0
   -5.1470   25.0200  -30.3510 C   0  0  0  0  0  0  0  0  0  0  0  0
   -3.9270   25.5770  -30.8330 N   0  0  0  0  0  0  0  0  0  0  0  0
   -5.7580   25.5930  -29.4100 O   0  0  0  0  0  0  0  0  0  0  0  0
   -7.0640   23.5360  -31.0730 C   0  0  0  0  0  0  0  0  0  0  0  0
   -7.1540   22.2840  -31.6360 C   0  0  0  0  0  0  0  0  0  0  0  0
   -8.2730   21.5260  -31.9540 C   0  0  0  0  0  0  0  0  0  0  0  0
   -8.0730   20.2690  -32.5470 C   0  0  0  0  0  0  0  0  0  0  0  0
   -6.7620   19.7830  -32.8270 C   0  0  0  0  0  0  0  0  0  0  0  0
   -6.5740   18.4780  -33.4470 N   0  0  0  0  0  0  0  0  0  0  0  0
   -7.2420   17.2910  -32.8920 C   0  0  0  0  0  0  0  0  0  0  0  0
   -5.7280   18.2940  -34.6410 C   0  0  0  0  0  0  0  0  0  0  0  0
   -4.3080   17.8560  -34.2630 C   0  0  0  0  0  0  0  0  0  0  0  0
   -4.2190   17.5800  -32.9120 F   0  0  0  0  0  0  0  0  0  0  0  0
   -3.4200   18.8700  -34.5720 F   0  0  0  0  0  0  0  0  0  0  0  0
   -3.9540   16.7240  -34.9750 F   0  0  0  0  0  0  0  0  0  0  0  0
   -5.6520   20.6000  -32.4840 C   0  0  0  0  0  0  0  0  0  0  0  0
   -5.8830   21.8380  -31.8740 C   0  0  0  0  0  0  0  0  0  0  0  0
    0.5836   21.3339  -34.6565 H   0  0  0  0  0  0  0  0  0  0  0  0
   -1.2210   20.9758  -35.1515 H   0  0  0  0  0  0  0  0  0  0  0  0
   -0.0380   21.2607  -32.3127 H   0  0  0  0  0  0  0  0  0  0  0  0
   -2.6615   20.0710  -33.3239 H   0  0  0  0  0  0  0  0  0  0  0  0
   -2.2235   20.4760  -31.6202 H   0  0  0  0  0  0  0  0  0  0  0  0
   -3.0090   25.2870  -30.4290 H   0  0  0  0  0  0  0  0  0  0  0  0
   -7.8931   24.1871  -30.7590 H   0  0  0  0  0  0  0  0  0  0  0  0
   -9.2868   21.8994  -31.7474 H   0  0  0  0  0  0  0  0  0  0  0  0
   -8.9444   19.6473  -32.8004 H   0  0  0  0  0  0  0  0  0  0  0  0
   -7.2166   17.3361  -31.7932 H   0  0  0  0  0  0  0  0  0  0  0  0
   -8.2872   17.2650  -33.2338 H   0  0  0  0  0  0  0  0  0  0  0  0
   -6.7218   16.3841  -33.2338 H   0  0  0  0  0  0  0  0  0  0  0  0
   -6.1800   17.5243  -35.2839 H   0  0  0  0  0  0  0  0  0  0  0  0
   -5.6626   19.2569  -35.1687 H   0  0  0  0  0  0  0  0  0  0  0  0
   -4.6258   20.2645  -32.6948 H   0  0  0  0  0  0  0  0  0  0  0  0
  1  2  2  0
  2  3  1  0
  3  4  1  0
  4  5  1  0
  5  6  2  0
  5  7  1  0
  7  8  1  0
  8  9  1  0
  9 10  1  0
  9 11  2  0
  8 12  2  0
 12 13  1  0
 13 14  2  0
 14 15  1  0
 15 16  2  0
 16 17  1  0
 17 18  1  0
 17 19  1  0
 19 20  1  0
 20 21  1  0
 20 22  1  0
 20 23  1  0
 16 24  1  0
 24 25  2  0
 25  7  1  0
 25 13  1  0
  1 26  1  0
  1 27  1  0
  2 28  1  0
  3 29  1  0
  3 30  1  0
 10 31  1  0
 12 32  1  0
 14 33  1  0
 15 34  1  0
 18 35  1  0
 18 36  1  0
 18 37  1  0
 19 38  1  0
 19 39  1  0
 24 40  1  0
M  CHG  1  10  -1
M  END
>  <UniqueID>  (81) 
81

>  <SMILES>  (81) 
C=CCOC(=O)n1c(C([NH-])=O)cc2ccc(N(C)CC(F)(F)F)cc21

>  <Energy>  (81) 
75.35130920318797

>  <Genealogy>  (81) 
C=CCOC(=O)n1c(C([NH-])=O)cc2ccc(N(C)CC(F)(F)F)cc21 (protonated)
C=CCOC(=O)n1c(C([NH-])=O)cc2ccc(N(C)CC(F)(F)F)cc21 (3D coordinates assigned)
C=CCOC(=O)n1c(C([NH-])=O)cc2ccc(N(C)CC(F)(F)F)cc21 (optimized conformer: 75.35130920318797 kcal/mol)

>  <smiles>  (81) 
C=CCOC(=O)n1c(C(N)=O)cc2ccc(N(C)CC(F)(F)F)cc21

>  <score_type>  (81) 
oracle

>  <origin>  (81) 
adg

>  <m_score__min__energy>  (81) 
-9.3200000000000003

>  <m_primary>  (81) 
energy

$$$$
81:0
     RDKit          3D

 47 48  0  0  0  0  0  0  0  0999 V2000
   -2.8210   19.0590  -32.7080 C   0  0  0  0  0  0  0  0  0  0  0  0
   -2.7560   18.7650  -34.1980 C   0  0  0  0  0  0  0  0  0  0  0  0
   -3.3380   17.4920  -34.4590 O   0  0  0  0  0  0  0  0  0  0  0  0
   -2.7260   16.2930  -34.0850 C   0  0  0  0  0  0  0  0  0  0  0  0
   -1.4680   16.2040  -34.0350 O   0  0  0  0  0  0  0  0  0  0  0  0
   -3.5300   15.1940  -33.7640 O   0  0  0  0  0  0  0  0  0  0  0  0
   -3.7690   14.7620  -32.4250 C   0  0  0  0  0  0  0  0  0  0  0  0
   -4.9780   15.4880  -31.8350 C   0  0  0  0  0  0  0  0  0  0  0  0
   -5.4610   16.5130  -32.7570 N   0  0  0  0  0  0  0  0  0  0  0  0
   -6.4120   17.5150  -32.3690 C   0  0  0  0  0  0  0  0  0  0  0  0
   -6.8980   17.5060  -31.2050 O   0  0  0  0  0  0  0  0  0  0  0  0
   -6.8770   18.5330  -33.3800 C   0  0  2  0  0  0  0  0  0  0  0  0
   -5.9930   18.5510  -34.6350 C   0  0  0  0  0  0  0  0  0  0  0  0
   -6.9530   19.9080  -32.7500 C   0  0  0  0  0  0  0  0  0  0  0  0
   -8.2120   20.4500  -32.3860 C   0  0  0  0  0  0  0  0  0  0  0  0
   -8.3060   21.7290  -31.8130 C   0  0  0  0  0  0  0  0  0  0  0  0
   -7.1300   22.4420  -31.6110 C   0  0  0  0  0  0  0  0  0  0  0  0
   -6.9380   23.7060  -31.1020 C   0  0  0  0  0  0  0  0  0  0  0  0
   -5.5600   23.9140  -31.1400 C   0  0  0  0  0  0  0  0  0  0  0  0
   -4.9070   25.1230  -30.5990 C   0  0  0  0  0  0  0  0  0  0  0  0
   -3.5530   25.0910  -30.1570 N   0  0  0  0  0  0  0  0  0  0  0  0
   -5.5700   26.1890  -30.4760 O   0  0  0  0  0  0  0  0  0  0  0  0
   -4.9250   22.8260  -31.6630 N   0  0  0  0  0  0  0  0  0  0  0  0
   -3.5270   22.6820  -31.9550 C   0  0  0  0  0  0  0  0  0  0  0  0
   -2.6600   23.0330  -31.1110 O   0  0  0  0  0  0  0  0  0  0  0  0
   -3.1160   22.1270  -33.1610 O   0  0  0  0  0  0  0  0  0  0  0  0
   -5.9010   21.9330  -31.9430 C   0  0  0  0  0  0  0  0  0  0  0  0
   -5.7780   20.6690  -32.5320 C   0  0  0  0  0  0  0  0  0  0  0  0
   -2.6172   18.1373  -32.1432 H   0  0  0  0  0  0  0  0  0  0  0  0
   -2.0694   19.8201  -32.4513 H   0  0  0  0  0  0  0  0  0  0  0  0
   -3.8234   19.4323  -32.4513 H   0  0  0  0  0  0  0  0  0  0  0  0
   -3.3089   19.5403  -34.7487 H   0  0  0  0  0  0  0  0  0  0  0  0
   -1.7055   18.7604  -34.5242 H   0  0  0  0  0  0  0  0  0  0  0  0
   -3.9610   13.6789  -32.4231 H   0  0  0  0  0  0  0  0  0  0  0  0
   -2.8836   14.9917  -31.8141 H   0  0  0  0  0  0  0  0  0  0  0  0
   -5.7819   14.7604  -31.6496 H   0  0  0  0  0  0  0  0  0  0  0  0
   -4.6777   15.9705  -30.8932 H   0  0  0  0  0  0  0  0  0  0  0  0
   -5.1470   16.4740  -33.7530 H   0  0  0  0  0  0  0  0  0  0  0  0
   -7.8853   18.2371  -33.7051 H   0  0  0  0  0  0  0  0  0  0  0  0
   -4.9342   18.5726  -34.3374 H   0  0  0  0  0  0  0  0  0  0  0  0
   -6.1874   17.6487  -35.2334 H   0  0  0  0  0  0  0  0  0  0  0  0
   -6.2240   19.4446  -35.2334 H   0  0  0  0  0  0  0  0  0  0  0  0
   -9.1260   19.8616  -32.5545 H   0  0  0  0  0  0  0  0  0  0  0  0
   -9.2812   22.1537  -31.5325 H   0  0  0  0  0  0  0  0  0  0  0  0
   -7.7081   24.4039  -30.7417 H   0  0  0  0  0  0  0  0  0  0  0  0
   -2.7660   25.2420  -30.8250 H   0  0  0  0  0  0  0  0  0  0  0  0
   -4.7916   20.2756  -32.8190 H   0  0  0  0  0  0  0  0  0  0  0  0
  1  2  1  0
  2  3  1  0
  3  4  1  0
  4  5  2  0
  4  6  1  0
  6  7  1  0
  7  8  1  0
  8  9  1  0
  9 10  1  0
 10 11  2  0
 10 12  1  0
 12 13  1  0
 12 14  1  0
 14 15  2  0
 15 16  1  0
 16 17  2  0
 17 18  1  0
 18 19  2  0
 19 20  1  0
 20 21  1  0
 20 22  2  0
 19 23  1  0
 23 24  1  0
 24 25  2  0
 24 26  1  0
 23 27  1  0
 27 28  2  0
 28 14  1  0
 27 17  1  0
  1 29  1  0
  1 30  1  0
  1 31  1  0
  2 32  1  0
  2 33  1  0
  7 34  1  0
  7 35  1  0
  8 36  1  0
  8 37  1  0
  9 38  1  0
 12 39  1  6
 13 40  1  0
 13 41  1  0
 13 42  1  0
 15 43  1  0
 16 44  1  0
 18 45  1  0
 21 46  1  0
 28 47  1  0
M  CHG  2  21  -1  26  -1
M  END
>  <UniqueID>  (82) 
82

>  <SMILES>  (82) 
CCOC(=O)OCCNC(=O)[C@H](C)c1ccc2cc(C([NH-])=O)n(C(=O)[O-])c2c1

>  <Energy>  (82) 
74.17496888768372

>  <Genealogy>  (82) 
CCOC(=O)OCCNC(=O)C(C)c1ccc2cc(C([NH-])=O)n(C(=O)[O-])c2c1 (protonated)
CCOC(=O)OCCNC(=O)[C@H](C)c1ccc2cc(C([NH-])=O)n(C(=O)[O-])c2c1 (chirality)
CCOC(=O)OCCNC(=O)[C@H](C)c1ccc2cc(C([NH-])=O)n(C(=O)[O-])c2c1 (3D coordinates assigned)
CCOC(=O)OCCNC(=O)[C@H](C)c1ccc2cc(C([NH-])=O)n(C(=O)[O-])c2c1 (optimized conformer: 74.17496888768372 kcal/mol)

>  <smiles>  (82) 
CCOC(=O)OCCNC(=O)C(C)c1ccc2cc(C(N)=O)n(C(=O)O)c2c1

>  <score_type>  (82) 
oracle

>  <origin>  (82) 
adg

>  <m_score__min__energy>  (82) 
-11.470000000000001

>  <m_primary>  (82) 
energy

$$$$
82:0
     RDKit          3D

 41 42  0  0  0  0  0  0  0  0999 V2000
   -2.8100   18.5280  -32.8260 C   0  0  0  0  0  0  0  0  0  0  0  0
   -3.6810   19.7060  -32.9740 N   0  0  0  0  0  0  0  0  0  0  0  0
   -2.8980   20.8270  -33.5280 C   0  0  0  0  0  0  0  0  0  0  0  0
   -4.8430   19.3710  -33.8350 C   0  0  0  0  0  0  0  0  0  0  0  0
   -5.4980   18.0140  -33.4950 C   0  0  0  0  0  0  0  0  0  0  0  0
   -6.4800   18.1020  -32.3510 C   0  0  0  0  0  0  0  0  0  0  0  0
   -6.2060   17.5850  -31.2780 O   0  0  0  0  0  0  0  0  0  0  0  0
   -7.8150   18.7810  -32.5240 C   0  0  0  0  0  0  0  0  0  0  0  0
   -7.7610   20.2110  -32.0560 C   0  0  0  0  0  0  0  0  0  0  0  0
   -8.9520   20.9710  -31.9400 C   0  0  0  0  0  0  0  0  0  0  0  0
   -8.9040   22.3170  -31.5420 C   0  0  0  0  0  0  0  0  0  0  0  0
   -7.6580   22.8770  -31.2830 C   0  0  0  0  0  0  0  0  0  0  0  0
   -7.3260   24.1530  -30.8890 C   0  0  0  0  0  0  0  0  0  0  0  0
   -5.9360   24.1590  -30.7900 C   0  0  0  0  0  0  0  0  0  0  0  0
   -5.1500   25.3720  -30.4820 C   0  0  0  0  0  0  0  0  0  0  0  0
   -3.7300   25.2870  -30.3760 N   0  0  0  0  0  0  0  0  0  0  0  0
   -5.7190   26.4750  -30.2740 O   0  0  0  0  0  0  0  0  0  0  0  0
   -5.4290   22.9330  -31.1000 N   0  0  0  0  0  0  0  0  0  0  0  0
   -4.0540   22.5160  -31.0670 C   0  0  0  0  0  0  0  0  0  0  0  0
   -3.1610   23.2250  -31.6020 O   0  0  0  0  0  0  0  0  0  0  0  0
   -3.6990   21.3130  -30.4690 O   0  0  0  0  0  0  0  0  0  0  0  0
   -6.4960   22.1590  -31.4000 C   0  0  0  0  0  0  0  0  0  0  0  0
   -6.5160   20.8080  -31.7630 C   0  0  0  0  0  0  0  0  0  0  0  0
   -2.6551   18.3185  -31.7573 H   0  0  0  0  0  0  0  0  0  0  0  0
   -3.2843   17.6588  -33.3051 H   0  0  0  0  0  0  0  0  0  0  0  0
   -1.8399   18.7267  -33.3051 H   0  0  0  0  0  0  0  0  0  0  0  0
   -4.0110   19.9660  -32.0170 H   0  0  0  0  0  0  0  0  0  0  0  0
   -2.4804   21.4249  -32.7045 H   0  0  0  0  0  0  0  0  0  0  0  0
   -2.0786   20.4317  -34.1463 H   0  0  0  0  0  0  0  0  0  0  0  0
   -3.5512   21.4603  -34.1463 H   0  0  0  0  0  0  0  0  0  0  0  0
   -5.6000   20.1606  -33.7190 H   0  0  0  0  0  0  0  0  0  0  0  0
   -4.4677   19.2970  -34.8663 H   0  0  0  0  0  0  0  0  0  0  0  0
   -6.0298   17.6486  -34.3859 H   0  0  0  0  0  0  0  0  0  0  0  0
   -4.6943   17.3293  -33.1864 H   0  0  0  0  0  0  0  0  0  0  0  0
   -8.0926   18.7616  -33.5882 H   0  0  0  0  0  0  0  0  0  0  0  0
   -8.5609   18.2438  -31.9198 H   0  0  0  0  0  0  0  0  0  0  0  0
   -9.9219   20.5026  -32.1636 H   0  0  0  0  0  0  0  0  0  0  0  0
   -9.8244   22.9103  -31.4383 H   0  0  0  0  0  0  0  0  0  0  0  0
   -8.0121   24.9904  -30.6937 H   0  0  0  0  0  0  0  0  0  0  0  0
   -3.1220   25.3880  -31.2190 H   0  0  0  0  0  0  0  0  0  0  0  0
   -5.5846   20.2255  -31.8187 H   0  0  0  0  0  0  0  0  0  0  0  0
  1  2  1  0
  2  3  1  0
  2  4  1  0
  4  5  1  0
  5  6  1  0
  6  7  2  0
  6  8  1  0
  8  9  1  0
  9 10  2  0
 10 11  1  0
 11 12  2  0
 12 13  1  0
 13 14  2  0
 14 15  1  0
 15 16  1  0
 15 17  2  0
 14 18  1  0
 18 19  1  0
 19 20  2  0
 19 21  1  0
 18 22  1  0
 22 23  2  0
 23  9  1  0
 22 12  1  0
  1 24  1  0
  1 25  1  0
  1 26  1  0
  2 27  1  0
  3 28  1  0
  3 29  1  0
  3 30  1  0
  4 31  1  0
  4 32  1  0
  5 33  1  0
  5 34  1  0
  8 35  1  0
  8 36  1  0
 10 37  1  0
 11 38  1  0
 13 39  1  0
 16 40  1  0
 23 41  1  0
M  CHG  3   2   1  16  -1  21  -1
M  END
>  <UniqueID>  (83) 
83

>  <SMILES>  (83) 
C[NH+](C)CCC(=O)Cc1ccc2cc(C([NH-])=O)n(C(=O)[O-])c2c1

>  <Energy>  (83) 
74.472808911068

>  <Genealogy>  (83) 
C[NH+](C)CCC(=O)Cc1ccc2cc(C([NH-])=O)n(C(=O)[O-])c2c1 (protonated)
C[NH+](C)CCC(=O)Cc1ccc2cc(C([NH-])=O)n(C(=O)[O-])c2c1 (3D coordinates assigned)
C[NH+](C)CCC(=O)Cc1ccc2cc(C([NH-])=O)n(C(=O)[O-])c2c1 (optimized conformer: 74.472808911068 kcal/mol)

>  <smiles>  (83) 
CN(C)CCC(=O)Cc1ccc2cc(C(N)=O)n(C(=O)O)c2c1

>  <score_type>  (83) 
oracle

>  <origin>  (83) 
adg

>  <m_score__min__energy>  (83) 
-9.5399999999999991

>  <m_primary>  (83) 
energy

$$$$
83:0
     RDKit          3D

 32 34  0  0  0  0  0  0  0  0999 V2000
   -1.4140   25.8960  -28.9550 N   0  0  0  0  0  0  0  0  0  0  0  0
   -0.8420   24.5950  -29.0730 C   0  0  0  0  0  0  0  0  0  0  0  0
    0.2540   24.3510  -28.5020 O   0  0  0  0  0  0  0  0  0  0  0  0
   -1.5420   23.5190  -29.8040 C   0  0  0  0  0  0  0  0  0  0  0  0
   -0.9080   22.3610  -30.2510 C   0  0  0  0  0  0  0  0  0  0  0  0
   -1.9060   21.5850  -30.7920 C   0  0  0  0  0  0  0  0  0  0  0  0
   -1.8380   20.3310  -31.3940 C   0  0  0  0  0  0  0  0  0  0  0  0
   -3.0280   19.7770  -31.8950 C   0  0  0  0  0  0  0  0  0  0  0  0
   -4.2490   20.4830  -31.7920 C   0  0  0  0  0  0  0  0  0  0  0  0
   -5.4490   19.9120  -32.3160 N   0  0  0  0  0  0  0  0  0  0  0  0
   -6.5320   20.3100  -33.2360 C   0  0  0  0  0  0  0  0  0  0  0  0
   -7.3060   19.0290  -33.1300 C   0  0  0  0  0  0  0  0  0  0  0  0
   -8.6520   19.1670  -32.4700 C   0  0  0  0  0  0  0  0  0  0  0  0
   -9.3850   20.1690  -32.6890 O   0  0  0  0  0  0  0  0  0  0  0  0
   -9.0950   18.1740  -31.6070 O   0  0  0  0  0  0  0  0  0  0  0  0
   -6.1950   18.6450  -32.1990 C   0  0  0  0  0  0  0  0  0  0  0  0
   -4.2820   21.7510  -31.1770 C   0  0  0  0  0  0  0  0  0  0  0  0
   -3.0870   22.2730  -30.6700 C   0  0  0  0  0  0  0  0  0  0  0  0
   -2.8790   23.4650  -30.0670 N   0  0  0  0  0  0  0  0  0  0  0  0
   -3.8650   24.4870  -29.8450 C   0  0  0  0  0  0  0  0  0  0  0  0
   -4.7250   24.3550  -28.9360 O   0  0  0  0  0  0  0  0  0  0  0  0
   -3.8630   25.6430  -30.6160 O   0  0  0  0  0  0  0  0  0  0  0  0
   -2.4490   26.0310  -28.9680 H   0  0  0  0  0  0  0  0  0  0  0  0
    0.1631   22.1192  -30.1850 H   0  0  0  0  0  0  0  0  0  0  0  0
   -0.8829   19.7914  -31.4747 H   0  0  0  0  0  0  0  0  0  0  0  0
   -3.0098   18.7857  -32.3714 H   0  0  0  0  0  0  0  0  0  0  0  0
   -7.0989   21.1803  -32.8739 H   0  0  0  0  0  0  0  0  0  0  0  0
   -6.2390   20.6374  -34.2444 H   0  0  0  0  0  0  0  0  0  0  0  0
   -7.6230   18.4265  -33.9940 H   0  0  0  0  0  0  0  0  0  0  0  0
   -6.5467   18.4522  -31.1747 H   0  0  0  0  0  0  0  0  0  0  0  0
   -5.6479   17.7183  -32.4267 H   0  0  0  0  0  0  0  0  0  0  0  0
   -5.2228   22.3154  -31.0978 H   0  0  0  0  0  0  0  0  0  0  0  0
  1  2  1  0
  2  3  2  0
  2  4  1  0
  4  5  2  0
  5  6  1  0
  6  7  2  0
  7  8  1  0
  8  9  2  0
  9 10  1  0
 10 11  1  0
 11 12  1  0
 12 13  1  0
 13 14  2  0
 13 15  1  0
 12 16  1  0
  9 17  1  0
 17 18  2  0
 18 19  1  0
 19 20  1  0
 20 21  2  0
 20 22  1  0
 19  4  1  0
 18  6  1  0
 16 10  1  0
  1 23  1  0
  5 24  1  0
  7 25  1  0
  8 26  1  0
 11 27  1  0
 11 28  1  0
 12 29  1  0
 16 30  1  0
 16 31  1  0
 17 32  1  0
M  CHG  3   1  -1  15  -1  22  -1
M  END
>  <UniqueID>  (84) 
84

>  <SMILES>  (84) 
[NH-]C(=O)c1cc2ccc(N3CC(C(=O)[O-])C3)cc2n1C(=O)[O-]

>  <Energy>  (84) 
118.5448003025014

>  <Genealogy>  (84) 
[NH-]C(=O)c1cc2ccc(N3CC(C(=O)[O-])C3)cc2n1C(=O)[O-] (protonated)
[NH-]C(=O)c1cc2ccc(N3CC(C(=O)[O-])C3)cc2n1C(=O)[O-] (3D coordinates assigned)
[NH-]C(=O)c1cc2ccc(N3CC(C(=O)[O-])C3)cc2n1C(=O)[O-] (nonaromatic ring conformer: 118.5448003025014 kcal/mol)

>  <smiles>  (84) 
NC(=O)c1cc2ccc(N3CC(C(=O)O)C3)cc2n1C(=O)O

>  <score_type>  (84) 
oracle

>  <origin>  (84) 
adg

>  <m_score__min__energy>  (84) 
-10.890000000000001

>  <m_primary>  (84) 
energy

$$$$
84:0
     RDKit          3D

 30 31  0  0  0  0  0  0  0  0999 V2000
   -5.7890   24.6130  -29.1880 N   0  0  0  0  0  0  0  0  0  0  0  0
   -6.2600   23.6570  -30.1400 C   0  0  0  0  0  0  0  0  0  0  0  0
   -7.5010   23.4960  -30.2840 O   0  0  0  0  0  0  0  0  0  0  0  0
   -5.3090   22.8920  -30.9770 C   0  0  0  0  0  0  0  0  0  0  0  0
   -5.6780   21.8320  -31.8010 C   0  0  0  0  0  0  0  0  0  0  0  0
   -4.5010   21.3420  -32.3170 C   0  0  0  0  0  0  0  0  0  0  0  0
   -4.2830   20.2960  -33.2080 C   0  0  0  0  0  0  0  0  0  0  0  0
   -2.9610   20.0290  -33.5980 C   0  0  0  0  0  0  0  0  0  0  0  0
   -1.8880   20.8040  -33.0920 C   0  0  0  0  0  0  0  0  0  0  0  0
   -0.4810   20.5340  -33.5570 C   0  0  0  0  0  0  0  0  0  0  0  0
   -0.2860   20.9320  -35.0230 C   0  0  0  0  0  0  0  0  0  0  0  0
    0.4650   22.1790  -35.1320 N   0  0  0  0  0  0  0  0  0  0  0  0
    1.5620   22.3010  -34.5510 O   0  0  0  0  0  0  0  0  0  0  0  0
   -0.1060   23.2740  -35.7380 O   0  0  0  0  0  0  0  0  0  0  0  0
   -2.1490   21.8610  -32.1930 C   0  0  0  0  0  0  0  0  0  0  0  0
   -3.4750   22.0960  -31.8080 C   0  0  0  0  0  0  0  0  0  0  0  0
   -3.9540   23.0540  -30.9840 N   0  0  0  0  0  0  0  0  0  0  0  0
   -3.1920   24.0790  -30.3220 C   0  0  0  0  0  0  0  0  0  0  0  0
   -3.5160   25.2900  -30.4400 O   0  0  0  0  0  0  0  0  0  0  0  0
   -2.1000   23.7420  -29.5320 O   0  0  0  0  0  0  0  0  0  0  0  0
   -4.7700   24.7360  -29.0030 H   0  0  0  0  0  0  0  0  0  0  0  0
   -6.4700   25.1760  -28.6310 H   0  0  0  0  0  0  0  0  0  0  0  0
   -6.6958   21.4642  -31.9977 H   0  0  0  0  0  0  0  0  0  0  0  0
   -5.1204   19.6968  -33.5949 H   0  0  0  0  0  0  0  0  0  0  0  0
   -2.7561   19.2101  -34.3033 H   0  0  0  0  0  0  0  0  0  0  0  0
    0.2179   21.1116  -32.9342 H   0  0  0  0  0  0  0  0  0  0  0  0
   -0.2891   19.4548  -33.4649 H   0  0  0  0  0  0  0  0  0  0  0  0
    0.2650   20.1339  -35.5420 H   0  0  0  0  0  0  0  0  0  0  0  0
   -1.2755   21.0782  -35.4806 H   0  0  0  0  0  0  0  0  0  0  0  0
   -1.3306   22.4849  -31.8043 H   0  0  0  0  0  0  0  0  0  0  0  0
  1  2  1  0
  2  3  2  0
  2  4  1  0
  4  5  2  0
  5  6  1  0
  6  7  2  0
  7  8  1  0
  8  9  2  0
  9 10  1  0
 10 11  1  0
 11 12  1  0
 12 13  2  0
 12 14  1  0
  9 15  1  0
 15 16  2  0
 16 17  1  0
 17 18  1  0
 18 19  2  0
 18 20  1  0
 17  4  1  0
 16  6  1  0
  1 21  1  0
  1 22  1  0
  5 23  1  0
  7 24  1  0
  8 25  1  0
 10 26  1  0
 10 27  1  0
 11 28  1  0
 11 29  1  0
 15 30  1  0
M  CHG  3  12   1  14  -1  20  -1
M  END
>  <UniqueID>  (85) 
85

>  <SMILES>  (85) 
NC(=O)c1cc2ccc(CC[N+](=O)[O-])cc2n1C(=O)[O-]

>  <Energy>  (85) 
65.74475357853204

>  <Genealogy>  (85) 
NC(=O)c1cc2ccc(CC[N+](=O)[O-])cc2n1C(=O)[O-] (protonated)
NC(=O)c1cc2ccc(CC[N+](=O)[O-])cc2n1C(=O)[O-] (3D coordinates assigned)
NC(=O)c1cc2ccc(CC[N+](=O)[O-])cc2n1C(=O)[O-] (optimized conformer: 65.74475357853204 kcal/mol)

>  <smiles>  (85) 
NC(=O)c1cc2ccc(CC[N+](=O)[O-])cc2n1C(=O)O

>  <score_type>  (85) 
oracle

>  <origin>  (85) 
adg

>  <m_score__min__energy>  (85) 
-8.5099999999999998

>  <m_primary>  (85) 
energy

$$$$
85:0
     RDKit          3D

 34 36  0  0  0  0  0  0  0  0999 V2000
   -1.8890   25.5790  -28.9590 N   0  0  0  0  0  0  0  0  0  0  0  0
   -1.2120   24.3380  -29.1430 C   0  0  0  0  0  0  0  0  0  0  0  0
   -0.1400   24.1220  -28.5190 O   0  0  0  0  0  0  0  0  0  0  0  0
   -1.7500   23.3410  -30.0910 C   0  0  0  0  0  0  0  0  0  0  0  0
   -1.0230   22.2400  -30.5380 C   0  0  0  0  0  0  0  0  0  0  0  0
   -1.8960   21.5210  -31.3220 C   0  0  0  0  0  0  0  0  0  0  0  0
   -1.6960   20.3400  -32.0310 C   0  0  0  0  0  0  0  0  0  0  0  0
   -2.7680   19.8360  -32.7860 C   0  0  0  0  0  0  0  0  0  0  0  0
   -4.0100   20.5160  -32.8190 C   0  0  0  0  0  0  0  0  0  0  0  0
   -5.1380   19.9960  -33.6700 C   0  0  0  0  0  0  0  0  0  0  0  0
   -6.3680   19.8760  -32.8690 N   0  0  0  0  0  0  0  0  0  0  0  0
   -7.1460   20.9870  -32.6790 C   0  0  0  0  0  0  0  0  0  0  0  0
   -8.3350   20.9100  -31.9520 C   0  0  0  0  0  0  0  0  0  0  0  0
   -8.7340   19.6870  -31.4210 C   0  0  0  0  0  0  0  0  0  0  0  0
   -7.9460   18.5570  -31.6220 C   0  0  0  0  0  0  0  0  0  0  0  0
   -6.7590   18.6630  -32.3550 C   0  0  0  0  0  0  0  0  0  0  0  0
   -6.0580   17.6290  -32.5350 O   0  0  0  0  0  0  0  0  0  0  0  0
   -4.1740   21.7150  -32.0910 C   0  0  0  0  0  0  0  0  0  0  0  0
   -3.0950   22.1860  -31.3340 C   0  0  0  0  0  0  0  0  0  0  0  0
   -3.0200   23.3090  -30.5860 N   0  0  0  0  0  0  0  0  0  0  0  0
   -4.0520   24.2970  -30.4220 C   0  0  0  0  0  0  0  0  0  0  0  0
   -5.1480   23.9880  -29.8850 O   0  0  0  0  0  0  0  0  0  0  0  0
   -3.8620   25.5940  -30.8810 O   0  0  0  0  0  0  0  0  0  0  0  0
   -2.8800   25.7020  -29.2640 H   0  0  0  0  0  0  0  0  0  0  0  0
    0.0258   21.9970  -30.3123 H   0  0  0  0  0  0  0  0  0  0  0  0
   -0.7285   19.8175  -32.0010 H   0  0  0  0  0  0  0  0  0  0  0  0
   -2.6417   18.9044  -33.3570 H   0  0  0  0  0  0  0  0  0  0  0  0
   -5.3142   20.6915  -34.5038 H   0  0  0  0  0  0  0  0  0  0  0  0
   -4.8654   19.0037  -34.0587 H   0  0  0  0  0  0  0  0  0  0  0  0
   -6.8302   21.9511  -33.1042 H   0  0  0  0  0  0  0  0  0  0  0  0
   -8.9514   21.8083  -31.8000 H   0  0  0  0  0  0  0  0  0  0  0  0
   -9.6682   19.6135  -30.8448 H   0  0  0  0  0  0  0  0  0  0  0  0
   -8.2549   17.5863  -31.2069 H   0  0  0  0  0  0  0  0  0  0  0  0
   -5.1262   22.2651  -32.1182 H   0  0  0  0  0  0  0  0  0  0  0  0
  1  2  1  0
  2  3  2  0
  2  4  1  0
  4  5  2  0
  5  6  1  0
  6  7  2  0
  7  8  1  0
  8  9  2  0
  9 10  1  0
 10 11  1  0
 11 12  1  0
 12 13  2  0
 13 14  1  0
 14 15  2  0
 15 16  1  0
 16 17  2  0
  9 18  1  0
 18 19  2  0
 19 20  1  0
 20 21  1  0
 21 22  2  0
 21 23  1  0
 20  4  1  0
 19  6  1  0
 16 11  1  0
  1 24  1  0
  5 25  1  0
  7 26  1  0
  8 27  1  0
 10 28  1  0
 10 29  1  0
 12 30  1  0
 13 31  1  0
 14 32  1  0
 15 33  1  0
 18 34  1  0
M  CHG  2   1  -1  23  -1
M  END
>  <UniqueID>  (86) 
86

>  <SMILES>  (86) 
[NH-]C(=O)c1cc2ccc(Cn3ccccc3=O)cc2n1C(=O)[O-]

>  <Energy>  (86) 
77.64781608860449

>  <Genealogy>  (86) 
[NH-]C(=O)c1cc2ccc(Cn3ccccc3=O)cc2n1C(=O)[O-] (protonated)
[NH-]C(=O)c1cc2ccc(Cn3ccccc3=O)cc2n1C(=O)[O-] (3D coordinates assigned)
[NH-]C(=O)c1cc2ccc(Cn3ccccc3=O)cc2n1C(=O)[O-] (optimized conformer: 77.64781608860449 kcal/mol)

>  <smiles>  (86) 
NC(=O)c1cc2ccc(Cn3ccccc3=O)cc2n1C(=O)O

>  <score_type>  (86) 
oracle

>  <origin>  (86) 
adg

>  <m_score__min__energy>  (86) 
-11.859999999999999

>  <m_primary>  (86) 
energy

$$$$
86:0
     RDKit          3D

 43 46  0  0  0  0  0  0  0  0999 V2000
    0.5300   21.8120  -28.0920 C   0  0  0  0  0  0  0  0  0  0  0  0
   -0.4430   22.9090  -28.3790 C   0  0  0  0  0  0  0  0  0  0  0  0
   -0.1220   24.1730  -28.5180 O   0  0  0  0  0  0  0  0  0  0  0  0
   -1.2460   24.8040  -28.7640 C   0  0  0  0  0  0  0  0  0  0  0  0
   -1.3230   26.0460  -28.9530 O   0  0  0  0  0  0  0  0  0  0  0  0
   -2.2830   23.9990  -28.7880 O   0  0  0  0  0  0  0  0  0  0  0  0
   -1.8130   22.7980  -28.5470 C   0  0  0  0  0  0  0  0  0  0  0  0
   -2.6530   21.5600  -28.4730 C   0  0  0  0  0  0  0  0  0  0  0  0
   -3.1870   21.2440  -29.7560 O   0  0  0  0  0  0  0  0  0  0  0  0
   -3.5890   22.2140  -30.6830 C   0  0  0  0  0  0  0  0  0  0  0  0
   -2.7290   22.9060  -31.2940 O   0  0  0  0  0  0  0  0  0  0  0  0
   -4.9890   22.4290  -30.9280 N   0  0  0  0  0  0  0  0  0  0  0  0
   -5.6930   23.5800  -30.7370 C   0  0  0  0  0  0  0  0  0  0  0  0
   -5.1920   24.7940  -30.0620 C   0  0  0  0  0  0  0  0  0  0  0  0
   -3.8250   25.1880  -30.1730 N   0  0  0  0  0  0  0  0  0  0  0  0
   -5.9710   25.4600  -29.3280 O   0  0  0  0  0  0  0  0  0  0  0  0
   -6.9930   23.4500  -31.2150 C   0  0  0  0  0  0  0  0  0  0  0  0
   -7.0740   22.1650  -31.7000 C   0  0  0  0  0  0  0  0  0  0  0  0
   -8.1380   21.5050  -32.3090 C   0  0  0  0  0  0  0  0  0  0  0  0
   -7.9300   20.1880  -32.7490 C   0  0  0  0  0  0  0  0  0  0  0  0
   -6.6740   19.5580  -32.5700 C   0  0  0  0  0  0  0  0  0  0  0  0
   -6.4510   18.1640  -33.0880 C   0  0  0  0  0  0  0  0  0  0  0  0
   -5.8100   17.9960  -34.4000 C   0  0  0  0  0  0  0  0  0  0  0  0
   -5.3050   17.8660  -35.4320 N   0  0  0  0  0  0  0  0  0  0  0  0
   -6.1330   17.0890  -32.0570 C   0  0  0  0  0  0  0  0  0  0  0  0
   -7.5020   17.1220  -32.7270 C   0  0  0  0  0  0  0  0  0  0  0  0
   -5.6110   20.2650  -31.9670 C   0  0  0  0  0  0  0  0  0  0  0  0
   -5.8520   21.5690  -31.5170 C   0  0  0  0  0  0  0  0  0  0  0  0
    0.6366   21.6918  -27.0038 H   0  0  0  0  0  0  0  0  0  0  0  0
    0.1629   20.8723  -28.5305 H   0  0  0  0  0  0  0  0  0  0  0  0
    1.5068   22.0643  -28.5305 H   0  0  0  0  0  0  0  0  0  0  0  0
   -2.0330   20.7219  -28.1221 H   0  0  0  0  0  0  0  0  0  0  0  0
   -3.4842   21.7343  -27.7738 H   0  0  0  0  0  0  0  0  0  0  0  0
   -3.1230   24.5680  -30.6340 H   0  0  0  0  0  0  0  0  0  0  0  0
   -3.4940   26.0700  -29.7220 H   0  0  0  0  0  0  0  0  0  0  0  0
   -7.7865   24.2117  -31.2069 H   0  0  0  0  0  0  0  0  0  0  0  0
   -9.1114   22.0000  -32.4413 H   0  0  0  0  0  0  0  0  0  0  0  0
   -8.7498   19.6405  -33.2371 H   0  0  0  0  0  0  0  0  0  0  0  0
   -5.4207   16.2869  -32.3004 H   0  0  0  0  0  0  0  0  0  0  0  0
   -5.7759   17.0903  -31.0166 H   0  0  0  0  0  0  0  0  0  0  0  0
   -7.7776   16.3438  -33.4540 H   0  0  0  0  0  0  0  0  0  0  0  0
   -8.5420   17.1570  -32.3705 H   0  0  0  0  0  0  0  0  0  0  0  0
   -4.6190   19.8034  -31.8536 H   0  0  0  0  0  0  0  0  0  0  0  0
  1  2  1  0
  2  3  1  0
  3  4  1  0
  4  5  2  0
  4  6  1  0
  6  7  1  0
  7  8  1  0
  8  9  1  0
  9 10  1  0
 10 11  2  0
 10 12  1  0
 12 13  1  0
 13 14  1  0
 14 15  1  0
 14 16  2  0
 13 17  2  0
 17 18  1  0
 18 19  2  0
 19 20  1  0
 20 21  2  0
 21 22  1  0
 22 23  1  0
 23 24  3  0
 22 25  1  0
 25 26  1  0
 21 27  1  0
 27 28  2  0
  7  2  2  0
 28 12  1  0
 28 18  1  0
 26 22  1  0
  1 29  1  0
  1 30  1  0
  1 31  1  0
  8 32  1  0
  8 33  1  0
 15 34  1  0
 15 35  1  0
 17 36  1  0
 19 37  1  0
 20 38  1  0
 25 39  1  0
 25 40  1  0
 26 41  1  0
 26 42  1  0
 27 43  1  0
M  END
>  <UniqueID>  (87) 
87

>  <SMILES>  (87) 
Cc1oc(=O)oc1COC(=O)n1c(C(N)=O)cc2ccc(C3(C#N)CC3)cc21

>  <Energy>  (87) 
380.11399632422643

>  <Genealogy>  (87) 
Cc1oc(=O)oc1COC(=O)n1c(C(N)=O)cc2ccc(C3(C#N)CC3)cc21 (3D coordinates assigned)
Cc1oc(=O)oc1COC(=O)n1c(C(N)=O)cc2ccc(C3(C#N)CC3)cc21 (nonaromatic ring conformer: 380.11399632422643 kcal/mol)

>  <smiles>  (87) 
Cc1oc(=O)oc1COC(=O)n1c(C(N)=O)cc2ccc(C3(C#N)CC3)cc21

>  <score_type>  (87) 
oracle

>  <origin>  (87) 
adg

>  <m_score__min__energy>  (87) 
-10.109999999999999

>  <m_primary>  (87) 
energy

$$$$
87:0
     RDKit          3D

 29 30  0  0  0  0  0  0  0  0999 V2000
   -1.6640   25.6830  -28.9760 N   0  0  0  0  0  0  0  0  0  0  0  0
   -1.0870   24.4010  -29.2080 C   0  0  0  0  0  0  0  0  0  0  0  0
    0.0730   24.1610  -28.7800 O   0  0  0  0  0  0  0  0  0  0  0  0
   -1.8030   23.3770  -29.9950 C   0  0  0  0  0  0  0  0  0  0  0  0
   -1.2250   22.1720  -30.3880 C   0  0  0  0  0  0  0  0  0  0  0  0
   -2.1720   21.5500  -31.1710 C   0  0  0  0  0  0  0  0  0  0  0  0
   -2.1270   20.3220  -31.8220 C   0  0  0  0  0  0  0  0  0  0  0  0
   -3.2620   19.9180  -32.5450 C   0  0  0  0  0  0  0  0  0  0  0  0
   -4.4180   20.7360  -32.5880 C   0  0  0  0  0  0  0  0  0  0  0  0
   -5.6200   20.3070  -33.3830 C   0  0  0  0  0  0  0  0  0  0  0  0
   -6.8490   20.3320  -32.5160 C   0  0  0  0  0  0  0  0  0  0  0  0
   -7.3950   21.3990  -32.2790 O   0  0  0  0  0  0  0  0  0  0  0  0
   -7.4070   19.0730  -31.9200 C   0  0  0  0  0  0  0  0  0  0  0  0
   -6.7660   17.9780  -32.4700 F   0  0  0  0  0  0  0  0  0  0  0  0
   -8.7600   18.9930  -32.1900 F   0  0  0  0  0  0  0  0  0  0  0  0
   -4.4230   21.9820  -31.9220 C   0  0  0  0  0  0  0  0  0  0  0  0
   -3.2700   22.3680  -31.2260 C   0  0  0  0  0  0  0  0  0  0  0  0
   -3.0620   23.4930  -30.5060 N   0  0  0  0  0  0  0  0  0  0  0  0
   -4.0170   24.5380  -30.2590 C   0  0  0  0  0  0  0  0  0  0  0  0
   -3.8750   25.6690  -30.7940 O   0  0  0  0  0  0  0  0  0  0  0  0
   -5.1210   24.3010  -29.4490 O   0  0  0  0  0  0  0  0  0  0  0  0
   -2.6990   25.8140  -28.9770 H   0  0  0  0  0  0  0  0  0  0  0  0
   -0.2242   21.7968  -30.1280 H   0  0  0  0  0  0  0  0  0  0  0  0
   -1.2305   19.6865  -31.7725 H   0  0  0  0  0  0  0  0  0  0  0  0
   -3.2530   18.9582  -33.0823 H   0  0  0  0  0  0  0  0  0  0  0  0
   -5.7591   20.9934  -34.2312 H   0  0  0  0  0  0  0  0  0  0  0  0
   -5.4607   19.2832  -33.7523 H   0  0  0  0  0  0  0  0  0  0  0  0
   -7.2491   19.0847  -30.8315 H   0  0  0  0  0  0  0  0  0  0  0  0
   -5.3096   22.6325  -31.9492 H   0  0  0  0  0  0  0  0  0  0  0  0
  1  2  1  0
  2  3  2  0
  2  4  1  0
  4  5  2  0
  5  6  1  0
  6  7  2  0
  7  8  1  0
  8  9  2  0
  9 10  1  0
 10 11  1  0
 11 12  2  0
 11 13  1  0
 13 14  1  0
 13 15  1  0
  9 16  1  0
 16 17  2  0
 17 18  1  0
 18 19  1  0
 19 20  2  0
 19 21  1  0
 18  4  1  0
 17  6  1  0
  1 22  1  0
  5 23  1  0
  7 24  1  0
  8 25  1  0
 10 26  1  0
 10 27  1  0
 13 28  1  0
 16 29  1  0
M  CHG  2   1  -1  21  -1
M  END
>  <UniqueID>  (88) 
88

>  <SMILES>  (88) 
[NH-]C(=O)c1cc2ccc(CC(=O)C(F)F)cc2n1C(=O)[O-]

>  <Energy>  (88) 
65.15147167738134

>  <Genealogy>  (88) 
[NH-]C(=O)c1cc2ccc(CC(=O)C(F)F)cc2n1C(=O)[O-] (protonated)
[NH-]C(=O)c1cc2ccc(CC(=O)C(F)F)cc2n1C(=O)[O-] (3D coordinates assigned)
[NH-]C(=O)c1cc2ccc(CC(=O)C(F)F)cc2n1C(=O)[O-] (optimized conformer: 65.15147167738134 kcal/mol)

>  <smiles>  (88) 
NC(=O)c1cc2ccc(CC(=O)C(F)F)cc2n1C(=O)O

>  <score_type>  (88) 
oracle

>  <origin>  (88) 
adg

>  <m_score__min__energy>  (88) 
-10.220000000000001

>  <m_primary>  (88) 
energy

$$$$
88:0
     RDKit          3D

 24 25  0  0  0  0  0  0  0  0999 V2000
   -1.6080   25.6680  -28.9650 N   0  0  0  0  0  0  0  0  0  0  0  0
   -0.9950   24.3990  -29.1760 C   0  0  0  0  0  0  0  0  0  0  0  0
    0.1530   24.1820  -28.7040 O   0  0  0  0  0  0  0  0  0  0  0  0
   -1.6600   23.3610  -29.9880 C   0  0  0  0  0  0  0  0  0  0  0  0
   -1.0250   22.1920  -30.4050 C   0  0  0  0  0  0  0  0  0  0  0  0
   -1.9400   21.5450  -31.2040 C   0  0  0  0  0  0  0  0  0  0  0  0
   -1.8410   20.3270  -31.8710 C   0  0  0  0  0  0  0  0  0  0  0  0
   -2.9590   19.8820  -32.5980 C   0  0  0  0  0  0  0  0  0  0  0  0
   -4.1430   20.6580  -32.6470 C   0  0  0  0  0  0  0  0  0  0  0  0
   -5.3450   20.1490  -33.3880 C   0  0  0  0  0  0  0  0  0  0  0  0
   -6.3340   19.1410  -32.3040 Cl  0  0  0  0  0  0  0  0  0  0  0  0
   -4.2100   21.8830  -31.9480 C   0  0  0  0  0  0  0  0  0  0  0  0
   -3.0770   22.3110  -31.2460 C   0  0  0  0  0  0  0  0  0  0  0  0
   -2.9230   23.4280  -30.5010 N   0  0  0  0  0  0  0  0  0  0  0  0
   -3.9280   24.4190  -30.2300 C   0  0  0  0  0  0  0  0  0  0  0  0
   -4.8610   24.1740  -29.4220 O   0  0  0  0  0  0  0  0  0  0  0  0
   -3.8620   25.6670  -30.8370 O   0  0  0  0  0  0  0  0  0  0  0  0
   -2.6410   25.7870  -29.0580 H   0  0  0  0  0  0  0  0  0  0  0  0
   -0.0086   21.8578  -30.1497 H   0  0  0  0  0  0  0  0  0  0  0  0
   -0.9170   19.7315  -31.8305 H   0  0  0  0  0  0  0  0  0  0  0  0
   -2.9139   18.9223  -33.1337 H   0  0  0  0  0  0  0  0  0  0  0  0
   -5.9437   21.0008  -33.7430 H   0  0  0  0  0  0  0  0  0  0  0  0
   -5.0156   19.5461  -34.2471 H   0  0  0  0  0  0  0  0  0  0  0  0
   -5.1299   22.4862  -31.9549 H   0  0  0  0  0  0  0  0  0  0  0  0
  1  2  1  0
  2  3  2  0
  2  4  1  0
  4  5  2  0
  5  6  1  0
  6  7  2  0
  7  8  1  0
  8  9  2  0
  9 10  1  0
 10 11  1  0
  9 12  1  0
 12 13  2  0
 13 14  1  0
 14 15  1  0
 15 16  2  0
 15 17  1  0
 14  4  1  0
 13  6  1  0
  1 18  1  0
  5 19  1  0
  7 20  1  0
  8 21  1  0
 10 22  1  0
 10 23  1  0
 12 24  1  0
M  CHG  2   1  -1  17  -1
M  END
>  <UniqueID>  (89) 
89

>  <SMILES>  (89) 
[NH-]C(=O)c1cc2ccc(CCl)cc2n1C(=O)[O-]

>  <Energy>  (89) 
63.47556779758943

>  <Genealogy>  (89) 
[NH-]C(=O)c1cc2ccc(CCl)cc2n1C(=O)[O-] (protonated)
[NH-]C(=O)c1cc2ccc(CCl)cc2n1C(=O)[O-] (3D coordinates assigned)
[NH-]C(=O)c1cc2ccc(CCl)cc2n1C(=O)[O-] (optimized conformer: 63.47556779758943 kcal/mol)

>  <smiles>  (89) 
NC(=O)c1cc2ccc(CCl)cc2n1C(=O)O

>  <score_type>  (89) 
oracle

>  <origin>  (89) 
adg

>  <m_score__min__energy>  (89) 
-10.039999999999999

>  <m_primary>  (89) 
energy

$$$$
89:0
     RDKit          3D

 47 48  0  0  0  0  0  0  0  0999 V2000
   -7.0420   23.3750  -29.8770 C   0  0  0  0  0  0  0  0  0  0  0  0
   -6.8180   23.9830  -31.0440 C   0  0  0  0  0  0  0  0  0  0  0  0
   -6.0780   25.2890  -31.1170 C   0  0  0  0  0  0  0  0  0  0  0  0
   -4.6680   25.0720  -31.1080 O   0  0  0  0  0  0  0  0  0  0  0  0
   -4.0010   24.3980  -30.0780 C   0  0  0  0  0  0  0  0  0  0  0  0
   -4.2900   24.6330  -28.8730 O   0  0  0  0  0  0  0  0  0  0  0  0
   -2.9990   23.4210  -30.3990 N   0  0  0  0  0  0  0  0  0  0  0  0
   -1.6940   23.4060  -30.0040 C   0  0  0  0  0  0  0  0  0  0  0  0
   -1.0710   24.3340  -29.0370 C   0  0  0  0  0  0  0  0  0  0  0  0
   -1.5400   25.6760  -28.9410 N   0  0  0  0  0  0  0  0  0  0  0  0
   -0.1020   23.9660  -28.3230 O   0  0  0  0  0  0  0  0  0  0  0  0
   -1.0290   22.3160  -30.5600 C   0  0  0  0  0  0  0  0  0  0  0  0
   -1.9750   21.6510  -31.3040 C   0  0  0  0  0  0  0  0  0  0  0  0
   -1.8710   20.4740  -32.0380 C   0  0  0  0  0  0  0  0  0  0  0  0
   -3.0230   19.9950  -32.6830 C   0  0  0  0  0  0  0  0  0  0  0  0
   -4.2460   20.7080  -32.5990 C   0  0  0  0  0  0  0  0  0  0  0  0
   -5.4890   20.1540  -33.2370 C   0  0  0  0  0  0  0  0  0  0  0  0
   -6.7860   19.9370  -31.9800 P   0  0  0  0  0  0  0  0  0  0  0  0
   -7.6000   21.1240  -31.5190 O   0  0  0  0  0  0  0  0  0  0  0  0
   -7.0570   18.4010  -31.3010 O   0  0  0  0  0  0  0  0  0  0  0  0
   -7.0040   17.4570  -32.3440 C   0  0  0  0  0  0  0  0  0  0  0  0
   -5.6900   16.6760  -32.2550 C   0  0  0  0  0  0  0  0  0  0  0  0
   -4.8760   16.7960  -33.5510 C   0  0  0  0  0  0  0  0  0  0  0  0
   -5.7370   17.2910  -34.7070 C   0  0  0  0  0  0  0  0  0  0  0  0
   -4.3120   21.9040  -31.8510 C   0  0  0  0  0  0  0  0  0  0  0  0
   -3.1550   22.3400  -31.1940 C   0  0  0  0  0  0  0  0  0  0  0  0
   -7.5863   22.4195  -29.8502 H   0  0  0  0  0  0  0  0  0  0  0  0
   -6.6823   23.8295  -28.9421 H   0  0  0  0  0  0  0  0  0  0  0  0
   -7.1828   23.5183  -31.9719 H   0  0  0  0  0  0  0  0  0  0  0  0
   -6.3570   25.8105  -32.0445 H   0  0  0  0  0  0  0  0  0  0  0  0
   -6.3474   25.8970  -30.2408 H   0  0  0  0  0  0  0  0  0  0  0  0
   -2.5620   25.8910  -28.9670 H   0  0  0  0  0  0  0  0  0  0  0  0
    0.0292   22.0445  -30.4312 H   0  0  0  0  0  0  0  0  0  0  0  0
   -0.9151   19.9346  -32.1111 H   0  0  0  0  0  0  0  0  0  0  0  0
   -2.9762   19.0586  -33.2583 H   0  0  0  0  0  0  0  0  0  0  0  0
   -5.8437   20.8510  -34.0105 H   0  0  0  0  0  0  0  0  0  0  0  0
   -5.2590   19.1793  -33.6921 H   0  0  0  0  0  0  0  0  0  0  0  0
   -7.8514   16.7616  -32.2533 H   0  0  0  0  0  0  0  0  0  0  0  0
   -7.0591   17.9754  -33.3126 H   0  0  0  0  0  0  0  0  0  0  0  0
   -5.0938   17.0732  -31.4203 H   0  0  0  0  0  0  0  0  0  0  0  0
   -5.9294   15.6144  -32.0945 H   0  0  0  0  0  0  0  0  0  0  0  0
   -4.0508   17.5054  -33.3905 H   0  0  0  0  0  0  0  0  0  0  0  0
   -4.4902   15.7990  -33.8100 H   0  0  0  0  0  0  0  0  0  0  0  0
   -6.6261   17.8022  -34.3093 H   0  0  0  0  0  0  0  0  0  0  0  0
   -5.1555   17.9927  -35.3230 H   0  0  0  0  0  0  0  0  0  0  0  0
   -6.0508   16.4354  -35.3230 H   0  0  0  0  0  0  0  0  0  0  0  0
   -5.2480   22.4781  -31.7862 H   0  0  0  0  0  0  0  0  0  0  0  0
  1  2  2  0
  2  3  1  0
  3  4  1  0
  4  5  1  0
  5  6  2  0
  5  7  1  0
  7  8  1  0
  8  9  1  0
  9 10  1  0
  9 11  2  0
  8 12  2  0
 12 13  1  0
 13 14  2  0
 14 15  1  0
 15 16  2  0
 16 17  1  0
 17 18  1  0
 18 19  2  0
 18 20  1  0
 20 21  1  0
 21 22  1  0
 22 23  1  0
 23 24  1  0
 16 25  1  0
 25 26  2  0
 26  7  1  0
 26 13  1  0
  1 27  1  0
  1 28  1  0
  2 29  1  0
  3 30  1  0
  3 31  1  0
 10 32  1  0
 12 33  1  0
 14 34  1  0
 15 35  1  0
 17 36  1  0
 17 37  1  0
 21 38  1  0
 21 39  1  0
 22 40  1  0
 22 41  1  0
 23 42  1  0
 23 43  1  0
 24 44  1  0
 24 45  1  0
 24 46  1  0
 25 47  1  0
M  CHG  2  10  -1  18   1
M  END
>  <UniqueID>  (90) 
90

>  <SMILES>  (90) 
C=CCOC(=O)n1c(C([NH-])=O)cc2ccc(C[P+](=O)OCCCC)cc21

>  <Energy>  (90) 
87.24900048645647

>  <Genealogy>  (90) 
C=CCOC(=O)n1c(C([NH-])=O)cc2ccc(C[P+](=O)OCCCC)cc21 (protonated)
C=CCOC(=O)n1c(C([NH-])=O)cc2ccc(C[P+](=O)OCCCC)cc21 (chirality)
C=CCOC(=O)n1c(C([NH-])=O)cc2ccc(C[P+](=O)OCCCC)cc21 (3D coordinates assigned)
C=CCOC(=O)n1c(C([NH-])=O)cc2ccc(C[P+](=O)OCCCC)cc21 (optimized conformer: 87.24900048645647 kcal/mol)

>  <smiles>  (90) 
C=CCOC(=O)n1c(C(N)=O)cc2ccc(C[P+](=O)OCCCC)cc21

>  <score_type>  (90) 
oracle

>  <origin>  (90) 
adg

>  <m_score__min__energy>  (90) 
-9.6799999999999997

>  <m_primary>  (90) 
energy

$$$$
90:0
     RDKit          3D

 29 30  0  0  0  0  0  0  0  0999 V2000
   -5.1720   18.8850  -34.0680 C   0  0  0  0  0  0  0  0  0  0  0  0
   -5.4630   20.1730  -33.2880 C   0  0  1  0  0  0  0  0  0  0  0  0
   -6.6250   20.0070  -32.3450 C   0  0  0  0  0  0  0  0  0  0  0  0
   -7.5290   20.8810  -32.2730 O   0  0  0  0  0  0  0  0  0  0  0  0
   -6.7320   18.8500  -31.5830 O   0  0  0  0  0  0  0  0  0  0  0  0
   -4.2360   20.6560  -32.5430 C   0  0  0  0  0  0  0  0  0  0  0  0
   -3.0430   19.8840  -32.5280 C   0  0  0  0  0  0  0  0  0  0  0  0
   -1.9080   20.3270  -31.8300 C   0  0  0  0  0  0  0  0  0  0  0  0
   -1.9860   21.5450  -31.1630 C   0  0  0  0  0  0  0  0  0  0  0  0
   -1.0480   22.1950  -30.3950 C   0  0  0  0  0  0  0  0  0  0  0  0
   -1.6670   23.3670  -29.9670 C   0  0  0  0  0  0  0  0  0  0  0  0
   -0.9770   24.4100  -29.1800 C   0  0  0  0  0  0  0  0  0  0  0  0
   -1.6010   25.6760  -28.9800 N   0  0  0  0  0  0  0  0  0  0  0  0
    0.1420   24.1820  -28.6490 O   0  0  0  0  0  0  0  0  0  0  0  0
   -2.9410   23.4370  -30.4460 N   0  0  0  0  0  0  0  0  0  0  0  0
   -3.9280   24.4460  -30.1740 C   0  0  0  0  0  0  0  0  0  0  0  0
   -4.8320   24.2370  -29.3230 O   0  0  0  0  0  0  0  0  0  0  0  0
   -3.8790   25.6710  -30.8290 O   0  0  0  0  0  0  0  0  0  0  0  0
   -3.1200   22.3140  -31.1790 C   0  0  0  0  0  0  0  0  0  0  0  0
   -4.2720   21.8890  -31.8520 C   0  0  0  0  0  0  0  0  0  0  0  0
   -4.9862   18.0626  -33.3615 H   0  0  0  0  0  0  0  0  0  0  0  0
   -6.0366   18.6364  -34.7010 H   0  0  0  0  0  0  0  0  0  0  0  0
   -4.2845   19.0322  -34.7010 H   0  0  0  0  0  0  0  0  0  0  0  0
   -5.7398   20.9388  -34.0276 H   0  0  0  0  0  0  0  0  0  0  0  0
   -3.0083   18.9274  -33.0700 H   0  0  0  0  0  0  0  0  0  0  0  0
   -0.9851   19.7288  -31.8113 H   0  0  0  0  0  0  0  0  0  0  0  0
   -0.0253   21.8600  -30.1671 H   0  0  0  0  0  0  0  0  0  0  0  0
   -2.6390   25.7790  -29.0460 H   0  0  0  0  0  0  0  0  0  0  0  0
   -5.1857   22.5015  -31.8433 H   0  0  0  0  0  0  0  0  0  0  0  0
  1  2  1  0
  2  3  1  0
  3  4  2  0
  3  5  1  0
  2  6  1  0
  6  7  2  0
  7  8  1  0
  8  9  2  0
  9 10  1  0
 10 11  2  0
 11 12  1  0
 12 13  1  0
 12 14  2  0
 11 15  1  0
 15 16  1  0
 16 17  2  0
 16 18  1  0
 15 19  1  0
 19 20  2  0
 20  6  1  0
 19  9  1  0
  1 21  1  0
  1 22  1  0
  1 23  1  0
  2 24  1  6
  7 25  1  0
  8 26  1  0
 10 27  1  0
 13 28  1  0
 20 29  1  0
M  CHG  3   5  -1  13  -1  18  -1
M  END
>  <UniqueID>  (91) 
91

>  <SMILES>  (91) 
C[C@@H](C(=O)[O-])c1ccc2cc(C([NH-])=O)n(C(=O)[O-])c2c1

>  <Energy>  (91) 
67.62169123004175

>  <Genealogy>  (91) 
CC(C(=O)[O-])c1ccc2cc(C([NH-])=O)n(C(=O)[O-])c2c1 (protonated)
C[C@@H](C(=O)[O-])c1ccc2cc(C([NH-])=O)n(C(=O)[O-])c2c1 (chirality)
C[C@@H](C(=O)[O-])c1ccc2cc(C([NH-])=O)n(C(=O)[O-])c2c1 (3D coordinates assigned)
C[C@@H](C(=O)[O-])c1ccc2cc(C([NH-])=O)n(C(=O)[O-])c2c1 (optimized conformer: 67.62169123004175 kcal/mol)

>  <smiles>  (91) 
CC(C(=O)O)c1ccc2cc(C(N)=O)n(C(=O)O)c2c1

>  <score_type>  (91) 
oracle

>  <origin>  (91) 
adg

>  <m_score__min__energy>  (91) 
-10.630000000000001

>  <m_primary>  (91) 
energy

$$$$
91:0
     RDKit          3D

 55 57  0  0  0  0  0  0  0  0999 V2000
   -3.3230   20.1510  -33.4900 C   0  0  0  0  0  0  0  0  0  0  0  0
   -3.9150   18.7950  -33.8400 C   0  0  0  0  0  0  0  0  0  0  0  0
   -5.2980   18.9430  -34.1350 O   0  0  0  0  0  0  0  0  0  0  0  0
   -6.2700   18.0460  -33.6750 C   0  0  0  0  0  0  0  0  0  0  0  0
   -6.5490   17.0150  -34.3480 O   0  0  0  0  0  0  0  0  0  0  0  0
   -6.9280   18.2960  -32.3300 C   0  0  0  0  0  0  0  0  0  0  0  0
   -6.0860   17.5440  -31.2760 C   0  0  0  0  0  0  0  0  0  0  0  0
   -8.3620   17.7240  -32.3040 C   0  0  0  0  0  0  0  0  0  0  0  0
   -7.0100   19.8110  -32.0760 C   0  0  0  0  0  0  0  0  0  0  0  0
   -8.2650   20.4710  -32.2270 C   0  0  0  0  0  0  0  0  0  0  0  0
   -8.3980   21.8480  -31.9910 C   0  0  0  0  0  0  0  0  0  0  0  0
   -7.2730   22.5510  -31.5830 C   0  0  0  0  0  0  0  0  0  0  0  0
   -7.1210   23.8890  -31.3020 C   0  0  0  0  0  0  0  0  0  0  0  0
   -5.7850   24.0420  -30.9410 C   0  0  0  0  0  0  0  0  0  0  0  0
   -5.2050   25.3200  -30.4770 C   0  0  0  0  0  0  0  0  0  0  0  0
   -3.8730   25.6700  -30.8460 N   0  0  0  0  0  0  0  0  0  0  0  0
   -5.8840   26.1230  -29.7850 O   0  0  0  0  0  0  0  0  0  0  0  0
   -5.1350   22.8440  -31.0020 N   0  0  0  0  0  0  0  0  0  0  0  0
   -3.7450   22.5840  -30.7520 C   0  0  0  0  0  0  0  0  0  0  0  0
   -2.8650   23.0870  -31.5030 O   0  0  0  0  0  0  0  0  0  0  0  0
   -3.3610   21.7450  -29.6590 N   0  0  0  0  0  0  0  0  0  0  0  0
   -3.1030   22.2370  -28.3090 C   0  0  0  0  0  0  0  0  0  0  0  0
   -3.4100   23.7540  -28.1940 C   0  0  0  0  0  0  0  0  0  0  0  0
   -2.3340   24.6970  -28.5930 N   0  0  0  0  0  0  0  0  0  0  0  0
   -1.5990   25.3330  -27.4910 C   0  0  0  0  0  0  0  0  0  0  0  0
   -0.2920   24.6600  -27.8750 C   0  0  0  0  0  0  0  0  0  0  0  0
   -1.0890   24.0360  -29.0070 C   0  0  0  0  0  0  0  0  0  0  0  0
   -6.0620   21.9420  -31.3950 C   0  0  0  0  0  0  0  0  0  0  0  0
   -5.8920   20.5740  -31.6420 C   0  0  0  0  0  0  0  0  0  0  0  0
   -3.2758   20.2592  -32.3964 H   0  0  0  0  0  0  0  0  0  0  0  0
   -2.3094   20.2281  -33.9102 H   0  0  0  0  0  0  0  0  0  0  0  0
   -3.9556   20.9468  -33.9102 H   0  0  0  0  0  0  0  0  0  0  0  0
   -3.3950   18.3835  -34.7176 H   0  0  0  0  0  0  0  0  0  0  0  0
   -3.7934   18.1109  -32.9872 H   0  0  0  0  0  0  0  0  0  0  0  0
   -6.4140   17.8369  -30.2677 H   0  0  0  0  0  0  0  0  0  0  0  0
   -6.2204   16.4599  -31.4048 H   0  0  0  0  0  0  0  0  0  0  0  0
   -5.0239   17.7996  -31.4048 H   0  0  0  0  0  0  0  0  0  0  0  0
   -8.6863   17.5946  -31.2609 H   0  0  0  0  0  0  0  0  0  0  0  0
   -9.0434   18.4192  -32.8163 H   0  0  0  0  0  0  0  0  0  0  0  0
   -8.3779   16.7507  -32.8163 H   0  0  0  0  0  0  0  0  0  0  0  0
   -9.1464   19.8892  -32.5346 H   0  0  0  0  0  0  0  0  0  0  0  0
   -9.3649   22.3550  -32.1254 H   0  0  0  0  0  0  0  0  0  0  0  0
   -7.8918   24.6722  -31.3519 H   0  0  0  0  0  0  0  0  0  0  0  0
   -3.0650   25.0680  -30.5710 H   0  0  0  0  0  0  0  0  0  0  0  0
   -3.7394   21.6877  -27.5996 H   0  0  0  0  0  0  0  0  0  0  0  0
   -2.0388   22.0795  -28.0793 H   0  0  0  0  0  0  0  0  0  0  0  0
   -4.2849   23.9634  -28.8270 H   0  0  0  0  0  0  0  0  0  0  0  0
   -3.5586   23.9323  -27.1188 H   0  0  0  0  0  0  0  0  0  0  0  0
   -1.5644   26.4301  -27.5633 H   0  0  0  0  0  0  0  0  0  0  0  0
   -1.9753   25.2161  -26.4640 H   0  0  0  0  0  0  0  0  0  0  0  0
    0.5102   25.3435  -28.1902 H   0  0  0  0  0  0  0  0  0  0  0  0
    0.3042   24.0660  -27.1666 H   0  0  0  0  0  0  0  0  0  0  0  0
   -0.7429   24.3405  -30.0057 H   0  0  0  0  0  0  0  0  0  0  0  0
   -1.0813   22.9420  -29.1217 H   0  0  0  0  0  0  0  0  0  0  0  0
   -4.9101   20.0981  -31.5025 H   0  0  0  0  0  0  0  0  0  0  0  0
  1  2  1  0
  2  3  1  0
  3  4  1  0
  4  5  2  0
  4  6  1  0
  6  7  1  0
  6  8  1  0
  6  9  1  0
  9 10  2  0
 10 11  1  0
 11 12  2  0
 12 13  1  0
 13 14  2  0
 14 15  1  0
 15 16  1  0
 15 17  2  0
 14 18  1  0
 18 19  1  0
 19 20  2  0
 19 21  1  0
 21 22  1  0
 22 23  1  0
 23 24  1  0
 24 25  1  0
 25 26  1  0
 26 27  1  0
 18 28  1  0
 28 29  2  0
 29  9  1  0
 28 12  1  0
 27 24  1  0
  1 30  1  0
  1 31  1  0
  1 32  1  0
  2 33  1  0
  2 34  1  0
  7 35  1  0
  7 36  1  0
  7 37  1  0
  8 38  1  0
  8 39  1  0
  8 40  1  0
 10 41  1  0
 11 42  1  0
 13 43  1  0
 16 44  1  0
 22 45  1  0
 22 46  1  0
 23 47  1  0
 23 48  1  0
 25 49  1  0
 25 50  1  0
 26 51  1  0
 26 52  1  0
 27 53  1  0
 27 54  1  0
 29 55  1  0
M  CHG  2  16  -1  21  -1
M  END
>  <UniqueID>  (92) 
92

>  <SMILES>  (92) 
CCOC(=O)C(C)(C)c1ccc2cc(C([NH-])=O)n(C(=O)[N-]CCN3CCC3)c2c1

>  <Energy>  (92) 
165.7848566487606

>  <Genealogy>  (92) 
CCOC(=O)C(C)(C)c1ccc2cc(C([NH-])=O)n(C(=O)[N-]CCN3CCC3)c2c1 (protonated)
CCOC(=O)C(C)(C)c1ccc2cc(C([NH-])=O)n(C(=O)[N-]CCN3CCC3)c2c1 (3D coordinates assigned)
CCOC(=O)C(C)(C)c1ccc2cc(C([NH-])=O)n(C(=O)[N-]CCN3CCC3)c2c1 (nonaromatic ring conformer: 165.7848566487606 kcal/mol)

>  <smiles>  (92) 
CCOC(=O)C(C)(C)c1ccc2cc(C(N)=O)n(C(=O)NCCN3CCC3)c2c1

>  <score_type>  (92) 
oracle

>  <origin>  (92) 
adg

>  <m_score__min__energy>  (92) 
-12.050000000000001

>  <m_primary>  (92) 
energy

$$$$
92:0
     RDKit          3D

 38 39  0  0  0  0  0  0  0  0999 V2000
   -2.7150   19.8170  -27.1890 C   0  0  0  0  0  0  0  0  0  0  0  0
   -2.1310   20.4990  -28.4250 C   0  0  0  0  0  0  0  0  0  0  0  0
   -3.0870   21.5320  -29.0440 C   0  0  0  0  0  0  0  0  0  0  0  0
   -2.4300   22.8910  -29.3030 C   0  0  0  0  0  0  0  0  0  0  0  0
   -2.6910   23.3170  -30.6360 O   0  0  0  0  0  0  0  0  0  0  0  0
   -3.4100   22.5430  -31.5520 C   0  0  0  0  0  0  0  0  0  0  0  0
   -2.8010   21.8080  -32.3770 O   0  0  0  0  0  0  0  0  0  0  0  0
   -4.8470   22.5770  -31.5410 N   0  0  0  0  0  0  0  0  0  0  0  0
   -5.6470   23.4940  -30.9260 C   0  0  0  0  0  0  0  0  0  0  0  0
   -5.1830   24.7400  -30.2760 C   0  0  0  0  0  0  0  0  0  0  0  0
   -5.7340   25.1600  -29.0260 N   0  0  0  0  0  0  0  0  0  0  0  0
   -4.3190   25.4630  -30.8390 O   0  0  0  0  0  0  0  0  0  0  0  0
   -6.9880   23.1450  -31.0650 C   0  0  0  0  0  0  0  0  0  0  0  0
   -6.9870   21.9780  -31.7940 C   0  0  0  0  0  0  0  0  0  0  0  0
   -8.0500   21.1800  -32.2020 C   0  0  0  0  0  0  0  0  0  0  0  0
   -7.7570   20.0040  -32.9120 C   0  0  0  0  0  0  0  0  0  0  0  0
   -6.4160   19.6520  -33.2110 C   0  0  0  0  0  0  0  0  0  0  0  0
   -6.1100   18.3560  -33.9190 C   0  0  0  0  0  0  0  0  0  0  0  0
   -7.0730   17.4040  -33.6320 F   0  0  0  0  0  0  0  0  0  0  0  0
   -6.0870   18.5770  -35.2830 F   0  0  0  0  0  0  0  0  0  0  0  0
   -4.8800   17.8610  -33.5220 F   0  0  0  0  0  0  0  0  0  0  0  0
   -5.3600   20.4790  -32.7580 C   0  0  0  0  0  0  0  0  0  0  0  0
   -5.6830   21.6540  -32.0680 C   0  0  0  0  0  0  0  0  0  0  0  0
   -2.3094   20.2906  -26.2828 H   0  0  0  0  0  0  0  0  0  0  0  0
   -3.8102   19.9188  -27.1971 H   0  0  0  0  0  0  0  0  0  0  0  0
   -2.4458   18.7505  -27.1971 H   0  0  0  0  0  0  0  0  0  0  0  0
   -1.2001   21.0098  -28.1376 H   0  0  0  0  0  0  0  0  0  0  0  0
   -1.9526   19.7192  -29.1800 H   0  0  0  0  0  0  0  0  0  0  0  0
   -3.4565   21.1354  -30.0012 H   0  0  0  0  0  0  0  0  0  0  0  0
   -3.8992   21.6968  -28.3207 H   0  0  0  0  0  0  0  0  0  0  0  0
   -2.8369   23.6315  -28.5986 H   0  0  0  0  0  0  0  0  0  0  0  0
   -1.3431   22.7969  -29.1625 H   0  0  0  0  0  0  0  0  0  0  0  0
   -6.4140   24.5640  -28.5070 H   0  0  0  0  0  0  0  0  0  0  0  0
   -5.4280   26.0610  -28.5950 H   0  0  0  0  0  0  0  0  0  0  0  0
   -7.8621   23.6870  -30.6750 H   0  0  0  0  0  0  0  0  0  0  0  0
   -9.0891   21.4612  -31.9756 H   0  0  0  0  0  0  0  0  0  0  0  0
   -8.5771   19.3484  -33.2399 H   0  0  0  0  0  0  0  0  0  0  0  0
   -4.3109   20.2052  -32.9436 H   0  0  0  0  0  0  0  0  0  0  0  0
  1  2  1  0
  2  3  1  0
  3  4  1  0
  4  5  1  0
  5  6  1  0
  6  7  2  0
  6  8  1  0
  8  9  1  0
  9 10  1  0
 10 11  1  0
 10 12  2  0
  9 13  2  0
 13 14  1  0
 14 15  2  0
 15 16  1  0
 16 17  2  0
 17 18  1  0
 18 19  1  0
 18 20  1  0
 18 21  1  0
 17 22  1  0
 22 23  2  0
 23  8  1  0
 23 14  1  0
  1 24  1  0
  1 25  1  0
  1 26  1  0
  2 27  1  0
  2 28  1  0
  3 29  1  0
  3 30  1  0
  4 31  1  0
  4 32  1  0
 11 33  1  0
 11 34  1  0
 13 35  1  0
 15 36  1  0
 16 37  1  0
 22 38  1  0
M  END
>  <UniqueID>  (93) 
93

>  <SMILES>  (93) 
CCCCOC(=O)n1c(C(N)=O)cc2ccc(C(F)(F)F)cc21

>  <Energy>  (93) 
68.9828226778685

>  <Genealogy>  (93) 
CCCCOC(=O)n1c(C(N)=O)cc2ccc(C(F)(F)F)cc21 (3D coordinates assigned)
CCCCOC(=O)n1c(C(N)=O)cc2ccc(C(F)(F)F)cc21 (optimized conformer: 68.9828226778685 kcal/mol)

>  <smiles>  (93) 
CCCCOC(=O)n1c(C(N)=O)cc2ccc(C(F)(F)F)cc21

>  <score_type>  (93) 
oracle

>  <origin>  (93) 
adg

>  <m_score__min__energy>  (93) 
-7.96

>  <m_primary>  (93) 
energy

$$$$
93:0
     RDKit          3D

 45 47  0  0  0  0  0  0  0  0999 V2000
   -2.8290   22.7540  -30.3530 C   0  0  0  0  0  0  0  0  0  0  0  0
   -3.8340   23.8150  -30.6720 C   0  0  0  0  0  0  0  0  0  0  0  0
   -3.5010   25.0260  -30.5710 O   0  0  0  0  0  0  0  0  0  0  0  0
   -5.1630   23.4740  -31.1070 N   0  0  0  0  0  0  0  0  0  0  0  0
   -6.3290   24.0670  -30.7260 C   0  0  0  0  0  0  0  0  0  0  0  0
   -6.4490   25.2800  -29.8910 C   0  0  0  0  0  0  0  0  0  0  0  0
   -5.6090   26.4160  -30.1050 N   0  0  0  0  0  0  0  0  0  0  0  0
   -7.3410   25.3330  -29.0030 O   0  0  0  0  0  0  0  0  0  0  0  0
   -7.4220   23.3840  -31.2500 C   0  0  0  0  0  0  0  0  0  0  0  0
   -6.8850   22.3460  -31.9760 C   0  0  0  0  0  0  0  0  0  0  0  0
   -7.5180   21.3280  -32.6800 C   0  0  0  0  0  0  0  0  0  0  0  0
   -6.7160   20.3510  -33.2900 C   0  0  0  0  0  0  0  0  0  0  0  0
   -5.2980   20.3970  -33.1880 C   0  0  0  0  0  0  0  0  0  0  0  0
   -4.4670   19.3000  -33.8510 C   0  0  1  0  0  0  0  0  0  0  0  0
   -2.9780   19.4080  -33.5400 C   0  0  0  0  0  0  0  0  0  0  0  0
   -1.8860   19.4930  -34.4080 C   0  0  0  0  0  0  0  0  0  0  0  0
   -0.6490   19.5540  -33.7540 C   0  0  0  0  0  0  0  0  0  0  0  0
   -0.7390   19.5150  -32.3720 C   0  0  0  0  0  0  0  0  0  0  0  0
   -2.3620   19.4020  -31.9690 S   0  0  0  0  0  0  0  0  0  0  0  0
   -5.1250   17.8630  -33.8220 C   0  0  0  0  0  0  0  0  0  0  0  0
   -6.1230   17.8770  -34.8240 O   0  0  0  0  0  0  0  0  0  0  0  0
   -4.0720   16.7750  -34.2060 C   0  0  0  0  0  0  0  0  0  0  0  0
   -3.3710   17.1370  -35.3430 F   0  0  0  0  0  0  0  0  0  0  0  0
   -3.1580   16.5870  -33.1840 F   0  0  0  0  0  0  0  0  0  0  0  0
   -4.6990   15.5620  -34.4390 F   0  0  0  0  0  0  0  0  0  0  0  0
   -5.8120   17.5030  -32.4640 C   0  0  0  0  0  0  0  0  0  0  0  0
   -5.4620   16.2250  -32.0640 F   0  0  0  0  0  0  0  0  0  0  0  0
   -5.3960   18.3700  -31.4670 F   0  0  0  0  0  0  0  0  0  0  0  0
   -7.1840   17.5870  -32.5420 F   0  0  0  0  0  0  0  0  0  0  0  0
   -4.7000   21.4410  -32.4420 C   0  0  0  0  0  0  0  0  0  0  0  0
   -5.5220   22.4180  -31.8700 C   0  0  0  0  0  0  0  0  0  0  0  0
   -2.7347   22.6545  -29.2616 H   0  0  0  0  0  0  0  0  0  0  0  0
   -3.1587   21.7960  -30.7814 H   0  0  0  0  0  0  0  0  0  0  0  0
   -1.8545   23.0313  -30.7814 H   0  0  0  0  0  0  0  0  0  0  0  0
   -5.6750   27.2430  -29.4700 H   0  0  0  0  0  0  0  0  0  0  0  0
   -4.9930   26.4830  -30.9450 H   0  0  0  0  0  0  0  0  0  0  0  0
   -8.4870   23.6227  -31.1132 H   0  0  0  0  0  0  0  0  0  0  0  0
   -8.6146   21.2894  -32.7567 H   0  0  0  0  0  0  0  0  0  0  0  0
   -7.1917   19.5366  -33.8561 H   0  0  0  0  0  0  0  0  0  0  0  0
   -4.4936   19.4980  -34.9327 H   0  0  0  0  0  0  0  0  0  0  0  0
   -1.9885   19.5104  -35.5031 H   0  0  0  0  0  0  0  0  0  0  0  0
    0.3089   19.6264  -34.2900 H   0  0  0  0  0  0  0  0  0  0  0  0
    0.1036   19.5516  -31.6659 H   0  0  0  0  0  0  0  0  0  0  0  0
   -6.8830   18.4390  -34.5200 H   0  0  0  0  0  0  0  0  0  0  0  0
   -3.6083   21.4833  -32.3143 H   0  0  0  0  0  0  0  0  0  0  0  0
  1  2  1  0
  2  3  2  0
  2  4  1  0
  4  5  1  0
  5  6  1  0
  6  7  1  0
  6  8  2  0
  5  9  2  0
  9 10  1  0
 10 11  2  0
 11 12  1  0
 12 13  2  0
 13 14  1  0
 14 15  1  0
 15 16  2  0
 16 17  1  0
 17 18  2  0
 18 19  1  0
 14 20  1  0
 20 21  1  0
 20 22  1  0
 22 23  1  0
 22 24  1  0
 22 25  1  0
 20 26  1  0
 26 27  1  0
 26 28  1  0
 26 29  1  0
 13 30  1  0
 30 31  2  0
 31  4  1  0
 31 10  1  0
 19 15  1  0
  1 32  1  0
  1 33  1  0
  1 34  1  0
  7 35  1  0
  7 36  1  0
  9 37  1  0
 11 38  1  0
 12 39  1  0
 14 40  1  6
 16 41  1  0
 17 42  1  0
 18 43  1  0
 21 44  1  0
 30 45  1  0
M  END
>  <UniqueID>  (94) 
94

>  <SMILES>  (94) 
CC(=O)n1c(C(N)=O)cc2ccc([C@@H](c3cccs3)C(O)(C(F)(F)F)C(F)(F)F)cc21

>  <Energy>  (94) 
126.69619554142648

>  <Genealogy>  (94) 
CC(=O)n1c(C(N)=O)cc2ccc([C@@H](c3cccs3)C(O)(C(F)(F)F)C(F)(F)F)cc21 (chirality)
CC(=O)n1c(C(N)=O)cc2ccc([C@@H](c3cccs3)C(O)(C(F)(F)F)C(F)(F)F)cc21 (3D coordinates assigned)
CC(=O)n1c(C(N)=O)cc2ccc([C@@H](c3cccs3)C(O)(C(F)(F)F)C(F)(F)F)cc21 (optimized conformer: 126.69619554142648 kcal/mol)

>  <smiles>  (94) 
CC(=O)n1c(C(N)=O)cc2ccc(C(c3cccs3)C(O)(C(F)(F)F)C(F)(F)F)cc21

>  <score_type>  (94) 
oracle

>  <origin>  (94) 
adg

>  <m_score__min__energy>  (94) 
-7.79

>  <m_primary>  (94) 
energy

$$$$
94:0
     RDKit          3D

 58 60  0  0  0  0  0  0  0  0999 V2000
    0.9200   24.0900  -36.0820 C   0  0  0  0  0  0  0  0  0  0  0  0
    0.6560   22.9100  -35.3570 O   0  0  0  0  0  0  0  0  0  0  0  0
    1.8110   22.0870  -35.3080 C   0  0  0  0  0  0  0  0  0  0  0  0
    1.4100   20.6110  -35.1220 C   0  0  0  0  0  0  0  0  0  0  0  0
    0.4020   20.4470  -34.0490 N   0  0  0  0  0  0  0  0  0  0  0  0
   -0.9630   20.4540  -34.6090 C   0  0  0  0  0  0  0  0  0  0  0  0
    0.6370   19.2940  -33.1390 C   0  0  0  0  0  0  0  0  0  0  0  0
    1.0140   19.6820  -31.6950 C   0  0  0  0  0  0  0  0  0  0  0  0
    0.4320   20.9430  -31.3650 O   0  0  0  0  0  0  0  0  0  0  0  0
   -0.8590   21.1130  -30.8510 C   0  0  0  0  0  0  0  0  0  0  0  0
   -1.1780   20.8700  -29.5040 C   0  0  0  0  0  0  0  0  0  0  0  0
   -2.4720   21.1120  -29.0370 C   0  0  0  0  0  0  0  0  0  0  0  0
   -3.4560   21.5980  -29.9020 C   0  0  0  0  0  0  0  0  0  0  0  0
   -3.1570   21.8230  -31.2570 C   0  0  0  0  0  0  0  0  0  0  0  0
   -4.1880   22.3460  -32.1860 C   0  0  0  0  0  0  0  0  0  0  0  0
   -3.9500   22.4190  -33.4230 O   0  0  0  0  0  0  0  0  0  0  0  0
   -5.4830   22.7340  -31.6940 N   0  0  0  0  0  0  0  0  0  0  0  0
   -5.8100   23.8700  -31.0160 C   0  0  0  0  0  0  0  0  0  0  0  0
   -4.9000   25.0080  -30.7570 C   0  0  0  0  0  0  0  0  0  0  0  0
   -3.4890   24.8110  -30.8010 N   0  0  0  0  0  0  0  0  0  0  0  0
   -5.3570   26.1560  -30.4900 O   0  0  0  0  0  0  0  0  0  0  0  0
   -7.1420   23.8220  -30.6020 C   0  0  0  0  0  0  0  0  0  0  0  0
   -7.6210   22.6100  -31.0500 C   0  0  0  0  0  0  0  0  0  0  0  0
   -8.8710   22.0190  -30.8760 C   0  0  0  0  0  0  0  0  0  0  0  0
   -9.0720   20.7390  -31.4180 C   0  0  0  0  0  0  0  0  0  0  0  0
   -8.0290   20.0760  -32.1170 C   0  0  0  0  0  0  0  0  0  0  0  0
   -8.2600   18.7000  -32.6850 C   0  0  0  0  0  0  0  0  0  0  0  0
   -7.0540   17.8400  -32.4820 C   0  0  0  0  0  0  0  0  0  0  0  0
   -6.5840   17.1740  -33.4420 O   0  0  0  0  0  0  0  0  0  0  0  0
   -6.4670   17.7420  -31.2230 O   0  0  0  0  0  0  0  0  0  0  0  0
   -6.7650   20.6940  -32.2470 C   0  0  0  0  0  0  0  0  0  0  0  0
   -6.6000   21.9750  -31.7100 C   0  0  0  0  0  0  0  0  0  0  0  0
   -1.8550   21.5630  -31.7200 C   0  0  0  0  0  0  0  0  0  0  0  0
    1.1051   24.9173  -35.3811 H   0  0  0  0  0  0  0  0  0  0  0  0
    1.8069   23.9406  -36.7153 H   0  0  0  0  0  0  0  0  0  0  0  0
    0.0540   24.3328  -36.7153 H   0  0  0  0  0  0  0  0  0  0  0  0
    2.3730   22.1945  -36.2475 H   0  0  0  0  0  0  0  0  0  0  0  0
    2.4351   22.3976  -34.4571 H   0  0  0  0  0  0  0  0  0  0  0  0
    0.9898   20.2343  -36.0662 H   0  0  0  0  0  0  0  0  0  0  0  0
    2.3091   20.0453  -34.8365 H   0  0  0  0  0  0  0  0  0  0  0  0
   -1.6958   20.4578  -33.7887 H   0  0  0  0  0  0  0  0  0  0  0  0
   -1.1008   21.3529  -35.2279 H   0  0  0  0  0  0  0  0  0  0  0  0
   -1.1100   19.5566  -35.2279 H   0  0  0  0  0  0  0  0  0  0  0  0
   -0.2830   18.6920  -33.1034 H   0  0  0  0  0  0  0  0  0  0  0  0
    1.4971   18.7440  -33.5486 H   0  0  0  0  0  0  0  0  0  0  0  0
    0.6400   18.9146  -31.0013 H   0  0  0  0  0  0  0  0  0  0  0  0
    2.1085   19.7547  -31.6127 H   0  0  0  0  0  0  0  0  0  0  0  0
   -0.4081   20.4889  -28.8170 H   0  0  0  0  0  0  0  0  0  0  0  0
   -2.7178   20.9189  -27.9824 H   0  0  0  0  0  0  0  0  0  0  0  0
   -4.4672   21.8050  -29.5216 H   0  0  0  0  0  0  0  0  0  0  0  0
   -2.8600   25.2960  -30.1200 H   0  0  0  0  0  0  0  0  0  0  0  0
   -7.6927   24.5890  -30.0377 H   0  0  0  0  0  0  0  0  0  0  0  0
   -9.6739   22.5380  -30.3320 H   0  0  0  0  0  0  0  0  0  0  0  0
  -10.0477   20.2450  -31.2997 H   0  0  0  0  0  0  0  0  0  0  0  0
   -9.1219   18.2398  -32.1796 H   0  0  0  0  0  0  0  0  0  0  0  0
   -8.4558   18.7889  -33.7638 H   0  0  0  0  0  0  0  0  0  0  0  0
   -5.9347   20.1825  -32.7558 H   0  0  0  0  0  0  0  0  0  0  0  0
   -1.6175   21.7165  -32.7830 H   0  0  0  0  0  0  0  0  0  0  0  0
  1  2  1  0
  2  3  1  0
  3  4  1  0
  4  5  1  0
  5  6  1  0
  5  7  1  0
  7  8  1  0
  8  9  1  0
  9 10  1  0
 10 11  2  0
 11 12  1  0
 12 13  2  0
 13 14  1  0
 14 15  1  0
 15 16  2  0
 15 17  1  0
 17 18  1  0
 18 19  1  0
 19 20  1  0
 19 21  2  0
 18 22  2  0
 22 23  1  0
 23 24  2  0
 24 25  1  0
 25 26  2  0
 26 27  1  0
 27 28  1  0
 28 29  2  0
 28 30  1  0
 26 31  1  0
 31 32  2  0
 14 33  2  0
 33 10  1  0
 32 17  1  0
 32 23  1  0
  1 34  1  0
  1 35  1  0
  1 36  1  0
  3 37  1  0
  3 38  1  0
  4 39  1  0
  4 40  1  0
  6 41  1  0
  6 42  1  0
  6 43  1  0
  7 44  1  0
  7 45  1  0
  8 46  1  0
  8 47  1  0
 11 48  1  0
 12 49  1  0
 13 50  1  0
 20 51  1  0
 22 52  1  0
 24 53  1  0
 25 54  1  0
 27 55  1  0
 27 56  1  0
 31 57  1  0
 33 58  1  0
M  CHG  2  20  -1  30  -1
M  END
>  <UniqueID>  (95) 
95

>  <SMILES>  (95) 
COCCN(C)CCOc1cccc(C(=O)n2c(C([NH-])=O)cc3ccc(CC(=O)[O-])cc32)c1

>  <Energy>  (95) 
99.51247002265744

>  <Genealogy>  (95) 
COCCN(C)CCOc1cccc(C(=O)n2c(C([NH-])=O)cc3ccc(CC(=O)[O-])cc32)c1 (protonated)
COCCN(C)CCOc1cccc(C(=O)n2c(C([NH-])=O)cc3ccc(CC(=O)[O-])cc32)c1 (3D coordinates assigned)
COCCN(C)CCOc1cccc(C(=O)n2c(C([NH-])=O)cc3ccc(CC(=O)[O-])cc32)c1 (optimized conformer: 99.51247002265744 kcal/mol)

>  <smiles>  (95) 
COCCN(C)CCOc1cccc(C(=O)n2c(C(N)=O)cc3ccc(CC(=O)O)cc32)c1

>  <score_type>  (95) 
oracle

>  <origin>  (95) 
adg

>  <m_score__min__energy>  (95) 
-11.51

>  <m_primary>  (95) 
energy

$$$$
95:0
     RDKit          3D

 76 80  0  0  0  0  0  0  0  0999 V2000
   -8.7700   18.1870  -31.6080 C   0  0  0  0  0  0  0  0  0  0  0  0
   -7.6500   18.3990  -32.4620 O   0  0  0  0  0  0  0  0  0  0  0  0
   -7.4020   19.6240  -33.0900 C   0  0  0  0  0  0  0  0  0  0  0  0
   -6.5350   19.7120  -34.0040 O   0  0  0  0  0  0  0  0  0  0  0  0
   -8.2130   20.8230  -32.7090 C   0  0  0  0  0  0  0  0  0  0  0  0
   -7.3670   21.8290  -31.9770 C   0  0  0  0  0  0  0  0  0  0  0  0
   -7.9310   23.0590  -31.5550 C   0  0  0  0  0  0  0  0  0  0  0  0
   -7.1650   23.9850  -30.8260 C   0  0  0  0  0  0  0  0  0  0  0  0
   -5.8440   23.6540  -30.5350 C   0  0  0  0  0  0  0  0  0  0  0  0
   -4.8930   24.3450  -29.8190 C   0  0  0  0  0  0  0  0  0  0  0  0
   -3.7610   23.5320  -29.8240 C   0  0  0  0  0  0  0  0  0  0  0  0
   -2.4710   23.9260  -29.2220 C   0  0  0  0  0  0  0  0  0  0  0  0
   -2.0170   25.2740  -29.3330 N   0  0  0  0  0  0  0  0  0  0  0  0
   -1.7470   23.0780  -28.6370 O   0  0  0  0  0  0  0  0  0  0  0  0
   -4.0050   22.3810  -30.5140 N   0  0  0  0  0  0  0  0  0  0  0  0
   -3.1270   21.2610  -30.7040 C   0  0  0  0  0  0  0  0  0  0  0  0
   -3.5980   20.0920  -30.7540 O   0  0  0  0  0  0  0  0  0  0  0  0
   -1.7550   21.4800  -30.8670 O   0  0  0  0  0  0  0  0  0  0  0  0
   -1.1600   21.8910  -32.0960 C   0  0  0  0  0  0  0  0  0  0  0  0
   -1.8630   21.2350  -33.2870 C   0  0  0  0  0  0  0  0  0  0  0  0
   -0.9170   21.1070  -34.4810 C   0  0  0  0  0  0  0  0  0  0  0  0
    0.3790   21.4880  -34.0840 O   0  0  0  0  0  0  0  0  0  0  0  0
    1.2290   22.0180  -35.4670 P   0  0  1  0  0  0  0  0  0  0  0  0
    0.7760   21.2520  -36.6900 O   0  0  0  0  0  0  0  0  0  0  0  0
    0.9430   23.6670  -35.7150 O   0  0  0  0  0  0  0  0  0  0  0  0
    2.9020   21.7970  -35.2290 O   0  0  0  0  0  0  0  0  0  0  0  0
    3.2030   20.4290  -35.3910 C   0  0  0  0  0  0  0  0  0  0  0  0
    2.2980   19.5740  -34.4890 C   0  0  2  0  0  0  0  0  0  0  0  0
    3.0420   19.0080  -33.4350 O   0  0  0  0  0  0  0  0  0  0  0  0
    2.4280   17.7830  -33.0840 C   0  0  0  0  0  0  0  0  0  0  0  0
    1.2580   17.4910  -34.0310 C   0  0  1  0  0  0  0  0  0  0  0  0
   -0.0440   17.7330  -33.3840 N   0  0  0  0  0  0  0  0  0  0  0  0
   -0.3280   18.4250  -32.2450 C   0  0  0  0  0  0  0  0  0  0  0  0
   -1.6620   18.5520  -32.0070 N   0  0  0  0  0  0  0  0  0  0  0  0
   -2.2140   17.9110  -33.0540 C   0  0  0  0  0  0  0  0  0  0  0  0
   -3.5540   17.7570  -33.3890 C   0  0  0  0  0  0  0  0  0  0  0  0
   -4.5990   18.2760  -32.5660 N   0  0  0  0  0  0  0  0  0  0  0  0
   -3.8450   17.1060  -34.5550 N   0  0  0  0  0  0  0  0  0  0  0  0
   -2.8530   16.6220  -35.3700 C   0  0  0  0  0  0  0  0  0  0  0  0
   -1.5390   16.7890  -35.0350 N   0  0  0  0  0  0  0  0  0  0  0  0
   -1.2540   17.4280  -33.8740 C   0  0  0  0  0  0  0  0  0  0  0  0
    1.5180   18.4410  -35.2000 C   0  0  2  0  0  0  0  0  0  0  0  0
    2.3440   17.7100  -36.2790 C   0  0  0  0  0  0  0  0  0  0  0  0
    0.3270   18.8960  -35.8080 O   0  0  0  0  0  0  0  0  0  0  0  0
   -5.2820   22.4730  -30.9440 C   0  0  0  0  0  0  0  0  0  0  0  0
   -6.0250   21.5250  -31.6560 C   0  0  0  0  0  0  0  0  0  0  0  0
   -8.4473   18.2481  -30.5582 H   0  0  0  0  0  0  0  0  0  0  0  0
   -9.5309   18.9571  -31.8031 H   0  0  0  0  0  0  0  0  0  0  0  0
   -9.1968   17.1921  -31.8031 H   0  0  0  0  0  0  0  0  0  0  0  0
   -8.6194   21.2877  -33.6194 H   0  0  0  0  0  0  0  0  0  0  0  0
   -9.0299   20.5004  -32.0467 H   0  0  0  0  0  0  0  0  0  0  0  0
   -8.9779   23.2910  -31.8003 H   0  0  0  0  0  0  0  0  0  0  0  0
   -7.5957   24.9417  -30.4955 H   0  0  0  0  0  0  0  0  0  0  0  0
   -5.0032   25.3307  -29.3433 H   0  0  0  0  0  0  0  0  0  0  0  0
   -2.5920   26.0650  -28.9670 H   0  0  0  0  0  0  0  0  0  0  0  0
   -1.2401   22.9843  -32.1875 H   0  0  0  0  0  0  0  0  0  0  0  0
   -0.1041   21.5828  -32.0967 H   0  0  0  0  0  0  0  0  0  0  0  0
   -2.2084   20.2329  -32.9931 H   0  0  0  0  0  0  0  0  0  0  0  0
   -2.7145   21.8660  -33.5815 H   0  0  0  0  0  0  0  0  0  0  0  0
   -0.9037   20.0641  -34.8304 H   0  0  0  0  0  0  0  0  0  0  0  0
   -1.2610   21.7580  -35.2982 H   0  0  0  0  0  0  0  0  0  0  0  0
    3.0424   20.1438  -36.4412 H   0  0  0  0  0  0  0  0  0  0  0  0
    4.2528   20.2576  -35.1107 H   0  0  0  0  0  0  0  0  0  0  0  0
    1.5430   20.2850  -34.1223 H   0  0  0  0  0  0  0  0  0  0  0  0
    3.1668   16.9714  -33.1572 H   0  0  0  0  0  0  0  0  0  0  0  0
    2.0492   17.8518  -32.0536 H   0  0  0  0  0  0  0  0  0  0  0  0
    1.2043   16.4384  -34.3457 H   0  0  0  0  0  0  0  0  0  0  0  0
    0.4456   18.8405  -31.5824 H   0  0  0  0  0  0  0  0  0  0  0  0
   -4.3820   18.8210  -31.7020 H   0  0  0  0  0  0  0  0  0  0  0  0
   -5.5960   18.1490  -32.8410 H   0  0  0  0  0  0  0  0  0  0  0  0
   -3.1174   16.0960  -36.2992 H   0  0  0  0  0  0  0  0  0  0  0  0
    3.0834   17.0557  -35.7940 H   0  0  0  0  0  0  0  0  0  0  0  0
    1.6735   17.1040  -36.9061 H   0  0  0  0  0  0  0  0  0  0  0  0
    2.8640   18.4492  -36.9061 H   0  0  0  0  0  0  0  0  0  0  0  0
    0.2520   19.8780  -35.6990 H   0  0  0  0  0  0  0  0  0  0  0  0
   -5.5758   20.5674  -31.9582 H   0  0  0  0  0  0  0  0  0  0  0  0
  1  2  1  0
  2  3  1  0
  3  4  2  0
  3  5  1  0
  5  6  1  0
  6  7  2  0
  7  8  1  0
  8  9  2  0
  9 10  1  0
 10 11  2  0
 11 12  1  0
 12 13  1  0
 12 14  2  0
 11 15  1  0
 15 16  1  0
 16 17  2  0
 16 18  1  0
 18 19  1  0
 19 20  1  0
 20 21  1  0
 21 22  1  0
 22 23  1  0
 23 24  2  0
 23 25  1  6
 23 26  1  0
 26 27  1  0
 27 28  1  0
 28 29  1  0
 29 30  1  0
 30 31  1  0
 31 32  1  0
 32 33  1  0
 33 34  2  0
 34 35  1  0
 35 36  2  0
 36 37  1  0
 36 38  1  0
 38 39  2  0
 39 40  1  0
 40 41  2  0
 31 42  1  0
 42 43  1  0
 42 44  1  6
 15 45  1  0
 45 46  2  0
 46  6  1  0
 45  9  1  0
 42 28  1  0
 41 32  1  0
 41 35  1  0
  1 47  1  0
  1 48  1  0
  1 49  1  0
  5 50  1  0
  5 51  1  0
  7 52  1  0
  8 53  1  0
 10 54  1  0
 13 55  1  0
 19 56  1  0
 19 57  1  0
 20 58  1  0
 20 59  1  0
 21 60  1  0
 21 61  1  0
 27 62  1  0
 27 63  1  0
 28 64  1  1
 30 65  1  0
 30 66  1  0
 31 67  1  6
 33 68  1  0
 37 69  1  0
 37 70  1  0
 39 71  1  0
 43 72  1  0
 43 73  1  0
 43 74  1  0
 44 75  1  0
 46 76  1  0
M  CHG  2  13  -1  25  -1
M  END
>  <UniqueID>  (96) 
96

>  <SMILES>  (96) 
COC(=O)Cc1ccc2cc(C([NH-])=O)n(C(=O)OCCCO[P@@](=O)([O-])OC[C@@H]3OC[C@@H](n4cnc5c(N)ncnc54)[C@@]3(C)O)c2c1

>  <Energy>  (96) 
156.26845516238512

>  <Genealogy>  (96) 
COC(=O)Cc1ccc2cc(C([NH-])=O)n(C(=O)OCCCOP(=O)([O-])OC[C@@H]3OC[C@@H](n4cnc5c(N)ncnc54)[C@@]3(C)O)c2c1 (protonated)
COC(=O)Cc1ccc2cc(C([NH-])=O)n(C(=O)OCCCO[P@@](=O)([O-])OC[C@@H]3OC[C@@H](n4cnc5c(N)ncnc54)[C@@]3(C)O)c2c1 (chirality)
COC(=O)Cc1ccc2cc(C([NH-])=O)n(C(=O)OCCCO[P@@](=O)([O-])OC[C@@H]3OC[C@@H](n4cnc5c(N)ncnc54)[C@@]3(C)O)c2c1 (3D coordinates assigned)
COC(=O)Cc1ccc2cc(C([NH-])=O)n(C(=O)OCCCO[P@@](=O)([O-])OC[C@@H]3OC[C@@H](n4cnc5c(N)ncnc54)[C@@]3(C)O)c2c1 (nonaromatic ring conformer: 156.26845516238512 kcal/mol)

>  <smiles>  (96) 
COC(=O)Cc1ccc2cc(C(N)=O)n(C(=O)OCCCOP(=O)(O)OC[C@@H]3OC[C@@H](n4cnc5c(N)ncnc54)[C@@]3(C)O)c2c1

>  <score_type>  (96) 
oracle

>  <origin>  (96) 
adg

>  <m_score__min__energy>  (96) 
-10.550000000000001

>  <m_primary>  (96) 
energy

$$$$
96:0
     RDKit          3D

 54 56  0  0  0  0  0  0  0  0999 V2000
   -3.8190   24.1730  -27.3240 C   0  0  0  0  0  0  0  0  0  0  0  0
   -3.9450   22.9080  -27.7330 C   0  0  0  0  0  0  0  0  0  0  0  0
   -2.8920   22.2520  -28.5720 C   0  0  0  0  0  0  0  0  0  0  0  0
   -3.5000   21.6300  -29.6990 O   0  0  0  0  0  0  0  0  0  0  0  0
   -3.9240   22.3470  -30.8220 C   0  0  0  0  0  0  0  0  0  0  0  0
   -3.0870   22.7310  -31.6840 O   0  0  0  0  0  0  0  0  0  0  0  0
   -5.3160   22.6610  -30.9830 N   0  0  0  0  0  0  0  0  0  0  0  0
   -5.9090   23.8840  -30.8780 C   0  0  0  0  0  0  0  0  0  0  0  0
   -5.2610   25.1250  -30.4050 C   0  0  0  0  0  0  0  0  0  0  0  0
   -3.8590   25.3250  -30.5570 N   0  0  0  0  0  0  0  0  0  0  0  0
   -5.9490   26.0010  -29.8150 O   0  0  0  0  0  0  0  0  0  0  0  0
   -7.2600   23.8020  -31.2040 C   0  0  0  0  0  0  0  0  0  0  0  0
   -7.4820   22.4780  -31.5080 C   0  0  0  0  0  0  0  0  0  0  0  0
   -8.6490   21.8360  -31.9090 C   0  0  0  0  0  0  0  0  0  0  0  0
   -8.5830   20.4610  -32.1870 C   0  0  0  0  0  0  0  0  0  0  0  0
   -7.3550   19.7530  -32.0720 C   0  0  0  0  0  0  0  0  0  0  0  0
   -7.2600   18.3460  -32.3690 N   0  0  0  0  0  0  0  0  0  0  0  0
   -6.5570   17.7910  -33.5270 C   0  0  0  0  0  0  0  0  0  0  0  0
   -5.4620   18.7150  -33.9770 C   0  0  0  0  0  0  0  0  0  0  0  0
   -4.2530   18.7000  -33.3980 C   0  0  0  0  0  0  0  0  0  0  0  0
   -3.1630   19.6340  -33.8430 C   0  0  0  0  0  0  0  0  0  0  0  0
   -1.8570   19.1950  -33.3010 N   0  0  0  0  0  0  0  0  0  0  0  0
   -1.4400   19.9860  -32.1190 C   0  0  0  0  0  0  0  0  0  0  0  0
   -0.5310   21.1750  -32.4910 C   0  0  0  0  0  0  0  0  0  0  0  0
   -0.8010   21.6120  -33.8060 O   0  0  0  0  0  0  0  0  0  0  0  0
   -0.3900   20.6270  -34.7400 C   0  0  0  0  0  0  0  0  0  0  0  0
   -0.8050   19.1920  -34.3360 C   0  0  0  0  0  0  0  0  0  0  0  0
   -6.1950   20.4450  -31.6580 C   0  0  0  0  0  0  0  0  0  0  0  0
   -6.2930   21.8110  -31.3680 C   0  0  0  0  0  0  0  0  0  0  0  0
   -4.6061   24.6330  -26.7084 H   0  0  0  0  0  0  0  0  0  0  0  0
   -2.9282   24.7550  -27.6027 H   0  0  0  0  0  0  0  0  0  0  0  0
   -4.8404   22.3362  -27.4479 H   0  0  0  0  0  0  0  0  0  0  0  0
   -2.1726   23.0099  -28.9156 H   0  0  0  0  0  0  0  0  0  0  0  0
   -2.3679   21.4924  -27.9734 H   0  0  0  0  0  0  0  0  0  0  0  0
   -3.4860   26.0240  -31.2380 H   0  0  0  0  0  0  0  0  0  0  0  0
   -7.9940   24.6212  -31.2161 H   0  0  0  0  0  0  0  0  0  0  0  0
   -9.5952   22.3887  -32.0055 H   0  0  0  0  0  0  0  0  0  0  0  0
   -9.4921   19.9252  -32.4974 H   0  0  0  0  0  0  0  0  0  0  0  0
   -7.7140   17.6680  -31.7170 H   0  0  0  0  0  0  0  0  0  0  0  0
   -6.1196   16.8198  -33.2523 H   0  0  0  0  0  0  0  0  0  0  0  0
   -7.2756   17.6671  -34.3506 H   0  0  0  0  0  0  0  0  0  0  0  0
   -5.6562   19.4193  -34.7994 H   0  0  0  0  0  0  0  0  0  0  0  0
   -4.0549   17.9902  -32.5813 H   0  0  0  0  0  0  0  0  0  0  0  0
   -3.1163   19.6398  -34.9420 H   0  0  0  0  0  0  0  0  0  0  0  0
   -3.3836   20.6450  -33.4698 H   0  0  0  0  0  0  0  0  0  0  0  0
   -2.3400   20.3736  -31.6193 H   0  0  0  0  0  0  0  0  0  0  0  0
   -0.8641   19.3203  -31.4593 H   0  0  0  0  0  0  0  0  0  0  0  0
   -0.7131   22.0029  -31.7900 H   0  0  0  0  0  0  0  0  0  0  0  0
    0.5188   20.8519  -32.4323 H   0  0  0  0  0  0  0  0  0  0  0  0
   -0.8421   20.8600  -35.7154 H   0  0  0  0  0  0  0  0  0  0  0  0
    0.7091   20.6508  -34.7774 H   0  0  0  0  0  0  0  0  0  0  0  0
   -1.1828   18.6671  -35.2258 H   0  0  0  0  0  0  0  0  0  0  0  0
    0.0791   18.6848  -33.9224 H   0  0  0  0  0  0  0  0  0  0  0  0
   -5.2327   19.9202  -31.5653 H   0  0  0  0  0  0  0  0  0  0  0  0
  1  2  2  0
  2  3  1  0
  3  4  1  0
  4  5  1  0
  5  6  2  0
  5  7  1  0
  7  8  1  0
  8  9  1  0
  9 10  1  0
  9 11  2  0
  8 12  2  0
 12 13  1  0
 13 14  2  0
 14 15  1  0
 15 16  2  0
 16 17  1  0
 17 18  1  0
 18 19  1  0
 19 20  2  3
 20 21  1  0
 21 22  1  0
 22 23  1  0
 23 24  1  0
 24 25  1  0
 25 26  1  0
 26 27  1  0
 16 28  1  0
 28 29  2  0
 29  7  1  0
 29 13  1  0
 27 22  1  0
  1 30  1  0
  1 31  1  0
  2 32  1  0
  3 33  1  0
  3 34  1  0
 10 35  1  0
 12 36  1  0
 14 37  1  0
 15 38  1  0
 17 39  1  0
 18 40  1  0
 18 41  1  0
 19 42  1  0
 20 43  1  0
 21 44  1  0
 21 45  1  0
 23 46  1  0
 23 47  1  0
 24 48  1  0
 24 49  1  0
 26 50  1  0
 26 51  1  0
 27 52  1  0
 27 53  1  0
 28 54  1  0
M  CHG  1  10  -1
M  END
>  <UniqueID>  (97) 
97

>  <SMILES>  (97) 
C=CCOC(=O)n1c(C([NH-])=O)cc2ccc(NCC=CCN3CCOCC3)cc21

>  <Energy>  (97) 
95.86992748866145

>  <Genealogy>  (97) 
C=CCOC(=O)n1c(C([NH-])=O)cc2ccc(NCC=CCN3CCOCC3)cc21 (protonated)
C=CCOC(=O)n1c(C([NH-])=O)cc2ccc(NCC=CCN3CCOCC3)cc21 (3D coordinates assigned)
C=CCOC(=O)n1c(C([NH-])=O)cc2ccc(NCC=CCN3CCOCC3)cc21 (nonaromatic ring conformer: 95.86992748866145 kcal/mol)

>  <smiles>  (97) 
C=CCOC(=O)n1c(C(N)=O)cc2ccc(NCC=CCN3CCOCC3)cc21

>  <score_type>  (97) 
oracle

>  <origin>  (97) 
adg

>  <m_score__min__energy>  (97) 
-11.140000000000001

>  <m_primary>  (97) 
energy

$$$$
97:0
     RDKit          3D

 53 55  0  0  0  0  0  0  0  0999 V2000
   -6.5800   24.9650  -29.8270 C   0  0  0  0  0  0  0  0  0  0  0  0
   -6.2670   23.5820  -30.3880 C   0  0  0  0  0  0  0  0  0  0  0  0
   -4.9490   23.1800  -30.0280 O   0  0  0  0  0  0  0  0  0  0  0  0
   -3.7940   23.8320  -30.4740 C   0  0  0  0  0  0  0  0  0  0  0  0
   -3.8380   25.0460  -30.8140 O   0  0  0  0  0  0  0  0  0  0  0  0
   -2.5450   23.1230  -30.5130 N   0  0  0  0  0  0  0  0  0  0  0  0
   -1.4440   23.3220  -29.7330 C   0  0  0  0  0  0  0  0  0  0  0  0
   -1.2460   24.4330  -28.7780 C   0  0  0  0  0  0  0  0  0  0  0  0
   -1.9380   25.6640  -28.9710 N   0  0  0  0  0  0  0  0  0  0  0  0
   -0.4990   24.2950  -27.7750 O   0  0  0  0  0  0  0  0  0  0  0  0
   -0.4700   22.3650  -30.0110 C   0  0  0  0  0  0  0  0  0  0  0  0
   -1.0080   21.5700  -30.9970 C   0  0  0  0  0  0  0  0  0  0  0  0
   -0.4810   20.4500  -31.6310 C   0  0  0  0  0  0  0  0  0  0  0  0
   -1.2820   19.7930  -32.5800 C   0  0  0  0  0  0  0  0  0  0  0  0
   -2.5870   20.2610  -32.8730 C   0  0  0  0  0  0  0  0  0  0  0  0
   -3.4540   19.5090  -33.8480 C   0  0  0  0  0  0  0  0  0  0  0  0
   -4.5480   18.6590  -33.1630 C   0  0  0  0  0  0  0  0  0  0  0  0
   -5.9850   19.2480  -33.1290 C   0  0  1  0  0  0  0  0  0  0  0  0
   -7.0570   18.2240  -32.6830 C   0  0  0  0  0  0  0  0  0  0  0  0
   -8.3080   18.9050  -32.0930 C   0  0  0  0  0  0  0  0  0  0  0  0
   -8.5700   20.1980  -32.7570 N   0  0  1  0  0  0  0  0  0  0  0  0
   -9.8810   20.7270  -32.3440 C   0  0  0  0  0  0  0  0  0  0  0  0
   -7.5010   21.1930  -32.4780 C   0  0  0  0  0  0  0  0  0  0  0  0
   -6.0960   20.5640  -32.3390 C   0  0  0  0  0  0  0  0  0  0  0  0
   -3.0810   21.4130  -32.2210 C   0  0  0  0  0  0  0  0  0  0  0  0
   -2.2600   22.0500  -31.2840 C   0  0  0  0  0  0  0  0  0  0  0  0
   -6.5710   24.9254  -28.7277 H   0  0  0  0  0  0  0  0  0  0  0  0
   -5.8214   25.6819  -30.1743 H   0  0  0  0  0  0  0  0  0  0  0  0
   -7.5734   25.2854  -30.1743 H   0  0  0  0  0  0  0  0  0  0  0  0
   -6.9888   22.8566  -29.9844 H   0  0  0  0  0  0  0  0  0  0  0  0
   -6.3381   23.6206  -31.4850 H   0  0  0  0  0  0  0  0  0  0  0  0
   -2.9320   25.6770  -29.2940 H   0  0  0  0  0  0  0  0  0  0  0  0
    0.5198   22.2660  -29.5415 H   0  0  0  0  0  0  0  0  0  0  0  0
    0.5316   20.0897  -31.3967 H   0  0  0  0  0  0  0  0  0  0  0  0
   -0.8921   18.9061  -33.1010 H   0  0  0  0  0  0  0  0  0  0  0  0
   -3.9423   20.2358  -34.5138 H   0  0  0  0  0  0  0  0  0  0  0  0
   -2.8004   18.8166  -34.3988 H   0  0  0  0  0  0  0  0  0  0  0  0
   -4.5975   17.6951  -33.6908 H   0  0  0  0  0  0  0  0  0  0  0  0
   -4.2412   18.5971  -32.1085 H   0  0  0  0  0  0  0  0  0  0  0  0
   -6.2010   19.4976  -34.1783 H   0  0  0  0  0  0  0  0  0  0  0  0
   -6.6198   17.5645  -31.9188 H   0  0  0  0  0  0  0  0  0  0  0  0
   -7.3706   17.6568  -33.5718 H   0  0  0  0  0  0  0  0  0  0  0  0
   -8.1501   19.0781  -31.0182 H   0  0  0  0  0  0  0  0  0  0  0  0
   -9.1742   18.2465  -32.2543 H   0  0  0  0  0  0  0  0  0  0  0  0
   -8.6160   20.0370  -33.7930 H   0  0  0  0  0  0  0  0  0  0  0  0
   -9.9377   20.7499  -31.2457 H   0  0  0  0  0  0  0  0  0  0  0  0
  -10.0062   21.7460  -32.7389 H   0  0  0  0  0  0  0  0  0  0  0  0
  -10.6783   20.0802  -32.7389 H   0  0  0  0  0  0  0  0  0  0  0  0
   -7.7447   21.7122  -31.5394 H   0  0  0  0  0  0  0  0  0  0  0  0
   -7.4652   21.8796  -33.3367 H   0  0  0  0  0  0  0  0  0  0  0  0
   -5.8995   20.3602  -31.2761 H   0  0  0  0  0  0  0  0  0  0  0  0
   -5.3595   21.2729  -32.7452 H   0  0  0  0  0  0  0  0  0  0  0  0
   -4.0863   21.7996  -32.4445 H   0  0  0  0  0  0  0  0  0  0  0  0
  1  2  1  0
  2  3  1  0
  3  4  1  0
  4  5  2  0
  4  6  1  0
  6  7  1  0
  7  8  1  0
  8  9  1  0
  8 10  2  0
  7 11  2  0
 11 12  1  0
 12 13  2  0
 13 14  1  0
 14 15  2  0
 15 16  1  0
 16 17  1  0
 17 18  1  0
 18 19  1  0
 19 20  1  0
 20 21  1  0
 21 22  1  0
 21 23  1  0
 23 24  1  0
 15 25  1  0
 25 26  2  0
 26  6  1  0
 26 12  1  0
 24 18  1  0
  1 27  1  0
  1 28  1  0
  1 29  1  0
  2 30  1  0
  2 31  1  0
  9 32  1  0
 11 33  1  0
 13 34  1  0
 14 35  1  0
 16 36  1  0
 16 37  1  0
 17 38  1  0
 17 39  1  0
 18 40  1  6
 19 41  1  0
 19 42  1  0
 20 43  1  0
 20 44  1  0
 21 45  1  6
 22 46  1  0
 22 47  1  0
 22 48  1  0
 23 49  1  0
 23 50  1  0
 24 51  1  0
 24 52  1  0
 25 53  1  0
M  CHG  2   9  -1  21   1
M  END
>  <UniqueID>  (98) 
98

>  <SMILES>  (98) 
CCOC(=O)n1c(C([NH-])=O)cc2ccc(CCC3CC[NH+](C)CC3)cc21

>  <Energy>  (98) 
93.12799764230417

>  <Genealogy>  (98) 
CCOC(=O)n1c(C([NH-])=O)cc2ccc(CCC3CC[NH+](C)CC3)cc21 (protonated)
CCOC(=O)n1c(C([NH-])=O)cc2ccc(CCC3CC[NH+](C)CC3)cc21 (3D coordinates assigned)
CCOC(=O)n1c(C([NH-])=O)cc2ccc(CCC3CC[NH+](C)CC3)cc21 (nonaromatic ring conformer: 93.12799764230417 kcal/mol)

>  <smiles>  (98) 
CCOC(=O)n1c(C(N)=O)cc2ccc(CCC3CCN(C)CC3)cc21

>  <score_type>  (98) 
oracle

>  <origin>  (98) 
adg

>  <m_score__min__energy>  (98) 
-11.130000000000001

>  <m_primary>  (98) 
energy

$$$$
98:0
     RDKit          3D

 38 40  0  0  0  0  0  0  0  0999 V2000
   -1.6410   25.7810  -28.9120 N   0  0  0  0  0  0  0  0  0  0  0  0
   -1.0340   24.4910  -28.9640 C   0  0  0  0  0  0  0  0  0  0  0  0
    0.0060   24.2690  -28.2870 O   0  0  0  0  0  0  0  0  0  0  0  0
   -1.5720   23.4300  -29.8410 C   0  0  0  0  0  0  0  0  0  0  0  0
   -0.8440   22.3040  -30.2190 C   0  0  0  0  0  0  0  0  0  0  0  0
   -1.6600   21.6150  -31.0860 C   0  0  0  0  0  0  0  0  0  0  0  0
   -1.4480   20.4080  -31.7460 C   0  0  0  0  0  0  0  0  0  0  0  0
   -2.4860   19.9050  -32.5490 C   0  0  0  0  0  0  0  0  0  0  0  0
   -3.7100   20.6110  -32.6730 C   0  0  0  0  0  0  0  0  0  0  0  0
   -4.8380   20.0320  -33.4840 C   0  0  0  0  0  0  0  0  0  0  0  0
   -5.5670   18.9890  -32.6810 C   0  0  0  0  0  0  0  0  0  0  0  0
   -4.9440   17.9450  -32.3430 O   0  0  0  0  0  0  0  0  0  0  0  0
   -6.9600   19.1230  -32.3410 N   0  0  0  0  0  0  0  0  0  0  0  0
   -7.7510   20.3280  -32.5360 C   0  0  0  0  0  0  0  0  0  0  0  0
   -9.1040   20.0410  -31.8990 C   0  0  0  0  0  0  0  0  0  0  0  0
   -9.1720   18.5260  -31.7240 C   0  0  0  0  0  0  0  0  0  0  0  0
   -7.7300   18.0360  -31.7620 C   0  0  0  0  0  0  0  0  0  0  0  0
   -3.8900   21.8300  -31.9830 C   0  0  0  0  0  0  0  0  0  0  0  0
   -2.8320   22.3170  -31.2060 C   0  0  0  0  0  0  0  0  0  0  0  0
   -2.7960   23.4340  -30.4430 N   0  0  0  0  0  0  0  0  0  0  0  0
   -3.8740   24.3600  -30.2360 C   0  0  0  0  0  0  0  0  0  0  0  0
   -3.8670   25.4840  -30.8040 O   0  0  0  0  0  0  0  0  0  0  0  0
   -4.9500   24.0130  -29.4270 O   0  0  0  0  0  0  0  0  0  0  0  0
   -2.6760   25.8890  -28.9830 H   0  0  0  0  0  0  0  0  0  0  0  0
    0.1689   22.0250  -29.8932 H   0  0  0  0  0  0  0  0  0  0  0  0
   -0.4973   19.8645  -31.6423 H   0  0  0  0  0  0  0  0  0  0  0  0
   -2.3479   18.9551  -33.0863 H   0  0  0  0  0  0  0  0  0  0  0  0
   -5.5380   20.8346  -33.7594 H   0  0  0  0  0  0  0  0  0  0  0  0
   -4.4277   19.5666  -34.3923 H   0  0  0  0  0  0  0  0  0  0  0  0
   -7.2699   21.1862  -32.0441 H   0  0  0  0  0  0  0  0  0  0  0  0
   -7.8498   20.5804  -33.6021 H   0  0  0  0  0  0  0  0  0  0  0  0
   -9.1814   20.5426  -30.9231 H   0  0  0  0  0  0  0  0  0  0  0  0
   -9.9305   20.4127  -32.5224 H   0  0  0  0  0  0  0  0  0  0  0  0
   -9.6369   18.2727  -30.7598 H   0  0  0  0  0  0  0  0  0  0  0  0
   -9.7793   18.0554  -32.5113 H   0  0  0  0  0  0  0  0  0  0  0  0
   -7.3739   17.8129  -30.7454 H   0  0  0  0  0  0  0  0  0  0  0  0
   -7.6311   17.1111  -32.3491 H   0  0  0  0  0  0  0  0  0  0  0  0
   -4.8381   22.3832  -32.0543 H   0  0  0  0  0  0  0  0  0  0  0  0
  1  2  1  0
  2  3  2  0
  2  4  1  0
  4  5  2  0
  5  6  1  0
  6  7  2  0
  7  8  1  0
  8  9  2  0
  9 10  1  0
 10 11  1  0
 11 12  2  0
 11 13  1  0
 13 14  1  0
 14 15  1  0
 15 16  1  0
 16 17  1  0
  9 18  1  0
 18 19  2  0
 19 20  1  0
 20 21  1  0
 21 22  2  0
 21 23  1  0
 20  4  1  0
 19  6  1  0
 17 13  1  0
  1 24  1  0
  5 25  1  0
  7 26  1  0
  8 27  1  0
 10 28  1  0
 10 29  1  0
 14 30  1  0
 14 31  1  0
 15 32  1  0
 15 33  1  0
 16 34  1  0
 16 35  1  0
 17 36  1  0
 17 37  1  0
 18 38  1  0
M  CHG  2   1  -1  23  -1
M  END
>  <UniqueID>  (99) 
99

>  <SMILES>  (99) 
[NH-]C(=O)c1cc2ccc(CC(=O)N3CCCC3)cc2n1C(=O)[O-]

>  <Energy>  (99) 
76.81770003329625

>  <Genealogy>  (99) 
[NH-]C(=O)c1cc2ccc(CC(=O)N3CCCC3)cc2n1C(=O)[O-] (protonated)
[NH-]C(=O)c1cc2ccc(CC(=O)N3CCCC3)cc2n1C(=O)[O-] (3D coordinates assigned)
[NH-]C(=O)c1cc2ccc(CC(=O)N3CCCC3)cc2n1C(=O)[O-] (nonaromatic ring conformer: 76.81770003329625 kcal/mol)

>  <smiles>  (99) 
NC(=O)c1cc2ccc(CC(=O)N3CCCC3)cc2n1C(=O)O

>  <score_type>  (99) 
oracle

>  <origin>  (99) 
adg

>  <m_score__min__energy>  (99) 
-12.210000000000001

>  <m_primary>  (99) 
energy

$$$$
