0:0
     RDKit          3D

 41 42  0  0  0  0  0  0  0  0999 V2000
   -8.8330   22.0500  -31.3540 C   0  0  0  0  0  0  0  0  0  0  0  0
   -7.4200   21.6960  -31.7120 C   0  0  0  0  0  0  0  0  0  0  0  0
   -7.1610   20.8130  -32.7900 C   0  0  0  0  0  0  0  0  0  0  0  0
   -5.8430   20.4600  -33.1230 C   0  0  0  0  0  0  0  0  0  0  0  0
   -4.8120   20.9820  -32.3480 C   0  0  0  0  0  0  0  0  0  0  0  0
   -3.4480   20.8400  -32.4760 C   0  0  0  0  0  0  0  0  0  0  0  0
   -2.9020   21.6010  -31.4440 C   0  0  0  0  0  0  0  0  0  0  0  0
   -1.4490   21.7270  -31.2020 C   0  0  0  0  0  0  0  0  0  0  0  0
   -0.9240   22.7380  -30.3410 N   0  0  0  0  0  0  0  0  0  0  0  0
   -0.6610   20.8970  -31.7300 O   0  0  0  0  0  0  0  0  0  0  0  0
   -3.8850   22.1890  -30.7090 N   0  0  0  0  0  0  0  0  0  0  0  0
   -3.7250   23.1540  -29.6560 C   0  0  0  0  0  0  0  0  0  0  0  0
   -3.8950   22.7920  -28.4620 O   0  0  0  0  0  0  0  0  0  0  0  0
   -3.4160   24.5660  -29.9780 C   0  0  0  0  0  0  0  0  0  0  0  0
   -4.1150   25.1560  -30.8440 O   0  0  0  0  0  0  0  0  0  0  0  0
   -2.3570   25.2990  -29.3460 N   0  0  0  0  0  0  0  0  0  0  0  0
   -1.9980   25.2370  -27.9320 C   0  0  0  0  0  0  0  0  0  0  0  0
   -0.6090   24.6800  -27.7570 C   0  0  0  0  0  0  0  0  0  0  0  0
    0.0970   24.4460  -28.7770 O   0  0  0  0  0  0  0  0  0  0  0  0
   -0.0730   24.4130  -26.4430 N   0  0  0  0  0  0  0  0  0  0  0  0
   -0.8710   24.6770  -25.2410 C   0  0  0  0  0  0  0  0  0  0  0  0
    1.2840   23.8710  -26.3220 C   0  0  0  0  0  0  0  0  0  0  0  0
   -5.0490   21.8070  -31.2790 C   0  0  0  0  0  0  0  0  0  0  0  0
   -6.3500   22.1980  -30.9410 C   0  0  0  0  0  0  0  0  0  0  0  0
   -8.9383   22.0764  -30.2594 H   0  0  0  0  0  0  0  0  0  0  0  0
   -9.0802   23.0378  -31.7701 H   0  0  0  0  0  0  0  0  0  0  0  0
   -9.5167   21.2954  -31.7701 H   0  0  0  0  0  0  0  0  0  0  0  0
   -7.9993   20.4007  -33.3707 H   0  0  0  0  0  0  0  0  0  0  0  0
   -5.6322   19.7913  -33.9706 H   0  0  0  0  0  0  0  0  0  0  0  0
   -2.9057   20.2519  -33.2311 H   0  0  0  0  0  0  0  0  0  0  0  0
    0.1090   22.8440  -30.2300 H   0  0  0  0  0  0  0  0  0  0  0  0
   -1.5490   23.3150  -29.7370 H   0  0  0  0  0  0  0  0  0  0  0  0
   -2.0368   26.2501  -27.5052 H   0  0  0  0  0  0  0  0  0  0  0  0
   -2.7105   24.5768  -27.4158 H   0  0  0  0  0  0  0  0  0  0  0  0
   -0.2636   24.4761  -24.3462 H   0  0  0  0  0  0  0  0  0  0  0  0
   -1.1918   25.7292  -25.2377 H   0  0  0  0  0  0  0  0  0  0  0  0
   -1.7560   24.0238  -25.2377 H   0  0  0  0  0  0  0  0  0  0  0  0
    1.5439   23.7672  -25.2582 H   0  0  0  0  0  0  0  0  0  0  0  0
    1.3300   22.8855  -26.8085 H   0  0  0  0  0  0  0  0  0  0  0  0
    1.9962   24.5537  -26.8085 H   0  0  0  0  0  0  0  0  0  0  0  0
   -6.5334   22.8787  -30.0966 H   0  0  0  0  0  0  0  0  0  0  0  0
  1  2  1  0
  2  3  2  0
  3  4  1  0
  4  5  2  0
  5  6  1  0
  6  7  2  0
  7  8  1  0
  8  9  1  0
  8 10  2  0
  7 11  1  0
 11 12  1  0
 12 13  2  0
 12 14  1  0
 14 15  2  0
 14 16  1  0
 16 17  1  0
 17 18  1  0
 18 19  2  0
 18 20  1  0
 20 21  1  0
 20 22  1  0
 11 23  1  0
 23 24  2  0
 24  2  1  0
 23  5  1  0
  1 25  1  0
  1 26  1  0
  1 27  1  0
  3 28  1  0
  4 29  1  0
  6 30  1  0
  9 31  1  0
  9 32  1  0
 17 33  1  0
 17 34  1  0
 21 35  1  0
 21 36  1  0
 21 37  1  0
 22 38  1  0
 22 39  1  0
 22 40  1  0
 24 41  1  0
M  CHG  1  16  -1
M  END
>  <UniqueID>  (1) 
1

>  <SMILES>  (1) 
Cc1ccc2cc(C(N)=O)n(C(=O)C(=O)[N-]CC(=O)N(C)C)c2c1

>  <Energy>  (1) 
77.83295152476936

>  <Genealogy>  (1) 
Cc1ccc2cc(C(N)=O)n(C(=O)C(=O)[N-]CC(=O)N(C)C)c2c1 (protonated)
Cc1ccc2cc(C(N)=O)n(C(=O)C(=O)[N-]CC(=O)N(C)C)c2c1 (3D coordinates assigned)
Cc1ccc2cc(C(N)=O)n(C(=O)C(=O)[N-]CC(=O)N(C)C)c2c1 (optimized conformer: 77.83295152476936 kcal/mol)

>  <smiles>  (1) 
Cc1ccc2cc(C(N)=O)n(C(=O)C(=O)NCC(=O)N(C)C)c2c1

>  <score_type>  (1) 
oracle

>  <origin>  (1) 
adg

>  <m_score__min__energy>  (1) 
-8.9399999999999995

>  <m_primary>  (1) 
energy

$$$$
1:0
     RDKit          3D

 49 50  0  0  0  0  0  0  0  0999 V2000
   -6.1670   17.3600  -31.3430 C   0  0  0  0  0  0  0  0  0  0  0  0
   -6.4570   18.3050  -32.4300 N   0  0  0  0  0  0  0  0  0  0  0  0
   -6.5290   17.7880  -33.8050 C   0  0  0  0  0  0  0  0  0  0  0  0
   -5.3030   18.1640  -34.5800 C   0  0  0  0  0  0  0  0  0  0  0  0
   -4.9870   17.5290  -35.6200 O   0  0  0  0  0  0  0  0  0  0  0  0
   -4.4870   19.1950  -34.1300 O   0  0  0  0  0  0  0  0  0  0  0  0
   -6.6850   19.7090  -32.1380 C   0  0  0  0  0  0  0  0  0  0  0  0
   -7.9830   20.2810  -32.2660 C   0  0  0  0  0  0  0  0  0  0  0  0
   -8.2110   21.6350  -31.9750 C   0  0  0  0  0  0  0  0  0  0  0  0
   -7.1310   22.4060  -31.5640 C   0  0  0  0  0  0  0  0  0  0  0  0
   -7.0790   23.7320  -31.1980 C   0  0  0  0  0  0  0  0  0  0  0  0
   -5.7460   23.9720  -30.8680 C   0  0  0  0  0  0  0  0  0  0  0  0
   -5.2270   25.3040  -30.4960 C   0  0  0  0  0  0  0  0  0  0  0  0
   -3.8830   25.6570  -30.8180 N   0  0  0  0  0  0  0  0  0  0  0  0
   -5.9430   26.1230  -29.8630 O   0  0  0  0  0  0  0  0  0  0  0  0
   -5.0060   22.8360  -31.0170 N   0  0  0  0  0  0  0  0  0  0  0  0
   -3.6140   22.6420  -30.7240 C   0  0  0  0  0  0  0  0  0  0  0  0
   -2.7410   22.9160  -31.5930 O   0  0  0  0  0  0  0  0  0  0  0  0
   -3.2310   22.1790  -29.4610 O   0  0  0  0  0  0  0  0  0  0  0  0
   -1.8800   21.8820  -29.1260 C   0  0  0  0  0  0  0  0  0  0  0  0
   -0.9880   23.0290  -29.5900 C   0  0  0  0  0  0  0  0  0  0  0  0
   -1.0750   24.4540  -28.5010 S   0  0  0  0  0  0  0  0  0  0  0  0
    0.3260   24.7680  -28.0580 O   0  0  0  0  0  0  0  0  0  0  0  0
   -1.5940   25.6310  -29.2800 O   0  0  0  0  0  0  0  0  0  0  0  0
   -2.0490   24.2070  -27.0660 N   0  0  0  0  0  0  0  0  0  0  0  0
   -3.4760   24.3660  -27.3670 C   0  0  0  0  0  0  0  0  0  0  0  0
   -1.6370   25.1080  -25.9830 C   0  0  0  0  0  0  0  0  0  0  0  0
   -5.8700   21.8890  -31.4460 C   0  0  0  0  0  0  0  0  0  0  0  0
   -5.6150   20.5380  -31.7100 C   0  0  0  0  0  0  0  0  0  0  0  0
   -6.3197   17.8577  -30.3740 H   0  0  0  0  0  0  0  0  0  0  0  0
   -6.8407   16.4939  -31.4206 H   0  0  0  0  0  0  0  0  0  0  0  0
   -5.1235   17.0209  -31.4206 H   0  0  0  0  0  0  0  0  0  0  0  0
   -6.6139   16.6917  -33.7740 H   0  0  0  0  0  0  0  0  0  0  0  0
   -7.4076   18.2264  -34.3008 H   0  0  0  0  0  0  0  0  0  0  0  0
   -8.8211   19.6509  -32.5986 H   0  0  0  0  0  0  0  0  0  0  0  0
   -9.2156   22.0729  -32.0696 H   0  0  0  0  0  0  0  0  0  0  0  0
   -7.9122   24.4497  -31.1715 H   0  0  0  0  0  0  0  0  0  0  0  0
   -3.1060   24.9690  -30.7090 H   0  0  0  0  0  0  0  0  0  0  0  0
   -1.7884   21.7615  -28.0365 H   0  0  0  0  0  0  0  0  0  0  0  0
   -1.5717   20.9489  -29.6203 H   0  0  0  0  0  0  0  0  0  0  0  0
    0.0528   22.6745  -29.6242 H   0  0  0  0  0  0  0  0  0  0  0  0
   -1.3411   23.3456  -30.5825 H   0  0  0  0  0  0  0  0  0  0  0  0
   -4.0441   24.4293  -26.4272 H   0  0  0  0  0  0  0  0  0  0  0  0
   -3.6275   25.2866  -27.9497 H   0  0  0  0  0  0  0  0  0  0  0  0
   -3.8264   23.5013  -27.9497 H   0  0  0  0  0  0  0  0  0  0  0  0
   -1.8523   24.6372  -25.0124 H   0  0  0  0  0  0  0  0  0  0  0  0
   -0.5582   25.3075  -26.0625 H   0  0  0  0  0  0  0  0  0  0  0  0
   -2.1918   26.0545  -26.0625 H   0  0  0  0  0  0  0  0  0  0  0  0
   -4.6025   20.1257  -31.5878 H   0  0  0  0  0  0  0  0  0  0  0  0
  1  2  1  0
  2  3  1  0
  3  4  1  0
  4  5  2  0
  4  6  1  0
  2  7  1  0
  7  8  2  0
  8  9  1  0
  9 10  2  0
 10 11  1  0
 11 12  2  0
 12 13  1  0
 13 14  1  0
 13 15  2  0
 12 16  1  0
 16 17  1  0
 17 18  2  0
 17 19  1  0
 19 20  1  0
 20 21  1  0
 21 22  1  0
 22 23  2  0
 22 24  2  0
 22 25  1  0
 25 26  1  0
 25 27  1  0
 16 28  1  0
 28 29  2  0
 29  7  1  0
 28 10  1  0
  1 30  1  0
  1 31  1  0
  1 32  1  0
  3 33  1  0
  3 34  1  0
  8 35  1  0
  9 36  1  0
 11 37  1  0
 14 38  1  0
 20 39  1  0
 20 40  1  0
 21 41  1  0
 21 42  1  0
 26 43  1  0
 26 44  1  0
 26 45  1  0
 27 46  1  0
 27 47  1  0
 27 48  1  0
 29 49  1  0
M  CHG  2   6  -1  14  -1
M  END
>  <UniqueID>  (2) 
2

>  <SMILES>  (2) 
CN(CC(=O)[O-])c1ccc2cc(C([NH-])=O)n(C(=O)OCCS(=O)(=O)N(C)C)c2c1

>  <Energy>  (2) 
80.21193562435174

>  <Genealogy>  (2) 
CN(CC(=O)[O-])c1ccc2cc(C([NH-])=O)n(C(=O)OCCS(=O)(=O)N(C)C)c2c1 (protonated)
CN(CC(=O)[O-])c1ccc2cc(C([NH-])=O)n(C(=O)OCCS(=O)(=O)N(C)C)c2c1 (3D coordinates assigned)
CN(CC(=O)[O-])c1ccc2cc(C([NH-])=O)n(C(=O)OCCS(=O)(=O)N(C)C)c2c1 (optimized conformer: 80.21193562435174 kcal/mol)

>  <smiles>  (2) 
CN(CC(=O)O)c1ccc2cc(C(N)=O)n(C(=O)OCCS(=O)(=O)N(C)C)c2c1

>  <score_type>  (2) 
oracle

>  <origin>  (2) 
adg

>  <m_score__min__energy>  (2) 
-11.460000000000001

>  <m_primary>  (2) 
energy

$$$$
2:0
     RDKit          3D

 41 43  0  0  0  0  0  0  0  0999 V2000
   -7.7370   20.5700  -32.7050 C   0  0  0  0  0  0  0  0  0  0  0  0
   -7.9300   19.1810  -32.2770 N   0  0  0  0  0  0  0  0  0  0  0  0
   -9.0480   18.8300  -31.3980 C   0  0  0  0  0  0  0  0  0  0  0  0
   -7.1240   18.1250  -32.8380 C   0  0  0  0  0  0  0  0  0  0  0  0
   -7.6180   16.9720  -32.9780 O   0  0  0  0  0  0  0  0  0  0  0  0
   -5.7270   18.3560  -33.2680 C   0  0  0  0  0  0  0  0  0  0  0  0
   -5.2650   17.8580  -34.4940 C   0  0  0  0  0  0  0  0  0  0  0  0
   -3.9500   18.0920  -34.8980 C   0  0  0  0  0  0  0  0  0  0  0  0
   -3.0870   18.8360  -34.0890 C   0  0  0  0  0  0  0  0  0  0  0  0
   -3.5370   19.3630  -32.8660 C   0  0  0  0  0  0  0  0  0  0  0  0
   -2.6250   20.1610  -32.0080 C   0  0  0  0  0  0  0  0  0  0  0  0
   -1.3380   19.6640  -31.6730 C   0  0  0  0  0  0  0  0  0  0  0  0
   -0.4720   20.4040  -30.8520 C   0  0  0  0  0  0  0  0  0  0  0  0
   -0.9100   21.6400  -30.3880 C   0  0  0  0  0  0  0  0  0  0  0  0
   -0.2870   22.5460  -29.5610 C   0  0  0  0  0  0  0  0  0  0  0  0
   -1.1860   23.5990  -29.4210 C   0  0  0  0  0  0  0  0  0  0  0  0
   -0.8770   24.8360  -28.6740 C   0  0  0  0  0  0  0  0  0  0  0  0
   -1.5840   26.0470  -28.9330 N   0  0  0  0  0  0  0  0  0  0  0  0
    0.0570   24.8380  -27.8290 O   0  0  0  0  0  0  0  0  0  0  0  0
   -2.3270   23.3510  -30.1260 N   0  0  0  0  0  0  0  0  0  0  0  0
   -3.5260   24.1430  -30.1730 C   0  0  0  0  0  0  0  0  0  0  0  0
   -3.5070   25.2960  -30.6760 O   0  0  0  0  0  0  0  0  0  0  0  0
   -4.7110   23.6520  -29.6400 O   0  0  0  0  0  0  0  0  0  0  0  0
   -2.1410   22.1480  -30.7140 C   0  0  0  0  0  0  0  0  0  0  0  0
   -3.0320   21.4230  -31.5140 C   0  0  0  0  0  0  0  0  0  0  0  0
   -4.8650   19.1220  -32.4660 C   0  0  0  0  0  0  0  0  0  0  0  0
   -7.6471   21.2172  -31.8201 H   0  0  0  0  0  0  0  0  0  0  0  0
   -6.8200   20.6438  -33.3080 H   0  0  0  0  0  0  0  0  0  0  0  0
   -8.5992   20.8910  -33.3080 H   0  0  0  0  0  0  0  0  0  0  0  0
   -8.7341   18.9286  -30.3484 H   0  0  0  0  0  0  0  0  0  0  0  0
   -9.8938   19.5058  -31.5928 H   0  0  0  0  0  0  0  0  0  0  0  0
   -9.3557   17.7920  -31.5928 H   0  0  0  0  0  0  0  0  0  0  0  0
   -5.9419   17.2802  -35.1405 H   0  0  0  0  0  0  0  0  0  0  0  0
   -3.5914   17.6893  -35.8568 H   0  0  0  0  0  0  0  0  0  0  0  0
   -2.0497   19.0102  -34.4110 H   0  0  0  0  0  0  0  0  0  0  0  0
   -1.0152   18.6868  -32.0615 H   0  0  0  0  0  0  0  0  0  0  0  0
    0.5226   20.0180  -30.5839 H   0  0  0  0  0  0  0  0  0  0  0  0
    0.7108   22.4569  -29.1065 H   0  0  0  0  0  0  0  0  0  0  0  0
   -2.6280   26.0620  -28.9660 H   0  0  0  0  0  0  0  0  0  0  0  0
   -4.0272   21.8257  -31.7535 H   0  0  0  0  0  0  0  0  0  0  0  0
   -5.2314   19.5377  -31.5158 H   0  0  0  0  0  0  0  0  0  0  0  0
  1  2  1  0
  2  3  1  0
  2  4  1  0
  4  5  2  0
  4  6  1  0
  6  7  2  0
  7  8  1  0
  8  9  2  0
  9 10  1  0
 10 11  1  0
 11 12  2  0
 12 13  1  0
 13 14  2  0
 14 15  1  0
 15 16  2  0
 16 17  1  0
 17 18  1  0
 17 19  2  0
 16 20  1  0
 20 21  1  0
 21 22  2  0
 21 23  1  0
 20 24  1  0
 24 25  2  0
 10 26  2  0
 26  6  1  0
 25 11  1  0
 24 14  1  0
  1 27  1  0
  1 28  1  0
  1 29  1  0
  3 30  1  0
  3 31  1  0
  3 32  1  0
  7 33  1  0
  8 34  1  0
  9 35  1  0
 12 36  1  0
 13 37  1  0
 15 38  1  0
 18 39  1  0
 25 40  1  0
 26 41  1  0
M  CHG  2  18  -1  23  -1
M  END
>  <UniqueID>  (3) 
3

>  <SMILES>  (3) 
CN(C)C(=O)c1cccc(-c2ccc3cc(C([NH-])=O)n(C(=O)[O-])c3c2)c1

>  <Energy>  (3) 
91.85376611456769

>  <Genealogy>  (3) 
CN(C)C(=O)c1cccc(-c2ccc3cc(C([NH-])=O)n(C(=O)[O-])c3c2)c1 (protonated)
CN(C)C(=O)c1cccc(-c2ccc3cc(C([NH-])=O)n(C(=O)[O-])c3c2)c1 (3D coordinates assigned)
CN(C)C(=O)c1cccc(-c2ccc3cc(C([NH-])=O)n(C(=O)[O-])c3c2)c1 (optimized conformer: 91.85376611456769 kcal/mol)

>  <smiles>  (3) 
CN(C)C(=O)c1cccc(-c2ccc3cc(C(N)=O)n(C(=O)O)c3c2)c1

>  <score_type>  (3) 
oracle

>  <origin>  (3) 
adg

>  <m_score__min__energy>  (3) 
-12.619999999999999

>  <m_primary>  (3) 
energy

$$$$
3:0
     RDKit          3D

 40 41  0  0  0  0  0  0  0  0999 V2000
   -4.1370   24.1650  -28.4990 C   0  0  0  0  0  0  0  0  0  0  0  0
   -4.6160   24.6030  -29.6280 C   0  0  0  0  0  0  0  0  0  0  0  0
   -3.6460   25.2570  -30.4490 O   0  0  0  0  0  0  0  0  0  0  0  0
   -5.9440   24.5250  -30.1490 C   0  0  0  0  0  0  0  0  0  0  0  0
   -6.7030   25.5510  -29.9500 O   0  0  0  0  0  0  0  0  0  0  0  0
   -6.5520   23.4690  -30.8590 N   0  0  0  0  0  0  0  0  0  0  0  0
   -7.5600   22.5740  -30.3250 C   0  0  0  0  0  0  0  0  0  0  0  0
   -6.1330   23.2260  -32.2960 C   0  0  0  0  0  0  0  0  0  0  0  0
   -4.8950   22.4510  -32.2870 C   0  0  0  0  0  0  0  0  0  0  0  0
   -3.8920   23.1240  -31.8190 O   0  0  0  0  0  0  0  0  0  0  0  0
   -4.6440   21.1370  -32.6950 N   0  0  0  0  0  0  0  0  0  0  0  0
   -3.4940   20.5410  -33.1100 C   0  0  0  0  0  0  0  0  0  0  0  0
   -2.1640   21.0740  -33.2480 C   0  0  0  0  0  0  0  0  0  0  0  0
   -1.5440   21.6850  -32.0820 N   0  0  0  0  0  0  0  0  0  0  0  0
   -1.4300   21.0940  -34.2510 O   0  0  0  0  0  0  0  0  0  0  0  0
   -3.7860   19.2060  -33.4110 C   0  0  0  0  0  0  0  0  0  0  0  0
   -5.1030   18.9920  -33.1820 C   0  0  0  0  0  0  0  0  0  0  0  0
   -5.8610   17.8510  -33.3270 C   0  0  0  0  0  0  0  0  0  0  0  0
   -7.1970   17.8520  -33.0340 C   0  0  0  0  0  0  0  0  0  0  0  0
   -7.7560   19.0230  -32.5920 C   0  0  0  0  0  0  0  0  0  0  0  0
   -9.2150   19.0440  -32.2660 C   0  0  0  0  0  0  0  0  0  0  0  0
   -9.6180   17.8640  -31.6720 F   0  0  0  0  0  0  0  0  0  0  0  0
   -9.4410   20.0680  -31.3710 F   0  0  0  0  0  0  0  0  0  0  0  0
   -9.9430   19.2860  -33.4290 F   0  0  0  0  0  0  0  0  0  0  0  0
   -6.9800   20.1740  -32.4470 C   0  0  0  0  0  0  0  0  0  0  0  0
   -5.6240   20.1830  -32.7410 C   0  0  0  0  0  0  0  0  0  0  0  0
   -4.7949   23.6447  -27.7873 H   0  0  0  0  0  0  0  0  0  0  0  0
   -3.0745   24.3154  -28.2570 H   0  0  0  0  0  0  0  0  0  0  0  0
   -3.4850   24.9340  -31.4010 H   0  0  0  0  0  0  0  0  0  0  0  0
   -7.5293   22.6013  -29.2258 H   0  0  0  0  0  0  0  0  0  0  0  0
   -8.5540   22.8925  -30.6721 H   0  0  0  0  0  0  0  0  0  0  0  0
   -7.3614   21.5492  -30.6721 H   0  0  0  0  0  0  0  0  0  0  0  0
   -6.9191   22.6655  -32.8231 H   0  0  0  0  0  0  0  0  0  0  0  0
   -5.9769   24.1844  -32.8129 H   0  0  0  0  0  0  0  0  0  0  0  0
   -0.5690   21.3940  -31.8290 H   0  0  0  0  0  0  0  0  0  0  0  0
   -2.0560   22.3940  -31.5120 H   0  0  0  0  0  0  0  0  0  0  0  0
   -3.0666   18.4566  -33.7728 H   0  0  0  0  0  0  0  0  0  0  0  0
   -5.3850   16.9257  -33.6836 H   0  0  0  0  0  0  0  0  0  0  0  0
   -7.8038   16.9418  -33.1494 H   0  0  0  0  0  0  0  0  0  0  0  0
   -7.4563   21.0990  -32.0900 H   0  0  0  0  0  0  0  0  0  0  0  0
  1  2  2  0
  2  3  1  0
  2  4  1  0
  4  5  2  0
  4  6  1  0
  6  7  1  0
  6  8  1  0
  8  9  1  0
  9 10  2  0
  9 11  1  0
 11 12  1  0
 12 13  1  0
 13 14  1  0
 13 15  2  0
 12 16  2  0
 16 17  1  0
 17 18  2  0
 18 19  1  0
 19 20  2  0
 20 21  1  0
 21 22  1  0
 21 23  1  0
 21 24  1  0
 20 25  1  0
 25 26  2  0
 26 11  1  0
 26 17  1  0
  1 27  1  0
  1 28  1  0
  3 29  1  0
  7 30  1  0
  7 31  1  0
  7 32  1  0
  8 33  1  0
  8 34  1  0
 14 35  1  0
 14 36  1  0
 16 37  1  0
 18 38  1  0
 19 39  1  0
 25 40  1  0
M  END
>  <smiles>  (4) 
C=C(O)C(=O)N(C)CC(=O)n1c(C(N)=O)cc2ccc(C(F)(F)F)cc21

>  <score_type>  (4) 
oracle

>  <origin>  (4) 
adg

>  <m_score__min__energy>  (4) 
-9.1199999999999992

>  <m_primary>  (4) 
energy

$$$$
4:0
     RDKit          3D

 41 43  0  0  0  0  0  0  0  0999 V2000
   -2.0360   22.4420  -27.1850 C   0  0  0  0  0  0  0  0  0  0  0  0
   -2.8450   23.0270  -28.3580 C   0  0  0  0  0  0  0  0  0  0  0  0
   -4.0160   23.8650  -27.8050 C   0  0  0  0  0  0  0  0  0  0  0  0
   -3.3810   21.6260  -29.4490 S   0  0  0  0  0  0  0  0  0  0  0  0
   -4.0620   22.5420  -30.8410 C   0  0  0  0  0  0  0  0  0  0  0  0
   -3.2550   23.1010  -31.6300 O   0  0  0  0  0  0  0  0  0  0  0  0
   -5.4860   22.7320  -31.0230 N   0  0  0  0  0  0  0  0  0  0  0  0
   -6.1510   23.9210  -30.9130 C   0  0  0  0  0  0  0  0  0  0  0  0
   -5.5900   25.1830  -30.3830 C   0  0  0  0  0  0  0  0  0  0  0  0
   -4.2450   25.5600  -30.6830 N   0  0  0  0  0  0  0  0  0  0  0  0
   -6.3100   25.9590  -29.7010 O   0  0  0  0  0  0  0  0  0  0  0  0
   -7.4900   23.7800  -31.2530 C   0  0  0  0  0  0  0  0  0  0  0  0
   -7.6480   22.4530  -31.5610 C   0  0  0  0  0  0  0  0  0  0  0  0
   -8.7950   21.7720  -31.9490 C   0  0  0  0  0  0  0  0  0  0  0  0
   -8.6920   20.3980  -32.2020 C   0  0  0  0  0  0  0  0  0  0  0  0
   -7.4550   19.7230  -32.0660 C   0  0  0  0  0  0  0  0  0  0  0  0
   -7.4410   18.2310  -32.3570 C   0  0  0  0  0  0  0  0  0  0  0  0
   -6.1950   17.4500  -31.9650 C   0  0  0  0  0  0  0  0  0  0  0  0
   -6.4830   17.7410  -33.4330 C   0  0  0  0  0  0  0  0  0  0  0  0
   -6.3060   20.4570  -31.6660 C   0  0  0  0  0  0  0  0  0  0  0  0
   -6.4320   21.8320  -31.4130 C   0  0  0  0  0  0  0  0  0  0  0  0
   -1.9670   23.9380  -29.1890 C   0  0  0  0  0  0  0  0  0  0  0  0
   -0.9570   23.4710  -29.7810 O   0  0  0  0  0  0  0  0  0  0  0  0
   -2.2860   25.2830  -29.3640 O   0  0  0  0  0  0  0  0  0  0  0  0
   -2.4834   22.7655  -26.2336 H   0  0  0  0  0  0  0  0  0  0  0  0
   -2.0497   21.3436  -27.2419 H   0  0  0  0  0  0  0  0  0  0  0  0
   -0.9972   22.7992  -27.2419 H   0  0  0  0  0  0  0  0  0  0  0  0
   -3.9920   23.8478  -26.7054 H   0  0  0  0  0  0  0  0  0  0  0  0
   -3.9229   24.9028  -28.1576 H   0  0  0  0  0  0  0  0  0  0  0  0
   -4.9682   23.4420  -28.1576 H   0  0  0  0  0  0  0  0  0  0  0  0
   -3.6110   24.9230  -31.2140 H   0  0  0  0  0  0  0  0  0  0  0  0
   -3.8680   26.4740  -30.3440 H   0  0  0  0  0  0  0  0  0  0  0  0
   -8.2599   24.5654  -31.2714 H   0  0  0  0  0  0  0  0  0  0  0  0
   -9.7562   22.2964  -32.0545 H   0  0  0  0  0  0  0  0  0  0  0  0
   -9.5853   19.8353  -32.5108 H   0  0  0  0  0  0  0  0  0  0  0  0
   -8.5183   18.1215  -32.1638 H   0  0  0  0  0  0  0  0  0  0  0  0
   -5.3637   17.9597  -31.4559 H   0  0  0  0  0  0  0  0  0  0  0  0
   -5.9991   16.5422  -31.3756 H   0  0  0  0  0  0  0  0  0  0  0  0
   -5.8596   18.4608  -33.9837 H   0  0  0  0  0  0  0  0  0  0  0  0
   -6.5811   17.1302  -34.3426 H   0  0  0  0  0  0  0  0  0  0  0  0
   -5.3331   19.9556  -31.5563 H   0  0  0  0  0  0  0  0  0  0  0  0
  1  2  1  0
  2  3  1  0
  2  4  1  0
  4  5  1  0
  5  6  2  0
  5  7  1  0
  7  8  1  0
  8  9  1  0
  9 10  1  0
  9 11  2  0
  8 12  2  0
 12 13  1  0
 13 14  2  0
 14 15  1  0
 15 16  2  0
 16 17  1  0
 17 18  1  0
 18 19  1  0
 16 20  1  0
 20 21  2  0
  2 22  1  0
 22 23  2  0
 22 24  1  0
 21  7  1  0
 21 13  1  0
 19 17  1  0
  1 25  1  0
  1 26  1  0
  1 27  1  0
  3 28  1  0
  3 29  1  0
  3 30  1  0
 10 31  1  0
 10 32  1  0
 12 33  1  0
 14 34  1  0
 15 35  1  0
 17 36  1  0
 18 37  1  0
 18 38  1  0
 19 39  1  0
 19 40  1  0
 20 41  1  0
M  CHG  1  24  -1
M  END
>  <UniqueID>  (5) 
4

>  <SMILES>  (5) 
CC(C)(SC(=O)n1c(C(N)=O)cc2ccc(C3CC3)cc21)C(=O)[O-]

>  <Energy>  (5) 
350.93064402969566

>  <Genealogy>  (5) 
CC(C)(SC(=O)n1c(C(N)=O)cc2ccc(C3CC3)cc21)C(=O)[O-] (protonated)
CC(C)(SC(=O)n1c(C(N)=O)cc2ccc(C3CC3)cc21)C(=O)[O-] (3D coordinates assigned)
CC(C)(SC(=O)n1c(C(N)=O)cc2ccc(C3CC3)cc21)C(=O)[O-] (nonaromatic ring conformer: 350.93064402969566 kcal/mol)

>  <smiles>  (5) 
CC(C)(SC(=O)n1c(C(N)=O)cc2ccc(C3CC3)cc21)C(=O)O

>  <score_type>  (5) 
oracle

>  <origin>  (5) 
adg

>  <m_score__min__energy>  (5) 
-11.85

>  <m_primary>  (5) 
energy

$$$$
5:0
     RDKit          3D

 37 38  0  0  0  0  0  0  0  0999 V2000
    0.6610   22.1400  -35.6630 C   0  0  0  0  0  0  0  0  0  0  0  0
    0.1520   21.9280  -34.3650 O   0  0  0  0  0  0  0  0  0  0  0  0
   -0.7750   20.8650  -34.3930 C   0  0  0  0  0  0  0  0  0  0  0  0
   -1.1140   20.4340  -32.9670 C   0  0  0  0  0  0  0  0  0  0  0  0
   -1.6850   21.5450  -32.2120 N   0  0  0  0  0  0  0  0  0  0  0  0
   -3.0390   21.9910  -32.3480 C   0  0  0  0  0  0  0  0  0  0  0  0
   -3.6700   21.7940  -33.4220 O   0  0  0  0  0  0  0  0  0  0  0  0
   -3.6970   22.6750  -31.2250 C   0  0  0  0  0  0  0  0  0  0  0  0
   -3.0060   23.0960  -30.2590 O   0  0  0  0  0  0  0  0  0  0  0  0
   -5.1210   22.8640  -31.2140 N   0  0  0  0  0  0  0  0  0  0  0  0
   -5.8050   24.0100  -30.9410 C   0  0  0  0  0  0  0  0  0  0  0  0
   -5.2140   25.2820  -30.4760 C   0  0  0  0  0  0  0  0  0  0  0  0
   -3.8890   25.6560  -30.8440 N   0  0  0  0  0  0  0  0  0  0  0  0
   -5.8790   26.0400  -29.7180 O   0  0  0  0  0  0  0  0  0  0  0  0
   -7.1740   23.8100  -31.1150 C   0  0  0  0  0  0  0  0  0  0  0  0
   -7.3050   22.4970  -31.5060 C   0  0  0  0  0  0  0  0  0  0  0  0
   -8.4430   21.7710  -31.8430 C   0  0  0  0  0  0  0  0  0  0  0  0
   -8.2770   20.4360  -32.2510 C   0  0  0  0  0  0  0  0  0  0  0  0
   -6.9850   19.8500  -32.3060 C   0  0  0  0  0  0  0  0  0  0  0  0
   -6.8140   18.4360  -32.8030 C   0  0  0  0  0  0  0  0  0  0  0  0
   -5.8060   17.8210  -32.0840 F   0  0  0  0  0  0  0  0  0  0  0  0
   -7.9860   17.7170  -32.6430 F   0  0  0  0  0  0  0  0  0  0  0  0
   -6.4820   18.4280  -34.1460 F   0  0  0  0  0  0  0  0  0  0  0  0
   -5.8520   20.6300  -31.9800 C   0  0  0  0  0  0  0  0  0  0  0  0
   -6.0510   21.9490  -31.5600 C   0  0  0  0  0  0  0  0  0  0  0  0
    1.6745   22.5621  -35.5950 H   0  0  0  0  0  0  0  0  0  0  0  0
    0.6981   21.1825  -36.2032 H   0  0  0  0  0  0  0  0  0  0  0  0
    0.0074   22.8407  -36.2032 H   0  0  0  0  0  0  0  0  0  0  0  0
   -1.6926   21.1944  -34.9025 H   0  0  0  0  0  0  0  0  0  0  0  0
   -0.3348   20.0143  -34.9338 H   0  0  0  0  0  0  0  0  0  0  0  0
   -1.8420   19.6102  -33.0026 H   0  0  0  0  0  0  0  0  0  0  0  0
   -0.1898   20.1067  -32.4683 H   0  0  0  0  0  0  0  0  0  0  0  0
   -3.0620   25.2760  -30.3340 H   0  0  0  0  0  0  0  0  0  0  0  0
   -7.9788   24.5458  -30.9704 H   0  0  0  0  0  0  0  0  0  0  0  0
   -9.4424   22.2278  -31.7917 H   0  0  0  0  0  0  0  0  0  0  0  0
   -9.1576   19.8390  -32.5306 H   0  0  0  0  0  0  0  0  0  0  0  0
   -4.8383   20.2096  -32.0549 H   0  0  0  0  0  0  0  0  0  0  0  0
  1  2  1  0
  2  3  1  0
  3  4  1  0
  4  5  1  0
  5  6  1  0
  6  7  2  0
  6  8  1  0
  8  9  2  0
  8 10  1  0
 10 11  1  0
 11 12  1  0
 12 13  1  0
 12 14  2  0
 11 15  2  0
 15 16  1  0
 16 17  2  0
 17 18  1  0
 18 19  2  0
 19 20  1  0
 20 21  1  0
 20 22  1  0
 20 23  1  0
 19 24  1  0
 24 25  2  0
 25 10  1  0
 25 16  1  0
  1 26  1  0
  1 27  1  0
  1 28  1  0
  3 29  1  0
  3 30  1  0
  4 31  1  0
  4 32  1  0
 13 33  1  0
 15 34  1  0
 17 35  1  0
 18 36  1  0
 24 37  1  0
M  CHG  2   5  -1  13  -1
M  END
>  <UniqueID>  (6) 
5

>  <SMILES>  (6) 
COCC[N-]C(=O)C(=O)n1c(C([NH-])=O)cc2ccc(C(F)(F)F)cc21

>  <Energy>  (6) 
73.93570519901047

>  <Genealogy>  (6) 
COCC[N-]C(=O)C(=O)n1c(C([NH-])=O)cc2ccc(C(F)(F)F)cc21 (protonated)
COCC[N-]C(=O)C(=O)n1c(C([NH-])=O)cc2ccc(C(F)(F)F)cc21 (3D coordinates assigned)
COCC[N-]C(=O)C(=O)n1c(C([NH-])=O)cc2ccc(C(F)(F)F)cc21 (optimized conformer: 73.93570519901047 kcal/mol)

>  <smiles>  (6) 
COCCNC(=O)C(=O)n1c(C(N)=O)cc2ccc(C(F)(F)F)cc21

>  <score_type>  (6) 
oracle

>  <origin>  (6) 
adg

>  <m_score__min__energy>  (6) 
-10.23

>  <m_primary>  (6) 
energy

$$$$
6:0
     RDKit          3D

 35 36  0  0  0  0  0  0  0  0999 V2000
   -4.1850   18.9240  -34.2610 N   0  0  0  0  0  0  0  0  0  0  0  0
   -3.3030   19.0010  -33.5140 C   0  0  0  0  0  0  0  0  0  0  0  0
   -2.1900   19.1000  -32.5680 C   0  0  0  0  0  0  0  0  0  0  0  0
   -1.7490   20.8100  -32.3320 S   0  0  0  0  0  0  0  0  0  0  0  0
   -1.4350   21.5730  -33.7950 O   0  0  0  0  0  0  0  0  0  0  0  0
   -3.0090   21.6730  -31.4100 C   0  0  0  0  0  0  0  0  0  0  0  0
   -4.1490   22.0860  -32.3000 C   0  0  0  0  0  0  0  0  0  0  0  0
   -3.9270   22.3070  -33.5200 O   0  0  0  0  0  0  0  0  0  0  0  0
   -5.4850   22.2280  -31.7830 N   0  0  0  0  0  0  0  0  0  0  0  0
   -5.9670   23.2290  -30.9900 C   0  0  0  0  0  0  0  0  0  0  0  0
   -5.2170   24.4130  -30.5150 C   0  0  0  0  0  0  0  0  0  0  0  0
   -5.5050   25.0350  -29.2630 N   0  0  0  0  0  0  0  0  0  0  0  0
   -4.2710   24.8620  -31.2160 O   0  0  0  0  0  0  0  0  0  0  0  0
   -7.2770   22.9590  -30.6010 C   0  0  0  0  0  0  0  0  0  0  0  0
   -7.5850   21.7460  -31.1700 C   0  0  0  0  0  0  0  0  0  0  0  0
   -8.7360   20.9740  -31.0490 C   0  0  0  0  0  0  0  0  0  0  0  0
   -8.7480   19.7070  -31.6560 C   0  0  0  0  0  0  0  0  0  0  0  0
   -7.6100   19.2340  -32.3530 C   0  0  0  0  0  0  0  0  0  0  0  0
   -7.6060   17.8510  -32.9340 C   0  0  0  0  0  0  0  0  0  0  0  0
   -6.4970   17.1610  -32.4770 F   0  0  0  0  0  0  0  0  0  0  0  0
   -6.4510   20.0350  -32.4340 C   0  0  0  0  0  0  0  0  0  0  0  0
   -6.4820   21.3160  -31.8640 C   0  0  0  0  0  0  0  0  0  0  0  0
   -2.4903   18.6639  -31.6038 H   0  0  0  0  0  0  0  0  0  0  0  0
   -1.3234   18.5533  -32.9682 H   0  0  0  0  0  0  0  0  0  0  0  0
   -2.3170   21.6270  -34.2400 H   0  0  0  0  0  0  0  0  0  0  0  0
   -3.3926   21.0104  -30.6201 H   0  0  0  0  0  0  0  0  0  0  0  0
   -2.5622   22.5788  -30.9742 H   0  0  0  0  0  0  0  0  0  0  0  0
   -4.9960   25.9020  -28.9800 H   0  0  0  0  0  0  0  0  0  0  0  0
   -6.1330   24.5830  -28.5680 H   0  0  0  0  0  0  0  0  0  0  0  0
   -7.9275   23.5841  -29.9716 H   0  0  0  0  0  0  0  0  0  0  0  0
   -9.6108   21.3446  -30.4945 H   0  0  0  0  0  0  0  0  0  0  0  0
   -9.6480   19.0780  -31.5893 H   0  0  0  0  0  0  0  0  0  0  0  0
   -8.5197   17.3215  -32.6261 H   0  0  0  0  0  0  0  0  0  0  0  0
   -7.5710   17.9149  -34.0316 H   0  0  0  0  0  0  0  0  0  0  0  0
   -5.5439   19.6631  -32.9329 H   0  0  0  0  0  0  0  0  0  0  0  0
  1  2  3  0
  2  3  1  0
  3  4  1  0
  4  5  1  6
  4  6  1  0
  6  7  1  0
  7  8  2  0
  7  9  1  0
  9 10  1  0
 10 11  1  0
 11 12  1  0
 11 13  2  0
 10 14  2  0
 14 15  1  0
 15 16  2  0
 16 17  1  0
 17 18  2  0
 18 19  1  0
 19 20  1  0
 18 21  1  0
 21 22  2  0
 22  9  1  0
 22 15  1  0
  3 23  1  0
  3 24  1  0
  5 25  1  0
  6 26  1  0
  6 27  1  0
 12 28  1  0
 12 29  1  0
 14 30  1  0
 16 31  1  0
 17 32  1  0
 19 33  1  0
 19 34  1  0
 21 35  1  0
M  CHG  1   4   1
M  END
>  <UniqueID>  (7) 
6

>  <SMILES>  (7) 
N#CC[S@@+](O)CC(=O)n1c(C(N)=O)cc2ccc(CF)cc21

>  <Energy>  (7) 
66.75681200539043

>  <Genealogy>  (7) 
N#CC[S+](O)CC(=O)n1c(C(N)=O)cc2ccc(CF)cc21 (protonated)
N#CC[S@@+](O)CC(=O)n1c(C(N)=O)cc2ccc(CF)cc21 (chirality)
N#CC[S@@+](O)CC(=O)n1c(C(N)=O)cc2ccc(CF)cc21 (3D coordinates assigned)
N#CC[S@@+](O)CC(=O)n1c(C(N)=O)cc2ccc(CF)cc21 (optimized conformer: 66.75681200539043 kcal/mol)

>  <smiles>  (7) 
N#CC[S+]([O-])CC(=O)n1c(C(N)=O)cc2ccc(CF)cc21

>  <score_type>  (7) 
oracle

>  <origin>  (7) 
adg

>  <m_score__min__energy>  (7) 
-7.9500000000000002

>  <m_primary>  (7) 
energy

$$$$
7:0
     RDKit          3D

 36 37  0  0  0  0  0  0  0  0999 V2000
   -7.1220   17.6140  -32.8230 C   0  0  0  0  0  0  0  0  0  0  0  0
   -6.6070   18.6910  -33.6710 N   0  0  0  0  0  0  0  0  0  0  0  0
   -6.7860   19.9650  -33.0220 C   0  0  0  0  0  0  0  0  0  0  0  0
   -8.0890   20.4300  -32.7060 C   0  0  0  0  0  0  0  0  0  0  0  0
   -8.2710   21.6500  -32.0360 C   0  0  0  0  0  0  0  0  0  0  0  0
   -7.1400   22.3840  -31.6940 C   0  0  0  0  0  0  0  0  0  0  0  0
   -7.0320   23.5740  -31.0130 C   0  0  0  0  0  0  0  0  0  0  0  0
   -5.6650   23.8310  -30.9340 C   0  0  0  0  0  0  0  0  0  0  0  0
   -5.1070   25.0640  -30.3450 C   0  0  0  0  0  0  0  0  0  0  0  0
   -3.8910   25.6240  -30.8340 N   0  0  0  0  0  0  0  0  0  0  0  0
   -5.7390   25.6620  -29.4330 O   0  0  0  0  0  0  0  0  0  0  0  0
   -4.9530   22.8350  -31.5360 N   0  0  0  0  0  0  0  0  0  0  0  0
   -3.5260   22.6730  -31.5710 C   0  0  0  0  0  0  0  0  0  0  0  0
   -2.8100   23.1960  -30.6730 O   0  0  0  0  0  0  0  0  0  0  0  0
   -2.9310   21.9610  -32.6210 O   0  0  0  0  0  0  0  0  0  0  0  0
   -2.3540   20.6650  -32.4650 C   0  0  2  0  0  0  0  0  0  0  0  0
   -0.8670   20.8130  -32.1580 C   0  0  0  0  0  0  0  0  0  0  0  0
   -2.5440   19.8510  -33.7130 C   0  0  0  0  0  0  0  0  0  0  0  0
   -1.6390   19.8180  -34.5880 O   0  0  0  0  0  0  0  0  0  0  0  0
   -3.7240   19.1490  -33.9190 O   0  0  0  0  0  0  0  0  0  0  0  0
   -5.8730   21.9560  -31.9970 C   0  0  0  0  0  0  0  0  0  0  0  0
   -5.6600   20.7350  -32.6470 C   0  0  0  0  0  0  0  0  0  0  0  0
   -6.9919   17.8861  -31.7652 H   0  0  0  0  0  0  0  0  0  0  0  0
   -8.1908   17.4609  -33.0334 H   0  0  0  0  0  0  0  0  0  0  0  0
   -6.5702   16.6859  -33.0334 H   0  0  0  0  0  0  0  0  0  0  0  0
   -7.1150   18.6790  -34.5870 H   0  0  0  0  0  0  0  0  0  0  0  0
   -5.5920   18.5220  -33.8640 H   0  0  0  0  0  0  0  0  0  0  0  0
   -8.9653   19.8283  -32.9890 H   0  0  0  0  0  0  0  0  0  0  0  0
   -9.2788   22.0150  -31.7886 H   0  0  0  0  0  0  0  0  0  0  0  0
   -7.8508   24.1915  -30.6153 H   0  0  0  0  0  0  0  0  0  0  0  0
   -2.9670   25.2980  -30.4750 H   0  0  0  0  0  0  0  0  0  0  0  0
   -2.8530   20.1444  -31.6344 H   0  0  0  0  0  0  0  0  0  0  0  0
   -0.7173   20.8279  -31.0683 H   0  0  0  0  0  0  0  0  0  0  0  0
   -0.3168   19.9652  -32.5922 H   0  0  0  0  0  0  0  0  0  0  0  0
   -0.4947   21.7526  -32.5922 H   0  0  0  0  0  0  0  0  0  0  0  0
   -4.6404   20.3821  -32.8614 H   0  0  0  0  0  0  0  0  0  0  0  0
  1  2  1  0
  2  3  1  0
  3  4  2  0
  4  5  1  0
  5  6  2  0
  6  7  1  0
  7  8  2  0
  8  9  1  0
  9 10  1  0
  9 11  2  0
  8 12  1  0
 12 13  1  0
 13 14  2  0
 13 15  1  0
 15 16  1  0
 16 17  1  0
 16 18  1  0
 18 19  2  0
 18 20  1  0
 12 21  1  0
 21 22  2  0
 22  3  1  0
 21  6  1  0
  1 23  1  0
  1 24  1  0
  1 25  1  0
  2 26  1  0
  2 27  1  0
  4 28  1  0
  5 29  1  0
  7 30  1  0
 10 31  1  0
 16 32  1  1
 17 33  1  0
 17 34  1  0
 17 35  1  0
 22 36  1  0
M  CHG  3   2   1  10  -1  20  -1
M  END
>  <UniqueID>  (8) 
7

>  <SMILES>  (8) 
C[NH2+]c1ccc2cc(C([NH-])=O)n(C(=O)O[C@H](C)C(=O)[O-])c2c1

>  <Energy>  (8) 
70.58490902063339

>  <Genealogy>  (8) 
C[NH2+]c1ccc2cc(C([NH-])=O)n(C(=O)OC(C)C(=O)[O-])c2c1 (protonated)
C[NH2+]c1ccc2cc(C([NH-])=O)n(C(=O)O[C@H](C)C(=O)[O-])c2c1 (chirality)
C[NH2+]c1ccc2cc(C([NH-])=O)n(C(=O)O[C@H](C)C(=O)[O-])c2c1 (3D coordinates assigned)
C[NH2+]c1ccc2cc(C([NH-])=O)n(C(=O)O[C@H](C)C(=O)[O-])c2c1 (optimized conformer: 70.58490902063339 kcal/mol)

>  <smiles>  (8) 
CNc1ccc2cc(C(N)=O)n(C(=O)OC(C)C(=O)O)c2c1

>  <score_type>  (8) 
oracle

>  <origin>  (8) 
adg

>  <m_score__min__energy>  (8) 
-11.5

>  <m_primary>  (8) 
energy

$$$$
8:0
     RDKit          3D

 46 47  0  0  0  0  0  0  0  0999 V2000
   -0.9490   20.9420  -31.6810 C   0  0  0  0  0  0  0  0  0  0  0  0
   -1.2680   19.7460  -32.4660 N   0  0  0  0  0  0  0  0  0  0  0  0
   -0.6120   18.4670  -32.1830 C   0  0  0  0  0  0  0  0  0  0  0  0
   -2.2070   19.8300  -33.5500 C   0  0  0  0  0  0  0  0  0  0  0  0
   -2.7390   20.9380  -33.8390 O   0  0  0  0  0  0  0  0  0  0  0  0
   -2.5180   18.6820  -34.2910 O   0  0  0  0  0  0  0  0  0  0  0  0
   -3.8340   18.1430  -34.4080 C   0  0  0  0  0  0  0  0  0  0  0  0
   -4.4980   18.0490  -33.0320 C   0  0  0  0  0  0  0  0  0  0  0  0
   -5.9370   18.3530  -33.1120 N   0  0  0  0  0  0  0  0  0  0  0  0
   -6.8670   17.2840  -33.4930 C   0  0  0  0  0  0  0  0  0  0  0  0
   -6.4550   19.6350  -32.6870 C   0  0  0  0  0  0  0  0  0  0  0  0
   -7.8530   19.8960  -32.7260 C   0  0  0  0  0  0  0  0  0  0  0  0
   -8.3730   21.1200  -32.2780 C   0  0  0  0  0  0  0  0  0  0  0  0
   -7.4800   22.0710  -31.7980 C   0  0  0  0  0  0  0  0  0  0  0  0
   -7.7100   23.3420  -31.3210 C   0  0  0  0  0  0  0  0  0  0  0  0
   -6.4520   23.8510  -31.0020 C   0  0  0  0  0  0  0  0  0  0  0  0
   -6.2130   25.1850  -30.4010 C   0  0  0  0  0  0  0  0  0  0  0  0
   -5.1330   26.0080  -30.8450 N   0  0  0  0  0  0  0  0  0  0  0  0
   -6.9760   25.6140  -29.4960 O   0  0  0  0  0  0  0  0  0  0  0  0
   -5.4870   22.9260  -31.2660 N   0  0  0  0  0  0  0  0  0  0  0  0
   -4.0660   23.0850  -31.1260 C   0  0  0  0  0  0  0  0  0  0  0  0
   -3.3020   22.6890  -32.0460 O   0  0  0  0  0  0  0  0  0  0  0  0
   -3.4880   23.7200  -29.9320 C   0  0  0  0  0  0  0  0  0  0  0  0
   -3.4080   23.0850  -28.8480 O   0  0  0  0  0  0  0  0  0  0  0  0
   -3.0420   25.0340  -29.9890 O   0  0  0  0  0  0  0  0  0  0  0  0
   -6.1310   21.8460  -31.7590 C   0  0  0  0  0  0  0  0  0  0  0  0
   -5.5810   20.6470  -32.2220 C   0  0  0  0  0  0  0  0  0  0  0  0
   -1.0123   20.7045  -30.6088 H   0  0  0  0  0  0  0  0  0  0  0  0
    0.0702   21.2781  -31.9225 H   0  0  0  0  0  0  0  0  0  0  0  0
   -1.6654   21.7410  -31.9225 H   0  0  0  0  0  0  0  0  0  0  0  0
   -0.5392   18.3252  -31.0946 H   0  0  0  0  0  0  0  0  0  0  0  0
   -1.2013   17.6479  -32.6209 H   0  0  0  0  0  0  0  0  0  0  0  0
    0.3971   18.4676  -32.6209 H   0  0  0  0  0  0  0  0  0  0  0  0
   -4.4363   18.7957  -35.0570 H   0  0  0  0  0  0  0  0  0  0  0  0
   -3.7685   17.1342  -34.8415 H   0  0  0  0  0  0  0  0  0  0  0  0
   -4.3681   17.0294  -32.6400 H   0  0  0  0  0  0  0  0  0  0  0  0
   -4.0236   18.7846  -32.3658 H   0  0  0  0  0  0  0  0  0  0  0  0
   -7.2762   16.8137  -32.5867 H   0  0  0  0  0  0  0  0  0  0  0  0
   -7.6886   17.7079  -34.0890 H   0  0  0  0  0  0  0  0  0  0  0  0
   -6.3334   16.5289  -34.0890 H   0  0  0  0  0  0  0  0  0  0  0  0
   -8.5369   19.1264  -33.1133 H   0  0  0  0  0  0  0  0  0  0  0  0
   -9.4542   21.3207  -32.3058 H   0  0  0  0  0  0  0  0  0  0  0  0
   -8.6806   23.8484  -31.2143 H   0  0  0  0  0  0  0  0  0  0  0  0
   -5.0000   26.9590  -30.4350 H   0  0  0  0  0  0  0  0  0  0  0  0
   -4.4360   25.6680  -31.5430 H   0  0  0  0  0  0  0  0  0  0  0  0
   -4.4918   20.4931  -32.2249 H   0  0  0  0  0  0  0  0  0  0  0  0
  1  2  1  0
  2  3  1  0
  2  4  1  0
  4  5  2  0
  4  6  1  0
  6  7  1  0
  7  8  1  0
  8  9  1  0
  9 10  1  0
  9 11  1  0
 11 12  2  0
 12 13  1  0
 13 14  2  0
 14 15  1  0
 15 16  2  0
 16 17  1  0
 17 18  1  0
 17 19  2  0
 16 20  1  0
 20 21  1  0
 21 22  2  0
 21 23  1  0
 23 24  2  0
 23 25  1  0
 20 26  1  0
 26 27  2  0
 27 11  1  0
 26 14  1  0
  1 28  1  0
  1 29  1  0
  1 30  1  0
  3 31  1  0
  3 32  1  0
  3 33  1  0
  7 34  1  0
  7 35  1  0
  8 36  1  0
  8 37  1  0
 10 38  1  0
 10 39  1  0
 10 40  1  0
 12 41  1  0
 13 42  1  0
 15 43  1  0
 18 44  1  0
 18 45  1  0
 27 46  1  0
M  CHG  1  25  -1
M  END
>  <UniqueID>  (9) 
8

>  <SMILES>  (9) 
CN(C)C(=O)OCCN(C)c1ccc2cc(C(N)=O)n(C(=O)C(=O)[O-])c2c1

>  <Energy>  (9) 
78.57697782482595

>  <Genealogy>  (9) 
CN(C)C(=O)OCCN(C)c1ccc2cc(C(N)=O)n(C(=O)C(=O)[O-])c2c1 (protonated)
CN(C)C(=O)OCCN(C)c1ccc2cc(C(N)=O)n(C(=O)C(=O)[O-])c2c1 (3D coordinates assigned)
CN(C)C(=O)OCCN(C)c1ccc2cc(C(N)=O)n(C(=O)C(=O)[O-])c2c1 (optimized conformer: 78.57697782482595 kcal/mol)

>  <smiles>  (9) 
CN(C)C(=O)OCCN(C)c1ccc2cc(C(N)=O)n(C(=O)C(=O)O)c2c1

>  <score_type>  (9) 
oracle

>  <origin>  (9) 
adg

>  <m_score__min__energy>  (9) 
-9.2200000000000006

>  <m_primary>  (9) 
energy

$$$$
9:0
     RDKit          3D

 35 36  0  0  0  0  0  0  0  0999 V2000
   -5.7630   17.9950  -35.1480 N   0  0  0  0  0  0  0  0  0  0  0  0
   -4.4180   18.1880  -34.7090 C   0  0  0  0  0  0  0  0  0  0  0  0
   -3.5210   17.3950  -35.0970 O   0  0  0  0  0  0  0  0  0  0  0  0
   -4.0760   19.2620  -33.7560 C   0  0  0  0  0  0  0  0  0  0  0  0
   -2.7700   19.6780  -33.5110 C   0  0  0  0  0  0  0  0  0  0  0  0
   -2.8730   20.6290  -32.5220 C   0  0  0  0  0  0  0  0  0  0  0  0
   -1.8810   21.3810  -31.9000 C   0  0  0  0  0  0  0  0  0  0  0  0
   -2.2740   22.3180  -30.9320 C   0  0  0  0  0  0  0  0  0  0  0  0
   -3.6440   22.5020  -30.6170 C   0  0  0  0  0  0  0  0  0  0  0  0
   -4.0480   23.4980  -29.5620 C   0  0  1  0  0  0  0  0  0  0  0  0
   -3.5930   23.0910  -28.3190 F   0  0  0  0  0  0  0  0  0  0  0  0
   -3.4960   24.8490  -29.8920 C   0  0  0  0  0  0  0  0  0  0  0  0
   -2.4380   25.2570  -29.3410 O   0  0  0  0  0  0  0  0  0  0  0  0
   -4.1200   25.6390  -30.8500 O   0  0  0  0  0  0  0  0  0  0  0  0
   -4.6230   21.7120  -31.2630 C   0  0  0  0  0  0  0  0  0  0  0  0
   -4.2010   20.7680  -32.2090 C   0  0  0  0  0  0  0  0  0  0  0  0
   -4.9560   19.9340  -32.9620 N   0  0  0  0  0  0  0  0  0  0  0  0
   -6.3910   19.8770  -33.0120 C   0  0  0  0  0  0  0  0  0  0  0  0
   -7.0480   20.8650  -33.4410 O   0  0  0  0  0  0  0  0  0  0  0  0
   -7.0540   18.7140  -32.6030 O   0  0  0  0  0  0  0  0  0  0  0  0
   -8.0160   18.6860  -31.5480 C   0  0  0  0  0  0  0  0  0  0  0  0
   -9.1340   19.7010  -31.7950 C   0  0  0  0  0  0  0  0  0  0  0  0
   -9.5350   19.6770  -33.1380 O   0  0  0  0  0  0  0  0  0  0  0  0
   -5.9850   17.2510  -35.8460 H   0  0  0  0  0  0  0  0  0  0  0  0
   -6.5500   18.5350  -34.7250 H   0  0  0  0  0  0  0  0  0  0  0  0
   -1.8525   19.3225  -34.0028 H   0  0  0  0  0  0  0  0  0  0  0  0
   -0.8207   21.2451  -32.1593 H   0  0  0  0  0  0  0  0  0  0  0  0
   -1.5110   22.9160  -30.4122 H   0  0  0  0  0  0  0  0  0  0  0  0
   -5.1461   23.5575  -29.5353 H   0  0  0  0  0  0  0  0  0  0  0  0
   -5.6906   21.8355  -31.0285 H   0  0  0  0  0  0  0  0  0  0  0  0
   -8.4527   17.6783  -31.4867 H   0  0  0  0  0  0  0  0  0  0  0  0
   -7.5098   18.9459  -30.6066 H   0  0  0  0  0  0  0  0  0  0  0  0
   -9.9947   19.4532  -31.1564 H   0  0  0  0  0  0  0  0  0  0  0  0
   -8.7589   20.7068  -31.5551 H   0  0  0  0  0  0  0  0  0  0  0  0
   -8.7210   19.5000  -33.6760 H   0  0  0  0  0  0  0  0  0  0  0  0
  1  2  1  0
  2  3  2  0
  2  4  1  0
  4  5  2  0
  5  6  1  0
  6  7  2  0
  7  8  1  0
  8  9  2  0
  9 10  1  0
 10 11  1  0
 10 12  1  0
 12 13  2  0
 12 14  1  0
  9 15  1  0
 15 16  2  0
 16 17  1  0
 17 18  1  0
 18 19  2  0
 18 20  1  0
 20 21  1  0
 21 22  1  0
 22 23  1  0
 17  4  1  0
 16  6  1  0
  1 24  1  0
  1 25  1  0
  5 26  1  0
  7 27  1  0
  8 28  1  0
 10 29  1  1
 15 30  1  0
 21 31  1  0
 21 32  1  0
 22 33  1  0
 22 34  1  0
 23 35  1  0
M  CHG  1  14  -1
M  END
>  <UniqueID>  (10) 
9

>  <SMILES>  (10) 
NC(=O)c1cc2ccc([C@@H](F)C(=O)[O-])cc2n1C(=O)OCCO

>  <Energy>  (10) 
69.86065383097488

>  <Genealogy>  (10) 
NC(=O)c1cc2ccc(C(F)C(=O)[O-])cc2n1C(=O)OCCO (protonated)
NC(=O)c1cc2ccc([C@@H](F)C(=O)[O-])cc2n1C(=O)OCCO (chirality)
NC(=O)c1cc2ccc([C@@H](F)C(=O)[O-])cc2n1C(=O)OCCO (3D coordinates assigned)
NC(=O)c1cc2ccc([C@@H](F)C(=O)[O-])cc2n1C(=O)OCCO (optimized conformer: 69.86065383097488 kcal/mol)

>  <smiles>  (10) 
NC(=O)c1cc2ccc(C(F)C(=O)O)cc2n1C(=O)OCCO

>  <score_type>  (10) 
oracle

>  <origin>  (10) 
adg

>  <m_score__min__energy>  (10) 
-8.6099999999999994

>  <m_primary>  (10) 
energy

$$$$
10:0
     RDKit          3D

 52 54  0  0  0  0  0  0  0  0999 V2000
   -0.5650   22.3250  -30.3300 C   0  0  0  0  0  0  0  0  0  0  0  0
   -1.4920   23.1200  -29.4090 C   0  0  2  0  0  0  0  0  0  0  0  0
   -2.7610   23.3270  -30.0320 O   0  0  0  0  0  0  0  0  0  0  0  0
   -3.8470   22.4550  -29.8930 C   0  0  0  0  0  0  0  0  0  0  0  0
   -3.7760   21.4690  -29.1090 O   0  0  0  0  0  0  0  0  0  0  0  0
   -5.0600   22.7060  -30.6200 N   0  0  0  0  0  0  0  0  0  0  0  0
   -5.6990   23.9000  -30.7820 C   0  0  0  0  0  0  0  0  0  0  0  0
   -5.1740   25.2250  -30.3980 C   0  0  0  0  0  0  0  0  0  0  0  0
   -3.8960   25.6650  -30.8480 N   0  0  0  0  0  0  0  0  0  0  0  0
   -5.8850   26.0010  -29.7040 O   0  0  0  0  0  0  0  0  0  0  0  0
   -6.9080   23.7200  -31.4500 C   0  0  0  0  0  0  0  0  0  0  0  0
   -6.9900   22.3700  -31.7020 C   0  0  0  0  0  0  0  0  0  0  0  0
   -7.9880   21.6370  -32.3380 C   0  0  0  0  0  0  0  0  0  0  0  0
   -7.8220   20.2460  -32.4360 C   0  0  0  0  0  0  0  0  0  0  0  0
   -6.6780   19.6160  -31.8870 C   0  0  0  0  0  0  0  0  0  0  0  0
   -6.5080   18.1250  -32.0180 C   0  0  0  0  0  0  0  0  0  0  0  0
   -5.9900   17.7620  -33.3860 C   0  0  0  0  0  0  0  0  0  0  0  0
   -6.8030   17.3380  -34.2550 O   0  0  0  0  0  0  0  0  0  0  0  0
   -4.5990   17.9180  -33.7340 N   0  0  0  0  0  0  0  0  0  0  0  0
   -3.7280   18.8470  -33.0020 C   0  0  0  0  0  0  0  0  0  0  0  0
   -2.6120   19.3670  -33.9200 C   0  0  0  0  0  0  0  0  0  0  0  0
   -1.8330   18.2850  -34.5770 N   0  0  0  0  0  0  0  0  0  0  0  0
   -0.5120   18.1180  -33.9510 C   0  0  0  0  0  0  0  0  0  0  0  0
   -2.5310   16.9810  -34.6650 C   0  0  0  0  0  0  0  0  0  0  0  0
   -4.0410   17.1490  -34.8510 C   0  0  0  0  0  0  0  0  0  0  0  0
   -5.6800   20.3930  -31.2570 C   0  0  0  0  0  0  0  0  0  0  0  0
   -5.8620   21.7790  -31.1910 C   0  0  0  0  0  0  0  0  0  0  0  0
   -0.8770   24.4490  -29.0920 C   0  0  0  0  0  0  0  0  0  0  0  0
    0.2830   24.5140  -28.6070 O   0  0  0  0  0  0  0  0  0  0  0  0
   -1.6060   25.6160  -29.2890 O   0  0  0  0  0  0  0  0  0  0  0  0
    0.1312   21.7279  -29.7228 H   0  0  0  0  0  0  0  0  0  0  0  0
   -1.1645   21.6559  -30.9648 H   0  0  0  0  0  0  0  0  0  0  0  0
    0.0049   23.0195  -30.9648 H   0  0  0  0  0  0  0  0  0  0  0  0
   -1.6359   22.5456  -28.4820 H   0  0  0  0  0  0  0  0  0  0  0  0
   -3.0190   25.2950  -30.4210 H   0  0  0  0  0  0  0  0  0  0  0  0
   -7.6421   24.4938  -31.7192 H   0  0  0  0  0  0  0  0  0  0  0  0
   -8.8792   22.1321  -32.7511 H   0  0  0  0  0  0  0  0  0  0  0  0
   -8.5871   19.6402  -32.9436 H   0  0  0  0  0  0  0  0  0  0  0  0
   -5.7938   17.7756  -31.2578 H   0  0  0  0  0  0  0  0  0  0  0  0
   -7.4872   17.6451  -31.8737 H   0  0  0  0  0  0  0  0  0  0  0  0
   -4.3260   19.6966  -32.6407 H   0  0  0  0  0  0  0  0  0  0  0  0
   -3.2739   18.3170  -32.1518 H   0  0  0  0  0  0  0  0  0  0  0  0
   -3.0674   19.9924  -34.7020 H   0  0  0  0  0  0  0  0  0  0  0  0
   -1.9111   19.9331  -33.2889 H   0  0  0  0  0  0  0  0  0  0  0  0
   -0.6206   18.1317  -32.8565 H   0  0  0  0  0  0  0  0  0  0  0  0
   -0.0766   17.1577  -34.2643 H   0  0  0  0  0  0  0  0  0  0  0  0
    0.1487   18.9398  -34.2643 H   0  0  0  0  0  0  0  0  0  0  0  0
   -2.1282   16.4199  -35.5211 H   0  0  0  0  0  0  0  0  0  0  0  0
   -2.3633   16.4420  -33.7209 H   0  0  0  0  0  0  0  0  0  0  0  0
   -4.2353   17.6817  -35.7936 H   0  0  0  0  0  0  0  0  0  0  0  0
   -4.5149   16.1567  -34.8800 H   0  0  0  0  0  0  0  0  0  0  0  0
   -4.7832   19.9207  -30.8295 H   0  0  0  0  0  0  0  0  0  0  0  0
  1  2  1  0
  2  3  1  0
  3  4  1  0
  4  5  2  0
  4  6  1  0
  6  7  1  0
  7  8  1  0
  8  9  1  0
  8 10  2  0
  7 11  2  0
 11 12  1  0
 12 13  2  0
 13 14  1  0
 14 15  2  0
 15 16  1  0
 16 17  1  0
 17 18  2  0
 17 19  1  0
 19 20  1  0
 20 21  1  0
 21 22  1  0
 22 23  1  0
 22 24  1  0
 24 25  1  0
 15 26  1  0
 26 27  2  0
  2 28  1  0
 28 29  2  0
 28 30  1  0
 27  6  1  0
 27 12  1  0
 25 19  1  0
  1 31  1  0
  1 32  1  0
  1 33  1  0
  2 34  1  1
  9 35  1  0
 11 36  1  0
 13 37  1  0
 14 38  1  0
 16 39  1  0
 16 40  1  0
 20 41  1  0
 20 42  1  0
 21 43  1  0
 21 44  1  0
 23 45  1  0
 23 46  1  0
 23 47  1  0
 24 48  1  0
 24 49  1  0
 25 50  1  0
 25 51  1  0
 26 52  1  0
M  CHG  2   9  -1  30  -1
M  END
>  <UniqueID>  (11) 
10

>  <SMILES>  (11) 
C[C@H](OC(=O)n1c(C([NH-])=O)cc2ccc(CC(=O)N3CCN(C)CC3)cc21)C(=O)[O-]

>  <Energy>  (11) 
94.2128245991534

>  <Genealogy>  (11) 
CC(OC(=O)n1c(C([NH-])=O)cc2ccc(CC(=O)N3CCN(C)CC3)cc21)C(=O)[O-] (protonated)
C[C@H](OC(=O)n1c(C([NH-])=O)cc2ccc(CC(=O)N3CCN(C)CC3)cc21)C(=O)[O-] (chirality)
C[C@H](OC(=O)n1c(C([NH-])=O)cc2ccc(CC(=O)N3CCN(C)CC3)cc21)C(=O)[O-] (3D coordinates assigned)
C[C@H](OC(=O)n1c(C([NH-])=O)cc2ccc(CC(=O)N3CCN(C)CC3)cc21)C(=O)[O-] (nonaromatic ring conformer: 94.2128245991534 kcal/mol)

>  <smiles>  (11) 
CC(OC(=O)n1c(C(N)=O)cc2ccc(CC(=O)N3CCN(C)CC3)cc21)C(=O)O

>  <score_type>  (11) 
oracle

>  <origin>  (11) 
adg

>  <m_score__min__energy>  (11) 
-13.720000000000001

>  <m_primary>  (11) 
energy

$$$$
11:0
     RDKit          3D

 44 46  0  0  0  0  0  0  0  0999 V2000
   -3.8490   25.3230  -30.8750 N   0  0  0  0  0  0  0  0  0  0  0  0
   -5.2370   25.2480  -30.5630 C   0  0  0  0  0  0  0  0  0  0  0  0
   -5.8030   26.2390  -30.0300 O   0  0  0  0  0  0  0  0  0  0  0  0
   -6.0260   24.0380  -30.8830 C   0  0  0  0  0  0  0  0  0  0  0  0
   -7.4180   23.9850  -30.8190 C   0  0  0  0  0  0  0  0  0  0  0  0
   -7.7550   22.7200  -31.2430 C   0  0  0  0  0  0  0  0  0  0  0  0
   -9.0050   22.1210  -31.3800 C   0  0  0  0  0  0  0  0  0  0  0  0
   -9.0520   20.7910  -31.8320 C   0  0  0  0  0  0  0  0  0  0  0  0
   -7.8580   20.0820  -32.1140 C   0  0  0  0  0  0  0  0  0  0  0  0
   -7.9180   18.6730  -32.6360 C   0  0  0  0  0  0  0  0  0  0  0  0
   -6.5460   18.2220  -33.0580 C   0  0  0  0  0  0  0  0  0  0  0  0
   -5.9990   18.6520  -34.2760 C   0  0  0  0  0  0  0  0  0  0  0  0
   -4.7420   18.1850  -34.6690 C   0  0  0  0  0  0  0  0  0  0  0  0
   -4.0570   17.3150  -33.8790 N   0  0  0  0  0  0  0  0  0  0  0  0
   -4.5700   16.8740  -32.6980 C   0  0  0  0  0  0  0  0  0  0  0  0
   -5.8240   17.3150  -32.2690 C   0  0  0  0  0  0  0  0  0  0  0  0
   -6.6090   20.7230  -31.9650 C   0  0  0  0  0  0  0  0  0  0  0  0
   -6.5950   22.0550  -31.5400 C   0  0  0  0  0  0  0  0  0  0  0  0
   -5.5250   22.8530  -31.3310 N   0  0  0  0  0  0  0  0  0  0  0  0
   -4.1470   22.4830  -31.4890 C   0  0  0  0  0  0  0  0  0  0  0  0
   -3.7490   22.0200  -32.5920 O   0  0  0  0  0  0  0  0  0  0  0  0
   -3.1930   22.6400  -30.3820 C   0  0  0  0  0  0  0  0  0  0  0  0
   -1.9620   22.7670  -30.6260 O   0  0  0  0  0  0  0  0  0  0  0  0
   -3.6640   22.6490  -29.0650 O   0  0  0  0  0  0  0  0  0  0  0  0
   -3.7320   23.8290  -28.2650 C   0  0  0  0  0  0  0  0  0  0  0  0
   -2.3360   24.3880  -27.9990 C   0  0  0  0  0  0  0  0  0  0  0  0
   -1.9090   25.1430  -29.0970 O   0  0  0  0  0  0  0  0  0  0  0  0
   -3.1680   24.6450  -30.4650 H   0  0  0  0  0  0  0  0  0  0  0  0
   -8.1016   24.7847  -30.4978 H   0  0  0  0  0  0  0  0  0  0  0  0
   -9.9269   22.6718  -31.1418 H   0  0  0  0  0  0  0  0  0  0  0  0
  -10.0248   20.2959  -31.9681 H   0  0  0  0  0  0  0  0  0  0  0  0
   -8.2931   18.0071  -31.8449 H   0  0  0  0  0  0  0  0  0  0  0  0
   -8.5927   18.6378  -33.5041 H   0  0  0  0  0  0  0  0  0  0  0  0
   -6.5554   19.3516  -34.9170 H   0  0  0  0  0  0  0  0  0  0  0  0
   -4.3049   18.5221  -35.6205 H   0  0  0  0  0  0  0  0  0  0  0  0
   -3.1190   16.9750  -34.1870 H   0  0  0  0  0  0  0  0  0  0  0  0
   -3.9956   16.1685  -32.0797 H   0  0  0  0  0  0  0  0  0  0  0  0
   -6.2425   16.9531  -31.3183 H   0  0  0  0  0  0  0  0  0  0  0  0
   -5.6714   20.1885  -32.1777 H   0  0  0  0  0  0  0  0  0  0  0  0
   -4.3293   24.5876  -28.7921 H   0  0  0  0  0  0  0  0  0  0  0  0
   -4.1981   23.5743  -27.3017 H   0  0  0  0  0  0  0  0  0  0  0  0
   -2.3635   25.0279  -27.1047 H   0  0  0  0  0  0  0  0  0  0  0  0
   -1.6364   23.5546  -27.8380 H   0  0  0  0  0  0  0  0  0  0  0  0
   -2.0390   24.5680  -29.8940 H   0  0  0  0  0  0  0  0  0  0  0  0
  1  2  1  0
  2  3  2  0
  2  4  1  0
  4  5  2  0
  5  6  1  0
  6  7  2  0
  7  8  1  0
  8  9  2  0
  9 10  1  0
 10 11  1  0
 11 12  2  0
 12 13  1  0
 13 14  2  0
 14 15  1  0
 15 16  2  0
  9 17  1  0
 17 18  2  0
 18 19  1  0
 19 20  1  0
 20 21  2  0
 20 22  1  0
 22 23  2  0
 22 24  1  0
 24 25  1  0
 25 26  1  0
 26 27  1  0
 19  4  1  0
 18  6  1  0
 16 11  1  0
  1 28  1  0
  5 29  1  0
  7 30  1  0
  8 31  1  0
 10 32  1  0
 10 33  1  0
 12 34  1  0
 13 35  1  0
 14 36  1  0
 15 37  1  0
 16 38  1  0
 17 39  1  0
 25 40  1  0
 25 41  1  0
 26 42  1  0
 26 43  1  0
 27 44  1  0
M  CHG  2   1  -1  14   1
M  END
>  <UniqueID>  (12) 
11

>  <SMILES>  (12) 
[NH-]C(=O)c1cc2ccc(Cc3cc[nH+]cc3)cc2n1C(=O)C(=O)OCCO

>  <Energy>  (12) 
79.42046813292042

>  <Genealogy>  (12) 
[NH-]C(=O)c1cc2ccc(Cc3cc[nH+]cc3)cc2n1C(=O)C(=O)OCCO (protonated)
[NH-]C(=O)c1cc2ccc(Cc3cc[nH+]cc3)cc2n1C(=O)C(=O)OCCO (3D coordinates assigned)
[NH-]C(=O)c1cc2ccc(Cc3cc[nH+]cc3)cc2n1C(=O)C(=O)OCCO (optimized conformer: 79.42046813292042 kcal/mol)

>  <smiles>  (12) 
NC(=O)c1cc2ccc(Cc3ccncc3)cc2n1C(=O)C(=O)OCCO

>  <score_type>  (12) 
oracle

>  <origin>  (12) 
adg

>  <m_score__min__energy>  (12) 
-10.35

>  <m_primary>  (12) 
energy

$$$$
12:0
     RDKit          3D

 38 39  0  0  0  0  0  0  0  0999 V2000
   -7.8780   21.0490  -32.1550 C   0  0  0  0  0  0  0  0  0  0  0  0
   -7.8980   19.9900  -33.1050 O   0  0  0  0  0  0  0  0  0  0  0  0
   -7.8550   18.6430  -32.7330 C   0  0  0  0  0  0  0  0  0  0  0  0
   -8.4400   18.2560  -31.6820 O   0  0  0  0  0  0  0  0  0  0  0  0
   -7.0960   17.7110  -33.5370 N   0  0  2  0  0  0  0  0  0  0  0  0
   -6.4720   16.6640  -32.7070 C   0  0  0  0  0  0  0  0  0  0  0  0
   -6.1170   18.4120  -34.3970 C   0  0  0  0  0  0  0  0  0  0  0  0
   -5.0810   19.1280  -33.6290 C   0  0  0  0  0  0  0  0  0  0  0  0
   -4.2390   19.7120  -32.9960 C   0  0  0  0  0  0  0  0  0  0  0  0
   -3.2260   20.4040  -32.2440 C   0  0  0  0  0  0  0  0  0  0  0  0
   -1.9300   19.8490  -32.1330 C   0  0  0  0  0  0  0  0  0  0  0  0
   -0.9350   20.5080  -31.3920 C   0  0  0  0  0  0  0  0  0  0  0  0
   -1.2660   21.7180  -30.7870 C   0  0  0  0  0  0  0  0  0  0  0  0
   -0.5070   22.5470  -29.9930 C   0  0  0  0  0  0  0  0  0  0  0  0
   -1.3470   23.6060  -29.6560 C   0  0  0  0  0  0  0  0  0  0  0  0
   -0.9000   24.7780  -28.8740 C   0  0  0  0  0  0  0  0  0  0  0  0
   -1.6040   26.0140  -28.9360 N   0  0  0  0  0  0  0  0  0  0  0  0
    0.1490   24.7000  -28.1790 O   0  0  0  0  0  0  0  0  0  0  0  0
   -2.5810   23.4350  -30.2110 N   0  0  0  0  0  0  0  0  0  0  0  0
   -3.7500   24.2520  -30.0340 C   0  0  0  0  0  0  0  0  0  0  0  0
   -3.8620   25.3440  -30.6530 O   0  0  0  0  0  0  0  0  0  0  0  0
   -4.7550   23.8590  -29.1600 O   0  0  0  0  0  0  0  0  0  0  0  0
   -2.5140   22.2760  -30.9030 C   0  0  0  0  0  0  0  0  0  0  0  0
   -3.5300   21.6310  -31.6190 C   0  0  0  0  0  0  0  0  0  0  0  0
   -7.8859   20.6296  -31.1381 H   0  0  0  0  0  0  0  0  0  0  0  0
   -6.9683   21.6511  -32.2962 H   0  0  0  0  0  0  0  0  0  0  0  0
   -8.7643   21.6850  -32.2962 H   0  0  0  0  0  0  0  0  0  0  0  0
   -7.7720   17.2260  -34.1740 H   0  0  0  0  0  0  0  0  0  0  0  0
   -6.6157   16.9051  -31.6434 H   0  0  0  0  0  0  0  0  0  0  0  0
   -6.9389   15.6931  -32.9292 H   0  0  0  0  0  0  0  0  0  0  0  0
   -5.3959   16.6128  -32.9292 H   0  0  0  0  0  0  0  0  0  0  0  0
   -5.6242   17.6704  -35.0429 H   0  0  0  0  0  0  0  0  0  0  0  0
   -6.6707   19.1626  -34.9801 H   0  0  0  0  0  0  0  0  0  0  0  0
   -1.6996   18.8952  -32.6301 H   0  0  0  0  0  0  0  0  0  0  0  0
    0.0741   20.0816  -31.2927 H   0  0  0  0  0  0  0  0  0  0  0  0
    0.5404   22.4039  -29.6890 H   0  0  0  0  0  0  0  0  0  0  0  0
   -2.6480   26.0370  -28.9780 H   0  0  0  0  0  0  0  0  0  0  0  0
   -4.5364   22.0689  -31.6918 H   0  0  0  0  0  0  0  0  0  0  0  0
  1  2  1  0
  2  3  1  0
  3  4  2  0
  3  5  1  0
  5  6  1  0
  5  7  1  0
  7  8  1  0
  8  9  3  0
  9 10  1  0
 10 11  2  0
 11 12  1  0
 12 13  2  0
 13 14  1  0
 14 15  2  0
 15 16  1  0
 16 17  1  0
 16 18  2  0
 15 19  1  0
 19 20  1  0
 20 21  2  0
 20 22  1  0
 19 23  1  0
 23 24  2  0
 24 10  1  0
 23 13  1  0
  1 25  1  0
  1 26  1  0
  1 27  1  0
  5 28  1  6
  6 29  1  0
  6 30  1  0
  6 31  1  0
  7 32  1  0
  7 33  1  0
 11 34  1  0
 12 35  1  0
 14 36  1  0
 17 37  1  0
 24 38  1  0
M  CHG  3   5   1  17  -1  22  -1
M  END
>  <UniqueID>  (13) 
12

>  <SMILES>  (13) 
COC(=O)[N@H+](C)CC#Cc1ccc2cc(C([NH-])=O)n(C(=O)[O-])c2c1

>  <Energy>  (13) 
75.30253564960645

>  <Genealogy>  (13) 
COC(=O)[NH+](C)CC#Cc1ccc2cc(C([NH-])=O)n(C(=O)[O-])c2c1 (protonated)
COC(=O)[N@H+](C)CC#Cc1ccc2cc(C([NH-])=O)n(C(=O)[O-])c2c1 (chirality)
COC(=O)[N@H+](C)CC#Cc1ccc2cc(C([NH-])=O)n(C(=O)[O-])c2c1 (3D coordinates assigned)
COC(=O)[N@H+](C)CC#Cc1ccc2cc(C([NH-])=O)n(C(=O)[O-])c2c1 (optimized conformer: 75.30253564960645 kcal/mol)

>  <smiles>  (13) 
COC(=O)N(C)CC#Cc1ccc2cc(C(N)=O)n(C(=O)O)c2c1

>  <score_type>  (13) 
oracle

>  <origin>  (13) 
adg

>  <m_score__min__energy>  (13) 
-10.710000000000001

>  <m_primary>  (13) 
energy

$$$$
13:0
     RDKit          3D

 54 56  0  0  0  0  0  0  0  0999 V2000
   -3.4310   17.5810  -33.1750 C   0  0  0  0  0  0  0  0  0  0  0  0
   -4.5220   16.6150  -33.3990 N   0  0  0  0  0  0  0  0  0  0  0  0
   -5.2810   16.9180  -34.6330 C   0  0  0  0  0  0  0  0  0  0  0  0
   -6.0760   18.2300  -34.5080 C   0  0  0  0  0  0  0  0  0  0  0  0
   -6.6100   18.3840  -33.1510 N   0  0  0  0  0  0  0  0  0  0  0  0
   -6.8760   19.6970  -32.6250 C   0  0  0  0  0  0  0  0  0  0  0  0
   -8.1770   20.2530  -32.7160 C   0  0  0  0  0  0  0  0  0  0  0  0
   -8.4370   21.5540  -32.2510 C   0  0  0  0  0  0  0  0  0  0  0  0
   -7.3790   22.2730  -31.7010 C   0  0  0  0  0  0  0  0  0  0  0  0
   -7.3370   23.5650  -31.2270 C   0  0  0  0  0  0  0  0  0  0  0  0
   -6.0110   23.7750  -30.8450 C   0  0  0  0  0  0  0  0  0  0  0  0
   -5.5110   25.0200  -30.2190 C   0  0  0  0  0  0  0  0  0  0  0  0
   -4.2030   25.5140  -30.5130 N   0  0  0  0  0  0  0  0  0  0  0  0
   -6.2500   25.6730  -29.4340 O   0  0  0  0  0  0  0  0  0  0  0  0
   -5.2700   22.6540  -31.0680 N   0  0  0  0  0  0  0  0  0  0  0  0
   -3.8540   22.4910  -30.9010 C   0  0  0  0  0  0  0  0  0  0  0  0
   -3.0610   22.9900  -31.7450 O   0  0  0  0  0  0  0  0  0  0  0  0
   -3.3630   21.8030  -29.7850 O   0  0  0  0  0  0  0  0  0  0  0  0
   -2.0610   22.0130  -29.2340 C   0  0  0  0  0  0  0  0  0  0  0  0
   -2.0580   23.1710  -28.2050 C   0  0  0  0  0  0  0  0  0  0  0  0
   -1.2390   22.7420  -26.9710 C   0  0  0  0  0  0  0  0  0  0  0  0
   -3.5060   23.4670  -27.7500 C   0  0  0  0  0  0  0  0  0  0  0  0
   -1.4190   24.4060  -28.8130 C   0  0  0  0  0  0  0  0  0  0  0  0
   -2.1230   25.3100  -29.3380 O   0  0  0  0  0  0  0  0  0  0  0  0
   -0.0340   24.5260  -28.8490 O   0  0  0  0  0  0  0  0  0  0  0  0
   -6.1190   21.7460  -31.5930 C   0  0  0  0  0  0  0  0  0  0  0  0
   -5.8300   20.4610  -32.0620 C   0  0  0  0  0  0  0  0  0  0  0  0
   -6.7440   17.1860  -32.3170 C   0  0  0  0  0  0  0  0  0  0  0  0
   -5.3850   16.4700  -32.1970 C   0  0  0  0  0  0  0  0  0  0  0  0
   -3.2776   17.7168  -32.0942 H   0  0  0  0  0  0  0  0  0  0  0  0
   -2.5053   17.2010  -33.6318 H   0  0  0  0  0  0  0  0  0  0  0  0
   -3.6961   18.5459  -33.6318 H   0  0  0  0  0  0  0  0  0  0  0  0
   -4.5753   17.0080  -35.4719 H   0  0  0  0  0  0  0  0  0  0  0  0
   -5.9963   16.1000  -34.8038 H   0  0  0  0  0  0  0  0  0  0  0  0
   -5.4121   19.0776  -34.7333 H   0  0  0  0  0  0  0  0  0  0  0  0
   -6.9157   18.2043  -35.2181 H   0  0  0  0  0  0  0  0  0  0  0  0
   -8.9923   19.6596  -33.1555 H   0  0  0  0  0  0  0  0  0  0  0  0
   -9.4445   21.9902  -32.3195 H   0  0  0  0  0  0  0  0  0  0  0  0
   -8.1709   24.2796  -31.1630 H   0  0  0  0  0  0  0  0  0  0  0  0
   -3.5380   24.9720  -31.1080 H   0  0  0  0  0  0  0  0  0  0  0  0
   -3.8770   26.4130  -30.0950 H   0  0  0  0  0  0  0  0  0  0  0  0
   -1.7317   21.0902  -28.7340 H   0  0  0  0  0  0  0  0  0  0  0  0
   -1.3787   22.2797  -30.0546 H   0  0  0  0  0  0  0  0  0  0  0  0
   -1.7795   23.0251  -26.0557 H   0  0  0  0  0  0  0  0  0  0  0  0
   -1.0934   21.6518  -26.9885 H   0  0  0  0  0  0  0  0  0  0  0  0
   -0.2599   23.2430  -26.9885 H   0  0  0  0  0  0  0  0  0  0  0  0
   -3.5504   23.4761  -26.6509 H   0  0  0  0  0  0  0  0  0  0  0  0
   -3.8189   24.4477  -28.1377 H   0  0  0  0  0  0  0  0  0  0  0  0
   -4.1787   22.6878  -28.1377 H   0  0  0  0  0  0  0  0  0  0  0  0
   -4.8103   20.0540  -31.9940 H   0  0  0  0  0  0  0  0  0  0  0  0
   -7.0915   17.4773  -31.3148 H   0  0  0  0  0  0  0  0  0  0  0  0
   -7.4709   16.5034  -32.7814 H   0  0  0  0  0  0  0  0  0  0  0  0
   -4.8483   16.8874  -31.3323 H   0  0  0  0  0  0  0  0  0  0  0  0
   -5.5974   15.3968  -32.0827 H   0  0  0  0  0  0  0  0  0  0  0  0
  1  2  1  0
  2  3  1  0
  3  4  1  0
  4  5  1  0
  5  6  1  0
  6  7  2  0
  7  8  1  0
  8  9  2  0
  9 10  1  0
 10 11  2  0
 11 12  1  0
 12 13  1  0
 12 14  2  0
 11 15  1  0
 15 16  1  0
 16 17  2  0
 16 18  1  0
 18 19  1  0
 19 20  1  0
 20 21  1  0
 20 22  1  0
 20 23  1  0
 23 24  2  0
 23 25  1  0
 15 26  1  0
 26 27  2  0
  5 28  1  0
 28 29  1  0
 29  2  1  0
 27  6  1  0
 26  9  1  0
  1 30  1  0
  1 31  1  0
  1 32  1  0
  3 33  1  0
  3 34  1  0
  4 35  1  0
  4 36  1  0
  7 37  1  0
  8 38  1  0
 10 39  1  0
 13 40  1  0
 13 41  1  0
 19 42  1  0
 19 43  1  0
 21 44  1  0
 21 45  1  0
 21 46  1  0
 22 47  1  0
 22 48  1  0
 22 49  1  0
 27 50  1  0
 28 51  1  0
 28 52  1  0
 29 53  1  0
 29 54  1  0
M  CHG  1  25  -1
M  END
>  <UniqueID>  (14) 
13

>  <SMILES>  (14) 
CN1CCN(c2ccc3cc(C(N)=O)n(C(=O)OCC(C)(C)C(=O)[O-])c3c2)CC1

>  <Energy>  (14) 
100.29141022668524

>  <Genealogy>  (14) 
CN1CCN(c2ccc3cc(C(N)=O)n(C(=O)OCC(C)(C)C(=O)[O-])c3c2)CC1 (protonated)
CN1CCN(c2ccc3cc(C(N)=O)n(C(=O)OCC(C)(C)C(=O)[O-])c3c2)CC1 (3D coordinates assigned)
CN1CCN(c2ccc3cc(C(N)=O)n(C(=O)OCC(C)(C)C(=O)[O-])c3c2)CC1 (nonaromatic ring conformer: 100.29141022668524 kcal/mol)

>  <smiles>  (14) 
CN1CCN(c2ccc3cc(C(N)=O)n(C(=O)OCC(C)(C)C(=O)O)c3c2)CC1

>  <score_type>  (14) 
oracle

>  <origin>  (14) 
adg

>  <m_score__min__energy>  (14) 
-12.369999999999999

>  <m_primary>  (14) 
energy

$$$$
14:0
     RDKit          3D

 43 45  0  0  0  0  0  0  0  0999 V2000
   -0.0790   20.7220  -31.4560 C   0  0  0  0  0  0  0  0  0  0  0  0
   -1.4920   20.8320  -31.9450 C   0  0  0  0  0  0  0  0  0  0  0  0
   -1.9380   20.0220  -33.0180 C   0  0  0  0  0  0  0  0  0  0  0  0
   -3.2730   20.0880  -33.4570 C   0  0  0  0  0  0  0  0  0  0  0  0
   -4.1340   20.9620  -32.7990 C   0  0  0  0  0  0  0  0  0  0  0  0
   -5.4750   21.2030  -32.9950 C   0  0  0  0  0  0  0  0  0  0  0  0
   -5.8300   22.1470  -32.0280 C   0  0  0  0  0  0  0  0  0  0  0  0
   -7.1840   22.7340  -31.8660 C   0  0  0  0  0  0  0  0  0  0  0  0
   -7.3690   24.0140  -31.2570 N   0  0  0  0  0  0  0  0  0  0  0  0
   -8.1990   22.0970  -32.2530 O   0  0  0  0  0  0  0  0  0  0  0  0
   -4.7410   22.4740  -31.2750 N   0  0  0  0  0  0  0  0  0  0  0  0
   -4.6920   23.3660  -30.1520 C   0  0  0  0  0  0  0  0  0  0  0  0
   -5.1810   22.9960  -29.0520 O   0  0  0  0  0  0  0  0  0  0  0  0
   -4.0240   24.6770  -30.2660 C   0  0  0  0  0  0  0  0  0  0  0  0
   -4.6120   25.6170  -30.8610 O   0  0  0  0  0  0  0  0  0  0  0  0
   -2.7170   24.9130  -29.7290 N   0  0  0  0  0  0  0  0  0  0  0  0
   -2.3310   24.6840  -28.3360 C   0  0  2  0  0  0  0  0  0  0  0  0
   -1.2380   25.6760  -27.9270 C   0  0  0  0  0  0  0  0  0  0  0  0
   -1.8420   23.2630  -28.1710 C   0  0  0  0  0  0  0  0  0  0  0  0
   -2.7060   22.2730  -27.6750 C   0  0  0  0  0  0  0  0  0  0  0  0
   -2.2390   20.9650  -27.5180 C   0  0  0  0  0  0  0  0  0  0  0  0
   -0.9550   20.6530  -27.8400 N   0  0  0  0  0  0  0  0  0  0  0  0
   -0.0930   21.5910  -28.3130 C   0  0  0  0  0  0  0  0  0  0  0  0
   -0.5160   22.9120  -28.4830 C   0  0  0  0  0  0  0  0  0  0  0  0
   -3.7160   21.7420  -31.7540 C   0  0  0  0  0  0  0  0  0  0  0  0
   -2.3980   21.6930  -31.2880 C   0  0  0  0  0  0  0  0  0  0  0  0
   -0.0707   20.7214  -30.3560 H   0  0  0  0  0  0  0  0  0  0  0  0
    0.3655   19.7865  -31.8266 H   0  0  0  0  0  0  0  0  0  0  0  0
    0.5049   21.5774  -31.8266 H   0  0  0  0  0  0  0  0  0  0  0  0
   -1.2347   19.3356  -33.5122 H   0  0  0  0  0  0  0  0  0  0  0  0
   -3.6257   19.4681  -34.2944 H   0  0  0  0  0  0  0  0  0  0  0  0
   -6.1294   20.7482  -33.7533 H   0  0  0  0  0  0  0  0  0  0  0  0
   -8.3340   24.3680  -31.0820 H   0  0  0  0  0  0  0  0  0  0  0  0
   -6.5660   24.6100  -30.9640 H   0  0  0  0  0  0  0  0  0  0  0  0
   -3.2047   24.8374  -27.6856 H   0  0  0  0  0  0  0  0  0  0  0  0
   -1.1814   25.7274  -26.8297 H   0  0  0  0  0  0  0  0  0  0  0  0
   -0.2702   25.3415  -28.3288 H   0  0  0  0  0  0  0  0  0  0  0  0
   -1.4774   26.6716  -28.3288 H   0  0  0  0  0  0  0  0  0  0  0  0
   -3.7438   22.5255  -27.4117 H   0  0  0  0  0  0  0  0  0  0  0  0
   -2.9124   20.1852  -27.1326 H   0  0  0  0  0  0  0  0  0  0  0  0
    0.9407   21.3097  -28.5628 H   0  0  0  0  0  0  0  0  0  0  0  0
    0.1839   23.6730  -28.8586 H   0  0  0  0  0  0  0  0  0  0  0  0
   -2.0766   22.3076  -30.4342 H   0  0  0  0  0  0  0  0  0  0  0  0
  1  2  1  0
  2  3  2  0
  3  4  1  0
  4  5  2  0
  5  6  1  0
  6  7  2  0
  7  8  1  0
  8  9  1  0
  8 10  2  0
  7 11  1  0
 11 12  1  0
 12 13  2  0
 12 14  1  0
 14 15  2  0
 14 16  1  0
 16 17  1  0
 17 18  1  0
 17 19  1  0
 19 20  2  0
 20 21  1  0
 21 22  2  0
 22 23  1  0
 23 24  2  0
 11 25  1  0
 25 26  2  0
 26  2  1  0
 25  5  1  0
 24 19  1  0
  1 27  1  0
  1 28  1  0
  1 29  1  0
  3 30  1  0
  4 31  1  0
  6 32  1  0
  9 33  1  0
  9 34  1  0
 17 35  1  1
 18 36  1  0
 18 37  1  0
 18 38  1  0
 20 39  1  0
 21 40  1  0
 23 41  1  0
 24 42  1  0
 26 43  1  0
M  CHG  1  16  -1
M  END
>  <UniqueID>  (15) 
14

>  <SMILES>  (15) 
Cc1ccc2cc(C(N)=O)n(C(=O)C(=O)[N-][C@H](C)c3ccncc3)c2c1

>  <Energy>  (15) 
87.19854730328589

>  <Genealogy>  (15) 
Cc1ccc2cc(C(N)=O)n(C(=O)C(=O)[N-]C(C)c3ccncc3)c2c1 (protonated)
Cc1ccc2cc(C(N)=O)n(C(=O)C(=O)[N-][C@H](C)c3ccncc3)c2c1 (chirality)
Cc1ccc2cc(C(N)=O)n(C(=O)C(=O)[N-][C@H](C)c3ccncc3)c2c1 (3D coordinates assigned)
Cc1ccc2cc(C(N)=O)n(C(=O)C(=O)[N-][C@H](C)c3ccncc3)c2c1 (optimized conformer: 87.19854730328589 kcal/mol)

>  <smiles>  (15) 
Cc1ccc2cc(C(N)=O)n(C(=O)C(=O)NC(C)c3ccncc3)c2c1

>  <score_type>  (15) 
oracle

>  <origin>  (15) 
adg

>  <m_score__min__energy>  (15) 
-10.02

>  <m_primary>  (15) 
energy

$$$$
15:0
     RDKit          3D

 32 33  0  0  0  0  0  0  0  0999 V2000
   -3.9210   25.4370  -30.8340 N   0  0  0  0  0  0  0  0  0  0  0  0
   -5.1980   25.0140  -30.3630 C   0  0  0  0  0  0  0  0  0  0  0  0
   -5.8160   25.7300  -29.5330 O   0  0  0  0  0  0  0  0  0  0  0  0
   -5.7600   23.7260  -30.8210 C   0  0  0  0  0  0  0  0  0  0  0  0
   -7.0430   23.5920  -31.3450 C   0  0  0  0  0  0  0  0  0  0  0  0
   -7.1440   22.2750  -31.7310 C   0  0  0  0  0  0  0  0  0  0  0  0
   -8.2140   21.5890  -32.2970 C   0  0  0  0  0  0  0  0  0  0  0  0
   -8.0510   20.2180  -32.5620 C   0  0  0  0  0  0  0  0  0  0  0  0
   -6.8280   19.5620  -32.2690 C   0  0  0  0  0  0  0  0  0  0  0  0
   -6.6880   18.0790  -32.5010 C   0  0  0  0  0  0  0  0  0  0  0  0
   -7.9230   17.4770  -32.3480 F   0  0  0  0  0  0  0  0  0  0  0  0
   -5.8000   17.5260  -31.5950 F   0  0  0  0  0  0  0  0  0  0  0  0
   -6.2190   17.8270  -33.7780 F   0  0  0  0  0  0  0  0  0  0  0  0
   -5.7730   20.2920  -31.6710 C   0  0  0  0  0  0  0  0  0  0  0  0
   -5.9570   21.6590  -31.4350 C   0  0  0  0  0  0  0  0  0  0  0  0
   -5.0970   22.5350  -30.8710 N   0  0  0  0  0  0  0  0  0  0  0  0
   -3.7790   22.2380  -30.3830 C   0  0  0  0  0  0  0  0  0  0  0  0
   -3.5610   21.1470  -29.7880 O   0  0  0  0  0  0  0  0  0  0  0  0
   -2.7380   23.1460  -30.6010 O   0  0  0  0  0  0  0  0  0  0  0  0
   -1.5770   23.2260  -29.7780 C   0  0  0  0  0  0  0  0  0  0  0  0
   -1.7240   24.6080  -28.6030 P   0  0  1  0  0  0  0  0  0  0  0  0
   -0.8510   24.3390  -27.3990 O   0  0  0  0  0  0  0  0  0  0  0  0
   -1.2360   26.0510  -29.3380 O   0  0  0  0  0  0  0  0  0  0  0  0
   -3.3340   24.7500  -28.1040 O   0  0  0  0  0  0  0  0  0  0  0  0
   -3.0590   25.2810  -30.2650 H   0  0  0  0  0  0  0  0  0  0  0  0
   -7.8126   24.3731  -31.4320 H   0  0  0  0  0  0  0  0  0  0  0  0
   -9.1580   22.1033  -32.5299 H   0  0  0  0  0  0  0  0  0  0  0  0
   -8.8820   19.6471  -33.0019 H   0  0  0  0  0  0  0  0  0  0  0  0
   -4.8299   19.7960  -31.3980 H   0  0  0  0  0  0  0  0  0  0  0  0
   -1.4640   22.2856  -29.2187 H   0  0  0  0  0  0  0  0  0  0  0  0
   -0.6980   23.3942  -30.4175 H   0  0  0  0  0  0  0  0  0  0  0  0
   -3.7680   25.2990  -28.8040 H   0  0  0  0  0  0  0  0  0  0  0  0
  1  2  1  0
  2  3  2  0
  2  4  1  0
  4  5  2  0
  5  6  1  0
  6  7  2  0
  7  8  1  0
  8  9  2  0
  9 10  1  0
 10 11  1  0
 10 12  1  0
 10 13  1  0
  9 14  1  0
 14 15  2  0
 15 16  1  0
 16 17  1  0
 17 18  2  0
 17 19  1  0
 19 20  1  0
 20 21  1  0
 21 22  2  0
 21 23  1  6
 21 24  1  0
 16  4  1  0
 15  6  1  0
  1 25  1  0
  5 26  1  0
  7 27  1  0
  8 28  1  0
 14 29  1  0
 20 30  1  0
 20 31  1  0
 24 32  1  0
M  CHG  2   1  -1  23  -1
M  END
>  <UniqueID>  (16) 
15

>  <SMILES>  (16) 
[NH-]C(=O)c1cc2ccc(C(F)(F)F)cc2n1C(=O)OC[P@@](=O)([O-])O

>  <Energy>  (16) 
65.67841011879428

>  <Genealogy>  (16) 
[NH-]C(=O)c1cc2ccc(C(F)(F)F)cc2n1C(=O)OCP(=O)([O-])O (protonated)
[NH-]C(=O)c1cc2ccc(C(F)(F)F)cc2n1C(=O)OC[P@@](=O)([O-])O (chirality)
[NH-]C(=O)c1cc2ccc(C(F)(F)F)cc2n1C(=O)OC[P@@](=O)([O-])O (3D coordinates assigned)
[NH-]C(=O)c1cc2ccc(C(F)(F)F)cc2n1C(=O)OC[P@@](=O)([O-])O (optimized conformer: 65.67841011879428 kcal/mol)

>  <smiles>  (16) 
NC(=O)c1cc2ccc(C(F)(F)F)cc2n1C(=O)OCP(=O)(O)O

>  <score_type>  (16) 
oracle

>  <origin>  (16) 
adg

>  <m_score__min__energy>  (16) 
-11.76

>  <m_primary>  (16) 
energy

$$$$
17:0
     RDKit          3D

 37 38  0  0  0  0  0  0  0  0999 V2000
   -4.2530   25.5930  -30.6520 N   0  0  0  0  0  0  0  0  0  0  0  0
   -5.6060   25.2280  -30.3650 C   0  0  0  0  0  0  0  0  0  0  0  0
   -6.3240   26.0240  -29.7060 O   0  0  0  0  0  0  0  0  0  0  0  0
   -6.1540   23.9200  -30.7940 C   0  0  0  0  0  0  0  0  0  0  0  0
   -7.4970   23.6890  -31.0960 C   0  0  0  0  0  0  0  0  0  0  0  0
   -7.5520   22.3870  -31.5430 C   0  0  0  0  0  0  0  0  0  0  0  0
   -8.6430   21.6290  -31.9650 C   0  0  0  0  0  0  0  0  0  0  0  0
   -8.4130   20.2960  -32.3460 C   0  0  0  0  0  0  0  0  0  0  0  0
   -7.1100   19.7430  -32.2780 C   0  0  0  0  0  0  0  0  0  0  0  0
   -6.8830   18.3180  -32.6830 C   0  0  0  0  0  0  0  0  0  0  0  0
   -7.9550   17.5460  -32.2840 F   0  0  0  0  0  0  0  0  0  0  0  0
   -6.0250   20.5460  -31.8630 C   0  0  0  0  0  0  0  0  0  0  0  0
   -6.2820   21.8750  -31.5050 C   0  0  0  0  0  0  0  0  0  0  0  0
   -5.4130   22.8040  -31.0490 N   0  0  0  0  0  0  0  0  0  0  0  0
   -4.0140   22.6030  -30.7960 C   0  0  0  0  0  0  0  0  0  0  0  0
   -3.1640   23.3610  -31.3370 O   0  0  0  0  0  0  0  0  0  0  0  0
   -3.6030   21.5470  -29.9720 O   0  0  0  0  0  0  0  0  0  0  0  0
   -2.7620   21.7130  -28.8340 C   0  0  0  0  0  0  0  0  0  0  0  0
   -3.2550   22.8610  -27.9450 C   0  0  0  0  0  0  0  0  0  0  0  0
   -2.1220   23.7900  -27.4930 C   0  0  0  0  0  0  0  0  0  0  0  0
   -1.5620   24.5510  -28.6540 C   0  0  0  0  0  0  0  0  0  0  0  0
   -2.3090   25.2980  -29.3420 O   0  0  0  0  0  0  0  0  0  0  0  0
   -0.2160   24.4330  -28.9830 O   0  0  0  0  0  0  0  0  0  0  0  0
   -3.8780   26.5090  -30.3190 H   0  0  0  0  0  0  0  0  0  0  0  0
   -3.6090   24.9530  -31.1660 H   0  0  0  0  0  0  0  0  0  0  0  0
   -8.3337   24.3963  -30.9979 H   0  0  0  0  0  0  0  0  0  0  0  0
   -9.6539   22.0613  -31.9988 H   0  0  0  0  0  0  0  0  0  0  0  0
   -9.2508   19.6771  -32.6997 H   0  0  0  0  0  0  0  0  0  0  0  0
   -6.7777   18.2607  -33.7764 H   0  0  0  0  0  0  0  0  0  0  0  0
   -5.9659   17.9442  -32.2042 H   0  0  0  0  0  0  0  0  0  0  0  0
   -5.0043   20.1379  -31.8221 H   0  0  0  0  0  0  0  0  0  0  0  0
   -2.7607   20.7812  -28.2494 H   0  0  0  0  0  0  0  0  0  0  0  0
   -1.7465   21.9527  -29.1824 H   0  0  0  0  0  0  0  0  0  0  0  0
   -3.9904   23.4525  -28.5101 H   0  0  0  0  0  0  0  0  0  0  0  0
   -3.6979   22.4147  -27.0424 H   0  0  0  0  0  0  0  0  0  0  0  0
   -2.5135   24.5013  -26.7509 H   0  0  0  0  0  0  0  0  0  0  0  0
   -1.3202   23.1791  -27.0527 H   0  0  0  0  0  0  0  0  0  0  0  0
  1  2  1  0
  2  3  2  0
  2  4  1  0
  4  5  2  0
  5  6  1  0
  6  7  2  0
  7  8  1  0
  8  9  2  0
  9 10  1  0
 10 11  1  0
  9 12  1  0
 12 13  2  0
 13 14  1  0
 14 15  1  0
 15 16  2  0
 15 17  1  0
 17 18  1  0
 18 19  1  0
 19 20  1  0
 20 21  1  0
 21 22  2  0
 21 23  1  0
 14  4  1  0
 13  6  1  0
  1 24  1  0
  1 25  1  0
  5 26  1  0
  7 27  1  0
  8 28  1  0
 10 29  1  0
 10 30  1  0
 12 31  1  0
 18 32  1  0
 18 33  1  0
 19 34  1  0
 19 35  1  0
 20 36  1  0
 20 37  1  0
M  CHG  1  23  -1
M  END
>  <UniqueID>  (17) 
16

>  <SMILES>  (17) 
NC(=O)c1cc2ccc(CF)cc2n1C(=O)OCCCC(=O)[O-]

>  <Energy>  (17) 
69.72928676750688

>  <Genealogy>  (17) 
NC(=O)c1cc2ccc(CF)cc2n1C(=O)OCCCC(=O)[O-] (protonated)
NC(=O)c1cc2ccc(CF)cc2n1C(=O)OCCCC(=O)[O-] (3D coordinates assigned)
NC(=O)c1cc2ccc(CF)cc2n1C(=O)OCCCC(=O)[O-] (optimized conformer: 69.72928676750688 kcal/mol)

>  <smiles>  (17) 
NC(=O)c1cc2ccc(CF)cc2n1C(=O)OCCCC(=O)O

>  <score_type>  (17) 
oracle

>  <origin>  (17) 
adg

>  <m_score__min__energy>  (17) 
-10.08

>  <m_primary>  (17) 
energy

$$$$
18:0
     RDKit          3D

 30 31  0  0  0  0  0  0  0  0999 V2000
   -5.7150   18.2680  -33.3270 C   0  0  0  0  0  0  0  0  0  0  0  0
   -6.1050   19.6320  -32.8380 C   0  0  0  0  0  0  0  0  0  0  0  0
   -7.4700   20.0080  -32.8050 C   0  0  0  0  0  0  0  0  0  0  0  0
   -7.8530   21.2650  -32.3030 C   0  0  0  0  0  0  0  0  0  0  0  0
   -6.8520   22.1150  -31.8410 C   0  0  0  0  0  0  0  0  0  0  0  0
   -6.9460   23.3680  -31.2780 C   0  0  0  0  0  0  0  0  0  0  0  0
   -5.6360   23.7380  -30.9820 C   0  0  0  0  0  0  0  0  0  0  0  0
   -5.2680   25.0600  -30.4350 C   0  0  0  0  0  0  0  0  0  0  0  0
   -4.0390   25.6710  -30.8190 N   0  0  0  0  0  0  0  0  0  0  0  0
   -6.0110   25.6430  -29.6030 O   0  0  0  0  0  0  0  0  0  0  0  0
   -4.7670   22.7500  -31.3410 N   0  0  0  0  0  0  0  0  0  0  0  0
   -3.3460   22.7130  -31.1330 C   0  0  0  0  0  0  0  0  0  0  0  0
   -2.6130   22.0520  -31.9170 O   0  0  0  0  0  0  0  0  0  0  0  0
   -2.7850   23.3950  -30.0470 O   0  0  0  0  0  0  0  0  0  0  0  0
   -1.4400   23.2040  -29.6120 C   0  0  0  0  0  0  0  0  0  0  0  0
   -0.8670   24.4900  -29.1100 C   0  0  0  0  0  0  0  0  0  0  0  0
    0.2640   24.5050  -28.5570 O   0  0  0  0  0  0  0  0  0  0  0  0
   -1.5690   25.6770  -29.2750 O   0  0  0  0  0  0  0  0  0  0  0  0
   -5.5270   21.7640  -31.8680 C   0  0  0  0  0  0  0  0  0  0  0  0
   -5.1190   20.5140  -32.3450 C   0  0  0  0  0  0  0  0  0  0  0  0
   -5.5268   17.6098  -32.4660 H   0  0  0  0  0  0  0  0  0  0  0  0
   -6.5297   17.8503  -33.9367 H   0  0  0  0  0  0  0  0  0  0  0  0
   -4.8026   18.3441  -33.9367 H   0  0  0  0  0  0  0  0  0  0  0  0
   -8.2369   19.3115  -33.1749 H   0  0  0  0  0  0  0  0  0  0  0  0
   -8.9104   21.5669  -32.2763 H   0  0  0  0  0  0  0  0  0  0  0  0
   -7.8607   23.9524  -31.0999 H   0  0  0  0  0  0  0  0  0  0  0  0
   -3.1250   25.2990  -30.4790 H   0  0  0  0  0  0  0  0  0  0  0  0
   -1.4232   22.4593  -28.8026 H   0  0  0  0  0  0  0  0  0  0  0  0
   -0.8367   22.8523  -30.4619 H   0  0  0  0  0  0  0  0  0  0  0  0
   -4.0575   20.2257  -32.3362 H   0  0  0  0  0  0  0  0  0  0  0  0
  1  2  1  0
  2  3  2  0
  3  4  1  0
  4  5  2  0
  5  6  1  0
  6  7  2  0
  7  8  1  0
  8  9  1  0
  8 10  2  0
  7 11  1  0
 11 12  1  0
 12 13  2  0
 12 14  1  0
 14 15  1  0
 15 16  1  0
 16 17  2  0
 16 18  1  0
 11 19  1  0
 19 20  2  0
 20  2  1  0
 19  5  1  0
  1 21  1  0
  1 22  1  0
  1 23  1  0
  3 24  1  0
  4 25  1  0
  6 26  1  0
  9 27  1  0
 15 28  1  0
 15 29  1  0
 20 30  1  0
M  CHG  2   9  -1  18  -1
M  END
>  <UniqueID>  (18) 
17

>  <SMILES>  (18) 
Cc1ccc2cc(C([NH-])=O)n(C(=O)OCC(=O)[O-])c2c1

>  <Energy>  (18) 
66.19207706369268

>  <Genealogy>  (18) 
Cc1ccc2cc(C([NH-])=O)n(C(=O)OCC(=O)[O-])c2c1 (protonated)
Cc1ccc2cc(C([NH-])=O)n(C(=O)OCC(=O)[O-])c2c1 (3D coordinates assigned)
Cc1ccc2cc(C([NH-])=O)n(C(=O)OCC(=O)[O-])c2c1 (optimized conformer: 66.19207706369268 kcal/mol)

>  <smiles>  (18) 
Cc1ccc2cc(C(N)=O)n(C(=O)OCC(=O)O)c2c1

>  <score_type>  (18) 
oracle

>  <origin>  (18) 
adg

>  <m_score__min__energy>  (18) 
-11.779999999999999

>  <m_primary>  (18) 
energy

$$$$
19:0
     RDKit          3D

 30 31  0  0  0  0  0  0  0  0999 V2000
   -4.0160   25.6600  -30.8460 N   0  0  0  0  0  0  0  0  0  0  0  0
   -5.2600   25.0340  -30.5400 C   0  0  0  0  0  0  0  0  0  0  0  0
   -6.0490   25.5920  -29.7310 O   0  0  0  0  0  0  0  0  0  0  0  0
   -5.6120   23.7190  -31.1150 C   0  0  0  0  0  0  0  0  0  0  0  0
   -6.9100   23.3590  -31.4670 C   0  0  0  0  0  0  0  0  0  0  0  0
   -6.8280   22.0460  -31.8710 C   0  0  0  0  0  0  0  0  0  0  0  0
   -7.8200   21.1900  -32.3410 C   0  0  0  0  0  0  0  0  0  0  0  0
   -7.4430   19.8900  -32.7200 C   0  0  0  0  0  0  0  0  0  0  0  0
   -6.0910   19.4760  -32.6290 C   0  0  0  0  0  0  0  0  0  0  0  0
   -5.6890   18.0910  -33.0540 C   0  0  0  0  0  0  0  0  0  0  0  0
   -5.2220   18.1190  -34.3560 F   0  0  0  0  0  0  0  0  0  0  0  0
   -6.7820   17.2470  -32.9800 F   0  0  0  0  0  0  0  0  0  0  0  0
   -5.1110   20.3730  -32.1510 C   0  0  0  0  0  0  0  0  0  0  0  0
   -5.5180   21.6560  -31.7620 C   0  0  0  0  0  0  0  0  0  0  0  0
   -4.7570   22.6730  -31.3020 N   0  0  0  0  0  0  0  0  0  0  0  0
   -3.3290   22.6690  -31.1510 C   0  0  0  0  0  0  0  0  0  0  0  0
   -2.6010   22.2110  -32.0740 O   0  0  0  0  0  0  0  0  0  0  0  0
   -2.7520   23.1930  -29.9880 O   0  0  0  0  0  0  0  0  0  0  0  0
   -1.3600   23.1030  -29.6960 C   0  0  0  0  0  0  0  0  0  0  0  0
   -0.8560   24.4080  -29.1690 C   0  0  0  0  0  0  0  0  0  0  0  0
    0.2610   24.4710  -28.5910 O   0  0  0  0  0  0  0  0  0  0  0  0
   -1.6090   25.5620  -29.3400 O   0  0  0  0  0  0  0  0  0  0  0  0
   -3.1140   25.2480  -30.5180 H   0  0  0  0  0  0  0  0  0  0  0  0
   -7.8101   23.9902  -31.4300 H   0  0  0  0  0  0  0  0  0  0  0  0
   -8.8666   21.5207  -32.4136 H   0  0  0  0  0  0  0  0  0  0  0  0
   -8.2044   19.1878  -33.0905 H   0  0  0  0  0  0  0  0  0  0  0  0
   -4.8945   17.7257  -32.3867 H   0  0  0  0  0  0  0  0  0  0  0  0
   -4.0549   20.0722  -32.0857 H   0  0  0  0  0  0  0  0  0  0  0  0
   -1.1973   22.3195  -28.9413 H   0  0  0  0  0  0  0  0  0  0  0  0
   -0.8156   22.8552  -30.6192 H   0  0  0  0  0  0  0  0  0  0  0  0
  1  2  1  0
  2  3  2  0
  2  4  1  0
  4  5  2  0
  5  6  1  0
  6  7  2  0
  7  8  1  0
  8  9  2  0
  9 10  1  0
 10 11  1  0
 10 12  1  0
  9 13  1  0
 13 14  2  0
 14 15  1  0
 15 16  1  0
 16 17  2  0
 16 18  1  0
 18 19  1  0
 19 20  1  0
 20 21  2  0
 20 22  1  0
 15  4  1  0
 14  6  1  0
  1 23  1  0
  5 24  1  0
  7 25  1  0
  8 26  1  0
 10 27  1  0
 13 28  1  0
 19 29  1  0
 19 30  1  0
M  CHG  2   1  -1  22  -1
M  END
>  <UniqueID>  (19) 
18

>  <SMILES>  (19) 
[NH-]C(=O)c1cc2ccc(C(F)F)cc2n1C(=O)OCC(=O)[O-]

>  <Energy>  (19) 
67.06407267001325

>  <Genealogy>  (19) 
[NH-]C(=O)c1cc2ccc(C(F)F)cc2n1C(=O)OCC(=O)[O-] (protonated)
[NH-]C(=O)c1cc2ccc(C(F)F)cc2n1C(=O)OCC(=O)[O-] (3D coordinates assigned)
[NH-]C(=O)c1cc2ccc(C(F)F)cc2n1C(=O)OCC(=O)[O-] (optimized conformer: 67.06407267001325 kcal/mol)

>  <smiles>  (19) 
NC(=O)c1cc2ccc(C(F)F)cc2n1C(=O)OCC(=O)O

>  <score_type>  (19) 
oracle

>  <origin>  (19) 
adg

>  <m_score__min__energy>  (19) 
-11.5

>  <m_primary>  (19) 
energy

$$$$
20:0
     RDKit          3D

 43 45  0  0  0  0  0  0  0  0999 V2000
   -4.0810   22.3810  -27.6890 C   0  0  0  0  0  0  0  0  0  0  0  0
   -2.8730   23.1080  -28.1830 C   0  0  0  0  0  0  0  0  0  0  0  0
   -2.8060   24.4070  -28.3620 O   0  0  0  0  0  0  0  0  0  0  0  0
   -1.5910   24.6460  -28.8000 C   0  0  0  0  0  0  0  0  0  0  0  0
   -1.1650   25.7950  -29.0820 O   0  0  0  0  0  0  0  0  0  0  0  0
   -0.8690   23.5540  -28.9110 O   0  0  0  0  0  0  0  0  0  0  0  0
   -1.6470   22.5680  -28.5290 C   0  0  0  0  0  0  0  0  0  0  0  0
   -1.2340   21.1290  -28.4940 C   0  0  0  0  0  0  0  0  0  0  0  0
   -1.6580   20.4640  -29.6820 O   0  0  0  0  0  0  0  0  0  0  0  0
   -1.3280   20.9060  -30.9680 C   0  0  0  0  0  0  0  0  0  0  0  0
   -0.2880   21.5930  -31.1680 O   0  0  0  0  0  0  0  0  0  0  0  0
   -2.2380   20.5930  -32.1130 C   0  0  0  0  0  0  0  0  0  0  0  0
   -2.9350   21.7630  -32.5340 O   0  0  0  0  0  0  0  0  0  0  0  0
   -3.5050   22.6780  -31.6410 C   0  0  0  0  0  0  0  0  0  0  0  0
   -2.7710   23.4260  -30.9380 O   0  0  0  0  0  0  0  0  0  0  0  0
   -4.9320   22.7580  -31.5190 N   0  0  0  0  0  0  0  0  0  0  0  0
   -5.6680   23.7460  -30.9360 C   0  0  0  0  0  0  0  0  0  0  0  0
   -5.1470   25.0360  -30.4380 C   0  0  0  0  0  0  0  0  0  0  0  0
   -3.8740   25.5230  -30.8540 N   0  0  0  0  0  0  0  0  0  0  0  0
   -5.8560   25.7410  -29.6710 O   0  0  0  0  0  0  0  0  0  0  0  0
   -7.0210   23.4150  -30.9470 C   0  0  0  0  0  0  0  0  0  0  0  0
   -7.0940   22.1910  -31.5710 C   0  0  0  0  0  0  0  0  0  0  0  0
   -8.1960   21.3850  -31.8370 C   0  0  0  0  0  0  0  0  0  0  0  0
   -7.9720   20.1510  -32.4700 C   0  0  0  0  0  0  0  0  0  0  0  0
   -6.6600   19.7490  -32.8350 C   0  0  0  0  0  0  0  0  0  0  0  0
   -6.4270   18.3960  -33.4580 C   0  0  0  0  0  0  0  0  0  0  0  0
   -5.3750   17.7730  -32.8120 F   0  0  0  0  0  0  0  0  0  0  0  0
   -7.5570   17.6040  -33.3480 F   0  0  0  0  0  0  0  0  0  0  0  0
   -6.1180   18.5240  -34.8020 F   0  0  0  0  0  0  0  0  0  0  0  0
   -5.5640   20.5870  -32.5240 C   0  0  0  0  0  0  0  0  0  0  0  0
   -5.8190   21.8170  -31.9090 C   0  0  0  0  0  0  0  0  0  0  0  0
   -4.0837   22.3794  -26.5890 H   0  0  0  0  0  0  0  0  0  0  0  0
   -4.9875   22.8837  -28.0571 H   0  0  0  0  0  0  0  0  0  0  0  0
   -4.0613   21.3446  -28.0571 H   0  0  0  0  0  0  0  0  0  0  0  0
   -0.1386   21.0676  -28.4149 H   0  0  0  0  0  0  0  0  0  0  0  0
   -1.7021   20.6432  -27.6252 H   0  0  0  0  0  0  0  0  0  0  0  0
   -1.6424   20.2052  -32.9526 H   0  0  0  0  0  0  0  0  0  0  0  0
   -2.9717   19.8408  -31.7876 H   0  0  0  0  0  0  0  0  0  0  0  0
   -3.0080   25.2970  -30.3160 H   0  0  0  0  0  0  0  0  0  0  0  0
   -7.8550   24.0072  -30.5423 H   0  0  0  0  0  0  0  0  0  0  0  0
   -9.2117   21.7040  -31.5602 H   0  0  0  0  0  0  0  0  0  0  0  0
   -8.8231   19.4883  -32.6854 H   0  0  0  0  0  0  0  0  0  0  0  0
   -4.5349   20.2786  -32.7603 H   0  0  0  0  0  0  0  0  0  0  0  0
  1  2  1  0
  2  3  1  0
  3  4  1  0
  4  5  2  0
  4  6  1  0
  6  7  1  0
  7  8  1  0
  8  9  1  0
  9 10  1  0
 10 11  2  0
 10 12  1  0
 12 13  1  0
 13 14  1  0
 14 15  2  0
 14 16  1  0
 16 17  1  0
 17 18  1  0
 18 19  1  0
 18 20  2  0
 17 21  2  0
 21 22  1  0
 22 23  2  0
 23 24  1  0
 24 25  2  0
 25 26  1  0
 26 27  1  0
 26 28  1  0
 26 29  1  0
 25 30  1  0
 30 31  2  0
  7  2  2  0
 31 16  1  0
 31 22  1  0
  1 32  1  0
  1 33  1  0
  1 34  1  0
  8 35  1  0
  8 36  1  0
 12 37  1  0
 12 38  1  0
 19 39  1  0
 21 40  1  0
 23 41  1  0
 24 42  1  0
 30 43  1  0
M  CHG  1  19  -1
M  END
>  <UniqueID>  (20) 
19

>  <SMILES>  (20) 
Cc1oc(=O)oc1COC(=O)COC(=O)n1c(C([NH-])=O)cc2ccc(C(F)(F)F)cc21

>  <Energy>  (20) 
111.93077708587897

>  <Genealogy>  (20) 
Cc1oc(=O)oc1COC(=O)COC(=O)n1c(C([NH-])=O)cc2ccc(C(F)(F)F)cc21 (protonated)
Cc1oc(=O)oc1COC(=O)COC(=O)n1c(C([NH-])=O)cc2ccc(C(F)(F)F)cc21 (3D coordinates assigned)
Cc1oc(=O)oc1COC(=O)COC(=O)n1c(C([NH-])=O)cc2ccc(C(F)(F)F)cc21 (optimized conformer: 111.93077708587897 kcal/mol)

>  <smiles>  (20) 
Cc1oc(=O)oc1COC(=O)COC(=O)n1c(C(N)=O)cc2ccc(C(F)(F)F)cc21

>  <score_type>  (20) 
oracle

>  <origin>  (20) 
adg

>  <m_score__min__energy>  (20) 
-10.6

>  <m_primary>  (20) 
energy

$$$$
21:0
     RDKit          3D

 31 32  0  0  0  0  0  0  0  0999 V2000
   -4.1860   25.4880  -30.6080 N   0  0  0  0  0  0  0  0  0  0  0  0
   -5.5590   25.1040  -30.5200 C   0  0  0  0  0  0  0  0  0  0  0  0
   -6.4010   25.9250  -30.0680 O   0  0  0  0  0  0  0  0  0  0  0  0
   -6.0200   23.7880  -31.0070 C   0  0  0  0  0  0  0  0  0  0  0  0
   -7.3630   23.4480  -31.1410 C   0  0  0  0  0  0  0  0  0  0  0  0
   -7.3640   22.1780  -31.6680 C   0  0  0  0  0  0  0  0  0  0  0  0
   -8.4320   21.3500  -32.0010 C   0  0  0  0  0  0  0  0  0  0  0  0
   -8.1430   20.0690  -32.4980 C   0  0  0  0  0  0  0  0  0  0  0  0
   -6.8010   19.6260  -32.6270 C   0  0  0  0  0  0  0  0  0  0  0  0
   -6.5030   18.2610  -33.1930 C   0  0  0  0  0  0  0  0  0  0  0  0
   -6.1450   18.3510  -34.5270 F   0  0  0  0  0  0  0  0  0  0  0  0
   -7.6120   17.4390  -33.0970 F   0  0  0  0  0  0  0  0  0  0  0  0
   -5.4600   17.6940  -32.4850 F   0  0  0  0  0  0  0  0  0  0  0  0
   -5.7430   20.5050  -32.2970 C   0  0  0  0  0  0  0  0  0  0  0  0
   -6.0590   21.7860  -31.8270 C   0  0  0  0  0  0  0  0  0  0  0  0
   -5.2190   22.7670  -31.4240 N   0  0  0  0  0  0  0  0  0  0  0  0
   -3.7870   22.6910  -31.3370 C   0  0  0  0  0  0  0  0  0  0  0  0
   -3.1100   22.3920  -32.3580 O   0  0  0  0  0  0  0  0  0  0  0  0
   -3.1300   22.9450  -30.0930 N   0  0  0  0  0  0  0  0  0  0  0  0
   -1.6810   22.9460  -29.9510 C   0  0  0  0  0  0  0  0  0  0  0  0
   -1.2460   24.2370  -29.3420 C   0  0  0  0  0  0  0  0  0  0  0  0
   -0.1230   24.3240  -28.7780 O   0  0  0  0  0  0  0  0  0  0  0  0
   -2.1020   25.3310  -29.3480 O   0  0  0  0  0  0  0  0  0  0  0  0
   -3.4970   24.9080  -31.1350 H   0  0  0  0  0  0  0  0  0  0  0  0
   -3.8730   26.4050  -30.2200 H   0  0  0  0  0  0  0  0  0  0  0  0
   -8.2367   24.0636  -30.8809 H   0  0  0  0  0  0  0  0  0  0  0  0
   -9.4713   21.6890  -31.8785 H   0  0  0  0  0  0  0  0  0  0  0  0
   -8.9665   19.4010  -32.7908 H   0  0  0  0  0  0  0  0  0  0  0  0
   -4.6950   20.1894  -32.4071 H   0  0  0  0  0  0  0  0  0  0  0  0
   -1.3748   22.1121  -29.3023 H   0  0  0  0  0  0  0  0  0  0  0  0
   -1.2138   22.8292  -30.9400 H   0  0  0  0  0  0  0  0  0  0  0  0
  1  2  1  0
  2  3  2  0
  2  4  1  0
  4  5  2  0
  5  6  1  0
  6  7  2  0
  7  8  1  0
  8  9  2  0
  9 10  1  0
 10 11  1  0
 10 12  1  0
 10 13  1  0
  9 14  1  0
 14 15  2  0
 15 16  1  0
 16 17  1  0
 17 18  2  0
 17 19  1  0
 19 20  1  0
 20 21  1  0
 21 22  2  0
 21 23  1  0
 16  4  1  0
 15  6  1  0
  1 24  1  0
  1 25  1  0
  5 26  1  0
  7 27  1  0
  8 28  1  0
 14 29  1  0
 20 30  1  0
 20 31  1  0
M  CHG  2  19  -1  23  -1
M  END
>  <UniqueID>  (21) 
20

>  <SMILES>  (21) 
NC(=O)c1cc2ccc(C(F)(F)F)cc2n1C(=O)[N-]CC(=O)[O-]

>  <Energy>  (21) 
68.22803926600581

>  <Genealogy>  (21) 
NC(=O)c1cc2ccc(C(F)(F)F)cc2n1C(=O)[N-]CC(=O)[O-] (protonated)
NC(=O)c1cc2ccc(C(F)(F)F)cc2n1C(=O)[N-]CC(=O)[O-] (3D coordinates assigned)
NC(=O)c1cc2ccc(C(F)(F)F)cc2n1C(=O)[N-]CC(=O)[O-] (optimized conformer: 68.22803926600581 kcal/mol)

>  <smiles>  (21) 
NC(=O)c1cc2ccc(C(F)(F)F)cc2n1C(=O)NCC(=O)O

>  <score_type>  (21) 
oracle

>  <origin>  (21) 
adg

>  <m_score__min__energy>  (21) 
-10.49

>  <m_primary>  (21) 
energy

$$$$
22:0
     RDKit          3D

 55 57  0  0  0  0  0  0  0  0999 V2000
   -1.7270   20.3950  -33.6630 C   0  0  0  0  0  0  0  0  0  0  0  0
   -2.9770   20.6910  -32.8140 C   0  0  0  0  0  0  0  0  0  0  0  0
   -2.5300   21.1510  -31.4170 C   0  0  0  0  0  0  0  0  0  0  0  0
   -3.8230   21.8050  -33.4590 C   0  0  0  0  0  0  0  0  0  0  0  0
   -3.7580   19.5010  -32.6360 O   0  0  0  0  0  0  0  0  0  0  0  0
   -4.6330   18.9310  -33.5730 C   0  0  0  0  0  0  0  0  0  0  0  0
   -4.2250   18.5900  -34.7160 O   0  0  0  0  0  0  0  0  0  0  0  0
   -6.0070   18.7150  -33.2130 N   0  0  0  0  0  0  0  0  0  0  0  0
   -6.6930   17.5360  -33.2020 C   0  0  0  0  0  0  0  0  0  0  0  0
   -6.1870   16.2440  -33.7170 C   0  0  0  0  0  0  0  0  0  0  0  0
   -4.7830   15.9950  -33.8080 N   0  0  0  0  0  0  0  0  0  0  0  0
   -6.9940   15.3370  -34.0520 O   0  0  0  0  0  0  0  0  0  0  0  0
   -7.9850   17.7300  -32.7190 C   0  0  0  0  0  0  0  0  0  0  0  0
   -8.0710   19.0730  -32.4330 C   0  0  0  0  0  0  0  0  0  0  0  0
   -9.1310   19.8120  -31.9160 C   0  0  0  0  0  0  0  0  0  0  0  0
   -8.9300   21.1840  -31.6940 C   0  0  0  0  0  0  0  0  0  0  0  0
   -7.6780   21.7880  -31.9730 C   0  0  0  0  0  0  0  0  0  0  0  0
   -7.4700   23.2640  -31.7100 C   0  0  0  0  0  0  0  0  0  0  0  0
   -6.0810   23.6200  -31.1260 C   0  0  0  0  0  0  0  0  0  0  0  0
   -5.5550   22.5620  -30.1170 C   0  0  0  0  0  0  0  0  0  0  0  0
   -4.7560   23.1620  -28.9460 C   0  0  0  0  0  0  0  0  0  0  0  0
   -3.9560   24.3180  -29.3820 N   0  0  0  0  0  0  0  0  0  0  0  0
   -2.5950   24.4860  -28.9390 C   0  0  0  0  0  0  0  0  0  0  0  0
   -2.0540   23.6380  -28.1820 O   0  0  0  0  0  0  0  0  0  0  0  0
   -1.8590   25.5950  -29.3420 O   0  0  0  0  0  0  0  0  0  0  0  0
   -4.5830   25.3960  -30.1610 C   0  0  0  0  0  0  0  0  0  0  0  0
   -6.0240   25.0490  -30.5540 C   0  0  0  0  0  0  0  0  0  0  0  0
   -6.6320   21.0080  -32.5150 C   0  0  0  0  0  0  0  0  0  0  0  0
   -6.8650   19.6450  -32.7390 C   0  0  0  0  0  0  0  0  0  0  0  0
   -0.8729   20.1927  -33.0000 H   0  0  0  0  0  0  0  0  0  0  0  0
   -1.9145   19.5164  -34.2978 H   0  0  0  0  0  0  0  0  0  0  0  0
   -1.5006   21.2644  -34.2978 H   0  0  0  0  0  0  0  0  0  0  0  0
   -3.0802   20.5848  -30.6510 H   0  0  0  0  0  0  0  0  0  0  0  0
   -1.4508   20.9728  -31.3001 H   0  0  0  0  0  0  0  0  0  0  0  0
   -2.7391   22.2246  -31.3001 H   0  0  0  0  0  0  0  0  0  0  0  0
   -4.2870   22.4160  -32.6707 H   0  0  0  0  0  0  0  0  0  0  0  0
   -3.1778   22.4404  -34.0834 H   0  0  0  0  0  0  0  0  0  0  0  0
   -4.6083   21.3541  -34.0834 H   0  0  0  0  0  0  0  0  0  0  0  0
   -4.4360   15.0650  -34.1370 H   0  0  0  0  0  0  0  0  0  0  0  0
   -4.0830   16.7390  -33.5940 H   0  0  0  0  0  0  0  0  0  0  0  0
   -8.7704   16.9702  -32.5929 H   0  0  0  0  0  0  0  0  0  0  0  0
  -10.0963   19.3362  -31.6883 H   0  0  0  0  0  0  0  0  0  0  0  0
   -9.7534   21.7972  -31.2991 H   0  0  0  0  0  0  0  0  0  0  0  0
   -7.5920   23.8034  -32.6609 H   0  0  0  0  0  0  0  0  0  0  0  0
   -8.2130   23.5558  -30.9531 H   0  0  0  0  0  0  0  0  0  0  0  0
   -5.3885   23.5976  -31.9804 H   0  0  0  0  0  0  0  0  0  0  0  0
   -6.4172   22.0171  -29.7051 H   0  0  0  0  0  0  0  0  0  0  0  0
   -4.8672   21.9061  -30.6708 H   0  0  0  0  0  0  0  0  0  0  0  0
   -5.4569   23.4861  -28.1626 H   0  0  0  0  0  0  0  0  0  0  0  0
   -4.0719   22.3913  -28.5611 H   0  0  0  0  0  0  0  0  0  0  0  0
   -4.5901   26.3148  -29.5563 H   0  0  0  0  0  0  0  0  0  0  0  0
   -4.0005   25.5351  -31.0837 H   0  0  0  0  0  0  0  0  0  0  0  0
   -6.6698   25.1125  -29.6658 H   0  0  0  0  0  0  0  0  0  0  0  0
   -6.3724   25.7594  -31.3181 H   0  0  0  0  0  0  0  0  0  0  0  0
   -5.6584   21.4601  -32.7552 H   0  0  0  0  0  0  0  0  0  0  0  0
  1  2  1  0
  2  3  1  0
  2  4  1  0
  2  5  1  0
  5  6  1  0
  6  7  2  0
  6  8  1  0
  8  9  1  0
  9 10  1  0
 10 11  1  0
 10 12  2  0
  9 13  2  0
 13 14  1  0
 14 15  2  0
 15 16  1  0
 16 17  2  0
 17 18  1  0
 18 19  1  0
 19 20  1  0
 20 21  1  0
 21 22  1  0
 22 23  1  0
 23 24  2  0
 23 25  1  0
 22 26  1  0
 26 27  1  0
 17 28  1  0
 28 29  2  0
 29  8  1  0
 29 14  1  0
 27 19  1  0
  1 30  1  0
  1 31  1  0
  1 32  1  0
  3 33  1  0
  3 34  1  0
  3 35  1  0
  4 36  1  0
  4 37  1  0
  4 38  1  0
 11 39  1  0
 11 40  1  0
 13 41  1  0
 15 42  1  0
 16 43  1  0
 18 44  1  0
 18 45  1  0
 19 46  1  0
 20 47  1  0
 20 48  1  0
 21 49  1  0
 21 50  1  0
 26 51  1  0
 26 52  1  0
 27 53  1  0
 27 54  1  0
 28 55  1  0
M  CHG  1  25  -1
M  END
>  <UniqueID>  (22) 
21

>  <SMILES>  (22) 
CC(C)(C)OC(=O)n1c(C(N)=O)cc2ccc(CC3CCN(C(=O)[O-])CC3)cc21

>  <Energy>  (22) 
90.36240664785903

>  <Genealogy>  (22) 
CC(C)(C)OC(=O)n1c(C(N)=O)cc2ccc(CC3CCN(C(=O)[O-])CC3)cc21 (protonated)
CC(C)(C)OC(=O)n1c(C(N)=O)cc2ccc(CC3CCN(C(=O)[O-])CC3)cc21 (3D coordinates assigned)
CC(C)(C)OC(=O)n1c(C(N)=O)cc2ccc(CC3CCN(C(=O)[O-])CC3)cc21 (nonaromatic ring conformer: 90.36240664785903 kcal/mol)

>  <smiles>  (22) 
CC(C)(C)OC(=O)n1c(C(N)=O)cc2ccc(CC3CCN(C(=O)O)CC3)cc21

>  <score_type>  (22) 
oracle

>  <origin>  (22) 
adg

>  <m_score__min__energy>  (22) 
-10.67

>  <m_primary>  (22) 
energy

$$$$
23:0
     RDKit          3D

 34 35  0  0  0  0  0  0  0  0999 V2000
   -0.4890   20.2020  -34.7460 C   0  0  0  0  0  0  0  0  0  0  0  0
   -1.4850   21.1750  -34.2950 N   0  0  0  0  0  0  0  0  0  0  0  0
   -1.5810   21.1770  -32.8560 C   0  0  0  0  0  0  0  0  0  0  0  0
   -0.2990   20.6870  -31.9550 S   0  0  0  0  0  0  0  0  0  0  0  0
   -2.6830   21.8110  -32.1910 N   0  0  0  0  0  0  0  0  0  0  0  0
   -4.0570   21.4870  -32.4580 C   0  0  0  0  0  0  0  0  0  0  0  0
   -4.3610   20.7050  -33.4000 O   0  0  0  0  0  0  0  0  0  0  0  0
   -5.0970   22.0270  -31.6280 N   0  0  0  0  0  0  0  0  0  0  0  0
   -5.0420   23.1370  -30.8390 C   0  0  0  0  0  0  0  0  0  0  0  0
   -3.8380   23.9510  -30.5790 C   0  0  0  0  0  0  0  0  0  0  0  0
   -3.8570   25.3520  -30.8460 N   0  0  0  0  0  0  0  0  0  0  0  0
   -2.7950   23.4270  -30.1060 O   0  0  0  0  0  0  0  0  0  0  0  0
   -6.2880   23.3900  -30.2660 C   0  0  0  0  0  0  0  0  0  0  0  0
   -7.1140   22.3930  -30.7330 C   0  0  0  0  0  0  0  0  0  0  0  0
   -8.4710   22.1770  -30.5120 C   0  0  0  0  0  0  0  0  0  0  0  0
   -9.0810   21.0940  -31.1670 C   0  0  0  0  0  0  0  0  0  0  0  0
   -8.3270   20.2520  -32.0250 C   0  0  0  0  0  0  0  0  0  0  0  0
   -8.9940   19.1330  -32.7630 C   0  0  0  0  0  0  0  0  0  0  0  0
   -6.9570   20.5120  -32.2380 C   0  0  0  0  0  0  0  0  0  0  0  0
   -6.3710   21.5840  -31.5550 C   0  0  0  0  0  0  0  0  0  0  0  0
   -0.0109   19.7349  -33.8724 H   0  0  0  0  0  0  0  0  0  0  0  0
   -0.9814   19.4274  -35.3523 H   0  0  0  0  0  0  0  0  0  0  0  0
    0.2738   20.7124  -35.3523 H   0  0  0  0  0  0  0  0  0  0  0  0
   -1.2030   22.1150  -34.6490 H   0  0  0  0  0  0  0  0  0  0  0  0
   -2.4170   20.9360  -34.7080 H   0  0  0  0  0  0  0  0  0  0  0  0
   -2.4750   22.4000  -31.3530 H   0  0  0  0  0  0  0  0  0  0  0  0
   -3.8780   26.0480  -30.0670 H   0  0  0  0  0  0  0  0  0  0  0  0
   -6.5542   24.2120  -29.5852 H   0  0  0  0  0  0  0  0  0  0  0  0
   -9.0483   22.8341  -29.8449 H   0  0  0  0  0  0  0  0  0  0  0  0
  -10.1523   20.8971  -31.0134 H   0  0  0  0  0  0  0  0  0  0  0  0
   -9.4191   18.4199  -32.0414 H   0  0  0  0  0  0  0  0  0  0  0  0
   -9.7980   19.5384  -33.3949 H   0  0  0  0  0  0  0  0  0  0  0  0
   -8.2550   18.6187  -33.3949 H   0  0  0  0  0  0  0  0  0  0  0  0
   -6.3644   19.8882  -32.9233 H   0  0  0  0  0  0  0  0  0  0  0  0
  1  2  1  0
  2  3  1  0
  3  4  2  0
  3  5  1  0
  5  6  1  0
  6  7  2  0
  6  8  1  0
  8  9  1  0
  9 10  1  0
 10 11  1  0
 10 12  2  0
  9 13  2  0
 13 14  1  0
 14 15  2  0
 15 16  1  0
 16 17  2  0
 17 18  1  0
 17 19  1  0
 19 20  2  0
 20  8  1  0
 20 14  1  0
  1 21  1  0
  1 22  1  0
  1 23  1  0
  2 24  1  0
  2 25  1  0
  5 26  1  0
 11 27  1  0
 13 28  1  0
 15 29  1  0
 16 30  1  0
 18 31  1  0
 18 32  1  0
 18 33  1  0
 19 34  1  0
M  CHG  2   2   1  11  -1
M  END
>  <UniqueID>  (23) 
22

>  <SMILES>  (23) 
C[NH2+]C(=S)NC(=O)n1c(C([NH-])=O)cc2ccc(C)cc21

>  <Energy>  (23) 
75.62978019789176

>  <Genealogy>  (23) 
C[NH2+]C(=S)NC(=O)n1c(C([NH-])=O)cc2ccc(C)cc21 (protonated)
C[NH2+]C(=S)NC(=O)n1c(C([NH-])=O)cc2ccc(C)cc21 (3D coordinates assigned)
C[NH2+]C(=S)NC(=O)n1c(C([NH-])=O)cc2ccc(C)cc21 (optimized conformer: 75.62978019789176 kcal/mol)

>  <smiles>  (23) 
CNC(=S)NC(=O)n1c(C(N)=O)cc2ccc(C)cc21

>  <score_type>  (23) 
oracle

>  <origin>  (23) 
adg

>  <m_score__min__energy>  (23) 
-9.9000000000000004

>  <m_primary>  (23) 
energy

$$$$
24:0
     RDKit          3D

 41 42  0  0  0  0  0  0  0  0999 V2000
   -7.0930   18.5530  -33.0580 C   0  0  0  0  0  0  0  0  0  0  0  0
   -7.2010   19.9360  -32.4910 C   0  0  0  0  0  0  0  0  0  0  0  0
   -8.4750   20.5120  -32.2630 C   0  0  0  0  0  0  0  0  0  0  0  0
   -8.5910   21.8250  -31.7780 C   0  0  0  0  0  0  0  0  0  0  0  0
   -7.4190   22.5350  -31.5330 C   0  0  0  0  0  0  0  0  0  0  0  0
   -7.2430   23.8260  -31.0900 C   0  0  0  0  0  0  0  0  0  0  0  0
   -5.8630   24.0170  -31.0440 C   0  0  0  0  0  0  0  0  0  0  0  0
   -5.2310   25.2510  -30.5330 C   0  0  0  0  0  0  0  0  0  0  0  0
   -3.8750   25.5600  -30.8360 N   0  0  0  0  0  0  0  0  0  0  0  0
   -5.8850   26.0180  -29.7760 O   0  0  0  0  0  0  0  0  0  0  0  0
   -5.2120   22.8910  -31.4530 N   0  0  0  0  0  0  0  0  0  0  0  0
   -3.7990   22.7020  -31.6260 C   0  0  0  0  0  0  0  0  0  0  0  0
   -3.3680   22.1050  -32.6500 O   0  0  0  0  0  0  0  0  0  0  0  0
   -2.9180   23.1590  -30.6370 O   0  0  0  0  0  0  0  0  0  0  0  0
   -2.9890   22.8330  -29.2760 C   0  0  0  0  0  0  0  0  0  0  0  0
   -3.0330   21.6250  -28.9070 O   0  0  0  0  0  0  0  0  0  0  0  0
   -2.9620   23.9010  -28.3020 N   0  0  1  0  0  0  0  0  0  0  0  0
   -4.2580   24.0760  -27.6220 C   0  0  0  0  0  0  0  0  0  0  0  0
   -1.8210   23.7550  -27.3660 C   0  0  0  0  0  0  0  0  0  0  0  0
   -1.0270   25.0540  -27.0870 C   0  0  0  0  0  0  0  0  0  0  0  0
   -1.0990   26.0330  -28.2200 C   0  0  0  0  0  0  0  0  0  0  0  0
   -1.5170   25.6650  -29.3500 O   0  0  0  0  0  0  0  0  0  0  0  0
   -0.7450   27.3620  -28.0200 O   0  0  0  0  0  0  0  0  0  0  0  0
   -6.1790   21.9920  -31.7440 C   0  0  0  0  0  0  0  0  0  0  0  0
   -6.0340   20.6930  -32.2470 C   0  0  0  0  0  0  0  0  0  0  0  0
   -7.0360   17.8234  -32.2367 H   0  0  0  0  0  0  0  0  0  0  0  0
   -7.9773   18.3403  -33.6767 H   0  0  0  0  0  0  0  0  0  0  0  0
   -6.1864   18.4801  -33.6767 H   0  0  0  0  0  0  0  0  0  0  0  0
   -9.3825   19.9251  -32.4679 H   0  0  0  0  0  0  0  0  0  0  0  0
   -9.5770   22.2780  -31.5974 H   0  0  0  0  0  0  0  0  0  0  0  0
   -8.0256   24.5532  -30.8278 H   0  0  0  0  0  0  0  0  0  0  0  0
   -3.1020   25.2770  -30.1940 H   0  0  0  0  0  0  0  0  0  0  0  0
   -2.7940   24.7850  -28.8380 H   0  0  0  0  0  0  0  0  0  0  0  0
   -4.1062   24.0555  -26.5327 H   0  0  0  0  0  0  0  0  0  0  0  0
   -4.6973   25.0416  -27.9129 H   0  0  0  0  0  0  0  0  0  0  0  0
   -4.9377   23.2615  -27.9129 H   0  0  0  0  0  0  0  0  0  0  0  0
   -2.2125   23.3830  -26.4077 H   0  0  0  0  0  0  0  0  0  0  0  0
   -1.1153   23.0640  -27.8504 H   0  0  0  0  0  0  0  0  0  0  0  0
   -1.4377   25.5301  -26.1844 H   0  0  0  0  0  0  0  0  0  0  0  0
    0.0291   24.7753  -26.9565 H   0  0  0  0  0  0  0  0  0  0  0  0
   -5.0371   20.2733  -32.4468 H   0  0  0  0  0  0  0  0  0  0  0  0
  1  2  1  0
  2  3  2  0
  3  4  1  0
  4  5  2  0
  5  6  1  0
  6  7  2  0
  7  8  1  0
  8  9  1  0
  8 10  2  0
  7 11  1  0
 11 12  1  0
 12 13  2  0
 12 14  1  0
 14 15  1  0
 15 16  2  0
 15 17  1  0
 17 18  1  0
 17 19  1  0
 19 20  1  0
 20 21  1  0
 21 22  2  0
 21 23  1  0
 11 24  1  0
 24 25  2  0
 25  2  1  0
 24  5  1  0
  1 26  1  0
  1 27  1  0
  1 28  1  0
  3 29  1  0
  4 30  1  0
  6 31  1  0
  9 32  1  0
 17 33  1  6
 18 34  1  0
 18 35  1  0
 18 36  1  0
 19 37  1  0
 19 38  1  0
 20 39  1  0
 20 40  1  0
 25 41  1  0
M  CHG  3   9  -1  17   1  23  -1
M  END
>  <UniqueID>  (24) 
23

>  <SMILES>  (24) 
Cc1ccc2cc(C([NH-])=O)n(C(=O)OC(=O)[N@@H+](C)CCC(=O)[O-])c2c1

>  <Energy>  (24) 
85.06526769961748

>  <Genealogy>  (24) 
Cc1ccc2cc(C([NH-])=O)n(C(=O)OC(=O)[NH+](C)CCC(=O)[O-])c2c1 (protonated)
Cc1ccc2cc(C([NH-])=O)n(C(=O)OC(=O)[N@@H+](C)CCC(=O)[O-])c2c1 (chirality)
Cc1ccc2cc(C([NH-])=O)n(C(=O)OC(=O)[N@@H+](C)CCC(=O)[O-])c2c1 (3D coordinates assigned)
Cc1ccc2cc(C([NH-])=O)n(C(=O)OC(=O)[N@@H+](C)CCC(=O)[O-])c2c1 (optimized conformer: 85.06526769961748 kcal/mol)

>  <smiles>  (24) 
Cc1ccc2cc(C(N)=O)n(C(=O)OC(=O)N(C)CCC(=O)O)c2c1

>  <score_type>  (24) 
oracle

>  <origin>  (24) 
adg

>  <m_score__min__energy>  (24) 
-11.609999999999999

>  <m_primary>  (24) 
energy

$$$$
25:0
     RDKit          3D

 42 45  0  0  0  0  0  0  0  0999 V2000
   -3.8950   25.6160  -30.8410 N   0  0  0  0  0  0  0  0  0  0  0  0
   -5.1780   25.0990  -30.4930 C   0  0  0  0  0  0  0  0  0  0  0  0
   -5.9240   25.7640  -29.7280 O   0  0  0  0  0  0  0  0  0  0  0  0
   -5.6350   23.8170  -31.0690 C   0  0  0  0  0  0  0  0  0  0  0  0
   -6.9720   23.5300  -31.3360 C   0  0  0  0  0  0  0  0  0  0  0  0
   -6.9850   22.2250  -31.7710 C   0  0  0  0  0  0  0  0  0  0  0  0
   -8.0510   21.4280  -32.1820 C   0  0  0  0  0  0  0  0  0  0  0  0
   -7.7690   20.1190  -32.6070 C   0  0  0  0  0  0  0  0  0  0  0  0
   -6.4390   19.6390  -32.6190 C   0  0  0  0  0  0  0  0  0  0  0  0
   -6.1640   18.3100  -33.0650 N   0  0  0  0  0  0  0  0  0  0  0  0
   -6.0450   16.9660  -32.4690 C   0  0  0  0  0  0  0  0  0  0  0  0
   -5.7340   16.2460  -33.7580 C   0  0  0  0  0  0  0  0  0  0  0  0
   -4.3070   15.6440  -33.7970 C   0  0  0  0  0  0  0  0  0  0  0  0
   -4.2030   14.6130  -34.9210 C   0  0  0  0  0  0  0  0  0  0  0  0
   -5.2440   13.4800  -34.7540 C   0  0  0  0  0  0  0  0  0  0  0  0
   -6.4430   13.8740  -33.9870 N   0  0  0  0  0  0  0  0  0  0  0  0
   -6.8330   15.2650  -34.2480 C   0  0  0  0  0  0  0  0  0  0  0  0
   -5.8620   17.6310  -34.3390 C   0  0  0  0  0  0  0  0  0  0  0  0
   -5.3820   20.4720  -32.1970 C   0  0  0  0  0  0  0  0  0  0  0  0
   -5.6920   21.7660  -31.7610 C   0  0  0  0  0  0  0  0  0  0  0  0
   -4.8490   22.7340  -31.3360 N   0  0  0  0  0  0  0  0  0  0  0  0
   -3.4170   22.6470  -31.2610 C   0  0  0  0  0  0  0  0  0  0  0  0
   -2.7990   23.1470  -30.2840 O   0  0  0  0  0  0  0  0  0  0  0  0
   -2.7010   21.9840  -32.2500 O   0  0  0  0  0  0  0  0  0  0  0  0
   -3.0360   25.3010  -30.3390 H   0  0  0  0  0  0  0  0  0  0  0  0
   -7.8341   24.2038  -31.2230 H   0  0  0  0  0  0  0  0  0  0  0  0
   -9.0819   21.8118  -32.1740 H   0  0  0  0  0  0  0  0  0  0  0  0
   -8.5891   19.4624  -32.9329 H   0  0  0  0  0  0  0  0  0  0  0  0
   -5.2273   16.8973  -31.7364 H   0  0  0  0  0  0  0  0  0  0  0  0
   -6.9019   16.5995  -31.8847 H   0  0  0  0  0  0  0  0  0  0  0  0
   -3.5774   16.4483  -33.9722 H   0  0  0  0  0  0  0  0  0  0  0  0
   -4.0973   15.1517  -32.8359 H   0  0  0  0  0  0  0  0  0  0  0  0
   -4.3748   15.1163  -35.8839 H   0  0  0  0  0  0  0  0  0  0  0  0
   -3.1989   14.1653  -34.8849 H   0  0  0  0  0  0  0  0  0  0  0  0
   -5.5649   13.1549  -35.7547 H   0  0  0  0  0  0  0  0  0  0  0  0
   -4.7521   12.6772  -34.1853 H   0  0  0  0  0  0  0  0  0  0  0  0
   -6.2460   13.7680  -32.9630 H   0  0  0  0  0  0  0  0  0  0  0  0
   -6.9820   15.4011  -35.3293 H   0  0  0  0  0  0  0  0  0  0  0  0
   -7.7648   15.4784  -33.7037 H   0  0  0  0  0  0  0  0  0  0  0  0
   -4.9278   17.9865  -34.7982 H   0  0  0  0  0  0  0  0  0  0  0  0
   -6.5819   17.7645  -35.1599 H   0  0  0  0  0  0  0  0  0  0  0  0
   -4.3418   20.1146  -32.2100 H   0  0  0  0  0  0  0  0  0  0  0  0
  1  2  1  0
  2  3  2  0
  2  4  1  0
  4  5  2  0
  5  6  1  0
  6  7  2  0
  7  8  1  0
  8  9  2  0
  9 10  1  0
 10 11  1  0
 11 12  1  0
 12 13  1  0
 13 14  1  0
 14 15  1  0
 15 16  1  0
 16 17  1  0
 12 18  1  0
  9 19  1  0
 19 20  2  0
 20 21  1  0
 21 22  1  0
 22 23  2  0
 22 24  1  0
 21  4  1  0
 20  6  1  0
 18 10  1  0
 17 12  1  0
  1 25  1  0
  5 26  1  0
  7 27  1  0
  8 28  1  0
 11 29  1  0
 11 30  1  0
 13 31  1  0
 13 32  1  0
 14 33  1  0
 14 34  1  0
 15 35  1  0
 15 36  1  0
 16 37  1  0
 17 38  1  0
 17 39  1  0
 18 40  1  0
 18 41  1  0
 19 42  1  0
M  CHG  2   1  -1  24  -1
M  END
>  <UniqueID>  (25) 
24

>  <SMILES>  (25) 
[NH-]C(=O)c1cc2ccc(N3CC4(CCCNC4)C3)cc2n1C(=O)[O-]

>  <Energy>  (25) 
135.28557169303238

>  <Genealogy>  (25) 
[NH-]C(=O)c1cc2ccc(N3CC4(CCCNC4)C3)cc2n1C(=O)[O-] (protonated)
[NH-]C(=O)c1cc2ccc(N3CC4(CCCNC4)C3)cc2n1C(=O)[O-] (3D coordinates assigned)
[NH-]C(=O)c1cc2ccc(N3CC4(CCCNC4)C3)cc2n1C(=O)[O-] (nonaromatic ring conformer: 135.28557169303238 kcal/mol)

>  <smiles>  (25) 
NC(=O)c1cc2ccc(N3CC4(CCCNC4)C3)cc2n1C(=O)O

>  <score_type>  (25) 
oracle

>  <origin>  (25) 
adg

>  <m_score__min__energy>  (25) 
-11.02

>  <m_primary>  (25) 
energy

$$$$
26:0
     RDKit          3D

 55 57  0  0  0  0  0  0  0  0999 V2000
   -6.9910   23.8070  -31.2420 C   0  0  0  0  0  0  0  0  0  0  0  0
   -5.4820   23.8940  -31.4660 C   0  0  2  0  0  0  0  0  0  0  0  0
   -4.8630   22.7160  -30.9510 O   0  0  0  0  0  0  0  0  0  0  0  0
   -4.0950   22.6950  -29.7790 C   0  0  0  0  0  0  0  0  0  0  0  0
   -4.6380   22.9390  -28.6630 O   0  0  0  0  0  0  0  0  0  0  0  0
   -2.6810   22.4400  -29.8530 N   0  0  0  0  0  0  0  0  0  0  0  0
   -1.6830   23.0690  -29.1670 C   0  0  0  0  0  0  0  0  0  0  0  0
   -1.8180   24.3090  -28.3710 C   0  0  0  0  0  0  0  0  0  0  0  0
   -1.6770   25.5880  -28.9810 N   0  0  0  0  0  0  0  0  0  0  0  0
   -1.9770   24.2380  -27.1210 O   0  0  0  0  0  0  0  0  0  0  0  0
   -0.4550   22.4590  -29.4200 C   0  0  0  0  0  0  0  0  0  0  0  0
   -0.7260   21.4390  -30.3010 C   0  0  0  0  0  0  0  0  0  0  0  0
    0.1330   20.5170  -30.8920 C   0  0  0  0  0  0  0  0  0  0  0  0
   -0.4180   19.5740  -31.7750 C   0  0  0  0  0  0  0  0  0  0  0  0
   -1.8090   19.5690  -32.0460 C   0  0  0  0  0  0  0  0  0  0  0  0
   -2.3920   18.5620  -33.0060 C   0  0  0  0  0  0  0  0  0  0  0  0
   -3.2500   19.2330  -34.0880 C   0  0  0  0  0  0  0  0  0  0  0  0
   -4.6160   18.6060  -34.2150 C   0  0  0  0  0  0  0  0  0  0  0  0
   -4.8060   17.7190  -35.0890 O   0  0  0  0  0  0  0  0  0  0  0  0
   -5.7230   19.0420  -33.3970 N   0  0  0  0  0  0  0  0  0  0  0  0
   -5.7650   20.3950  -32.8310 C   0  0  0  0  0  0  0  0  0  0  0  0
   -7.2190   20.8660  -32.7200 C   0  0  0  0  0  0  0  0  0  0  0  0
   -8.0500   19.9550  -31.8980 N   0  0  0  0  0  0  0  0  0  0  0  0
   -9.4730   20.0920  -32.2620 C   0  0  0  0  0  0  0  0  0  0  0  0
   -7.6240   18.5330  -31.9110 C   0  0  0  0  0  0  0  0  0  0  0  0
   -6.8600   18.1390  -33.1810 C   0  0  0  0  0  0  0  0  0  0  0  0
   -2.6540   20.5060  -31.4070 C   0  0  0  0  0  0  0  0  0  0  0  0
   -2.0760   21.4480  -30.5480 C   0  0  0  0  0  0  0  0  0  0  0  0
   -4.9150   25.1180  -30.8030 C   0  0  0  0  0  0  0  0  0  0  0  0
   -3.6750   25.3420  -30.8240 O   0  0  0  0  0  0  0  0  0  0  0  0
   -5.7650   26.0240  -30.1790 O   0  0  0  0  0  0  0  0  0  0  0  0
   -7.2013   23.7949  -30.1624 H   0  0  0  0  0  0  0  0  0  0  0  0
   -7.4807   24.6784  -31.7012 H   0  0  0  0  0  0  0  0  0  0  0  0
   -7.3773   22.8851  -31.7012 H   0  0  0  0  0  0  0  0  0  0  0  0
   -5.2813   23.9715  -32.5447 H   0  0  0  0  0  0  0  0  0  0  0  0
   -1.5910   25.6790  -30.0180 H   0  0  0  0  0  0  0  0  0  0  0  0
    0.5244   22.7356  -29.0026 H   0  0  0  0  0  0  0  0  0  0  0  0
    1.2111   20.5266  -30.6740 H   0  0  0  0  0  0  0  0  0  0  0  0
    0.2352   18.8336  -32.2600 H   0  0  0  0  0  0  0  0  0  0  0  0
   -1.5697   18.0163  -33.4918 H   0  0  0  0  0  0  0  0  0  0  0  0
   -3.0373   17.8793  -32.4338 H   0  0  0  0  0  0  0  0  0  0  0  0
   -3.3723   20.2958  -33.8321 H   0  0  0  0  0  0  0  0  0  0  0  0
   -2.7333   19.1050  -35.0506 H   0  0  0  0  0  0  0  0  0  0  0  0
   -5.3063   20.3871  -31.8312 H   0  0  0  0  0  0  0  0  0  0  0  0
   -5.2100   21.0810  -33.4878 H   0  0  0  0  0  0  0  0  0  0  0  0
   -7.2318   21.8656  -32.2610 H   0  0  0  0  0  0  0  0  0  0  0  0
   -7.6436   20.8811  -33.7346 H   0  0  0  0  0  0  0  0  0  0  0  0
  -10.0814   20.1506  -31.3474 H   0  0  0  0  0  0  0  0  0  0  0  0
   -9.6133   21.0078  -32.8550 H   0  0  0  0  0  0  0  0  0  0  0  0
   -9.7854   19.2198  -32.8550 H   0  0  0  0  0  0  0  0  0  0  0  0
   -6.9723   18.3561  -31.0427 H   0  0  0  0  0  0  0  0  0  0  0  0
   -8.5365   17.9197  -31.8769 H   0  0  0  0  0  0  0  0  0  0  0  0
   -6.4893   17.1087  -33.0757 H   0  0  0  0  0  0  0  0  0  0  0  0
   -7.5403   18.2106  -34.0425 H   0  0  0  0  0  0  0  0  0  0  0  0
   -3.7401   20.4948  -31.5810 H   0  0  0  0  0  0  0  0  0  0  0  0
  1  2  1  0
  2  3  1  0
  3  4  1  0
  4  5  2  0
  4  6  1  0
  6  7  1  0
  7  8  1  0
  8  9  1  0
  8 10  2  0
  7 11  2  0
 11 12  1  0
 12 13  2  0
 13 14  1  0
 14 15  2  0
 15 16  1  0
 16 17  1  0
 17 18  1  0
 18 19  2  0
 18 20  1  0
 20 21  1  0
 21 22  1  0
 22 23  1  0
 23 24  1  0
 23 25  1  0
 25 26  1  0
 15 27  1  0
 27 28  2  0
  2 29  1  0
 29 30  2  0
 29 31  1  0
 28  6  1  0
 28 12  1  0
 26 20  1  0
  1 32  1  0
  1 33  1  0
  1 34  1  0
  2 35  1  6
  9 36  1  0
 11 37  1  0
 13 38  1  0
 14 39  1  0
 16 40  1  0
 16 41  1  0
 17 42  1  0
 17 43  1  0
 21 44  1  0
 21 45  1  0
 22 46  1  0
 22 47  1  0
 24 48  1  0
 24 49  1  0
 24 50  1  0
 25 51  1  0
 25 52  1  0
 26 53  1  0
 26 54  1  0
 27 55  1  0
M  CHG  2   9  -1  31  -1
M  END
>  <UniqueID>  (26) 
25

>  <SMILES>  (26) 
C[C@H](OC(=O)n1c(C([NH-])=O)cc2ccc(CCC(=O)N3CCN(C)CC3)cc21)C(=O)[O-]

>  <Energy>  (26) 
95.17043260060876

>  <Genealogy>  (26) 
CC(OC(=O)n1c(C([NH-])=O)cc2ccc(CCC(=O)N3CCN(C)CC3)cc21)C(=O)[O-] (protonated)
C[C@H](OC(=O)n1c(C([NH-])=O)cc2ccc(CCC(=O)N3CCN(C)CC3)cc21)C(=O)[O-] (chirality)
C[C@H](OC(=O)n1c(C([NH-])=O)cc2ccc(CCC(=O)N3CCN(C)CC3)cc21)C(=O)[O-] (3D coordinates assigned)
C[C@H](OC(=O)n1c(C([NH-])=O)cc2ccc(CCC(=O)N3CCN(C)CC3)cc21)C(=O)[O-] (nonaromatic ring conformer: 95.17043260060876 kcal/mol)

>  <smiles>  (26) 
CC(OC(=O)n1c(C(N)=O)cc2ccc(CCC(=O)N3CCN(C)CC3)cc21)C(=O)O

>  <score_type>  (26) 
oracle

>  <origin>  (26) 
adg

>  <m_score__min__energy>  (26) 
-13.449999999999999

>  <m_primary>  (26) 
energy

$$$$
27:0
     RDKit          3D

 42 44  0  0  0  0  0  0  0  0999 V2000
    0.1040   18.7280  -28.1880 C   0  0  0  0  0  0  0  0  0  0  0  0
   -1.0710   19.5890  -28.2570 N   0  0  0  0  0  0  0  0  0  0  0  0
   -1.2890   20.6150  -29.2590 C   0  0  0  0  0  0  0  0  0  0  0  0
   -2.6960   21.1910  -28.9640 C   0  0  2  0  0  0  0  0  0  0  0  0
   -2.7290   22.7260  -29.0690 C   0  0  0  0  0  0  0  0  0  0  0  0
   -2.6150   23.1450  -30.4280 O   0  0  0  0  0  0  0  0  0  0  0  0
   -3.3570   22.5830  -31.4720 C   0  0  0  0  0  0  0  0  0  0  0  0
   -2.7770   22.0150  -32.4370 O   0  0  0  0  0  0  0  0  0  0  0  0
   -4.7900   22.6750  -31.4530 N   0  0  0  0  0  0  0  0  0  0  0  0
   -5.5570   23.6620  -30.9090 C   0  0  0  0  0  0  0  0  0  0  0  0
   -5.0620   24.9400  -30.3540 C   0  0  0  0  0  0  0  0  0  0  0  0
   -3.8640   25.5370  -30.8430 N   0  0  0  0  0  0  0  0  0  0  0  0
   -5.7330   25.5370  -29.4700 O   0  0  0  0  0  0  0  0  0  0  0  0
   -6.9090   23.3470  -31.0250 C   0  0  0  0  0  0  0  0  0  0  0  0
   -6.9480   22.1320  -31.6710 C   0  0  0  0  0  0  0  0  0  0  0  0
   -8.0360   21.3550  -32.0500 C   0  0  0  0  0  0  0  0  0  0  0  0
   -7.7790   20.1310  -32.6920 C   0  0  0  0  0  0  0  0  0  0  0  0
   -6.4480   19.6960  -32.9200 C   0  0  0  0  0  0  0  0  0  0  0  0
   -6.1870   18.4010  -33.6460 C   0  0  0  0  0  0  0  0  0  0  0  0
   -7.2300   17.5260  -33.4070 F   0  0  0  0  0  0  0  0  0  0  0  0
   -5.0070   17.8250  -33.2080 F   0  0  0  0  0  0  0  0  0  0  0  0
   -6.0830   18.6160  -35.0090 F   0  0  0  0  0  0  0  0  0  0  0  0
   -5.3690   20.5280  -32.5410 C   0  0  0  0  0  0  0  0  0  0  0  0
   -5.6550   21.7490  -31.9180 C   0  0  0  0  0  0  0  0  0  0  0  0
   -3.0990   20.6850  -27.5610 C   0  0  0  0  0  0  0  0  0  0  0  0
   -2.0950   19.6400  -27.2840 C   0  0  0  0  0  0  0  0  0  0  0  0
   -2.1260   18.8840  -26.2780 O   0  0  0  0  0  0  0  0  0  0  0  0
    0.3598   18.5405  -27.1347 H   0  0  0  0  0  0  0  0  0  0  0  0
   -0.1116   17.7726  -28.6886 H   0  0  0  0  0  0  0  0  0  0  0  0
    0.9501   19.2215  -28.6886 H   0  0  0  0  0  0  0  0  0  0  0  0
   -0.5259   21.4028  -29.1746 H   0  0  0  0  0  0  0  0  0  0  0  0
   -1.2203   20.2095  -30.2792 H   0  0  0  0  0  0  0  0  0  0  0  0
   -3.4210   20.8460  -29.7159 H   0  0  0  0  0  0  0  0  0  0  0  0
   -3.6797   23.0950  -28.6567 H   0  0  0  0  0  0  0  0  0  0  0  0
   -1.8801   23.1358  -28.5021 H   0  0  0  0  0  0  0  0  0  0  0  0
   -2.9340   25.2760  -30.4470 H   0  0  0  0  0  0  0  0  0  0  0  0
   -7.7645   23.9431  -30.6745 H   0  0  0  0  0  0  0  0  0  0  0  0
   -9.0661   21.6873  -31.8538 H   0  0  0  0  0  0  0  0  0  0  0  0
   -8.6199   19.5031  -33.0215 H   0  0  0  0  0  0  0  0  0  0  0  0
   -4.3294   20.2231  -32.7312 H   0  0  0  0  0  0  0  0  0  0  0  0
   -3.0430   21.4940  -26.8178 H   0  0  0  0  0  0  0  0  0  0  0  0
   -4.1339   20.3151  -27.5144 H   0  0  0  0  0  0  0  0  0  0  0  0
  1  2  1  0
  2  3  1  0
  3  4  1  0
  4  5  1  0
  5  6  1  0
  6  7  1  0
  7  8  2  0
  7  9  1  0
  9 10  1  0
 10 11  1  0
 11 12  1  0
 11 13  2  0
 10 14  2  0
 14 15  1  0
 15 16  2  0
 16 17  1  0
 17 18  2  0
 18 19  1  0
 19 20  1  0
 19 21  1  0
 19 22  1  0
 18 23  1  0
 23 24  2  0
  4 25  1  0
 25 26  1  0
 26 27  2  0
 26  2  1  0
 24  9  1  0
 24 15  1  0
  1 28  1  0
  1 29  1  0
  1 30  1  0
  3 31  1  0
  3 32  1  0
  4 33  1  6
  5 34  1  0
  5 35  1  0
 12 36  1  0
 14 37  1  0
 16 38  1  0
 17 39  1  0
 23 40  1  0
 25 41  1  0
 25 42  1  0
M  CHG  1  12  -1
M  END
>  <UniqueID>  (27) 
26

>  <SMILES>  (27) 
CN1C[C@H](COC(=O)n2c(C([NH-])=O)cc3ccc(C(F)(F)F)cc32)CC1=O

>  <Energy>  (27) 
85.23854817227443

>  <Genealogy>  (27) 
CN1CC(COC(=O)n2c(C([NH-])=O)cc3ccc(C(F)(F)F)cc32)CC1=O (protonated)
CN1C[C@H](COC(=O)n2c(C([NH-])=O)cc3ccc(C(F)(F)F)cc32)CC1=O (chirality)
CN1C[C@H](COC(=O)n2c(C([NH-])=O)cc3ccc(C(F)(F)F)cc32)CC1=O (3D coordinates assigned)
CN1C[C@H](COC(=O)n2c(C([NH-])=O)cc3ccc(C(F)(F)F)cc32)CC1=O (nonaromatic ring conformer: 85.23854817227443 kcal/mol)

>  <smiles>  (27) 
CN1CC(COC(=O)n2c(C(N)=O)cc3ccc(C(F)(F)F)cc32)CC1=O

>  <score_type>  (27) 
oracle

>  <origin>  (27) 
adg

>  <m_score__min__energy>  (27) 
-11.09

>  <m_primary>  (27) 
energy

$$$$
28:0
     RDKit          3D

 46 47  0  0  0  0  0  0  0  0999 V2000
   -3.6850   18.4620  -33.4440 C   0  0  0  0  0  0  0  0  0  0  0  0
   -4.6050   17.5170  -34.0950 N   0  0  0  0  0  0  0  0  0  0  0  0
   -4.1160   17.1280  -35.4270 C   0  0  0  0  0  0  0  0  0  0  0  0
   -4.9400   16.3550  -33.2400 C   0  0  0  0  0  0  0  0  0  0  0  0
   -5.7350   16.7110  -31.9670 C   0  0  0  0  0  0  0  0  0  0  0  0
   -7.0680   17.3790  -32.3290 C   0  0  0  0  0  0  0  0  0  0  0  0
   -6.8430   18.5910  -33.1170 N   0  0  0  0  0  0  0  0  0  0  0  0
   -6.9790   19.9350  -32.6120 C   0  0  0  0  0  0  0  0  0  0  0  0
   -8.2760   20.4930  -32.4890 C   0  0  0  0  0  0  0  0  0  0  0  0
   -8.4580   21.7940  -31.9920 C   0  0  0  0  0  0  0  0  0  0  0  0
   -7.3280   22.5190  -31.6330 C   0  0  0  0  0  0  0  0  0  0  0  0
   -7.2180   23.7850  -31.1040 C   0  0  0  0  0  0  0  0  0  0  0  0
   -5.8510   23.9960  -30.9320 C   0  0  0  0  0  0  0  0  0  0  0  0
   -5.2770   25.2740  -30.4620 C   0  0  0  0  0  0  0  0  0  0  0  0
   -3.9650   25.6740  -30.8450 N   0  0  0  0  0  0  0  0  0  0  0  0
   -5.9750   26.0460  -29.7510 O   0  0  0  0  0  0  0  0  0  0  0  0
   -5.1450   22.9000  -31.3310 N   0  0  0  0  0  0  0  0  0  0  0  0
   -3.7280   22.6880  -31.2440 C   0  0  0  0  0  0  0  0  0  0  0  0
   -3.1250   22.0820  -32.1710 O   0  0  0  0  0  0  0  0  0  0  0  0
   -3.0270   23.1340  -30.1160 O   0  0  0  0  0  0  0  0  0  0  0  0
   -1.6120   23.0220  -29.9790 C   0  0  0  0  0  0  0  0  0  0  0  0
   -1.0510   24.2600  -29.3550 C   0  0  0  0  0  0  0  0  0  0  0  0
   -1.7420   25.3110  -29.3040 O   0  0  0  0  0  0  0  0  0  0  0  0
    0.2230   24.2450  -28.8020 O   0  0  0  0  0  0  0  0  0  0  0  0
   -6.0630   22.0060  -31.7570 C   0  0  0  0  0  0  0  0  0  0  0  0
   -5.8530   20.7040  -32.2240 C   0  0  0  0  0  0  0  0  0  0  0  0
   -3.7759   18.3687  -32.3517 H   0  0  0  0  0  0  0  0  0  0  0  0
   -2.6520   18.2355  -33.7467 H   0  0  0  0  0  0  0  0  0  0  0  0
   -3.9391   19.4886  -33.7467 H   0  0  0  0  0  0  0  0  0  0  0  0
   -3.2594   16.4465  -35.3185 H   0  0  0  0  0  0  0  0  0  0  0  0
   -4.9207   16.6204  -35.9792 H   0  0  0  0  0  0  0  0  0  0  0  0
   -3.8024   18.0262  -35.9792 H   0  0  0  0  0  0  0  0  0  0  0  0
   -5.5402   15.6511  -33.8353 H   0  0  0  0  0  0  0  0  0  0  0  0
   -3.9846   15.9253  -32.9045 H   0  0  0  0  0  0  0  0  0  0  0  0
   -5.9349   15.7916  -31.3972 H   0  0  0  0  0  0  0  0  0  0  0  0
   -5.1404   17.4125  -31.3634 H   0  0  0  0  0  0  0  0  0  0  0  0
   -7.6769   16.6751  -32.9154 H   0  0  0  0  0  0  0  0  0  0  0  0
   -7.5893   17.6534  -31.4001 H   0  0  0  0  0  0  0  0  0  0  0  0
   -6.5880   18.4630  -34.1230 H   0  0  0  0  0  0  0  0  0  0  0  0
   -9.1524   19.8988  -32.7870 H   0  0  0  0  0  0  0  0  0  0  0  0
   -9.4645   22.2260  -31.8900 H   0  0  0  0  0  0  0  0  0  0  0  0
   -8.0353   24.4821  -30.8673 H   0  0  0  0  0  0  0  0  0  0  0  0
   -3.1220   25.2550  -30.3930 H   0  0  0  0  0  0  0  0  0  0  0  0
   -1.3765   22.1562  -29.3426 H   0  0  0  0  0  0  0  0  0  0  0  0
   -1.1655   22.8899  -30.9756 H   0  0  0  0  0  0  0  0  0  0  0  0
   -4.8374   20.2865  -32.2886 H   0  0  0  0  0  0  0  0  0  0  0  0
  1  2  1  0
  2  3  1  0
  2  4  1  0
  4  5  1  0
  5  6  1  0
  6  7  1  0
  7  8  1  0
  8  9  2  0
  9 10  1  0
 10 11  2  0
 11 12  1  0
 12 13  2  0
 13 14  1  0
 14 15  1  0
 14 16  2  0
 13 17  1  0
 17 18  1  0
 18 19  2  0
 18 20  1  0
 20 21  1  0
 21 22  1  0
 22 23  2  0
 22 24  1  0
 17 25  1  0
 25 26  2  0
 26  8  1  0
 25 11  1  0
  1 27  1  0
  1 28  1  0
  1 29  1  0
  3 30  1  0
  3 31  1  0
  3 32  1  0
  4 33  1  0
  4 34  1  0
  5 35  1  0
  5 36  1  0
  6 37  1  0
  6 38  1  0
  7 39  1  0
  9 40  1  0
 10 41  1  0
 12 42  1  0
 15 43  1  0
 21 44  1  0
 21 45  1  0
 26 46  1  0
M  CHG  2  15  -1  24  -1
M  END
>  <UniqueID>  (28) 
27

>  <SMILES>  (28) 
CN(C)CCCNc1ccc2cc(C([NH-])=O)n(C(=O)OCC(=O)[O-])c2c1

>  <Energy>  (28) 
81.03518913937549

>  <Genealogy>  (28) 
CN(C)CCCNc1ccc2cc(C([NH-])=O)n(C(=O)OCC(=O)[O-])c2c1 (protonated)
CN(C)CCCNc1ccc2cc(C([NH-])=O)n(C(=O)OCC(=O)[O-])c2c1 (3D coordinates assigned)
CN(C)CCCNc1ccc2cc(C([NH-])=O)n(C(=O)OCC(=O)[O-])c2c1 (optimized conformer: 81.03518913937549 kcal/mol)

>  <smiles>  (28) 
CN(C)CCCNc1ccc2cc(C(N)=O)n(C(=O)OCC(=O)O)c2c1

>  <score_type>  (28) 
oracle

>  <origin>  (28) 
adg

>  <m_score__min__energy>  (28) 
-12.06

>  <m_primary>  (28) 
energy

$$$$
29:0
     RDKit          3D

 40 41  0  0  0  0  0  0  0  0999 V2000
   -6.4060   14.7490  -34.2160 C   0  0  0  0  0  0  0  0  0  0  0  0
   -6.4990   16.1490  -34.0870 O   0  0  0  0  0  0  0  0  0  0  0  0
   -5.2160   16.6860  -33.8380 C   0  0  0  0  0  0  0  0  0  0  0  0
   -5.3250   18.2000  -33.5950 C   0  0  0  0  0  0  0  0  0  0  0  0
   -6.7060   18.7000  -33.7180 N   0  0  0  0  0  0  0  0  0  0  0  0
   -6.8860   19.9580  -33.0320 C   0  0  0  0  0  0  0  0  0  0  0  0
   -8.1880   20.4110  -32.7020 C   0  0  0  0  0  0  0  0  0  0  0  0
   -8.3720   21.6080  -31.9910 C   0  0  0  0  0  0  0  0  0  0  0  0
   -7.2410   22.3300  -31.6240 C   0  0  0  0  0  0  0  0  0  0  0  0
   -7.1290   23.4910  -30.8950 C   0  0  0  0  0  0  0  0  0  0  0  0
   -5.7620   23.7410  -30.8020 C   0  0  0  0  0  0  0  0  0  0  0  0
   -5.1960   24.9460  -30.1610 C   0  0  0  0  0  0  0  0  0  0  0  0
   -4.1290   25.6690  -30.7700 N   0  0  0  0  0  0  0  0  0  0  0  0
   -5.6940   25.3720  -29.0850 O   0  0  0  0  0  0  0  0  0  0  0  0
   -5.0540   22.7680  -31.4440 N   0  0  0  0  0  0  0  0  0  0  0  0
   -3.6290   22.5990  -31.4910 C   0  0  0  0  0  0  0  0  0  0  0  0
   -3.1310   21.6510  -32.1580 O   0  0  0  0  0  0  0  0  0  0  0  0
   -2.8000   23.5050  -30.8200 O   0  0  0  0  0  0  0  0  0  0  0  0
   -2.0560   23.1680  -29.6520 C   0  0  0  0  0  0  0  0  0  0  0  0
   -1.1500   24.2930  -29.2680 C   0  0  0  0  0  0  0  0  0  0  0  0
    0.0460   24.0610  -28.9510 O   0  0  0  0  0  0  0  0  0  0  0  0
   -1.6170   25.6010  -29.2870 O   0  0  0  0  0  0  0  0  0  0  0  0
   -5.9740   21.9160  -31.9470 C   0  0  0  0  0  0  0  0  0  0  0  0
   -5.7610   20.7240  -32.6490 C   0  0  0  0  0  0  0  0  0  0  0  0
   -6.3755   14.2899  -33.2168 H   0  0  0  0  0  0  0  0  0  0  0  0
   -7.2811   14.3725  -34.7659 H   0  0  0  0  0  0  0  0  0  0  0  0
   -5.4888   14.4916  -34.7659 H   0  0  0  0  0  0  0  0  0  0  0  0
   -4.7841   16.2033  -32.9489 H   0  0  0  0  0  0  0  0  0  0  0  0
   -4.5697   16.5029  -34.7091 H   0  0  0  0  0  0  0  0  0  0  0  0
   -4.9604   18.4204  -32.5808 H   0  0  0  0  0  0  0  0  0  0  0  0
   -4.7207   18.7033  -34.3641 H   0  0  0  0  0  0  0  0  0  0  0  0
   -7.3550   17.9930  -33.2960 H   0  0  0  0  0  0  0  0  0  0  0  0
   -6.9680   18.7870  -34.7270 H   0  0  0  0  0  0  0  0  0  0  0  0
   -9.0636   19.8186  -33.0061 H   0  0  0  0  0  0  0  0  0  0  0  0
   -9.3801   21.9640  -31.7321 H   0  0  0  0  0  0  0  0  0  0  0  0
   -7.9466   24.0947  -30.4742 H   0  0  0  0  0  0  0  0  0  0  0  0
   -3.1540   25.2990  -30.7590 H   0  0  0  0  0  0  0  0  0  0  0  0
   -2.7522   22.9650  -28.8249 H   0  0  0  0  0  0  0  0  0  0  0  0
   -1.4476   22.2759  -29.8619 H   0  0  0  0  0  0  0  0  0  0  0  0
   -4.7423   20.3910  -32.8969 H   0  0  0  0  0  0  0  0  0  0  0  0
  1  2  1  0
  2  3  1  0
  3  4  1  0
  4  5  1  0
  5  6  1  0
  6  7  2  0
  7  8  1  0
  8  9  2  0
  9 10  1  0
 10 11  2  0
 11 12  1  0
 12 13  1  0
 12 14  2  0
 11 15  1  0
 15 16  1  0
 16 17  2  0
 16 18  1  0
 18 19  1  0
 19 20  1  0
 20 21  2  0
 20 22  1  0
 15 23  1  0
 23 24  2  0
 24  6  1  0
 23  9  1  0
  1 25  1  0
  1 26  1  0
  1 27  1  0
  3 28  1  0
  3 29  1  0
  4 30  1  0
  4 31  1  0
  5 32  1  0
  5 33  1  0
  7 34  1  0
  8 35  1  0
 10 36  1  0
 13 37  1  0
 19 38  1  0
 19 39  1  0
 24 40  1  0
M  CHG  3   5   1  13  -1  22  -1
M  END
>  <UniqueID>  (29) 
28

>  <SMILES>  (29) 
COCC[NH2+]c1ccc2cc(C([NH-])=O)n(C(=O)OCC(=O)[O-])c2c1

>  <Energy>  (29) 
76.66369046826986

>  <Genealogy>  (29) 
COCC[NH2+]c1ccc2cc(C([NH-])=O)n(C(=O)OCC(=O)[O-])c2c1 (protonated)
COCC[NH2+]c1ccc2cc(C([NH-])=O)n(C(=O)OCC(=O)[O-])c2c1 (3D coordinates assigned)
COCC[NH2+]c1ccc2cc(C([NH-])=O)n(C(=O)OCC(=O)[O-])c2c1 (optimized conformer: 76.66369046826986 kcal/mol)

>  <smiles>  (29) 
COCCNc1ccc2cc(C(N)=O)n(C(=O)OCC(=O)O)c2c1

>  <score_type>  (29) 
oracle

>  <origin>  (29) 
adg

>  <m_score__min__energy>  (29) 
-11.390000000000001

>  <m_primary>  (29) 
energy

$$$$
30:0
     RDKit          3D

 41 42  0  0  0  0  0  0  0  0999 V2000
   -2.7450   25.2710  -30.8110 H   0  0  0  0  0  0  0  0  0  0  0  0
   -3.4980   25.2920  -30.0880 N   0  0  0  0  0  0  0  0  0  0  0  0
   -4.8680   25.4200  -30.4590 C   0  0  0  0  0  0  0  0  0  0  0  0
   -5.3990   26.5620  -30.4730 O   0  0  0  0  0  0  0  0  0  0  0  0
   -5.6860   24.2300  -30.7700 C   0  0  0  0  0  0  0  0  0  0  0  0
   -7.0520   24.1500  -30.5080 C   0  0  0  0  0  0  0  0  0  0  0  0
   -7.7020   24.9439  -30.1115 H   0  0  0  0  0  0  0  0  0  0  0  0
   -7.4160   22.8680  -30.8500 C   0  0  0  0  0  0  0  0  0  0  0  0
   -8.6600   22.2490  -30.8050 C   0  0  0  0  0  0  0  0  0  0  0  0
   -9.5450   22.7827  -30.4282 H   0  0  0  0  0  0  0  0  0  0  0  0
   -8.7530   20.9220  -31.2550 C   0  0  0  0  0  0  0  0  0  0  0  0
   -9.7240   20.4058  -31.2282 H   0  0  0  0  0  0  0  0  0  0  0  0
   -7.6090   20.2390  -31.7440 C   0  0  0  0  0  0  0  0  0  0  0  0
   -7.7200   18.8860  -32.2320 N   0  0  0  0  0  0  0  0  0  0  0  0
   -8.9450   18.1180  -31.9880 C   0  0  0  0  0  0  0  0  0  0  0  0
   -9.1051   18.0176  -30.9044 H   0  0  0  0  0  0  0  0  0  0  0  0
   -9.8015   18.6411  -32.4383 H   0  0  0  0  0  0  0  0  0  0  0  0
   -8.8474   17.1192  -32.4383 H   0  0  0  0  0  0  0  0  0  0  0  0
   -6.5580   18.2040  -32.8220 C   0  0  0  0  0  0  0  0  0  0  0  0
   -5.7375   18.1964  -32.0894 H   0  0  0  0  0  0  0  0  0  0  0  0
   -6.8556   17.1783  -33.0855 H   0  0  0  0  0  0  0  0  0  0  0  0
   -6.0820   18.9110  -34.0970 C   0  0  0  0  0  0  0  0  0  0  0  0
   -5.9923   18.1712  -34.9061 H   0  0  0  0  0  0  0  0  0  0  0  0
   -6.8161   19.6861  -34.3621 H   0  0  0  0  0  0  0  0  0  0  0  0
   -4.7830   19.5520  -33.8890 N   0  0  0  0  0  0  0  0  0  0  0  0
   -4.7440   20.5960  -33.8720 H   0  0  0  0  0  0  0  0  0  0  0  0
   -3.5690   18.8060  -33.7310 C   0  0  0  0  0  0  0  0  0  0  0  0
   -3.5760   17.5500  -33.8570 O   0  0  0  0  0  0  0  0  0  0  0  0
   -2.3140   19.5170  -33.4210 C   0  0  0  0  0  0  0  0  0  0  0  0
   -1.8421   19.3576  -32.4402 H   0  0  0  0  0  0  0  0  0  0  0  0
   -1.7310   20.3470  -34.2890 C   0  0  0  0  0  0  0  0  0  0  0  0
   -2.1920   20.5189  -35.2728 H   0  0  0  0  0  0  0  0  0  0  0  0
   -0.5060   21.0180  -33.9490 C   0  0  0  0  0  0  0  0  0  0  0  0
    0.4810   21.5590  -33.6740 N   0  0  0  0  0  0  0  0  0  0  0  0
   -6.3610   20.9050  -31.7720 C   0  0  0  0  0  0  0  0  0  0  0  0
   -5.4624   20.3992  -32.1549 H   0  0  0  0  0  0  0  0  0  0  0  0
   -6.2950   22.2210  -31.3020 C   0  0  0  0  0  0  0  0  0  0  0  0
   -5.2240   23.0460  -31.2640 N   0  0  0  0  0  0  0  0  0  0  0  0
   -3.9030   22.7520  -31.7480 C   0  0  0  0  0  0  0  0  0  0  0  0
   -3.7430   22.2240  -32.8800 O   0  0  0  0  0  0  0  0  0  0  0  0
   -2.7900   23.0730  -30.9830 O   0  0  0  0  0  0  0  0  0  0  0  0
  1  2  1  0
  2  3  1  0
  3  4  2  0
  3  5  1  0
  5  6  2  0
  6  7  1  0
  6  8  1  0
  8  9  2  0
  9 10  1  0
  9 11  1  0
 11 12  1  0
 11 13  2  0
 13 14  1  0
 14 15  1  0
 15 16  1  0
 15 17  1  0
 15 18  1  0
 14 19  1  0
 19 20  1  0
 19 21  1  0
 19 22  1  0
 22 23  1  0
 22 24  1  0
 22 25  1  0
 25 26  1  0
 25 27  1  0
 27 28  2  0
 27 29  1  0
 29 30  1  0
 29 31  2  0
 31 32  1  0
 31 33  1  0
 33 34  3  0
 13 35  1  0
 35 36  1  0
 35 37  2  0
 37 38  1  0
 38 39  1  0
 39 40  2  0
 39 41  1  0
 38  5  1  0
 37  8  1  0
M  CHG  2   2  -1  41  -1
M  END
>  <UniqueID>  (30) 
29

>  <SMILES>  (30) 
CN(CCNC(=O)/C=C/C#N)c1ccc2cc(C([NH-])=O)n(C(=O)[O-])c2c1

>  <Energy>  (30) 
75.47585324707634

>  <Genealogy>  (30) 
CN(CCNC(=O)/C=C/C#N)c1ccc2cc(C([NH-])=O)n(C(=O)[O-])c2c1 (protonated)
CN(CCNC(=O)/C=C/C#N)c1ccc2cc(C([NH-])=O)n(C(=O)[O-])c2c1 (cis-trans isomerization)
CN(CCNC(=O)/C=C/C#N)c1ccc2cc(C([NH-])=O)n(C(=O)[O-])c2c1 (3D coordinates assigned)
CN(CCNC(=O)/C=C/C#N)c1ccc2cc(C([NH-])=O)n(C(=O)[O-])c2c1 (optimized conformer: 75.47585324707634 kcal/mol)

>  <smiles>  (30) 
CN(CCNC(=O)/C=C/C#N)c1ccc2cc(C(N)=O)n(C(=O)O)c2c1

>  <score_type>  (30) 
oracle

>  <origin>  (30) 
adg

>  <m_score__min__energy>  (30) 
-11.34

>  <m_primary>  (30) 
energy

$$$$
31:0
     RDKit          3D

 34 35  0  0  0  0  0  0  0  0999 V2000
   -3.5210   26.0000  -31.2320 H   0  0  0  0  0  0  0  0  0  0  0  0
   -3.6820   25.2960  -30.4770 N   0  0  0  0  0  0  0  0  0  0  0  0
   -4.7820   24.3930  -30.5410 C   0  0  0  0  0  0  0  0  0  0  0  0
   -5.8620   24.6950  -29.9670 O   0  0  0  0  0  0  0  0  0  0  0  0
   -4.6580   23.0890  -31.2250 C   0  0  0  0  0  0  0  0  0  0  0  0
   -3.4680   22.3700  -31.2990 C   0  0  0  0  0  0  0  0  0  0  0  0
   -2.5068   22.6218  -30.8271 H   0  0  0  0  0  0  0  0  0  0  0  0
   -3.7490   21.2770  -32.0880 C   0  0  0  0  0  0  0  0  0  0  0  0
   -2.9260   20.2360  -32.5050 C   0  0  0  0  0  0  0  0  0  0  0  0
   -1.8681   20.1950  -32.2063 H   0  0  0  0  0  0  0  0  0  0  0  0
   -3.4880   19.2380  -33.3200 C   0  0  0  0  0  0  0  0  0  0  0  0
   -2.8583   18.4098  -33.6771 H   0  0  0  0  0  0  0  0  0  0  0  0
   -4.8590   19.2860  -33.6880 C   0  0  0  0  0  0  0  0  0  0  0  0
   -5.4440   18.2270  -34.5940 C   0  0  0  0  0  0  0  0  0  0  0  0
   -6.1040   18.8170  -35.6590 F   0  0  0  0  0  0  0  0  0  0  0  0
   -4.4360   17.4280  -35.1090 F   0  0  0  0  0  0  0  0  0  0  0  0
   -6.4270   17.3530  -33.8200 C   0  0  0  0  0  0  0  0  0  0  0  0
   -6.2701   17.4925  -32.7402 H   0  0  0  0  0  0  0  0  0  0  0  0
   -7.4565   17.6395  -34.0810 H   0  0  0  0  0  0  0  0  0  0  0  0
   -6.2629   16.2971  -34.0810 H   0  0  0  0  0  0  0  0  0  0  0  0
   -5.6540   20.3760  -33.2620 C   0  0  0  0  0  0  0  0  0  0  0  0
   -6.7110   20.4508  -33.5572 H   0  0  0  0  0  0  0  0  0  0  0  0
   -5.0650   21.3560  -32.4570 C   0  0  0  0  0  0  0  0  0  0  0  0
   -5.6440   22.4520  -31.9210 N   0  0  0  0  0  0  0  0  0  0  0  0
   -7.0180   22.8410  -32.0730 C   0  0  0  0  0  0  0  0  0  0  0  0
   -7.3360   23.6180  -33.0130 O   0  0  0  0  0  0  0  0  0  0  0  0
   -8.0720   22.4060  -31.1320 C   0  0  0  0  0  0  0  0  0  0  0  0
   -8.2972   23.0749  -30.2883 H   0  0  0  0  0  0  0  0  0  0  0  0
   -8.7780   21.2690  -31.2150 C   0  0  0  0  0  0  0  0  0  0  0  0
   -9.4724   21.0463  -30.3914 H   0  0  0  0  0  0  0  0  0  0  0  0
   -8.7010   20.2740  -32.3370 C   0  0  0  0  0  0  0  0  0  0  0  0
   -9.5720   20.4050  -32.9959 H   0  0  0  0  0  0  0  0  0  0  0  0
   -7.7694   20.4442  -32.8966 H   0  0  0  0  0  0  0  0  0  0  0  0
   -8.6920   18.6080  -31.7040 Cl  0  0  0  0  0  0  0  0  0  0  0  0
  1  2  1  0
  2  3  1  0
  3  4  2  0
  3  5  1  0
  5  6  2  0
  6  7  1  0
  6  8  1  0
  8  9  2  0
  9 10  1  0
  9 11  1  0
 11 12  1  0
 11 13  2  0
 13 14  1  0
 14 15  1  0
 14 16  1  0
 14 17  1  0
 17 18  1  0
 17 19  1  0
 17 20  1  0
 13 21  1  0
 21 22  1  0
 21 23  2  0
 23 24  1  0
 24 25  1  0
 25 26  2  0
 25 27  1  0
 27 28  1  0
 27 29  2  0
 29 30  1  0
 29 31  1  0
 31 32  1  0
 31 33  1  0
 31 34  1  0
 24  5  1  0
 23  8  1  0
M  CHG  1   2  -1
M  END
>  <UniqueID>  (31) 
30

>  <SMILES>  (31) 
CC(F)(F)c1ccc2cc(C([NH-])=O)n(C(=O)/C=C\CCl)c2c1

>  <Energy>  (31) 
73.20550124055599

>  <Genealogy>  (31) 
CC(F)(F)c1ccc2cc(C([NH-])=O)n(C(=O)C=CCCl)c2c1 (protonated)
CC(F)(F)c1ccc2cc(C([NH-])=O)n(C(=O)/C=C\CCl)c2c1 (cis-trans isomerization)
CC(F)(F)c1ccc2cc(C([NH-])=O)n(C(=O)/C=C\CCl)c2c1 (3D coordinates assigned)
CC(F)(F)c1ccc2cc(C([NH-])=O)n(C(=O)/C=C\CCl)c2c1 (optimized conformer: 73.20550124055599 kcal/mol)

>  <smiles>  (31) 
CC(F)(F)c1ccc2cc(C(N)=O)n(C(=O)C=CCCl)c2c1

>  <score_type>  (31) 
oracle

>  <origin>  (31) 
adg

>  <m_score__min__energy>  (31) 
-10.66

>  <m_primary>  (31) 
energy

$$$$
32:0
     RDKit          3D

 39 41  0  0  0  0  0  0  0  0999 V2000
   -1.4540   21.9600  -28.3890 C   0  0  0  0  0  0  0  0  0  0  0  0
   -1.5440   22.9170  -29.5740 C   0  0  1  0  0  0  0  0  0  0  0  0
   -2.9170   23.0940  -29.9290 O   0  0  0  0  0  0  0  0  0  0  0  0
   -3.4520   22.6940  -31.1590 C   0  0  0  0  0  0  0  0  0  0  0  0
   -2.7020   22.2160  -32.0540 O   0  0  0  0  0  0  0  0  0  0  0  0
   -4.8670   22.7990  -31.3900 N   0  0  0  0  0  0  0  0  0  0  0  0
   -5.6930   23.8280  -31.0450 C   0  0  0  0  0  0  0  0  0  0  0  0
   -5.2720   25.1430  -30.5230 C   0  0  0  0  0  0  0  0  0  0  0  0
   -3.9870   25.6760  -30.8310 N   0  0  0  0  0  0  0  0  0  0  0  0
   -6.0760   25.8310  -29.8380 O   0  0  0  0  0  0  0  0  0  0  0  0
   -7.0190   23.5080  -31.3270 C   0  0  0  0  0  0  0  0  0  0  0  0
   -6.9810   22.2430  -31.8660 C   0  0  0  0  0  0  0  0  0  0  0  0
   -8.0190   21.4330  -32.3140 C   0  0  0  0  0  0  0  0  0  0  0  0
   -7.6960   20.1530  -32.7940 C   0  0  0  0  0  0  0  0  0  0  0  0
   -6.3500   19.7010  -32.8110 C   0  0  0  0  0  0  0  0  0  0  0  0
   -6.0230   18.3400  -33.3090 C   0  0  0  0  0  0  0  0  0  0  0  0
   -4.8730   18.1120  -34.0820 C   0  0  0  0  0  0  0  0  0  0  0  0
   -4.5780   16.8270  -34.5400 C   0  0  0  0  0  0  0  0  0  0  0  0
   -5.4370   15.7740  -34.2240 C   0  0  0  0  0  0  0  0  0  0  0  0
   -6.5480   16.0050  -33.4770 N   0  0  0  0  0  0  0  0  0  0  0  0
   -6.8580   17.2460  -33.0160 C   0  0  0  0  0  0  0  0  0  0  0  0
   -5.3240   20.5580  -32.3460 C   0  0  0  0  0  0  0  0  0  0  0  0
   -5.6730   21.8350  -31.8920 C   0  0  0  0  0  0  0  0  0  0  0  0
   -0.9110   24.2340  -29.2270 C   0  0  0  0  0  0  0  0  0  0  0  0
    0.2940   24.2870  -28.8640 O   0  0  0  0  0  0  0  0  0  0  0  0
   -1.6490   25.4060  -29.3310 O   0  0  0  0  0  0  0  0  0  0  0  0
   -1.5078   22.5319  -27.4509 H   0  0  0  0  0  0  0  0  0  0  0  0
   -2.2889   21.2450  -28.4309 H   0  0  0  0  0  0  0  0  0  0  0  0
   -0.5005   21.4132  -28.4309 H   0  0  0  0  0  0  0  0  0  0  0  0
   -1.0011   22.4947  -30.4324 H   0  0  0  0  0  0  0  0  0  0  0  0
   -3.1150   25.1890  -30.5230 H   0  0  0  0  0  0  0  0  0  0  0  0
   -7.9073   24.1336  -31.1553 H   0  0  0  0  0  0  0  0  0  0  0  0
   -9.0613   21.7841  -32.2931 H   0  0  0  0  0  0  0  0  0  0  0  0
   -8.4955   19.4927  -33.1612 H   0  0  0  0  0  0  0  0  0  0  0  0
   -4.2025   18.9488  -34.3273 H   0  0  0  0  0  0  0  0  0  0  0  0
   -3.6768   16.6462  -35.1443 H   0  0  0  0  0  0  0  0  0  0  0  0
   -5.2148   14.7571  -34.5796 H   0  0  0  0  0  0  0  0  0  0  0  0
   -7.7650   17.3953  -32.4117 H   0  0  0  0  0  0  0  0  0  0  0  0
   -4.2749   20.2274  -32.3416 H   0  0  0  0  0  0  0  0  0  0  0  0
  1  2  1  0
  2  3  1  0
  3  4  1  0
  4  5  2  0
  4  6  1  0
  6  7  1  0
  7  8  1  0
  8  9  1  0
  8 10  2  0
  7 11  2  0
 11 12  1  0
 12 13  2  0
 13 14  1  0
 14 15  2  0
 15 16  1  0
 16 17  2  0
 17 18  1  0
 18 19  2  0
 19 20  1  0
 20 21  2  0
 15 22  1  0
 22 23  2  0
  2 24  1  0
 24 25  2  0
 24 26  1  0
 23  6  1  0
 23 12  1  0
 21 16  1  0
  1 27  1  0
  1 28  1  0
  1 29  1  0
  2 30  1  6
  9 31  1  0
 11 32  1  0
 13 33  1  0
 14 34  1  0
 17 35  1  0
 18 36  1  0
 19 37  1  0
 21 38  1  0
 22 39  1  0
M  CHG  2   9  -1  26  -1
M  END
>  <UniqueID>  (32) 
31

>  <SMILES>  (32) 
C[C@@H](OC(=O)n1c(C([NH-])=O)cc2ccc(-c3cccnc3)cc21)C(=O)[O-]

>  <Energy>  (32) 
82.52152210298647

>  <Genealogy>  (32) 
CC(OC(=O)n1c(C([NH-])=O)cc2ccc(-c3cccnc3)cc21)C(=O)[O-] (protonated)
C[C@@H](OC(=O)n1c(C([NH-])=O)cc2ccc(-c3cccnc3)cc21)C(=O)[O-] (chirality)
C[C@@H](OC(=O)n1c(C([NH-])=O)cc2ccc(-c3cccnc3)cc21)C(=O)[O-] (3D coordinates assigned)
C[C@@H](OC(=O)n1c(C([NH-])=O)cc2ccc(-c3cccnc3)cc21)C(=O)[O-] (optimized conformer: 82.52152210298647 kcal/mol)

>  <smiles>  (32) 
CC(OC(=O)n1c(C(N)=O)cc2ccc(-c3cccnc3)cc21)C(=O)O

>  <score_type>  (32) 
oracle

>  <origin>  (32) 
adg

>  <m_score__min__energy>  (32) 
-13.52

>  <m_primary>  (32) 
energy

$$$$
33:0
     RDKit          3D

 43 45  0  0  0  0  0  0  0  0999 V2000
   -3.7300   24.9390  -30.7540 N   0  0  0  0  0  0  0  0  0  0  0  0
   -5.1540   25.0220  -30.7120 C   0  0  0  0  0  0  0  0  0  0  0  0
   -5.7030   26.1190  -30.4290 O   0  0  0  0  0  0  0  0  0  0  0  0
   -5.9710   23.8410  -31.0520 C   0  0  0  0  0  0  0  0  0  0  0  0
   -7.3430   23.7610  -30.8250 C   0  0  0  0  0  0  0  0  0  0  0  0
   -7.6870   22.4690  -31.1450 C   0  0  0  0  0  0  0  0  0  0  0  0
   -8.9230   21.8330  -31.0950 C   0  0  0  0  0  0  0  0  0  0  0  0
   -8.9850   20.4810  -31.4780 C   0  0  0  0  0  0  0  0  0  0  0  0
   -7.8190   19.7960  -31.9080 C   0  0  0  0  0  0  0  0  0  0  0  0
   -7.8930   18.3550  -32.3280 C   0  0  0  0  0  0  0  0  0  0  0  0
   -7.1880   18.1730  -33.5050 F   0  0  0  0  0  0  0  0  0  0  0  0
   -7.3460   17.5510  -31.3430 F   0  0  0  0  0  0  0  0  0  0  0  0
   -6.5840   20.4810  -31.9580 C   0  0  0  0  0  0  0  0  0  0  0  0
   -6.5490   21.8190  -31.5540 C   0  0  0  0  0  0  0  0  0  0  0  0
   -5.4880   22.6500  -31.5050 N   0  0  0  0  0  0  0  0  0  0  0  0
   -4.1570   22.3570  -31.9700 C   0  0  0  0  0  0  0  0  0  0  0  0
   -3.1860   22.4220  -31.1650 O   0  0  0  0  0  0  0  0  0  0  0  0
   -3.9210   21.9470  -33.3980 C   0  0  0  0  0  0  0  0  0  0  0  0
   -2.8200   20.9320  -33.5250 C   0  0  0  0  0  0  0  0  0  0  0  0
   -3.0860   19.8010  -34.0230 O   0  0  0  0  0  0  0  0  0  0  0  0
   -1.5000   21.2050  -33.0280 N   0  0  0  0  0  0  0  0  0  0  0  0
   -0.3590   20.3410  -33.3170 C   0  0  0  0  0  0  0  0  0  0  0  0
    0.5670   21.0100  -34.2810 C   0  0  0  0  0  0  0  0  0  0  0  0
    1.6230   20.4090  -34.9430 C   0  0  0  0  0  0  0  0  0  0  0  0
    2.2130   21.4100  -35.6890 C   0  0  0  0  0  0  0  0  0  0  0  0
    1.4790   22.5520  -35.4280 C   0  0  0  0  0  0  0  0  0  0  0  0
    1.7250   23.8870  -35.9800 C   0  0  0  0  0  0  0  0  0  0  0  0
    1.3810   24.1730  -37.1590 O   0  0  0  0  0  0  0  0  0  0  0  0
    0.5060   22.2850  -34.5880 O   0  0  0  0  0  0  0  0  0  0  0  0
   -3.1650   25.6740  -31.2330 H   0  0  0  0  0  0  0  0  0  0  0  0
   -8.0085   24.5602  -30.4666 H   0  0  0  0  0  0  0  0  0  0  0  0
   -9.8244   22.3709  -30.7660 H   0  0  0  0  0  0  0  0  0  0  0  0
   -9.9473   19.9492  -31.4438 H   0  0  0  0  0  0  0  0  0  0  0  0
   -8.9473   18.0825  -32.4835 H   0  0  0  0  0  0  0  0  0  0  0  0
   -5.6722   19.9738  -32.3064 H   0  0  0  0  0  0  0  0  0  0  0  0
   -4.8491   21.5144  -33.7999 H   0  0  0  0  0  0  0  0  0  0  0  0
   -3.6193   22.8431  -33.9601 H   0  0  0  0  0  0  0  0  0  0  0  0
   -1.3350   22.0730  -32.4740 H   0  0  0  0  0  0  0  0  0  0  0  0
    0.1813   20.1287  -32.3827 H   0  0  0  0  0  0  0  0  0  0  0  0
   -0.7236   19.4038  -33.7627 H   0  0  0  0  0  0  0  0  0  0  0  0
    1.9287   19.3538  -34.8867 H   0  0  0  0  0  0  0  0  0  0  0  0
    3.0854   21.3179  -36.3527 H   0  0  0  0  0  0  0  0  0  0  0  0
    2.2162   24.6496  -35.3578 H   0  0  0  0  0  0  0  0  0  0  0  0
  1  2  1  0
  2  3  2  0
  2  4  1  0
  4  5  2  0
  5  6  1  0
  6  7  2  0
  7  8  1  0
  8  9  2  0
  9 10  1  0
 10 11  1  0
 10 12  1  0
  9 13  1  0
 13 14  2  0
 14 15  1  0
 15 16  1  0
 16 17  2  0
 16 18  1  0
 18 19  1  0
 19 20  2  0
 19 21  1  0
 21 22  1  0
 22 23  1  0
 23 24  2  0
 24 25  1  0
 25 26  2  0
 26 27  1  0
 27 28  2  0
 26 29  1  0
 15  4  1  0
 29 23  1  0
 14  6  1  0
  1 30  1  0
  5 31  1  0
  7 32  1  0
  8 33  1  0
 10 34  1  0
 13 35  1  0
 18 36  1  0
 18 37  1  0
 21 38  1  0
 22 39  1  0
 22 40  1  0
 24 41  1  0
 25 42  1  0
 27 43  1  0
M  CHG  1   1  -1
M  END
>  <UniqueID>  (33) 
32

>  <SMILES>  (33) 
[NH-]C(=O)c1cc2ccc(C(F)F)cc2n1C(=O)CC(=O)NCc1ccc(C=O)o1

>  <Energy>  (33) 
104.81961088740128

>  <Genealogy>  (33) 
[NH-]C(=O)c1cc2ccc(C(F)F)cc2n1C(=O)CC(=O)NCc1ccc(C=O)o1 (protonated)
[NH-]C(=O)c1cc2ccc(C(F)F)cc2n1C(=O)CC(=O)NCc1ccc(C=O)o1 (3D coordinates assigned)
[NH-]C(=O)c1cc2ccc(C(F)F)cc2n1C(=O)CC(=O)NCc1ccc(C=O)o1 (optimized conformer: 104.81961088740128 kcal/mol)

>  <smiles>  (33) 
NC(=O)c1cc2ccc(C(F)F)cc2n1C(=O)CC(=O)NCc1ccc(C=O)o1

>  <score_type>  (33) 
oracle

>  <origin>  (33) 
adg

>  <m_score__min__energy>  (33) 
-11.58

>  <m_primary>  (33) 
energy

$$$$
34:0
     RDKit          3D

 46 47  0  0  0  0  0  0  0  0999 V2000
   -3.7670   18.3740  -33.0940 C   0  0  0  0  0  0  0  0  0  0  0  0
   -4.3230   18.5460  -34.2990 C   0  0  0  0  0  0  0  0  0  0  0  0
   -5.7680   18.2220  -34.5590 C   0  0  0  0  0  0  0  0  0  0  0  0
   -6.2710   17.2250  -33.5980 N   0  0  0  0  0  0  0  0  0  0  0  0
   -6.0640   15.7960  -33.8550 C   0  0  0  0  0  0  0  0  0  0  0  0
   -6.9600   17.6190  -32.3900 C   0  0  0  0  0  0  0  0  0  0  0  0
   -6.4660   17.3030  -31.2690 O   0  0  0  0  0  0  0  0  0  0  0  0
   -8.2760   18.3680  -32.4370 C   0  0  0  0  0  0  0  0  0  0  0  0
   -8.0860   19.8450  -32.2210 C   0  0  0  0  0  0  0  0  0  0  0  0
   -9.2100   20.7130  -32.1930 C   0  0  0  0  0  0  0  0  0  0  0  0
   -9.0560   22.0710  -31.8620 C   0  0  0  0  0  0  0  0  0  0  0  0
   -7.7760   22.5270  -31.5570 C   0  0  0  0  0  0  0  0  0  0  0  0
   -7.3590   23.7570  -31.1000 C   0  0  0  0  0  0  0  0  0  0  0  0
   -5.9910   23.6210  -30.8560 C   0  0  0  0  0  0  0  0  0  0  0  0
   -5.1490   24.6500  -30.2030 C   0  0  0  0  0  0  0  0  0  0  0  0
   -5.2970   24.9500  -28.8150 N   0  0  0  0  0  0  0  0  0  0  0  0
   -4.2690   25.2560  -30.8670 O   0  0  0  0  0  0  0  0  0  0  0  0
   -5.5830   22.3620  -31.1770 N   0  0  0  0  0  0  0  0  0  0  0  0
   -4.2780   21.7910  -31.0270 C   0  0  0  0  0  0  0  0  0  0  0  0
   -3.9320   21.3190  -29.9130 O   0  0  0  0  0  0  0  0  0  0  0  0
   -3.3720   21.6820  -32.1820 C   0  0  0  0  0  0  0  0  0  0  0  0
   -3.8590   21.8380  -33.4160 C   0  0  0  0  0  0  0  0  0  0  0  0
   -1.9530   21.2430  -31.9710 C   0  0  0  0  0  0  0  0  0  0  0  0
   -6.6850   21.7020  -31.5840 C   0  0  0  0  0  0  0  0  0  0  0  0
   -6.8020   20.3500  -31.9140 C   0  0  0  0  0  0  0  0  0  0  0  0
   -2.7066   18.6209  -32.9373 H   0  0  0  0  0  0  0  0  0  0  0  0
   -4.3704   17.9857  -32.2602 H   0  0  0  0  0  0  0  0  0  0  0  0
   -3.7058   18.9352  -35.1221 H   0  0  0  0  0  0  0  0  0  0  0  0
   -6.3642   19.1418  -34.4671 H   0  0  0  0  0  0  0  0  0  0  0  0
   -5.8546   17.8038  -35.5727 H   0  0  0  0  0  0  0  0  0  0  0  0
   -5.9862   15.2589  -32.8982 H   0  0  0  0  0  0  0  0  0  0  0  0
   -6.9141   15.3999  -34.4298 H   0  0  0  0  0  0  0  0  0  0  0  0
   -5.1364   15.6574  -34.4298 H   0  0  0  0  0  0  0  0  0  0  0  0
   -8.7413   18.2089  -33.4210 H   0  0  0  0  0  0  0  0  0  0  0  0
   -8.9172   17.9840  -31.6299 H   0  0  0  0  0  0  0  0  0  0  0  0
  -10.2091   20.3197  -32.4322 H   0  0  0  0  0  0  0  0  0  0  0  0
   -9.9197   22.7519  -31.8445 H   0  0  0  0  0  0  0  0  0  0  0  0
   -7.9743   24.6576  -30.9571 H   0  0  0  0  0  0  0  0  0  0  0  0
   -4.6350   25.6180  -28.3560 H   0  0  0  0  0  0  0  0  0  0  0  0
   -5.9920   24.4500  -28.2180 H   0  0  0  0  0  0  0  0  0  0  0  0
   -3.1899   21.7584  -34.2855 H   0  0  0  0  0  0  0  0  0  0  0  0
   -4.9291   22.0461  -33.5627 H   0  0  0  0  0  0  0  0  0  0  0  0
   -1.7455   21.1788  -30.8926 H   0  0  0  0  0  0  0  0  0  0  0  0
   -1.8020   20.2561  -32.4328 H   0  0  0  0  0  0  0  0  0  0  0  0
   -1.2711   21.9722  -32.4328 H   0  0  0  0  0  0  0  0  0  0  0  0
   -5.9182   19.6954  -31.9345 H   0  0  0  0  0  0  0  0  0  0  0  0
  1  2  2  0
  2  3  1  0
  3  4  1  0
  4  5  1  0
  4  6  1  0
  6  7  2  0
  6  8  1  0
  8  9  1  0
  9 10  2  0
 10 11  1  0
 11 12  2  0
 12 13  1  0
 13 14  2  0
 14 15  1  0
 15 16  1  0
 15 17  2  0
 14 18  1  0
 18 19  1  0
 19 20  2  0
 19 21  1  0
 21 22  2  0
 21 23  1  0
 18 24  1  0
 24 25  2  0
 25  9  1  0
 24 12  1  0
  1 26  1  0
  1 27  1  0
  2 28  1  0
  3 29  1  0
  3 30  1  0
  5 31  1  0
  5 32  1  0
  5 33  1  0
  8 34  1  0
  8 35  1  0
 10 36  1  0
 11 37  1  0
 13 38  1  0
 16 39  1  0
 16 40  1  0
 22 41  1  0
 22 42  1  0
 23 43  1  0
 23 44  1  0
 23 45  1  0
 25 46  1  0
M  END
>  <UniqueID>  (34) 
33

>  <SMILES>  (34) 
C=CCN(C)C(=O)Cc1ccc2cc(C(N)=O)n(C(=O)C(=C)C)c2c1

>  <Energy>  (34) 
89.14162030850379

>  <Genealogy>  (34) 
C=CCN(C)C(=O)Cc1ccc2cc(C(N)=O)n(C(=O)C(=C)C)c2c1 (3D coordinates assigned)
C=CCN(C)C(=O)Cc1ccc2cc(C(N)=O)n(C(=O)C(=C)C)c2c1 (optimized conformer: 89.14162030850379 kcal/mol)

>  <smiles>  (34) 
C=CCN(C)C(=O)Cc1ccc2cc(C(N)=O)n(C(=O)C(=C)C)c2c1

>  <score_type>  (34) 
oracle

>  <origin>  (34) 
adg

>  <m_score__min__energy>  (34) 
-9.4199999999999999

>  <m_primary>  (34) 
energy

$$$$
35:0
     RDKit          3D

 36 38  0  0  0  0  0  0  0  0999 V2000
   -3.8930   25.6710  -30.7550 N   0  0  0  0  0  0  0  0  0  0  0  0
   -5.2470   25.2810  -30.5380 C   0  0  0  0  0  0  0  0  0  0  0  0
   -6.0110   26.0390  -29.8830 O   0  0  0  0  0  0  0  0  0  0  0  0
   -5.7270   23.9770  -31.0410 C   0  0  0  0  0  0  0  0  0  0  0  0
   -7.0640   23.7100  -31.3260 C   0  0  0  0  0  0  0  0  0  0  0  0
   -7.0790   22.4370  -31.8460 C   0  0  0  0  0  0  0  0  0  0  0  0
   -8.1480   21.6630  -32.2870 C   0  0  0  0  0  0  0  0  0  0  0  0
   -7.8760   20.3660  -32.7500 C   0  0  0  0  0  0  0  0  0  0  0  0
   -6.5500   19.8590  -32.7570 C   0  0  0  0  0  0  0  0  0  0  0  0
   -6.2750   18.4800  -33.2370 C   0  0  0  0  0  0  0  0  0  0  0  0
   -5.0710   18.1710  -33.8920 C   0  0  0  0  0  0  0  0  0  0  0  0
   -4.8280   16.8710  -34.3380 C   0  0  0  0  0  0  0  0  0  0  0  0
   -5.7910   15.8840  -34.1270 C   0  0  0  0  0  0  0  0  0  0  0  0
   -6.9510   16.1910  -33.4910 N   0  0  0  0  0  0  0  0  0  0  0  0
   -7.2140   17.4490  -33.0480 C   0  0  0  0  0  0  0  0  0  0  0  0
   -5.4910   20.6780  -32.3000 C   0  0  0  0  0  0  0  0  0  0  0  0
   -5.7900   21.9740  -31.8620 C   0  0  0  0  0  0  0  0  0  0  0  0
   -4.9460   22.9080  -31.3670 N   0  0  0  0  0  0  0  0  0  0  0  0
   -3.5330   22.7580  -31.1590 C   0  0  0  0  0  0  0  0  0  0  0  0
   -2.7820   22.4900  -32.1360 O   0  0  0  0  0  0  0  0  0  0  0  0
   -3.0080   22.8890  -29.8650 O   0  0  0  0  0  0  0  0  0  0  0  0
   -1.7930   23.5120  -29.5480 C   0  0  0  0  0  0  0  0  0  0  0  0
   -1.7310   24.7550  -29.3420 O   0  0  0  0  0  0  0  0  0  0  0  0
   -0.5640   22.6780  -29.3870 C   0  0  0  0  0  0  0  0  0  0  0  0
    0.4350   23.4400  -28.8100 F   0  0  0  0  0  0  0  0  0  0  0  0
   -0.1370   22.2220  -30.6210 F   0  0  0  0  0  0  0  0  0  0  0  0
   -0.8330   21.5920  -28.5740 F   0  0  0  0  0  0  0  0  0  0  0  0
   -3.1060   25.0170  -30.5480 H   0  0  0  0  0  0  0  0  0  0  0  0
   -7.9251   24.3761  -31.1685 H   0  0  0  0  0  0  0  0  0  0  0  0
   -9.1754   22.0557  -32.2732 H   0  0  0  0  0  0  0  0  0  0  0  0
   -8.7007   19.7345  -33.1120 H   0  0  0  0  0  0  0  0  0  0  0  0
   -4.3176   18.9560  -34.0538 H   0  0  0  0  0  0  0  0  0  0  0  0
   -3.8861   16.6270  -34.8510 H   0  0  0  0  0  0  0  0  0  0  0  0
   -5.6107   14.8565  -34.4759 H   0  0  0  0  0  0  0  0  0  0  0  0
   -8.1657   17.6622  -32.5392 H   0  0  0  0  0  0  0  0  0  0  0  0
   -4.4561   20.3053  -32.2890 H   0  0  0  0  0  0  0  0  0  0  0  0
  1  2  1  0
  2  3  2  0
  2  4  1  0
  4  5  2  0
  5  6  1  0
  6  7  2  0
  7  8  1  0
  8  9  2  0
  9 10  1  0
 10 11  2  0
 11 12  1  0
 12 13  2  0
 13 14  1  0
 14 15  2  0
  9 16  1  0
 16 17  2  0
 17 18  1  0
 18 19  1  0
 19 20  2  0
 19 21  1  0
 21 22  1  0
 22 23  2  0
 22 24  1  0
 24 25  1  0
 24 26  1  0
 24 27  1  0
 18  4  1  0
 17  6  1  0
 15 10  1  0
  1 28  1  0
  5 29  1  0
  7 30  1  0
  8 31  1  0
 11 32  1  0
 12 33  1  0
 13 34  1  0
 15 35  1  0
 16 36  1  0
M  CHG  1   1  -1
M  END
>  <UniqueID>  (35) 
34

>  <SMILES>  (35) 
[NH-]C(=O)c1cc2ccc(-c3cccnc3)cc2n1C(=O)OC(=O)C(F)(F)F

>  <Energy>  (35) 
83.33156892945469

>  <Genealogy>  (35) 
[NH-]C(=O)c1cc2ccc(-c3cccnc3)cc2n1C(=O)OC(=O)C(F)(F)F (protonated)
[NH-]C(=O)c1cc2ccc(-c3cccnc3)cc2n1C(=O)OC(=O)C(F)(F)F (3D coordinates assigned)
[NH-]C(=O)c1cc2ccc(-c3cccnc3)cc2n1C(=O)OC(=O)C(F)(F)F (optimized conformer: 83.33156892945469 kcal/mol)

>  <smiles>  (35) 
NC(=O)c1cc2ccc(-c3cccnc3)cc2n1C(=O)OC(=O)C(F)(F)F

>  <score_type>  (35) 
oracle

>  <origin>  (35) 
adg

>  <m_score__min__energy>  (35) 
-10.140000000000001

>  <m_primary>  (35) 
energy

$$$$
36:0
     RDKit          3D

 40 41  0  0  0  0  0  0  0  0999 V2000
   -4.2170   25.5730  -30.8020 N   0  0  0  0  0  0  0  0  0  0  0  0
   -5.5550   25.1700  -30.5040 C   0  0  0  0  0  0  0  0  0  0  0  0
   -6.2810   25.9170  -29.7950 O   0  0  0  0  0  0  0  0  0  0  0  0
   -6.0850   23.8710  -30.9660 C   0  0  0  0  0  0  0  0  0  0  0  0
   -7.4280   23.6550  -31.2650 C   0  0  0  0  0  0  0  0  0  0  0  0
   -7.5180   22.3200  -31.5890 C   0  0  0  0  0  0  0  0  0  0  0  0
   -8.6220   21.5630  -31.9710 C   0  0  0  0  0  0  0  0  0  0  0  0
   -8.4170   20.2070  -32.2730 C   0  0  0  0  0  0  0  0  0  0  0  0
   -7.1200   19.6390  -32.2060 C   0  0  0  0  0  0  0  0  0  0  0  0
   -6.9170   18.1820  -32.5140 C   0  0  0  0  0  0  0  0  0  0  0  0
   -6.3460   18.0210  -33.8870 C   0  0  0  0  0  0  0  0  0  0  0  0
   -5.8880   19.0190  -34.5040 O   0  0  0  0  0  0  0  0  0  0  0  0
   -6.3630   16.7780  -34.5050 O   0  0  0  0  0  0  0  0  0  0  0  0
   -6.0240   20.4360  -31.8060 C   0  0  0  0  0  0  0  0  0  0  0  0
   -6.2610   21.7790  -31.4910 C   0  0  0  0  0  0  0  0  0  0  0  0
   -5.3690   22.7210  -31.1140 N   0  0  0  0  0  0  0  0  0  0  0  0
   -3.9470   22.5500  -30.9990 C   0  0  0  0  0  0  0  0  0  0  0  0
   -3.2170   22.7180  -32.0130 O   0  0  0  0  0  0  0  0  0  0  0  0
   -3.3620   22.2120  -29.7300 N   0  0  0  0  0  0  0  0  0  0  0  0
   -1.9800   21.8840  -29.5430 C   0  0  0  0  0  0  0  0  0  0  0  0
   -1.1910   21.8310  -30.5260 O   0  0  0  0  0  0  0  0  0  0  0  0
   -1.5160   21.6080  -28.2510 O   0  0  0  0  0  0  0  0  0  0  0  0
   -1.2410   22.6170  -27.2820 C   0  0  0  0  0  0  0  0  0  0  0  0
   -2.1510   23.8270  -27.4960 C   0  0  0  0  0  0  0  0  0  0  0  0
   -1.5670   24.7530  -28.5160 C   0  0  0  0  0  0  0  0  0  0  0  0
   -2.3080   25.2930  -29.3790 O   0  0  0  0  0  0  0  0  0  0  0  0
   -0.1990   24.9900  -28.5380 O   0  0  0  0  0  0  0  0  0  0  0  0
   -3.5350   24.9110  -31.2310 H   0  0  0  0  0  0  0  0  0  0  0  0
   -3.8780   26.5170  -30.5090 H   0  0  0  0  0  0  0  0  0  0  0  0
   -8.2430   24.3936  -31.2463 H   0  0  0  0  0  0  0  0  0  0  0  0
   -9.6238   22.0130  -32.0343 H   0  0  0  0  0  0  0  0  0  0  0  0
   -9.2718   19.5791  -32.5646 H   0  0  0  0  0  0  0  0  0  0  0  0
   -6.2237   17.7479  -31.7785 H   0  0  0  0  0  0  0  0  0  0  0  0
   -7.8869   17.6654  -32.4648 H   0  0  0  0  0  0  0  0  0  0  0  0
   -5.0109   20.0121  -31.7438 H   0  0  0  0  0  0  0  0  0  0  0  0
   -3.9770   22.2180  -28.8850 H   0  0  0  0  0  0  0  0  0  0  0  0
   -1.4127   22.2085  -26.2752 H   0  0  0  0  0  0  0  0  0  0  0  0
   -0.1937   22.9362  -27.3881 H   0  0  0  0  0  0  0  0  0  0  0  0
   -3.1358   23.4814  -27.8436 H   0  0  0  0  0  0  0  0  0  0  0  0
   -2.2512   24.3676  -26.5432 H   0  0  0  0  0  0  0  0  0  0  0  0
  1  2  1  0
  2  3  2  0
  2  4  1  0
  4  5  2  0
  5  6  1  0
  6  7  2  0
  7  8  1  0
  8  9  2  0
  9 10  1  0
 10 11  1  0
 11 12  2  0
 11 13  1  0
  9 14  1  0
 14 15  2  0
 15 16  1  0
 16 17  1  0
 17 18  2  0
 17 19  1  0
 19 20  1  0
 20 21  2  0
 20 22  1  0
 22 23  1  0
 23 24  1  0
 24 25  1  0
 25 26  2  0
 25 27  1  0
 16  4  1  0
 15  6  1  0
  1 28  1  0
  1 29  1  0
  5 30  1  0
  7 31  1  0
  8 32  1  0
 10 33  1  0
 10 34  1  0
 14 35  1  0
 19 36  1  0
 23 37  1  0
 23 38  1  0
 24 39  1  0
 24 40  1  0
M  CHG  2  13  -1  27  -1
M  END
>  <UniqueID>  (36) 
35

>  <SMILES>  (36) 
NC(=O)c1cc2ccc(CC(=O)[O-])cc2n1C(=O)NC(=O)OCCC(=O)[O-]

>  <Energy>  (36) 
73.61443067110734

>  <Genealogy>  (36) 
NC(=O)c1cc2ccc(CC(=O)[O-])cc2n1C(=O)NC(=O)OCCC(=O)[O-] (protonated)
NC(=O)c1cc2ccc(CC(=O)[O-])cc2n1C(=O)NC(=O)OCCC(=O)[O-] (3D coordinates assigned)
NC(=O)c1cc2ccc(CC(=O)[O-])cc2n1C(=O)NC(=O)OCCC(=O)[O-] (optimized conformer: 73.61443067110734 kcal/mol)

>  <smiles>  (36) 
NC(=O)c1cc2ccc(CC(=O)O)cc2n1C(=O)NC(=O)OCCC(=O)O

>  <score_type>  (36) 
oracle

>  <origin>  (36) 
adg

>  <m_score__min__energy>  (36) 
-11.619999999999999

>  <m_primary>  (36) 
energy

$$$$
37:0
     RDKit          3D

 44 46  0  0  0  0  0  0  0  0999 V2000
   -8.3210   19.4320  -32.1380 C   0  0  0  0  0  0  0  0  0  0  0  0
   -7.0420   19.3070  -32.5210 C   0  0  0  0  0  0  0  0  0  0  0  0
   -5.9860   20.1170  -31.7940 C   0  0  0  0  0  0  0  0  0  0  0  0
   -4.6250   19.9450  -32.3270 N   0  0  0  0  0  0  0  0  0  0  0  0
   -3.5360   20.6020  -31.6510 C   0  0  0  0  0  0  0  0  0  0  0  0
   -2.2770   19.9590  -31.5310 C   0  0  0  0  0  0  0  0  0  0  0  0
   -1.2140   20.5830  -30.8600 C   0  0  0  0  0  0  0  0  0  0  0  0
   -1.4330   21.8500  -30.3270 C   0  0  0  0  0  0  0  0  0  0  0  0
   -0.5910   22.6590  -29.6010 C   0  0  0  0  0  0  0  0  0  0  0  0
   -1.3370   23.7980  -29.3100 C   0  0  0  0  0  0  0  0  0  0  0  0
   -0.7890   24.9620  -28.5850 C   0  0  0  0  0  0  0  0  0  0  0  0
   -1.5380   26.1710  -28.4550 N   0  0  0  0  0  0  0  0  0  0  0  0
    0.3810   24.9080  -28.1220 O   0  0  0  0  0  0  0  0  0  0  0  0
   -2.5950   23.6940  -29.8220 N   0  0  0  0  0  0  0  0  0  0  0  0
   -3.6910   24.6070  -29.6390 C   0  0  0  0  0  0  0  0  0  0  0  0
   -4.4900   24.4570  -28.6770 O   0  0  0  0  0  0  0  0  0  0  0  0
   -3.8850   25.6630  -30.5220 O   0  0  0  0  0  0  0  0  0  0  0  0
   -2.6370   22.4960  -30.4470 C   0  0  0  0  0  0  0  0  0  0  0  0
   -3.7200   21.8860  -31.0910 C   0  0  0  0  0  0  0  0  0  0  0  0
   -4.3920   19.3460  -33.6460 C   0  0  0  0  0  0  0  0  0  0  0  0
   -5.2210   18.0600  -33.8130 C   0  0  0  0  0  0  0  0  0  0  0  0
   -4.8250   17.0200  -32.7390 C   0  0  0  0  0  0  0  0  0  0  0  0
   -4.9440   17.4570  -35.2050 C   0  0  0  0  0  0  0  0  0  0  0  0
   -6.7200   18.4120  -33.7000 C   0  0  0  0  0  0  0  0  0  0  0  0
   -9.1068   18.8559  -32.6485 H   0  0  0  0  0  0  0  0  0  0  0  0
   -8.5844   20.1106  -31.3133 H   0  0  0  0  0  0  0  0  0  0  0  0
   -6.2545   21.1811  -31.8688 H   0  0  0  0  0  0  0  0  0  0  0  0
   -5.9681   19.7557  -30.7552 H   0  0  0  0  0  0  0  0  0  0  0  0
   -2.1324   18.9603  -31.9688 H   0  0  0  0  0  0  0  0  0  0  0  0
   -0.2379   20.0861  -30.7584 H   0  0  0  0  0  0  0  0  0  0  0  0
    0.4497   22.4508  -29.3119 H   0  0  0  0  0  0  0  0  0  0  0  0
   -2.4360   26.3070  -28.9700 H   0  0  0  0  0  0  0  0  0  0  0  0
   -1.1510   26.9700  -27.9070 H   0  0  0  0  0  0  0  0  0  0  0  0
   -4.6927   22.3951  -31.1595 H   0  0  0  0  0  0  0  0  0  0  0  0
   -4.6811   20.0659  -34.4258 H   0  0  0  0  0  0  0  0  0  0  0  0
   -3.3252   19.0936  -33.7366 H   0  0  0  0  0  0  0  0  0  0  0  0
   -4.9874   17.4465  -31.7381 H   0  0  0  0  0  0  0  0  0  0  0  0
   -5.4423   16.1173  -32.8575 H   0  0  0  0  0  0  0  0  0  0  0  0
   -3.7636   16.7565  -32.8575 H   0  0  0  0  0  0  0  0  0  0  0  0
   -4.4874   16.4629  -35.0897 H   0  0  0  0  0  0  0  0  0  0  0  0
   -5.8897   17.3641  -35.7591 H   0  0  0  0  0  0  0  0  0  0  0  0
   -4.2574   18.1139  -35.7591 H   0  0  0  0  0  0  0  0  0  0  0  0
   -7.0275   18.9266  -34.6223 H   0  0  0  0  0  0  0  0  0  0  0  0
   -7.2641   17.4681  -33.5485 H   0  0  0  0  0  0  0  0  0  0  0  0
  1  2  2  0
  2  3  1  0
  3  4  1  0
  4  5  1  0
  5  6  2  0
  6  7  1  0
  7  8  2  0
  8  9  1  0
  9 10  2  0
 10 11  1  0
 11 12  1  0
 11 13  2  0
 10 14  1  0
 14 15  1  0
 15 16  2  0
 15 17  1  0
 14 18  1  0
 18 19  2  0
  4 20  1  0
 20 21  1  0
 21 22  1  0
 21 23  1  0
 21 24  1  0
 24  2  1  0
 19  5  1  0
 18  8  1  0
  1 25  1  0
  1 26  1  0
  3 27  1  0
  3 28  1  0
  6 29  1  0
  7 30  1  0
  9 31  1  0
 12 32  1  0
 12 33  1  0
 19 34  1  0
 20 35  1  0
 20 36  1  0
 22 37  1  0
 22 38  1  0
 22 39  1  0
 23 40  1  0
 23 41  1  0
 23 42  1  0
 24 43  1  0
 24 44  1  0
M  CHG  1  17  -1
M  END
>  <UniqueID>  (37) 
36

>  <SMILES>  (37) 
C=C1CN(c2ccc3cc(C(N)=O)n(C(=O)[O-])c3c2)CC(C)(C)C1

>  <Energy>  (37) 
86.29316160302994

>  <Genealogy>  (37) 
C=C1CN(c2ccc3cc(C(N)=O)n(C(=O)[O-])c3c2)CC(C)(C)C1 (protonated)
C=C1CN(c2ccc3cc(C(N)=O)n(C(=O)[O-])c3c2)CC(C)(C)C1 (3D coordinates assigned)
C=C1CN(c2ccc3cc(C(N)=O)n(C(=O)[O-])c3c2)CC(C)(C)C1 (nonaromatic ring conformer: 86.29316160302994 kcal/mol)

>  <smiles>  (37) 
C=C1CN(c2ccc3cc(C(N)=O)n(C(=O)O)c3c2)CC(C)(C)C1

>  <score_type>  (37) 
oracle

>  <origin>  (37) 
adg

>  <m_score__min__energy>  (37) 
-10.1

>  <m_primary>  (37) 
energy

$$$$
38:0
     RDKit          3D

 37 38  0  0  0  0  0  0  0  0999 V2000
   -4.3070   23.6090  -27.6870 C   0  0  0  0  0  0  0  0  0  0  0  0
   -3.2230   23.0170  -28.4810 N   0  0  0  0  0  0  0  0  0  0  0  0
   -1.8250   23.3220  -28.1330 C   0  0  0  0  0  0  0  0  0  0  0  0
   -1.4220   24.6330  -28.7340 C   0  0  0  0  0  0  0  0  0  0  0  0
   -2.2460   25.2960  -29.4160 O   0  0  0  0  0  0  0  0  0  0  0  0
   -0.1200   25.0960  -28.5890 O   0  0  0  0  0  0  0  0  0  0  0  0
   -3.4920   22.1180  -29.5880 C   0  0  0  0  0  0  0  0  0  0  0  0
   -3.2150   20.8930  -29.4630 O   0  0  0  0  0  0  0  0  0  0  0  0
   -4.0700   22.5620  -30.8810 C   0  0  0  0  0  0  0  0  0  0  0  0
   -3.3360   22.7890  -31.8780 O   0  0  0  0  0  0  0  0  0  0  0  0
   -5.4870   22.7690  -31.0020 N   0  0  0  0  0  0  0  0  0  0  0  0
   -6.1620   23.9460  -30.8900 C   0  0  0  0  0  0  0  0  0  0  0  0
   -5.5760   25.2410  -30.4860 C   0  0  0  0  0  0  0  0  0  0  0  0
   -4.2290   25.5850  -30.8200 N   0  0  0  0  0  0  0  0  0  0  0  0
   -6.2650   26.0450  -29.8030 O   0  0  0  0  0  0  0  0  0  0  0  0
   -7.5050   23.7740  -31.2200 C   0  0  0  0  0  0  0  0  0  0  0  0
   -7.6330   22.4420  -31.5430 C   0  0  0  0  0  0  0  0  0  0  0  0
   -8.7470   21.7260  -31.9700 C   0  0  0  0  0  0  0  0  0  0  0  0
   -8.5770   20.3660  -32.2830 C   0  0  0  0  0  0  0  0  0  0  0  0
   -7.2980   19.7560  -32.1980 C   0  0  0  0  0  0  0  0  0  0  0  0
   -7.1300   18.2870  -32.4970 C   0  0  0  0  0  0  0  0  0  0  0  0
   -6.1750   17.7560  -31.6480 F   0  0  0  0  0  0  0  0  0  0  0  0
   -6.7220   18.1020  -33.8090 F   0  0  0  0  0  0  0  0  0  0  0  0
   -8.3240   17.6070  -32.3150 F   0  0  0  0  0  0  0  0  0  0  0  0
   -6.1930   20.5150  -31.7470 C   0  0  0  0  0  0  0  0  0  0  0  0
   -6.3980   21.8590  -31.4130 C   0  0  0  0  0  0  0  0  0  0  0  0
   -4.0855   23.4880  -26.6163 H   0  0  0  0  0  0  0  0  0  0  0  0
   -4.3933   24.6795  -27.9249 H   0  0  0  0  0  0  0  0  0  0  0  0
   -5.2543   23.1030  -27.9249 H   0  0  0  0  0  0  0  0  0  0  0  0
   -1.7256   23.3769  -27.0389 H   0  0  0  0  0  0  0  0  0  0  0  0
   -1.1733   22.5284  -28.5274 H   0  0  0  0  0  0  0  0  0  0  0  0
   -3.8540   26.5320  -30.5830 H   0  0  0  0  0  0  0  0  0  0  0  0
   -3.5710   24.8750  -31.2070 H   0  0  0  0  0  0  0  0  0  0  0  0
   -8.2947   24.5397  -31.2220 H   0  0  0  0  0  0  0  0  0  0  0  0
   -9.7310   22.2094  -32.0600 H   0  0  0  0  0  0  0  0  0  0  0  0
   -9.4449   19.7678  -32.5973 H   0  0  0  0  0  0  0  0  0  0  0  0
   -5.1954   20.0597  -31.6607 H   0  0  0  0  0  0  0  0  0  0  0  0
  1  2  1  0
  2  3  1  0
  3  4  1  0
  4  5  2  0
  4  6  1  0
  2  7  1  0
  7  8  2  0
  7  9  1  0
  9 10  2  0
  9 11  1  0
 11 12  1  0
 12 13  1  0
 13 14  1  0
 13 15  2  0
 12 16  2  0
 16 17  1  0
 17 18  2  0
 18 19  1  0
 19 20  2  0
 20 21  1  0
 21 22  1  0
 21 23  1  0
 21 24  1  0
 20 25  1  0
 25 26  2  0
 26 11  1  0
 26 17  1  0
  1 27  1  0
  1 28  1  0
  1 29  1  0
  3 30  1  0
  3 31  1  0
 14 32  1  0
 14 33  1  0
 16 34  1  0
 18 35  1  0
 19 36  1  0
 25 37  1  0
M  CHG  1   6  -1
M  END
>  <UniqueID>  (38) 
37

>  <SMILES>  (38) 
CN(CC(=O)[O-])C(=O)C(=O)n1c(C(N)=O)cc2ccc(C(F)(F)F)cc21

>  <Energy>  (38) 
78.42489548580653

>  <Genealogy>  (38) 
CN(CC(=O)[O-])C(=O)C(=O)n1c(C(N)=O)cc2ccc(C(F)(F)F)cc21 (protonated)
CN(CC(=O)[O-])C(=O)C(=O)n1c(C(N)=O)cc2ccc(C(F)(F)F)cc21 (3D coordinates assigned)
CN(CC(=O)[O-])C(=O)C(=O)n1c(C(N)=O)cc2ccc(C(F)(F)F)cc21 (optimized conformer: 78.42489548580653 kcal/mol)

>  <smiles>  (38) 
CN(CC(=O)O)C(=O)C(=O)n1c(C(N)=O)cc2ccc(C(F)(F)F)cc21

>  <score_type>  (38) 
oracle

>  <origin>  (38) 
adg

>  <m_score__min__energy>  (38) 
-10.41

>  <m_primary>  (38) 
energy

$$$$
39:0
     RDKit          3D

 39 40  0  0  0  0  0  0  0  0999 V2000
   -6.3740   17.2440  -31.8820 C   0  0  0  0  0  0  0  0  0  0  0  0
   -6.3420   18.3250  -32.8760 N   0  0  0  0  0  0  0  0  0  0  0  0
   -6.1460   17.9690  -34.2900 C   0  0  0  0  0  0  0  0  0  0  0  0
   -4.6880   17.9500  -34.6350 C   0  0  0  0  0  0  0  0  0  0  0  0
   -4.2170   17.0210  -35.3400 O   0  0  0  0  0  0  0  0  0  0  0  0
   -3.8550   18.9790  -34.2120 O   0  0  0  0  0  0  0  0  0  0  0  0
   -6.5320   19.7040  -32.4650 C   0  0  0  0  0  0  0  0  0  0  0  0
   -7.8330   20.2850  -32.4610 C   0  0  0  0  0  0  0  0  0  0  0  0
   -8.0290   21.6240  -32.0850 C   0  0  0  0  0  0  0  0  0  0  0  0
   -6.9160   22.3660  -31.7090 C   0  0  0  0  0  0  0  0  0  0  0  0
   -6.8160   23.6870  -31.3360 C   0  0  0  0  0  0  0  0  0  0  0  0
   -5.4610   23.9010  -31.0910 C   0  0  0  0  0  0  0  0  0  0  0  0
   -4.9150   25.1790  -30.5910 C   0  0  0  0  0  0  0  0  0  0  0  0
   -3.5530   25.2840  -30.1830 N   0  0  0  0  0  0  0  0  0  0  0  0
   -5.6720   26.1800  -30.4780 O   0  0  0  0  0  0  0  0  0  0  0  0
   -4.7520   22.7580  -31.3110 N   0  0  0  0  0  0  0  0  0  0  0  0
   -3.3280   22.5840  -31.2650 C   0  0  0  0  0  0  0  0  0  0  0  0
   -2.7060   22.2220  -32.3000 O   0  0  0  0  0  0  0  0  0  0  0  0
   -2.6380   22.8360  -30.0730 O   0  0  0  0  0  0  0  0  0  0  0  0
   -1.2830   22.4470  -29.8490 C   0  0  0  0  0  0  0  0  0  0  0  0
   -0.5100   23.5550  -29.1320 C   0  0  0  0  0  0  0  0  0  0  0  0
   -1.1140   24.8030  -29.3340 O   0  0  0  0  0  0  0  0  0  0  0  0
   -5.6580   21.8280  -31.6870 C   0  0  0  0  0  0  0  0  0  0  0  0
   -5.4290   20.5040  -32.0740 C   0  0  0  0  0  0  0  0  0  0  0  0
   -6.3612   17.6757  -30.8703 H   0  0  0  0  0  0  0  0  0  0  0  0
   -7.2901   16.6500  -32.0157 H   0  0  0  0  0  0  0  0  0  0  0  0
   -5.4946   16.5968  -32.0157 H   0  0  0  0  0  0  0  0  0  0  0  0
   -6.5734   16.9723  -34.4739 H   0  0  0  0  0  0  0  0  0  0  0  0
   -6.6475   18.7213  -34.9165 H   0  0  0  0  0  0  0  0  0  0  0  0
   -8.6987   19.6745  -32.7574 H   0  0  0  0  0  0  0  0  0  0  0  0
   -9.0337   22.0719  -32.0881 H   0  0  0  0  0  0  0  0  0  0  0  0
   -7.6327   24.4188  -31.2496 H   0  0  0  0  0  0  0  0  0  0  0  0
   -2.7840   24.8990  -30.7750 H   0  0  0  0  0  0  0  0  0  0  0  0
   -1.2667   21.5377  -29.2302 H   0  0  0  0  0  0  0  0  0  0  0  0
   -0.8057   22.2575  -30.8218 H   0  0  0  0  0  0  0  0  0  0  0  0
   -0.4869   23.3373  -28.0540 H   0  0  0  0  0  0  0  0  0  0  0  0
    0.5105   23.5903  -29.5411 H   0  0  0  0  0  0  0  0  0  0  0  0
   -1.9580   24.6330  -29.8300 H   0  0  0  0  0  0  0  0  0  0  0  0
   -4.4098   20.0901  -32.0750 H   0  0  0  0  0  0  0  0  0  0  0  0
  1  2  1  0
  2  3  1  0
  3  4  1  0
  4  5  2  0
  4  6  1  0
  2  7  1  0
  7  8  2  0
  8  9  1  0
  9 10  2  0
 10 11  1  0
 11 12  2  0
 12 13  1  0
 13 14  1  0
 13 15  2  0
 12 16  1  0
 16 17  1  0
 17 18  2  0
 17 19  1  0
 19 20  1  0
 20 21  1  0
 21 22  1  0
 16 23  1  0
 23 24  2  0
 24  7  1  0
 23 10  1  0
  1 25  1  0
  1 26  1  0
  1 27  1  0
  3 28  1  0
  3 29  1  0
  8 30  1  0
  9 31  1  0
 11 32  1  0
 14 33  1  0
 20 34  1  0
 20 35  1  0
 21 36  1  0
 21 37  1  0
 22 38  1  0
 24 39  1  0
M  CHG  2   6  -1  14  -1
M  END
>  <UniqueID>  (39) 
38

>  <SMILES>  (39) 
CN(CC(=O)[O-])c1ccc2cc(C([NH-])=O)n(C(=O)OCCO)c2c1

>  <Energy>  (39) 
76.33415047057079

>  <Genealogy>  (39) 
CN(CC(=O)[O-])c1ccc2cc(C([NH-])=O)n(C(=O)OCCO)c2c1 (protonated)
CN(CC(=O)[O-])c1ccc2cc(C([NH-])=O)n(C(=O)OCCO)c2c1 (3D coordinates assigned)
CN(CC(=O)[O-])c1ccc2cc(C([NH-])=O)n(C(=O)OCCO)c2c1 (optimized conformer: 76.33415047057079 kcal/mol)

>  <smiles>  (39) 
CN(CC(=O)O)c1ccc2cc(C(N)=O)n(C(=O)OCCO)c2c1

>  <score_type>  (39) 
oracle

>  <origin>  (39) 
adg

>  <m_score__min__energy>  (39) 
-9.3399999999999999

>  <m_primary>  (39) 
energy

$$$$
40:0
     RDKit          3D

 39 40  0  0  0  0  0  0  0  0999 V2000
   -1.2010   25.3690  -26.7510 C   0  0  0  0  0  0  0  0  0  0  0  0
   -1.2500   24.1370  -27.5500 N   0  0  0  0  0  0  0  0  0  0  0  0
   -0.7540   22.8770  -26.9850 C   0  0  0  0  0  0  0  0  0  0  0  0
   -1.7780   24.1930  -28.8950 C   0  0  0  0  0  0  0  0  0  0  0  0
   -2.1960   25.2900  -29.3590 O   0  0  0  0  0  0  0  0  0  0  0  0
   -1.8400   22.9790  -29.7750 C   0  0  0  0  0  0  0  0  0  0  0  0
   -3.1970   22.6250  -30.0100 O   0  0  0  0  0  0  0  0  0  0  0  0
   -3.7980   22.6940  -31.2710 C   0  0  0  0  0  0  0  0  0  0  0  0
   -3.0830   22.6790  -32.3120 O   0  0  0  0  0  0  0  0  0  0  0  0
   -5.2310   22.7670  -31.3770 N   0  0  0  0  0  0  0  0  0  0  0  0
   -6.0380   23.7760  -30.9380 C   0  0  0  0  0  0  0  0  0  0  0  0
   -5.5770   25.0930  -30.4500 C   0  0  0  0  0  0  0  0  0  0  0  0
   -4.2290   25.5180  -30.6630 N   0  0  0  0  0  0  0  0  0  0  0  0
   -6.3600   25.8380  -29.8060 O   0  0  0  0  0  0  0  0  0  0  0  0
   -7.3780   23.4380  -31.0970 C   0  0  0  0  0  0  0  0  0  0  0  0
   -7.3740   22.1820  -31.6580 C   0  0  0  0  0  0  0  0  0  0  0  0
   -8.4400   21.3670  -32.0200 C   0  0  0  0  0  0  0  0  0  0  0  0
   -8.1470   20.1010  -32.5560 C   0  0  0  0  0  0  0  0  0  0  0  0
   -6.8050   19.6650  -32.6950 C   0  0  0  0  0  0  0  0  0  0  0  0
   -6.4940   18.3190  -33.2990 C   0  0  0  0  0  0  0  0  0  0  0  0
   -6.1710   18.4550  -34.6380 F   0  0  0  0  0  0  0  0  0  0  0  0
   -7.6020   17.5010  -33.1850 F   0  0  0  0  0  0  0  0  0  0  0  0
   -5.4250   17.7200  -32.6540 F   0  0  0  0  0  0  0  0  0  0  0  0
   -5.7500   20.5330  -32.3310 C   0  0  0  0  0  0  0  0  0  0  0  0
   -6.0680   21.7980  -31.8190 C   0  0  0  0  0  0  0  0  0  0  0  0
   -1.2112   25.1129  -25.6813 H   0  0  0  0  0  0  0  0  0  0  0  0
   -0.2801   25.9225  -26.9868 H   0  0  0  0  0  0  0  0  0  0  0  0
   -2.0750   25.9939  -26.9868 H   0  0  0  0  0  0  0  0  0  0  0  0
   -0.7763   22.9337  -25.8867 H   0  0  0  0  0  0  0  0  0  0  0  0
   -1.3926   22.0473  -27.3224 H   0  0  0  0  0  0  0  0  0  0  0  0
    0.2788   22.7053  -27.3224 H   0  0  0  0  0  0  0  0  0  0  0  0
   -1.3479   23.1974  -30.7342 H   0  0  0  0  0  0  0  0  0  0  0  0
   -1.3267   22.1427  -29.2779 H   0  0  0  0  0  0  0  0  0  0  0  0
   -3.5600   24.9320  -31.2120 H   0  0  0  0  0  0  0  0  0  0  0  0
   -3.8960   26.4260  -30.2720 H   0  0  0  0  0  0  0  0  0  0  0  0
   -8.2550   24.0462  -30.8306 H   0  0  0  0  0  0  0  0  0  0  0  0
   -9.4798   21.7020  -31.8912 H   0  0  0  0  0  0  0  0  0  0  0  0
   -8.9684   19.4408  -32.8713 H   0  0  0  0  0  0  0  0  0  0  0  0
   -4.7014   20.2218  -32.4473 H   0  0  0  0  0  0  0  0  0  0  0  0
  1  2  1  0
  2  3  1  0
  2  4  1  0
  4  5  2  0
  4  6  1  0
  6  7  1  0
  7  8  1  0
  8  9  2  0
  8 10  1  0
 10 11  1  0
 11 12  1  0
 12 13  1  0
 12 14  2  0
 11 15  2  0
 15 16  1  0
 16 17  2  0
 17 18  1  0
 18 19  2  0
 19 20  1  0
 20 21  1  0
 20 22  1  0
 20 23  1  0
 19 24  1  0
 24 25  2  0
 25 10  1  0
 25 16  1  0
  1 26  1  0
  1 27  1  0
  1 28  1  0
  3 29  1  0
  3 30  1  0
  3 31  1  0
  6 32  1  0
  6 33  1  0
 13 34  1  0
 13 35  1  0
 15 36  1  0
 17 37  1  0
 18 38  1  0
 24 39  1  0
M  END
>  <UniqueID>  (40) 
39

>  <SMILES>  (40) 
CN(C)C(=O)COC(=O)n1c(C(N)=O)cc2ccc(C(F)(F)F)cc21

>  <Energy>  (40) 
73.01125405704933

>  <Genealogy>  (40) 
CN(C)C(=O)COC(=O)n1c(C(N)=O)cc2ccc(C(F)(F)F)cc21 (3D coordinates assigned)
CN(C)C(=O)COC(=O)n1c(C(N)=O)cc2ccc(C(F)(F)F)cc21 (optimized conformer: 73.01125405704933 kcal/mol)

>  <smiles>  (40) 
CN(C)C(=O)COC(=O)n1c(C(N)=O)cc2ccc(C(F)(F)F)cc21

>  <score_type>  (40) 
oracle

>  <origin>  (40) 
adg

>  <m_score__min__energy>  (40) 
-8.7400000000000002

>  <m_primary>  (40) 
energy

$$$$
41:0
     RDKit          3D

 45 46  0  0  0  0  0  0  0  0999 V2000
   -1.9760   25.2690  -29.3350 N   0  0  0  0  0  0  0  0  0  0  0  0
   -1.1020   24.1450  -29.3310 C   0  0  0  0  0  0  0  0  0  0  0  0
    0.0450   24.2420  -28.8200 O   0  0  0  0  0  0  0  0  0  0  0  0
   -1.5560   22.8460  -29.9180 C   0  0  0  0  0  0  0  0  0  0  0  0
   -2.9700   22.8500  -30.0970 O   0  0  0  0  0  0  0  0  0  0  0  0
   -3.5940   22.4760  -31.2920 C   0  0  0  0  0  0  0  0  0  0  0  0
   -2.9110   22.0420  -32.2580 O   0  0  0  0  0  0  0  0  0  0  0  0
   -5.0210   22.5880  -31.4170 N   0  0  0  0  0  0  0  0  0  0  0  0
   -5.8190   23.5850  -30.9420 C   0  0  0  0  0  0  0  0  0  0  0  0
   -5.3550   24.8490  -30.3340 C   0  0  0  0  0  0  0  0  0  0  0  0
   -5.8490   25.2850  -29.0670 N   0  0  0  0  0  0  0  0  0  0  0  0
   -4.4690   25.5270  -30.9170 O   0  0  0  0  0  0  0  0  0  0  0  0
   -7.1620   23.2830  -31.1520 C   0  0  0  0  0  0  0  0  0  0  0  0
   -7.1620   22.0630  -31.7900 C   0  0  0  0  0  0  0  0  0  0  0  0
   -8.2290   21.2840  -32.2240 C   0  0  0  0  0  0  0  0  0  0  0  0
   -7.9410   20.0470  -32.8200 C   0  0  0  0  0  0  0  0  0  0  0  0
   -6.6000   19.5990  -32.9640 C   0  0  0  0  0  0  0  0  0  0  0  0
   -6.3210   18.3090  -33.5590 N   0  0  0  0  0  0  0  0  0  0  0  0
   -5.4360   18.2140  -34.7290 C   0  0  0  0  0  0  0  0  0  0  0  0
   -3.9630   18.2100  -34.3080 C   0  0  0  0  0  0  0  0  0  0  0  0
   -3.6750   17.0560  -33.5670 O   0  0  0  0  0  0  0  0  0  0  0  0
   -6.8770   17.0720  -32.9800 C   0  0  0  0  0  0  0  0  0  0  0  0
   -6.8190   15.9120  -33.9760 C   0  0  0  0  0  0  0  0  0  0  0  0
   -5.6680   15.1460  -33.7560 O   0  0  0  0  0  0  0  0  0  0  0  0
   -5.5440   20.4260  -32.5080 C   0  0  0  0  0  0  0  0  0  0  0  0
   -5.8600   21.6640  -31.9370 C   0  0  0  0  0  0  0  0  0  0  0  0
   -2.8000   25.3050  -29.9760 H   0  0  0  0  0  0  0  0  0  0  0  0
   -1.0675   22.6980  -30.8924 H   0  0  0  0  0  0  0  0  0  0  0  0
   -1.2850   22.0299  -29.2321 H   0  0  0  0  0  0  0  0  0  0  0  0
   -6.4470   24.6670  -28.4780 H   0  0  0  0  0  0  0  0  0  0  0  0
   -5.5410   26.2030  -28.6730 H   0  0  0  0  0  0  0  0  0  0  0  0
   -8.0353   23.8890  -30.8690 H   0  0  0  0  0  0  0  0  0  0  0  0
   -9.2672   21.6272  -32.1037 H   0  0  0  0  0  0  0  0  0  0  0  0
   -8.7653   19.4145  -33.1812 H   0  0  0  0  0  0  0  0  0  0  0  0
   -5.6569   17.2831  -35.2718 H   0  0  0  0  0  0  0  0  0  0  0  0
   -5.6129   19.0884  -35.3725 H   0  0  0  0  0  0  0  0  0  0  0  0
   -3.3283   18.2330  -35.2061 H   0  0  0  0  0  0  0  0  0  0  0  0
   -3.7650   19.0951  -33.6856 H   0  0  0  0  0  0  0  0  0  0  0  0
   -4.5000   16.8250  -33.0670 H   0  0  0  0  0  0  0  0  0  0  0  0
   -6.2967   16.8040  -32.0848 H   0  0  0  0  0  0  0  0  0  0  0  0
   -7.9309   17.2542  -32.7231 H   0  0  0  0  0  0  0  0  0  0  0  0
   -7.7083   15.2775  -33.8477 H   0  0  0  0  0  0  0  0  0  0  0  0
   -6.7922   16.3165  -34.9986 H   0  0  0  0  0  0  0  0  0  0  0  0
   -4.9400   15.5900  -34.2640 H   0  0  0  0  0  0  0  0  0  0  0  0
   -4.4970   20.1017  -32.6009 H   0  0  0  0  0  0  0  0  0  0  0  0
  1  2  1  0
  2  3  2  0
  2  4  1  0
  4  5  1  0
  5  6  1  0
  6  7  2  0
  6  8  1  0
  8  9  1  0
  9 10  1  0
 10 11  1  0
 10 12  2  0
  9 13  2  0
 13 14  1  0
 14 15  2  0
 15 16  1  0
 16 17  2  0
 17 18  1  0
 18 19  1  0
 19 20  1  0
 20 21  1  0
 18 22  1  0
 22 23  1  0
 23 24  1  0
 17 25  1  0
 25 26  2  0
 26  8  1  0
 26 14  1  0
  1 27  1  0
  4 28  1  0
  4 29  1  0
 11 30  1  0
 11 31  1  0
 13 32  1  0
 15 33  1  0
 16 34  1  0
 19 35  1  0
 19 36  1  0
 20 37  1  0
 20 38  1  0
 21 39  1  0
 22 40  1  0
 22 41  1  0
 23 42  1  0
 23 43  1  0
 24 44  1  0
 25 45  1  0
M  CHG  1   1  -1
M  END
>  <UniqueID>  (41) 
40

>  <SMILES>  (41) 
[NH-]C(=O)COC(=O)n1c(C(N)=O)cc2ccc(N(CCO)CCO)cc21

>  <Energy>  (41) 
78.69640059026038

>  <Genealogy>  (41) 
[NH-]C(=O)COC(=O)n1c(C(N)=O)cc2ccc(N(CCO)CCO)cc21 (protonated)
[NH-]C(=O)COC(=O)n1c(C(N)=O)cc2ccc(N(CCO)CCO)cc21 (3D coordinates assigned)
[NH-]C(=O)COC(=O)n1c(C(N)=O)cc2ccc(N(CCO)CCO)cc21 (optimized conformer: 78.69640059026038 kcal/mol)

>  <smiles>  (41) 
NC(=O)COC(=O)n1c(C(N)=O)cc2ccc(N(CCO)CCO)cc21

>  <score_type>  (41) 
oracle

>  <origin>  (41) 
adg

>  <m_score__min__energy>  (41) 
-10.82

>  <m_primary>  (41) 
energy

$$$$
42:0
     RDKit          3D

 37 39  0  0  0  0  0  0  0  0999 V2000
   -6.9180   17.2170  -32.7810 C   0  0  0  0  0  0  0  0  0  0  0  0
   -6.9750   18.3890  -32.5030 C   0  0  0  0  0  0  0  0  0  0  0  0
   -7.0410   19.7880  -32.1720 C   0  0  0  0  0  0  0  0  0  0  0  0
   -8.2590   20.4900  -32.3190 C   0  0  0  0  0  0  0  0  0  0  0  0
   -8.3340   21.8590  -32.0110 C   0  0  0  0  0  0  0  0  0  0  0  0
   -7.1800   22.4890  -31.5550 C   0  0  0  0  0  0  0  0  0  0  0  0
   -6.9650   23.8040  -31.2120 C   0  0  0  0  0  0  0  0  0  0  0  0
   -5.6230   23.8750  -30.8410 C   0  0  0  0  0  0  0  0  0  0  0  0
   -4.9850   25.1030  -30.3210 C   0  0  0  0  0  0  0  0  0  0  0  0
   -3.5830   25.2980  -30.4880 N   0  0  0  0  0  0  0  0  0  0  0  0
   -5.6710   25.9980  -29.7630 O   0  0  0  0  0  0  0  0  0  0  0  0
   -5.0310   22.6530  -30.9540 N   0  0  0  0  0  0  0  0  0  0  0  0
   -3.6490   22.3240  -30.7420 C   0  0  0  0  0  0  0  0  0  0  0  0
   -2.7470   23.0810  -31.1940 O   0  0  0  0  0  0  0  0  0  0  0  0
   -3.3110   21.1780  -30.0110 O   0  0  0  0  0  0  0  0  0  0  0  0
   -3.0520   21.1950  -28.6100 C   0  0  0  0  0  0  0  0  0  0  0  0
   -3.1690   22.5910  -28.0790 C   0  0  0  0  0  0  0  0  0  0  0  0
   -4.2220   23.0560  -27.4490 O   0  0  0  0  0  0  0  0  0  0  0  0
   -3.9410   24.3020  -27.1460 C   0  0  0  0  0  0  0  0  0  0  0  0
   -4.7290   25.0660  -26.5310 O   0  0  0  0  0  0  0  0  0  0  0  0
   -2.7460   24.6640  -27.5530 O   0  0  0  0  0  0  0  0  0  0  0  0
   -2.2330   23.6100  -28.1470 C   0  0  0  0  0  0  0  0  0  0  0  0
   -0.8680   23.5630  -28.7560 C   0  0  0  0  0  0  0  0  0  0  0  0
   -0.7220   24.5860  -29.7020 O   0  0  0  0  0  0  0  0  0  0  0  0
   -5.9970   21.8150  -31.3900 C   0  0  0  0  0  0  0  0  0  0  0  0
   -5.8890   20.4540  -31.7060 C   0  0  0  0  0  0  0  0  0  0  0  0
   -6.8660   16.1479  -33.0346 H   0  0  0  0  0  0  0  0  0  0  0  0
   -9.1545   19.9609  -32.6770 H   0  0  0  0  0  0  0  0  0  0  0  0
   -9.2758   22.4155  -32.1268 H   0  0  0  0  0  0  0  0  0  0  0  0
   -7.6968   24.6251  -31.2273 H   0  0  0  0  0  0  0  0  0  0  0  0
   -2.8970   24.8250  -29.8590 H   0  0  0  0  0  0  0  0  0  0  0  0
   -3.7806   20.5493  -28.0980 H   0  0  0  0  0  0  0  0  0  0  0  0
   -2.0314   20.8266  -28.4292 H   0  0  0  0  0  0  0  0  0  0  0  0
   -0.1135   23.6893  -27.9656 H   0  0  0  0  0  0  0  0  0  0  0  0
   -0.7322   22.5922  -29.2551 H   0  0  0  0  0  0  0  0  0  0  0  0
   -1.5710   24.6180  -30.2180 H   0  0  0  0  0  0  0  0  0  0  0  0
   -4.9334   19.9209  -31.5938 H   0  0  0  0  0  0  0  0  0  0  0  0
  1  2  3  0
  2  3  1  0
  3  4  2  0
  4  5  1  0
  5  6  2  0
  6  7  1  0
  7  8  2  0
  8  9  1  0
  9 10  1  0
  9 11  2  0
  8 12  1  0
 12 13  1  0
 13 14  2  0
 13 15  1  0
 15 16  1  0
 16 17  1  0
 17 18  1  0
 18 19  1  0
 19 20  2  0
 19 21  1  0
 21 22  1  0
 22 23  1  0
 23 24  1  0
 12 25  1  0
 25 26  2  0
 26  3  1  0
 25  6  1  0
 22 17  2  0
  1 27  1  0
  4 28  1  0
  5 29  1  0
  7 30  1  0
 10 31  1  0
 16 32  1  0
 16 33  1  0
 23 34  1  0
 23 35  1  0
 24 36  1  0
 26 37  1  0
M  CHG  1  10  -1
M  END
>  <UniqueID>  (42) 
41

>  <SMILES>  (42) 
C#Cc1ccc2cc(C([NH-])=O)n(C(=O)OCc3oc(=O)oc3CO)c2c1

>  <Energy>  (42) 
106.20292279547066

>  <Genealogy>  (42) 
C#Cc1ccc2cc(C([NH-])=O)n(C(=O)OCc3oc(=O)oc3CO)c2c1 (protonated)
C#Cc1ccc2cc(C([NH-])=O)n(C(=O)OCc3oc(=O)oc3CO)c2c1 (3D coordinates assigned)
C#Cc1ccc2cc(C([NH-])=O)n(C(=O)OCc3oc(=O)oc3CO)c2c1 (optimized conformer: 106.20292279547066 kcal/mol)

>  <smiles>  (42) 
C#Cc1ccc2cc(C(N)=O)n(C(=O)OCc3oc(=O)oc3CO)c2c1

>  <score_type>  (42) 
oracle

>  <origin>  (42) 
adg

>  <m_score__min__energy>  (42) 
-10.67

>  <m_primary>  (42) 
energy

$$$$
43:0
     RDKit          3D

 32 33  0  0  0  0  0  0  0  0999 V2000
   -1.9600   25.2910  -29.3450 N   0  0  0  0  0  0  0  0  0  0  0  0
   -1.0310   24.2170  -29.2370 C   0  0  0  0  0  0  0  0  0  0  0  0
    0.1220   24.4270  -28.7720 O   0  0  0  0  0  0  0  0  0  0  0  0
   -1.4170   22.8480  -29.6990 C   0  0  0  0  0  0  0  0  0  0  0  0
   -2.8280   22.7620  -29.8750 O   0  0  0  0  0  0  0  0  0  0  0  0
   -3.4340   22.4910  -31.1080 C   0  0  0  0  0  0  0  0  0  0  0  0
   -2.7300   22.1880  -32.1110 O   0  0  0  0  0  0  0  0  0  0  0  0
   -4.8650   22.5570  -31.2270 N   0  0  0  0  0  0  0  0  0  0  0  0
   -5.6660   23.6220  -30.9440 C   0  0  0  0  0  0  0  0  0  0  0  0
   -5.2410   24.8750  -30.2890 C   0  0  0  0  0  0  0  0  0  0  0  0
   -5.7130   25.2260  -28.9870 N   0  0  0  0  0  0  0  0  0  0  0  0
   -4.4930   25.6750  -30.9110 O   0  0  0  0  0  0  0  0  0  0  0  0
   -6.9830   23.3590  -31.3120 C   0  0  0  0  0  0  0  0  0  0  0  0
   -6.9680   22.0820  -31.8250 C   0  0  0  0  0  0  0  0  0  0  0  0
   -8.0070   21.3170  -32.3450 C   0  0  0  0  0  0  0  0  0  0  0  0
   -7.7010   20.0370  -32.8360 C   0  0  0  0  0  0  0  0  0  0  0  0
   -6.3670   19.5560  -32.8250 C   0  0  0  0  0  0  0  0  0  0  0  0
   -6.0560   18.1670  -33.3230 C   0  0  0  0  0  0  0  0  0  0  0  0
   -7.1800   17.3610  -33.2570 F   0  0  0  0  0  0  0  0  0  0  0  0
   -5.6270   18.2040  -34.6390 F   0  0  0  0  0  0  0  0  0  0  0  0
   -5.0600   17.6160  -32.5400 F   0  0  0  0  0  0  0  0  0  0  0  0
   -5.3410   20.3560  -32.2680 C   0  0  0  0  0  0  0  0  0  0  0  0
   -5.6800   21.6200  -31.7660 C   0  0  0  0  0  0  0  0  0  0  0  0
   -2.6860   25.2980  -30.0950 H   0  0  0  0  0  0  0  0  0  0  0  0
   -0.9188   22.6348  -30.6563 H   0  0  0  0  0  0  0  0  0  0  0  0
   -1.1071   22.1149  -28.9397 H   0  0  0  0  0  0  0  0  0  0  0  0
   -5.3690   26.0950  -28.5230 H   0  0  0  0  0  0  0  0  0  0  0  0
   -6.4600   24.6710  -28.5160 H   0  0  0  0  0  0  0  0  0  0  0  0
   -7.8500   24.0288  -31.2137 H   0  0  0  0  0  0  0  0  0  0  0  0
   -9.0368   21.7027  -32.3709 H   0  0  0  0  0  0  0  0  0  0  0  0
   -8.5053   19.4005  -33.2335 H   0  0  0  0  0  0  0  0  0  0  0  0
   -4.3028   19.9946  -32.2300 H   0  0  0  0  0  0  0  0  0  0  0  0
  1  2  1  0
  2  3  2  0
  2  4  1  0
  4  5  1  0
  5  6  1  0
  6  7  2  0
  6  8  1  0
  8  9  1  0
  9 10  1  0
 10 11  1  0
 10 12  2  0
  9 13  2  0
 13 14  1  0
 14 15  2  0
 15 16  1  0
 16 17  2  0
 17 18  1  0
 18 19  1  0
 18 20  1  0
 18 21  1  0
 17 22  1  0
 22 23  2  0
 23  8  1  0
 23 14  1  0
  1 24  1  0
  4 25  1  0
  4 26  1  0
 11 27  1  0
 11 28  1  0
 13 29  1  0
 15 30  1  0
 16 31  1  0
 22 32  1  0
M  CHG  1   1  -1
M  END
>  <UniqueID>  (43) 
42

>  <SMILES>  (43) 
[NH-]C(=O)COC(=O)n1c(C(N)=O)cc2ccc(C(F)(F)F)cc21

>  <Energy>  (43) 
69.25915984877841

>  <Genealogy>  (43) 
[NH-]C(=O)COC(=O)n1c(C(N)=O)cc2ccc(C(F)(F)F)cc21 (protonated)
[NH-]C(=O)COC(=O)n1c(C(N)=O)cc2ccc(C(F)(F)F)cc21 (3D coordinates assigned)
[NH-]C(=O)COC(=O)n1c(C(N)=O)cc2ccc(C(F)(F)F)cc21 (optimized conformer: 69.25915984877841 kcal/mol)

>  <smiles>  (43) 
NC(=O)COC(=O)n1c(C(N)=O)cc2ccc(C(F)(F)F)cc21

>  <score_type>  (43) 
oracle

>  <origin>  (43) 
adg

>  <m_score__min__energy>  (43) 
-11.1

>  <m_primary>  (43) 
energy

$$$$
44:0
     RDKit          3D

 27 28  0  0  0  0  0  0  0  0999 V2000
   -1.2180   22.8180  -29.8090 N   0  0  0  0  0  0  0  0  0  0  0  0
   -1.6050   22.1640  -31.0190 C   0  0  0  0  0  0  0  0  0  0  0  0
   -0.7150   21.8100  -31.8360 O   0  0  0  0  0  0  0  0  0  0  0  0
   -3.0300   21.8780  -31.3050 C   0  0  0  0  0  0  0  0  0  0  0  0
   -3.4700   20.9440  -32.2430 C   0  0  0  0  0  0  0  0  0  0  0  0
   -4.8420   21.0680  -32.2640 C   0  0  0  0  0  0  0  0  0  0  0  0
   -5.7930   20.3760  -33.0080 C   0  0  0  0  0  0  0  0  0  0  0  0
   -7.1460   20.7010  -32.8130 C   0  0  0  0  0  0  0  0  0  0  0  0
   -7.5240   21.7180  -31.8960 C   0  0  0  0  0  0  0  0  0  0  0  0
   -8.9810   22.0180  -31.6540 C   0  0  0  0  0  0  0  0  0  0  0  0
   -9.2640   23.2940  -32.1040 F   0  0  0  0  0  0  0  0  0  0  0  0
   -9.7840   21.1140  -32.3270 F   0  0  0  0  0  0  0  0  0  0  0  0
   -9.2780   21.9380  -30.3040 F   0  0  0  0  0  0  0  0  0  0  0  0
   -6.5260   22.3810  -31.1440 C   0  0  0  0  0  0  0  0  0  0  0  0
   -5.1890   22.0420  -31.3680 C   0  0  0  0  0  0  0  0  0  0  0  0
   -4.0890   22.5440  -30.7660 N   0  0  0  0  0  0  0  0  0  0  0  0
   -4.0730   23.5550  -29.7450 C   0  0  0  0  0  0  0  0  0  0  0  0
   -4.5150   23.2860  -28.5970 O   0  0  0  0  0  0  0  0  0  0  0  0
   -3.5050   24.8860  -30.0060 C   0  0  0  0  0  0  0  0  0  0  0  0
   -4.0400   25.6550  -30.8470 O   0  0  0  0  0  0  0  0  0  0  0  0
   -2.3580   25.2960  -29.3360 O   0  0  0  0  0  0  0  0  0  0  0  0
   -0.2070   22.9790  -29.6030 H   0  0  0  0  0  0  0  0  0  0  0  0
   -1.9260   23.1820  -29.1350 H   0  0  0  0  0  0  0  0  0  0  0  0
   -2.8531   20.2553  -32.8389 H   0  0  0  0  0  0  0  0  0  0  0  0
   -5.4946   19.5985  -33.7266 H   0  0  0  0  0  0  0  0  0  0  0  0
   -7.9214   20.1618  -33.3769 H   0  0  0  0  0  0  0  0  0  0  0  0
   -6.7960   23.1454  -30.4005 H   0  0  0  0  0  0  0  0  0  0  0  0
  1  2  1  0
  2  3  2  0
  2  4  1  0
  4  5  2  0
  5  6  1  0
  6  7  2  0
  7  8  1  0
  8  9  2  0
  9 10  1  0
 10 11  1  0
 10 12  1  0
 10 13  1  0
  9 14  1  0
 14 15  2  0
 15 16  1  0
 16 17  1  0
 17 18  2  0
 17 19  1  0
 19 20  2  0
 19 21  1  0
 16  4  1  0
 15  6  1  0
  1 22  1  0
  1 23  1  0
  5 24  1  0
  7 25  1  0
  8 26  1  0
 14 27  1  0
M  CHG  1  21  -1
M  END
>  <UniqueID>  (44) 
43

>  <SMILES>  (44) 
NC(=O)c1cc2ccc(C(F)(F)F)cc2n1C(=O)C(=O)[O-]

>  <Energy>  (44) 
67.37473755092256

>  <Genealogy>  (44) 
NC(=O)c1cc2ccc(C(F)(F)F)cc2n1C(=O)C(=O)[O-] (protonated)
NC(=O)c1cc2ccc(C(F)(F)F)cc2n1C(=O)C(=O)[O-] (3D coordinates assigned)
NC(=O)c1cc2ccc(C(F)(F)F)cc2n1C(=O)C(=O)[O-] (optimized conformer: 67.37473755092256 kcal/mol)

>  <smiles>  (44) 
NC(=O)c1cc2ccc(C(F)(F)F)cc2n1C(=O)C(=O)O

>  <score_type>  (44) 
oracle

>  <origin>  (44) 
adg

>  <m_score__min__energy>  (44) 
-8.3599999999999994

>  <m_primary>  (44) 
energy

$$$$
45:0
     RDKit          3D

 42 43  0  0  0  0  0  0  0  0999 V2000
   -6.1630   17.1880  -31.8260 C   0  0  0  0  0  0  0  0  0  0  0  0
   -6.2930   18.2730  -32.8080 N   0  0  0  0  0  0  0  0  0  0  0  0
   -6.1090   17.9480  -34.2330 C   0  0  0  0  0  0  0  0  0  0  0  0
   -4.6360   18.0310  -34.6470 C   0  0  0  0  0  0  0  0  0  0  0  0
   -4.0760   19.2470  -34.1960 O   0  0  0  0  0  0  0  0  0  0  0  0
   -2.7200   19.0720  -33.8360 C   0  0  0  0  0  0  0  0  0  0  0  0
   -2.5460   19.2140  -32.4680 F   0  0  0  0  0  0  0  0  0  0  0  0
   -1.9070   19.9710  -34.5090 F   0  0  0  0  0  0  0  0  0  0  0  0
   -2.3350   17.7940  -34.1900 F   0  0  0  0  0  0  0  0  0  0  0  0
   -6.5710   19.6270  -32.3660 C   0  0  0  0  0  0  0  0  0  0  0  0
   -7.9080   20.1120  -32.2910 C   0  0  0  0  0  0  0  0  0  0  0  0
   -8.1840   21.4140  -31.8460 C   0  0  0  0  0  0  0  0  0  0  0  0
   -7.1140   22.2230  -31.4860 C   0  0  0  0  0  0  0  0  0  0  0  0
   -7.1010   23.5110  -31.0010 C   0  0  0  0  0  0  0  0  0  0  0  0
   -5.7580   23.8180  -30.8040 C   0  0  0  0  0  0  0  0  0  0  0  0
   -5.2830   25.1470  -30.3660 C   0  0  0  0  0  0  0  0  0  0  0  0
   -4.0430   25.6730  -30.8310 N   0  0  0  0  0  0  0  0  0  0  0  0
   -6.0050   25.8490  -29.6100 O   0  0  0  0  0  0  0  0  0  0  0  0
   -4.9710   22.7590  -31.1470 N   0  0  0  0  0  0  0  0  0  0  0  0
   -3.5460   22.6450  -31.0030 C   0  0  0  0  0  0  0  0  0  0  0  0
   -2.9260   21.7160  -31.5910 O   0  0  0  0  0  0  0  0  0  0  0  0
   -2.8550   23.5550  -30.1980 O   0  0  0  0  0  0  0  0  0  0  0  0
   -1.5500   23.2980  -29.6930 C   0  0  0  0  0  0  0  0  0  0  0  0
   -0.9810   24.5590  -29.1370 C   0  0  0  0  0  0  0  0  0  0  0  0
   -1.5940   25.6490  -29.2880 O   0  0  0  0  0  0  0  0  0  0  0  0
    0.2040   24.5290  -28.4120 O   0  0  0  0  0  0  0  0  0  0  0  0
   -5.8180   21.7910  -31.5640 C   0  0  0  0  0  0  0  0  0  0  0  0
   -5.5120   20.4910  -31.9830 C   0  0  0  0  0  0  0  0  0  0  0  0
   -6.2130   17.6055  -30.8095 H   0  0  0  0  0  0  0  0  0  0  0  0
   -6.9811   16.4662  -31.9666 H   0  0  0  0  0  0  0  0  0  0  0  0
   -5.1976   16.6799  -31.9666 H   0  0  0  0  0  0  0  0  0  0  0  0
   -6.4738   16.9265  -34.4158 H   0  0  0  0  0  0  0  0  0  0  0  0
   -6.6744   18.6805  -34.8278 H   0  0  0  0  0  0  0  0  0  0  0  0
   -4.0847   17.1890  -34.2030 H   0  0  0  0  0  0  0  0  0  0  0  0
   -4.5657   17.9855  -35.7438 H   0  0  0  0  0  0  0  0  0  0  0  0
   -8.7388   19.4546  -32.5870 H   0  0  0  0  0  0  0  0  0  0  0  0
   -9.2183   21.7833  -31.7841 H   0  0  0  0  0  0  0  0  0  0  0  0
   -7.9682   24.1601  -30.8097 H   0  0  0  0  0  0  0  0  0  0  0  0
   -3.1340   25.2950  -30.4840 H   0  0  0  0  0  0  0  0  0  0  0  0
   -1.6059   22.5385  -28.8993 H   0  0  0  0  0  0  0  0  0  0  0  0
   -0.9061   22.9291  -30.5050 H   0  0  0  0  0  0  0  0  0  0  0  0
   -4.4684   20.1448  -32.0149 H   0  0  0  0  0  0  0  0  0  0  0  0
  1  2  1  0
  2  3  1  0
  3  4  1  0
  4  5  1  0
  5  6  1  0
  6  7  1  0
  6  8  1  0
  6  9  1  0
  2 10  1  0
 10 11  2  0
 11 12  1  0
 12 13  2  0
 13 14  1  0
 14 15  2  0
 15 16  1  0
 16 17  1  0
 16 18  2  0
 15 19  1  0
 19 20  1  0
 20 21  2  0
 20 22  1  0
 22 23  1  0
 23 24  1  0
 24 25  2  0
 24 26  1  0
 19 27  1  0
 27 28  2  0
 28 10  1  0
 27 13  1  0
  1 29  1  0
  1 30  1  0
  1 31  1  0
  3 32  1  0
  3 33  1  0
  4 34  1  0
  4 35  1  0
 11 36  1  0
 12 37  1  0
 14 38  1  0
 17 39  1  0
 23 40  1  0
 23 41  1  0
 28 42  1  0
M  CHG  2  17  -1  26  -1
M  END
>  <UniqueID>  (45) 
44

>  <SMILES>  (45) 
CN(CCOC(F)(F)F)c1ccc2cc(C([NH-])=O)n(C(=O)OCC(=O)[O-])c2c1

>  <Energy>  (45) 
81.30919773404796

>  <Genealogy>  (45) 
CN(CCOC(F)(F)F)c1ccc2cc(C([NH-])=O)n(C(=O)OCC(=O)[O-])c2c1 (protonated)
CN(CCOC(F)(F)F)c1ccc2cc(C([NH-])=O)n(C(=O)OCC(=O)[O-])c2c1 (3D coordinates assigned)
CN(CCOC(F)(F)F)c1ccc2cc(C([NH-])=O)n(C(=O)OCC(=O)[O-])c2c1 (optimized conformer: 81.30919773404796 kcal/mol)

>  <smiles>  (45) 
CN(CCOC(F)(F)F)c1ccc2cc(C(N)=O)n(C(=O)OCC(=O)O)c2c1

>  <score_type>  (45) 
oracle

>  <origin>  (45) 
adg

>  <m_score__min__energy>  (45) 
-11.75

>  <m_primary>  (45) 
energy

$$$$
46:0
     RDKit          3D

 38 39  0  0  0  0  0  0  0  0999 V2000
   -2.2530   19.1780  -32.4250 C   0  0  0  0  0  0  0  0  0  0  0  0
   -1.5820   20.5430  -32.5060 C   0  0  2  0  0  0  0  0  0  0  0  0
   -2.5780   21.5400  -32.7250 O   0  0  0  0  0  0  0  0  0  0  0  0
   -3.1520   22.3020  -31.7020 C   0  0  0  0  0  0  0  0  0  0  0  0
   -2.4230   22.9450  -30.8970 O   0  0  0  0  0  0  0  0  0  0  0  0
   -4.5810   22.3520  -31.5660 N   0  0  0  0  0  0  0  0  0  0  0  0
   -5.3310   23.3470  -31.0150 C   0  0  0  0  0  0  0  0  0  0  0  0
   -4.8100   24.5220  -30.2890 C   0  0  0  0  0  0  0  0  0  0  0  0
   -5.2820   24.8550  -28.9830 N   0  0  0  0  0  0  0  0  0  0  0  0
   -3.9730   25.2760  -30.8520 O   0  0  0  0  0  0  0  0  0  0  0  0
   -6.6890   23.0940  -31.1900 C   0  0  0  0  0  0  0  0  0  0  0  0
   -6.7510   21.8930  -31.8600 C   0  0  0  0  0  0  0  0  0  0  0  0
   -7.8550   21.1830  -32.3200 C   0  0  0  0  0  0  0  0  0  0  0  0
   -7.6240   19.9950  -33.0340 C   0  0  0  0  0  0  0  0  0  0  0  0
   -6.3010   19.5340  -33.2680 C   0  0  0  0  0  0  0  0  0  0  0  0
   -6.0630   18.2940  -34.0910 C   0  0  0  0  0  0  0  0  0  0  0  0
   -7.0620   17.3760  -33.8290 F   0  0  0  0  0  0  0  0  0  0  0  0
   -4.8380   17.7300  -33.7810 F   0  0  0  0  0  0  0  0  0  0  0  0
   -6.0710   18.5960  -35.4420 F   0  0  0  0  0  0  0  0  0  0  0  0
   -5.2060   20.2990  -32.8050 C   0  0  0  0  0  0  0  0  0  0  0  0
   -5.4660   21.4670  -32.0770 C   0  0  0  0  0  0  0  0  0  0  0  0
   -0.4050   20.5530  -33.8530 S   0  0  0  0  0  0  0  0  0  0  0  0
    1.2580   20.2510  -33.3010 C   0  0  0  0  0  0  0  0  0  0  0  0
   -0.4750   22.0140  -34.6800 O   0  0  0  0  0  0  0  0  0  0  0  0
   -2.3902   18.8989  -31.3699 H   0  0  0  0  0  0  0  0  0  0  0  0
   -3.2327   19.2209  -32.9233 H   0  0  0  0  0  0  0  0  0  0  0  0
   -1.6207   18.4284  -32.9233 H   0  0  0  0  0  0  0  0  0  0  0  0
   -1.0520   20.7540  -31.5655 H   0  0  0  0  0  0  0  0  0  0  0  0
   -4.8720   25.6650  -28.4680 H   0  0  0  0  0  0  0  0  0  0  0  0
   -6.0970   24.3560  -28.5600 H   0  0  0  0  0  0  0  0  0  0  0  0
   -7.5322   23.7201  -30.8628 H   0  0  0  0  0  0  0  0  0  0  0  0
   -8.8779   21.5406  -32.1306 H   0  0  0  0  0  0  0  0  0  0  0  0
   -8.4773   19.4155  -33.4160 H   0  0  0  0  0  0  0  0  0  0  0  0
   -4.1726   19.9839  -33.0119 H   0  0  0  0  0  0  0  0  0  0  0  0
    1.2841   20.2463  -32.2013 H   0  0  0  0  0  0  0  0  0  0  0  0
    1.5989   19.2763  -33.6801 H   0  0  0  0  0  0  0  0  0  0  0  0
    1.9198   21.0436  -33.6801 H   0  0  0  0  0  0  0  0  0  0  0  0
   -1.4150   22.3090  -34.5810 H   0  0  0  0  0  0  0  0  0  0  0  0
  1  2  1  0
  2  3  1  0
  3  4  1  0
  4  5  2  0
  4  6  1  0
  6  7  1  0
  7  8  1  0
  8  9  1  0
  8 10  2  0
  7 11  2  0
 11 12  1  0
 12 13  2  0
 13 14  1  0
 14 15  2  0
 15 16  1  0
 16 17  1  0
 16 18  1  0
 16 19  1  0
 15 20  1  0
 20 21  2  0
  2 22  1  0
 22 23  1  0
 22 24  1  1
 21  6  1  0
 21 12  1  0
  1 25  1  0
  1 26  1  0
  1 27  1  0
  2 28  1  1
  9 29  1  0
  9 30  1  0
 11 31  1  0
 13 32  1  0
 14 33  1  0
 20 34  1  0
 23 35  1  0
 23 36  1  0
 23 37  1  0
 24 38  1  0
M  CHG  1  22   1
M  END
>  <UniqueID>  (46) 
45

>  <SMILES>  (46) 
C[C@H](OC(=O)n1c(C(N)=O)cc2ccc(C(F)(F)F)cc21)[S@+](C)O

>  <Energy>  (46) 
67.05002478376994

>  <Genealogy>  (46) 
CC(OC(=O)n1c(C(N)=O)cc2ccc(C(F)(F)F)cc21)[S+](C)O (protonated)
C[C@H](OC(=O)n1c(C(N)=O)cc2ccc(C(F)(F)F)cc21)[S@+](C)O (chirality)
C[C@H](OC(=O)n1c(C(N)=O)cc2ccc(C(F)(F)F)cc21)[S@+](C)O (3D coordinates assigned)
C[C@H](OC(=O)n1c(C(N)=O)cc2ccc(C(F)(F)F)cc21)[S@+](C)O (optimized conformer: 67.05002478376994 kcal/mol)

>  <smiles>  (46) 
CC(OC(=O)n1c(C(N)=O)cc2ccc(C(F)(F)F)cc21)[S+](C)[O-]

>  <score_type>  (46) 
oracle

>  <origin>  (46) 
adg

>  <m_score__min__energy>  (46) 
-7.8700000000000001

>  <m_primary>  (46) 
energy

$$$$
47:0
     RDKit          3D

 31 33  0  0  0  0  0  0  0  0999 V2000
   -1.6430   25.6310  -28.9750 N   0  0  0  0  0  0  0  0  0  0  0  0
   -1.2150   24.2790  -29.1120 C   0  0  0  0  0  0  0  0  0  0  0  0
   -0.2770   23.8530  -28.3860 O   0  0  0  0  0  0  0  0  0  0  0  0
   -1.8930   23.3570  -30.0460 C   0  0  0  0  0  0  0  0  0  0  0  0
   -1.3010   22.1950  -30.5380 C   0  0  0  0  0  0  0  0  0  0  0  0
   -2.2740   21.5800  -31.2900 C   0  0  0  0  0  0  0  0  0  0  0  0
   -2.2260   20.3950  -32.0170 C   0  0  0  0  0  0  0  0  0  0  0  0
   -3.3750   20.0120  -32.7300 C   0  0  0  0  0  0  0  0  0  0  0  0
   -4.5460   20.8190  -32.7110 C   0  0  0  0  0  0  0  0  0  0  0  0
   -5.7950   20.4360  -33.4830 C   0  0  0  0  0  0  0  0  0  0  0  0
   -5.9810   18.9390  -33.7010 C   0  0  0  0  0  0  0  0  0  0  0  0
   -7.1920   18.8990  -32.8780 N   0  0  0  0  0  0  0  0  0  0  0  0
   -7.0640   20.3380  -32.6440 C   0  0  0  0  0  0  0  0  0  0  0  0
   -4.5500   22.0160  -31.9590 C   0  0  0  0  0  0  0  0  0  0  0  0
   -3.3980   22.3630  -31.2440 C   0  0  0  0  0  0  0  0  0  0  0  0
   -3.1800   23.4600  -30.4860 N   0  0  0  0  0  0  0  0  0  0  0  0
   -4.0980   24.5450  -30.2760 C   0  0  0  0  0  0  0  0  0  0  0  0
   -3.8780   25.6740  -30.7890 O   0  0  0  0  0  0  0  0  0  0  0  0
   -5.2530   24.3520  -29.5270 O   0  0  0  0  0  0  0  0  0  0  0  0
   -2.6570   25.8790  -28.9940 H   0  0  0  0  0  0  0  0  0  0  0  0
   -0.2733   21.8444  -30.3620 H   0  0  0  0  0  0  0  0  0  0  0  0
   -1.3165   19.7766  -32.0333 H   0  0  0  0  0  0  0  0  0  0  0  0
   -3.3686   19.0771  -33.3096 H   0  0  0  0  0  0  0  0  0  0  0  0
   -5.6765   21.1523  -34.3094 H   0  0  0  0  0  0  0  0  0  0  0  0
   -6.1565   18.6676  -34.7525 H   0  0  0  0  0  0  0  0  0  0  0  0
   -5.1508   18.2588  -33.4599 H   0  0  0  0  0  0  0  0  0  0  0  0
   -7.0580   18.3400  -32.0020 H   0  0  0  0  0  0  0  0  0  0  0  0
   -8.0460   18.6590  -33.4360 H   0  0  0  0  0  0  0  0  0  0  0  0
   -7.9027   20.9239  -33.0480 H   0  0  0  0  0  0  0  0  0  0  0  0
   -7.0472   20.7092  -31.6087 H   0  0  0  0  0  0  0  0  0  0  0  0
   -5.4404   22.6615  -31.9363 H   0  0  0  0  0  0  0  0  0  0  0  0
  1  2  1  0
  2  3  2  0
  2  4  1  0
  4  5  2  0
  5  6  1  0
  6  7  2  0
  7  8  1  0
  8  9  2  0
  9 10  1  0
 10 11  1  0
 11 12  1  0
 12 13  1  0
  9 14  1  0
 14 15  2  0
 15 16  1  0
 16 17  1  0
 17 18  2  0
 17 19  1  0
 16  4  1  0
 15  6  1  0
 13 10  1  0
  1 20  1  0
  5 21  1  0
  7 22  1  0
  8 23  1  0
 10 24  1  0
 11 25  1  0
 11 26  1  0
 12 27  1  0
 12 28  1  0
 13 29  1  0
 13 30  1  0
 14 31  1  0
M  CHG  3   1  -1  12   1  19  -1
M  END
>  <UniqueID>  (47) 
46

>  <SMILES>  (47) 
[NH-]C(=O)c1cc2ccc(C3C[NH2+]C3)cc2n1C(=O)[O-]

>  <Energy>  (47) 
143.81094408339317

>  <Genealogy>  (47) 
[NH-]C(=O)c1cc2ccc(C3C[NH2+]C3)cc2n1C(=O)[O-] (protonated)
[NH-]C(=O)c1cc2ccc(C3C[NH2+]C3)cc2n1C(=O)[O-] (3D coordinates assigned)
[NH-]C(=O)c1cc2ccc(C3C[NH2+]C3)cc2n1C(=O)[O-] (nonaromatic ring conformer: 143.81094408339317 kcal/mol)

>  <smiles>  (47) 
NC(=O)c1cc2ccc(C3CNC3)cc2n1C(=O)O

>  <score_type>  (47) 
oracle

>  <origin>  (47) 
adg

>  <m_score__min__energy>  (47) 
-10.23

>  <m_primary>  (47) 
energy

$$$$
48:0
     RDKit          3D

 41 42  0  0  0  0  0  0  0  0999 V2000
   -6.6640   17.3170  -31.9810 N   0  0  0  0  0  0  0  0  0  0  0  0
   -7.4240   18.1250  -32.3070 C   0  0  0  0  0  0  0  0  0  0  0  0
   -8.3870   19.1510  -32.7180 C   0  0  0  0  0  0  0  0  0  0  0  0
   -8.0090   20.4770  -32.1250 C   0  0  0  0  0  0  0  0  0  0  0  0
   -8.9550   21.5310  -32.0710 C   0  0  0  0  0  0  0  0  0  0  0  0
   -8.6050   22.7820  -31.5330 C   0  0  0  0  0  0  0  0  0  0  0  0
   -7.3020   22.9520  -31.0750 C   0  0  0  0  0  0  0  0  0  0  0  0
   -6.7030   24.0450  -30.4890 C   0  0  0  0  0  0  0  0  0  0  0  0
   -5.3940   23.6490  -30.2190 C   0  0  0  0  0  0  0  0  0  0  0  0
   -4.3730   24.5360  -29.6220 C   0  0  0  0  0  0  0  0  0  0  0  0
   -3.4860   25.2660  -30.4680 N   0  0  0  0  0  0  0  0  0  0  0  0
   -4.2620   24.6420  -28.3740 O   0  0  0  0  0  0  0  0  0  0  0  0
   -5.1910   22.3660  -30.6280 N   0  0  0  0  0  0  0  0  0  0  0  0
   -4.0020   21.5760  -30.4700 C   0  0  0  0  0  0  0  0  0  0  0  0
   -4.0850   20.3180  -30.5030 O   0  0  0  0  0  0  0  0  0  0  0  0
   -2.6900   22.2240  -30.2700 C   0  0  0  0  0  0  0  0  0  0  0  0
   -2.2940   23.0900  -31.0970 O   0  0  0  0  0  0  0  0  0  0  0  0
   -1.7990   21.8640  -29.1110 C   0  0  0  0  0  0  0  0  0  0  0  0
   -1.7830   22.9660  -28.0380 C   0  0  0  0  0  0  0  0  0  0  0  0
   -0.8280   24.1410  -28.3430 C   0  0  1  0  0  0  0  0  0  0  0  0
   -0.5770   24.1650  -29.7250 O   0  0  0  0  0  0  0  0  0  0  0  0
   -1.3990   25.5010  -27.9050 C   0  0  0  0  0  0  0  0  0  0  0  0
   -1.2350   26.4530  -28.9200 O   0  0  0  0  0  0  0  0  0  0  0  0
   -6.3680   21.9520  -31.1440 C   0  0  0  0  0  0  0  0  0  0  0  0
   -6.6930   20.6910  -31.6580 C   0  0  0  0  0  0  0  0  0  0  0  0
   -8.3891   19.2300  -33.8152 H   0  0  0  0  0  0  0  0  0  0  0  0
   -9.3889   18.8689  -32.3623 H   0  0  0  0  0  0  0  0  0  0  0  0
   -9.9734   21.3687  -32.4539 H   0  0  0  0  0  0  0  0  0  0  0  0
   -9.3379   23.6003  -31.4760 H   0  0  0  0  0  0  0  0  0  0  0  0
   -7.1605   25.0230  -30.2786 H   0  0  0  0  0  0  0  0  0  0  0  0
   -2.4530   25.2310  -30.3190 H   0  0  0  0  0  0  0  0  0  0  0  0
   -2.1646   20.9309  -28.6575 H   0  0  0  0  0  0  0  0  0  0  0  0
   -0.7743   21.7437  -29.4924 H   0  0  0  0  0  0  0  0  0  0  0  0
   -2.8026   23.3675  -27.9423 H   0  0  0  0  0  0  0  0  0  0  0  0
   -1.4176   22.4971  -27.1125 H   0  0  0  0  0  0  0  0  0  0  0  0
    0.0975   23.9809  -27.7704 H   0  0  0  0  0  0  0  0  0  0  0  0
   -1.3610   24.5970  -30.1550 H   0  0  0  0  0  0  0  0  0  0  0  0
   -2.4707   25.3891  -27.6836 H   0  0  0  0  0  0  0  0  0  0  0  0
   -0.8596   25.8408  -27.0086 H   0  0  0  0  0  0  0  0  0  0  0  0
   -1.6170   26.0490  -29.7410 H   0  0  0  0  0  0  0  0  0  0  0  0
   -5.9429   19.8874  -31.6972 H   0  0  0  0  0  0  0  0  0  0  0  0
  1  2  3  0
  2  3  1  0
  3  4  1  0
  4  5  2  0
  5  6  1  0
  6  7  2  0
  7  8  1  0
  8  9  2  0
  9 10  1  0
 10 11  1  0
 10 12  2  0
  9 13  1  0
 13 14  1  0
 14 15  2  0
 14 16  1  0
 16 17  2  0
 16 18  1  0
 18 19  1  0
 19 20  1  0
 20 21  1  0
 20 22  1  0
 22 23  1  0
 13 24  1  0
 24 25  2  0
 25  4  1  0
 24  7  1  0
  3 26  1  0
  3 27  1  0
  5 28  1  0
  6 29  1  0
  8 30  1  0
 11 31  1  0
 18 32  1  0
 18 33  1  0
 19 34  1  0
 19 35  1  0
 20 36  1  1
 21 37  1  0
 22 38  1  0
 22 39  1  0
 23 40  1  0
 25 41  1  0
M  CHG  1  11  -1
M  END
>  <UniqueID>  (48) 
47

>  <SMILES>  (48) 
N#CCc1ccc2cc(C([NH-])=O)n(C(=O)C(=O)CC[C@@H](O)CO)c2c1

>  <Energy>  (48) 
72.5442903126008

>  <Genealogy>  (48) 
N#CCc1ccc2cc(C([NH-])=O)n(C(=O)C(=O)CC[C@@H](O)CO)c2c1 (protonated)
N#CCc1ccc2cc(C([NH-])=O)n(C(=O)C(=O)CC[C@@H](O)CO)c2c1 (3D coordinates assigned)
N#CCc1ccc2cc(C([NH-])=O)n(C(=O)C(=O)CC[C@@H](O)CO)c2c1 (optimized conformer: 72.5442903126008 kcal/mol)

>  <smiles>  (48) 
N#CCc1ccc2cc(C(N)=O)n(C(=O)C(=O)CC[C@@H](O)CO)c2c1

>  <score_type>  (48) 
oracle

>  <origin>  (48) 
adg

>  <m_score__min__energy>  (48) 
-10.6

>  <m_primary>  (48) 
energy

$$$$
49:0
     RDKit          3D

 44 46  0  0  0  0  0  0  0  0999 V2000
   -4.2410   25.5120  -30.6540 N   0  0  0  0  0  0  0  0  0  0  0  0
   -5.6020   25.1560  -30.4030 C   0  0  0  0  0  0  0  0  0  0  0  0
   -6.3460   25.9700  -29.7950 O   0  0  0  0  0  0  0  0  0  0  0  0
   -6.1280   23.8370  -30.8230 C   0  0  0  0  0  0  0  0  0  0  0  0
   -7.4750   23.5760  -31.0700 C   0  0  0  0  0  0  0  0  0  0  0  0
   -7.5190   22.2740  -31.5150 C   0  0  0  0  0  0  0  0  0  0  0  0
   -8.6060   21.4990  -31.9060 C   0  0  0  0  0  0  0  0  0  0  0  0
   -8.3610   20.1740  -32.3030 C   0  0  0  0  0  0  0  0  0  0  0  0
   -7.0470   19.6390  -32.2780 C   0  0  0  0  0  0  0  0  0  0  0  0
   -6.7910   18.2260  -32.7390 C   0  0  0  0  0  0  0  0  0  0  0  0
   -6.4560   18.2390  -34.0790 F   0  0  0  0  0  0  0  0  0  0  0  0
   -7.9190   17.4430  -32.5640 F   0  0  0  0  0  0  0  0  0  0  0  0
   -5.7550   17.6580  -32.0190 F   0  0  0  0  0  0  0  0  0  0  0  0
   -5.9660   20.4680  -31.8970 C   0  0  0  0  0  0  0  0  0  0  0  0
   -6.2370   21.7900  -31.5270 C   0  0  0  0  0  0  0  0  0  0  0  0
   -5.3710   22.7390  -31.1060 N   0  0  0  0  0  0  0  0  0  0  0  0
   -3.9520   22.5860  -30.9360 C   0  0  0  0  0  0  0  0  0  0  0  0
   -3.1860   22.7320  -31.9260 O   0  0  0  0  0  0  0  0  0  0  0  0
   -3.4190   22.2770  -29.6420 N   0  0  0  0  0  0  0  0  0  0  0  0
   -2.3970   23.0390  -28.9210 C   0  0  2  0  0  0  0  0  0  0  0  0
   -1.3690   22.1020  -28.2410 C   0  0  0  0  0  0  0  0  0  0  0  0
   -0.7440   22.7140  -26.9710 C   0  0  0  0  0  0  0  0  0  0  0  0
   -0.5910   24.2440  -27.0730 C   0  0  1  0  0  0  0  0  0  0  0  0
    0.3240   24.5890  -28.1650 N   0  0  0  0  0  0  0  0  0  0  0  0
   -1.9670   24.9340  -27.2780 C   0  0  0  0  0  0  0  0  0  0  0  0
   -3.0330   24.0260  -27.9270 C   0  0  0  0  0  0  0  0  0  0  0  0
   -3.6090   24.8930  -31.2070 H   0  0  0  0  0  0  0  0  0  0  0  0
   -3.8710   26.4290  -30.3190 H   0  0  0  0  0  0  0  0  0  0  0  0
   -8.3227   24.2643  -30.9375 H   0  0  0  0  0  0  0  0  0  0  0  0
   -9.6259   21.9110  -31.9044 H   0  0  0  0  0  0  0  0  0  0  0  0
   -9.1980   19.5435  -32.6374 H   0  0  0  0  0  0  0  0  0  0  0  0
   -4.9359   20.0822  -31.8917 H   0  0  0  0  0  0  0  0  0  0  0  0
   -1.8420   23.6394  -29.6568 H   0  0  0  0  0  0  0  0  0  0  0  0
   -1.8765   21.1657  -27.9657 H   0  0  0  0  0  0  0  0  0  0  0  0
   -0.5538   21.9312  -28.9595 H   0  0  0  0  0  0  0  0  0  0  0  0
   -1.3889   22.4796  -26.1112 H   0  0  0  0  0  0  0  0  0  0  0  0
    0.2606   22.2829  -26.8492 H   0  0  0  0  0  0  0  0  0  0  0  0
   -0.1689   24.6100  -26.1254 H   0  0  0  0  0  0  0  0  0  0  0  0
    1.2040   24.0370  -28.0440 H   0  0  0  0  0  0  0  0  0  0  0  0
   -0.0960   24.2590  -29.0650 H   0  0  0  0  0  0  0  0  0  0  0  0
   -2.3408   25.2592  -26.2959 H   0  0  0  0  0  0  0  0  0  0  0  0
   -1.8022   25.7750  -27.9676 H   0  0  0  0  0  0  0  0  0  0  0  0
   -3.5482   23.4581  -27.1383 H   0  0  0  0  0  0  0  0  0  0  0  0
   -3.7431   24.6621  -28.4758 H   0  0  0  0  0  0  0  0  0  0  0  0
  1  2  1  0
  2  3  2  0
  2  4  1  0
  4  5  2  0
  5  6  1  0
  6  7  2  0
  7  8  1  0
  8  9  2  0
  9 10  1  0
 10 11  1  0
 10 12  1  0
 10 13  1  0
  9 14  1  0
 14 15  2  0
 15 16  1  0
 16 17  1  0
 17 18  2  0
 17 19  1  0
 19 20  1  0
 20 21  1  0
 21 22  1  0
 22 23  1  0
 23 24  1  0
 23 25  1  0
 25 26  1  0
 16  4  1  0
 26 20  1  0
 15  6  1  0
  1 27  1  0
  1 28  1  0
  5 29  1  0
  7 30  1  0
  8 31  1  0
 14 32  1  0
 20 33  1  6
 21 34  1  0
 21 35  1  0
 22 36  1  0
 22 37  1  0
 23 38  1  1
 24 39  1  0
 24 40  1  0
 25 41  1  0
 25 42  1  0
 26 43  1  0
 26 44  1  0
M  CHG  1  19  -1
M  END
>  <UniqueID>  (49) 
48

>  <SMILES>  (49) 
NC(=O)c1cc2ccc(C(F)(F)F)cc2n1C(=O)[N-]C1CCC(N)CC1

>  <Energy>  (49) 
86.68418290456074

>  <Genealogy>  (49) 
NC(=O)c1cc2ccc(C(F)(F)F)cc2n1C(=O)[N-]C1CCC(N)CC1 (protonated)
NC(=O)c1cc2ccc(C(F)(F)F)cc2n1C(=O)[N-]C1CCC(N)CC1 (3D coordinates assigned)
NC(=O)c1cc2ccc(C(F)(F)F)cc2n1C(=O)[N-]C1CCC(N)CC1 (nonaromatic ring conformer: 86.68418290456074 kcal/mol)

>  <smiles>  (49) 
NC(=O)c1cc2ccc(C(F)(F)F)cc2n1C(=O)NC1CCC(N)CC1

>  <score_type>  (49) 
oracle

>  <origin>  (49) 
adg

>  <m_score__min__energy>  (49) 
-10.33

>  <m_primary>  (49) 
energy

$$$$
50:0
     RDKit          3D

 30 31  0  0  0  0  0  0  0  0999 V2000
   -6.0930   25.3260  -28.9890 N   0  0  0  0  0  0  0  0  0  0  0  0
   -6.0900   25.0050  -30.3820 C   0  0  0  0  0  0  0  0  0  0  0  0
   -5.8040   25.9040  -31.2160 O   0  0  0  0  0  0  0  0  0  0  0  0
   -6.4330   23.6410  -30.8500 C   0  0  0  0  0  0  0  0  0  0  0  0
   -7.7330   23.1770  -31.0500 C   0  0  0  0  0  0  0  0  0  0  0  0
   -7.5940   21.8930  -31.5280 C   0  0  0  0  0  0  0  0  0  0  0  0
   -8.5630   20.9540  -31.8660 C   0  0  0  0  0  0  0  0  0  0  0  0
   -8.1310   19.6860  -32.2930 C   0  0  0  0  0  0  0  0  0  0  0  0
   -6.7470   19.3820  -32.3810 C   0  0  0  0  0  0  0  0  0  0  0  0
   -6.2980   17.9990  -32.7780 C   0  0  0  0  0  0  0  0  0  0  0  0
   -7.0670   17.5160  -33.8230 F   0  0  0  0  0  0  0  0  0  0  0  0
   -6.4270   17.1510  -31.6940 F   0  0  0  0  0  0  0  0  0  0  0  0
   -4.9750   18.0130  -33.1850 F   0  0  0  0  0  0  0  0  0  0  0  0
   -5.7960   20.3580  -32.0040 C   0  0  0  0  0  0  0  0  0  0  0  0
   -6.2550   21.6170  -31.6050 C   0  0  0  0  0  0  0  0  0  0  0  0
   -5.5310   22.6820  -31.1990 N   0  0  0  0  0  0  0  0  0  0  0  0
   -4.1010   22.7500  -31.0920 C   0  0  0  0  0  0  0  0  0  0  0  0
   -3.3880   22.5430  -32.1110 O   0  0  0  0  0  0  0  0  0  0  0  0
   -3.4430   23.0140  -29.7720 C   0  0  0  0  0  0  0  0  0  0  0  0
   -2.9830   24.4340  -29.7070 C   0  0  0  0  0  0  0  0  0  0  0  0
   -3.4610   25.2920  -30.4930 O   0  0  0  0  0  0  0  0  0  0  0  0
   -1.9880   24.8020  -28.8100 O   0  0  0  0  0  0  0  0  0  0  0  0
   -6.2550   24.5970  -28.2610 H   0  0  0  0  0  0  0  0  0  0  0  0
   -5.8870   26.3000  -28.6780 H   0  0  0  0  0  0  0  0  0  0  0  0
   -8.6708   23.7214  -30.8651 H   0  0  0  0  0  0  0  0  0  0  0  0
   -9.6341   21.1960  -31.8012 H   0  0  0  0  0  0  0  0  0  0  0  0
   -8.8739   18.9207  -32.5620 H   0  0  0  0  0  0  0  0  0  0  0  0
   -4.7197   20.1320  -32.0241 H   0  0  0  0  0  0  0  0  0  0  0  0
   -4.1630   22.8266  -28.9618 H   0  0  0  0  0  0  0  0  0  0  0  0
   -2.5753   22.3472  -29.6606 H   0  0  0  0  0  0  0  0  0  0  0  0
  1  2  1  0
  2  3  2  0
  2  4  1  0
  4  5  2  0
  5  6  1  0
  6  7  2  0
  7  8  1  0
  8  9  2  0
  9 10  1  0
 10 11  1  0
 10 12  1  0
 10 13  1  0
  9 14  1  0
 14 15  2  0
 15 16  1  0
 16 17  1  0
 17 18  2  0
 17 19  1  0
 19 20  1  0
 20 21  2  0
 20 22  1  0
 16  4  1  0
 15  6  1  0
  1 23  1  0
  1 24  1  0
  5 25  1  0
  7 26  1  0
  8 27  1  0
 14 28  1  0
 19 29  1  0
 19 30  1  0
M  CHG  1  22  -1
M  END
>  <UniqueID>  (50) 
49

>  <SMILES>  (50) 
NC(=O)c1cc2ccc(C(F)(F)F)cc2n1C(=O)CC(=O)[O-]

>  <Energy>  (50) 
68.40184497019392

>  <Genealogy>  (50) 
NC(=O)c1cc2ccc(C(F)(F)F)cc2n1C(=O)CC(=O)[O-] (protonated)
NC(=O)c1cc2ccc(C(F)(F)F)cc2n1C(=O)CC(=O)[O-] (3D coordinates assigned)
NC(=O)c1cc2ccc(C(F)(F)F)cc2n1C(=O)CC(=O)[O-] (optimized conformer: 68.40184497019392 kcal/mol)

>  <smiles>  (50) 
NC(=O)c1cc2ccc(C(F)(F)F)cc2n1C(=O)CC(=O)O

>  <score_type>  (50) 
oracle

>  <origin>  (50) 
adg

>  <m_score__min__energy>  (50) 
-10.199999999999999

>  <m_primary>  (50) 
energy

$$$$
51:0
     RDKit          3D

 36 38  0  0  0  0  0  0  0  0999 V2000
   -5.6530   25.3320  -28.8430 N   0  0  0  0  0  0  0  0  0  0  0  0
   -6.4450   24.7860  -29.9000 C   0  0  0  0  0  0  0  0  0  0  0  0
   -7.5790   25.2820  -30.1330 O   0  0  0  0  0  0  0  0  0  0  0  0
   -5.9610   23.6320  -30.6900 C   0  0  0  0  0  0  0  0  0  0  0  0
   -6.8030   22.7120  -31.3130 C   0  0  0  0  0  0  0  0  0  0  0  0
   -5.9680   21.8690  -32.0100 C   0  0  0  0  0  0  0  0  0  0  0  0
   -6.2710   20.7650  -32.8000 C   0  0  0  0  0  0  0  0  0  0  0  0
   -5.2050   20.0580  -33.3810 C   0  0  0  0  0  0  0  0  0  0  0  0
   -3.8630   20.4580  -33.1560 C   0  0  0  0  0  0  0  0  0  0  0  0
   -2.7480   19.7030  -33.7580 C   0  0  0  0  0  0  0  0  0  0  0  0
   -2.8440   18.4420  -34.2250 N   0  0  0  0  0  0  0  0  0  0  0  0
   -1.6440   18.1160  -34.6810 N   0  0  0  0  0  0  0  0  0  0  0  0
   -0.8660   19.1950  -34.4730 C   0  0  0  0  0  0  0  0  0  0  0  0
    0.5210   19.2730  -34.8190 N   0  0  0  0  0  0  0  0  0  0  0  0
    1.2860   20.5130  -34.7130 C   0  0  0  0  0  0  0  0  0  0  0  0
    0.7510   21.5700  -35.6810 C   0  0  0  0  0  0  0  0  0  0  0  0
   -0.1350   22.4380  -35.0270 O   0  0  0  0  0  0  0  0  0  0  0  0
   -1.5310   20.1710  -33.9070 O   0  0  0  0  0  0  0  0  0  0  0  0
   -3.5970   21.5860  -32.3470 C   0  0  0  0  0  0  0  0  0  0  0  0
   -4.6790   22.2830  -31.7970 C   0  0  0  0  0  0  0  0  0  0  0  0
   -4.6570   23.3650  -30.9870 N   0  0  0  0  0  0  0  0  0  0  0  0
   -3.4890   24.0430  -30.4960 C   0  0  0  0  0  0  0  0  0  0  0  0
   -3.4760   25.2990  -30.3980 O   0  0  0  0  0  0  0  0  0  0  0  0
   -2.3660   23.3220  -30.1120 O   0  0  0  0  0  0  0  0  0  0  0  0
   -4.6870   24.9850  -28.6550 H   0  0  0  0  0  0  0  0  0  0  0  0
   -6.0210   26.1210  -28.2670 H   0  0  0  0  0  0  0  0  0  0  0  0
   -7.9008   22.6691  -31.2589 H   0  0  0  0  0  0  0  0  0  0  0  0
   -7.3134   20.4549  -32.9648 H   0  0  0  0  0  0  0  0  0  0  0  0
   -5.4134   19.1851  -34.0171 H   0  0  0  0  0  0  0  0  0  0  0  0
    0.9850   18.4250  -35.2150 H   0  0  0  0  0  0  0  0  0  0  0  0
    1.2106   20.8957  -33.6845 H   0  0  0  0  0  0  0  0  0  0  0  0
    2.3347   20.3015  -34.9688 H   0  0  0  0  0  0  0  0  0  0  0  0
    1.5941   22.1506  -36.0836 H   0  0  0  0  0  0  0  0  0  0  0  0
    0.2129   21.0633  -36.4957 H   0  0  0  0  0  0  0  0  0  0  0  0
   -1.0090   21.9700  -34.9820 H   0  0  0  0  0  0  0  0  0  0  0  0
   -2.5633   21.9087  -32.1540 H   0  0  0  0  0  0  0  0  0  0  0  0
  1  2  1  0
  2  3  2  0
  2  4  1  0
  4  5  2  0
  5  6  1  0
  6  7  2  0
  7  8  1  0
  8  9  2  0
  9 10  1  0
 10 11  2  0
 11 12  1  0
 12 13  2  0
 13 14  1  0
 14 15  1  0
 15 16  1  0
 16 17  1  0
 13 18  1  0
  9 19  1  0
 19 20  2  0
 20 21  1  0
 21 22  1  0
 22 23  2  0
 22 24  1  0
 21  4  1  0
 20  6  1  0
 18 10  1  0
  1 25  1  0
  1 26  1  0
  5 27  1  0
  7 28  1  0
  8 29  1  0
 14 30  1  0
 15 31  1  0
 15 32  1  0
 16 33  1  0
 16 34  1  0
 17 35  1  0
 19 36  1  0
M  CHG  1  24  -1
M  END
>  <UniqueID>  (51) 
50

>  <SMILES>  (51) 
NC(=O)c1cc2ccc(-c3nnc(NCCO)o3)cc2n1C(=O)[O-]

>  <Energy>  (51) 
107.92882753442632

>  <Genealogy>  (51) 
NC(=O)c1cc2ccc(-c3nnc(NCCO)o3)cc2n1C(=O)[O-] (protonated)
NC(=O)c1cc2ccc(-c3nnc(NCCO)o3)cc2n1C(=O)[O-] (3D coordinates assigned)
NC(=O)c1cc2ccc(-c3nnc(NCCO)o3)cc2n1C(=O)[O-] (optimized conformer: 107.92882753442632 kcal/mol)

>  <smiles>  (51) 
NC(=O)c1cc2ccc(-c3nnc(NCCO)o3)cc2n1C(=O)O

>  <score_type>  (51) 
oracle

>  <origin>  (51) 
adg

>  <m_score__min__energy>  (51) 
-8.5899999999999999

>  <m_primary>  (51) 
energy

$$$$
52:0
     RDKit          3D

 33 34  0  0  0  0  0  0  0  0999 V2000
   -4.2410   25.5530  -30.6750 N   0  0  0  0  0  0  0  0  0  0  0  0
   -5.6000   25.1960  -30.4180 C   0  0  0  0  0  0  0  0  0  0  0  0
   -6.3440   26.0110  -29.8110 O   0  0  0  0  0  0  0  0  0  0  0  0
   -6.1230   23.8730  -30.8220 C   0  0  0  0  0  0  0  0  0  0  0  0
   -7.4700   23.6120  -31.0670 C   0  0  0  0  0  0  0  0  0  0  0  0
   -7.5150   22.3080  -31.5040 C   0  0  0  0  0  0  0  0  0  0  0  0
   -8.6050   21.5250  -31.8690 C   0  0  0  0  0  0  0  0  0  0  0  0
   -8.3650   20.1940  -32.2460 C   0  0  0  0  0  0  0  0  0  0  0  0
   -7.0450   19.6720  -32.2640 C   0  0  0  0  0  0  0  0  0  0  0  0
   -6.8080   18.2240  -32.6090 C   0  0  0  0  0  0  0  0  0  0  0  0
   -5.7780   17.7330  -31.8300 F   0  0  0  0  0  0  0  0  0  0  0  0
   -6.4660   18.0910  -33.9450 F   0  0  0  0  0  0  0  0  0  0  0  0
   -7.9470   17.4730  -32.3780 F   0  0  0  0  0  0  0  0  0  0  0  0
   -5.9660   20.4940  -31.8640 C   0  0  0  0  0  0  0  0  0  0  0  0
   -6.2340   21.8220  -31.5100 C   0  0  0  0  0  0  0  0  0  0  0  0
   -5.3670   22.7720  -31.0920 N   0  0  0  0  0  0  0  0  0  0  0  0
   -3.9520   22.6180  -30.8920 C   0  0  0  0  0  0  0  0  0  0  0  0
   -3.1560   22.7880  -31.8560 O   0  0  0  0  0  0  0  0  0  0  0  0
   -3.4650   22.2670  -29.6290 O   0  0  0  0  0  0  0  0  0  0  0  0
   -3.6910   23.0600  -28.4680 C   0  0  0  0  0  0  0  0  0  0  0  0
   -2.5640   24.0730  -28.3050 C   0  0  0  0  0  0  0  0  0  0  0  0
   -2.3070   24.7220  -29.5220 O   0  0  0  0  0  0  0  0  0  0  0  0
   -3.6100   24.9250  -31.2190 H   0  0  0  0  0  0  0  0  0  0  0  0
   -3.8720   26.4750  -30.3530 H   0  0  0  0  0  0  0  0  0  0  0  0
   -8.3171   24.3018  -30.9384 H   0  0  0  0  0  0  0  0  0  0  0  0
   -9.6251   21.9364  -31.8625 H   0  0  0  0  0  0  0  0  0  0  0  0
   -9.2091   19.5486  -32.5305 H   0  0  0  0  0  0  0  0  0  0  0  0
   -4.9398   20.0992  -31.8317 H   0  0  0  0  0  0  0  0  0  0  0  0
   -4.6481   23.5924  -28.5705 H   0  0  0  0  0  0  0  0  0  0  0  0
   -3.7220   22.4069  -27.5834 H   0  0  0  0  0  0  0  0  0  0  0  0
   -2.8544   24.8194  -27.5510 H   0  0  0  0  0  0  0  0  0  0  0  0
   -1.6541   23.5445  -27.9845 H   0  0  0  0  0  0  0  0  0  0  0  0
   -2.3560   24.0290  -30.2310 H   0  0  0  0  0  0  0  0  0  0  0  0
  1  2  1  0
  2  3  2  0
  2  4  1  0
  4  5  2  0
  5  6  1  0
  6  7  2  0
  7  8  1  0
  8  9  2  0
  9 10  1  0
 10 11  1  0
 10 12  1  0
 10 13  1  0
  9 14  1  0
 14 15  2  0
 15 16  1  0
 16 17  1  0
 17 18  2  0
 17 19  1  0
 19 20  1  0
 20 21  1  0
 21 22  1  0
 16  4  1  0
 15  6  1  0
  1 23  1  0
  1 24  1  0
  5 25  1  0
  7 26  1  0
  8 27  1  0
 14 28  1  0
 20 29  1  0
 20 30  1  0
 21 31  1  0
 21 32  1  0
 22 33  1  0
M  END
>  <UniqueID>  (52) 
51

>  <SMILES>  (52) 
NC(=O)c1cc2ccc(C(F)(F)F)cc2n1C(=O)OCCO

>  <Energy>  (52) 
67.64416498692171

>  <Genealogy>  (52) 
NC(=O)c1cc2ccc(C(F)(F)F)cc2n1C(=O)OCCO (3D coordinates assigned)
NC(=O)c1cc2ccc(C(F)(F)F)cc2n1C(=O)OCCO (optimized conformer: 67.64416498692171 kcal/mol)

>  <smiles>  (52) 
NC(=O)c1cc2ccc(C(F)(F)F)cc2n1C(=O)OCCO

>  <score_type>  (52) 
oracle

>  <origin>  (52) 
adg

>  <m_score__min__energy>  (52) 
-8.4399999999999995

>  <m_primary>  (52) 
energy

$$$$
53:0
     RDKit          3D

 53 55  0  0  0  0  0  0  0  0999 V2000
   -3.4900   20.4170  -33.4760 C   0  0  0  0  0  0  0  0  0  0  0  0
   -4.4030   18.9070  -33.7100 S   0  0  0  0  0  0  0  0  0  0  0  0
   -3.8780   18.2230  -34.9400 O   0  0  0  0  0  0  0  0  0  0  0  0
   -4.1970   17.9930  -32.5310 O   0  0  0  0  0  0  0  0  0  0  0  0
   -6.0500   19.2300  -33.9430 O   0  0  0  0  0  0  0  0  0  0  0  0
   -6.7990   18.0990  -33.5620 C   0  0  0  0  0  0  0  0  0  0  0  0
   -7.4520   18.3570  -32.2050 C   0  0  0  0  0  0  0  0  0  0  0  0
   -7.5320   19.8310  -31.9090 C   0  0  0  0  0  0  0  0  0  0  0  0
   -8.7860   20.4920  -31.9280 C   0  0  0  0  0  0  0  0  0  0  0  0
   -8.8740   21.8680  -31.6620 C   0  0  0  0  0  0  0  0  0  0  0  0
   -7.6980   22.5550  -31.3800 C   0  0  0  0  0  0  0  0  0  0  0  0
   -7.5040   23.8780  -31.0560 C   0  0  0  0  0  0  0  0  0  0  0  0
   -6.1360   24.0040  -30.8230 C   0  0  0  0  0  0  0  0  0  0  0  0
   -5.4930   25.2290  -30.3020 C   0  0  0  0  0  0  0  0  0  0  0  0
   -4.1940   25.6180  -30.7520 N   0  0  0  0  0  0  0  0  0  0  0  0
   -6.1050   25.9680  -29.4820 O   0  0  0  0  0  0  0  0  0  0  0  0
   -5.5110   22.8060  -31.0020 N   0  0  0  0  0  0  0  0  0  0  0  0
   -4.1010   22.5510  -30.8870 C   0  0  0  0  0  0  0  0  0  0  0  0
   -3.2980   23.1780  -31.6290 O   0  0  0  0  0  0  0  0  0  0  0  0
   -3.5880   21.5780  -29.9010 C   0  0  0  0  0  0  0  0  0  0  0  0
   -3.8330   20.3520  -30.0650 O   0  0  0  0  0  0  0  0  0  0  0  0
   -2.7420   22.0420  -28.7340 C   0  0  0  0  0  0  0  0  0  0  0  0
   -1.2250   22.0360  -29.0760 C   0  0  0  0  0  0  0  0  0  0  0  0
   -0.7400   23.3410  -29.7110 C   0  0  0  0  0  0  0  0  0  0  0  0
   -0.9190   24.6610  -28.5300 S   0  0  0  0  0  0  0  0  0  0  0  0
    0.3450   24.8200  -27.7340 O   0  0  0  0  0  0  0  0  0  0  0  0
   -1.2240   25.9470  -29.2470 O   0  0  0  0  0  0  0  0  0  0  0  0
   -2.2660   24.2330  -27.4420 C   0  0  0  0  0  0  0  0  0  0  0  0
   -3.2940   23.3980  -28.2080 C   0  0  0  0  0  0  0  0  0  0  0  0
   -6.4780   21.9300  -31.3480 C   0  0  0  0  0  0  0  0  0  0  0  0
   -6.3560   20.5630  -31.6360 C   0  0  0  0  0  0  0  0  0  0  0  0
   -3.3725   20.6114  -32.3997 H   0  0  0  0  0  0  0  0  0  0  0  0
   -2.4981   20.3217  -33.9418 H   0  0  0  0  0  0  0  0  0  0  0  0
   -4.0352   21.2511  -33.9418 H   0  0  0  0  0  0  0  0  0  0  0  0
   -7.5785   17.9047  -34.3135 H   0  0  0  0  0  0  0  0  0  0  0  0
   -6.1346   17.2252  -33.4901 H   0  0  0  0  0  0  0  0  0  0  0  0
   -8.4685   17.9368  -32.2106 H   0  0  0  0  0  0  0  0  0  0  0  0
   -6.8382   17.8791  -31.4273 H   0  0  0  0  0  0  0  0  0  0  0  0
   -9.6990   19.9214  -32.1533 H   0  0  0  0  0  0  0  0  0  0  0  0
   -9.8438   22.3869  -31.6762 H   0  0  0  0  0  0  0  0  0  0  0  0
   -8.2667   24.6683  -30.9941 H   0  0  0  0  0  0  0  0  0  0  0  0
   -3.8710   26.6020  -30.6170 H   0  0  0  0  0  0  0  0  0  0  0  0
   -3.5710   24.9280  -31.2290 H   0  0  0  0  0  0  0  0  0  0  0  0
   -2.8210   21.3264  -27.9023 H   0  0  0  0  0  0  0  0  0  0  0  0
   -0.6590   21.8685  -28.1478 H   0  0  0  0  0  0  0  0  0  0  0  0
   -1.0614   21.2359  -29.8129 H   0  0  0  0  0  0  0  0  0  0  0  0
    0.3178   23.2418  -29.9959 H   0  0  0  0  0  0  0  0  0  0  0  0
   -1.3362   23.5618  -30.6087 H   0  0  0  0  0  0  0  0  0  0  0  0
   -1.8803   23.6506  -26.5923 H   0  0  0  0  0  0  0  0  0  0  0  0
   -2.7433   25.1516  -27.0701 H   0  0  0  0  0  0  0  0  0  0  0  0
   -4.1402   23.1900  -27.5366 H   0  0  0  0  0  0  0  0  0  0  0  0
   -3.5879   23.9858  -29.0901 H   0  0  0  0  0  0  0  0  0  0  0  0
   -5.3706   20.0742  -31.6489 H   0  0  0  0  0  0  0  0  0  0  0  0
  1  2  1  0
  2  3  2  0
  2  4  2  0
  2  5  1  0
  5  6  1  0
  6  7  1  0
  7  8  1  0
  8  9  2  0
  9 10  1  0
 10 11  2  0
 11 12  1  0
 12 13  2  0
 13 14  1  0
 14 15  1  0
 14 16  2  0
 13 17  1  0
 17 18  1  0
 18 19  2  0
 18 20  1  0
 20 21  2  0
 20 22  1  0
 22 23  1  0
 23 24  1  0
 24 25  1  0
 25 26  2  0
 25 27  2  0
 25 28  1  0
 28 29  1  0
 17 30  1  0
 30 31  2  0
 31  8  1  0
 30 11  1  0
 29 22  1  0
  1 32  1  0
  1 33  1  0
  1 34  1  0
  6 35  1  0
  6 36  1  0
  7 37  1  0
  7 38  1  0
  9 39  1  0
 10 40  1  0
 12 41  1  0
 15 42  1  0
 15 43  1  0
 22 44  1  0
 23 45  1  0
 23 46  1  0
 24 47  1  0
 24 48  1  0
 28 49  1  0
 28 50  1  0
 29 51  1  0
 29 52  1  0
 31 53  1  0
M  END
>  <UniqueID>  (53) 
52

>  <SMILES>  (53) 
CS(=O)(=O)OCCc1ccc2cc(C(N)=O)n(C(=O)C(=O)C3CCS(=O)(=O)CC3)c2c1

>  <Energy>  (53) 
85.44393509869374

>  <Genealogy>  (53) 
CS(=O)(=O)OCCc1ccc2cc(C(N)=O)n(C(=O)C(=O)C3CCS(=O)(=O)CC3)c2c1 (3D coordinates assigned)
CS(=O)(=O)OCCc1ccc2cc(C(N)=O)n(C(=O)C(=O)C3CCS(=O)(=O)CC3)c2c1 (nonaromatic ring conformer: 85.44393509869374 kcal/mol)

>  <smiles>  (53) 
CS(=O)(=O)OCCc1ccc2cc(C(N)=O)n(C(=O)C(=O)C3CCS(=O)(=O)CC3)c2c1

>  <score_type>  (53) 
oracle

>  <origin>  (53) 
adg

>  <m_score__min__energy>  (53) 
-11.130000000000001

>  <m_primary>  (53) 
energy

$$$$
54:0
     RDKit          3D

 37 38  0  0  0  0  0  0  0  0999 V2000
   -0.0760   20.5770  -35.0020 C   0  0  0  0  0  0  0  0  0  0  0  0
   -0.3900   19.2270  -35.3210 O   0  0  0  0  0  0  0  0  0  0  0  0
   -1.1620   18.4160  -34.4830 C   0  0  0  0  0  0  0  0  0  0  0  0
   -1.8020   17.4340  -34.9470 O   0  0  0  0  0  0  0  0  0  0  0  0
   -1.1980   18.6990  -33.0130 C   0  0  0  0  0  0  0  0  0  0  0  0
   -2.5190   19.0440  -32.6050 O   0  0  0  0  0  0  0  0  0  0  0  0
   -3.1040   20.2880  -32.8690 C   0  0  0  0  0  0  0  0  0  0  0  0
   -2.3890   21.2660  -33.2180 O   0  0  0  0  0  0  0  0  0  0  0  0
   -4.5250   20.4520  -32.7370 N   0  0  0  0  0  0  0  0  0  0  0  0
   -5.5030   19.7140  -33.3340 C   0  0  0  0  0  0  0  0  0  0  0  0
   -5.2970   18.6860  -34.3730 C   0  0  0  0  0  0  0  0  0  0  0  0
   -4.1750   17.8030  -34.3290 N   0  0  0  0  0  0  0  0  0  0  0  0
   -6.0960   18.6200  -35.3450 O   0  0  0  0  0  0  0  0  0  0  0  0
   -6.7590   20.0940  -32.8680 C   0  0  0  0  0  0  0  0  0  0  0  0
   -6.5210   21.1110  -31.9700 C   0  0  0  0  0  0  0  0  0  0  0  0
   -7.4120   21.8450  -31.1950 C   0  0  0  0  0  0  0  0  0  0  0  0
   -6.8850   22.8100  -30.3200 C   0  0  0  0  0  0  0  0  0  0  0  0
   -5.4860   23.0230  -30.2390 C   0  0  0  0  0  0  0  0  0  0  0  0
   -4.9320   24.0240  -29.2660 C   0  0  0  0  0  0  0  0  0  0  0  0
   -3.9560   24.9240  -29.9540 C   0  0  0  0  0  0  0  0  0  0  0  0
   -4.2050   25.3650  -31.1070 O   0  0  0  0  0  0  0  0  0  0  0  0
   -2.7480   25.2370  -29.3430 O   0  0  0  0  0  0  0  0  0  0  0  0
   -4.6110   22.2480  -31.0330 C   0  0  0  0  0  0  0  0  0  0  0  0
   -5.1640   21.3080  -31.9100 C   0  0  0  0  0  0  0  0  0  0  0  0
   -0.0477   20.6985  -33.9091 H   0  0  0  0  0  0  0  0  0  0  0  0
    0.9061   20.8348  -35.4251 H   0  0  0  0  0  0  0  0  0  0  0  0
   -0.8435   21.2418  -35.4251 H   0  0  0  0  0  0  0  0  0  0  0  0
   -0.8713   17.8038  -32.4636 H   0  0  0  0  0  0  0  0  0  0  0  0
   -0.5261   19.5424  -32.7958 H   0  0  0  0  0  0  0  0  0  0  0  0
   -4.0690   17.0550  -35.0490 H   0  0  0  0  0  0  0  0  0  0  0  0
   -3.4040   17.9450  -33.6400 H   0  0  0  0  0  0  0  0  0  0  0  0
   -7.7333   19.6721  -33.1556 H   0  0  0  0  0  0  0  0  0  0  0  0
   -8.4966   21.6754  -31.2647 H   0  0  0  0  0  0  0  0  0  0  0  0
   -7.5643   23.4055  -29.6923 H   0  0  0  0  0  0  0  0  0  0  0  0
   -5.7556   24.6266  -28.8555 H   0  0  0  0  0  0  0  0  0  0  0  0
   -4.4179   23.4897  -28.4535 H   0  0  0  0  0  0  0  0  0  0  0  0
   -3.5212   22.3804  -30.9634 H   0  0  0  0  0  0  0  0  0  0  0  0
  1  2  1  0
  2  3  1  0
  3  4  2  0
  3  5  1  0
  5  6  1  0
  6  7  1  0
  7  8  2  0
  7  9  1  0
  9 10  1  0
 10 11  1  0
 11 12  1  0
 11 13  2  0
 10 14  2  0
 14 15  1  0
 15 16  2  0
 16 17  1  0
 17 18  2  0
 18 19  1  0
 19 20  1  0
 20 21  2  0
 20 22  1  0
 18 23  1  0
 23 24  2  0
 24  9  1  0
 24 15  1  0
  1 25  1  0
  1 26  1  0
  1 27  1  0
  5 28  1  0
  5 29  1  0
 12 30  1  0
 12 31  1  0
 14 32  1  0
 16 33  1  0
 17 34  1  0
 19 35  1  0
 19 36  1  0
 23 37  1  0
M  CHG  1  22  -1
M  END
>  <UniqueID>  (54) 
53

>  <SMILES>  (54) 
COC(=O)COC(=O)n1c(C(N)=O)cc2ccc(CC(=O)[O-])cc21

>  <Energy>  (54) 
69.74289196857399

>  <Genealogy>  (54) 
COC(=O)COC(=O)n1c(C(N)=O)cc2ccc(CC(=O)[O-])cc21 (protonated)
COC(=O)COC(=O)n1c(C(N)=O)cc2ccc(CC(=O)[O-])cc21 (3D coordinates assigned)
COC(=O)COC(=O)n1c(C(N)=O)cc2ccc(CC(=O)[O-])cc21 (optimized conformer: 69.74289196857399 kcal/mol)

>  <smiles>  (54) 
COC(=O)COC(=O)n1c(C(N)=O)cc2ccc(CC(=O)O)cc21

>  <score_type>  (54) 
oracle

>  <origin>  (54) 
adg

>  <m_score__min__energy>  (54) 
-8.8300000000000001

>  <m_primary>  (54) 
energy

$$$$
55:0
     RDKit          3D

 33 35  0  0  0  0  0  0  0  0999 V2000
   -4.7710   15.7450  -34.2140 C   0  0  0  0  0  0  0  0  0  0  0  0
   -5.7680   16.6900  -33.6360 C   0  0  0  0  0  0  0  0  0  0  0  0
   -7.0510   16.3740  -33.3830 N   0  0  0  0  0  0  0  0  0  0  0  0
   -7.6150   17.4710  -32.9040 N   0  0  0  0  0  0  0  0  0  0  0  0
   -6.6540   18.4170  -32.8880 C   0  0  0  0  0  0  0  0  0  0  0  0
   -6.8540   19.8040  -32.4240 C   0  0  0  0  0  0  0  0  0  0  0  0
   -8.1580   20.3550  -32.3440 C   0  0  0  0  0  0  0  0  0  0  0  0
   -8.3520   21.6780  -31.9130 C   0  0  0  0  0  0  0  0  0  0  0  0
   -7.2290   22.4210  -31.5610 C   0  0  0  0  0  0  0  0  0  0  0  0
   -7.1250   23.7270  -31.1400 C   0  0  0  0  0  0  0  0  0  0  0  0
   -5.7610   23.9480  -30.9510 C   0  0  0  0  0  0  0  0  0  0  0  0
   -5.1980   25.2220  -30.4550 C   0  0  0  0  0  0  0  0  0  0  0  0
   -3.8950   25.6510  -30.8430 N   0  0  0  0  0  0  0  0  0  0  0  0
   -5.8660   25.9310  -29.6550 O   0  0  0  0  0  0  0  0  0  0  0  0
   -5.0530   22.8210  -31.2420 N   0  0  0  0  0  0  0  0  0  0  0  0
   -3.6260   22.6590  -31.2470 C   0  0  0  0  0  0  0  0  0  0  0  0
   -2.9450   23.1370  -30.3020 O   0  0  0  0  0  0  0  0  0  0  0  0
   -2.9570   21.9370  -32.3440 C   0  0  0  0  0  0  0  0  0  0  0  0
   -3.4970   21.9510  -33.6670 N   0  0  0  0  0  0  0  0  0  0  0  0
   -1.8880   21.3070  -32.1200 O   0  0  0  0  0  0  0  0  0  0  0  0
   -5.9640   21.8980  -31.6170 C   0  0  0  0  0  0  0  0  0  0  0  0
   -5.7380   20.5900  -32.0600 C   0  0  0  0  0  0  0  0  0  0  0  0
   -5.5180   17.9420  -33.3400 O   0  0  0  0  0  0  0  0  0  0  0  0
   -4.2338   15.2358  -33.4003 H   0  0  0  0  0  0  0  0  0  0  0  0
   -5.2895   14.9990  -34.8342 H   0  0  0  0  0  0  0  0  0  0  0  0
   -4.0538   16.3027  -34.8342 H   0  0  0  0  0  0  0  0  0  0  0  0
   -9.0267   19.7402  -32.6223 H   0  0  0  0  0  0  0  0  0  0  0  0
   -9.3606   22.1133  -31.8555 H   0  0  0  0  0  0  0  0  0  0  0  0
   -7.9442   24.4446  -30.9853 H   0  0  0  0  0  0  0  0  0  0  0  0
   -3.0450   25.2900  -30.3580 H   0  0  0  0  0  0  0  0  0  0  0  0
   -4.3810   22.4640  -33.8840 H   0  0  0  0  0  0  0  0  0  0  0  0
   -3.0120   21.4420  -34.4380 H   0  0  0  0  0  0  0  0  0  0  0  0
   -4.7175   20.1842  -32.1232 H   0  0  0  0  0  0  0  0  0  0  0  0
  1  2  1  0
  2  3  2  0
  3  4  1  0
  4  5  2  0
  5  6  1  0
  6  7  2  0
  7  8  1  0
  8  9  2  0
  9 10  1  0
 10 11  2  0
 11 12  1  0
 12 13  1  0
 12 14  2  0
 11 15  1  0
 15 16  1  0
 16 17  2  0
 16 18  1  0
 18 19  1  0
 18 20  2  0
 15 21  1  0
 21 22  2  0
  5 23  1  0
 23  2  1  0
 22  6  1  0
 21  9  1  0
  1 24  1  0
  1 25  1  0
  1 26  1  0
  7 27  1  0
  8 28  1  0
 10 29  1  0
 13 30  1  0
 19 31  1  0
 19 32  1  0
 22 33  1  0
M  CHG  1  13  -1
M  END
>  <UniqueID>  (55) 
54

>  <SMILES>  (55) 
Cc1nnc(-c2ccc3cc(C([NH-])=O)n(C(=O)C(N)=O)c3c2)o1

>  <Energy>  (55) 
106.90123623793934

>  <Genealogy>  (55) 
Cc1nnc(-c2ccc3cc(C([NH-])=O)n(C(=O)C(N)=O)c3c2)o1 (protonated)
Cc1nnc(-c2ccc3cc(C([NH-])=O)n(C(=O)C(N)=O)c3c2)o1 (3D coordinates assigned)
Cc1nnc(-c2ccc3cc(C([NH-])=O)n(C(=O)C(N)=O)c3c2)o1 (optimized conformer: 106.90123623793934 kcal/mol)

>  <smiles>  (55) 
Cc1nnc(-c2ccc3cc(C(N)=O)n(C(=O)C(N)=O)c3c2)o1

>  <score_type>  (55) 
oracle

>  <origin>  (55) 
adg

>  <m_score__min__energy>  (55) 
-10.9

>  <m_primary>  (55) 
energy

$$$$
56:0
     RDKit          3D

 41 43  0  0  0  0  0  0  0  0999 V2000
   -3.8990   25.6440  -30.8380 N   0  0  0  0  0  0  0  0  0  0  0  0
   -5.1240   25.0670  -30.3930 C   0  0  0  0  0  0  0  0  0  0  0  0
   -5.7140   25.5660  -29.3970 O   0  0  0  0  0  0  0  0  0  0  0  0
   -5.6800   23.8630  -31.0430 C   0  0  0  0  0  0  0  0  0  0  0  0
   -7.0460   23.6280  -31.1780 C   0  0  0  0  0  0  0  0  0  0  0  0
   -7.1480   22.3790  -31.7440 C   0  0  0  0  0  0  0  0  0  0  0  0
   -8.2770   21.6490  -32.1040 C   0  0  0  0  0  0  0  0  0  0  0  0
   -8.0870   20.3910  -32.6980 C   0  0  0  0  0  0  0  0  0  0  0  0
   -6.7810   19.8910  -32.9320 C   0  0  0  0  0  0  0  0  0  0  0  0
   -6.5980   18.5990  -33.5410 N   0  0  0  0  0  0  0  0  0  0  0  0
   -5.7400   18.4450  -34.7200 C   0  0  0  0  0  0  0  0  0  0  0  0
   -4.7040   17.3520  -34.4570 C   0  0  0  0  0  0  0  0  0  0  0  0
   -5.3290   16.1330  -33.9160 N   0  0  0  0  0  0  0  0  0  0  0  0
   -4.5210   14.9420  -33.8010 C   0  0  0  0  0  0  0  0  0  0  0  0
   -3.2640   15.0430  -33.7760 O   0  0  0  0  0  0  0  0  0  0  0  0
   -5.1430   13.5770  -33.6790 C   0  0  0  0  0  0  0  0  0  0  0  0
   -4.3770   12.7700  -32.8260 O   0  0  0  0  0  0  0  0  0  0  0  0
   -6.7720   16.1150  -33.6200 C   0  0  0  0  0  0  0  0  0  0  0  0
   -7.2030   17.4120  -32.9210 C   0  0  0  0  0  0  0  0  0  0  0  0
   -5.6590   20.6600  -32.5470 C   0  0  0  0  0  0  0  0  0  0  0  0
   -5.8780   21.9020  -31.9400 C   0  0  0  0  0  0  0  0  0  0  0  0
   -4.9640   22.8030  -31.5160 N   0  0  0  0  0  0  0  0  0  0  0  0
   -3.5370   22.6850  -31.6370 C   0  0  0  0  0  0  0  0  0  0  0  0
   -2.7810   23.1590  -30.7480 O   0  0  0  0  0  0  0  0  0  0  0  0
   -2.9750   22.0710  -32.7490 O   0  0  0  0  0  0  0  0  0  0  0  0
   -2.9810   25.2890  -30.4900 H   0  0  0  0  0  0  0  0  0  0  0  0
   -7.8691   24.2994  -30.8923 H   0  0  0  0  0  0  0  0  0  0  0  0
   -9.2878   22.0457  -31.9284 H   0  0  0  0  0  0  0  0  0  0  0  0
   -8.9605   19.7870  -32.9848 H   0  0  0  0  0  0  0  0  0  0  0  0
   -6.3557   18.1655  -35.5876 H   0  0  0  0  0  0  0  0  0  0  0  0
   -5.2260   19.3954  -34.9261 H   0  0  0  0  0  0  0  0  0  0  0  0
   -4.1979   17.1048  -35.4018 H   0  0  0  0  0  0  0  0  0  0  0  0
   -3.9857   17.7296  -33.7144 H   0  0  0  0  0  0  0  0  0  0  0  0
   -6.1592   13.6761  -33.2698 H   0  0  0  0  0  0  0  0  0  0  0  0
   -5.1826   13.1105  -34.6744 H   0  0  0  0  0  0  0  0  0  0  0  0
   -3.5380   13.2700  -32.6540 H   0  0  0  0  0  0  0  0  0  0  0  0
   -7.3316   16.0098  -34.5612 H   0  0  0  0  0  0  0  0  0  0  0  0
   -6.9834   15.2678  -32.9511 H   0  0  0  0  0  0  0  0  0  0  0  0
   -8.2979   17.4999  -32.9795 H   0  0  0  0  0  0  0  0  0  0  0  0
   -6.8628   17.3639  -31.8760 H   0  0  0  0  0  0  0  0  0  0  0  0
   -4.6374   20.2908  -32.7205 H   0  0  0  0  0  0  0  0  0  0  0  0
  1  2  1  0
  2  3  2  0
  2  4  1  0
  4  5  2  0
  5  6  1  0
  6  7  2  0
  7  8  1  0
  8  9  2  0
  9 10  1  0
 10 11  1  0
 11 12  1  0
 12 13  1  0
 13 14  1  0
 14 15  2  0
 14 16  1  0
 16 17  1  0
 13 18  1  0
 18 19  1  0
  9 20  1  0
 20 21  2  0
 21 22  1  0
 22 23  1  0
 23 24  2  0
 23 25  1  0
 22  4  1  0
 21  6  1  0
 19 10  1  0
  1 26  1  0
  5 27  1  0
  7 28  1  0
  8 29  1  0
 11 30  1  0
 11 31  1  0
 12 32  1  0
 12 33  1  0
 16 34  1  0
 16 35  1  0
 17 36  1  0
 18 37  1  0
 18 38  1  0
 19 39  1  0
 19 40  1  0
 20 41  1  0
M  CHG  2   1  -1  25  -1
M  END
>  <UniqueID>  (56) 
55

>  <SMILES>  (56) 
[NH-]C(=O)c1cc2ccc(N3CCN(C(=O)CO)CC3)cc2n1C(=O)[O-]

>  <Energy>  (56) 
86.73707755101064

>  <Genealogy>  (56) 
[NH-]C(=O)c1cc2ccc(N3CCN(C(=O)CO)CC3)cc2n1C(=O)[O-] (protonated)
[NH-]C(=O)c1cc2ccc(N3CCN(C(=O)CO)CC3)cc2n1C(=O)[O-] (3D coordinates assigned)
[NH-]C(=O)c1cc2ccc(N3CCN(C(=O)CO)CC3)cc2n1C(=O)[O-] (nonaromatic ring conformer: 86.73707755101064 kcal/mol)

>  <smiles>  (56) 
NC(=O)c1cc2ccc(N3CCN(C(=O)CO)CC3)cc2n1C(=O)O

>  <score_type>  (56) 
oracle

>  <origin>  (56) 
adg

>  <m_score__min__energy>  (56) 
-10.24

>  <m_primary>  (56) 
energy

$$$$
57:0
     RDKit          3D

 42 43  0  0  0  0  0  0  0  0999 V2000
   -1.0890   23.1680  -26.4680 C   0  0  0  0  0  0  0  0  0  0  0  0
   -1.2000   24.1970  -27.5070 N   0  0  0  0  0  0  0  0  0  0  0  0
   -0.2680   25.3300  -27.5050 C   0  0  0  0  0  0  0  0  0  0  0  0
   -2.2490   24.1640  -28.5030 C   0  0  0  0  0  0  0  0  0  0  0  0
   -2.3250   25.0990  -29.3470 O   0  0  0  0  0  0  0  0  0  0  0  0
   -3.2600   23.0820  -28.5700 C   0  0  0  0  0  0  0  0  0  0  0  0
   -4.0910   22.9460  -27.6330 O   0  0  0  0  0  0  0  0  0  0  0  0
   -3.2710   22.1410  -29.6650 N   0  0  0  0  0  0  0  0  0  0  0  0
   -2.8280   20.7650  -29.4190 C   0  0  0  0  0  0  0  0  0  0  0  0
   -3.8880   22.4620  -30.9340 C   0  0  0  0  0  0  0  0  0  0  0  0
   -3.1750   22.5740  -31.9690 O   0  0  0  0  0  0  0  0  0  0  0  0
   -5.3100   22.6370  -31.0450 N   0  0  0  0  0  0  0  0  0  0  0  0
   -6.0320   23.7790  -30.8560 C   0  0  0  0  0  0  0  0  0  0  0  0
   -5.5020   25.1070  -30.4640 C   0  0  0  0  0  0  0  0  0  0  0  0
   -4.1790   25.5320  -30.8010 N   0  0  0  0  0  0  0  0  0  0  0  0
   -6.2290   25.8770  -29.7820 O   0  0  0  0  0  0  0  0  0  0  0  0
   -7.3790   23.5510  -31.1360 C   0  0  0  0  0  0  0  0  0  0  0  0
   -7.4570   22.2330  -31.5190 C   0  0  0  0  0  0  0  0  0  0  0  0
   -8.5530   21.4840  -31.9360 C   0  0  0  0  0  0  0  0  0  0  0  0
   -8.3310   20.1560  -32.3360 C   0  0  0  0  0  0  0  0  0  0  0  0
   -7.0190   19.6110  -32.3460 C   0  0  0  0  0  0  0  0  0  0  0  0
   -6.7780   18.1790  -32.7510 C   0  0  0  0  0  0  0  0  0  0  0  0
   -5.8510   17.6130  -31.8950 F   0  0  0  0  0  0  0  0  0  0  0  0
   -7.9480   17.4400  -32.7010 F   0  0  0  0  0  0  0  0  0  0  0  0
   -6.2880   18.1290  -34.0450 F   0  0  0  0  0  0  0  0  0  0  0  0
   -5.9350   20.4020  -31.9010 C   0  0  0  0  0  0  0  0  0  0  0  0
   -6.1930   21.7090  -31.4730 C   0  0  0  0  0  0  0  0  0  0  0  0
   -1.1400   23.6412  -25.4763 H   0  0  0  0  0  0  0  0  0  0  0  0
   -1.9148   22.4491  -26.5742 H   0  0  0  0  0  0  0  0  0  0  0  0
   -0.1289   22.6418  -26.5742 H   0  0  0  0  0  0  0  0  0  0  0  0
   -0.0360   25.6121  -26.4674 H   0  0  0  0  0  0  0  0  0  0  0  0
    0.6590   25.0431  -28.0230 H   0  0  0  0  0  0  0  0  0  0  0  0
   -0.7282   26.1843  -28.0230 H   0  0  0  0  0  0  0  0  0  0  0  0
   -2.7705   20.5865  -28.3351 H   0  0  0  0  0  0  0  0  0  0  0  0
   -3.5455   20.0629  -29.8687 H   0  0  0  0  0  0  0  0  0  0  0  0
   -1.8356   20.6134  -29.8687 H   0  0  0  0  0  0  0  0  0  0  0  0
   -3.4760   24.8850  -31.2140 H   0  0  0  0  0  0  0  0  0  0  0  0
   -3.8650   26.4940  -30.5480 H   0  0  0  0  0  0  0  0  0  0  0  0
   -8.2052   24.2737  -31.0653 H   0  0  0  0  0  0  0  0  0  0  0  0
   -9.5632   21.9190  -31.9519 H   0  0  0  0  0  0  0  0  0  0  0  0
   -9.1821   19.5313  -32.6448 H   0  0  0  0  0  0  0  0  0  0  0  0
   -4.9115   19.9990  -31.8914 H   0  0  0  0  0  0  0  0  0  0  0  0
  1  2  1  0
  2  3  1  0
  2  4  1  0
  4  5  2  0
  4  6  1  0
  6  7  2  0
  6  8  1  0
  8  9  1  0
  8 10  1  0
 10 11  2  0
 10 12  1  0
 12 13  1  0
 13 14  1  0
 14 15  1  0
 14 16  2  0
 13 17  2  0
 17 18  1  0
 18 19  2  0
 19 20  1  0
 20 21  2  0
 21 22  1  0
 22 23  1  0
 22 24  1  0
 22 25  1  0
 21 26  1  0
 26 27  2  0
 27 12  1  0
 27 18  1  0
  1 28  1  0
  1 29  1  0
  1 30  1  0
  3 31  1  0
  3 32  1  0
  3 33  1  0
  9 34  1  0
  9 35  1  0
  9 36  1  0
 15 37  1  0
 15 38  1  0
 17 39  1  0
 19 40  1  0
 20 41  1  0
 26 42  1  0
M  END
>  <UniqueID>  (57) 
56

>  <SMILES>  (57) 
CN(C)C(=O)C(=O)N(C)C(=O)n1c(C(N)=O)cc2ccc(C(F)(F)F)cc21

>  <Energy>  (57) 
84.3025614825865

>  <Genealogy>  (57) 
CN(C)C(=O)C(=O)N(C)C(=O)n1c(C(N)=O)cc2ccc(C(F)(F)F)cc21 (3D coordinates assigned)
CN(C)C(=O)C(=O)N(C)C(=O)n1c(C(N)=O)cc2ccc(C(F)(F)F)cc21 (optimized conformer: 84.3025614825865 kcal/mol)

>  <smiles>  (57) 
CN(C)C(=O)C(=O)N(C)C(=O)n1c(C(N)=O)cc2ccc(C(F)(F)F)cc21

>  <score_type>  (57) 
oracle

>  <origin>  (57) 
adg

>  <m_score__min__energy>  (57) 
-8.5

>  <m_primary>  (57) 
energy

$$$$
58:0
     RDKit          3D

 47 49  0  0  0  0  0  0  0  0999 V2000
   -6.1180   17.1760  -31.2180 C   0  0  0  0  0  0  0  0  0  0  0  0
   -6.4760   18.0980  -32.3040 N   0  0  0  0  0  0  0  0  0  0  0  0
   -6.4840   17.5810  -33.6820 C   0  0  0  0  0  0  0  0  0  0  0  0
   -5.6790   18.5000  -34.6080 C   0  0  0  0  0  0  0  0  0  0  0  0
   -4.2360   18.5020  -34.2160 C   0  0  0  0  0  0  0  0  0  0  0  0
   -3.4890   17.3820  -34.1170 N   0  0  0  0  0  0  0  0  0  0  0  0
   -2.2290   17.6500  -33.6820 C   0  0  0  0  0  0  0  0  0  0  0  0
   -1.9700   18.9910  -33.4180 C   0  0  0  0  0  0  0  0  0  0  0  0
   -3.3710   19.8630  -33.7400 S   0  0  0  0  0  0  0  0  0  0  0  0
   -6.7710   19.4890  -32.0130 C   0  0  0  0  0  0  0  0  0  0  0  0
   -8.1020   19.9870  -32.1020 C   0  0  0  0  0  0  0  0  0  0  0  0
   -8.3940   21.3280  -31.8120 C   0  0  0  0  0  0  0  0  0  0  0  0
   -7.3460   22.1610  -31.4430 C   0  0  0  0  0  0  0  0  0  0  0  0
   -7.3560   23.4900  -31.0840 C   0  0  0  0  0  0  0  0  0  0  0  0
   -6.0280   23.8050  -30.8000 C   0  0  0  0  0  0  0  0  0  0  0  0
   -5.5580   25.1650  -30.4560 C   0  0  0  0  0  0  0  0  0  0  0  0
   -4.2100   25.5590  -30.7220 N   0  0  0  0  0  0  0  0  0  0  0  0
   -6.3360   25.9800  -29.8950 O   0  0  0  0  0  0  0  0  0  0  0  0
   -5.2310   22.7140  -30.9780 N   0  0  0  0  0  0  0  0  0  0  0  0
   -3.8210   22.6140  -30.7220 C   0  0  0  0  0  0  0  0  0  0  0  0
   -2.9960   22.8110  -31.6560 O   0  0  0  0  0  0  0  0  0  0  0  0
   -3.3680   22.2920  -29.4360 O   0  0  0  0  0  0  0  0  0  0  0  0
   -3.6160   23.1040  -28.2900 C   0  0  0  0  0  0  0  0  0  0  0  0
   -2.5660   24.2100  -28.1790 C   0  0  0  0  0  0  0  0  0  0  0  0
   -2.3080   24.7620  -29.4410 O   0  0  0  0  0  0  0  0  0  0  0  0
   -6.0530   21.7150  -31.3700 C   0  0  0  0  0  0  0  0  0  0  0  0
   -5.7340   20.3780  -31.6350 C   0  0  0  0  0  0  0  0  0  0  0  0
   -6.3062   17.6606  -30.2486 H   0  0  0  0  0  0  0  0  0  0  0  0
   -6.7271   16.2634  -31.2961 H   0  0  0  0  0  0  0  0  0  0  0  0
   -5.0526   16.9136  -31.2961 H   0  0  0  0  0  0  0  0  0  0  0  0
   -6.0378   16.5756  -33.6935 H   0  0  0  0  0  0  0  0  0  0  0  0
   -7.5235   17.5402  -34.0393 H   0  0  0  0  0  0  0  0  0  0  0  0
   -5.7725   18.1423  -35.6440 H   0  0  0  0  0  0  0  0  0  0  0  0
   -6.0725   19.5238  -34.5242 H   0  0  0  0  0  0  0  0  0  0  0  0
   -1.4705   16.8645  -33.5487 H   0  0  0  0  0  0  0  0  0  0  0  0
   -1.0164   19.4076  -33.0613 H   0  0  0  0  0  0  0  0  0  0  0  0
   -8.9144   19.3092  -32.4030 H   0  0  0  0  0  0  0  0  0  0  0  0
   -9.4240   21.7090  -31.8751 H   0  0  0  0  0  0  0  0  0  0  0  0
   -8.2265   24.1605  -31.0323 H   0  0  0  0  0  0  0  0  0  0  0  0
   -3.8790   26.5100  -30.4440 H   0  0  0  0  0  0  0  0  0  0  0  0
   -3.5530   24.9340  -31.2380 H   0  0  0  0  0  0  0  0  0  0  0  0
   -4.6134   23.5595  -28.3782 H   0  0  0  0  0  0  0  0  0  0  0  0
   -3.5648   22.4737  -27.3900 H   0  0  0  0  0  0  0  0  0  0  0  0
   -2.9378   24.9977  -27.5072 H   0  0  0  0  0  0  0  0  0  0  0  0
   -1.6355   23.7820  -27.7778 H   0  0  0  0  0  0  0  0  0  0  0  0
   -2.1550   23.9990  -30.0580 H   0  0  0  0  0  0  0  0  0  0  0  0
   -4.6961   20.0234  -31.5513 H   0  0  0  0  0  0  0  0  0  0  0  0
  1  2  1  0
  2  3  1  0
  3  4  1  0
  4  5  1  0
  5  6  2  0
  6  7  1  0
  7  8  2  0
  8  9  1  0
  2 10  1  0
 10 11  2  0
 11 12  1  0
 12 13  2  0
 13 14  1  0
 14 15  2  0
 15 16  1  0
 16 17  1  0
 16 18  2  0
 15 19  1  0
 19 20  1  0
 20 21  2  0
 20 22  1  0
 22 23  1  0
 23 24  1  0
 24 25  1  0
 19 26  1  0
 26 27  2  0
  9  5  1  0
 27 10  1  0
 26 13  1  0
  1 28  1  0
  1 29  1  0
  1 30  1  0
  3 31  1  0
  3 32  1  0
  4 33  1  0
  4 34  1  0
  7 35  1  0
  8 36  1  0
 11 37  1  0
 12 38  1  0
 14 39  1  0
 17 40  1  0
 17 41  1  0
 23 42  1  0
 23 43  1  0
 24 44  1  0
 24 45  1  0
 25 46  1  0
 27 47  1  0
M  END
>  <UniqueID>  (58) 
57

>  <SMILES>  (58) 
CN(CCc1nccs1)c1ccc2cc(C(N)=O)n(C(=O)OCCO)c2c1

>  <Energy>  (58) 
112.1155680688967

>  <Genealogy>  (58) 
CN(CCc1nccs1)c1ccc2cc(C(N)=O)n(C(=O)OCCO)c2c1 (3D coordinates assigned)
CN(CCc1nccs1)c1ccc2cc(C(N)=O)n(C(=O)OCCO)c2c1 (optimized conformer: 112.1155680688967 kcal/mol)

>  <smiles>  (58) 
CN(CCc1nccs1)c1ccc2cc(C(N)=O)n(C(=O)OCCO)c2c1

>  <score_type>  (58) 
oracle

>  <origin>  (58) 
adg

>  <m_score__min__energy>  (58) 
-8.6799999999999997

>  <m_primary>  (58) 
energy

$$$$
59:0
     RDKit          3D

 46 47  0  0  0  0  0  0  0  0999 V2000
   -1.2220   26.2910  -26.7120 C   0  0  0  0  0  0  0  0  0  0  0  0
   -1.1870   25.9600  -28.1940 C   0  0  0  0  0  0  0  0  0  0  0  0
   -2.3980   25.3110  -28.5630 O   0  0  0  0  0  0  0  0  0  0  0  0
   -2.9620   24.2730  -27.8180 C   0  0  0  0  0  0  0  0  0  0  0  0
   -4.1940   24.2750  -27.5450 O   0  0  0  0  0  0  0  0  0  0  0  0
   -2.1040   23.1260  -27.3770 C   0  0  0  0  0  0  0  0  0  0  0  0
   -1.5140   22.4450  -28.5400 N   0  0  0  0  0  0  0  0  0  0  0  0
   -0.0970   22.6480  -28.8560 C   0  0  0  0  0  0  0  0  0  0  0  0
   -2.3270   21.6740  -29.4520 C   0  0  0  0  0  0  0  0  0  0  0  0
   -1.8500   20.6330  -29.9820 O   0  0  0  0  0  0  0  0  0  0  0  0
   -3.6740   22.0700  -29.7580 N   0  0  0  0  0  0  0  0  0  0  0  0
   -4.3210   21.7590  -31.0010 C   0  0  0  0  0  0  0  0  0  0  0  0
   -3.7160   21.0950  -31.8860 O   0  0  0  0  0  0  0  0  0  0  0  0
   -5.6660   22.2030  -31.2460 N   0  0  0  0  0  0  0  0  0  0  0  0
   -6.1960   23.4260  -30.9570 C   0  0  0  0  0  0  0  0  0  0  0  0
   -5.4420   24.6020  -30.4750 C   0  0  0  0  0  0  0  0  0  0  0  0
   -5.6480   25.1300  -29.1630 N   0  0  0  0  0  0  0  0  0  0  0  0
   -4.5680   25.1210  -31.2180 O   0  0  0  0  0  0  0  0  0  0  0  0
   -7.5690   23.4320  -31.1870 C   0  0  0  0  0  0  0  0  0  0  0  0
   -7.8690   22.1670  -31.6350 C   0  0  0  0  0  0  0  0  0  0  0  0
   -9.0970   21.6040  -31.9730 C   0  0  0  0  0  0  0  0  0  0  0  0
   -9.1220   20.2470  -32.3370 C   0  0  0  0  0  0  0  0  0  0  0  0
   -7.9290   19.4840  -32.3560 C   0  0  0  0  0  0  0  0  0  0  0  0
   -7.9810   18.0210  -32.6790 C   0  0  0  0  0  0  0  0  0  0  0  0
   -6.7050   20.0860  -31.9960 C   0  0  0  0  0  0  0  0  0  0  0  0
   -6.7030   21.4430  -31.6590 C   0  0  0  0  0  0  0  0  0  0  0  0
   -1.1240   25.3646  -26.1270 H   0  0  0  0  0  0  0  0  0  0  0  0
   -0.3905   26.9685  -26.4679 H   0  0  0  0  0  0  0  0  0  0  0  0
   -2.1768   26.7796  -26.4679 H   0  0  0  0  0  0  0  0  0  0  0  0
   -1.0764   26.8878  -28.7745 H   0  0  0  0  0  0  0  0  0  0  0  0
   -0.3361   25.2945  -28.4014 H   0  0  0  0  0  0  0  0  0  0  0  0
   -1.2974   23.5047  -26.7320 H   0  0  0  0  0  0  0  0  0  0  0  0
   -2.7276   22.4082  -26.8238 H   0  0  0  0  0  0  0  0  0  0  0  0
    0.4787   22.7305  -27.9223 H   0  0  0  0  0  0  0  0  0  0  0  0
    0.2741   21.7939  -29.4414 H   0  0  0  0  0  0  0  0  0  0  0  0
    0.0194   23.5720  -29.4414 H   0  0  0  0  0  0  0  0  0  0  0  0
   -4.2300   22.5680  -29.0300 H   0  0  0  0  0  0  0  0  0  0  0  0
   -5.1410   25.9900  -28.8610 H   0  0  0  0  0  0  0  0  0  0  0  0
   -6.2260   24.6200  -28.4590 H   0  0  0  0  0  0  0  0  0  0  0  0
   -8.2659   24.2705  -31.0413 H   0  0  0  0  0  0  0  0  0  0  0  0
  -10.0193   22.2032  -31.9556 H   0  0  0  0  0  0  0  0  0  0  0  0
  -10.0766   19.7732  -32.6096 H   0  0  0  0  0  0  0  0  0  0  0  0
   -8.0017   17.4399  -31.7453 H   0  0  0  0  0  0  0  0  0  0  0  0
   -8.8873   17.8067  -33.2644 H   0  0  0  0  0  0  0  0  0  0  0  0
   -7.0922   17.7429  -33.2644 H   0  0  0  0  0  0  0  0  0  0  0  0
   -5.7735   19.5012  -31.9808 H   0  0  0  0  0  0  0  0  0  0  0  0
  1  2  1  0
  2  3  1  0
  3  4  1  0
  4  5  2  0
  4  6  1  0
  6  7  1  0
  7  8  1  0
  7  9  1  0
  9 10  2  0
  9 11  1  0
 11 12  1  0
 12 13  2  0
 12 14  1  0
 14 15  1  0
 15 16  1  0
 16 17  1  0
 16 18  2  0
 15 19  2  0
 19 20  1  0
 20 21  2  0
 21 22  1  0
 22 23  2  0
 23 24  1  0
 23 25  1  0
 25 26  2  0
 26 14  1  0
 26 20  1  0
  1 27  1  0
  1 28  1  0
  1 29  1  0
  2 30  1  0
  2 31  1  0
  6 32  1  0
  6 33  1  0
  8 34  1  0
  8 35  1  0
  8 36  1  0
 11 37  1  0
 17 38  1  0
 17 39  1  0
 19 40  1  0
 21 41  1  0
 22 42  1  0
 24 43  1  0
 24 44  1  0
 24 45  1  0
 25 46  1  0
M  END
>  <UniqueID>  (59) 
58

>  <SMILES>  (59) 
CCOC(=O)CN(C)C(=O)NC(=O)n1c(C(N)=O)cc2ccc(C)cc21

>  <Energy>  (59) 
76.34425511952723

>  <Genealogy>  (59) 
CCOC(=O)CN(C)C(=O)NC(=O)n1c(C(N)=O)cc2ccc(C)cc21 (3D coordinates assigned)
CCOC(=O)CN(C)C(=O)NC(=O)n1c(C(N)=O)cc2ccc(C)cc21 (optimized conformer: 76.34425511952723 kcal/mol)

>  <smiles>  (59) 
CCOC(=O)CN(C)C(=O)NC(=O)n1c(C(N)=O)cc2ccc(C)cc21

>  <score_type>  (59) 
oracle

>  <origin>  (59) 
adg

>  <m_score__min__energy>  (59) 
-9.3800000000000008

>  <m_primary>  (59) 
energy

$$$$
60:0
     RDKit          3D

 39 40  0  0  0  0  0  0  0  0999 V2000
   -2.9770   24.1410  -27.1500 C   0  0  0  0  0  0  0  0  0  0  0  0
   -1.8210   23.6740  -27.9200 N   0  0  0  0  0  0  0  0  0  0  0  0
   -1.5610   22.2330  -28.0440 C   0  0  0  0  0  0  0  0  0  0  0  0
   -1.9920   21.7240  -29.4210 C   0  0  0  0  0  0  0  0  0  0  0  0
   -2.7910   22.6980  -30.0870 O   0  0  0  0  0  0  0  0  0  0  0  0
   -3.5180   22.4320  -31.2530 C   0  0  0  0  0  0  0  0  0  0  0  0
   -2.9180   22.0850  -32.3070 O   0  0  0  0  0  0  0  0  0  0  0  0
   -4.9530   22.5450  -31.2490 N   0  0  0  0  0  0  0  0  0  0  0  0
   -5.7020   23.6010  -30.8200 C   0  0  0  0  0  0  0  0  0  0  0  0
   -5.1930   24.8080  -30.1360 C   0  0  0  0  0  0  0  0  0  0  0  0
   -3.8160   25.1780  -30.2110 N   0  0  0  0  0  0  0  0  0  0  0  0
   -5.9780   25.4900  -29.4250 O   0  0  0  0  0  0  0  0  0  0  0  0
   -7.0530   23.3830  -31.0720 C   0  0  0  0  0  0  0  0  0  0  0  0
   -7.1180   22.1450  -31.6620 C   0  0  0  0  0  0  0  0  0  0  0  0
   -8.2210   21.4320  -32.1200 C   0  0  0  0  0  0  0  0  0  0  0  0
   -7.9980   20.1820  -32.7170 C   0  0  0  0  0  0  0  0  0  0  0  0
   -6.6810   19.6780  -32.8740 C   0  0  0  0  0  0  0  0  0  0  0  0
   -6.4560   18.3190  -33.4870 C   0  0  0  0  0  0  0  0  0  0  0  0
   -6.1210   18.4710  -34.8190 F   0  0  0  0  0  0  0  0  0  0  0  0
   -7.6010   17.5470  -33.3960 F   0  0  0  0  0  0  0  0  0  0  0  0
   -5.4310   17.6510  -32.8380 F   0  0  0  0  0  0  0  0  0  0  0  0
   -5.5870   20.4240  -32.3770 C   0  0  0  0  0  0  0  0  0  0  0  0
   -5.8390   21.6570  -31.7640 C   0  0  0  0  0  0  0  0  0  0  0  0
   -0.9860   24.6330  -28.5950 C   0  0  0  0  0  0  0  0  0  0  0  0
    0.2690   24.5510  -28.5190 O   0  0  0  0  0  0  0  0  0  0  0  0
   -1.5490   25.6610  -29.3430 O   0  0  0  0  0  0  0  0  0  0  0  0
   -2.7610   24.0537  -26.0750 H   0  0  0  0  0  0  0  0  0  0  0  0
   -3.1825   25.1927  -27.3985 H   0  0  0  0  0  0  0  0  0  0  0  0
   -3.8553   23.5272  -27.3985 H   0  0  0  0  0  0  0  0  0  0  0  0
   -0.4851   22.0471  -27.9105 H   0  0  0  0  0  0  0  0  0  0  0  0
   -2.1379   21.7012  -27.2731 H   0  0  0  0  0  0  0  0  0  0  0  0
   -1.0972   21.5152  -30.0258 H   0  0  0  0  0  0  0  0  0  0  0  0
   -2.5851   20.8068  -29.2909 H   0  0  0  0  0  0  0  0  0  0  0  0
   -3.1110   24.5510  -30.6560 H   0  0  0  0  0  0  0  0  0  0  0  0
   -3.4840   26.0540  -29.7480 H   0  0  0  0  0  0  0  0  0  0  0  0
   -7.8909   24.0590  -30.8464 H   0  0  0  0  0  0  0  0  0  0  0  0
   -9.2388   21.8365  -32.0171 H   0  0  0  0  0  0  0  0  0  0  0  0
   -8.8537   19.5861  -33.0672 H   0  0  0  0  0  0  0  0  0  0  0  0
   -4.5593   20.0431  -32.4702 H   0  0  0  0  0  0  0  0  0  0  0  0
  1  2  1  0
  2  3  1  0
  3  4  1  0
  4  5  1  0
  5  6  1  0
  6  7  2  0
  6  8  1  0
  8  9  1  0
  9 10  1  0
 10 11  1  0
 10 12  2  0
  9 13  2  0
 13 14  1  0
 14 15  2  0
 15 16  1  0
 16 17  2  0
 17 18  1  0
 18 19  1  0
 18 20  1  0
 18 21  1  0
 17 22  1  0
 22 23  2  0
  2 24  1  0
 24 25  2  0
 24 26  1  0
 23  8  1  0
 23 14  1  0
  1 27  1  0
  1 28  1  0
  1 29  1  0
  3 30  1  0
  3 31  1  0
  4 32  1  0
  4 33  1  0
 11 34  1  0
 11 35  1  0
 13 36  1  0
 15 37  1  0
 16 38  1  0
 22 39  1  0
M  CHG  1  26  -1
M  END
>  <UniqueID>  (60) 
59

>  <SMILES>  (60) 
CN(CCOC(=O)n1c(C(N)=O)cc2ccc(C(F)(F)F)cc21)C(=O)[O-]

>  <Energy>  (60) 
73.27727904464366

>  <Genealogy>  (60) 
CN(CCOC(=O)n1c(C(N)=O)cc2ccc(C(F)(F)F)cc21)C(=O)[O-] (protonated)
CN(CCOC(=O)n1c(C(N)=O)cc2ccc(C(F)(F)F)cc21)C(=O)[O-] (3D coordinates assigned)
CN(CCOC(=O)n1c(C(N)=O)cc2ccc(C(F)(F)F)cc21)C(=O)[O-] (optimized conformer: 73.27727904464366 kcal/mol)

>  <smiles>  (60) 
CN(CCOC(=O)n1c(C(N)=O)cc2ccc(C(F)(F)F)cc21)C(=O)O

>  <score_type>  (60) 
oracle

>  <origin>  (60) 
adg

>  <m_score__min__energy>  (60) 
-10

>  <m_primary>  (60) 
energy

$$$$
61:0
     RDKit          3D

 38 39  0  0  0  0  0  0  0  0999 V2000
   -8.7300   18.6970  -31.6010 C   0  0  0  0  0  0  0  0  0  0  0  0
   -7.7040   19.6900  -31.9660 N   0  0  0  0  0  0  0  0  0  0  0  0
   -8.2900   21.0390  -31.9140 C   0  0  0  0  0  0  0  0  0  0  0  0
   -7.1570   19.4320  -33.3180 C   0  0  0  0  0  0  0  0  0  0  0  0
   -5.6280   19.2560  -33.2910 C   0  0  0  0  0  0  0  0  0  0  0  0
   -4.9240   20.5260  -33.4900 N   0  0  0  0  0  0  0  0  0  0  0  0
   -3.8410   20.9680  -32.6490 C   0  0  0  0  0  0  0  0  0  0  0  0
   -2.6510   20.2010  -32.6000 C   0  0  0  0  0  0  0  0  0  0  0  0
   -1.5760   20.5890  -31.7850 C   0  0  0  0  0  0  0  0  0  0  0  0
   -1.7120   21.7520  -31.0350 C   0  0  0  0  0  0  0  0  0  0  0  0
   -0.8380   22.3400  -30.1510 C   0  0  0  0  0  0  0  0  0  0  0  0
   -1.4940   23.4780  -29.6850 C   0  0  0  0  0  0  0  0  0  0  0  0
   -0.8790   24.4690  -28.7740 C   0  0  0  0  0  0  0  0  0  0  0  0
   -1.6850   25.4240  -28.0840 N   0  0  0  0  0  0  0  0  0  0  0  0
    0.3640   24.4570  -28.5740 O   0  0  0  0  0  0  0  0  0  0  0  0
   -2.7270   23.5870  -30.2570 N   0  0  0  0  0  0  0  0  0  0  0  0
   -3.7310   24.5800  -29.9860 C   0  0  0  0  0  0  0  0  0  0  0  0
   -4.4740   24.4770  -28.9750 O   0  0  0  0  0  0  0  0  0  0  0  0
   -3.8820   25.6740  -30.8300 O   0  0  0  0  0  0  0  0  0  0  0  0
   -2.8450   22.5220  -31.0820 C   0  0  0  0  0  0  0  0  0  0  0  0
   -3.9400   22.1490  -31.8720 C   0  0  0  0  0  0  0  0  0  0  0  0
   -8.8007   18.6286  -30.5054 H   0  0  0  0  0  0  0  0  0  0  0  0
   -9.7022   19.0060  -32.0126 H   0  0  0  0  0  0  0  0  0  0  0  0
   -8.4529   17.7152  -32.0126 H   0  0  0  0  0  0  0  0  0  0  0  0
   -8.4214   21.3415  -30.8646 H   0  0  0  0  0  0  0  0  0  0  0  0
   -7.6195   21.7497  -32.4193 H   0  0  0  0  0  0  0  0  0  0  0  0
   -9.2671   21.0341  -32.4193 H   0  0  0  0  0  0  0  0  0  0  0  0
   -7.6141   18.5150  -33.7182 H   0  0  0  0  0  0  0  0  0  0  0  0
   -7.3906   20.2993  -33.9530 H   0  0  0  0  0  0  0  0  0  0  0  0
   -5.3362   18.8374  -32.3165 H   0  0  0  0  0  0  0  0  0  0  0  0
   -5.3497   18.5815  -34.1141 H   0  0  0  0  0  0  0  0  0  0  0  0
   -5.2180   21.1530  -34.2740 H   0  0  0  0  0  0  0  0  0  0  0  0
   -2.5682   19.2887  -33.2090 H   0  0  0  0  0  0  0  0  0  0  0  0
   -0.6538   19.9910  -31.7410 H   0  0  0  0  0  0  0  0  0  0  0  0
    0.1656   21.9872  -29.8711 H   0  0  0  0  0  0  0  0  0  0  0  0
   -2.7100   25.5010  -28.2630 H   0  0  0  0  0  0  0  0  0  0  0  0
   -1.2460   26.0930  -27.4120 H   0  0  0  0  0  0  0  0  0  0  0  0
   -4.8555   22.7586  -31.8889 H   0  0  0  0  0  0  0  0  0  0  0  0
  1  2  1  0
  2  3  1  0
  2  4  1  0
  4  5  1  0
  5  6  1  0
  6  7  1  0
  7  8  2  0
  8  9  1  0
  9 10  2  0
 10 11  1  0
 11 12  2  0
 12 13  1  0
 13 14  1  0
 13 15  2  0
 12 16  1  0
 16 17  1  0
 17 18  2  0
 17 19  1  0
 16 20  1  0
 20 21  2  0
 21  7  1  0
 20 10  1  0
  1 22  1  0
  1 23  1  0
  1 24  1  0
  3 25  1  0
  3 26  1  0
  3 27  1  0
  4 28  1  0
  4 29  1  0
  5 30  1  0
  5 31  1  0
  6 32  1  0
  8 33  1  0
  9 34  1  0
 11 35  1  0
 14 36  1  0
 14 37  1  0
 21 38  1  0
M  CHG  1  19  -1
M  END
>  <UniqueID>  (61) 
60

>  <SMILES>  (61) 
CN(C)CCNc1ccc2cc(C(N)=O)n(C(=O)[O-])c2c1

>  <Energy>  (61) 
76.99990399032367

>  <Genealogy>  (61) 
CN(C)CCNc1ccc2cc(C(N)=O)n(C(=O)[O-])c2c1 (protonated)
CN(C)CCNc1ccc2cc(C(N)=O)n(C(=O)[O-])c2c1 (3D coordinates assigned)
CN(C)CCNc1ccc2cc(C(N)=O)n(C(=O)[O-])c2c1 (optimized conformer: 76.99990399032367 kcal/mol)

>  <smiles>  (61) 
CN(C)CCNc1ccc2cc(C(N)=O)n(C(=O)O)c2c1

>  <score_type>  (61) 
oracle

>  <origin>  (61) 
adg

>  <m_score__min__energy>  (61) 
-8.1999999999999993

>  <m_primary>  (61) 
energy

$$$$
62:0
     RDKit          3D

 38 39  0  0  0  0  0  0  0  0999 V2000
   -1.1990   26.0190  -28.1930 C   0  0  0  0  0  0  0  0  0  0  0  0
   -1.5580   25.1200  -29.2340 O   0  0  0  0  0  0  0  0  0  0  0  0
   -1.2570   23.7550  -29.1900 C   0  0  0  0  0  0  0  0  0  0  0  0
   -0.6940   23.2540  -28.1780 O   0  0  0  0  0  0  0  0  0  0  0  0
   -1.6440   22.8750  -30.3380 C   0  0  1  0  0  0  0  0  0  0  0  0
   -0.8840   21.5500  -30.2510 C   0  0  0  0  0  0  0  0  0  0  0  0
   -3.0500   22.6440  -30.2860 O   0  0  0  0  0  0  0  0  0  0  0  0
   -3.8700   22.5620  -31.4170 C   0  0  0  0  0  0  0  0  0  0  0  0
   -3.3680   22.3320  -32.5510 O   0  0  0  0  0  0  0  0  0  0  0  0
   -5.2890   22.7420  -31.2830 N   0  0  0  0  0  0  0  0  0  0  0  0
   -5.9510   23.8620  -30.8740 C   0  0  0  0  0  0  0  0  0  0  0  0
   -5.3280   25.0830  -30.3260 C   0  0  0  0  0  0  0  0  0  0  0  0
   -3.9180   25.1630  -30.1160 N   0  0  0  0  0  0  0  0  0  0  0  0
   -6.0600   26.0500  -29.9850 O   0  0  0  0  0  0  0  0  0  0  0  0
   -7.3270   23.6900  -30.9910 C   0  0  0  0  0  0  0  0  0  0  0  0
   -7.4950   22.4130  -31.4750 C   0  0  0  0  0  0  0  0  0  0  0  0
   -8.6610   21.7230  -31.7920 C   0  0  0  0  0  0  0  0  0  0  0  0
   -8.5380   20.4240  -32.3100 C   0  0  0  0  0  0  0  0  0  0  0  0
   -7.2600   19.8440  -32.5110 C   0  0  0  0  0  0  0  0  0  0  0  0
   -7.1500   18.4600  -33.0850 C   0  0  0  0  0  0  0  0  0  0  0  0
   -6.2270   18.4530  -34.1130 F   0  0  0  0  0  0  0  0  0  0  0  0
   -6.7420   17.5790  -32.0990 F   0  0  0  0  0  0  0  0  0  0  0  0
   -6.0970   20.5760  -32.1830 C   0  0  0  0  0  0  0  0  0  0  0  0
   -6.2500   21.8610  -31.6450 C   0  0  0  0  0  0  0  0  0  0  0  0
   -1.3881   25.5456  -27.2183 H   0  0  0  0  0  0  0  0  0  0  0  0
   -0.1315   26.2705  -28.2776 H   0  0  0  0  0  0  0  0  0  0  0  0
   -1.7997   26.9366  -28.2776 H   0  0  0  0  0  0  0  0  0  0  0  0
   -1.3883   23.3626  -31.2903 H   0  0  0  0  0  0  0  0  0  0  0  0
   -0.7312   21.2836  -29.1947 H   0  0  0  0  0  0  0  0  0  0  0  0
   -1.4663   20.7600  -30.7479 H   0  0  0  0  0  0  0  0  0  0  0  0
    0.0919   21.6537  -30.7479 H   0  0  0  0  0  0  0  0  0  0  0  0
   -3.3070   24.3250  -30.2260 H   0  0  0  0  0  0  0  0  0  0  0  0
   -3.4910   26.0490  -29.7640 H   0  0  0  0  0  0  0  0  0  0  0  0
   -8.1133   24.4199  -30.7481 H   0  0  0  0  0  0  0  0  0  0  0  0
   -9.6494   22.1816  -31.6413 H   0  0  0  0  0  0  0  0  0  0  0  0
   -9.4421   19.8505  -32.5624 H   0  0  0  0  0  0  0  0  0  0  0  0
   -8.1323   18.1514  -33.4720 H   0  0  0  0  0  0  0  0  0  0  0  0
   -5.0968   20.1482  -32.3458 H   0  0  0  0  0  0  0  0  0  0  0  0
  1  2  1  0
  2  3  1  0
  3  4  2  0
  3  5  1  0
  5  6  1  0
  5  7  1  0
  7  8  1  0
  8  9  2  0
  8 10  1  0
 10 11  1  0
 11 12  1  0
 12 13  1  0
 12 14  2  0
 11 15  2  0
 15 16  1  0
 16 17  2  0
 17 18  1  0
 18 19  2  0
 19 20  1  0
 20 21  1  0
 20 22  1  0
 19 23  1  0
 23 24  2  0
 24 10  1  0
 24 16  1  0
  1 25  1  0
  1 26  1  0
  1 27  1  0
  5 28  1  6
  6 29  1  0
  6 30  1  0
  6 31  1  0
 13 32  1  0
 13 33  1  0
 15 34  1  0
 17 35  1  0
 18 36  1  0
 20 37  1  0
 23 38  1  0
M  END
>  <UniqueID>  (62) 
61

>  <SMILES>  (62) 
COC(=O)[C@@H](C)OC(=O)n1c(C(N)=O)cc2ccc(C(F)F)cc21

>  <Energy>  (62) 
69.87563607055705

>  <Genealogy>  (62) 
COC(=O)[C@@H](C)OC(=O)n1c(C(N)=O)cc2ccc(C(F)F)cc21 (chirality)
COC(=O)[C@@H](C)OC(=O)n1c(C(N)=O)cc2ccc(C(F)F)cc21 (3D coordinates assigned)
COC(=O)[C@@H](C)OC(=O)n1c(C(N)=O)cc2ccc(C(F)F)cc21 (optimized conformer: 69.87563607055705 kcal/mol)

>  <smiles>  (62) 
COC(=O)C(C)OC(=O)n1c(C(N)=O)cc2ccc(C(F)F)cc21

>  <score_type>  (62) 
oracle

>  <origin>  (62) 
adg

>  <m_score__min__energy>  (62) 
-8.5500000000000007

>  <m_primary>  (62) 
energy

$$$$
63:0
     RDKit          3D

 44 46  0  0  0  0  0  0  0  0999 V2000
   -2.4500   17.0310  -35.1550 C   0  0  0  0  0  0  0  0  0  0  0  0
   -3.9120   17.5950  -34.3150 S   0  0  0  0  0  0  0  0  0  0  0  0
   -4.8680   18.1730  -35.3200 O   0  0  0  0  0  0  0  0  0  0  0  0
   -4.5770   16.4470  -33.6090 O   0  0  0  0  0  0  0  0  0  0  0  0
   -3.4920   18.8210  -33.1670 N   0  0  0  0  0  0  0  0  0  0  0  0
   -2.5000   19.8150  -33.4330 C   0  0  0  0  0  0  0  0  0  0  0  0
   -1.9520   19.8850  -34.5660 O   0  0  0  0  0  0  0  0  0  0  0  0
   -2.1530   20.8120  -32.3790 C   0  0  0  0  0  0  0  0  0  0  0  0
   -2.9440   21.9790  -32.5660 O   0  0  0  0  0  0  0  0  0  0  0  0
   -3.5410   22.6660  -31.5050 C   0  0  0  0  0  0  0  0  0  0  0  0
   -2.8320   23.1420  -30.5770 O   0  0  0  0  0  0  0  0  0  0  0  0
   -4.9700   22.8160  -31.4650 N   0  0  0  0  0  0  0  0  0  0  0  0
   -5.6820   23.9020  -31.0500 C   0  0  0  0  0  0  0  0  0  0  0  0
   -5.1280   25.1110  -30.4070 C   0  0  0  0  0  0  0  0  0  0  0  0
   -3.8820   25.6420  -30.8510 N   0  0  0  0  0  0  0  0  0  0  0  0
   -5.7600   25.7040  -29.4940 O   0  0  0  0  0  0  0  0  0  0  0  0
   -7.0470   23.6920  -31.2430 C   0  0  0  0  0  0  0  0  0  0  0  0
   -7.1500   22.4320  -31.7860 C   0  0  0  0  0  0  0  0  0  0  0  0
   -8.2770   21.7250  -32.1940 C   0  0  0  0  0  0  0  0  0  0  0  0
   -8.0860   20.4520  -32.7570 C   0  0  0  0  0  0  0  0  0  0  0  0
   -6.7820   19.9110  -32.9020 C   0  0  0  0  0  0  0  0  0  0  0  0
   -6.5950   18.6260  -33.5240 N   0  0  0  0  0  0  0  0  0  0  0  0
   -7.2420   17.5940  -32.7000 C   0  0  0  0  0  0  0  0  0  0  0  0
   -7.5410   18.0410  -31.2750 C   0  0  0  0  0  0  0  0  0  0  0  0
   -6.4030   17.0660  -31.5430 C   0  0  0  0  0  0  0  0  0  0  0  0
   -5.6620   20.6670  -32.4840 C   0  0  0  0  0  0  0  0  0  0  0  0
   -5.8830   21.9250  -31.9100 C   0  0  0  0  0  0  0  0  0  0  0  0
   -1.6914   16.7383  -34.4142 H   0  0  0  0  0  0  0  0  0  0  0  0
   -2.7003   16.1649  -35.7853 H   0  0  0  0  0  0  0  0  0  0  0  0
   -2.0538   17.8408  -35.7853 H   0  0  0  0  0  0  0  0  0  0  0  0
   -2.3558   20.3844  -31.3860 H   0  0  0  0  0  0  0  0  0  0  0  0
   -1.0863   21.0712  -32.4499 H   0  0  0  0  0  0  0  0  0  0  0  0
   -2.9790   25.2850  -30.4680 H   0  0  0  0  0  0  0  0  0  0  0  0
   -7.8676   24.3866  -31.0104 H   0  0  0  0  0  0  0  0  0  0  0  0
   -9.2854   22.1493  -32.0794 H   0  0  0  0  0  0  0  0  0  0  0  0
   -8.9570   19.8681  -33.0892 H   0  0  0  0  0  0  0  0  0  0  0  0
   -5.5730   18.4090  -33.5810 H   0  0  0  0  0  0  0  0  0  0  0  0
   -6.9650   18.6490  -34.5040 H   0  0  0  0  0  0  0  0  0  0  0  0
   -7.8133   17.1274  -33.5161 H   0  0  0  0  0  0  0  0  0  0  0  0
   -7.3195   19.0727  -30.9644 H   0  0  0  0  0  0  0  0  0  0  0  0
   -8.4319   18.0379  -30.6298 H   0  0  0  0  0  0  0  0  0  0  0  0
   -5.3593   17.3933  -31.4262 H   0  0  0  0  0  0  0  0  0  0  0  0
   -6.1312   16.0668  -31.1718 H   0  0  0  0  0  0  0  0  0  0  0  0
   -4.6413   20.2759  -32.6070 H   0  0  0  0  0  0  0  0  0  0  0  0
  1  2  1  0
  2  3  2  0
  2  4  2  0
  2  5  1  0
  5  6  1  0
  6  7  2  0
  6  8  1  0
  8  9  1  0
  9 10  1  0
 10 11  2  0
 10 12  1  0
 12 13  1  0
 13 14  1  0
 14 15  1  0
 14 16  2  0
 13 17  2  0
 17 18  1  0
 18 19  2  0
 19 20  1  0
 20 21  2  0
 21 22  1  0
 22 23  1  0
 23 24  1  0
 24 25  1  0
 21 26  1  0
 26 27  2  0
 27 12  1  0
 27 18  1  0
 25 23  1  0
  1 28  1  0
  1 29  1  0
  1 30  1  0
  8 31  1  0
  8 32  1  0
 15 33  1  0
 17 34  1  0
 19 35  1  0
 20 36  1  0
 22 37  1  0
 22 38  1  0
 23 39  1  0
 24 40  1  0
 24 41  1  0
 25 42  1  0
 25 43  1  0
 26 44  1  0
M  CHG  3   5  -1  15  -1  22   1
M  END
>  <UniqueID>  (63) 
62

>  <SMILES>  (63) 
CS(=O)(=O)[N-]C(=O)COC(=O)n1c(C([NH-])=O)cc2ccc([NH2+]C3CC3)cc21

>  <Energy>  (63) 
343.273804251959

>  <Genealogy>  (63) 
CS(=O)(=O)[N-]C(=O)COC(=O)n1c(C([NH-])=O)cc2ccc([NH2+]C3CC3)cc21 (protonated)
CS(=O)(=O)[N-]C(=O)COC(=O)n1c(C([NH-])=O)cc2ccc([NH2+]C3CC3)cc21 (3D coordinates assigned)
CS(=O)(=O)[N-]C(=O)COC(=O)n1c(C([NH-])=O)cc2ccc([NH2+]C3CC3)cc21 (nonaromatic ring conformer: 343.273804251959 kcal/mol)

>  <smiles>  (63) 
CS(=O)(=O)NC(=O)COC(=O)n1c(C(N)=O)cc2ccc(NC3CC3)cc21

>  <score_type>  (63) 
oracle

>  <origin>  (63) 
adg

>  <m_score__min__energy>  (63) 
-12.34

>  <m_primary>  (63) 
energy

$$$$
64:0
     RDKit          3D

 39 40  0  0  0  0  0  0  0  0999 V2000
   -1.6050   26.0250  -25.8690 C   0  0  0  0  0  0  0  0  0  0  0  0
   -0.8910   25.9610  -26.9890 C   0  0  0  0  0  0  0  0  0  0  0  0
   -1.3750   25.2700  -28.1960 C   0  0  0  0  0  0  0  0  0  0  0  0
   -1.2380   25.8380  -29.3100 O   0  0  0  0  0  0  0  0  0  0  0  0
   -1.9700   23.9640  -28.1580 N   0  0  0  0  0  0  0  0  0  0  0  0
   -1.3450   22.7230  -28.6120 C   0  0  0  0  0  0  0  0  0  0  0  0
   -1.7010   22.4400  -30.0690 C   0  0  0  0  0  0  0  0  0  0  0  0
   -3.0510   21.9960  -30.1470 O   0  0  0  0  0  0  0  0  0  0  0  0
   -3.8180   22.1100  -31.3100 C   0  0  0  0  0  0  0  0  0  0  0  0
   -3.2980   21.8850  -32.4380 O   0  0  0  0  0  0  0  0  0  0  0  0
   -5.2020   22.4870  -31.2200 N   0  0  0  0  0  0  0  0  0  0  0  0
   -5.7100   23.6840  -30.8110 C   0  0  0  0  0  0  0  0  0  0  0  0
   -4.9290   24.9040  -30.5260 C   0  0  0  0  0  0  0  0  0  0  0  0
   -3.6300   24.8300  -29.9370 N   0  0  0  0  0  0  0  0  0  0  0  0
   -5.3930   26.0270  -30.8610 O   0  0  0  0  0  0  0  0  0  0  0  0
   -7.1000   23.6310  -30.7440 C   0  0  0  0  0  0  0  0  0  0  0  0
   -7.4340   22.3570  -31.1410 C   0  0  0  0  0  0  0  0  0  0  0  0
   -8.6830   21.7570  -31.2600 C   0  0  0  0  0  0  0  0  0  0  0  0
   -8.7340   20.4140  -31.6670 C   0  0  0  0  0  0  0  0  0  0  0  0
   -7.5420   19.6870  -31.9180 C   0  0  0  0  0  0  0  0  0  0  0  0
   -7.6110   18.2550  -32.3880 C   0  0  0  0  0  0  0  0  0  0  0  0
   -6.7860   17.4490  -31.6250 F   0  0  0  0  0  0  0  0  0  0  0  0
   -7.2120   18.1550  -33.7100 F   0  0  0  0  0  0  0  0  0  0  0  0
   -8.9130   17.8030  -32.2760 F   0  0  0  0  0  0  0  0  0  0  0  0
   -6.2910   20.3380  -31.8070 C   0  0  0  0  0  0  0  0  0  0  0  0
   -6.2720   21.6840  -31.4220 C   0  0  0  0  0  0  0  0  0  0  0  0
   -1.2042   26.5520  -24.9906 H   0  0  0  0  0  0  0  0  0  0  0  0
   -2.5964   25.5509  -25.8209 H   0  0  0  0  0  0  0  0  0  0  0  0
    0.0979   26.4421  -27.0148 H   0  0  0  0  0  0  0  0  0  0  0  0
   -0.2528   22.8138  -28.5184 H   0  0  0  0  0  0  0  0  0  0  0  0
   -1.7142   21.8937  -27.9907 H   0  0  0  0  0  0  0  0  0  0  0  0
   -1.5820   23.3592  -30.6613 H   0  0  0  0  0  0  0  0  0  0  0  0
   -1.0339   21.6607  -30.4661 H   0  0  0  0  0  0  0  0  0  0  0  0
   -3.1100   25.7050  -29.7060 H   0  0  0  0  0  0  0  0  0  0  0  0
   -3.1480   23.9130  -29.8070 H   0  0  0  0  0  0  0  0  0  0  0  0
   -7.7847   24.4360  -30.4388 H   0  0  0  0  0  0  0  0  0  0  0  0
   -9.6037   22.3179  -31.0417 H   0  0  0  0  0  0  0  0  0  0  0  0
   -9.7089   19.9203  -31.7926 H   0  0  0  0  0  0  0  0  0  0  0  0
   -5.3554   19.7995  -32.0182 H   0  0  0  0  0  0  0  0  0  0  0  0
  1  2  2  0
  2  3  1  0
  3  4  2  0
  3  5  1  0
  5  6  1  0
  6  7  1  0
  7  8  1  0
  8  9  1  0
  9 10  2  0
  9 11  1  0
 11 12  1  0
 12 13  1  0
 13 14  1  0
 13 15  2  0
 12 16  2  0
 16 17  1  0
 17 18  2  0
 18 19  1  0
 19 20  2  0
 20 21  1  0
 21 22  1  0
 21 23  1  0
 21 24  1  0
 20 25  1  0
 25 26  2  0
 26 11  1  0
 26 17  1  0
  1 27  1  0
  1 28  1  0
  2 29  1  0
  6 30  1  0
  6 31  1  0
  7 32  1  0
  7 33  1  0
 14 34  1  0
 14 35  1  0
 16 36  1  0
 18 37  1  0
 19 38  1  0
 25 39  1  0
M  CHG  1   5  -1
M  END
>  <UniqueID>  (64) 
63

>  <SMILES>  (64) 
C=CC(=O)[N-]CCOC(=O)n1c(C(N)=O)cc2ccc(C(F)(F)F)cc21

>  <Energy>  (64) 
77.31259224758898

>  <Genealogy>  (64) 
C=CC(=O)[N-]CCOC(=O)n1c(C(N)=O)cc2ccc(C(F)(F)F)cc21 (protonated)
C=CC(=O)[N-]CCOC(=O)n1c(C(N)=O)cc2ccc(C(F)(F)F)cc21 (3D coordinates assigned)
C=CC(=O)[N-]CCOC(=O)n1c(C(N)=O)cc2ccc(C(F)(F)F)cc21 (optimized conformer: 77.31259224758898 kcal/mol)

>  <smiles>  (64) 
C=CC(=O)NCCOC(=O)n1c(C(N)=O)cc2ccc(C(F)(F)F)cc21

>  <score_type>  (64) 
oracle

>  <origin>  (64) 
adg

>  <m_score__min__energy>  (64) 
-10.699999999999999

>  <m_primary>  (64) 
energy

$$$$
65:0
     RDKit          3D

 50 51  0  0  0  0  0  0  0  0999 V2000
   -0.8360   19.0330  -27.6830 C   0  0  0  0  0  0  0  0  0  0  0  0
   -2.0560   19.8170  -27.1680 C   0  0  0  0  0  0  0  0  0  0  0  0
   -1.5440   21.0070  -26.3250 C   0  0  0  0  0  0  0  0  0  0  0  0
   -2.8970   18.8530  -26.2910 C   0  0  0  0  0  0  0  0  0  0  0  0
   -2.7570   20.2740  -28.3240 O   0  0  0  0  0  0  0  0  0  0  0  0
   -2.0320   21.1950  -29.1170 C   0  0  0  0  0  0  0  0  0  0  0  0
   -2.9580   22.2770  -29.5630 C   0  0  0  0  0  0  0  0  0  0  0  0
   -3.3650   23.1300  -28.7240 O   0  0  0  0  0  0  0  0  0  0  0  0
   -3.4090   22.3450  -30.9670 C   0  0  0  0  0  0  0  0  0  0  0  0
   -2.5640   22.2520  -31.8980 O   0  0  0  0  0  0  0  0  0  0  0  0
   -4.7930   22.5650  -31.2860 N   0  0  0  0  0  0  0  0  0  0  0  0
   -5.5600   23.6230  -30.9120 C   0  0  0  0  0  0  0  0  0  0  0  0
   -5.0620   24.8400  -30.2370 C   0  0  0  0  0  0  0  0  0  0  0  0
   -3.7250   25.2960  -30.4810 N   0  0  0  0  0  0  0  0  0  0  0  0
   -5.8040   25.4750  -29.4400 O   0  0  0  0  0  0  0  0  0  0  0  0
   -6.8940   23.4050  -31.2460 C   0  0  0  0  0  0  0  0  0  0  0  0
   -6.9200   22.1600  -31.8380 C   0  0  0  0  0  0  0  0  0  0  0  0
   -7.9940   21.4120  -32.3050 C   0  0  0  0  0  0  0  0  0  0  0  0
   -7.7370   20.1200  -32.7940 C   0  0  0  0  0  0  0  0  0  0  0  0
   -6.4160   19.5900  -32.8200 C   0  0  0  0  0  0  0  0  0  0  0  0
   -6.1450   18.1470  -33.2760 C   0  0  0  0  0  0  0  0  0  0  0  0
   -7.2570   17.1750  -32.8220 C   0  0  0  0  0  0  0  0  0  0  0  0
   -4.8010   17.6920  -32.6740 C   0  0  0  0  0  0  0  0  0  0  0  0
   -6.0590   18.0620  -34.7910 C   0  0  0  0  0  0  0  0  0  0  0  0
   -4.9950   17.8290  -35.3440 O   0  0  0  0  0  0  0  0  0  0  0  0
   -5.3640   20.3780  -32.2840 C   0  0  0  0  0  0  0  0  0  0  0  0
   -5.6430   21.6730  -31.8410 C   0  0  0  0  0  0  0  0  0  0  0  0
   -0.2533   18.6586  -26.8284 H   0  0  0  0  0  0  0  0  0  0  0  0
   -1.1769   18.1844  -28.2944 H   0  0  0  0  0  0  0  0  0  0  0  0
   -0.2058   19.6956  -28.2944 H   0  0  0  0  0  0  0  0  0  0  0  0
   -1.6461   20.7697  -25.2558 H   0  0  0  0  0  0  0  0  0  0  0  0
   -0.4857   21.1941  -26.5596 H   0  0  0  0  0  0  0  0  0  0  0  0
   -2.1358   21.9041  -26.5596 H   0  0  0  0  0  0  0  0  0  0  0  0
   -2.7103   19.0670  -25.2283 H   0  0  0  0  0  0  0  0  0  0  0  0
   -3.9654   18.9946  -26.5114 H   0  0  0  0  0  0  0  0  0  0  0  0
   -2.6118   17.8137  -26.5114 H   0  0  0  0  0  0  0  0  0  0  0  0
   -1.2136   21.6295  -28.5242 H   0  0  0  0  0  0  0  0  0  0  0  0
   -1.6069   20.6819  -29.9922 H   0  0  0  0  0  0  0  0  0  0  0  0
   -3.5240   26.0160  -31.2130 H   0  0  0  0  0  0  0  0  0  0  0  0
   -7.7447   24.0810  -31.0744 H   0  0  0  0  0  0  0  0  0  0  0  0
   -9.0157   21.8195  -32.2922 H   0  0  0  0  0  0  0  0  0  0  0  0
   -8.5720   19.5067  -33.1636 H   0  0  0  0  0  0  0  0  0  0  0  0
   -7.2914   17.1449  -31.7230 H   0  0  0  0  0  0  0  0  0  0  0  0
   -8.2267   17.5203  -33.2099 H   0  0  0  0  0  0  0  0  0  0  0  0
   -7.0445   16.1678  -33.2099 H   0  0  0  0  0  0  0  0  0  0  0  0
   -4.8649   17.7136  -31.5761 H   0  0  0  0  0  0  0  0  0  0  0  0
   -4.5775   16.6681  -33.0082 H   0  0  0  0  0  0  0  0  0  0  0  0
   -4.0014   18.3695  -33.0082 H   0  0  0  0  0  0  0  0  0  0  0  0
   -6.9651   18.2120  -35.3964 H   0  0  0  0  0  0  0  0  0  0  0  0
   -4.3429   19.9743  -32.2184 H   0  0  0  0  0  0  0  0  0  0  0  0
  1  2  1  0
  2  3  1  0
  2  4  1  0
  2  5  1  0
  5  6  1  0
  6  7  1  0
  7  8  2  0
  7  9  1  0
  9 10  2  0
  9 11  1  0
 11 12  1  0
 12 13  1  0
 13 14  1  0
 13 15  2  0
 12 16  2  0
 16 17  1  0
 17 18  2  0
 18 19  1  0
 19 20  2  0
 20 21  1  0
 21 22  1  0
 21 23  1  0
 21 24  1  0
 24 25  2  0
 20 26  1  0
 26 27  2  0
 27 11  1  0
 27 17  1  0
  1 28  1  0
  1 29  1  0
  1 30  1  0
  3 31  1  0
  3 32  1  0
  3 33  1  0
  4 34  1  0
  4 35  1  0
  4 36  1  0
  6 37  1  0
  6 38  1  0
 14 39  1  0
 16 40  1  0
 18 41  1  0
 19 42  1  0
 22 43  1  0
 22 44  1  0
 22 45  1  0
 23 46  1  0
 23 47  1  0
 23 48  1  0
 24 49  1  0
 26 50  1  0
M  CHG  1  14  -1
M  END
>  <UniqueID>  (65) 
64

>  <SMILES>  (65) 
CC(C)(C)OCC(=O)C(=O)n1c(C([NH-])=O)cc2ccc(C(C)(C)C=O)cc21

>  <Energy>  (65) 
93.36375521628634

>  <Genealogy>  (65) 
CC(C)(C)OCC(=O)C(=O)n1c(C([NH-])=O)cc2ccc(C(C)(C)C=O)cc21 (protonated)
CC(C)(C)OCC(=O)C(=O)n1c(C([NH-])=O)cc2ccc(C(C)(C)C=O)cc21 (3D coordinates assigned)
CC(C)(C)OCC(=O)C(=O)n1c(C([NH-])=O)cc2ccc(C(C)(C)C=O)cc21 (optimized conformer: 93.36375521628634 kcal/mol)

>  <smiles>  (65) 
CC(C)(C)OCC(=O)C(=O)n1c(C(N)=O)cc2ccc(C(C)(C)C=O)cc21

>  <score_type>  (65) 
oracle

>  <origin>  (65) 
adg

>  <m_score__min__energy>  (65) 
-11.220000000000001

>  <m_primary>  (65) 
energy

$$$$
66:0
     RDKit          3D

 44 46  0  0  0  0  0  0  0  0999 V2000
   -3.7460   24.1790  -27.3810 C   0  0  0  0  0  0  0  0  0  0  0  0
   -2.4260   24.9430  -27.4150 C   0  0  0  0  0  0  0  0  0  0  0  0
   -1.8950   24.9730  -28.7380 O   0  0  0  0  0  0  0  0  0  0  0  0
   -0.8860   24.1120  -29.1840 C   0  0  0  0  0  0  0  0  0  0  0  0
    0.2970   24.2290  -28.7630 O   0  0  0  0  0  0  0  0  0  0  0  0
   -1.2310   23.0170  -30.1350 C   0  0  0  0  0  0  0  0  0  0  0  0
   -2.5590   23.2100  -30.6050 O   0  0  0  0  0  0  0  0  0  0  0  0
   -3.6100   22.3450  -30.2830 C   0  0  0  0  0  0  0  0  0  0  0  0
   -3.4140   21.3670  -29.5130 O   0  0  0  0  0  0  0  0  0  0  0  0
   -4.9200   22.5870  -30.8200 N   0  0  0  0  0  0  0  0  0  0  0  0
   -5.6420   23.7420  -30.7620 C   0  0  0  0  0  0  0  0  0  0  0  0
   -5.1560   25.0450  -30.2600 C   0  0  0  0  0  0  0  0  0  0  0  0
   -3.9590   25.6080  -30.7910 N   0  0  0  0  0  0  0  0  0  0  0  0
   -5.7670   25.6500  -29.3390 O   0  0  0  0  0  0  0  0  0  0  0  0
   -6.9050   23.5580  -31.3200 C   0  0  0  0  0  0  0  0  0  0  0  0
   -6.9330   22.2450  -31.7320 C   0  0  0  0  0  0  0  0  0  0  0  0
   -7.9510   21.5240  -32.3450 C   0  0  0  0  0  0  0  0  0  0  0  0
   -7.7170   20.1700  -32.6350 C   0  0  0  0  0  0  0  0  0  0  0  0
   -6.4790   19.5550  -32.3030 C   0  0  0  0  0  0  0  0  0  0  0  0
   -6.2480   18.1180  -32.6010 C   0  0  0  0  0  0  0  0  0  0  0  0
   -6.8720   17.3380  -33.5670 C   0  0  0  0  0  0  0  0  0  0  0  0
   -6.3920   16.0820  -33.5110 N   0  0  0  0  0  0  0  0  0  0  0  0
   -5.4790   16.0450  -32.5530 N   0  0  0  0  0  0  0  0  0  0  0  0
   -4.7790   14.8370  -32.1440 C   0  0  0  0  0  0  0  0  0  0  0  0
   -5.3700   17.2530  -31.9700 C   0  0  0  0  0  0  0  0  0  0  0  0
   -5.4700   20.3280  -31.6780 C   0  0  0  0  0  0  0  0  0  0  0  0
   -5.7260   21.6810  -31.4190 C   0  0  0  0  0  0  0  0  0  0  0  0
   -4.0433   24.0070  -26.3360 H   0  0  0  0  0  0  0  0  0  0  0  0
   -4.5232   24.7669  -27.8912 H   0  0  0  0  0  0  0  0  0  0  0  0
   -3.6234   23.2122  -27.8912 H   0  0  0  0  0  0  0  0  0  0  0  0
   -2.5964   25.9738  -27.0708 H   0  0  0  0  0  0  0  0  0  0  0  0
   -1.7062   24.4349  -26.7564 H   0  0  0  0  0  0  0  0  0  0  0  0
   -0.5333   23.0341  -30.9852 H   0  0  0  0  0  0  0  0  0  0  0  0
   -1.1562   22.0455  -29.6244 H   0  0  0  0  0  0  0  0  0  0  0  0
   -3.0210   25.2740  -30.4740 H   0  0  0  0  0  0  0  0  0  0  0  0
   -7.7088   24.3033  -31.4118 H   0  0  0  0  0  0  0  0  0  0  0  0
   -8.9108   21.9995  -32.5954 H   0  0  0  0  0  0  0  0  0  0  0  0
   -8.5027   19.5769  -33.1259 H   0  0  0  0  0  0  0  0  0  0  0  0
   -7.6404   17.6927  -34.2697 H   0  0  0  0  0  0  0  0  0  0  0  0
   -4.7488   14.7848  -31.0457 H   0  0  0  0  0  0  0  0  0  0  0  0
   -5.3066   13.9561  -32.5386 H   0  0  0  0  0  0  0  0  0  0  0  0
   -3.7524   14.8567  -32.5386 H   0  0  0  0  0  0  0  0  0  0  0  0
   -4.6994   17.5089  -31.1364 H   0  0  0  0  0  0  0  0  0  0  0  0
   -4.5060   19.8758  -31.4019 H   0  0  0  0  0  0  0  0  0  0  0  0
  1  2  1  0
  2  3  1  0
  3  4  1  0
  4  5  2  0
  4  6  1  0
  6  7  1  0
  7  8  1  0
  8  9  2  0
  8 10  1  0
 10 11  1  0
 11 12  1  0
 12 13  1  0
 12 14  2  0
 11 15  2  0
 15 16  1  0
 16 17  2  0
 17 18  1  0
 18 19  2  0
 19 20  1  0
 20 21  1  0
 21 22  2  0
 22 23  1  0
 23 24  1  0
 23 25  1  0
 19 26  1  0
 26 27  2  0
 27 10  1  0
 27 16  1  0
 25 20  2  0
  1 28  1  0
  1 29  1  0
  1 30  1  0
  2 31  1  0
  2 32  1  0
  6 33  1  0
  6 34  1  0
 13 35  1  0
 15 36  1  0
 17 37  1  0
 18 38  1  0
 21 39  1  0
 24 40  1  0
 24 41  1  0
 24 42  1  0
 25 43  1  0
 26 44  1  0
M  CHG  1  13  -1
M  END
>  <UniqueID>  (66) 
65

>  <SMILES>  (66) 
CCOC(=O)COC(=O)n1c(C([NH-])=O)cc2ccc(-c3cnn(C)c3)cc21

>  <Energy>  (66) 
108.39687614659917

>  <Genealogy>  (66) 
CCOC(=O)COC(=O)n1c(C([NH-])=O)cc2ccc(-c3cnn(C)c3)cc21 (protonated)
CCOC(=O)COC(=O)n1c(C([NH-])=O)cc2ccc(-c3cnn(C)c3)cc21 (3D coordinates assigned)
CCOC(=O)COC(=O)n1c(C([NH-])=O)cc2ccc(-c3cnn(C)c3)cc21 (optimized conformer: 108.39687614659917 kcal/mol)

>  <smiles>  (66) 
CCOC(=O)COC(=O)n1c(C(N)=O)cc2ccc(-c3cnn(C)c3)cc21

>  <score_type>  (66) 
oracle

>  <origin>  (66) 
adg

>  <m_score__min__energy>  (66) 
-11.369999999999999

>  <m_primary>  (66) 
energy

$$$$
67:0
     RDKit          3D

 37 38  0  0  0  0  0  0  0  0999 V2000
   -2.1990   25.0970  -26.8500 C   0  0  0  0  0  0  0  0  0  0  0  0
   -1.7490   24.9800  -28.2660 C   0  0  0  0  0  0  0  0  0  0  0  0
   -1.6060   26.0200  -28.9650 O   0  0  0  0  0  0  0  0  0  0  0  0
   -1.5360   23.7150  -28.8190 O   0  0  0  0  0  0  0  0  0  0  0  0
   -2.1380   22.5350  -28.2940 C   0  0  0  0  0  0  0  0  0  0  0  0
   -3.2000   22.0230  -29.2620 C   0  0  0  0  0  0  0  0  0  0  0  0
   -3.0210   22.5920  -30.5570 O   0  0  0  0  0  0  0  0  0  0  0  0
   -3.9810   22.5190  -31.5730 C   0  0  0  0  0  0  0  0  0  0  0  0
   -3.6510   22.1740  -32.7410 O   0  0  0  0  0  0  0  0  0  0  0  0
   -5.3450   22.8610  -31.2870 N   0  0  0  0  0  0  0  0  0  0  0  0
   -5.8430   24.0820  -30.9450 C   0  0  0  0  0  0  0  0  0  0  0  0
   -5.0480   25.2840  -30.6210 C   0  0  0  0  0  0  0  0  0  0  0  0
   -3.6290   25.2850  -30.7610 N   0  0  0  0  0  0  0  0  0  0  0  0
   -5.6230   26.3100  -30.1700 O   0  0  0  0  0  0  0  0  0  0  0  0
   -7.2330   24.0360  -30.8590 C   0  0  0  0  0  0  0  0  0  0  0  0
   -7.5740   22.7360  -31.1590 C   0  0  0  0  0  0  0  0  0  0  0  0
   -8.8250   22.1320  -31.2270 C   0  0  0  0  0  0  0  0  0  0  0  0
   -8.8830   20.7760  -31.5880 C   0  0  0  0  0  0  0  0  0  0  0  0
   -7.7000   20.0560  -31.9000 C   0  0  0  0  0  0  0  0  0  0  0  0
   -7.7720   18.5920  -32.2510 C   0  0  0  0  0  0  0  0  0  0  0  0
   -7.0830   17.8320  -31.3220 F   0  0  0  0  0  0  0  0  0  0  0  0
   -7.2130   18.3600  -33.4970 F   0  0  0  0  0  0  0  0  0  0  0  0
   -9.0950   18.1930  -32.2690 F   0  0  0  0  0  0  0  0  0  0  0  0
   -6.4450   20.7020  -31.7950 C   0  0  0  0  0  0  0  0  0  0  0  0
   -6.4170   22.0480  -31.4150 C   0  0  0  0  0  0  0  0  0  0  0  0
   -1.3561   24.8778  -26.1781 H   0  0  0  0  0  0  0  0  0  0  0  0
   -2.5605   26.1190  -26.6634 H   0  0  0  0  0  0  0  0  0  0  0  0
   -3.0125   24.3805  -26.6634 H   0  0  0  0  0  0  0  0  0  0  0  0
   -1.3673   21.7625  -28.1552 H   0  0  0  0  0  0  0  0  0  0  0  0
   -2.6087   22.7664  -27.3271 H   0  0  0  0  0  0  0  0  0  0  0  0
   -3.1233   20.9281  -29.3354 H   0  0  0  0  0  0  0  0  0  0  0  0
   -4.1913   22.3128  -28.8834 H   0  0  0  0  0  0  0  0  0  0  0  0
   -3.0240   24.7630  -30.0920 H   0  0  0  0  0  0  0  0  0  0  0  0
   -7.9133   24.8624  -30.6054 H   0  0  0  0  0  0  0  0  0  0  0  0
   -9.7410   22.6991  -31.0048 H   0  0  0  0  0  0  0  0  0  0  0  0
   -9.8566   20.2658  -31.6295 H   0  0  0  0  0  0  0  0  0  0  0  0
   -5.5128   20.1580  -32.0074 H   0  0  0  0  0  0  0  0  0  0  0  0
  1  2  1  0
  2  3  2  0
  2  4  1  0
  4  5  1  0
  5  6  1  0
  6  7  1  0
  7  8  1  0
  8  9  2  0
  8 10  1  0
 10 11  1  0
 11 12  1  0
 12 13  1  0
 12 14  2  0
 11 15  2  0
 15 16  1  0
 16 17  2  0
 17 18  1  0
 18 19  2  0
 19 20  1  0
 20 21  1  0
 20 22  1  0
 20 23  1  0
 19 24  1  0
 24 25  2  0
 25 10  1  0
 25 16  1  0
  1 26  1  0
  1 27  1  0
  1 28  1  0
  5 29  1  0
  5 30  1  0
  6 31  1  0
  6 32  1  0
 13 33  1  0
 15 34  1  0
 17 35  1  0
 18 36  1  0
 24 37  1  0
M  CHG  1  13  -1
M  END
>  <UniqueID>  (67) 
66

>  <SMILES>  (67) 
CC(=O)OCCOC(=O)n1c(C([NH-])=O)cc2ccc(C(F)(F)F)cc21

>  <Energy>  (67) 
69.59961876214797

>  <Genealogy>  (67) 
CC(=O)OCCOC(=O)n1c(C([NH-])=O)cc2ccc(C(F)(F)F)cc21 (protonated)
CC(=O)OCCOC(=O)n1c(C([NH-])=O)cc2ccc(C(F)(F)F)cc21 (3D coordinates assigned)
CC(=O)OCCOC(=O)n1c(C([NH-])=O)cc2ccc(C(F)(F)F)cc21 (optimized conformer: 69.59961876214797 kcal/mol)

>  <smiles>  (67) 
CC(=O)OCCOC(=O)n1c(C(N)=O)cc2ccc(C(F)(F)F)cc21

>  <score_type>  (67) 
oracle

>  <origin>  (67) 
adg

>  <m_score__min__energy>  (67) 
-9.5899999999999999

>  <m_primary>  (67) 
energy

$$$$
68:0
     RDKit          3D

 38 40  0  0  0  0  0  0  0  0999 V2000
   -9.3340   21.1670  -31.9590 C   0  0  0  0  0  0  0  0  0  0  0  0
   -8.1480   20.3460  -32.3430 C   0  0  0  0  0  0  0  0  0  0  0  0
   -7.0230   20.8490  -32.8770 N   0  0  0  0  0  0  0  0  0  0  0  0
   -6.2190   19.7670  -32.9930 C   0  0  0  0  0  0  0  0  0  0  0  0
   -4.8750   19.8300  -33.4890 N   0  0  0  0  0  0  0  0  0  0  0  0
   -3.7740   20.4000  -32.7610 C   0  0  0  0  0  0  0  0  0  0  0  0
   -2.5070   19.7620  -32.7270 C   0  0  0  0  0  0  0  0  0  0  0  0
   -1.4480   20.3110  -31.9850 C   0  0  0  0  0  0  0  0  0  0  0  0
   -1.6850   21.4890  -31.2830 C   0  0  0  0  0  0  0  0  0  0  0  0
   -0.8520   22.2120  -30.4610 C   0  0  0  0  0  0  0  0  0  0  0  0
   -1.6190   23.2830  -30.0070 C   0  0  0  0  0  0  0  0  0  0  0  0
   -1.0800   24.3640  -29.1550 C   0  0  0  0  0  0  0  0  0  0  0  0
   -1.7910   25.5870  -28.9870 N   0  0  0  0  0  0  0  0  0  0  0  0
    0.0460   24.2250  -28.6080 O   0  0  0  0  0  0  0  0  0  0  0  0
   -2.8800   23.2200  -30.5200 N   0  0  0  0  0  0  0  0  0  0  0  0
   -3.9930   24.0750  -30.2170 C   0  0  0  0  0  0  0  0  0  0  0  0
   -3.9690   25.2850  -30.5750 O   0  0  0  0  0  0  0  0  0  0  0  0
   -5.1050   23.5480  -29.5450 O   0  0  0  0  0  0  0  0  0  0  0  0
   -6.3470   23.2780  -30.1340 C   0  0  0  0  0  0  0  0  0  0  0  0
   -7.1250   22.4130  -29.6480 O   0  0  0  0  0  0  0  0  0  0  0  0
   -6.7240   23.9790  -31.3980 C   0  0  0  0  0  0  0  0  0  0  0  0
   -8.0690   23.7960  -31.6570 F   0  0  0  0  0  0  0  0  0  0  0  0
   -6.4670   25.3310  -31.2670 F   0  0  0  0  0  0  0  0  0  0  0  0
   -5.9900   23.4750  -32.4560 F   0  0  0  0  0  0  0  0  0  0  0  0
   -2.9040   22.1170  -31.3020 C   0  0  0  0  0  0  0  0  0  0  0  0
   -3.9810   21.5820  -32.0180 C   0  0  0  0  0  0  0  0  0  0  0  0
   -6.7630   18.6200  -32.5310 N   0  0  0  0  0  0  0  0  0  0  0  0
   -7.9850   19.0000  -32.1240 C   0  0  0  0  0  0  0  0  0  0  0  0
   -8.8930   18.1660  -31.5630 F   0  0  0  0  0  0  0  0  0  0  0  0
   -9.4060   21.2168  -30.8625 H   0  0  0  0  0  0  0  0  0  0  0  0
   -9.2238   22.1831  -32.3658 H   0  0  0  0  0  0  0  0  0  0  0  0
  -10.2462   20.7061  -32.3658 H   0  0  0  0  0  0  0  0  0  0  0  0
   -4.6740   19.3500  -34.3960 H   0  0  0  0  0  0  0  0  0  0  0  0
   -2.3525   18.8281  -33.2873 H   0  0  0  0  0  0  0  0  0  0  0  0
   -0.4617   19.8247  -31.9597 H   0  0  0  0  0  0  0  0  0  0  0  0
    0.1971   21.9914  -30.2144 H   0  0  0  0  0  0  0  0  0  0  0  0
   -2.7880   25.6750  -29.2870 H   0  0  0  0  0  0  0  0  0  0  0  0
   -4.9660   22.0714  -32.0020 H   0  0  0  0  0  0  0  0  0  0  0  0
  1  2  1  0
  2  3  1  0
  3  4  1  0
  4  5  1  0
  5  6  1  0
  6  7  2  0
  7  8  1  0
  8  9  2  0
  9 10  1  0
 10 11  2  0
 11 12  1  0
 12 13  1  0
 12 14  2  0
 11 15  1  0
 15 16  1  0
 16 17  2  0
 16 18  1  0
 18 19  1  0
 19 20  2  0
 19 21  1  0
 21 22  1  0
 21 23  1  0
 21 24  1  0
 15 25  1  0
 25 26  2  0
  4 27  2  0
 27 28  1  0
 28 29  1  0
 28  2  2  0
 26  6  1  0
 25  9  1  0
  1 30  1  0
  1 31  1  0
  1 32  1  0
  5 33  1  0
  7 34  1  0
  8 35  1  0
 10 36  1  0
 13 37  1  0
 26 38  1  0
M  CHG  2   3  -1  13  -1
M  END
>  <UniqueID>  (68) 
67

>  <SMILES>  (68) 
Cc1[n-]c(Nc2ccc3cc(C([NH-])=O)n(C(=O)OC(=O)C(F)(F)F)c3c2)nc1F

>  <Energy>  (68) 
109.60672041832626

>  <Genealogy>  (68) 
Cc1[n-]c(Nc2ccc3cc(C([NH-])=O)n(C(=O)OC(=O)C(F)(F)F)c3c2)nc1F (protonated)
Cc1[n-]c(Nc2ccc3cc(C([NH-])=O)n(C(=O)OC(=O)C(F)(F)F)c3c2)nc1F (3D coordinates assigned)
Cc1[n-]c(Nc2ccc3cc(C([NH-])=O)n(C(=O)OC(=O)C(F)(F)F)c3c2)nc1F (optimized conformer: 109.60672041832626 kcal/mol)

>  <smiles>  (68) 
Cc1[nH]c(Nc2ccc3cc(C(N)=O)n(C(=O)OC(=O)C(F)(F)F)c3c2)nc1F

>  <score_type>  (68) 
oracle

>  <origin>  (68) 
adg

>  <m_score__min__energy>  (68) 
-10.44

>  <m_primary>  (68) 
energy

$$$$
69:0
     RDKit          3D

 41 42  0  0  0  0  0  0  0  0999 V2000
   -3.1650   22.1480  -29.8330 C   0  0  0  0  0  0  0  0  0  0  0  0
   -3.6160   23.0610  -30.7020 C   0  0  0  0  0  0  0  0  0  0  0  0
   -3.4900   24.5070  -30.3920 C   0  0  0  0  0  0  0  0  0  0  0  0
   -2.5330   24.9330  -29.6920 O   0  0  0  0  0  0  0  0  0  0  0  0
   -4.4380   25.4120  -30.8560 O   0  0  0  0  0  0  0  0  0  0  0  0
   -4.2560   22.6180  -31.9690 C   0  0  0  0  0  0  0  0  0  0  0  0
   -4.9940   23.4150  -32.6100 O   0  0  0  0  0  0  0  0  0  0  0  0
   -4.0580   21.2880  -32.4760 N   0  0  0  0  0  0  0  0  0  0  0  0
   -2.8840   20.7180  -32.8680 C   0  0  0  0  0  0  0  0  0  0  0  0
   -1.5460   21.3340  -32.7220 C   0  0  0  0  0  0  0  0  0  0  0  0
   -0.8470   21.8520  -33.8560 N   0  0  0  0  0  0  0  0  0  0  0  0
   -0.9970   21.3910  -31.5880 O   0  0  0  0  0  0  0  0  0  0  0  0
   -3.1100   19.4330  -33.3640 C   0  0  0  0  0  0  0  0  0  0  0  0
   -4.4710   19.2390  -33.2680 C   0  0  0  0  0  0  0  0  0  0  0  0
   -5.2460   18.1370  -33.6190 C   0  0  0  0  0  0  0  0  0  0  0  0
   -6.6340   18.2200  -33.4220 C   0  0  0  0  0  0  0  0  0  0  0  0
   -7.2200   19.4000  -32.8980 C   0  0  0  0  0  0  0  0  0  0  0  0
   -8.7060   19.4690  -32.6610 C   0  0  0  0  0  0  0  0  0  0  0  0
   -9.0440   20.3640  -31.4620 C   0  0  0  0  0  0  0  0  0  0  0  0
   -9.0810   21.7770  -31.8380 N   0  0  0  0  0  0  0  0  0  0  0  0
   -8.0800   22.7630  -31.5490 C   0  0  0  0  0  0  0  0  0  0  0  0
   -7.7600   23.5770  -32.4560 O   0  0  0  0  0  0  0  0  0  0  0  0
   -7.3610   22.8160  -30.2270 C   0  0  0  0  0  0  0  0  0  0  0  0
   -6.6040   23.9920  -30.1260 O   0  0  0  0  0  0  0  0  0  0  0  0
   -6.4000   20.4960  -32.5500 C   0  0  0  0  0  0  0  0  0  0  0  0
   -5.0190   20.3770  -32.7370 C   0  0  0  0  0  0  0  0  0  0  0  0
   -3.2585   21.0764  -30.0630 H   0  0  0  0  0  0  0  0  0  0  0  0
   -2.7009   22.4694  -28.8889 H   0  0  0  0  0  0  0  0  0  0  0  0
   -1.2890   21.8860  -34.8010 H   0  0  0  0  0  0  0  0  0  0  0  0
    0.1110   22.2500  -33.7420 H   0  0  0  0  0  0  0  0  0  0  0  0
   -2.3610   18.7256  -33.7495 H   0  0  0  0  0  0  0  0  0  0  0  0
   -4.7856   17.2298  -34.0375 H   0  0  0  0  0  0  0  0  0  0  0  0
   -7.2727   17.3614  -33.6767 H   0  0  0  0  0  0  0  0  0  0  0  0
   -9.1925   19.8766  -33.5594 H   0  0  0  0  0  0  0  0  0  0  0  0
   -9.0683   18.4529  -32.4457 H   0  0  0  0  0  0  0  0  0  0  0  0
  -10.0286   20.0740  -31.0665 H   0  0  0  0  0  0  0  0  0  0  0  0
   -8.2603   20.2308  -30.7017 H   0  0  0  0  0  0  0  0  0  0  0  0
   -8.0994   22.7898  -29.4121 H   0  0  0  0  0  0  0  0  0  0  0  0
   -6.6854   21.9509  -30.1548 H   0  0  0  0  0  0  0  0  0  0  0  0
   -6.2290   24.1710  -31.0270 H   0  0  0  0  0  0  0  0  0  0  0  0
   -6.8364   21.4198  -32.1422 H   0  0  0  0  0  0  0  0  0  0  0  0
  1  2  2  0
  2  3  1  0
  3  4  2  0
  3  5  1  0
  2  6  1  0
  6  7  2  0
  6  8  1  0
  8  9  1  0
  9 10  1  0
 10 11  1  0
 10 12  2  0
  9 13  2  0
 13 14  1  0
 14 15  2  0
 15 16  1  0
 16 17  2  0
 17 18  1  0
 18 19  1  0
 19 20  1  0
 20 21  1  0
 21 22  2  0
 21 23  1  0
 23 24  1  0
 17 25  1  0
 25 26  2  0
 26  8  1  0
 26 14  1  0
  1 27  1  0
  1 28  1  0
 11 29  1  0
 11 30  1  0
 13 31  1  0
 15 32  1  0
 16 33  1  0
 18 34  1  0
 18 35  1  0
 19 36  1  0
 19 37  1  0
 23 38  1  0
 23 39  1  0
 24 40  1  0
 25 41  1  0
M  CHG  2   5  -1  20  -1
M  END
>  <UniqueID>  (69) 
68

>  <SMILES>  (69) 
C=C(C(=O)[O-])C(=O)n1c(C(N)=O)cc2ccc(CC[N-]C(=O)CO)cc21

>  <Energy>  (69) 
77.5425590244609

>  <Genealogy>  (69) 
C=C(C(=O)[O-])C(=O)n1c(C(N)=O)cc2ccc(CC[N-]C(=O)CO)cc21 (protonated)
C=C(C(=O)[O-])C(=O)n1c(C(N)=O)cc2ccc(CC[N-]C(=O)CO)cc21 (3D coordinates assigned)
C=C(C(=O)[O-])C(=O)n1c(C(N)=O)cc2ccc(CC[N-]C(=O)CO)cc21 (optimized conformer: 77.5425590244609 kcal/mol)

>  <smiles>  (69) 
C=C(C(=O)O)C(=O)n1c(C(N)=O)cc2ccc(CCNC(=O)CO)cc21

>  <score_type>  (69) 
oracle

>  <origin>  (69) 
adg

>  <m_score__min__energy>  (69) 
-10.57

>  <m_primary>  (69) 
energy

$$$$
70:0
     RDKit          3D

 34 35  0  0  0  0  0  0  0  0999 V2000
   -6.4580   17.4560  -31.9940 C   0  0  0  0  0  0  0  0  0  0  0  0
   -7.0340   18.3800  -33.0630 C   0  0  2  0  0  0  0  0  0  0  0  0
   -6.1880   18.4040  -34.1580 F   0  0  0  0  0  0  0  0  0  0  0  0
   -7.2230   19.7740  -32.5180 C   0  0  0  0  0  0  0  0  0  0  0  0
   -8.5260   20.3080  -32.3530 C   0  0  0  0  0  0  0  0  0  0  0  0
   -8.7100   21.6140  -31.8710 C   0  0  0  0  0  0  0  0  0  0  0  0
   -7.5770   22.3610  -31.5640 C   0  0  0  0  0  0  0  0  0  0  0  0
   -7.4710   23.6520  -31.1040 C   0  0  0  0  0  0  0  0  0  0  0  0
   -6.1060   23.8900  -30.9850 C   0  0  0  0  0  0  0  0  0  0  0  0
   -5.5470   25.1510  -30.4550 C   0  0  0  0  0  0  0  0  0  0  0  0
   -4.2170   25.5690  -30.7690 N   0  0  0  0  0  0  0  0  0  0  0  0
   -6.2370   25.8450  -29.6610 O   0  0  0  0  0  0  0  0  0  0  0  0
   -5.3900   22.7950  -31.3720 N   0  0  0  0  0  0  0  0  0  0  0  0
   -3.9610   22.6780  -31.4950 C   0  0  0  0  0  0  0  0  0  0  0  0
   -3.2240   22.9180  -30.5000 O   0  0  0  0  0  0  0  0  0  0  0  0
   -3.3990   22.3310  -32.7270 O   0  0  0  0  0  0  0  0  0  0  0  0
   -2.7300   21.1300  -32.9950 C   0  0  0  0  0  0  0  0  0  0  0  0
   -3.3280   20.1590  -33.5370 O   0  0  0  0  0  0  0  0  0  0  0  0
   -1.2830   20.9990  -32.6470 C   0  0  0  0  0  0  0  0  0  0  0  0
   -1.0260   19.7200  -32.1890 F   0  0  0  0  0  0  0  0  0  0  0  0
   -0.9600   21.9120  -31.6620 F   0  0  0  0  0  0  0  0  0  0  0  0
   -0.5020   21.2450  -33.7600 F   0  0  0  0  0  0  0  0  0  0  0  0
   -6.3070   21.8630  -31.7180 C   0  0  0  0  0  0  0  0  0  0  0  0
   -6.0970   20.5730  -32.2210 C   0  0  0  0  0  0  0  0  0  0  0  0
   -6.7039   17.8505  -30.9971 H   0  0  0  0  0  0  0  0  0  0  0  0
   -6.8896   16.4505  -32.1071 H   0  0  0  0  0  0  0  0  0  0  0  0
   -5.3652   17.4008  -32.1071 H   0  0  0  0  0  0  0  0  0  0  0  0
   -8.0181   17.9973  -33.3714 H   0  0  0  0  0  0  0  0  0  0  0  0
   -9.4022   19.6926  -32.6053 H   0  0  0  0  0  0  0  0  0  0  0  0
   -9.7184   22.0334  -31.7402 H   0  0  0  0  0  0  0  0  0  0  0  0
   -8.2916   24.3488  -30.8780 H   0  0  0  0  0  0  0  0  0  0  0  0
   -3.8700   26.5010  -30.4470 H   0  0  0  0  0  0  0  0  0  0  0  0
   -3.5420   24.9220  -31.2300 H   0  0  0  0  0  0  0  0  0  0  0  0
   -5.0781   20.1907  -32.3811 H   0  0  0  0  0  0  0  0  0  0  0  0
  1  2  1  0
  2  3  1  0
  2  4  1  0
  4  5  2  0
  5  6  1  0
  6  7  2  0
  7  8  1  0
  8  9  2  0
  9 10  1  0
 10 11  1  0
 10 12  2  0
  9 13  1  0
 13 14  1  0
 14 15  2  0
 14 16  1  0
 16 17  1  0
 17 18  2  0
 17 19  1  0
 19 20  1  0
 19 21  1  0
 19 22  1  0
 13 23  1  0
 23 24  2  0
 24  4  1  0
 23  7  1  0
  1 25  1  0
  1 26  1  0
  1 27  1  0
  2 28  1  6
  5 29  1  0
  6 30  1  0
  8 31  1  0
 11 32  1  0
 11 33  1  0
 24 34  1  0
M  END
>  <UniqueID>  (70) 
69

>  <SMILES>  (70) 
C[C@H](F)c1ccc2cc(C(N)=O)n(C(=O)OC(=O)C(F)(F)F)c2c1

>  <Energy>  (70) 
70.91961508147448

>  <Genealogy>  (70) 
C[C@H](F)c1ccc2cc(C(N)=O)n(C(=O)OC(=O)C(F)(F)F)c2c1 (chirality)
C[C@H](F)c1ccc2cc(C(N)=O)n(C(=O)OC(=O)C(F)(F)F)c2c1 (3D coordinates assigned)
C[C@H](F)c1ccc2cc(C(N)=O)n(C(=O)OC(=O)C(F)(F)F)c2c1 (optimized conformer: 70.91961508147448 kcal/mol)

>  <smiles>  (70) 
CC(F)c1ccc2cc(C(N)=O)n(C(=O)OC(=O)C(F)(F)F)c2c1

>  <score_type>  (70) 
oracle

>  <origin>  (70) 
adg

>  <m_score__min__energy>  (70) 
-8.0099999999999998

>  <m_primary>  (70) 
energy

$$$$
71:0
     RDKit          3D

 48 49  0  0  0  0  0  0  0  0999 V2000
   -3.2501   -0.6109   -5.1974 C   0  0  0  0  0  0  0  0  0  0  0  0
   -2.5178   -1.0796   -4.0720 O   0  0  0  0  0  0  0  0  0  0  0  0
   -3.1380   -1.6258   -2.9448 C   0  0  0  0  0  0  0  0  0  0  0  0
   -4.3896   -1.7760   -2.9077 O   0  0  0  0  0  0  0  0  0  0  0  0
   -2.3024   -2.0584   -1.7819 C   0  0  0  0  0  0  0  0  0  0  0  0
   -1.3267   -1.0657   -1.4744 O   0  0  0  0  0  0  0  0  0  0  0  0
   -1.6498    0.1896   -0.9466 C   0  0  0  0  0  0  0  0  0  0  0  0
   -2.8471    0.4733   -0.6674 O   0  0  0  0  0  0  0  0  0  0  0  0
   -0.6146    1.1601   -0.7254 N   0  0  0  0  0  0  0  0  0  0  0  0
   -0.7031    2.5128   -0.8636 C   0  0  0  0  0  0  0  0  0  0  0  0
   -1.8452    3.2492   -1.4416 C   0  0  0  0  0  0  0  0  0  0  0  0
   -2.6117    2.7021   -2.5159 N   0  0  0  0  0  0  0  0  0  0  0  0
   -2.1154    4.4041   -1.0167 O   0  0  0  0  0  0  0  0  0  0  0  0
    0.4667    3.1292   -0.4279 C   0  0  0  0  0  0  0  0  0  0  0  0
    1.2909    2.1021   -0.0282 C   0  0  0  0  0  0  0  0  0  0  0  0
    2.5696    2.1433    0.5201 C   0  0  0  0  0  0  0  0  0  0  0  0
    3.1667    0.9270    0.8906 C   0  0  0  0  0  0  0  0  0  0  0  0
    2.4814   -0.2986    0.7035 C   0  0  0  0  0  0  0  0  0  0  0  0
    3.0952   -1.5836    1.1722 C   0  0  0  0  0  0  0  0  0  0  0  0
    2.4121   -2.0050    3.1591 Sn  0  0  0  0  0  4  0  0  0  0  0  0
    0.2799   -2.2055    3.1372 C   0  0  0  0  0  0  0  0  0  0  0  0
    2.9612   -0.3828    4.4439 C   0  0  0  0  0  0  0  0  0  0  0  0
    3.3062   -3.8269    3.8561 C   0  0  0  0  0  0  0  0  0  0  0  0
    2.9819   -4.8796    2.9946 O   0  0  0  0  0  0  0  0  0  0  0  0
    1.1806   -0.3010    0.1554 C   0  0  0  0  0  0  0  0  0  0  0  0
    0.6156    0.9232   -0.2191 C   0  0  0  0  0  0  0  0  0  0  0  0
   -3.8373   -1.4418   -5.6425 H   0  0  0  0  0  0  0  0  0  0  0  0
   -2.5411   -0.2232   -5.9575 H   0  0  0  0  0  0  0  0  0  0  0  0
   -3.9323    0.2100   -4.8906 H   0  0  0  0  0  0  0  0  0  0  0  0
   -2.9369   -2.2543   -0.8899 H   0  0  0  0  0  0  0  0  0  0  0  0
   -1.7813   -3.0002   -2.0508 H   0  0  0  0  0  0  0  0  0  0  0  0
   -2.3097    1.8316   -3.0066 H   0  0  0  0  0  0  0  0  0  0  0  0
   -3.4386    3.2205   -2.8865 H   0  0  0  0  0  0  0  0  0  0  0  0
    0.6887    4.1887   -0.4172 H   0  0  0  0  0  0  0  0  0  0  0  0
    3.0830    3.0839    0.6729 H   0  0  0  0  0  0  0  0  0  0  0  0
    4.1532    0.9382    1.3370 H   0  0  0  0  0  0  0  0  0  0  0  0
    4.2037   -1.5149    1.1768 H   0  0  0  0  0  0  0  0  0  0  0  0
    2.8031   -2.4209    0.5035 H   0  0  0  0  0  0  0  0  0  0  0  0
   -0.0758   -2.4732    4.1531 H   0  0  0  0  0  0  0  0  0  0  0  0
   -0.0070   -3.0019    2.4202 H   0  0  0  0  0  0  0  0  0  0  0  0
   -0.1771   -1.2441    2.8246 H   0  0  0  0  0  0  0  0  0  0  0  0
    2.6256   -0.6013    5.4782 H   0  0  0  0  0  0  0  0  0  0  0  0
    2.4770    0.5488    4.0848 H   0  0  0  0  0  0  0  0  0  0  0  0
    4.0632   -0.2572    4.4281 H   0  0  0  0  0  0  0  0  0  0  0  0
    4.4077   -3.6969    3.8727 H   0  0  0  0  0  0  0  0  0  0  0  0
    2.9563   -4.0467    4.8885 H   0  0  0  0  0  0  0  0  0  0  0  0
    2.0056   -5.0255    3.0946 H   0  0  0  0  0  0  0  0  0  0  0  0
    0.6349   -1.2284    0.0509 H   0  0  0  0  0  0  0  0  0  0  0  0
  1  2  1  0
  2  3  1  0
  3  4  2  0
  3  5  1  0
  5  6  1  0
  6  7  1  0
  7  8  2  0
  7  9  1  0
  9 10  1  0
 10 11  1  0
 11 12  1  0
 11 13  2  0
 10 14  2  0
 14 15  1  0
 15 16  2  0
 16 17  1  0
 17 18  2  0
 18 19  1  0
 19 20  1  0
 20 21  1  0
 20 22  1  0
 20 23  1  0
 23 24  1  0
 18 25  1  0
 25 26  2  0
 26  9  1  0
 26 15  1  0
  1 27  1  0
  1 28  1  0
  1 29  1  0
  5 30  1  0
  5 31  1  0
 12 32  1  0
 12 33  1  0
 14 34  1  0
 16 35  1  0
 17 36  1  0
 19 37  1  0
 19 38  1  0
 21 39  1  0
 21 40  1  0
 21 41  1  0
 22 42  1  0
 22 43  1  0
 22 44  1  0
 23 45  1  0
 23 46  1  0
 24 47  1  0
 25 48  1  0
M  END
>  <UniqueID>  (71) 
70

>  <SMILES>  (71) 
COC(=O)COC(=O)n1c(C(N)=O)cc2ccc([CH2][Sn]([CH3])([CH3])[CH2]O)cc21

>  <Energy>  (71) 
63.85836673299309

>  <Genealogy>  (71) 
COC(=O)COC(=O)n1c(C(N)=O)cc2ccc([CH2][Sn]([CH3])([CH3])[CH2]O)cc21 (3D coordinates assigned)
COC(=O)COC(=O)n1c(C(N)=O)cc2ccc([CH2][Sn]([CH3])([CH3])[CH2]O)cc21 (optimized conformer: 63.85836673299309 kcal/mol)

>  <smiles>  (71) 
COC(=O)COC(=O)n1c(C(N)=O)cc2ccc([CH2][Sn]([CH3])([CH3])[CH2]O)cc21

>  <m_score__min__energy>  (71) 
nan

>  <m_primary>  (71) 
energy

$$$$
72:0
     RDKit          3D

 42 44  0  0  0  0  0  0  0  0999 V2000
   -6.1080   18.8280  -34.7230 C   0  0  0  0  0  0  0  0  0  0  0  0
   -5.9540   19.5200  -33.8270 N   0  0  0  0  0  0  0  0  0  0  0  0
   -5.7790   20.3520  -32.7220 C   0  0  0  0  0  0  0  0  0  0  0  0
   -6.8840   20.6840  -31.8970 C   0  0  0  0  0  0  0  0  0  0  0  0
   -7.7830   20.9740  -31.2150 N   0  0  0  0  0  0  0  0  0  0  0  0
   -4.5800   20.8340  -32.4650 C   0  0  0  0  0  0  0  0  0  0  0  0
   -4.2650   21.7060  -31.3490 C   0  0  0  0  0  0  0  0  0  0  0  0
   -4.5740   23.0400  -31.2820 C   0  0  0  0  0  0  0  0  0  0  0  0
   -4.2130   23.7870  -30.1610 C   0  0  0  0  0  0  0  0  0  0  0  0
   -3.5430   23.2260  -29.0910 C   0  0  0  0  0  0  0  0  0  0  0  0
   -3.2110   24.0780  -27.9570 C   0  0  0  0  0  0  0  0  0  0  0  0
   -4.1720   24.4670  -27.0510 C   0  0  0  0  0  0  0  0  0  0  0  0
   -3.8310   25.2680  -25.9890 C   0  0  0  0  0  0  0  0  0  0  0  0
   -2.5230   25.6740  -25.8440 C   0  0  0  0  0  0  0  0  0  0  0  0
   -1.9070   26.4620  -24.8950 C   0  0  0  0  0  0  0  0  0  0  0  0
   -0.5430   26.5790  -25.1950 C   0  0  0  0  0  0  0  0  0  0  0  0
    0.3500   27.3520  -24.3660 C   0  0  0  0  0  0  0  0  0  0  0  0
    0.5070   27.3000  -22.9820 N   0  0  0  0  0  0  0  0  0  0  0  0
    1.1020   28.2000  -24.9730 O   0  0  0  0  0  0  0  0  0  0  0  0
   -0.3460   25.8700  -26.3100 N   0  0  0  0  0  0  0  0  0  0  0  0
    0.8680   25.6900  -26.9960 C   0  0  0  0  0  0  0  0  0  0  0  0
    1.0820   24.8530  -27.9060 O   0  0  0  0  0  0  0  0  0  0  0  0
    1.9890   26.4890  -26.6860 O   0  0  0  0  0  0  0  0  0  0  0  0
   -1.5220   25.3140  -26.7200 C   0  0  0  0  0  0  0  0  0  0  0  0
   -1.8980   24.5090  -27.7780 C   0  0  0  0  0  0  0  0  0  0  0  0
   -3.2340   21.8870  -29.1590 C   0  0  0  0  0  0  0  0  0  0  0  0
   -2.5100   21.2190  -28.0500 C   0  0  0  0  0  0  0  0  0  0  0  0
   -3.5960   21.1560  -30.2750 C   0  0  0  0  0  0  0  0  0  0  0  0
   -3.7605   20.5558  -33.1440 H   0  0  0  0  0  0  0  0  0  0  0  0
   -5.1078   23.5222  -32.1142 H   0  0  0  0  0  0  0  0  0  0  0  0
   -4.4697   24.8561  -30.1278 H   0  0  0  0  0  0  0  0  0  0  0  0
   -5.2133   24.1360  -27.1779 H   0  0  0  0  0  0  0  0  0  0  0  0
   -4.5944   25.5820  -25.2619 H   0  0  0  0  0  0  0  0  0  0  0  0
   -2.4092   26.9276  -24.0342 H   0  0  0  0  0  0  0  0  0  0  0  0
   -0.1060   27.9460  -22.4000 H   0  0  0  0  0  0  0  0  0  0  0  0
    1.2080   26.6520  -22.5130 H   0  0  0  0  0  0  0  0  0  0  0  0
    1.8610   27.3810  -26.1860 H   0  0  0  0  0  0  0  0  0  0  0  0
   -1.1336   24.1972  -28.5050 H   0  0  0  0  0  0  0  0  0  0  0  0
   -2.9009   21.5797  -27.0871 H   0  0  0  0  0  0  0  0  0  0  0  0
   -2.6551   20.1309  -28.1202 H   0  0  0  0  0  0  0  0  0  0  0  0
   -1.4371   21.4511  -28.1202 H   0  0  0  0  0  0  0  0  0  0  0  0
   -3.3389   20.0870  -30.3083 H   0  0  0  0  0  0  0  0  0  0  0  0
  1  2  3  0
  2  3  1  0
  3  4  1  0
  4  5  3  0
  3  6  2  0
  6  7  1  0
  7  8  2  0
  8  9  1  0
  9 10  2  0
 10 11  1  0
 11 12  2  0
 12 13  1  0
 13 14  2  0
 14 15  1  0
 15 16  2  0
 16 17  1  0
 17 18  1  0
 17 19  2  0
 16 20  1  0
 20 21  1  0
 21 22  2  0
 21 23  1  0
 20 24  1  0
 24 25  2  0
 10 26  1  0
 26 27  1  0
 26 28  2  0
 28  7  1  0
 25 11  1  0
 24 14  1  0
  6 29  1  0
  8 30  1  0
  9 31  1  0
 12 32  1  0
 13 33  1  0
 15 34  1  0
 18 35  1  0
 18 36  1  0
 23 37  1  0
 25 38  1  0
 27 39  1  0
 27 40  1  0
 27 41  1  0
 28 42  1  0
M  CHG  2   1  -1   2   1
M  END
>  <smiles>  (72) 
[C-]#[N+]/C(C#N)=C/c1ccc(-c2ccc3cc(C(N)=O)n(C(=O)O)c3c2)c(C)c1

>  <score_type>  (72) 
oracle

>  <origin>  (72) 
adg

>  <m_score__min__energy>  (72) 
-9.5899999999999999

>  <m_primary>  (72) 
energy

$$$$
73:0
     RDKit          3D

 38 39  0  0  0  0  0  0  0  0999 V2000
   -3.0230   20.9500  -28.4290 C   0  0  0  0  0  0  0  0  0  0  0  0
   -3.2910   22.3510  -28.7650 N   0  0  0  0  0  0  0  0  0  0  0  0
   -3.7610   23.2710  -27.7200 C   0  0  0  0  0  0  0  0  0  0  0  0
   -2.7200   24.3640  -27.4690 C   0  0  0  0  0  0  0  0  0  0  0  0
   -2.7330   25.2950  -28.5160 O   0  0  0  0  0  0  0  0  0  0  0  0
   -2.8370   22.8540  -30.0340 C   0  0  0  0  0  0  0  0  0  0  0  0
   -1.7690   23.5220  -30.0890 O   0  0  0  0  0  0  0  0  0  0  0  0
   -3.5860   22.5880  -31.2770 C   0  0  0  0  0  0  0  0  0  0  0  0
   -2.9770   22.2340  -32.3220 O   0  0  0  0  0  0  0  0  0  0  0  0
   -5.0110   22.7490  -31.3160 N   0  0  0  0  0  0  0  0  0  0  0  0
   -5.7360   23.8120  -30.8700 C   0  0  0  0  0  0  0  0  0  0  0  0
   -5.1750   25.0670  -30.3300 C   0  0  0  0  0  0  0  0  0  0  0  0
   -3.9520   25.5820  -30.8510 N   0  0  0  0  0  0  0  0  0  0  0  0
   -5.7580   25.6860  -29.4000 O   0  0  0  0  0  0  0  0  0  0  0  0
   -7.1000   23.5700  -31.0250 C   0  0  0  0  0  0  0  0  0  0  0  0
   -7.1870   22.3120  -31.5790 C   0  0  0  0  0  0  0  0  0  0  0  0
   -8.3030   21.5550  -31.9190 C   0  0  0  0  0  0  0  0  0  0  0  0
   -8.0930   20.2670  -32.4410 C   0  0  0  0  0  0  0  0  0  0  0  0
   -6.7780   19.7620  -32.6240 C   0  0  0  0  0  0  0  0  0  0  0  0
   -6.5660   18.3570  -33.1270 C   0  0  0  0  0  0  0  0  0  0  0  0
   -7.7200   17.6070  -32.9830 F   0  0  0  0  0  0  0  0  0  0  0  0
   -5.5510   17.7630  -32.3980 F   0  0  0  0  0  0  0  0  0  0  0  0
   -6.2170   18.3630  -34.4660 F   0  0  0  0  0  0  0  0  0  0  0  0
   -5.6700   20.5550  -32.2430 C   0  0  0  0  0  0  0  0  0  0  0  0
   -5.9110   21.8370  -31.7420 C   0  0  0  0  0  0  0  0  0  0  0  0
   -3.0006   20.8330  -27.3355 H   0  0  0  0  0  0  0  0  0  0  0  0
   -3.8158   20.3139  -28.8497 H   0  0  0  0  0  0  0  0  0  0  0  0
   -2.0515   20.6514  -28.8497 H   0  0  0  0  0  0  0  0  0  0  0  0
   -4.7045   23.7354  -28.0426 H   0  0  0  0  0  0  0  0  0  0  0  0
   -3.9187   22.7059  -26.7895 H   0  0  0  0  0  0  0  0  0  0  0  0
   -2.9524   24.8768  -26.5240 H   0  0  0  0  0  0  0  0  0  0  0  0
   -1.7229   23.9031  -27.4112 H   0  0  0  0  0  0  0  0  0  0  0  0
   -3.6800   25.3950  -28.7950 H   0  0  0  0  0  0  0  0  0  0  0  0
   -3.0320   25.2850  -30.4550 H   0  0  0  0  0  0  0  0  0  0  0  0
   -7.9305   24.2412  -30.7609 H   0  0  0  0  0  0  0  0  0  0  0  0
   -9.3197   21.9524  -31.7834 H   0  0  0  0  0  0  0  0  0  0  0  0
   -8.9574   19.6425  -32.7111 H   0  0  0  0  0  0  0  0  0  0  0  0
   -4.6435   20.1716  -32.3389 H   0  0  0  0  0  0  0  0  0  0  0  0
  1  2  1  0
  2  3  1  0
  3  4  1  0
  4  5  1  0
  2  6  1  0
  6  7  2  0
  6  8  1  0
  8  9  2  0
  8 10  1  0
 10 11  1  0
 11 12  1  0
 12 13  1  0
 12 14  2  0
 11 15  2  0
 15 16  1  0
 16 17  2  0
 17 18  1  0
 18 19  2  0
 19 20  1  0
 20 21  1  0
 20 22  1  0
 20 23  1  0
 19 24  1  0
 24 25  2  0
 25 10  1  0
 25 16  1  0
  1 26  1  0
  1 27  1  0
  1 28  1  0
  3 29  1  0
  3 30  1  0
  4 31  1  0
  4 32  1  0
  5 33  1  0
 13 34  1  0
 15 35  1  0
 17 36  1  0
 18 37  1  0
 24 38  1  0
M  CHG  1  13  -1
M  END
>  <UniqueID>  (73) 
71

>  <SMILES>  (73) 
CN(CCO)C(=O)C(=O)n1c(C([NH-])=O)cc2ccc(C(F)(F)F)cc21

>  <Energy>  (73) 
77.73792779949437

>  <Genealogy>  (73) 
CN(CCO)C(=O)C(=O)n1c(C([NH-])=O)cc2ccc(C(F)(F)F)cc21 (protonated)
CN(CCO)C(=O)C(=O)n1c(C([NH-])=O)cc2ccc(C(F)(F)F)cc21 (3D coordinates assigned)
CN(CCO)C(=O)C(=O)n1c(C([NH-])=O)cc2ccc(C(F)(F)F)cc21 (optimized conformer: 77.73792779949437 kcal/mol)

>  <smiles>  (73) 
CN(CCO)C(=O)C(=O)n1c(C(N)=O)cc2ccc(C(F)(F)F)cc21

>  <score_type>  (73) 
oracle

>  <origin>  (73) 
adg

>  <m_score__min__energy>  (73) 
-9.9000000000000004

>  <m_primary>  (73) 
energy

$$$$
74:0
     RDKit          3D

 55 57  0  0  0  0  0  0  0  0999 V2000
   -6.5830   13.6550  -34.5730 C   0  0  0  0  0  0  0  0  0  0  0  0
   -5.2760   14.2600  -34.2240 N   0  0  0  0  0  0  0  0  0  0  0  0
   -4.7970   13.6320  -32.9730 C   0  0  0  0  0  0  0  0  0  0  0  0
   -5.3820   15.7440  -34.0490 C   0  0  0  0  0  0  0  0  0  0  0  0
   -6.8810   16.1880  -34.0040 C   0  0  0  0  0  0  0  0  0  0  0  0
   -7.1950   17.3130  -32.9990 C   0  0  0  0  0  0  0  0  0  0  0  0
   -6.0840   18.2640  -32.9180 N   0  0  0  0  0  0  0  0  0  0  0  0
   -6.3310   19.6580  -32.6890 C   0  0  0  0  0  0  0  0  0  0  0  0
   -7.6540   20.1660  -32.7690 C   0  0  0  0  0  0  0  0  0  0  0  0
   -7.9420   21.4730  -32.3410 C   0  0  0  0  0  0  0  0  0  0  0  0
   -6.8920   22.2420  -31.8460 C   0  0  0  0  0  0  0  0  0  0  0  0
   -6.8940   23.5180  -31.3420 C   0  0  0  0  0  0  0  0  0  0  0  0
   -5.5730   23.7900  -31.0060 C   0  0  0  0  0  0  0  0  0  0  0  0
   -5.1260   25.0770  -30.4220 C   0  0  0  0  0  0  0  0  0  0  0  0
   -3.8960   25.6580  -30.8490 N   0  0  0  0  0  0  0  0  0  0  0  0
   -5.8320   25.6870  -29.5730 O   0  0  0  0  0  0  0  0  0  0  0  0
   -4.7760   22.7200  -31.2890 N   0  0  0  0  0  0  0  0  0  0  0  0
   -3.3400   22.6760  -31.2120 C   0  0  0  0  0  0  0  0  0  0  0  0
   -2.6950   22.3110  -32.2330 O   0  0  0  0  0  0  0  0  0  0  0  0
   -2.6170   23.0710  -29.9680 C   0  0  0  0  0  0  0  0  0  0  0  0
   -1.3800   22.8290  -29.9040 O   0  0  0  0  0  0  0  0  0  0  0  0
   -3.2850   23.5840  -28.7800 N   0  0  0  0  0  0  0  0  0  0  0  0
   -4.2210   22.6290  -28.1610 C   0  0  0  0  0  0  0  0  0  0  0  0
   -2.2710   24.0460  -27.8140 C   0  0  0  0  0  0  0  0  0  0  0  0
   -5.6010   21.7720  -31.7950 C   0  0  0  0  0  0  0  0  0  0  0  0
   -5.2840   20.4880  -32.2470 C   0  0  0  0  0  0  0  0  0  0  0  0
   -4.7110   17.7800  -32.7330 C   0  0  0  0  0  0  0  0  0  0  0  0
   -4.6440   16.2500  -32.7870 C   0  0  0  0  0  0  0  0  0  0  0  0
   -7.1280   13.4027  -33.6514 H   0  0  0  0  0  0  0  0  0  0  0  0
   -7.1728   14.3717  -35.1633 H   0  0  0  0  0  0  0  0  0  0  0  0
   -6.4183   12.7415  -35.1633 H   0  0  0  0  0  0  0  0  0  0  0  0
   -5.2101   14.1736  -32.1093 H   0  0  0  0  0  0  0  0  0  0  0  0
   -5.1265   12.5830  -32.9398 H   0  0  0  0  0  0  0  0  0  0  0  0
   -3.6982   13.6724  -32.9398 H   0  0  0  0  0  0  0  0  0  0  0  0
   -4.8898   16.1991  -34.9212 H   0  0  0  0  0  0  0  0  0  0  0  0
   -7.1639   16.5378  -35.0078 H   0  0  0  0  0  0  0  0  0  0  0  0
   -7.4530   15.3092  -33.6716 H   0  0  0  0  0  0  0  0  0  0  0  0
   -8.1015   17.8445  -33.3244 H   0  0  0  0  0  0  0  0  0  0  0  0
   -7.3488   16.8655  -32.0060 H   0  0  0  0  0  0  0  0  0  0  0  0
   -8.4593   19.5322  -33.1688 H   0  0  0  0  0  0  0  0  0  0  0  0
   -8.9642   21.8758  -32.3952 H   0  0  0  0  0  0  0  0  0  0  0  0
   -7.7602   24.1863  -31.2277 H   0  0  0  0  0  0  0  0  0  0  0  0
   -2.9800   25.2970  -30.4940 H   0  0  0  0  0  0  0  0  0  0  0  0
   -3.8450   24.4260  -29.0640 H   0  0  0  0  0  0  0  0  0  0  0  0
   -4.1490   22.7025  -27.0658 H   0  0  0  0  0  0  0  0  0  0  0  0
   -5.2478   22.8645  -28.4775 H   0  0  0  0  0  0  0  0  0  0  0  0
   -3.9650   21.6071  -28.4775 H   0  0  0  0  0  0  0  0  0  0  0  0
   -2.6371   23.8792  -26.7902 H   0  0  0  0  0  0  0  0  0  0  0  0
   -1.3374   23.4844  -27.9656 H   0  0  0  0  0  0  0  0  0  0  0  0
   -2.0822   25.1190  -27.9656 H   0  0  0  0  0  0  0  0  0  0  0  0
   -4.2422   20.1351  -32.2570 H   0  0  0  0  0  0  0  0  0  0  0  0
   -4.0754   18.1942  -33.5296 H   0  0  0  0  0  0  0  0  0  0  0  0
   -4.3599   18.1066  -31.7430 H   0  0  0  0  0  0  0  0  0  0  0  0
   -3.5921   15.9305  -32.8249 H   0  0  0  0  0  0  0  0  0  0  0  0
   -5.1233   15.8308  -31.8900 H   0  0  0  0  0  0  0  0  0  0  0  0
  1  2  1  0
  2  3  1  0
  2  4  1  0
  4  5  1  0
  5  6  1  0
  6  7  1  0
  7  8  1  0
  8  9  2  0
  9 10  1  0
 10 11  2  0
 11 12  1  0
 12 13  2  0
 13 14  1  0
 14 15  1  0
 14 16  2  0
 13 17  1  0
 17 18  1  0
 18 19  2  0
 18 20  1  0
 20 21  2  0
 20 22  1  0
 22 23  1  0
 22 24  1  0
 17 25  1  0
 25 26  2  0
  7 27  1  0
 27 28  1  0
 28  4  1  0
 26  8  1  0
 25 11  1  0
  1 29  1  0
  1 30  1  0
  1 31  1  0
  3 32  1  0
  3 33  1  0
  3 34  1  0
  4 35  1  0
  5 36  1  0
  5 37  1  0
  6 38  1  0
  6 39  1  0
  9 40  1  0
 10 41  1  0
 12 42  1  0
 15 43  1  0
 22 44  1  0
 23 45  1  0
 23 46  1  0
 23 47  1  0
 24 48  1  0
 24 49  1  0
 24 50  1  0
 26 51  1  0
 27 52  1  0
 27 53  1  0
 28 54  1  0
 28 55  1  0
M  CHG  2  15  -1  22   1
M  END
>  <UniqueID>  (74) 
72

>  <SMILES>  (74) 
CN(C)C1CCN(c2ccc3cc(C([NH-])=O)n(C(=O)C(=O)[NH+](C)C)c3c2)CC1

>  <Energy>  (74) 
115.06657440317106

>  <Genealogy>  (74) 
CN(C)C1CCN(c2ccc3cc(C([NH-])=O)n(C(=O)C(=O)[NH+](C)C)c3c2)CC1 (protonated)
CN(C)C1CCN(c2ccc3cc(C([NH-])=O)n(C(=O)C(=O)[NH+](C)C)c3c2)CC1 (3D coordinates assigned)
CN(C)C1CCN(c2ccc3cc(C([NH-])=O)n(C(=O)C(=O)[NH+](C)C)c3c2)CC1 (nonaromatic ring conformer: 115.06657440317106 kcal/mol)

>  <smiles>  (74) 
CN(C)C(=O)C(=O)n1c(C(N)=O)cc2ccc(N3CCC(N(C)C)CC3)cc21

>  <score_type>  (74) 
oracle

>  <origin>  (74) 
adg

>  <m_score__min__energy>  (74) 
-9.7300000000000004

>  <m_primary>  (74) 
energy

$$$$
75:0
     RDKit          3D

 43 46  0  0  0  0  0  0  0  0999 V2000
   -3.3040   16.7050  -35.3700 C   0  0  0  0  0  0  0  0  0  0  0  0
   -4.0330   17.7870  -34.6870 N   0  0  0  0  0  0  0  0  0  0  0  0
   -5.4350   17.9500  -35.1740 C   0  0  0  0  0  0  0  0  0  0  0  0
   -6.5010   17.4700  -34.1630 C   0  0  1  0  0  0  0  0  0  0  0  0
   -6.3710   15.9670  -33.8950 C   0  0  0  0  0  0  0  0  0  0  0  0
   -5.3990   15.8760  -32.7180 C   0  0  0  0  0  0  0  0  0  0  0  0
   -5.0510   17.3320  -32.4010 C   0  0  1  0  0  0  0  0  0  0  0  0
   -3.8180   17.8000  -33.2080 C   0  0  0  0  0  0  0  0  0  0  0  0
   -6.1910   18.0890  -32.8870 N   0  0  0  0  0  0  0  0  0  0  0  0
   -6.5230   19.4510  -32.5060 C   0  0  0  0  0  0  0  0  0  0  0  0
   -7.8760   19.8960  -32.5060 C   0  0  0  0  0  0  0  0  0  0  0  0
   -8.2110   21.1980  -32.0970 C   0  0  0  0  0  0  0  0  0  0  0  0
   -7.1850   22.0450  -31.6990 C   0  0  0  0  0  0  0  0  0  0  0  0
   -7.2330   23.3360  -31.2210 C   0  0  0  0  0  0  0  0  0  0  0  0
   -5.9080   23.6830  -30.9640 C   0  0  0  0  0  0  0  0  0  0  0  0
   -5.4930   25.0190  -30.4910 C   0  0  0  0  0  0  0  0  0  0  0  0
   -4.1560   25.4880  -30.6750 N   0  0  0  0  0  0  0  0  0  0  0  0
   -6.3470   25.7820  -29.9640 O   0  0  0  0  0  0  0  0  0  0  0  0
   -5.0770   22.6450  -31.2590 N   0  0  0  0  0  0  0  0  0  0  0  0
   -3.6620   22.5590  -31.0320 C   0  0  0  0  0  0  0  0  0  0  0  0
   -3.1420   23.1790  -30.0690 O   0  0  0  0  0  0  0  0  0  0  0  0
   -2.5960   21.6600  -32.1810 S   0  0  0  0  0  0  0  0  0  0  0  0
   -5.8740   21.6510  -31.7110 C   0  0  0  0  0  0  0  0  0  0  0  0
   -5.5100   20.3550  -32.0940 C   0  0  0  0  0  0  0  0  0  0  0  0
   -2.8537   16.0367  -34.6213 H   0  0  0  0  0  0  0  0  0  0  0  0
   -4.0017   16.1332  -35.9995 H   0  0  0  0  0  0  0  0  0  0  0  0
   -2.5120   17.1369  -35.9995 H   0  0  0  0  0  0  0  0  0  0  0  0
   -5.6089   19.0159  -35.3829 H   0  0  0  0  0  0  0  0  0  0  0  0
   -5.5388   17.3251  -36.0733 H   0  0  0  0  0  0  0  0  0  0  0  0
   -7.4950   17.7154  -34.5652 H   0  0  0  0  0  0  0  0  0  0  0  0
   -7.3462   15.5327  -33.6296 H   0  0  0  0  0  0  0  0  0  0  0  0
   -6.0171   15.4119  -34.7763 H   0  0  0  0  0  0  0  0  0  0  0  0
   -5.8780   15.3929  -31.8536 H   0  0  0  0  0  0  0  0  0  0  0  0
   -4.5095   15.2732  -32.9534 H   0  0  0  0  0  0  0  0  0  0  0  0
   -4.8346   17.4604  -31.3302 H   0  0  0  0  0  0  0  0  0  0  0  0
   -3.5705   18.8270  -32.9012 H   0  0  0  0  0  0  0  0  0  0  0  0
   -3.0035   17.0925  -32.9934 H   0  0  0  0  0  0  0  0  0  0  0  0
   -8.6715   19.2095  -32.8314 H   0  0  0  0  0  0  0  0  0  0  0  0
   -9.2574   21.5370  -32.0922 H   0  0  0  0  0  0  0  0  0  0  0  0
   -8.1268   23.9601  -31.0736 H   0  0  0  0  0  0  0  0  0  0  0  0
   -3.4720   24.9540  -31.2550 H   0  0  0  0  0  0  0  0  0  0  0  0
   -3.8700   26.4150  -30.2880 H   0  0  0  0  0  0  0  0  0  0  0  0
   -4.4555   20.0423  -32.0759 H   0  0  0  0  0  0  0  0  0  0  0  0
  1  2  1  0
  2  3  1  0
  3  4  1  0
  4  5  1  0
  5  6  1  0
  6  7  1  0
  7  8  1  0
  7  9  1  0
  9 10  1  0
 10 11  2  0
 11 12  1  0
 12 13  2  0
 13 14  1  0
 14 15  2  0
 15 16  1  0
 16 17  1  0
 16 18  2  0
 15 19  1  0
 19 20  1  0
 20 21  2  0
 20 22  1  0
 19 23  1  0
 23 24  2  0
  8  2  1  0
 24 10  1  0
  9  4  1  0
 23 13  1  0
  1 25  1  0
  1 26  1  0
  1 27  1  0
  3 28  1  0
  3 29  1  0
  4 30  1  6
  5 31  1  0
  5 32  1  0
  6 33  1  0
  6 34  1  0
  7 35  1  1
  8 36  1  0
  8 37  1  0
 11 38  1  0
 12 39  1  0
 14 40  1  0
 17 41  1  0
 17 42  1  0
 24 43  1  0
M  CHG  1  22  -1
M  END
>  <UniqueID>  (75) 
73

>  <SMILES>  (75) 
CN1C[C@H]2CC[C@@H](C1)N2c1ccc2cc(C(N)=O)n(C(=O)[S-])c2c1

>  <Energy>  (75) 
113.48211240909554

>  <Genealogy>  (75) 
CN1CC2CCC(C1)N2c1ccc2cc(C(N)=O)n(C(=O)[S-])c2c1 (protonated)
CN1C[C@H]2CC[C@@H](C1)N2c1ccc2cc(C(N)=O)n(C(=O)[S-])c2c1 (chirality)
CN1C[C@H]2CC[C@@H](C1)N2c1ccc2cc(C(N)=O)n(C(=O)[S-])c2c1 (3D coordinates assigned)
CN1C[C@H]2CC[C@@H](C1)N2c1ccc2cc(C(N)=O)n(C(=O)[S-])c2c1 (nonaromatic ring conformer: 113.48211240909554 kcal/mol)

>  <smiles>  (75) 
CN1CC2CCC(C1)N2c1ccc2cc(C(N)=O)n(C(=O)S)c2c1

>  <score_type>  (75) 
oracle

>  <origin>  (75) 
adg

>  <m_score__min__energy>  (75) 
-10.039999999999999

>  <m_primary>  (75) 
energy

$$$$
76:0
     RDKit          3D

 39 40  0  0  0  0  0  0  0  0999 V2000
   -6.7570   25.1010  -29.7510 C   0  0  0  0  0  0  0  0  0  0  0  0
   -5.7990   24.1810  -29.8550 C   0  0  0  0  0  0  0  0  0  0  0  0
   -4.4620   24.4860  -30.3990 C   0  0  0  0  0  0  0  0  0  0  0  0
   -4.1980   25.6410  -30.8350 O   0  0  0  0  0  0  0  0  0  0  0  0
   -3.4340   23.4840  -30.3880 N   0  0  0  0  0  0  0  0  0  0  0  0
   -2.2770   23.4730  -29.6650 C   0  0  0  0  0  0  0  0  0  0  0  0
   -1.9030   24.4450  -28.6180 C   0  0  0  0  0  0  0  0  0  0  0  0
   -1.6100   25.7950  -28.9730 N   0  0  0  0  0  0  0  0  0  0  0  0
   -1.8070   24.0890  -27.4130 O   0  0  0  0  0  0  0  0  0  0  0  0
   -1.5120   22.3540  -29.9890 C   0  0  0  0  0  0  0  0  0  0  0  0
   -2.2450   21.6710  -30.9330 C   0  0  0  0  0  0  0  0  0  0  0  0
   -1.9600   20.4880  -31.6060 C   0  0  0  0  0  0  0  0  0  0  0  0
   -2.8950   20.0240  -32.5470 C   0  0  0  0  0  0  0  0  0  0  0  0
   -4.0880   20.7500  -32.8080 C   0  0  0  0  0  0  0  0  0  0  0  0
   -5.0390   20.2690  -33.7890 N   0  0  0  0  0  0  0  0  0  0  0  0
   -6.0640   19.3450  -33.2330 C   0  0  0  0  0  0  0  0  0  0  0  0
   -7.4500   20.0310  -33.1550 C   0  0  0  0  0  0  0  0  0  0  0  0
   -5.6560   18.9580  -31.7930 C   0  0  0  0  0  0  0  0  0  0  0  0
   -6.1460   18.0710  -34.0620 C   0  0  0  0  0  0  0  0  0  0  0  0
   -5.5180   17.9830  -35.1500 O   0  0  0  0  0  0  0  0  0  0  0  0
   -6.9440   17.0060  -33.6580 O   0  0  0  0  0  0  0  0  0  0  0  0
   -4.3460   21.9420  -32.0900 C   0  0  0  0  0  0  0  0  0  0  0  0
   -3.4010   22.3730  -31.1520 C   0  0  0  0  0  0  0  0  0  0  0  0
   -7.7396   24.8277  -29.3389 H   0  0  0  0  0  0  0  0  0  0  0  0
   -6.5654   26.1339  -30.0773 H   0  0  0  0  0  0  0  0  0  0  0  0
   -6.0131   23.1546  -29.5225 H   0  0  0  0  0  0  0  0  0  0  0  0
   -1.2350   26.0320  -29.9180 H   0  0  0  0  0  0  0  0  0  0  0  0
   -0.5305   22.0756  -29.5776 H   0  0  0  0  0  0  0  0  0  0  0  0
   -1.0314   19.9326  -31.4080 H   0  0  0  0  0  0  0  0  0  0  0  0
   -2.7006   19.0865  -33.0885 H   0  0  0  0  0  0  0  0  0  0  0  0
   -4.5160   19.7900  -34.5610 H   0  0  0  0  0  0  0  0  0  0  0  0
   -5.5110   21.0950  -34.2290 H   0  0  0  0  0  0  0  0  0  0  0  0
   -7.7314   20.1703  -32.1008 H   0  0  0  0  0  0  0  0  0  0  0  0
   -7.4032   21.0100  -33.6544 H   0  0  0  0  0  0  0  0  0  0  0  0
   -8.2000   19.4001  -33.6544 H   0  0  0  0  0  0  0  0  0  0  0  0
   -6.2601   19.5310  -31.0742 H   0  0  0  0  0  0  0  0  0  0  0  0
   -5.8269   17.8822  -31.6401 H   0  0  0  0  0  0  0  0  0  0  0  0
   -4.5907   19.1854  -31.6401 H   0  0  0  0  0  0  0  0  0  0  0  0
   -5.2677   22.5163  -32.2651 H   0  0  0  0  0  0  0  0  0  0  0  0
  1  2  2  0
  2  3  1  0
  3  4  2  0
  3  5  1  0
  5  6  1  0
  6  7  1  0
  7  8  1  0
  7  9  2  0
  6 10  2  0
 10 11  1  0
 11 12  2  0
 12 13  1  0
 13 14  2  0
 14 15  1  0
 15 16  1  0
 16 17  1  0
 16 18  1  0
 16 19  1  0
 19 20  2  0
 19 21  1  0
 14 22  1  0
 22 23  2  0
 23  5  1  0
 23 11  1  0
  1 24  1  0
  1 25  1  0
  2 26  1  0
  8 27  1  0
 10 28  1  0
 12 29  1  0
 13 30  1  0
 15 31  1  0
 15 32  1  0
 17 33  1  0
 17 34  1  0
 17 35  1  0
 18 36  1  0
 18 37  1  0
 18 38  1  0
 22 39  1  0
M  CHG  3   8  -1  15   1  21  -1
M  END
>  <UniqueID>  (76) 
74

>  <SMILES>  (76) 
C=CC(=O)n1c(C([NH-])=O)cc2ccc([NH2+]C(C)(C)C(=O)[O-])cc21

>  <Energy>  (76) 
80.31475968324861

>  <Genealogy>  (76) 
C=CC(=O)n1c(C([NH-])=O)cc2ccc([NH2+]C(C)(C)C(=O)[O-])cc21 (protonated)
C=CC(=O)n1c(C([NH-])=O)cc2ccc([NH2+]C(C)(C)C(=O)[O-])cc21 (3D coordinates assigned)
C=CC(=O)n1c(C([NH-])=O)cc2ccc([NH2+]C(C)(C)C(=O)[O-])cc21 (optimized conformer: 80.31475968324861 kcal/mol)

>  <smiles>  (76) 
C=CC(=O)n1c(C(N)=O)cc2ccc(NC(C)(C)C(=O)O)cc21

>  <score_type>  (76) 
oracle

>  <origin>  (76) 
adg

>  <m_score__min__energy>  (76) 
-9.9600000000000009

>  <m_primary>  (76) 
energy

$$$$
77:0
     RDKit          3D

 39 41  0  0  0  0  0  0  0  0999 V2000
   -4.4570   17.5590  -34.9800 C   0  0  0  0  0  0  0  0  0  0  0  0
   -5.3700   17.5340  -33.7980 C   0  0  0  0  0  0  0  0  0  0  0  0
   -5.1780   16.8100  -32.6350 C   0  0  0  0  0  0  0  0  0  0  0  0
   -6.2460   17.1570  -31.8280 C   0  0  0  0  0  0  0  0  0  0  0  0
   -7.0050   18.0560  -32.4860 N   0  0  0  0  0  0  0  0  0  0  0  0
   -8.2630   18.6310  -32.0160 C   0  0  0  0  0  0  0  0  0  0  0  0
   -8.1030   20.1120  -31.8240 C   0  0  0  0  0  0  0  0  0  0  0  0
   -9.2170   20.9740  -31.9730 C   0  0  0  0  0  0  0  0  0  0  0  0
   -9.0830   22.3570  -31.7640 C   0  0  0  0  0  0  0  0  0  0  0  0
   -7.8340   22.8420  -31.3890 C   0  0  0  0  0  0  0  0  0  0  0  0
   -7.4240   24.1310  -31.1380 C   0  0  0  0  0  0  0  0  0  0  0  0
   -6.0760   24.0320  -30.8010 C   0  0  0  0  0  0  0  0  0  0  0  0
   -5.2580   25.1860  -30.3690 C   0  0  0  0  0  0  0  0  0  0  0  0
   -3.8740   25.2400  -30.7090 N   0  0  0  0  0  0  0  0  0  0  0  0
   -5.7740   26.1410  -29.7330 O   0  0  0  0  0  0  0  0  0  0  0  0
   -5.6650   22.7320  -30.8500 N   0  0  0  0  0  0  0  0  0  0  0  0
   -4.3460   22.2120  -30.6220 C   0  0  0  0  0  0  0  0  0  0  0  0
   -4.0610   21.7020  -29.5050 O   0  0  0  0  0  0  0  0  0  0  0  0
   -3.3850   22.3030  -31.6430 O   0  0  0  0  0  0  0  0  0  0  0  0
   -3.3180   21.5160  -32.8040 C   0  0  0  0  0  0  0  0  0  0  0  0
   -4.3690   20.9860  -33.3730 C   0  0  0  0  0  0  0  0  0  0  0  0
   -5.3630   20.4830  -33.9120 O   0  0  0  0  0  0  0  0  0  0  0  0
   -6.7540   22.0180  -31.2100 C   0  0  0  0  0  0  0  0  0  0  0  0
   -6.8530   20.6390  -31.4310 C   0  0  0  0  0  0  0  0  0  0  0  0
   -6.4800   18.2840  -33.6790 N   0  0  0  0  0  0  0  0  0  0  0  0
   -3.4126   17.5876  -34.6360 H   0  0  0  0  0  0  0  0  0  0  0  0
   -4.6185   16.6561  -35.5872 H   0  0  0  0  0  0  0  0  0  0  0  0
   -4.6676   18.4517  -35.5872 H   0  0  0  0  0  0  0  0  0  0  0  0
   -4.3585   16.1136  -32.4037 H   0  0  0  0  0  0  0  0  0  0  0  0
   -6.4430   16.7654  -30.8191 H   0  0  0  0  0  0  0  0  0  0  0  0
   -9.0516   18.4419  -32.7592 H   0  0  0  0  0  0  0  0  0  0  0  0
   -8.5394   18.1675  -31.0575 H   0  0  0  0  0  0  0  0  0  0  0  0
  -10.1952   20.5572  -32.2547 H   0  0  0  0  0  0  0  0  0  0  0  0
   -9.9392   23.0354  -31.8929 H   0  0  0  0  0  0  0  0  0  0  0  0
   -8.0320   25.0461  -31.1920 H   0  0  0  0  0  0  0  0  0  0  0  0
   -3.4850   26.0460  -31.2450 H   0  0  0  0  0  0  0  0  0  0  0  0
   -2.3320   21.3365  -33.2574 H   0  0  0  0  0  0  0  0  0  0  0  0
   -5.9796   19.9829  -31.3019 H   0  0  0  0  0  0  0  0  0  0  0  0
   -6.8750   18.9340  -34.3950 H   0  0  0  0  0  0  0  0  0  0  0  0
  1  2  1  0
  2  3  1  0
  3  4  2  0
  4  5  1  0
  5  6  1  0
  6  7  1  0
  7  8  2  0
  8  9  1  0
  9 10  2  0
 10 11  1  0
 11 12  2  0
 12 13  1  0
 13 14  1  0
 13 15  2  0
 12 16  1  0
 16 17  1  0
 17 18  2  0
 17 19  1  0
 19 20  1  0
 20 21  2  0
 21 22  2  0
 16 23  1  0
 23 24  2  0
  5 25  1  0
 25  2  2  0
 24  7  1  0
 23 10  1  0
  1 26  1  0
  1 27  1  0
  1 28  1  0
  3 29  1  0
  4 30  1  0
  6 31  1  0
  6 32  1  0
  8 33  1  0
  9 34  1  0
 11 35  1  0
 14 36  1  0
 20 37  1  0
 24 38  1  0
 25 39  1  0
M  CHG  2  14  -1  25   1
M  END
>  <UniqueID>  (77) 
75

>  <SMILES>  (77) 
Cc1ccn(Cc2ccc3cc(C([NH-])=O)n(C(=O)OC=C=O)c3c2)[nH+]1

>  <Energy>  (77) 
108.89363658567666

>  <Genealogy>  (77) 
Cc1ccn(Cc2ccc3cc(C([NH-])=O)n(C(=O)OC=C=O)c3c2)[nH+]1 (protonated)
Cc1ccn(Cc2ccc3cc(C([NH-])=O)n(C(=O)OC=C=O)c3c2)[nH+]1 (3D coordinates assigned)
Cc1ccn(Cc2ccc3cc(C([NH-])=O)n(C(=O)OC=C=O)c3c2)[nH+]1 (optimized conformer: 108.89363658567666 kcal/mol)

>  <smiles>  (77) 
Cc1ccn(Cc2ccc3cc(C(N)=O)n(C(=O)OC=C=O)c3c2)n1

>  <score_type>  (77) 
oracle

>  <origin>  (77) 
adg

>  <m_score__min__energy>  (77) 
-10.65

>  <m_primary>  (77) 
energy

$$$$
78:0
     RDKit          3D

 49 50  0  0  0  0  0  0  0  0999 V2000
   -1.3050   20.8320  -28.7120 C   0  0  0  0  0  0  0  0  0  0  0  0
   -1.8770   22.0380  -29.3230 N   0  0  0  0  0  0  0  0  0  0  0  0
   -0.9620   23.0350  -29.8950 C   0  0  0  0  0  0  0  0  0  0  0  0
   -0.7100   24.1470  -28.9240 C   0  0  0  0  0  0  0  0  0  0  0  0
    0.4730   24.4470  -28.6080 O   0  0  0  0  0  0  0  0  0  0  0  0
   -1.8010   24.8720  -28.4230 O   0  0  0  0  0  0  0  0  0  0  0  0
   -2.3060   24.8240  -27.0790 C   0  0  0  0  0  0  0  0  0  0  0  0
   -3.8300   24.5830  -27.0790 C   0  0  0  0  0  0  0  0  0  0  0  0
   -1.9590   26.1220  -26.3240 C   0  0  0  0  0  0  0  0  0  0  0  0
   -1.6170   23.6410  -26.3780 C   0  0  0  0  0  0  0  0  0  0  0  0
   -3.3000   22.1590  -29.5540 C   0  0  0  0  0  0  0  0  0  0  0  0
   -4.0870   22.1600  -28.5680 O   0  0  0  0  0  0  0  0  0  0  0  0
   -3.8830   22.2930  -30.9090 C   0  0  0  0  0  0  0  0  0  0  0  0
   -3.1800   22.1080  -31.9380 O   0  0  0  0  0  0  0  0  0  0  0  0
   -5.2740   22.6100  -31.0640 N   0  0  0  0  0  0  0  0  0  0  0  0
   -5.8700   23.8270  -30.9310 C   0  0  0  0  0  0  0  0  0  0  0  0
   -5.1990   25.0790  -30.5200 C   0  0  0  0  0  0  0  0  0  0  0  0
   -3.8360   25.3260  -30.8500 N   0  0  0  0  0  0  0  0  0  0  0  0
   -5.8360   25.9380  -29.8530 O   0  0  0  0  0  0  0  0  0  0  0  0
   -7.2330   23.7310  -31.2130 C   0  0  0  0  0  0  0  0  0  0  0  0
   -7.4490   22.4070  -31.5260 C   0  0  0  0  0  0  0  0  0  0  0  0
   -8.6150   21.7540  -31.9160 C   0  0  0  0  0  0  0  0  0  0  0  0
   -8.5340   20.3840  -32.2170 C   0  0  0  0  0  0  0  0  0  0  0  0
   -7.3020   19.6880  -32.1100 C   0  0  0  0  0  0  0  0  0  0  0  0
   -7.2180   18.2330  -32.4940 C   0  0  0  0  0  0  0  0  0  0  0  0
   -6.8620   18.0990  -33.8240 F   0  0  0  0  0  0  0  0  0  0  0  0
   -8.4400   17.6080  -32.3090 F   0  0  0  0  0  0  0  0  0  0  0  0
   -6.2700   17.6090  -31.7060 F   0  0  0  0  0  0  0  0  0  0  0  0
   -6.1350   20.3940  -31.7360 C   0  0  0  0  0  0  0  0  0  0  0  0
   -6.2500   21.7530  -31.4290 C   0  0  0  0  0  0  0  0  0  0  0  0
   -1.3471   20.9208  -27.6164 H   0  0  0  0  0  0  0  0  0  0  0  0
   -1.8811   19.9509  -29.0309 H   0  0  0  0  0  0  0  0  0  0  0  0
   -0.2581   20.7206  -29.0309 H   0  0  0  0  0  0  0  0  0  0  0  0
   -0.0068   22.5481  -30.1411 H   0  0  0  0  0  0  0  0  0  0  0  0
   -1.4225   23.4564  -30.8008 H   0  0  0  0  0  0  0  0  0  0  0  0
   -4.1922   24.5257  -26.0419 H   0  0  0  0  0  0  0  0  0  0  0  0
   -4.3325   25.4128  -27.5975 H   0  0  0  0  0  0  0  0  0  0  0  0
   -4.0519   23.6386  -27.5975 H   0  0  0  0  0  0  0  0  0  0  0  0
   -2.0077   25.9400  -25.2403 H   0  0  0  0  0  0  0  0  0  0  0  0
   -0.9432   26.4443  -26.5964 H   0  0  0  0  0  0  0  0  0  0  0  0
   -2.6785   26.9082  -26.5964 H   0  0  0  0  0  0  0  0  0  0  0  0
   -1.6906   23.7674  -25.2878 H   0  0  0  0  0  0  0  0  0  0  0  0
   -2.1099   22.7027  -26.6724 H   0  0  0  0  0  0  0  0  0  0  0  0
   -0.5577   23.6068  -26.6724 H   0  0  0  0  0  0  0  0  0  0  0  0
   -3.0870   25.2770  -30.1250 H   0  0  0  0  0  0  0  0  0  0  0  0
   -7.9772   24.5407  -31.1902 H   0  0  0  0  0  0  0  0  0  0  0  0
   -9.5706   22.2942  -31.9864 H   0  0  0  0  0  0  0  0  0  0  0  0
   -9.4366   19.8443  -32.5395 H   0  0  0  0  0  0  0  0  0  0  0  0
   -5.1605   19.8861  -31.6878 H   0  0  0  0  0  0  0  0  0  0  0  0
  1  2  1  0
  2  3  1  0
  3  4  1  0
  4  5  2  0
  4  6  1  0
  6  7  1  0
  7  8  1  0
  7  9  1  0
  7 10  1  0
  2 11  1  0
 11 12  2  0
 11 13  1  0
 13 14  2  0
 13 15  1  0
 15 16  1  0
 16 17  1  0
 17 18  1  0
 17 19  2  0
 16 20  2  0
 20 21  1  0
 21 22  2  0
 22 23  1  0
 23 24  2  0
 24 25  1  0
 25 26  1  0
 25 27  1  0
 25 28  1  0
 24 29  1  0
 29 30  2  0
 30 15  1  0
 30 21  1  0
  1 31  1  0
  1 32  1  0
  1 33  1  0
  3 34  1  0
  3 35  1  0
  8 36  1  0
  8 37  1  0
  8 38  1  0
  9 39  1  0
  9 40  1  0
  9 41  1  0
 10 42  1  0
 10 43  1  0
 10 44  1  0
 18 45  1  0
 20 46  1  0
 22 47  1  0
 23 48  1  0
 29 49  1  0
M  CHG  1  18  -1
M  END
>  <UniqueID>  (78) 
76

>  <SMILES>  (78) 
CN(CC(=O)OC(C)(C)C)C(=O)C(=O)n1c(C([NH-])=O)cc2ccc(C(F)(F)F)cc21

>  <Energy>  (78) 
84.79316332424115

>  <Genealogy>  (78) 
CN(CC(=O)OC(C)(C)C)C(=O)C(=O)n1c(C([NH-])=O)cc2ccc(C(F)(F)F)cc21 (protonated)
CN(CC(=O)OC(C)(C)C)C(=O)C(=O)n1c(C([NH-])=O)cc2ccc(C(F)(F)F)cc21 (3D coordinates assigned)
CN(CC(=O)OC(C)(C)C)C(=O)C(=O)n1c(C([NH-])=O)cc2ccc(C(F)(F)F)cc21 (optimized conformer: 84.79316332424115 kcal/mol)

>  <smiles>  (78) 
CN(CC(=O)OC(C)(C)C)C(=O)C(=O)n1c(C(N)=O)cc2ccc(C(F)(F)F)cc21

>  <score_type>  (78) 
oracle

>  <origin>  (78) 
adg

>  <m_score__min__energy>  (78) 
-10.73

>  <m_primary>  (78) 
energy

$$$$
79:0
     RDKit          3D

 44 46  0  0  0  0  0  0  0  0999 V2000
   -4.1640   25.5030  -30.5860 N   0  0  0  0  0  0  0  0  0  0  0  0
   -5.5160   25.0600  -30.4500 C   0  0  0  0  0  0  0  0  0  0  0  0
   -6.3390   25.7880  -29.8330 O   0  0  0  0  0  0  0  0  0  0  0  0
   -5.9410   23.7490  -30.9890 C   0  0  0  0  0  0  0  0  0  0  0  0
   -7.2680   23.4090  -31.2460 C   0  0  0  0  0  0  0  0  0  0  0  0
   -7.2200   22.1620  -31.8230 C   0  0  0  0  0  0  0  0  0  0  0  0
   -8.2520   21.3450  -32.2750 C   0  0  0  0  0  0  0  0  0  0  0  0
   -7.9140   20.0900  -32.8070 C   0  0  0  0  0  0  0  0  0  0  0  0
   -6.5620   19.6730  -32.8730 C   0  0  0  0  0  0  0  0  0  0  0  0
   -6.2290   18.3840  -33.4150 N   0  0  0  0  0  0  0  0  0  0  0  0
   -5.3070   18.3000  -34.5630 C   0  0  0  0  0  0  0  0  0  0  0  0
   -4.1300   17.3240  -34.3270 C   0  0  0  0  0  0  0  0  0  0  0  0
   -4.4230   16.1740  -33.3480 C   0  0  0  0  0  0  0  0  0  0  0  0
   -5.5440   15.3130  -33.7620 N   0  0  0  0  0  0  0  0  0  0  0  0
   -6.8560   15.9780  -33.8260 C   0  0  0  0  0  0  0  0  0  0  0  0
   -6.9570   17.2060  -32.9050 C   0  0  0  0  0  0  0  0  0  0  0  0
   -5.5400   20.5310  -32.4070 C   0  0  0  0  0  0  0  0  0  0  0  0
   -5.9040   21.7830  -31.8970 C   0  0  0  0  0  0  0  0  0  0  0  0
   -5.1050   22.7480  -31.3880 N   0  0  0  0  0  0  0  0  0  0  0  0
   -3.6760   22.6860  -31.2460 C   0  0  0  0  0  0  0  0  0  0  0  0
   -2.9460   22.6280  -32.2730 O   0  0  0  0  0  0  0  0  0  0  0  0
   -3.1080   22.7080  -29.9650 O   0  0  0  0  0  0  0  0  0  0  0  0
   -1.7580   22.9540  -29.6860 C   0  0  0  0  0  0  0  0  0  0  0  0
   -0.8930   22.0400  -29.7760 O   0  0  0  0  0  0  0  0  0  0  0  0
   -1.3440   24.3010  -29.2840 C   0  0  0  0  0  0  0  0  0  0  0  0
   -2.1590   25.2580  -29.3460 O   0  0  0  0  0  0  0  0  0  0  0  0
   -0.0500   24.5300  -28.8310 O   0  0  0  0  0  0  0  0  0  0  0  0
   -3.4660   24.9550  -31.1360 H   0  0  0  0  0  0  0  0  0  0  0  0
   -3.8650   26.4110  -30.1670 H   0  0  0  0  0  0  0  0  0  0  0  0
   -8.1637   24.0107  -31.0325 H   0  0  0  0  0  0  0  0  0  0  0  0
   -9.3006   21.6723  -32.2173 H   0  0  0  0  0  0  0  0  0  0  0  0
   -8.7076   19.4238  -33.1763 H   0  0  0  0  0  0  0  0  0  0  0  0
   -5.8732   17.9592  -35.4424 H   0  0  0  0  0  0  0  0  0  0  0  0
   -4.8773   19.3016  -34.7121 H   0  0  0  0  0  0  0  0  0  0  0  0
   -3.8523   16.8842  -35.2962 H   0  0  0  0  0  0  0  0  0  0  0  0
   -3.3255   17.9187  -33.8696 H   0  0  0  0  0  0  0  0  0  0  0  0
   -3.5200   15.5514  -33.2638 H   0  0  0  0  0  0  0  0  0  0  0  0
   -4.7081   16.6332  -32.3899 H   0  0  0  0  0  0  0  0  0  0  0  0
   -5.3320   14.9290  -34.7130 H   0  0  0  0  0  0  0  0  0  0  0  0
   -7.0338   16.3021  -34.8620 H   0  0  0  0  0  0  0  0  0  0  0  0
   -7.6085   15.2511  -33.4863 H   0  0  0  0  0  0  0  0  0  0  0  0
   -8.0185   17.4729  -32.7953 H   0  0  0  0  0  0  0  0  0  0  0  0
   -6.4956   16.9303  -31.9452 H   0  0  0  0  0  0  0  0  0  0  0  0
   -4.4847   20.2227  -32.4441 H   0  0  0  0  0  0  0  0  0  0  0  0
  1  2  1  0
  2  3  2  0
  2  4  1  0
  4  5  2  0
  5  6  1  0
  6  7  2  0
  7  8  1  0
  8  9  2  0
  9 10  1  0
 10 11  1  0
 11 12  1  0
 12 13  1  0
 13 14  1  0
 14 15  1  0
 15 16  1  0
  9 17  1  0
 17 18  2  0
 18 19  1  0
 19 20  1  0
 20 21  2  0
 20 22  1  0
 22 23  1  0
 23 24  2  0
 23 25  1  0
 25 26  2  0
 25 27  1  0
 19  4  1  0
 18  6  1  0
 16 10  1  0
  1 28  1  0
  1 29  1  0
  5 30  1  0
  7 31  1  0
  8 32  1  0
 11 33  1  0
 11 34  1  0
 12 35  1  0
 12 36  1  0
 13 37  1  0
 13 38  1  0
 14 39  1  0
 15 40  1  0
 15 41  1  0
 16 42  1  0
 16 43  1  0
 17 44  1  0
M  CHG  1  27  -1
M  END
>  <UniqueID>  (79) 
77

>  <SMILES>  (79) 
NC(=O)c1cc2ccc(N3CCCNCC3)cc2n1C(=O)OC(=O)C(=O)[O-]

>  <Energy>  (79) 
97.37162133013227

>  <Genealogy>  (79) 
NC(=O)c1cc2ccc(N3CCCNCC3)cc2n1C(=O)OC(=O)C(=O)[O-] (protonated)
NC(=O)c1cc2ccc(N3CCCNCC3)cc2n1C(=O)OC(=O)C(=O)[O-] (3D coordinates assigned)
NC(=O)c1cc2ccc(N3CCCNCC3)cc2n1C(=O)OC(=O)C(=O)[O-] (nonaromatic ring conformer: 97.37162133013227 kcal/mol)

>  <smiles>  (79) 
NC(=O)c1cc2ccc(N3CCCNCC3)cc2n1C(=O)OC(=O)C(=O)O

>  <score_type>  (79) 
oracle

>  <origin>  (79) 
adg

>  <m_score__min__energy>  (79) 
-9.3800000000000008

>  <m_primary>  (79) 
energy

$$$$
80:0
     RDKit          3D

 40 41  0  0  0  0  0  0  0  0999 V2000
   -8.1110   18.6960  -32.6310 C   0  0  0  0  0  0  0  0  0  0  0  0
   -7.9460   20.1300  -32.2250 C   0  0  0  0  0  0  0  0  0  0  0  0
   -9.0890   20.9270  -31.9710 C   0  0  0  0  0  0  0  0  0  0  0  0
   -8.9510   22.2620  -31.5550 C   0  0  0  0  0  0  0  0  0  0  0  0
   -7.6640   22.7600  -31.3790 C   0  0  0  0  0  0  0  0  0  0  0  0
   -7.2500   24.0160  -30.9990 C   0  0  0  0  0  0  0  0  0  0  0  0
   -5.8600   23.9560  -30.9840 C   0  0  0  0  0  0  0  0  0  0  0  0
   -5.0080   25.0840  -30.5570 C   0  0  0  0  0  0  0  0  0  0  0  0
   -3.7100   24.8620  -30.0060 N   0  0  0  0  0  0  0  0  0  0  0  0
   -5.4560   26.2600  -30.6240 O   0  0  0  0  0  0  0  0  0  0  0  0
   -5.4250   22.7180  -31.3560 N   0  0  0  0  0  0  0  0  0  0  0  0
   -4.0660   22.3160  -31.6010 C   0  0  0  0  0  0  0  0  0  0  0  0
   -3.6030   22.3180  -32.7750 O   0  0  0  0  0  0  0  0  0  0  0  0
   -3.2550   21.9250  -30.5310 O   0  0  0  0  0  0  0  0  0  0  0  0
   -1.8320   21.9960  -30.5690 C   0  0  0  0  0  0  0  0  0  0  0  0
   -1.3710   23.0490  -29.7260 O   0  0  0  0  0  0  0  0  0  0  0  0
   -1.7260   23.1470  -28.3740 C   0  0  0  0  0  0  0  0  0  0  0  0
   -1.4710   22.2040  -27.5760 O   0  0  0  0  0  0  0  0  0  0  0  0
   -2.3600   24.3070  -27.9200 O   0  0  0  0  0  0  0  0  0  0  0  0
   -1.7080   25.2570  -27.0840 C   0  0  0  0  0  0  0  0  0  0  0  0
   -0.9370   26.2580  -27.9350 C   0  0  0  0  0  0  0  0  0  0  0  0
   -1.2330   26.0580  -29.2900 O   0  0  0  0  0  0  0  0  0  0  0  0
   -6.5450   21.9940  -31.5910 C   0  0  0  0  0  0  0  0  0  0  0  0
   -6.6560   20.6680  -32.0290 C   0  0  0  0  0  0  0  0  0  0  0  0
   -8.1834   18.0664  -31.7319 H   0  0  0  0  0  0  0  0  0  0  0  0
   -9.0276   18.5875  -33.2295 H   0  0  0  0  0  0  0  0  0  0  0  0
   -7.2430   18.3822  -33.2295 H   0  0  0  0  0  0  0  0  0  0  0  0
  -10.0932   20.4972  -32.1005 H   0  0  0  0  0  0  0  0  0  0  0  0
   -9.8332   22.8937  -31.3741 H   0  0  0  0  0  0  0  0  0  0  0  0
   -7.8830   24.8828  -30.7584 H   0  0  0  0  0  0  0  0  0  0  0  0
   -3.3640   23.8950  -29.8230 H   0  0  0  0  0  0  0  0  0  0  0  0
   -3.1090   25.6720  -29.7340 H   0  0  0  0  0  0  0  0  0  0  0  0
   -1.4107   21.0411  -30.2216 H   0  0  0  0  0  0  0  0  0  0  0  0
   -1.5090   22.1942  -31.6017 H   0  0  0  0  0  0  0  0  0  0  0  0
   -2.4598   25.7913  -26.4847 H   0  0  0  0  0  0  0  0  0  0  0  0
   -1.0059   24.7316  -26.4199 H   0  0  0  0  0  0  0  0  0  0  0  0
   -1.2235   27.2799  -27.6458 H   0  0  0  0  0  0  0  0  0  0  0  0
    0.1419   26.1154  -27.7745 H   0  0  0  0  0  0  0  0  0  0  0  0
   -1.0540   25.0990  -29.4680 H   0  0  0  0  0  0  0  0  0  0  0  0
   -5.7585   20.0601  -32.2159 H   0  0  0  0  0  0  0  0  0  0  0  0
  1  2  1  0
  2  3  2  0
  3  4  1  0
  4  5  2  0
  5  6  1  0
  6  7  2  0
  7  8  1  0
  8  9  1  0
  8 10  2  0
  7 11  1  0
 11 12  1  0
 12 13  2  0
 12 14  1  0
 14 15  1  0
 15 16  1  0
 16 17  1  0
 17 18  2  0
 17 19  1  0
 19 20  1  0
 20 21  1  0
 21 22  1  0
 11 23  1  0
 23 24  2  0
 24  2  1  0
 23  5  1  0
  1 25  1  0
  1 26  1  0
  1 27  1  0
  3 28  1  0
  4 29  1  0
  6 30  1  0
  9 31  1  0
  9 32  1  0
 15 33  1  0
 15 34  1  0
 20 35  1  0
 20 36  1  0
 21 37  1  0
 21 38  1  0
 22 39  1  0
 24 40  1  0
M  END
>  <UniqueID>  (80) 
78

>  <SMILES>  (80) 
Cc1ccc2cc(C(N)=O)n(C(=O)OCOC(=O)OCCO)c2c1

>  <Energy>  (80) 
70.52193344003483

>  <Genealogy>  (80) 
Cc1ccc2cc(C(N)=O)n(C(=O)OCOC(=O)OCCO)c2c1 (3D coordinates assigned)
Cc1ccc2cc(C(N)=O)n(C(=O)OCOC(=O)OCCO)c2c1 (optimized conformer: 70.52193344003483 kcal/mol)

>  <smiles>  (80) 
Cc1ccc2cc(C(N)=O)n(C(=O)OCOC(=O)OCCO)c2c1

>  <score_type>  (80) 
oracle

>  <origin>  (80) 
adg

>  <m_score__min__energy>  (80) 
-7.5199999999999996

>  <m_primary>  (80) 
energy

$$$$
81:0
     RDKit          3D

 47 49  0  0  0  0  0  0  0  0999 V2000
   -1.7860   25.6150  -28.9550 N   0  0  0  0  0  0  0  0  0  0  0  0
   -1.0830   24.3770  -29.0260 C   0  0  0  0  0  0  0  0  0  0  0  0
    0.0410   24.2730  -28.4660 O   0  0  0  0  0  0  0  0  0  0  0  0
   -1.6270   23.2350  -29.7910 C   0  0  0  0  0  0  0  0  0  0  0  0
   -0.9410   22.6150  -30.8340 C   0  0  0  0  0  0  0  0  0  0  0  0
   -1.8110   21.6720  -31.3320 C   0  0  0  0  0  0  0  0  0  0  0  0
   -1.6440   20.7630  -32.3700 C   0  0  0  0  0  0  0  0  0  0  0  0
   -2.7010   19.8820  -32.6520 C   0  0  0  0  0  0  0  0  0  0  0  0
   -3.8990   19.9140  -31.8860 C   0  0  0  0  0  0  0  0  0  0  0  0
   -4.9930   19.0140  -32.1480 N   0  0  0  0  0  0  0  0  0  0  0  0
   -6.3260   19.1260  -31.5540 C   0  0  0  0  0  0  0  0  0  0  0  0
   -7.3960   19.2590  -32.6590 C   0  0  0  0  0  0  0  0  0  0  0  0
   -7.9660   20.6200  -32.8040 N   0  0  0  0  0  0  0  0  0  0  0  0
   -7.0840   21.6860  -32.3070 C   0  0  0  0  0  0  0  0  0  0  0  0
   -7.6810   22.2370  -31.0180 C   0  0  0  0  0  0  0  0  0  0  0  0
   -9.0450   21.5880  -30.8700 C   0  0  0  0  0  0  0  0  0  0  0  0
   -9.2670   20.7940  -32.1480 C   0  0  0  0  0  0  0  0  0  0  0  0
   -4.0270   20.8580  -30.8440 C   0  0  0  0  0  0  0  0  0  0  0  0
   -2.9650   21.7380  -30.5990 C   0  0  0  0  0  0  0  0  0  0  0  0
   -2.8680   22.6910  -29.6450 N   0  0  0  0  0  0  0  0  0  0  0  0
   -3.8410   22.9870  -28.6320 C   0  0  0  0  0  0  0  0  0  0  0  0
   -4.1800   22.0970  -27.8040 O   0  0  0  0  0  0  0  0  0  0  0  0
   -4.3940   24.2690  -28.5540 O   0  0  0  0  0  0  0  0  0  0  0  0
   -5.4370   24.7090  -29.4160 C   0  0  0  0  0  0  0  0  0  0  0  0
   -4.8770   24.9550  -30.7770 C   0  0  0  0  0  0  0  0  0  0  0  0
   -3.8530   25.6740  -30.9210 O   0  0  0  0  0  0  0  0  0  0  0  0
   -5.4580   24.3520  -31.8860 O   0  0  0  0  0  0  0  0  0  0  0  0
   -2.7960   25.6740  -29.2080 H   0  0  0  0  0  0  0  0  0  0  0  0
    0.0786   22.8330  -31.1845 H   0  0  0  0  0  0  0  0  0  0  0  0
   -0.7118   20.7344  -32.9533 H   0  0  0  0  0  0  0  0  0  0  0  0
   -2.6011   19.1589  -33.4749 H   0  0  0  0  0  0  0  0  0  0  0  0
   -4.8280   18.2080  -32.7940 H   0  0  0  0  0  0  0  0  0  0  0  0
   -6.5329   18.2270  -30.9549 H   0  0  0  0  0  0  0  0  0  0  0  0
   -6.3587   20.0207  -30.9149 H   0  0  0  0  0  0  0  0  0  0  0  0
   -6.9369   18.9752  -33.6175 H   0  0  0  0  0  0  0  0  0  0  0  0
   -8.2284   18.6012  -32.3685 H   0  0  0  0  0  0  0  0  0  0  0  0
   -6.0821   21.2777  -32.1084 H   0  0  0  0  0  0  0  0  0  0  0  0
   -6.9959   22.4860  -33.0568 H   0  0  0  0  0  0  0  0  0  0  0  0
   -7.0413   21.9791  -30.1611 H   0  0  0  0  0  0  0  0  0  0  0  0
   -7.7610   23.3336  -31.0507 H   0  0  0  0  0  0  0  0  0  0  0  0
   -9.0584   20.9195  -29.9965 H   0  0  0  0  0  0  0  0  0  0  0  0
   -9.8354   22.3375  -30.7166 H   0  0  0  0  0  0  0  0  0  0  0  0
   -9.6982   19.8112  -31.9070 H   0  0  0  0  0  0  0  0  0  0  0  0
   -9.9628   21.3263  -32.8132 H   0  0  0  0  0  0  0  0  0  0  0  0
   -4.9429   20.9016  -30.2363 H   0  0  0  0  0  0  0  0  0  0  0  0
   -6.2176   23.9361  -29.4734 H   0  0  0  0  0  0  0  0  0  0  0  0
   -5.8745   25.6384  -29.0226 H   0  0  0  0  0  0  0  0  0  0  0  0
  1  2  1  0
  2  3  2  0
  2  4  1  0
  4  5  2  0
  5  6  1  0
  6  7  2  0
  7  8  1  0
  8  9  2  0
  9 10  1  0
 10 11  1  0
 11 12  1  0
 12 13  1  0
 13 14  1  0
 14 15  1  0
 15 16  1  0
 16 17  1  0
  9 18  1  0
 18 19  2  0
 19 20  1  0
 20 21  1  0
 21 22  2  0
 21 23  1  0
 23 24  1  0
 24 25  1  0
 25 26  2  0
 25 27  1  0
 20  4  1  0
 19  6  1  0
 17 13  1  0
  1 28  1  0
  5 29  1  0
  7 30  1  0
  8 31  1  0
 10 32  1  0
 11 33  1  0
 11 34  1  0
 12 35  1  0
 12 36  1  0
 14 37  1  0
 14 38  1  0
 15 39  1  0
 15 40  1  0
 16 41  1  0
 16 42  1  0
 17 43  1  0
 17 44  1  0
 18 45  1  0
 24 46  1  0
 24 47  1  0
M  CHG  2   1  -1  27  -1
M  END
>  <UniqueID>  (81) 
79

>  <SMILES>  (81) 
[NH-]C(=O)c1cc2ccc(NCCN3CCCC3)cc2n1C(=O)OCC(=O)[O-]

>  <Energy>  (81) 
87.77685378179544

>  <Genealogy>  (81) 
[NH-]C(=O)c1cc2ccc(NCCN3CCCC3)cc2n1C(=O)OCC(=O)[O-] (protonated)
[NH-]C(=O)c1cc2ccc(NCCN3CCCC3)cc2n1C(=O)OCC(=O)[O-] (3D coordinates assigned)
[NH-]C(=O)c1cc2ccc(NCCN3CCCC3)cc2n1C(=O)OCC(=O)[O-] (nonaromatic ring conformer: 87.77685378179544 kcal/mol)

>  <smiles>  (81) 
NC(=O)c1cc2ccc(NCCN3CCCC3)cc2n1C(=O)OCC(=O)O

>  <score_type>  (81) 
oracle

>  <origin>  (81) 
adg

>  <m_score__min__energy>  (81) 
-12.67

>  <m_primary>  (81) 
energy

$$$$
82:0
     RDKit          3D

 45 47  0  0  0  0  0  0  0  0999 V2000
   -3.7970   21.6890  -33.3710 C   0  0  0  0  0  0  0  0  0  0  0  0
   -3.6370   21.4940  -32.0650 C   0  0  0  0  0  0  0  0  0  0  0  0
   -4.1370   22.4470  -31.0560 C   0  0  0  0  0  0  0  0  0  0  0  0
   -3.3620   22.9050  -30.1720 O   0  0  0  0  0  0  0  0  0  0  0  0
   -5.5140   22.8540  -31.0690 N   0  0  0  0  0  0  0  0  0  0  0  0
   -6.0120   24.1070  -30.8680 C   0  0  0  0  0  0  0  0  0  0  0  0
   -5.2310   25.2940  -30.4610 C   0  0  0  0  0  0  0  0  0  0  0  0
   -3.8680   25.4410  -30.8460 N   0  0  0  0  0  0  0  0  0  0  0  0
   -5.7600   26.1700  -29.7300 O   0  0  0  0  0  0  0  0  0  0  0  0
   -7.3960   24.1130  -31.0310 C   0  0  0  0  0  0  0  0  0  0  0  0
   -7.7340   22.8130  -31.3350 C   0  0  0  0  0  0  0  0  0  0  0  0
   -8.9790   22.2470  -31.5950 C   0  0  0  0  0  0  0  0  0  0  0  0
   -9.0300   20.8760  -31.8980 C   0  0  0  0  0  0  0  0  0  0  0  0
   -7.8410   20.1060  -31.9560 C   0  0  0  0  0  0  0  0  0  0  0  0
   -7.9040   18.6320  -32.2450 C   0  0  0  0  0  0  0  0  0  0  0  0
   -6.5900   18.1640  -32.7890 C   0  0  0  0  0  0  0  0  0  0  0  0
   -5.8350   17.4570  -32.0650 O   0  0  0  0  0  0  0  0  0  0  0  0
   -6.2250   18.4610  -34.1440 N   0  0  0  0  0  0  0  0  0  0  0  0
   -5.0380   17.8750  -34.7730 C   0  0  0  0  0  0  0  0  0  0  0  0
   -3.7480   18.4090  -34.1660 C   0  0  0  0  0  0  0  0  0  0  0  0
   -2.7130   17.3280  -34.4330 C   0  0  0  0  0  0  0  0  0  0  0  0
   -3.4840   16.0160  -34.5640 C   0  0  0  0  0  0  0  0  0  0  0  0
   -4.9690   16.3690  -34.5560 C   0  0  0  0  0  0  0  0  0  0  0  0
   -6.5970   20.7160  -31.6880 C   0  0  0  0  0  0  0  0  0  0  0  0
   -6.5790   22.0760  -31.3590 C   0  0  0  0  0  0  0  0  0  0  0  0
   -3.4079   20.9519  -34.0889 H   0  0  0  0  0  0  0  0  0  0  0  0
   -4.3184   22.5873  -33.7332 H   0  0  0  0  0  0  0  0  0  0  0  0
   -3.1126   20.5889  -31.7248 H   0  0  0  0  0  0  0  0  0  0  0  0
   -3.0950   25.0900  -30.2420 H   0  0  0  0  0  0  0  0  0  0  0  0
   -8.0746   24.9736  -30.9368 H   0  0  0  0  0  0  0  0  0  0  0  0
   -9.8953   22.8549  -31.5641 H   0  0  0  0  0  0  0  0  0  0  0  0
  -10.0006   20.3960  -32.0918 H   0  0  0  0  0  0  0  0  0  0  0  0
   -8.1293   18.0873  -31.3163 H   0  0  0  0  0  0  0  0  0  0  0  0
   -8.6926   18.4414  -32.9878 H   0  0  0  0  0  0  0  0  0  0  0  0
   -6.8820   19.0400  -34.7140 H   0  0  0  0  0  0  0  0  0  0  0  0
   -5.1288   18.1363  -35.8376 H   0  0  0  0  0  0  0  0  0  0  0  0
   -3.4550   19.3530  -34.6487 H   0  0  0  0  0  0  0  0  0  0  0  0
   -3.8538   18.6248  -33.0926 H   0  0  0  0  0  0  0  0  0  0  0  0
   -2.1687   17.5441  -35.3642 H   0  0  0  0  0  0  0  0  0  0  0  0
   -1.9722   17.2760  -33.6215 H   0  0  0  0  0  0  0  0  0  0  0  0
   -3.2198   15.5150  -35.5070 H   0  0  0  0  0  0  0  0  0  0  0  0
   -3.2384   15.3320  -33.7383 H   0  0  0  0  0  0  0  0  0  0  0  0
   -5.4928   15.8407  -35.3663 H   0  0  0  0  0  0  0  0  0  0  0  0
   -5.4507   16.0732  -33.6124 H   0  0  0  0  0  0  0  0  0  0  0  0
   -5.6635   20.1361  -31.7366 H   0  0  0  0  0  0  0  0  0  0  0  0
  1  2  2  0
  2  3  1  0
  3  4  2  0
  3  5  1  0
  5  6  1  0
  6  7  1  0
  7  8  1  0
  7  9  2  0
  6 10  2  0
 10 11  1  0
 11 12  2  0
 12 13  1  0
 13 14  2  0
 14 15  1  0
 15 16  1  0
 16 17  2  0
 16 18  1  0
 18 19  1  0
 19 20  1  0
 20 21  1  0
 21 22  1  0
 22 23  1  0
 14 24  1  0
 24 25  2  0
 25  5  1  0
 25 11  1  0
 23 19  1  0
  1 26  1  0
  1 27  1  0
  2 28  1  0
  8 29  1  0
 10 30  1  0
 12 31  1  0
 13 32  1  0
 15 33  1  0
 15 34  1  0
 18 35  1  0
 19 36  1  0
 20 37  1  0
 20 38  1  0
 21 39  1  0
 21 40  1  0
 22 41  1  0
 22 42  1  0
 23 43  1  0
 23 44  1  0
 24 45  1  0
M  CHG  1   8  -1
M  END
>  <UniqueID>  (82) 
80

>  <SMILES>  (82) 
C=CC(=O)n1c(C([NH-])=O)cc2ccc(CC(=O)NC3CCCC3)cc21

>  <Energy>  (82) 
80.39381468541043

>  <Genealogy>  (82) 
C=CC(=O)n1c(C([NH-])=O)cc2ccc(CC(=O)NC3CCCC3)cc21 (protonated)
C=CC(=O)n1c(C([NH-])=O)cc2ccc(CC(=O)NC3CCCC3)cc21 (3D coordinates assigned)
C=CC(=O)n1c(C([NH-])=O)cc2ccc(CC(=O)NC3CCCC3)cc21 (nonaromatic ring conformer: 80.39381468541043 kcal/mol)

>  <smiles>  (82) 
C=CC(=O)n1c(C(N)=O)cc2ccc(CC(=O)NC3CCCC3)cc21

>  <score_type>  (82) 
oracle

>  <origin>  (82) 
adg

>  <m_score__min__energy>  (82) 
-11.69

>  <m_primary>  (82) 
energy

$$$$
83:0
     RDKit          3D

 32 34  0  0  0  0  0  0  0  0999 V2000
   -4.2140   25.5540  -30.7110 N   0  0  0  0  0  0  0  0  0  0  0  0
   -5.5560   25.1370  -30.4550 C   0  0  0  0  0  0  0  0  0  0  0  0
   -6.3190   25.8990  -29.8030 O   0  0  0  0  0  0  0  0  0  0  0  0
   -6.0590   23.8350  -30.9520 C   0  0  0  0  0  0  0  0  0  0  0  0
   -7.3930   23.5620  -31.2590 C   0  0  0  0  0  0  0  0  0  0  0  0
   -7.4190   22.2350  -31.6290 C   0  0  0  0  0  0  0  0  0  0  0  0
   -8.4810   21.4370  -32.0440 C   0  0  0  0  0  0  0  0  0  0  0  0
   -8.2080   20.1010  -32.3850 C   0  0  0  0  0  0  0  0  0  0  0  0
   -6.8830   19.5930  -32.3270 C   0  0  0  0  0  0  0  0  0  0  0  0
   -6.5980   18.1500  -32.6570 C   0  0  0  0  0  0  0  0  0  0  0  0
   -7.7020   17.3550  -32.3990 F   0  0  0  0  0  0  0  0  0  0  0  0
   -5.5370   17.7090  -31.8880 F   0  0  0  0  0  0  0  0  0  0  0  0
   -6.2720   18.0180  -33.9950 F   0  0  0  0  0  0  0  0  0  0  0  0
   -5.8360   20.4300  -31.8760 C   0  0  0  0  0  0  0  0  0  0  0  0
   -6.1430   21.7500  -31.5350 C   0  0  0  0  0  0  0  0  0  0  0  0
   -5.3000   22.7160  -31.1190 N   0  0  0  0  0  0  0  0  0  0  0  0
   -3.8790   22.5860  -30.9790 C   0  0  0  0  0  0  0  0  0  0  0  0
   -3.1360   22.7480  -31.9840 O   0  0  0  0  0  0  0  0  0  0  0  0
   -3.2690   22.3970  -29.6260 C   0  0  0  0  0  0  0  0  0  0  0  0
   -2.2790   23.4850  -29.3730 C   0  0  0  0  0  0  0  0  0  0  0  0
   -2.6090   24.7610  -29.1030 N   0  0  0  0  0  0  0  0  0  0  0  0
   -1.4510   25.3970  -29.0340 N   0  0  0  0  0  0  0  0  0  0  0  0
   -0.4600   24.5500  -29.2630 N   0  0  0  0  0  0  0  0  0  0  0  0
   -0.9470   23.3400  -29.4860 N   0  0  0  0  0  0  0  0  0  0  0  0
   -3.5320   24.9340  -31.1970 H   0  0  0  0  0  0  0  0  0  0  0  0
   -3.8830   26.4860  -30.3780 H   0  0  0  0  0  0  0  0  0  0  0  0
   -8.2432   24.2585  -31.2149 H   0  0  0  0  0  0  0  0  0  0  0  0
   -9.5030   21.8396  -32.1033 H   0  0  0  0  0  0  0  0  0  0  0  0
   -9.0299   19.4414  -32.7004 H   0  0  0  0  0  0  0  0  0  0  0  0
   -4.8063   20.0516  -31.7957 H   0  0  0  0  0  0  0  0  0  0  0  0
   -4.0573   22.4325  -28.8597 H   0  0  0  0  0  0  0  0  0  0  0  0
   -2.7622   21.4216  -29.5841 H   0  0  0  0  0  0  0  0  0  0  0  0
  1  2  1  0
  2  3  2  0
  2  4  1  0
  4  5  2  0
  5  6  1  0
  6  7  2  0
  7  8  1  0
  8  9  2  0
  9 10  1  0
 10 11  1  0
 10 12  1  0
 10 13  1  0
  9 14  1  0
 14 15  2  0
 15 16  1  0
 16 17  1  0
 17 18  2  0
 17 19  1  0
 19 20  1  0
 20 21  1  0
 21 22  2  0
 22 23  1  0
 23 24  1  0
 16  4  1  0
 24 20  2  0
 15  6  1  0
  1 25  1  0
  1 26  1  0
  5 27  1  0
  7 28  1  0
  8 29  1  0
 14 30  1  0
 19 31  1  0
 19 32  1  0
M  CHG  1  23  -1
M  END
>  <UniqueID>  (83) 
81

>  <SMILES>  (83) 
NC(=O)c1cc2ccc(C(F)(F)F)cc2n1C(=O)Cc1nn[n-]n1

>  <Energy>  (83) 
110.1257095983974

>  <Genealogy>  (83) 
NC(=O)c1cc2ccc(C(F)(F)F)cc2n1C(=O)Cc1nn[n-]n1 (protonated)
NC(=O)c1cc2ccc(C(F)(F)F)cc2n1C(=O)Cc1nn[n-]n1 (3D coordinates assigned)
NC(=O)c1cc2ccc(C(F)(F)F)cc2n1C(=O)Cc1nn[n-]n1 (optimized conformer: 110.1257095983974 kcal/mol)

>  <smiles>  (83) 
NC(=O)c1cc2ccc(C(F)(F)F)cc2n1C(=O)Cc1nn[nH]n1

>  <score_type>  (83) 
oracle

>  <origin>  (83) 
adg

>  <m_score__min__energy>  (83) 
-10.23

>  <m_primary>  (83) 
energy

$$$$
84:0
     RDKit          3D

 38 39  0  0  0  0  0  0  0  0999 V2000
   -1.5580   21.1790  -33.4640 C   0  0  0  0  0  0  0  0  0  0  0  0
   -2.2170   21.2260  -32.1540 N   0  0  0  0  0  0  0  0  0  0  0  0
   -1.5840   21.9540  -31.0500 C   0  0  0  0  0  0  0  0  0  0  0  0
   -3.4290   20.4830  -31.8950 C   0  0  0  0  0  0  0  0  0  0  0  0
   -3.7670   20.2500  -30.7020 O   0  0  0  0  0  0  0  0  0  0  0  0
   -4.3050   19.9820  -32.9780 C   0  0  0  0  0  0  0  0  0  0  0  0
   -3.8070   19.4690  -34.0150 O   0  0  0  0  0  0  0  0  0  0  0  0
   -5.7320   20.1160  -32.8760 N   0  0  0  0  0  0  0  0  0  0  0  0
   -6.6770   19.1900  -33.1990 C   0  0  0  0  0  0  0  0  0  0  0  0
   -6.4080   17.8860  -33.8490 C   0  0  0  0  0  0  0  0  0  0  0  0
   -5.5640   17.7990  -34.9990 N   0  0  0  0  0  0  0  0  0  0  0  0
   -6.9110   16.8310  -33.3790 O   0  0  0  0  0  0  0  0  0  0  0  0
   -7.9520   19.6710  -32.8980 C   0  0  0  0  0  0  0  0  0  0  0  0
   -7.7530   20.9270  -32.3700 C   0  0  0  0  0  0  0  0  0  0  0  0
   -8.6740   21.8560  -31.8920 C   0  0  0  0  0  0  0  0  0  0  0  0
   -8.1810   23.0670  -31.3790 C   0  0  0  0  0  0  0  0  0  0  0  0
   -6.7860   23.3190  -31.3340 C   0  0  0  0  0  0  0  0  0  0  0  0
   -6.2720   24.6270  -30.8040 C   0  0  0  0  0  0  0  0  0  0  0  0
   -4.8540   24.4760  -30.3530 C   0  0  0  0  0  0  0  0  0  0  0  0
   -3.8570   25.3790  -30.8250 N   0  0  0  0  0  0  0  0  0  0  0  0
   -4.5320   23.5270  -29.5900 O   0  0  0  0  0  0  0  0  0  0  0  0
   -5.8840   22.3560  -31.8360 C   0  0  0  0  0  0  0  0  0  0  0  0
   -6.4040   21.1690  -32.3630 C   0  0  0  0  0  0  0  0  0  0  0  0
   -0.4697   21.1014  -33.3244 H   0  0  0  0  0  0  0  0  0  0  0  0
   -1.9190   20.3043  -34.0249 H   0  0  0  0  0  0  0  0  0  0  0  0
   -1.7912   22.0961  -34.0249 H   0  0  0  0  0  0  0  0  0  0  0  0
   -1.9381   21.5467  -30.0915 H   0  0  0  0  0  0  0  0  0  0  0  0
   -0.4917   21.8414  -31.1151 H   0  0  0  0  0  0  0  0  0  0  0  0
   -1.8472   23.0201  -31.1151 H   0  0  0  0  0  0  0  0  0  0  0  0
   -5.1800   18.6530  -35.4600 H   0  0  0  0  0  0  0  0  0  0  0  0
   -5.3540   16.8690  -35.4240 H   0  0  0  0  0  0  0  0  0  0  0  0
   -8.9121   19.1561  -33.0502 H   0  0  0  0  0  0  0  0  0  0  0  0
   -9.7539   21.6478  -31.9155 H   0  0  0  0  0  0  0  0  0  0  0  0
   -8.8839   23.8276  -31.0084 H   0  0  0  0  0  0  0  0  0  0  0  0
   -6.3225   25.3866  -31.5980 H   0  0  0  0  0  0  0  0  0  0  0  0
   -6.8909   24.9379  -29.9494 H   0  0  0  0  0  0  0  0  0  0  0  0
   -2.8650   25.2920  -30.5130 H   0  0  0  0  0  0  0  0  0  0  0  0
   -4.7988   22.5346  -31.8133 H   0  0  0  0  0  0  0  0  0  0  0  0
  1  2  1  0
  2  3  1  0
  2  4  1  0
  4  5  2  0
  4  6  1  0
  6  7  2  0
  6  8  1  0
  8  9  1  0
  9 10  1  0
 10 11  1  0
 10 12  2  0
  9 13  2  0
 13 14  1  0
 14 15  2  0
 15 16  1  0
 16 17  2  0
 17 18  1  0
 18 19  1  0
 19 20  1  0
 19 21  2  0
 17 22  1  0
 22 23  2  0
 23  8  1  0
 23 14  1  0
  1 24  1  0
  1 25  1  0
  1 26  1  0
  3 27  1  0
  3 28  1  0
  3 29  1  0
 11 30  1  0
 11 31  1  0
 13 32  1  0
 15 33  1  0
 16 34  1  0
 18 35  1  0
 18 36  1  0
 20 37  1  0
 22 38  1  0
M  CHG  1  20  -1
M  END
>  <UniqueID>  (84) 
82

>  <SMILES>  (84) 
CN(C)C(=O)C(=O)n1c(C(N)=O)cc2ccc(CC([NH-])=O)cc21

>  <Energy>  (84) 
74.68548196016506

>  <Genealogy>  (84) 
CN(C)C(=O)C(=O)n1c(C(N)=O)cc2ccc(CC([NH-])=O)cc21 (protonated)
CN(C)C(=O)C(=O)n1c(C(N)=O)cc2ccc(CC([NH-])=O)cc21 (3D coordinates assigned)
CN(C)C(=O)C(=O)n1c(C(N)=O)cc2ccc(CC([NH-])=O)cc21 (optimized conformer: 74.68548196016506 kcal/mol)

>  <smiles>  (84) 
CN(C)C(=O)C(=O)n1c(C(N)=O)cc2ccc(CC(N)=O)cc21

>  <score_type>  (84) 
oracle

>  <origin>  (84) 
adg

>  <m_score__min__energy>  (84) 
-10.09

>  <m_primary>  (84) 
energy

$$$$
85:0
     RDKit          3D

 43 44  0  0  0  0  0  0  0  0999 V2000
   -4.1490   17.9990  -34.5360 C   0  0  0  0  0  0  0  0  0  0  0  0
   -4.9250   17.8330  -33.6290 C   0  0  0  0  0  0  0  0  0  0  0  0
   -5.8720   17.6280  -32.5270 C   0  0  0  0  0  0  0  0  0  0  0  0
   -7.0790   18.4250  -32.7390 N   0  0  0  0  0  0  0  0  0  0  0  0
   -7.2430   19.7900  -32.3050 C   0  0  0  0  0  0  0  0  0  0  0  0
   -8.5490   20.3370  -32.2350 C   0  0  0  0  0  0  0  0  0  0  0  0
   -8.7570   21.6580  -31.8050 C   0  0  0  0  0  0  0  0  0  0  0  0
   -7.6420   22.4140  -31.4590 C   0  0  0  0  0  0  0  0  0  0  0  0
   -7.5580   23.7030  -30.9830 C   0  0  0  0  0  0  0  0  0  0  0  0
   -6.1970   23.9380  -30.7890 C   0  0  0  0  0  0  0  0  0  0  0  0
   -5.6260   25.2280  -30.3380 C   0  0  0  0  0  0  0  0  0  0  0  0
   -4.2670   25.5680  -30.6190 N   0  0  0  0  0  0  0  0  0  0  0  0
   -6.3340   26.0380  -29.6810 O   0  0  0  0  0  0  0  0  0  0  0  0
   -5.4710   22.8400  -31.1440 N   0  0  0  0  0  0  0  0  0  0  0  0
   -4.0480   22.6690  -31.0510 C   0  0  0  0  0  0  0  0  0  0  0  0
   -3.3210   23.0370  -32.0160 O   0  0  0  0  0  0  0  0  0  0  0  0
   -3.4290   22.0720  -29.8410 C   0  0  0  0  0  0  0  0  0  0  0  0
   -3.0820   20.7790  -29.8280 C   0  0  0  0  0  0  0  0  0  0  0  0
   -3.2180   22.8800  -28.6640 N   0  0  0  0  0  0  0  0  0  0  0  0
   -4.3440   23.5630  -28.0220 C   0  0  0  0  0  0  0  0  0  0  0  0
   -1.8550   23.2020  -28.2270 C   0  0  0  0  0  0  0  0  0  0  0  0
   -1.4400   24.5340  -28.7660 C   0  0  0  0  0  0  0  0  0  0  0  0
   -2.2620   25.2400  -29.4070 O   0  0  0  0  0  0  0  0  0  0  0  0
   -0.1330   24.9740  -28.6020 O   0  0  0  0  0  0  0  0  0  0  0  0
   -6.3700   21.9140  -31.5420 C   0  0  0  0  0  0  0  0  0  0  0  0
   -6.1330   20.5950  -31.9450 C   0  0  0  0  0  0  0  0  0  0  0  0
   -3.4407   18.1505  -35.3639 H   0  0  0  0  0  0  0  0  0  0  0  0
   -6.1446   16.5635  -32.4763 H   0  0  0  0  0  0  0  0  0  0  0  0
   -5.3977   17.9414  -31.5853 H   0  0  0  0  0  0  0  0  0  0  0  0
   -7.8520   17.9810  -33.2860 H   0  0  0  0  0  0  0  0  0  0  0  0
   -9.4120   19.7180  -32.5216 H   0  0  0  0  0  0  0  0  0  0  0  0
   -9.7704   22.0815  -31.7438 H   0  0  0  0  0  0  0  0  0  0  0  0
   -8.3882   24.3998  -30.7954 H   0  0  0  0  0  0  0  0  0  0  0  0
   -3.6630   24.9610  -31.2160 H   0  0  0  0  0  0  0  0  0  0  0  0
   -3.8690   26.4650  -30.2620 H   0  0  0  0  0  0  0  0  0  0  0  0
   -2.6236   20.3416  -28.9288 H   0  0  0  0  0  0  0  0  0  0  0  0
   -3.2553   20.1541  -30.7165 H   0  0  0  0  0  0  0  0  0  0  0  0
   -4.2372   23.4982  -26.9291 H   0  0  0  0  0  0  0  0  0  0  0  0
   -4.3543   24.6197  -28.3274 H   0  0  0  0  0  0  0  0  0  0  0  0
   -5.2859   23.0839  -28.3274 H   0  0  0  0  0  0  0  0  0  0  0  0
   -1.8229   23.2290  -27.1278 H   0  0  0  0  0  0  0  0  0  0  0  0
   -1.1661   22.4320  -28.6045 H   0  0  0  0  0  0  0  0  0  0  0  0
   -5.1099   20.1925  -31.9816 H   0  0  0  0  0  0  0  0  0  0  0  0
  1  2  3  0
  2  3  1  0
  3  4  1  0
  4  5  1  0
  5  6  2  0
  6  7  1  0
  7  8  2  0
  8  9  1  0
  9 10  2  0
 10 11  1  0
 11 12  1  0
 11 13  2  0
 10 14  1  0
 14 15  1  0
 15 16  2  0
 15 17  1  0
 17 18  2  0
 17 19  1  0
 19 20  1  0
 19 21  1  0
 21 22  1  0
 22 23  2  0
 22 24  1  0
 14 25  1  0
 25 26  2  0
 26  5  1  0
 25  8  1  0
  1 27  1  0
  3 28  1  0
  3 29  1  0
  4 30  1  0
  6 31  1  0
  7 32  1  0
  9 33  1  0
 12 34  1  0
 12 35  1  0
 18 36  1  0
 18 37  1  0
 20 38  1  0
 20 39  1  0
 20 40  1  0
 21 41  1  0
 21 42  1  0
 26 43  1  0
M  CHG  1  24  -1
M  END
>  <UniqueID>  (85) 
83

>  <SMILES>  (85) 
C#CCNc1ccc2cc(C(N)=O)n(C(=O)C(=C)N(C)CC(=O)[O-])c2c1

>  <Energy>  (85) 
78.43224581222334

>  <Genealogy>  (85) 
C#CCNc1ccc2cc(C(N)=O)n(C(=O)C(=C)N(C)CC(=O)[O-])c2c1 (protonated)
C#CCNc1ccc2cc(C(N)=O)n(C(=O)C(=C)N(C)CC(=O)[O-])c2c1 (3D coordinates assigned)
C#CCNc1ccc2cc(C(N)=O)n(C(=O)C(=C)N(C)CC(=O)[O-])c2c1 (optimized conformer: 78.43224581222334 kcal/mol)

>  <smiles>  (85) 
C#CCNc1ccc2cc(C(N)=O)n(C(=O)C(=C)N(C)CC(=O)O)c2c1

>  <score_type>  (85) 
oracle

>  <origin>  (85) 
adg

>  <m_score__min__energy>  (85) 
-11

>  <m_primary>  (85) 
energy

$$$$
86:0
     RDKit          3D

 35 36  0  0  0  0  0  0  0  0999 V2000
   -1.1960   20.3780  -29.5350 C   0  0  0  0  0  0  0  0  0  0  0  0
   -2.2290   20.9340  -28.6580 N   0  0  0  0  0  0  0  0  0  0  0  0
   -2.4530   20.3840  -27.3170 C   0  0  0  0  0  0  0  0  0  0  0  0
   -3.0340   22.0300  -29.1260 C   0  0  0  0  0  0  0  0  0  0  0  0
   -3.9400   22.5060  -28.3870 O   0  0  0  0  0  0  0  0  0  0  0  0
   -2.8000   22.5610  -30.4020 O   0  0  0  0  0  0  0  0  0  0  0  0
   -3.5840   22.3150  -31.5380 C   0  0  0  0  0  0  0  0  0  0  0  0
   -3.0500   21.9490  -32.6210 O   0  0  0  0  0  0  0  0  0  0  0  0
   -5.0090   22.4910  -31.4690 N   0  0  0  0  0  0  0  0  0  0  0  0
   -5.6940   23.4690  -30.8110 C   0  0  0  0  0  0  0  0  0  0  0  0
   -5.1000   24.6500  -30.1550 C   0  0  0  0  0  0  0  0  0  0  0  0
   -5.1480   24.8110  -28.7370 N   0  0  0  0  0  0  0  0  0  0  0  0
   -4.4900   25.5040  -30.8530 O   0  0  0  0  0  0  0  0  0  0  0  0
   -7.0650   23.2390  -30.8770 C   0  0  0  0  0  0  0  0  0  0  0  0
   -7.2060   22.0880  -31.6180 C   0  0  0  0  0  0  0  0  0  0  0  0
   -8.3550   21.3950  -31.9850 C   0  0  0  0  0  0  0  0  0  0  0  0
   -8.2040   20.2100  -32.7230 C   0  0  0  0  0  0  0  0  0  0  0  0
   -6.9150   19.7380  -33.0680 C   0  0  0  0  0  0  0  0  0  0  0  0
   -6.7740   18.5220  -33.8080 N   0  0  0  0  0  0  0  0  0  0  0  0
   -5.7700   20.4620  -32.6770 C   0  0  0  0  0  0  0  0  0  0  0  0
   -5.9500   21.6530  -31.9610 C   0  0  0  0  0  0  0  0  0  0  0  0
   -0.3906   19.9445  -28.9239 H   0  0  0  0  0  0  0  0  0  0  0  0
   -1.6365   19.5951  -30.1699 H   0  0  0  0  0  0  0  0  0  0  0  0
   -0.7851   21.1768  -30.1699 H   0  0  0  0  0  0  0  0  0  0  0  0
   -2.1513   21.1247  -26.5618 H   0  0  0  0  0  0  0  0  0  0  0  0
   -3.5196   20.1462  -27.1917 H   0  0  0  0  0  0  0  0  0  0  0  0
   -1.8560   19.4686  -27.1917 H   0  0  0  0  0  0  0  0  0  0  0  0
   -5.4910   24.0440  -28.1180 H   0  0  0  0  0  0  0  0  0  0  0  0
   -4.7560   25.6720  -28.2940 H   0  0  0  0  0  0  0  0  0  0  0  0
   -7.8656   23.8478  -30.4316 H   0  0  0  0  0  0  0  0  0  0  0  0
   -9.3526   21.7645  -31.7053 H   0  0  0  0  0  0  0  0  0  0  0  0
   -9.0942   19.6443  -33.0354 H   0  0  0  0  0  0  0  0  0  0  0  0
   -6.5790   17.6190  -33.3200 H   0  0  0  0  0  0  0  0  0  0  0  0
   -6.8600   18.5160  -34.8480 H   0  0  0  0  0  0  0  0  0  0  0  0
   -4.7615   20.1012  -32.9275 H   0  0  0  0  0  0  0  0  0  0  0  0
  1  2  1  0
  2  3  1  0
  2  4  1  0
  4  5  2  0
  4  6  1  0
  6  7  1  0
  7  8  2  0
  7  9  1  0
  9 10  1  0
 10 11  1  0
 11 12  1  0
 11 13  2  0
 10 14  2  0
 14 15  1  0
 15 16  2  0
 16 17  1  0
 17 18  2  0
 18 19  1  0
 18 20  1  0
 20 21  2  0
 21  9  1  0
 21 15  1  0
  1 22  1  0
  1 23  1  0
  1 24  1  0
  3 25  1  0
  3 26  1  0
  3 27  1  0
 12 28  1  0
 12 29  1  0
 14 30  1  0
 16 31  1  0
 17 32  1  0
 19 33  1  0
 19 34  1  0
 20 35  1  0
M  END
>  <UniqueID>  (86) 
84

>  <SMILES>  (86) 
CN(C)C(=O)OC(=O)n1c(C(N)=O)cc2ccc(N)cc21

>  <Energy>  (86) 
70.78954187976707

>  <Genealogy>  (86) 
CN(C)C(=O)OC(=O)n1c(C(N)=O)cc2ccc(N)cc21 (3D coordinates assigned)
CN(C)C(=O)OC(=O)n1c(C(N)=O)cc2ccc(N)cc21 (optimized conformer: 70.78954187976707 kcal/mol)

>  <smiles>  (86) 
CN(C)C(=O)OC(=O)n1c(C(N)=O)cc2ccc(N)cc21

>  <score_type>  (86) 
oracle

>  <origin>  (86) 
adg

>  <m_score__min__energy>  (86) 
-7.8600000000000003

>  <m_primary>  (86) 
energy

$$$$
87:0
     RDKit          3D

 34 35  0  0  0  0  0  0  0  0999 V2000
   -3.0680   24.1890  -27.8130 C   0  0  0  0  0  0  0  0  0  0  0  0
   -3.5320   22.9940  -28.6430 C   0  0  0  0  0  0  0  0  0  0  0  0
   -3.0660   21.6840  -28.0020 C   0  0  0  0  0  0  0  0  0  0  0  0
   -3.0030   23.1160  -29.9640 O   0  0  0  0  0  0  0  0  0  0  0  0
   -3.6770   22.6820  -31.1130 C   0  0  0  0  0  0  0  0  0  0  0  0
   -3.0550   22.0690  -32.0230 O   0  0  0  0  0  0  0  0  0  0  0  0
   -5.0900   22.9070  -31.2360 N   0  0  0  0  0  0  0  0  0  0  0  0
   -5.7870   24.0260  -30.8890 C   0  0  0  0  0  0  0  0  0  0  0  0
   -5.2040   25.3190  -30.4780 C   0  0  0  0  0  0  0  0  0  0  0  0
   -3.8710   25.6690  -30.8400 N   0  0  0  0  0  0  0  0  0  0  0  0
   -5.9090   26.1470  -29.8410 O   0  0  0  0  0  0  0  0  0  0  0  0
   -7.1550   23.8210  -31.0530 C   0  0  0  0  0  0  0  0  0  0  0  0
   -7.2770   22.5330  -31.5220 C   0  0  0  0  0  0  0  0  0  0  0  0
   -8.4160   21.8070  -31.8560 C   0  0  0  0  0  0  0  0  0  0  0  0
   -8.2480   20.4830  -32.2930 C   0  0  0  0  0  0  0  0  0  0  0  0
   -6.9570   19.8990  -32.3630 C   0  0  0  0  0  0  0  0  0  0  0  0
   -6.7870   18.4890  -32.8690 C   0  0  0  0  0  0  0  0  0  0  0  0
   -5.7760   17.8700  -32.1580 F   0  0  0  0  0  0  0  0  0  0  0  0
   -6.4590   18.4870  -34.2130 F   0  0  0  0  0  0  0  0  0  0  0  0
   -7.9580   17.7670  -32.7080 F   0  0  0  0  0  0  0  0  0  0  0  0
   -5.8220   20.6790  -32.0370 C   0  0  0  0  0  0  0  0  0  0  0  0
   -6.0180   22.0020  -31.6230 C   0  0  0  0  0  0  0  0  0  0  0  0
   -3.1606   23.9505  -26.7432 H   0  0  0  0  0  0  0  0  0  0  0  0
   -2.0173   24.4135  -28.0490 H   0  0  0  0  0  0  0  0  0  0  0  0
   -3.6918   25.0637  -28.0490 H   0  0  0  0  0  0  0  0  0  0  0  0
   -4.6311   22.9802  -28.6848 H   0  0  0  0  0  0  0  0  0  0  0  0
   -3.0999   21.7794  -26.9067 H   0  0  0  0  0  0  0  0  0  0  0  0
   -3.7278   20.8647  -28.3194 H   0  0  0  0  0  0  0  0  0  0  0  0
   -2.0354   21.4667  -28.3194 H   0  0  0  0  0  0  0  0  0  0  0  0
   -3.0530   25.2710  -30.3280 H   0  0  0  0  0  0  0  0  0  0  0  0
   -7.9655   24.5366  -30.8506 H   0  0  0  0  0  0  0  0  0  0  0  0
   -9.4172   22.2563  -31.7801 H   0  0  0  0  0  0  0  0  0  0  0  0
   -9.1283   19.8914  -32.5846 H   0  0  0  0  0  0  0  0  0  0  0  0
   -4.8092   20.2556  -32.1073 H   0  0  0  0  0  0  0  0  0  0  0  0
  1  2  1  0
  2  3  1  0
  2  4  1  0
  4  5  1  0
  5  6  2  0
  5  7  1  0
  7  8  1  0
  8  9  1  0
  9 10  1  0
  9 11  2  0
  8 12  2  0
 12 13  1  0
 13 14  2  0
 14 15  1  0
 15 16  2  0
 16 17  1  0
 17 18  1  0
 17 19  1  0
 17 20  1  0
 16 21  1  0
 21 22  2  0
 22  7  1  0
 22 13  1  0
  1 23  1  0
  1 24  1  0
  1 25  1  0
  2 26  1  0
  3 27  1  0
  3 28  1  0
  3 29  1  0
 10 30  1  0
 12 31  1  0
 14 32  1  0
 15 33  1  0
 21 34  1  0
M  CHG  1  10  -1
M  END
>  <UniqueID>  (87) 
85

>  <SMILES>  (87) 
CC(C)OC(=O)n1c(C([NH-])=O)cc2ccc(C(F)(F)F)cc21

>  <Energy>  (87) 
67.73724804454805

>  <Genealogy>  (87) 
CC(C)OC(=O)n1c(C([NH-])=O)cc2ccc(C(F)(F)F)cc21 (protonated)
CC(C)OC(=O)n1c(C([NH-])=O)cc2ccc(C(F)(F)F)cc21 (3D coordinates assigned)
CC(C)OC(=O)n1c(C([NH-])=O)cc2ccc(C(F)(F)F)cc21 (optimized conformer: 67.73724804454805 kcal/mol)

>  <smiles>  (87) 
CC(C)OC(=O)n1c(C(N)=O)cc2ccc(C(F)(F)F)cc21

>  <score_type>  (87) 
oracle

>  <origin>  (87) 
adg

>  <m_score__min__energy>  (87) 
-9.2799999999999994

>  <m_primary>  (87) 
energy

$$$$
88:0
     RDKit          3D

 47 49  0  0  0  0  0  0  0  0999 V2000
    0.4060   22.0760  -34.8820 N   0  0  0  0  0  0  0  0  0  0  0  0
   -0.4630   21.4950  -34.3850 C   0  0  0  0  0  0  0  0  0  0  0  0
   -1.5690   20.7640  -33.7550 C   0  0  0  0  0  0  0  0  0  0  0  0
   -1.5200   19.2710  -34.0880 C   0  0  0  0  0  0  0  0  0  0  0  0
   -2.8350   18.7320  -34.2290 O   0  0  0  0  0  0  0  0  0  0  0  0
   -3.2870   17.5850  -33.5680 C   0  0  0  0  0  0  0  0  0  0  0  0
   -2.4660   16.7170  -33.1620 O   0  0  0  0  0  0  0  0  0  0  0  0
   -4.6960   17.3850  -33.3680 N   0  0  0  0  0  0  0  0  0  0  0  0
   -5.4500   16.3260  -33.7770 C   0  0  0  0  0  0  0  0  0  0  0  0
   -4.9350   15.0790  -34.3740 C   0  0  0  0  0  0  0  0  0  0  0  0
   -3.6910   15.0570  -35.0760 N   0  0  0  0  0  0  0  0  0  0  0  0
   -5.5730   14.0050  -34.2150 O   0  0  0  0  0  0  0  0  0  0  0  0
   -6.7980   16.5470  -33.5090 C   0  0  0  0  0  0  0  0  0  0  0  0
   -6.8480   17.7820  -32.9030 C   0  0  0  0  0  0  0  0  0  0  0  0
   -7.9430   18.5030  -32.4390 C   0  0  0  0  0  0  0  0  0  0  0  0
   -7.7100   19.7750  -31.8900 C   0  0  0  0  0  0  0  0  0  0  0  0
   -6.3950   20.3090  -31.8230 C   0  0  0  0  0  0  0  0  0  0  0  0
   -6.1680   21.6240  -31.2690 N   0  0  0  0  0  0  0  0  0  0  0  0
   -7.2740   22.5940  -31.1990 C   0  0  0  0  0  0  0  0  0  0  0  0
   -6.7410   24.0280  -31.2010 C   0  0  0  0  0  0  0  0  0  0  0  0
   -5.7560   24.2750  -30.0350 C   0  0  0  0  0  0  0  0  0  0  0  0
   -4.8710   25.4520  -30.3460 C   0  0  0  0  0  0  0  0  0  0  0  0
   -5.3600   26.6070  -30.4600 O   0  0  0  0  0  0  0  0  0  0  0  0
   -3.5000   25.2720  -30.4860 O   0  0  0  0  0  0  0  0  0  0  0  0
   -4.9200   23.0230  -29.6630 C   0  0  0  0  0  0  0  0  0  0  0  0
   -4.8250   22.0150  -30.8140 C   0  0  0  0  0  0  0  0  0  0  0  0
   -5.3100   19.5420  -32.3110 C   0  0  0  0  0  0  0  0  0  0  0  0
   -5.5690   18.2670  -32.8300 C   0  0  0  0  0  0  0  0  0  0  0  0
   -1.5037   20.8887  -32.6640 H   0  0  0  0  0  0  0  0  0  0  0  0
   -2.5149   21.1717  -34.1412 H   0  0  0  0  0  0  0  0  0  0  0  0
   -0.9714   19.1311  -35.0311 H   0  0  0  0  0  0  0  0  0  0  0  0
   -1.0137   18.7459  -33.2646 H   0  0  0  0  0  0  0  0  0  0  0  0
   -3.0550   15.8850  -35.0690 H   0  0  0  0  0  0  0  0  0  0  0  0
   -3.3610   14.1780  -35.5310 H   0  0  0  0  0  0  0  0  0  0  0  0
   -7.6421   15.8783  -33.7333 H   0  0  0  0  0  0  0  0  0  0  0  0
   -8.9606   18.0898  -32.5000 H   0  0  0  0  0  0  0  0  0  0  0  0
   -8.5560   20.3648  -31.5073 H   0  0  0  0  0  0  0  0  0  0  0  0
   -7.9327   22.4530  -32.0686 H   0  0  0  0  0  0  0  0  0  0  0  0
   -7.8308   22.4265  -30.2652 H   0  0  0  0  0  0  0  0  0  0  0  0
   -6.2206   24.2133  -32.1523 H   0  0  0  0  0  0  0  0  0  0  0  0
   -7.5947   24.7107  -31.0784 H   0  0  0  0  0  0  0  0  0  0  0  0
   -6.3610   24.5035  -29.1452 H   0  0  0  0  0  0  0  0  0  0  0  0
   -3.9038   23.3455  -29.3922 H   0  0  0  0  0  0  0  0  0  0  0  0
   -5.4241   22.5231  -28.8228 H   0  0  0  0  0  0  0  0  0  0  0  0
   -4.2781   22.4725  -31.6516 H   0  0  0  0  0  0  0  0  0  0  0  0
   -4.2949   21.1189  -30.4591 H   0  0  0  0  0  0  0  0  0  0  0  0
   -4.2845   19.9391  -32.2832 H   0  0  0  0  0  0  0  0  0  0  0  0
  1  2  3  0
  2  3  1  0
  3  4  1  0
  4  5  1  0
  5  6  1  0
  6  7  2  0
  6  8  1  0
  8  9  1  0
  9 10  1  0
 10 11  1  0
 10 12  2  0
  9 13  2  0
 13 14  1  0
 14 15  2  0
 15 16  1  0
 16 17  2  0
 17 18  1  0
 18 19  1  0
 19 20  1  0
 20 21  1  0
 21 22  1  0
 22 23  2  0
 22 24  1  0
 21 25  1  0
 25 26  1  0
 17 27  1  0
 27 28  2  0
 28  8  1  0
 28 14  1  0
 26 18  1  0
  3 29  1  0
  3 30  1  0
  4 31  1  0
  4 32  1  0
 11 33  1  0
 11 34  1  0
 13 35  1  0
 15 36  1  0
 16 37  1  0
 19 38  1  0
 19 39  1  0
 20 40  1  0
 20 41  1  0
 21 42  1  0
 25 43  1  0
 25 44  1  0
 26 45  1  0
 26 46  1  0
 27 47  1  0
M  CHG  1  24  -1
M  END
>  <UniqueID>  (88) 
86

>  <SMILES>  (88) 
N#CCCOC(=O)n1c(C(N)=O)cc2ccc(N3CCC(C(=O)[O-])CC3)cc21

>  <Energy>  (88) 
88.70285232748994

>  <Genealogy>  (88) 
N#CCCOC(=O)n1c(C(N)=O)cc2ccc(N3CCC(C(=O)[O-])CC3)cc21 (protonated)
N#CCCOC(=O)n1c(C(N)=O)cc2ccc(N3CCC(C(=O)[O-])CC3)cc21 (3D coordinates assigned)
N#CCCOC(=O)n1c(C(N)=O)cc2ccc(N3CCC(C(=O)[O-])CC3)cc21 (nonaromatic ring conformer: 88.70285232748994 kcal/mol)

>  <smiles>  (88) 
N#CCCOC(=O)n1c(C(N)=O)cc2ccc(N3CCC(C(=O)O)CC3)cc21

>  <score_type>  (88) 
oracle

>  <origin>  (88) 
adg

>  <m_score__min__energy>  (88) 
-10.210000000000001

>  <m_primary>  (88) 
energy

$$$$
89:0
     RDKit          3D

 34 35  0  0  0  0  0  0  0  0999 V2000
   -6.0790   18.3980  -33.9700 C   0  0  0  0  0  0  0  0  0  0  0  0
   -6.9890   18.4860  -32.7500 C   0  0  0  0  0  0  0  0  0  0  0  0
   -7.1260   19.9130  -32.2910 C   0  0  0  0  0  0  0  0  0  0  0  0
   -8.4090   20.4580  -32.0360 C   0  0  0  0  0  0  0  0  0  0  0  0
   -8.5470   21.7830  -31.5880 C   0  0  0  0  0  0  0  0  0  0  0  0
   -7.3880   22.5270  -31.3880 C   0  0  0  0  0  0  0  0  0  0  0  0
   -7.2340   23.8330  -30.9780 C   0  0  0  0  0  0  0  0  0  0  0  0
   -5.8590   24.0530  -30.9530 C   0  0  0  0  0  0  0  0  0  0  0  0
   -5.2470   25.3120  -30.4780 C   0  0  0  0  0  0  0  0  0  0  0  0
   -3.9200   25.6690  -30.8510 N   0  0  0  0  0  0  0  0  0  0  0  0
   -5.8900   26.0600  -29.6930 O   0  0  0  0  0  0  0  0  0  0  0  0
   -5.1880   22.9300  -31.3410 N   0  0  0  0  0  0  0  0  0  0  0  0
   -3.7730   22.7660  -31.5230 C   0  0  0  0  0  0  0  0  0  0  0  0
   -3.3340   22.2570  -32.5900 O   0  0  0  0  0  0  0  0  0  0  0  0
   -2.8980   23.1490  -30.4970 O   0  0  0  0  0  0  0  0  0  0  0  0
   -3.2300   23.2140  -29.1370 C   0  0  0  0  0  0  0  0  0  0  0  0
   -3.9880   22.3580  -28.6060 O   0  0  0  0  0  0  0  0  0  0  0  0
   -2.6320   24.2930  -28.2940 C   0  0  0  0  0  0  0  0  0  0  0  0
   -1.9660   25.2210  -29.1040 O   0  0  0  0  0  0  0  0  0  0  0  0
   -6.1380   22.0050  -31.6000 C   0  0  0  0  0  0  0  0  0  0  0  0
   -5.9720   20.6960  -32.0670 C   0  0  0  0  0  0  0  0  0  0  0  0
   -5.0341   18.2970  -33.6415 H   0  0  0  0  0  0  0  0  0  0  0  0
   -6.3596   17.5228  -34.5744 H   0  0  0  0  0  0  0  0  0  0  0  0
   -6.1867   19.3108  -34.5744 H   0  0  0  0  0  0  0  0  0  0  0  0
   -7.9828   18.0937  -33.0116 H   0  0  0  0  0  0  0  0  0  0  0  0
   -6.5473   17.8931  -31.9355 H   0  0  0  0  0  0  0  0  0  0  0  0
   -9.3049   19.8385  -32.1901 H   0  0  0  0  0  0  0  0  0  0  0  0
   -9.5398   22.2183  -31.4013 H   0  0  0  0  0  0  0  0  0  0  0  0
   -8.0286   24.5501  -30.7242 H   0  0  0  0  0  0  0  0  0  0  0  0
   -3.0970   25.2980  -30.3270 H   0  0  0  0  0  0  0  0  0  0  0  0
   -3.4305   24.8038  -27.7359 H   0  0  0  0  0  0  0  0  0  0  0  0
   -1.9131   23.8455  -27.5919 H   0  0  0  0  0  0  0  0  0  0  0  0
   -2.0170   24.8750  -30.0330 H   0  0  0  0  0  0  0  0  0  0  0  0
   -4.9681   20.2874  -32.2548 H   0  0  0  0  0  0  0  0  0  0  0  0
  1  2  1  0
  2  3  1  0
  3  4  2  0
  4  5  1  0
  5  6  2  0
  6  7  1  0
  7  8  2  0
  8  9  1  0
  9 10  1  0
  9 11  2  0
  8 12  1  0
 12 13  1  0
 13 14  2  0
 13 15  1  0
 15 16  1  0
 16 17  2  0
 16 18  1  0
 18 19  1  0
 12 20  1  0
 20 21  2  0
 21  3  1  0
 20  6  1  0
  1 22  1  0
  1 23  1  0
  1 24  1  0
  2 25  1  0
  2 26  1  0
  4 27  1  0
  5 28  1  0
  7 29  1  0
 10 30  1  0
 18 31  1  0
 18 32  1  0
 19 33  1  0
 21 34  1  0
M  CHG  1  10  -1
M  END
>  <UniqueID>  (89) 
87

>  <SMILES>  (89) 
CCc1ccc2cc(C([NH-])=O)n(C(=O)OC(=O)CO)c2c1

>  <Energy>  (89) 
69.54763755993329

>  <Genealogy>  (89) 
CCc1ccc2cc(C([NH-])=O)n(C(=O)OC(=O)CO)c2c1 (protonated)
CCc1ccc2cc(C([NH-])=O)n(C(=O)OC(=O)CO)c2c1 (3D coordinates assigned)
CCc1ccc2cc(C([NH-])=O)n(C(=O)OC(=O)CO)c2c1 (optimized conformer: 69.54763755993329 kcal/mol)

>  <smiles>  (89) 
CCc1ccc2cc(C(N)=O)n(C(=O)OC(=O)CO)c2c1

>  <score_type>  (89) 
oracle

>  <origin>  (89) 
adg

>  <m_score__min__energy>  (89) 
-9.8900000000000006

>  <m_primary>  (89) 
energy

$$$$
90:0
     RDKit          3D

 42 44  0  0  0  0  0  0  0  0999 V2000
   -3.2570   12.5120  -32.9410 C   0  0  0  0  0  0  0  0  0  0  0  0
   -3.3590   13.9360  -32.6210 N   0  0  0  0  0  0  0  0  0  0  0  0
   -2.3080   14.8490  -33.0770 C   0  0  0  0  0  0  0  0  0  0  0  0
   -4.4680   14.3990  -31.8260 C   0  0  0  0  0  0  0  0  0  0  0  0
   -4.9070   13.6730  -30.8950 O   0  0  0  0  0  0  0  0  0  0  0  0
   -5.1190   15.6970  -32.0810 C   0  0  0  0  0  0  0  0  0  0  0  0
   -5.1980   16.3660  -33.2890 C   0  0  0  0  0  0  0  0  0  0  0  0
   -5.8860   17.5050  -33.0860 N   0  0  0  0  0  0  0  0  0  0  0  0
   -6.1130   18.5690  -34.0570 C   0  0  0  0  0  0  0  0  0  0  0  0
   -6.3760   19.8630  -33.3390 C   0  0  0  0  0  0  0  0  0  0  0  0
   -7.7050   20.2610  -33.0520 C   0  0  0  0  0  0  0  0  0  0  0  0
   -7.9580   21.4340  -32.3220 C   0  0  0  0  0  0  0  0  0  0  0  0
   -6.8670   22.1820  -31.8890 C   0  0  0  0  0  0  0  0  0  0  0  0
   -6.8240   23.3310  -31.1340 C   0  0  0  0  0  0  0  0  0  0  0  0
   -5.4710   23.6210  -30.9760 C   0  0  0  0  0  0  0  0  0  0  0  0
   -4.9760   24.8320  -30.2920 C   0  0  0  0  0  0  0  0  0  0  0  0
   -3.8930   25.5870  -30.8310 N   0  0  0  0  0  0  0  0  0  0  0  0
   -5.5480   25.2360  -29.2440 O   0  0  0  0  0  0  0  0  0  0  0  0
   -4.7040   22.6830  -31.6020 N   0  0  0  0  0  0  0  0  0  0  0  0
   -3.2720   22.5660  -31.5850 C   0  0  0  0  0  0  0  0  0  0  0  0
   -2.6760   21.9050  -32.4760 O   0  0  0  0  0  0  0  0  0  0  0  0
   -2.5330   23.1550  -30.5660 O   0  0  0  0  0  0  0  0  0  0  0  0
   -5.5740   21.8120  -32.1610 C   0  0  0  0  0  0  0  0  0  0  0  0
   -5.2930   20.6410  -32.8740 C   0  0  0  0  0  0  0  0  0  0  0  0
   -6.2110   17.5200  -31.7770 C   0  0  0  0  0  0  0  0  0  0  0  0
   -5.7680   16.4170  -31.1440 N   0  0  0  0  0  0  0  0  0  0  0  0
   -3.2152   11.9289  -32.0092 H   0  0  0  0  0  0  0  0  0  0  0  0
   -4.1354   12.2041  -33.5272 H   0  0  0  0  0  0  0  0  0  0  0  0
   -2.3437   12.3324  -33.5272 H   0  0  0  0  0  0  0  0  0  0  0  0
   -1.8012   15.2892  -32.2056 H   0  0  0  0  0  0  0  0  0  0  0  0
   -1.5778   14.2936  -33.6839 H   0  0  0  0  0  0  0  0  0  0  0  0
   -2.7558   15.6497  -33.6839 H   0  0  0  0  0  0  0  0  0  0  0  0
   -4.7739   16.0274  -34.2458 H   0  0  0  0  0  0  0  0  0  0  0  0
   -5.2229   18.6787  -34.6939 H   0  0  0  0  0  0  0  0  0  0  0  0
   -6.9836   18.3144  -34.6793 H   0  0  0  0  0  0  0  0  0  0  0  0
   -8.5463   19.6459  -33.4040 H   0  0  0  0  0  0  0  0  0  0  0  0
   -8.9872   21.7519  -32.0992 H   0  0  0  0  0  0  0  0  0  0  0  0
   -7.6779   23.9005  -30.7385 H   0  0  0  0  0  0  0  0  0  0  0  0
   -2.9040   25.3000  -30.6640 H   0  0  0  0  0  0  0  0  0  0  0  0
   -4.2545   20.3342  -33.0674 H   0  0  0  0  0  0  0  0  0  0  0  0
   -6.7685   18.3321  -31.2875 H   0  0  0  0  0  0  0  0  0  0  0  0
   -5.8840   16.1870  -30.1320 H   0  0  0  0  0  0  0  0  0  0  0  0
  1  2  1  0
  2  3  1  0
  2  4  1  0
  4  5  2  0
  4  6  1  0
  6  7  2  0
  7  8  1  0
  8  9  1  0
  9 10  1  0
 10 11  2  0
 11 12  1  0
 12 13  2  0
 13 14  1  0
 14 15  2  0
 15 16  1  0
 16 17  1  0
 16 18  2  0
 15 19  1  0
 19 20  1  0
 20 21  2  0
 20 22  1  0
 19 23  1  0
 23 24  2  0
  8 25  1  0
 25 26  2  0
 26  6  1  0
 24 10  1  0
 23 13  1  0
  1 27  1  0
  1 28  1  0
  1 29  1  0
  3 30  1  0
  3 31  1  0
  3 32  1  0
  7 33  1  0
  9 34  1  0
  9 35  1  0
 11 36  1  0
 12 37  1  0
 14 38  1  0
 17 39  1  0
 24 40  1  0
 25 41  1  0
 26 42  1  0
M  CHG  3  17  -1  22  -1  26   1
M  END
>  <UniqueID>  (90) 
88

>  <SMILES>  (90) 
CN(C)C(=O)c1cn(Cc2ccc3cc(C([NH-])=O)n(C(=O)[O-])c3c2)c[nH+]1

>  <Energy>  (90) 
113.12972634546091

>  <Genealogy>  (90) 
CN(C)C(=O)c1cn(Cc2ccc3cc(C([NH-])=O)n(C(=O)[O-])c3c2)c[nH+]1 (protonated)
CN(C)C(=O)c1cn(Cc2ccc3cc(C([NH-])=O)n(C(=O)[O-])c3c2)c[nH+]1 (3D coordinates assigned)
CN(C)C(=O)c1cn(Cc2ccc3cc(C([NH-])=O)n(C(=O)[O-])c3c2)c[nH+]1 (optimized conformer: 113.12972634546091 kcal/mol)

>  <smiles>  (90) 
CN(C)C(=O)c1cn(Cc2ccc3cc(C(N)=O)n(C(=O)O)c3c2)cn1

>  <score_type>  (90) 
oracle

>  <origin>  (90) 
adg

>  <m_score__min__energy>  (90) 
-11.699999999999999

>  <m_primary>  (90) 
energy

$$$$
91:0
     RDKit          3D

 42 43  0  0  0  0  0  0  0  0999 V2000
   -6.9210   18.2690  -32.6570 C   0  0  0  0  0  0  0  0  0  0  0  0
   -7.1350   19.7090  -32.2920 C   0  0  0  0  0  0  0  0  0  0  0  0
   -8.4380   20.2630  -32.3230 C   0  0  0  0  0  0  0  0  0  0  0  0
   -8.6540   21.6070  -31.9720 C   0  0  0  0  0  0  0  0  0  0  0  0
   -7.5530   22.3600  -31.5720 C   0  0  0  0  0  0  0  0  0  0  0  0
   -7.4710   23.6820  -31.1960 C   0  0  0  0  0  0  0  0  0  0  0  0
   -6.1260   23.9010  -30.8980 C   0  0  0  0  0  0  0  0  0  0  0  0
   -5.5770   25.1790  -30.3870 C   0  0  0  0  0  0  0  0  0  0  0  0
   -4.2350   25.5720  -30.6800 N   0  0  0  0  0  0  0  0  0  0  0  0
   -6.3010   25.9450  -29.6980 O   0  0  0  0  0  0  0  0  0  0  0  0
   -5.4110   22.7550  -31.0700 N   0  0  0  0  0  0  0  0  0  0  0  0
   -3.9930   22.5820  -30.9250 C   0  0  0  0  0  0  0  0  0  0  0  0
   -3.2240   22.9570  -31.8520 O   0  0  0  0  0  0  0  0  0  0  0  0
   -3.4280   22.0320  -29.6770 C   0  0  0  0  0  0  0  0  0  0  0  0
   -3.2330   20.7900  -29.5880 O   0  0  0  0  0  0  0  0  0  0  0  0
   -3.1150   22.8880  -28.5570 N   0  0  0  0  0  0  0  0  0  0  0  0
   -4.2140   23.4560  -27.7680 C   0  0  0  0  0  0  0  0  0  0  0  0
   -1.7180   23.2320  -28.2200 C   0  0  1  0  0  0  0  0  0  0  0  0
   -0.7910   22.0230  -28.4070 C   0  0  0  0  0  0  0  0  0  0  0  0
   -1.2420   24.4470  -29.0320 C   0  0  0  0  0  0  0  0  0  0  0  0
   -2.3270   25.2850  -29.3200 O   0  0  0  0  0  0  0  0  0  0  0  0
   -6.2940   21.8250  -31.4930 C   0  0  0  0  0  0  0  0  0  0  0  0
   -6.0460   20.4970  -31.8590 C   0  0  0  0  0  0  0  0  0  0  0  0
   -6.8316   17.6677  -31.7402 H   0  0  0  0  0  0  0  0  0  0  0  0
   -7.7756   17.9099  -33.2492 H   0  0  0  0  0  0  0  0  0  0  0  0
   -5.9989   18.1740  -33.2492 H   0  0  0  0  0  0  0  0  0  0  0  0
   -9.2895   19.6354  -32.6247 H   0  0  0  0  0  0  0  0  0  0  0  0
   -9.6602   22.0496  -32.0120 H   0  0  0  0  0  0  0  0  0  0  0  0
   -8.2926   24.4114  -31.1420 H   0  0  0  0  0  0  0  0  0  0  0  0
   -3.8750   26.4920  -30.3430 H   0  0  0  0  0  0  0  0  0  0  0  0
   -3.5850   24.9440  -31.2010 H   0  0  0  0  0  0  0  0  0  0  0  0
   -3.9932   23.3419  -26.6964 H   0  0  0  0  0  0  0  0  0  0  0  0
   -4.3240   24.5238  -28.0080 H   0  0  0  0  0  0  0  0  0  0  0  0
   -5.1487   22.9281  -28.0080 H   0  0  0  0  0  0  0  0  0  0  0  0
   -1.6795   23.5104  -27.1565 H   0  0  0  0  0  0  0  0  0  0  0  0
   -0.4927   21.6339  -27.4223 H   0  0  0  0  0  0  0  0  0  0  0  0
   -1.3207   21.2378  -28.9664 H   0  0  0  0  0  0  0  0  0  0  0  0
    0.1048   22.3308  -28.9664 H   0  0  0  0  0  0  0  0  0  0  0  0
   -0.4952   25.0054  -28.4484 H   0  0  0  0  0  0  0  0  0  0  0  0
   -0.7943   24.0988  -29.9745 H   0  0  0  0  0  0  0  0  0  0  0  0
   -2.8830   25.3080  -28.4980 H   0  0  0  0  0  0  0  0  0  0  0  0
   -5.0300   20.0783  -31.8107 H   0  0  0  0  0  0  0  0  0  0  0  0
  1  2  1  0
  2  3  2  0
  3  4  1  0
  4  5  2  0
  5  6  1  0
  6  7  2  0
  7  8  1  0
  8  9  1  0
  8 10  2  0
  7 11  1  0
 11 12  1  0
 12 13  2  0
 12 14  1  0
 14 15  2  0
 14 16  1  0
 16 17  1  0
 16 18  1  0
 18 19  1  0
 18 20  1  0
 20 21  1  0
 11 22  1  0
 22 23  2  0
 23  2  1  0
 22  5  1  0
  1 24  1  0
  1 25  1  0
  1 26  1  0
  3 27  1  0
  4 28  1  0
  6 29  1  0
  9 30  1  0
  9 31  1  0
 17 32  1  0
 17 33  1  0
 17 34  1  0
 18 35  1  1
 19 36  1  0
 19 37  1  0
 19 38  1  0
 20 39  1  0
 20 40  1  0
 21 41  1  0
 23 42  1  0
M  END
>  <UniqueID>  (91) 
89

>  <SMILES>  (91) 
Cc1ccc2cc(C(N)=O)n(C(=O)C(=O)N(C)[C@@H](C)CO)c2c1

>  <Energy>  (91) 
79.3681345396005

>  <Genealogy>  (91) 
Cc1ccc2cc(C(N)=O)n(C(=O)C(=O)N(C)[C@@H](C)CO)c2c1 (chirality)
Cc1ccc2cc(C(N)=O)n(C(=O)C(=O)N(C)[C@@H](C)CO)c2c1 (3D coordinates assigned)
Cc1ccc2cc(C(N)=O)n(C(=O)C(=O)N(C)[C@@H](C)CO)c2c1 (optimized conformer: 79.3681345396005 kcal/mol)

>  <smiles>  (91) 
Cc1ccc2cc(C(N)=O)n(C(=O)C(=O)N(C)C(C)CO)c2c1

>  <score_type>  (91) 
oracle

>  <origin>  (91) 
adg

>  <m_score__min__energy>  (91) 
-9.6600000000000001

>  <m_primary>  (91) 
energy

$$$$
92:0
     RDKit          3D

 48 49  0  0  0  0  0  0  0  0999 V2000
   -0.4180   20.2180  -34.6340 C   0  0  0  0  0  0  0  0  0  0  0  0
   -0.7630   21.5120  -33.8960 C   0  0  0  0  0  0  0  0  0  0  0  0
   -1.8940   21.3250  -32.8700 C   0  0  0  0  0  0  0  0  0  0  0  0
   -2.2390   19.8580  -32.5830 C   0  0  0  0  0  0  0  0  0  0  0  0
   -3.2230   19.3770  -33.4970 O   0  0  0  0  0  0  0  0  0  0  0  0
   -3.8560   18.1330  -33.3850 C   0  0  0  0  0  0  0  0  0  0  0  0
   -3.2990   17.1780  -32.7790 O   0  0  0  0  0  0  0  0  0  0  0  0
   -5.2340   17.9380  -33.9430 C   0  0  0  0  0  0  0  0  0  0  0  0
   -6.2620   18.2310  -32.9330 N   0  0  0  0  0  0  0  0  0  0  0  0
   -7.0610   17.1220  -32.4020 C   0  0  0  0  0  0  0  0  0  0  0  0
   -6.5570   19.5940  -32.5380 C   0  0  0  0  0  0  0  0  0  0  0  0
   -7.8330   20.1610  -32.8040 C   0  0  0  0  0  0  0  0  0  0  0  0
   -8.1330   21.4780  -32.4180 C   0  0  0  0  0  0  0  0  0  0  0  0
   -7.1400   22.2160  -31.7840 C   0  0  0  0  0  0  0  0  0  0  0  0
   -7.1730   23.4970  -31.2820 C   0  0  0  0  0  0  0  0  0  0  0  0
   -5.9050   23.7150  -30.7520 C   0  0  0  0  0  0  0  0  0  0  0  0
   -5.4820   24.9990  -30.1560 C   0  0  0  0  0  0  0  0  0  0  0  0
   -4.1900   25.5480  -30.4190 N   0  0  0  0  0  0  0  0  0  0  0  0
   -6.2940   25.6470  -29.4430 O   0  0  0  0  0  0  0  0  0  0  0  0
   -5.1210   22.6110  -30.9060 N   0  0  0  0  0  0  0  0  0  0  0  0
   -3.7880   22.4030  -30.4090 C   0  0  0  0  0  0  0  0  0  0  0  0
   -3.5230   21.3630  -29.7470 O   0  0  0  0  0  0  0  0  0  0  0  0
   -2.7980   23.3630  -30.6630 O   0  0  0  0  0  0  0  0  0  0  0  0
   -1.9380   23.9070  -29.7000 C   0  0  0  0  0  0  0  0  0  0  0  0
   -1.0390   23.2130  -29.1560 O   0  0  0  0  0  0  0  0  0  0  0  0
   -2.0750   25.2430  -29.3490 O   0  0  0  0  0  0  0  0  0  0  0  0
   -5.8940   21.7010  -31.5400 C   0  0  0  0  0  0  0  0  0  0  0  0
   -5.5780   20.3830  -31.8850 C   0  0  0  0  0  0  0  0  0  0  0  0
   -0.2063   19.4241  -33.9027 H   0  0  0  0  0  0  0  0  0  0  0  0
   -1.2676   19.9182  -35.2651 H   0  0  0  0  0  0  0  0  0  0  0  0
    0.4681   20.3809  -35.2651 H   0  0  0  0  0  0  0  0  0  0  0  0
    0.1350   21.8673  -33.3694 H   0  0  0  0  0  0  0  0  0  0  0  0
   -1.1094   22.2399  -34.6444 H   0  0  0  0  0  0  0  0  0  0  0  0
   -1.5869   21.7993  -31.9262 H   0  0  0  0  0  0  0  0  0  0  0  0
   -2.7949   21.7855  -33.3016 H   0  0  0  0  0  0  0  0  0  0  0  0
   -1.3286   19.2484  -32.6806 H   0  0  0  0  0  0  0  0  0  0  0  0
   -2.6429   19.7857  -31.5624 H   0  0  0  0  0  0  0  0  0  0  0  0
   -5.3722   18.6114  -34.8017 H   0  0  0  0  0  0  0  0  0  0  0  0
   -5.3392   16.8879  -34.2534 H   0  0  0  0  0  0  0  0  0  0  0  0
   -7.0413   17.1494  -31.3025 H   0  0  0  0  0  0  0  0  0  0  0  0
   -8.0993   17.2174  -32.7526 H   0  0  0  0  0  0  0  0  0  0  0  0
   -6.6418   16.1673  -32.7526 H   0  0  0  0  0  0  0  0  0  0  0  0
   -8.5965   19.5599  -33.3195 H   0  0  0  0  0  0  0  0  0  0  0  0
   -9.1247   21.9126  -32.6118 H   0  0  0  0  0  0  0  0  0  0  0  0
   -8.0203   24.1983  -31.2966 H   0  0  0  0  0  0  0  0  0  0  0  0
   -3.8880   26.4260  -29.9420 H   0  0  0  0  0  0  0  0  0  0  0  0
   -3.5630   25.1300  -31.1420 H   0  0  0  0  0  0  0  0  0  0  0  0
   -4.5867   19.9662  -31.6534 H   0  0  0  0  0  0  0  0  0  0  0  0
  1  2  1  0
  2  3  1  0
  3  4  1  0
  4  5  1  0
  5  6  1  0
  6  7  2  0
  6  8  1  0
  8  9  1  0
  9 10  1  0
  9 11  1  0
 11 12  2  0
 12 13  1  0
 13 14  2  0
 14 15  1  0
 15 16  2  0
 16 17  1  0
 17 18  1  0
 17 19  2  0
 16 20  1  0
 20 21  1  0
 21 22  2  0
 21 23  1  0
 23 24  1  0
 24 25  2  0
 24 26  1  0
 20 27  1  0
 27 28  2  0
 28 11  1  0
 27 14  1  0
  1 29  1  0
  1 30  1  0
  1 31  1  0
  2 32  1  0
  2 33  1  0
  3 34  1  0
  3 35  1  0
  4 36  1  0
  4 37  1  0
  8 38  1  0
  8 39  1  0
 10 40  1  0
 10 41  1  0
 10 42  1  0
 12 43  1  0
 13 44  1  0
 15 45  1  0
 18 46  1  0
 18 47  1  0
 28 48  1  0
M  CHG  1  26  -1
M  END
>  <UniqueID>  (92) 
90

>  <SMILES>  (92) 
CCCCOC(=O)CN(C)c1ccc2cc(C(N)=O)n(C(=O)OC(=O)[O-])c2c1

>  <Energy>  (92) 
82.57429257260624

>  <Genealogy>  (92) 
CCCCOC(=O)CN(C)c1ccc2cc(C(N)=O)n(C(=O)OC(=O)[O-])c2c1 (protonated)
CCCCOC(=O)CN(C)c1ccc2cc(C(N)=O)n(C(=O)OC(=O)[O-])c2c1 (3D coordinates assigned)
CCCCOC(=O)CN(C)c1ccc2cc(C(N)=O)n(C(=O)OC(=O)[O-])c2c1 (optimized conformer: 82.57429257260624 kcal/mol)

>  <smiles>  (92) 
CCCCOC(=O)CN(C)c1ccc2cc(C(N)=O)n(C(=O)OC(=O)O)c2c1

>  <score_type>  (92) 
oracle

>  <origin>  (92) 
adg

>  <m_score__min__energy>  (92) 
-9.3399999999999999

>  <m_primary>  (92) 
energy

$$$$
93:0
     RDKit          3D

 31 33  0  0  0  0  0  0  0  0999 V2000
   -4.1960   25.5110  -30.6440 N   0  0  0  0  0  0  0  0  0  0  0  0
   -5.5310   25.0720  -30.3870 C   0  0  0  0  0  0  0  0  0  0  0  0
   -6.2770   25.7790  -29.6600 O   0  0  0  0  0  0  0  0  0  0  0  0
   -6.0470   23.8160  -30.9800 C   0  0  0  0  0  0  0  0  0  0  0  0
   -7.3960   23.5490  -31.2090 C   0  0  0  0  0  0  0  0  0  0  0  0
   -7.4360   22.2660  -31.7060 C   0  0  0  0  0  0  0  0  0  0  0  0
   -8.5210   21.4990  -32.1210 C   0  0  0  0  0  0  0  0  0  0  0  0
   -8.2650   20.2130  -32.6240 C   0  0  0  0  0  0  0  0  0  0  0  0
   -6.9370   19.7200  -32.7120 C   0  0  0  0  0  0  0  0  0  0  0  0
   -6.6790   18.3690  -33.2560 C   0  0  0  0  0  0  0  0  0  0  0  0
   -7.1750   17.2340  -32.7190 N   0  0  0  0  0  0  0  0  0  0  0  0
   -6.6720   16.2980  -33.5460 C   0  0  0  0  0  0  0  0  0  0  0  0
   -5.9410   16.8400  -34.4890 O   0  0  0  0  0  0  0  0  0  0  0  0
   -5.9200   18.1290  -34.3430 N   0  0  0  0  0  0  0  0  0  0  0  0
   -5.8620   20.5300  -32.2810 C   0  0  0  0  0  0  0  0  0  0  0  0
   -6.1500   21.7990  -31.7650 C   0  0  0  0  0  0  0  0  0  0  0  0
   -5.2870   22.7360  -31.3160 N   0  0  0  0  0  0  0  0  0  0  0  0
   -3.8540   22.6340  -31.2730 C   0  0  0  0  0  0  0  0  0  0  0  0
   -3.2030   22.5180  -32.3460 O   0  0  0  0  0  0  0  0  0  0  0  0
   -3.1190   22.6770  -29.9660 C   0  0  0  0  0  0  0  0  0  0  0  0
   -2.1500   23.6890  -29.9910 O   0  0  0  0  0  0  0  0  0  0  0  0
   -3.8580   26.4170  -30.2500 H   0  0  0  0  0  0  0  0  0  0  0  0
   -3.5230   24.9240  -31.1850 H   0  0  0  0  0  0  0  0  0  0  0  0
   -8.2481   24.2213  -31.0303 H   0  0  0  0  0  0  0  0  0  0  0  0
   -9.5478   21.8884  -32.0569 H   0  0  0  0  0  0  0  0  0  0  0  0
   -9.1029   19.5809  -32.9534 H   0  0  0  0  0  0  0  0  0  0  0  0
   -6.8515   15.2176  -33.4433 H   0  0  0  0  0  0  0  0  0  0  0  0
   -4.8242   20.1719  -32.3494 H   0  0  0  0  0  0  0  0  0  0  0  0
   -3.8331   22.8771  -29.1536 H   0  0  0  0  0  0  0  0  0  0  0  0
   -2.6240   21.7089  -29.7995 H   0  0  0  0  0  0  0  0  0  0  0  0
   -1.7800   23.7040  -30.9120 H   0  0  0  0  0  0  0  0  0  0  0  0
  1  2  1  0
  2  3  2  0
  2  4  1  0
  4  5  2  0
  5  6  1  0
  6  7  2  0
  7  8  1  0
  8  9  2  0
  9 10  1  0
 10 11  1  0
 11 12  2  0
 12 13  1  0
 13 14  1  0
  9 15  1  0
 15 16  2  0
 16 17  1  0
 17 18  1  0
 18 19  2  0
 18 20  1  0
 20 21  1  0
 17  4  1  0
 16  6  1  0
 14 10  2  0
  1 22  1  0
  1 23  1  0
  5 24  1  0
  7 25  1  0
  8 26  1  0
 12 27  1  0
 15 28  1  0
 20 29  1  0
 20 30  1  0
 21 31  1  0
M  END
>  <UniqueID>  (93) 
91

>  <SMILES>  (93) 
NC(=O)c1cc2ccc(-c3ncon3)cc2n1C(=O)CO

>  <Energy>  (93) 
105.34426430407606

>  <Genealogy>  (93) 
NC(=O)c1cc2ccc(-c3ncon3)cc2n1C(=O)CO (3D coordinates assigned)
NC(=O)c1cc2ccc(-c3ncon3)cc2n1C(=O)CO (optimized conformer: 105.34426430407606 kcal/mol)

>  <smiles>  (93) 
NC(=O)c1cc2ccc(-c3ncon3)cc2n1C(=O)CO

>  <score_type>  (93) 
oracle

>  <origin>  (93) 
adg

>  <m_score__min__energy>  (93) 
-8.8399999999999999

>  <m_primary>  (93) 
energy

$$$$
94:0
     RDKit          3D

 40 42  0  0  0  0  0  0  0  0999 V2000
   -3.9460   18.4370  -34.4090 N   0  0  0  0  0  0  0  0  0  0  0  0
   -5.3400   18.5960  -34.1360 C   0  0  0  0  0  0  0  0  0  0  0  0
   -6.1490   17.7230  -34.5500 O   0  0  0  0  0  0  0  0  0  0  0  0
   -5.8300   19.7490  -33.3480 C   0  0  0  0  0  0  0  0  0  0  0  0
   -7.1780   20.0360  -33.1450 C   0  0  0  0  0  0  0  0  0  0  0  0
   -7.1980   21.2250  -32.4530 C   0  0  0  0  0  0  0  0  0  0  0  0
   -8.2780   21.9610  -31.9730 C   0  0  0  0  0  0  0  0  0  0  0  0
   -8.0060   23.1390  -31.2580 C   0  0  0  0  0  0  0  0  0  0  0  0
   -6.6690   23.5660  -31.0450 C   0  0  0  0  0  0  0  0  0  0  0  0
   -6.3890   24.7980  -30.2220 C   0  0  0  0  0  0  0  0  0  0  0  0
   -5.5530   24.4650  -29.1740 F   0  0  0  0  0  0  0  0  0  0  0  0
   -7.5650   25.3230  -29.7130 F   0  0  0  0  0  0  0  0  0  0  0  0
   -5.7800   25.7730  -30.9930 F   0  0  0  0  0  0  0  0  0  0  0  0
   -5.6010   22.7770  -31.5290 C   0  0  0  0  0  0  0  0  0  0  0  0
   -5.9010   21.6180  -32.2540 C   0  0  0  0  0  0  0  0  0  0  0  0
   -5.0480   20.7210  -32.7970 N   0  0  0  0  0  0  0  0  0  0  0  0
   -3.6130   20.7670  -32.7410 C   0  0  0  0  0  0  0  0  0  0  0  0
   -2.9920   21.7190  -33.2890 O   0  0  0  0  0  0  0  0  0  0  0  0
   -2.9100   19.7490  -32.0880 O   0  0  0  0  0  0  0  0  0  0  0  0
   -1.7200   19.9860  -31.3430 C   0  0  0  0  0  0  0  0  0  0  0  0
   -2.0510   20.5720  -30.0870 O   0  0  0  0  0  0  0  0  0  0  0  0
   -1.9110   21.9350  -29.7860 C   0  0  0  0  0  0  0  0  0  0  0  0
   -0.8680   22.4270  -28.9760 C   0  0  0  0  0  0  0  0  0  0  0  0
   -0.7730   23.7960  -28.7070 C   0  0  0  0  0  0  0  0  0  0  0  0
   -1.7120   24.6840  -29.2390 C   0  0  0  0  0  0  0  0  0  0  0  0
   -1.6130   26.0430  -28.9680 O   0  0  0  0  0  0  0  0  0  0  0  0
   -2.7500   24.2010  -30.0440 C   0  0  0  0  0  0  0  0  0  0  0  0
   -3.6650   25.0580  -30.5630 F   0  0  0  0  0  0  0  0  0  0  0  0
   -2.8470   22.8330  -30.3150 C   0  0  0  0  0  0  0  0  0  0  0  0
   -3.2520   19.1670  -34.1320 H   0  0  0  0  0  0  0  0  0  0  0  0
   -3.6070   17.6000  -34.9320 H   0  0  0  0  0  0  0  0  0  0  0  0
   -8.0429   19.4387  -33.4692 H   0  0  0  0  0  0  0  0  0  0  0  0
   -9.3123   21.6302  -32.1483 H   0  0  0  0  0  0  0  0  0  0  0  0
   -8.8382   23.7373  -30.8587 H   0  0  0  0  0  0  0  0  0  0  0  0
   -4.5570   23.0674  -31.3401 H   0  0  0  0  0  0  0  0  0  0  0  0
   -1.1969   19.0329  -31.1758 H   0  0  0  0  0  0  0  0  0  0  0  0
   -1.0675   20.6706  -31.9049 H   0  0  0  0  0  0  0  0  0  0  0  0
   -0.1267   21.7323  -28.5542 H   0  0  0  0  0  0  0  0  0  0  0  0
    0.0434   24.1751  -28.0747 H   0  0  0  0  0  0  0  0  0  0  0  0
   -3.6647   22.4588  -30.9486 H   0  0  0  0  0  0  0  0  0  0  0  0
  1  2  1  0
  2  3  2  0
  2  4  1  0
  4  5  2  0
  5  6  1  0
  6  7  2  0
  7  8  1  0
  8  9  2  0
  9 10  1  0
 10 11  1  0
 10 12  1  0
 10 13  1  0
  9 14  1  0
 14 15  2  0
 15 16  1  0
 16 17  1  0
 17 18  2  0
 17 19  1  0
 19 20  1  0
 20 21  1  0
 21 22  1  0
 22 23  2  0
 23 24  1  0
 24 25  2  0
 25 26  1  0
 25 27  1  0
 27 28  1  0
 27 29  2  0
 16  4  1  0
 29 22  1  0
 15  6  1  0
  1 30  1  0
  1 31  1  0
  5 32  1  0
  7 33  1  0
  8 34  1  0
 14 35  1  0
 20 36  1  0
 20 37  1  0
 23 38  1  0
 24 39  1  0
 29 40  1  0
M  CHG  1  26  -1
M  END
>  <UniqueID>  (94) 
92

>  <SMILES>  (94) 
NC(=O)c1cc2ccc(C(F)(F)F)cc2n1C(=O)OCOc1ccc([O-])c(F)c1

>  <Energy>  (94) 
80.3756702005574

>  <Genealogy>  (94) 
NC(=O)c1cc2ccc(C(F)(F)F)cc2n1C(=O)OCOc1ccc([O-])c(F)c1 (protonated)
NC(=O)c1cc2ccc(C(F)(F)F)cc2n1C(=O)OCOc1ccc([O-])c(F)c1 (3D coordinates assigned)
NC(=O)c1cc2ccc(C(F)(F)F)cc2n1C(=O)OCOc1ccc([O-])c(F)c1 (optimized conformer: 80.3756702005574 kcal/mol)

>  <smiles>  (94) 
NC(=O)c1cc2ccc(C(F)(F)F)cc2n1C(=O)OCOc1ccc(O)c(F)c1

>  <score_type>  (94) 
oracle

>  <origin>  (94) 
adg

>  <m_score__min__energy>  (94) 
-10.109999999999999

>  <m_primary>  (94) 
energy

$$$$
95:0
     RDKit          3D

 46 47  0  0  0  0  0  0  0  0999 V2000
   -3.8940   21.6300  -33.1450 C   0  0  0  0  0  0  0  0  0  0  0  0
   -3.2400   21.8900  -31.8590 N   0  0  0  0  0  0  0  0  0  0  0  0
   -1.8410   21.5760  -31.7100 C   0  0  0  0  0  0  0  0  0  0  0  0
   -1.0760   21.6060  -32.7130 O   0  0  0  0  0  0  0  0  0  0  0  0
   -1.3340   21.2650  -30.4390 O   0  0  0  0  0  0  0  0  0  0  0  0
   -0.8110   22.1930  -29.5300 C   0  0  0  0  0  0  0  0  0  0  0  0
   -0.0860   21.8170  -28.5680 O   0  0  0  0  0  0  0  0  0  0  0  0
   -1.1080   23.5480  -29.7160 O   0  0  0  0  0  0  0  0  0  0  0  0
   -1.6580   24.3930  -28.7410 C   0  0  0  0  0  0  0  0  0  0  0  0
   -1.6150   25.6490  -28.8770 O   0  0  0  0  0  0  0  0  0  0  0  0
   -2.2420   23.8130  -27.5560 N   0  0  0  0  0  0  0  0  0  0  0  0
   -3.5180   24.4710  -27.2340 C   0  0  0  0  0  0  0  0  0  0  0  0
   -1.3010   23.9090  -26.4300 C   0  0  0  0  0  0  0  0  0  0  0  0
   -4.0190   22.3740  -30.7460 C   0  0  0  0  0  0  0  0  0  0  0  0
   -3.5220   22.4000  -29.5880 O   0  0  0  0  0  0  0  0  0  0  0  0
   -5.3660   22.8310  -30.9420 N   0  0  0  0  0  0  0  0  0  0  0  0
   -5.8570   24.0900  -30.7740 C   0  0  0  0  0  0  0  0  0  0  0  0
   -5.0610   25.2960  -30.4620 C   0  0  0  0  0  0  0  0  0  0  0  0
   -3.6420   25.2960  -30.5970 N   0  0  0  0  0  0  0  0  0  0  0  0
   -5.6450   26.3520  -30.1020 O   0  0  0  0  0  0  0  0  0  0  0  0
   -7.2340   24.1100  -30.9970 C   0  0  0  0  0  0  0  0  0  0  0  0
   -7.5710   22.8120  -31.3090 C   0  0  0  0  0  0  0  0  0  0  0  0
   -8.8070   22.2570  -31.6240 C   0  0  0  0  0  0  0  0  0  0  0  0
   -8.8630   20.8780  -31.8870 C   0  0  0  0  0  0  0  0  0  0  0  0
   -7.6950   20.0750  -31.8030 C   0  0  0  0  0  0  0  0  0  0  0  0
   -7.7510   18.6020  -32.1230 C   0  0  0  0  0  0  0  0  0  0  0  0
   -9.0600   18.1540  -32.1100 F   0  0  0  0  0  0  0  0  0  0  0  0
   -7.0260   17.9040  -31.1750 F   0  0  0  0  0  0  0  0  0  0  0  0
   -7.2180   18.3480  -33.3750 F   0  0  0  0  0  0  0  0  0  0  0  0
   -6.4550   20.6820  -31.4990 C   0  0  0  0  0  0  0  0  0  0  0  0
   -6.4270   22.0600  -31.2630 C   0  0  0  0  0  0  0  0  0  0  0  0
   -4.9030   21.2289  -32.9688 H   0  0  0  0  0  0  0  0  0  0  0  0
   -3.9667   22.5676  -33.7156 H   0  0  0  0  0  0  0  0  0  0  0  0
   -3.3031   20.8984  -33.7156 H   0  0  0  0  0  0  0  0  0  0  0  0
   -2.4350   22.7990  -27.7380 H   0  0  0  0  0  0  0  0  0  0  0  0
   -3.6343   24.5310  -26.1418 H   0  0  0  0  0  0  0  0  0  0  0  0
   -3.5252   25.4853  -27.6597 H   0  0  0  0  0  0  0  0  0  0  0  0
   -4.3485   23.8887  -27.6597 H   0  0  0  0  0  0  0  0  0  0  0  0
   -1.8564   23.8523  -25.4822 H   0  0  0  0  0  0  0  0  0  0  0  0
   -0.5802   23.0797  -26.4828 H   0  0  0  0  0  0  0  0  0  0  0  0
   -0.7625   24.8667  -26.4828 H   0  0  0  0  0  0  0  0  0  0  0  0
   -3.0630   24.5330  -30.1810 H   0  0  0  0  0  0  0  0  0  0  0  0
   -7.9071   24.9779  -30.9365 H   0  0  0  0  0  0  0  0  0  0  0  0
   -9.7133   22.8790  -31.6659 H   0  0  0  0  0  0  0  0  0  0  0  0
   -9.8225   20.4152  -32.1611 H   0  0  0  0  0  0  0  0  0  0  0  0
   -5.5331   20.0839  -31.4492 H   0  0  0  0  0  0  0  0  0  0  0  0
  1  2  1  0
  2  3  1  0
  3  4  2  0
  3  5  1  0
  5  6  1  0
  6  7  2  0
  6  8  1  0
  8  9  1  0
  9 10  2  0
  9 11  1  0
 11 12  1  0
 11 13  1  0
  2 14  1  0
 14 15  2  0
 14 16  1  0
 16 17  1  0
 17 18  1  0
 18 19  1  0
 18 20  2  0
 17 21  2  0
 21 22  1  0
 22 23  2  0
 23 24  1  0
 24 25  2  0
 25 26  1  0
 26 27  1  0
 26 28  1  0
 26 29  1  0
 25 30  1  0
 30 31  2  0
 31 16  1  0
 31 22  1  0
  1 32  1  0
  1 33  1  0
  1 34  1  0
 11 35  1  0
 12 36  1  0
 12 37  1  0
 12 38  1  0
 13 39  1  0
 13 40  1  0
 13 41  1  0
 19 42  1  0
 21 43  1  0
 23 44  1  0
 24 45  1  0
 30 46  1  0
M  CHG  2  11   1  19  -1
M  END
>  <UniqueID>  (95) 
93

>  <SMILES>  (95) 
CN(C(=O)OC(=O)OC(=O)[NH+](C)C)C(=O)n1c(C([NH-])=O)cc2ccc(C(F)(F)F)cc21

>  <Energy>  (95) 
89.71863188926295

>  <Genealogy>  (95) 
CN(C(=O)OC(=O)OC(=O)[NH+](C)C)C(=O)n1c(C([NH-])=O)cc2ccc(C(F)(F)F)cc21 (protonated)
CN(C(=O)OC(=O)OC(=O)[NH+](C)C)C(=O)n1c(C([NH-])=O)cc2ccc(C(F)(F)F)cc21 (3D coordinates assigned)
CN(C(=O)OC(=O)OC(=O)[NH+](C)C)C(=O)n1c(C([NH-])=O)cc2ccc(C(F)(F)F)cc21 (optimized conformer: 89.71863188926295 kcal/mol)

>  <smiles>  (95) 
CN(C)C(=O)OC(=O)OC(=O)N(C)C(=O)n1c(C(N)=O)cc2ccc(C(F)(F)F)cc21

>  <score_type>  (95) 
oracle

>  <origin>  (95) 
adg

>  <m_score__min__energy>  (95) 
-10.56

>  <m_primary>  (95) 
energy

$$$$
96:0
     RDKit          3D

 40 41  0  0  0  0  0  0  0  0999 V2000
   -2.6680   22.8270  -28.0160 C   0  0  0  0  0  0  0  0  0  0  0  0
   -1.5370   23.6690  -28.6090 C   0  0  2  0  0  0  0  0  0  0  0  0
   -1.4980   25.0690  -27.9720 C   0  0  0  0  0  0  0  0  0  0  0  0
   -1.5850   26.0730  -28.9480 O   0  0  0  0  0  0  0  0  0  0  0  0
   -1.7220   23.7650  -30.0220 O   0  0  0  0  0  0  0  0  0  0  0  0
   -2.9740   23.6980  -30.6450 C   0  0  0  0  0  0  0  0  0  0  0  0
   -3.7230   24.7120  -30.6810 O   0  0  0  0  0  0  0  0  0  0  0  0
   -3.3890   22.4600  -31.2360 N   0  0  0  0  0  0  0  0  0  0  0  0
   -4.6330   22.2750  -31.9280 C   0  0  0  0  0  0  0  0  0  0  0  0
   -5.3590   23.2660  -32.2170 O   0  0  0  0  0  0  0  0  0  0  0  0
   -5.0480   20.9560  -32.3190 N   0  0  0  0  0  0  0  0  0  0  0  0
   -4.2740   19.9650  -32.8420 C   0  0  0  0  0  0  0  0  0  0  0  0
   -2.8030   19.9980  -32.9770 C   0  0  0  0  0  0  0  0  0  0  0  0
   -2.1790   20.3820  -34.2030 N   0  0  0  0  0  0  0  0  0  0  0  0
   -2.0850   19.7270  -31.9780 O   0  0  0  0  0  0  0  0  0  0  0  0
   -5.0570   18.8780  -33.2220 C   0  0  0  0  0  0  0  0  0  0  0  0
   -6.3490   19.2350  -32.9070 C   0  0  0  0  0  0  0  0  0  0  0  0
   -7.5410   18.5420  -33.1000 C   0  0  0  0  0  0  0  0  0  0  0  0
   -8.7390   19.1770  -32.7320 C   0  0  0  0  0  0  0  0  0  0  0  0
   -8.7250   20.4820  -32.1820 C   0  0  0  0  0  0  0  0  0  0  0  0
  -10.0140   21.1720  -31.8470 C   0  0  0  0  0  0  0  0  0  0  0  0
   -9.7850   22.5240  -31.6820 F   0  0  0  0  0  0  0  0  0  0  0  0
   -7.4980   21.1620  -32.0180 C   0  0  0  0  0  0  0  0  0  0  0  0
   -6.3180   20.4950  -32.3680 C   0  0  0  0  0  0  0  0  0  0  0  0
   -2.6166   22.8653  -26.9179 H   0  0  0  0  0  0  0  0  0  0  0  0
   -3.6367   23.2255  -28.3518 H   0  0  0  0  0  0  0  0  0  0  0  0
   -2.5640   21.7847  -28.3518 H   0  0  0  0  0  0  0  0  0  0  0  0
   -0.5742   23.1820  -28.3949 H   0  0  0  0  0  0  0  0  0  0  0  0
   -2.3441   25.1704  -27.2765 H   0  0  0  0  0  0  0  0  0  0  0  0
   -0.5423   25.1829  -27.4394 H   0  0  0  0  0  0  0  0  0  0  0  0
   -2.0230   25.6640  -29.7390 H   0  0  0  0  0  0  0  0  0  0  0  0
   -2.7400   21.6450  -31.1590 H   0  0  0  0  0  0  0  0  0  0  0  0
   -2.7320   20.7900  -34.9880 H   0  0  0  0  0  0  0  0  0  0  0  0
   -1.1390   20.3500  -34.2930 H   0  0  0  0  0  0  0  0  0  0  0  0
   -4.7164   17.9360  -33.6765 H   0  0  0  0  0  0  0  0  0  0  0  0
   -7.5447   17.5285  -33.5275 H   0  0  0  0  0  0  0  0  0  0  0  0
   -9.6973   18.6555  -32.8724 H   0  0  0  0  0  0  0  0  0  0  0  0
  -10.7343   21.0195  -32.6642 H   0  0  0  0  0  0  0  0  0  0  0  0
  -10.4216   20.7535  -30.9150 H   0  0  0  0  0  0  0  0  0  0  0  0
   -7.4703   22.1892  -31.6254 H   0  0  0  0  0  0  0  0  0  0  0  0
  1  2  1  0
  2  3  1  0
  3  4  1  0
  2  5  1  0
  5  6  1  0
  6  7  2  0
  6  8  1  0
  8  9  1  0
  9 10  2  0
  9 11  1  0
 11 12  1  0
 12 13  1  0
 13 14  1  0
 13 15  2  0
 12 16  2  0
 16 17  1  0
 17 18  2  0
 18 19  1  0
 19 20  2  0
 20 21  1  0
 21 22  1  0
 20 23  1  0
 23 24  2  0
 24 11  1  0
 24 17  1  0
  1 25  1  0
  1 26  1  0
  1 27  1  0
  2 28  1  6
  3 29  1  0
  3 30  1  0
  4 31  1  0
  8 32  1  0
 14 33  1  0
 14 34  1  0
 16 35  1  0
 18 36  1  0
 19 37  1  0
 21 38  1  0
 21 39  1  0
 23 40  1  0
M  END
>  <UniqueID>  (96) 
94

>  <SMILES>  (96) 
C[C@H](CO)OC(=O)NC(=O)n1c(C(N)=O)cc2ccc(CF)cc21

>  <Energy>  (96) 
73.68796022241001

>  <Genealogy>  (96) 
C[C@H](CO)OC(=O)NC(=O)n1c(C(N)=O)cc2ccc(CF)cc21 (chirality)
C[C@H](CO)OC(=O)NC(=O)n1c(C(N)=O)cc2ccc(CF)cc21 (3D coordinates assigned)
C[C@H](CO)OC(=O)NC(=O)n1c(C(N)=O)cc2ccc(CF)cc21 (optimized conformer: 73.68796022241001 kcal/mol)

>  <smiles>  (96) 
CC(CO)OC(=O)NC(=O)n1c(C(N)=O)cc2ccc(CF)cc21

>  <score_type>  (96) 
oracle

>  <origin>  (96) 
adg

>  <m_score__min__energy>  (96) 
-8.7799999999999994

>  <m_primary>  (96) 
energy

$$$$
97:0
     RDKit          3D

 39 40  0  0  0  0  0  0  0  0999 V2000
   -7.7240   22.7250  -30.8700 C   0  0  0  0  0  0  0  0  0  0  0  0
   -7.1330   24.1340  -30.9060 C   0  0  0  0  0  0  0  0  0  0  0  0
   -5.9600   24.3120  -29.9210 C   0  0  2  0  0  0  0  0  0  0  0  0
   -6.1050   25.5530  -29.1530 N   0  0  0  0  0  0  0  0  0  0  0  0
   -4.6700   24.3270  -30.6910 C   0  0  0  0  0  0  0  0  0  0  0  0
   -3.8730   25.2990  -30.5660 O   0  0  0  0  0  0  0  0  0  0  0  0
   -4.4070   23.2870  -31.5910 O   0  0  0  0  0  0  0  0  0  0  0  0
   -3.5980   22.1750  -31.3250 C   0  0  0  0  0  0  0  0  0  0  0  0
   -2.8990   22.1200  -30.2760 O   0  0  0  0  0  0  0  0  0  0  0  0
   -3.5600   21.0870  -32.2630 N   0  0  0  0  0  0  0  0  0  0  0  0
   -2.5160   20.7050  -33.0510 C   0  0  0  0  0  0  0  0  0  0  0  0
   -1.1410   21.2380  -32.9850 C   0  0  0  0  0  0  0  0  0  0  0  0
   -0.5270   21.5490  -31.7340 N   0  0  0  0  0  0  0  0  0  0  0  0
   -0.4770   21.3710  -34.0490 O   0  0  0  0  0  0  0  0  0  0  0  0
   -2.9000   19.6840  -33.9170 C   0  0  0  0  0  0  0  0  0  0  0  0
   -4.2230   19.4390  -33.6240 C   0  0  0  0  0  0  0  0  0  0  0  0
   -5.1060   18.5230  -34.1840 C   0  0  0  0  0  0  0  0  0  0  0  0
   -6.4280   18.5060  -33.7080 C   0  0  0  0  0  0  0  0  0  0  0  0
   -6.8500   19.4180  -32.7080 C   0  0  0  0  0  0  0  0  0  0  0  0
   -8.2610   19.3660  -32.1800 C   0  0  0  0  0  0  0  0  0  0  0  0
   -8.6970   18.0560  -32.0770 F   0  0  0  0  0  0  0  0  0  0  0  0
   -9.0960   20.0530  -33.0420 F   0  0  0  0  0  0  0  0  0  0  0  0
   -8.3350   19.9470  -30.9240 F   0  0  0  0  0  0  0  0  0  0  0  0
   -5.9160   20.3200  -32.1490 C   0  0  0  0  0  0  0  0  0  0  0  0
   -4.5990   20.3000  -32.6250 C   0  0  0  0  0  0  0  0  0  0  0  0
   -7.8563   22.4095  -29.8246 H   0  0  0  0  0  0  0  0  0  0  0  0
   -8.6987   22.7231  -31.3798 H   0  0  0  0  0  0  0  0  0  0  0  0
   -7.0423   22.0283  -31.3798 H   0  0  0  0  0  0  0  0  0  0  0  0
   -6.7714   24.3381  -31.9246 H   0  0  0  0  0  0  0  0  0  0  0  0
   -7.9266   24.8351  -30.6082 H   0  0  0  0  0  0  0  0  0  0  0  0
   -5.9589   23.4728  -29.2099 H   0  0  0  0  0  0  0  0  0  0  0  0
   -5.1650   26.0060  -29.0780 H   0  0  0  0  0  0  0  0  0  0  0  0
   -6.3700   25.3070  -28.1730 H   0  0  0  0  0  0  0  0  0  0  0  0
   -0.9820   21.2910  -30.8310 H   0  0  0  0  0  0  0  0  0  0  0  0
    0.4310   21.9630  -31.7090 H   0  0  0  0  0  0  0  0  0  0  0  0
   -2.2793   19.1810  -34.6731 H   0  0  0  0  0  0  0  0  0  0  0  0
   -4.7798   17.8325  -34.9757 H   0  0  0  0  0  0  0  0  0  0  0  0
   -7.1435   17.7768  -34.1159 H   0  0  0  0  0  0  0  0  0  0  0  0
   -6.2170   21.0221  -31.3576 H   0  0  0  0  0  0  0  0  0  0  0  0
  1  2  1  0
  2  3  1  0
  3  4  1  0
  3  5  1  0
  5  6  2  0
  5  7  1  0
  7  8  1  0
  8  9  2  0
  8 10  1  0
 10 11  1  0
 11 12  1  0
 12 13  1  0
 12 14  2  0
 11 15  2  0
 15 16  1  0
 16 17  2  0
 17 18  1  0
 18 19  2  0
 19 20  1  0
 20 21  1  0
 20 22  1  0
 20 23  1  0
 19 24  1  0
 24 25  2  0
 25 10  1  0
 25 16  1  0
  1 26  1  0
  1 27  1  0
  1 28  1  0
  2 29  1  0
  2 30  1  0
  3 31  1  1
  4 32  1  0
  4 33  1  0
 13 34  1  0
 13 35  1  0
 15 36  1  0
 17 37  1  0
 18 38  1  0
 24 39  1  0
M  END
>  <UniqueID>  (97) 
95

>  <SMILES>  (97) 
CC[C@H](N)C(=O)OC(=O)n1c(C(N)=O)cc2ccc(C(F)(F)F)cc21

>  <Energy>  (97) 
74.94049276596026

>  <Genealogy>  (97) 
CC[C@H](N)C(=O)OC(=O)n1c(C(N)=O)cc2ccc(C(F)(F)F)cc21 (3D coordinates assigned)
CC[C@H](N)C(=O)OC(=O)n1c(C(N)=O)cc2ccc(C(F)(F)F)cc21 (optimized conformer: 74.94049276596026 kcal/mol)

>  <smiles>  (97) 
CC[C@H](N)C(=O)OC(=O)n1c(C(N)=O)cc2ccc(C(F)(F)F)cc21

>  <score_type>  (97) 
oracle

>  <origin>  (97) 
adg

>  <m_score__min__energy>  (97) 
-8.9900000000000002

>  <m_primary>  (97) 
energy

$$$$
98:0
     RDKit          3D

 41 42  0  0  0  0  0  0  0  0999 V2000
    1.9280   25.2680  -27.3460 C   0  0  0  0  0  0  0  0  0  0  0  0
    0.5370   25.7390  -27.3330 N   0  0  0  0  0  0  0  0  0  0  0  0
    0.1750   26.9400  -26.5720 C   0  0  0  0  0  0  0  0  0  0  0  0
   -0.4540   25.0280  -28.1110 C   0  0  0  0  0  0  0  0  0  0  0  0
   -0.0990   24.0820  -28.8620 O   0  0  0  0  0  0  0  0  0  0  0  0
   -1.9190   25.3430  -28.0040 C   0  0  0  0  0  0  0  0  0  0  0  0
   -2.5710   25.0350  -29.2690 N   0  0  0  0  0  0  0  0  0  0  0  0
   -3.5450   23.9950  -29.4030 C   0  0  0  0  0  0  0  0  0  0  0  0
   -3.7800   23.2200  -28.4360 O   0  0  0  0  0  0  0  0  0  0  0  0
   -4.2760   23.8380  -30.6700 C   0  0  0  0  0  0  0  0  0  0  0  0
   -4.7870   24.8530  -31.2190 O   0  0  0  0  0  0  0  0  0  0  0  0
   -4.4010   22.5520  -31.2990 N   0  0  0  0  0  0  0  0  0  0  0  0
   -3.3980   21.7820  -31.8080 C   0  0  0  0  0  0  0  0  0  0  0  0
   -1.9500   22.0690  -31.6780 C   0  0  0  0  0  0  0  0  0  0  0  0
   -1.4220   22.6250  -30.4730 N   0  0  0  0  0  0  0  0  0  0  0  0
   -1.1660   21.8400  -32.6400 O   0  0  0  0  0  0  0  0  0  0  0  0
   -3.9220   20.6440  -32.4210 C   0  0  0  0  0  0  0  0  0  0  0  0
   -5.2860   20.7480  -32.2780 C   0  0  0  0  0  0  0  0  0  0  0  0
   -6.2970   19.9080  -32.7310 C   0  0  0  0  0  0  0  0  0  0  0  0
   -7.6250   20.2850  -32.4820 C   0  0  0  0  0  0  0  0  0  0  0  0
   -7.9220   21.4860  -31.7860 C   0  0  0  0  0  0  0  0  0  0  0  0
   -9.3510   21.9130  -31.5830 C   0  0  0  0  0  0  0  0  0  0  0  0
   -9.7020   21.8350  -30.2470 F   0  0  0  0  0  0  0  0  0  0  0  0
  -10.2080   21.1010  -32.3030 F   0  0  0  0  0  0  0  0  0  0  0  0
   -9.5000   23.2170  -32.0110 F   0  0  0  0  0  0  0  0  0  0  0  0
   -6.8650   22.3260  -31.3670 C   0  0  0  0  0  0  0  0  0  0  0  0
   -5.5510   21.9100  -31.6030 C   0  0  0  0  0  0  0  0  0  0  0  0
    2.2840   25.1475  -26.3122 H   0  0  0  0  0  0  0  0  0  0  0  0
    1.9829   24.3012  -27.8678 H   0  0  0  0  0  0  0  0  0  0  0  0
    2.5590   26.0026  -27.8678 H   0  0  0  0  0  0  0  0  0  0  0  0
    0.2398   26.7251  -25.4951 H   0  0  0  0  0  0  0  0  0  0  0  0
    0.8668   27.7569  -26.8252 H   0  0  0  0  0  0  0  0  0  0  0  0
   -0.8530   27.2385  -26.8252 H   0  0  0  0  0  0  0  0  0  0  0  0
   -2.3674   24.7376  -27.2025 H   0  0  0  0  0  0  0  0  0  0  0  0
   -2.0505   26.4102  -27.7719 H   0  0  0  0  0  0  0  0  0  0  0  0
   -0.4110   22.8830  -30.4170 H   0  0  0  0  0  0  0  0  0  0  0  0
   -2.0130   22.7470  -29.6220 H   0  0  0  0  0  0  0  0  0  0  0  0
   -3.3630   19.8351  -32.9141 H   0  0  0  0  0  0  0  0  0  0  0  0
   -6.0628   18.9769  -33.2679 H   0  0  0  0  0  0  0  0  0  0  0  0
   -8.4466   19.6419  -32.8305 H   0  0  0  0  0  0  0  0  0  0  0  0
   -7.0712   23.2840  -30.8673 H   0  0  0  0  0  0  0  0  0  0  0  0
  1  2  1  0
  2  3  1  0
  2  4  1  0
  4  5  2  0
  4  6  1  0
  6  7  1  0
  7  8  1  0
  8  9  2  0
  8 10  1  0
 10 11  2  0
 10 12  1  0
 12 13  1  0
 13 14  1  0
 14 15  1  0
 14 16  2  0
 13 17  2  0
 17 18  1  0
 18 19  2  0
 19 20  1  0
 20 21  2  0
 21 22  1  0
 22 23  1  0
 22 24  1  0
 22 25  1  0
 21 26  1  0
 26 27  2  0
 27 12  1  0
 27 18  1  0
  1 28  1  0
  1 29  1  0
  1 30  1  0
  3 31  1  0
  3 32  1  0
  3 33  1  0
  6 34  1  0
  6 35  1  0
 15 36  1  0
 15 37  1  0
 17 38  1  0
 19 39  1  0
 20 40  1  0
 26 41  1  0
M  CHG  1   7  -1
M  END
>  <UniqueID>  (98) 
96

>  <SMILES>  (98) 
CN(C)C(=O)C[N-]C(=O)C(=O)n1c(C(N)=O)cc2ccc(C(F)(F)F)cc21

>  <Energy>  (98) 
74.87731615997943

>  <Genealogy>  (98) 
CN(C)C(=O)C[N-]C(=O)C(=O)n1c(C(N)=O)cc2ccc(C(F)(F)F)cc21 (protonated)
CN(C)C(=O)C[N-]C(=O)C(=O)n1c(C(N)=O)cc2ccc(C(F)(F)F)cc21 (3D coordinates assigned)
CN(C)C(=O)C[N-]C(=O)C(=O)n1c(C(N)=O)cc2ccc(C(F)(F)F)cc21 (optimized conformer: 74.87731615997943 kcal/mol)

>  <smiles>  (98) 
CN(C)C(=O)CNC(=O)C(=O)n1c(C(N)=O)cc2ccc(C(F)(F)F)cc21

>  <score_type>  (98) 
oracle

>  <origin>  (98) 
adg

>  <m_score__min__energy>  (98) 
-9.5099999999999998

>  <m_primary>  (98) 
energy

$$$$
