0:0
     RDKit          3D

 40 42  0  0  0  0  0  0  0  0999 V2000
   -5.7930   25.2380  -29.0560 N   0  0  0  0  0  0  0  0  0  0  0  0
   -5.2650   24.7370  -30.2870 C   0  0  0  0  0  0  0  0  0  0  0  0
   -4.3230   25.3630  -30.8430 O   0  0  0  0  0  0  0  0  0  0  0  0
   -5.8010   23.5000  -30.9040 C   0  0  0  0  0  0  0  0  0  0  0  0
   -7.1540   23.2460  -31.1320 C   0  0  0  0  0  0  0  0  0  0  0  0
   -7.2020   21.9870  -31.6860 C   0  0  0  0  0  0  0  0  0  0  0  0
   -8.2900   21.2450  -32.1340 C   0  0  0  0  0  0  0  0  0  0  0  0
   -8.0410   19.9800  -32.6950 C   0  0  0  0  0  0  0  0  0  0  0  0
   -6.7180   19.4770  -32.7890 C   0  0  0  0  0  0  0  0  0  0  0  0
   -6.4570   18.1450  -33.4460 C   0  0  0  0  0  0  0  0  0  0  0  0
   -6.1060   18.3150  -34.7740 F   0  0  0  0  0  0  0  0  0  0  0  0
   -7.5870   17.3470  -33.3960 F   0  0  0  0  0  0  0  0  0  0  0  0
   -5.4250   17.5060  -32.7840 F   0  0  0  0  0  0  0  0  0  0  0  0
   -5.6360   20.2740  -32.3460 C   0  0  0  0  0  0  0  0  0  0  0  0
   -5.9180   21.5190  -31.7760 C   0  0  0  0  0  0  0  0  0  0  0  0
   -5.0500   22.4310  -31.2910 N   0  0  0  0  0  0  0  0  0  0  0  0
   -3.6190   22.3160  -31.2550 C   0  0  0  0  0  0  0  0  0  0  0  0
   -2.9880   22.2960  -32.3480 O   0  0  0  0  0  0  0  0  0  0  0  0
   -2.8720   22.1330  -29.9440 C   0  0  0  0  0  0  0  0  0  0  0  0
   -3.8100   22.3000  -28.7210 C   0  0  0  0  0  0  0  0  0  0  0  0
   -3.0190   22.6880  -27.4680 C   0  0  0  0  0  0  0  0  0  0  0  0
   -2.3450   23.9930  -27.6180 N   0  0  0  0  0  0  0  0  0  0  0  0
   -1.9450   24.3200  -29.0020 C   0  0  0  0  0  0  0  0  0  0  0  0
   -1.6350   23.0680  -29.8350 C   0  0  0  0  0  0  0  0  0  0  0  0
   -6.6140   24.7950  -28.5900 H   0  0  0  0  0  0  0  0  0  0  0  0
   -5.3810   26.0920  -28.6230 H   0  0  0  0  0  0  0  0  0  0  0  0
   -8.0027   23.9113  -30.9149 H   0  0  0  0  0  0  0  0  0  0  0  0
   -9.3148   21.6363  -32.0518 H   0  0  0  0  0  0  0  0  0  0  0  0
   -8.8811   19.3739  -33.0650 H   0  0  0  0  0  0  0  0  0  0  0  0
   -4.5986   19.9227  -32.4476 H   0  0  0  0  0  0  0  0  0  0  0  0
   -2.4971   21.0989  -29.9396 H   0  0  0  0  0  0  0  0  0  0  0  0
   -4.5471   23.0870  -28.9385 H   0  0  0  0  0  0  0  0  0  0  0  0
   -4.3132   21.3401  -28.5331 H   0  0  0  0  0  0  0  0  0  0  0  0
   -3.7109   22.7423  -26.6146 H   0  0  0  0  0  0  0  0  0  0  0  0
   -2.2446   21.9237  -27.3064 H   0  0  0  0  0  0  0  0  0  0  0  0
   -1.4870   23.9840  -27.0180 H   0  0  0  0  0  0  0  0  0  0  0  0
   -2.7649   24.8714  -29.4854 H   0  0  0  0  0  0  0  0  0  0  0  0
   -1.0269   24.9238  -28.9511 H   0  0  0  0  0  0  0  0  0  0  0  0
   -1.3315   23.3779  -30.8459 H   0  0  0  0  0  0  0  0  0  0  0  0
   -0.8272   22.5133  -29.3352 H   0  0  0  0  0  0  0  0  0  0  0  0
  1  2  1  0
  2  3  2  0
  2  4  1  0
  4  5  2  0
  5  6  1  0
  6  7  2  0
  7  8  1  0
  8  9  2  0
  9 10  1  0
 10 11  1  0
 10 12  1  0
 10 13  1  0
  9 14  1  0
 14 15  2  0
 15 16  1  0
 16 17  1  0
 17 18  2  0
 17 19  1  0
 19 20  1  0
 20 21  1  0
 21 22  1  0
 22 23  1  0
 23 24  1  0
 16  4  1  0
 24 19  1  0
 15  6  1  0
  1 25  1  0
  1 26  1  0
  5 27  1  0
  7 28  1  0
  8 29  1  0
 14 30  1  0
 19 31  1  0
 20 32  1  0
 20 33  1  0
 21 34  1  0
 21 35  1  0
 22 36  1  0
 23 37  1  0
 23 38  1  0
 24 39  1  0
 24 40  1  0
M  END
>  <UniqueID>  (1) 
1

>  <SMILES>  (1) 
NC(=O)c1cc2ccc(C(F)(F)F)cc2n1C(=O)C1CCNCC1

>  <Energy>  (1) 
88.53354761878059

>  <Genealogy>  (1) 
NC(=O)c1cc2ccc(C(F)(F)F)cc2n1C(=O)C1CCNCC1 (3D coordinates assigned)
NC(=O)c1cc2ccc(C(F)(F)F)cc2n1C(=O)C1CCNCC1 (nonaromatic ring conformer: 88.53354761878059 kcal/mol)

>  <smiles>  (1) 
NC(=O)c1cc2ccc(C(F)(F)F)cc2n1C(=O)C1CCNCC1

>  <score_type>  (1) 
oracle

>  <origin>  (1) 
adg

>  <m_score__min__energy>  (1) 
-8.6300000000000008

>  <m_primary>  (1) 
energy

$$$$
1:0
     RDKit          3D

 40 41  0  0  0  0  0  0  0  0999 V2000
   -6.4900   16.3700  -33.4370 N   0  0  0  0  0  0  0  0  0  0  0  0
   -6.0110   17.5140  -34.1380 C   0  0  0  0  0  0  0  0  0  0  0  0
   -5.6370   17.3920  -35.3350 O   0  0  0  0  0  0  0  0  0  0  0  0
   -5.9960   18.8480  -33.5010 C   0  0  0  0  0  0  0  0  0  0  0  0
   -4.9070   19.7140  -33.5640 C   0  0  0  0  0  0  0  0  0  0  0  0
   -5.3200   20.8660  -32.9340 C   0  0  0  0  0  0  0  0  0  0  0  0
   -4.6360   22.0570  -32.7100 C   0  0  0  0  0  0  0  0  0  0  0  0
   -5.3050   23.0800  -32.0180 C   0  0  0  0  0  0  0  0  0  0  0  0
   -6.6310   22.8910  -31.5540 C   0  0  0  0  0  0  0  0  0  0  0  0
   -7.3550   24.0070  -30.8440 C   0  0  0  0  0  0  0  0  0  0  0  0
   -6.3890   25.1210  -30.4190 C   0  0  0  0  0  0  0  0  0  0  0  0
   -5.5520   24.7070  -29.2940 N   0  0  0  0  0  0  0  0  0  0  0  0
   -4.1330   24.5620  -29.4280 C   0  0  0  0  0  0  0  0  0  0  0  0
   -3.5500   24.9480  -30.4770 O   0  0  0  0  0  0  0  0  0  0  0  0
   -3.3410   23.8880  -28.3450 C   0  0  0  0  0  0  0  0  0  0  0  0
   -1.8840   23.6690  -28.7710 C   0  0  0  0  0  0  0  0  0  0  0  0
   -1.0840   24.9350  -28.6890 C   0  0  0  0  0  0  0  0  0  0  0  0
   -1.6140   26.0400  -28.9740 O   0  0  0  0  0  0  0  0  0  0  0  0
    0.2370   24.8950  -28.2640 O   0  0  0  0  0  0  0  0  0  0  0  0
   -7.2920   21.6650  -31.7980 C   0  0  0  0  0  0  0  0  0  0  0  0
   -6.6090   20.6730  -32.5100 C   0  0  0  0  0  0  0  0  0  0  0  0
   -7.0400   19.4380  -32.8510 N   0  0  0  0  0  0  0  0  0  0  0  0
   -8.3110   18.8580  -32.5190 C   0  0  0  0  0  0  0  0  0  0  0  0
   -9.5100   19.3840  -33.0860 N   0  0  0  0  0  0  0  0  0  0  0  0
   -8.3750   17.8890  -31.7170 O   0  0  0  0  0  0  0  0  0  0  0  0
   -6.9700   16.4680  -32.5150 H   0  0  0  0  0  0  0  0  0  0  0  0
   -3.9253   19.5188  -34.0203 H   0  0  0  0  0  0  0  0  0  0  0  0
   -3.6034   22.1931  -33.0639 H   0  0  0  0  0  0  0  0  0  0  0  0
   -4.7949   24.0371  -31.8344 H   0  0  0  0  0  0  0  0  0  0  0  0
   -8.1126   24.4293  -31.5206 H   0  0  0  0  0  0  0  0  0  0  0  0
   -7.8255   23.5937  -29.9397 H   0  0  0  0  0  0  0  0  0  0  0  0
   -5.7415   25.3763  -31.2708 H   0  0  0  0  0  0  0  0  0  0  0  0
   -6.9840   25.9907  -30.1035 H   0  0  0  0  0  0  0  0  0  0  0  0
   -5.9930   24.4470  -28.3820 H   0  0  0  0  0  0  0  0  0  0  0  0
   -3.3594   24.5178  -27.4434 H   0  0  0  0  0  0  0  0  0  0  0  0
   -3.7944   22.9060  -28.1446 H   0  0  0  0  0  0  0  0  0  0  0  0
   -1.4289   22.9167  -28.1100 H   0  0  0  0  0  0  0  0  0  0  0  0
   -1.8808   23.3294  -29.8173 H   0  0  0  0  0  0  0  0  0  0  0  0
   -8.3172   21.4955  -31.4372 H   0  0  0  0  0  0  0  0  0  0  0  0
   -9.5550   19.6550  -34.0920 H   0  0  0  0  0  0  0  0  0  0  0  0
  1  2  1  0
  2  3  2  0
  2  4  1  0
  4  5  2  0
  5  6  1  0
  6  7  2  0
  7  8  1  0
  8  9  2  0
  9 10  1  0
 10 11  1  0
 11 12  1  0
 12 13  1  0
 13 14  2  0
 13 15  1  0
 15 16  1  0
 16 17  1  0
 17 18  2  0
 17 19  1  0
  9 20  1  0
 20 21  2  0
 21 22  1  0
 22 23  1  0
 23 24  1  0
 23 25  2  0
 22  4  1  0
 21  6  1  0
  1 26  1  0
  5 27  1  0
  7 28  1  0
  8 29  1  0
 10 30  1  0
 10 31  1  0
 11 32  1  0
 11 33  1  0
 12 34  1  0
 15 35  1  0
 15 36  1  0
 16 37  1  0
 16 38  1  0
 20 39  1  0
 24 40  1  0
M  CHG  3   1  -1  19  -1  24  -1
M  END
>  <UniqueID>  (2) 
2

>  <SMILES>  (2) 
[NH-]C(=O)c1cc2ccc(CCNC(=O)CCC(=O)[O-])cc2n1C([NH-])=O

>  <Energy>  (2) 
68.87790096846464

>  <Genealogy>  (2) 
[NH-]C(=O)c1cc2ccc(CCNC(=O)CCC(=O)[O-])cc2n1C([NH-])=O (protonated)
[NH-]C(=O)c1cc2ccc(CCNC(=O)CCC(=O)[O-])cc2n1C([NH-])=O (3D coordinates assigned)
[NH-]C(=O)c1cc2ccc(CCNC(=O)CCC(=O)[O-])cc2n1C([NH-])=O (optimized conformer: 68.87790096846464 kcal/mol)

>  <smiles>  (2) 
NC(=O)c1cc2ccc(CCNC(=O)CCC(=O)O)cc2n1C(N)=O

>  <score_type>  (2) 
oracle

>  <origin>  (2) 
adg

>  <m_score__min__energy>  (2) 
-11.109999999999999

>  <m_primary>  (2) 
energy

$$$$
2:0
     RDKit          3D

 27 28  0  0  0  0  0  0  0  0999 V2000
   -6.0760   24.8290  -29.2410 N   0  0  0  0  0  0  0  0  0  0  0  0
   -6.4240   23.6140  -29.9060 C   0  0  0  0  0  0  0  0  0  0  0  0
   -7.6070   23.1890  -29.8260 O   0  0  0  0  0  0  0  0  0  0  0  0
   -5.4230   22.8800  -30.7110 C   0  0  0  0  0  0  0  0  0  0  0  0
   -5.6830   21.6790  -31.3660 C   0  0  0  0  0  0  0  0  0  0  0  0
   -4.4790   21.2860  -31.9030 C   0  0  0  0  0  0  0  0  0  0  0  0
   -4.1620   20.1620  -32.6600 C   0  0  0  0  0  0  0  0  0  0  0  0
   -2.8360   20.0190  -33.1020 C   0  0  0  0  0  0  0  0  0  0  0  0
   -1.8630   21.0020  -32.7960 C   0  0  0  0  0  0  0  0  0  0  0  0
   -0.4430   20.8260  -33.2590 C   0  0  0  0  0  0  0  0  0  0  0  0
   -0.2960   21.2780  -34.6790 C   0  0  0  0  0  0  0  0  0  0  0  0
    0.3050   22.3090  -34.9410 O   0  0  0  0  0  0  0  0  0  0  0  0
   -2.2190   22.1240  -32.0140 C   0  0  0  0  0  0  0  0  0  0  0  0
   -3.5440   22.2320  -31.5720 C   0  0  0  0  0  0  0  0  0  0  0  0
   -4.1070   23.2190  -30.8380 N   0  0  0  0  0  0  0  0  0  0  0  0
   -3.4620   24.4130  -30.3640 C   0  0  0  0  0  0  0  0  0  0  0  0
   -2.5130   24.3420  -29.5410 O   0  0  0  0  0  0  0  0  0  0  0  0
   -3.8690   25.6600  -30.8250 O   0  0  0  0  0  0  0  0  0  0  0  0
   -5.0950   25.1860  -29.2390 H   0  0  0  0  0  0  0  0  0  0  0  0
   -6.8000   25.3600  -28.7080 H   0  0  0  0  0  0  0  0  0  0  0  0
   -6.6475   21.1551  -31.4387 H   0  0  0  0  0  0  0  0  0  0  0  0
   -4.9257   19.4091  -32.9046 H   0  0  0  0  0  0  0  0  0  0  0  0
   -2.5507   19.1351  -33.6914 H   0  0  0  0  0  0  0  0  0  0  0  0
    0.2234   21.4221  -32.6183 H   0  0  0  0  0  0  0  0  0  0  0  0
   -0.1767   19.7607  -33.1947 H   0  0  0  0  0  0  0  0  0  0  0  0
   -0.7319   20.6780  -35.4914 H   0  0  0  0  0  0  0  0  0  0  0  0
   -1.4748   22.8928  -31.7589 H   0  0  0  0  0  0  0  0  0  0  0  0
  1  2  1  0
  2  3  2  0
  2  4  1  0
  4  5  2  0
  5  6  1  0
  6  7  2  0
  7  8  1  0
  8  9  2  0
  9 10  1  0
 10 11  1  0
 11 12  2  0
  9 13  1  0
 13 14  2  0
 14 15  1  0
 15 16  1  0
 16 17  2  0
 16 18  1  0
 15  4  1  0
 14  6  1  0
  1 19  1  0
  1 20  1  0
  5 21  1  0
  7 22  1  0
  8 23  1  0
 10 24  1  0
 10 25  1  0
 11 26  1  0
 13 27  1  0
M  CHG  1  18  -1
M  END
>  <UniqueID>  (3) 
3

>  <SMILES>  (3) 
NC(=O)c1cc2ccc(CC=O)cc2n1C(=O)[O-]

>  <Energy>  (3) 
64.64489141184578

>  <Genealogy>  (3) 
NC(=O)c1cc2ccc(CC=O)cc2n1C(=O)[O-] (protonated)
NC(=O)c1cc2ccc(CC=O)cc2n1C(=O)[O-] (3D coordinates assigned)
NC(=O)c1cc2ccc(CC=O)cc2n1C(=O)[O-] (optimized conformer: 64.64489141184578 kcal/mol)

>  <smiles>  (3) 
NC(=O)c1cc2ccc(CC=O)cc2n1C(=O)O

>  <score_type>  (3) 
oracle

>  <origin>  (3) 
adg

>  <m_score__min__energy>  (3) 
-8.2400000000000002

>  <m_primary>  (3) 
energy

$$$$
3:0
     RDKit          3D

 50 53  0  0  0  0  0  0  0  0999 V2000
   -2.0310   20.7980  -32.5670 C   0  0  0  0  0  0  0  0  0  0  0  0
   -2.7430   22.0240  -32.6720 O   0  0  0  0  0  0  0  0  0  0  0  0
   -3.3340   22.6510  -31.5710 C   0  0  0  0  0  0  0  0  0  0  0  0
   -2.6210   23.0670  -30.6180 O   0  0  0  0  0  0  0  0  0  0  0  0
   -4.7610   22.7990  -31.5160 N   0  0  0  0  0  0  0  0  0  0  0  0
   -5.4760   23.8680  -31.0620 C   0  0  0  0  0  0  0  0  0  0  0  0
   -4.9220   25.1830  -30.6720 C   0  0  0  0  0  0  0  0  0  0  0  0
   -3.5960   25.3000  -30.1680 N   0  0  0  0  0  0  0  0  0  0  0  0
   -5.6150   26.2230  -30.8320 O   0  0  0  0  0  0  0  0  0  0  0  0
   -6.8410   23.5900  -31.0900 C   0  0  0  0  0  0  0  0  0  0  0  0
   -6.9420   22.3110  -31.5870 C   0  0  0  0  0  0  0  0  0  0  0  0
   -8.0670   21.5270  -31.8150 C   0  0  0  0  0  0  0  0  0  0  0  0
   -7.8760   20.2260  -32.3070 C   0  0  0  0  0  0  0  0  0  0  0  0
   -6.5700   19.7240  -32.5560 C   0  0  0  0  0  0  0  0  0  0  0  0
   -6.3790   18.3430  -33.0650 C   0  0  0  0  0  0  0  0  0  0  0  0
   -7.3090   17.3130  -33.0930 C   0  0  0  0  0  0  0  0  0  0  0  0
   -6.7450   16.2150  -33.6310 N   0  0  0  0  0  0  0  0  0  0  0  0
   -5.4940   16.5160  -33.9450 N   0  0  0  0  0  0  0  0  0  0  0  0
   -4.5510   15.5810  -34.5630 C   0  0  0  0  0  0  0  0  0  0  0  0
   -3.4800   16.3470  -35.3500 C   0  0  0  0  0  0  0  0  0  0  0  0
   -2.4380   15.3780  -35.9330 C   0  0  0  0  0  0  0  0  0  0  0  0
   -1.8330   14.5030  -34.9060 N   0  0  0  0  0  0  0  0  0  0  0  0
   -0.8610   15.2130  -34.0570 C   0  0  0  0  0  0  0  0  0  0  0  0
   -2.8470   13.7690  -34.1200 C   0  0  0  0  0  0  0  0  0  0  0  0
   -3.9000   14.6980  -33.4920 C   0  0  0  0  0  0  0  0  0  0  0  0
   -5.2340   17.7950  -33.6170 C   0  0  0  0  0  0  0  0  0  0  0  0
   -5.4510   20.5570  -32.3080 C   0  0  0  0  0  0  0  0  0  0  0  0
   -5.6750   21.8560  -31.8370 C   0  0  0  0  0  0  0  0  0  0  0  0
   -1.8858   20.5480  -31.5057 H   0  0  0  0  0  0  0  0  0  0  0  0
   -2.6048   19.9976  -33.0570 H   0  0  0  0  0  0  0  0  0  0  0  0
   -1.0515   20.8997  -33.0570 H   0  0  0  0  0  0  0  0  0  0  0  0
   -2.7720   25.2630  -30.8080 H   0  0  0  0  0  0  0  0  0  0  0  0
   -7.6630   24.2522  -30.7806 H   0  0  0  0  0  0  0  0  0  0  0  0
   -9.0771   21.9145  -31.6158 H   0  0  0  0  0  0  0  0  0  0  0  0
   -8.7493   19.5864  -32.5024 H   0  0  0  0  0  0  0  0  0  0  0  0
   -8.3457   17.3828  -32.7318 H   0  0  0  0  0  0  0  0  0  0  0  0
   -5.1021   14.9346  -35.2619 H   0  0  0  0  0  0  0  0  0  0  0  0
   -3.9606   16.8979  -36.1719 H   0  0  0  0  0  0  0  0  0  0  0  0
   -2.9718   17.0453  -34.6687 H   0  0  0  0  0  0  0  0  0  0  0  0
   -2.9288   14.7465  -36.6882 H   0  0  0  0  0  0  0  0  0  0  0  0
   -1.6304   15.9833  -36.3705 H   0  0  0  0  0  0  0  0  0  0  0  0
   -1.1017   15.0371  -32.9982 H   0  0  0  0  0  0  0  0  0  0  0  0
    0.1521   14.8408  -34.2694 H   0  0  0  0  0  0  0  0  0  0  0  0
   -0.9075   16.2913  -34.2694 H   0  0  0  0  0  0  0  0  0  0  0  0
   -3.3581   13.0561  -34.7838 H   0  0  0  0  0  0  0  0  0  0  0  0
   -2.3237   13.2578  -33.2986 H   0  0  0  0  0  0  0  0  0  0  0  0
   -4.6759   14.0881  -33.0062 H   0  0  0  0  0  0  0  0  0  0  0  0
   -3.4051   15.3451  -32.7529 H   0  0  0  0  0  0  0  0  0  0  0  0
   -4.2760   18.3156  -33.7626 H   0  0  0  0  0  0  0  0  0  0  0  0
   -4.4284   20.1908  -32.4818 H   0  0  0  0  0  0  0  0  0  0  0  0
  1  2  1  0
  2  3  1  0
  3  4  2  0
  3  5  1  0
  5  6  1  0
  6  7  1  0
  7  8  1  0
  7  9  2  0
  6 10  2  0
 10 11  1  0
 11 12  2  0
 12 13  1  0
 13 14  2  0
 14 15  1  0
 15 16  1  0
 16 17  2  0
 17 18  1  0
 18 19  1  0
 19 20  1  0
 20 21  1  0
 21 22  1  0
 22 23  1  0
 22 24  1  0
 24 25  1  0
 18 26  1  0
 14 27  1  0
 27 28  2  0
 28  5  1  0
 28 11  1  0
 26 15  2  0
 25 19  1  0
  1 29  1  0
  1 30  1  0
  1 31  1  0
  8 32  1  0
 10 33  1  0
 12 34  1  0
 13 35  1  0
 16 36  1  0
 19 37  1  0
 20 38  1  0
 20 39  1  0
 21 40  1  0
 21 41  1  0
 23 42  1  0
 23 43  1  0
 23 44  1  0
 24 45  1  0
 24 46  1  0
 25 47  1  0
 25 48  1  0
 26 49  1  0
 27 50  1  0
M  CHG  1   8  -1
M  END
>  <UniqueID>  (4) 
4

>  <SMILES>  (4) 
COC(=O)n1c(C([NH-])=O)cc2ccc(-c3cnn(C4CCN(C)CC4)c3)cc21

>  <Energy>  (4) 
121.78057281371728

>  <Genealogy>  (4) 
COC(=O)n1c(C([NH-])=O)cc2ccc(-c3cnn(C4CCN(C)CC4)c3)cc21 (protonated)
COC(=O)n1c(C([NH-])=O)cc2ccc(-c3cnn(C4CCN(C)CC4)c3)cc21 (3D coordinates assigned)
COC(=O)n1c(C([NH-])=O)cc2ccc(-c3cnn(C4CCN(C)CC4)c3)cc21 (nonaromatic ring conformer: 121.78057281371728 kcal/mol)

>  <smiles>  (4) 
COC(=O)n1c(C(N)=O)cc2ccc(-c3cnn(C4CCN(C)CC4)c3)cc21

>  <score_type>  (4) 
oracle

>  <origin>  (4) 
adg

>  <m_score__min__energy>  (4) 
-10.85

>  <m_primary>  (4) 
energy

$$$$
4:0
     RDKit          3D

 37 38  0  0  0  0  0  0  0  0999 V2000
   -9.5160   21.6980  -31.9580 C   0  0  0  0  0  0  0  0  0  0  0  0
   -8.2760   20.8720  -31.8640 C   0  0  0  0  0  0  0  0  0  0  0  0
   -7.5610   20.9330  -30.8250 O   0  0  0  0  0  0  0  0  0  0  0  0
   -7.9190   19.9940  -32.9370 N   0  0  0  0  0  0  0  0  0  0  0  0
   -6.7050   19.1760  -32.8860 C   0  0  0  0  0  0  0  0  0  0  0  0
   -5.6280   19.7000  -33.8440 C   0  0  0  0  0  0  0  0  0  0  0  0
   -4.4810   20.3260  -33.0940 C   0  0  0  0  0  0  0  0  0  0  0  0
   -3.1510   19.9080  -33.3550 C   0  0  0  0  0  0  0  0  0  0  0  0
   -2.0730   20.4630  -32.6440 C   0  0  0  0  0  0  0  0  0  0  0  0
   -2.3560   21.4170  -31.6710 C   0  0  0  0  0  0  0  0  0  0  0  0
   -1.5080   22.1240  -30.8470 C   0  0  0  0  0  0  0  0  0  0  0  0
   -2.3360   22.9400  -30.0770 C   0  0  0  0  0  0  0  0  0  0  0  0
   -1.8390   23.8400  -29.0140 C   0  0  0  0  0  0  0  0  0  0  0  0
   -1.9890   25.2530  -29.1180 N   0  0  0  0  0  0  0  0  0  0  0  0
   -1.2980   23.3520  -27.9860 O   0  0  0  0  0  0  0  0  0  0  0  0
   -3.6420   22.7430  -30.4120 N   0  0  0  0  0  0  0  0  0  0  0  0
   -4.7950   23.4240  -29.8930 C   0  0  0  0  0  0  0  0  0  0  0  0
   -5.5260   22.8490  -29.0420 O   0  0  0  0  0  0  0  0  0  0  0  0
   -5.1330   24.7840  -30.3430 C   0  0  0  0  0  0  0  0  0  0  0  0
   -4.1160   25.6370  -30.8620 N   0  0  0  0  0  0  0  0  0  0  0  0
   -6.3180   25.2030  -30.2580 O   0  0  0  0  0  0  0  0  0  0  0  0
   -3.6370   21.8140  -31.3910 C   0  0  0  0  0  0  0  0  0  0  0  0
   -4.7270   21.3000  -32.1010 C   0  0  0  0  0  0  0  0  0  0  0  0
   -9.8749   21.9371  -30.9461 H   0  0  0  0  0  0  0  0  0  0  0  0
   -9.2955   22.6303  -32.4986 H   0  0  0  0  0  0  0  0  0  0  0  0
  -10.2913   21.1353  -32.4986 H   0  0  0  0  0  0  0  0  0  0  0  0
   -8.5540   19.9420  -33.7660 H   0  0  0  0  0  0  0  0  0  0  0  0
   -6.3078   19.1910  -31.8603 H   0  0  0  0  0  0  0  0  0  0  0  0
   -6.9677   18.1525  -33.1918 H   0  0  0  0  0  0  0  0  0  0  0  0
   -5.2468   18.8622  -34.4463 H   0  0  0  0  0  0  0  0  0  0  0  0
   -6.0815   20.4689  -34.4867 H   0  0  0  0  0  0  0  0  0  0  0  0
   -2.9613   19.1420  -34.1213 H   0  0  0  0  0  0  0  0  0  0  0  0
   -1.0379   20.1530  -32.8502 H   0  0  0  0  0  0  0  0  0  0  0  0
   -0.4107   22.0587  -30.8053 H   0  0  0  0  0  0  0  0  0  0  0  0
   -2.9230   25.6820  -29.3020 H   0  0  0  0  0  0  0  0  0  0  0  0
   -3.1250   25.3130  -30.9230 H   0  0  0  0  0  0  0  0  0  0  0  0
   -5.7500   21.6456  -31.8914 H   0  0  0  0  0  0  0  0  0  0  0  0
  1  2  1  0
  2  3  2  0
  2  4  1  0
  4  5  1  0
  5  6  1  0
  6  7  1  0
  7  8  2  0
  8  9  1  0
  9 10  2  0
 10 11  1  0
 11 12  2  0
 12 13  1  0
 13 14  1  0
 13 15  2  0
 12 16  1  0
 16 17  1  0
 17 18  2  0
 17 19  1  0
 19 20  1  0
 19 21  2  0
 16 22  1  0
 22 23  2  0
 23  7  1  0
 22 10  1  0
  1 24  1  0
  1 25  1  0
  1 26  1  0
  4 27  1  0
  5 28  1  0
  5 29  1  0
  6 30  1  0
  6 31  1  0
  8 32  1  0
  9 33  1  0
 11 34  1  0
 14 35  1  0
 20 36  1  0
 23 37  1  0
M  CHG  2  14  -1  20  -1
M  END
>  <UniqueID>  (5) 
5

>  <SMILES>  (5) 
CC(=O)NCCc1ccc2cc(C([NH-])=O)n(C(=O)C([NH-])=O)c2c1

>  <Energy>  (5) 
68.99845439450054

>  <Genealogy>  (5) 
CC(=O)NCCc1ccc2cc(C([NH-])=O)n(C(=O)C([NH-])=O)c2c1 (protonated)
CC(=O)NCCc1ccc2cc(C([NH-])=O)n(C(=O)C([NH-])=O)c2c1 (3D coordinates assigned)
CC(=O)NCCc1ccc2cc(C([NH-])=O)n(C(=O)C([NH-])=O)c2c1 (optimized conformer: 68.99845439450054 kcal/mol)

>  <smiles>  (5) 
CC(=O)NCCc1ccc2cc(C(N)=O)n(C(=O)C(N)=O)c2c1

>  <score_type>  (5) 
oracle

>  <origin>  (5) 
adg

>  <m_score__min__energy>  (5) 
-11.85

>  <m_primary>  (5) 
energy

$$$$
5:0
     RDKit          3D

 38 40  0  0  0  0  0  0  0  0999 V2000
   -3.8560   23.3480  -27.8400 C   0  0  0  0  0  0  0  0  0  0  0  0
   -2.9090   22.5530  -28.7310 C   0  0  0  0  0  0  0  0  0  0  0  0
   -2.7740   23.1790  -30.0060 O   0  0  0  0  0  0  0  0  0  0  0  0
   -3.4140   22.7190  -31.1620 C   0  0  0  0  0  0  0  0  0  0  0  0
   -2.7430   22.2490  -32.1200 O   0  0  0  0  0  0  0  0  0  0  0  0
   -4.8430   22.8110  -31.2670 N   0  0  0  0  0  0  0  0  0  0  0  0
   -5.6430   23.8570  -30.9140 C   0  0  0  0  0  0  0  0  0  0  0  0
   -5.1860   25.1960  -30.4890 C   0  0  0  0  0  0  0  0  0  0  0  0
   -3.8850   25.6690  -30.8280 N   0  0  0  0  0  0  0  0  0  0  0  0
   -5.9720   25.9530  -29.8580 O   0  0  0  0  0  0  0  0  0  0  0  0
   -6.9850   23.5240  -31.0860 C   0  0  0  0  0  0  0  0  0  0  0  0
   -6.9820   22.2370  -31.5710 C   0  0  0  0  0  0  0  0  0  0  0  0
   -8.0460   21.4070  -31.9120 C   0  0  0  0  0  0  0  0  0  0  0  0
   -7.7510   20.1090  -32.3610 C   0  0  0  0  0  0  0  0  0  0  0  0
   -6.4080   19.6590  -32.4550 C   0  0  0  0  0  0  0  0  0  0  0  0
   -6.1090   18.2810  -32.9210 C   0  0  0  0  0  0  0  0  0  0  0  0
   -7.1440   17.4360  -33.3620 C   0  0  0  0  0  0  0  0  0  0  0  0
   -6.8620   16.1400  -33.8020 C   0  0  0  0  0  0  0  0  0  0  0  0
   -5.5450   15.6690  -33.8060 C   0  0  0  0  0  0  0  0  0  0  0  0
   -5.2030   14.0390  -34.3600 Cl  0  0  0  0  0  0  0  0  0  0  0  0
   -4.5070   16.5010  -33.3670 C   0  0  0  0  0  0  0  0  0  0  0  0
   -3.2270   16.0530  -33.3630 F   0  0  0  0  0  0  0  0  0  0  0  0
   -4.7880   17.7980  -32.9280 C   0  0  0  0  0  0  0  0  0  0  0  0
   -5.3560   20.5360  -32.0970 C   0  0  0  0  0  0  0  0  0  0  0  0
   -5.6780   21.8280  -31.6700 C   0  0  0  0  0  0  0  0  0  0  0  0
   -3.6195   23.1494  -26.7842 H   0  0  0  0  0  0  0  0  0  0  0  0
   -3.7385   24.4221  -28.0463 H   0  0  0  0  0  0  0  0  0  0  0  0
   -4.8935   23.0463  -28.0463 H   0  0  0  0  0  0  0  0  0  0  0  0
   -1.9215   22.4969  -28.2496 H   0  0  0  0  0  0  0  0  0  0  0  0
   -3.3209   21.5431  -28.8739 H   0  0  0  0  0  0  0  0  0  0  0  0
   -3.0350   25.2870  -30.3570 H   0  0  0  0  0  0  0  0  0  0  0  0
   -7.8608   24.1562  -30.8781 H   0  0  0  0  0  0  0  0  0  0  0  0
   -9.0859   21.7567  -31.8324 H   0  0  0  0  0  0  0  0  0  0  0  0
   -8.5713   19.4326  -32.6434 H   0  0  0  0  0  0  0  0  0  0  0  0
   -8.1827   17.7982  -33.3604 H   0  0  0  0  0  0  0  0  0  0  0  0
   -7.6784   15.4881  -34.1463 H   0  0  0  0  0  0  0  0  0  0  0  0
   -3.9686   18.4468  -32.5849 H   0  0  0  0  0  0  0  0  0  0  0  0
   -4.3075   20.2081  -32.1535 H   0  0  0  0  0  0  0  0  0  0  0  0
  1  2  1  0
  2  3  1  0
  3  4  1  0
  4  5  2  0
  4  6  1  0
  6  7  1  0
  7  8  1  0
  8  9  1  0
  8 10  2  0
  7 11  2  0
 11 12  1  0
 12 13  2  0
 13 14  1  0
 14 15  2  0
 15 16  1  0
 16 17  2  0
 17 18  1  0
 18 19  2  0
 19 20  1  0
 19 21  1  0
 21 22  1  0
 21 23  2  0
 15 24  1  0
 24 25  2  0
 25  6  1  0
 25 12  1  0
 23 16  1  0
  1 26  1  0
  1 27  1  0
  1 28  1  0
  2 29  1  0
  2 30  1  0
  9 31  1  0
 11 32  1  0
 13 33  1  0
 14 34  1  0
 17 35  1  0
 18 36  1  0
 23 37  1  0
 24 38  1  0
M  CHG  1   9  -1
M  END
>  <UniqueID>  (6) 
6

>  <SMILES>  (6) 
CCOC(=O)n1c(C([NH-])=O)cc2ccc(-c3ccc(Cl)c(F)c3)cc21

>  <Energy>  (6) 
81.32385257719243

>  <Genealogy>  (6) 
CCOC(=O)n1c(C([NH-])=O)cc2ccc(-c3ccc(Cl)c(F)c3)cc21 (protonated)
CCOC(=O)n1c(C([NH-])=O)cc2ccc(-c3ccc(Cl)c(F)c3)cc21 (3D coordinates assigned)
CCOC(=O)n1c(C([NH-])=O)cc2ccc(-c3ccc(Cl)c(F)c3)cc21 (optimized conformer: 81.32385257719243 kcal/mol)

>  <smiles>  (6) 
CCOC(=O)n1c(C(N)=O)cc2ccc(-c3ccc(Cl)c(F)c3)cc21

>  <score_type>  (6) 
oracle

>  <origin>  (6) 
adg

>  <m_score__min__energy>  (6) 
-10.58

>  <m_primary>  (6) 
energy

$$$$
6:0
     RDKit          3D

 49 50  0  0  0  0  0  0  0  0999 V2000
   -6.0860   15.7750  -34.1990 C   0  0  0  0  0  0  0  0  0  0  0  0
   -5.5830   17.0560  -33.6830 N   0  0  0  0  0  0  0  0  0  0  0  0
   -5.7130   18.1000  -34.7120 C   0  0  0  0  0  0  0  0  0  0  0  0
   -6.2700   17.4430  -32.4280 C   0  0  0  0  0  0  0  0  0  0  0  0
   -7.6290   18.0730  -32.7480 C   0  0  0  0  0  0  0  0  0  0  0  0
   -7.6910   19.5080  -32.2950 C   0  0  0  0  0  0  0  0  0  0  0  0
   -8.9300   20.1950  -32.2850 C   0  0  0  0  0  0  0  0  0  0  0  0
   -8.9980   21.5430  -31.8980 C   0  0  0  0  0  0  0  0  0  0  0  0
   -7.8110   22.1820  -31.5490 C   0  0  0  0  0  0  0  0  0  0  0  0
   -7.5950   23.4690  -31.1150 C   0  0  0  0  0  0  0  0  0  0  0  0
   -6.2230   23.5620  -30.9070 C   0  0  0  0  0  0  0  0  0  0  0  0
   -5.5460   24.8060  -30.4900 C   0  0  0  0  0  0  0  0  0  0  0  0
   -5.8640   25.4390  -29.2500 N   0  0  0  0  0  0  0  0  0  0  0  0
   -4.6340   25.2880  -31.2140 O   0  0  0  0  0  0  0  0  0  0  0  0
   -5.6100   22.3770  -31.1880 N   0  0  0  0  0  0  0  0  0  0  0  0
   -4.2280   22.0450  -30.9830 C   0  0  0  0  0  0  0  0  0  0  0  0
   -3.3730   22.3510  -31.8580 O   0  0  0  0  0  0  0  0  0  0  0  0
   -3.8470   21.3790  -29.8090 O   0  0  0  0  0  0  0  0  0  0  0  0
   -3.1670   21.9560  -28.6840 C   0  0  0  0  0  0  0  0  0  0  0  0
   -2.7020   20.8570  -27.7100 C   0  0  0  0  0  0  0  0  0  0  0  0
   -4.1750   22.8640  -27.9630 C   0  0  0  0  0  0  0  0  0  0  0  0
   -1.9730   22.8110  -29.1480 C   0  0  0  0  0  0  0  0  0  0  0  0
   -6.5980   21.5400  -31.5810 C   0  0  0  0  0  0  0  0  0  0  0  0
   -6.5070   20.1900  -31.9370 C   0  0  0  0  0  0  0  0  0  0  0  0
   -6.3446   15.1165  -33.3567 H   0  0  0  0  0  0  0  0  0  0  0  0
   -6.9810   15.9531  -34.8133 H   0  0  0  0  0  0  0  0  0  0  0  0
   -5.3089   15.2966  -34.8133 H   0  0  0  0  0  0  0  0  0  0  0  0
   -5.8350   19.0797  -34.2270 H   0  0  0  0  0  0  0  0  0  0  0  0
   -4.8093   18.1113  -35.3391 H   0  0  0  0  0  0  0  0  0  0  0  0
   -6.5918   17.8893  -35.3391 H   0  0  0  0  0  0  0  0  0  0  0  0
   -6.4204   16.5494  -31.8045 H   0  0  0  0  0  0  0  0  0  0  0  0
   -5.6509   18.1745  -31.8880 H   0  0  0  0  0  0  0  0  0  0  0  0
   -7.7946   18.0335  -33.8348 H   0  0  0  0  0  0  0  0  0  0  0  0
   -8.4066   17.5078  -32.2133 H   0  0  0  0  0  0  0  0  0  0  0  0
   -9.8478   19.6671  -32.5834 H   0  0  0  0  0  0  0  0  0  0  0  0
   -9.9590   22.0776  -31.8713 H   0  0  0  0  0  0  0  0  0  0  0  0
   -8.3474   24.2572  -30.9644 H   0  0  0  0  0  0  0  0  0  0  0  0
   -6.4860   24.9750  -28.5530 H   0  0  0  0  0  0  0  0  0  0  0  0
   -5.4130   26.3450  -28.9930 H   0  0  0  0  0  0  0  0  0  0  0  0
   -2.8468   21.1993  -26.6747 H   0  0  0  0  0  0  0  0  0  0  0  0
   -3.2907   19.9434  -27.8799 H   0  0  0  0  0  0  0  0  0  0  0  0
   -1.6364   20.6434  -27.8799 H   0  0  0  0  0  0  0  0  0  0  0  0
   -4.0539   22.7550  -26.8751 H   0  0  0  0  0  0  0  0  0  0  0  0
   -3.9953   23.9109  -28.2488 H   0  0  0  0  0  0  0  0  0  0  0  0
   -5.1975   22.5763  -28.2488 H   0  0  0  0  0  0  0  0  0  0  0  0
   -1.4347   23.1965  -28.2696 H   0  0  0  0  0  0  0  0  0  0  0  0
   -1.2928   22.1934  -29.7529 H   0  0  0  0  0  0  0  0  0  0  0  0
   -2.3387   23.6538  -29.7529 H   0  0  0  0  0  0  0  0  0  0  0  0
   -5.5366   19.6721  -31.9381 H   0  0  0  0  0  0  0  0  0  0  0  0
  1  2  1  0
  2  3  1  0
  2  4  1  0
  4  5  1  0
  5  6  1  0
  6  7  2  0
  7  8  1  0
  8  9  2  0
  9 10  1  0
 10 11  2  0
 11 12  1  0
 12 13  1  0
 12 14  2  0
 11 15  1  0
 15 16  1  0
 16 17  2  0
 16 18  1  0
 18 19  1  0
 19 20  1  0
 19 21  1  0
 19 22  1  0
 15 23  1  0
 23 24  2  0
 24  6  1  0
 23  9  1  0
  1 25  1  0
  1 26  1  0
  1 27  1  0
  3 28  1  0
  3 29  1  0
  3 30  1  0
  4 31  1  0
  4 32  1  0
  5 33  1  0
  5 34  1  0
  7 35  1  0
  8 36  1  0
 10 37  1  0
 13 38  1  0
 13 39  1  0
 20 40  1  0
 20 41  1  0
 20 42  1  0
 21 43  1  0
 21 44  1  0
 21 45  1  0
 22 46  1  0
 22 47  1  0
 22 48  1  0
 24 49  1  0
M  END
>  <UniqueID>  (7) 
7

>  <SMILES>  (7) 
CN(C)CCc1ccc2cc(C(N)=O)n(C(=O)OC(C)(C)C)c2c1

>  <Energy>  (7) 
81.12293274008805

>  <Genealogy>  (7) 
CN(C)CCc1ccc2cc(C(N)=O)n(C(=O)OC(C)(C)C)c2c1 (3D coordinates assigned)
CN(C)CCc1ccc2cc(C(N)=O)n(C(=O)OC(C)(C)C)c2c1 (optimized conformer: 81.12293274008805 kcal/mol)

>  <smiles>  (7) 
CN(C)CCc1ccc2cc(C(N)=O)n(C(=O)OC(C)(C)C)c2c1

>  <score_type>  (7) 
oracle

>  <origin>  (7) 
adg

>  <m_score__min__energy>  (7) 
-9.2100000000000009

>  <m_primary>  (7) 
energy

$$$$
7:0
     RDKit          3D

 46 47  0  0  0  0  0  0  0  0999 V2000
   -7.1740   23.8650  -30.6760 C   0  0  0  0  0  0  0  0  0  0  0  0
   -6.4030   23.5230  -31.9120 C   0  0  0  0  0  0  0  0  0  0  0  0
   -6.9020   23.7820  -33.0390 O   0  0  0  0  0  0  0  0  0  0  0  0
   -5.1090   22.8980  -31.8280 N   0  0  0  0  0  0  0  0  0  0  0  0
   -4.0060   23.3620  -31.1740 C   0  0  0  0  0  0  0  0  0  0  0  0
   -3.8950   24.6580  -30.4720 C   0  0  0  0  0  0  0  0  0  0  0  0
   -2.7510   24.9330  -29.6670 N   0  0  0  0  0  0  0  0  0  0  0  0
   -4.7890   25.5360  -30.5940 O   0  0  0  0  0  0  0  0  0  0  0  0
   -2.9470   22.4660  -31.3060 C   0  0  0  0  0  0  0  0  0  0  0  0
   -3.4370   21.4310  -32.0700 C   0  0  0  0  0  0  0  0  0  0  0  0
   -2.8120   20.2690  -32.5100 C   0  0  0  0  0  0  0  0  0  0  0  0
   -3.5680   19.3640  -33.2730 C   0  0  0  0  0  0  0  0  0  0  0  0
   -4.9320   19.6240  -33.5620 C   0  0  0  0  0  0  0  0  0  0  0  0
   -5.7340   18.6420  -34.3790 C   0  0  0  0  0  0  0  0  0  0  0  0
   -6.3640   17.5390  -33.5170 C   0  0  0  0  0  0  0  0  0  0  0  0
   -6.3170   17.8650  -32.0150 C   0  0  0  0  0  0  0  0  0  0  0  0
   -7.6790   18.3350  -31.5030 C   0  0  0  0  0  0  0  0  0  0  0  0
   -7.6300   19.7230  -31.2380 O   0  0  0  0  0  0  0  0  0  0  0  0
   -8.5090   20.4320  -32.0920 C   0  0  0  0  0  0  0  0  0  0  0  0
   -9.2760   21.4530  -31.2510 C   0  0  0  0  0  0  0  0  0  0  0  0
   -9.4860   19.4570  -32.7540 C   0  0  0  0  0  0  0  0  0  0  0  0
   -5.5320   20.8140  -33.0950 C   0  0  0  0  0  0  0  0  0  0  0  0
   -4.7470   21.7130  -32.3660 C   0  0  0  0  0  0  0  0  0  0  0  0
   -6.5799   23.6015  -29.7886 H   0  0  0  0  0  0  0  0  0  0  0  0
   -7.3903   24.9435  -30.6654 H   0  0  0  0  0  0  0  0  0  0  0  0
   -8.1186   23.3015  -30.6654 H   0  0  0  0  0  0  0  0  0  0  0  0
   -1.8740   25.3110  -30.0900 H   0  0  0  0  0  0  0  0  0  0  0  0
   -1.9342   22.5648  -30.8883 H   0  0  0  0  0  0  0  0  0  0  0  0
   -1.7585   20.0651  -32.2680 H   0  0  0  0  0  0  0  0  0  0  0  0
   -3.0974   18.4441  -33.6503 H   0  0  0  0  0  0  0  0  0  0  0  0
   -6.5368   19.1867  -34.8975 H   0  0  0  0  0  0  0  0  0  0  0  0
   -5.0482   18.1599  -35.0912 H   0  0  0  0  0  0  0  0  0  0  0  0
   -7.4146   17.4133  -33.8178 H   0  0  0  0  0  0  0  0  0  0  0  0
   -5.7840   16.6181  -33.6770 H   0  0  0  0  0  0  0  0  0  0  0  0
   -6.0190   16.9620  -31.4620 H   0  0  0  0  0  0  0  0  0  0  0  0
   -5.5901   18.6759  -31.8594 H   0  0  0  0  0  0  0  0  0  0  0  0
   -8.4464   18.1342  -32.2651 H   0  0  0  0  0  0  0  0  0  0  0  0
   -7.9296   17.7940  -30.5786 H   0  0  0  0  0  0  0  0  0  0  0  0
   -7.9408   20.9465  -32.8810 H   0  0  0  0  0  0  0  0  0  0  0  0
   -9.1173   21.2418  -30.1832 H   0  0  0  0  0  0  0  0  0  0  0  0
   -8.9131   22.4653  -31.4824 H   0  0  0  0  0  0  0  0  0  0  0  0
  -10.3493   21.3864  -31.4824 H   0  0  0  0  0  0  0  0  0  0  0  0
  -10.0375   18.9067  -31.9775 H   0  0  0  0  0  0  0  0  0  0  0  0
  -10.1957   20.0176  -33.3801 H   0  0  0  0  0  0  0  0  0  0  0  0
   -8.9269   18.7461  -33.3801 H   0  0  0  0  0  0  0  0  0  0  0  0
   -6.5913   21.0287  -33.2997 H   0  0  0  0  0  0  0  0  0  0  0  0
  1  2  1  0
  2  3  2  0
  2  4  1  0
  4  5  1  0
  5  6  1  0
  6  7  1  0
  6  8  2  0
  5  9  2  0
  9 10  1  0
 10 11  2  0
 11 12  1  0
 12 13  2  0
 13 14  1  0
 14 15  1  0
 15 16  1  0
 16 17  1  0
 17 18  1  0
 18 19  1  0
 19 20  1  0
 19 21  1  0
 13 22  1  0
 22 23  2  0
 23  4  1  0
 23 10  1  0
  1 24  1  0
  1 25  1  0
  1 26  1  0
  7 27  1  0
  9 28  1  0
 11 29  1  0
 12 30  1  0
 14 31  1  0
 14 32  1  0
 15 33  1  0
 15 34  1  0
 16 35  1  0
 16 36  1  0
 17 37  1  0
 17 38  1  0
 19 39  1  0
 20 40  1  0
 20 41  1  0
 20 42  1  0
 21 43  1  0
 21 44  1  0
 21 45  1  0
 22 46  1  0
M  CHG  1   7  -1
M  END
>  <UniqueID>  (8) 
8

>  <SMILES>  (8) 
CC(=O)n1c(C([NH-])=O)cc2ccc(CCCCOC(C)C)cc21

>  <Energy>  (8) 
75.19284317462764

>  <Genealogy>  (8) 
CC(=O)n1c(C([NH-])=O)cc2ccc(CCCCOC(C)C)cc21 (protonated)
CC(=O)n1c(C([NH-])=O)cc2ccc(CCCCOC(C)C)cc21 (3D coordinates assigned)
CC(=O)n1c(C([NH-])=O)cc2ccc(CCCCOC(C)C)cc21 (optimized conformer: 75.19284317462764 kcal/mol)

>  <smiles>  (8) 
CC(=O)n1c(C(N)=O)cc2ccc(CCCCOC(C)C)cc21

>  <score_type>  (8) 
oracle

>  <origin>  (8) 
adg

>  <m_score__min__energy>  (8) 
-10.460000000000001

>  <m_primary>  (8) 
energy

$$$$
8:0
     RDKit          3D

 50 52  0  0  0  0  0  0  0  0999 V2000
   -3.0390   15.1400  -34.4790 C   0  0  0  0  0  0  0  0  0  0  0  0
   -4.5110   14.9660  -34.0730 C   0  0  0  0  0  0  0  0  0  0  0  0
   -5.0300   13.6330  -34.6480 C   0  0  0  0  0  0  0  0  0  0  0  0
   -4.6070   14.9690  -32.5360 C   0  0  0  0  0  0  0  0  0  0  0  0
   -5.2380   16.0740  -34.6270 O   0  0  0  0  0  0  0  0  0  0  0  0
   -5.5870   17.2570  -33.9590 C   0  0  0  0  0  0  0  0  0  0  0  0
   -4.7690   18.2120  -33.8570 O   0  0  0  0  0  0  0  0  0  0  0  0
   -6.8940   17.3670  -33.3870 N   0  0  0  0  0  0  0  0  0  0  0  0
   -7.3010   18.5150  -32.5680 C   0  0  2  0  0  0  0  0  0  0  0  0
   -7.4730   19.7500  -33.4520 C   0  0  0  0  0  0  0  0  0  0  0  0
   -6.1410   20.4850  -33.3900 C   0  0  0  0  0  0  0  0  0  0  0  0
   -5.4740   19.9940  -32.1920 N   0  0  0  0  0  0  0  0  0  0  0  0
   -4.2480   20.5510  -31.6650 C   0  0  0  0  0  0  0  0  0  0  0  0
   -3.0360   19.8050  -31.7150 C   0  0  0  0  0  0  0  0  0  0  0  0
   -1.8430   20.3320  -31.1960 C   0  0  0  0  0  0  0  0  0  0  0  0
   -1.8760   21.6050  -30.6400 C   0  0  0  0  0  0  0  0  0  0  0  0
   -0.8730   22.3390  -30.0500 C   0  0  0  0  0  0  0  0  0  0  0  0
   -1.4710   23.5370  -29.6650 C   0  0  0  0  0  0  0  0  0  0  0  0
   -0.7240   24.6620  -29.0630 C   0  0  0  0  0  0  0  0  0  0  0  0
   -1.3340   25.9460  -28.9660 N   0  0  0  0  0  0  0  0  0  0  0  0
    0.4340   24.4920  -28.6000 O   0  0  0  0  0  0  0  0  0  0  0  0
   -2.7940   23.5410  -29.9970 N   0  0  0  0  0  0  0  0  0  0  0  0
   -3.7690   24.5560  -29.7080 C   0  0  0  0  0  0  0  0  0  0  0  0
   -4.5000   24.4660  -28.6870 O   0  0  0  0  0  0  0  0  0  0  0  0
   -3.8960   25.6620  -30.5390 O   0  0  0  0  0  0  0  0  0  0  0  0
   -3.0250   22.3500  -30.5950 C   0  0  0  0  0  0  0  0  0  0  0  0
   -4.2340   21.8450  -31.0870 C   0  0  0  0  0  0  0  0  0  0  0  0
   -6.1950   18.8870  -31.5810 C   0  0  0  0  0  0  0  0  0  0  0  0
   -2.4157   15.2137  -33.5756 H   0  0  0  0  0  0  0  0  0  0  0  0
   -2.7184   14.2735  -35.0760 H   0  0  0  0  0  0  0  0  0  0  0  0
   -2.9293   16.0574  -35.0760 H   0  0  0  0  0  0  0  0  0  0  0  0
   -5.2938   12.9555  -33.8225 H   0  0  0  0  0  0  0  0  0  0  0  0
   -5.9202   13.8221  -35.2659 H   0  0  0  0  0  0  0  0  0  0  0  0
   -4.2463   13.1703  -35.2659 H   0  0  0  0  0  0  0  0  0  0  0  0
   -3.5953   14.9374  -32.1054 H   0  0  0  0  0  0  0  0  0  0  0  0
   -5.1191   15.8836  -32.2024 H   0  0  0  0  0  0  0  0  0  0  0  0
   -5.1752   14.0882  -32.2024 H   0  0  0  0  0  0  0  0  0  0  0  0
   -7.5130   16.5250  -33.4270 H   0  0  0  0  0  0  0  0  0  0  0  0
   -8.2318   18.2329  -32.0541 H   0  0  0  0  0  0  0  0  0  0  0  0
   -7.7003   19.4533  -34.4866 H   0  0  0  0  0  0  0  0  0  0  0  0
   -8.3044   20.3836  -33.1097 H   0  0  0  0  0  0  0  0  0  0  0  0
   -5.5383   20.2622  -34.2828 H   0  0  0  0  0  0  0  0  0  0  0  0
   -6.2808   21.5756  -33.3582 H   0  0  0  0  0  0  0  0  0  0  0  0
   -3.0347   18.8020  -32.1666 H   0  0  0  0  0  0  0  0  0  0  0  0
   -0.9081   19.7534  -31.2285 H   0  0  0  0  0  0  0  0  0  0  0  0
    0.1774   22.0430  -29.9117 H   0  0  0  0  0  0  0  0  0  0  0  0
   -2.3740   26.0500  -28.9720 H   0  0  0  0  0  0  0  0  0  0  0  0
   -5.1563   22.4414  -31.0262 H   0  0  0  0  0  0  0  0  0  0  0  0
   -5.5209   18.0325  -31.4212 H   0  0  0  0  0  0  0  0  0  0  0  0
   -6.6054   19.1641  -30.5987 H   0  0  0  0  0  0  0  0  0  0  0  0
  1  2  1  0
  2  3  1  0
  2  4  1  0
  2  5  1  0
  5  6  1  0
  6  7  2  0
  6  8  1  0
  8  9  1  0
  9 10  1  0
 10 11  1  0
 11 12  1  0
 12 13  1  0
 13 14  2  0
 14 15  1  0
 15 16  2  0
 16 17  1  0
 17 18  2  0
 18 19  1  0
 19 20  1  0
 19 21  2  0
 18 22  1  0
 22 23  1  0
 23 24  2  0
 23 25  1  0
 22 26  1  0
 26 27  2  0
 12 28  1  0
 28  9  1  0
 27 13  1  0
 26 16  1  0
  1 29  1  0
  1 30  1  0
  1 31  1  0
  3 32  1  0
  3 33  1  0
  3 34  1  0
  4 35  1  0
  4 36  1  0
  4 37  1  0
  8 38  1  0
  9 39  1  1
 10 40  1  0
 10 41  1  0
 11 42  1  0
 11 43  1  0
 14 44  1  0
 15 45  1  0
 17 46  1  0
 20 47  1  0
 27 48  1  0
 28 49  1  0
 28 50  1  0
M  CHG  2  20  -1  25  -1
M  END
>  <UniqueID>  (9) 
9

>  <SMILES>  (9) 
CC(C)(C)OC(=O)N[C@@H]1CCN(c2ccc3cc(C([NH-])=O)n(C(=O)[O-])c3c2)C1

>  <Energy>  (9) 
86.69147735444136

>  <Genealogy>  (9) 
CC(C)(C)OC(=O)N[C@@H]1CCN(c2ccc3cc(C([NH-])=O)n(C(=O)[O-])c3c2)C1 (protonated)
CC(C)(C)OC(=O)N[C@@H]1CCN(c2ccc3cc(C([NH-])=O)n(C(=O)[O-])c3c2)C1 (3D coordinates assigned)
CC(C)(C)OC(=O)N[C@@H]1CCN(c2ccc3cc(C([NH-])=O)n(C(=O)[O-])c3c2)C1 (nonaromatic ring conformer: 86.69147735444136 kcal/mol)

>  <smiles>  (9) 
CC(C)(C)OC(=O)N[C@@H]1CCN(c2ccc3cc(C(N)=O)n(C(=O)O)c3c2)C1

>  <score_type>  (9) 
oracle

>  <origin>  (9) 
adg

>  <m_score__min__energy>  (9) 
-12

>  <m_primary>  (9) 
energy

$$$$
9:0
     RDKit          3D

 48 50  0  0  0  0  0  0  0  0999 V2000
   -6.4240   24.2740  -30.3050 C   0  0  0  0  0  0  0  0  0  0  0  0
   -5.1930   23.5020  -30.2220 N   0  0  0  0  0  0  0  0  0  0  0  0
   -3.9170   24.0420  -30.5760 C   0  0  0  0  0  0  0  0  0  0  0  0
   -3.8060   25.2650  -30.8650 O   0  0  0  0  0  0  0  0  0  0  0  0
   -2.7640   23.1880  -30.6170 N   0  0  0  0  0  0  0  0  0  0  0  0
   -1.5660   23.3700  -29.9910 C   0  0  0  0  0  0  0  0  0  0  0  0
   -1.2520   24.4260  -29.0040 C   0  0  0  0  0  0  0  0  0  0  0  0
   -1.9930   25.6420  -28.9680 N   0  0  0  0  0  0  0  0  0  0  0  0
   -0.3460   24.2310  -28.1490 O   0  0  0  0  0  0  0  0  0  0  0  0
   -0.6700   22.3640  -30.3470 C   0  0  0  0  0  0  0  0  0  0  0  0
   -1.3620   21.5490  -31.2130 C   0  0  0  0  0  0  0  0  0  0  0  0
   -0.9520   20.3970  -31.8780 C   0  0  0  0  0  0  0  0  0  0  0  0
   -1.8730   19.7690  -32.7340 C   0  0  0  0  0  0  0  0  0  0  0  0
   -3.1680   20.3110  -32.9230 C   0  0  0  0  0  0  0  0  0  0  0  0
   -4.1520   19.6150  -33.8250 C   0  0  0  0  0  0  0  0  0  0  0  0
   -5.1630   18.8070  -33.0000 C   0  0  0  0  0  0  0  0  0  0  0  0
   -6.4240   19.5590  -32.8100 N   0  0  0  0  0  0  0  0  0  0  0  0
   -6.3290   20.4150  -31.6110 C   0  0  0  0  0  0  0  0  0  0  0  0
   -7.5750   21.3180  -31.4910 C   0  0  0  0  0  0  0  0  0  0  0  0
   -8.6930   20.8230  -32.3210 N   0  0  0  0  0  0  0  0  0  0  0  0
   -9.9420   21.5090  -31.9580 C   0  0  0  0  0  0  0  0  0  0  0  0
   -8.8410   19.3660  -32.1630 C   0  0  0  0  0  0  0  0  0  0  0  0
   -7.5880   18.6460  -32.6990 C   0  0  0  0  0  0  0  0  0  0  0  0
   -3.5520   21.4760  -32.2230 C   0  0  0  0  0  0  0  0  0  0  0  0
   -2.6230   22.0690  -31.3600 C   0  0  0  0  0  0  0  0  0  0  0  0
   -6.7842   24.4999  -29.2905 H   0  0  0  0  0  0  0  0  0  0  0  0
   -6.2319   25.2137  -30.8436 H   0  0  0  0  0  0  0  0  0  0  0  0
   -7.1863   23.6919  -30.8436 H   0  0  0  0  0  0  0  0  0  0  0  0
   -2.9750   25.6840  -29.3190 H   0  0  0  0  0  0  0  0  0  0  0  0
    0.3697   22.2464  -30.0077 H   0  0  0  0  0  0  0  0  0  0  0  0
    0.0607   19.9910  -31.7380 H   0  0  0  0  0  0  0  0  0  0  0  0
   -1.5855   18.8479  -33.2622 H   0  0  0  0  0  0  0  0  0  0  0  0
   -4.6903   20.3666  -34.4211 H   0  0  0  0  0  0  0  0  0  0  0  0
   -3.6030   18.9276  -34.4854 H   0  0  0  0  0  0  0  0  0  0  0  0
   -5.3827   17.8654  -33.5245 H   0  0  0  0  0  0  0  0  0  0  0  0
   -4.7246   18.6079  -32.0110 H   0  0  0  0  0  0  0  0  0  0  0  0
   -6.2558   19.7786  -30.7168 H   0  0  0  0  0  0  0  0  0  0  0  0
   -5.4358   21.0511  -31.6981 H   0  0  0  0  0  0  0  0  0  0  0  0
   -7.8964   21.3435  -30.4393 H   0  0  0  0  0  0  0  0  0  0  0  0
   -7.3044   22.3233  -31.8460 H   0  0  0  0  0  0  0  0  0  0  0  0
  -10.0290   21.5568  -30.8625 H   0  0  0  0  0  0  0  0  0  0  0  0
   -9.9333   22.5289  -32.3700 H   0  0  0  0  0  0  0  0  0  0  0  0
  -10.7980   20.9545  -32.3700 H   0  0  0  0  0  0  0  0  0  0  0  0
   -8.9703   19.1267  -31.0971 H   0  0  0  0  0  0  0  0  0  0  0  0
   -9.7208   19.0294  -32.7311 H   0  0  0  0  0  0  0  0  0  0  0  0
   -7.3305   17.8248  -32.0139 H   0  0  0  0  0  0  0  0  0  0  0  0
   -7.8193   18.2683  -33.7059 H   0  0  0  0  0  0  0  0  0  0  0  0
   -4.5559   21.9066  -32.3527 H   0  0  0  0  0  0  0  0  0  0  0  0
  1  2  1  0
  2  3  1  0
  3  4  2  0
  3  5  1  0
  5  6  1  0
  6  7  1  0
  7  8  1  0
  7  9  2  0
  6 10  2  0
 10 11  1  0
 11 12  2  0
 12 13  1  0
 13 14  2  0
 14 15  1  0
 15 16  1  0
 16 17  1  0
 17 18  1  0
 18 19  1  0
 19 20  1  0
 20 21  1  0
 20 22  1  0
 22 23  1  0
 14 24  1  0
 24 25  2  0
 25  5  1  0
 25 11  1  0
 23 17  1  0
  1 26  1  0
  1 27  1  0
  1 28  1  0
  8 29  1  0
 10 30  1  0
 12 31  1  0
 13 32  1  0
 15 33  1  0
 15 34  1  0
 16 35  1  0
 16 36  1  0
 18 37  1  0
 18 38  1  0
 19 39  1  0
 19 40  1  0
 21 41  1  0
 21 42  1  0
 21 43  1  0
 22 44  1  0
 22 45  1  0
 23 46  1  0
 23 47  1  0
 24 48  1  0
M  CHG  2   2  -1   8  -1
M  END
>  <UniqueID>  (10) 
10

>  <SMILES>  (10) 
C[N-]C(=O)n1c(C([NH-])=O)cc2ccc(CCN3CCN(C)CC3)cc21

>  <Energy>  (10) 
91.89889205240247

>  <Genealogy>  (10) 
C[N-]C(=O)n1c(C([NH-])=O)cc2ccc(CCN3CCN(C)CC3)cc21 (protonated)
C[N-]C(=O)n1c(C([NH-])=O)cc2ccc(CCN3CCN(C)CC3)cc21 (3D coordinates assigned)
C[N-]C(=O)n1c(C([NH-])=O)cc2ccc(CCN3CCN(C)CC3)cc21 (nonaromatic ring conformer: 91.89889205240247 kcal/mol)

>  <smiles>  (10) 
CNC(=O)n1c(C(N)=O)cc2ccc(CCN3CCN(C)CC3)cc21

>  <score_type>  (10) 
oracle

>  <origin>  (10) 
adg

>  <m_score__min__energy>  (10) 
-11.359999999999999

>  <m_primary>  (10) 
energy

$$$$
10:0
     RDKit          3D

 32 33  0  0  0  0  0  0  0  0999 V2000
   -2.8240   20.7700  -32.6430 C   0  0  0  0  0  0  0  0  0  0  0  0
   -3.4000   22.0700  -32.6480 O   0  0  0  0  0  0  0  0  0  0  0  0
   -3.8520   22.6990  -31.4840 C   0  0  0  0  0  0  0  0  0  0  0  0
   -3.0290   23.0860  -30.6090 O   0  0  0  0  0  0  0  0  0  0  0  0
   -5.2570   22.9250  -31.2950 N   0  0  0  0  0  0  0  0  0  0  0  0
   -5.8770   24.0800  -30.9160 C   0  0  0  0  0  0  0  0  0  0  0  0
   -5.2090   25.3160  -30.4570 C   0  0  0  0  0  0  0  0  0  0  0  0
   -3.8710   25.6140  -30.8450 N   0  0  0  0  0  0  0  0  0  0  0  0
   -5.8130   26.0960  -29.6730 O   0  0  0  0  0  0  0  0  0  0  0  0
   -7.2610   23.9210  -30.9390 C   0  0  0  0  0  0  0  0  0  0  0  0
   -7.4730   22.6210  -31.3370 C   0  0  0  0  0  0  0  0  0  0  0  0
   -8.6640   21.9320  -31.5450 C   0  0  0  0  0  0  0  0  0  0  0  0
   -8.5860   20.6020  -31.9910 C   0  0  0  0  0  0  0  0  0  0  0  0
   -7.3290   19.9900  -32.2190 C   0  0  0  0  0  0  0  0  0  0  0  0
   -7.2590   18.5820  -32.7420 C   0  0  0  0  0  0  0  0  0  0  0  0
   -6.0740   18.4270  -33.6460 C   0  0  0  0  0  0  0  0  0  0  0  0
   -6.1110   18.9380  -34.9780 N   0  0  0  0  0  0  0  0  0  0  0  0
   -5.0250   17.8780  -33.2160 O   0  0  0  0  0  0  0  0  0  0  0  0
   -6.1410   20.7240  -32.0080 C   0  0  0  0  0  0  0  0  0  0  0  0
   -6.2490   22.0410  -31.5450 C   0  0  0  0  0  0  0  0  0  0  0  0
   -2.6769   20.4381  -31.6046 H   0  0  0  0  0  0  0  0  0  0  0  0
   -3.4959   20.0693  -33.1603 H   0  0  0  0  0  0  0  0  0  0  0  0
   -1.8536   20.7969  -33.1603 H   0  0  0  0  0  0  0  0  0  0  0  0
   -3.0590   25.2440  -30.3020 H   0  0  0  0  0  0  0  0  0  0  0  0
   -8.0228   24.6749  -30.6914 H   0  0  0  0  0  0  0  0  0  0  0  0
   -9.6365   22.4138  -31.3658 H   0  0  0  0  0  0  0  0  0  0  0  0
   -9.5097   20.0306  -32.1648 H   0  0  0  0  0  0  0  0  0  0  0  0
   -7.1657   17.8841  -31.8969 H   0  0  0  0  0  0  0  0  0  0  0  0
   -8.1757   18.3625  -33.3090 H   0  0  0  0  0  0  0  0  0  0  0  0
   -5.2790   18.8440  -35.6020 H   0  0  0  0  0  0  0  0  0  0  0  0
   -6.9660   19.4140  -35.3430 H   0  0  0  0  0  0  0  0  0  0  0  0
   -5.1567   20.2729  -32.2023 H   0  0  0  0  0  0  0  0  0  0  0  0
  1  2  1  0
  2  3  1  0
  3  4  2  0
  3  5  1  0
  5  6  1  0
  6  7  1  0
  7  8  1  0
  7  9  2  0
  6 10  2  0
 10 11  1  0
 11 12  2  0
 12 13  1  0
 13 14  2  0
 14 15  1  0
 15 16  1  0
 16 17  1  0
 16 18  2  0
 14 19  1  0
 19 20  2  0
 20  5  1  0
 20 11  1  0
  1 21  1  0
  1 22  1  0
  1 23  1  0
  8 24  1  0
 10 25  1  0
 12 26  1  0
 13 27  1  0
 15 28  1  0
 15 29  1  0
 17 30  1  0
 17 31  1  0
 19 32  1  0
M  CHG  1   8  -1
M  END
>  <UniqueID>  (11) 
11

>  <SMILES>  (11) 
COC(=O)n1c(C([NH-])=O)cc2ccc(CC(N)=O)cc21

>  <Energy>  (11) 
66.12263575327445

>  <Genealogy>  (11) 
COC(=O)n1c(C([NH-])=O)cc2ccc(CC(N)=O)cc21 (protonated)
COC(=O)n1c(C([NH-])=O)cc2ccc(CC(N)=O)cc21 (3D coordinates assigned)
COC(=O)n1c(C([NH-])=O)cc2ccc(CC(N)=O)cc21 (optimized conformer: 66.12263575327445 kcal/mol)

>  <smiles>  (11) 
COC(=O)n1c(C(N)=O)cc2ccc(CC(N)=O)cc21

>  <score_type>  (11) 
oracle

>  <origin>  (11) 
adg

>  <m_score__min__energy>  (11) 
-10.1

>  <m_primary>  (11) 
energy

$$$$
11:0
     RDKit          3D

 37 39  0  0  0  0  0  0  0  0999 V2000
   -4.5100   13.5770  -33.9380 N   0  0  0  0  0  0  0  0  0  0  0  0
   -5.7220   14.2590  -34.2630 C   0  0  0  0  0  0  0  0  0  0  0  0
   -6.5880   13.6710  -34.9630 O   0  0  0  0  0  0  0  0  0  0  0  0
   -5.9560   15.6490  -33.8110 C   0  0  0  0  0  0  0  0  0  0  0  0
   -7.2180   16.1950  -33.5710 C   0  0  0  0  0  0  0  0  0  0  0  0
   -6.9820   17.4580  -33.0800 C   0  0  0  0  0  0  0  0  0  0  0  0
   -7.8740   18.4460  -32.6740 C   0  0  0  0  0  0  0  0  0  0  0  0
   -7.3450   19.6650  -32.2170 C   0  0  0  0  0  0  0  0  0  0  0  0
   -5.9420   19.8760  -32.1770 C   0  0  0  0  0  0  0  0  0  0  0  0
   -5.3950   21.1680  -31.6990 C   0  0  0  0  0  0  0  0  0  0  0  0
   -6.1650   22.3430  -31.7820 C   0  0  0  0  0  0  0  0  0  0  0  0
   -7.4070   22.3200  -32.3290 F   0  0  0  0  0  0  0  0  0  0  0  0
   -5.6460   23.5610  -31.3320 C   0  0  0  0  0  0  0  0  0  0  0  0
   -4.3530   23.6300  -30.7890 C   0  0  0  0  0  0  0  0  0  0  0  0
   -3.8110   24.9220  -30.3130 C   0  0  0  0  0  0  0  0  0  0  0  0
   -4.4400   25.9950  -30.5180 O   0  0  0  0  0  0  0  0  0  0  0  0
   -2.5990   24.9720  -29.6340 O   0  0  0  0  0  0  0  0  0  0  0  0
   -3.5850   22.4560  -30.7050 C   0  0  0  0  0  0  0  0  0  0  0  0
   -4.1000   21.2360  -31.1550 C   0  0  0  0  0  0  0  0  0  0  0  0
   -3.3400   20.1180  -31.0320 F   0  0  0  0  0  0  0  0  0  0  0  0
   -5.0680   18.8480  -32.5960 C   0  0  0  0  0  0  0  0  0  0  0  0
   -5.6250   17.6430  -33.0360 C   0  0  0  0  0  0  0  0  0  0  0  0
   -4.9840   16.5450  -33.4870 N   0  0  0  0  0  0  0  0  0  0  0  0
   -3.5610   16.3980  -33.6200 C   0  0  0  0  0  0  0  0  0  0  0  0
   -2.9200   15.7430  -32.7550 O   0  0  0  0  0  0  0  0  0  0  0  0
   -2.8090   17.0700  -34.7300 C   0  0  0  0  0  0  0  0  0  0  0  0
   -2.8520   18.4470  -34.5960 F   0  0  0  0  0  0  0  0  0  0  0  0
   -3.3480   16.7100  -35.9500 F   0  0  0  0  0  0  0  0  0  0  0  0
   -3.7950   14.0050  -33.3090 H   0  0  0  0  0  0  0  0  0  0  0  0
   -4.3430   12.6100  -34.2950 H   0  0  0  0  0  0  0  0  0  0  0  0
   -8.1942   15.7167  -33.7389 H   0  0  0  0  0  0  0  0  0  0  0  0
   -8.9605   18.2778  -32.7097 H   0  0  0  0  0  0  0  0  0  0  0  0
   -8.0252   20.4639  -31.8869 H   0  0  0  0  0  0  0  0  0  0  0  0
   -6.2562   24.4734  -31.4041 H   0  0  0  0  0  0  0  0  0  0  0  0
   -2.5705   22.4970  -30.2818 H   0  0  0  0  0  0  0  0  0  0  0  0
   -3.9776   18.9917  -32.5766 H   0  0  0  0  0  0  0  0  0  0  0  0
   -1.7596   16.7445  -34.6775 H   0  0  0  0  0  0  0  0  0  0  0  0
  1  2  1  0
  2  3  2  0
  2  4  1  0
  4  5  2  0
  5  6  1  0
  6  7  2  0
  7  8  1  0
  8  9  2  0
  9 10  1  0
 10 11  2  0
 11 12  1  0
 11 13  1  0
 13 14  2  0
 14 15  1  0
 15 16  2  0
 15 17  1  0
 14 18  1  0
 18 19  2  0
 19 20  1  0
  9 21  1  0
 21 22  2  0
 22 23  1  0
 23 24  1  0
 24 25  2  0
 24 26  1  0
 26 27  1  0
 26 28  1  0
 23  4  1  0
 22  6  1  0
 19 10  1  0
  1 29  1  0
  1 30  1  0
  5 31  1  0
  7 32  1  0
  8 33  1  0
 13 34  1  0
 18 35  1  0
 21 36  1  0
 26 37  1  0
M  CHG  1  17  -1
M  END
>  <UniqueID>  (12) 
12

>  <SMILES>  (12) 
NC(=O)c1cc2ccc(-c3c(F)cc(C(=O)[O-])cc3F)cc2n1C(=O)C(F)F

>  <Energy>  (12) 
87.01921805359123

>  <Genealogy>  (12) 
NC(=O)c1cc2ccc(-c3c(F)cc(C(=O)[O-])cc3F)cc2n1C(=O)C(F)F (protonated)
NC(=O)c1cc2ccc(-c3c(F)cc(C(=O)[O-])cc3F)cc2n1C(=O)C(F)F (3D coordinates assigned)
NC(=O)c1cc2ccc(-c3c(F)cc(C(=O)[O-])cc3F)cc2n1C(=O)C(F)F (optimized conformer: 87.01921805359123 kcal/mol)

>  <smiles>  (12) 
NC(=O)c1cc2ccc(-c3c(F)cc(C(=O)O)cc3F)cc2n1C(=O)C(F)F

>  <score_type>  (12) 
oracle

>  <origin>  (12) 
adg

>  <m_score__min__energy>  (12) 
-8.7699999999999996

>  <m_primary>  (12) 
energy

$$$$
12:0
     RDKit          3D

 34 36  0  0  0  0  0  0  0  0999 V2000
   -1.4450   25.1550  -29.2660 N   0  0  0  0  0  0  0  0  0  0  0  0
   -1.3890   23.7270  -29.2730 C   0  0  0  0  0  0  0  0  0  0  0  0
   -0.5860   23.1370  -28.5030 O   0  0  0  0  0  0  0  0  0  0  0  0
   -2.3000   22.9310  -30.1190 C   0  0  0  0  0  0  0  0  0  0  0  0
   -1.9590   21.6920  -30.6550 C   0  0  0  0  0  0  0  0  0  0  0  0
   -3.0850   21.2620  -31.3170 C   0  0  0  0  0  0  0  0  0  0  0  0
   -3.3040   20.0910  -32.0360 C   0  0  0  0  0  0  0  0  0  0  0  0
   -4.5550   19.9180  -32.6490 C   0  0  0  0  0  0  0  0  0  0  0  0
   -5.5530   20.9220  -32.5550 C   0  0  0  0  0  0  0  0  0  0  0  0
   -6.8970   20.7250  -33.2220 C   0  0  0  0  0  0  0  0  0  0  0  0
   -7.7560   19.5450  -32.6880 C   0  0  0  0  0  0  0  0  0  0  0  0
   -9.1230   19.7130  -32.9620 O   0  0  0  0  0  0  0  0  0  0  0  0
   -7.2970   18.1440  -33.0400 C   0  0  0  0  0  0  0  0  0  0  0  0
   -7.0880   17.7990  -31.6890 O   0  0  0  0  0  0  0  0  0  0  0  0
   -7.5090   19.0750  -31.2650 C   0  0  0  0  0  0  0  0  0  0  0  0
   -5.3000   22.0880  -31.7960 C   0  0  0  0  0  0  0  0  0  0  0  0
   -4.0500   22.2260  -31.1790 C   0  0  0  0  0  0  0  0  0  0  0  0
   -3.5820   23.2620  -30.4460 N   0  0  0  0  0  0  0  0  0  0  0  0
   -4.2590   24.5030  -30.1810 C   0  0  0  0  0  0  0  0  0  0  0  0
   -5.2170   24.5430  -29.3650 O   0  0  0  0  0  0  0  0  0  0  0  0
   -3.8640   25.6720  -30.8190 O   0  0  0  0  0  0  0  0  0  0  0  0
   -0.7670   25.7020  -28.6900 H   0  0  0  0  0  0  0  0  0  0  0  0
   -2.2070   25.6660  -29.7600 H   0  0  0  0  0  0  0  0  0  0  0  0
   -0.9952   21.1691  -30.5676 H   0  0  0  0  0  0  0  0  0  0  0  0
   -2.5203   19.3238  -32.1215 H   0  0  0  0  0  0  0  0  0  0  0  0
   -4.7637   18.9940  -33.2082 H   0  0  0  0  0  0  0  0  0  0  0  0
   -7.4771   21.6503  -33.0901 H   0  0  0  0  0  0  0  0  0  0  0  0
   -6.6744   20.4790  -34.2708 H   0  0  0  0  0  0  0  0  0  0  0  0
   -9.2850   19.3080  -33.8540 H   0  0  0  0  0  0  0  0  0  0  0  0
   -8.0733   17.5392  -33.5315 H   0  0  0  0  0  0  0  0  0  0  0  0
   -6.4702   18.0192  -33.7547 H   0  0  0  0  0  0  0  0  0  0  0  0
   -8.4183   19.0535  -30.6463 H   0  0  0  0  0  0  0  0  0  0  0  0
   -6.8459   19.6663  -30.6164 H   0  0  0  0  0  0  0  0  0  0  0  0
   -6.0675   22.8691  -31.6924 H   0  0  0  0  0  0  0  0  0  0  0  0
  1  2  1  0
  2  3  2  0
  2  4  1  0
  4  5  2  0
  5  6  1  0
  6  7  2  0
  7  8  1  0
  8  9  2  0
  9 10  1  0
 10 11  1  0
 11 12  1  0
 11 13  1  0
 13 14  1  0
 14 15  1  0
  9 16  1  0
 16 17  2  0
 17 18  1  0
 18 19  1  0
 19 20  2  0
 19 21  1  0
 18  4  1  0
 17  6  1  0
 15 11  1  0
  1 22  1  0
  1 23  1  0
  5 24  1  0
  7 25  1  0
  8 26  1  0
 10 27  1  0
 10 28  1  0
 12 29  1  0
 13 30  1  0
 13 31  1  0
 15 32  1  0
 15 33  1  0
 16 34  1  0
M  CHG  1  21  -1
M  END
>  <UniqueID>  (13) 
13

>  <SMILES>  (13) 
NC(=O)c1cc2ccc(CC3(O)COC3)cc2n1C(=O)[O-]

>  <Energy>  (13) 
142.42662925732958

>  <Genealogy>  (13) 
NC(=O)c1cc2ccc(CC3(O)COC3)cc2n1C(=O)[O-] (protonated)
NC(=O)c1cc2ccc(CC3(O)COC3)cc2n1C(=O)[O-] (3D coordinates assigned)
NC(=O)c1cc2ccc(CC3(O)COC3)cc2n1C(=O)[O-] (nonaromatic ring conformer: 142.42662925732958 kcal/mol)

>  <smiles>  (13) 
NC(=O)c1cc2ccc(CC3(O)COC3)cc2n1C(=O)O

>  <score_type>  (13) 
oracle

>  <origin>  (13) 
adg

>  <m_score__min__energy>  (13) 
-9.3200000000000003

>  <m_primary>  (13) 
energy

$$$$
13:0
     RDKit          3D

 42 44  0  0  0  0  0  0  0  0999 V2000
   -2.4020   20.7830  -32.7800 C   0  0  0  0  0  0  0  0  0  0  0  0
   -3.0870   22.0280  -32.8450 O   0  0  0  0  0  0  0  0  0  0  0  0
   -3.6030   22.6630  -31.7110 C   0  0  0  0  0  0  0  0  0  0  0  0
   -2.8260   23.1530  -30.8460 O   0  0  0  0  0  0  0  0  0  0  0  0
   -5.0260   22.7770  -31.5440 N   0  0  0  0  0  0  0  0  0  0  0  0
   -5.7270   23.8260  -31.0260 C   0  0  0  0  0  0  0  0  0  0  0  0
   -5.1510   25.0180  -30.3680 C   0  0  0  0  0  0  0  0  0  0  0  0
   -3.9390   25.6020  -30.8380 N   0  0  0  0  0  0  0  0  0  0  0  0
   -5.7110   25.4980  -29.3460 O   0  0  0  0  0  0  0  0  0  0  0  0
   -7.0970   23.5940  -31.1250 C   0  0  0  0  0  0  0  0  0  0  0  0
   -7.2160   22.3560  -31.7140 C   0  0  0  0  0  0  0  0  0  0  0  0
   -8.3540   21.6380  -32.0640 C   0  0  0  0  0  0  0  0  0  0  0  0
   -8.1800   20.3940  -32.6940 C   0  0  0  0  0  0  0  0  0  0  0  0
   -6.8810   19.8920  -32.9650 C   0  0  0  0  0  0  0  0  0  0  0  0
   -6.7150   18.6280  -33.6360 N   0  0  0  0  0  0  0  0  0  0  0  0
   -7.1860   17.3900  -33.0040 C   0  0  0  0  0  0  0  0  0  0  0  0
   -6.4930   16.1650  -33.6250 C   0  0  0  0  0  0  0  0  0  0  0  0
   -5.0740   16.4360  -33.9410 N   0  0  0  0  0  0  0  0  0  0  0  0
   -4.2670   16.6220  -32.7210 C   0  0  0  0  0  0  0  0  0  0  0  0
   -4.8880   17.5570  -34.9010 C   0  0  0  0  0  0  0  0  0  0  0  0
   -6.0710   18.5410  -34.9500 C   0  0  0  0  0  0  0  0  0  0  0  0
   -5.7500   20.6580  -32.6020 C   0  0  0  0  0  0  0  0  0  0  0  0
   -5.9520   21.8860  -31.9590 C   0  0  0  0  0  0  0  0  0  0  0  0
   -2.2483   20.5036  -31.7272 H   0  0  0  0  0  0  0  0  0  0  0  0
   -3.0009   20.0084  -33.2812 H   0  0  0  0  0  0  0  0  0  0  0  0
   -1.4271   20.8743  -33.2812 H   0  0  0  0  0  0  0  0  0  0  0  0
   -3.0130   25.2790  -30.4790 H   0  0  0  0  0  0  0  0  0  0  0  0
   -7.9110   24.2592  -30.8011 H   0  0  0  0  0  0  0  0  0  0  0  0
   -9.3595   22.0316  -31.8542 H   0  0  0  0  0  0  0  0  0  0  0  0
   -9.0618   19.8021  -32.9806 H   0  0  0  0  0  0  0  0  0  0  0  0
   -6.9606   17.4255  -31.9279 H   0  0  0  0  0  0  0  0  0  0  0  0
   -8.2707   17.3017  -33.1639 H   0  0  0  0  0  0  0  0  0  0  0  0
   -6.5453   15.3279  -32.9133 H   0  0  0  0  0  0  0  0  0  0  0  0
   -7.0108   15.9198  -34.5640 H   0  0  0  0  0  0  0  0  0  0  0  0
   -4.9025   16.4755  -31.8352 H   0  0  0  0  0  0  0  0  0  0  0  0
   -3.4465   15.8894  -32.7089 H   0  0  0  0  0  0  0  0  0  0  0  0
   -3.8500   17.6398  -32.7089 H   0  0  0  0  0  0  0  0  0  0  0  0
   -3.9855   18.1150  -34.6108 H   0  0  0  0  0  0  0  0  0  0  0  0
   -4.8047   17.1088  -35.9021 H   0  0  0  0  0  0  0  0  0  0  0  0
   -5.7034   19.5362  -35.2406 H   0  0  0  0  0  0  0  0  0  0  0  0
   -6.8056   18.1811  -35.6854 H   0  0  0  0  0  0  0  0  0  0  0  0
   -4.7337   20.2978  -32.8196 H   0  0  0  0  0  0  0  0  0  0  0  0
  1  2  1  0
  2  3  1  0
  3  4  2  0
  3  5  1  0
  5  6  1  0
  6  7  1  0
  7  8  1  0
  7  9  2  0
  6 10  2  0
 10 11  1  0
 11 12  2  0
 12 13  1  0
 13 14  2  0
 14 15  1  0
 15 16  1  0
 16 17  1  0
 17 18  1  0
 18 19  1  0
 18 20  1  0
 20 21  1  0
 14 22  1  0
 22 23  2  0
 23  5  1  0
 23 11  1  0
 21 15  1  0
  1 24  1  0
  1 25  1  0
  1 26  1  0
  8 27  1  0
 10 28  1  0
 12 29  1  0
 13 30  1  0
 16 31  1  0
 16 32  1  0
 17 33  1  0
 17 34  1  0
 19 35  1  0
 19 36  1  0
 19 37  1  0
 20 38  1  0
 20 39  1  0
 21 40  1  0
 21 41  1  0
 22 42  1  0
M  CHG  1   8  -1
M  END
>  <UniqueID>  (14) 
14

>  <SMILES>  (14) 
COC(=O)n1c(C([NH-])=O)cc2ccc(N3CCN(C)CC3)cc21

>  <Energy>  (14) 
91.66444077901181

>  <Genealogy>  (14) 
COC(=O)n1c(C([NH-])=O)cc2ccc(N3CCN(C)CC3)cc21 (protonated)
COC(=O)n1c(C([NH-])=O)cc2ccc(N3CCN(C)CC3)cc21 (3D coordinates assigned)
COC(=O)n1c(C([NH-])=O)cc2ccc(N3CCN(C)CC3)cc21 (nonaromatic ring conformer: 91.66444077901181 kcal/mol)

>  <smiles>  (14) 
COC(=O)n1c(C(N)=O)cc2ccc(N3CCN(C)CC3)cc21

>  <score_type>  (14) 
oracle

>  <origin>  (14) 
adg

>  <m_score__min__energy>  (14) 
-10.220000000000001

>  <m_primary>  (14) 
energy

$$$$
14:0
     RDKit          3D

 48 50  0  0  0  0  0  0  0  0999 V2000
   -3.5660   24.8470  -26.6840 C   0  0  0  0  0  0  0  0  0  0  0  0
   -2.1970   24.2890  -27.1580 C   0  0  0  0  0  0  0  0  0  0  0  0
   -1.6230   25.3260  -28.1590 C   0  0  0  0  0  0  0  0  0  0  0  0
   -1.2550   24.2080  -25.9260 C   0  0  0  0  0  0  0  0  0  0  0  0
   -2.3860   22.9560  -27.8370 N   0  0  1  0  0  0  0  0  0  0  0  0
   -3.5640   22.8810  -28.7340 C   0  0  0  0  0  0  0  0  0  0  0  0
   -3.1800   22.0300  -29.9570 C   0  0  1  0  0  0  0  0  0  0  0  0
   -3.9440   22.4340  -31.1980 C   0  0  0  0  0  0  0  0  0  0  0  0
   -3.3410   22.4920  -32.3030 O   0  0  0  0  0  0  0  0  0  0  0  0
   -5.3440   22.7380  -31.1510 N   0  0  0  0  0  0  0  0  0  0  0  0
   -5.9400   23.8950  -30.7490 C   0  0  0  0  0  0  0  0  0  0  0  0
   -5.2410   25.1350  -30.3580 C   0  0  0  0  0  0  0  0  0  0  0  0
   -3.8460   25.3000  -30.5990 N   0  0  0  0  0  0  0  0  0  0  0  0
   -5.8880   26.0710  -29.8160 O   0  0  0  0  0  0  0  0  0  0  0  0
   -7.3280   23.7560  -30.7710 C   0  0  0  0  0  0  0  0  0  0  0  0
   -7.5590   22.4670  -31.2030 C   0  0  0  0  0  0  0  0  0  0  0  0
   -8.7550   21.7770  -31.3720 C   0  0  0  0  0  0  0  0  0  0  0  0
   -8.6860   20.4340  -31.7820 C   0  0  0  0  0  0  0  0  0  0  0  0
   -7.4330   19.8120  -32.0340 C   0  0  0  0  0  0  0  0  0  0  0  0
   -7.3650   18.3580  -32.4270 C   0  0  0  0  0  0  0  0  0  0  0  0
   -6.5020   17.6650  -31.5970 F   0  0  0  0  0  0  0  0  0  0  0  0
   -8.6150   17.7720  -32.3330 F   0  0  0  0  0  0  0  0  0  0  0  0
   -6.9160   18.2580  -33.7300 F   0  0  0  0  0  0  0  0  0  0  0  0
   -6.2410   20.5450  -31.8330 C   0  0  0  0  0  0  0  0  0  0  0  0
   -6.3440   21.8780  -31.4280 C   0  0  0  0  0  0  0  0  0  0  0  0
   -1.6670   22.1780  -30.0680 C   0  0  0  0  0  0  0  0  0  0  0  0
   -1.2940   22.5560  -28.6890 C   0  0  0  0  0  0  0  0  0  0  0  0
   -0.1490   22.4360  -28.2810 O   0  0  0  0  0  0  0  0  0  0  0  0
   -3.5961   24.8593  -25.5845 H   0  0  0  0  0  0  0  0  0  0  0  0
   -3.6969   25.8703  -27.0658 H   0  0  0  0  0  0  0  0  0  0  0  0
   -4.3749   24.2068  -27.0658 H   0  0  0  0  0  0  0  0  0  0  0  0
   -1.1633   26.1565  -27.6032 H   0  0  0  0  0  0  0  0  0  0  0  0
   -0.8636   24.8434  -28.7917 H   0  0  0  0  0  0  0  0  0  0  0  0
   -2.4352   25.7133  -28.7917 H   0  0  0  0  0  0  0  0  0  0  0  0
   -1.8523   24.2594  -25.0037 H   0  0  0  0  0  0  0  0  0  0  0  0
   -0.6997   23.2588  -25.9508 H   0  0  0  0  0  0  0  0  0  0  0  0
   -0.5458   25.0485  -25.9508 H   0  0  0  0  0  0  0  0  0  0  0  0
   -2.4930   22.2100  -27.1090 H   0  0  0  0  0  0  0  0  0  0  0  0
   -4.4069   22.4133  -28.2042 H   0  0  0  0  0  0  0  0  0  0  0  0
   -3.8662   23.8899  -29.0514 H   0  0  0  0  0  0  0  0  0  0  0  0
   -3.4546   20.9709  -29.8432 H   0  0  0  0  0  0  0  0  0  0  0  0
   -3.4960   26.0350  -31.2520 H   0  0  0  0  0  0  0  0  0  0  0  0
   -8.0785   24.5136  -30.5011 H   0  0  0  0  0  0  0  0  0  0  0  0
   -9.7234   22.2663  -31.1907 H   0  0  0  0  0  0  0  0  0  0  0  0
   -9.6138   19.8570  -31.9094 H   0  0  0  0  0  0  0  0  0  0  0  0
   -5.2578   20.0778  -31.9914 H   0  0  0  0  0  0  0  0  0  0  0  0
   -1.1933   21.2306  -30.3648 H   0  0  0  0  0  0  0  0  0  0  0  0
   -1.3468   22.9046  -30.8293 H   0  0  0  0  0  0  0  0  0  0  0  0
  1  2  1  0
  2  3  1  0
  2  4  1  0
  2  5  1  0
  5  6  1  0
  6  7  1  0
  7  8  1  0
  8  9  2  0
  8 10  1  0
 10 11  1  0
 11 12  1  0
 12 13  1  0
 12 14  2  0
 11 15  2  0
 15 16  1  0
 16 17  2  0
 17 18  1  0
 18 19  2  0
 19 20  1  0
 20 21  1  0
 20 22  1  0
 20 23  1  0
 19 24  1  0
 24 25  2  0
  7 26  1  0
 26 27  1  0
 27 28  2  0
 27  5  1  0
 25 10  1  0
 25 16  1  0
  1 29  1  0
  1 30  1  0
  1 31  1  0
  3 32  1  0
  3 33  1  0
  3 34  1  0
  4 35  1  0
  4 36  1  0
  4 37  1  0
  5 38  1  1
  6 39  1  0
  6 40  1  0
  7 41  1  1
 13 42  1  0
 15 43  1  0
 17 44  1  0
 18 45  1  0
 24 46  1  0
 26 47  1  0
 26 48  1  0
M  CHG  2   5   1  13  -1
M  END
>  <UniqueID>  (15) 
15

>  <SMILES>  (15) 
CC(C)(C)[N@H+]1C[C@@H](C(=O)n2c(C([NH-])=O)cc3ccc(C(F)(F)F)cc32)CC1=O

>  <Energy>  (15) 
98.92859005541355

>  <Genealogy>  (15) 
CC(C)(C)[NH+]1CC(C(=O)n2c(C([NH-])=O)cc3ccc(C(F)(F)F)cc32)CC1=O (protonated)
CC(C)(C)[N@H+]1C[C@@H](C(=O)n2c(C([NH-])=O)cc3ccc(C(F)(F)F)cc32)CC1=O (chirality)
CC(C)(C)[N@H+]1C[C@@H](C(=O)n2c(C([NH-])=O)cc3ccc(C(F)(F)F)cc32)CC1=O (3D coordinates assigned)
CC(C)(C)[N@H+]1C[C@@H](C(=O)n2c(C([NH-])=O)cc3ccc(C(F)(F)F)cc32)CC1=O (nonaromatic ring conformer: 98.92859005541355 kcal/mol)

>  <smiles>  (15) 
CC(C)(C)N1CC(C(=O)n2c(C(N)=O)cc3ccc(C(F)(F)F)cc32)CC1=O

>  <score_type>  (15) 
oracle

>  <origin>  (15) 
adg

>  <m_score__min__energy>  (15) 
-10.77

>  <m_primary>  (15) 
energy

$$$$
15:0
     RDKit          3D

 42 43  0  0  0  0  0  0  0  0999 V2000
   -3.8520   25.3540  -30.8470 N   0  0  0  0  0  0  0  0  0  0  0  0
   -5.1480   24.9890  -30.3800 C   0  0  0  0  0  0  0  0  0  0  0  0
   -5.7540   25.7530  -29.5830 O   0  0  0  0  0  0  0  0  0  0  0  0
   -5.8110   23.7620  -30.8650 C   0  0  0  0  0  0  0  0  0  0  0  0
   -7.1900   23.6530  -31.0310 C   0  0  0  0  0  0  0  0  0  0  0  0
   -7.3950   22.3960  -31.5530 C   0  0  0  0  0  0  0  0  0  0  0  0
   -8.5820   21.7540  -31.8920 C   0  0  0  0  0  0  0  0  0  0  0  0
   -8.5030   20.4350  -32.3690 C   0  0  0  0  0  0  0  0  0  0  0  0
   -7.2500   19.7810  -32.4800 C   0  0  0  0  0  0  0  0  0  0  0  0
   -7.1790   18.3740  -33.0060 C   0  0  0  0  0  0  0  0  0  0  0  0
   -6.0470   18.2350  -33.9770 C   0  0  0  0  0  0  0  0  0  0  0  0
   -6.0480   18.8650  -35.0230 O   0  0  0  0  0  0  0  0  0  0  0  0
   -6.0650   20.4690  -32.1340 C   0  0  0  0  0  0  0  0  0  0  0  0
   -6.1720   21.7910  -31.6830 C   0  0  0  0  0  0  0  0  0  0  0  0
   -5.1870   22.6180  -31.2640 N   0  0  0  0  0  0  0  0  0  0  0  0
   -3.7960   22.2870  -31.1180 C   0  0  0  0  0  0  0  0  0  0  0  0
   -2.9090   23.0570  -31.5770 O   0  0  0  0  0  0  0  0  0  0  0  0
   -3.4360   21.0940  -30.4900 O   0  0  0  0  0  0  0  0  0  0  0  0
   -2.1370   20.8510  -29.9620 C   0  0  0  0  0  0  0  0  0  0  0  0
   -2.2300   20.5600  -28.4620 C   0  0  0  0  0  0  0  0  0  0  0  0
   -3.2220   21.4700  -27.7140 C   0  0  0  0  0  0  0  0  0  0  0  0
   -2.6800   22.8780  -27.4370 C   0  0  0  0  0  0  0  0  0  0  0  0
   -2.8100   23.6940  -28.5980 O   0  0  0  0  0  0  0  0  0  0  0  0
   -1.7300   24.3350  -29.1710 N   0  0  0  0  0  0  0  0  0  0  0  0
   -0.9270   23.7150  -29.9010 O   0  0  0  0  0  0  0  0  0  0  0  0
   -1.5450   25.6780  -28.9480 O   0  0  0  0  0  0  0  0  0  0  0  0
   -2.9930   24.9160  -30.4450 H   0  0  0  0  0  0  0  0  0  0  0  0
   -7.9524   24.4101  -30.7952 H   0  0  0  0  0  0  0  0  0  0  0  0
   -9.5517   22.2632  -31.7897 H   0  0  0  0  0  0  0  0  0  0  0  0
   -9.4220   19.9046  -32.6591 H   0  0  0  0  0  0  0  0  0  0  0  0
   -7.0232   17.6808  -32.1663 H   0  0  0  0  0  0  0  0  0  0  0  0
   -8.1217   18.1382  -33.5215 H   0  0  0  0  0  0  0  0  0  0  0  0
   -5.2090   17.5608  -33.7462 H   0  0  0  0  0  0  0  0  0  0  0  0
   -5.0837   19.9790  -32.2167 H   0  0  0  0  0  0  0  0  0  0  0  0
   -1.6911   19.9858  -30.4744 H   0  0  0  0  0  0  0  0  0  0  0  0
   -1.5098   21.7407  -30.1200 H   0  0  0  0  0  0  0  0  0  0  0  0
   -2.5498   19.5158  -28.3302 H   0  0  0  0  0  0  0  0  0  0  0  0
   -1.2343   20.7517  -28.0355 H   0  0  0  0  0  0  0  0  0  0  0  0
   -4.1342   21.5625  -28.3217 H   0  0  0  0  0  0  0  0  0  0  0  0
   -3.4136   21.0017  -26.7373 H   0  0  0  0  0  0  0  0  0  0  0  0
   -3.2480   23.3296  -26.6103 H   0  0  0  0  0  0  0  0  0  0  0  0
   -1.6161   22.8057  -27.1671 H   0  0  0  0  0  0  0  0  0  0  0  0
  1  2  1  0
  2  3  2  0
  2  4  1  0
  4  5  2  0
  5  6  1  0
  6  7  2  0
  7  8  1  0
  8  9  2  0
  9 10  1  0
 10 11  1  0
 11 12  2  0
  9 13  1  0
 13 14  2  0
 14 15  1  0
 15 16  1  0
 16 17  2  0
 16 18  1  0
 18 19  1  0
 19 20  1  0
 20 21  1  0
 21 22  1  0
 22 23  1  0
 23 24  1  0
 24 25  2  0
 24 26  1  0
 15  4  1  0
 14  6  1  0
  1 27  1  0
  5 28  1  0
  7 29  1  0
  8 30  1  0
 10 31  1  0
 10 32  1  0
 11 33  1  0
 13 34  1  0
 19 35  1  0
 19 36  1  0
 20 37  1  0
 20 38  1  0
 21 39  1  0
 21 40  1  0
 22 41  1  0
 22 42  1  0
M  CHG  3   1  -1  24   1  26  -1
M  END
>  <UniqueID>  (16) 
16

>  <SMILES>  (16) 
[NH-]C(=O)c1cc2ccc(CC=O)cc2n1C(=O)OCCCCO[N+](=O)[O-]

>  <Energy>  (16) 
68.85161105570103

>  <Genealogy>  (16) 
[NH-]C(=O)c1cc2ccc(CC=O)cc2n1C(=O)OCCCCO[N+](=O)[O-] (protonated)
[NH-]C(=O)c1cc2ccc(CC=O)cc2n1C(=O)OCCCCO[N+](=O)[O-] (3D coordinates assigned)
[NH-]C(=O)c1cc2ccc(CC=O)cc2n1C(=O)OCCCCO[N+](=O)[O-] (optimized conformer: 68.85161105570103 kcal/mol)

>  <smiles>  (16) 
NC(=O)c1cc2ccc(CC=O)cc2n1C(=O)OCCCCO[N+](=O)[O-]

>  <score_type>  (16) 
oracle

>  <origin>  (16) 
adg

>  <m_score__min__energy>  (16) 
-10.31

>  <m_primary>  (16) 
energy

$$$$
16:0
     RDKit          3D

 57 59  0  0  0  0  0  0  0  0999 V2000
   -0.3790   22.7150  -28.6410 C   0  0  0  0  0  0  0  0  0  0  0  0
   -1.8680   22.8690  -28.9970 C   0  0  0  0  0  0  0  0  0  0  0  0
   -2.0610   22.6690  -30.5110 C   0  0  0  0  0  0  0  0  0  0  0  0
   -2.6870   21.8180  -28.2300 C   0  0  0  0  0  0  0  0  0  0  0  0
   -2.4510   24.6080  -28.4900 Si  0  0  0  0  0  4  0  0  0  0  0  0
   -0.9860   25.7680  -28.3550 C   0  0  0  0  0  0  0  0  0  0  0  0
   -3.3020   24.5380  -26.8180 C   0  0  0  0  0  0  0  0  0  0  0  0
   -3.5240   25.1840  -29.7320 O   0  0  0  0  0  0  0  0  0  0  0  0
   -4.8750   24.8710  -29.4520 C   0  0  1  0  0  0  0  0  0  0  0  0
   -5.7660   25.6130  -30.4510 C   0  0  0  0  0  0  0  0  0  0  0  0
   -6.0260   24.6360  -31.5870 C   0  0  0  0  0  0  0  0  0  0  0  0
   -5.7260   23.3170  -31.0510 N   0  0  0  0  0  0  0  0  0  0  0  0
   -5.9690   22.0810  -31.7630 C   0  0  0  0  0  0  0  0  0  0  0  0
   -7.2970   21.6450  -32.0240 C   0  0  0  0  0  0  0  0  0  0  0  0
   -7.5430   20.4520  -32.7200 C   0  0  0  0  0  0  0  0  0  0  0  0
   -6.4500   19.7000  -33.1350 C   0  0  0  0  0  0  0  0  0  0  0  0
   -6.4090   18.5240  -33.8470 C   0  0  0  0  0  0  0  0  0  0  0  0
   -5.0570   18.2290  -33.9920 C   0  0  0  0  0  0  0  0  0  0  0  0
   -4.5590   17.0040  -34.6510 C   0  0  0  0  0  0  0  0  0  0  0  0
   -3.3060   16.9890  -35.3380 N   0  0  0  0  0  0  0  0  0  0  0  0
   -5.2240   15.9390  -34.5580 O   0  0  0  0  0  0  0  0  0  0  0  0
   -4.2890   19.1920  -33.4040 N   0  0  0  0  0  0  0  0  0  0  0  0
   -2.8560   19.3010  -33.4370 C   0  0  0  0  0  0  0  0  0  0  0  0
   -2.1980   19.8250  -34.5870 N   0  0  0  0  0  0  0  0  0  0  0  0
   -2.1710   18.9340  -32.4450 O   0  0  0  0  0  0  0  0  0  0  0  0
   -5.1600   20.0850  -32.8810 C   0  0  0  0  0  0  0  0  0  0  0  0
   -4.8840   21.2850  -32.2130 C   0  0  0  0  0  0  0  0  0  0  0  0
   -5.1320   23.3880  -29.7250 C   0  0  0  0  0  0  0  0  0  0  0  0
   -0.2629   22.7030  -27.5472 H   0  0  0  0  0  0  0  0  0  0  0  0
    0.0028   21.7726  -29.0606 H   0  0  0  0  0  0  0  0  0  0  0  0
    0.1876   23.5593  -29.0606 H   0  0  0  0  0  0  0  0  0  0  0  0
   -2.8153   21.8874  -30.6844 H   0  0  0  0  0  0  0  0  0  0  0  0
   -2.3991   23.6120  -30.9653 H   0  0  0  0  0  0  0  0  0  0  0  0
   -1.1065   22.3647  -30.9653 H   0  0  0  0  0  0  0  0  0  0  0  0
   -2.5643   21.9755  -27.1483 H   0  0  0  0  0  0  0  0  0  0  0  0
   -3.7498   21.9153  -28.4965 H   0  0  0  0  0  0  0  0  0  0  0  0
   -2.3329   20.8112  -28.4965 H   0  0  0  0  0  0  0  0  0  0  0  0
   -0.7579   25.9486  -27.2942 H   0  0  0  0  0  0  0  0  0  0  0  0
   -0.1124   25.3141  -28.8458 H   0  0  0  0  0  0  0  0  0  0  0  0
   -1.2275   26.7224  -28.8458 H   0  0  0  0  0  0  0  0  0  0  0  0
   -2.5477   24.6000  -26.0198 H   0  0  0  0  0  0  0  0  0  0  0  0
   -4.0021   25.3816  -26.7273 H   0  0  0  0  0  0  0  0  0  0  0  0
   -3.8548   23.5913  -26.7273 H   0  0  0  0  0  0  0  0  0  0  0  0
   -5.0832   25.1389  -28.4056 H   0  0  0  0  0  0  0  0  0  0  0  0
   -6.7132   25.9057  -29.9744 H   0  0  0  0  0  0  0  0  0  0  0  0
   -5.2851   26.5335  -30.8134 H   0  0  0  0  0  0  0  0  0  0  0  0
   -7.0774   24.6900  -31.9058 H   0  0  0  0  0  0  0  0  0  0  0  0
   -5.4085   24.8654  -32.4680 H   0  0  0  0  0  0  0  0  0  0  0  0
   -8.1448   22.2527  -31.6747 H   0  0  0  0  0  0  0  0  0  0  0  0
   -8.5707   20.1214  -32.9311 H   0  0  0  0  0  0  0  0  0  0  0  0
   -7.2631   17.9409  -34.2219 H   0  0  0  0  0  0  0  0  0  0  0  0
   -2.9890   16.1230  -35.8270 H   0  0  0  0  0  0  0  0  0  0  0  0
   -2.6470   17.7960  -35.2770 H   0  0  0  0  0  0  0  0  0  0  0  0
   -2.3930   20.7950  -34.9230 H   0  0  0  0  0  0  0  0  0  0  0  0
   -3.8456   21.6042  -32.0405 H   0  0  0  0  0  0  0  0  0  0  0  0
   -5.8232   22.9763  -28.9749 H   0  0  0  0  0  0  0  0  0  0  0  0
   -4.2020   22.8031  -29.6703 H   0  0  0  0  0  0  0  0  0  0  0  0
  1  2  1  0
  2  3  1  0
  2  4  1  0
  2  5  1  0
  5  6  1  0
  5  7  1  0
  5  8  1  0
  8  9  1  0
  9 10  1  0
 10 11  1  0
 11 12  1  0
 12 13  1  0
 13 14  2  0
 14 15  1  0
 15 16  2  0
 16 17  1  0
 17 18  2  0
 18 19  1  0
 19 20  1  0
 19 21  2  0
 18 22  1  0
 22 23  1  0
 23 24  1  0
 23 25  2  0
 22 26  1  0
 26 27  2  0
 12 28  1  0
 28  9  1  0
 27 13  1  0
 26 16  1  0
  1 29  1  0
  1 30  1  0
  1 31  1  0
  3 32  1  0
  3 33  1  0
  3 34  1  0
  4 35  1  0
  4 36  1  0
  4 37  1  0
  6 38  1  0
  6 39  1  0
  6 40  1  0
  7 41  1  0
  7 42  1  0
  7 43  1  0
  9 44  1  1
 10 45  1  0
 10 46  1  0
 11 47  1  0
 11 48  1  0
 14 49  1  0
 15 50  1  0
 17 51  1  0
 20 52  1  0
 20 53  1  0
 24 54  1  0
 27 55  1  0
 28 56  1  0
 28 57  1  0
M  CHG  1  24  -1
M  END
>  <UniqueID>  (17) 
17

>  <SMILES>  (17) 
CC(C)(C)[Si](C)(C)O[C@H]1CCN(c2ccc3cc(C(N)=O)n(C([NH-])=O)c3c2)C1

>  <Energy>  (17) 
82.9313230163696

>  <Genealogy>  (17) 
CC(C)(C)[Si](C)(C)OC1CCN(c2ccc3cc(C(N)=O)n(C([NH-])=O)c3c2)C1 (protonated)
CC(C)(C)[Si](C)(C)O[C@H]1CCN(c2ccc3cc(C(N)=O)n(C([NH-])=O)c3c2)C1 (chirality)
CC(C)(C)[Si](C)(C)O[C@H]1CCN(c2ccc3cc(C(N)=O)n(C([NH-])=O)c3c2)C1 (3D coordinates assigned)
CC(C)(C)[Si](C)(C)O[C@H]1CCN(c2ccc3cc(C(N)=O)n(C([NH-])=O)c3c2)C1 (nonaromatic ring conformer: 82.9313230163696 kcal/mol)

>  <smiles>  (17) 
CC(C)(C)[Si](C)(C)OC1CCN(c2ccc3cc(C(N)=O)n(C(N)=O)c3c2)C1

>  <score_type>  (17) 
oracle

>  <origin>  (17) 
adg

>  <m_score__min__energy>  (17) 
-9.9100000000000001

>  <m_primary>  (17) 
energy

$$$$
17:0
     RDKit          3D

 45 46  0  0  0  0  0  0  0  0999 V2000
   -4.2510   24.9280  -26.4280 C   0  0  0  0  0  0  0  0  0  0  0  0
   -2.7970   24.4900  -27.4340 S   0  0  0  0  0  0  0  0  0  0  0  0
   -3.2470   22.7330  -27.6480 C   0  0  0  0  0  0  0  0  0  0  0  0
   -4.1080   22.5500  -28.9030 C   0  0  0  0  0  0  0  0  0  0  0  0
   -3.2550   22.3360  -30.1690 C   0  0  2  0  0  0  0  0  0  0  0  0
   -2.1910   23.3420  -30.2210 N   0  0  0  0  0  0  0  0  0  0  0  0
   -4.1160   22.4410  -31.4080 C   0  0  0  0  0  0  0  0  0  0  0  0
   -3.5960   22.2610  -32.5430 O   0  0  0  0  0  0  0  0  0  0  0  0
   -5.4880   22.8620  -31.3210 N   0  0  0  0  0  0  0  0  0  0  0  0
   -5.9750   24.1060  -31.0530 C   0  0  0  0  0  0  0  0  0  0  0  0
   -5.1770   25.2720  -30.6230 C   0  0  0  0  0  0  0  0  0  0  0  0
   -3.7700   25.2920  -30.8480 N   0  0  0  0  0  0  0  0  0  0  0  0
   -5.7330   26.2690  -30.0940 O   0  0  0  0  0  0  0  0  0  0  0  0
   -7.3660   24.1120  -31.1230 C   0  0  0  0  0  0  0  0  0  0  0  0
   -7.7220   22.8170  -31.4240 C   0  0  0  0  0  0  0  0  0  0  0  0
   -8.9810   22.2510  -31.5940 C   0  0  0  0  0  0  0  0  0  0  0  0
   -9.0520   20.8790  -31.8890 C   0  0  0  0  0  0  0  0  0  0  0  0
   -7.8700   20.1050  -32.0120 C   0  0  0  0  0  0  0  0  0  0  0  0
   -7.9670   18.6340  -32.3170 C   0  0  0  0  0  0  0  0  0  0  0  0
   -6.6390   17.9640  -32.1580 C   0  0  0  0  0  0  0  0  0  0  0  0
   -6.1870   17.7340  -31.0030 O   0  0  0  0  0  0  0  0  0  0  0  0
   -5.8990   17.6200  -33.2930 O   0  0  0  0  0  0  0  0  0  0  0  0
   -5.2770   18.5930  -34.1240 C   0  0  0  0  0  0  0  0  0  0  0  0
   -5.7880   18.4910  -35.4040 F   0  0  0  0  0  0  0  0  0  0  0  0
   -6.6080   20.7190  -31.8520 C   0  0  0  0  0  0  0  0  0  0  0  0
   -6.5710   22.0820  -31.5340 C   0  0  0  0  0  0  0  0  0  0  0  0
   -3.9953   24.8510  -25.3609 H   0  0  0  0  0  0  0  0  0  0  0  0
   -4.5588   25.9587  -26.6578 H   0  0  0  0  0  0  0  0  0  0  0  0
   -5.0770   24.2388  -26.6578 H   0  0  0  0  0  0  0  0  0  0  0  0
   -2.3300   22.1336  -27.7472 H   0  0  0  0  0  0  0  0  0  0  0  0
   -3.8218   22.4028  -26.7702 H   0  0  0  0  0  0  0  0  0  0  0  0
   -4.7581   21.6740  -28.7618 H   0  0  0  0  0  0  0  0  0  0  0  0
   -4.6975   23.4678  -29.0445 H   0  0  0  0  0  0  0  0  0  0  0  0
   -2.8097   21.3309  -30.1315 H   0  0  0  0  0  0  0  0  0  0  0  0
   -2.4310   24.1170  -29.5620 H   0  0  0  0  0  0  0  0  0  0  0  0
   -2.1880   23.7710  -31.1760 H   0  0  0  0  0  0  0  0  0  0  0  0
   -3.0990   25.2920  -30.0480 H   0  0  0  0  0  0  0  0  0  0  0  0
   -8.0376   24.9697  -30.9702 H   0  0  0  0  0  0  0  0  0  0  0  0
   -9.8931   22.8587  -31.5004 H   0  0  0  0  0  0  0  0  0  0  0  0
  -10.0332   20.4010  -32.0258 H   0  0  0  0  0  0  0  0  0  0  0  0
   -8.6883   18.1707  -31.6278 H   0  0  0  0  0  0  0  0  0  0  0  0
   -8.2973   18.5136  -33.3593 H   0  0  0  0  0  0  0  0  0  0  0  0
   -5.4781   19.5988  -33.7267 H   0  0  0  0  0  0  0  0  0  0  0  0
   -4.1907   18.4210  -34.1450 H   0  0  0  0  0  0  0  0  0  0  0  0
   -5.6795   20.1419  -31.9739 H   0  0  0  0  0  0  0  0  0  0  0  0
  1  2  1  0
  2  3  1  0
  3  4  1  0
  4  5  1  0
  5  6  1  0
  5  7  1  0
  7  8  2  0
  7  9  1  0
  9 10  1  0
 10 11  1  0
 11 12  1  0
 11 13  2  0
 10 14  2  0
 14 15  1  0
 15 16  2  0
 16 17  1  0
 17 18  2  0
 18 19  1  0
 19 20  1  0
 20 21  2  0
 20 22  1  0
 22 23  1  0
 23 24  1  0
 18 25  1  0
 25 26  2  0
 26  9  1  0
 26 15  1  0
  1 27  1  0
  1 28  1  0
  1 29  1  0
  3 30  1  0
  3 31  1  0
  4 32  1  0
  4 33  1  0
  5 34  1  1
  6 35  1  0
  6 36  1  0
 12 37  1  0
 14 38  1  0
 16 39  1  0
 17 40  1  0
 19 41  1  0
 19 42  1  0
 23 43  1  0
 23 44  1  0
 25 45  1  0
M  CHG  1  12  -1
M  END
>  <UniqueID>  (18) 
18

>  <SMILES>  (18) 
CSCC[C@H](N)C(=O)n1c(C([NH-])=O)cc2ccc(CC(=O)OCF)cc21

>  <Energy>  (18) 
70.4261916987169

>  <Genealogy>  (18) 
CSCC[C@H](N)C(=O)n1c(C([NH-])=O)cc2ccc(CC(=O)OCF)cc21 (protonated)
CSCC[C@H](N)C(=O)n1c(C([NH-])=O)cc2ccc(CC(=O)OCF)cc21 (3D coordinates assigned)
CSCC[C@H](N)C(=O)n1c(C([NH-])=O)cc2ccc(CC(=O)OCF)cc21 (optimized conformer: 70.4261916987169 kcal/mol)

>  <smiles>  (18) 
CSCC[C@H](N)C(=O)n1c(C(N)=O)cc2ccc(CC(=O)OCF)cc21

>  <score_type>  (18) 
oracle

>  <origin>  (18) 
adg

>  <m_score__min__energy>  (18) 
-10.33

>  <m_primary>  (18) 
energy

$$$$
18:0
     RDKit          3D

 30 32  0  0  0  0  0  0  0  0999 V2000
   -5.4240   26.4570  -30.4100 N   0  0  0  0  0  0  0  0  0  0  0  0
   -6.3020   25.4260  -29.9550 C   0  0  0  0  0  0  0  0  0  0  0  0
   -7.0800   25.6580  -28.9920 O   0  0  0  0  0  0  0  0  0  0  0  0
   -6.3610   24.1170  -30.6350 C   0  0  0  0  0  0  0  0  0  0  0  0
   -7.5530   23.4740  -30.9540 C   0  0  0  0  0  0  0  0  0  0  0  0
   -7.1810   22.3320  -31.6240 C   0  0  0  0  0  0  0  0  0  0  0  0
   -7.9660   21.3150  -32.1560 C   0  0  0  0  0  0  0  0  0  0  0  0
   -7.3150   20.2290  -32.7610 C   0  0  0  0  0  0  0  0  0  0  0  0
   -5.8940   20.1660  -32.8180 C   0  0  0  0  0  0  0  0  0  0  0  0
   -5.1810   18.9820  -33.4580 C   0  0  0  0  0  0  0  0  0  0  0  0
   -3.7980   19.0850  -33.4800 F   0  0  0  0  0  0  0  0  0  0  0  0
   -5.7350   18.5270  -34.7910 C   0  0  0  0  0  0  0  0  0  0  0  0
   -6.1360   17.2800  -34.2710 O   0  0  0  0  0  0  0  0  0  0  0  0
   -5.6390   17.6160  -32.9960 C   0  0  0  0  0  0  0  0  0  0  0  0
   -5.1360   21.2220  -32.2590 C   0  0  0  0  0  0  0  0  0  0  0  0
   -5.8110   22.3050  -31.6830 C   0  0  0  0  0  0  0  0  0  0  0  0
   -5.2910   23.3960  -31.0760 N   0  0  0  0  0  0  0  0  0  0  0  0
   -3.8980   23.6680  -30.8410 C   0  0  0  0  0  0  0  0  0  0  0  0
   -3.0460   22.7450  -30.9360 O   0  0  0  0  0  0  0  0  0  0  0  0
   -3.4770   24.9490  -30.5090 O   0  0  0  0  0  0  0  0  0  0  0  0
   -4.8940   26.3580  -31.3040 H   0  0  0  0  0  0  0  0  0  0  0  0
   -5.3680   27.3630  -29.8930 H   0  0  0  0  0  0  0  0  0  0  0  0
   -8.5747   23.8078  -30.7202 H   0  0  0  0  0  0  0  0  0  0  0  0
   -9.0638   21.3604  -32.1042 H   0  0  0  0  0  0  0  0  0  0  0  0
   -7.9115   19.4144  -33.1976 H   0  0  0  0  0  0  0  0  0  0  0  0
   -6.5728   19.1422  -35.1510 H   0  0  0  0  0  0  0  0  0  0  0  0
   -5.0823   18.5509  -35.6761 H   0  0  0  0  0  0  0  0  0  0  0  0
   -6.4160   17.6537  -32.2182 H   0  0  0  0  0  0  0  0  0  0  0  0
   -4.9130   16.9454  -32.5130 H   0  0  0  0  0  0  0  0  0  0  0  0
   -4.0365   21.1926  -32.2766 H   0  0  0  0  0  0  0  0  0  0  0  0
  1  2  1  0
  2  3  2  0
  2  4  1  0
  4  5  2  0
  5  6  1  0
  6  7  2  0
  7  8  1  0
  8  9  2  0
  9 10  1  0
 10 11  1  0
 10 12  1  0
 12 13  1  0
 13 14  1  0
  9 15  1  0
 15 16  2  0
 16 17  1  0
 17 18  1  0
 18 19  2  0
 18 20  1  0
 17  4  1  0
 16  6  1  0
 14 10  1  0
  1 21  1  0
  1 22  1  0
  5 23  1  0
  7 24  1  0
  8 25  1  0
 12 26  1  0
 12 27  1  0
 14 28  1  0
 14 29  1  0
 15 30  1  0
M  CHG  1  20  -1
M  END
>  <UniqueID>  (19) 
19

>  <SMILES>  (19) 
NC(=O)c1cc2ccc(C3(F)COC3)cc2n1C(=O)[O-]

>  <Energy>  (19) 
139.00646630471485

>  <Genealogy>  (19) 
NC(=O)c1cc2ccc(C3(F)COC3)cc2n1C(=O)[O-] (protonated)
NC(=O)c1cc2ccc(C3(F)COC3)cc2n1C(=O)[O-] (3D coordinates assigned)
NC(=O)c1cc2ccc(C3(F)COC3)cc2n1C(=O)[O-] (nonaromatic ring conformer: 139.00646630471485 kcal/mol)

>  <smiles>  (19) 
NC(=O)c1cc2ccc(C3(F)COC3)cc2n1C(=O)O

>  <score_type>  (19) 
oracle

>  <origin>  (19) 
adg

>  <m_score__min__energy>  (19) 
-8.8100000000000005

>  <m_primary>  (19) 
energy

$$$$
19:0
     RDKit          3D

 33 34  0  0  0  0  0  0  0  0999 V2000
   -8.9500   19.4460  -31.6740 C   0  0  0  0  0  0  0  0  0  0  0  0
   -9.3100   20.5520  -32.3310 C   0  0  0  0  0  0  0  0  0  0  0  0
   -9.3680   21.8930  -31.6550 C   0  0  0  0  0  0  0  0  0  0  0  0
   -8.1850   22.6360  -31.9410 O   0  0  0  0  0  0  0  0  0  0  0  0
   -7.1420   22.8020  -31.0230 C   0  0  0  0  0  0  0  0  0  0  0  0
   -7.3880   23.1570  -29.8380 O   0  0  0  0  0  0  0  0  0  0  0  0
   -5.7850   22.5680  -31.4310 N   0  0  0  0  0  0  0  0  0  0  0  0
   -4.6770   23.2740  -31.0710 C   0  0  0  0  0  0  0  0  0  0  0  0
   -4.6680   24.5350  -30.3020 C   0  0  0  0  0  0  0  0  0  0  0  0
   -5.2300   24.6060  -28.9900 N   0  0  0  0  0  0  0  0  0  0  0  0
   -4.2070   25.5800  -30.8340 O   0  0  0  0  0  0  0  0  0  0  0  0
   -3.5260   22.6720  -31.5720 C   0  0  0  0  0  0  0  0  0  0  0  0
   -3.9660   21.5730  -32.2720 C   0  0  0  0  0  0  0  0  0  0  0  0
   -3.2420   20.6020  -32.9580 C   0  0  0  0  0  0  0  0  0  0  0  0
   -3.9550   19.5480  -33.5550 C   0  0  0  0  0  0  0  0  0  0  0  0
   -5.3660   19.4860  -33.4580 C   0  0  0  0  0  0  0  0  0  0  0  0
   -6.1090   18.3280  -34.0530 C   0  0  0  0  0  0  0  0  0  0  0  0
   -6.0660   20.4800  -32.7380 C   0  0  0  0  0  0  0  0  0  0  0  0
   -5.3340   21.5300  -32.1710 C   0  0  0  0  0  0  0  0  0  0  0  0
   -8.9181   18.4801  -32.1993 H   0  0  0  0  0  0  0  0  0  0  0  0
   -8.6855   19.5012  -30.6077 H   0  0  0  0  0  0  0  0  0  0  0  0
   -9.5714   20.4791  -33.3970 H   0  0  0  0  0  0  0  0  0  0  0  0
  -10.2441   22.4480  -32.0217 H   0  0  0  0  0  0  0  0  0  0  0  0
   -9.4473   21.7457  -30.5678 H   0  0  0  0  0  0  0  0  0  0  0  0
   -5.7730   23.8100  -28.5900 H   0  0  0  0  0  0  0  0  0  0  0  0
   -5.1760   25.4960  -28.4450 H   0  0  0  0  0  0  0  0  0  0  0  0
   -2.4862   23.0045  -31.4368 H   0  0  0  0  0  0  0  0  0  0  0  0
   -2.1458   20.6578  -33.0307 H   0  0  0  0  0  0  0  0  0  0  0  0
   -3.4115   18.7640  -34.1027 H   0  0  0  0  0  0  0  0  0  0  0  0
   -6.5130   17.6983  -33.2466 H   0  0  0  0  0  0  0  0  0  0  0  0
   -6.9355   18.7030  -34.6745 H   0  0  0  0  0  0  0  0  0  0  0  0
   -5.4237   17.7330  -34.6745 H   0  0  0  0  0  0  0  0  0  0  0  0
   -7.1591   20.4300  -32.6258 H   0  0  0  0  0  0  0  0  0  0  0  0
  1  2  2  0
  2  3  1  0
  3  4  1  0
  4  5  1  0
  5  6  2  0
  5  7  1  0
  7  8  1  0
  8  9  1  0
  9 10  1  0
  9 11  2  0
  8 12  2  0
 12 13  1  0
 13 14  2  0
 14 15  1  0
 15 16  2  0
 16 17  1  0
 16 18  1  0
 18 19  2  0
 19  7  1  0
 19 13  1  0
  1 20  1  0
  1 21  1  0
  2 22  1  0
  3 23  1  0
  3 24  1  0
 10 25  1  0
 10 26  1  0
 12 27  1  0
 14 28  1  0
 15 29  1  0
 17 30  1  0
 17 31  1  0
 17 32  1  0
 18 33  1  0
M  END
>  <UniqueID>  (20) 
20

>  <SMILES>  (20) 
C=CCOC(=O)n1c(C(N)=O)cc2ccc(C)cc21

>  <Energy>  (20) 
68.25530483432699

>  <Genealogy>  (20) 
C=CCOC(=O)n1c(C(N)=O)cc2ccc(C)cc21 (3D coordinates assigned)
C=CCOC(=O)n1c(C(N)=O)cc2ccc(C)cc21 (optimized conformer: 68.25530483432699 kcal/mol)

>  <smiles>  (20) 
C=CCOC(=O)n1c(C(N)=O)cc2ccc(C)cc21

>  <score_type>  (20) 
oracle

>  <origin>  (20) 
adg

>  <m_score__min__energy>  (20) 
-7.71

>  <m_primary>  (20) 
energy

$$$$
20:0
     RDKit          3D

 70 74  0  0  0  0  0  0  0  0999 V2000
   -0.5030   29.0540  -26.4410 C   0  0  0  0  0  0  0  0  0  0  0  0
   -0.8710   27.6840  -26.5600 O   0  0  0  0  0  0  0  0  0  0  0  0
   -0.9110   26.8160  -25.4660 C   0  0  0  0  0  0  0  0  0  0  0  0
   -1.5690   27.1250  -24.4340 O   0  0  0  0  0  0  0  0  0  0  0  0
   -0.1960   25.5680  -25.5150 N   0  0  0  0  0  0  0  0  0  0  0  0
    0.8960   25.2050  -24.7850 C   0  0  0  0  0  0  0  0  0  0  0  0
    1.6550   26.0780  -23.8660 C   0  0  0  0  0  0  0  0  0  0  0  0
    0.9890   26.9710  -22.9740 N   0  0  0  0  0  0  0  0  0  0  0  0
    2.9130   26.0830  -23.9140 O   0  0  0  0  0  0  0  0  0  0  0  0
    1.2650   23.8920  -25.0680 C   0  0  0  0  0  0  0  0  0  0  0  0
    0.3690   23.4600  -26.0160 C   0  0  0  0  0  0  0  0  0  0  0  0
    0.2750   22.2320  -26.6630 C   0  0  0  0  0  0  0  0  0  0  0  0
   -0.7670   22.0520  -27.5880 C   0  0  0  0  0  0  0  0  0  0  0  0
   -1.7090   23.0880  -27.8360 C   0  0  0  0  0  0  0  0  0  0  0  0
   -2.8380   22.8810  -28.7850 C   0  0  0  0  0  0  0  0  0  0  0  0
   -3.2290   21.5820  -29.1460 C   0  0  0  0  0  0  0  0  0  0  0  0
   -4.2220   21.3740  -30.0990 C   0  0  0  0  0  0  0  0  0  0  0  0
   -4.8570   22.4630  -30.7320 C   0  0  0  0  0  0  0  0  0  0  0  0
   -5.8120   22.2780  -31.7650 C   0  0  0  0  0  0  0  0  0  0  0  0
   -6.0250   20.9600  -32.4130 C   0  0  0  0  0  0  0  0  0  0  0  0
   -5.0990   20.3720  -33.1880 N   0  0  0  0  0  0  0  0  0  0  0  0
   -5.6860   19.2320  -33.6050 C   0  0  0  0  0  0  0  0  0  0  0  0
   -4.9900   18.2600  -34.4500 C   0  0  0  0  0  0  0  0  0  0  0  0
   -5.3670   18.0550  -35.6350 O   0  0  0  0  0  0  0  0  0  0  0  0
   -3.8890   17.5340  -33.9000 N   0  0  0  0  0  0  0  0  0  0  0  0
   -2.7930   18.1430  -33.1600 C   0  0  0  0  0  0  0  0  0  0  0  0
   -2.1540   19.2560  -33.9970 C   0  0  0  0  0  0  0  0  0  0  0  0
   -0.8250   19.7480  -33.3960 C   0  0  0  0  0  0  0  0  0  0  0  0
   -1.0050   21.0770  -32.7720 N   0  0  0  0  0  0  0  0  0  0  0  0
   -0.6590   21.0260  -31.3410 C   0  0  0  0  0  0  0  0  0  0  0  0
   -2.3910   21.5530  -32.9270 C   0  0  0  0  0  0  0  0  0  0  0  0
   -6.9450   19.0660  -33.1440 N   0  0  0  0  0  0  0  0  0  0  0  0
   -7.1540   20.1590  -32.3860 C   0  0  0  0  0  0  0  0  0  0  0  0
   -8.4310   20.4170  -31.6530 C   0  0  0  0  0  0  0  0  0  0  0  0
   -6.4670   23.4060  -32.2830 C   0  0  0  0  0  0  0  0  0  0  0  0
   -6.1700   24.6460  -31.8250 N   0  0  0  0  0  0  0  0  0  0  0  0
   -5.2310   24.8630  -30.8700 C   0  0  0  0  0  0  0  0  0  0  0  0
   -4.9940   26.0440  -30.5010 O   0  0  0  0  0  0  0  0  0  0  0  0
   -4.5350   23.7760  -30.3080 C   0  0  0  0  0  0  0  0  0  0  0  0
   -3.5170   23.9730  -29.3520 C   0  0  0  0  0  0  0  0  0  0  0  0
   -1.5760   24.3200  -27.1510 C   0  0  0  0  0  0  0  0  0  0  0  0
   -0.5070   24.4850  -26.2650 C   0  0  0  0  0  0  0  0  0  0  0  0
   -0.4307   29.3231  -25.3769 H   0  0  0  0  0  0  0  0  0  0  0  0
    0.4704   29.2157  -26.9271 H   0  0  0  0  0  0  0  0  0  0  0  0
   -1.2644   29.6817  -26.9271 H   0  0  0  0  0  0  0  0  0  0  0  0
    1.5390   27.5460  -22.2970 H   0  0  0  0  0  0  0  0  0  0  0  0
   -0.0360   27.1550  -23.0610 H   0  0  0  0  0  0  0  0  0  0  0  0
    2.0963   23.3225  -24.6268 H   0  0  0  0  0  0  0  0  0  0  0  0
    0.9948   21.4263  -26.4566 H   0  0  0  0  0  0  0  0  0  0  0  0
   -0.8553   21.0974  -28.1273 H   0  0  0  0  0  0  0  0  0  0  0  0
   -2.7443   20.7171  -28.6695 H   0  0  0  0  0  0  0  0  0  0  0  0
   -4.5154   20.3470  -30.3619 H   0  0  0  0  0  0  0  0  0  0  0  0
   -3.1783   18.5679  -32.2214 H   0  0  0  0  0  0  0  0  0  0  0  0
   -2.0358   17.3766  -32.9379 H   0  0  0  0  0  0  0  0  0  0  0  0
   -1.9636   18.8720  -35.0101 H   0  0  0  0  0  0  0  0  0  0  0  0
   -2.8511   20.1067  -34.0147 H   0  0  0  0  0  0  0  0  0  0  0  0
   -0.4845   19.0321  -32.6334 H   0  0  0  0  0  0  0  0  0  0  0  0
   -0.0770   19.8277  -34.1985 H   0  0  0  0  0  0  0  0  0  0  0  0
   -1.5696   21.1602  -30.7386 H   0  0  0  0  0  0  0  0  0  0  0  0
   -0.2055   20.0513  -31.1079 H   0  0  0  0  0  0  0  0  0  0  0  0
    0.0564   21.8284  -31.1079 H   0  0  0  0  0  0  0  0  0  0  0  0
   -2.8390   21.7069  -31.9342 H   0  0  0  0  0  0  0  0  0  0  0  0
   -2.3926   22.5032  -33.4812 H   0  0  0  0  0  0  0  0  0  0  0  0
   -2.9760   20.8043  -33.4812 H   0  0  0  0  0  0  0  0  0  0  0  0
   -8.2458   20.3796  -30.5694 H   0  0  0  0  0  0  0  0  0  0  0  0
   -8.8156   21.4110  -31.9251 H   0  0  0  0  0  0  0  0  0  0  0  0
   -9.1713   19.6503  -31.9251 H   0  0  0  0  0  0  0  0  0  0  0  0
   -7.2280   23.2823  -33.0676 H   0  0  0  0  0  0  0  0  0  0  0  0
   -3.2508   24.9955  -29.0460 H   0  0  0  0  0  0  0  0  0  0  0  0
   -2.3001   25.1321  -27.3128 H   0  0  0  0  0  0  0  0  0  0  0  0
  1  2  1  0
  2  3  1  0
  3  4  2  0
  3  5  1  0
  5  6  1  0
  6  7  1  0
  7  8  1  0
  7  9  2  0
  6 10  2  0
 10 11  1  0
 11 12  2  0
 12 13  1  0
 13 14  2  0
 14 15  1  0
 15 16  2  0
 16 17  1  0
 17 18  2  0
 18 19  1  0
 19 20  1  0
 20 21  1  0
 21 22  2  0
 22 23  1  0
 23 24  2  0
 23 25  1  0
 25 26  1  0
 26 27  1  0
 27 28  1  0
 28 29  1  0
 29 30  1  0
 29 31  1  0
 22 32  1  0
 32 33  1  0
 33 34  1  0
 19 35  2  0
 35 36  1  0
 36 37  1  0
 37 38  2  0
 37 39  1  0
 39 40  2  0
 14 41  1  0
 41 42  2  0
 42  5  1  0
 42 11  1  0
 40 15  1  0
 39 18  1  0
 33 20  2  0
  1 43  1  0
  1 44  1  0
  1 45  1  0
  8 46  1  0
  8 47  1  0
 10 48  1  0
 12 49  1  0
 13 50  1  0
 16 51  1  0
 17 52  1  0
 26 53  1  0
 26 54  1  0
 27 55  1  0
 27 56  1  0
 28 57  1  0
 28 58  1  0
 30 59  1  0
 30 60  1  0
 30 61  1  0
 31 62  1  0
 31 63  1  0
 31 64  1  0
 34 65  1  0
 34 66  1  0
 34 67  1  0
 35 68  1  0
 40 69  1  0
 41 70  1  0
M  CHG  3  25  -1  32  -1  36  -1
M  END
>  <UniqueID>  (21) 
21

>  <SMILES>  (21) 
COC(=O)n1c(C(N)=O)cc2ccc(-c3ccc4c(-c5nc(C(=O)[N-]CCCN(C)C)[n-]c5C)c[n-]c(=O)c4c3)cc21

>  <Energy>  (21) 
151.61103788167176

>  <Genealogy>  (21) 
COC(=O)n1c(C(N)=O)cc2ccc(-c3ccc4c(-c5nc(C(=O)[N-]CCCN(C)C)[n-]c5C)c[n-]c(=O)c4c3)cc21 (protonated)
COC(=O)n1c(C(N)=O)cc2ccc(-c3ccc4c(-c5nc(C(=O)[N-]CCCN(C)C)[n-]c5C)c[n-]c(=O)c4c3)cc21 (3D coordinates assigned)
COC(=O)n1c(C(N)=O)cc2ccc(-c3ccc4c(-c5nc(C(=O)[N-]CCCN(C)C)[n-]c5C)c[n-]c(=O)c4c3)cc21 (optimized conformer: 151.61103788167176 kcal/mol)

>  <smiles>  (21) 
COC(=O)n1c(C(N)=O)cc2ccc(-c3ccc4c(-c5nc(C(=O)NCCCN(C)C)[nH]c5C)c[nH]c(=O)c4c3)cc21

>  <score_type>  (21) 
oracle

>  <origin>  (21) 
adg

>  <m_score__min__energy>  (21) 
-10.84

>  <m_primary>  (21) 
energy

$$$$
21:0
     RDKit          3D

 38 40  0  0  0  0  0  0  0  0999 V2000
   -1.7270   21.1050  -32.1480 C   0  0  0  0  0  0  0  0  0  0  0  0
   -2.7400   21.9340  -32.3910 C   0  0  0  0  0  0  0  0  0  0  0  0
   -3.4600   22.6440  -31.3170 C   0  0  0  0  0  0  0  0  0  0  0  0
   -2.8260   23.1550  -30.3520 O   0  0  0  0  0  0  0  0  0  0  0  0
   -4.8850   22.8030  -31.3890 N   0  0  0  0  0  0  0  0  0  0  0  0
   -5.6410   23.8400  -30.9310 C   0  0  0  0  0  0  0  0  0  0  0  0
   -5.1270   25.1170  -30.3930 C   0  0  0  0  0  0  0  0  0  0  0  0
   -3.8830   25.6510  -30.8380 N   0  0  0  0  0  0  0  0  0  0  0  0
   -5.8160   25.7660  -29.5610 O   0  0  0  0  0  0  0  0  0  0  0  0
   -6.9970   23.5730  -31.1130 C   0  0  0  0  0  0  0  0  0  0  0  0
   -7.0470   22.3340  -31.7110 C   0  0  0  0  0  0  0  0  0  0  0  0
   -8.1410   21.5770  -32.1180 C   0  0  0  0  0  0  0  0  0  0  0  0
   -7.8960   20.3190  -32.6940 C   0  0  0  0  0  0  0  0  0  0  0  0
   -6.5700   19.8380  -32.8470 C   0  0  0  0  0  0  0  0  0  0  0  0
   -6.3230   18.5470  -33.4340 N   0  0  0  0  0  0  0  0  0  0  0  0
   -5.7470   18.4430  -34.7780 C   0  0  0  0  0  0  0  0  0  0  0  0
   -4.9680   17.1300  -34.9050 C   0  0  0  0  0  0  0  0  0  0  0  0
   -5.7720   16.0290  -34.5240 O   0  0  0  0  0  0  0  0  0  0  0  0
   -6.0930   16.1230  -33.1500 C   0  0  0  0  0  0  0  0  0  0  0  0
   -6.9660   17.3530  -32.8790 C   0  0  0  0  0  0  0  0  0  0  0  0
   -5.4840   20.6400  -32.4270 C   0  0  0  0  0  0  0  0  0  0  0  0
   -5.7600   21.8920  -31.8680 C   0  0  0  0  0  0  0  0  0  0  0  0
   -1.2197   20.5973  -32.9816 H   0  0  0  0  0  0  0  0  0  0  0  0
   -1.3973   20.9278  -31.1136 H   0  0  0  0  0  0  0  0  0  0  0  0
   -3.0522   22.0958  -33.4333 H   0  0  0  0  0  0  0  0  0  0  0  0
   -2.9790   25.2970  -30.4560 H   0  0  0  0  0  0  0  0  0  0  0  0
   -7.8463   24.2155  -30.8375 H   0  0  0  0  0  0  0  0  0  0  0  0
   -9.1674   21.9522  -31.9926 H   0  0  0  0  0  0  0  0  0  0  0  0
   -8.7413   19.7004  -33.0299 H   0  0  0  0  0  0  0  0  0  0  0  0
   -6.5546   18.4628  -35.5246 H   0  0  0  0  0  0  0  0  0  0  0  0
   -5.0654   19.2893  -34.9490 H   0  0  0  0  0  0  0  0  0  0  0  0
   -4.6495   16.9994  -35.9497 H   0  0  0  0  0  0  0  0  0  0  0  0
   -4.0927   17.1739  -34.2402 H   0  0  0  0  0  0  0  0  0  0  0  0
   -6.6392   15.2184  -32.8444 H   0  0  0  0  0  0  0  0  0  0  0  0
   -5.1600   16.2188  -32.5753 H   0  0  0  0  0  0  0  0  0  0  0  0
   -7.9497   17.2145  -33.3514 H   0  0  0  0  0  0  0  0  0  0  0  0
   -7.0919   17.4783  -31.7934 H   0  0  0  0  0  0  0  0  0  0  0  0
   -4.4477   20.2880  -32.5371 H   0  0  0  0  0  0  0  0  0  0  0  0
  1  2  2  0
  2  3  1  0
  3  4  2  0
  3  5  1  0
  5  6  1  0
  6  7  1  0
  7  8  1  0
  7  9  2  0
  6 10  2  0
 10 11  1  0
 11 12  2  0
 12 13  1  0
 13 14  2  0
 14 15  1  0
 15 16  1  0
 16 17  1  0
 17 18  1  0
 18 19  1  0
 19 20  1  0
 14 21  1  0
 21 22  2  0
 22  5  1  0
 22 11  1  0
 20 15  1  0
  1 23  1  0
  1 24  1  0
  2 25  1  0
  8 26  1  0
 10 27  1  0
 12 28  1  0
 13 29  1  0
 16 30  1  0
 16 31  1  0
 17 32  1  0
 17 33  1  0
 19 34  1  0
 19 35  1  0
 20 36  1  0
 20 37  1  0
 21 38  1  0
M  CHG  1   8  -1
M  END
>  <UniqueID>  (22) 
22

>  <SMILES>  (22) 
C=CC(=O)n1c(C([NH-])=O)cc2ccc(N3CCOCC3)cc21

>  <Energy>  (22) 
83.24254505367051

>  <Genealogy>  (22) 
C=CC(=O)n1c(C([NH-])=O)cc2ccc(N3CCOCC3)cc21 (protonated)
C=CC(=O)n1c(C([NH-])=O)cc2ccc(N3CCOCC3)cc21 (3D coordinates assigned)
C=CC(=O)n1c(C([NH-])=O)cc2ccc(N3CCOCC3)cc21 (nonaromatic ring conformer: 83.24254505367051 kcal/mol)

>  <smiles>  (22) 
C=CC(=O)n1c(C(N)=O)cc2ccc(N3CCOCC3)cc21

>  <score_type>  (22) 
oracle

>  <origin>  (22) 
adg

>  <m_score__min__energy>  (22) 
-10.41

>  <m_primary>  (22) 
energy

$$$$
22:0
     RDKit          3D

 28 29  0  0  0  0  0  0  0  0999 V2000
   -1.7930   21.3350  -32.2650 C   0  0  0  0  0  0  0  0  0  0  0  0
   -3.0450   21.9950  -32.3990 O   0  0  0  0  0  0  0  0  0  0  0  0
   -3.6530   22.6800  -31.3430 C   0  0  0  0  0  0  0  0  0  0  0  0
   -2.9600   23.1040  -30.3780 O   0  0  0  0  0  0  0  0  0  0  0  0
   -5.0750   22.8800  -31.3480 N   0  0  0  0  0  0  0  0  0  0  0  0
   -5.7700   23.9650  -30.9000 C   0  0  0  0  0  0  0  0  0  0  0  0
   -5.1880   25.2490  -30.4540 C   0  0  0  0  0  0  0  0  0  0  0  0
   -3.8730   25.6330  -30.8470 N   0  0  0  0  0  0  0  0  0  0  0  0
   -5.8800   26.0390  -29.7590 O   0  0  0  0  0  0  0  0  0  0  0  0
   -7.1420   23.7380  -30.9920 C   0  0  0  0  0  0  0  0  0  0  0  0
   -7.2680   22.4740  -31.5230 C   0  0  0  0  0  0  0  0  0  0  0  0
   -8.4100   21.7330  -31.8060 C   0  0  0  0  0  0  0  0  0  0  0  0
   -8.2440   20.4350  -32.3160 C   0  0  0  0  0  0  0  0  0  0  0  0
   -6.9470   19.9050  -32.5420 C   0  0  0  0  0  0  0  0  0  0  0  0
   -6.7820   18.4880  -33.0290 C   0  0  0  0  0  0  0  0  0  0  0  0
   -6.4140   18.5050  -34.3620 F   0  0  0  0  0  0  0  0  0  0  0  0
   -7.9680   17.7840  -32.8990 F   0  0  0  0  0  0  0  0  0  0  0  0
   -5.8070   17.8300  -32.3000 F   0  0  0  0  0  0  0  0  0  0  0  0
   -5.8110   20.6810  -32.2180 C   0  0  0  0  0  0  0  0  0  0  0  0
   -6.0070   21.9790  -31.7290 C   0  0  0  0  0  0  0  0  0  0  0  0
   -1.5566   21.2104  -31.1980 H   0  0  0  0  0  0  0  0  0  0  0  0
   -1.8457   20.3475  -32.7467 H   0  0  0  0  0  0  0  0  0  0  0  0
   -1.0080   21.9365  -32.7467 H   0  0  0  0  0  0  0  0  0  0  0  0
   -3.0350   25.2620  -30.3470 H   0  0  0  0  0  0  0  0  0  0  0  0
   -7.9522   24.4232  -30.7020 H   0  0  0  0  0  0  0  0  0  0  0  0
   -9.4132   22.1508  -31.6356 H   0  0  0  0  0  0  0  0  0  0  0  0
   -9.1290   19.8224  -32.5428 H   0  0  0  0  0  0  0  0  0  0  0  0
   -4.7967   20.2752  -32.3468 H   0  0  0  0  0  0  0  0  0  0  0  0
  1  2  1  0
  2  3  1  0
  3  4  2  0
  3  5  1  0
  5  6  1  0
  6  7  1  0
  7  8  1  0
  7  9  2  0
  6 10  2  0
 10 11  1  0
 11 12  2  0
 12 13  1  0
 13 14  2  0
 14 15  1  0
 15 16  1  0
 15 17  1  0
 15 18  1  0
 14 19  1  0
 19 20  2  0
 20  5  1  0
 20 11  1  0
  1 21  1  0
  1 22  1  0
  1 23  1  0
  8 24  1  0
 10 25  1  0
 12 26  1  0
 13 27  1  0
 19 28  1  0
M  CHG  1   8  -1
M  END
>  <UniqueID>  (23) 
23

>  <SMILES>  (23) 
COC(=O)n1c(C([NH-])=O)cc2ccc(C(F)(F)F)cc21

>  <Energy>  (23) 
66.3261278688627

>  <Genealogy>  (23) 
COC(=O)n1c(C([NH-])=O)cc2ccc(C(F)(F)F)cc21 (protonated)
COC(=O)n1c(C([NH-])=O)cc2ccc(C(F)(F)F)cc21 (3D coordinates assigned)
COC(=O)n1c(C([NH-])=O)cc2ccc(C(F)(F)F)cc21 (optimized conformer: 66.3261278688627 kcal/mol)

>  <smiles>  (23) 
COC(=O)n1c(C(N)=O)cc2ccc(C(F)(F)F)cc21

>  <score_type>  (23) 
oracle

>  <origin>  (23) 
adg

>  <m_score__min__energy>  (23) 
-8.8200000000000003

>  <m_primary>  (23) 
energy

$$$$
23:0
     RDKit          3D

 28 29  0  0  0  0  0  0  0  0999 V2000
   -2.2680   20.8110  -32.1950 C   0  0  0  0  0  0  0  0  0  0  0  0
   -2.9500   22.0900  -32.3250 N   0  0  0  0  0  0  0  0  0  0  0  0
   -3.6250   22.7210  -31.2340 C   0  0  0  0  0  0  0  0  0  0  0  0
   -2.9690   23.1320  -30.2380 O   0  0  0  0  0  0  0  0  0  0  0  0
   -5.0470   22.9160  -31.2850 N   0  0  0  0  0  0  0  0  0  0  0  0
   -5.7570   24.0100  -30.8860 C   0  0  0  0  0  0  0  0  0  0  0  0
   -5.1860   25.3030  -30.4540 C   0  0  0  0  0  0  0  0  0  0  0  0
   -3.8620   25.6590  -30.8470 N   0  0  0  0  0  0  0  0  0  0  0  0
   -5.8400   26.0800  -29.7100 O   0  0  0  0  0  0  0  0  0  0  0  0
   -7.1240   23.7820  -31.0240 C   0  0  0  0  0  0  0  0  0  0  0  0
   -7.2320   22.5070  -31.5300 C   0  0  0  0  0  0  0  0  0  0  0  0
   -8.3640   21.7700  -31.8650 C   0  0  0  0  0  0  0  0  0  0  0  0
   -8.1800   20.4660  -32.3540 C   0  0  0  0  0  0  0  0  0  0  0  0
   -6.8780   19.9140  -32.4770 C   0  0  0  0  0  0  0  0  0  0  0  0
   -6.6920   18.5270  -33.0390 C   0  0  0  0  0  0  0  0  0  0  0  0
   -7.9040   17.8630  -33.0220 F   0  0  0  0  0  0  0  0  0  0  0  0
   -6.2280   18.5860  -34.3420 F   0  0  0  0  0  0  0  0  0  0  0  0
   -5.7750   17.8130  -32.2860 F   0  0  0  0  0  0  0  0  0  0  0  0
   -5.7520   20.7050  -32.1490 C   0  0  0  0  0  0  0  0  0  0  0  0
   -5.9650   22.0060  -31.6800 C   0  0  0  0  0  0  0  0  0  0  0  0
   -2.1398   20.5705  -31.1293 H   0  0  0  0  0  0  0  0  0  0  0  0
   -2.8669   20.0253  -32.6787 H   0  0  0  0  0  0  0  0  0  0  0  0
   -1.2819   20.8705  -32.6787 H   0  0  0  0  0  0  0  0  0  0  0  0
   -3.0320   25.2910  -30.3320 H   0  0  0  0  0  0  0  0  0  0  0  0
   -7.9434   24.4742  -30.7802 H   0  0  0  0  0  0  0  0  0  0  0  0
   -9.3719   22.1955  -31.7504 H   0  0  0  0  0  0  0  0  0  0  0  0
   -9.0548   19.8659  -32.6449 H   0  0  0  0  0  0  0  0  0  0  0  0
   -4.7327   20.3066  -32.2601 H   0  0  0  0  0  0  0  0  0  0  0  0
  1  2  1  0
  2  3  1  0
  3  4  2  0
  3  5  1  0
  5  6  1  0
  6  7  1  0
  7  8  1  0
  7  9  2  0
  6 10  2  0
 10 11  1  0
 11 12  2  0
 12 13  1  0
 13 14  2  0
 14 15  1  0
 15 16  1  0
 15 17  1  0
 15 18  1  0
 14 19  1  0
 19 20  2  0
 20  5  1  0
 20 11  1  0
  1 21  1  0
  1 22  1  0
  1 23  1  0
  8 24  1  0
 10 25  1  0
 12 26  1  0
 13 27  1  0
 19 28  1  0
M  CHG  2   2  -1   8  -1
M  END
>  <UniqueID>  (24) 
24

>  <SMILES>  (24) 
C[N-]C(=O)n1c(C([NH-])=O)cc2ccc(C(F)(F)F)cc21

>  <Energy>  (24) 
65.77274562170619

>  <Genealogy>  (24) 
C[N-]C(=O)n1c(C([NH-])=O)cc2ccc(C(F)(F)F)cc21 (protonated)
C[N-]C(=O)n1c(C([NH-])=O)cc2ccc(C(F)(F)F)cc21 (3D coordinates assigned)
C[N-]C(=O)n1c(C([NH-])=O)cc2ccc(C(F)(F)F)cc21 (optimized conformer: 65.77274562170619 kcal/mol)

>  <smiles>  (24) 
CNC(=O)n1c(C(N)=O)cc2ccc(C(F)(F)F)cc21

>  <score_type>  (24) 
oracle

>  <origin>  (24) 
adg

>  <m_score__min__energy>  (24) 
-9.4000000000000004

>  <m_primary>  (24) 
energy

$$$$
24:0
     RDKit          3D

 38 39  0  0  0  0  0  0  0  0999 V2000
   -8.9960   18.8780  -31.9120 C   0  0  0  0  0  0  0  0  0  0  0  0
   -7.6860   18.8540  -32.5700 N   0  0  0  0  0  0  0  0  0  0  0  0
   -7.1130   17.5550  -32.9560 C   0  0  0  0  0  0  0  0  0  0  0  0
   -6.0860   17.0860  -31.9250 C   0  0  0  0  0  0  0  0  0  0  0  0
   -6.0990   17.9130  -30.8170 F   0  0  0  0  0  0  0  0  0  0  0  0
   -4.8230   17.1030  -32.4890 F   0  0  0  0  0  0  0  0  0  0  0  0
   -6.9880   20.1040  -32.7770 C   0  0  0  0  0  0  0  0  0  0  0  0
   -7.4950   21.1740  -32.3330 O   0  0  0  0  0  0  0  0  0  0  0  0
   -5.6980   20.1760  -33.5640 C   0  0  0  0  0  0  0  0  0  0  0  0
   -4.5360   20.6260  -32.7160 C   0  0  0  0  0  0  0  0  0  0  0  0
   -3.4440   19.7510  -32.4930 C   0  0  0  0  0  0  0  0  0  0  0  0
   -2.3750   20.1380  -31.6680 C   0  0  0  0  0  0  0  0  0  0  0  0
   -2.4250   21.3990  -31.0830 C   0  0  0  0  0  0  0  0  0  0  0  0
   -1.5470   22.0060  -30.2160 C   0  0  0  0  0  0  0  0  0  0  0  0
   -2.1060   23.2500  -29.9360 C   0  0  0  0  0  0  0  0  0  0  0  0
   -1.4480   24.2610  -29.0850 C   0  0  0  0  0  0  0  0  0  0  0  0
   -2.1990   25.3010  -28.4580 N   0  0  0  0  0  0  0  0  0  0  0  0
   -0.1950   24.2400  -28.9560 O   0  0  0  0  0  0  0  0  0  0  0  0
   -3.2900   23.4050  -30.5910 N   0  0  0  0  0  0  0  0  0  0  0  0
   -4.2210   24.4940  -30.4620 C   0  0  0  0  0  0  0  0  0  0  0  0
   -3.8660   25.6730  -30.7240 O   0  0  0  0  0  0  0  0  0  0  0  0
   -5.5270   24.2550  -30.0510 O   0  0  0  0  0  0  0  0  0  0  0  0
   -3.4710   22.2630  -31.2940 C   0  0  0  0  0  0  0  0  0  0  0  0
   -4.5590   21.8940  -32.0950 C   0  0  0  0  0  0  0  0  0  0  0  0
   -8.8583   18.8755  -30.8207 H   0  0  0  0  0  0  0  0  0  0  0  0
   -9.5398   19.7863  -32.2108 H   0  0  0  0  0  0  0  0  0  0  0  0
   -9.5727   17.9903  -32.2108 H   0  0  0  0  0  0  0  0  0  0  0  0
   -7.9203   16.8110  -33.0249 H   0  0  0  0  0  0  0  0  0  0  0  0
   -6.6106   17.6665  -33.9282 H   0  0  0  0  0  0  0  0  0  0  0  0
   -6.3445   16.0636  -31.6121 H   0  0  0  0  0  0  0  0  0  0  0  0
   -5.4747   19.1782  -33.9696 H   0  0  0  0  0  0  0  0  0  0  0  0
   -5.8345   20.9145  -34.3677 H   0  0  0  0  0  0  0  0  0  0  0  0
   -3.4333   18.7599  -32.9701 H   0  0  0  0  0  0  0  0  0  0  0  0
   -1.5240   19.4642  -31.4899 H   0  0  0  0  0  0  0  0  0  0  0  0
   -0.6036   21.5959  -29.8265 H   0  0  0  0  0  0  0  0  0  0  0  0
   -1.7220   25.9860  -27.8300 H   0  0  0  0  0  0  0  0  0  0  0  0
   -3.2100   25.4420  -28.6770 H   0  0  0  0  0  0  0  0  0  0  0  0
   -5.4108   22.5754  -32.2369 H   0  0  0  0  0  0  0  0  0  0  0  0
  1  2  1  0
  2  3  1  0
  3  4  1  0
  4  5  1  0
  4  6  1  0
  2  7  1  0
  7  8  2  0
  7  9  1  0
  9 10  1  0
 10 11  2  0
 11 12  1  0
 12 13  2  0
 13 14  1  0
 14 15  2  0
 15 16  1  0
 16 17  1  0
 16 18  2  0
 15 19  1  0
 19 20  1  0
 20 21  2  0
 20 22  1  0
 19 23  1  0
 23 24  2  0
 24 10  1  0
 23 13  1  0
  1 25  1  0
  1 26  1  0
  1 27  1  0
  3 28  1  0
  3 29  1  0
  4 30  1  0
  9 31  1  0
  9 32  1  0
 11 33  1  0
 12 34  1  0
 14 35  1  0
 17 36  1  0
 17 37  1  0
 24 38  1  0
M  CHG  1  22  -1
M  END
>  <UniqueID>  (25) 
25

>  <SMILES>  (25) 
CN(CC(F)F)C(=O)Cc1ccc2cc(C(N)=O)n(C(=O)[O-])c2c1

>  <Energy>  (25) 
74.75542961048771

>  <Genealogy>  (25) 
CN(CC(F)F)C(=O)Cc1ccc2cc(C(N)=O)n(C(=O)[O-])c2c1 (protonated)
CN(CC(F)F)C(=O)Cc1ccc2cc(C(N)=O)n(C(=O)[O-])c2c1 (3D coordinates assigned)
CN(CC(F)F)C(=O)Cc1ccc2cc(C(N)=O)n(C(=O)[O-])c2c1 (optimized conformer: 74.75542961048771 kcal/mol)

>  <smiles>  (25) 
CN(CC(F)F)C(=O)Cc1ccc2cc(C(N)=O)n(C(=O)O)c2c1

>  <score_type>  (25) 
oracle

>  <origin>  (25) 
adg

>  <m_score__min__energy>  (25) 
-8.4700000000000006

>  <m_primary>  (25) 
energy

$$$$
25:0
     RDKit          3D

 28 29  0  0  0  0  0  0  0  0999 V2000
   -1.6260   25.6630  -28.9640 N   0  0  0  0  0  0  0  0  0  0  0  0
   -1.0370   24.3820  -29.1760 C   0  0  0  0  0  0  0  0  0  0  0  0
    0.0890   24.1300  -28.6740 O   0  0  0  0  0  0  0  0  0  0  0  0
   -1.7330   23.3830  -30.0150 C   0  0  0  0  0  0  0  0  0  0  0  0
   -1.1250   22.2220  -30.4860 C   0  0  0  0  0  0  0  0  0  0  0  0
   -2.1180   21.5280  -31.1380 C   0  0  0  0  0  0  0  0  0  0  0  0
   -2.0670   20.3110  -31.8100 C   0  0  0  0  0  0  0  0  0  0  0  0
   -3.2430   19.8450  -32.4210 C   0  0  0  0  0  0  0  0  0  0  0  0
   -4.4410   20.5990  -32.3500 C   0  0  0  0  0  0  0  0  0  0  0  0
   -5.6840   20.1120  -33.0460 C   0  0  0  0  0  0  0  0  0  0  0  0
   -5.4200   18.8200  -33.8250 C   0  0  0  0  0  0  0  0  0  0  0  0
   -5.9770   18.8930  -35.1100 O   0  0  0  0  0  0  0  0  0  0  0  0
   -4.4520   21.8360  -31.6670 C   0  0  0  0  0  0  0  0  0  0  0  0
   -3.2710   22.2670  -31.0530 C   0  0  0  0  0  0  0  0  0  0  0  0
   -3.0500   23.4120  -30.3680 N   0  0  0  0  0  0  0  0  0  0  0  0
   -3.9980   24.4680  -30.1400 C   0  0  0  0  0  0  0  0  0  0  0  0
   -4.9550   24.3000  -29.3390 O   0  0  0  0  0  0  0  0  0  0  0  0
   -3.8840   25.6740  -30.8200 O   0  0  0  0  0  0  0  0  0  0  0  0
   -2.6610   25.7930  -29.0220 H   0  0  0  0  0  0  0  0  0  0  0  0
   -0.0736   21.9232  -30.3628 H   0  0  0  0  0  0  0  0  0  0  0  0
   -1.1338   19.7310  -31.8614 H   0  0  0  0  0  0  0  0  0  0  0  0
   -3.2340   18.8859  -32.9596 H   0  0  0  0  0  0  0  0  0  0  0  0
   -6.4643   19.9231  -32.2940 H   0  0  0  0  0  0  0  0  0  0  0  0
   -6.0067   20.8854  -33.7585 H   0  0  0  0  0  0  0  0  0  0  0  0
   -4.3343   18.6653  -33.9104 H   0  0  0  0  0  0  0  0  0  0  0  0
   -5.8839   17.9810  -33.2857 H   0  0  0  0  0  0  0  0  0  0  0  0
   -6.8790   19.2970  -35.0090 H   0  0  0  0  0  0  0  0  0  0  0  0
   -5.3667   22.4452  -31.6192 H   0  0  0  0  0  0  0  0  0  0  0  0
  1  2  1  0
  2  3  2  0
  2  4  1  0
  4  5  2  0
  5  6  1  0
  6  7  2  0
  7  8  1  0
  8  9  2  0
  9 10  1  0
 10 11  1  0
 11 12  1  0
  9 13  1  0
 13 14  2  0
 14 15  1  0
 15 16  1  0
 16 17  2  0
 16 18  1  0
 15  4  1  0
 14  6  1  0
  1 19  1  0
  5 20  1  0
  7 21  1  0
  8 22  1  0
 10 23  1  0
 10 24  1  0
 11 25  1  0
 11 26  1  0
 12 27  1  0
 13 28  1  0
M  CHG  2   1  -1  18  -1
M  END
>  <UniqueID>  (26) 
26

>  <SMILES>  (26) 
[NH-]C(=O)c1cc2ccc(CCO)cc2n1C(=O)[O-]

>  <Energy>  (26) 
65.095186779228

>  <Genealogy>  (26) 
[NH-]C(=O)c1cc2ccc(CCO)cc2n1C(=O)[O-] (protonated)
[NH-]C(=O)c1cc2ccc(CCO)cc2n1C(=O)[O-] (3D coordinates assigned)
[NH-]C(=O)c1cc2ccc(CCO)cc2n1C(=O)[O-] (optimized conformer: 65.095186779228 kcal/mol)

>  <smiles>  (26) 
NC(=O)c1cc2ccc(CCO)cc2n1C(=O)O

>  <score_type>  (26) 
oracle

>  <origin>  (26) 
adg

>  <m_score__min__energy>  (26) 
-10.029999999999999

>  <m_primary>  (26) 
energy

$$$$
26:0
     RDKit          3D

 34 36  0  0  0  0  0  0  0  0999 V2000
   -1.5830   26.0160  -28.9210 N   0  0  0  0  0  0  0  0  0  0  0  0
   -0.8690   24.7830  -28.9500 C   0  0  0  0  0  0  0  0  0  0  0  0
    0.1890   24.6670  -28.2760 O   0  0  0  0  0  0  0  0  0  0  0  0
   -1.3850   23.6240  -29.7080 C   0  0  0  0  0  0  0  0  0  0  0  0
   -0.5910   22.5440  -30.0860 C   0  0  0  0  0  0  0  0  0  0  0  0
   -1.4510   21.6490  -30.6800 C   0  0  0  0  0  0  0  0  0  0  0  0
   -1.1950   20.4080  -31.2510 C   0  0  0  0  0  0  0  0  0  0  0  0
   -2.2720   19.7100  -31.8220 C   0  0  0  0  0  0  0  0  0  0  0  0
   -3.5800   20.2640  -31.8220 C   0  0  0  0  0  0  0  0  0  0  0  0
   -4.7110   19.5260  -32.4360 C   0  0  0  0  0  0  0  0  0  0  0  0
   -4.4840   18.6390  -33.5000 C   0  0  0  0  0  0  0  0  0  0  0  0
   -5.5600   17.9730  -34.0830 C   0  0  0  0  0  0  0  0  0  0  0  0
   -6.8510   18.1810  -33.6010 C   0  0  0  0  0  0  0  0  0  0  0  0
   -7.0540   19.0490  -32.5190 C   0  0  0  0  0  0  0  0  0  0  0  0
   -8.4480   19.3180  -32.0100 C   0  0  0  0  0  0  0  0  0  0  0  0
   -8.9330   18.2170  -31.3260 F   0  0  0  0  0  0  0  0  0  0  0  0
   -8.4180   20.4020  -31.1530 F   0  0  0  0  0  0  0  0  0  0  0  0
   -9.3120   19.5930  -33.0570 F   0  0  0  0  0  0  0  0  0  0  0  0
   -5.9870   19.7140  -31.9800 N   0  0  0  0  0  0  0  0  0  0  0  0
   -3.7970   21.5310  -31.2310 C   0  0  0  0  0  0  0  0  0  0  0  0
   -2.7090   22.1950  -30.6530 C   0  0  0  0  0  0  0  0  0  0  0  0
   -2.6840   23.4100  -30.0620 N   0  0  0  0  0  0  0  0  0  0  0  0
   -3.7900   24.3190  -29.9330 C   0  0  0  0  0  0  0  0  0  0  0  0
   -3.8420   25.3600  -30.6390 O   0  0  0  0  0  0  0  0  0  0  0  0
   -4.7970   24.0730  -29.0100 O   0  0  0  0  0  0  0  0  0  0  0  0
   -2.6260   26.0350  -28.9640 H   0  0  0  0  0  0  0  0  0  0  0  0
    0.4934   22.4305  -29.9406 H   0  0  0  0  0  0  0  0  0  0  0  0
   -0.1795   19.9851  -31.2556 H   0  0  0  0  0  0  0  0  0  0  0  0
   -2.1004   18.7223  -32.2747 H   0  0  0  0  0  0  0  0  0  0  0  0
   -3.4624   18.4707  -33.8714 H   0  0  0  0  0  0  0  0  0  0  0  0
   -5.3906   17.2835  -34.9232 H   0  0  0  0  0  0  0  0  0  0  0  0
   -7.7051   17.6674  -34.0665 H   0  0  0  0  0  0  0  0  0  0  0  0
   -6.1510   20.3710  -31.1850 H   0  0  0  0  0  0  0  0  0  0  0  0
   -4.7992   21.9844  -31.2259 H   0  0  0  0  0  0  0  0  0  0  0  0
  1  2  1  0
  2  3  2  0
  2  4  1  0
  4  5  2  0
  5  6  1  0
  6  7  2  0
  7  8  1  0
  8  9  2  0
  9 10  1  0
 10 11  2  0
 11 12  1  0
 12 13  2  0
 13 14  1  0
 14 15  1  0
 15 16  1  0
 15 17  1  0
 15 18  1  0
 14 19  2  0
  9 20  1  0
 20 21  2  0
 21 22  1  0
 22 23  1  0
 23 24  2  0
 23 25  1  0
 22  4  1  0
 21  6  1  0
 19 10  1  0
  1 26  1  0
  5 27  1  0
  7 28  1  0
  8 29  1  0
 11 30  1  0
 12 31  1  0
 13 32  1  0
 19 33  1  0
 20 34  1  0
M  CHG  3   1  -1  19   1  25  -1
M  END
>  <UniqueID>  (27) 
27

>  <SMILES>  (27) 
[NH-]C(=O)c1cc2ccc(-c3cccc(C(F)(F)F)[nH+]3)cc2n1C(=O)[O-]

>  <Energy>  (27) 
82.23006465735192

>  <Genealogy>  (27) 
[NH-]C(=O)c1cc2ccc(-c3cccc(C(F)(F)F)[nH+]3)cc2n1C(=O)[O-] (protonated)
[NH-]C(=O)c1cc2ccc(-c3cccc(C(F)(F)F)[nH+]3)cc2n1C(=O)[O-] (3D coordinates assigned)
[NH-]C(=O)c1cc2ccc(-c3cccc(C(F)(F)F)[nH+]3)cc2n1C(=O)[O-] (optimized conformer: 82.23006465735192 kcal/mol)

>  <smiles>  (27) 
NC(=O)c1cc2ccc(-c3cccc(C(F)(F)F)n3)cc2n1C(=O)O

>  <score_type>  (27) 
oracle

>  <origin>  (27) 
adg

>  <m_score__min__energy>  (27) 
-10.83

>  <m_primary>  (27) 
energy

$$$$
27:0
     RDKit          3D

 48 51  0  0  0  0  0  0  0  0999 V2000
   -3.2830   21.8590  -29.3300 C   0  0  0  0  0  0  0  0  0  0  0  0
   -3.5810   22.6290  -30.5770 C   0  0  0  0  0  0  0  0  0  0  0  0
   -2.6260   23.0770  -31.2670 O   0  0  0  0  0  0  0  0  0  0  0  0
   -4.9320   22.8050  -31.0310 N   0  0  0  0  0  0  0  0  0  0  0  0
   -5.6950   23.9350  -30.9900 C   0  0  0  0  0  0  0  0  0  0  0  0
   -5.2310   25.2760  -30.5810 C   0  0  0  0  0  0  0  0  0  0  0  0
   -3.8830   25.6690  -30.8330 N   0  0  0  0  0  0  0  0  0  0  0  0
   -6.0030   26.0690  -29.9820 O   0  0  0  0  0  0  0  0  0  0  0  0
   -6.9750   23.6740  -31.4730 C   0  0  0  0  0  0  0  0  0  0  0  0
   -6.9700   22.3430  -31.8220 C   0  0  0  0  0  0  0  0  0  0  0  0
   -7.9830   21.5510  -32.3540 C   0  0  0  0  0  0  0  0  0  0  0  0
   -7.7000   20.1970  -32.6010 C   0  0  0  0  0  0  0  0  0  0  0  0
   -6.4180   19.6560  -32.3120 C   0  0  0  0  0  0  0  0  0  0  0  0
   -6.1320   18.2230  -32.5710 C   0  0  0  0  0  0  0  0  0  0  0  0
   -6.1450   17.7100  -33.8770 C   0  0  0  0  0  0  0  0  0  0  0  0
   -5.8760   16.3620  -34.1050 C   0  0  0  0  0  0  0  0  0  0  0  0
   -5.5980   15.5150  -33.0230 C   0  0  0  0  0  0  0  0  0  0  0  0
   -5.2990   14.1230  -33.2450 N   0  0  0  0  0  0  0  0  0  0  0  0
   -5.6830   13.4830  -34.5090 C   0  0  0  0  0  0  0  0  0  0  0  0
   -5.6540   11.9530  -34.3700 C   0  0  0  0  0  0  0  0  0  0  0  0
   -6.1750   11.5450  -33.0590 N   0  0  0  0  0  0  0  0  0  0  0  0
   -5.3320   12.0200  -31.9420 C   0  0  0  0  0  0  0  0  0  0  0  0
   -4.5750   13.3300  -32.2450 C   0  0  0  0  0  0  0  0  0  0  0  0
   -5.5780   16.0300  -31.7580 N   0  0  0  0  0  0  0  0  0  0  0  0
   -5.8400   17.3440  -31.5150 C   0  0  0  0  0  0  0  0  0  0  0  0
   -5.4160   20.4980  -31.7730 C   0  0  0  0  0  0  0  0  0  0  0  0
   -5.7250   21.8430  -31.5490 C   0  0  0  0  0  0  0  0  0  0  0  0
   -3.5220   22.4767  -28.4517 H   0  0  0  0  0  0  0  0  0  0  0  0
   -3.8915   20.9428  -29.3105 H   0  0  0  0  0  0  0  0  0  0  0  0
   -2.2163   21.5912  -29.3105 H   0  0  0  0  0  0  0  0  0  0  0  0
   -3.0840   25.0740  -30.5230 H   0  0  0  0  0  0  0  0  0  0  0  0
   -7.8126   24.3820  -31.5576 H   0  0  0  0  0  0  0  0  0  0  0  0
   -8.9750   21.9721  -32.5744 H   0  0  0  0  0  0  0  0  0  0  0  0
   -8.4808   19.5474  -33.0235 H   0  0  0  0  0  0  0  0  0  0  0  0
   -6.3685   18.3748  -34.7244 H   0  0  0  0  0  0  0  0  0  0  0  0
   -5.8817   15.9638  -35.1304 H   0  0  0  0  0  0  0  0  0  0  0  0
   -6.6997   13.8022  -34.7818 H   0  0  0  0  0  0  0  0  0  0  0  0
   -4.9684   13.7822  -35.2899 H   0  0  0  0  0  0  0  0  0  0  0  0
   -6.2742   11.5060  -35.1609 H   0  0  0  0  0  0  0  0  0  0  0  0
   -4.6138   11.6073  -34.4624 H   0  0  0  0  0  0  0  0  0  0  0  0
   -7.1390   11.9420  -32.9480 H   0  0  0  0  0  0  0  0  0  0  0  0
   -5.9777   12.1872  -31.0672 H   0  0  0  0  0  0  0  0  0  0  0  0
   -4.5718   11.2453  -31.7630 H   0  0  0  0  0  0  0  0  0  0  0  0
   -4.4798   13.9155  -31.3186 H   0  0  0  0  0  0  0  0  0  0  0  0
   -3.5793   13.0818  -32.6411 H   0  0  0  0  0  0  0  0  0  0  0  0
   -5.3720   15.4100  -30.9450 H   0  0  0  0  0  0  0  0  0  0  0  0
   -5.8228   17.7208  -30.4817 H   0  0  0  0  0  0  0  0  0  0  0  0
   -4.4171   20.1032  -31.5358 H   0  0  0  0  0  0  0  0  0  0  0  0
  1  2  1  0
  2  3  2  0
  2  4  1  0
  4  5  1  0
  5  6  1  0
  6  7  1  0
  6  8  2  0
  5  9  2  0
  9 10  1  0
 10 11  2  0
 11 12  1  0
 12 13  2  0
 13 14  1  0
 14 15  2  0
 15 16  1  0
 16 17  2  0
 17 18  1  0
 18 19  1  0
 19 20  1  0
 20 21  1  0
 21 22  1  0
 22 23  1  0
 17 24  1  0
 24 25  2  0
 13 26  1  0
 26 27  2  0
 27  4  1  0
 27 10  1  0
 25 14  1  0
 23 18  1  0
  1 28  1  0
  1 29  1  0
  1 30  1  0
  7 31  1  0
  9 32  1  0
 11 33  1  0
 12 34  1  0
 15 35  1  0
 16 36  1  0
 19 37  1  0
 19 38  1  0
 20 39  1  0
 20 40  1  0
 21 41  1  0
 22 42  1  0
 22 43  1  0
 23 44  1  0
 23 45  1  0
 24 46  1  0
 25 47  1  0
 26 48  1  0
M  CHG  2   7  -1  24   1
M  END
>  <UniqueID>  (28) 
28

>  <SMILES>  (28) 
CC(=O)n1c(C([NH-])=O)cc2ccc(-c3ccc(N4CCNCC4)[nH+]c3)cc21

>  <Energy>  (28) 
103.41116003504118

>  <Genealogy>  (28) 
CC(=O)n1c(C([NH-])=O)cc2ccc(-c3ccc(N4CCNCC4)[nH+]c3)cc21 (protonated)
CC(=O)n1c(C([NH-])=O)cc2ccc(-c3ccc(N4CCNCC4)[nH+]c3)cc21 (3D coordinates assigned)
CC(=O)n1c(C([NH-])=O)cc2ccc(-c3ccc(N4CCNCC4)[nH+]c3)cc21 (nonaromatic ring conformer: 103.41116003504118 kcal/mol)

>  <smiles>  (28) 
CC(=O)n1c(C(N)=O)cc2ccc(-c3ccc(N4CCNCC4)nc3)cc21

>  <score_type>  (28) 
oracle

>  <origin>  (28) 
adg

>  <m_score__min__energy>  (28) 
-10.49

>  <m_primary>  (28) 
energy

$$$$
28:0
     RDKit          3D

 56 58  0  0  0  0  0  0  0  0999 V2000
   -9.4340   20.7720  -32.2810 C   0  0  0  0  0  0  0  0  0  0  0  0
   -8.4300   19.7290  -31.9940 N   0  0  0  0  0  0  0  0  0  0  0  0
   -9.0900   18.4680  -31.6170 C   0  0  0  0  0  0  0  0  0  0  0  0
   -7.4110   19.5160  -33.0580 C   0  0  2  0  0  0  0  0  0  0  0  0
   -6.8370   18.0910  -33.0270 C   0  0  0  0  0  0  0  0  0  0  0  0
   -5.3560   18.2250  -32.7070 C   0  0  0  0  0  0  0  0  0  0  0  0
   -4.9650   19.6200  -33.1810 C   0  0  2  0  0  0  0  0  0  0  0  0
   -3.7450   20.1670  -32.4630 C   0  0  0  0  0  0  0  0  0  0  0  0
   -2.5080   19.4670  -32.4820 C   0  0  0  0  0  0  0  0  0  0  0  0
   -1.3780   19.9860  -31.8310 C   0  0  0  0  0  0  0  0  0  0  0  0
   -1.5070   21.2020  -31.1680 C   0  0  0  0  0  0  0  0  0  0  0  0
   -0.5700   21.9300  -30.4780 C   0  0  0  0  0  0  0  0  0  0  0  0
   -1.2380   23.0720  -30.0480 C   0  0  0  0  0  0  0  0  0  0  0  0
   -0.5930   24.1210  -29.2410 C   0  0  0  0  0  0  0  0  0  0  0  0
   -1.1610   25.4270  -29.1530 N   0  0  0  0  0  0  0  0  0  0  0  0
    0.5040   23.8790  -28.6720 O   0  0  0  0  0  0  0  0  0  0  0  0
   -2.5470   23.0440  -30.4300 N   0  0  0  0  0  0  0  0  0  0  0  0
   -3.5940   23.9580  -30.0440 C   0  0  0  0  0  0  0  0  0  0  0  0
   -3.5980   24.4620  -28.8900 O   0  0  0  0  0  0  0  0  0  0  0  0
   -4.6240   24.2530  -30.9490 O   0  0  0  0  0  0  0  0  0  0  0  0
   -6.0290   24.0490  -30.7400 C   0  0  0  0  0  0  0  0  0  0  0  0
   -6.6540   25.2590  -30.0180 C   0  0  0  0  0  0  0  0  0  0  0  0
   -6.7410   23.7870  -32.0810 C   0  0  0  0  0  0  0  0  0  0  0  0
   -6.1780   22.8070  -29.8490 C   0  0  0  0  0  0  0  0  0  0  0  0
   -2.6930   21.8920  -31.1280 C   0  0  0  0  0  0  0  0  0  0  0  0
   -3.8310   21.4030  -31.7830 C   0  0  0  0  0  0  0  0  0  0  0  0
   -6.2140   20.4880  -33.0110 C   0  0  0  0  0  0  0  0  0  0  0  0
   -9.8233   21.1764  -31.3350 H   0  0  0  0  0  0  0  0  0  0  0  0
   -8.9664   21.5813  -32.8609 H   0  0  0  0  0  0  0  0  0  0  0  0
  -10.2606   20.3356  -32.8609 H   0  0  0  0  0  0  0  0  0  0  0  0
   -9.1312   18.3892  -30.5206 H   0  0  0  0  0  0  0  0  0  0  0  0
  -10.1117   18.4528  -32.0244 H   0  0  0  0  0  0  0  0  0  0  0  0
   -8.5202   17.6198  -32.0244 H   0  0  0  0  0  0  0  0  0  0  0  0
   -7.9738   19.7027  -33.9845 H   0  0  0  0  0  0  0  0  0  0  0  0
   -7.3405   17.4960  -32.2509 H   0  0  0  0  0  0  0  0  0  0  0  0
   -6.9900   17.5811  -33.9896 H   0  0  0  0  0  0  0  0  0  0  0  0
   -5.1852   18.1241  -31.6250 H   0  0  0  0  0  0  0  0  0  0  0  0
   -4.7585   17.4431  -33.1986 H   0  0  0  0  0  0  0  0  0  0  0  0
   -4.6488   19.6054  -34.2345 H   0  0  0  0  0  0  0  0  0  0  0  0
   -2.4354   18.5067  -33.0135 H   0  0  0  0  0  0  0  0  0  0  0  0
   -0.4191   19.4472  -31.8447 H   0  0  0  0  0  0  0  0  0  0  0  0
    0.4835   21.6668  -30.3026 H   0  0  0  0  0  0  0  0  0  0  0  0
   -0.7110   26.1580  -28.5570 H   0  0  0  0  0  0  0  0  0  0  0  0
   -2.0010   25.6820  -29.7190 H   0  0  0  0  0  0  0  0  0  0  0  0
   -6.5797   25.1152  -28.9300 H   0  0  0  0  0  0  0  0  0  0  0  0
   -6.1162   26.1748  -30.3044 H   0  0  0  0  0  0  0  0  0  0  0  0
   -7.7121   25.3504  -30.3044 H   0  0  0  0  0  0  0  0  0  0  0  0
   -7.7576   23.4129  -31.8895 H   0  0  0  0  0  0  0  0  0  0  0  0
   -6.7971   24.7234  -32.6555 H   0  0  0  0  0  0  0  0  0  0  0  0
   -6.1767   23.0376  -32.6555 H   0  0  0  0  0  0  0  0  0  0  0  0
   -6.1419   23.1079  -28.7916 H   0  0  0  0  0  0  0  0  0  0  0  0
   -7.1412   22.3188  -30.0586 H   0  0  0  0  0  0  0  0  0  0  0  0
   -5.3577   22.1048  -30.0586 H   0  0  0  0  0  0  0  0  0  0  0  0
   -4.7733   21.9702  -31.7683 H   0  0  0  0  0  0  0  0  0  0  0  0
   -6.1859   21.0147  -32.0457 H   0  0  0  0  0  0  0  0  0  0  0  0
   -6.2841   21.2548  -33.7966 H   0  0  0  0  0  0  0  0  0  0  0  0
  1  2  1  0
  2  3  1  0
  2  4  1  0
  4  5  1  0
  5  6  1  0
  6  7  1  0
  7  8  1  0
  8  9  2  0
  9 10  1  0
 10 11  2  0
 11 12  1  0
 12 13  2  0
 13 14  1  0
 14 15  1  0
 14 16  2  0
 13 17  1  0
 17 18  1  0
 18 19  2  0
 18 20  1  0
 20 21  1  0
 21 22  1  0
 21 23  1  0
 21 24  1  0
 17 25  1  0
 25 26  2  0
  7 27  1  0
 27  4  1  0
 26  8  1  0
 25 11  1  0
  1 28  1  0
  1 29  1  0
  1 30  1  0
  3 31  1  0
  3 32  1  0
  3 33  1  0
  4 34  1  6
  5 35  1  0
  5 36  1  0
  6 37  1  0
  6 38  1  0
  7 39  1  6
  9 40  1  0
 10 41  1  0
 12 42  1  0
 15 43  1  0
 15 44  1  0
 22 45  1  0
 22 46  1  0
 22 47  1  0
 23 48  1  0
 23 49  1  0
 23 50  1  0
 24 51  1  0
 24 52  1  0
 24 53  1  0
 26 54  1  0
 27 55  1  0
 27 56  1  0
M  END
>  <UniqueID>  (29) 
29

>  <SMILES>  (29) 
CN(C)[C@@H]1CC[C@H](c2ccc3cc(C(N)=O)n(C(=O)OC(C)(C)C)c3c2)C1

>  <Energy>  (29) 
101.89231180249993

>  <Genealogy>  (29) 
CN(C)[C@@H]1CC[C@H](c2ccc3cc(C(N)=O)n(C(=O)OC(C)(C)C)c3c2)C1 (chirality)
CN(C)[C@@H]1CC[C@H](c2ccc3cc(C(N)=O)n(C(=O)OC(C)(C)C)c3c2)C1 (3D coordinates assigned)
CN(C)[C@@H]1CC[C@H](c2ccc3cc(C(N)=O)n(C(=O)OC(C)(C)C)c3c2)C1 (nonaromatic ring conformer: 101.89231180249993 kcal/mol)

>  <smiles>  (29) 
CN(C)C1CCC(c2ccc3cc(C(N)=O)n(C(=O)OC(C)(C)C)c3c2)C1

>  <score_type>  (29) 
oracle

>  <origin>  (29) 
adg

>  <m_score__min__energy>  (29) 
-10.460000000000001

>  <m_primary>  (29) 
energy

$$$$
29:0
     RDKit          3D

 35 36  0  0  0  0  0  0  0  0999 V2000
   -1.1920   25.2440  -27.9470 C   0  0  0  0  0  0  0  0  0  0  0  0
   -1.6850   25.2990  -29.2790 O   0  0  0  0  0  0  0  0  0  0  0  0
   -2.7860   24.5500  -29.7020 C   0  0  0  0  0  0  0  0  0  0  0  0
   -2.8370   23.3080  -29.4880 O   0  0  0  0  0  0  0  0  0  0  0  0
   -3.8590   25.2120  -30.3790 N   0  0  0  0  0  0  0  0  0  0  0  0
   -5.2690   24.8720  -30.2040 C   0  0  0  0  0  0  0  0  0  0  0  0
   -5.9630   24.6860  -31.5570 C   0  0  0  0  0  0  0  0  0  0  0  0
   -6.5700   23.3140  -31.7000 C   0  0  0  0  0  0  0  0  0  0  0  0
   -7.9270   23.0970  -31.3540 C   0  0  0  0  0  0  0  0  0  0  0  0
   -8.5190   21.8380  -31.5410 C   0  0  0  0  0  0  0  0  0  0  0  0
   -7.7320   20.8180  -32.0670 C   0  0  0  0  0  0  0  0  0  0  0  0
   -8.0660   19.5230  -32.3880 C   0  0  0  0  0  0  0  0  0  0  0  0
   -6.9000   18.9600  -32.9000 C   0  0  0  0  0  0  0  0  0  0  0  0
   -6.7960   17.5460  -33.3140 C   0  0  0  0  0  0  0  0  0  0  0  0
   -6.4640   17.1920  -34.6560 N   0  0  0  0  0  0  0  0  0  0  0  0
   -6.9470   16.6370  -32.4540 O   0  0  0  0  0  0  0  0  0  0  0  0
   -5.8870   19.8710  -32.9100 N   0  0  0  0  0  0  0  0  0  0  0  0
   -4.5750   19.7080  -33.4750 C   0  0  0  0  0  0  0  0  0  0  0  0
   -3.5940   20.3440  -33.0080 O   0  0  0  0  0  0  0  0  0  0  0  0
   -4.3770   18.8510  -34.5520 O   0  0  0  0  0  0  0  0  0  0  0  0
   -6.4130   21.0060  -32.3930 C   0  0  0  0  0  0  0  0  0  0  0  0
   -5.8020   22.2560  -32.2350 C   0  0  0  0  0  0  0  0  0  0  0  0
   -2.0307   25.3376  -27.2414 H   0  0  0  0  0  0  0  0  0  0  0  0
   -0.6815   24.2833  -27.7844 H   0  0  0  0  0  0  0  0  0  0  0  0
   -0.4823   26.0685  -27.7844 H   0  0  0  0  0  0  0  0  0  0  0  0
   -5.3446   23.9368  -29.6298 H   0  0  0  0  0  0  0  0  0  0  0  0
   -5.7633   25.6956  -29.6679 H   0  0  0  0  0  0  0  0  0  0  0  0
   -6.7600   25.4380  -31.6530 H   0  0  0  0  0  0  0  0  0  0  0  0
   -5.2049   24.8044  -32.3452 H   0  0  0  0  0  0  0  0  0  0  0  0
   -8.5216   23.9223  -30.9353 H   0  0  0  0  0  0  0  0  0  0  0  0
   -9.5731   21.6630  -31.2797 H   0  0  0  0  0  0  0  0  0  0  0  0
   -9.0449   19.0362  -32.2663 H   0  0  0  0  0  0  0  0  0  0  0  0
   -6.4290   16.1880  -34.9410 H   0  0  0  0  0  0  0  0  0  0  0  0
   -6.1710   17.9170  -35.3480 H   0  0  0  0  0  0  0  0  0  0  0  0
   -4.7509   22.4101  -32.5202 H   0  0  0  0  0  0  0  0  0  0  0  0
  1  2  1  0
  2  3  1  0
  3  4  2  0
  3  5  1  0
  5  6  1  0
  6  7  1  0
  7  8  1  0
  8  9  2  0
  9 10  1  0
 10 11  2  0
 11 12  1  0
 12 13  2  0
 13 14  1  0
 14 15  1  0
 14 16  2  0
 13 17  1  0
 17 18  1  0
 18 19  2  0
 18 20  1  0
 17 21  1  0
 21 22  2  0
 22  8  1  0
 21 11  1  0
  1 23  1  0
  1 24  1  0
  1 25  1  0
  6 26  1  0
  6 27  1  0
  7 28  1  0
  7 29  1  0
  9 30  1  0
 10 31  1  0
 12 32  1  0
 15 33  1  0
 15 34  1  0
 22 35  1  0
M  CHG  2   5  -1  20  -1
M  END
>  <UniqueID>  (30) 
30

>  <SMILES>  (30) 
COC(=O)[N-]CCc1ccc2cc(C(N)=O)n(C(=O)[O-])c2c1

>  <Energy>  (30) 
68.57407301322739

>  <Genealogy>  (30) 
COC(=O)[N-]CCc1ccc2cc(C(N)=O)n(C(=O)[O-])c2c1 (protonated)
COC(=O)[N-]CCc1ccc2cc(C(N)=O)n(C(=O)[O-])c2c1 (3D coordinates assigned)
COC(=O)[N-]CCc1ccc2cc(C(N)=O)n(C(=O)[O-])c2c1 (optimized conformer: 68.57407301322739 kcal/mol)

>  <smiles>  (30) 
COC(=O)NCCc1ccc2cc(C(N)=O)n(C(=O)O)c2c1

>  <score_type>  (30) 
oracle

>  <origin>  (30) 
adg

>  <m_score__min__energy>  (30) 
-8.9000000000000004

>  <m_primary>  (30) 
energy

$$$$
30:0
     RDKit          3D

 42 44  0  0  0  0  0  0  0  0999 V2000
   -5.4290   25.9560  -30.4710 C   0  0  0  0  0  0  0  0  0  0  0  0
   -4.2310   25.2020  -30.6070 O   0  0  0  0  0  0  0  0  0  0  0  0
   -4.0930   23.9070  -30.1000 C   0  0  0  0  0  0  0  0  0  0  0  0
   -4.8840   23.4860  -29.2110 O   0  0  0  0  0  0  0  0  0  0  0  0
   -3.0500   23.0510  -30.5940 N   0  0  0  0  0  0  0  0  0  0  0  0
   -1.7510   23.0010  -30.1810 C   0  0  0  0  0  0  0  0  0  0  0  0
   -1.1040   23.9450  -29.2480 C   0  0  0  0  0  0  0  0  0  0  0  0
   -1.5750   25.2860  -29.1060 N   0  0  0  0  0  0  0  0  0  0  0  0
   -0.0840   23.5780  -28.6060 O   0  0  0  0  0  0  0  0  0  0  0  0
   -1.0780   21.9520  -30.7990 C   0  0  0  0  0  0  0  0  0  0  0  0
   -2.0060   21.3590  -31.6220 C   0  0  0  0  0  0  0  0  0  0  0  0
   -1.8830   20.2520  -32.4560 C   0  0  0  0  0  0  0  0  0  0  0  0
   -3.0220   19.8260  -33.1590 C   0  0  0  0  0  0  0  0  0  0  0  0
   -4.2560   20.5070  -33.0130 C   0  0  0  0  0  0  0  0  0  0  0  0
   -5.4760   20.0070  -33.7360 C   0  0  0  0  0  0  0  0  0  0  0  0
   -6.6490   20.0970  -32.8680 N   0  0  0  0  0  0  0  0  0  0  0  0
   -7.3260   21.2210  -32.6820 N   0  0  0  0  0  0  0  0  0  0  0  0
   -8.3770   20.9340  -31.8910 C   0  0  0  0  0  0  0  0  0  0  0  0
   -9.4280   21.9230  -31.5140 C   0  0  0  0  0  0  0  0  0  0  0  0
   -8.3920   19.5850  -31.5900 C   0  0  0  0  0  0  0  0  0  0  0  0
   -7.2690   19.0860  -32.2170 C   0  0  0  0  0  0  0  0  0  0  0  0
   -6.8790   17.6420  -32.2740 C   0  0  0  0  0  0  0  0  0  0  0  0
   -4.3440   21.6250  -32.1550 C   0  0  0  0  0  0  0  0  0  0  0  0
   -3.1900   22.0400  -31.4810 C   0  0  0  0  0  0  0  0  0  0  0  0
   -5.6540   26.0976  -29.4036 H   0  0  0  0  0  0  0  0  0  0  0  0
   -5.3015   26.9370  -30.9521 H   0  0  0  0  0  0  0  0  0  0  0  0
   -6.2583   25.4167  -30.9521 H   0  0  0  0  0  0  0  0  0  0  0  0
   -1.1290   25.9260  -28.4120 H   0  0  0  0  0  0  0  0  0  0  0  0
   -2.3050   25.6720  -29.7440 H   0  0  0  0  0  0  0  0  0  0  0  0
   -0.0270   21.6593  -30.6590 H   0  0  0  0  0  0  0  0  0  0  0  0
   -0.9226   19.7262  -32.5616 H   0  0  0  0  0  0  0  0  0  0  0  0
   -2.9554   18.9560  -33.8288 H   0  0  0  0  0  0  0  0  0  0  0  0
   -5.6416   20.6184  -34.6353 H   0  0  0  0  0  0  0  0  0  0  0  0
   -5.3194   18.9560  -34.0203 H   0  0  0  0  0  0  0  0  0  0  0  0
   -9.4955   21.9865  -30.4179 H   0  0  0  0  0  0  0  0  0  0  0  0
   -9.1663   22.9100  -31.9230 H   0  0  0  0  0  0  0  0  0  0  0  0
  -10.3973   21.6019  -31.9230 H   0  0  0  0  0  0  0  0  0  0  0  0
   -9.1305   19.0351  -30.9882 H   0  0  0  0  0  0  0  0  0  0  0  0
   -6.7732   17.2502  -31.2516 H   0  0  0  0  0  0  0  0  0  0  0  0
   -7.6557   17.0732  -32.8061 H   0  0  0  0  0  0  0  0  0  0  0  0
   -5.9215   17.5415  -32.8061 H   0  0  0  0  0  0  0  0  0  0  0  0
   -5.2971   22.1571  -32.0196 H   0  0  0  0  0  0  0  0  0  0  0  0
  1  2  1  0
  2  3  1  0
  3  4  2  0
  3  5  1  0
  5  6  1  0
  6  7  1  0
  7  8  1  0
  7  9  2  0
  6 10  2  0
 10 11  1  0
 11 12  2  0
 12 13  1  0
 13 14  2  0
 14 15  1  0
 15 16  1  0
 16 17  1  0
 17 18  2  0
 18 19  1  0
 18 20  1  0
 20 21  2  0
 21 22  1  0
 14 23  1  0
 23 24  2  0
 24  5  1  0
 24 11  1  0
 21 16  1  0
  1 25  1  0
  1 26  1  0
  1 27  1  0
  8 28  1  0
  8 29  1  0
 10 30  1  0
 12 31  1  0
 13 32  1  0
 15 33  1  0
 15 34  1  0
 19 35  1  0
 19 36  1  0
 19 37  1  0
 20 38  1  0
 22 39  1  0
 22 40  1  0
 22 41  1  0
 23 42  1  0
M  END
>  <UniqueID>  (31) 
31

>  <SMILES>  (31) 
COC(=O)n1c(C(N)=O)cc2ccc(Cn3nc(C)cc3C)cc21

>  <Energy>  (31) 
106.72148573232286

>  <Genealogy>  (31) 
COC(=O)n1c(C(N)=O)cc2ccc(Cn3nc(C)cc3C)cc21 (3D coordinates assigned)
COC(=O)n1c(C(N)=O)cc2ccc(Cn3nc(C)cc3C)cc21 (optimized conformer: 106.72148573232286 kcal/mol)

>  <smiles>  (31) 
COC(=O)n1c(C(N)=O)cc2ccc(Cn3nc(C)cc3C)cc21

>  <score_type>  (31) 
oracle

>  <origin>  (31) 
adg

>  <m_score__min__energy>  (31) 
-8.9000000000000004

>  <m_primary>  (31) 
energy

$$$$
31:0
     RDKit          3D

 40 42  0  0  0  0  0  0  0  0999 V2000
   -5.7050   26.3940  -30.3360 N   0  0  0  0  0  0  0  0  0  0  0  0
   -6.4490   25.1860  -30.1620 C   0  0  0  0  0  0  0  0  0  0  0  0
   -7.3760   25.1540  -29.3110 O   0  0  0  0  0  0  0  0  0  0  0  0
   -6.1640   23.9970  -30.9960 C   0  0  0  0  0  0  0  0  0  0  0  0
   -7.1470   23.2520  -31.6450 C   0  0  0  0  0  0  0  0  0  0  0  0
   -6.4820   22.1910  -32.2150 C   0  0  0  0  0  0  0  0  0  0  0  0
   -6.9720   21.1380  -32.9780 C   0  0  0  0  0  0  0  0  0  0  0  0
   -6.0540   20.1870  -33.4540 C   0  0  0  0  0  0  0  0  0  0  0  0
   -4.6690   20.3060  -33.1750 C   0  0  0  0  0  0  0  0  0  0  0  0
   -3.7700   19.3010  -33.6890 N   0  0  0  0  0  0  0  0  0  0  0  0
   -2.7180   18.6310  -32.9190 C   0  0  0  0  0  0  0  0  0  0  0  0
   -1.3400   19.2990  -33.0960 C   0  0  2  0  0  0  0  0  0  0  0  0
   -1.0740   20.4220  -32.0740 C   0  0  0  0  0  0  0  0  0  0  0  0
    0.1820   21.1720  -32.5130 C   0  0  0  0  0  0  0  0  0  0  0  0
    0.2110   21.0390  -34.2780 S   0  0  0  0  0  0  0  0  0  0  0  0
    1.5240   20.4960  -34.7690 O   0  0  0  0  0  0  0  0  0  0  0  0
   -0.1020   22.3520  -34.9390 O   0  0  0  0  0  0  0  0  0  0  0  0
   -1.0980   19.8730  -34.4960 C   0  0  0  0  0  0  0  0  0  0  0  0
   -4.2120   21.3950  -32.3900 C   0  0  0  0  0  0  0  0  0  0  0  0
   -5.1530   22.3150  -31.9110 C   0  0  0  0  0  0  0  0  0  0  0  0
   -4.9400   23.4190  -31.1590 N   0  0  0  0  0  0  0  0  0  0  0  0
   -3.6720   23.9140  -30.6950 C   0  0  0  0  0  0  0  0  0  0  0  0
   -2.7160   23.1220  -30.4880 O   0  0  0  0  0  0  0  0  0  0  0  0
   -3.4850   25.2750  -30.4870 O   0  0  0  0  0  0  0  0  0  0  0  0
   -4.8960   26.4430  -30.9930 H   0  0  0  0  0  0  0  0  0  0  0  0
   -5.9400   27.2400  -29.7700 H   0  0  0  0  0  0  0  0  0  0  0  0
   -8.2249   23.4666  -31.6916 H   0  0  0  0  0  0  0  0  0  0  0  0
   -8.0454   21.0518  -33.2023 H   0  0  0  0  0  0  0  0  0  0  0  0
   -6.4151   19.3374  -34.0521 H   0  0  0  0  0  0  0  0  0  0  0  0
   -3.8180   19.0770  -34.7090 H   0  0  0  0  0  0  0  0  0  0  0  0
   -2.9890   18.6586  -31.8533 H   0  0  0  0  0  0  0  0  0  0  0  0
   -2.6388   17.5984  -33.2897 H   0  0  0  0  0  0  0  0  0  0  0  0
   -0.6403   18.4672  -32.9273 H   0  0  0  0  0  0  0  0  0  0  0  0
   -1.9302   21.1120  -32.0463 H   0  0  0  0  0  0  0  0  0  0  0  0
   -0.9342   19.9984  -31.0685 H   0  0  0  0  0  0  0  0  0  0  0  0
    0.1277   22.2271  -32.2068 H   0  0  0  0  0  0  0  0  0  0  0  0
    1.0907   20.7544  -32.0548 H   0  0  0  0  0  0  0  0  0  0  0  0
   -2.0032   20.3712  -34.8735 H   0  0  0  0  0  0  0  0  0  0  0  0
   -0.8446   19.0930  -35.2291 H   0  0  0  0  0  0  0  0  0  0  0  0
   -3.1424   21.5144  -32.1624 H   0  0  0  0  0  0  0  0  0  0  0  0
  1  2  1  0
  2  3  2  0
  2  4  1  0
  4  5  2  0
  5  6  1  0
  6  7  2  0
  7  8  1  0
  8  9  2  0
  9 10  1  0
 10 11  1  0
 11 12  1  0
 12 13  1  0
 13 14  1  0
 14 15  1  0
 15 16  2  0
 15 17  2  0
 15 18  1  0
  9 19  1  0
 19 20  2  0
 20 21  1  0
 21 22  1  0
 22 23  2  0
 22 24  1  0
 21  4  1  0
 20  6  1  0
 18 12  1  0
  1 25  1  0
  1 26  1  0
  5 27  1  0
  7 28  1  0
  8 29  1  0
 10 30  1  0
 11 31  1  0
 11 32  1  0
 12 33  1  1
 13 34  1  0
 13 35  1  0
 14 36  1  0
 14 37  1  0
 18 38  1  0
 18 39  1  0
 19 40  1  0
M  CHG  1  24  -1
M  END
>  <UniqueID>  (32) 
32

>  <SMILES>  (32) 
NC(=O)c1cc2ccc(NC[C@@H]3CCS(=O)(=O)C3)cc2n1C(=O)[O-]

>  <Energy>  (32) 
78.4942755420114

>  <Genealogy>  (32) 
NC(=O)c1cc2ccc(NCC3CCS(=O)(=O)C3)cc2n1C(=O)[O-] (protonated)
NC(=O)c1cc2ccc(NC[C@@H]3CCS(=O)(=O)C3)cc2n1C(=O)[O-] (chirality)
NC(=O)c1cc2ccc(NC[C@@H]3CCS(=O)(=O)C3)cc2n1C(=O)[O-] (3D coordinates assigned)
NC(=O)c1cc2ccc(NC[C@@H]3CCS(=O)(=O)C3)cc2n1C(=O)[O-] (nonaromatic ring conformer: 78.4942755420114 kcal/mol)

>  <smiles>  (32) 
NC(=O)c1cc2ccc(NCC3CCS(=O)(=O)C3)cc2n1C(=O)O

>  <score_type>  (32) 
oracle

>  <origin>  (32) 
adg

>  <m_score__min__energy>  (32) 
-10.130000000000001

>  <m_primary>  (32) 
energy

$$$$
32:0
     RDKit          3D

 41 43  0  0  0  0  0  0  0  0999 V2000
   -2.9300   14.6920  -33.1800 C   0  0  0  0  0  0  0  0  0  0  0  0
   -2.5170   14.7370  -34.6500 C   0  0  0  0  0  0  0  0  0  0  0  0
   -3.4820   13.9000  -35.4960 C   0  0  0  0  0  0  0  0  0  0  0  0
   -2.5290   16.1000  -35.0870 O   0  0  0  0  0  0  0  0  0  0  0  0
   -3.3330   17.1240  -34.5620 C   0  0  0  0  0  0  0  0  0  0  0  0
   -4.7070   17.2350  -34.8440 C   0  0  0  0  0  0  0  0  0  0  0  0
   -5.4410   18.2820  -34.2860 C   0  0  0  0  0  0  0  0  0  0  0  0
   -4.8170   19.2200  -33.4490 C   0  0  0  0  0  0  0  0  0  0  0  0
   -5.5880   20.3370  -32.8480 C   0  0  0  0  0  0  0  0  0  0  0  0
   -7.0060   20.3540  -32.9280 C   0  0  0  0  0  0  0  0  0  0  0  0
   -7.7460   21.4110  -32.3760 C   0  0  0  0  0  0  0  0  0  0  0  0
   -7.0490   22.4340  -31.7410 C   0  0  0  0  0  0  0  0  0  0  0  0
   -7.5150   23.5870  -31.1540 C   0  0  0  0  0  0  0  0  0  0  0  0
   -6.3810   24.2470  -30.6910 C   0  0  0  0  0  0  0  0  0  0  0  0
   -6.4330   25.5150  -29.9350 C   0  0  0  0  0  0  0  0  0  0  0  0
   -5.5420   26.5920  -30.2340 N   0  0  0  0  0  0  0  0  0  0  0  0
   -7.2390   25.6300  -28.9740 O   0  0  0  0  0  0  0  0  0  0  0  0
   -5.2550   23.5410  -30.9900 N   0  0  0  0  0  0  0  0  0  0  0  0
   -3.8900   23.9420  -30.7830 C   0  0  0  0  0  0  0  0  0  0  0  0
   -2.9900   23.0760  -30.6220 O   0  0  0  0  0  0  0  0  0  0  0  0
   -3.5460   25.2880  -30.7550 O   0  0  0  0  0  0  0  0  0  0  0  0
   -5.6810   22.4290  -31.6330 C   0  0  0  0  0  0  0  0  0  0  0  0
   -4.9170   21.3990  -32.1940 C   0  0  0  0  0  0  0  0  0  0  0  0
   -3.4440   19.0730  -33.1960 C   0  0  0  0  0  0  0  0  0  0  0  0
   -2.7480   18.0470  -33.7510 N   0  0  0  0  0  0  0  0  0  0  0  0
   -2.0370   14.7893  -32.5451 H   0  0  0  0  0  0  0  0  0  0  0  0
   -3.6225   15.5200  -32.9682 H   0  0  0  0  0  0  0  0  0  0  0  0
   -3.4279   13.7343  -32.9682 H   0  0  0  0  0  0  0  0  0  0  0  0
   -1.5065   14.3183  -34.7666 H   0  0  0  0  0  0  0  0  0  0  0  0
   -4.1455   13.3245  -34.8338 H   0  0  0  0  0  0  0  0  0  0  0  0
   -4.0851   14.5658  -36.1308 H   0  0  0  0  0  0  0  0  0  0  0  0
   -2.9082   13.2088  -36.1308 H   0  0  0  0  0  0  0  0  0  0  0  0
   -5.1989   16.5015  -35.4997 H   0  0  0  0  0  0  0  0  0  0  0  0
   -6.5155   18.3729  -34.5034 H   0  0  0  0  0  0  0  0  0  0  0  0
   -7.5312   19.5276  -33.4293 H   0  0  0  0  0  0  0  0  0  0  0  0
   -8.8438   21.4301  -32.4434 H   0  0  0  0  0  0  0  0  0  0  0  0
   -8.5609   23.9170  -31.0687 H   0  0  0  0  0  0  0  0  0  0  0  0
   -5.6180   27.4940  -29.7160 H   0  0  0  0  0  0  0  0  0  0  0  0
   -4.7540   26.4670  -30.9070 H   0  0  0  0  0  0  0  0  0  0  0  0
   -3.8191   21.4141  -32.1283 H   0  0  0  0  0  0  0  0  0  0  0  0
   -2.9284   19.7934  -32.5440 H   0  0  0  0  0  0  0  0  0  0  0  0
  1  2  1  0
  2  3  1  0
  2  4  1  0
  4  5  1  0
  5  6  2  0
  6  7  1  0
  7  8  2  0
  8  9  1  0
  9 10  2  0
 10 11  1  0
 11 12  2  0
 12 13  1  0
 13 14  2  0
 14 15  1  0
 15 16  1  0
 15 17  2  0
 14 18  1  0
 18 19  1  0
 19 20  2  0
 19 21  1  0
 18 22  1  0
 22 23  2  0
  8 24  1  0
 24 25  2  0
 25  5  1  0
 23  9  1  0
 22 12  1  0
  1 26  1  0
  1 27  1  0
  1 28  1  0
  2 29  1  0
  3 30  1  0
  3 31  1  0
  3 32  1  0
  6 33  1  0
  7 34  1  0
 10 35  1  0
 11 36  1  0
 13 37  1  0
 16 38  1  0
 16 39  1  0
 23 40  1  0
 24 41  1  0
M  CHG  1  21  -1
M  END
>  <UniqueID>  (33) 
33

>  <SMILES>  (33) 
CC(C)Oc1ccc(-c2ccc3cc(C(N)=O)n(C(=O)[O-])c3c2)cn1

>  <Energy>  (33) 
85.73529720099566

>  <Genealogy>  (33) 
CC(C)Oc1ccc(-c2ccc3cc(C(N)=O)n(C(=O)[O-])c3c2)cn1 (protonated)
CC(C)Oc1ccc(-c2ccc3cc(C(N)=O)n(C(=O)[O-])c3c2)cn1 (3D coordinates assigned)
CC(C)Oc1ccc(-c2ccc3cc(C(N)=O)n(C(=O)[O-])c3c2)cn1 (optimized conformer: 85.73529720099566 kcal/mol)

>  <smiles>  (33) 
CC(C)Oc1ccc(-c2ccc3cc(C(N)=O)n(C(=O)O)c3c2)cn1

>  <score_type>  (33) 
oracle

>  <origin>  (33) 
adg

>  <m_score__min__energy>  (33) 
-9.5899999999999999

>  <m_primary>  (33) 
energy

$$$$
33:0
     RDKit          3D

 39 41  0  0  0  0  0  0  0  0999 V2000
   -3.9200   13.9630  -35.0710 C   0  0  0  0  0  0  0  0  0  0  0  0
   -5.2660   14.3180  -34.6020 N   0  0  0  0  0  0  0  0  0  0  0  0
   -6.3200   13.2960  -34.6300 C   0  0  0  0  0  0  0  0  0  0  0  0
   -5.5500   15.6580  -34.1190 C   0  0  0  0  0  0  0  0  0  0  0  0
   -6.8590   16.0330  -33.7540 C   0  0  0  0  0  0  0  0  0  0  0  0
   -7.1320   17.3220  -33.2890 C   0  0  0  0  0  0  0  0  0  0  0  0
   -6.1060   18.2750  -33.1780 C   0  0  0  0  0  0  0  0  0  0  0  0
   -6.3980   19.6440  -32.6840 C   0  0  0  0  0  0  0  0  0  0  0  0
   -7.7380   20.1100  -32.6120 C   0  0  0  0  0  0  0  0  0  0  0  0
   -8.0240   21.4090  -32.1590 C   0  0  0  0  0  0  0  0  0  0  0  0
   -6.9590   22.2170  -31.7780 C   0  0  0  0  0  0  0  0  0  0  0  0
   -6.9540   23.5170  -31.3280 C   0  0  0  0  0  0  0  0  0  0  0  0
   -5.6140   23.8250  -31.1050 C   0  0  0  0  0  0  0  0  0  0  0  0
   -5.1610   25.1100  -30.5300 C   0  0  0  0  0  0  0  0  0  0  0  0
   -3.8900   25.6560  -30.8670 N   0  0  0  0  0  0  0  0  0  0  0  0
   -5.8870   25.7080  -29.6930 O   0  0  0  0  0  0  0  0  0  0  0  0
   -4.8200   22.7590  -31.4140 N   0  0  0  0  0  0  0  0  0  0  0  0
   -3.3850   22.6970  -31.4040 C   0  0  0  0  0  0  0  0  0  0  0  0
   -2.7340   23.1720  -30.4360 O   0  0  0  0  0  0  0  0  0  0  0  0
   -2.7000   22.1350  -32.4740 O   0  0  0  0  0  0  0  0  0  0  0  0
   -5.6600   21.7820  -31.8210 C   0  0  0  0  0  0  0  0  0  0  0  0
   -5.3430   20.5000  -32.2870 C   0  0  0  0  0  0  0  0  0  0  0  0
   -4.8000   17.9090  -33.5410 C   0  0  0  0  0  0  0  0  0  0  0  0
   -4.5260   16.6200  -34.0060 C   0  0  0  0  0  0  0  0  0  0  0  0
   -3.2638   13.7899  -34.2053 H   0  0  0  0  0  0  0  0  0  0  0  0
   -3.9731   13.0482  -35.6795 H   0  0  0  0  0  0  0  0  0  0  0  0
   -3.5151   14.7851  -35.6795 H   0  0  0  0  0  0  0  0  0  0  0  0
   -6.5974   13.0270  -33.6001 H   0  0  0  0  0  0  0  0  0  0  0  0
   -7.2013   13.6925  -35.1554 H   0  0  0  0  0  0  0  0  0  0  0  0
   -5.9509   12.4029  -35.1554 H   0  0  0  0  0  0  0  0  0  0  0  0
   -7.6762   15.3013  -33.8364 H   0  0  0  0  0  0  0  0  0  0  0  0
   -8.1601   17.5931  -33.0072 H   0  0  0  0  0  0  0  0  0  0  0  0
   -8.5613   19.4462  -32.9144 H   0  0  0  0  0  0  0  0  0  0  0  0
   -9.0598   21.7756  -32.1074 H   0  0  0  0  0  0  0  0  0  0  0  0
   -7.8234   24.1737  -31.1765 H   0  0  0  0  0  0  0  0  0  0  0  0
   -3.0160   25.3030  -30.4160 H   0  0  0  0  0  0  0  0  0  0  0  0
   -4.2966   20.1655  -32.3433 H   0  0  0  0  0  0  0  0  0  0  0  0
   -3.9853   18.6434  -33.4586 H   0  0  0  0  0  0  0  0  0  0  0  0
   -3.4969   16.3524  -34.2878 H   0  0  0  0  0  0  0  0  0  0  0  0
  1  2  1  0
  2  3  1  0
  2  4  1  0
  4  5  2  0
  5  6  1  0
  6  7  2  0
  7  8  1  0
  8  9  2  0
  9 10  1  0
 10 11  2  0
 11 12  1  0
 12 13  2  0
 13 14  1  0
 14 15  1  0
 14 16  2  0
 13 17  1  0
 17 18  1  0
 18 19  2  0
 18 20  1  0
 17 21  1  0
 21 22  2  0
  7 23  1  0
 23 24  2  0
 24  4  1  0
 22  8  1  0
 21 11  1  0
  1 25  1  0
  1 26  1  0
  1 27  1  0
  3 28  1  0
  3 29  1  0
  3 30  1  0
  5 31  1  0
  6 32  1  0
  9 33  1  0
 10 34  1  0
 12 35  1  0
 15 36  1  0
 22 37  1  0
 23 38  1  0
 24 39  1  0
M  CHG  2  15  -1  20  -1
M  END
>  <UniqueID>  (34) 
34

>  <SMILES>  (34) 
CN(C)c1ccc(-c2ccc3cc(C([NH-])=O)n(C(=O)[O-])c3c2)cc1

>  <Energy>  (34) 
88.16663008525144

>  <Genealogy>  (34) 
CN(C)c1ccc(-c2ccc3cc(C([NH-])=O)n(C(=O)[O-])c3c2)cc1 (protonated)
CN(C)c1ccc(-c2ccc3cc(C([NH-])=O)n(C(=O)[O-])c3c2)cc1 (3D coordinates assigned)
CN(C)c1ccc(-c2ccc3cc(C([NH-])=O)n(C(=O)[O-])c3c2)cc1 (optimized conformer: 88.16663008525144 kcal/mol)

>  <smiles>  (34) 
CN(C)c1ccc(-c2ccc3cc(C(N)=O)n(C(=O)O)c3c2)cc1

>  <score_type>  (34) 
oracle

>  <origin>  (34) 
adg

>  <m_score__min__energy>  (34) 
-10.75

>  <m_primary>  (34) 
energy

$$$$
34:0
     RDKit          3D

 28 29  0  0  0  0  0  0  0  0999 V2000
   -3.0250   20.9980  -33.2800 C   0  0  0  0  0  0  0  0  0  0  0  0
   -3.5340   22.2930  -32.9810 O   0  0  0  0  0  0  0  0  0  0  0  0
   -3.9540   22.6610  -31.6990 C   0  0  0  0  0  0  0  0  0  0  0  0
   -3.1190   22.7430  -30.7570 O   0  0  0  0  0  0  0  0  0  0  0  0
   -5.3360   22.9700  -31.4620 N   0  0  0  0  0  0  0  0  0  0  0  0
   -5.8540   24.1150  -30.9310 C   0  0  0  0  0  0  0  0  0  0  0  0
   -5.1010   25.3500  -30.6310 C   0  0  0  0  0  0  0  0  0  0  0  0
   -3.6850   25.2950  -30.4730 N   0  0  0  0  0  0  0  0  0  0  0  0
   -5.6970   26.4470  -30.4750 O   0  0  0  0  0  0  0  0  0  0  0  0
   -7.2350   24.0020  -30.7800 C   0  0  0  0  0  0  0  0  0  0  0  0
   -7.5520   22.7470  -31.2440 C   0  0  0  0  0  0  0  0  0  0  0  0
   -8.7830   22.1010  -31.3110 C   0  0  0  0  0  0  0  0  0  0  0  0
   -8.8130   20.7880  -31.8070 C   0  0  0  0  0  0  0  0  0  0  0  0
   -7.6210   20.1490  -32.2290 C   0  0  0  0  0  0  0  0  0  0  0  0
   -7.6580   18.7280  -32.7090 C   0  0  0  0  0  0  0  0  0  0  0  0
   -8.6090   18.0250  -31.9930 F   0  0  0  0  0  0  0  0  0  0  0  0
   -6.3870   20.8290  -32.1320 C   0  0  0  0  0  0  0  0  0  0  0  0
   -6.3890   22.1430  -31.6500 C   0  0  0  0  0  0  0  0  0  0  0  0
   -2.8142   20.4616  -32.3431 H   0  0  0  0  0  0  0  0  0  0  0  0
   -3.7696   20.4372  -33.8640 H   0  0  0  0  0  0  0  0  0  0  0  0
   -2.0978   21.0943  -33.8640 H   0  0  0  0  0  0  0  0  0  0  0  0
   -3.0800   24.8610  -31.2060 H   0  0  0  0  0  0  0  0  0  0  0  0
   -7.9252   24.7569  -30.3753 H   0  0  0  0  0  0  0  0  0  0  0  0
   -9.7051   22.6044  -30.9850 H   0  0  0  0  0  0  0  0  0  0  0  0
   -9.7707   20.2504  -31.8686 H   0  0  0  0  0  0  0  0  0  0  0  0
   -7.9155   18.7086  -33.7783 H   0  0  0  0  0  0  0  0  0  0  0  0
   -6.6712   18.2650  -32.5614 H   0  0  0  0  0  0  0  0  0  0  0  0
   -5.4480   20.3383  -32.4278 H   0  0  0  0  0  0  0  0  0  0  0  0
  1  2  1  0
  2  3  1  0
  3  4  2  0
  3  5  1  0
  5  6  1  0
  6  7  1  0
  7  8  1  0
  7  9  2  0
  6 10  2  0
 10 11  1  0
 11 12  2  0
 12 13  1  0
 13 14  2  0
 14 15  1  0
 15 16  1  0
 14 17  1  0
 17 18  2  0
 18  5  1  0
 18 11  1  0
  1 19  1  0
  1 20  1  0
  1 21  1  0
  8 22  1  0
 10 23  1  0
 12 24  1  0
 13 25  1  0
 15 26  1  0
 15 27  1  0
 17 28  1  0
M  CHG  1   8  -1
M  END
>  <UniqueID>  (35) 
35

>  <SMILES>  (35) 
COC(=O)n1c(C([NH-])=O)cc2ccc(CF)cc21

>  <Energy>  (35) 
64.41327077300527

>  <Genealogy>  (35) 
COC(=O)n1c(C([NH-])=O)cc2ccc(CF)cc21 (protonated)
COC(=O)n1c(C([NH-])=O)cc2ccc(CF)cc21 (3D coordinates assigned)
COC(=O)n1c(C([NH-])=O)cc2ccc(CF)cc21 (optimized conformer: 64.41327077300527 kcal/mol)

>  <smiles>  (35) 
COC(=O)n1c(C(N)=O)cc2ccc(CF)cc21

>  <score_type>  (35) 
oracle

>  <origin>  (35) 
adg

>  <m_score__min__energy>  (35) 
-8.6899999999999995

>  <m_primary>  (35) 
energy

$$$$
35:0
     RDKit          3D

 39 40  0  0  0  0  0  0  0  0999 V2000
   -8.8160   20.5160  -31.6390 C   0  0  0  0  0  0  0  0  0  0  0  0
   -8.4080   19.5150  -32.7140 C   0  0  0  0  0  0  0  0  0  0  0  0
   -7.1980   18.7450  -32.2740 C   0  0  0  0  0  0  0  0  0  0  0  0
   -7.3140   17.8530  -31.3920 O   0  0  0  0  0  0  0  0  0  0  0  0
   -5.8960   19.0930  -32.7680 N   0  0  0  0  0  0  0  0  0  0  0  0
   -5.1230   18.4010  -33.6500 C   0  0  0  0  0  0  0  0  0  0  0  0
   -5.4370   17.0560  -34.1850 C   0  0  0  0  0  0  0  0  0  0  0  0
   -6.2850   16.1590  -33.4650 N   0  0  0  0  0  0  0  0  0  0  0  0
   -4.9670   16.6950  -35.2970 O   0  0  0  0  0  0  0  0  0  0  0  0
   -3.9520   19.1070  -33.9210 C   0  0  0  0  0  0  0  0  0  0  0  0
   -4.0370   20.2580  -33.1690 C   0  0  0  0  0  0  0  0  0  0  0  0
   -3.1580   21.3280  -33.0680 C   0  0  0  0  0  0  0  0  0  0  0  0
   -3.5180   22.3990  -32.2320 C   0  0  0  0  0  0  0  0  0  0  0  0
   -4.7400   22.3890  -31.4980 C   0  0  0  0  0  0  0  0  0  0  0  0
   -5.1070   23.6100  -30.6370 C   0  0  0  0  0  0  0  0  0  0  0  0
   -6.2040   24.4070  -31.3740 C   0  0  0  0  0  0  0  0  0  0  0  0
   -5.6400   23.2310  -29.2360 C   0  0  0  0  0  0  0  0  0  0  0  0
   -3.8740   24.4720  -30.4230 C   0  0  0  0  0  0  0  0  0  0  0  0
   -3.8620   25.6660  -30.8260 O   0  0  0  0  0  0  0  0  0  0  0  0
   -2.7290   23.9490  -29.8330 O   0  0  0  0  0  0  0  0  0  0  0  0
   -5.6120   21.2760  -31.6510 C   0  0  0  0  0  0  0  0  0  0  0  0
   -5.2190   20.2230  -32.4820 C   0  0  0  0  0  0  0  0  0  0  0  0
   -8.6381   20.0795  -30.6451 H   0  0  0  0  0  0  0  0  0  0  0  0
   -8.2204   21.4344  -31.7481 H   0  0  0  0  0  0  0  0  0  0  0  0
   -9.8839   20.7564  -31.7481 H   0  0  0  0  0  0  0  0  0  0  0  0
   -9.2381   18.8158  -32.8930 H   0  0  0  0  0  0  0  0  0  0  0  0
   -8.1692   20.0600  -33.6392 H   0  0  0  0  0  0  0  0  0  0  0  0
   -6.5250   15.2280  -33.8730 H   0  0  0  0  0  0  0  0  0  0  0  0
   -6.6420   16.3910  -32.5120 H   0  0  0  0  0  0  0  0  0  0  0  0
   -3.1337   18.8084  -34.5928 H   0  0  0  0  0  0  0  0  0  0  0  0
   -2.2094   21.3372  -33.6249 H   0  0  0  0  0  0  0  0  0  0  0  0
   -2.8428   23.2628  -32.1423 H   0  0  0  0  0  0  0  0  0  0  0  0
   -6.8653   24.8875  -30.6379 H   0  0  0  0  0  0  0  0  0  0  0  0
   -5.7364   25.1774  -32.0047 H   0  0  0  0  0  0  0  0  0  0  0  0
   -6.7922   23.7242  -32.0047 H   0  0  0  0  0  0  0  0  0  0  0  0
   -5.0005   23.6857  -28.4651 H   0  0  0  0  0  0  0  0  0  0  0  0
   -6.6698   23.6008  -29.1231 H   0  0  0  0  0  0  0  0  0  0  0  0
   -5.6289   22.1369  -29.1231 H   0  0  0  0  0  0  0  0  0  0  0  0
   -6.5777   21.2444  -31.1252 H   0  0  0  0  0  0  0  0  0  0  0  0
  1  2  1  0
  2  3  1  0
  3  4  2  0
  3  5  1  0
  5  6  1  0
  6  7  1  0
  7  8  1  0
  7  9  2  0
  6 10  2  0
 10 11  1  0
 11 12  2  0
 12 13  1  0
 13 14  2  0
 14 15  1  0
 15 16  1  0
 15 17  1  0
 15 18  1  0
 18 19  2  0
 18 20  1  0
 14 21  1  0
 21 22  2  0
 22  5  1  0
 22 11  1  0
  1 23  1  0
  1 24  1  0
  1 25  1  0
  2 26  1  0
  2 27  1  0
  8 28  1  0
  8 29  1  0
 10 30  1  0
 12 31  1  0
 13 32  1  0
 16 33  1  0
 16 34  1  0
 16 35  1  0
 17 36  1  0
 17 37  1  0
 17 38  1  0
 21 39  1  0
M  CHG  1  20  -1
M  END
>  <UniqueID>  (36) 
36

>  <SMILES>  (36) 
CCC(=O)n1c(C(N)=O)cc2ccc(C(C)(C)C(=O)[O-])cc21

>  <Energy>  (36) 
77.7696369813316

>  <Genealogy>  (36) 
CCC(=O)n1c(C(N)=O)cc2ccc(C(C)(C)C(=O)[O-])cc21 (protonated)
CCC(=O)n1c(C(N)=O)cc2ccc(C(C)(C)C(=O)[O-])cc21 (3D coordinates assigned)
CCC(=O)n1c(C(N)=O)cc2ccc(C(C)(C)C(=O)[O-])cc21 (optimized conformer: 77.7696369813316 kcal/mol)

>  <smiles>  (36) 
CCC(=O)n1c(C(N)=O)cc2ccc(C(C)(C)C(=O)O)cc21

>  <score_type>  (36) 
oracle

>  <origin>  (36) 
adg

>  <m_score__min__energy>  (36) 
-10.529999999999999

>  <m_primary>  (36) 
energy

$$$$
36:0
     RDKit          3D

 48 50  0  0  0  0  0  0  0  0999 V2000
   -7.0980   17.8430  -32.5460 C   0  0  0  0  0  0  0  0  0  0  0  0
   -6.5270   16.5240  -32.8610 N   0  0  0  0  0  0  0  0  0  0  0  0
   -5.3500   16.2500  -32.0170 C   0  0  0  0  0  0  0  0  0  0  0  0
   -6.2400   16.3660  -34.3040 C   0  0  0  0  0  0  0  0  0  0  0  0
   -4.7640   16.4500  -34.6360 C   0  0  0  0  0  0  0  0  0  0  0  0
   -4.2530   15.5330  -35.3370 O   0  0  0  0  0  0  0  0  0  0  0  0
   -3.9310   17.5170  -34.1400 N   0  0  0  0  0  0  0  0  0  0  0  0
   -4.4860   18.8690  -33.9680 C   0  0  0  0  0  0  0  0  0  0  0  0
   -3.3840   19.9120  -33.7690 C   0  0  0  0  0  0  0  0  0  0  0  0
   -2.4240   19.4470  -32.7620 N   0  0  0  0  0  0  0  0  0  0  0  0
   -1.8830   20.3770  -31.8090 C   0  0  0  0  0  0  0  0  0  0  0  0
   -0.6510   20.0960  -31.1670 C   0  0  0  0  0  0  0  0  0  0  0  0
   -0.1280   20.9750  -30.2050 C   0  0  0  0  0  0  0  0  0  0  0  0
   -0.8530   22.1250  -29.9090 C   0  0  0  0  0  0  0  0  0  0  0  0
   -0.5900   23.1280  -29.0040 C   0  0  0  0  0  0  0  0  0  0  0  0
   -1.6570   24.0180  -29.1200 C   0  0  0  0  0  0  0  0  0  0  0  0
   -1.7320   25.2950  -28.3770 C   0  0  0  0  0  0  0  0  0  0  0  0
   -1.2070   26.4880  -28.9590 N   0  0  0  0  0  0  0  0  0  0  0  0
   -2.2900   25.3550  -27.2500 O   0  0  0  0  0  0  0  0  0  0  0  0
   -2.5480   23.5780  -30.0550 N   0  0  0  0  0  0  0  0  0  0  0  0
   -3.8000   24.1770  -30.4350 C   0  0  0  0  0  0  0  0  0  0  0  0
   -4.8510   23.4830  -30.4730 O   0  0  0  0  0  0  0  0  0  0  0  0
   -3.8700   25.5320  -30.7350 O   0  0  0  0  0  0  0  0  0  0  0  0
   -2.0380   22.4200  -30.5310 C   0  0  0  0  0  0  0  0  0  0  0  0
   -2.5890   21.5560  -31.4850 C   0  0  0  0  0  0  0  0  0  0  0  0
   -1.9500   18.0560  -32.7720 C   0  0  0  0  0  0  0  0  0  0  0  0
   -2.4870   17.2890  -33.9850 C   0  0  0  0  0  0  0  0  0  0  0  0
   -7.1521   17.9679  -31.4545 H   0  0  0  0  0  0  0  0  0  0  0  0
   -6.4602   18.6304  -32.9740 H   0  0  0  0  0  0  0  0  0  0  0  0
   -8.1086   17.9168  -32.9740 H   0  0  0  0  0  0  0  0  0  0  0  0
   -5.6356   16.3165  -30.9568 H   0  0  0  0  0  0  0  0  0  0  0  0
   -4.9717   15.2398  -32.2322 H   0  0  0  0  0  0  0  0  0  0  0  0
   -4.5644   16.9893  -32.2322 H   0  0  0  0  0  0  0  0  0  0  0  0
   -6.6153   15.3843  -34.6288 H   0  0  0  0  0  0  0  0  0  0  0  0
   -6.7386   17.1952  -34.8273 H   0  0  0  0  0  0  0  0  0  0  0  0
   -5.0682   19.1319  -34.8635 H   0  0  0  0  0  0  0  0  0  0  0  0
   -5.1223   18.8669  -33.0707 H   0  0  0  0  0  0  0  0  0  0  0  0
   -2.8605   20.0743  -34.7227 H   0  0  0  0  0  0  0  0  0  0  0  0
   -3.8378   20.8533  -33.4254 H   0  0  0  0  0  0  0  0  0  0  0  0
   -0.0991   19.1801  -31.4250 H   0  0  0  0  0  0  0  0  0  0  0  0
    0.8259   20.7609  -29.7007 H   0  0  0  0  0  0  0  0  0  0  0  0
    0.2772   23.2100  -28.3323 H   0  0  0  0  0  0  0  0  0  0  0  0
   -0.8770   26.5010  -29.9490 H   0  0  0  0  0  0  0  0  0  0  0  0
   -3.5482   21.7899  -31.9701 H   0  0  0  0  0  0  0  0  0  0  0  0
   -0.8505   18.0532  -32.8053 H   0  0  0  0  0  0  0  0  0  0  0  0
   -2.3152   17.5601  -31.8605 H   0  0  0  0  0  0  0  0  0  0  0  0
   -1.9667   17.6339  -34.8907 H   0  0  0  0  0  0  0  0  0  0  0  0
   -2.3108   16.2139  -33.8328 H   0  0  0  0  0  0  0  0  0  0  0  0
  1  2  1  0
  2  3  1  0
  2  4  1  0
  4  5  1  0
  5  6  2  0
  5  7  1  0
  7  8  1  0
  8  9  1  0
  9 10  1  0
 10 11  1  0
 11 12  2  0
 12 13  1  0
 13 14  2  0
 14 15  1  0
 15 16  2  0
 16 17  1  0
 17 18  1  0
 17 19  2  0
 16 20  1  0
 20 21  1  0
 21 22  2  0
 21 23  1  0
 20 24  1  0
 24 25  2  0
 10 26  1  0
 26 27  1  0
 27  7  1  0
 25 11  1  0
 24 14  1  0
  1 28  1  0
  1 29  1  0
  1 30  1  0
  3 31  1  0
  3 32  1  0
  3 33  1  0
  4 34  1  0
  4 35  1  0
  8 36  1  0
  8 37  1  0
  9 38  1  0
  9 39  1  0
 12 40  1  0
 13 41  1  0
 15 42  1  0
 18 43  1  0
 25 44  1  0
 26 45  1  0
 26 46  1  0
 27 47  1  0
 27 48  1  0
M  CHG  2  18  -1  23  -1
M  END
>  <UniqueID>  (37) 
37

>  <SMILES>  (37) 
CN(C)CC(=O)N1CCN(c2ccc3cc(C([NH-])=O)n(C(=O)[O-])c3c2)CC1

>  <Energy>  (37) 
95.61797151872356

>  <Genealogy>  (37) 
CN(C)CC(=O)N1CCN(c2ccc3cc(C([NH-])=O)n(C(=O)[O-])c3c2)CC1 (protonated)
CN(C)CC(=O)N1CCN(c2ccc3cc(C([NH-])=O)n(C(=O)[O-])c3c2)CC1 (3D coordinates assigned)
CN(C)CC(=O)N1CCN(c2ccc3cc(C([NH-])=O)n(C(=O)[O-])c3c2)CC1 (nonaromatic ring conformer: 95.61797151872356 kcal/mol)

>  <smiles>  (37) 
CN(C)CC(=O)N1CCN(c2ccc3cc(C(N)=O)n(C(=O)O)c3c2)CC1

>  <score_type>  (37) 
oracle

>  <origin>  (37) 
adg

>  <m_score__min__energy>  (37) 
-10.73

>  <m_primary>  (37) 
energy

$$$$
37:0
     RDKit          3D

 50 53  0  0  0  0  0  0  0  0999 V2000
   -7.3330   18.4600  -33.0590 C   0  0  0  0  0  0  0  0  0  0  0  0
   -7.3770   19.8120  -32.4090 C   0  0  0  0  0  0  0  0  0  0  0  0
   -8.5950   20.3070  -31.8800 C   0  0  0  0  0  0  0  0  0  0  0  0
   -8.6500   21.5790  -31.2870 C   0  0  0  0  0  0  0  0  0  0  0  0
   -7.4840   22.3380  -31.2570 C   0  0  0  0  0  0  0  0  0  0  0  0
   -7.2550   23.5840  -30.7230 C   0  0  0  0  0  0  0  0  0  0  0  0
   -5.9100   23.8520  -30.9700 C   0  0  0  0  0  0  0  0  0  0  0  0
   -5.2580   25.1290  -30.6140 C   0  0  0  0  0  0  0  0  0  0  0  0
   -3.8550   25.2890  -30.8120 N   0  0  0  0  0  0  0  0  0  0  0  0
   -5.9220   26.0730  -30.1100 O   0  0  0  0  0  0  0  0  0  0  0  0
   -5.3260   22.8080  -31.6270 N   0  0  0  0  0  0  0  0  0  0  0  0
   -3.9400   22.6580  -31.9860 C   0  0  0  0  0  0  0  0  0  0  0  0
   -3.6350   22.2650  -33.1450 O   0  0  0  0  0  0  0  0  0  0  0  0
   -2.9430   22.9020  -31.0370 O   0  0  0  0  0  0  0  0  0  0  0  0
   -2.0860   21.8990  -30.4870 C   0  0  0  0  0  0  0  0  0  0  0  0
   -2.0410   21.9910  -28.9520 C   0  0  1  0  0  0  0  0  0  0  0  0
   -1.1990   23.0610  -28.5740 O   0  0  0  0  0  0  0  0  0  0  0  0
   -1.7130   23.5830  -27.3710 C   0  0  1  0  0  0  0  0  0  0  0  0
   -1.2830   24.9870  -27.1260 N   0  0  0  0  0  0  0  0  0  0  0  0
   -0.9480   25.3380  -25.8430 C   0  0  0  0  0  0  0  0  0  0  0  0
   -0.5230   26.6270  -25.5320 C   0  0  0  0  0  0  0  0  0  0  0  0
   -0.0700   27.1370  -23.5300 I   0  0  0  0  0  0  0  0  0  0  0  0
   -0.4000   27.5500  -26.5680 C   0  0  0  0  0  0  0  0  0  0  0  0
   -0.0240   28.7280  -26.3350 O   0  0  0  0  0  0  0  0  0  0  0  0
   -0.6810   27.1730  -27.8380 N   0  0  0  0  0  0  0  0  0  0  0  0
   -1.1060   25.9150  -28.1310 C   0  0  0  0  0  0  0  0  0  0  0  0
   -1.3230   25.6290  -29.3400 O   0  0  0  0  0  0  0  0  0  0  0  0
   -3.2360   23.4390  -27.4510 C   0  0  1  0  0  0  0  0  0  0  0  0
   -3.8420   24.5680  -28.0370 O   0  0  0  0  0  0  0  0  0  0  0  0
   -3.4240   22.2080  -28.3210 C   0  0  2  0  0  0  0  0  0  0  0  0
   -3.7700   21.0930  -27.5380 O   0  0  0  0  0  0  0  0  0  0  0  0
   -6.3050   21.8890  -31.7960 C   0  0  0  0  0  0  0  0  0  0  0  0
   -6.2170   20.6180  -32.3770 C   0  0  0  0  0  0  0  0  0  0  0  0
   -7.3076   17.6808  -32.2830 H   0  0  0  0  0  0  0  0  0  0  0  0
   -8.2272   18.3249  -33.6852 H   0  0  0  0  0  0  0  0  0  0  0  0
   -6.4319   18.3834  -33.6852 H   0  0  0  0  0  0  0  0  0  0  0  0
   -9.5043   19.6903  -31.9342 H   0  0  0  0  0  0  0  0  0  0  0  0
   -9.5873   21.9640  -30.8588 H   0  0  0  0  0  0  0  0  0  0  0  0
   -7.9802   24.2323  -30.2094 H   0  0  0  0  0  0  0  0  0  0  0  0
   -3.1660   24.8790  -30.1370 H   0  0  0  0  0  0  0  0  0  0  0  0
   -2.4620   20.9067  -30.7767 H   0  0  0  0  0  0  0  0  0  0  0  0
   -1.0693   22.0557  -30.8767 H   0  0  0  0  0  0  0  0  0  0  0  0
   -1.6573   21.0276  -28.5852 H   0  0  0  0  0  0  0  0  0  0  0  0
   -1.3172   23.0266  -26.5086 H   0  0  0  0  0  0  0  0  0  0  0  0
   -1.0165   24.5857  -25.0434 H   0  0  0  0  0  0  0  0  0  0  0  0
   -3.7025   23.3490  -26.4589 H   0  0  0  0  0  0  0  0  0  0  0  0
   -3.2590   24.8780  -28.7810 H   0  0  0  0  0  0  0  0  0  0  0  0
   -4.2266   22.3360  -29.0623 H   0  0  0  0  0  0  0  0  0  0  0  0
   -2.9220   20.6340  -27.3040 H   0  0  0  0  0  0  0  0  0  0  0  0
   -5.2676   20.2558  -32.7983 H   0  0  0  0  0  0  0  0  0  0  0  0
  1  2  1  0
  2  3  2  0
  3  4  1  0
  4  5  2  0
  5  6  1  0
  6  7  2  0
  7  8  1  0
  8  9  1  0
  8 10  2  0
  7 11  1  0
 11 12  1  0
 12 13  2  0
 12 14  1  0
 14 15  1  0
 15 16  1  0
 16 17  1  0
 17 18  1  0
 18 19  1  0
 19 20  1  0
 20 21  2  0
 21 22  1  0
 21 23  1  0
 23 24  2  0
 23 25  1  0
 25 26  1  0
 26 27  2  0
 18 28  1  0
 28 29  1  0
 28 30  1  0
 30 31  1  0
 11 32  1  0
 32 33  2  0
 33  2  1  0
 32  5  1  0
 30 16  1  0
 26 19  1  0
  1 34  1  0
  1 35  1  0
  1 36  1  0
  3 37  1  0
  4 38  1  0
  6 39  1  0
  9 40  1  0
 15 41  1  0
 15 42  1  0
 16 43  1  1
 18 44  1  1
 20 45  1  0
 28 46  1  1
 29 47  1  0
 30 48  1  6
 31 49  1  0
 33 50  1  0
M  CHG  2   9  -1  25  -1
M  END
>  <UniqueID>  (38) 
38

>  <SMILES>  (38) 
Cc1ccc2cc(C([NH-])=O)n(C(=O)OC[C@H]3O[C@@H](n4cc(I)c(=O)[n-]c4=O)C(O)C3O)c2c1

>  <Energy>  (38) 
103.22892739091934

>  <Genealogy>  (38) 
Cc1ccc2cc(C([NH-])=O)n(C(=O)OCC3OC(n4cc(I)c(=O)[n-]c4=O)C(O)C3O)c2c1 (protonated)
Cc1ccc2cc(C([NH-])=O)n(C(=O)OC[C@H]3O[C@@H](n4cc(I)c(=O)[n-]c4=O)C(O)C3O)c2c1 (chirality)
Cc1ccc2cc(C([NH-])=O)n(C(=O)OC[C@H]3O[C@@H](n4cc(I)c(=O)[n-]c4=O)C(O)C3O)c2c1 (3D coordinates assigned)
Cc1ccc2cc(C([NH-])=O)n(C(=O)OC[C@H]3O[C@@H](n4cc(I)c(=O)[n-]c4=O)C(O)C3O)c2c1 (nonaromatic ring conformer: 103.22892739091934 kcal/mol)

>  <smiles>  (38) 
Cc1ccc2cc(C(N)=O)n(C(=O)OCC3OC(n4cc(I)c(=O)[nH]c4=O)C(O)C3O)c2c1

>  <score_type>  (38) 
oracle

>  <origin>  (38) 
adg

>  <m_score__min__energy>  (38) 
-12.57

>  <m_primary>  (38) 
energy

$$$$
38:0
     RDKit          3D

 30 32  0  0  0  0  0  0  0  0999 V2000
   -1.6030   26.0170  -28.9180 N   0  0  0  0  0  0  0  0  0  0  0  0
   -0.8880   24.7840  -28.8810 C   0  0  0  0  0  0  0  0  0  0  0  0
    0.1660   24.7030  -28.1970 O   0  0  0  0  0  0  0  0  0  0  0  0
   -1.3630   23.6340  -29.6780 C   0  0  0  0  0  0  0  0  0  0  0  0
   -0.5410   22.5770  -30.0630 C   0  0  0  0  0  0  0  0  0  0  0  0
   -1.3710   21.6830  -30.6990 C   0  0  0  0  0  0  0  0  0  0  0  0
   -1.0790   20.4600  -31.2930 C   0  0  0  0  0  0  0  0  0  0  0  0
   -2.1300   19.7550  -31.9040 C   0  0  0  0  0  0  0  0  0  0  0  0
   -3.4470   20.2850  -31.9220 C   0  0  0  0  0  0  0  0  0  0  0  0
   -4.5470   19.5380  -32.5810 C   0  0  0  0  0  0  0  0  0  0  0  0
   -5.8150   19.4430  -31.9810 C   0  0  0  0  0  0  0  0  0  0  0  0
   -6.8400   18.7370  -32.6130 C   0  0  0  0  0  0  0  0  0  0  0  0
   -6.5930   18.1300  -33.8450 C   0  0  0  0  0  0  0  0  0  0  0  0
   -5.3660   18.2290  -34.4180 N   0  0  0  0  0  0  0  0  0  0  0  0
   -4.3500   18.9080  -33.8230 C   0  0  0  0  0  0  0  0  0  0  0  0
   -3.7000   21.5350  -31.3070 C   0  0  0  0  0  0  0  0  0  0  0  0
   -2.6380   22.2050  -30.6890 C   0  0  0  0  0  0  0  0  0  0  0  0
   -2.6500   23.4060  -30.0680 N   0  0  0  0  0  0  0  0  0  0  0  0
   -3.7800   24.2820  -29.9240 C   0  0  0  0  0  0  0  0  0  0  0  0
   -4.7050   23.9990  -29.1180 O   0  0  0  0  0  0  0  0  0  0  0  0
   -3.8780   25.4360  -30.6930 O   0  0  0  0  0  0  0  0  0  0  0  0
   -2.6470   26.0310  -28.9690 H   0  0  0  0  0  0  0  0  0  0  0  0
    0.5415   22.4783  -29.8943 H   0  0  0  0  0  0  0  0  0  0  0  0
   -0.0557   20.0564  -31.2849 H   0  0  0  0  0  0  0  0  0  0  0  0
   -1.9299   18.7808  -32.3740 H   0  0  0  0  0  0  0  0  0  0  0  0
   -5.9999   19.9266  -31.0104 H   0  0  0  0  0  0  0  0  0  0  0  0
   -7.8323   18.6599  -32.1447 H   0  0  0  0  0  0  0  0  0  0  0  0
   -7.3930   17.5709  -34.3524 H   0  0  0  0  0  0  0  0  0  0  0  0
   -3.3681   18.9651  -34.3156 H   0  0  0  0  0  0  0  0  0  0  0  0
   -4.7101   21.9704  -31.3148 H   0  0  0  0  0  0  0  0  0  0  0  0
  1  2  1  0
  2  3  2  0
  2  4  1  0
  4  5  2  0
  5  6  1  0
  6  7  2  0
  7  8  1  0
  8  9  2  0
  9 10  1  0
 10 11  2  0
 11 12  1  0
 12 13  2  0
 13 14  1  0
 14 15  2  0
  9 16  1  0
 16 17  2  0
 17 18  1  0
 18 19  1  0
 19 20  2  0
 19 21  1  0
 18  4  1  0
 17  6  1  0
 15 10  1  0
  1 22  1  0
  5 23  1  0
  7 24  1  0
  8 25  1  0
 11 26  1  0
 12 27  1  0
 13 28  1  0
 15 29  1  0
 16 30  1  0
M  CHG  2   1  -1  21  -1
M  END
>  <UniqueID>  (39) 
39

>  <SMILES>  (39) 
[NH-]C(=O)c1cc2ccc(-c3cccnc3)cc2n1C(=O)[O-]

>  <Energy>  (39) 
78.43844513199397

>  <Genealogy>  (39) 
[NH-]C(=O)c1cc2ccc(-c3cccnc3)cc2n1C(=O)[O-] (protonated)
[NH-]C(=O)c1cc2ccc(-c3cccnc3)cc2n1C(=O)[O-] (3D coordinates assigned)
[NH-]C(=O)c1cc2ccc(-c3cccnc3)cc2n1C(=O)[O-] (optimized conformer: 78.43844513199397 kcal/mol)

>  <smiles>  (39) 
NC(=O)c1cc2ccc(-c3cccnc3)cc2n1C(=O)O

>  <score_type>  (39) 
oracle

>  <origin>  (39) 
adg

>  <m_score__min__energy>  (39) 
-11.050000000000001

>  <m_primary>  (39) 
energy

$$$$
39:0
     RDKit          3D

 43 45  0  0  0  0  0  0  0  0999 V2000
   -6.7210   14.9580  -34.2290 C   0  0  0  0  0  0  0  0  0  0  0  0
   -6.2900   16.3460  -34.1200 N   0  0  0  0  0  0  0  0  0  0  0  0
   -6.8500   17.2900  -33.3410 C   0  0  0  0  0  0  0  0  0  0  0  0
   -6.2040   18.4950  -33.5830 C   0  0  0  0  0  0  0  0  0  0  0  0
   -6.4790   19.8100  -32.9550 C   0  0  0  0  0  0  0  0  0  0  0  0
   -7.8150   20.2580  -32.7740 C   0  0  0  0  0  0  0  0  0  0  0  0
   -8.0850   21.5020  -32.1790 C   0  0  0  0  0  0  0  0  0  0  0  0
   -7.0060   22.2840  -31.7820 C   0  0  0  0  0  0  0  0  0  0  0  0
   -6.9840   23.5150  -31.1700 C   0  0  0  0  0  0  0  0  0  0  0  0
   -5.6350   23.8220  -31.0040 C   0  0  0  0  0  0  0  0  0  0  0  0
   -5.1590   25.1140  -30.4700 C   0  0  0  0  0  0  0  0  0  0  0  0
   -3.8860   25.6360  -30.8390 N   0  0  0  0  0  0  0  0  0  0  0  0
   -5.9090   25.7920  -29.7170 O   0  0  0  0  0  0  0  0  0  0  0  0
   -4.8530   22.8120  -31.4830 N   0  0  0  0  0  0  0  0  0  0  0  0
   -3.4210   22.7040  -31.4340 C   0  0  0  0  0  0  0  0  0  0  0  0
   -2.7920   22.1970  -32.4040 O   0  0  0  0  0  0  0  0  0  0  0  0
   -2.7270   23.1900  -30.3230 O   0  0  0  0  0  0  0  0  0  0  0  0
   -1.4440   22.7080  -29.9370 C   0  0  0  0  0  0  0  0  0  0  0  0
   -1.1110   23.1760  -28.5190 C   0  0  0  0  0  0  0  0  0  0  0  0
   -1.6900   24.5570  -28.2050 C   0  0  0  0  0  0  0  0  0  0  0  0
   -1.5370   25.4110  -29.3060 O   0  0  0  0  0  0  0  0  0  0  0  0
   -5.7090   21.8800  -31.9600 C   0  0  0  0  0  0  0  0  0  0  0  0
   -5.4110   20.6360  -32.5300 C   0  0  0  0  0  0  0  0  0  0  0  0
   -5.2510   18.2000  -34.5500 C   0  0  0  0  0  0  0  0  0  0  0  0
   -5.3370   16.8930  -34.8570 N   0  0  0  0  0  0  0  0  0  0  0  0
   -6.8524   14.5347  -33.2222 H   0  0  0  0  0  0  0  0  0  0  0  0
   -7.6757   14.9122  -34.7735 H   0  0  0  0  0  0  0  0  0  0  0  0
   -5.9602   14.3795  -34.7735 H   0  0  0  0  0  0  0  0  0  0  0  0
   -7.6778   17.1336  -32.6337 H   0  0  0  0  0  0  0  0  0  0  0  0
   -8.6497   19.6222  -33.1042 H   0  0  0  0  0  0  0  0  0  0  0  0
   -9.1191   21.8469  -32.0317 H   0  0  0  0  0  0  0  0  0  0  0  0
   -7.8483   24.1277  -30.8741 H   0  0  0  0  0  0  0  0  0  0  0  0
   -3.0100   25.2880  -30.3890 H   0  0  0  0  0  0  0  0  0  0  0  0
   -1.4445   21.6084  -29.9664 H   0  0  0  0  0  0  0  0  0  0  0  0
   -0.6877   23.1008  -30.6325 H   0  0  0  0  0  0  0  0  0  0  0  0
   -1.5226   22.4500  -27.8024 H   0  0  0  0  0  0  0  0  0  0  0  0
   -0.0162   23.2474  -28.4398 H   0  0  0  0  0  0  0  0  0  0  0  0
   -2.7598   24.4568  -27.9695 H   0  0  0  0  0  0  0  0  0  0  0  0
   -1.1527   24.9828  -27.3448 H   0  0  0  0  0  0  0  0  0  0  0  0
   -1.9040   24.9210  -30.0870 H   0  0  0  0  0  0  0  0  0  0  0  0
   -4.3676   20.3073  -32.6452 H   0  0  0  0  0  0  0  0  0  0  0  0
   -4.5431   18.9168  -34.9917 H   0  0  0  0  0  0  0  0  0  0  0  0
   -4.7630   16.3880  -35.5670 H   0  0  0  0  0  0  0  0  0  0  0  0
  1  2  1  0
  2  3  1  0
  3  4  2  0
  4  5  1  0
  5  6  2  0
  6  7  1  0
  7  8  2  0
  8  9  1  0
  9 10  2  0
 10 11  1  0
 11 12  1  0
 11 13  2  0
 10 14  1  0
 14 15  1  0
 15 16  2  0
 15 17  1  0
 17 18  1  0
 18 19  1  0
 19 20  1  0
 20 21  1  0
 14 22  1  0
 22 23  2  0
  4 24  1  0
 24 25  2  0
 25  2  1  0
 23  5  1  0
 22  8  1  0
  1 26  1  0
  1 27  1  0
  1 28  1  0
  3 29  1  0
  6 30  1  0
  7 31  1  0
  9 32  1  0
 12 33  1  0
 18 34  1  0
 18 35  1  0
 19 36  1  0
 19 37  1  0
 20 38  1  0
 20 39  1  0
 21 40  1  0
 23 41  1  0
 24 42  1  0
 25 43  1  0
M  CHG  2  12  -1  25   1
M  END
>  <UniqueID>  (40) 
40

>  <SMILES>  (40) 
Cn1cc(-c2ccc3cc(C([NH-])=O)n(C(=O)OCCCO)c3c2)c[nH+]1

>  <Energy>  (40) 
108.85089844178697

>  <Genealogy>  (40) 
Cn1cc(-c2ccc3cc(C([NH-])=O)n(C(=O)OCCCO)c3c2)c[nH+]1 (protonated)
Cn1cc(-c2ccc3cc(C([NH-])=O)n(C(=O)OCCCO)c3c2)c[nH+]1 (3D coordinates assigned)
Cn1cc(-c2ccc3cc(C([NH-])=O)n(C(=O)OCCCO)c3c2)c[nH+]1 (optimized conformer: 108.85089844178697 kcal/mol)

>  <smiles>  (40) 
Cn1cc(-c2ccc3cc(C(N)=O)n(C(=O)OCCCO)c3c2)cn1

>  <score_type>  (40) 
oracle

>  <origin>  (40) 
adg

>  <m_score__min__energy>  (40) 
-10.800000000000001

>  <m_primary>  (40) 
energy

$$$$
40:0
     RDKit          3D

 44 47  0  0  0  0  0  0  0  0999 V2000
   -5.7830   25.1670  -28.9130 N   0  0  0  0  0  0  0  0  0  0  0  0
   -5.3710   24.6200  -30.1680 C   0  0  0  0  0  0  0  0  0  0  0  0
   -4.4860   25.2160  -30.8340 O   0  0  0  0  0  0  0  0  0  0  0  0
   -5.9910   23.3850  -30.6960 C   0  0  0  0  0  0  0  0  0  0  0  0
   -7.3550   23.2370  -30.9510 C   0  0  0  0  0  0  0  0  0  0  0  0
   -7.4880   21.9880  -31.5150 C   0  0  0  0  0  0  0  0  0  0  0  0
   -8.6250   21.3180  -31.9550 C   0  0  0  0  0  0  0  0  0  0  0  0
   -8.4670   20.0230  -32.4770 C   0  0  0  0  0  0  0  0  0  0  0  0
   -7.1850   19.4210  -32.5500 C   0  0  0  0  0  0  0  0  0  0  0  0
   -7.0400   18.0120  -33.0950 C   0  0  0  0  0  0  0  0  0  0  0  0
   -6.1150   17.9400  -34.3210 C   0  0  0  0  0  0  0  0  0  0  0  0
   -4.9490   17.0450  -33.9320 C   0  0  0  0  0  0  0  0  0  0  0  0
   -5.4590   16.1800  -32.7950 C   0  0  0  0  0  0  0  0  0  0  0  0
   -6.4610   17.0460  -32.0500 C   0  0  0  0  0  0  0  0  0  0  0  0
   -6.0530   20.1360  -32.0890 C   0  0  0  0  0  0  0  0  0  0  0  0
   -6.2410   21.4280  -31.5890 C   0  0  0  0  0  0  0  0  0  0  0  0
   -5.3130   22.2700  -31.0890 N   0  0  0  0  0  0  0  0  0  0  0  0
   -3.9110   21.9920  -30.9480 C   0  0  0  0  0  0  0  0  0  0  0  0
   -3.4610   21.6240  -29.8290 O   0  0  0  0  0  0  0  0  0  0  0  0
   -2.9740   22.2200  -32.1080 C   0  0  0  0  0  0  0  0  0  0  0  0
   -2.0650   21.0380  -32.4030 C   0  0  0  0  0  0  0  0  0  0  0  0
   -2.6730   20.7940  -33.7130 N   0  0  0  0  0  0  0  0  0  0  0  0
   -3.5720   21.9250  -33.4740 C   0  0  0  0  0  0  0  0  0  0  0  0
   -5.3640   26.0580  -28.5690 H   0  0  0  0  0  0  0  0  0  0  0  0
   -6.4710   24.6710  -28.3030 H   0  0  0  0  0  0  0  0  0  0  0  0
   -8.1544   23.9640  -30.7451 H   0  0  0  0  0  0  0  0  0  0  0  0
   -9.6179   21.7878  -31.8961 H   0  0  0  0  0  0  0  0  0  0  0  0
   -9.3483   19.4695  -32.8333 H   0  0  0  0  0  0  0  0  0  0  0  0
   -8.0626   17.7192  -33.3751 H   0  0  0  0  0  0  0  0  0  0  0  0
   -6.6538   17.5105  -35.1785 H   0  0  0  0  0  0  0  0  0  0  0  0
   -5.7665   18.9411  -34.6149 H   0  0  0  0  0  0  0  0  0  0  0  0
   -4.6448   16.4190  -34.7838 H   0  0  0  0  0  0  0  0  0  0  0  0
   -4.0681   17.6319  -33.6328 H   0  0  0  0  0  0  0  0  0  0  0  0
   -5.9479   15.2763  -33.1879 H   0  0  0  0  0  0  0  0  0  0  0  0
   -4.6429   15.8413  -32.1398 H   0  0  0  0  0  0  0  0  0  0  0  0
   -7.2596   16.4237  -31.6200 H   0  0  0  0  0  0  0  0  0  0  0  0
   -5.9875   17.5872  -31.2176 H   0  0  0  0  0  0  0  0  0  0  0  0
   -5.0500   19.6858  -32.1235 H   0  0  0  0  0  0  0  0  0  0  0  0
   -2.6047   23.2156  -31.8209 H   0  0  0  0  0  0  0  0  0  0  0  0
   -1.0005   21.3093  -32.4595 H   0  0  0  0  0  0  0  0  0  0  0  0
   -2.0213   20.2114  -31.6786 H   0  0  0  0  0  0  0  0  0  0  0  0
   -1.9840   21.0690  -34.4540 H   0  0  0  0  0  0  0  0  0  0  0  0
   -3.4415   22.7461  -34.1942 H   0  0  0  0  0  0  0  0  0  0  0  0
   -4.6572   21.7629  -33.5518 H   0  0  0  0  0  0  0  0  0  0  0  0
  1  2  1  0
  2  3  2  0
  2  4  1  0
  4  5  2  0
  5  6  1  0
  6  7  2  0
  7  8  1  0
  8  9  2  0
  9 10  1  0
 10 11  1  0
 11 12  1  0
 12 13  1  0
 13 14  1  0
  9 15  1  0
 15 16  2  0
 16 17  1  0
 17 18  1  0
 18 19  2  0
 18 20  1  0
 20 21  1  0
 21 22  1  0
 22 23  1  0
 17  4  1  0
 23 20  1  0
 16  6  1  0
 14 10  1  0
  1 24  1  0
  1 25  1  0
  5 26  1  0
  7 27  1  0
  8 28  1  0
 10 29  1  0
 11 30  1  0
 11 31  1  0
 12 32  1  0
 12 33  1  0
 13 34  1  0
 13 35  1  0
 14 36  1  0
 14 37  1  0
 15 38  1  0
 20 39  1  0
 21 40  1  0
 21 41  1  0
 22 42  1  0
 23 43  1  0
 23 44  1  0
M  END
>  <UniqueID>  (41) 
41

>  <SMILES>  (41) 
NC(=O)c1cc2ccc(C3CCCC3)cc2n1C(=O)C1CNC1

>  <Energy>  (41) 
153.5297723090716

>  <Genealogy>  (41) 
NC(=O)c1cc2ccc(C3CCCC3)cc2n1C(=O)C1CNC1 (3D coordinates assigned)
NC(=O)c1cc2ccc(C3CCCC3)cc2n1C(=O)C1CNC1 (nonaromatic ring conformer: 153.5297723090716 kcal/mol)

>  <smiles>  (41) 
NC(=O)c1cc2ccc(C3CCCC3)cc2n1C(=O)C1CNC1

>  <score_type>  (41) 
oracle

>  <origin>  (41) 
adg

>  <m_score__min__energy>  (41) 
-9.9499999999999993

>  <m_primary>  (41) 
energy

$$$$
41:0
     RDKit          3D

 30 31  0  0  0  0  0  0  0  0999 V2000
   -7.0190   17.8910  -31.6450 C   0  0  0  0  0  0  0  0  0  0  0  0
   -6.0980   17.7740  -32.7670 N   0  0  0  0  0  0  0  0  0  0  0  0
   -5.7050   18.8580  -33.6170 C   0  0  0  0  0  0  0  0  0  0  0  0
   -5.2270   18.5950  -34.7520 O   0  0  0  0  0  0  0  0  0  0  0  0
   -5.8160   20.2960  -33.1870 C   0  0  0  0  0  0  0  0  0  0  0  0
   -4.5570   20.7530  -32.4990 C   0  0  0  0  0  0  0  0  0  0  0  0
   -3.3780   19.9670  -32.5670 C   0  0  0  0  0  0  0  0  0  0  0  0
   -2.1990   20.3900  -31.9350 C   0  0  0  0  0  0  0  0  0  0  0  0
   -2.2290   21.5920  -31.2330 C   0  0  0  0  0  0  0  0  0  0  0  0
   -1.2260   22.2430  -30.5520 C   0  0  0  0  0  0  0  0  0  0  0  0
   -1.8120   23.4030  -30.0530 C   0  0  0  0  0  0  0  0  0  0  0  0
   -1.1040   24.3570  -29.1750 C   0  0  0  0  0  0  0  0  0  0  0  0
   -1.6060   25.6750  -28.9680 N   0  0  0  0  0  0  0  0  0  0  0  0
   -0.0700   23.9870  -28.5580 O   0  0  0  0  0  0  0  0  0  0  0  0
   -3.1240   23.4730  -30.4190 N   0  0  0  0  0  0  0  0  0  0  0  0
   -4.0420   24.5570  -30.1920 C   0  0  0  0  0  0  0  0  0  0  0  0
   -3.8650   25.6680  -30.7570 O   0  0  0  0  0  0  0  0  0  0  0  0
   -5.1150   24.3970  -29.3240 O   0  0  0  0  0  0  0  0  0  0  0  0
   -3.3640   22.3540  -31.1380 C   0  0  0  0  0  0  0  0  0  0  0  0
   -4.5490   21.9650  -31.7750 C   0  0  0  0  0  0  0  0  0  0  0  0
   -6.4582   17.8198  -30.7014 H   0  0  0  0  0  0  0  0  0  0  0  0
   -7.5340   18.8618  -31.6931 H   0  0  0  0  0  0  0  0  0  0  0  0
   -7.7604   17.0798  -31.6931 H   0  0  0  0  0  0  0  0  0  0  0  0
   -5.9897   20.9240  -34.0733 H   0  0  0  0  0  0  0  0  0  0  0  0
   -6.6539   20.3864  -32.4800 H   0  0  0  0  0  0  0  0  0  0  0  0
   -3.3883   19.0166  -33.1207 H   0  0  0  0  0  0  0  0  0  0  0  0
   -1.2787   19.7901  -31.9924 H   0  0  0  0  0  0  0  0  0  0  0  0
   -0.1830   21.9163  -30.4282 H   0  0  0  0  0  0  0  0  0  0  0  0
   -2.6330   25.8640  -28.9720 H   0  0  0  0  0  0  0  0  0  0  0  0
   -5.4525   22.5893  -31.7127 H   0  0  0  0  0  0  0  0  0  0  0  0
  1  2  1  0
  2  3  1  0
  3  4  2  0
  3  5  1  0
  5  6  1  0
  6  7  2  0
  7  8  1  0
  8  9  2  0
  9 10  1  0
 10 11  2  0
 11 12  1  0
 12 13  1  0
 12 14  2  0
 11 15  1  0
 15 16  1  0
 16 17  2  0
 16 18  1  0
 15 19  1  0
 19 20  2  0
 20  6  1  0
 19  9  1  0
  1 21  1  0
  1 22  1  0
  1 23  1  0
  5 24  1  0
  5 25  1  0
  7 26  1  0
  8 27  1  0
 10 28  1  0
 13 29  1  0
 20 30  1  0
M  CHG  3   2  -1  13  -1  18  -1
M  END
>  <UniqueID>  (42) 
42

>  <SMILES>  (42) 
C[N-]C(=O)Cc1ccc2cc(C([NH-])=O)n(C(=O)[O-])c2c1

>  <Energy>  (42) 
66.6448081656194

>  <Genealogy>  (42) 
C[N-]C(=O)Cc1ccc2cc(C([NH-])=O)n(C(=O)[O-])c2c1 (protonated)
C[N-]C(=O)Cc1ccc2cc(C([NH-])=O)n(C(=O)[O-])c2c1 (3D coordinates assigned)
C[N-]C(=O)Cc1ccc2cc(C([NH-])=O)n(C(=O)[O-])c2c1 (optimized conformer: 66.6448081656194 kcal/mol)

>  <smiles>  (42) 
CNC(=O)Cc1ccc2cc(C(N)=O)n(C(=O)O)c2c1

>  <score_type>  (42) 
oracle

>  <origin>  (42) 
adg

>  <m_score__min__energy>  (42) 
-10

>  <m_primary>  (42) 
energy

$$$$
42:0
     RDKit          3D

 34 36  0  0  0  0  0  0  0  0999 V2000
   -6.5380   17.2230  -33.7560 N   0  0  0  0  0  0  0  0  0  0  0  0
   -5.7890   18.3010  -34.3220 C   0  0  0  0  0  0  0  0  0  0  0  0
   -5.7150   18.4000  -35.5760 O   0  0  0  0  0  0  0  0  0  0  0  0
   -5.0930   19.2830  -33.4580 C   0  0  0  0  0  0  0  0  0  0  0  0
   -3.7420   19.6160  -33.5670 C   0  0  0  0  0  0  0  0  0  0  0  0
   -3.5280   20.5880  -32.6150 C   0  0  0  0  0  0  0  0  0  0  0  0
   -2.3610   21.2620  -32.2680 C   0  0  0  0  0  0  0  0  0  0  0  0
   -2.4250   22.1930  -31.2170 C   0  0  0  0  0  0  0  0  0  0  0  0
   -3.6470   22.4320  -30.5380 C   0  0  0  0  0  0  0  0  0  0  0  0
   -3.6940   23.3980  -29.3880 C   0  0  0  0  0  0  0  0  0  0  0  0
   -3.2670   24.7570  -29.8410 C   0  0  0  0  0  0  0  0  0  0  0  0
   -2.2440   25.2970  -29.3420 O   0  0  0  0  0  0  0  0  0  0  0  0
   -3.9660   25.4060  -30.8490 O   0  0  0  0  0  0  0  0  0  0  0  0
   -4.8070   21.7180  -30.9100 C   0  0  0  0  0  0  0  0  0  0  0  0
   -4.7160   20.8130  -31.9710 C   0  0  0  0  0  0  0  0  0  0  0  0
   -5.6870   20.0260  -32.4840 N   0  0  0  0  0  0  0  0  0  0  0  0
   -7.0440   19.9370  -32.0240 C   0  0  0  0  0  0  0  0  0  0  0  0
   -7.5100   18.8200  -31.6760 O   0  0  0  0  0  0  0  0  0  0  0  0
   -7.9010   21.1350  -31.9660 C   0  0  0  0  0  0  0  0  0  0  0  0
   -7.5190   22.4320  -32.2390 C   0  0  0  0  0  0  0  0  0  0  0  0
   -8.6460   23.2000  -32.0340 C   0  0  0  0  0  0  0  0  0  0  0  0
   -9.6450   22.4340  -31.6560 O   0  0  0  0  0  0  0  0  0  0  0  0
   -9.2320   21.1890  -31.6030 C   0  0  0  0  0  0  0  0  0  0  0  0
   -6.9940   16.5190  -34.3790 H   0  0  0  0  0  0  0  0  0  0  0  0
   -6.6830   17.1390  -32.7270 H   0  0  0  0  0  0  0  0  0  0  0  0
   -3.0049   19.1922  -34.2649 H   0  0  0  0  0  0  0  0  0  0  0  0
   -1.4172   21.0719  -32.8001 H   0  0  0  0  0  0  0  0  0  0  0  0
   -1.5192   22.7411  -30.9184 H   0  0  0  0  0  0  0  0  0  0  0  0
   -4.7214   23.4504  -28.9986 H   0  0  0  0  0  0  0  0  0  0  0  0
   -3.0117   23.0509  -28.5981 H   0  0  0  0  0  0  0  0  0  0  0  0
   -5.7579   21.8702  -30.3783 H   0  0  0  0  0  0  0  0  0  0  0  0
   -6.5244   22.7805  -32.5540 H   0  0  0  0  0  0  0  0  0  0  0  0
   -8.7007   24.2906  -32.1670 H   0  0  0  0  0  0  0  0  0  0  0  0
   -9.8490   20.3251  -31.3149 H   0  0  0  0  0  0  0  0  0  0  0  0
  1  2  1  0
  2  3  2  0
  2  4  1  0
  4  5  2  0
  5  6  1  0
  6  7  2  0
  7  8  1  0
  8  9  2  0
  9 10  1  0
 10 11  1  0
 11 12  2  0
 11 13  1  0
  9 14  1  0
 14 15  2  0
 15 16  1  0
 16 17  1  0
 17 18  2  0
 17 19  1  0
 19 20  1  0
 20 21  2  0
 21 22  1  0
 22 23  1  0
 16  4  1  0
 23 19  2  0
 15  6  1  0
  1 24  1  0
  1 25  1  0
  5 26  1  0
  7 27  1  0
  8 28  1  0
 10 29  1  0
 10 30  1  0
 14 31  1  0
 20 32  1  0
 21 33  1  0
 23 34  1  0
M  CHG  1  13  -1
M  END
>  <UniqueID>  (43) 
43

>  <SMILES>  (43) 
NC(=O)c1cc2ccc(CC(=O)[O-])cc2n1C(=O)c1ccoc1

>  <Energy>  (43) 
99.95960963002824

>  <Genealogy>  (43) 
NC(=O)c1cc2ccc(CC(=O)[O-])cc2n1C(=O)c1ccoc1 (protonated)
NC(=O)c1cc2ccc(CC(=O)[O-])cc2n1C(=O)c1ccoc1 (3D coordinates assigned)
NC(=O)c1cc2ccc(CC(=O)[O-])cc2n1C(=O)c1ccoc1 (optimized conformer: 99.95960963002824 kcal/mol)

>  <smiles>  (43) 
NC(=O)c1cc2ccc(CC(=O)O)cc2n1C(=O)c1ccoc1

>  <score_type>  (43) 
oracle

>  <origin>  (43) 
adg

>  <m_score__min__energy>  (43) 
-10.06

>  <m_primary>  (43) 
energy

$$$$
43:0
     RDKit          3D

 40 41  0  0  0  0  0  0  0  0999 V2000
   -1.1310   26.0540  -28.2070 C   0  0  0  0  0  0  0  0  0  0  0  0
   -1.8920   24.8450  -28.5680 N   0  0  0  0  0  0  0  0  0  0  0  0
   -2.7680   24.4630  -27.4510 C   0  0  0  0  0  0  0  0  0  0  0  0
   -0.9860   23.7300  -28.9230 C   0  0  0  0  0  0  0  0  0  0  0  0
   -1.5560   22.9090  -30.0860 C   0  0  0  0  0  0  0  0  0  0  0  0
   -2.9950   23.1320  -30.2250 N   0  0  0  0  0  0  0  0  0  0  0  0
   -3.7450   22.6710  -31.3570 C   0  0  0  0  0  0  0  0  0  0  0  0
   -3.1500   22.1750  -32.3530 O   0  0  0  0  0  0  0  0  0  0  0  0
   -5.1770   22.7640  -31.3580 N   0  0  0  0  0  0  0  0  0  0  0  0
   -5.9460   23.8430  -31.0390 C   0  0  0  0  0  0  0  0  0  0  0  0
   -5.4520   25.1280  -30.5020 C   0  0  0  0  0  0  0  0  0  0  0  0
   -4.0670   25.4520  -30.5940 N   0  0  0  0  0  0  0  0  0  0  0  0
   -6.2450   25.9580  -29.9840 O   0  0  0  0  0  0  0  0  0  0  0  0
   -7.2960   23.5530  -31.2320 C   0  0  0  0  0  0  0  0  0  0  0  0
   -7.3290   22.2520  -31.6810 C   0  0  0  0  0  0  0  0  0  0  0  0
   -8.4100   21.4630  -32.0630 C   0  0  0  0  0  0  0  0  0  0  0  0
   -8.1450   20.1650  -32.5330 C   0  0  0  0  0  0  0  0  0  0  0  0
   -6.8150   19.6770  -32.6040 C   0  0  0  0  0  0  0  0  0  0  0  0
   -6.5330   18.3090  -33.1720 C   0  0  0  0  0  0  0  0  0  0  0  0
   -7.6540   17.5020  -33.0780 F   0  0  0  0  0  0  0  0  0  0  0  0
   -6.1740   18.3980  -34.5060 F   0  0  0  0  0  0  0  0  0  0  0  0
   -5.4980   17.7270  -32.4640 F   0  0  0  0  0  0  0  0  0  0  0  0
   -5.7440   20.5210  -32.2300 C   0  0  0  0  0  0  0  0  0  0  0  0
   -6.0390   21.8000  -31.7490 C   0  0  0  0  0  0  0  0  0  0  0  0
   -1.0770   26.1398  -27.1117 H   0  0  0  0  0  0  0  0  0  0  0  0
   -0.1138   25.9839  -28.6199 H   0  0  0  0  0  0  0  0  0  0  0  0
   -1.6341   26.9408  -28.6199 H   0  0  0  0  0  0  0  0  0  0  0  0
   -2.2642   24.6827  -26.4982 H   0  0  0  0  0  0  0  0  0  0  0  0
   -3.7067   25.0335  -27.5095 H   0  0  0  0  0  0  0  0  0  0  0  0
   -2.9887   23.3869  -27.5095 H   0  0  0  0  0  0  0  0  0  0  0  0
   -0.0086   24.1401  -29.2170 H   0  0  0  0  0  0  0  0  0  0  0  0
   -0.8798   23.0720  -28.0479 H   0  0  0  0  0  0  0  0  0  0  0  0
   -1.0535   23.2072  -31.0179 H   0  0  0  0  0  0  0  0  0  0  0  0
   -1.3834   21.8421  -29.8815 H   0  0  0  0  0  0  0  0  0  0  0  0
   -3.4870   23.6810  -29.4850 H   0  0  0  0  0  0  0  0  0  0  0  0
   -3.5060   25.6610  -29.7390 H   0  0  0  0  0  0  0  0  0  0  0  0
   -8.1527   24.2216  -31.0617 H   0  0  0  0  0  0  0  0  0  0  0  0
   -9.4401   21.8435  -31.9991 H   0  0  0  0  0  0  0  0  0  0  0  0
   -8.9784   19.5205  -32.8493 H   0  0  0  0  0  0  0  0  0  0  0  0
   -4.7021   20.1789  -32.3156 H   0  0  0  0  0  0  0  0  0  0  0  0
  1  2  1  0
  2  3  1  0
  2  4  1  0
  4  5  1  0
  5  6  1  0
  6  7  1  0
  7  8  2  0
  7  9  1  0
  9 10  1  0
 10 11  1  0
 11 12  1  0
 11 13  2  0
 10 14  2  0
 14 15  1  0
 15 16  2  0
 16 17  1  0
 17 18  2  0
 18 19  1  0
 19 20  1  0
 19 21  1  0
 19 22  1  0
 18 23  1  0
 23 24  2  0
 24  9  1  0
 24 15  1  0
  1 25  1  0
  1 26  1  0
  1 27  1  0
  3 28  1  0
  3 29  1  0
  3 30  1  0
  4 31  1  0
  4 32  1  0
  5 33  1  0
  5 34  1  0
  6 35  1  0
 12 36  1  0
 14 37  1  0
 16 38  1  0
 17 39  1  0
 23 40  1  0
M  CHG  1  12  -1
M  END
>  <UniqueID>  (44) 
44

>  <SMILES>  (44) 
CN(C)CCNC(=O)n1c(C([NH-])=O)cc2ccc(C(F)(F)F)cc21

>  <Energy>  (44) 
74.35925870355707

>  <Genealogy>  (44) 
CN(C)CCNC(=O)n1c(C([NH-])=O)cc2ccc(C(F)(F)F)cc21 (protonated)
CN(C)CCNC(=O)n1c(C([NH-])=O)cc2ccc(C(F)(F)F)cc21 (3D coordinates assigned)
CN(C)CCNC(=O)n1c(C([NH-])=O)cc2ccc(C(F)(F)F)cc21 (optimized conformer: 74.35925870355707 kcal/mol)

>  <smiles>  (44) 
CN(C)CCNC(=O)n1c(C(N)=O)cc2ccc(C(F)(F)F)cc21

>  <score_type>  (44) 
oracle

>  <origin>  (44) 
adg

>  <m_score__min__energy>  (44) 
-9.5999999999999996

>  <m_primary>  (44) 
energy

$$$$
44:0
     RDKit          3D

 51 53  0  0  0  0  0  0  0  0999 V2000
   -4.6050   13.3450  -31.1360 C   0  0  0  0  0  0  0  0  0  0  0  0
   -3.5730   12.9780  -32.1960 C   0  0  0  0  0  0  0  0  0  0  0  0
   -3.9760   13.4540  -33.4780 O   0  0  0  0  0  0  0  0  0  0  0  0
   -5.2200   14.0500  -33.7250 C   0  0  0  0  0  0  0  0  0  0  0  0
   -6.2230   13.3320  -33.9950 O   0  0  0  0  0  0  0  0  0  0  0  0
   -5.3560   15.4830  -33.6700 N   0  0  0  0  0  0  0  0  0  0  0  0
   -4.2190   16.3210  -33.2750 C   0  0  0  0  0  0  0  0  0  0  0  0
   -4.7020   17.5120  -32.4420 C   0  0  0  0  0  0  0  0  0  0  0  0
   -5.8150   18.2180  -33.0950 N   0  0  0  0  0  0  0  0  0  0  0  0
   -6.1530   19.5560  -32.6710 C   0  0  0  0  0  0  0  0  0  0  0  0
   -7.5000   20.0050  -32.7190 C   0  0  0  0  0  0  0  0  0  0  0  0
   -7.8410   21.3060  -32.3160 C   0  0  0  0  0  0  0  0  0  0  0  0
   -6.8240   22.1370  -31.8610 C   0  0  0  0  0  0  0  0  0  0  0  0
   -6.8730   23.4450  -31.4360 C   0  0  0  0  0  0  0  0  0  0  0  0
   -5.5610   23.7750  -31.1070 C   0  0  0  0  0  0  0  0  0  0  0  0
   -5.1730   25.0760  -30.5220 C   0  0  0  0  0  0  0  0  0  0  0  0
   -3.9000   25.6550  -30.8010 N   0  0  0  0  0  0  0  0  0  0  0  0
   -5.9550   25.6610  -29.7270 O   0  0  0  0  0  0  0  0  0  0  0  0
   -4.7310   22.7150  -31.3250 N   0  0  0  0  0  0  0  0  0  0  0  0
   -3.3010   22.6840  -31.2030 C   0  0  0  0  0  0  0  0  0  0  0  0
   -2.6010   22.1560  -32.1100 O   0  0  0  0  0  0  0  0  0  0  0  0
   -2.6870   23.2600  -30.0860 O   0  0  0  0  0  0  0  0  0  0  0  0
   -2.6800   22.6390  -28.8060 C   0  0  0  0  0  0  0  0  0  0  0  0
   -3.8990   23.0870  -28.0160 C   0  0  0  0  0  0  0  0  0  0  0  0
   -5.5210   21.7200  -31.7860 C   0  0  0  0  0  0  0  0  0  0  0  0
   -5.1480   20.4350  -32.1970 C   0  0  0  0  0  0  0  0  0  0  0  0
   -6.4780   17.6230  -34.2650 C   0  0  0  0  0  0  0  0  0  0  0  0
   -6.6170   16.1050  -34.1010 C   0  0  0  0  0  0  0  0  0  0  0  0
   -4.1737   13.1916  -30.1358 H   0  0  0  0  0  0  0  0  0  0  0  0
   -4.8921   14.4003  -31.2536 H   0  0  0  0  0  0  0  0  0  0  0  0
   -5.4940   12.7079  -31.2536 H   0  0  0  0  0  0  0  0  0  0  0  0
   -2.6061   13.4304  -31.9305 H   0  0  0  0  0  0  0  0  0  0  0  0
   -3.4833   11.8825  -32.2378 H   0  0  0  0  0  0  0  0  0  0  0  0
   -3.5162   15.7214  -32.6778 H   0  0  0  0  0  0  0  0  0  0  0  0
   -3.7189   16.6961  -34.1801 H   0  0  0  0  0  0  0  0  0  0  0  0
   -5.0385   17.1472  -31.4603 H   0  0  0  0  0  0  0  0  0  0  0  0
   -3.8647   18.2173  -32.3351 H   0  0  0  0  0  0  0  0  0  0  0  0
   -8.2864   19.3242  -33.0767 H   0  0  0  0  0  0  0  0  0  0  0  0
   -8.8825   21.6573  -32.3591 H   0  0  0  0  0  0  0  0  0  0  0  0
   -7.7601   24.0921  -31.3702 H   0  0  0  0  0  0  0  0  0  0  0  0
   -3.1170   25.0750  -31.1730 H   0  0  0  0  0  0  0  0  0  0  0  0
   -2.7047   21.5462  -28.9290 H   0  0  0  0  0  0  0  0  0  0  0  0
   -1.7671   22.9277  -28.2645 H   0  0  0  0  0  0  0  0  0  0  0  0
   -3.6871   23.0091  -26.9394 H   0  0  0  0  0  0  0  0  0  0  0  0
   -4.1362   24.1310  -28.2685 H   0  0  0  0  0  0  0  0  0  0  0  0
   -4.7558   22.4450  -28.2685 H   0  0  0  0  0  0  0  0  0  0  0  0
   -4.0967   20.1144  -32.1529 H   0  0  0  0  0  0  0  0  0  0  0  0
   -7.4785   18.0664  -34.3764 H   0  0  0  0  0  0  0  0  0  0  0  0
   -5.8667   17.8259  -35.1567 H   0  0  0  0  0  0  0  0  0  0  0  0
   -7.3915   15.8980  -33.3478 H   0  0  0  0  0  0  0  0  0  0  0  0
   -6.8908   15.6799  -35.0779 H   0  0  0  0  0  0  0  0  0  0  0  0
  1  2  1  0
  2  3  1  0
  3  4  1  0
  4  5  2  0
  4  6  1  0
  6  7  1  0
  7  8  1  0
  8  9  1  0
  9 10  1  0
 10 11  2  0
 11 12  1  0
 12 13  2  0
 13 14  1  0
 14 15  2  0
 15 16  1  0
 16 17  1  0
 16 18  2  0
 15 19  1  0
 19 20  1  0
 20 21  2  0
 20 22  1  0
 22 23  1  0
 23 24  1  0
 19 25  1  0
 25 26  2  0
  9 27  1  0
 27 28  1  0
 28  6  1  0
 26 10  1  0
 25 13  1  0
  1 29  1  0
  1 30  1  0
  1 31  1  0
  2 32  1  0
  2 33  1  0
  7 34  1  0
  7 35  1  0
  8 36  1  0
  8 37  1  0
 11 38  1  0
 12 39  1  0
 14 40  1  0
 17 41  1  0
 23 42  1  0
 23 43  1  0
 24 44  1  0
 24 45  1  0
 24 46  1  0
 26 47  1  0
 27 48  1  0
 27 49  1  0
 28 50  1  0
 28 51  1  0
M  CHG  1  17  -1
M  END
>  <UniqueID>  (45) 
45

>  <SMILES>  (45) 
CCOC(=O)N1CCN(c2ccc3cc(C([NH-])=O)n(C(=O)OCC)c3c2)CC1

>  <Energy>  (45) 
84.7885997186013

>  <Genealogy>  (45) 
CCOC(=O)N1CCN(c2ccc3cc(C([NH-])=O)n(C(=O)OCC)c3c2)CC1 (protonated)
CCOC(=O)N1CCN(c2ccc3cc(C([NH-])=O)n(C(=O)OCC)c3c2)CC1 (3D coordinates assigned)
CCOC(=O)N1CCN(c2ccc3cc(C([NH-])=O)n(C(=O)OCC)c3c2)CC1 (nonaromatic ring conformer: 84.7885997186013 kcal/mol)

>  <smiles>  (45) 
CCOC(=O)N1CCN(c2ccc3cc(C(N)=O)n(C(=O)OCC)c3c2)CC1

>  <score_type>  (45) 
oracle

>  <origin>  (45) 
adg

>  <m_score__min__energy>  (45) 
-9.9299999999999997

>  <m_primary>  (45) 
energy

$$$$
45:0
     RDKit          3D

 37 40  0  0  0  0  0  0  0  0999 V2000
   -5.3660   26.4160  -30.4290 N   0  0  0  0  0  0  0  0  0  0  0  0
   -6.2840   25.4180  -29.9830 C   0  0  0  0  0  0  0  0  0  0  0  0
   -7.0730   25.6830  -29.0370 O   0  0  0  0  0  0  0  0  0  0  0  0
   -6.3720   24.1050  -30.6530 C   0  0  0  0  0  0  0  0  0  0  0  0
   -7.5780   23.4900  -30.9770 C   0  0  0  0  0  0  0  0  0  0  0  0
   -7.2300   22.3330  -31.6340 C   0  0  0  0  0  0  0  0  0  0  0  0
   -8.0370   21.3320  -32.1640 C   0  0  0  0  0  0  0  0  0  0  0  0
   -7.4100   20.2240  -32.7550 C   0  0  0  0  0  0  0  0  0  0  0  0
   -5.9950   20.1310  -32.8020 C   0  0  0  0  0  0  0  0  0  0  0  0
   -5.3410   18.9470  -33.4080 C   0  0  0  0  0  0  0  0  0  0  0  0
   -6.0920   17.7850  -33.6630 C   0  0  0  0  0  0  0  0  0  0  0  0
   -5.4920   16.6630  -34.2400 C   0  0  0  0  0  0  0  0  0  0  0  0
   -4.1330   16.6810  -34.5600 C   0  0  0  0  0  0  0  0  0  0  0  0
   -3.3740   17.8340  -34.3140 C   0  0  0  0  0  0  0  0  0  0  0  0
   -3.9710   18.9630  -33.7400 C   0  0  0  0  0  0  0  0  0  0  0  0
   -3.2090   20.0580  -33.4820 F   0  0  0  0  0  0  0  0  0  0  0  0
   -1.9980   17.8550  -34.6930 N   0  0  0  0  0  0  0  0  0  0  0  0
   -1.3790   16.6810  -35.2230 C   0  0  0  0  0  0  0  0  0  0  0  0
   -0.1930   16.7330  -35.6420 O   0  0  0  0  0  0  0  0  0  0  0  0
   -2.1150   15.3710  -35.1990 C   0  0  0  0  0  0  0  0  0  0  0  0
   -3.5330   15.5610  -35.1450 O   0  0  0  0  0  0  0  0  0  0  0  0
   -5.2090   21.1670  -32.2460 C   0  0  0  0  0  0  0  0  0  0  0  0
   -5.8610   22.2710  -31.6830 C   0  0  0  0  0  0  0  0  0  0  0  0
   -5.3170   23.3530  -31.0800 N   0  0  0  0  0  0  0  0  0  0  0  0
   -3.9200   23.5890  -30.8350 C   0  0  0  0  0  0  0  0  0  0  0  0
   -3.0930   22.6410  -30.9030 O   0  0  0  0  0  0  0  0  0  0  0  0
   -3.4650   24.8640  -30.5240 O   0  0  0  0  0  0  0  0  0  0  0  0
   -5.2910   27.3240  -29.9200 H   0  0  0  0  0  0  0  0  0  0  0  0
   -4.8220   26.2920  -31.3120 H   0  0  0  0  0  0  0  0  0  0  0  0
   -8.5927   23.8521  -30.7550 H   0  0  0  0  0  0  0  0  0  0  0  0
   -9.1337   21.4064  -32.1213 H   0  0  0  0  0  0  0  0  0  0  0  0
   -8.0225   19.4187  -33.1866 H   0  0  0  0  0  0  0  0  0  0  0  0
   -7.1612   17.7596  -33.4058 H   0  0  0  0  0  0  0  0  0  0  0  0
   -6.0916   15.7633  -34.4427 H   0  0  0  0  0  0  0  0  0  0  0  0
   -1.8656   14.8053  -36.1088 H   0  0  0  0  0  0  0  0  0  0  0  0
   -1.8081   14.8218  -34.2967 H   0  0  0  0  0  0  0  0  0  0  0  0
   -4.1107   21.1069  -32.2556 H   0  0  0  0  0  0  0  0  0  0  0  0
  1  2  1  0
  2  3  2  0
  2  4  1  0
  4  5  2  0
  5  6  1  0
  6  7  2  0
  7  8  1  0
  8  9  2  0
  9 10  1  0
 10 11  2  0
 11 12  1  0
 12 13  2  0
 13 14  1  0
 14 15  2  0
 15 16  1  0
 14 17  1  0
 17 18  1  0
 18 19  2  0
 18 20  1  0
 20 21  1  0
  9 22  1  0
 22 23  2  0
 23 24  1  0
 24 25  1  0
 25 26  2  0
 25 27  1  0
 24  4  1  0
 23  6  1  0
 15 10  1  0
 21 13  1  0
  1 28  1  0
  1 29  1  0
  5 30  1  0
  7 31  1  0
  8 32  1  0
 11 33  1  0
 12 34  1  0
 20 35  1  0
 20 36  1  0
 22 37  1  0
M  CHG  2  17  -1  27  -1
M  END
>  <UniqueID>  (46) 
46

>  <SMILES>  (46) 
NC(=O)c1cc2ccc(-c3ccc4c(c3F)[N-]C(=O)CO4)cc2n1C(=O)[O-]

>  <Energy>  (46) 
89.97997570041301

>  <Genealogy>  (46) 
NC(=O)c1cc2ccc(-c3ccc4c(c3F)[N-]C(=O)CO4)cc2n1C(=O)[O-] (protonated)
NC(=O)c1cc2ccc(-c3ccc4c(c3F)[N-]C(=O)CO4)cc2n1C(=O)[O-] (3D coordinates assigned)
NC(=O)c1cc2ccc(-c3ccc4c(c3F)[N-]C(=O)CO4)cc2n1C(=O)[O-] (nonaromatic ring conformer: 89.97997570041301 kcal/mol)

>  <smiles>  (46) 
NC(=O)c1cc2ccc(-c3ccc4c(c3F)NC(=O)CO4)cc2n1C(=O)O

>  <score_type>  (46) 
oracle

>  <origin>  (46) 
adg

>  <m_score__min__energy>  (46) 
-10.49

>  <m_primary>  (46) 
energy

$$$$
46:0
     RDKit          3D

 55 58  0  0  0  0  0  0  0  0999 V2000
   -6.2100   25.4320  -29.4050 C   0  0  0  0  0  0  0  0  0  0  0  0
   -6.0930   25.2020  -30.9070 C   0  0  0  0  0  0  0  0  0  0  0  0
   -4.9500   24.4020  -31.2050 O   0  0  0  0  0  0  0  0  0  0  0  0
   -4.8010   23.0790  -30.7740 C   0  0  0  0  0  0  0  0  0  0  0  0
   -5.7030   22.5250  -30.0870 O   0  0  0  0  0  0  0  0  0  0  0  0
   -3.6000   22.3590  -31.0910 N   0  0  0  0  0  0  0  0  0  0  0  0
   -2.3260   22.6340  -30.6910 C   0  0  0  0  0  0  0  0  0  0  0  0
   -1.9260   23.6640  -29.7100 C   0  0  0  0  0  0  0  0  0  0  0  0
   -2.5600   24.9400  -29.6850 N   0  0  0  0  0  0  0  0  0  0  0  0
   -1.0440   23.3980  -28.8510 O   0  0  0  0  0  0  0  0  0  0  0  0
   -1.4290   21.7410  -31.2730 C   0  0  0  0  0  0  0  0  0  0  0  0
   -2.1990   20.8960  -32.0390 C   0  0  0  0  0  0  0  0  0  0  0  0
   -1.8240   19.8290  -32.8490 C   0  0  0  0  0  0  0  0  0  0  0  0
   -2.8320   19.1480  -33.5500 C   0  0  0  0  0  0  0  0  0  0  0  0
   -4.1920   19.5360  -33.4260 C   0  0  0  0  0  0  0  0  0  0  0  0
   -5.2670   18.8060  -34.2050 C   0  0  0  0  0  0  0  0  0  0  0  0
   -6.0660   17.7230  -33.4210 C   0  0  0  0  0  0  0  0  0  0  0  0
   -6.9220   18.3780  -32.3550 C   0  0  0  0  0  0  0  0  0  0  0  0
   -6.6320   18.2310  -31.1360 O   0  0  0  0  0  0  0  0  0  0  0  0
   -7.9980   19.2500  -32.7320 N   0  0  0  0  0  0  0  0  0  0  0  0
   -8.8310   19.9140  -31.7270 C   0  0  0  0  0  0  0  0  0  0  0  0
   -9.8710   20.8570  -32.3310 C   0  0  0  0  0  0  0  0  0  0  0  0
   -9.1630   22.0420  -31.6890 C   0  0  0  0  0  0  0  0  0  0  0  0
   -8.1250   21.1060  -31.0870 C   0  0  0  0  0  0  0  0  0  0  0  0
   -6.8660   16.7320  -34.2860 C   0  0  0  0  0  0  0  0  0  0  0  0
   -5.9850   15.5880  -33.8010 C   0  0  0  0  0  0  0  0  0  0  0  0
   -5.2260   16.5440  -32.8900 C   0  0  0  0  0  0  0  0  0  0  0  0
   -4.5270   20.6460  -32.6190 C   0  0  0  0  0  0  0  0  0  0  0  0
   -3.5050   21.2900  -31.9120 C   0  0  0  0  0  0  0  0  0  0  0  0
   -5.7747   24.5763  -28.8680 H   0  0  0  0  0  0  0  0  0  0  0  0
   -5.6693   26.3501  -29.1314 H   0  0  0  0  0  0  0  0  0  0  0  0
   -7.2704   25.5356  -29.1314 H   0  0  0  0  0  0  0  0  0  0  0  0
   -6.9972   24.6883  -31.2656 H   0  0  0  0  0  0  0  0  0  0  0  0
   -5.9847   26.1756  -31.4074 H   0  0  0  0  0  0  0  0  0  0  0  0
   -3.1030   25.2860  -30.5080 H   0  0  0  0  0  0  0  0  0  0  0  0
   -0.3365   21.7165  -31.1469 H   0  0  0  0  0  0  0  0  0  0  0  0
   -0.7697   19.5280  -32.9376 H   0  0  0  0  0  0  0  0  0  0  0  0
   -2.5649   18.3040  -34.2029 H   0  0  0  0  0  0  0  0  0  0  0  0
   -5.9852   19.5552  -34.5695 H   0  0  0  0  0  0  0  0  0  0  0  0
   -4.7372   18.2631  -35.0016 H   0  0  0  0  0  0  0  0  0  0  0  0
   -8.1920   19.3940  -33.7480 H   0  0  0  0  0  0  0  0  0  0  0  0
   -9.1511   19.0522  -31.1230 H   0  0  0  0  0  0  0  0  0  0  0  0
   -9.8747   20.8773  -33.4308 H   0  0  0  0  0  0  0  0  0  0  0  0
  -10.9443   20.6880  -32.1591 H   0  0  0  0  0  0  0  0  0  0  0  0
   -8.7512   22.7625  -32.4110 H   0  0  0  0  0  0  0  0  0  0  0  0
   -9.7207   22.7383  -31.0454 H   0  0  0  0  0  0  0  0  0  0  0  0
   -7.1020   21.2731  -31.4553 H   0  0  0  0  0  0  0  0  0  0  0  0
   -7.9231   21.1193  -30.0058 H   0  0  0  0  0  0  0  0  0  0  0  0
   -7.9232   16.6371  -33.9972 H   0  0  0  0  0  0  0  0  0  0  0  0
   -6.9951   16.9145  -35.3630 H   0  0  0  0  0  0  0  0  0  0  0  0
   -6.5319   14.7984  -33.2649 H   0  0  0  0  0  0  0  0  0  0  0  0
   -5.4402   14.9643  -34.5250 H   0  0  0  0  0  0  0  0  0  0  0  0
   -5.3619   16.3439  -31.8169 H   0  0  0  0  0  0  0  0  0  0  0  0
   -4.1273   16.5863  -32.9211 H   0  0  0  0  0  0  0  0  0  0  0  0
   -5.5673   20.9962  -32.5479 H   0  0  0  0  0  0  0  0  0  0  0  0
  1  2  1  0
  2  3  1  0
  3  4  1  0
  4  5  2  0
  4  6  1  0
  6  7  1  0
  7  8  1  0
  8  9  1  0
  8 10  2  0
  7 11  2  0
 11 12  1  0
 12 13  2  0
 13 14  1  0
 14 15  2  0
 15 16  1  0
 16 17  1  0
 17 18  1  0
 18 19  2  0
 18 20  1  0
 20 21  1  0
 21 22  1  0
 22 23  1  0
 23 24  1  0
 17 25  1  0
 25 26  1  0
 26 27  1  0
 15 28  1  0
 28 29  2  0
 29  6  1  0
 29 12  1  0
 27 17  1  0
 24 21  1  0
  1 30  1  0
  1 31  1  0
  1 32  1  0
  2 33  1  0
  2 34  1  0
  9 35  1  0
 11 36  1  0
 13 37  1  0
 14 38  1  0
 16 39  1  0
 16 40  1  0
 20 41  1  0
 21 42  1  0
 22 43  1  0
 22 44  1  0
 23 45  1  0
 23 46  1  0
 24 47  1  0
 24 48  1  0
 25 49  1  0
 25 50  1  0
 26 51  1  0
 26 52  1  0
 27 53  1  0
 27 54  1  0
 28 55  1  0
M  CHG  1   9  -1
M  END
>  <UniqueID>  (47) 
47

>  <SMILES>  (47) 
CCOC(=O)n1c(C([NH-])=O)cc2ccc(CC3(C(=O)NC4CCC4)CCC3)cc21

>  <Energy>  (47) 
212.33421151170327

>  <Genealogy>  (47) 
CCOC(=O)n1c(C([NH-])=O)cc2ccc(CC3(C(=O)NC4CCC4)CCC3)cc21 (protonated)
CCOC(=O)n1c(C([NH-])=O)cc2ccc(CC3(C(=O)NC4CCC4)CCC3)cc21 (3D coordinates assigned)
CCOC(=O)n1c(C([NH-])=O)cc2ccc(CC3(C(=O)NC4CCC4)CCC3)cc21 (nonaromatic ring conformer: 212.33421151170327 kcal/mol)

>  <smiles>  (47) 
CCOC(=O)n1c(C(N)=O)cc2ccc(CC3(C(=O)NC4CCC4)CCC3)cc21

>  <score_type>  (47) 
oracle

>  <origin>  (47) 
adg

>  <m_score__min__energy>  (47) 
-12.19

>  <m_primary>  (47) 
energy

$$$$
47:0
     RDKit          3D

 41 43  0  0  0  0  0  0  0  0999 V2000
   -7.3960   13.0750  -34.7300 C   0  0  0  0  0  0  0  0  0  0  0  0
   -6.0070   13.3560  -34.8500 O   0  0  0  0  0  0  0  0  0  0  0  0
   -5.2760   13.9960  -33.8440 C   0  0  0  0  0  0  0  0  0  0  0  0
   -4.3270   13.3910  -33.2720 O   0  0  0  0  0  0  0  0  0  0  0  0
   -5.6150   15.3820  -33.4510 C   0  0  0  0  0  0  0  0  0  0  0  0
   -6.2200   16.2510  -34.3730 C   0  0  0  0  0  0  0  0  0  0  0  0
   -6.5370   17.5640  -34.0100 C   0  0  0  0  0  0  0  0  0  0  0  0
   -6.2540   18.0350  -32.7160 C   0  0  0  0  0  0  0  0  0  0  0  0
   -6.5810   19.4330  -32.3340 C   0  0  0  0  0  0  0  0  0  0  0  0
   -7.9260   19.8860  -32.3590 C   0  0  0  0  0  0  0  0  0  0  0  0
   -8.2470   21.2080  -32.0050 C   0  0  0  0  0  0  0  0  0  0  0  0
   -7.2080   22.0530  -31.6280 C   0  0  0  0  0  0  0  0  0  0  0  0
   -7.2350   23.3760  -31.2480 C   0  0  0  0  0  0  0  0  0  0  0  0
   -5.9080   23.7120  -30.9840 C   0  0  0  0  0  0  0  0  0  0  0  0
   -5.4670   25.0220  -30.4510 C   0  0  0  0  0  0  0  0  0  0  0  0
   -4.1460   25.5080  -30.6970 N   0  0  0  0  0  0  0  0  0  0  0  0
   -6.2680   25.7320  -29.7860 O   0  0  0  0  0  0  0  0  0  0  0  0
   -5.0970   22.6380  -31.2000 N   0  0  0  0  0  0  0  0  0  0  0  0
   -3.6640   22.5780  -31.1040 C   0  0  0  0  0  0  0  0  0  0  0  0
   -2.8600   21.8060  -32.1020 C   0  0  0  0  0  0  0  0  0  0  0  0
   -3.0790   23.1260  -30.1320 O   0  0  0  0  0  0  0  0  0  0  0  0
   -5.9070   21.6310  -31.5870 C   0  0  0  0  0  0  0  0  0  0  0  0
   -5.5550   20.3250  -31.9440 C   0  0  0  0  0  0  0  0  0  0  0  0
   -5.6530   17.1630  -31.7930 C   0  0  0  0  0  0  0  0  0  0  0  0
   -5.3350   15.8510  -32.1560 C   0  0  0  0  0  0  0  0  0  0  0  0
   -7.6683   13.0199  -33.6657 H   0  0  0  0  0  0  0  0  0  0  0  0
   -7.9751   13.8742  -35.2158 H   0  0  0  0  0  0  0  0  0  0  0  0
   -7.6189   12.1136  -35.2158 H   0  0  0  0  0  0  0  0  0  0  0  0
   -6.4466   15.8963  -35.3893 H   0  0  0  0  0  0  0  0  0  0  0  0
   -7.0115   18.2333  -34.7427 H   0  0  0  0  0  0  0  0  0  0  0  0
   -8.7268   19.1942  -32.6590 H   0  0  0  0  0  0  0  0  0  0  0  0
   -9.2878   21.5635  -32.0254 H   0  0  0  0  0  0  0  0  0  0  0  0
   -8.1165   24.0293  -31.1694 H   0  0  0  0  0  0  0  0  0  0  0  0
   -3.8650   26.4540  -30.3500 H   0  0  0  0  0  0  0  0  0  0  0  0
   -3.4430   24.9420  -31.2210 H   0  0  0  0  0  0  0  0  0  0  0  0
   -2.1640   21.1377  -31.5739 H   0  0  0  0  0  0  0  0  0  0  0  0
   -3.5345   21.2085  -32.7329 H   0  0  0  0  0  0  0  0  0  0  0  0
   -2.2904   22.5042  -32.7329 H   0  0  0  0  0  0  0  0  0  0  0  0
   -4.5045   19.9993  -31.9219 H   0  0  0  0  0  0  0  0  0  0  0  0
   -5.4306   17.5159  -30.7752 H   0  0  0  0  0  0  0  0  0  0  0  0
   -4.8623   15.1809  -31.4229 H   0  0  0  0  0  0  0  0  0  0  0  0
  1  2  1  0
  2  3  1  0
  3  4  2  0
  3  5  1  0
  5  6  2  0
  6  7  1  0
  7  8  2  0
  8  9  1  0
  9 10  2  0
 10 11  1  0
 11 12  2  0
 12 13  1  0
 13 14  2  0
 14 15  1  0
 15 16  1  0
 15 17  2  0
 14 18  1  0
 18 19  1  0
 19 20  1  0
 19 21  2  0
 18 22  1  0
 22 23  2  0
  8 24  1  0
 24 25  2  0
 25  5  1  0
 23  9  1  0
 22 12  1  0
  1 26  1  0
  1 27  1  0
  1 28  1  0
  6 29  1  0
  7 30  1  0
 10 31  1  0
 11 32  1  0
 13 33  1  0
 16 34  1  0
 16 35  1  0
 20 36  1  0
 20 37  1  0
 20 38  1  0
 23 39  1  0
 24 40  1  0
 25 41  1  0
M  END
>  <UniqueID>  (48) 
48

>  <SMILES>  (48) 
COC(=O)c1ccc(-c2ccc3cc(C(N)=O)n(C(C)=O)c3c2)cc1

>  <Energy>  (48) 
85.67928415710554

>  <Genealogy>  (48) 
COC(=O)c1ccc(-c2ccc3cc(C(N)=O)n(C(C)=O)c3c2)cc1 (3D coordinates assigned)
COC(=O)c1ccc(-c2ccc3cc(C(N)=O)n(C(C)=O)c3c2)cc1 (optimized conformer: 85.67928415710554 kcal/mol)

>  <smiles>  (48) 
COC(=O)c1ccc(-c2ccc3cc(C(N)=O)n(C(C)=O)c3c2)cc1

>  <score_type>  (48) 
oracle

>  <origin>  (48) 
adg

>  <m_score__min__energy>  (48) 
-8.7200000000000006

>  <m_primary>  (48) 
energy

$$$$
48:0
     RDKit          3D

 46 48  0  0  0  0  0  0  0  0999 V2000
   -3.0720   20.0740  -32.4130 C   0  0  0  0  0  0  0  0  0  0  0  0
   -2.9330   21.1600  -33.4680 C   0  0  0  0  0  0  0  0  0  0  0  0
   -3.8510   22.2110  -33.1920 O   0  0  0  0  0  0  0  0  0  0  0  0
   -4.1130   22.6670  -31.8970 C   0  0  0  0  0  0  0  0  0  0  0  0
   -3.1710   22.8060  -31.0700 O   0  0  0  0  0  0  0  0  0  0  0  0
   -5.4580   22.9970  -31.5150 N   0  0  0  0  0  0  0  0  0  0  0  0
   -5.8890   24.1200  -30.8740 C   0  0  0  0  0  0  0  0  0  0  0  0
   -5.0790   25.3230  -30.5920 C   0  0  0  0  0  0  0  0  0  0  0  0
   -3.6650   25.2360  -30.4360 N   0  0  0  0  0  0  0  0  0  0  0  0
   -5.6370   26.4530  -30.5380 O   0  0  0  0  0  0  0  0  0  0  0  0
   -7.2470   24.0230  -30.5760 C   0  0  0  0  0  0  0  0  0  0  0  0
   -7.6410   22.7990  -31.0670 C   0  0  0  0  0  0  0  0  0  0  0  0
   -8.8870   22.1820  -31.0330 C   0  0  0  0  0  0  0  0  0  0  0  0
   -9.0000   20.8960  -31.5870 C   0  0  0  0  0  0  0  0  0  0  0  0
   -7.8720   20.2520  -32.1550 C   0  0  0  0  0  0  0  0  0  0  0  0
   -7.9970   18.8530  -32.7100 C   0  0  0  0  0  0  0  0  0  0  0  0
   -6.6190   18.1950  -33.0000 C   0  0  0  0  0  0  0  0  0  0  0  0
   -5.7680   18.3550  -31.8870 O   0  0  0  0  0  0  0  0  0  0  0  0
   -5.9760   18.8550  -34.2420 C   0  0  0  0  0  0  0  0  0  0  0  0
   -4.6470   18.1580  -34.6260 C   0  0  0  0  0  0  0  0  0  0  0  0
   -4.4460   16.9270  -33.9510 O   0  0  0  0  0  0  0  0  0  0  0  0
   -5.5910   16.1090  -34.0830 C   0  0  0  0  0  0  0  0  0  0  0  0
   -6.7780   16.6790  -33.2810 C   0  0  0  0  0  0  0  0  0  0  0  0
   -6.6240   20.9120  -32.1710 C   0  0  0  0  0  0  0  0  0  0  0  0
   -6.5440   22.1990  -31.6290 C   0  0  0  0  0  0  0  0  0  0  0  0
   -3.0142   20.5259  -31.4118 H   0  0  0  0  0  0  0  0  0  0  0  0
   -4.0421   19.5692  -32.5320 H   0  0  0  0  0  0  0  0  0  0  0  0
   -2.2603   19.3412  -32.5320 H   0  0  0  0  0  0  0  0  0  0  0  0
   -1.9070   21.5563  -33.4530 H   0  0  0  0  0  0  0  0  0  0  0  0
   -3.1487   20.7365  -34.4600 H   0  0  0  0  0  0  0  0  0  0  0  0
   -3.0560   24.9170  -31.2230 H   0  0  0  0  0  0  0  0  0  0  0  0
   -7.8711   24.7664  -30.0585 H   0  0  0  0  0  0  0  0  0  0  0  0
   -9.7570   22.6854  -30.5862 H   0  0  0  0  0  0  0  0  0  0  0  0
   -9.9734   20.3837  -31.5800 H   0  0  0  0  0  0  0  0  0  0  0  0
   -8.5363   18.2320  -31.9796 H   0  0  0  0  0  0  0  0  0  0  0  0
   -8.5384   18.9226  -33.6650 H   0  0  0  0  0  0  0  0  0  0  0  0
   -4.9440   17.8250  -32.0520 H   0  0  0  0  0  0  0  0  0  0  0  0
   -6.6754   18.7836  -35.0880 H   0  0  0  0  0  0  0  0  0  0  0  0
   -5.7597   19.9067  -34.0031 H   0  0  0  0  0  0  0  0  0  0  0  0
   -4.6533   17.9658  -35.7091 H   0  0  0  0  0  0  0  0  0  0  0  0
   -3.8281   18.8303  -34.3302 H   0  0  0  0  0  0  0  0  0  0  0  0
   -5.8703   16.0512  -35.1454 H   0  0  0  0  0  0  0  0  0  0  0  0
   -5.3526   15.1096  -33.6901 H   0  0  0  0  0  0  0  0  0  0  0  0
   -7.7027   16.5200  -33.8551 H   0  0  0  0  0  0  0  0  0  0  0  0
   -6.8138   16.1575  -32.3131 H   0  0  0  0  0  0  0  0  0  0  0  0
   -5.7354   20.4255  -32.5997 H   0  0  0  0  0  0  0  0  0  0  0  0
  1  2  1  0
  2  3  1  0
  3  4  1  0
  4  5  2  0
  4  6  1  0
  6  7  1  0
  7  8  1  0
  8  9  1  0
  8 10  2  0
  7 11  2  0
 11 12  1  0
 12 13  2  0
 13 14  1  0
 14 15  2  0
 15 16  1  0
 16 17  1  0
 17 18  1  0
 17 19  1  0
 19 20  1  0
 20 21  1  0
 21 22  1  0
 22 23  1  0
 15 24  1  0
 24 25  2  0
 25  6  1  0
 25 12  1  0
 23 17  1  0
  1 26  1  0
  1 27  1  0
  1 28  1  0
  2 29  1  0
  2 30  1  0
  9 31  1  0
 11 32  1  0
 13 33  1  0
 14 34  1  0
 16 35  1  0
 16 36  1  0
 18 37  1  0
 19 38  1  0
 19 39  1  0
 20 40  1  0
 20 41  1  0
 22 42  1  0
 22 43  1  0
 23 44  1  0
 23 45  1  0
 24 46  1  0
M  CHG  1   9  -1
M  END
>  <UniqueID>  (49) 
49

>  <SMILES>  (49) 
CCOC(=O)n1c(C([NH-])=O)cc2ccc(CC3(O)CCOCC3)cc21

>  <Energy>  (49) 
88.13990722883452

>  <Genealogy>  (49) 
CCOC(=O)n1c(C([NH-])=O)cc2ccc(CC3(O)CCOCC3)cc21 (protonated)
CCOC(=O)n1c(C([NH-])=O)cc2ccc(CC3(O)CCOCC3)cc21 (3D coordinates assigned)
CCOC(=O)n1c(C([NH-])=O)cc2ccc(CC3(O)CCOCC3)cc21 (nonaromatic ring conformer: 88.13990722883452 kcal/mol)

>  <smiles>  (49) 
CCOC(=O)n1c(C(N)=O)cc2ccc(CC3(O)CCOCC3)cc21

>  <score_type>  (49) 
oracle

>  <origin>  (49) 
adg

>  <m_score__min__energy>  (49) 
-10.83

>  <m_primary>  (49) 
energy

$$$$
49:0
     RDKit          3D

 30 31  0  0  0  0  0  0  0  0999 V2000
   -1.5590   25.8820  -28.9340 N   0  0  0  0  0  0  0  0  0  0  0  0
   -1.0010   24.5710  -28.9320 C   0  0  0  0  0  0  0  0  0  0  0  0
    0.0280   24.3390  -28.2430 O   0  0  0  0  0  0  0  0  0  0  0  0
   -1.5760   23.4990  -29.7720 C   0  0  0  0  0  0  0  0  0  0  0  0
   -0.8650   22.3650  -30.1560 C   0  0  0  0  0  0  0  0  0  0  0  0
   -1.7080   21.6730  -30.9950 C   0  0  0  0  0  0  0  0  0  0  0  0
   -1.5170   20.4660  -31.6590 C   0  0  0  0  0  0  0  0  0  0  0  0
   -2.5730   19.9680  -32.4400 C   0  0  0  0  0  0  0  0  0  0  0  0
   -3.8040   20.6740  -32.5350 C   0  0  0  0  0  0  0  0  0  0  0  0
   -4.9050   20.1800  -33.3230 N   0  0  0  0  0  0  0  0  0  0  0  0
   -5.7830   19.0770  -32.9340 C   0  0  0  0  0  0  0  0  0  0  0  0
   -6.1120   18.1960  -34.1410 C   0  0  0  0  0  0  0  0  0  0  0  0
   -5.9770   18.9300  -35.3270 O   0  0  0  0  0  0  0  0  0  0  0  0
   -3.9530   21.8980  -31.8460 C   0  0  0  0  0  0  0  0  0  0  0  0
   -2.8780   22.3800  -31.0910 C   0  0  0  0  0  0  0  0  0  0  0  0
   -2.8140   23.5050  -30.3420 N   0  0  0  0  0  0  0  0  0  0  0  0
   -3.8780   24.4460  -30.1220 C   0  0  0  0  0  0  0  0  0  0  0  0
   -4.8130   24.1740  -29.3240 O   0  0  0  0  0  0  0  0  0  0  0  0
   -3.8690   25.6760  -30.7670 O   0  0  0  0  0  0  0  0  0  0  0  0
   -2.5920   26.0260  -28.9610 H   0  0  0  0  0  0  0  0  0  0  0  0
    0.1540   22.0824  -29.8530 H   0  0  0  0  0  0  0  0  0  0  0  0
   -0.5672   19.9176  -31.5751 H   0  0  0  0  0  0  0  0  0  0  0  0
   -2.4464   19.0207  -32.9846 H   0  0  0  0  0  0  0  0  0  0  0  0
   -5.0920   20.6310  -34.2480 H   0  0  0  0  0  0  0  0  0  0  0  0
   -5.2799   18.4677  -32.1687 H   0  0  0  0  0  0  0  0  0  0  0  0
   -6.7194   19.4942  -32.5350 H   0  0  0  0  0  0  0  0  0  0  0  0
   -5.4230   17.3388  -34.1638 H   0  0  0  0  0  0  0  0  0  0  0  0
   -7.1497   17.8415  -34.0544 H   0  0  0  0  0  0  0  0  0  0  0  0
   -6.8560   19.3590  -35.4990 H   0  0  0  0  0  0  0  0  0  0  0  0
   -4.8960   22.4615  -31.9019 H   0  0  0  0  0  0  0  0  0  0  0  0
  1  2  1  0
  2  3  2  0
  2  4  1  0
  4  5  2  0
  5  6  1  0
  6  7  2  0
  7  8  1  0
  8  9  2  0
  9 10  1  0
 10 11  1  0
 11 12  1  0
 12 13  1  0
  9 14  1  0
 14 15  2  0
 15 16  1  0
 16 17  1  0
 17 18  2  0
 17 19  1  0
 16  4  1  0
 15  6  1  0
  1 20  1  0
  5 21  1  0
  7 22  1  0
  8 23  1  0
 10 24  1  0
 11 25  1  0
 11 26  1  0
 12 27  1  0
 12 28  1  0
 13 29  1  0
 14 30  1  0
M  CHG  2   1  -1  19  -1
M  END
>  <UniqueID>  (50) 
50

>  <SMILES>  (50) 
[NH-]C(=O)c1cc2ccc(NCCO)cc2n1C(=O)[O-]

>  <Energy>  (50) 
67.86536738754535

>  <Genealogy>  (50) 
[NH-]C(=O)c1cc2ccc(NCCO)cc2n1C(=O)[O-] (protonated)
[NH-]C(=O)c1cc2ccc(NCCO)cc2n1C(=O)[O-] (3D coordinates assigned)
[NH-]C(=O)c1cc2ccc(NCCO)cc2n1C(=O)[O-] (optimized conformer: 67.86536738754535 kcal/mol)

>  <smiles>  (50) 
NC(=O)c1cc2ccc(NCCO)cc2n1C(=O)O

>  <score_type>  (50) 
oracle

>  <origin>  (50) 
adg

>  <m_score__min__energy>  (50) 
-9.9000000000000004

>  <m_primary>  (50) 
energy

$$$$
50:0
     RDKit          3D

 54 57  0  0  0  0  0  0  0  0999 V2000
   -1.5320   22.4780  -29.3780 C   0  0  0  0  0  0  0  0  0  0  0  0
   -3.0390   22.1380  -29.4820 C   0  0  0  0  0  0  0  0  0  0  0  0
   -3.1680   20.6000  -29.4900 C   0  0  0  0  0  0  0  0  0  0  0  0
   -3.7470   22.6050  -28.3230 O   0  0  0  0  0  0  0  0  0  0  0  0
   -3.5500   23.8240  -27.6670 C   0  0  0  0  0  0  0  0  0  0  0  0
   -4.6180   24.7580  -27.6120 N   0  0  0  0  0  0  0  0  0  0  0  0
   -2.4340   24.1100  -27.1370 O   0  0  0  0  0  0  0  0  0  0  0  0
   -3.6990   22.7130  -30.7390 C   0  0  0  0  0  0  0  0  0  0  0  0
   -2.9920   22.9730  -31.7550 O   0  0  0  0  0  0  0  0  0  0  0  0
   -5.1270   22.8240  -30.8590 N   0  0  0  0  0  0  0  0  0  0  0  0
   -5.9030   23.9240  -30.6500 C   0  0  0  0  0  0  0  0  0  0  0  0
   -5.4030   25.2680  -30.2830 C   0  0  0  0  0  0  0  0  0  0  0  0
   -4.1010   25.6780  -30.6860 N   0  0  0  0  0  0  0  0  0  0  0  0
   -6.1120   26.0520  -29.6030 O   0  0  0  0  0  0  0  0  0  0  0  0
   -7.2320   23.6480  -30.9640 C   0  0  0  0  0  0  0  0  0  0  0  0
   -7.2350   22.3490  -31.4250 C   0  0  0  0  0  0  0  0  0  0  0  0
   -8.2680   21.5920  -31.9700 C   0  0  0  0  0  0  0  0  0  0  0  0
   -7.9670   20.3100  -32.4650 C   0  0  0  0  0  0  0  0  0  0  0  0
   -6.6330   19.8170  -32.4190 C   0  0  0  0  0  0  0  0  0  0  0  0
   -6.3070   18.4950  -32.9900 C   0  0  0  0  0  0  0  0  0  0  0  0
   -7.2190   17.4370  -33.0470 C   0  0  0  0  0  0  0  0  0  0  0  0
   -6.4620   16.1340  -33.7870 S   0  0  0  0  0  0  0  0  0  0  0  0
   -5.0090   16.9600  -34.0090 C   0  0  0  0  0  0  0  0  0  0  0  0
   -3.8060   16.3950  -34.5750 N   0  0  0  0  0  0  0  0  0  0  0  0
   -2.5260   17.0750  -34.3060 C   0  0  0  0  0  0  0  0  0  0  0  0
   -1.4330   16.5960  -35.2580 C   0  0  0  0  0  0  0  0  0  0  0  0
   -1.4090   15.1810  -35.3310 O   0  0  0  0  0  0  0  0  0  0  0  0
   -2.6020   14.7340  -35.9480 C   0  0  0  0  0  0  0  0  0  0  0  0
   -3.8070   15.0030  -35.0530 C   0  0  0  0  0  0  0  0  0  0  0  0
   -5.0830   18.2210  -33.5240 N   0  0  0  0  0  0  0  0  0  0  0  0
   -5.6120   20.6110  -31.8430 C   0  0  0  0  0  0  0  0  0  0  0  0
   -5.9530   21.8820  -31.3590 C   0  0  0  0  0  0  0  0  0  0  0  0
   -1.2431   22.5432  -28.3186 H   0  0  0  0  0  0  0  0  0  0  0  0
   -0.9435   21.6901  -29.8707 H   0  0  0  0  0  0  0  0  0  0  0  0
   -1.3388   23.4423  -29.8707 H   0  0  0  0  0  0  0  0  0  0  0  0
   -3.1991   20.2293  -28.4548 H   0  0  0  0  0  0  0  0  0  0  0  0
   -4.0934   20.3124  -30.0104 H   0  0  0  0  0  0  0  0  0  0  0  0
   -2.3034   20.1622  -30.0104 H   0  0  0  0  0  0  0  0  0  0  0  0
   -5.5220   24.5450  -28.1000 H   0  0  0  0  0  0  0  0  0  0  0  0
   -4.5420   25.6050  -27.0120 H   0  0  0  0  0  0  0  0  0  0  0  0
   -3.3450   24.9800  -30.8820 H   0  0  0  0  0  0  0  0  0  0  0  0
   -8.0950   24.3229  -30.8651 H   0  0  0  0  0  0  0  0  0  0  0  0
   -9.2940   21.9862  -32.0126 H   0  0  0  0  0  0  0  0  0  0  0  0
   -8.7669   19.6856  -32.8897 H   0  0  0  0  0  0  0  0  0  0  0  0
   -8.2530   17.4551  -32.6721 H   0  0  0  0  0  0  0  0  0  0  0  0
   -2.6624   18.1591  -34.4334 H   0  0  0  0  0  0  0  0  0  0  0  0
   -2.2175   16.8400  -33.2766 H   0  0  0  0  0  0  0  0  0  0  0  0
   -1.6247   17.0050  -36.2610 H   0  0  0  0  0  0  0  0  0  0  0  0
   -0.4606   16.9445  -34.8797 H   0  0  0  0  0  0  0  0  0  0  0  0
   -2.7356   15.2648  -36.9021 H   0  0  0  0  0  0  0  0  0  0  0  0
   -2.5255   13.6503  -36.1208 H   0  0  0  0  0  0  0  0  0  0  0  0
   -4.7285   14.8193  -35.6249 H   0  0  0  0  0  0  0  0  0  0  0  0
   -3.7548   14.3325  -34.1825 H   0  0  0  0  0  0  0  0  0  0  0  0
   -4.5784   20.2405  -31.7769 H   0  0  0  0  0  0  0  0  0  0  0  0
  1  2  1  0
  2  3  1  0
  2  4  1  0
  4  5  1  0
  5  6  1  0
  5  7  2  0
  2  8  1  0
  8  9  2  0
  8 10  1  0
 10 11  1  0
 11 12  1  0
 12 13  1  0
 12 14  2  0
 11 15  2  0
 15 16  1  0
 16 17  2  0
 17 18  1  0
 18 19  2  0
 19 20  1  0
 20 21  2  0
 21 22  1  0
 22 23  1  0
 23 24  1  0
 24 25  1  0
 25 26  1  0
 26 27  1  0
 27 28  1  0
 28 29  1  0
 23 30  2  0
 19 31  1  0
 31 32  2  0
 32 10  1  0
 32 16  1  0
 30 20  1  0
 29 24  1  0
  1 33  1  0
  1 34  1  0
  1 35  1  0
  3 36  1  0
  3 37  1  0
  3 38  1  0
  6 39  1  0
  6 40  1  0
 13 41  1  0
 15 42  1  0
 17 43  1  0
 18 44  1  0
 21 45  1  0
 25 46  1  0
 25 47  1  0
 26 48  1  0
 26 49  1  0
 28 50  1  0
 28 51  1  0
 29 52  1  0
 29 53  1  0
 31 54  1  0
M  CHG  1  13  -1
M  END
>  <UniqueID>  (51) 
51

>  <SMILES>  (51) 
CC(C)(OC(N)=O)C(=O)n1c(C([NH-])=O)cc2ccc(-c3csc(N4CCOCC4)n3)cc21

>  <Energy>  (51) 
131.69208853367402

>  <Genealogy>  (51) 
CC(C)(OC(N)=O)C(=O)n1c(C([NH-])=O)cc2ccc(-c3csc(N4CCOCC4)n3)cc21 (protonated)
CC(C)(OC(N)=O)C(=O)n1c(C([NH-])=O)cc2ccc(-c3csc(N4CCOCC4)n3)cc21 (3D coordinates assigned)
CC(C)(OC(N)=O)C(=O)n1c(C([NH-])=O)cc2ccc(-c3csc(N4CCOCC4)n3)cc21 (nonaromatic ring conformer: 131.69208853367402 kcal/mol)

>  <smiles>  (51) 
CC(C)(OC(N)=O)C(=O)n1c(C(N)=O)cc2ccc(-c3csc(N4CCOCC4)n3)cc21

>  <score_type>  (51) 
oracle

>  <origin>  (51) 
adg

>  <m_score__min__energy>  (51) 
-12

>  <m_primary>  (51) 
energy

$$$$
51:0
     RDKit          3D

 64 67  0  0  0  0  0  0  0  0999 V2000
   -2.4860   25.2970  -29.2650 N   0  0  0  0  0  0  0  0  0  0  0  0
   -1.5310   24.2370  -29.3170 C   0  0  0  0  0  0  0  0  0  0  0  0
   -0.4930   24.3060  -28.6010 O   0  0  0  0  0  0  0  0  0  0  0  0
   -1.7500   23.0490  -30.1730 C   0  0  0  0  0  0  0  0  0  0  0  0
   -0.7230   22.2040  -30.5930 C   0  0  0  0  0  0  0  0  0  0  0  0
   -1.3430   21.1890  -31.2870 C   0  0  0  0  0  0  0  0  0  0  0  0
   -0.8030   20.0740  -31.9240 C   0  0  0  0  0  0  0  0  0  0  0  0
   -1.6850   19.2000  -32.5800 C   0  0  0  0  0  0  0  0  0  0  0  0
   -3.0800   19.4570  -32.5970 C   0  0  0  0  0  0  0  0  0  0  0  0
   -3.9700   18.5680  -33.2950 N   0  0  0  0  0  0  0  0  0  0  0  0
   -5.0030   19.0920  -34.1950 C   0  0  0  0  0  0  0  0  0  0  0  0
   -6.3840   18.5180  -33.8220 C   0  0  0  0  0  0  0  0  0  0  0  0
   -6.3290   17.1930  -33.1690 N   0  0  0  0  0  0  0  0  0  0  0  0
   -5.1470   16.4160  -33.5640 C   0  0  0  0  0  0  0  0  0  0  0  0
   -3.8630   17.1190  -33.1010 C   0  0  0  0  0  0  0  0  0  0  0  0
   -3.5890   20.6010  -31.9440 C   0  0  0  0  0  0  0  0  0  0  0  0
   -2.6890   21.4410  -31.2810 C   0  0  0  0  0  0  0  0  0  0  0  0
   -2.9560   22.5750  -30.5990 N   0  0  0  0  0  0  0  0  0  0  0  0
   -4.2530   23.1430  -30.3880 C   0  0  0  0  0  0  0  0  0  0  0  0
   -4.7720   23.1040  -29.2400 O   0  0  0  0  0  0  0  0  0  0  0  0
   -4.9290   23.8020  -31.4680 N   0  0  0  0  0  0  0  0  0  0  0  0
   -6.2430   24.4350  -31.3010 C   0  0  2  0  0  0  0  0  0  0  0  0
   -6.1230   25.6750  -30.3860 C   0  0  0  0  0  0  0  0  0  0  0  0
   -5.7450   25.3170  -29.0190 N   0  0  0  0  0  0  0  0  0  0  0  0
   -7.2710   23.3820  -30.8100 C   0  0  0  0  0  0  0  0  0  0  0  0
   -7.8680   22.4930  -31.9410 C   0  0  0  0  0  0  0  0  0  0  0  0
   -9.2960   21.9760  -31.5810 C   0  0  0  0  0  0  0  0  0  0  0  0
   -9.5740   20.5740  -32.1310 C   0  0  0  0  0  0  0  0  0  0  0  0
   -8.5750   19.5440  -31.5740 C   0  0  0  0  0  0  0  0  0  0  0  0
   -7.1510   20.1060  -31.3970 C   0  0  0  0  0  0  0  0  0  0  0  0
   -6.9040   21.3250  -32.2920 C   0  0  0  0  0  0  0  0  0  0  0  0
   -3.5110   25.1020  -29.3040 H   0  0  0  0  0  0  0  0  0  0  0  0
    0.3549   22.3232  -30.4088 H   0  0  0  0  0  0  0  0  0  0  0  0
    0.2804   19.8841  -31.9135 H   0  0  0  0  0  0  0  0  0  0  0  0
   -1.2900   18.3067  -33.0860 H   0  0  0  0  0  0  0  0  0  0  0  0
   -5.0324   20.1886  -34.1132 H   0  0  0  0  0  0  0  0  0  0  0  0
   -4.7607   18.7956  -35.2263 H   0  0  0  0  0  0  0  0  0  0  0  0
   -6.8768   19.2218  -33.1351 H   0  0  0  0  0  0  0  0  0  0  0  0
   -6.9379   18.3858  -34.7631 H   0  0  0  0  0  0  0  0  0  0  0  0
   -6.3000   17.3320  -32.1300 H   0  0  0  0  0  0  0  0  0  0  0  0
   -5.1994   15.4181  -33.1042 H   0  0  0  0  0  0  0  0  0  0  0  0
   -5.1291   16.3276  -34.6603 H   0  0  0  0  0  0  0  0  0  0  0  0
   -3.7000   16.9081  -32.0338 H   0  0  0  0  0  0  0  0  0  0  0  0
   -3.0180   16.7427  -33.6964 H   0  0  0  0  0  0  0  0  0  0  0  0
   -4.6658   20.8255  -31.9566 H   0  0  0  0  0  0  0  0  0  0  0  0
   -4.4700   23.7990  -32.4080 H   0  0  0  0  0  0  0  0  0  0  0  0
   -6.6191   24.8083  -32.2650 H   0  0  0  0  0  0  0  0  0  0  0  0
   -5.3584   26.3486  -30.8003 H   0  0  0  0  0  0  0  0  0  0  0  0
   -7.1078   26.1636  -30.3477 H   0  0  0  0  0  0  0  0  0  0  0  0
   -6.0970   24.3550  -28.8150 H   0  0  0  0  0  0  0  0  0  0  0  0
   -4.6980   25.2640  -28.9820 H   0  0  0  0  0  0  0  0  0  0  0  0
   -6.7708   22.7250  -30.0833 H   0  0  0  0  0  0  0  0  0  0  0  0
   -8.1110   23.9418  -30.3729 H   0  0  0  0  0  0  0  0  0  0  0  0
   -7.9765   23.1208  -32.8377 H   0  0  0  0  0  0  0  0  0  0  0  0
   -9.3950   21.9502  -30.4858 H   0  0  0  0  0  0  0  0  0  0  0  0
  -10.0229   22.6625  -32.0396 H   0  0  0  0  0  0  0  0  0  0  0  0
  -10.5934   20.2737  -31.8469 H   0  0  0  0  0  0  0  0  0  0  0  0
   -9.4665   20.6038  -33.2253 H   0  0  0  0  0  0  0  0  0  0  0  0
   -8.9384   19.2003  -30.5943 H   0  0  0  0  0  0  0  0  0  0  0  0
   -8.5121   18.7245  -32.3051 H   0  0  0  0  0  0  0  0  0  0  0  0
   -7.0132   20.4020  -30.3466 H   0  0  0  0  0  0  0  0  0  0  0  0
   -6.4359   19.3210  -31.6841 H   0  0  0  0  0  0  0  0  0  0  0  0
   -5.8666   21.6643  -32.1558 H   0  0  0  0  0  0  0  0  0  0  0  0
   -7.0849   21.0295  -33.3360 H   0  0  0  0  0  0  0  0  0  0  0  0
  1  2  1  0
  2  3  2  0
  2  4  1  0
  4  5  2  0
  5  6  1  0
  6  7  2  0
  7  8  1  0
  8  9  2  0
  9 10  1  0
 10 11  1  0
 11 12  1  0
 12 13  1  0
 13 14  1  0
 14 15  1  0
  9 16  1  0
 16 17  2  0
 17 18  1  0
 18 19  1  0
 19 20  2  0
 19 21  1  0
 21 22  1  0
 22 23  1  0
 23 24  1  0
 22 25  1  0
 25 26  1  0
 26 27  1  0
 27 28  1  0
 28 29  1  0
 29 30  1  0
 30 31  1  0
 18  4  1  0
 31 26  1  0
 17  6  1  0
 15 10  1  0
  1 32  1  0
  5 33  1  0
  7 34  1  0
  8 35  1  0
 11 36  1  0
 11 37  1  0
 12 38  1  0
 12 39  1  0
 13 40  1  0
 14 41  1  0
 14 42  1  0
 15 43  1  0
 15 44  1  0
 16 45  1  0
 21 46  1  0
 22 47  1  6
 23 48  1  0
 23 49  1  0
 24 50  1  0
 24 51  1  0
 25 52  1  0
 25 53  1  0
 26 54  1  0
 27 55  1  0
 27 56  1  0
 28 57  1  0
 28 58  1  0
 29 59  1  0
 29 60  1  0
 30 61  1  0
 30 62  1  0
 31 63  1  0
 31 64  1  0
M  CHG  1   1  -1
M  END
>  <UniqueID>  (52) 
52

>  <SMILES>  (52) 
[NH-]C(=O)c1cc2ccc(N3CCNCC3)cc2n1C(=O)N[C@H](CN)CC1CCCCC1

>  <Energy>  (52) 
113.65012383624698

>  <Genealogy>  (52) 
[NH-]C(=O)c1cc2ccc(N3CCNCC3)cc2n1C(=O)N[C@H](CN)CC1CCCCC1 (protonated)
[NH-]C(=O)c1cc2ccc(N3CCNCC3)cc2n1C(=O)N[C@H](CN)CC1CCCCC1 (3D coordinates assigned)
[NH-]C(=O)c1cc2ccc(N3CCNCC3)cc2n1C(=O)N[C@H](CN)CC1CCCCC1 (nonaromatic ring conformer: 113.65012383624698 kcal/mol)

>  <smiles>  (52) 
NC[C@H](CC1CCCCC1)NC(=O)n1c(C(N)=O)cc2ccc(N3CCNCC3)cc21

>  <score_type>  (52) 
oracle

>  <origin>  (52) 
adg

>  <m_score__min__energy>  (52) 
-12.84

>  <m_primary>  (52) 
energy

$$$$
52:0
     RDKit          3D

 44 46  0  0  0  0  0  0  0  0999 V2000
   -6.8440   23.7830  -32.2470 C   0  0  0  0  0  0  0  0  0  0  0  0
   -7.1650   23.5580  -30.9700 C   0  0  0  0  0  0  0  0  0  0  0  0
   -6.5620   24.3650  -29.8600 C   0  0  0  0  0  0  0  0  0  0  0  0
   -5.2370   23.9140  -29.6010 O   0  0  0  0  0  0  0  0  0  0  0  0
   -4.1520   24.2590  -30.4120 C   0  0  0  0  0  0  0  0  0  0  0  0
   -4.1060   25.3910  -30.9660 O   0  0  0  0  0  0  0  0  0  0  0  0
   -3.0970   23.3100  -30.6330 N   0  0  0  0  0  0  0  0  0  0  0  0
   -1.8590   23.2950  -30.0620 C   0  0  0  0  0  0  0  0  0  0  0  0
   -1.2860   24.3570  -29.2110 C   0  0  0  0  0  0  0  0  0  0  0  0
   -2.0300   25.5470  -28.9640 N   0  0  0  0  0  0  0  0  0  0  0  0
   -0.1590   24.2090  -28.6680 O   0  0  0  0  0  0  0  0  0  0  0  0
   -1.1500   22.1640  -30.4640 C   0  0  0  0  0  0  0  0  0  0  0  0
   -1.9960   21.4840  -31.3100 C   0  0  0  0  0  0  0  0  0  0  0  0
   -1.8090   20.2840  -31.9900 C   0  0  0  0  0  0  0  0  0  0  0  0
   -2.8690   19.7990  -32.7750 C   0  0  0  0  0  0  0  0  0  0  0  0
   -4.0900   20.5140  -32.8600 C   0  0  0  0  0  0  0  0  0  0  0  0
   -5.2360   19.9730  -33.6700 C   0  0  0  0  0  0  0  0  0  0  0  0
   -6.4410   19.8930  -32.8480 N   0  0  0  0  0  0  0  0  0  0  0  0
   -7.3820   20.8250  -32.8440 N   0  0  0  0  0  0  0  0  0  0  0  0
   -8.3060   20.4660  -31.9290 C   0  0  0  0  0  0  0  0  0  0  0  0
   -9.4940   21.2970  -31.5760 C   0  0  0  0  0  0  0  0  0  0  0  0
   -7.9340   19.2870  -31.3080 C   0  0  0  0  0  0  0  0  0  0  0  0
   -6.7460   18.9590  -31.9220 C   0  0  0  0  0  0  0  0  0  0  0  0
   -5.9450   17.8190  -31.6080 N   0  0  0  0  0  0  0  0  0  0  0  0
   -4.2420   21.7290  -32.1570 C   0  0  0  0  0  0  0  0  0  0  0  0
   -3.1640   22.1970  -31.3960 C   0  0  0  0  0  0  0  0  0  0  0  0
   -7.3002   23.1772  -33.0438 H   0  0  0  0  0  0  0  0  0  0  0  0
   -6.1234   24.5741  -32.5018 H   0  0  0  0  0  0  0  0  0  0  0  0
   -7.8868   22.7640  -30.7280 H   0  0  0  0  0  0  0  0  0  0  0  0
   -6.5364   25.4253  -30.1516 H   0  0  0  0  0  0  0  0  0  0  0  0
   -7.1706   24.2451  -28.9516 H   0  0  0  0  0  0  0  0  0  0  0  0
   -2.9980   25.6630  -29.3380 H   0  0  0  0  0  0  0  0  0  0  0  0
   -0.1305   21.8762  -30.1678 H   0  0  0  0  0  0  0  0  0  0  0  0
   -0.8604   19.7321  -31.9152 H   0  0  0  0  0  0  0  0  0  0  0  0
   -2.7501   18.8559  -33.3285 H   0  0  0  0  0  0  0  0  0  0  0  0
   -5.4230   20.6392  -34.5251 H   0  0  0  0  0  0  0  0  0  0  0  0
   -4.9783   18.9654  -34.0283 H   0  0  0  0  0  0  0  0  0  0  0  0
   -9.5849   21.3606  -30.4816 H   0  0  0  0  0  0  0  0  0  0  0  0
   -9.3716   22.3075  -31.9931 H   0  0  0  0  0  0  0  0  0  0  0  0
  -10.4013   20.8356  -31.9931 H   0  0  0  0  0  0  0  0  0  0  0  0
   -8.4621   18.7411  -30.5124 H   0  0  0  0  0  0  0  0  0  0  0  0
   -5.1970   17.4860  -32.2540 H   0  0  0  0  0  0  0  0  0  0  0  0
   -6.1080   17.2910  -30.7210 H   0  0  0  0  0  0  0  0  0  0  0  0
   -5.1845   22.2941  -32.2060 H   0  0  0  0  0  0  0  0  0  0  0  0
  1  2  2  0
  2  3  1  0
  3  4  1  0
  4  5  1  0
  5  6  2  0
  5  7  1  0
  7  8  1  0
  8  9  1  0
  9 10  1  0
  9 11  2  0
  8 12  2  0
 12 13  1  0
 13 14  2  0
 14 15  1  0
 15 16  2  0
 16 17  1  0
 17 18  1  0
 18 19  1  0
 19 20  2  0
 20 21  1  0
 20 22  1  0
 22 23  2  0
 23 24  1  0
 16 25  1  0
 25 26  2  0
 26  7  1  0
 26 13  1  0
 23 18  1  0
  1 27  1  0
  1 28  1  0
  2 29  1  0
  3 30  1  0
  3 31  1  0
 10 32  1  0
 12 33  1  0
 14 34  1  0
 15 35  1  0
 17 36  1  0
 17 37  1  0
 21 38  1  0
 21 39  1  0
 21 40  1  0
 22 41  1  0
 24 42  1  0
 24 43  1  0
 25 44  1  0
M  CHG  1  10  -1
M  END
>  <UniqueID>  (53) 
53

>  <SMILES>  (53) 
C=CCOC(=O)n1c(C([NH-])=O)cc2ccc(Cn3nc(C)cc3N)cc21

>  <Energy>  (53) 
106.27500701111151

>  <Genealogy>  (53) 
C=CCOC(=O)n1c(C([NH-])=O)cc2ccc(Cn3nc(C)cc3N)cc21 (protonated)
C=CCOC(=O)n1c(C([NH-])=O)cc2ccc(Cn3nc(C)cc3N)cc21 (3D coordinates assigned)
C=CCOC(=O)n1c(C([NH-])=O)cc2ccc(Cn3nc(C)cc3N)cc21 (optimized conformer: 106.27500701111151 kcal/mol)

>  <smiles>  (53) 
C=CCOC(=O)n1c(C(N)=O)cc2ccc(Cn3nc(C)cc3N)cc21

>  <score_type>  (53) 
oracle

>  <origin>  (53) 
adg

>  <m_score__min__energy>  (53) 
-11.039999999999999

>  <m_primary>  (53) 
energy

$$$$
53:0
     RDKit          3D

 68 71  0  0  0  0  0  0  0  0999 V2000
   -0.6290   21.1840  -32.8400 C   0  0  0  0  0  0  0  0  0  0  0  0
   -2.1340   21.0340  -32.5410 C   0  0  0  0  0  0  0  0  0  0  0  0
   -2.3580   20.1300  -31.3140 C   0  0  0  0  0  0  0  0  0  0  0  0
   -2.8210   20.4020  -33.7600 C   0  0  0  0  0  0  0  0  0  0  0  0
   -2.7380   22.3200  -32.3360 O   0  0  0  0  0  0  0  0  0  0  0  0
   -3.4790   22.7230  -31.2150 C   0  0  0  0  0  0  0  0  0  0  0  0
   -2.9070   23.0050  -30.1270 O   0  0  0  0  0  0  0  0  0  0  0  0
   -4.9070   22.8320  -31.3180 N   0  0  0  0  0  0  0  0  0  0  0  0
   -5.6850   23.9320  -31.1000 C   0  0  0  0  0  0  0  0  0  0  0  0
   -5.2230   25.2350  -30.5750 C   0  0  0  0  0  0  0  0  0  0  0  0
   -3.8940   25.6730  -30.8390 N   0  0  0  0  0  0  0  0  0  0  0  0
   -6.0020   25.9840  -29.9280 O   0  0  0  0  0  0  0  0  0  0  0  0
   -7.0240   23.6380  -31.3510 C   0  0  0  0  0  0  0  0  0  0  0  0
   -7.0450   22.3140  -31.7240 C   0  0  0  0  0  0  0  0  0  0  0  0
   -8.1150   21.5020  -32.0810 C   0  0  0  0  0  0  0  0  0  0  0  0
   -7.8440   20.1690  -32.4310 C   0  0  0  0  0  0  0  0  0  0  0  0
   -6.5140   19.6720  -32.4290 C   0  0  0  0  0  0  0  0  0  0  0  0
   -6.2470   18.3010  -32.7930 N   0  0  0  0  0  0  0  0  0  0  0  0
   -6.1240   17.9200  -34.2100 C   0  0  0  0  0  0  0  0  0  0  0  0
   -6.6390   16.4930  -34.4250 C   0  0  0  0  0  0  0  0  0  0  0  0
   -5.9440   15.4510  -33.4950 C   0  0  0  0  0  0  0  0  0  0  0  0
   -5.0520   14.5050  -34.2180 N   0  0  2  0  0  0  0  0  0  0  0  0
   -5.7810   13.4460  -34.8790 C   0  0  0  0  0  0  0  0  0  0  0  0
   -7.0010   13.4690  -34.9570 O   0  0  0  0  0  0  0  0  0  0  0  0
   -4.1890   13.9310  -33.3080 O   0  0  0  0  0  0  0  0  0  0  0  0
   -2.8740   13.8580  -33.8320 C   0  0  0  0  0  0  0  0  0  0  0  0
   -2.1970   15.2010  -33.7610 C   0  0  0  0  0  0  0  0  0  0  0  0
   -2.4190   16.1660  -34.7580 C   0  0  0  0  0  0  0  0  0  0  0  0
   -1.8120   17.4230  -34.6660 C   0  0  0  0  0  0  0  0  0  0  0  0
   -0.9850   17.7250  -33.5800 C   0  0  0  0  0  0  0  0  0  0  0  0
   -0.7620   16.7700  -32.5840 C   0  0  0  0  0  0  0  0  0  0  0  0
   -1.3650   15.5110  -32.6720 C   0  0  0  0  0  0  0  0  0  0  0  0
   -5.2220   16.1040  -32.2880 C   0  0  0  0  0  0  0  0  0  0  0  0
   -6.0120   17.2980  -31.7420 C   0  0  0  0  0  0  0  0  0  0  0  0
   -5.4530   20.5330  -32.0590 C   0  0  0  0  0  0  0  0  0  0  0  0
   -5.7560   21.8510  -31.6960 C   0  0  0  0  0  0  0  0  0  0  0  0
   -0.0709   21.2396  -31.8937 H   0  0  0  0  0  0  0  0  0  0  0  0
   -0.2821   20.3160  -33.4198 H   0  0  0  0  0  0  0  0  0  0  0  0
   -0.4602   22.1034  -33.4198 H   0  0  0  0  0  0  0  0  0  0  0  0
   -2.2126   20.7167  -30.3949 H   0  0  0  0  0  0  0  0  0  0  0  0
   -3.3824   19.7299  -31.3354 H   0  0  0  0  0  0  0  0  0  0  0  0
   -1.6389   19.2979  -31.3354 H   0  0  0  0  0  0  0  0  0  0  0  0
   -3.5910   19.6936  -33.4206 H   0  0  0  0  0  0  0  0  0  0  0  0
   -3.2902   21.1908  -34.3664 H   0  0  0  0  0  0  0  0  0  0  0  0
   -2.0740   19.8688  -34.3664 H   0  0  0  0  0  0  0  0  0  0  0  0
   -3.0710   25.1530  -30.4590 H   0  0  0  0  0  0  0  0  0  0  0  0
   -7.8827   24.3205  -31.2683 H   0  0  0  0  0  0  0  0  0  0  0  0
   -9.1436   21.8917  -32.0892 H   0  0  0  0  0  0  0  0  0  0  0  0
   -8.6727   19.5016  -32.7102 H   0  0  0  0  0  0  0  0  0  0  0  0
   -6.7144   18.6151  -34.8250 H   0  0  0  0  0  0  0  0  0  0  0  0
   -5.0642   17.9650  -34.5014 H   0  0  0  0  0  0  0  0  0  0  0  0
   -7.7205   16.4761  -34.2247 H   0  0  0  0  0  0  0  0  0  0  0  0
   -6.4110   16.2125  -35.4639 H   0  0  0  0  0  0  0  0  0  0  0  0
   -6.7696   14.8472  -33.0903 H   0  0  0  0  0  0  0  0  0  0  0  0
   -4.5690   15.0550  -34.9720 H   0  0  0  0  0  0  0  0  0  0  0  0
   -5.2278   12.6037  -35.3201 H   0  0  0  0  0  0  0  0  0  0  0  0
   -2.2926   13.1293  -33.2480 H   0  0  0  0  0  0  0  0  0  0  0  0
   -2.9300   13.5457  -34.8852 H   0  0  0  0  0  0  0  0  0  0  0  0
   -3.0713   15.9326  -35.6124 H   0  0  0  0  0  0  0  0  0  0  0  0
   -1.9857   18.1752  -35.4496 H   0  0  0  0  0  0  0  0  0  0  0  0
   -0.5097   18.7145  -33.5093 H   0  0  0  0  0  0  0  0  0  0  0  0
   -0.1114   17.0089  -31.7298 H   0  0  0  0  0  0  0  0  0  0  0  0
   -1.1874   14.7616  -31.8866 H   0  0  0  0  0  0  0  0  0  0  0  0
   -5.1093   15.3548  -31.4905 H   0  0  0  0  0  0  0  0  0  0  0  0
   -4.2397   16.4650  -32.6267 H   0  0  0  0  0  0  0  0  0  0  0  0
   -6.9808   16.9437  -31.3600 H   0  0  0  0  0  0  0  0  0  0  0  0
   -5.4272   17.7657  -30.9362 H   0  0  0  0  0  0  0  0  0  0  0  0
   -4.4131   20.1744  -32.0567 H   0  0  0  0  0  0  0  0  0  0  0  0
  1  2  1  0
  2  3  1  0
  2  4  1  0
  2  5  1  0
  5  6  1  0
  6  7  2  0
  6  8  1  0
  8  9  1  0
  9 10  1  0
 10 11  1  0
 10 12  2  0
  9 13  2  0
 13 14  1  0
 14 15  2  0
 15 16  1  0
 16 17  2  0
 17 18  1  0
 18 19  1  0
 19 20  1  0
 20 21  1  0
 21 22  1  0
 22 23  1  0
 23 24  2  0
 22 25  1  0
 25 26  1  0
 26 27  1  0
 27 28  2  0
 28 29  1  0
 29 30  2  0
 30 31  1  0
 31 32  2  0
 21 33  1  0
 33 34  1  0
 17 35  1  0
 35 36  2  0
 36  8  1  0
 36 14  1  0
 34 18  1  0
 32 27  1  0
  1 37  1  0
  1 38  1  0
  1 39  1  0
  3 40  1  0
  3 41  1  0
  3 42  1  0
  4 43  1  0
  4 44  1  0
  4 45  1  0
 11 46  1  0
 13 47  1  0
 15 48  1  0
 16 49  1  0
 19 50  1  0
 19 51  1  0
 20 52  1  0
 20 53  1  0
 21 54  1  0
 22 55  1  6
 23 56  1  0
 26 57  1  0
 26 58  1  0
 28 59  1  0
 29 60  1  0
 30 61  1  0
 31 62  1  0
 32 63  1  0
 33 64  1  0
 33 65  1  0
 34 66  1  0
 34 67  1  0
 35 68  1  0
M  CHG  2  11  -1  22   1
M  END
>  <UniqueID>  (54) 
54

>  <SMILES>  (54) 
CC(C)(C)OC(=O)n1c(C([NH-])=O)cc2ccc(N3CCC([N@H+](C=O)OCc4ccccc4)CC3)cc21

>  <Energy>  (54) 
119.28067883986016

>  <Genealogy>  (54) 
CC(C)(C)OC(=O)n1c(C([NH-])=O)cc2ccc(N3CCC([NH+](C=O)OCc4ccccc4)CC3)cc21 (protonated)
CC(C)(C)OC(=O)n1c(C([NH-])=O)cc2ccc(N3CCC([N@H+](C=O)OCc4ccccc4)CC3)cc21 (chirality)
CC(C)(C)OC(=O)n1c(C([NH-])=O)cc2ccc(N3CCC([N@H+](C=O)OCc4ccccc4)CC3)cc21 (3D coordinates assigned)
CC(C)(C)OC(=O)n1c(C([NH-])=O)cc2ccc(N3CCC([N@H+](C=O)OCc4ccccc4)CC3)cc21 (nonaromatic ring conformer: 119.28067883986016 kcal/mol)

>  <smiles>  (54) 
CC(C)(C)OC(=O)n1c(C(N)=O)cc2ccc(N3CCC(N(C=O)OCc4ccccc4)CC3)cc21

>  <score_type>  (54) 
oracle

>  <origin>  (54) 
adg

>  <m_score__min__energy>  (54) 
-10.880000000000001

>  <m_primary>  (54) 
energy

$$$$
54:0
     RDKit          3D

 49 50  0  0  0  0  0  0  0  0999 V2000
   -3.0990   21.5480  -28.3650 C   0  0  0  0  0  0  0  0  0  0  0  0
   -2.8650   23.0600  -28.5010 C   0  0  0  0  0  0  0  0  0  0  0  0
   -1.4250   23.3820  -28.0560 C   0  0  0  0  0  0  0  0  0  0  0  0
   -3.8860   23.8030  -27.6190 C   0  0  0  0  0  0  0  0  0  0  0  0
   -3.0510   23.3930  -29.8840 O   0  0  0  0  0  0  0  0  0  0  0  0
   -3.5900   22.5600  -30.8770 C   0  0  0  0  0  0  0  0  0  0  0  0
   -2.8540   21.7730  -31.5290 O   0  0  0  0  0  0  0  0  0  0  0  0
   -5.0010   22.6080  -31.1470 N   0  0  0  0  0  0  0  0  0  0  0  0
   -5.8570   23.6330  -30.8740 C   0  0  0  0  0  0  0  0  0  0  0  0
   -5.4710   24.9770  -30.4010 C   0  0  0  0  0  0  0  0  0  0  0  0
   -4.1600   25.4950  -30.6340 N   0  0  0  0  0  0  0  0  0  0  0  0
   -6.3280   25.7020  -29.8290 O   0  0  0  0  0  0  0  0  0  0  0  0
   -7.1710   23.2660  -31.1470 C   0  0  0  0  0  0  0  0  0  0  0  0
   -7.0960   21.9730  -31.6130 C   0  0  0  0  0  0  0  0  0  0  0  0
   -8.1110   21.1100  -32.0190 C   0  0  0  0  0  0  0  0  0  0  0  0
   -7.7500   19.8110  -32.4160 C   0  0  0  0  0  0  0  0  0  0  0  0
   -6.3970   19.4060  -32.3910 C   0  0  0  0  0  0  0  0  0  0  0  0
   -6.0430   18.0680  -32.7860 C   0  0  0  0  0  0  0  0  0  0  0  0
   -5.7450   16.9480  -33.1160 C   0  0  0  0  0  0  0  0  0  0  0  0
   -5.2980   15.2620  -33.6130 Si  0  0  0  0  0  4  0  0  0  0  0  0
   -6.8150   14.3780  -34.2430 C   0  0  0  0  0  0  0  0  0  0  0  0
   -4.6080   14.3450  -32.1410 C   0  0  0  0  0  0  0  0  0  0  0  0
   -4.0110   15.3330  -34.9630 C   0  0  0  0  0  0  0  0  0  0  0  0
   -5.3930   20.3020  -31.9730 C   0  0  0  0  0  0  0  0  0  0  0  0
   -5.7760   21.5980  -31.6020 C   0  0  0  0  0  0  0  0  0  0  0  0
   -3.1408   21.2778  -27.2995 H   0  0  0  0  0  0  0  0  0  0  0  0
   -4.0495   21.2791  -28.8490 H   0  0  0  0  0  0  0  0  0  0  0  0
   -2.2743   21.0043  -28.8490 H   0  0  0  0  0  0  0  0  0  0  0  0
   -1.3746   23.3933  -26.9572 H   0  0  0  0  0  0  0  0  0  0  0  0
   -0.7403   22.6148  -28.4466 H   0  0  0  0  0  0  0  0  0  0  0  0
   -1.1323   24.3678  -28.4466 H   0  0  0  0  0  0  0  0  0  0  0  0
   -3.6489   23.6304  -26.5588 H   0  0  0  0  0  0  0  0  0  0  0  0
   -3.8407   24.8808  -27.8341 H   0  0  0  0  0  0  0  0  0  0  0  0
   -4.8976   23.4284  -27.8341 H   0  0  0  0  0  0  0  0  0  0  0  0
   -3.4850   24.9900  -31.2510 H   0  0  0  0  0  0  0  0  0  0  0  0
   -3.8870   26.4250  -30.2490 H   0  0  0  0  0  0  0  0  0  0  0  0
   -8.0759   23.8780  -31.0181 H   0  0  0  0  0  0  0  0  0  0  0  0
   -9.1619   21.4348  -32.0286 H   0  0  0  0  0  0  0  0  0  0  0  0
   -8.5258   19.1055  -32.7482 H   0  0  0  0  0  0  0  0  0  0  0  0
   -7.4158   14.0279  -33.3907 H   0  0  0  0  0  0  0  0  0  0  0  0
   -7.4141   15.0684  -34.8549 H   0  0  0  0  0  0  0  0  0  0  0  0
   -6.5097   13.5164  -34.8549 H   0  0  0  0  0  0  0  0  0  0  0  0
   -4.9642   14.8184  -31.2142 H   0  0  0  0  0  0  0  0  0  0  0  0
   -4.9442   13.2981  -32.1707 H   0  0  0  0  0  0  0  0  0  0  0  0
   -3.5089   14.3781  -32.1707 H   0  0  0  0  0  0  0  0  0  0  0  0
   -3.0092   15.3883  -34.5120 H   0  0  0  0  0  0  0  0  0  0  0  0
   -4.0832   14.4295  -35.5863 H   0  0  0  0  0  0  0  0  0  0  0  0
   -4.1821   16.2231  -35.5863 H   0  0  0  0  0  0  0  0  0  0  0  0
   -4.3379   19.9928  -31.9388 H   0  0  0  0  0  0  0  0  0  0  0  0
  1  2  1  0
  2  3  1  0
  2  4  1  0
  2  5  1  0
  5  6  1  0
  6  7  2  0
  6  8  1  0
  8  9  1  0
  9 10  1  0
 10 11  1  0
 10 12  2  0
  9 13  2  0
 13 14  1  0
 14 15  2  0
 15 16  1  0
 16 17  2  0
 17 18  1  0
 18 19  3  0
 19 20  1  0
 20 21  1  0
 20 22  1  0
 20 23  1  0
 17 24  1  0
 24 25  2  0
 25  8  1  0
 25 14  1  0
  1 26  1  0
  1 27  1  0
  1 28  1  0
  3 29  1  0
  3 30  1  0
  3 31  1  0
  4 32  1  0
  4 33  1  0
  4 34  1  0
 11 35  1  0
 11 36  1  0
 13 37  1  0
 15 38  1  0
 16 39  1  0
 21 40  1  0
 21 41  1  0
 21 42  1  0
 22 43  1  0
 22 44  1  0
 22 45  1  0
 23 46  1  0
 23 47  1  0
 23 48  1  0
 24 49  1  0
M  END
>  <UniqueID>  (55) 
55

>  <SMILES>  (55) 
CC(C)(C)OC(=O)n1c(C(N)=O)cc2ccc(C#C[Si](C)(C)C)cc21

>  <Energy>  (55) 
66.00630919351276

>  <Genealogy>  (55) 
CC(C)(C)OC(=O)n1c(C(N)=O)cc2ccc(C#C[Si](C)(C)C)cc21 (3D coordinates assigned)
CC(C)(C)OC(=O)n1c(C(N)=O)cc2ccc(C#C[Si](C)(C)C)cc21 (optimized conformer: 66.00630919351276 kcal/mol)

>  <smiles>  (55) 
CC(C)(C)OC(=O)n1c(C(N)=O)cc2ccc(C#C[Si](C)(C)C)cc21

>  <score_type>  (55) 
oracle

>  <origin>  (55) 
adg

>  <m_score__min__energy>  (55) 
-9.4700000000000006

>  <m_primary>  (55) 
energy

$$$$
55:0
     RDKit          3D

 43 46  0  0  0  0  0  0  0  0999 V2000
   -4.4560   25.3970  -30.8440 N   0  0  0  0  0  0  0  0  0  0  0  0
   -5.7270   24.9560  -30.3740 C   0  0  0  0  0  0  0  0  0  0  0  0
   -6.3440   25.6490  -29.5230 O   0  0  0  0  0  0  0  0  0  0  0  0
   -6.2850   23.6740  -30.8560 C   0  0  0  0  0  0  0  0  0  0  0  0
   -7.6510   23.4270  -30.9770 C   0  0  0  0  0  0  0  0  0  0  0  0
   -7.7470   22.1750  -31.5390 C   0  0  0  0  0  0  0  0  0  0  0  0
   -8.8730   21.4280  -31.8700 C   0  0  0  0  0  0  0  0  0  0  0  0
   -8.6780   20.1480  -32.4170 C   0  0  0  0  0  0  0  0  0  0  0  0
   -7.3710   19.6380  -32.6170 C   0  0  0  0  0  0  0  0  0  0  0  0
   -7.1850   18.2470  -33.1870 C   0  0  2  0  0  0  0  0  0  0  0  0
   -6.7340   17.2250  -32.1110 C   0  0  0  0  0  0  0  0  0  0  0  0
   -5.4110   16.7460  -32.6100 C   0  0  0  0  0  0  0  0  0  0  0  0
   -4.6970   15.9030  -32.0080 O   0  0  0  0  0  0  0  0  0  0  0  0
   -5.0300   17.3270  -33.8410 N   0  0  0  0  0  0  0  0  0  0  0  0
   -6.0760   18.2090  -34.1940 C   0  0  0  0  0  0  0  0  0  0  0  0
   -6.0690   18.8780  -35.2610 O   0  0  0  0  0  0  0  0  0  0  0  0
   -6.2510   20.4280  -32.2590 C   0  0  0  0  0  0  0  0  0  0  0  0
   -6.4760   21.7040  -31.7350 C   0  0  0  0  0  0  0  0  0  0  0  0
   -5.5650   22.6120  -31.3170 N   0  0  0  0  0  0  0  0  0  0  0  0
   -4.1380   22.4440  -31.3200 C   0  0  0  0  0  0  0  0  0  0  0  0
   -3.4840   22.6400  -32.3800 O   0  0  0  0  0  0  0  0  0  0  0  0
   -3.4800   22.0960  -30.1350 O   0  0  0  0  0  0  0  0  0  0  0  0
   -3.0780   23.0410  -29.1450 C   0  0  0  0  0  0  0  0  0  0  0  0
   -1.8670   23.8500  -29.6280 C   0  0  2  0  0  0  0  0  0  0  0  0
   -0.5580   23.4370  -28.8950 C   0  0  0  0  0  0  0  0  0  0  0  0
   -0.0790   24.6250  -28.2840 O   0  0  0  0  0  0  0  0  0  0  0  0
   -0.9480   25.6560  -28.5490 C   0  0  0  0  0  0  0  0  0  0  0  0
   -0.7820   26.8290  -28.1260 O   0  0  0  0  0  0  0  0  0  0  0  0
   -2.0470   25.2700  -29.3420 N   0  0  0  0  0  0  0  0  0  0  0  0
   -3.8660   26.0400  -30.2700 H   0  0  0  0  0  0  0  0  0  0  0  0
   -8.4772   24.0920  -30.6851 H   0  0  0  0  0  0  0  0  0  0  0  0
   -9.8853   21.8270  -31.7085 H   0  0  0  0  0  0  0  0  0  0  0  0
   -9.5492   19.5356  -32.6928 H   0  0  0  0  0  0  0  0  0  0  0  0
   -8.1655   17.9943  -33.6168 H   0  0  0  0  0  0  0  0  0  0  0  0
   -6.6307   17.7094  -31.1288 H   0  0  0  0  0  0  0  0  0  0  0  0
   -7.4571   16.4083  -31.9693 H   0  0  0  0  0  0  0  0  0  0  0  0
   -4.1580   17.1400  -34.3820 H   0  0  0  0  0  0  0  0  0  0  0  0
   -5.2279   20.0460  -32.3904 H   0  0  0  0  0  0  0  0  0  0  0  0
   -3.9129   23.7276  -28.9410 H   0  0  0  0  0  0  0  0  0  0  0  0
   -2.7985   22.4978  -28.2302 H   0  0  0  0  0  0  0  0  0  0  0  0
   -1.7886   23.6520  -30.7072 H   0  0  0  0  0  0  0  0  0  0  0  0
   -0.7679   22.6704  -28.1345 H   0  0  0  0  0  0  0  0  0  0  0  0
    0.1804   23.0057  -29.5869 H   0  0  0  0  0  0  0  0  0  0  0  0
  1  2  1  0
  2  3  2  0
  2  4  1  0
  4  5  2  0
  5  6  1  0
  6  7  2  0
  7  8  1  0
  8  9  2  0
  9 10  1  0
 10 11  1  0
 11 12  1  0
 12 13  2  0
 12 14  1  0
 14 15  1  0
 15 16  2  0
  9 17  1  0
 17 18  2  0
 18 19  1  0
 19 20  1  0
 20 21  2  0
 20 22  1  0
 22 23  1  0
 23 24  1  0
 24 25  1  0
 25 26  1  0
 26 27  1  0
 27 28  2  0
 27 29  1  0
 19  4  1  0
 29 24  1  0
 18  6  1  0
 15 10  1  0
  1 30  1  0
  5 31  1  0
  7 32  1  0
  8 33  1  0
 10 34  1  6
 11 35  1  0
 11 36  1  0
 14 37  1  0
 17 38  1  0
 23 39  1  0
 23 40  1  0
 24 41  1  6
 25 42  1  0
 25 43  1  0
M  CHG  2   1  -1  29  -1
M  END
>  <UniqueID>  (56) 
56

>  <SMILES>  (56) 
[NH-]C(=O)c1cc2ccc([C@@H]3CC(=O)NC3=O)cc2n1C(=O)OC[C@@H]1COC(=O)[N-]1

>  <Energy>  (56) 
109.39721824221024

>  <Genealogy>  (56) 
[NH-]C(=O)c1cc2ccc(C3CC(=O)NC3=O)cc2n1C(=O)OCC1COC(=O)[N-]1 (protonated)
[NH-]C(=O)c1cc2ccc([C@@H]3CC(=O)NC3=O)cc2n1C(=O)OC[C@@H]1COC(=O)[N-]1 (chirality)
[NH-]C(=O)c1cc2ccc([C@@H]3CC(=O)NC3=O)cc2n1C(=O)OC[C@@H]1COC(=O)[N-]1 (3D coordinates assigned)
[NH-]C(=O)c1cc2ccc([C@@H]3CC(=O)NC3=O)cc2n1C(=O)OC[C@@H]1COC(=O)[N-]1 (nonaromatic ring conformer: 109.39721824221024 kcal/mol)

>  <smiles>  (56) 
NC(=O)c1cc2ccc(C3CC(=O)NC3=O)cc2n1C(=O)OCC1COC(=O)N1

>  <score_type>  (56) 
oracle

>  <origin>  (56) 
adg

>  <m_score__min__energy>  (56) 
-13.640000000000001

>  <m_primary>  (56) 
energy

$$$$
56:0
     RDKit          3D

 35 36  0  0  0  0  0  0  0  0999 V2000
   -6.0440   18.3260  -34.1020 C   0  0  0  0  0  0  0  0  0  0  0  0
   -7.1030   18.4340  -33.0100 C   0  0  0  0  0  0  0  0  0  0  0  0
   -7.2230   19.8530  -32.5250 C   0  0  0  0  0  0  0  0  0  0  0  0
   -8.5010   20.4430  -32.3590 C   0  0  0  0  0  0  0  0  0  0  0  0
   -8.6260   21.7560  -31.8720 C   0  0  0  0  0  0  0  0  0  0  0  0
   -7.4610   22.4490  -31.5590 C   0  0  0  0  0  0  0  0  0  0  0  0
   -7.2870   23.7180  -31.0480 C   0  0  0  0  0  0  0  0  0  0  0  0
   -5.9080   23.8760  -30.9110 C   0  0  0  0  0  0  0  0  0  0  0  0
   -5.2610   25.1060  -30.4140 C   0  0  0  0  0  0  0  0  0  0  0  0
   -3.8570   25.2910  -30.5840 N   0  0  0  0  0  0  0  0  0  0  0  0
   -5.9340   25.9960  -29.8290 O   0  0  0  0  0  0  0  0  0  0  0  0
   -5.2600   22.7540  -31.3270 N   0  0  0  0  0  0  0  0  0  0  0  0
   -3.8490   22.4970  -31.3020 C   0  0  0  0  0  0  0  0  0  0  0  0
   -3.2410   22.3040  -32.3890 O   0  0  0  0  0  0  0  0  0  0  0  0
   -3.1300   22.4570  -30.0540 N   0  0  0  0  0  0  0  0  0  0  0  0
   -1.6670   22.4070  -30.0670 C   0  0  0  0  0  0  0  0  0  0  0  0
   -3.8670   22.4020  -28.7870 C   0  0  0  0  0  0  0  0  0  0  0  0
   -6.2200   21.8890  -31.7130 C   0  0  0  0  0  0  0  0  0  0  0  0
   -6.0630   20.5820  -32.1830 C   0  0  0  0  0  0  0  0  0  0  0  0
   -5.0506   18.2247  -33.6406 H   0  0  0  0  0  0  0  0  0  0  0  0
   -6.2499   17.4442  -34.7265 H   0  0  0  0  0  0  0  0  0  0  0  0
   -6.0677   19.2312  -34.7265 H   0  0  0  0  0  0  0  0  0  0  0  0
   -8.0726   18.1070  -33.4136 H   0  0  0  0  0  0  0  0  0  0  0  0
   -6.8066   17.7951  -32.1651 H   0  0  0  0  0  0  0  0  0  0  0  0
   -9.4036   19.8682  -32.6136 H   0  0  0  0  0  0  0  0  0  0  0  0
   -9.6144   22.2210  -31.7425 H   0  0  0  0  0  0  0  0  0  0  0  0
   -8.0697   24.4503  -30.8009 H   0  0  0  0  0  0  0  0  0  0  0  0
   -3.4860   26.0370  -31.2130 H   0  0  0  0  0  0  0  0  0  0  0  0
   -1.2914   22.3942  -29.0332 H   0  0  0  0  0  0  0  0  0  0  0  0
   -1.3358   21.4970  -30.5888 H   0  0  0  0  0  0  0  0  0  0  0  0
   -1.2745   23.2923  -30.5888 H   0  0  0  0  0  0  0  0  0  0  0  0
   -3.1579   22.4549  -27.9477 H   0  0  0  0  0  0  0  0  0  0  0  0
   -4.5647   23.2506  -28.7315 H   0  0  0  0  0  0  0  0  0  0  0  0
   -4.4311   21.4593  -28.7315 H   0  0  0  0  0  0  0  0  0  0  0  0
   -5.0635   20.1338  -32.2837 H   0  0  0  0  0  0  0  0  0  0  0  0
  1  2  1  0
  2  3  1  0
  3  4  2  0
  4  5  1  0
  5  6  2  0
  6  7  1  0
  7  8  2  0
  8  9  1  0
  9 10  1  0
  9 11  2  0
  8 12  1  0
 12 13  1  0
 13 14  2  0
 13 15  1  0
 15 16  1  0
 15 17  1  0
 12 18  1  0
 18 19  2  0
 19  3  1  0
 18  6  1  0
  1 20  1  0
  1 21  1  0
  1 22  1  0
  2 23  1  0
  2 24  1  0
  4 25  1  0
  5 26  1  0
  7 27  1  0
 10 28  1  0
 16 29  1  0
 16 30  1  0
 16 31  1  0
 17 32  1  0
 17 33  1  0
 17 34  1  0
 19 35  1  0
M  CHG  1  10  -1
M  END
>  <UniqueID>  (57) 
57

>  <SMILES>  (57) 
CCc1ccc2cc(C([NH-])=O)n(C(=O)N(C)C)c2c1

>  <Energy>  (57) 
68.1825173494655

>  <Genealogy>  (57) 
CCc1ccc2cc(C([NH-])=O)n(C(=O)N(C)C)c2c1 (protonated)
CCc1ccc2cc(C([NH-])=O)n(C(=O)N(C)C)c2c1 (3D coordinates assigned)
CCc1ccc2cc(C([NH-])=O)n(C(=O)N(C)C)c2c1 (optimized conformer: 68.1825173494655 kcal/mol)

>  <smiles>  (57) 
CCc1ccc2cc(C(N)=O)n(C(=O)N(C)C)c2c1

>  <score_type>  (57) 
oracle

>  <origin>  (57) 
adg

>  <m_score__min__energy>  (57) 
-10.32

>  <m_primary>  (57) 
energy

$$$$
57:0
     RDKit          3D

 45 46  0  0  0  0  0  0  0  0999 V2000
   -3.8730   22.6860  -28.2040 C   0  0  0  0  0  0  0  0  0  0  0  0
   -3.1420   21.6020  -28.9820 C   0  0  0  0  0  0  0  0  0  0  0  0
   -3.7750   21.4110  -30.2420 O   0  0  0  0  0  0  0  0  0  0  0  0
   -4.1110   22.4730  -31.0870 C   0  0  0  0  0  0  0  0  0  0  0  0
   -3.2280   23.0210  -31.8000 O   0  0  0  0  0  0  0  0  0  0  0  0
   -5.4730   22.9260  -31.1560 N   0  0  0  0  0  0  0  0  0  0  0  0
   -5.9560   24.1610  -30.8390 C   0  0  0  0  0  0  0  0  0  0  0  0
   -5.1450   25.3560  -30.5280 C   0  0  0  0  0  0  0  0  0  0  0  0
   -3.7310   25.2660  -30.3850 N   0  0  0  0  0  0  0  0  0  0  0  0
   -5.7050   26.4820  -30.4340 O   0  0  0  0  0  0  0  0  0  0  0  0
   -7.3460   24.1790  -30.9270 C   0  0  0  0  0  0  0  0  0  0  0  0
   -7.7040   22.9090  -31.3180 C   0  0  0  0  0  0  0  0  0  0  0  0
   -8.9650   22.3630  -31.5380 C   0  0  0  0  0  0  0  0  0  0  0  0
   -9.0420   21.0070  -31.8990 C   0  0  0  0  0  0  0  0  0  0  0  0
   -7.8660   20.2290  -32.0330 C   0  0  0  0  0  0  0  0  0  0  0  0
   -7.9610   18.7630  -32.3720 C   0  0  0  0  0  0  0  0  0  0  0  0
   -6.6140   18.0770  -32.3510 C   0  0  0  0  0  0  0  0  0  0  0  0
   -6.1280   17.7130  -31.2420 O   0  0  0  0  0  0  0  0  0  0  0  0
   -5.8920   17.7790  -33.5690 N   0  0  0  0  0  0  0  0  0  0  0  0
   -6.1050   16.4770  -34.2110 C   0  0  0  0  0  0  0  0  0  0  0  0
   -4.9190   18.7090  -34.1640 C   0  0  0  0  0  0  0  0  0  0  0  0
   -3.9130   19.1930  -33.1160 C   0  0  0  0  0  0  0  0  0  0  0  0
   -3.6890   20.5710  -33.2380 O   0  0  0  0  0  0  0  0  0  0  0  0
   -6.6040   20.8140  -31.7890 C   0  0  0  0  0  0  0  0  0  0  0  0
   -6.5560   22.1710  -31.4490 C   0  0  0  0  0  0  0  0  0  0  0  0
   -3.7527   22.5075  -27.1253 H   0  0  0  0  0  0  0  0  0  0  0  0
   -3.4528   23.6693  -28.4621 H   0  0  0  0  0  0  0  0  0  0  0  0
   -4.9421   22.6649  -28.4621 H   0  0  0  0  0  0  0  0  0  0  0  0
   -2.0966   21.9059  -29.1396 H   0  0  0  0  0  0  0  0  0  0  0  0
   -3.1695   20.6613  -28.4125 H   0  0  0  0  0  0  0  0  0  0  0  0
   -3.1160   25.1010  -31.2120 H   0  0  0  0  0  0  0  0  0  0  0  0
   -8.0156   25.0283  -30.7265 H   0  0  0  0  0  0  0  0  0  0  0  0
   -9.8736   22.9740  -31.4326 H   0  0  0  0  0  0  0  0  0  0  0  0
  -10.0242   20.5457  -32.0791 H   0  0  0  0  0  0  0  0  0  0  0  0
   -8.6182   18.2729  -31.6386 H   0  0  0  0  0  0  0  0  0  0  0  0
   -8.3629   18.6807  -33.3926 H   0  0  0  0  0  0  0  0  0  0  0  0
   -6.2315   15.7038  -33.4389 H   0  0  0  0  0  0  0  0  0  0  0  0
   -7.0080   16.5205  -34.8377 H   0  0  0  0  0  0  0  0  0  0  0  0
   -5.2352   16.2305  -34.8377 H   0  0  0  0  0  0  0  0  0  0  0  0
   -4.3778   18.1953  -34.9722 H   0  0  0  0  0  0  0  0  0  0  0  0
   -5.4621   19.5806  -34.5581 H   0  0  0  0  0  0  0  0  0  0  0  0
   -4.3081   18.9797  -32.1118 H   0  0  0  0  0  0  0  0  0  0  0  0
   -2.9602   18.6664  -33.2734 H   0  0  0  0  0  0  0  0  0  0  0  0
   -3.4380   20.9000  -32.3340 H   0  0  0  0  0  0  0  0  0  0  0  0
   -5.6822   20.2184  -31.8642 H   0  0  0  0  0  0  0  0  0  0  0  0
  1  2  1  0
  2  3  1  0
  3  4  1  0
  4  5  2  0
  4  6  1  0
  6  7  1  0
  7  8  1  0
  8  9  1  0
  8 10  2  0
  7 11  2  0
 11 12  1  0
 12 13  2  0
 13 14  1  0
 14 15  2  0
 15 16  1  0
 16 17  1  0
 17 18  2  0
 17 19  1  0
 19 20  1  0
 19 21  1  0
 21 22  1  0
 22 23  1  0
 15 24  1  0
 24 25  2  0
 25  6  1  0
 25 12  1  0
  1 26  1  0
  1 27  1  0
  1 28  1  0
  2 29  1  0
  2 30  1  0
  9 31  1  0
 11 32  1  0
 13 33  1  0
 14 34  1  0
 16 35  1  0
 16 36  1  0
 20 37  1  0
 20 38  1  0
 20 39  1  0
 21 40  1  0
 21 41  1  0
 22 42  1  0
 22 43  1  0
 23 44  1  0
 24 45  1  0
M  CHG  1   9  -1
M  END
>  <UniqueID>  (58) 
58

>  <SMILES>  (58) 
CCOC(=O)n1c(C([NH-])=O)cc2ccc(CC(=O)N(C)CCO)cc21

>  <Energy>  (58) 
75.72910453093861

>  <Genealogy>  (58) 
CCOC(=O)n1c(C([NH-])=O)cc2ccc(CC(=O)N(C)CCO)cc21 (protonated)
CCOC(=O)n1c(C([NH-])=O)cc2ccc(CC(=O)N(C)CCO)cc21 (3D coordinates assigned)
CCOC(=O)n1c(C([NH-])=O)cc2ccc(CC(=O)N(C)CCO)cc21 (optimized conformer: 75.72910453093861 kcal/mol)

>  <smiles>  (58) 
CCOC(=O)n1c(C(N)=O)cc2ccc(CC(=O)N(C)CCO)cc21

>  <score_type>  (58) 
oracle

>  <origin>  (58) 
adg

>  <m_score__min__energy>  (58) 
-9.6199999999999992

>  <m_primary>  (58) 
energy

$$$$
58:0
     RDKit          3D

 38 40  0  0  0  0  0  0  0  0999 V2000
   -0.7550   23.2810  -28.8260 C   0  0  0  0  0  0  0  0  0  0  0  0
   -2.1310   23.4040  -28.2580 C   0  0  0  0  0  0  0  0  0  0  0  0
   -2.5910   24.4680  -27.6430 O   0  0  0  0  0  0  0  0  0  0  0  0
   -3.8330   24.1860  -27.3210 C   0  0  0  0  0  0  0  0  0  0  0  0
   -4.5940   24.9820  -26.7100 O   0  0  0  0  0  0  0  0  0  0  0  0
   -4.1960   22.9850  -27.7080 O   0  0  0  0  0  0  0  0  0  0  0  0
   -3.1480   22.4680  -28.3050 C   0  0  0  0  0  0  0  0  0  0  0  0
   -3.1020   21.0980  -28.9100 C   0  0  0  0  0  0  0  0  0  0  0  0
   -3.5090   21.1360  -30.2750 O   0  0  0  0  0  0  0  0  0  0  0  0
   -3.9620   22.2990  -30.9100 C   0  0  0  0  0  0  0  0  0  0  0  0
   -3.1490   23.2120  -31.2200 O   0  0  0  0  0  0  0  0  0  0  0  0
   -5.3580   22.4430  -31.2160 N   0  0  0  0  0  0  0  0  0  0  0  0
   -6.1620   23.5010  -30.9140 C   0  0  0  0  0  0  0  0  0  0  0  0
   -5.7160   24.7960  -30.3640 C   0  0  0  0  0  0  0  0  0  0  0  0
   -5.7350   25.0510  -28.9590 N   0  0  0  0  0  0  0  0  0  0  0  0
   -5.2600   25.6740  -31.1440 O   0  0  0  0  0  0  0  0  0  0  0  0
   -7.4870   23.2180  -31.2350 C   0  0  0  0  0  0  0  0  0  0  0  0
   -7.4710   21.9450  -31.7560 C   0  0  0  0  0  0  0  0  0  0  0  0
   -8.5180   21.1600  -32.2290 C   0  0  0  0  0  0  0  0  0  0  0  0
   -8.2180   19.8630  -32.6760 C   0  0  0  0  0  0  0  0  0  0  0  0
   -6.8930   19.3620  -32.6160 C   0  0  0  0  0  0  0  0  0  0  0  0
   -6.5790   17.9790  -33.1290 C   0  0  0  0  0  0  0  0  0  0  0  0
   -7.6250   17.1310  -32.8180 F   0  0  0  0  0  0  0  0  0  0  0  0
   -6.4050   17.9970  -34.5030 F   0  0  0  0  0  0  0  0  0  0  0  0
   -5.4170   17.4960  -32.5520 F   0  0  0  0  0  0  0  0  0  0  0  0
   -5.8530   20.2000  -32.1480 C   0  0  0  0  0  0  0  0  0  0  0  0
   -6.1760   21.4960  -31.7310 C   0  0  0  0  0  0  0  0  0  0  0  0
   -0.0244   23.2157  -28.0062 H   0  0  0  0  0  0  0  0  0  0  0  0
   -0.6936   22.3738  -29.4450 H   0  0  0  0  0  0  0  0  0  0  0  0
   -0.5337   24.1629  -29.4450 H   0  0  0  0  0  0  0  0  0  0  0  0
   -2.0739   20.7114  -28.8504 H   0  0  0  0  0  0  0  0  0  0  0  0
   -3.7891   20.4429  -28.3543 H   0  0  0  0  0  0  0  0  0  0  0  0
   -5.9470   24.2900  -28.2750 H   0  0  0  0  0  0  0  0  0  0  0  0
   -5.4570   25.9880  -28.5930 H   0  0  0  0  0  0  0  0  0  0  0  0
   -8.3605   23.8729  -31.1006 H   0  0  0  0  0  0  0  0  0  0  0  0
   -9.5487   21.5435  -32.2521 H   0  0  0  0  0  0  0  0  0  0  0  0
   -9.0211   19.2277  -33.0778 H   0  0  0  0  0  0  0  0  0  0  0  0
   -4.8140   19.8405  -32.1128 H   0  0  0  0  0  0  0  0  0  0  0  0
  1  2  1  0
  2  3  1  0
  3  4  1  0
  4  5  2  0
  4  6  1  0
  6  7  1  0
  7  8  1  0
  8  9  1  0
  9 10  1  0
 10 11  2  0
 10 12  1  0
 12 13  1  0
 13 14  1  0
 14 15  1  0
 14 16  2  0
 13 17  2  0
 17 18  1  0
 18 19  2  0
 19 20  1  0
 20 21  2  0
 21 22  1  0
 22 23  1  0
 22 24  1  0
 22 25  1  0
 21 26  1  0
 26 27  2  0
  7  2  2  0
 27 12  1  0
 27 18  1  0
  1 28  1  0
  1 29  1  0
  1 30  1  0
  8 31  1  0
  8 32  1  0
 15 33  1  0
 15 34  1  0
 17 35  1  0
 19 36  1  0
 20 37  1  0
 26 38  1  0
M  END
>  <UniqueID>  (59) 
59

>  <SMILES>  (59) 
Cc1oc(=O)oc1COC(=O)n1c(C(N)=O)cc2ccc(C(F)(F)F)cc21

>  <Energy>  (59) 
109.25632639366704

>  <Genealogy>  (59) 
Cc1oc(=O)oc1COC(=O)n1c(C(N)=O)cc2ccc(C(F)(F)F)cc21 (3D coordinates assigned)
Cc1oc(=O)oc1COC(=O)n1c(C(N)=O)cc2ccc(C(F)(F)F)cc21 (optimized conformer: 109.25632639366704 kcal/mol)

>  <smiles>  (59) 
Cc1oc(=O)oc1COC(=O)n1c(C(N)=O)cc2ccc(C(F)(F)F)cc21

>  <score_type>  (59) 
oracle

>  <origin>  (59) 
adg

>  <m_score__min__energy>  (59) 
-8.8300000000000001

>  <m_primary>  (59) 
energy

$$$$
59:0
     RDKit          3D

 42 44  0  0  0  0  0  0  0  0999 V2000
   -7.1010   20.4070  -31.4990 C   0  0  0  0  0  0  0  0  0  0  0  0
   -6.2600   20.3170  -32.7330 C   0  0  0  0  0  0  0  0  0  0  0  0
   -6.7810   20.5660  -33.8520 O   0  0  0  0  0  0  0  0  0  0  0  0
   -4.8860   19.9010  -32.6620 N   0  0  0  0  0  0  0  0  0  0  0  0
   -4.2640   18.9310  -33.3890 C   0  0  0  0  0  0  0  0  0  0  0  0
   -4.9350   17.9910  -34.3140 C   0  0  0  0  0  0  0  0  0  0  0  0
   -6.0830   18.3940  -35.0630 N   0  0  0  0  0  0  0  0  0  0  0  0
   -4.4790   16.8270  -34.4700 O   0  0  0  0  0  0  0  0  0  0  0  0
   -2.9070   18.8810  -33.0700 C   0  0  0  0  0  0  0  0  0  0  0  0
   -2.7230   19.8530  -32.1120 C   0  0  0  0  0  0  0  0  0  0  0  0
   -1.5650   20.2680  -31.4740 C   0  0  0  0  0  0  0  0  0  0  0  0
   -1.6560   21.3290  -30.5600 C   0  0  0  0  0  0  0  0  0  0  0  0
   -2.9110   21.9530  -30.2490 C   0  0  0  0  0  0  0  0  0  0  0  0
   -2.9940   23.1130  -29.3320 N   0  0  2  0  0  0  0  0  0  0  0  0
   -1.8650   24.0350  -29.5200 C   0  0  0  0  0  0  0  0  0  0  0  0
   -1.9840   25.2790  -29.3430 O   0  0  0  0  0  0  0  0  0  0  0  0
   -0.5990   23.5300  -29.8110 O   0  0  0  0  0  0  0  0  0  0  0  0
   -2.9490   22.7230  -27.8950 C   0  0  0  0  0  0  0  0  0  0  0  0
   -3.7730   23.7500  -27.1110 C   0  0  0  0  0  0  0  0  0  0  0  0
   -4.5800   24.5170  -28.1490 C   0  0  0  0  0  0  0  0  0  0  0  0
   -4.3280   23.7690  -29.4590 C   0  0  1  0  0  0  0  0  0  0  0  0
   -4.5080   24.6090  -30.7100 C   0  0  0  0  0  0  0  0  0  0  0  0
   -3.8630   25.6820  -30.8410 O   0  0  0  0  0  0  0  0  0  0  0  0
   -5.3600   24.2010  -31.7320 O   0  0  0  0  0  0  0  0  0  0  0  0
   -4.0540   21.5170  -30.9880 C   0  0  0  0  0  0  0  0  0  0  0  0
   -3.9300   20.4490  -31.8820 C   0  0  0  0  0  0  0  0  0  0  0  0
   -6.4565   20.3380  -30.6102 H   0  0  0  0  0  0  0  0  0  0  0  0
   -7.6368   21.3676  -31.4897 H   0  0  0  0  0  0  0  0  0  0  0  0
   -7.8280   19.5815  -31.4897 H   0  0  0  0  0  0  0  0  0  0  0  0
   -6.5270   19.3270  -34.9170 H   0  0  0  0  0  0  0  0  0  0  0  0
   -6.5170   17.7370  -35.7480 H   0  0  0  0  0  0  0  0  0  0  0  0
   -2.1462   18.2087  -33.4933 H   0  0  0  0  0  0  0  0  0  0  0  0
   -0.6010   19.7792  -31.6784 H   0  0  0  0  0  0  0  0  0  0  0  0
   -0.7413   21.6923  -30.0687 H   0  0  0  0  0  0  0  0  0  0  0  0
   -3.3790   21.7189  -27.7651 H   0  0  0  0  0  0  0  0  0  0  0  0
   -1.9107   22.7023  -27.5323 H   0  0  0  0  0  0  0  0  0  0  0  0
   -4.4445   23.2419  -26.4032 H   0  0  0  0  0  0  0  0  0  0  0  0
   -3.1291   24.4209  -26.5235 H   0  0  0  0  0  0  0  0  0  0  0  0
   -5.6502   24.5065  -27.8949 H   0  0  0  0  0  0  0  0  0  0  0  0
   -4.2865   25.5755  -28.2085 H   0  0  0  0  0  0  0  0  0  0  0  0
   -5.1036   23.0033  -29.6080 H   0  0  0  0  0  0  0  0  0  0  0  0
   -5.0242   22.0179  -30.8545 H   0  0  0  0  0  0  0  0  0  0  0  0
  1  2  1  0
  2  3  2  0
  2  4  1  0
  4  5  1  0
  5  6  1  0
  6  7  1  0
  6  8  2  0
  5  9  2  0
  9 10  1  0
 10 11  2  0
 11 12  1  0
 12 13  2  0
 13 14  1  0
 14 15  1  6
 15 16  2  0
 15 17  1  0
 14 18  1  0
 18 19  1  0
 19 20  1  0
 20 21  1  0
 21 22  1  0
 22 23  2  0
 22 24  1  0
 13 25  1  0
 25 26  2  0
 26  4  1  0
 26 10  1  0
 21 14  1  0
  1 27  1  0
  1 28  1  0
  1 29  1  0
  7 30  1  0
  7 31  1  0
  9 32  1  0
 11 33  1  0
 12 34  1  0
 18 35  1  0
 18 36  1  0
 19 37  1  0
 19 38  1  0
 20 39  1  0
 20 40  1  0
 21 41  1  6
 25 42  1  0
M  CHG  3  14   1  17  -1  24  -1
M  END
>  <UniqueID>  (60) 
60

>  <SMILES>  (60) 
CC(=O)n1c(C(N)=O)cc2ccc([N@+]3(C(=O)[O-])CCC[C@H]3C(=O)[O-])cc21

>  <Energy>  (60) 
111.61733474681658

>  <Genealogy>  (60) 
CC(=O)n1c(C(N)=O)cc2ccc([N+]3(C(=O)[O-])CCC[C@H]3C(=O)[O-])cc21 (protonated)
CC(=O)n1c(C(N)=O)cc2ccc([N@+]3(C(=O)[O-])CCC[C@H]3C(=O)[O-])cc21 (chirality)
CC(=O)n1c(C(N)=O)cc2ccc([N@+]3(C(=O)[O-])CCC[C@H]3C(=O)[O-])cc21 (3D coordinates assigned)
CC(=O)n1c(C(N)=O)cc2ccc([N@+]3(C(=O)[O-])CCC[C@H]3C(=O)[O-])cc21 (nonaromatic ring conformer: 111.61733474681658 kcal/mol)

>  <smiles>  (60) 
CC(=O)n1c(C(N)=O)cc2ccc([N+]3(C(=O)O)CCC[C@H]3C(=O)O)cc21

>  <score_type>  (60) 
oracle

>  <origin>  (60) 
adg

>  <m_score__min__energy>  (60) 
-10.390000000000001

>  <m_primary>  (60) 
energy

$$$$
60:0
     RDKit          3D

 56 59  0  0  0  0  0  0  0  0999 V2000
   -9.2070   17.9940  -31.9150 C   0  0  0  0  0  0  0  0  0  0  0  0
   -7.7610   18.5150  -31.9080 C   0  0  1  0  0  0  0  0  0  0  0  0
   -6.9960   18.2130  -33.2240 C   0  0  0  0  0  0  0  0  0  0  0  0
   -5.5240   18.1430  -33.0510 N   0  0  0  0  0  0  0  0  0  0  0  0
   -4.8730   19.3130  -33.6590 C   0  0  0  0  0  0  0  0  0  0  0  0
   -3.4740   18.8870  -34.0370 C   0  0  0  0  0  0  0  0  0  0  0  0
   -3.6150   17.4180  -34.3790 C   0  0  0  0  0  0  0  0  0  0  0  0
   -4.9030   16.9640  -33.6890 C   0  0  0  0  0  0  0  0  0  0  0  0
   -7.7480   20.0090  -31.6430 C   0  0  0  0  0  0  0  0  0  0  0  0
   -8.9320   20.7830  -31.7890 C   0  0  0  0  0  0  0  0  0  0  0  0
   -8.9100   22.1750  -31.5910 C   0  0  0  0  0  0  0  0  0  0  0  0
   -7.6960   22.7660  -31.2540 C   0  0  0  0  0  0  0  0  0  0  0  0
   -7.3810   24.0890  -31.0330 C   0  0  0  0  0  0  0  0  0  0  0  0
   -6.0130   24.1030  -30.7550 C   0  0  0  0  0  0  0  0  0  0  0  0
   -5.2420   25.3300  -30.4570 C   0  0  0  0  0  0  0  0  0  0  0  0
   -3.8940   25.4770  -30.8950 N   0  0  0  0  0  0  0  0  0  0  0  0
   -5.7880   26.2660  -29.8120 O   0  0  0  0  0  0  0  0  0  0  0  0
   -5.5140   22.8360  -30.7960 N   0  0  0  0  0  0  0  0  0  0  0  0
   -4.1760   22.4020  -30.5280 C   0  0  0  0  0  0  0  0  0  0  0  0
   -3.6910   21.4340  -31.1730 O   0  0  0  0  0  0  0  0  0  0  0  0
   -3.4190   23.0190  -29.4860 N   0  0  0  0  0  0  0  0  0  0  0  0
   -4.0340   23.5790  -28.2990 C   0  0  0  0  0  0  0  0  0  0  0  0
   -2.8860   24.1650  -27.4870 C   0  0  0  0  0  0  0  0  0  0  0  0
   -1.6940   24.2690  -28.4540 C   0  0  2  0  0  0  0  0  0  0  0  0
   -1.5320   25.5860  -28.9180 O   0  0  0  0  0  0  0  0  0  0  0  0
   -2.0050   23.3120  -29.6040 C   0  0  0  0  0  0  0  0  0  0  0  0
   -6.5500   22.0350  -31.1050 C   0  0  0  0  0  0  0  0  0  0  0  0
   -6.5370   20.6520  -31.3010 C   0  0  0  0  0  0  0  0  0  0  0  0
   -9.5564   17.8681  -30.8796 H   0  0  0  0  0  0  0  0  0  0  0  0
   -9.8542   18.7155  -32.4352 H   0  0  0  0  0  0  0  0  0  0  0  0
   -9.2453   17.0255  -32.4352 H   0  0  0  0  0  0  0  0  0  0  0  0
   -7.2387   17.9788  -31.1020 H   0  0  0  0  0  0  0  0  0  0  0  0
   -7.3466   17.2471  -33.6166 H   0  0  0  0  0  0  0  0  0  0  0  0
   -7.2011   19.0439  -33.9151 H   0  0  0  0  0  0  0  0  0  0  0  0
   -5.2860   18.1450  -32.0290 H   0  0  0  0  0  0  0  0  0  0  0  0
   -5.4267   19.6316  -34.5545 H   0  0  0  0  0  0  0  0  0  0  0  0
   -4.8516   20.1610  -32.9586 H   0  0  0  0  0  0  0  0  0  0  0  0
   -3.1134   19.4573  -34.9057 H   0  0  0  0  0  0  0  0  0  0  0  0
   -2.7463   19.0651  -33.2316 H   0  0  0  0  0  0  0  0  0  0  0  0
   -3.6926   17.2817  -35.4678 H   0  0  0  0  0  0  0  0  0  0  0  0
   -2.7441   16.8343  -34.0462 H   0  0  0  0  0  0  0  0  0  0  0  0
   -5.5924   16.5358  -34.4315 H   0  0  0  0  0  0  0  0  0  0  0  0
   -4.6796   16.1962  -32.9336 H   0  0  0  0  0  0  0  0  0  0  0  0
   -9.8758   20.2872  -32.0599 H   0  0  0  0  0  0  0  0  0  0  0  0
   -9.8237   22.7778  -31.6991 H   0  0  0  0  0  0  0  0  0  0  0  0
   -8.0629   24.9514  -31.0682 H   0  0  0  0  0  0  0  0  0  0  0  0
   -3.0970   25.2820  -30.2480 H   0  0  0  0  0  0  0  0  0  0  0  0
   -4.7528   24.3655  -28.5725 H   0  0  0  0  0  0  0  0  0  0  0  0
   -4.5918   22.8203  -27.7305 H   0  0  0  0  0  0  0  0  0  0  0  0
   -3.1567   25.1605  -27.1053 H   0  0  0  0  0  0  0  0  0  0  0  0
   -2.6457   23.5368  -26.6166 H   0  0  0  0  0  0  0  0  0  0  0  0
   -0.7494   24.0030  -27.9570 H   0  0  0  0  0  0  0  0  0  0  0  0
   -2.0440   25.6710  -29.7680 H   0  0  0  0  0  0  0  0  0  0  0  0
   -1.7899   23.7894  -30.5714 H   0  0  0  0  0  0  0  0  0  0  0  0
   -1.3919   22.4000  -29.5557 H   0  0  0  0  0  0  0  0  0  0  0  0
   -5.6058   20.0768  -31.1917 H   0  0  0  0  0  0  0  0  0  0  0  0
  1  2  1  0
  2  3  1  0
  3  4  1  0
  4  5  1  0
  5  6  1  0
  6  7  1  0
  7  8  1  0
  2  9  1  0
  9 10  2  0
 10 11  1  0
 11 12  2  0
 12 13  1  0
 13 14  2  0
 14 15  1  0
 15 16  1  0
 15 17  2  0
 14 18  1  0
 18 19  1  0
 19 20  2  0
 19 21  1  0
 21 22  1  0
 22 23  1  0
 23 24  1  0
 24 25  1  0
 24 26  1  0
 18 27  1  0
 27 28  2  0
  8  4  1  0
 28  9  1  0
 27 12  1  0
 26 21  1  0
  1 29  1  0
  1 30  1  0
  1 31  1  0
  2 32  1  1
  3 33  1  0
  3 34  1  0
  4 35  1  0
  5 36  1  0
  5 37  1  0
  6 38  1  0
  6 39  1  0
  7 40  1  0
  7 41  1  0
  8 42  1  0
  8 43  1  0
 10 44  1  0
 11 45  1  0
 13 46  1  0
 16 47  1  0
 22 48  1  0
 22 49  1  0
 23 50  1  0
 23 51  1  0
 24 52  1  1
 25 53  1  0
 26 54  1  0
 26 55  1  0
 28 56  1  0
M  CHG  2   4   1  16  -1
M  END
>  <UniqueID>  (61) 
61

>  <SMILES>  (61) 
C[C@@H](C[NH+]1CCCC1)c1ccc2cc(C([NH-])=O)n(C(=O)N3CC[C@H](O)C3)c2c1

>  <Energy>  (61) 
109.46588270044256

>  <Genealogy>  (61) 
CC(C[NH+]1CCCC1)c1ccc2cc(C([NH-])=O)n(C(=O)N3CC[C@H](O)C3)c2c1 (protonated)
C[C@@H](C[NH+]1CCCC1)c1ccc2cc(C([NH-])=O)n(C(=O)N3CC[C@H](O)C3)c2c1 (chirality)
C[C@@H](C[NH+]1CCCC1)c1ccc2cc(C([NH-])=O)n(C(=O)N3CC[C@H](O)C3)c2c1 (3D coordinates assigned)
C[C@@H](C[NH+]1CCCC1)c1ccc2cc(C([NH-])=O)n(C(=O)N3CC[C@H](O)C3)c2c1 (nonaromatic ring conformer: 109.46588270044256 kcal/mol)

>  <smiles>  (61) 
CC(CN1CCCC1)c1ccc2cc(C(N)=O)n(C(=O)N3CC[C@H](O)C3)c2c1

>  <score_type>  (61) 
oracle

>  <origin>  (61) 
adg

>  <m_score__min__energy>  (61) 
-12.07

>  <m_primary>  (61) 
energy

$$$$
61:0
     RDKit          3D

 47 49  0  0  0  0  0  0  0  0999 V2000
   -7.7310   18.3480  -31.6450 C   0  0  0  0  0  0  0  0  0  0  0  0
   -6.2470   18.4370  -31.3170 C   0  0  0  0  0  0  0  0  0  0  0  0
   -5.6060   19.5430  -32.1010 C   0  0  0  0  0  0  0  0  0  0  0  0
   -6.2720   20.5790  -32.3700 O   0  0  0  0  0  0  0  0  0  0  0  0
   -4.2850   19.3870  -32.6430 N   0  0  0  0  0  0  0  0  0  0  0  0
   -3.9310   19.0210  -33.9060 C   0  0  0  0  0  0  0  0  0  0  0  0
   -4.8500   18.5480  -34.9620 C   0  0  0  0  0  0  0  0  0  0  0  0
   -6.1620   19.0930  -35.1060 N   0  0  0  0  0  0  0  0  0  0  0  0
   -4.4830   17.6160  -35.7260 O   0  0  0  0  0  0  0  0  0  0  0  0
   -2.5510   19.1180  -34.0730 C   0  0  0  0  0  0  0  0  0  0  0  0
   -2.0670   19.5480  -32.8570 C   0  0  0  0  0  0  0  0  0  0  0  0
   -0.7640   19.8310  -32.4580 C   0  0  0  0  0  0  0  0  0  0  0  0
   -0.5630   20.2950  -31.1480 C   0  0  0  0  0  0  0  0  0  0  0  0
   -1.6590   20.4740  -30.2630 C   0  0  0  0  0  0  0  0  0  0  0  0
   -1.4450   20.9620  -28.9210 N   0  0  0  0  0  0  0  0  0  0  0  0
   -2.3700   20.5700  -27.8440 C   0  0  0  0  0  0  0  0  0  0  0  0
   -3.4030   21.6670  -27.4950 C   0  0  0  0  0  0  0  0  0  0  0  0
   -3.5120   22.8200  -28.5160 C   0  0  0  0  0  0  0  0  0  0  0  0
   -2.2810   23.6210  -28.6600 N   0  0  0  0  0  0  0  0  0  0  0  0
   -2.3770   24.8870  -29.3420 C   0  0  0  0  0  0  0  0  0  0  0  0
   -1.4840   25.7640  -29.2030 O   0  0  0  0  0  0  0  0  0  0  0  0
   -3.4680   25.1610  -30.1610 O   0  0  0  0  0  0  0  0  0  0  0  0
   -1.0220   23.2330  -28.0000 C   0  0  0  0  0  0  0  0  0  0  0  0
   -0.4240   21.9940  -28.6710 C   0  0  0  0  0  0  0  0  0  0  0  0
   -2.9680   20.1800  -30.7110 C   0  0  0  0  0  0  0  0  0  0  0  0
   -3.1340   19.7030  -32.0140 C   0  0  0  0  0  0  0  0  0  0  0  0
   -8.3114   18.3132  -30.7113 H   0  0  0  0  0  0  0  0  0  0  0  0
   -8.0307   19.2298  -32.2304 H   0  0  0  0  0  0  0  0  0  0  0  0
   -7.9231   17.4367  -32.2304 H   0  0  0  0  0  0  0  0  0  0  0  0
   -6.1243   18.6358  -30.2421 H   0  0  0  0  0  0  0  0  0  0  0  0
   -5.7644   17.4846  -31.5816 H   0  0  0  0  0  0  0  0  0  0  0  0
   -6.5690   19.7260  -34.3850 H   0  0  0  0  0  0  0  0  0  0  0  0
   -6.7710   18.7840  -35.8970 H   0  0  0  0  0  0  0  0  0  0  0  0
   -1.9717   18.8981  -34.9819 H   0  0  0  0  0  0  0  0  0  0  0  0
    0.0822   19.6954  -33.1476 H   0  0  0  0  0  0  0  0  0  0  0  0
    0.4564   20.5227  -30.8030 H   0  0  0  0  0  0  0  0  0  0  0  0
   -2.9129   19.6675  -28.1614 H   0  0  0  0  0  0  0  0  0  0  0  0
   -1.7646   20.3941  -26.9426 H   0  0  0  0  0  0  0  0  0  0  0  0
   -4.3909   21.1901  -27.4143 H   0  0  0  0  0  0  0  0  0  0  0  0
   -3.0559   22.1238  -26.5565 H   0  0  0  0  0  0  0  0  0  0  0  0
   -3.7596   22.3891  -29.4973 H   0  0  0  0  0  0  0  0  0  0  0  0
   -4.2895   23.5014  -28.1403 H   0  0  0  0  0  0  0  0  0  0  0  0
   -0.3052   24.0644  -28.0707 H   0  0  0  0  0  0  0  0  0  0  0  0
   -1.2305   23.0004  -26.9453 H   0  0  0  0  0  0  0  0  0  0  0  0
    0.0254   22.2903  -29.6303 H   0  0  0  0  0  0  0  0  0  0  0  0
    0.3328   21.5701  -27.9946 H   0  0  0  0  0  0  0  0  0  0  0  0
   -3.8350   20.3235  -30.0493 H   0  0  0  0  0  0  0  0  0  0  0  0
  1  2  1  0
  2  3  1  0
  3  4  2  0
  3  5  1  0
  5  6  1  0
  6  7  1  0
  7  8  1  0
  7  9  2  0
  6 10  2  0
 10 11  1  0
 11 12  2  0
 12 13  1  0
 13 14  2  0
 14 15  1  0
 15 16  1  0
 16 17  1  0
 17 18  1  0
 18 19  1  0
 19 20  1  0
 20 21  2  0
 20 22  1  0
 19 23  1  0
 23 24  1  0
 14 25  1  0
 25 26  2  0
 26  5  1  0
 26 11  1  0
 24 15  1  0
  1 27  1  0
  1 28  1  0
  1 29  1  0
  2 30  1  0
  2 31  1  0
  8 32  1  0
  8 33  1  0
 10 34  1  0
 12 35  1  0
 13 36  1  0
 16 37  1  0
 16 38  1  0
 17 39  1  0
 17 40  1  0
 18 41  1  0
 18 42  1  0
 23 43  1  0
 23 44  1  0
 24 45  1  0
 24 46  1  0
 25 47  1  0
M  CHG  1  22  -1
M  END
>  <UniqueID>  (62) 
62

>  <SMILES>  (62) 
CCC(=O)n1c(C(N)=O)cc2ccc(N3CCCN(C(=O)[O-])CC3)cc21

>  <Energy>  (62) 
93.66117463887105

>  <Genealogy>  (62) 
CCC(=O)n1c(C(N)=O)cc2ccc(N3CCCN(C(=O)[O-])CC3)cc21 (protonated)
CCC(=O)n1c(C(N)=O)cc2ccc(N3CCCN(C(=O)[O-])CC3)cc21 (3D coordinates assigned)
CCC(=O)n1c(C(N)=O)cc2ccc(N3CCCN(C(=O)[O-])CC3)cc21 (nonaromatic ring conformer: 93.66117463887105 kcal/mol)

>  <smiles>  (62) 
CCC(=O)n1c(C(N)=O)cc2ccc(N3CCCN(C(=O)O)CC3)cc21

>  <score_type>  (62) 
oracle

>  <origin>  (62) 
adg

>  <m_score__min__energy>  (62) 
-6.5700000000000003

>  <m_primary>  (62) 
energy

$$$$
62:0
     RDKit          3D

 37 39  0  0  0  0  0  0  0  0999 V2000
   -6.1230   17.0590  -31.2750 C   0  0  0  0  0  0  0  0  0  0  0  0
   -5.5290   17.1060  -32.6570 C   0  0  0  0  0  0  0  0  0  0  0  0
   -4.3070   16.4590  -32.9080 C   0  0  0  0  0  0  0  0  0  0  0  0
   -3.7370   16.4910  -34.1830 C   0  0  0  0  0  0  0  0  0  0  0  0
   -4.3720   17.1790  -35.2160 C   0  0  0  0  0  0  0  0  0  0  0  0
   -5.5800   17.8380  -34.9790 C   0  0  0  0  0  0  0  0  0  0  0  0
   -6.1760   17.8010  -33.7050 C   0  0  0  0  0  0  0  0  0  0  0  0
   -7.4050   18.5110  -33.4630 N   0  0  0  0  0  0  0  0  0  0  0  0
   -7.4850   19.7600  -32.7560 C   0  0  0  0  0  0  0  0  0  0  0  0
   -8.7490   20.2400  -32.3340 C   0  0  0  0  0  0  0  0  0  0  0  0
   -8.8660   21.4710  -31.6670 C   0  0  0  0  0  0  0  0  0  0  0  0
   -7.7030   22.2000  -31.4360 C   0  0  0  0  0  0  0  0  0  0  0  0
   -7.5320   23.4300  -30.8420 C   0  0  0  0  0  0  0  0  0  0  0  0
   -6.1620   23.6830  -30.9030 C   0  0  0  0  0  0  0  0  0  0  0  0
   -5.5090   24.8770  -30.3170 C   0  0  0  0  0  0  0  0  0  0  0  0
   -5.8630   25.3400  -29.0130 N   0  0  0  0  0  0  0  0  0  0  0  0
   -4.6140   25.4870  -30.9610 O   0  0  0  0  0  0  0  0  0  0  0  0
   -5.5140   22.6470  -31.5050 N   0  0  0  0  0  0  0  0  0  0  0  0
   -4.1090   22.5430  -31.7880 C   0  0  0  0  0  0  0  0  0  0  0  0
   -3.2890   23.2910  -31.1950 O   0  0  0  0  0  0  0  0  0  0  0  0
   -3.4950   21.3210  -32.9640 S   0  0  0  0  0  0  0  0  0  0  0  0
   -6.4710   21.7500  -31.8300 C   0  0  0  0  0  0  0  0  0  0  0  0
   -6.3290   20.5420  -32.5230 C   0  0  0  0  0  0  0  0  0  0  0  0
   -5.3183   17.1227  -30.5277 H   0  0  0  0  0  0  0  0  0  0  0  0
   -6.8133   17.9053  -31.1436 H   0  0  0  0  0  0  0  0  0  0  0  0
   -6.6716   16.1146  -31.1436 H   0  0  0  0  0  0  0  0  0  0  0  0
   -3.7956   15.9235  -32.0946 H   0  0  0  0  0  0  0  0  0  0  0  0
   -2.7855   15.9725  -34.3722 H   0  0  0  0  0  0  0  0  0  0  0  0
   -3.9208   17.2027  -36.2189 H   0  0  0  0  0  0  0  0  0  0  0  0
   -6.0695   18.3904  -35.7947 H   0  0  0  0  0  0  0  0  0  0  0  0
   -8.2960   18.0850  -33.8050 H   0  0  0  0  0  0  0  0  0  0  0  0
   -9.6506   19.6413  -32.5310 H   0  0  0  0  0  0  0  0  0  0  0  0
   -9.8459   21.8469  -31.3377 H   0  0  0  0  0  0  0  0  0  0  0  0
   -8.3108   24.0762  -30.4107 H   0  0  0  0  0  0  0  0  0  0  0  0
   -5.3680   26.1610  -28.5970 H   0  0  0  0  0  0  0  0  0  0  0  0
   -6.6430   24.9060  -28.4730 H   0  0  0  0  0  0  0  0  0  0  0  0
   -5.3426   20.2088  -32.8778 H   0  0  0  0  0  0  0  0  0  0  0  0
  1  2  1  0
  2  3  2  0
  3  4  1  0
  4  5  2  0
  5  6  1  0
  6  7  2  0
  7  8  1  0
  8  9  1  0
  9 10  2  0
 10 11  1  0
 11 12  2  0
 12 13  1  0
 13 14  2  0
 14 15  1  0
 15 16  1  0
 15 17  2  0
 14 18  1  0
 18 19  1  0
 19 20  2  0
 19 21  1  0
 18 22  1  0
 22 23  2  0
  7  2  1  0
 23  9  1  0
 22 12  1  0
  1 24  1  0
  1 25  1  0
  1 26  1  0
  3 27  1  0
  4 28  1  0
  5 29  1  0
  6 30  1  0
  8 31  1  0
 10 32  1  0
 11 33  1  0
 13 34  1  0
 16 35  1  0
 16 36  1  0
 23 37  1  0
M  CHG  1  21  -1
M  END
>  <UniqueID>  (63) 
63

>  <SMILES>  (63) 
Cc1ccccc1Nc1ccc2cc(C(N)=O)n(C(=O)[S-])c2c1

>  <Energy>  (63) 
84.70048628448903

>  <Genealogy>  (63) 
Cc1ccccc1Nc1ccc2cc(C(N)=O)n(C(=O)[S-])c2c1 (protonated)
Cc1ccccc1Nc1ccc2cc(C(N)=O)n(C(=O)[S-])c2c1 (3D coordinates assigned)
Cc1ccccc1Nc1ccc2cc(C(N)=O)n(C(=O)[S-])c2c1 (optimized conformer: 84.70048628448903 kcal/mol)

>  <smiles>  (63) 
Cc1ccccc1Nc1ccc2cc(C(N)=O)n(C(=O)S)c2c1

>  <score_type>  (63) 
oracle

>  <origin>  (63) 
adg

>  <m_score__min__energy>  (63) 
-9.8699999999999992

>  <m_primary>  (63) 
energy

$$$$
63:0
     RDKit          3D

 36 37  0  0  0  0  0  0  0  0999 V2000
   -7.8590   22.0590  -30.9720 C   0  0  0  0  0  0  0  0  0  0  0  0
   -7.5220   20.7570  -31.5760 N   0  0  0  0  0  0  0  0  0  0  0  0
   -8.7000   19.8720  -31.6150 C   0  0  0  0  0  0  0  0  0  0  0  0
   -6.8370   20.8800  -32.8890 C   0  0  0  0  0  0  0  0  0  0  0  0
   -5.5770   20.0010  -33.0890 C   0  0  0  0  0  0  0  0  0  0  0  0
   -4.3440   20.5370  -32.4080 C   0  0  0  0  0  0  0  0  0  0  0  0
   -3.1260   19.8120  -32.4660 C   0  0  0  0  0  0  0  0  0  0  0  0
   -1.9680   20.3060  -31.8460 C   0  0  0  0  0  0  0  0  0  0  0  0
   -2.0540   21.5250  -31.1780 C   0  0  0  0  0  0  0  0  0  0  0  0
   -1.0840   22.2410  -30.5170 C   0  0  0  0  0  0  0  0  0  0  0  0
   -1.7230   23.3890  -30.0550 C   0  0  0  0  0  0  0  0  0  0  0  0
   -1.0580   24.4030  -29.2100 C   0  0  0  0  0  0  0  0  0  0  0  0
   -1.6570   25.6740  -28.9780 N   0  0  0  0  0  0  0  0  0  0  0  0
    0.0330   24.1240  -28.6440 O   0  0  0  0  0  0  0  0  0  0  0  0
   -3.0360   23.3880  -30.4240 N   0  0  0  0  0  0  0  0  0  0  0  0
   -4.0130   24.4210  -30.2160 C   0  0  0  0  0  0  0  0  0  0  0  0
   -4.9940   24.2240  -29.4520 O   0  0  0  0  0  0  0  0  0  0  0  0
   -3.8700   25.6560  -30.8350 O   0  0  0  0  0  0  0  0  0  0  0  0
   -3.2230   22.2370  -31.1080 C   0  0  0  0  0  0  0  0  0  0  0  0
   -4.3870   21.7790  -31.7360 C   0  0  0  0  0  0  0  0  0  0  0  0
   -7.8363   21.9715  -29.8757 H   0  0  0  0  0  0  0  0  0  0  0  0
   -7.1266   22.8135  -31.2948 H   0  0  0  0  0  0  0  0  0  0  0  0
   -8.8655   22.3634  -31.2948 H   0  0  0  0  0  0  0  0  0  0  0  0
   -6.8340   20.3000  -30.9320 H   0  0  0  0  0  0  0  0  0  0  0  0
   -9.0150   19.6354  -30.5880 H   0  0  0  0  0  0  0  0  0  0  0  0
   -9.5216   20.3782  -32.1431 H   0  0  0  0  0  0  0  0  0  0  0  0
   -8.4426   18.9420  -32.1431 H   0  0  0  0  0  0  0  0  0  0  0  0
   -7.5614   20.6109  -33.6718 H   0  0  0  0  0  0  0  0  0  0  0  0
   -6.4811   21.9197  -32.9387 H   0  0  0  0  0  0  0  0  0  0  0  0
   -5.7866   18.9987  -32.6871 H   0  0  0  0  0  0  0  0  0  0  0  0
   -5.3652   19.9875  -34.1683 H   0  0  0  0  0  0  0  0  0  0  0  0
   -3.0889   18.8525  -33.0026 H   0  0  0  0  0  0  0  0  0  0  0  0
   -1.0212   19.7474  -31.8864 H   0  0  0  0  0  0  0  0  0  0  0  0
   -0.0276   21.9656  -30.3818 H   0  0  0  0  0  0  0  0  0  0  0  0
   -2.6930   25.7970  -29.0310 H   0  0  0  0  0  0  0  0  0  0  0  0
   -5.3131   22.3719  -31.7070 H   0  0  0  0  0  0  0  0  0  0  0  0
  1  2  1  0
  2  3  1  0
  2  4  1  0
  4  5  1  0
  5  6  1  0
  6  7  2  0
  7  8  1  0
  8  9  2  0
  9 10  1  0
 10 11  2  0
 11 12  1  0
 12 13  1  0
 12 14  2  0
 11 15  1  0
 15 16  1  0
 16 17  2  0
 16 18  1  0
 15 19  1  0
 19 20  2  0
 20  6  1  0
 19  9  1  0
  1 21  1  0
  1 22  1  0
  1 23  1  0
  2 24  1  0
  3 25  1  0
  3 26  1  0
  3 27  1  0
  4 28  1  0
  4 29  1  0
  5 30  1  0
  5 31  1  0
  7 32  1  0
  8 33  1  0
 10 34  1  0
 13 35  1  0
 20 36  1  0
M  CHG  3   2   1  13  -1  18  -1
M  END
>  <UniqueID>  (64) 
64

>  <SMILES>  (64) 
C[NH+](C)CCc1ccc2cc(C([NH-])=O)n(C(=O)[O-])c2c1

>  <Energy>  (64) 
78.84089448343818

>  <Genealogy>  (64) 
C[NH+](C)CCc1ccc2cc(C([NH-])=O)n(C(=O)[O-])c2c1 (protonated)
C[NH+](C)CCc1ccc2cc(C([NH-])=O)n(C(=O)[O-])c2c1 (3D coordinates assigned)
C[NH+](C)CCc1ccc2cc(C([NH-])=O)n(C(=O)[O-])c2c1 (optimized conformer: 78.84089448343818 kcal/mol)

>  <smiles>  (64) 
CN(C)CCc1ccc2cc(C(N)=O)n(C(=O)O)c2c1

>  <score_type>  (64) 
oracle

>  <origin>  (64) 
adg

>  <m_score__min__energy>  (64) 
-10.460000000000001

>  <m_primary>  (64) 
energy

$$$$
64:0
     RDKit          3D

 42 43  0  0  0  0  0  0  0  0999 V2000
   -4.0760   16.9800  -34.6640 C   0  0  0  0  0  0  0  0  0  0  0  0
   -4.4660   18.0710  -33.7570 N   0  0  0  0  0  0  0  0  0  0  0  0
   -3.5150   19.1910  -33.8460 C   0  0  0  0  0  0  0  0  0  0  0  0
   -5.8090   18.5240  -34.0680 C   0  0  0  0  0  0  0  0  0  0  0  0
   -6.0830   18.9180  -35.1960 O   0  0  0  0  0  0  0  0  0  0  0  0
   -6.8810   18.5420  -33.0100 C   0  0  0  0  0  0  0  0  0  0  0  0
   -7.0470   19.9340  -32.4710 C   0  0  0  0  0  0  0  0  0  0  0  0
   -8.3400   20.4990  -32.3340 C   0  0  0  0  0  0  0  0  0  0  0  0
   -8.5000   21.8080  -31.8480 C   0  0  0  0  0  0  0  0  0  0  0  0
   -7.3540   22.5290  -31.5270 C   0  0  0  0  0  0  0  0  0  0  0  0
   -7.2220   23.8040  -31.0260 C   0  0  0  0  0  0  0  0  0  0  0  0
   -5.8490   24.0120  -30.8990 C   0  0  0  0  0  0  0  0  0  0  0  0
   -5.2550   25.2960  -30.4710 C   0  0  0  0  0  0  0  0  0  0  0  0
   -3.9550   25.6620  -30.9240 N   0  0  0  0  0  0  0  0  0  0  0  0
   -5.8700   26.0570  -29.6780 O   0  0  0  0  0  0  0  0  0  0  0  0
   -5.1610   22.9060  -31.3000 N   0  0  0  0  0  0  0  0  0  0  0  0
   -3.7410   22.6960  -31.2740 C   0  0  0  0  0  0  0  0  0  0  0  0
   -3.2000   21.9590  -32.1430 O   0  0  0  0  0  0  0  0  0  0  0  0
   -2.9690   23.2950  -30.2720 O   0  0  0  0  0  0  0  0  0  0  0  0
   -3.2620   23.1850  -28.8800 C   0  0  0  0  0  0  0  0  0  0  0  0
   -2.7360   24.3980  -28.1180 C   0  0  0  0  0  0  0  0  0  0  0  0
   -2.0240   25.2210  -28.9710 F   0  0  0  0  0  0  0  0  0  0  0  0
   -6.0960   22.0080  -31.6820 C   0  0  0  0  0  0  0  0  0  0  0  0
   -5.9070   20.7000  -32.1420 C   0  0  0  0  0  0  0  0  0  0  0  0
   -3.7636   16.1062  -34.0734 H   0  0  0  0  0  0  0  0  0  0  0  0
   -4.9321   16.7068  -35.2983 H   0  0  0  0  0  0  0  0  0  0  0  0
   -3.2407   17.3114  -35.2983 H   0  0  0  0  0  0  0  0  0  0  0  0
   -4.4320   17.7030  -32.7770 H   0  0  0  0  0  0  0  0  0  0  0  0
   -3.2375   19.5178  -32.8330 H   0  0  0  0  0  0  0  0  0  0  0  0
   -2.6138   18.8648  -34.3858 H   0  0  0  0  0  0  0  0  0  0  0  0
   -3.9830   20.0274  -34.3858 H   0  0  0  0  0  0  0  0  0  0  0  0
   -7.8318   18.2055  -33.4490 H   0  0  0  0  0  0  0  0  0  0  0  0
   -6.5902   17.8693  -32.1897 H   0  0  0  0  0  0  0  0  0  0  0  0
   -9.2255   19.9079  -32.6104 H   0  0  0  0  0  0  0  0  0  0  0  0
   -9.5003   22.2489  -31.7252 H   0  0  0  0  0  0  0  0  0  0  0  0
   -8.0287   24.5096  -30.7782 H   0  0  0  0  0  0  0  0  0  0  0  0
   -3.0980   25.2900  -30.4580 H   0  0  0  0  0  0  0  0  0  0  0  0
   -4.3517   23.1190  -28.7449 H   0  0  0  0  0  0  0  0  0  0  0  0
   -2.7721   22.2820  -28.4868 H   0  0  0  0  0  0  0  0  0  0  0  0
   -3.5832   24.9577  -27.6949 H   0  0  0  0  0  0  0  0  0  0  0  0
   -2.0730   24.0564  -27.3095 H   0  0  0  0  0  0  0  0  0  0  0  0
   -4.8960   20.2790  -32.2448 H   0  0  0  0  0  0  0  0  0  0  0  0
  1  2  1  0
  2  3  1  0
  2  4  1  0
  4  5  2  0
  4  6  1  0
  6  7  1  0
  7  8  2  0
  8  9  1  0
  9 10  2  0
 10 11  1  0
 11 12  2  0
 12 13  1  0
 13 14  1  0
 13 15  2  0
 12 16  1  0
 16 17  1  0
 17 18  2  0
 17 19  1  0
 19 20  1  0
 20 21  1  0
 21 22  1  0
 16 23  1  0
 23 24  2  0
 24  7  1  0
 23 10  1  0
  1 25  1  0
  1 26  1  0
  1 27  1  0
  2 28  1  0
  3 29  1  0
  3 30  1  0
  3 31  1  0
  6 32  1  0
  6 33  1  0
  8 34  1  0
  9 35  1  0
 11 36  1  0
 14 37  1  0
 20 38  1  0
 20 39  1  0
 21 40  1  0
 21 41  1  0
 24 42  1  0
M  CHG  2   2   1  14  -1
M  END
>  <UniqueID>  (65) 
65

>  <SMILES>  (65) 
C[NH+](C)C(=O)Cc1ccc2cc(C([NH-])=O)n(C(=O)OCCF)c2c1

>  <Energy>  (65) 
73.7088859464763

>  <Genealogy>  (65) 
C[NH+](C)C(=O)Cc1ccc2cc(C([NH-])=O)n(C(=O)OCCF)c2c1 (protonated)
C[NH+](C)C(=O)Cc1ccc2cc(C([NH-])=O)n(C(=O)OCCF)c2c1 (3D coordinates assigned)
C[NH+](C)C(=O)Cc1ccc2cc(C([NH-])=O)n(C(=O)OCCF)c2c1 (optimized conformer: 73.7088859464763 kcal/mol)

>  <smiles>  (65) 
CN(C)C(=O)Cc1ccc2cc(C(N)=O)n(C(=O)OCCF)c2c1

>  <score_type>  (65) 
oracle

>  <origin>  (65) 
adg

>  <m_score__min__energy>  (65) 
-9.7899999999999991

>  <m_primary>  (65) 
energy

$$$$
65:0
     RDKit          3D

 25 26  0  0  0  0  0  0  0  0999 V2000
   -5.6490   26.4960  -30.2240 N   0  0  0  0  0  0  0  0  0  0  0  0
   -6.3990   25.3160  -29.9340 C   0  0  0  0  0  0  0  0  0  0  0  0
   -7.2230   25.3320  -28.9820 O   0  0  0  0  0  0  0  0  0  0  0  0
   -6.2410   24.0980  -30.7600 C   0  0  0  0  0  0  0  0  0  0  0  0
   -7.3100   23.3680  -31.2770 C   0  0  0  0  0  0  0  0  0  0  0  0
   -6.7430   22.2760  -31.8920 C   0  0  0  0  0  0  0  0  0  0  0  0
   -7.3450   21.2200  -32.5680 C   0  0  0  0  0  0  0  0  0  0  0  0
   -6.5130   20.2330  -33.1230 C   0  0  0  0  0  0  0  0  0  0  0  0
   -5.1020   20.3320  -33.0170 C   0  0  0  0  0  0  0  0  0  0  0  0
   -4.2200   19.2480  -33.5860 C   0  0  0  0  0  0  0  0  0  0  0  0
   -3.9390   18.3250  -32.5970 F   0  0  0  0  0  0  0  0  0  0  0  0
   -3.0340   19.7800  -34.0570 F   0  0  0  0  0  0  0  0  0  0  0  0
   -4.8530   18.6050  -34.6360 F   0  0  0  0  0  0  0  0  0  0  0  0
   -4.5300   21.4090  -32.2990 C   0  0  0  0  0  0  0  0  0  0  0  0
   -5.3850   22.3670  -31.7400 C   0  0  0  0  0  0  0  0  0  0  0  0
   -5.0600   23.4810  -31.0460 N   0  0  0  0  0  0  0  0  0  0  0  0
   -3.7320   23.9420  -30.7400 C   0  0  0  0  0  0  0  0  0  0  0  0
   -2.7700   23.1300  -30.6960 O   0  0  0  0  0  0  0  0  0  0  0  0
   -3.4980   25.2860  -30.4750 O   0  0  0  0  0  0  0  0  0  0  0  0
   -5.7970   27.3620  -29.6600 H   0  0  0  0  0  0  0  0  0  0  0  0
   -4.9180   26.5060  -30.9690 H   0  0  0  0  0  0  0  0  0  0  0  0
   -8.3801   23.6132  -31.2079 H   0  0  0  0  0  0  0  0  0  0  0  0
   -8.4390   21.1594  -32.6652 H   0  0  0  0  0  0  0  0  0  0  0  0
   -6.9606   19.3745  -33.6452 H   0  0  0  0  0  0  0  0  0  0  0  0
   -3.4393   21.4918  -32.1827 H   0  0  0  0  0  0  0  0  0  0  0  0
  1  2  1  0
  2  3  2  0
  2  4  1  0
  4  5  2  0
  5  6  1  0
  6  7  2  0
  7  8  1  0
  8  9  2  0
  9 10  1  0
 10 11  1  0
 10 12  1  0
 10 13  1  0
  9 14  1  0
 14 15  2  0
 15 16  1  0
 16 17  1  0
 17 18  2  0
 17 19  1  0
 16  4  1  0
 15  6  1  0
  1 20  1  0
  1 21  1  0
  5 22  1  0
  7 23  1  0
  8 24  1  0
 14 25  1  0
M  CHG  1  19  -1
M  END
>  <UniqueID>  (66) 
66

>  <SMILES>  (66) 
NC(=O)c1cc2ccc(C(F)(F)F)cc2n1C(=O)[O-]

>  <Energy>  (66) 
65.47104648207056

>  <Genealogy>  (66) 
NC(=O)c1cc2ccc(C(F)(F)F)cc2n1C(=O)[O-] (protonated)
NC(=O)c1cc2ccc(C(F)(F)F)cc2n1C(=O)[O-] (3D coordinates assigned)
NC(=O)c1cc2ccc(C(F)(F)F)cc2n1C(=O)[O-] (optimized conformer: 65.47104648207056 kcal/mol)

>  <smiles>  (66) 
NC(=O)c1cc2ccc(C(F)(F)F)cc2n1C(=O)O

>  <score_type>  (66) 
oracle

>  <origin>  (66) 
adg

>  <m_score__min__energy>  (66) 
-7.8799999999999999

>  <m_primary>  (66) 
energy

$$$$
66:0
     RDKit          3D

 47 49  0  0  0  0  0  0  0  0999 V2000
   -1.2040   19.8350  -34.3590 C   0  0  0  0  0  0  0  0  0  0  0  0
   -0.8480   21.1620  -33.7610 C   0  0  0  0  0  0  0  0  0  0  0  0
   -0.1430   21.9410  -34.3840 O   0  0  0  0  0  0  0  0  0  0  0  0
   -1.3490   21.5440  -32.4000 C   0  0  0  0  0  0  0  0  0  0  0  0
   -2.6520   22.1040  -32.5210 O   0  0  0  0  0  0  0  0  0  0  0  0
   -3.3350   22.6770  -31.4460 C   0  0  0  0  0  0  0  0  0  0  0  0
   -2.6960   23.1460  -30.4640 O   0  0  0  0  0  0  0  0  0  0  0  0
   -4.7700   22.7590  -31.4760 N   0  0  0  0  0  0  0  0  0  0  0  0
   -5.5590   23.8030  -31.0930 C   0  0  0  0  0  0  0  0  0  0  0  0
   -5.1010   25.0430  -30.4310 C   0  0  0  0  0  0  0  0  0  0  0  0
   -3.8730   25.6470  -30.8270 N   0  0  0  0  0  0  0  0  0  0  0  0
   -5.8020   25.5960  -29.5430 O   0  0  0  0  0  0  0  0  0  0  0  0
   -6.9000   23.5120  -31.3320 C   0  0  0  0  0  0  0  0  0  0  0  0
   -6.9080   22.2450  -31.8680 C   0  0  0  0  0  0  0  0  0  0  0  0
   -7.9720   21.4620  -32.2900 C   0  0  0  0  0  0  0  0  0  0  0  0
   -7.6930   20.1930  -32.8210 C   0  0  0  0  0  0  0  0  0  0  0  0
   -6.3510   19.7150  -32.9420 C   0  0  0  0  0  0  0  0  0  0  0  0
   -6.0660   18.3920  -33.5010 N   0  0  0  0  0  0  0  0  0  0  0  0
   -6.9900   17.2770  -33.1970 C   0  0  0  0  0  0  0  0  0  0  0  0
   -6.6490   15.9470  -33.8840 C   0  0  0  0  0  0  0  0  0  0  0  0
   -5.2050   15.7180  -34.0060 N   0  0  0  0  0  0  0  0  0  0  0  0
   -4.5380   15.5390  -32.7050 C   0  0  0  0  0  0  0  0  0  0  0  0
   -4.6030   16.7800  -34.8180 C   0  0  0  0  0  0  0  0  0  0  0  0
   -4.7860   18.1790  -34.2120 C   0  0  0  0  0  0  0  0  0  0  0  0
   -5.3000   20.5630  -32.4920 C   0  0  0  0  0  0  0  0  0  0  0  0
   -5.6130   21.8130  -31.9470 C   0  0  0  0  0  0  0  0  0  0  0  0
   -1.3984   19.1105  -33.5544 H   0  0  0  0  0  0  0  0  0  0  0  0
   -2.1050   19.9429  -34.9808 H   0  0  0  0  0  0  0  0  0  0  0  0
   -0.3700   19.4774  -34.9808 H   0  0  0  0  0  0  0  0  0  0  0  0
   -1.3905   20.6509  -31.7592 H   0  0  0  0  0  0  0  0  0  0  0  0
   -0.6696   22.2829  -31.9501 H   0  0  0  0  0  0  0  0  0  0  0  0
   -2.9600   25.2900  -30.4670 H   0  0  0  0  0  0  0  0  0  0  0  0
   -7.7681   24.1579  -31.1342 H   0  0  0  0  0  0  0  0  0  0  0  0
   -9.0071   21.8258  -32.2107 H   0  0  0  0  0  0  0  0  0  0  0  0
   -8.5244   19.5528  -33.1510 H   0  0  0  0  0  0  0  0  0  0  0  0
   -6.9797   17.1120  -32.1095 H   0  0  0  0  0  0  0  0  0  0  0  0
   -7.9746   17.5793  -33.5832 H   0  0  0  0  0  0  0  0  0  0  0  0
   -7.0854   15.1266  -33.2955 H   0  0  0  0  0  0  0  0  0  0  0  0
   -7.0627   15.9874  -34.9024 H   0  0  0  0  0  0  0  0  0  0  0  0
   -5.2567   15.7319  -31.8949 H   0  0  0  0  0  0  0  0  0  0  0  0
   -4.1624   14.5083  -32.6243 H   0  0  0  0  0  0  0  0  0  0  0  0
   -3.6968   16.2432  -32.6243 H   0  0  0  0  0  0  0  0  0  0  0  0
   -3.5259   16.5786  -34.9149 H   0  0  0  0  0  0  0  0  0  0  0  0
   -5.1122   16.7758  -35.7930 H   0  0  0  0  0  0  0  0  0  0  0  0
   -3.9669   18.3511  -33.4983 H   0  0  0  0  0  0  0  0  0  0  0  0
   -4.7846   18.8821  -35.0580 H   0  0  0  0  0  0  0  0  0  0  0  0
   -4.2519   20.2387  -32.5720 H   0  0  0  0  0  0  0  0  0  0  0  0
  1  2  1  0
  2  3  2  0
  2  4  1  0
  4  5  1  0
  5  6  1  0
  6  7  2  0
  6  8  1  0
  8  9  1  0
  9 10  1  0
 10 11  1  0
 10 12  2  0
  9 13  2  0
 13 14  1  0
 14 15  2  0
 15 16  1  0
 16 17  2  0
 17 18  1  0
 18 19  1  0
 19 20  1  0
 20 21  1  0
 21 22  1  0
 21 23  1  0
 23 24  1  0
 17 25  1  0
 25 26  2  0
 26  8  1  0
 26 14  1  0
 24 18  1  0
  1 27  1  0
  1 28  1  0
  1 29  1  0
  4 30  1  0
  4 31  1  0
 11 32  1  0
 13 33  1  0
 15 34  1  0
 16 35  1  0
 19 36  1  0
 19 37  1  0
 20 38  1  0
 20 39  1  0
 22 40  1  0
 22 41  1  0
 22 42  1  0
 23 43  1  0
 23 44  1  0
 24 45  1  0
 24 46  1  0
 25 47  1  0
M  CHG  1  11  -1
M  END
>  <UniqueID>  (67) 
67

>  <SMILES>  (67) 
CC(=O)COC(=O)n1c(C([NH-])=O)cc2ccc(N3CCN(C)CC3)cc21

>  <Energy>  (67) 
92.0748883937628

>  <Genealogy>  (67) 
CC(=O)COC(=O)n1c(C([NH-])=O)cc2ccc(N3CCN(C)CC3)cc21 (protonated)
CC(=O)COC(=O)n1c(C([NH-])=O)cc2ccc(N3CCN(C)CC3)cc21 (3D coordinates assigned)
CC(=O)COC(=O)n1c(C([NH-])=O)cc2ccc(N3CCN(C)CC3)cc21 (nonaromatic ring conformer: 92.0748883937628 kcal/mol)

>  <smiles>  (67) 
CC(=O)COC(=O)n1c(C(N)=O)cc2ccc(N3CCN(C)CC3)cc21

>  <score_type>  (67) 
oracle

>  <origin>  (67) 
adg

>  <m_score__min__energy>  (67) 
-11.279999999999999

>  <m_primary>  (67) 
energy

$$$$
67:0
     RDKit          3D

 43 44  0  0  0  0  0  0  0  0999 V2000
   -3.0260   21.9990  -30.9000 C   0  0  0  0  0  0  0  0  0  0  0  0
   -3.7200   22.9220  -29.8960 C   0  0  0  0  0  0  0  0  0  0  0  0
   -4.6380   23.9770  -30.5630 C   0  0  2  0  0  0  0  0  0  0  0  0
   -3.9760   25.2830  -30.6200 N   0  0  0  0  0  0  0  0  0  0  0  0
   -6.0540   24.1100  -29.9420 C   0  0  0  0  0  0  0  0  0  0  0  0
   -7.2480   23.9650  -30.9070 C   0  0  0  0  0  0  0  0  0  0  0  0
   -7.4920   22.5480  -31.3560 C   0  0  0  0  0  0  0  0  0  0  0  0
   -8.7680   21.9560  -31.1790 C   0  0  0  0  0  0  0  0  0  0  0  0
   -9.0160   20.6460  -31.6150 C   0  0  0  0  0  0  0  0  0  0  0  0
   -7.9680   19.9450  -32.2040 C   0  0  0  0  0  0  0  0  0  0  0  0
   -7.9470   18.6810  -32.7490 C   0  0  0  0  0  0  0  0  0  0  0  0
   -6.6460   18.5020  -33.2100 C   0  0  0  0  0  0  0  0  0  0  0  0
   -6.1670   17.2460  -33.8200 C   0  0  0  0  0  0  0  0  0  0  0  0
   -5.2070   17.2550  -34.8780 N   0  0  0  0  0  0  0  0  0  0  0  0
   -6.5710   16.1430  -33.3650 O   0  0  0  0  0  0  0  0  0  0  0  0
   -5.8930   19.6130  -32.9720 N   0  0  0  0  0  0  0  0  0  0  0  0
   -4.5470   19.8590  -33.4130 C   0  0  0  0  0  0  0  0  0  0  0  0
   -4.2030   21.0190  -33.7740 O   0  0  0  0  0  0  0  0  0  0  0  0
   -3.6230   18.8100  -33.4440 O   0  0  0  0  0  0  0  0  0  0  0  0
   -2.2700   18.9910  -33.8420 C   0  0  0  0  0  0  0  0  0  0  0  0
   -6.7170   20.4870  -32.3520 C   0  0  0  0  0  0  0  0  0  0  0  0
   -6.4470   21.7990  -31.9430 C   0  0  0  0  0  0  0  0  0  0  0  0
   -2.4508   21.2340  -30.3579 H   0  0  0  0  0  0  0  0  0  0  0  0
   -3.7820   21.5100  -31.5319 H   0  0  0  0  0  0  0  0  0  0  0  0
   -2.3463   22.5895  -31.5319 H   0  0  0  0  0  0  0  0  0  0  0  0
   -4.3309   22.3056  -29.2201 H   0  0  0  0  0  0  0  0  0  0  0  0
   -2.9314   23.4702  -29.3597 H   0  0  0  0  0  0  0  0  0  0  0  0
   -4.8075   23.5963  -31.5810 H   0  0  0  0  0  0  0  0  0  0  0  0
   -4.4820   25.9400  -29.9810 H   0  0  0  0  0  0  0  0  0  0  0  0
   -4.0610   25.6780  -31.5840 H   0  0  0  0  0  0  0  0  0  0  0  0
   -6.1536   23.3337  -29.1690 H   0  0  0  0  0  0  0  0  0  0  0  0
   -6.1095   25.1420  -29.5653 H   0  0  0  0  0  0  0  0  0  0  0  0
   -8.1526   24.3292  -30.3981 H   0  0  0  0  0  0  0  0  0  0  0  0
   -7.0090   24.5516  -31.8063 H   0  0  0  0  0  0  0  0  0  0  0  0
   -9.5719   22.5299  -30.6948 H   0  0  0  0  0  0  0  0  0  0  0  0
  -10.0084   20.1869  -31.4950 H   0  0  0  0  0  0  0  0  0  0  0  0
   -8.7804   17.9654  -32.8076 H   0  0  0  0  0  0  0  0  0  0  0  0
   -4.9110   16.3590  -35.3250 H   0  0  0  0  0  0  0  0  0  0  0  0
   -4.7300   18.1390  -35.1650 H   0  0  0  0  0  0  0  0  0  0  0  0
   -1.6334   19.0762  -32.9490 H   0  0  0  0  0  0  0  0  0  0  0  0
   -1.9459   18.1282  -34.4425 H   0  0  0  0  0  0  0  0  0  0  0  0
   -2.1840   19.9086  -34.4425 H   0  0  0  0  0  0  0  0  0  0  0  0
   -5.4462   22.2358  -32.0754 H   0  0  0  0  0  0  0  0  0  0  0  0
  1  2  1  0
  2  3  1  0
  3  4  1  0
  3  5  1  0
  5  6  1  0
  6  7  1  0
  7  8  2  0
  8  9  1  0
  9 10  2  0
 10 11  1  0
 11 12  2  0
 12 13  1  0
 13 14  1  0
 13 15  2  0
 12 16  1  0
 16 17  1  0
 17 18  2  0
 17 19  1  0
 19 20  1  0
 16 21  1  0
 21 22  2  0
 22  7  1  0
 21 10  1  0
  1 23  1  0
  1 24  1  0
  1 25  1  0
  2 26  1  0
  2 27  1  0
  3 28  1  6
  4 29  1  0
  4 30  1  0
  5 31  1  0
  5 32  1  0
  6 33  1  0
  6 34  1  0
  8 35  1  0
  9 36  1  0
 11 37  1  0
 14 38  1  0
 14 39  1  0
 20 40  1  0
 20 41  1  0
 20 42  1  0
 22 43  1  0
M  END
>  <UniqueID>  (68) 
68

>  <SMILES>  (68) 
CC[C@H](N)CCc1ccc2cc(C(N)=O)n(C(=O)OC)c2c1

>  <Energy>  (68) 
75.4703528219095

>  <Genealogy>  (68) 
CC[C@H](N)CCc1ccc2cc(C(N)=O)n(C(=O)OC)c2c1 (chirality)
CC[C@H](N)CCc1ccc2cc(C(N)=O)n(C(=O)OC)c2c1 (3D coordinates assigned)
CC[C@H](N)CCc1ccc2cc(C(N)=O)n(C(=O)OC)c2c1 (optimized conformer: 75.4703528219095 kcal/mol)

>  <smiles>  (68) 
CCC(N)CCc1ccc2cc(C(N)=O)n(C(=O)OC)c2c1

>  <score_type>  (68) 
oracle

>  <origin>  (68) 
adg

>  <m_score__min__energy>  (68) 
-8.7200000000000006

>  <m_primary>  (68) 
energy

$$$$
68:0
     RDKit          3D

 40 42  0  0  0  0  0  0  0  0999 V2000
   -3.8680   22.4000  -28.9130 C   0  0  0  0  0  0  0  0  0  0  0  0
   -2.9940   22.4700  -30.1640 C   0  0  0  0  0  0  0  0  0  0  0  0
   -3.8110   22.5560  -31.4230 C   0  0  0  0  0  0  0  0  0  0  0  0
   -3.2760   22.3130  -32.5390 O   0  0  0  0  0  0  0  0  0  0  0  0
   -5.2310   22.7590  -31.3510 N   0  0  0  0  0  0  0  0  0  0  0  0
   -5.9030   23.8500  -30.8900 C   0  0  0  0  0  0  0  0  0  0  0  0
   -5.2920   25.1300  -30.4800 C   0  0  0  0  0  0  0  0  0  0  0  0
   -3.8830   25.3130  -30.5950 N   0  0  0  0  0  0  0  0  0  0  0  0
   -5.9980   26.0550  -30.0010 O   0  0  0  0  0  0  0  0  0  0  0  0
   -7.2780   23.6250  -30.9280 C   0  0  0  0  0  0  0  0  0  0  0  0
   -7.4260   22.3540  -31.4380 C   0  0  0  0  0  0  0  0  0  0  0  0
   -8.5760   21.6240  -31.7060 C   0  0  0  0  0  0  0  0  0  0  0  0
   -8.4290   20.3290  -32.2300 C   0  0  0  0  0  0  0  0  0  0  0  0
   -7.1390   19.7660  -32.4460 C   0  0  0  0  0  0  0  0  0  0  0  0
   -6.9930   18.3820  -33.0730 C   0  0  2  0  0  0  0  0  0  0  0  0
   -6.4260   17.3280  -32.1350 C   0  0  0  0  0  0  0  0  0  0  0  0
   -5.7840   16.3010  -33.0560 C   0  0  0  0  0  0  0  0  0  0  0  0
   -5.5420   16.9450  -34.3520 N   0  0  0  0  0  0  0  0  0  0  0  0
   -6.0260   18.3240  -34.2530 C   0  0  0  0  0  0  0  0  0  0  0  0
   -5.9950   20.5660  -32.1950 C   0  0  0  0  0  0  0  0  0  0  0  0
   -6.1760   21.8550  -31.6850 C   0  0  0  0  0  0  0  0  0  0  0  0
   -3.2312   22.4510  -28.0175 H   0  0  0  0  0  0  0  0  0  0  0  0
   -4.5728   23.2446  -28.9104 H   0  0  0  0  0  0  0  0  0  0  0  0
   -4.4294   21.4540  -28.9104 H   0  0  0  0  0  0  0  0  0  0  0  0
   -2.3508   23.3599  -30.0975 H   0  0  0  0  0  0  0  0  0  0  0  0
   -2.3969   21.5473  -30.2111 H   0  0  0  0  0  0  0  0  0  0  0  0
   -3.4870   26.0370  -31.2360 H   0  0  0  0  0  0  0  0  0  0  0  0
   -8.0756   24.3157  -30.6168 H   0  0  0  0  0  0  0  0  0  0  0  0
   -9.5730   22.0472  -31.5137 H   0  0  0  0  0  0  0  0  0  0  0  0
   -9.3247   19.7404  -32.4774 H   0  0  0  0  0  0  0  0  0  0  0  0
   -8.0345   18.1812  -33.3644 H   0  0  0  0  0  0  0  0  0  0  0  0
   -5.6757   17.7696  -31.4626 H   0  0  0  0  0  0  0  0  0  0  0  0
   -7.1985   16.8847  -31.4895 H   0  0  0  0  0  0  0  0  0  0  0  0
   -4.8316   15.9573  -32.6260 H   0  0  0  0  0  0  0  0  0  0  0  0
   -6.4452   15.4305  -33.1787 H   0  0  0  0  0  0  0  0  0  0  0  0
   -4.5190   16.9350  -34.5810 H   0  0  0  0  0  0  0  0  0  0  0  0
   -6.0660   16.4390  -35.1050 H   0  0  0  0  0  0  0  0  0  0  0  0
   -5.1817   19.0079  -34.0817 H   0  0  0  0  0  0  0  0  0  0  0  0
   -6.5280   18.6283  -35.1833 H   0  0  0  0  0  0  0  0  0  0  0  0
   -4.9852   20.1798  -32.3977 H   0  0  0  0  0  0  0  0  0  0  0  0
  1  2  1  0
  2  3  1  0
  3  4  2  0
  3  5  1  0
  5  6  1  0
  6  7  1  0
  7  8  1  0
  7  9  2  0
  6 10  2  0
 10 11  1  0
 11 12  2  0
 12 13  1  0
 13 14  2  0
 14 15  1  0
 15 16  1  0
 16 17  1  0
 17 18  1  0
 18 19  1  0
 14 20  1  0
 20 21  2  0
 21  5  1  0
 21 11  1  0
 19 15  1  0
  1 22  1  0
  1 23  1  0
  1 24  1  0
  2 25  1  0
  2 26  1  0
  8 27  1  0
 10 28  1  0
 12 29  1  0
 13 30  1  0
 15 31  1  6
 16 32  1  0
 16 33  1  0
 17 34  1  0
 17 35  1  0
 18 36  1  0
 18 37  1  0
 19 38  1  0
 19 39  1  0
 20 40  1  0
M  CHG  2   8  -1  18   1
M  END
>  <UniqueID>  (69) 
69

>  <SMILES>  (69) 
CCC(=O)n1c(C([NH-])=O)cc2ccc([C@@H]3CC[NH2+]C3)cc21

>  <Energy>  (69) 
82.8056648338985

>  <Genealogy>  (69) 
CCC(=O)n1c(C([NH-])=O)cc2ccc([C@@H]3CC[NH2+]C3)cc21 (protonated)
CCC(=O)n1c(C([NH-])=O)cc2ccc([C@@H]3CC[NH2+]C3)cc21 (3D coordinates assigned)
CCC(=O)n1c(C([NH-])=O)cc2ccc([C@@H]3CC[NH2+]C3)cc21 (nonaromatic ring conformer: 82.8056648338985 kcal/mol)

>  <smiles>  (69) 
CCC(=O)n1c(C(N)=O)cc2ccc([C@@H]3CCNC3)cc21

>  <score_type>  (69) 
oracle

>  <origin>  (69) 
adg

>  <m_score__min__energy>  (69) 
-10.32

>  <m_primary>  (69) 
energy

$$$$
69:0
     RDKit          3D

 43 44  0  0  0  0  0  0  0  0999 V2000
   -4.2120   16.5970  -34.5790 C   0  0  0  0  0  0  0  0  0  0  0  0
   -5.5190   17.2820  -34.1830 C   0  0  0  0  0  0  0  0  0  0  0  0
   -5.7340   18.5470  -35.0190 C   0  0  0  0  0  0  0  0  0  0  0  0
   -5.4650   17.6110  -32.7950 O   0  0  0  0  0  0  0  0  0  0  0  0
   -6.5970   17.8900  -32.0210 C   0  0  0  0  0  0  0  0  0  0  0  0
   -6.6720   17.5040  -30.8230 O   0  0  0  0  0  0  0  0  0  0  0  0
   -7.7000   18.7090  -32.6070 C   0  0  0  0  0  0  0  0  0  0  0  0
   -7.6440   20.1090  -32.0610 C   0  0  0  0  0  0  0  0  0  0  0  0
   -8.8320   20.7530  -31.6350 C   0  0  0  0  0  0  0  0  0  0  0  0
   -8.7940   22.0690  -31.1450 C   0  0  0  0  0  0  0  0  0  0  0  0
   -7.5640   22.7190  -31.1110 C   0  0  0  0  0  0  0  0  0  0  0  0
   -7.2400   23.9800  -30.6680 C   0  0  0  0  0  0  0  0  0  0  0  0
   -5.8660   24.1000  -30.8630 C   0  0  0  0  0  0  0  0  0  0  0  0
   -5.1110   25.3420  -30.5970 C   0  0  0  0  0  0  0  0  0  0  0  0
   -3.6940   25.2930  -30.4470 N   0  0  0  0  0  0  0  0  0  0  0  0
   -5.7080   26.4430  -30.4650 O   0  0  0  0  0  0  0  0  0  0  0  0
   -5.3580   22.9550  -31.4020 N   0  0  0  0  0  0  0  0  0  0  0  0
   -3.9840   22.6510  -31.6830 C   0  0  0  0  0  0  0  0  0  0  0  0
   -3.1260   22.7080  -30.7610 O   0  0  0  0  0  0  0  0  0  0  0  0
   -3.6010   22.3060  -32.9860 O   0  0  0  0  0  0  0  0  0  0  0  0
   -3.3900   20.9640  -33.4190 C   0  0  0  0  0  0  0  0  0  0  0  0
   -3.0320   20.0650  -32.2380 C   0  0  0  0  0  0  0  0  0  0  0  0
   -2.4620   18.8860  -32.6810 F   0  0  0  0  0  0  0  0  0  0  0  0
   -6.4100   22.1190  -31.5470 C   0  0  0  0  0  0  0  0  0  0  0  0
   -6.4150   20.8030  -32.0230 C   0  0  0  0  0  0  0  0  0  0  0  0
   -3.6602   16.3078  -33.6724 H   0  0  0  0  0  0  0  0  0  0  0  0
   -4.4343   15.6995  -35.1749 H   0  0  0  0  0  0  0  0  0  0  0  0
   -3.6004   17.2905  -35.1749 H   0  0  0  0  0  0  0  0  0  0  0  0
   -6.3622   16.6009  -34.3703 H   0  0  0  0  0  0  0  0  0  0  0  0
   -5.8803   19.4080  -34.3502 H   0  0  0  0  0  0  0  0  0  0  0  0
   -4.8526   18.7213  -35.6536 H   0  0  0  0  0  0  0  0  0  0  0  0
   -6.6235   18.4203  -35.6536 H   0  0  0  0  0  0  0  0  0  0  0  0
   -7.5899   18.7396  -33.7010 H   0  0  0  0  0  0  0  0  0  0  0  0
   -8.6669   18.2559  -32.3430 H   0  0  0  0  0  0  0  0  0  0  0  0
   -9.7918   20.2182  -31.6884 H   0  0  0  0  0  0  0  0  0  0  0  0
   -9.7094   22.5709  -30.7984 H   0  0  0  0  0  0  0  0  0  0  0  0
   -7.9218   24.7344  -30.2484 H   0  0  0  0  0  0  0  0  0  0  0  0
   -3.0940   24.8390  -31.1700 H   0  0  0  0  0  0  0  0  0  0  0  0
   -4.3092   20.5888  -33.8926 H   0  0  0  0  0  0  0  0  0  0  0  0
   -2.5574   20.9514  -34.1377 H   0  0  0  0  0  0  0  0  0  0  0  0
   -2.3174   20.5901  -31.5871 H   0  0  0  0  0  0  0  0  0  0  0  0
   -3.9503   19.8282  -31.6806 H   0  0  0  0  0  0  0  0  0  0  0  0
   -5.4849   20.3214  -32.3591 H   0  0  0  0  0  0  0  0  0  0  0  0
  1  2  1  0
  2  3  1  0
  2  4  1  0
  4  5  1  0
  5  6  2  0
  5  7  1  0
  7  8  1  0
  8  9  2  0
  9 10  1  0
 10 11  2  0
 11 12  1  0
 12 13  2  0
 13 14  1  0
 14 15  1  0
 14 16  2  0
 13 17  1  0
 17 18  1  0
 18 19  2  0
 18 20  1  0
 20 21  1  0
 21 22  1  0
 22 23  1  0
 17 24  1  0
 24 25  2  0
 25  8  1  0
 24 11  1  0
  1 26  1  0
  1 27  1  0
  1 28  1  0
  2 29  1  0
  3 30  1  0
  3 31  1  0
  3 32  1  0
  7 33  1  0
  7 34  1  0
  9 35  1  0
 10 36  1  0
 12 37  1  0
 15 38  1  0
 21 39  1  0
 21 40  1  0
 22 41  1  0
 22 42  1  0
 25 43  1  0
M  CHG  1  15  -1
M  END
>  <UniqueID>  (70) 
70

>  <SMILES>  (70) 
CC(C)OC(=O)Cc1ccc2cc(C([NH-])=O)n(C(=O)OCCF)c2c1

>  <Energy>  (70) 
69.96933688638167

>  <Genealogy>  (70) 
CC(C)OC(=O)Cc1ccc2cc(C([NH-])=O)n(C(=O)OCCF)c2c1 (protonated)
CC(C)OC(=O)Cc1ccc2cc(C([NH-])=O)n(C(=O)OCCF)c2c1 (3D coordinates assigned)
CC(C)OC(=O)Cc1ccc2cc(C([NH-])=O)n(C(=O)OCCF)c2c1 (optimized conformer: 69.96933688638167 kcal/mol)

>  <smiles>  (70) 
CC(C)OC(=O)Cc1ccc2cc(C(N)=O)n(C(=O)OCCF)c2c1

>  <score_type>  (70) 
oracle

>  <origin>  (70) 
adg

>  <m_score__min__energy>  (70) 
-10.039999999999999

>  <m_primary>  (70) 
energy

$$$$
70:0
     RDKit          3D

 34 35  0  0  0  0  0  0  0  0999 V2000
   -4.8160   25.6710  -30.3860 N   0  0  0  0  0  0  0  0  0  0  0  0
   -5.0980   24.2770  -30.2970 C   0  0  0  0  0  0  0  0  0  0  0  0
   -6.1270   23.8940  -29.6780 O   0  0  0  0  0  0  0  0  0  0  0  0
   -4.2370   23.2820  -30.9710 C   0  0  0  0  0  0  0  0  0  0  0  0
   -4.6920   22.4340  -31.9770 C   0  0  0  0  0  0  0  0  0  0  0  0
   -3.5810   21.7410  -32.3990 C   0  0  0  0  0  0  0  0  0  0  0  0
   -3.4600   20.7530  -33.3720 C   0  0  0  0  0  0  0  0  0  0  0  0
   -2.1920   20.1820  -33.5770 C   0  0  0  0  0  0  0  0  0  0  0  0
   -1.0780   20.6030  -32.8080 C   0  0  0  0  0  0  0  0  0  0  0  0
    0.2680   19.9540  -33.0040 C   0  0  0  0  0  0  0  0  0  0  0  0
    0.7260   20.0100  -34.4680 C   0  0  0  0  0  0  0  0  0  0  0  0
    1.8870   20.9850  -34.6830 C   0  0  0  0  0  0  0  0  0  0  0  0
    1.3640   22.2670  -34.9420 O   0  0  0  0  0  0  0  0  0  0  0  0
    2.3550   23.0280  -36.1030 P   0  0  0  0  0  0  0  0  0  0  0  0
    3.2700   24.0270  -35.4290 O   0  0  0  0  0  0  0  0  0  0  0  0
    3.2840   21.8790  -36.9290 O   0  0  0  0  0  0  0  0  0  0  0  0
    1.3740   23.8410  -37.2130 O   0  0  0  0  0  0  0  0  0  0  0  0
   -1.2420   21.6060  -31.8250 C   0  0  0  0  0  0  0  0  0  0  0  0
   -2.5110   22.1690  -31.6550 C   0  0  0  0  0  0  0  0  0  0  0  0
   -2.8990   23.1150  -30.7710 N   0  0  0  0  0  0  0  0  0  0  0  0
   -2.0790   23.7270  -29.7620 C   0  0  0  0  0  0  0  0  0  0  0  0
   -1.2450   23.0400  -29.1160 O   0  0  0  0  0  0  0  0  0  0  0  0
   -2.2190   25.0790  -29.4700 O   0  0  0  0  0  0  0  0  0  0  0  0
   -3.8800   26.0480  -30.1140 H   0  0  0  0  0  0  0  0  0  0  0  0
   -5.7209   22.3384  -32.3542 H   0  0  0  0  0  0  0  0  0  0  0  0
   -4.3298   20.4291  -33.9623 H   0  0  0  0  0  0  0  0  0  0  0  0
   -2.0630   19.4013  -34.3411 H   0  0  0  0  0  0  0  0  0  0  0  0
    1.0083   20.4763  -32.3801 H   0  0  0  0  0  0  0  0  0  0  0  0
    0.1801   18.8961  -32.7159 H   0  0  0  0  0  0  0  0  0  0  0  0
    1.0486   19.0043  -34.7753 H   0  0  0  0  0  0  0  0  0  0  0  0
   -0.1235   20.3643  -35.0704 H   0  0  0  0  0  0  0  0  0  0  0  0
    2.5140   21.0175  -33.7798 H   0  0  0  0  0  0  0  0  0  0  0  0
    2.4995   20.6533  -35.5344 H   0  0  0  0  0  0  0  0  0  0  0  0
   -0.3923   21.9355  -31.2090 H   0  0  0  0  0  0  0  0  0  0  0  0
  1  2  1  0
  2  3  2  0
  2  4  1  0
  4  5  2  0
  5  6  1  0
  6  7  2  0
  7  8  1  0
  8  9  2  0
  9 10  1  0
 10 11  1  0
 11 12  1  0
 12 13  1  0
 13 14  1  0
 14 15  2  0
 14 16  1  0
 14 17  1  0
  9 18  1  0
 18 19  2  0
 19 20  1  0
 20 21  1  0
 21 22  2  0
 21 23  1  0
 20  4  1  0
 19  6  1  0
  1 24  1  0
  5 25  1  0
  7 26  1  0
  8 27  1  0
 10 28  1  0
 10 29  1  0
 11 30  1  0
 11 31  1  0
 12 32  1  0
 12 33  1  0
 18 34  1  0
M  CHG  4   1  -1  16  -1  17  -1  23  -1
M  END
>  <UniqueID>  (71) 
71

>  <SMILES>  (71) 
[NH-]C(=O)c1cc2ccc(CCCOP(=O)([O-])[O-])cc2n1C(=O)[O-]

>  <Energy>  (71) 
68.24766326196863

>  <Genealogy>  (71) 
[NH-]C(=O)c1cc2ccc(CCCOP(=O)([O-])[O-])cc2n1C(=O)[O-] (protonated)
[NH-]C(=O)c1cc2ccc(CCCOP(=O)([O-])[O-])cc2n1C(=O)[O-] (3D coordinates assigned)
[NH-]C(=O)c1cc2ccc(CCCOP(=O)([O-])[O-])cc2n1C(=O)[O-] (optimized conformer: 68.24766326196863 kcal/mol)

>  <smiles>  (71) 
NC(=O)c1cc2ccc(CCCOP(=O)(O)O)cc2n1C(=O)O

>  <score_type>  (71) 
oracle

>  <origin>  (71) 
adg

>  <m_score__min__energy>  (71) 
-11.710000000000001

>  <m_primary>  (71) 
energy

$$$$
71:0
     RDKit          3D

 40 43  0  0  0  0  0  0  0  0999 V2000
   -5.8680   25.4110  -29.2570 N   0  0  0  0  0  0  0  0  0  0  0  0
   -5.5130   24.7960  -30.4950 C   0  0  0  0  0  0  0  0  0  0  0  0
   -4.5970   25.3030  -31.1970 O   0  0  0  0  0  0  0  0  0  0  0  0
   -6.1540   23.5420  -30.9390 C   0  0  0  0  0  0  0  0  0  0  0  0
   -7.5320   23.3440  -30.9360 C   0  0  0  0  0  0  0  0  0  0  0  0
   -7.7190   22.0920  -31.4760 C   0  0  0  0  0  0  0  0  0  0  0  0
   -8.8930   21.3810  -31.6950 C   0  0  0  0  0  0  0  0  0  0  0  0
   -8.7920   20.0870  -32.2310 C   0  0  0  0  0  0  0  0  0  0  0  0
   -7.5190   19.5170  -32.5290 C   0  0  0  0  0  0  0  0  0  0  0  0
   -7.3350   18.1190  -33.0940 C   0  0  0  0  0  0  0  0  0  0  0  0
   -6.0940   17.8630  -33.9350 C   0  0  0  0  0  0  0  0  0  0  0  0
   -6.1930   17.2830  -32.5300 C   0  0  0  0  0  0  0  0  0  0  0  0
   -6.3520   20.2780  -32.2860 C   0  0  0  0  0  0  0  0  0  0  0  0
   -6.4860   21.5730  -31.7730 C   0  0  0  0  0  0  0  0  0  0  0  0
   -5.5120   22.4520  -31.4470 N   0  0  0  0  0  0  0  0  0  0  0  0
   -4.0960   22.2200  -31.5130 C   0  0  0  0  0  0  0  0  0  0  0  0
   -3.5140   22.2110  -32.6320 O   0  0  0  0  0  0  0  0  0  0  0  0
   -3.3830   21.9530  -30.3370 O   0  0  0  0  0  0  0  0  0  0  0  0
   -3.1450   22.8730  -29.3050 C   0  0  0  0  0  0  0  0  0  0  0  0
   -4.0360   22.9070  -28.2240 C   0  0  0  0  0  0  0  0  0  0  0  0
   -3.8470   23.8160  -27.1780 C   0  0  0  0  0  0  0  0  0  0  0  0
   -2.7690   24.7050  -27.2100 C   0  0  0  0  0  0  0  0  0  0  0  0
   -1.8860   24.6920  -28.2920 C   0  0  0  0  0  0  0  0  0  0  0  0
   -2.0720   23.7840  -29.3390 C   0  0  0  0  0  0  0  0  0  0  0  0
   -6.4950   24.9300  -28.5750 H   0  0  0  0  0  0  0  0  0  0  0  0
   -5.4320   26.3190  -28.9780 H   0  0  0  0  0  0  0  0  0  0  0  0
   -8.3057   24.0394  -30.5785 H   0  0  0  0  0  0  0  0  0  0  0  0
   -9.8730   21.8193  -31.4554 H   0  0  0  0  0  0  0  0  0  0  0  0
   -9.7059   19.5058  -32.4234 H   0  0  0  0  0  0  0  0  0  0  0  0
   -8.4152   17.9670  -33.2355 H   0  0  0  0  0  0  0  0  0  0  0  0
   -6.1500   17.1981  -34.8095 H   0  0  0  0  0  0  0  0  0  0  0  0
   -5.3689   18.4986  -34.4644 H   0  0  0  0  0  0  0  0  0  0  0  0
   -6.3213   16.1996  -32.3897 H   0  0  0  0  0  0  0  0  0  0  0  0
   -5.5702   17.3261  -31.6243 H   0  0  0  0  0  0  0  0  0  0  0  0
   -5.3568   19.8594  -32.4965 H   0  0  0  0  0  0  0  0  0  0  0  0
   -4.8899   22.2140  -28.1979 H   0  0  0  0  0  0  0  0  0  0  0  0
   -4.5471   23.8313  -26.3297 H   0  0  0  0  0  0  0  0  0  0  0  0
   -2.6161   25.4145  -26.3834 H   0  0  0  0  0  0  0  0  0  0  0  0
   -1.0425   25.3975  -28.3206 H   0  0  0  0  0  0  0  0  0  0  0  0
   -1.3776   23.7814  -30.1921 H   0  0  0  0  0  0  0  0  0  0  0  0
  1  2  1  0
  2  3  2  0
  2  4  1  0
  4  5  2  0
  5  6  1  0
  6  7  2  0
  7  8  1  0
  8  9  2  0
  9 10  1  0
 10 11  1  0
 11 12  1  0
  9 13  1  0
 13 14  2  0
 14 15  1  0
 15 16  1  0
 16 17  2  0
 16 18  1  0
 18 19  1  0
 19 20  2  0
 20 21  1  0
 21 22  2  0
 22 23  1  0
 23 24  2  0
 15  4  1  0
 24 19  1  0
 14  6  1  0
 12 10  1  0
  1 25  1  0
  1 26  1  0
  5 27  1  0
  7 28  1  0
  8 29  1  0
 10 30  1  0
 11 31  1  0
 11 32  1  0
 12 33  1  0
 12 34  1  0
 13 35  1  0
 20 36  1  0
 21 37  1  0
 22 38  1  0
 23 39  1  0
 24 40  1  0
M  END
>  <UniqueID>  (72) 
72

>  <SMILES>  (72) 
NC(=O)c1cc2ccc(C3CC3)cc2n1C(=O)Oc1ccccc1

>  <Energy>  (72) 
355.29421579331586

>  <Genealogy>  (72) 
NC(=O)c1cc2ccc(C3CC3)cc2n1C(=O)Oc1ccccc1 (3D coordinates assigned)
NC(=O)c1cc2ccc(C3CC3)cc2n1C(=O)Oc1ccccc1 (nonaromatic ring conformer: 355.29421579331586 kcal/mol)

>  <smiles>  (72) 
NC(=O)c1cc2ccc(C3CC3)cc2n1C(=O)Oc1ccccc1

>  <score_type>  (72) 
oracle

>  <origin>  (72) 
adg

>  <m_score__min__energy>  (72) 
-9.6999999999999993

>  <m_primary>  (72) 
energy

$$$$
72:0
     RDKit          3D

 40 42  0  0  0  0  0  0  0  0999 V2000
   -3.1210   20.9750  -33.4560 C   0  0  0  0  0  0  0  0  0  0  0  0
   -3.7900   22.2070  -33.2160 O   0  0  0  0  0  0  0  0  0  0  0  0
   -4.0930   22.6610  -31.9290 C   0  0  0  0  0  0  0  0  0  0  0  0
   -3.1980   22.7020  -31.0410 O   0  0  0  0  0  0  0  0  0  0  0  0
   -5.4360   23.0610  -31.6120 N   0  0  0  0  0  0  0  0  0  0  0  0
   -5.8440   24.1890  -30.9620 C   0  0  0  0  0  0  0  0  0  0  0  0
   -4.9890   25.3330  -30.5850 C   0  0  0  0  0  0  0  0  0  0  0  0
   -3.5810   25.1760  -30.4260 N   0  0  0  0  0  0  0  0  0  0  0  0
   -5.5020   26.4760  -30.4480 O   0  0  0  0  0  0  0  0  0  0  0  0
   -7.2230   24.1650  -30.7630 C   0  0  0  0  0  0  0  0  0  0  0  0
   -7.6520   22.9840  -31.3230 C   0  0  0  0  0  0  0  0  0  0  0  0
   -8.9320   22.4410  -31.3940 C   0  0  0  0  0  0  0  0  0  0  0  0
   -9.0810   21.1830  -32.0000 C   0  0  0  0  0  0  0  0  0  0  0  0
   -7.9570   20.4930  -32.5230 C   0  0  0  0  0  0  0  0  0  0  0  0
   -8.1160   19.1830  -33.1040 N   0  0  0  0  0  0  0  0  0  0  0  0
   -7.4080   18.1840  -32.2920 C   0  0  0  0  0  0  0  0  0  0  0  0
   -6.2230   17.6430  -33.0400 C   0  0  0  0  0  0  0  0  0  0  0  0
   -5.4000   16.6640  -32.4640 C   0  0  0  0  0  0  0  0  0  0  0  0
   -4.2860   16.2060  -33.1700 C   0  0  0  0  0  0  0  0  0  0  0  0
   -3.9970   16.7310  -34.4300 C   0  0  0  0  0  0  0  0  0  0  0  0
   -4.8310   17.7140  -34.9680 C   0  0  0  0  0  0  0  0  0  0  0  0
   -5.9120   18.1480  -34.2670 N   0  0  0  0  0  0  0  0  0  0  0  0
   -6.6710   21.0730  -32.4210 C   0  0  0  0  0  0  0  0  0  0  0  0
   -6.5560   22.3360  -31.8280 C   0  0  0  0  0  0  0  0  0  0  0  0
   -2.8650   20.5036  -32.4957 H   0  0  0  0  0  0  0  0  0  0  0  0
   -3.7796   20.3057  -34.0290 H   0  0  0  0  0  0  0  0  0  0  0  0
   -2.2010   21.1629  -34.0290 H   0  0  0  0  0  0  0  0  0  0  0  0
   -2.9840   24.8510  -31.2180 H   0  0  0  0  0  0  0  0  0  0  0  0
   -7.8380   24.9284  -30.2640 H   0  0  0  0  0  0  0  0  0  0  0  0
   -9.8001   22.9809  -30.9878 H   0  0  0  0  0  0  0  0  0  0  0  0
  -10.0799   20.7277  -32.0700 H   0  0  0  0  0  0  0  0  0  0  0  0
   -9.1340   18.9400  -33.1550 H   0  0  0  0  0  0  0  0  0  0  0  0
   -7.7340   19.1830  -34.0800 H   0  0  0  0  0  0  0  0  0  0  0  0
   -7.0635   18.6539  -31.3590 H   0  0  0  0  0  0  0  0  0  0  0  0
   -8.0958   17.3555  -32.0675 H   0  0  0  0  0  0  0  0  0  0  0  0
   -5.6299   16.2613  -31.4665 H   0  0  0  0  0  0  0  0  0  0  0  0
   -3.6371   15.4324  -32.7335 H   0  0  0  0  0  0  0  0  0  0  0  0
   -3.1220   16.3747  -34.9935 H   0  0  0  0  0  0  0  0  0  0  0  0
   -4.6129   18.1373  -35.9596 H   0  0  0  0  0  0  0  0  0  0  0  0
   -5.7830   20.5447  -32.7983 H   0  0  0  0  0  0  0  0  0  0  0  0
  1  2  1  0
  2  3  1  0
  3  4  2  0
  3  5  1  0
  5  6  1  0
  6  7  1  0
  7  8  1  0
  7  9  2  0
  6 10  2  0
 10 11  1  0
 11 12  2  0
 12 13  1  0
 13 14  2  0
 14 15  1  0
 15 16  1  0
 16 17  1  0
 17 18  2  0
 18 19  1  0
 19 20  2  0
 20 21  1  0
 21 22  2  0
 14 23  1  0
 23 24  2  0
 24  5  1  0
 24 11  1  0
 22 17  1  0
  1 25  1  0
  1 26  1  0
  1 27  1  0
  8 28  1  0
 10 29  1  0
 12 30  1  0
 13 31  1  0
 15 32  1  0
 15 33  1  0
 16 34  1  0
 16 35  1  0
 18 36  1  0
 19 37  1  0
 20 38  1  0
 21 39  1  0
 23 40  1  0
M  CHG  2   8  -1  15   1
M  END
>  <UniqueID>  (73) 
73

>  <SMILES>  (73) 
COC(=O)n1c(C([NH-])=O)cc2ccc([NH2+]Cc3ccccn3)cc21

>  <Energy>  (73) 
80.1511775968811

>  <Genealogy>  (73) 
COC(=O)n1c(C([NH-])=O)cc2ccc([NH2+]Cc3ccccn3)cc21 (protonated)
COC(=O)n1c(C([NH-])=O)cc2ccc([NH2+]Cc3ccccn3)cc21 (3D coordinates assigned)
COC(=O)n1c(C([NH-])=O)cc2ccc([NH2+]Cc3ccccn3)cc21 (optimized conformer: 80.1511775968811 kcal/mol)

>  <smiles>  (73) 
COC(=O)n1c(C(N)=O)cc2ccc(NCc3ccccn3)cc21

>  <score_type>  (73) 
oracle

>  <origin>  (73) 
adg

>  <m_score__min__energy>  (73) 
-10.23

>  <m_primary>  (73) 
energy

$$$$
73:0
     RDKit          3D

 38 40  0  0  0  0  0  0  0  0999 V2000
   -2.9440   20.7100  -33.1260 C   0  0  0  0  0  0  0  0  0  0  0  0
   -3.8410   21.9390  -33.2280 C   0  0  0  0  0  0  0  0  0  0  0  0
   -4.0830   22.5230  -31.8690 C   0  0  0  0  0  0  0  0  0  0  0  0
   -3.1390   22.5820  -31.0360 O   0  0  0  0  0  0  0  0  0  0  0  0
   -5.4060   22.9010  -31.4700 N   0  0  0  0  0  0  0  0  0  0  0  0
   -5.8320   24.1080  -31.0080 C   0  0  0  0  0  0  0  0  0  0  0  0
   -4.9680   25.2640  -30.6900 C   0  0  0  0  0  0  0  0  0  0  0  0
   -3.5710   25.0960  -30.4640 N   0  0  0  0  0  0  0  0  0  0  0  0
   -5.4740   26.4140  -30.5910 O   0  0  0  0  0  0  0  0  0  0  0  0
   -7.2160   24.1000  -30.8310 C   0  0  0  0  0  0  0  0  0  0  0  0
   -7.6230   22.8360  -31.2030 C   0  0  0  0  0  0  0  0  0  0  0  0
   -8.8990   22.2820  -31.2600 C   0  0  0  0  0  0  0  0  0  0  0  0
   -9.0230   20.9630  -31.7300 C   0  0  0  0  0  0  0  0  0  0  0  0
   -7.8780   20.2250  -32.1230 C   0  0  0  0  0  0  0  0  0  0  0  0
   -8.0250   18.8420  -32.6890 C   0  0  0  0  0  0  0  0  0  0  0  0
   -6.7530   18.4050  -33.2560 N   0  0  0  0  0  0  0  0  0  0  0  0
   -5.7920   17.7140  -32.6140 C   0  0  0  0  0  0  0  0  0  0  0  0
   -4.7100   17.5780  -33.4630 C   0  0  0  0  0  0  0  0  0  0  0  0
   -5.0810   18.2320  -34.6240 C   0  0  0  0  0  0  0  0  0  0  0  0
   -6.3220   18.7280  -34.4640 N   0  0  0  0  0  0  0  0  0  0  0  0
   -6.6010   20.8240  -32.0580 C   0  0  0  0  0  0  0  0  0  0  0  0
   -6.5090   22.1350  -31.5820 C   0  0  0  0  0  0  0  0  0  0  0  0
   -2.7692   20.4705  -32.0667 H   0  0  0  0  0  0  0  0  0  0  0  0
   -3.4333   19.8570  -33.6189 H   0  0  0  0  0  0  0  0  0  0  0  0
   -1.9824   20.9160  -33.6189 H   0  0  0  0  0  0  0  0  0  0  0  0
   -3.3533   22.6920  -33.8645 H   0  0  0  0  0  0  0  0  0  0  0  0
   -4.8054   21.6417  -33.6657 H   0  0  0  0  0  0  0  0  0  0  0  0
   -2.9450   24.7380  -31.2180 H   0  0  0  0  0  0  0  0  0  0  0  0
   -7.8476   24.9257  -30.4715 H   0  0  0  0  0  0  0  0  0  0  0  0
   -9.7822   22.8582  -30.9471 H   0  0  0  0  0  0  0  0  0  0  0  0
  -10.0182   20.4988  -31.7935 H   0  0  0  0  0  0  0  0  0  0  0  0
   -8.3259   18.1496  -31.8890 H   0  0  0  0  0  0  0  0  0  0  0  0
   -8.7917   18.8506  -33.4777 H   0  0  0  0  0  0  0  0  0  0  0  0
   -5.8571   17.3238  -31.5876 H   0  0  0  0  0  0  0  0  0  0  0  0
   -3.7602   17.0618  -33.2596 H   0  0  0  0  0  0  0  0  0  0  0  0
   -4.4635   18.3305  -35.5290 H   0  0  0  0  0  0  0  0  0  0  0  0
   -6.8580   19.2900  -35.1630 H   0  0  0  0  0  0  0  0  0  0  0  0
   -5.7024   20.2735  -32.3736 H   0  0  0  0  0  0  0  0  0  0  0  0
  1  2  1  0
  2  3  1  0
  3  4  2  0
  3  5  1  0
  5  6  1  0
  6  7  1  0
  7  8  1  0
  7  9  2  0
  6 10  2  0
 10 11  1  0
 11 12  2  0
 12 13  1  0
 13 14  2  0
 14 15  1  0
 15 16  1  0
 16 17  1  0
 17 18  2  0
 18 19  1  0
 19 20  2  0
 14 21  1  0
 21 22  2  0
 22  5  1  0
 22 11  1  0
 20 16  1  0
  1 23  1  0
  1 24  1  0
  1 25  1  0
  2 26  1  0
  2 27  1  0
  8 28  1  0
 10 29  1  0
 12 30  1  0
 13 31  1  0
 15 32  1  0
 15 33  1  0
 17 34  1  0
 18 35  1  0
 19 36  1  0
 20 37  1  0
 21 38  1  0
M  CHG  2   8  -1  20   1
M  END
>  <UniqueID>  (74) 
74

>  <SMILES>  (74) 
CCC(=O)n1c(C([NH-])=O)cc2ccc(Cn3ccc[nH+]3)cc21

>  <Energy>  (74) 
103.92965984075182

>  <Genealogy>  (74) 
CCC(=O)n1c(C([NH-])=O)cc2ccc(Cn3ccc[nH+]3)cc21 (protonated)
CCC(=O)n1c(C([NH-])=O)cc2ccc(Cn3ccc[nH+]3)cc21 (3D coordinates assigned)
CCC(=O)n1c(C([NH-])=O)cc2ccc(Cn3ccc[nH+]3)cc21 (optimized conformer: 103.92965984075182 kcal/mol)

>  <smiles>  (74) 
CCC(=O)n1c(C(N)=O)cc2ccc(Cn3cccn3)cc21

>  <score_type>  (74) 
oracle

>  <origin>  (74) 
adg

>  <m_score__min__energy>  (74) 
-10.710000000000001

>  <m_primary>  (74) 
energy

$$$$
74:0
     RDKit          3D

 70 75  0  0  0  0  0  0  0  0999 V2000
   -4.5870   22.0830  -32.8430 C   0  0  0  0  0  0  0  0  0  0  0  0
   -5.2580   20.7540  -33.0210 C   0  0  0  0  0  0  0  0  0  0  0  0
   -6.6660   20.6530  -32.9210 C   0  0  0  0  0  0  0  0  0  0  0  0
   -7.3030   19.4060  -33.0370 C   0  0  0  0  0  0  0  0  0  0  0  0
   -6.5070   18.2830  -33.2480 C   0  0  0  0  0  0  0  0  0  0  0  0
   -6.8610   16.9610  -33.3790 C   0  0  0  0  0  0  0  0  0  0  0  0
   -5.6650   16.2740  -33.5720 C   0  0  0  0  0  0  0  0  0  0  0  0
   -5.5890   14.8240  -33.8590 C   0  0  0  0  0  0  0  0  0  0  0  0
   -4.4020   14.0860  -33.5650 N   0  0  0  0  0  0  0  0  0  0  0  0
   -6.5830   14.2180  -34.3370 O   0  0  0  0  0  0  0  0  0  0  0  0
   -4.6080   17.1380  -33.5540 N   0  0  0  0  0  0  0  0  0  0  0  0
   -3.2130   16.8210  -33.6970 C   0  0  0  0  0  0  0  0  0  0  0  0
   -2.5440   16.4420  -32.6960 O   0  0  0  0  0  0  0  0  0  0  0  0
   -2.5970   16.9430  -34.9480 O   0  0  0  0  0  0  0  0  0  0  0  0
   -2.4730   15.8650  -35.8730 C   0  0  0  0  0  0  0  0  0  0  0  0
   -1.0440   15.8090  -36.4200 C   0  0  0  0  0  0  0  0  0  0  0  0
   -0.0570   15.2250  -35.4010 C   0  0  0  0  0  0  0  0  0  0  0  0
    0.0570   16.0530  -34.2430 O   0  0  0  0  0  0  0  0  0  0  0  0
    0.3030   17.4310  -34.2920 C   0  0  0  0  0  0  0  0  0  0  0  0
    0.9330   17.9300  -35.2650 O   0  0  0  0  0  0  0  0  0  0  0  0
   -0.1750   18.3000  -33.1940 C   0  0  0  0  0  0  0  0  0  0  0  0
   -0.8720   19.4840  -33.4840 C   0  0  0  0  0  0  0  0  0  0  0  0
   -1.3390   20.3090  -32.4590 C   0  0  0  0  0  0  0  0  0  0  0  0
   -1.1050   19.9700  -31.1160 C   0  0  0  0  0  0  0  0  0  0  0  0
   -1.5480   20.7620  -30.0420 C   0  0  0  0  0  0  0  0  0  0  0  0
   -1.2700   20.4090  -28.7340 C   0  0  0  0  0  0  0  0  0  0  0  0
   -0.5590   19.2570  -28.4160 C   0  0  0  0  0  0  0  0  0  0  0  0
   -0.1190   18.4350  -29.4640 C   0  0  0  0  0  0  0  0  0  0  0  0
   -0.3830   18.7810  -30.8110 C   0  0  0  0  0  0  0  0  0  0  0  0
    0.0660   17.9540  -31.8520 C   0  0  0  0  0  0  0  0  0  0  0  0
   -1.8370   21.4240  -27.8590 C   0  0  0  0  0  0  0  0  0  0  0  0
   -1.7330   21.4480  -26.6050 O   0  0  0  0  0  0  0  0  0  0  0  0
   -2.5130   22.4220  -28.6260 N   0  0  0  0  0  0  0  0  0  0  0  0
   -2.9630   23.7240  -28.1170 C   0  0  1  0  0  0  0  0  0  0  0  0
   -2.3050   24.0490  -26.7600 C   0  0  0  0  0  0  0  0  0  0  0  0
   -0.8380   24.4780  -26.8930 C   0  0  0  0  0  0  0  0  0  0  0  0
   -0.6940   25.5900  -27.8910 C   0  0  0  0  0  0  0  0  0  0  0  0
    0.2720   26.3940  -27.8010 O   0  0  0  0  0  0  0  0  0  0  0  0
   -1.6130   25.7110  -28.9780 N   0  0  0  0  0  0  0  0  0  0  0  0
   -2.7210   24.8200  -29.1230 C   0  0  0  0  0  0  0  0  0  0  0  0
   -3.4900   24.9410  -30.1120 O   0  0  0  0  0  0  0  0  0  0  0  0
   -2.3150   22.0140  -29.9870 C   0  0  0  0  0  0  0  0  0  0  0  0
   -2.7590   22.6450  -30.9820 O   0  0  0  0  0  0  0  0  0  0  0  0
   -5.1410   18.3650  -33.3550 C   0  0  0  0  0  0  0  0  0  0  0  0
   -4.4800   19.5930  -33.2210 C   0  0  0  0  0  0  0  0  0  0  0  0
   -4.4784   22.2981  -31.7697 H   0  0  0  0  0  0  0  0  0  0  0  0
   -3.5934   22.0582  -33.3143 H   0  0  0  0  0  0  0  0  0  0  0  0
   -5.1969   22.8678  -33.3143 H   0  0  0  0  0  0  0  0  0  0  0  0
   -7.2669   21.5585  -32.7510 H   0  0  0  0  0  0  0  0  0  0  0  0
   -8.3971   19.3195  -32.9634 H   0  0  0  0  0  0  0  0  0  0  0  0
   -7.8747   16.5357  -33.3397 H   0  0  0  0  0  0  0  0  0  0  0  0
   -4.3640   13.0610  -33.7560 H   0  0  0  0  0  0  0  0  0  0  0  0
   -3.5320   14.5690  -33.2380 H   0  0  0  0  0  0  0  0  0  0  0  0
   -2.7057   14.9184  -35.3632 H   0  0  0  0  0  0  0  0  0  0  0  0
   -3.1738   16.0207  -36.7064 H   0  0  0  0  0  0  0  0  0  0  0  0
   -1.0345   15.1808  -37.3229 H   0  0  0  0  0  0  0  0  0  0  0  0
   -0.7277   16.8381  -36.6456 H   0  0  0  0  0  0  0  0  0  0  0  0
   -0.4088   14.2290  -35.0941 H   0  0  0  0  0  0  0  0  0  0  0  0
    0.9324   15.1634  -35.8778 H   0  0  0  0  0  0  0  0  0  0  0  0
   -1.0524   19.7651  -34.5321 H   0  0  0  0  0  0  0  0  0  0  0  0
   -1.8921   21.2277  -32.7040 H   0  0  0  0  0  0  0  0  0  0  0  0
   -0.3469   18.9968  -27.3685 H   0  0  0  0  0  0  0  0  0  0  0  0
    0.4363   17.5130  -29.2370 H   0  0  0  0  0  0  0  0  0  0  0  0
    0.6108   17.0278  -31.6167 H   0  0  0  0  0  0  0  0  0  0  0  0
   -4.0490   23.6617  -27.9536 H   0  0  0  0  0  0  0  0  0  0  0  0
   -2.8674   24.8660  -26.2843 H   0  0  0  0  0  0  0  0  0  0  0  0
   -2.3258   23.1302  -26.1556 H   0  0  0  0  0  0  0  0  0  0  0  0
   -0.4734   24.8230  -25.9142 H   0  0  0  0  0  0  0  0  0  0  0  0
   -0.2495   23.6158  -27.2398 H   0  0  0  0  0  0  0  0  0  0  0  0
   -3.3826   19.6511  -33.2704 H   0  0  0  0  0  0  0  0  0  0  0  0
  1  2  1  0
  2  3  2  0
  3  4  1  0
  4  5  2  0
  5  6  1  0
  6  7  2  0
  7  8  1  0
  8  9  1  0
  8 10  2  0
  7 11  1  0
 11 12  1  0
 12 13  2  0
 12 14  1  0
 14 15  1  0
 15 16  1  0
 16 17  1  0
 17 18  1  0
 18 19  1  0
 19 20  2  0
 19 21  1  0
 21 22  2  0
 22 23  1  0
 23 24  2  0
 24 25  1  0
 25 26  2  0
 26 27  1  0
 27 28  2  0
 28 29  1  0
 29 30  2  0
 26 31  1  0
 31 32  2  0
 31 33  1  0
 33 34  1  0
 34 35  1  0
 35 36  1  0
 36 37  1  0
 37 38  2  0
 37 39  1  0
 39 40  1  0
 40 41  2  0
 33 42  1  0
 42 43  2  0
 11 44  1  0
 44 45  2  0
 45  2  1  0
 44  5  1  0
 30 21  1  0
 40 34  1  0
 29 24  1  0
 42 25  1  0
  1 46  1  0
  1 47  1  0
  1 48  1  0
  3 49  1  0
  4 50  1  0
  6 51  1  0
  9 52  1  0
  9 53  1  0
 15 54  1  0
 15 55  1  0
 16 56  1  0
 16 57  1  0
 17 58  1  0
 17 59  1  0
 22 60  1  0
 23 61  1  0
 27 62  1  0
 28 63  1  0
 30 64  1  0
 34 65  1  1
 35 66  1  0
 35 67  1  0
 36 68  1  0
 36 69  1  0
 45 70  1  0
M  CHG  1  39  -1
M  END
>  <UniqueID>  (75) 
75

>  <SMILES>  (75) 
Cc1ccc2cc(C(N)=O)n(C(=O)OCCCOC(=O)c3ccc4c5c(ccc4c3)C(=O)N([C@H]3CCC(=O)[N-]C3=O)C5=O)c2c1

>  <Energy>  (75) 
144.09950120546537

>  <Genealogy>  (75) 
Cc1ccc2cc(C(N)=O)n(C(=O)OCCCOC(=O)c3ccc4c5c(ccc4c3)C(=O)N(C3CCC(=O)[N-]C3=O)C5=O)c2c1 (protonated)
Cc1ccc2cc(C(N)=O)n(C(=O)OCCCOC(=O)c3ccc4c5c(ccc4c3)C(=O)N([C@H]3CCC(=O)[N-]C3=O)C5=O)c2c1 (chirality)
Cc1ccc2cc(C(N)=O)n(C(=O)OCCCOC(=O)c3ccc4c5c(ccc4c3)C(=O)N([C@H]3CCC(=O)[N-]C3=O)C5=O)c2c1 (3D coordinates assigned)
Cc1ccc2cc(C(N)=O)n(C(=O)OCCCOC(=O)c3ccc4c5c(ccc4c3)C(=O)N([C@H]3CCC(=O)[N-]C3=O)C5=O)c2c1 (nonaromatic ring conformer: 144.09950120546537 kcal/mol)

>  <smiles>  (75) 
Cc1ccc2cc(C(N)=O)n(C(=O)OCCCOC(=O)c3ccc4c5c(ccc4c3)C(=O)N(C3CCC(=O)NC3=O)C5=O)c2c1

>  <score_type>  (75) 
oracle

>  <origin>  (75) 
adg

>  <m_score__min__energy>  (75) 
-12.720000000000001

>  <m_primary>  (75) 
energy

$$$$
75:0
     RDKit          3D

 32 34  0  0  0  0  0  0  0  0999 V2000
   -1.6200   25.6680  -29.0380 N   0  0  0  0  0  0  0  0  0  0  0  0
   -1.0360   24.3890  -29.2710 C   0  0  0  0  0  0  0  0  0  0  0  0
    0.1620   24.1880  -28.9360 O   0  0  0  0  0  0  0  0  0  0  0  0
   -1.7960   23.3180  -29.9480 C   0  0  0  0  0  0  0  0  0  0  0  0
   -1.2370   22.0930  -30.3040 C   0  0  0  0  0  0  0  0  0  0  0  0
   -2.2300   21.4260  -30.9860 C   0  0  0  0  0  0  0  0  0  0  0  0
   -2.2240   20.1620  -31.5590 C   0  0  0  0  0  0  0  0  0  0  0  0
   -3.4000   19.7100  -32.1780 C   0  0  0  0  0  0  0  0  0  0  0  0
   -4.5780   20.5170  -32.2110 C   0  0  0  0  0  0  0  0  0  0  0  0
   -5.8780   20.0350  -32.8780 C   0  0  0  0  0  0  0  0  0  0  0  0
   -7.1640   20.8770  -32.7620 C   0  0  0  0  0  0  0  0  0  0  0  0
   -8.2800   20.0690  -33.0130 O   0  0  0  0  0  0  0  0  0  0  0  0
   -5.7260   19.2910  -34.2060 C   0  0  0  0  0  0  0  0  0  0  0  0
   -6.1270   18.5280  -32.9460 C   0  0  0  0  0  0  0  0  0  0  0  0
   -4.5260   21.8050  -31.6150 C   0  0  0  0  0  0  0  0  0  0  0  0
   -3.3330   22.2340  -31.0210 C   0  0  0  0  0  0  0  0  0  0  0  0
   -3.0830   23.4030  -30.3850 N   0  0  0  0  0  0  0  0  0  0  0  0
   -4.0250   24.4590  -30.1400 C   0  0  0  0  0  0  0  0  0  0  0  0
   -4.9480   24.3070  -29.2980 O   0  0  0  0  0  0  0  0  0  0  0  0
   -3.9120   25.6700  -30.8130 O   0  0  0  0  0  0  0  0  0  0  0  0
   -2.6570   25.7940  -29.0440 H   0  0  0  0  0  0  0  0  0  0  0  0
   -0.2198   21.7349  -30.0868 H   0  0  0  0  0  0  0  0  0  0  0  0
   -1.3228   19.5319  -31.5289 H   0  0  0  0  0  0  0  0  0  0  0  0
   -3.4146   18.7150  -32.6468 H   0  0  0  0  0  0  0  0  0  0  0  0
   -7.2366   21.2963  -31.7476 H   0  0  0  0  0  0  0  0  0  0  0  0
   -7.1325   21.6944  -33.4975 H   0  0  0  0  0  0  0  0  0  0  0  0
   -8.3760   20.0300  -34.0000 H   0  0  0  0  0  0  0  0  0  0  0  0
   -6.4592   19.4473  -35.0110 H   0  0  0  0  0  0  0  0  0  0  0  0
   -4.9258   19.1909  -34.9541 H   0  0  0  0  0  0  0  0  0  0  0  0
   -7.1491   18.1345  -32.8435 H   0  0  0  0  0  0  0  0  0  0  0  0
   -5.7351   17.6505  -32.4109 H   0  0  0  0  0  0  0  0  0  0  0  0
   -5.4117   22.4572  -31.6200 H   0  0  0  0  0  0  0  0  0  0  0  0
  1  2  1  0
  2  3  2  0
  2  4  1  0
  4  5  2  0
  5  6  1  0
  6  7  2  0
  7  8  1  0
  8  9  2  0
  9 10  1  0
 10 11  1  0
 11 12  1  0
 10 13  1  0
 13 14  1  0
  9 15  1  0
 15 16  2  0
 16 17  1  0
 17 18  1  0
 18 19  2  0
 18 20  1  0
 17  4  1  0
 16  6  1  0
 14 10  1  0
  1 21  1  0
  5 22  1  0
  7 23  1  0
  8 24  1  0
 11 25  1  0
 11 26  1  0
 12 27  1  0
 13 28  1  0
 13 29  1  0
 14 30  1  0
 14 31  1  0
 15 32  1  0
M  CHG  2   1  -1  20  -1
M  END
>  <UniqueID>  (76) 
76

>  <SMILES>  (76) 
[NH-]C(=O)c1cc2ccc(C3(CO)CC3)cc2n1C(=O)[O-]

>  <Energy>  (76) 
345.0230825479972

>  <Genealogy>  (76) 
[NH-]C(=O)c1cc2ccc(C3(CO)CC3)cc2n1C(=O)[O-] (protonated)
[NH-]C(=O)c1cc2ccc(C3(CO)CC3)cc2n1C(=O)[O-] (3D coordinates assigned)
[NH-]C(=O)c1cc2ccc(C3(CO)CC3)cc2n1C(=O)[O-] (nonaromatic ring conformer: 345.0230825479972 kcal/mol)

>  <smiles>  (76) 
NC(=O)c1cc2ccc(C3(CO)CC3)cc2n1C(=O)O

>  <score_type>  (76) 
oracle

>  <origin>  (76) 
adg

>  <m_score__min__energy>  (76) 
-10.970000000000001

>  <m_primary>  (76) 
energy

$$$$
76:0
     RDKit          3D

 49 51  0  0  0  0  0  0  0  0999 V2000
   -0.0950   20.7800  -35.3190 C   0  0  0  0  0  0  0  0  0  0  0  0
   -1.0750   20.3630  -34.2250 C   0  0  0  0  0  0  0  0  0  0  0  0
   -1.5360   21.4980  -33.5000 O   0  0  0  0  0  0  0  0  0  0  0  0
   -2.8110   21.5780  -32.9220 C   0  0  0  0  0  0  0  0  0  0  0  0
   -3.8190   21.0930  -33.5050 O   0  0  0  0  0  0  0  0  0  0  0  0
   -2.9820   22.2840  -31.6130 C   0  0  0  0  0  0  0  0  0  0  0  0
   -4.0370   21.5960  -30.7940 C   0  0  0  0  0  0  0  0  0  0  0  0
   -3.7300   20.5650  -30.1310 O   0  0  0  0  0  0  0  0  0  0  0  0
   -5.4110   22.0150  -30.8690 N   0  0  0  0  0  0  0  0  0  0  0  0
   -5.9020   23.2830  -30.7690 C   0  0  0  0  0  0  0  0  0  0  0  0
   -5.1790   24.4420  -30.2130 C   0  0  0  0  0  0  0  0  0  0  0  0
   -5.3540   24.8410  -28.8530 N   0  0  0  0  0  0  0  0  0  0  0  0
   -4.4470   25.1360  -30.9700 O   0  0  0  0  0  0  0  0  0  0  0  0
   -7.2270   23.3340  -31.1950 C   0  0  0  0  0  0  0  0  0  0  0  0
   -7.5410   22.0410  -31.5560 C   0  0  0  0  0  0  0  0  0  0  0  0
   -8.7140   21.5220  -32.0980 C   0  0  0  0  0  0  0  0  0  0  0  0
   -8.7430   20.1510  -32.4110 C   0  0  0  0  0  0  0  0  0  0  0  0
   -7.6190   19.3250  -32.1500 C   0  0  0  0  0  0  0  0  0  0  0  0
   -7.6350   17.8460  -32.4600 C   0  0  2  0  0  0  0  0  0  0  0  0
   -6.3410   17.0610  -32.2520 C   0  0  0  0  0  0  0  0  0  0  0  0
   -6.7980   17.3890  -33.6650 C   0  0  2  0  0  0  0  0  0  0  0  0
   -5.9050   18.4140  -34.4000 C   0  0  0  0  0  0  0  0  0  0  0  0
   -4.5650   18.4650  -33.7960 N   0  0  0  0  0  0  0  0  0  0  0  0
   -3.5860   17.7140  -34.5820 C   0  0  0  0  0  0  0  0  0  0  0  0
   -6.4340   19.8990  -31.6410 C   0  0  0  0  0  0  0  0  0  0  0  0
   -6.4300   21.2670  -31.3440 C   0  0  0  0  0  0  0  0  0  0  0  0
    0.8241   21.1711  -34.8583 H   0  0  0  0  0  0  0  0  0  0  0  0
    0.1501   19.9082  -35.9434 H   0  0  0  0  0  0  0  0  0  0  0  0
   -0.5532   21.5611  -35.9434 H   0  0  0  0  0  0  0  0  0  0  0  0
   -1.9353   19.8556  -34.6858 H   0  0  0  0  0  0  0  0  0  0  0  0
   -0.5589   19.6856  -33.5287 H   0  0  0  0  0  0  0  0  0  0  0  0
   -2.0286   22.2711  -31.0645 H   0  0  0  0  0  0  0  0  0  0  0  0
   -3.2898   23.3234  -31.8000 H   0  0  0  0  0  0  0  0  0  0  0  0
   -4.8400   25.6710  -28.4760 H   0  0  0  0  0  0  0  0  0  0  0  0
   -6.0630   24.3770  -28.2390 H   0  0  0  0  0  0  0  0  0  0  0  0
   -7.8824   24.2166  -31.2349 H   0  0  0  0  0  0  0  0  0  0  0  0
   -9.5897   22.1635  -32.2756 H   0  0  0  0  0  0  0  0  0  0  0  0
   -9.6461   19.7147  -32.8627 H   0  0  0  0  0  0  0  0  0  0  0  0
   -8.6772   17.7215  -32.1309 H   0  0  0  0  0  0  0  0  0  0  0  0
   -5.4569   17.5623  -31.8312 H   0  0  0  0  0  0  0  0  0  0  0  0
   -6.0728   16.1366  -31.7196 H   0  0  0  0  0  0  0  0  0  0  0  0
   -7.0456   16.8363  -34.5833 H   0  0  0  0  0  0  0  0  0  0  0  0
   -5.8138   18.1212  -35.4564 H   0  0  0  0  0  0  0  0  0  0  0  0
   -6.3676   19.4086  -34.3177 H   0  0  0  0  0  0  0  0  0  0  0  0
   -4.2540   19.4660  -33.7980 H   0  0  0  0  0  0  0  0  0  0  0  0
   -2.8985   17.1866  -33.9043 H   0  0  0  0  0  0  0  0  0  0  0  0
   -4.1083   16.9827  -35.2163 H   0  0  0  0  0  0  0  0  0  0  0  0
   -3.0150   18.4080  -35.2163 H   0  0  0  0  0  0  0  0  0  0  0  0
   -5.5349   19.2857  -31.4815 H   0  0  0  0  0  0  0  0  0  0  0  0
  1  2  1  0
  2  3  1  0
  3  4  1  0
  4  5  2  0
  4  6  1  0
  6  7  1  0
  7  8  2  0
  7  9  1  0
  9 10  1  0
 10 11  1  0
 11 12  1  0
 11 13  2  0
 10 14  2  0
 14 15  1  0
 15 16  2  0
 16 17  1  0
 17 18  2  0
 18 19  1  0
 19 20  1  0
 20 21  1  0
 21 22  1  0
 22 23  1  0
 23 24  1  0
 18 25  1  0
 25 26  2  0
 26  9  1  0
 26 15  1  0
 21 19  1  0
  1 27  1  0
  1 28  1  0
  1 29  1  0
  2 30  1  0
  2 31  1  0
  6 32  1  0
  6 33  1  0
 12 34  1  0
 12 35  1  0
 14 36  1  0
 16 37  1  0
 17 38  1  0
 19 39  1  6
 20 40  1  0
 20 41  1  0
 21 42  1  6
 22 43  1  0
 22 44  1  0
 23 45  1  0
 24 46  1  0
 24 47  1  0
 24 48  1  0
 25 49  1  0
M  END
>  <UniqueID>  (77) 
77

>  <SMILES>  (77) 
CCOC(=O)CC(=O)n1c(C(N)=O)cc2ccc([C@@H]3C[C@@H]3CNC)cc21

>  <Energy>  (77) 
351.0178162243338

>  <Genealogy>  (77) 
CCOC(=O)CC(=O)n1c(C(N)=O)cc2ccc([C@@H]3C[C@@H]3CNC)cc21 (chirality)
CCOC(=O)CC(=O)n1c(C(N)=O)cc2ccc([C@@H]3C[C@@H]3CNC)cc21 (3D coordinates assigned)
CCOC(=O)CC(=O)n1c(C(N)=O)cc2ccc([C@@H]3C[C@@H]3CNC)cc21 (nonaromatic ring conformer: 351.0178162243338 kcal/mol)

>  <smiles>  (77) 
CCOC(=O)CC(=O)n1c(C(N)=O)cc2ccc(C3CC3CNC)cc21

>  <score_type>  (77) 
oracle

>  <origin>  (77) 
adg

>  <m_score__min__energy>  (77) 
-8.7899999999999991

>  <m_primary>  (77) 
energy

$$$$
77:0
     RDKit          3D

 27 28  0  0  0  0  0  0  0  0999 V2000
   -4.1940   17.8840  -34.4370 N   0  0  0  0  0  0  0  0  0  0  0  0
   -5.2670   18.8250  -34.4070 C   0  0  0  0  0  0  0  0  0  0  0  0
   -6.1040   18.8380  -35.3480 O   0  0  0  0  0  0  0  0  0  0  0  0
   -5.3750   19.8270  -33.3280 C   0  0  0  0  0  0  0  0  0  0  0  0
   -6.5900   20.2600  -32.8060 C   0  0  0  0  0  0  0  0  0  0  0  0
   -6.2650   21.2270  -31.8830 C   0  0  0  0  0  0  0  0  0  0  0  0
   -7.0880   21.9800  -31.0520 C   0  0  0  0  0  0  0  0  0  0  0  0
   -6.4780   22.8810  -30.1620 C   0  0  0  0  0  0  0  0  0  0  0  0
   -5.0680   23.0110  -30.1210 C   0  0  0  0  0  0  0  0  0  0  0  0
   -4.4270   23.9440  -29.1310 C   0  0  0  0  0  0  0  0  0  0  0  0
   -3.5460   24.9200  -29.8400 C   0  0  0  0  0  0  0  0  0  0  0  0
   -3.9530   25.5030  -30.8790 O   0  0  0  0  0  0  0  0  0  0  0  0
   -2.2910   25.2240  -29.3280 O   0  0  0  0  0  0  0  0  0  0  0  0
   -4.2640   22.2210  -30.9710 C   0  0  0  0  0  0  0  0  0  0  0  0
   -4.8970   21.3460  -31.8630 C   0  0  0  0  0  0  0  0  0  0  0  0
   -4.3350   20.4870  -32.7440 N   0  0  0  0  0  0  0  0  0  0  0  0
   -2.9310   20.2330  -32.9250 C   0  0  0  0  0  0  0  0  0  0  0  0
   -2.1590   21.1520  -33.3030 O   0  0  0  0  0  0  0  0  0  0  0  0
   -2.4100   18.9690  -32.6790 O   0  0  0  0  0  0  0  0  0  0  0  0
   -4.1520   17.1600  -35.1880 H   0  0  0  0  0  0  0  0  0  0  0  0
   -3.3970   17.9540  -33.7660 H   0  0  0  0  0  0  0  0  0  0  0  0
   -7.5959   19.9048  -33.0742 H   0  0  0  0  0  0  0  0  0  0  0  0
   -8.1822   21.8737  -31.0901 H   0  0  0  0  0  0  0  0  0  0  0  0
   -7.1012   23.4907  -29.4913 H   0  0  0  0  0  0  0  0  0  0  0  0
   -5.2109   24.4907  -28.5863 H   0  0  0  0  0  0  0  0  0  0  0  0
   -3.8197   23.3579  -28.4256 H   0  0  0  0  0  0  0  0  0  0  0  0
   -3.1669   22.2909  -30.9337 H   0  0  0  0  0  0  0  0  0  0  0  0
  1  2  1  0
  2  3  2  0
  2  4  1  0
  4  5  2  0
  5  6  1  0
  6  7  2  0
  7  8  1  0
  8  9  2  0
  9 10  1  0
 10 11  1  0
 11 12  2  0
 11 13  1  0
  9 14  1  0
 14 15  2  0
 15 16  1  0
 16 17  1  0
 17 18  2  0
 17 19  1  0
 16  4  1  0
 15  6  1  0
  1 20  1  0
  1 21  1  0
  5 22  1  0
  7 23  1  0
  8 24  1  0
 10 25  1  0
 10 26  1  0
 14 27  1  0
M  CHG  2  13  -1  19  -1
M  END
>  <UniqueID>  (78) 
78

>  <SMILES>  (78) 
NC(=O)c1cc2ccc(CC(=O)[O-])cc2n1C(=O)[O-]

>  <Energy>  (78) 
65.89953004916843

>  <Genealogy>  (78) 
NC(=O)c1cc2ccc(CC(=O)[O-])cc2n1C(=O)[O-] (protonated)
NC(=O)c1cc2ccc(CC(=O)[O-])cc2n1C(=O)[O-] (3D coordinates assigned)
NC(=O)c1cc2ccc(CC(=O)[O-])cc2n1C(=O)[O-] (optimized conformer: 65.89953004916843 kcal/mol)

>  <smiles>  (78) 
NC(=O)c1cc2ccc(CC(=O)O)cc2n1C(=O)O

>  <score_type>  (78) 
oracle

>  <origin>  (78) 
adg

>  <m_score__min__energy>  (78) 
-8.7699999999999996

>  <m_primary>  (78) 
energy

$$$$
78:0
     RDKit          3D

 57 59  0  0  0  0  0  0  0  0999 V2000
   -9.5060   21.5190  -31.9820 C   0  0  0  0  0  0  0  0  0  0  0  0
   -8.5430   20.5920  -31.9940 C   0  0  0  0  0  0  0  0  0  0  0  0
   -7.1740   20.8720  -32.5570 C   0  0  0  0  0  0  0  0  0  0  0  0
   -6.3470   19.5900  -32.8510 C   0  0  2  0  0  0  0  0  0  0  0  0
   -5.1050   19.9280  -33.7150 C   0  0  0  0  0  0  0  0  0  0  0  0
   -3.9680   20.4640  -32.8840 C   0  0  0  0  0  0  0  0  0  0  0  0
   -2.7060   19.8210  -32.9120 C   0  0  0  0  0  0  0  0  0  0  0  0
   -1.6230   20.3340  -32.1790 C   0  0  0  0  0  0  0  0  0  0  0  0
   -1.8330   21.4850  -31.4250 C   0  0  0  0  0  0  0  0  0  0  0  0
   -0.9520   22.2150  -30.6590 C   0  0  0  0  0  0  0  0  0  0  0  0
   -1.6950   23.2830  -30.1600 C   0  0  0  0  0  0  0  0  0  0  0  0
   -1.1490   24.2850  -29.2220 C   0  0  0  0  0  0  0  0  0  0  0  0
   -1.8400   25.5050  -28.9680 N   0  0  0  0  0  0  0  0  0  0  0  0
   -0.0820   24.0400  -28.5970 O   0  0  0  0  0  0  0  0  0  0  0  0
   -2.9820   23.2200  -30.6030 N   0  0  0  0  0  0  0  0  0  0  0  0
   -4.0250   24.1870  -30.4080 C   0  0  0  0  0  0  0  0  0  0  0  0
   -3.8690   25.3650  -30.8270 O   0  0  0  0  0  0  0  0  0  0  0  0
   -5.1930   23.8120  -29.7260 O   0  0  0  0  0  0  0  0  0  0  0  0
   -6.5410   23.9860  -30.1880 C   0  0  0  0  0  0  0  0  0  0  0  0
   -7.4240   22.8080  -29.7360 C   0  0  0  0  0  0  0  0  0  0  0  0
   -7.1190   25.3230  -29.6880 C   0  0  0  0  0  0  0  0  0  0  0  0
   -6.4930   24.0100  -31.7230 C   0  0  0  0  0  0  0  0  0  0  0  0
   -3.0510   22.1110  -31.3740 C   0  0  0  0  0  0  0  0  0  0  0  0
   -4.1430   21.6310  -32.1060 C   0  0  0  0  0  0  0  0  0  0  0  0
   -7.1560   18.5190  -33.4850 N   0  0  0  0  0  0  0  0  0  0  0  0
   -7.0120   17.2350  -32.7740 C   0  0  0  0  0  0  0  0  0  0  0  0
   -5.6070   16.6460  -32.8250 C   0  0  0  0  0  0  0  0  0  0  0  0
   -6.1230   17.2730  -31.5390 C   0  0  0  0  0  0  0  0  0  0  0  0
  -10.4945   21.2798  -31.5628 H   0  0  0  0  0  0  0  0  0  0  0  0
   -9.3100   22.5210  -32.3913 H   0  0  0  0  0  0  0  0  0  0  0  0
   -8.7565   19.5953  -31.5806 H   0  0  0  0  0  0  0  0  0  0  0  0
   -7.2924   21.4322  -33.4962 H   0  0  0  0  0  0  0  0  0  0  0  0
   -6.6231   21.4430  -31.7952 H   0  0  0  0  0  0  0  0  0  0  0  0
   -6.0099   19.1973  -31.8803 H   0  0  0  0  0  0  0  0  0  0  0  0
   -4.7700   19.0144  -34.2280 H   0  0  0  0  0  0  0  0  0  0  0  0
   -5.3947   20.7061  -34.4365 H   0  0  0  0  0  0  0  0  0  0  0  0
   -2.5727   18.9102  -33.5142 H   0  0  0  0  0  0  0  0  0  0  0  0
   -0.6397   19.8415  -32.2002 H   0  0  0  0  0  0  0  0  0  0  0  0
    0.1118   22.0007  -30.4792 H   0  0  0  0  0  0  0  0  0  0  0  0
   -2.8200   25.6480  -29.3000 H   0  0  0  0  0  0  0  0  0  0  0  0
   -7.4517   22.7711  -28.6370 H   0  0  0  0  0  0  0  0  0  0  0  0
   -8.4442   22.9444  -30.1241 H   0  0  0  0  0  0  0  0  0  0  0  0
   -7.0069   21.8671  -30.1241 H   0  0  0  0  0  0  0  0  0  0  0  0
   -7.1230   25.3323  -28.5880 H   0  0  0  0  0  0  0  0  0  0  0  0
   -6.4990   26.1523  -30.0594 H   0  0  0  0  0  0  0  0  0  0  0  0
   -8.1478   25.4395  -30.0594 H   0  0  0  0  0  0  0  0  0  0  0  0
   -5.5545   24.4793  -32.0532 H   0  0  0  0  0  0  0  0  0  0  0  0
   -6.5434   22.9806  -32.1076 H   0  0  0  0  0  0  0  0  0  0  0  0
   -7.3467   24.5873  -32.1076 H   0  0  0  0  0  0  0  0  0  0  0  0
   -5.1130   22.1489  -32.0766 H   0  0  0  0  0  0  0  0  0  0  0  0
   -8.1670   18.7820  -33.4900 H   0  0  0  0  0  0  0  0  0  0  0  0
   -6.8610   18.4160  -34.4830 H   0  0  0  0  0  0  0  0  0  0  0  0
   -8.0268   16.8680  -32.9872 H   0  0  0  0  0  0  0  0  0  0  0  0
   -5.4693   15.5565  -32.8891 H   0  0  0  0  0  0  0  0  0  0  0  0
   -4.7236   16.7951  -33.4633 H   0  0  0  0  0  0  0  0  0  0  0  0
   -6.3578   16.6368  -30.6729 H   0  0  0  0  0  0  0  0  0  0  0  0
   -5.7664   18.0634  -30.8622 H   0  0  0  0  0  0  0  0  0  0  0  0
  1  2  2  0
  2  3  1  0
  3  4  1  0
  4  5  1  0
  5  6  1  0
  6  7  2  0
  7  8  1  0
  8  9  2  0
  9 10  1  0
 10 11  2  0
 11 12  1  0
 12 13  1  0
 12 14  2  0
 11 15  1  0
 15 16  1  0
 16 17  2  0
 16 18  1  0
 18 19  1  0
 19 20  1  0
 19 21  1  0
 19 22  1  0
 15 23  1  0
 23 24  2  0
  4 25  1  0
 25 26  1  0
 26 27  1  0
 27 28  1  0
 24  6  1  0
 28 26  1  0
 23  9  1  0
  1 29  1  0
  1 30  1  0
  2 31  1  0
  3 32  1  0
  3 33  1  0
  4 34  1  1
  5 35  1  0
  5 36  1  0
  7 37  1  0
  8 38  1  0
 10 39  1  0
 13 40  1  0
 20 41  1  0
 20 42  1  0
 20 43  1  0
 21 44  1  0
 21 45  1  0
 21 46  1  0
 22 47  1  0
 22 48  1  0
 22 49  1  0
 24 50  1  0
 25 51  1  0
 25 52  1  0
 26 53  1  0
 27 54  1  0
 27 55  1  0
 28 56  1  0
 28 57  1  0
M  CHG  2  13  -1  25   1
M  END
>  <UniqueID>  (79) 
79

>  <SMILES>  (79) 
C=CC[C@H](Cc1ccc2cc(C([NH-])=O)n(C(=O)OC(C)(C)C)c2c1)[NH2+]C1CC1

>  <Energy>  (79) 
353.81727442878616

>  <Genealogy>  (79) 
C=CCC(Cc1ccc2cc(C([NH-])=O)n(C(=O)OC(C)(C)C)c2c1)[NH2+]C1CC1 (protonated)
C=CC[C@H](Cc1ccc2cc(C([NH-])=O)n(C(=O)OC(C)(C)C)c2c1)[NH2+]C1CC1 (chirality)
C=CC[C@H](Cc1ccc2cc(C([NH-])=O)n(C(=O)OC(C)(C)C)c2c1)[NH2+]C1CC1 (3D coordinates assigned)
C=CC[C@H](Cc1ccc2cc(C([NH-])=O)n(C(=O)OC(C)(C)C)c2c1)[NH2+]C1CC1 (nonaromatic ring conformer: 353.81727442878616 kcal/mol)

>  <smiles>  (79) 
C=CCC(Cc1ccc2cc(C(N)=O)n(C(=O)OC(C)(C)C)c2c1)NC1CC1

>  <score_type>  (79) 
oracle

>  <origin>  (79) 
adg

>  <m_score__min__energy>  (79) 
-11.119999999999999

>  <m_primary>  (79) 
energy

$$$$
79:0
     RDKit          3D

 40 41  0  0  0  0  0  0  0  0999 V2000
   -5.4090   18.2120  -34.9790 C   0  0  0  0  0  0  0  0  0  0  0  0
   -5.9950   16.9690  -34.3200 C   0  0  0  0  0  0  0  0  0  0  0  0
   -5.8630   17.0390  -32.9020 O   0  0  0  0  0  0  0  0  0  0  0  0
   -6.7160   17.7890  -32.0850 C   0  0  0  0  0  0  0  0  0  0  0  0
   -6.5340   17.8430  -30.8380 O   0  0  0  0  0  0  0  0  0  0  0  0
   -7.8180   18.5810  -32.7080 C   0  0  0  0  0  0  0  0  0  0  0  0
   -7.7860   19.9940  -32.1950 C   0  0  0  0  0  0  0  0  0  0  0  0
   -8.9960   20.7070  -32.0020 C   0  0  0  0  0  0  0  0  0  0  0  0
   -8.9770   22.0370  -31.5480 C   0  0  0  0  0  0  0  0  0  0  0  0
   -7.7390   22.6300  -31.3170 C   0  0  0  0  0  0  0  0  0  0  0  0
   -7.4320   23.8940  -30.8650 C   0  0  0  0  0  0  0  0  0  0  0  0
   -6.0410   23.9460  -30.8270 C   0  0  0  0  0  0  0  0  0  0  0  0
   -5.2820   25.1670  -30.4860 C   0  0  0  0  0  0  0  0  0  0  0  0
   -3.8800   25.2520  -30.7270 N   0  0  0  0  0  0  0  0  0  0  0  0
   -5.8890   26.1700  -30.0230 O   0  0  0  0  0  0  0  0  0  0  0  0
   -5.5080   22.7570  -31.2280 N   0  0  0  0  0  0  0  0  0  0  0  0
   -4.1240   22.3770  -31.2620 C   0  0  0  0  0  0  0  0  0  0  0  0
   -3.5300   22.0740  -30.1920 O   0  0  0  0  0  0  0  0  0  0  0  0
   -3.4510   22.3200  -32.4880 O   0  0  0  0  0  0  0  0  0  0  0  0
   -3.5840   21.2380  -33.4070 C   0  0  0  0  0  0  0  0  0  0  0  0
   -3.2880   19.9100  -32.7180 C   0  0  0  0  0  0  0  0  0  0  0  0
   -6.5600   21.9640  -31.5290 C   0  0  0  0  0  0  0  0  0  0  0  0
   -6.5480   20.6320  -31.9600 C   0  0  0  0  0  0  0  0  0  0  0  0
   -5.0768   18.9167  -34.2024 H   0  0  0  0  0  0  0  0  0  0  0  0
   -4.5512   17.9252  -35.6051 H   0  0  0  0  0  0  0  0  0  0  0  0
   -6.1760   18.6912  -35.6051 H   0  0  0  0  0  0  0  0  0  0  0  0
   -7.0611   16.8915  -34.5798 H   0  0  0  0  0  0  0  0  0  0  0  0
   -5.4480   16.0861  -34.6823 H   0  0  0  0  0  0  0  0  0  0  0  0
   -7.6905   18.5867  -33.8006 H   0  0  0  0  0  0  0  0  0  0  0  0
   -8.7841   18.1234  -32.4488 H   0  0  0  0  0  0  0  0  0  0  0  0
   -9.9578   20.2152  -32.2093 H   0  0  0  0  0  0  0  0  0  0  0  0
   -9.9117   22.5922  -31.3804 H   0  0  0  0  0  0  0  0  0  0  0  0
   -8.1365   24.6934  -30.5918 H   0  0  0  0  0  0  0  0  0  0  0  0
   -3.4740   26.0520  -31.2600 H   0  0  0  0  0  0  0  0  0  0  0  0
   -4.6116   21.2208  -33.7991 H   0  0  0  0  0  0  0  0  0  0  0  0
   -2.8660   21.3796  -34.2283 H   0  0  0  0  0  0  0  0  0  0  0  0
   -3.3188   20.0480  -31.6271 H   0  0  0  0  0  0  0  0  0  0  0  0
   -4.0425   19.1667  -33.0150 H   0  0  0  0  0  0  0  0  0  0  0  0
   -2.2892   19.5575  -33.0150 H   0  0  0  0  0  0  0  0  0  0  0  0
   -5.5993   20.0964  -32.1116 H   0  0  0  0  0  0  0  0  0  0  0  0
  1  2  1  0
  2  3  1  0
  3  4  1  0
  4  5  2  0
  4  6  1  0
  6  7  1  0
  7  8  2  0
  8  9  1  0
  9 10  2  0
 10 11  1  0
 11 12  2  0
 12 13  1  0
 13 14  1  0
 13 15  2  0
 12 16  1  0
 16 17  1  0
 17 18  2  0
 17 19  1  0
 19 20  1  0
 20 21  1  0
 16 22  1  0
 22 23  2  0
 23  7  1  0
 22 10  1  0
  1 24  1  0
  1 25  1  0
  1 26  1  0
  2 27  1  0
  2 28  1  0
  6 29  1  0
  6 30  1  0
  8 31  1  0
  9 32  1  0
 11 33  1  0
 14 34  1  0
 20 35  1  0
 20 36  1  0
 21 37  1  0
 21 38  1  0
 21 39  1  0
 23 40  1  0
M  CHG  1  14  -1
M  END
>  <UniqueID>  (80) 
80

>  <SMILES>  (80) 
CCOC(=O)Cc1ccc2cc(C([NH-])=O)n(C(=O)OCC)c2c1

>  <Energy>  (80) 
69.03700174666697

>  <Genealogy>  (80) 
CCOC(=O)Cc1ccc2cc(C([NH-])=O)n(C(=O)OCC)c2c1 (protonated)
CCOC(=O)Cc1ccc2cc(C([NH-])=O)n(C(=O)OCC)c2c1 (3D coordinates assigned)
CCOC(=O)Cc1ccc2cc(C([NH-])=O)n(C(=O)OCC)c2c1 (optimized conformer: 69.03700174666697 kcal/mol)

>  <smiles>  (80) 
CCOC(=O)Cc1ccc2cc(C(N)=O)n(C(=O)OCC)c2c1

>  <score_type>  (80) 
oracle

>  <origin>  (80) 
adg

>  <m_score__min__energy>  (80) 
-9.8100000000000005

>  <m_primary>  (80) 
energy

$$$$
80:0
     RDKit          3D

 28 30  0  0  0  0  0  0  0  0999 V2000
   -1.6130   25.7360  -28.9670 N   0  0  0  0  0  0  0  0  0  0  0  0
   -1.0370   24.4490  -29.1800 C   0  0  0  0  0  0  0  0  0  0  0  0
    0.1140   24.2090  -28.7300 O   0  0  0  0  0  0  0  0  0  0  0  0
   -1.7450   23.4190  -29.9670 C   0  0  0  0  0  0  0  0  0  0  0  0
   -1.1580   22.2180  -30.3600 C   0  0  0  0  0  0  0  0  0  0  0  0
   -2.1000   21.5900  -31.1420 C   0  0  0  0  0  0  0  0  0  0  0  0
   -2.0490   20.3590  -31.7850 C   0  0  0  0  0  0  0  0  0  0  0  0
   -3.1830   19.9440  -32.5020 C   0  0  0  0  0  0  0  0  0  0  0  0
   -4.3470   20.7500  -32.5630 C   0  0  0  0  0  0  0  0  0  0  0  0
   -5.5290   20.2130  -33.3530 C   0  0  0  0  0  0  0  0  0  0  0  0
   -6.9210   20.4880  -32.8000 C   0  0  0  0  0  0  0  0  0  0  0  0
   -6.3320   19.0840  -32.7220 C   0  0  0  0  0  0  0  0  0  0  0  0
   -4.3560   22.0010  -31.8890 C   0  0  0  0  0  0  0  0  0  0  0  0
   -3.2050   22.3980  -31.1980 C   0  0  0  0  0  0  0  0  0  0  0  0
   -3.0050   23.5250  -30.4780 N   0  0  0  0  0  0  0  0  0  0  0  0
   -3.9670   24.5630  -30.2300 C   0  0  0  0  0  0  0  0  0  0  0  0
   -3.8700   25.6750  -30.8140 O   0  0  0  0  0  0  0  0  0  0  0  0
   -5.0300   24.3400  -29.3640 O   0  0  0  0  0  0  0  0  0  0  0  0
   -2.6450   25.8770  -29.0170 H   0  0  0  0  0  0  0  0  0  0  0  0
   -0.1545   21.8500  -30.1002 H   0  0  0  0  0  0  0  0  0  0  0  0
   -1.1485   19.7293  -31.7339 H   0  0  0  0  0  0  0  0  0  0  0  0
   -3.1674   18.9766  -33.0253 H   0  0  0  0  0  0  0  0  0  0  0  0
   -5.0330   20.3682  -34.3225 H   0  0  0  0  0  0  0  0  0  0  0  0
   -7.0411   21.0859  -31.8845 H   0  0  0  0  0  0  0  0  0  0  0  0
   -7.8473   20.9219  -33.2046 H   0  0  0  0  0  0  0  0  0  0  0  0
   -6.0271   18.6686  -31.7502 H   0  0  0  0  0  0  0  0  0  0  0  0
   -6.6573   18.0847  -33.0470 H   0  0  0  0  0  0  0  0  0  0  0  0
   -5.2484   22.6438  -31.9098 H   0  0  0  0  0  0  0  0  0  0  0  0
  1  2  1  0
  2  3  2  0
  2  4  1  0
  4  5  2  0
  5  6  1  0
  6  7  2  0
  7  8  1  0
  8  9  2  0
  9 10  1  0
 10 11  1  0
 11 12  1  0
  9 13  1  0
 13 14  2  0
 14 15  1  0
 15 16  1  0
 16 17  2  0
 16 18  1  0
 15  4  1  0
 14  6  1  0
 12 10  1  0
  1 19  1  0
  5 20  1  0
  7 21  1  0
  8 22  1  0
 10 23  1  0
 11 24  1  0
 11 25  1  0
 12 26  1  0
 12 27  1  0
 13 28  1  0
M  CHG  2   1  -1  18  -1
M  END
>  <UniqueID>  (81) 
81

>  <SMILES>  (81) 
[NH-]C(=O)c1cc2ccc(C3CC3)cc2n1C(=O)[O-]

>  <Energy>  (81) 
337.1176170308805

>  <Genealogy>  (81) 
[NH-]C(=O)c1cc2ccc(C3CC3)cc2n1C(=O)[O-] (protonated)
[NH-]C(=O)c1cc2ccc(C3CC3)cc2n1C(=O)[O-] (3D coordinates assigned)
[NH-]C(=O)c1cc2ccc(C3CC3)cc2n1C(=O)[O-] (nonaromatic ring conformer: 337.1176170308805 kcal/mol)

>  <smiles>  (81) 
NC(=O)c1cc2ccc(C3CC3)cc2n1C(=O)O

>  <score_type>  (81) 
oracle

>  <origin>  (81) 
adg

>  <m_score__min__energy>  (81) 
-10.65

>  <m_primary>  (81) 
energy

$$$$
81:0
     RDKit          3D

 34 35  0  0  0  0  0  0  0  0999 V2000
   -3.8770   23.1750  -28.1810 C   0  0  0  0  0  0  0  0  0  0  0  0
   -2.8850   22.4970  -29.1200 C   0  0  0  0  0  0  0  0  0  0  0  0
   -2.8930   23.1270  -30.3990 O   0  0  0  0  0  0  0  0  0  0  0  0
   -3.7150   22.7160  -31.4550 C   0  0  0  0  0  0  0  0  0  0  0  0
   -3.2160   22.1670  -32.4760 O   0  0  0  0  0  0  0  0  0  0  0  0
   -5.1370   22.8940  -31.3610 N   0  0  0  0  0  0  0  0  0  0  0  0
   -5.8170   24.0190  -31.0020 C   0  0  0  0  0  0  0  0  0  0  0  0
   -5.2210   25.2650  -30.4740 C   0  0  0  0  0  0  0  0  0  0  0  0
   -3.9040   25.6610  -30.8420 N   0  0  0  0  0  0  0  0  0  0  0  0
   -5.8670   25.9640  -29.6480 O   0  0  0  0  0  0  0  0  0  0  0  0
   -7.1910   23.8180  -31.1210 C   0  0  0  0  0  0  0  0  0  0  0  0
   -7.3330   22.5200  -31.5560 C   0  0  0  0  0  0  0  0  0  0  0  0
   -8.4840   21.7980  -31.8560 C   0  0  0  0  0  0  0  0  0  0  0  0
   -8.3320   20.4800  -32.3190 C   0  0  0  0  0  0  0  0  0  0  0  0
   -7.0430   19.9120  -32.4720 C   0  0  0  0  0  0  0  0  0  0  0  0
   -6.8930   18.5170  -33.0140 C   0  0  0  0  0  0  0  0  0  0  0  0
   -5.9290   18.4980  -34.1950 C   0  0  0  0  0  0  0  0  0  0  0  0
   -5.8970   20.6810  -32.1690 C   0  0  0  0  0  0  0  0  0  0  0  0
   -6.0780   21.9840  -31.6930 C   0  0  0  0  0  0  0  0  0  0  0  0
   -3.5883   22.9777  -27.1381 H   0  0  0  0  0  0  0  0  0  0  0  0
   -3.8723   24.2597  -28.3638 H   0  0  0  0  0  0  0  0  0  0  0  0
   -4.8859   22.7767  -28.3638 H   0  0  0  0  0  0  0  0  0  0  0  0
   -1.8750   22.5657  -28.6896 H   0  0  0  0  0  0  0  0  0  0  0  0
   -3.1760   21.4432  -29.2421 H   0  0  0  0  0  0  0  0  0  0  0  0
   -3.0690   25.2860  -30.3410 H   0  0  0  0  0  0  0  0  0  0  0  0
   -7.9917   24.5427  -30.9118 H   0  0  0  0  0  0  0  0  0  0  0  0
   -9.4817   22.2450  -31.7345 H   0  0  0  0  0  0  0  0  0  0  0  0
   -9.2227   19.8832  -32.5651 H   0  0  0  0  0  0  0  0  0  0  0  0
   -6.5049   17.8612  -32.2207 H   0  0  0  0  0  0  0  0  0  0  0  0
   -7.8769   18.1626  -33.3551 H   0  0  0  0  0  0  0  0  0  0  0  0
   -4.8940   18.4776  -33.8232 H   0  0  0  0  0  0  0  0  0  0  0  0
   -6.1165   17.6034  -34.8070 H   0  0  0  0  0  0  0  0  0  0  0  0
   -6.0811   19.3993  -34.8070 H   0  0  0  0  0  0  0  0  0  0  0  0
   -4.8875   20.2654  -32.3040 H   0  0  0  0  0  0  0  0  0  0  0  0
  1  2  1  0
  2  3  1  0
  3  4  1  0
  4  5  2  0
  4  6  1  0
  6  7  1  0
  7  8  1  0
  8  9  1  0
  8 10  2  0
  7 11  2  0
 11 12  1  0
 12 13  2  0
 13 14  1  0
 14 15  2  0
 15 16  1  0
 16 17  1  0
 15 18  1  0
 18 19  2  0
 19  6  1  0
 19 12  1  0
  1 20  1  0
  1 21  1  0
  1 22  1  0
  2 23  1  0
  2 24  1  0
  9 25  1  0
 11 26  1  0
 13 27  1  0
 14 28  1  0
 16 29  1  0
 16 30  1  0
 17 31  1  0
 17 32  1  0
 17 33  1  0
 18 34  1  0
M  CHG  1   9  -1
M  END
>  <UniqueID>  (82) 
82

>  <SMILES>  (82) 
CCOC(=O)n1c(C([NH-])=O)cc2ccc(CC)cc21

>  <Energy>  (82) 
65.90482713034967

>  <Genealogy>  (82) 
CCOC(=O)n1c(C([NH-])=O)cc2ccc(CC)cc21 (protonated)
CCOC(=O)n1c(C([NH-])=O)cc2ccc(CC)cc21 (3D coordinates assigned)
CCOC(=O)n1c(C([NH-])=O)cc2ccc(CC)cc21 (optimized conformer: 65.90482713034967 kcal/mol)

>  <smiles>  (82) 
CCOC(=O)n1c(C(N)=O)cc2ccc(CC)cc21

>  <score_type>  (82) 
oracle

>  <origin>  (82) 
adg

>  <m_score__min__energy>  (82) 
-9.8000000000000007

>  <m_primary>  (82) 
energy

$$$$
82:0
     RDKit          3D

 50 53  0  0  0  0  0  0  0  0999 V2000
   -5.6540   18.1790  -34.7930 C   0  0  0  0  0  0  0  0  0  0  0  0
   -5.4890   17.6710  -33.4400 N   0  0  0  0  0  0  0  0  0  0  0  0
   -6.4370   17.9220  -32.3990 C   0  0  0  0  0  0  0  0  0  0  0  0
   -6.1800   17.5910  -31.2090 O   0  0  0  0  0  0  0  0  0  0  0  0
   -7.7180   18.6220  -32.7170 C   0  0  0  0  0  0  0  0  0  0  0  0
   -7.6860   20.0240  -32.1760 C   0  0  0  0  0  0  0  0  0  0  0  0
   -8.8710   20.6230  -31.6810 C   0  0  0  0  0  0  0  0  0  0  0  0
   -8.8580   21.9430  -31.2010 C   0  0  0  0  0  0  0  0  0  0  0  0
   -7.6510   22.6360  -31.2310 C   0  0  0  0  0  0  0  0  0  0  0  0
   -7.3540   23.9100  -30.8070 C   0  0  0  0  0  0  0  0  0  0  0  0
   -5.9880   24.0640  -31.0270 C   0  0  0  0  0  0  0  0  0  0  0  0
   -5.2240   25.2380  -30.5560 C   0  0  0  0  0  0  0  0  0  0  0  0
   -3.8660   25.4330  -30.9440 N   0  0  0  0  0  0  0  0  0  0  0  0
   -5.7580   26.0460  -29.7510 O   0  0  0  0  0  0  0  0  0  0  0  0
   -5.4640   22.9390  -31.5950 N   0  0  0  0  0  0  0  0  0  0  0  0
   -4.0960   22.6890  -31.9520 C   0  0  0  0  0  0  0  0  0  0  0  0
   -3.8100   22.2270  -33.0900 O   0  0  0  0  0  0  0  0  0  0  0  0
   -3.0810   22.9900  -31.0400 O   0  0  0  0  0  0  0  0  0  0  0  0
   -3.2140   22.7960  -29.6360 C   0  0  0  0  0  0  0  0  0  0  0  0
   -1.9740   23.2530  -28.9200 C   0  0  0  0  0  0  0  0  0  0  0  0
   -1.5370   24.4910  -28.9400 O   0  0  0  0  0  0  0  0  0  0  0  0
   -0.4720   24.5110  -28.1720 C   0  0  0  0  0  0  0  0  0  0  0  0
    0.2090   25.5460  -27.9510 O   0  0  0  0  0  0  0  0  0  0  0  0
   -0.1960   23.3360  -27.6580 O   0  0  0  0  0  0  0  0  0  0  0  0
   -1.1110   22.5130  -28.1170 C   0  0  0  0  0  0  0  0  0  0  0  0
   -1.1770   21.0800  -27.7660 C   0  0  0  0  0  0  0  0  0  0  0  0
   -0.1070   20.2370  -28.1010 C   0  0  0  0  0  0  0  0  0  0  0  0
   -0.1300   18.8880  -27.7320 C   0  0  0  0  0  0  0  0  0  0  0  0
   -1.2270   18.3680  -27.0420 C   0  0  0  0  0  0  0  0  0  0  0  0
   -2.3110   19.1940  -26.7320 C   0  0  0  0  0  0  0  0  0  0  0  0
   -2.2910   20.5450  -27.0960 C   0  0  0  0  0  0  0  0  0  0  0  0
   -6.4950   22.0700  -31.7030 C   0  0  0  0  0  0  0  0  0  0  0  0
   -6.4840   20.7640  -32.2060 C   0  0  0  0  0  0  0  0  0  0  0  0
   -5.9936   19.2245  -34.7532 H   0  0  0  0  0  0  0  0  0  0  0  0
   -4.6924   18.1258  -35.3245 H   0  0  0  0  0  0  0  0  0  0  0  0
   -6.4008   17.5709  -35.3245 H   0  0  0  0  0  0  0  0  0  0  0  0
   -7.8536   18.6556  -33.8081 H   0  0  0  0  0  0  0  0  0  0  0  0
   -8.5527   18.0753  -32.2539 H   0  0  0  0  0  0  0  0  0  0  0  0
   -9.8094   20.0491  -31.6726 H   0  0  0  0  0  0  0  0  0  0  0  0
   -9.7731   22.4145  -30.8134 H   0  0  0  0  0  0  0  0  0  0  0  0
   -8.0486   24.6505  -30.3837 H   0  0  0  0  0  0  0  0  0  0  0  0
   -3.0820   25.0790  -30.3540 H   0  0  0  0  0  0  0  0  0  0  0  0
   -4.0760   23.3737  -29.2711 H   0  0  0  0  0  0  0  0  0  0  0  0
   -3.3636   21.7243  -29.4383 H   0  0  0  0  0  0  0  0  0  0  0  0
    0.7536   20.6385  -28.6561 H   0  0  0  0  0  0  0  0  0  0  0  0
    0.7181   18.2352  -27.9860 H   0  0  0  0  0  0  0  0  0  0  0  0
   -1.2380   17.3095  -26.7428 H   0  0  0  0  0  0  0  0  0  0  0  0
   -3.1814   18.7813  -26.2009 H   0  0  0  0  0  0  0  0  0  0  0  0
   -3.1493   21.1902  -26.8572 H   0  0  0  0  0  0  0  0  0  0  0  0
   -5.5618   20.3250  -32.6145 H   0  0  0  0  0  0  0  0  0  0  0  0
  1  2  1  0
  2  3  1  0
  3  4  2  0
  3  5  1  0
  5  6  1  0
  6  7  2  0
  7  8  1  0
  8  9  2  0
  9 10  1  0
 10 11  2  0
 11 12  1  0
 12 13  1  0
 12 14  2  0
 11 15  1  0
 15 16  1  0
 16 17  2  0
 16 18  1  0
 18 19  1  0
 19 20  1  0
 20 21  1  0
 21 22  1  0
 22 23  2  0
 22 24  1  0
 24 25  1  0
 25 26  1  0
 26 27  2  0
 27 28  1  0
 28 29  2  0
 29 30  1  0
 30 31  2  0
 15 32  1  0
 32 33  2  0
 33  6  1  0
 32  9  1  0
 25 20  2  0
 31 26  1  0
  1 34  1  0
  1 35  1  0
  1 36  1  0
  5 37  1  0
  5 38  1  0
  7 39  1  0
  8 40  1  0
 10 41  1  0
 13 42  1  0
 19 43  1  0
 19 44  1  0
 27 45  1  0
 28 46  1  0
 29 47  1  0
 30 48  1  0
 31 49  1  0
 33 50  1  0
M  CHG  2   2  -1  13  -1
M  END
>  <UniqueID>  (83) 
83

>  <SMILES>  (83) 
C[N-]C(=O)Cc1ccc2cc(C([NH-])=O)n(C(=O)OCc3oc(=O)oc3-c3ccccc3)c2c1

>  <Energy>  (83) 
119.80095308909581

>  <Genealogy>  (83) 
C[N-]C(=O)Cc1ccc2cc(C([NH-])=O)n(C(=O)OCc3oc(=O)oc3-c3ccccc3)c2c1 (protonated)
C[N-]C(=O)Cc1ccc2cc(C([NH-])=O)n(C(=O)OCc3oc(=O)oc3-c3ccccc3)c2c1 (3D coordinates assigned)
C[N-]C(=O)Cc1ccc2cc(C([NH-])=O)n(C(=O)OCc3oc(=O)oc3-c3ccccc3)c2c1 (optimized conformer: 119.80095308909581 kcal/mol)

>  <smiles>  (83) 
CNC(=O)Cc1ccc2cc(C(N)=O)n(C(=O)OCc3oc(=O)oc3-c3ccccc3)c2c1

>  <score_type>  (83) 
oracle

>  <origin>  (83) 
adg

>  <m_score__min__energy>  (83) 
-12.23

>  <m_primary>  (83) 
energy

$$$$
83:0
     RDKit          3D

 37 39  0  0  0  0  0  0  0  0999 V2000
   -5.3290   24.9380  -28.8100 N   0  0  0  0  0  0  0  0  0  0  0  0
   -5.1920   24.6470  -30.2060 C   0  0  0  0  0  0  0  0  0  0  0  0
   -4.3540   25.3040  -30.8820 O   0  0  0  0  0  0  0  0  0  0  0  0
   -5.9610   23.5330  -30.7980 C   0  0  0  0  0  0  0  0  0  0  0  0
   -7.3550   23.5130  -30.8030 C   0  0  0  0  0  0  0  0  0  0  0  0
   -7.7020   22.2770  -31.2800 C   0  0  0  0  0  0  0  0  0  0  0  0
   -8.9610   21.7210  -31.4730 C   0  0  0  0  0  0  0  0  0  0  0  0
   -9.0350   20.4040  -31.9550 C   0  0  0  0  0  0  0  0  0  0  0  0
   -7.8530   19.6800  -32.2620 C   0  0  0  0  0  0  0  0  0  0  0  0
   -7.9460   18.2490  -32.7250 C   0  0  0  0  0  0  0  0  0  0  0  0
   -6.6110   17.7790  -33.2440 C   0  0  0  0  0  0  0  0  0  0  0  0
   -6.1120   18.2590  -34.4640 C   0  0  0  0  0  0  0  0  0  0  0  0
   -4.8820   17.7910  -34.9370 C   0  0  0  0  0  0  0  0  0  0  0  0
   -4.1730   16.8790  -34.2150 N   0  0  0  0  0  0  0  0  0  0  0  0
   -4.6380   16.3920  -33.0340 C   0  0  0  0  0  0  0  0  0  0  0  0
   -3.9010   15.4860  -32.3420 F   0  0  0  0  0  0  0  0  0  0  0  0
   -5.8680   16.8220  -32.5340 C   0  0  0  0  0  0  0  0  0  0  0  0
   -6.5880   20.2820  -32.0590 C   0  0  0  0  0  0  0  0  0  0  0  0
   -6.5430   21.5840  -31.5500 C   0  0  0  0  0  0  0  0  0  0  0  0
   -5.4600   22.3520  -31.2670 N   0  0  0  0  0  0  0  0  0  0  0  0
   -4.0790   21.9850  -31.4860 C   0  0  0  0  0  0  0  0  0  0  0  0
   -3.1980   22.8870  -31.5710 O   0  0  0  0  0  0  0  0  0  0  0  0
   -3.6490   20.5450  -31.4900 C   0  0  0  0  0  0  0  0  0  0  0  0
   -3.0500   20.0750  -33.1010 Cl  0  0  0  0  0  0  0  0  0  0  0  0
   -6.1360   24.5540  -28.2640 H   0  0  0  0  0  0  0  0  0  0  0  0
   -4.6520   25.5610  -28.3190 H   0  0  0  0  0  0  0  0  0  0  0  0
   -8.0335   24.3202  -30.4897 H   0  0  0  0  0  0  0  0  0  0  0  0
   -9.8731   22.2958  -31.2546 H   0  0  0  0  0  0  0  0  0  0  0  0
  -10.0173   19.9293  -32.0959 H   0  0  0  0  0  0  0  0  0  0  0  0
   -8.2511   17.6135  -31.8806 H   0  0  0  0  0  0  0  0  0  0  0  0
   -8.6880   18.1824  -33.5343 H   0  0  0  0  0  0  0  0  0  0  0  0
   -6.6839   18.9980  -35.0443 H   0  0  0  0  0  0  0  0  0  0  0  0
   -4.4860   18.1603  -35.8945 H   0  0  0  0  0  0  0  0  0  0  0  0
   -6.2536   16.4133  -31.5883 H   0  0  0  0  0  0  0  0  0  0  0  0
   -5.6616   19.7383  -32.2961 H   0  0  0  0  0  0  0  0  0  0  0  0
   -2.8465   20.4051  -30.7508 H   0  0  0  0  0  0  0  0  0  0  0  0
   -4.5143   19.9154  -31.2353 H   0  0  0  0  0  0  0  0  0  0  0  0
  1  2  1  0
  2  3  2  0
  2  4  1  0
  4  5  2  0
  5  6  1  0
  6  7  2  0
  7  8  1  0
  8  9  2  0
  9 10  1  0
 10 11  1  0
 11 12  2  0
 12 13  1  0
 13 14  2  0
 14 15  1  0
 15 16  1  0
 15 17  2  0
  9 18  1  0
 18 19  2  0
 19 20  1  0
 20 21  1  0
 21 22  2  0
 21 23  1  0
 23 24  1  0
 20  4  1  0
 19  6  1  0
 17 11  1  0
  1 25  1  0
  1 26  1  0
  5 27  1  0
  7 28  1  0
  8 29  1  0
 10 30  1  0
 10 31  1  0
 12 32  1  0
 13 33  1  0
 17 34  1  0
 18 35  1  0
 23 36  1  0
 23 37  1  0
M  END
>  <UniqueID>  (84) 
84

>  <SMILES>  (84) 
NC(=O)c1cc2ccc(Cc3ccnc(F)c3)cc2n1C(=O)CCl

>  <Energy>  (84) 
79.22795548333123

>  <Genealogy>  (84) 
NC(=O)c1cc2ccc(Cc3ccnc(F)c3)cc2n1C(=O)CCl (3D coordinates assigned)
NC(=O)c1cc2ccc(Cc3ccnc(F)c3)cc2n1C(=O)CCl (optimized conformer: 79.22795548333123 kcal/mol)

>  <smiles>  (84) 
NC(=O)c1cc2ccc(Cc3ccnc(F)c3)cc2n1C(=O)CCl

>  <score_type>  (84) 
oracle

>  <origin>  (84) 
adg

>  <m_score__min__energy>  (84) 
-9.7400000000000002

>  <m_primary>  (84) 
energy

$$$$
84:0
     RDKit          3D

 30 32  0  0  0  0  0  0  0  0999 V2000
   -9.0800   19.3110  -32.7090 C   0  0  0  0  0  0  0  0  0  0  0  0
   -7.6050   19.4820  -32.8400 C   0  0  0  0  0  0  0  0  0  0  0  0
   -6.8290   20.1070  -31.9390 N   0  0  0  0  0  0  0  0  0  0  0  0
   -5.6030   20.0290  -32.4970 C   0  0  0  0  0  0  0  0  0  0  0  0
   -4.3560   20.5740  -31.9060 C   0  0  0  0  0  0  0  0  0  0  0  0
   -3.1470   19.8290  -31.9230 C   0  0  0  0  0  0  0  0  0  0  0  0
   -1.9670   20.3580  -31.3730 C   0  0  0  0  0  0  0  0  0  0  0  0
   -2.0230   21.6250  -30.8050 C   0  0  0  0  0  0  0  0  0  0  0  0
   -1.0270   22.3800  -30.2290 C   0  0  0  0  0  0  0  0  0  0  0  0
   -1.6410   23.5690  -29.8410 C   0  0  0  0  0  0  0  0  0  0  0  0
   -0.9430   24.6390  -29.1000 C   0  0  0  0  0  0  0  0  0  0  0  0
   -1.5370   25.9240  -28.9300 N   0  0  0  0  0  0  0  0  0  0  0  0
    0.1740   24.4010  -28.5650 O   0  0  0  0  0  0  0  0  0  0  0  0
   -2.9640   23.5540  -30.1740 N   0  0  0  0  0  0  0  0  0  0  0  0
   -3.9230   24.6130  -30.0250 C   0  0  0  0  0  0  0  0  0  0  0  0
   -3.8780   25.6220  -30.7760 O   0  0  0  0  0  0  0  0  0  0  0  0
   -4.9260   24.5220  -29.0670 O   0  0  0  0  0  0  0  0  0  0  0  0
   -3.1810   22.3550  -30.7600 C   0  0  0  0  0  0  0  0  0  0  0  0
   -4.3670   21.8620  -31.3190 C   0  0  0  0  0  0  0  0  0  0  0  0
   -5.6470   19.3860  -33.6840 N   0  0  0  0  0  0  0  0  0  0  0  0
   -6.8960   19.0670  -33.8600 O   0  0  0  0  0  0  0  0  0  0  0  0
   -9.3523   19.2794  -31.6437 H   0  0  0  0  0  0  0  0  0  0  0  0
   -9.5915   20.1559  -33.1933 H   0  0  0  0  0  0  0  0  0  0  0  0
   -9.3847   18.3715  -33.1933 H   0  0  0  0  0  0  0  0  0  0  0  0
   -7.1270   20.5440  -31.0400 H   0  0  0  0  0  0  0  0  0  0  0  0
   -3.1341   18.8251  -32.3724 H   0  0  0  0  0  0  0  0  0  0  0  0
   -1.0274   19.7864  -31.3915 H   0  0  0  0  0  0  0  0  0  0  0  0
    0.0300   22.1034  -30.1018 H   0  0  0  0  0  0  0  0  0  0  0  0
   -2.5730   26.0460  -28.9750 H   0  0  0  0  0  0  0  0  0  0  0  0
   -5.2879   22.4634  -31.3022 H   0  0  0  0  0  0  0  0  0  0  0  0
  1  2  1  0
  2  3  2  0
  3  4  1  0
  4  5  1  0
  5  6  2  0
  6  7  1  0
  7  8  2  0
  8  9  1  0
  9 10  2  0
 10 11  1  0
 11 12  1  0
 11 13  2  0
 10 14  1  0
 14 15  1  0
 15 16  2  0
 15 17  1  0
 14 18  1  0
 18 19  2  0
  4 20  2  0
 20 21  1  0
 21  2  1  0
 19  5  1  0
 18  8  1  0
  1 22  1  0
  1 23  1  0
  1 24  1  0
  3 25  1  0
  6 26  1  0
  7 27  1  0
  9 28  1  0
 12 29  1  0
 19 30  1  0
M  CHG  3   3   1  12  -1  17  -1
M  END
>  <UniqueID>  (85) 
85

>  <SMILES>  (85) 
Cc1[nH+]c(-c2ccc3cc(C([NH-])=O)n(C(=O)[O-])c3c2)no1

>  <Energy>  (85) 
107.33389079592956

>  <Genealogy>  (85) 
Cc1[nH+]c(-c2ccc3cc(C([NH-])=O)n(C(=O)[O-])c3c2)no1 (protonated)
Cc1[nH+]c(-c2ccc3cc(C([NH-])=O)n(C(=O)[O-])c3c2)no1 (3D coordinates assigned)
Cc1[nH+]c(-c2ccc3cc(C([NH-])=O)n(C(=O)[O-])c3c2)no1 (optimized conformer: 107.33389079592956 kcal/mol)

>  <smiles>  (85) 
Cc1nc(-c2ccc3cc(C(N)=O)n(C(=O)O)c3c2)no1

>  <score_type>  (85) 
oracle

>  <origin>  (85) 
adg

>  <m_score__min__energy>  (85) 
-10.58

>  <m_primary>  (85) 
energy

$$$$
85:0
     RDKit          3D

 80 84  0  0  0  0  0  0  0  0999 V2000
    2.2700   16.6240  -31.6820 N   0  0  0  0  0  0  0  0  0  0  0  0
    2.0490   16.4080  -30.2920 C   0  0  0  0  0  0  0  0  0  0  0  0
    2.3280   15.2850  -29.7900 O   0  0  0  0  0  0  0  0  0  0  0  0
    1.4380   17.4580  -29.4490 C   0  0  0  0  0  0  0  0  0  0  0  0
    0.2550   17.2770  -28.7370 C   0  0  0  0  0  0  0  0  0  0  0  0
   -0.0240   18.5010  -28.1750 C   0  0  0  0  0  0  0  0  0  0  0  0
   -1.0810   18.8890  -27.3570 C   0  0  0  0  0  0  0  0  0  0  0  0
   -1.1020   20.2140  -26.8930 C   0  0  0  0  0  0  0  0  0  0  0  0
   -0.0720   21.1200  -27.2510 C   0  0  0  0  0  0  0  0  0  0  0  0
   -0.0850   22.5270  -26.7090 C   0  0  0  0  0  0  0  0  0  0  0  0
   -0.8180   23.4970  -27.6460 C   0  0  0  0  0  0  0  0  0  0  0  0
   -1.0100   22.9190  -29.0550 C   0  0  0  0  0  0  0  0  0  0  0  0
   -2.3750   22.3030  -29.1940 C   0  0  0  0  0  0  0  0  0  0  0  0
   -2.4960   21.2460  -29.7980 O   0  0  0  0  0  0  0  0  0  0  0  0
   -3.5720   22.9910  -28.5800 C   0  0  0  0  0  0  0  0  0  0  0  0
   -3.9100   24.3530  -29.2100 C   0  0  0  0  0  0  0  0  0  0  0  0
   -5.3750   24.7590  -28.9710 C   0  0  0  0  0  0  0  0  0  0  0  0
   -6.0310   25.3870  -30.2160 C   0  0  0  0  0  0  0  0  0  0  0  0
   -5.9840   24.5150  -31.4860 C   0  0  0  0  0  0  0  0  0  0  0  0
   -6.7550   23.1910  -31.3620 C   0  0  0  0  0  0  0  0  0  0  0  0
   -6.7510   22.4520  -32.6260 N   0  0  0  0  0  0  0  0  0  0  0  0
   -6.4960   21.0370  -32.7400 C   0  0  0  0  0  0  0  0  0  0  0  0
   -7.5480   20.0930  -32.8440 C   0  0  0  0  0  0  0  0  0  0  0  0
   -7.2790   18.7110  -32.9140 C   0  0  0  0  0  0  0  0  0  0  0  0
   -5.9600   18.2390  -32.8810 C   0  0  0  0  0  0  0  0  0  0  0  0
   -4.9340   19.1720  -32.7780 C   0  0  0  0  0  0  0  0  0  0  0  0
   -5.1830   20.5310  -32.7190 C   0  0  0  0  0  0  0  0  0  0  0  0
   -3.8760   21.1990  -32.6710 C   0  0  0  0  0  0  0  0  0  0  0  0
   -3.6800   22.4420  -32.6960 O   0  0  0  0  0  0  0  0  0  0  0  0
   -2.8230   20.2300  -32.6500 N   0  0  0  0  0  0  0  0  0  0  0  0
   -1.3900   20.4930  -32.8220 C   0  0  2  0  0  0  0  0  0  0  0  0
   -0.9810   20.2500  -34.2890 C   0  0  0  0  0  0  0  0  0  0  0  0
    0.5350   20.3800  -34.4790 C   0  0  0  0  0  0  0  0  0  0  0  0
    1.2580   19.4460  -33.5510 C   0  0  0  0  0  0  0  0  0  0  0  0
    2.3710   18.9620  -33.8890 O   0  0  0  0  0  0  0  0  0  0  0  0
    0.7070   19.1410  -32.2650 N   0  0  0  0  0  0  0  0  0  0  0  0
   -0.5780   19.6400  -31.8740 C   0  0  0  0  0  0  0  0  0  0  0  0
   -1.0000   19.4210  -30.7060 O   0  0  0  0  0  0  0  0  0  0  0  0
   -3.4930   18.9700  -32.7390 C   0  0  0  0  0  0  0  0  0  0  0  0
   -2.9100   17.8540  -32.7860 O   0  0  0  0  0  0  0  0  0  0  0  0
    0.9890   20.6880  -28.0770 C   0  0  0  0  0  0  0  0  0  0  0  0
    0.9730   19.3680  -28.5410 C   0  0  0  0  0  0  0  0  0  0  0  0
    1.8800   18.7420  -29.3240 N   0  0  0  0  0  0  0  0  0  0  0  0
    3.1040   19.3040  -29.8300 C   0  0  0  0  0  0  0  0  0  0  0  0
    3.3760   19.2910  -31.2300 N   0  0  0  0  0  0  0  0  0  0  0  0
    3.9360   19.8230  -29.0370 O   0  0  0  0  0  0  0  0  0  0  0  0
    2.2850   17.5900  -32.0820 H   0  0  0  0  0  0  0  0  0  0  0  0
   -0.3319   16.3514  -28.6438 H   0  0  0  0  0  0  0  0  0  0  0  0
   -1.8755   18.1795  -27.0825 H   0  0  0  0  0  0  0  0  0  0  0  0
   -1.9249   20.5521  -26.2460 H   0  0  0  0  0  0  0  0  0  0  0  0
   -0.5905   22.5266  -25.7320 H   0  0  0  0  0  0  0  0  0  0  0  0
    0.9576   22.8656  -26.6172 H   0  0  0  0  0  0  0  0  0  0  0  0
   -1.8065   23.7213  -27.2188 H   0  0  0  0  0  0  0  0  0  0  0  0
   -0.2023   24.4040  -27.7372 H   0  0  0  0  0  0  0  0  0  0  0  0
   -0.9007   23.7259  -29.7946 H   0  0  0  0  0  0  0  0  0  0  0  0
   -0.2513   22.1409  -29.2251 H   0  0  0  0  0  0  0  0  0  0  0  0
   -4.4450   22.3318  -28.6951 H   0  0  0  0  0  0  0  0  0  0  0  0
   -3.3190   23.1845  -27.5271 H   0  0  0  0  0  0  0  0  0  0  0  0
   -3.2543   25.1188  -28.7701 H   0  0  0  0  0  0  0  0  0  0  0  0
   -3.7567   24.2690  -30.2960 H   0  0  0  0  0  0  0  0  0  0  0  0
   -5.9462   23.8629  -28.6869 H   0  0  0  0  0  0  0  0  0  0  0  0
   -5.3829   25.5173  -28.1742 H   0  0  0  0  0  0  0  0  0  0  0  0
   -7.0861   25.5900  -29.9802 H   0  0  0  0  0  0  0  0  0  0  0  0
   -5.4524   26.2943  -30.4441 H   0  0  0  0  0  0  0  0  0  0  0  0
   -6.4163   25.0908  -32.3176 H   0  0  0  0  0  0  0  0  0  0  0  0
   -4.9287   24.2550  -31.6556 H   0  0  0  0  0  0  0  0  0  0  0  0
   -6.2827   22.5729  -30.5842 H   0  0  0  0  0  0  0  0  0  0  0  0
   -7.7978   23.4202  -31.0974 H   0  0  0  0  0  0  0  0  0  0  0  0
   -6.9050   23.0120  -33.4920 H   0  0  0  0  0  0  0  0  0  0  0  0
   -8.5901   20.4440  -32.8705 H   0  0  0  0  0  0  0  0  0  0  0  0
   -8.1117   17.9969  -32.9952 H   0  0  0  0  0  0  0  0  0  0  0  0
   -5.7426   17.1621  -32.9350 H   0  0  0  0  0  0  0  0  0  0  0  0
   -1.1860   21.5465  -32.5800 H   0  0  0  0  0  0  0  0  0  0  0  0
   -1.2926   19.2371  -34.5838 H   0  0  0  0  0  0  0  0  0  0  0  0
   -1.4734   21.0090  -34.9147 H   0  0  0  0  0  0  0  0  0  0  0  0
    0.7932   20.1306  -35.5188 H   0  0  0  0  0  0  0  0  0  0  0  0
    0.8368   21.4135  -34.2536 H   0  0  0  0  0  0  0  0  0  0  0  0
    1.2500   18.5400  -31.6030 H   0  0  0  0  0  0  0  0  0  0  0  0
    1.8069   21.3716  -28.3486 H   0  0  0  0  0  0  0  0  0  0  0  0
    2.8120   18.7020  -31.8810 H   0  0  0  0  0  0  0  0  0  0  0  0
  1  2  1  0
  2  3  2  0
  2  4  1  0
  4  5  2  0
  5  6  1  0
  6  7  2  0
  7  8  1  0
  8  9  2  0
  9 10  1  0
 10 11  1  0
 11 12  1  0
 12 13  1  0
 13 14  2  0
 13 15  1  0
 15 16  1  0
 16 17  1  0
 17 18  1  0
 18 19  1  0
 19 20  1  0
 20 21  1  0
 21 22  1  0
 22 23  2  0
 23 24  1  0
 24 25  2  0
 25 26  1  0
 26 27  2  0
 27 28  1  0
 28 29  2  0
 28 30  1  0
 30 31  1  0
 31 32  1  0
 32 33  1  0
 33 34  1  0
 34 35  2  0
 34 36  1  0
 36 37  1  0
 37 38  2  0
 30 39  1  0
 39 40  2  0
  9 41  1  0
 41 42  2  0
 42 43  1  0
 43 44  1  0
 44 45  1  0
 44 46  2  0
 43  4  1  0
 42  6  1  0
 27 22  1  0
 37 31  1  0
 39 26  1  0
  1 47  1  0
  5 48  1  0
  7 49  1  0
  8 50  1  0
 10 51  1  0
 10 52  1  0
 11 53  1  0
 11 54  1  0
 12 55  1  0
 12 56  1  0
 15 57  1  0
 15 58  1  0
 16 59  1  0
 16 60  1  0
 17 61  1  0
 17 62  1  0
 18 63  1  0
 18 64  1  0
 19 65  1  0
 19 66  1  0
 20 67  1  0
 20 68  1  0
 21 69  1  0
 23 70  1  0
 24 71  1  0
 25 72  1  0
 31 73  1  1
 32 74  1  0
 32 75  1  0
 33 76  1  0
 33 77  1  0
 36 78  1  0
 41 79  1  0
 45 80  1  0
M  CHG  2   1  -1  45  -1
M  END
>  <UniqueID>  (86) 
86

>  <SMILES>  (86) 
[NH-]C(=O)c1cc2ccc(CCCC(=O)CCCCCCNc3cccc4c3C(=O)N([C@@H]3CCC(=O)NC3=O)C4=O)cc2n1C([NH-])=O

>  <Energy>  (86) 
141.14382982148496

>  <Genealogy>  (86) 
[NH-]C(=O)c1cc2ccc(CCCC(=O)CCCCCCNc3cccc4c3C(=O)N(C3CCC(=O)NC3=O)C4=O)cc2n1C([NH-])=O (protonated)
[NH-]C(=O)c1cc2ccc(CCCC(=O)CCCCCCNc3cccc4c3C(=O)N([C@@H]3CCC(=O)NC3=O)C4=O)cc2n1C([NH-])=O (chirality)
[NH-]C(=O)c1cc2ccc(CCCC(=O)CCCCCCNc3cccc4c3C(=O)N([C@@H]3CCC(=O)NC3=O)C4=O)cc2n1C([NH-])=O (3D coordinates assigned)
[NH-]C(=O)c1cc2ccc(CCCC(=O)CCCCCCNc3cccc4c3C(=O)N([C@@H]3CCC(=O)NC3=O)C4=O)cc2n1C([NH-])=O (nonaromatic ring conformer: 141.14382982148496 kcal/mol)

>  <smiles>  (86) 
NC(=O)c1cc2ccc(CCCC(=O)CCCCCCNc3cccc4c3C(=O)N(C3CCC(=O)NC3=O)C4=O)cc2n1C(N)=O

>  <score_type>  (86) 
oracle

>  <origin>  (86) 
adg

>  <m_score__min__energy>  (86) 
-13.380000000000001

>  <m_primary>  (86) 
energy

$$$$
86:0
     RDKit          3D

 36 37  0  0  0  0  0  0  0  0999 V2000
   -8.3030   18.2250  -32.1830 C   0  0  0  0  0  0  0  0  0  0  0  0
   -7.1540   17.6600  -32.9650 C   0  0  0  0  0  0  0  0  0  0  0  0
   -6.7940   16.5150  -32.7380 O   0  0  0  0  0  0  0  0  0  0  0  0
   -6.4340   18.4880  -34.0110 C   0  0  2  0  0  0  0  0  0  0  0  0
   -5.5350   17.6110  -34.8930 C   0  0  0  0  0  0  0  0  0  0  0  0
   -5.6550   19.6130  -33.3580 C   0  0  0  0  0  0  0  0  0  0  0  0
   -4.2390   19.6450  -33.4690 C   0  0  0  0  0  0  0  0  0  0  0  0
   -3.4930   20.6750  -32.8730 C   0  0  0  0  0  0  0  0  0  0  0  0
   -4.1840   21.6660  -32.1830 C   0  0  0  0  0  0  0  0  0  0  0  0
   -3.7100   22.7600  -31.4950 C   0  0  0  0  0  0  0  0  0  0  0  0
   -4.8430   23.4000  -30.9990 C   0  0  0  0  0  0  0  0  0  0  0  0
   -4.7970   24.6730  -30.2530 C   0  0  0  0  0  0  0  0  0  0  0  0
   -5.4410   24.8130  -28.9870 N   0  0  0  0  0  0  0  0  0  0  0  0
   -4.2240   25.6710  -30.7680 O   0  0  0  0  0  0  0  0  0  0  0  0
   -5.9710   22.7210  -31.3520 N   0  0  0  0  0  0  0  0  0  0  0  0
   -7.3260   22.9820  -30.9460 C   0  0  0  0  0  0  0  0  0  0  0  0
   -8.4050   23.2100  -31.9580 C   0  0  0  0  0  0  0  0  0  0  0  0
   -7.6110   23.0470  -29.7200 O   0  0  0  0  0  0  0  0  0  0  0  0
   -5.5500   21.6660  -32.0820 C   0  0  0  0  0  0  0  0  0  0  0  0
   -6.3180   20.6440  -32.6490 C   0  0  0  0  0  0  0  0  0  0  0  0
   -8.0987   18.1246  -31.1068 H   0  0  0  0  0  0  0  0  0  0  0  0
   -8.4300   19.2883  -32.4344 H   0  0  0  0  0  0  0  0  0  0  0  0
   -9.2227   17.6764  -32.4344 H   0  0  0  0  0  0  0  0  0  0  0  0
   -7.1885   18.9418  -34.6705 H   0  0  0  0  0  0  0  0  0  0  0  0
   -4.8936   16.9853  -34.2550 H   0  0  0  0  0  0  0  0  0  0  0  0
   -6.1607   16.9667  -35.5281 H   0  0  0  0  0  0  0  0  0  0  0  0
   -4.9064   18.2525  -35.5281 H   0  0  0  0  0  0  0  0  0  0  0  0
   -3.7202   18.8529  -34.0289 H   0  0  0  0  0  0  0  0  0  0  0  0
   -2.3959   20.6975  -32.9494 H   0  0  0  0  0  0  0  0  0  0  0  0
   -2.6608   23.0637  -31.3649 H   0  0  0  0  0  0  0  0  0  0  0  0
   -5.3610   25.7070  -28.4540 H   0  0  0  0  0  0  0  0  0  0  0  0
   -6.0650   24.0640  -28.6140 H   0  0  0  0  0  0  0  0  0  0  0  0
   -9.3554   23.4108  -31.4418 H   0  0  0  0  0  0  0  0  0  0  0  0
   -8.1406   24.0721  -32.5880 H   0  0  0  0  0  0  0  0  0  0  0  0
   -8.5120   22.3146  -32.5880 H   0  0  0  0  0  0  0  0  0  0  0  0
   -7.4132   20.6411  -32.5465 H   0  0  0  0  0  0  0  0  0  0  0  0
  1  2  1  0
  2  3  2  0
  2  4  1  0
  4  5  1  0
  4  6  1  0
  6  7  2  0
  7  8  1  0
  8  9  2  0
  9 10  1  0
 10 11  2  0
 11 12  1  0
 12 13  1  0
 12 14  2  0
 11 15  1  0
 15 16  1  0
 16 17  1  0
 16 18  2  0
 15 19  1  0
 19 20  2  0
 20  6  1  0
 19  9  1  0
  1 21  1  0
  1 22  1  0
  1 23  1  0
  4 24  1  6
  5 25  1  0
  5 26  1  0
  5 27  1  0
  7 28  1  0
  8 29  1  0
 10 30  1  0
 13 31  1  0
 13 32  1  0
 17 33  1  0
 17 34  1  0
 17 35  1  0
 20 36  1  0
M  END
>  <UniqueID>  (87) 
87

>  <SMILES>  (87) 
CC(=O)[C@H](C)c1ccc2cc(C(N)=O)n(C(C)=O)c2c1

>  <Energy>  (87) 
71.34455121212474

>  <Genealogy>  (87) 
CC(=O)[C@H](C)c1ccc2cc(C(N)=O)n(C(C)=O)c2c1 (chirality)
CC(=O)[C@H](C)c1ccc2cc(C(N)=O)n(C(C)=O)c2c1 (3D coordinates assigned)
CC(=O)[C@H](C)c1ccc2cc(C(N)=O)n(C(C)=O)c2c1 (optimized conformer: 71.34455121212474 kcal/mol)

>  <smiles>  (87) 
CC(=O)C(C)c1ccc2cc(C(N)=O)n(C(C)=O)c2c1

>  <score_type>  (87) 
oracle

>  <origin>  (87) 
adg

>  <m_score__min__energy>  (87) 
-8.8200000000000003

>  <m_primary>  (87) 
energy

$$$$
87:0
     RDKit          3D

 34 35  0  0  0  0  0  0  0  0999 V2000
   -5.0390   15.4060  -33.8910 N   0  0  0  0  0  0  0  0  0  0  0  0
   -6.3120   16.0510  -33.9170 C   0  0  0  0  0  0  0  0  0  0  0  0
   -7.2530   15.5340  -34.5740 O   0  0  0  0  0  0  0  0  0  0  0  0
   -6.5270   17.3470  -33.2410 C   0  0  0  0  0  0  0  0  0  0  0  0
   -7.7550   17.7430  -32.7210 C   0  0  0  0  0  0  0  0  0  0  0  0
   -7.5520   19.0160  -32.2410 C   0  0  0  0  0  0  0  0  0  0  0  0
   -8.4360   19.8800  -31.6010 C   0  0  0  0  0  0  0  0  0  0  0  0
   -7.9440   21.1220  -31.1690 C   0  0  0  0  0  0  0  0  0  0  0  0
   -6.5850   21.4720  -31.3700 C   0  0  0  0  0  0  0  0  0  0  0  0
   -6.0590   22.7930  -30.8690 C   0  0  0  0  0  0  0  0  0  0  0  0
   -4.5560   22.7530  -30.5250 C   0  0  1  0  0  0  0  0  0  0  0  0
   -3.8420   23.1610  -31.6650 O   0  0  0  0  0  0  0  0  0  0  0  0
   -4.1880   23.6810  -29.3460 C   0  0  0  0  0  0  0  0  0  0  0  0
   -3.4630   24.9180  -29.7850 C   0  0  0  0  0  0  0  0  0  0  0  0
   -3.9220   25.6200  -30.7260 O   0  0  0  0  0  0  0  0  0  0  0  0
   -2.2610   25.2770  -29.1870 O   0  0  0  0  0  0  0  0  0  0  0  0
   -5.7190   20.5710  -32.0290 C   0  0  0  0  0  0  0  0  0  0  0  0
   -6.2400   19.3470  -32.4680 C   0  0  0  0  0  0  0  0  0  0  0  0
   -5.5940   18.3280  -33.0810 N   0  0  0  0  0  0  0  0  0  0  0  0
   -4.1900   18.2570  -33.3790 C   0  0  0  0  0  0  0  0  0  0  0  0
   -3.4890   17.3180  -32.9190 O   0  0  0  0  0  0  0  0  0  0  0  0
   -3.5880   19.2250  -34.1740 O   0  0  0  0  0  0  0  0  0  0  0  0
   -4.1970   15.8860  -33.5020 H   0  0  0  0  0  0  0  0  0  0  0  0
   -4.9150   14.4710  -34.3410 H   0  0  0  0  0  0  0  0  0  0  0  0
   -8.6889   17.1622  -32.6985 H   0  0  0  0  0  0  0  0  0  0  0  0
   -9.4869   19.5986  -31.4388 H   0  0  0  0  0  0  0  0  0  0  0  0
   -8.6203   21.8311  -30.6692 H   0  0  0  0  0  0  0  0  0  0  0  0
   -6.2199   23.5525  -31.6483 H   0  0  0  0  0  0  0  0  0  0  0  0
   -6.6018   23.0329  -29.9428 H   0  0  0  0  0  0  0  0  0  0  0  0
   -4.3005   21.7269  -30.2219 H   0  0  0  0  0  0  0  0  0  0  0  0
   -3.7320   24.1460  -31.6020 H   0  0  0  0  0  0  0  0  0  0  0  0
   -5.1133   23.9797  -28.8317 H   0  0  0  0  0  0  0  0  0  0  0  0
   -3.5144   23.1206  -28.6810 H   0  0  0  0  0  0  0  0  0  0  0  0
   -4.6613   20.8245  -32.1934 H   0  0  0  0  0  0  0  0  0  0  0  0
  1  2  1  0
  2  3  2  0
  2  4  1  0
  4  5  2  0
  5  6  1  0
  6  7  2  0
  7  8  1  0
  8  9  2  0
  9 10  1  0
 10 11  1  0
 11 12  1  0
 11 13  1  0
 13 14  1  0
 14 15  2  0
 14 16  1  0
  9 17  1  0
 17 18  2  0
 18 19  1  0
 19 20  1  0
 20 21  2  0
 20 22  1  0
 19  4  1  0
 18  6  1  0
  1 23  1  0
  1 24  1  0
  5 25  1  0
  7 26  1  0
  8 27  1  0
 10 28  1  0
 10 29  1  0
 11 30  1  1
 12 31  1  0
 13 32  1  0
 13 33  1  0
 17 34  1  0
M  CHG  2  16  -1  22  -1
M  END
>  <UniqueID>  (88) 
88

>  <SMILES>  (88) 
NC(=O)c1cc2ccc(C[C@@H](O)CC(=O)[O-])cc2n1C(=O)[O-]

>  <Energy>  (88) 
71.1576908723156

>  <Genealogy>  (88) 
NC(=O)c1cc2ccc(CC(O)CC(=O)[O-])cc2n1C(=O)[O-] (protonated)
NC(=O)c1cc2ccc(C[C@@H](O)CC(=O)[O-])cc2n1C(=O)[O-] (chirality)
NC(=O)c1cc2ccc(C[C@@H](O)CC(=O)[O-])cc2n1C(=O)[O-] (3D coordinates assigned)
NC(=O)c1cc2ccc(C[C@@H](O)CC(=O)[O-])cc2n1C(=O)[O-] (optimized conformer: 71.1576908723156 kcal/mol)

>  <smiles>  (88) 
NC(=O)c1cc2ccc(CC(O)CC(=O)O)cc2n1C(=O)O

>  <score_type>  (88) 
oracle

>  <origin>  (88) 
adg

>  <m_score__min__energy>  (88) 
-9.9900000000000002

>  <m_primary>  (88) 
energy

$$$$
88:0
     RDKit          3D

 40 42  0  0  0  0  0  0  0  0999 V2000
   -2.1180   20.9290  -32.3300 C   0  0  0  0  0  0  0  0  0  0  0  0
   -2.8310   22.1530  -32.4490 O   0  0  0  0  0  0  0  0  0  0  0  0
   -3.5140   22.7350  -31.3770 C   0  0  0  0  0  0  0  0  0  0  0  0
   -2.8820   23.1330  -30.3600 O   0  0  0  0  0  0  0  0  0  0  0  0
   -4.9440   22.8580  -31.4260 N   0  0  0  0  0  0  0  0  0  0  0  0
   -5.7120   23.8930  -30.9800 C   0  0  0  0  0  0  0  0  0  0  0  0
   -5.2170   25.1960  -30.4900 C   0  0  0  0  0  0  0  0  0  0  0  0
   -3.9210   25.6710  -30.8460 N   0  0  0  0  0  0  0  0  0  0  0  0
   -5.9660   25.9230  -29.7840 O   0  0  0  0  0  0  0  0  0  0  0  0
   -7.0650   23.5930  -31.1250 C   0  0  0  0  0  0  0  0  0  0  0  0
   -7.1030   22.3370  -31.6850 C   0  0  0  0  0  0  0  0  0  0  0  0
   -8.1910   21.5480  -32.0350 C   0  0  0  0  0  0  0  0  0  0  0  0
   -7.9380   20.2740  -32.5700 C   0  0  0  0  0  0  0  0  0  0  0  0
   -6.6060   19.8030  -32.7410 C   0  0  0  0  0  0  0  0  0  0  0  0
   -6.3560   18.4850  -33.2820 N   0  0  0  0  0  0  0  0  0  0  0  0
   -7.2290   17.3390  -33.0700 C   0  0  0  0  0  0  0  0  0  0  0  0
   -6.4910   16.1400  -33.6480 C   0  0  0  0  0  0  0  0  0  0  0  0
   -5.4530   16.7280  -34.6040 C   0  0  2  0  0  0  0  0  0  0  0  0
   -4.1760   15.8860  -34.6800 C   0  0  0  0  0  0  0  0  0  0  0  0
   -5.1970   18.1460  -34.0960 C   0  0  0  0  0  0  0  0  0  0  0  0
   -5.5280   20.6440  -32.3670 C   0  0  0  0  0  0  0  0  0  0  0  0
   -5.8110   21.9160  -31.8560 C   0  0  0  0  0  0  0  0  0  0  0  0
   -1.9778   20.6883  -31.2659 H   0  0  0  0  0  0  0  0  0  0  0  0
   -2.6883   20.1237  -32.8160 H   0  0  0  0  0  0  0  0  0  0  0  0
   -1.1362   21.0278  -32.8160 H   0  0  0  0  0  0  0  0  0  0  0  0
   -3.0630   25.2830  -30.3950 H   0  0  0  0  0  0  0  0  0  0  0  0
   -7.9213   24.2263  -30.8500 H   0  0  0  0  0  0  0  0  0  0  0  0
   -9.2206   21.9100  -31.8973 H   0  0  0  0  0  0  0  0  0  0  0  0
   -8.7818   19.6311  -32.8610 H   0  0  0  0  0  0  0  0  0  0  0  0
   -7.4143   17.1927  -31.9956 H   0  0  0  0  0  0  0  0  0  0  0  0
   -8.2074   17.4819  -33.5521 H   0  0  0  0  0  0  0  0  0  0  0  0
   -5.9979   15.5686  -32.8478 H   0  0  0  0  0  0  0  0  0  0  0  0
   -7.1737   15.4460  -34.1602 H   0  0  0  0  0  0  0  0  0  0  0  0
   -5.8210   16.7352  -35.6406 H   0  0  0  0  0  0  0  0  0  0  0  0
   -3.8273   15.6561  -33.6624 H   0  0  0  0  0  0  0  0  0  0  0  0
   -4.3861   14.9488  -35.2161 H   0  0  0  0  0  0  0  0  0  0  0  0
   -3.3973   16.4484  -35.2161 H   0  0  0  0  0  0  0  0  0  0  0  0
   -4.2796   18.1770  -33.4898 H   0  0  0  0  0  0  0  0  0  0  0  0
   -5.0591   18.8566  -34.9243 H   0  0  0  0  0  0  0  0  0  0  0  0
   -4.4879   20.3032  -32.4764 H   0  0  0  0  0  0  0  0  0  0  0  0
  1  2  1  0
  2  3  1  0
  3  4  2  0
  3  5  1  0
  5  6  1  0
  6  7  1  0
  7  8  1  0
  7  9  2  0
  6 10  2  0
 10 11  1  0
 11 12  2  0
 12 13  1  0
 13 14  2  0
 14 15  1  0
 15 16  1  0
 16 17  1  0
 17 18  1  0
 18 19  1  0
 18 20  1  0
 14 21  1  0
 21 22  2  0
 22  5  1  0
 22 11  1  0
 20 15  1  0
  1 23  1  0
  1 24  1  0
  1 25  1  0
  8 26  1  0
 10 27  1  0
 12 28  1  0
 13 29  1  0
 16 30  1  0
 16 31  1  0
 17 32  1  0
 17 33  1  0
 18 34  1  6
 19 35  1  0
 19 36  1  0
 19 37  1  0
 20 38  1  0
 20 39  1  0
 21 40  1  0
M  CHG  1   8  -1
M  END
>  <UniqueID>  (89) 
89

>  <SMILES>  (89) 
COC(=O)n1c(C([NH-])=O)cc2ccc(N3CC[C@H](C)C3)cc21

>  <Energy>  (89) 
78.39879686626493

>  <Genealogy>  (89) 
COC(=O)n1c(C([NH-])=O)cc2ccc(N3CC[C@H](C)C3)cc21 (protonated)
COC(=O)n1c(C([NH-])=O)cc2ccc(N3CC[C@H](C)C3)cc21 (3D coordinates assigned)
COC(=O)n1c(C([NH-])=O)cc2ccc(N3CC[C@H](C)C3)cc21 (nonaromatic ring conformer: 78.39879686626493 kcal/mol)

>  <smiles>  (89) 
COC(=O)n1c(C(N)=O)cc2ccc(N3CC[C@H](C)C3)cc21

>  <score_type>  (89) 
oracle

>  <origin>  (89) 
adg

>  <m_score__min__energy>  (89) 
-10.220000000000001

>  <m_primary>  (89) 
energy

$$$$
89:0
     RDKit          3D

 48 50  0  0  0  0  0  0  0  0999 V2000
   -5.1590   23.5910  -29.7150 C   0  0  0  0  0  0  0  0  0  0  0  0
   -3.8920   24.0840  -30.3380 C   0  0  0  0  0  0  0  0  0  0  0  0
   -3.8620   25.2380  -30.8440 O   0  0  0  0  0  0  0  0  0  0  0  0
   -2.7370   23.2350  -30.4310 N   0  0  0  0  0  0  0  0  0  0  0  0
   -1.5300   23.3850  -29.8140 C   0  0  0  0  0  0  0  0  0  0  0  0
   -1.1110   24.5500  -29.0070 C   0  0  0  0  0  0  0  0  0  0  0  0
   -1.9740   25.6770  -28.8860 N   0  0  0  0  0  0  0  0  0  0  0  0
   -0.0100   24.5470  -28.3970 O   0  0  0  0  0  0  0  0  0  0  0  0
   -0.6930   22.3140  -30.1180 C   0  0  0  0  0  0  0  0  0  0  0  0
   -1.4260   21.5030  -30.9550 C   0  0  0  0  0  0  0  0  0  0  0  0
   -1.0820   20.3040  -31.5710 C   0  0  0  0  0  0  0  0  0  0  0  0
   -2.0470   19.6820  -32.3820 C   0  0  0  0  0  0  0  0  0  0  0  0
   -3.3330   20.2500  -32.5500 C   0  0  0  0  0  0  0  0  0  0  0  0
   -4.2840   19.5810  -33.4010 N   0  0  0  0  0  0  0  0  0  0  0  0
   -4.6940   18.1780  -33.2480 C   0  0  2  0  0  0  0  0  0  0  0  0
   -3.6440   17.2890  -33.8630 C   0  0  0  0  0  0  0  0  0  0  0  0
   -3.6680   16.8150  -35.1230 N   0  0  0  0  0  0  0  0  0  0  0  0
   -2.5420   16.0830  -35.1830 C   0  0  0  0  0  0  0  0  0  0  0  0
   -2.1290   15.2780  -36.3680 C   0  0  0  0  0  0  0  0  0  0  0  0
   -1.8730   16.0960  -34.0130 N   0  0  0  0  0  0  0  0  0  0  0  0
   -2.5810   16.8550  -33.2270 O   0  0  0  0  0  0  0  0  0  0  0  0
   -6.1100   17.9250  -33.8600 C   0  0  0  0  0  0  0  0  0  0  0  0
   -6.5070   16.4460  -33.6810 C   0  0  0  0  0  0  0  0  0  0  0  0
   -7.1730   18.7920  -33.1480 C   0  0  0  0  0  0  0  0  0  0  0  0
   -6.1150   18.2030  -35.2420 O   0  0  0  0  0  0  0  0  0  0  0  0
   -3.6390   21.4790  -31.9170 C   0  0  0  0  0  0  0  0  0  0  0  0
   -2.6550   22.0820  -31.1280 C   0  0  0  0  0  0  0  0  0  0  0  0
   -5.0670   23.6268  -28.6194 H   0  0  0  0  0  0  0  0  0  0  0  0
   -5.9967   24.2288  -30.0337 H   0  0  0  0  0  0  0  0  0  0  0  0
   -5.3453   22.5548  -30.0337 H   0  0  0  0  0  0  0  0  0  0  0  0
   -2.9320   25.6670  -29.3010 H   0  0  0  0  0  0  0  0  0  0  0  0
    0.3357   22.1507  -29.7643 H   0  0  0  0  0  0  0  0  0  0  0  0
   -0.0871   19.8572  -31.4280 H   0  0  0  0  0  0  0  0  0  0  0  0
   -1.7994   18.7402  -32.8936 H   0  0  0  0  0  0  0  0  0  0  0  0
   -4.6040   20.0930  -34.2540 H   0  0  0  0  0  0  0  0  0  0  0  0
   -4.7768   17.9377  -32.1778 H   0  0  0  0  0  0  0  0  0  0  0  0
   -4.3860   16.9630  -35.8670 H   0  0  0  0  0  0  0  0  0  0  0  0
   -1.6512   14.3466  -36.0301 H   0  0  0  0  0  0  0  0  0  0  0  0
   -3.0147   15.0367  -36.9741 H   0  0  0  0  0  0  0  0  0  0  0  0
   -1.4165   15.8567  -36.9741 H   0  0  0  0  0  0  0  0  0  0  0  0
   -6.5702   16.2106  -32.6084 H   0  0  0  0  0  0  0  0  0  0  0  0
   -7.4845   16.2690  -34.1535 H   0  0  0  0  0  0  0  0  0  0  0  0
   -5.7496   15.8033  -34.1535 H   0  0  0  0  0  0  0  0  0  0  0  0
   -7.0549   18.6957  -32.0586 H   0  0  0  0  0  0  0  0  0  0  0  0
   -7.0426   19.8447  -33.4393 H   0  0  0  0  0  0  0  0  0  0  0  0
   -8.1780   18.4527  -33.4393 H   0  0  0  0  0  0  0  0  0  0  0  0
   -6.8100   18.8870  -35.4210 H   0  0  0  0  0  0  0  0  0  0  0  0
   -4.6262   21.9476  -32.0429 H   0  0  0  0  0  0  0  0  0  0  0  0
  1  2  1  0
  2  3  2  0
  2  4  1  0
  4  5  1  0
  5  6  1  0
  6  7  1  0
  6  8  2  0
  5  9  2  0
  9 10  1  0
 10 11  2  0
 11 12  1  0
 12 13  2  0
 13 14  1  0
 14 15  1  0
 15 16  1  0
 16 17  2  0
 17 18  1  0
 18 19  1  0
 18 20  2  0
 20 21  1  0
 15 22  1  0
 22 23  1  0
 22 24  1  0
 22 25  1  0
 13 26  1  0
 26 27  2  0
 27  4  1  0
 27 10  1  0
 21 16  1  0
  1 28  1  0
  1 29  1  0
  1 30  1  0
  7 31  1  0
  9 32  1  0
 11 33  1  0
 12 34  1  0
 14 35  1  0
 15 36  1  1
 17 37  1  0
 19 38  1  0
 19 39  1  0
 19 40  1  0
 23 41  1  0
 23 42  1  0
 23 43  1  0
 24 44  1  0
 24 45  1  0
 24 46  1  0
 25 47  1  0
 26 48  1  0
M  CHG  2   7  -1  17   1
M  END
>  <UniqueID>  (90) 
90

>  <SMILES>  (90) 
CC(=O)n1c(C([NH-])=O)cc2ccc(N[C@H](c3[nH+]c(C)no3)C(C)(C)O)cc21

>  <Energy>  (90) 
121.1311378202525

>  <Genealogy>  (90) 
CC(=O)n1c(C([NH-])=O)cc2ccc(N[C@H](c3[nH+]c(C)no3)C(C)(C)O)cc21 (protonated)
CC(=O)n1c(C([NH-])=O)cc2ccc(N[C@H](c3[nH+]c(C)no3)C(C)(C)O)cc21 (3D coordinates assigned)
CC(=O)n1c(C([NH-])=O)cc2ccc(N[C@H](c3[nH+]c(C)no3)C(C)(C)O)cc21 (optimized conformer: 121.1311378202525 kcal/mol)

>  <smiles>  (90) 
CC(=O)n1c(C(N)=O)cc2ccc(N[C@H](c3nc(C)no3)C(C)(C)O)cc21

>  <score_type>  (90) 
oracle

>  <origin>  (90) 
adg

>  <m_score__min__energy>  (90) 
-11.039999999999999

>  <m_primary>  (90) 
energy

$$$$
90:0
     RDKit          3D

 30 32  0  0  0  0  0  0  0  0999 V2000
   -7.0970   21.5380  -31.9270 C   0  0  0  0  0  0  0  0  0  0  0  0
   -6.5080   20.5790  -32.9100 C   0  0  0  0  0  0  0  0  0  0  0  0
   -7.2330   19.9030  -33.8180 N   0  0  0  0  0  0  0  0  0  0  0  0
   -6.3750   19.2120  -34.5120 O   0  0  0  0  0  0  0  0  0  0  0  0
   -5.1390   19.3770  -34.1340 N   0  0  0  0  0  0  0  0  0  0  0  0
   -5.1810   20.2370  -33.1000 C   0  0  0  0  0  0  0  0  0  0  0  0
   -3.9790   20.7120  -32.3780 C   0  0  0  0  0  0  0  0  0  0  0  0
   -2.7660   19.9770  -32.4050 C   0  0  0  0  0  0  0  0  0  0  0  0
   -1.6330   20.4370  -31.7150 C   0  0  0  0  0  0  0  0  0  0  0  0
   -1.7320   21.6400  -31.0250 C   0  0  0  0  0  0  0  0  0  0  0  0
   -0.7980   22.2960  -30.2560 C   0  0  0  0  0  0  0  0  0  0  0  0
   -1.4370   23.4490  -29.8070 C   0  0  0  0  0  0  0  0  0  0  0  0
   -0.7680   24.4820  -28.9940 C   0  0  0  0  0  0  0  0  0  0  0  0
   -1.3520   25.7730  -28.8110 N   0  0  0  0  0  0  0  0  0  0  0  0
    0.3660   24.2430  -28.4990 O   0  0  0  0  0  0  0  0  0  0  0  0
   -2.7200   23.5000  -30.2660 N   0  0  0  0  0  0  0  0  0  0  0  0
   -3.7290   24.4660  -29.9260 C   0  0  0  0  0  0  0  0  0  0  0  0
   -4.4910   24.2750  -28.9430 O   0  0  0  0  0  0  0  0  0  0  0  0
   -3.8710   25.6260  -30.6790 O   0  0  0  0  0  0  0  0  0  0  0  0
   -2.8830   22.3850  -31.0160 C   0  0  0  0  0  0  0  0  0  0  0  0
   -4.0340   21.9390  -31.6780 C   0  0  0  0  0  0  0  0  0  0  0  0
   -6.8845   21.1920  -30.9047 H   0  0  0  0  0  0  0  0  0  0  0  0
   -6.6547   22.5340  -32.0763 H   0  0  0  0  0  0  0  0  0  0  0  0
   -8.1854   21.5939  -32.0763 H   0  0  0  0  0  0  0  0  0  0  0  0
   -2.7125   19.0364  -32.9727 H   0  0  0  0  0  0  0  0  0  0  0  0
   -0.6949   19.8627  -31.7202 H   0  0  0  0  0  0  0  0  0  0  0  0
    0.2329   21.9776  -30.0418 H   0  0  0  0  0  0  0  0  0  0  0  0
   -2.2050   26.0580  -29.3420 H   0  0  0  0  0  0  0  0  0  0  0  0
   -0.8820   26.4810  -28.2040 H   0  0  0  0  0  0  0  0  0  0  0  0
   -4.9609   22.5308  -31.6537 H   0  0  0  0  0  0  0  0  0  0  0  0
  1  2  1  0
  2  3  2  0
  3  4  1  0
  4  5  1  0
  5  6  2  0
  6  7  1  0
  7  8  2  0
  8  9  1  0
  9 10  2  0
 10 11  1  0
 11 12  2  0
 12 13  1  0
 13 14  1  0
 13 15  2  0
 12 16  1  0
 16 17  1  0
 17 18  2  0
 17 19  1  0
 16 20  1  0
 20 21  2  0
  6  2  1  0
 21  7  1  0
 20 10  1  0
  1 22  1  0
  1 23  1  0
  1 24  1  0
  8 25  1  0
  9 26  1  0
 11 27  1  0
 14 28  1  0
 14 29  1  0
 21 30  1  0
M  CHG  1  19  -1
M  END
>  <UniqueID>  (91) 
91

>  <SMILES>  (91) 
Cc1nonc1-c1ccc2cc(C(N)=O)n(C(=O)[O-])c2c1

>  <Energy>  (91) 
110.11463049138355

>  <Genealogy>  (91) 
Cc1nonc1-c1ccc2cc(C(N)=O)n(C(=O)[O-])c2c1 (protonated)
Cc1nonc1-c1ccc2cc(C(N)=O)n(C(=O)[O-])c2c1 (3D coordinates assigned)
Cc1nonc1-c1ccc2cc(C(N)=O)n(C(=O)[O-])c2c1 (optimized conformer: 110.11463049138355 kcal/mol)

>  <smiles>  (91) 
Cc1nonc1-c1ccc2cc(C(N)=O)n(C(=O)O)c2c1

>  <score_type>  (91) 
oracle

>  <origin>  (91) 
adg

>  <m_score__min__energy>  (91) 
-9.3699999999999992

>  <m_primary>  (91) 
energy

$$$$
91:0
     RDKit          3D

 32 33  0  0  0  0  0  0  0  0999 V2000
   -6.2860   18.8790  -31.9620 C   0  0  0  0  0  0  0  0  0  0  0  0
   -6.2530   19.9970  -32.7030 C   0  0  0  0  0  0  0  0  0  0  0  0
   -5.1240   20.2610  -33.5550 N   0  0  0  0  0  0  0  0  0  0  0  0
   -4.0170   20.7160  -32.7530 C   0  0  0  0  0  0  0  0  0  0  0  0
   -2.8070   19.9760  -32.7200 C   0  0  0  0  0  0  0  0  0  0  0  0
   -1.7140   20.4210  -31.9570 C   0  0  0  0  0  0  0  0  0  0  0  0
   -1.8520   21.6130  -31.2530 C   0  0  0  0  0  0  0  0  0  0  0  0
   -0.9640   22.2590  -30.4250 C   0  0  0  0  0  0  0  0  0  0  0  0
   -1.6290   23.4030  -29.9890 C   0  0  0  0  0  0  0  0  0  0  0  0
   -0.9960   24.4360  -29.1430 C   0  0  0  0  0  0  0  0  0  0  0  0
   -1.6100   25.7090  -28.9590 N   0  0  0  0  0  0  0  0  0  0  0  0
    0.1260   24.2100  -28.6170 O   0  0  0  0  0  0  0  0  0  0  0  0
   -2.8820   23.4600  -30.5200 N   0  0  0  0  0  0  0  0  0  0  0  0
   -3.9100   24.4250  -30.2450 C   0  0  0  0  0  0  0  0  0  0  0  0
   -4.8390   24.1530  -29.4400 O   0  0  0  0  0  0  0  0  0  0  0  0
   -3.8730   25.6780  -30.8430 O   0  0  0  0  0  0  0  0  0  0  0  0
   -3.0030   22.3570  -31.2940 C   0  0  0  0  0  0  0  0  0  0  0  0
   -4.1140   21.9280  -32.0300 C   0  0  0  0  0  0  0  0  0  0  0  0
   -7.2870   20.9500  -32.6580 O   0  0  0  0  0  0  0  0  0  0  0  0
   -8.4060   20.9000  -31.7770 C   0  0  0  0  0  0  0  0  0  0  0  0
   -7.1487   18.6763  -31.3103 H   0  0  0  0  0  0  0  0  0  0  0  0
   -5.4503   18.1650  -32.0061 H   0  0  0  0  0  0  0  0  0  0  0  0
   -4.8570   19.4080  -34.1020 H   0  0  0  0  0  0  0  0  0  0  0  0
   -5.3850   21.0000  -34.2480 H   0  0  0  0  0  0  0  0  0  0  0  0
   -2.7235   19.0438  -33.2979 H   0  0  0  0  0  0  0  0  0  0  0  0
   -0.7780   19.8445  -31.9176 H   0  0  0  0  0  0  0  0  0  0  0  0
    0.0555   21.9400  -30.1625 H   0  0  0  0  0  0  0  0  0  0  0  0
   -2.6450   25.8220  -29.0360 H   0  0  0  0  0  0  0  0  0  0  0  0
   -5.0411   22.5198  -32.0457 H   0  0  0  0  0  0  0  0  0  0  0  0
   -8.0534   20.9158  -30.7352 H   0  0  0  0  0  0  0  0  0  0  0  0
   -9.0543   21.7701  -31.9579 H   0  0  0  0  0  0  0  0  0  0  0  0
   -8.9741   19.9756  -31.9579 H   0  0  0  0  0  0  0  0  0  0  0  0
  1  2  2  0
  2  3  1  0
  3  4  1  0
  4  5  2  0
  5  6  1  0
  6  7  2  0
  7  8  1  0
  8  9  2  0
  9 10  1  0
 10 11  1  0
 10 12  2  0
  9 13  1  0
 13 14  1  0
 14 15  2  0
 14 16  1  0
 13 17  1  0
 17 18  2  0
  2 19  1  0
 19 20  1  0
 18  4  1  0
 17  7  1  0
  1 21  1  0
  1 22  1  0
  3 23  1  0
  3 24  1  0
  5 25  1  0
  6 26  1  0
  8 27  1  0
 11 28  1  0
 18 29  1  0
 20 30  1  0
 20 31  1  0
 20 32  1  0
M  CHG  3   3   1  11  -1  16  -1
M  END
>  <UniqueID>  (92) 
92

>  <SMILES>  (92) 
C=C([NH2+]c1ccc2cc(C([NH-])=O)n(C(=O)[O-])c2c1)OC

>  <Energy>  (92) 
72.43469878621073

>  <Genealogy>  (92) 
C=C([NH2+]c1ccc2cc(C([NH-])=O)n(C(=O)[O-])c2c1)OC (protonated)
C=C([NH2+]c1ccc2cc(C([NH-])=O)n(C(=O)[O-])c2c1)OC (3D coordinates assigned)
C=C([NH2+]c1ccc2cc(C([NH-])=O)n(C(=O)[O-])c2c1)OC (optimized conformer: 72.43469878621073 kcal/mol)

>  <smiles>  (92) 
C=C(Nc1ccc2cc(C(N)=O)n(C(=O)O)c2c1)OC

>  <score_type>  (92) 
oracle

>  <origin>  (92) 
adg

>  <m_score__min__energy>  (92) 
-9.6500000000000004

>  <m_primary>  (92) 
energy

$$$$
92:0
     RDKit          3D

 41 42  0  0  0  0  0  0  0  0999 V2000
   -4.8180   17.0070  -34.0680 C   0  0  0  0  0  0  0  0  0  0  0  0
   -5.1000   16.9710  -32.6730 O   0  0  0  0  0  0  0  0  0  0  0  0
   -6.2060   17.6180  -32.1170 C   0  0  0  0  0  0  0  0  0  0  0  0
   -6.4670   17.5040  -30.8870 O   0  0  0  0  0  0  0  0  0  0  0  0
   -7.0970   18.4440  -32.9920 C   0  0  0  0  0  0  0  0  0  0  0  0
   -7.2800   19.8150  -32.3980 C   0  0  0  0  0  0  0  0  0  0  0  0
   -8.5750   20.3840  -32.3260 C   0  0  0  0  0  0  0  0  0  0  0  0
   -8.7560   21.6890  -31.8440 C   0  0  0  0  0  0  0  0  0  0  0  0
   -7.6290   22.4020  -31.4470 C   0  0  0  0  0  0  0  0  0  0  0  0
   -7.5280   23.6860  -30.9800 C   0  0  0  0  0  0  0  0  0  0  0  0
   -6.1710   23.8930  -30.7670 C   0  0  0  0  0  0  0  0  0  0  0  0
   -5.6300   25.1870  -30.3230 C   0  0  0  0  0  0  0  0  0  0  0  0
   -4.2890   25.5650  -30.6390 N   0  0  0  0  0  0  0  0  0  0  0  0
   -6.3790   26.0030  -29.7240 O   0  0  0  0  0  0  0  0  0  0  0  0
   -5.4490   22.7700  -31.0580 N   0  0  0  0  0  0  0  0  0  0  0  0
   -4.0450   22.5450  -30.7930 C   0  0  0  0  0  0  0  0  0  0  0  0
   -3.1630   23.1700  -31.4440 O   0  0  0  0  0  0  0  0  0  0  0  0
   -3.6430   21.6130  -29.8320 O   0  0  0  0  0  0  0  0  0  0  0  0
   -3.2290   21.9750  -28.5220 C   0  0  0  0  0  0  0  0  0  0  0  0
   -3.3290   23.4910  -28.3410 C   0  0  0  0  0  0  0  0  0  0  0  0
   -1.9630   24.1700  -28.4270 C   0  0  0  0  0  0  0  0  0  0  0  0
   -2.0410   25.2590  -29.2780 F   0  0  0  0  0  0  0  0  0  0  0  0
   -6.3640   21.8670  -31.4960 C   0  0  0  0  0  0  0  0  0  0  0  0
   -6.1610   20.5640  -31.9780 C   0  0  0  0  0  0  0  0  0  0  0  0
   -3.7373   17.1450  -34.2202 H   0  0  0  0  0  0  0  0  0  0  0  0
   -5.1357   16.0610  -34.5308 H   0  0  0  0  0  0  0  0  0  0  0  0
   -5.3631   17.8428  -34.5308 H   0  0  0  0  0  0  0  0  0  0  0  0
   -6.6422   18.5375  -33.9892 H   0  0  0  0  0  0  0  0  0  0  0  0
   -8.0780   17.9529  -33.0721 H   0  0  0  0  0  0  0  0  0  0  0  0
   -9.4469   19.7973  -32.6510 H   0  0  0  0  0  0  0  0  0  0  0  0
   -9.7594   22.1355  -31.7817 H   0  0  0  0  0  0  0  0  0  0  0  0
   -8.3468   24.4006  -30.8100 H   0  0  0  0  0  0  0  0  0  0  0  0
   -3.8730   26.4250  -30.2150 H   0  0  0  0  0  0  0  0  0  0  0  0
   -3.6920   24.9480  -31.2320 H   0  0  0  0  0  0  0  0  0  0  0  0
   -3.8760   21.4768  -27.7849 H   0  0  0  0  0  0  0  0  0  0  0  0
   -2.1848   21.6621  -28.3743 H   0  0  0  0  0  0  0  0  0  0  0  0
   -3.9791   23.9004  -29.1283 H   0  0  0  0  0  0  0  0  0  0  0  0
   -3.7429   23.6868  -27.3408 H   0  0  0  0  0  0  0  0  0  0  0  0
   -1.6582   24.5084  -27.4257 H   0  0  0  0  0  0  0  0  0  0  0  0
   -1.2222   23.4549  -28.8141 H   0  0  0  0  0  0  0  0  0  0  0  0
   -5.1490   20.1356  -32.0271 H   0  0  0  0  0  0  0  0  0  0  0  0
  1  2  1  0
  2  3  1  0
  3  4  2  0
  3  5  1  0
  5  6  1  0
  6  7  2  0
  7  8  1  0
  8  9  2  0
  9 10  1  0
 10 11  2  0
 11 12  1  0
 12 13  1  0
 12 14  2  0
 11 15  1  0
 15 16  1  0
 16 17  2  0
 16 18  1  0
 18 19  1  0
 19 20  1  0
 20 21  1  0
 21 22  1  0
 15 23  1  0
 23 24  2  0
 24  6  1  0
 23  9  1  0
  1 25  1  0
  1 26  1  0
  1 27  1  0
  5 28  1  0
  5 29  1  0
  7 30  1  0
  8 31  1  0
 10 32  1  0
 13 33  1  0
 13 34  1  0
 19 35  1  0
 19 36  1  0
 20 37  1  0
 20 38  1  0
 21 39  1  0
 21 40  1  0
 24 41  1  0
M  END
>  <UniqueID>  (93) 
93

>  <SMILES>  (93) 
COC(=O)Cc1ccc2cc(C(N)=O)n(C(=O)OCCCF)c2c1

>  <Energy>  (93) 
72.21343267462973

>  <Genealogy>  (93) 
COC(=O)Cc1ccc2cc(C(N)=O)n(C(=O)OCCCF)c2c1 (3D coordinates assigned)
COC(=O)Cc1ccc2cc(C(N)=O)n(C(=O)OCCCF)c2c1 (optimized conformer: 72.21343267462973 kcal/mol)

>  <smiles>  (93) 
COC(=O)Cc1ccc2cc(C(N)=O)n(C(=O)OCCCF)c2c1

>  <score_type>  (93) 
oracle

>  <origin>  (93) 
adg

>  <m_score__min__energy>  (93) 
-8.1999999999999993

>  <m_primary>  (93) 
energy

$$$$
93:0
     RDKit          3D

 48 50  0  0  0  0  0  0  0  0999 V2000
   -1.7420   21.1320  -33.1110 C   0  0  0  0  0  0  0  0  0  0  0  0
   -3.2160   20.9810  -33.4650 C   0  0  0  0  0  0  0  0  0  0  0  0
   -3.7100   19.7140  -33.0320 O   0  0  0  0  0  0  0  0  0  0  0  0
   -4.5190   18.8910  -33.8240 C   0  0  0  0  0  0  0  0  0  0  0  0
   -4.1190   18.5040  -34.9560 O   0  0  0  0  0  0  0  0  0  0  0  0
   -5.8050   18.4720  -33.3360 N   0  0  0  0  0  0  0  0  0  0  0  0
   -6.3070   17.2050  -33.2930 C   0  0  0  0  0  0  0  0  0  0  0  0
   -5.6660   16.0050  -33.8750 C   0  0  0  0  0  0  0  0  0  0  0  0
   -4.2460   15.9320  -34.0150 N   0  0  0  0  0  0  0  0  0  0  0  0
   -6.3690   15.0200  -34.2250 O   0  0  0  0  0  0  0  0  0  0  0  0
   -7.5720   17.2020  -32.7050 C   0  0  0  0  0  0  0  0  0  0  0  0
   -7.8320   18.5160  -32.3910 C   0  0  0  0  0  0  0  0  0  0  0  0
   -8.9500   19.0870  -31.7930 C   0  0  0  0  0  0  0  0  0  0  0  0
   -8.9420   20.4740  -31.5710 C   0  0  0  0  0  0  0  0  0  0  0  0
   -7.8170   21.2550  -31.9320 C   0  0  0  0  0  0  0  0  0  0  0  0
   -7.8280   22.7440  -31.7060 C   0  0  0  0  0  0  0  0  0  0  0  0
   -6.8870   23.4470  -32.6920 C   0  0  0  0  0  0  0  0  0  0  0  0
   -5.7920   24.1430  -31.9800 N   0  0  0  0  0  0  0  0  0  0  0  0
   -4.7510   23.1930  -31.5220 C   0  0  0  0  0  0  0  0  0  0  0  0
   -3.8220   23.8390  -30.4740 C   0  0  0  0  0  0  0  0  0  0  0  0
   -3.9050   25.2470  -30.5390 O   0  0  0  0  0  0  0  0  0  0  0  0
   -5.1930   25.6690  -30.1240 C   0  0  0  0  0  0  0  0  0  0  0  0
   -6.3280   24.8970  -30.8320 C   0  0  0  0  0  0  0  0  0  0  0  0
   -6.7050   20.6430  -32.5510 C   0  0  0  0  0  0  0  0  0  0  0  0
   -6.7500   19.2620  -32.7790 C   0  0  0  0  0  0  0  0  0  0  0  0
   -1.6270   21.1438  -32.0171 H   0  0  0  0  0  0  0  0  0  0  0  0
   -1.1758   20.2872  -33.5301 H   0  0  0  0  0  0  0  0  0  0  0  0
   -1.3589   22.0741  -33.5301 H   0  0  0  0  0  0  0  0  0  0  0  0
   -3.7896   21.7800  -32.9725 H   0  0  0  0  0  0  0  0  0  0  0  0
   -3.3270   21.0502  -34.5572 H   0  0  0  0  0  0  0  0  0  0  0  0
   -3.6370   16.7490  -33.7930 H   0  0  0  0  0  0  0  0  0  0  0  0
   -3.8010   15.0650  -34.3910 H   0  0  0  0  0  0  0  0  0  0  0  0
   -8.2235   16.3332  -32.5296 H   0  0  0  0  0  0  0  0  0  0  0  0
   -9.8142   18.4714  -31.5027 H   0  0  0  0  0  0  0  0  0  0  0  0
   -9.8172   20.9578  -31.1128 H   0  0  0  0  0  0  0  0  0  0  0  0
   -8.8504   23.1237  -31.8489 H   0  0  0  0  0  0  0  0  0  0  0  0
   -7.4853   22.9495  -30.6811 H   0  0  0  0  0  0  0  0  0  0  0  0
   -6.4545   22.6981  -33.3718 H   0  0  0  0  0  0  0  0  0  0  0  0
   -7.4662   24.1928  -33.2562 H   0  0  0  0  0  0  0  0  0  0  0  0
   -5.2396   22.3150  -31.0744 H   0  0  0  0  0  0  0  0  0  0  0  0
   -4.1427   22.9005  -32.3906 H   0  0  0  0  0  0  0  0  0  0  0  0
   -4.1219   23.5049  -29.4698 H   0  0  0  0  0  0  0  0  0  0  0  0
   -2.7857   23.5342  -30.6819 H   0  0  0  0  0  0  0  0  0  0  0  0
   -5.2829   25.5110  -29.0391 H   0  0  0  0  0  0  0  0  0  0  0  0
   -5.2969   26.7314  -30.3893 H   0  0  0  0  0  0  0  0  0  0  0  0
   -6.7896   24.1963  -30.1207 H   0  0  0  0  0  0  0  0  0  0  0  0
   -7.0792   25.6147  -31.1932 H   0  0  0  0  0  0  0  0  0  0  0  0
   -5.8265   21.2355  -32.8463 H   0  0  0  0  0  0  0  0  0  0  0  0
  1  2  1  0
  2  3  1  0
  3  4  1  0
  4  5  2  0
  4  6  1  0
  6  7  1  0
  7  8  1  0
  8  9  1  0
  8 10  2  0
  7 11  2  0
 11 12  1  0
 12 13  2  0
 13 14  1  0
 14 15  2  0
 15 16  1  0
 16 17  1  0
 17 18  1  0
 18 19  1  0
 19 20  1  0
 20 21  1  0
 21 22  1  0
 22 23  1  0
 15 24  1  0
 24 25  2  0
 25  6  1  0
 25 12  1  0
 23 18  1  0
  1 26  1  0
  1 27  1  0
  1 28  1  0
  2 29  1  0
  2 30  1  0
  9 31  1  0
  9 32  1  0
 11 33  1  0
 13 34  1  0
 14 35  1  0
 16 36  1  0
 16 37  1  0
 17 38  1  0
 17 39  1  0
 19 40  1  0
 19 41  1  0
 20 42  1  0
 20 43  1  0
 22 44  1  0
 22 45  1  0
 23 46  1  0
 23 47  1  0
 24 48  1  0
M  END
>  <UniqueID>  (94) 
94

>  <SMILES>  (94) 
CCOC(=O)n1c(C(N)=O)cc2ccc(CCN3CCOCC3)cc21

>  <Energy>  (94) 
90.87542536028049

>  <Genealogy>  (94) 
CCOC(=O)n1c(C(N)=O)cc2ccc(CCN3CCOCC3)cc21 (3D coordinates assigned)
CCOC(=O)n1c(C(N)=O)cc2ccc(CCN3CCOCC3)cc21 (nonaromatic ring conformer: 90.87542536028049 kcal/mol)

>  <smiles>  (94) 
CCOC(=O)n1c(C(N)=O)cc2ccc(CCN3CCOCC3)cc21

>  <score_type>  (94) 
oracle

>  <origin>  (94) 
adg

>  <m_score__min__energy>  (94) 
-8.8800000000000008

>  <m_primary>  (94) 
energy

$$$$
94:0
     RDKit          3D

 47 48  0  0  0  0  0  0  0  0999 V2000
   -6.1120   17.0470  -31.2780 C   0  0  0  0  0  0  0  0  0  0  0  0
   -5.0690   16.5850  -32.2960 C   0  0  0  0  0  0  0  0  0  0  0  0
   -5.6970   16.3030  -33.6080 N   0  0  0  0  0  0  0  0  0  0  0  0
   -5.6230   14.8580  -33.9340 C   0  0  0  0  0  0  0  0  0  0  0  0
   -4.2760   14.5280  -34.5720 C   0  0  0  0  0  0  0  0  0  0  0  0
   -5.0680   17.1170  -34.6770 C   0  0  0  0  0  0  0  0  0  0  0  0
   -5.7690   18.4760  -34.8230 C   0  0  0  0  0  0  0  0  0  0  0  0
   -6.8470   18.6180  -33.8430 N   0  0  0  0  0  0  0  0  0  0  0  0
   -7.0580   19.7950  -33.0460 C   0  0  0  0  0  0  0  0  0  0  0  0
   -8.3540   20.1610  -32.5990 C   0  0  0  0  0  0  0  0  0  0  0  0
   -8.5490   21.3290  -31.8430 C   0  0  0  0  0  0  0  0  0  0  0  0
   -7.4340   22.1050  -31.5430 C   0  0  0  0  0  0  0  0  0  0  0  0
   -7.3340   23.2710  -30.8180 C   0  0  0  0  0  0  0  0  0  0  0  0
   -5.9810   23.5990  -30.8360 C   0  0  0  0  0  0  0  0  0  0  0  0
   -5.4360   24.8340  -30.2380 C   0  0  0  0  0  0  0  0  0  0  0  0
   -5.8660   25.2870  -28.9540 N   0  0  0  0  0  0  0  0  0  0  0  0
   -4.5370   25.4720  -30.8480 O   0  0  0  0  0  0  0  0  0  0  0  0
   -5.2680   22.6670  -31.5290 N   0  0  0  0  0  0  0  0  0  0  0  0
   -3.8420   22.5750  -31.6860 C   0  0  0  0  0  0  0  0  0  0  0  0
   -3.2360   21.6760  -32.7170 C   0  0  0  0  0  0  0  0  0  0  0  0
   -3.0870   23.2760  -30.9620 O   0  0  0  0  0  0  0  0  0  0  0  0
   -6.1740   21.7610  -31.9590 C   0  0  0  0  0  0  0  0  0  0  0  0
   -5.9480   20.5930  -32.6950 C   0  0  0  0  0  0  0  0  0  0  0  0
   -5.7308   16.8781  -30.2601 H   0  0  0  0  0  0  0  0  0  0  0  0
   -6.3141   18.1188  -31.4208 H   0  0  0  0  0  0  0  0  0  0  0  0
   -7.0416   16.4764  -31.4208 H   0  0  0  0  0  0  0  0  0  0  0  0
   -4.3136   17.3748  -32.4210 H   0  0  0  0  0  0  0  0  0  0  0  0
   -4.6020   15.6608  -31.9248 H   0  0  0  0  0  0  0  0  0  0  0  0
   -5.7411   14.2711  -33.0112 H   0  0  0  0  0  0  0  0  0  0  0  0
   -6.4259   14.6093  -34.6436 H   0  0  0  0  0  0  0  0  0  0  0  0
   -3.5315   14.3456  -33.7831 H   0  0  0  0  0  0  0  0  0  0  0  0
   -4.3767   13.6280  -35.1963 H   0  0  0  0  0  0  0  0  0  0  0  0
   -3.9492   15.3727  -35.1963 H   0  0  0  0  0  0  0  0  0  0  0  0
   -4.0101   17.2837  -34.4260 H   0  0  0  0  0  0  0  0  0  0  0  0
   -5.1588   16.5733  -35.6289 H   0  0  0  0  0  0  0  0  0  0  0  0
   -5.0333   19.2788  -34.6674 H   0  0  0  0  0  0  0  0  0  0  0  0
   -6.2020   18.5404  -35.8322 H   0  0  0  0  0  0  0  0  0  0  0  0
   -7.4090   17.7660  -33.6220 H   0  0  0  0  0  0  0  0  0  0  0  0
   -9.2153   19.5233  -32.8471 H   0  0  0  0  0  0  0  0  0  0  0  0
   -9.5522   21.6209  -31.4989 H   0  0  0  0  0  0  0  0  0  0  0  0
   -8.1488   23.8251  -30.3290 H   0  0  0  0  0  0  0  0  0  0  0  0
   -6.4800   24.6970  -28.3520 H   0  0  0  0  0  0  0  0  0  0  0  0
   -5.5110   26.1920  -28.5710 H   0  0  0  0  0  0  0  0  0  0  0  0
   -2.6880   20.8631  -32.2181 H   0  0  0  0  0  0  0  0  0  0  0  0
   -4.0320   21.2500  -33.3454 H   0  0  0  0  0  0  0  0  0  0  0  0
   -2.5425   22.2540  -33.3454 H   0  0  0  0  0  0  0  0  0  0  0  0
   -4.9295   20.3034  -32.9931 H   0  0  0  0  0  0  0  0  0  0  0  0
  1  2  1  0
  2  3  1  0
  3  4  1  0
  4  5  1  0
  3  6  1  0
  6  7  1  0
  7  8  1  0
  8  9  1  0
  9 10  2  0
 10 11  1  0
 11 12  2  0
 12 13  1  0
 13 14  2  0
 14 15  1  0
 15 16  1  0
 15 17  2  0
 14 18  1  0
 18 19  1  0
 19 20  1  0
 19 21  2  0
 18 22  1  0
 22 23  2  0
 23  9  1  0
 22 12  1  0
  1 24  1  0
  1 25  1  0
  1 26  1  0
  2 27  1  0
  2 28  1  0
  4 29  1  0
  4 30  1  0
  5 31  1  0
  5 32  1  0
  5 33  1  0
  6 34  1  0
  6 35  1  0
  7 36  1  0
  7 37  1  0
  8 38  1  0
 10 39  1  0
 11 40  1  0
 13 41  1  0
 16 42  1  0
 16 43  1  0
 20 44  1  0
 20 45  1  0
 20 46  1  0
 23 47  1  0
M  END
>  <UniqueID>  (95) 
95

>  <SMILES>  (95) 
CCN(CC)CCNc1ccc2cc(C(N)=O)n(C(C)=O)c2c1

>  <Energy>  (95) 
81.50621463752941

>  <Genealogy>  (95) 
CCN(CC)CCNc1ccc2cc(C(N)=O)n(C(C)=O)c2c1 (3D coordinates assigned)
CCN(CC)CCNc1ccc2cc(C(N)=O)n(C(C)=O)c2c1 (optimized conformer: 81.50621463752941 kcal/mol)

>  <smiles>  (95) 
CCN(CC)CCNc1ccc2cc(C(N)=O)n(C(C)=O)c2c1

>  <score_type>  (95) 
oracle

>  <origin>  (95) 
adg

>  <m_score__min__energy>  (95) 
-8.3499999999999996

>  <m_primary>  (95) 
energy

$$$$
95:0
     RDKit          3D

 28 29  0  0  0  0  0  0  0  0999 V2000
   -3.2270   21.8510  -32.3820 C   0  0  0  0  0  0  0  0  0  0  0  0
   -3.9270   22.6020  -31.2930 C   0  0  0  0  0  0  0  0  0  0  0  0
   -3.2520   23.0780  -30.3430 O   0  0  0  0  0  0  0  0  0  0  0  0
   -5.3580   22.7420  -31.2940 N   0  0  0  0  0  0  0  0  0  0  0  0
   -6.0940   23.8430  -30.9760 C   0  0  0  0  0  0  0  0  0  0  0  0
   -5.5560   25.1000  -30.4090 C   0  0  0  0  0  0  0  0  0  0  0  0
   -4.2230   25.5220  -30.7010 N   0  0  0  0  0  0  0  0  0  0  0  0
   -6.2830   25.8250  -29.6800 O   0  0  0  0  0  0  0  0  0  0  0  0
   -7.4530   23.5920  -31.1650 C   0  0  0  0  0  0  0  0  0  0  0  0
   -7.5260   22.2900  -31.6060 C   0  0  0  0  0  0  0  0  0  0  0  0
   -8.6310   21.5210  -31.9580 C   0  0  0  0  0  0  0  0  0  0  0  0
   -8.4060   20.2060  -32.4000 C   0  0  0  0  0  0  0  0  0  0  0  0
   -7.0910   19.6850  -32.4720 C   0  0  0  0  0  0  0  0  0  0  0  0
   -6.8610   18.2970  -32.9910 C   0  0  0  0  0  0  0  0  0  0  0  0
   -5.9910   20.4980  -32.1200 C   0  0  0  0  0  0  0  0  0  0  0  0
   -6.2470   21.7990  -31.6720 C   0  0  0  0  0  0  0  0  0  0  0  0
   -2.5410   21.1150  -31.9374 H   0  0  0  0  0  0  0  0  0  0  0  0
   -3.9698   21.3306  -33.0045 H   0  0  0  0  0  0  0  0  0  0  0  0
   -2.6558   22.5554  -33.0045 H   0  0  0  0  0  0  0  0  0  0  0  0
   -3.8670   26.4290  -30.3250 H   0  0  0  0  0  0  0  0  0  0  0  0
   -3.5710   24.9220  -31.2530 H   0  0  0  0  0  0  0  0  0  0  0  0
   -8.2890   24.2870  -30.9973 H   0  0  0  0  0  0  0  0  0  0  0  0
   -9.6500   21.9300  -31.8923 H   0  0  0  0  0  0  0  0  0  0  0  0
   -9.2588   19.5758  -32.6926 H   0  0  0  0  0  0  0  0  0  0  0  0
   -6.7461   17.6035  -32.1449 H   0  0  0  0  0  0  0  0  0  0  0  0
   -7.7202   17.9878  -33.6044 H   0  0  0  0  0  0  0  0  0  0  0  0
   -5.9480   18.2815  -33.6044 H   0  0  0  0  0  0  0  0  0  0  0  0
   -4.9612   20.1190  -32.1959 H   0  0  0  0  0  0  0  0  0  0  0  0
  1  2  1  0
  2  3  2  0
  2  4  1  0
  4  5  1  0
  5  6  1  0
  6  7  1  0
  6  8  2  0
  5  9  2  0
  9 10  1  0
 10 11  2  0
 11 12  1  0
 12 13  2  0
 13 14  1  0
 13 15  1  0
 15 16  2  0
 16  4  1  0
 16 10  1  0
  1 17  1  0
  1 18  1  0
  1 19  1  0
  7 20  1  0
  7 21  1  0
  9 22  1  0
 11 23  1  0
 12 24  1  0
 14 25  1  0
 14 26  1  0
 14 27  1  0
 15 28  1  0
M  END
>  <UniqueID>  (96) 
96

>  <SMILES>  (96) 
CC(=O)n1c(C(N)=O)cc2ccc(C)cc21

>  <Energy>  (96) 
66.05083411717328

>  <Genealogy>  (96) 
CC(=O)n1c(C(N)=O)cc2ccc(C)cc21 (3D coordinates assigned)
CC(=O)n1c(C(N)=O)cc2ccc(C)cc21 (optimized conformer: 66.05083411717328 kcal/mol)

>  <smiles>  (96) 
CC(=O)n1c(C(N)=O)cc2ccc(C)cc21

>  <score_type>  (96) 
oracle

>  <origin>  (96) 
adg

>  <m_score__min__energy>  (96) 
-8.0099999999999998

>  <m_primary>  (96) 
energy

$$$$
