0:0
     RDKit          3D

 56 58  0  0  0  0  0  0  0  0999 V2000
   -6.5600   23.8270  -32.3280 C   0  0  0  0  0  0  0  0  0  0  0  0
   -6.0550   24.0320  -30.8880 C   0  0  0  0  0  0  0  0  0  0  0  0
   -6.2060   22.7120  -30.1160 C   0  0  0  0  0  0  0  0  0  0  0  0
   -6.8760   25.1220  -30.1720 C   0  0  0  0  0  0  0  0  0  0  0  0
   -4.6590   24.3650  -30.8830 O   0  0  0  0  0  0  0  0  0  0  0  0
   -3.7470   24.1130  -29.8470 C   0  0  0  0  0  0  0  0  0  0  0  0
   -3.9540   24.5480  -28.6820 O   0  0  0  0  0  0  0  0  0  0  0  0
   -2.5520   23.3670  -30.1240 N   0  0  0  0  0  0  0  0  0  0  0  0
   -1.2980   23.5970  -29.6420 C   0  0  0  0  0  0  0  0  0  0  0  0
   -0.8760   24.7680  -28.8470 C   0  0  0  0  0  0  0  0  0  0  0  0
   -1.5870   25.9990  -28.9630 N   0  0  0  0  0  0  0  0  0  0  0  0
    0.0850   24.6870  -28.0370 O   0  0  0  0  0  0  0  0  0  0  0  0
   -0.4210   22.6030  -30.0700 C   0  0  0  0  0  0  0  0  0  0  0  0
   -1.1810   21.7530  -30.8410 C   0  0  0  0  0  0  0  0  0  0  0  0
   -0.8200   20.5860  -31.5060 C   0  0  0  0  0  0  0  0  0  0  0  0
   -1.8200   19.8900  -32.2050 C   0  0  0  0  0  0  0  0  0  0  0  0
   -3.1590   20.3620  -32.2200 C   0  0  0  0  0  0  0  0  0  0  0  0
   -4.2100   19.6090  -32.9500 C   0  0  0  0  0  0  0  0  0  0  0  0
   -5.4810   20.1750  -33.1530 C   0  0  0  0  0  0  0  0  0  0  0  0
   -6.4710   19.4590  -33.8250 C   0  0  0  0  0  0  0  0  0  0  0  0
   -6.2090   18.1730  -34.3000 C   0  0  0  0  0  0  0  0  0  0  0  0
   -4.9530   17.5850  -34.1100 C   0  0  0  0  0  0  0  0  0  0  0  0
   -4.7600   16.2840  -34.6050 O   0  0  0  0  0  0  0  0  0  0  0  0
   -5.4250   15.0940  -34.1690 C   0  0  0  0  0  0  0  0  0  0  0  0
   -4.8970   14.6040  -32.8100 C   0  0  2  0  0  0  0  0  0  0  0  0
   -5.0700   15.6110  -31.8480 O   0  0  0  0  0  0  0  0  0  0  0  0
   -3.4290   14.1520  -32.8580 C   0  0  0  0  0  0  0  0  0  0  0  0
   -2.5700   15.2600  -32.8860 O   0  0  0  0  0  0  0  0  0  0  0  0
   -3.9490   18.3160  -33.4420 C   0  0  0  0  0  0  0  0  0  0  0  0
   -3.4840   21.5530  -31.5290 C   0  0  0  0  0  0  0  0  0  0  0  0
   -2.4630   22.2350  -30.8570 C   0  0  0  0  0  0  0  0  0  0  0  0
   -7.5790   23.4134  -32.3038 H   0  0  0  0  0  0  0  0  0  0  0  0
   -6.5687   24.7928  -32.8545 H   0  0  0  0  0  0  0  0  0  0  0  0
   -5.8931   23.1284  -32.8545 H   0  0  0  0  0  0  0  0  0  0  0  0
   -6.1828   22.9147  -29.0351 H   0  0  0  0  0  0  0  0  0  0  0  0
   -7.1640   22.2403  -30.3801 H   0  0  0  0  0  0  0  0  0  0  0  0
   -5.3793   22.0361  -30.3801 H   0  0  0  0  0  0  0  0  0  0  0  0
   -6.7814   24.9965  -29.0833 H   0  0  0  0  0  0  0  0  0  0  0  0
   -6.4989   26.1142  -30.4608 H   0  0  0  0  0  0  0  0  0  0  0  0
   -7.9337   25.0334  -30.4608 H   0  0  0  0  0  0  0  0  0  0  0  0
   -2.6320   26.0170  -28.9700 H   0  0  0  0  0  0  0  0  0  0  0  0
    0.6513   22.5159  -29.8405 H   0  0  0  0  0  0  0  0  0  0  0  0
    0.2169   20.2193  -31.4852 H   0  0  0  0  0  0  0  0  0  0  0  0
   -1.5627   18.9682  -32.7473 H   0  0  0  0  0  0  0  0  0  0  0  0
   -5.6954   21.1874  -32.7799 H   0  0  0  0  0  0  0  0  0  0  0  0
   -7.4623   19.9094  -33.9814 H   0  0  0  0  0  0  0  0  0  0  0  0
   -6.9969   17.6164  -34.8286 H   0  0  0  0  0  0  0  0  0  0  0  0
   -6.5014   15.3017  -34.0779 H   0  0  0  0  0  0  0  0  0  0  0  0
   -5.2334   14.3060  -34.9122 H   0  0  0  0  0  0  0  0  0  0  0  0
   -5.4828   13.7145  -32.5351 H   0  0  0  0  0  0  0  0  0  0  0  0
   -4.3180   16.2500  -31.9620 H   0  0  0  0  0  0  0  0  0  0  0  0
   -3.2083   13.5464  -31.9666 H   0  0  0  0  0  0  0  0  0  0  0  0
   -3.2712   13.5590  -33.7709 H   0  0  0  0  0  0  0  0  0  0  0  0
   -3.1430   16.0470  -33.0790 H   0  0  0  0  0  0  0  0  0  0  0  0
   -2.9523   17.8716  -33.3040 H   0  0  0  0  0  0  0  0  0  0  0  0
   -4.5157   21.9344  -31.5201 H   0  0  0  0  0  0  0  0  0  0  0  0
  1  2  1  0
  2  3  1  0
  2  4  1  0
  2  5  1  0
  5  6  1  0
  6  7  2  0
  6  8  1  0
  8  9  1  0
  9 10  1  0
 10 11  1  0
 10 12  2  0
  9 13  2  0
 13 14  1  0
 14 15  2  0
 15 16  1  0
 16 17  2  0
 17 18  1  0
 18 19  2  0
 19 20  1  0
 20 21  2  0
 21 22  1  0
 22 23  1  0
 23 24  1  0
 24 25  1  0
 25 26  1  0
 25 27  1  0
 27 28  1  0
 22 29  2  0
 17 30  1  0
 30 31  2  0
 31  8  1  0
 31 14  1  0
 29 18  1  0
  1 32  1  0
  1 33  1  0
  1 34  1  0
  3 35  1  0
  3 36  1  0
  3 37  1  0
  4 38  1  0
  4 39  1  0
  4 40  1  0
 11 41  1  0
 13 42  1  0
 15 43  1  0
 16 44  1  0
 19 45  1  0
 20 46  1  0
 21 47  1  0
 24 48  1  0
 24 49  1  0
 25 50  1  1
 26 51  1  0
 27 52  1  0
 27 53  1  0
 28 54  1  0
 29 55  1  0
 30 56  1  0
M  CHG  1  11  -1
M  END
>  <UniqueID>  (1) 
1

>  <SMILES>  (1) 
CC(C)(C)OC(=O)n1c(C([NH-])=O)cc2ccc(-c3cccc(OC[C@H](O)CO)c3)cc21

>  <Energy>  (1) 
95.99868871503524

>  <Genealogy>  (1) 
CC(C)(C)OC(=O)n1c(C([NH-])=O)cc2ccc(-c3cccc(OCC(O)CO)c3)cc21 (protonated)
CC(C)(C)OC(=O)n1c(C([NH-])=O)cc2ccc(-c3cccc(OC[C@H](O)CO)c3)cc21 (chirality)
CC(C)(C)OC(=O)n1c(C([NH-])=O)cc2ccc(-c3cccc(OC[C@H](O)CO)c3)cc21 (3D coordinates assigned)
CC(C)(C)OC(=O)n1c(C([NH-])=O)cc2ccc(-c3cccc(OC[C@H](O)CO)c3)cc21 (optimized conformer: 95.99868871503524 kcal/mol)

>  <smiles>  (1) 
CC(C)(C)OC(=O)n1c(C(N)=O)cc2ccc(-c3cccc(OCC(O)CO)c3)cc21

>  <score_type>  (1) 
oracle

>  <origin>  (1) 
adg

>  <m_score__min__energy>  (1) 
-11.9

>  <m_primary>  (1) 
energy

$$$$
1:0
     RDKit          3D

 36 37  0  0  0  0  0  0  0  0999 V2000
   -7.5740   18.2220  -31.8330 C   0  0  0  0  0  0  0  0  0  0  0  0
   -8.1380   19.4150  -32.6030 C   0  0  0  0  0  0  0  0  0  0  0  0
   -7.1020   20.5330  -32.8160 C   0  0  0  0  0  0  0  0  0  0  0  0
   -5.7810   20.0560  -33.4440 C   0  0  0  0  0  0  0  0  0  0  0  0
   -4.5790   20.5240  -32.6650 C   0  0  0  0  0  0  0  0  0  0  0  0
   -3.3970   19.7420  -32.6470 C   0  0  0  0  0  0  0  0  0  0  0  0
   -2.2610   20.1750  -31.9420 C   0  0  0  0  0  0  0  0  0  0  0  0
   -2.3340   21.3940  -31.2750 C   0  0  0  0  0  0  0  0  0  0  0  0
   -1.3920   22.0470  -30.5120 C   0  0  0  0  0  0  0  0  0  0  0  0
   -2.0060   23.2270  -30.0950 C   0  0  0  0  0  0  0  0  0  0  0  0
   -1.3160   24.2770  -29.3180 C   0  0  0  0  0  0  0  0  0  0  0  0
   -1.9830   25.4870  -28.9680 N   0  0  0  0  0  0  0  0  0  0  0  0
   -0.1090   24.1220  -28.9940 O   0  0  0  0  0  0  0  0  0  0  0  0
   -3.2810   23.2940  -30.5740 N   0  0  0  0  0  0  0  0  0  0  0  0
   -4.2720   24.3020  -30.3220 C   0  0  0  0  0  0  0  0  0  0  0  0
   -5.4830   23.9970  -29.4970 C   0  0  0  0  0  0  0  0  0  0  0  0
   -4.1640   25.4350  -30.8610 O   0  0  0  0  0  0  0  0  0  0  0  0
   -3.4640   22.1700  -31.2980 C   0  0  0  0  0  0  0  0  0  0  0  0
   -4.6140   21.7580  -31.9780 C   0  0  0  0  0  0  0  0  0  0  0  0
   -7.6620   18.4082  -30.7525 H   0  0  0  0  0  0  0  0  0  0  0  0
   -8.1389   17.3156  -32.0961 H   0  0  0  0  0  0  0  0  0  0  0  0
   -6.5150   18.0833  -32.0961 H   0  0  0  0  0  0  0  0  0  0  0  0
   -8.4851   19.0658  -33.5867 H   0  0  0  0  0  0  0  0  0  0  0  0
   -8.9600   19.8356  -32.0051 H   0  0  0  0  0  0  0  0  0  0  0  0
   -7.5445   21.2921  -33.4778 H   0  0  0  0  0  0  0  0  0  0  0  0
   -6.8542   20.9289  -31.8201 H   0  0  0  0  0  0  0  0  0  0  0  0
   -5.7788   18.9564  -33.4721 H   0  0  0  0  0  0  0  0  0  0  0  0
   -5.7147   20.4823  -34.4559 H   0  0  0  0  0  0  0  0  0  0  0  0
   -3.3685   18.7861  -33.1906 H   0  0  0  0  0  0  0  0  0  0  0  0
   -1.3431   19.5694  -31.9182 H   0  0  0  0  0  0  0  0  0  0  0  0
   -0.3711   21.7091  -30.2805 H   0  0  0  0  0  0  0  0  0  0  0  0
   -2.9570   25.6780  -29.2930 H   0  0  0  0  0  0  0  0  0  0  0  0
   -5.2253   24.0619  -28.4296 H   0  0  0  0  0  0  0  0  0  0  0  0
   -6.2762   24.7234  -29.7275 H   0  0  0  0  0  0  0  0  0  0  0  0
   -5.8375   22.9815  -29.7275 H   0  0  0  0  0  0  0  0  0  0  0  0
   -5.5223   22.3784  -31.9781 H   0  0  0  0  0  0  0  0  0  0  0  0
  1  2  1  0
  2  3  1  0
  3  4  1  0
  4  5  1  0
  5  6  2  0
  6  7  1  0
  7  8  2  0
  8  9  1  0
  9 10  2  0
 10 11  1  0
 11 12  1  0
 11 13  2  0
 10 14  1  0
 14 15  1  0
 15 16  1  0
 15 17  2  0
 14 18  1  0
 18 19  2  0
 19  5  1  0
 18  8  1  0
  1 20  1  0
  1 21  1  0
  1 22  1  0
  2 23  1  0
  2 24  1  0
  3 25  1  0
  3 26  1  0
  4 27  1  0
  4 28  1  0
  6 29  1  0
  7 30  1  0
  9 31  1  0
 12 32  1  0
 16 33  1  0
 16 34  1  0
 16 35  1  0
 19 36  1  0
M  CHG  1  12  -1
M  END
>  <UniqueID>  (2) 
2

>  <SMILES>  (2) 
CCCCc1ccc2cc(C([NH-])=O)n(C(C)=O)c2c1

>  <Energy>  (2) 
68.66757774920022

>  <Genealogy>  (2) 
CCCCc1ccc2cc(C([NH-])=O)n(C(C)=O)c2c1 (protonated)
CCCCc1ccc2cc(C([NH-])=O)n(C(C)=O)c2c1 (3D coordinates assigned)
CCCCc1ccc2cc(C([NH-])=O)n(C(C)=O)c2c1 (optimized conformer: 68.66757774920022 kcal/mol)

>  <smiles>  (2) 
CCCCc1ccc2cc(C(N)=O)n(C(C)=O)c2c1

>  <score_type>  (2) 
oracle

>  <origin>  (2) 
adg

>  <m_score__min__energy>  (2) 
-10.51

>  <m_primary>  (2) 
energy

$$$$
2:0
     RDKit          3D

 44 46  0  0  0  0  0  0  0  0999 V2000
   -6.8340   14.9260  -34.2150 C   0  0  0  0  0  0  0  0  0  0  0  0
   -6.4710   16.3380  -34.2030 N   0  0  0  0  0  0  0  0  0  0  0  0
   -7.0040   17.2800  -33.4060 C   0  0  0  0  0  0  0  0  0  0  0  0
   -6.3430   18.4720  -33.6450 C   0  0  0  0  0  0  0  0  0  0  0  0
   -6.5870   19.7910  -33.0030 C   0  0  0  0  0  0  0  0  0  0  0  0
   -7.9120   20.2590  -32.7950 C   0  0  0  0  0  0  0  0  0  0  0  0
   -8.1510   21.5090  -32.1960 C   0  0  0  0  0  0  0  0  0  0  0  0
   -7.0530   22.2670  -31.8090 C   0  0  0  0  0  0  0  0  0  0  0  0
   -6.9980   23.5150  -31.2310 C   0  0  0  0  0  0  0  0  0  0  0  0
   -5.6410   23.7890  -31.0700 C   0  0  0  0  0  0  0  0  0  0  0  0
   -5.1300   25.0030  -30.3990 C   0  0  0  0  0  0  0  0  0  0  0  0
   -3.9260   25.6300  -30.8340 N   0  0  0  0  0  0  0  0  0  0  0  0
   -5.7400   25.4650  -29.3990 O   0  0  0  0  0  0  0  0  0  0  0  0
   -4.8880   22.7530  -31.5380 N   0  0  0  0  0  0  0  0  0  0  0  0
   -3.4580   22.6710  -31.6300 C   0  0  0  0  0  0  0  0  0  0  0  0
   -2.7440   23.1750  -30.7220 O   0  0  0  0  0  0  0  0  0  0  0  0
   -2.8760   22.0540  -32.7470 O   0  0  0  0  0  0  0  0  0  0  0  0
   -2.1040   20.8440  -32.7470 C   0  0  0  0  0  0  0  0  0  0  0  0
   -2.5930   19.8890  -33.8520 C   0  0  0  0  0  0  0  0  0  0  0  0
   -2.1690   20.1610  -31.3680 C   0  0  0  0  0  0  0  0  0  0  0  0
   -0.6480   21.2380  -33.0370 C   0  0  0  0  0  0  0  0  0  0  0  0
   -5.7670   21.8300  -31.9830 C   0  0  0  0  0  0  0  0  0  0  0  0
   -5.4980   20.6000  -32.5940 C   0  0  0  0  0  0  0  0  0  0  0  0
   -5.3970   18.1590  -34.6130 C   0  0  0  0  0  0  0  0  0  0  0  0
   -5.4920   16.8530  -34.9280 N   0  0  0  0  0  0  0  0  0  0  0  0
   -6.9274   14.5626  -33.1810 H   0  0  0  0  0  0  0  0  0  0  0  0
   -7.7941   14.7986  -34.7365 H   0  0  0  0  0  0  0  0  0  0  0  0
   -6.0544   14.3514  -34.7365 H   0  0  0  0  0  0  0  0  0  0  0  0
   -7.8237   17.1294  -32.6881 H   0  0  0  0  0  0  0  0  0  0  0  0
   -8.7628   19.6353  -33.1067 H   0  0  0  0  0  0  0  0  0  0  0  0
   -9.1762   21.8753  -32.0387 H   0  0  0  0  0  0  0  0  0  0  0  0
   -7.8455   24.1595  -30.9547 H   0  0  0  0  0  0  0  0  0  0  0  0
   -2.9960   25.2970  -30.4970 H   0  0  0  0  0  0  0  0  0  0  0  0
   -3.0485   18.9994  -33.3926 H   0  0  0  0  0  0  0  0  0  0  0  0
   -3.3393   20.4021  -34.4763 H   0  0  0  0  0  0  0  0  0  0  0  0
   -1.7404   19.5834  -34.4763 H   0  0  0  0  0  0  0  0  0  0  0  0
   -2.0965   20.9228  -30.5778 H   0  0  0  0  0  0  0  0  0  0  0  0
   -3.1226   19.6213  -31.2707 H   0  0  0  0  0  0  0  0  0  0  0  0
   -1.3344   19.4511  -31.2707 H   0  0  0  0  0  0  0  0  0  0  0  0
   -0.1114   21.3832  -32.0878 H   0  0  0  0  0  0  0  0  0  0  0  0
   -0.1603   20.4395  -33.6154 H   0  0  0  0  0  0  0  0  0  0  0  0
   -0.6295   22.1734  -33.6154 H   0  0  0  0  0  0  0  0  0  0  0  0
   -4.4616   20.2678  -32.7536 H   0  0  0  0  0  0  0  0  0  0  0  0
   -4.6811   18.8682  -35.0540 H   0  0  0  0  0  0  0  0  0  0  0  0
  1  2  1  0
  2  3  1  0
  3  4  2  0
  4  5  1  0
  5  6  2  0
  6  7  1  0
  7  8  2  0
  8  9  1  0
  9 10  2  0
 10 11  1  0
 11 12  1  0
 11 13  2  0
 10 14  1  0
 14 15  1  0
 15 16  2  0
 15 17  1  0
 17 18  1  0
 18 19  1  0
 18 20  1  0
 18 21  1  0
 14 22  1  0
 22 23  2  0
  4 24  1  0
 24 25  2  0
 25  2  1  0
 23  5  1  0
 22  8  1  0
  1 26  1  0
  1 27  1  0
  1 28  1  0
  3 29  1  0
  6 30  1  0
  7 31  1  0
  9 32  1  0
 12 33  1  0
 19 34  1  0
 19 35  1  0
 19 36  1  0
 20 37  1  0
 20 38  1  0
 20 39  1  0
 21 40  1  0
 21 41  1  0
 21 42  1  0
 23 43  1  0
 24 44  1  0
M  CHG  1  12  -1
M  END
>  <UniqueID>  (3) 
3

>  <SMILES>  (3) 
Cn1cc(-c2ccc3cc(C([NH-])=O)n(C(=O)OC(C)(C)C)c3c2)cn1

>  <Energy>  (3) 
110.87058645323968

>  <Genealogy>  (3) 
Cn1cc(-c2ccc3cc(C([NH-])=O)n(C(=O)OC(C)(C)C)c3c2)cn1 (protonated)
Cn1cc(-c2ccc3cc(C([NH-])=O)n(C(=O)OC(C)(C)C)c3c2)cn1 (3D coordinates assigned)
Cn1cc(-c2ccc3cc(C([NH-])=O)n(C(=O)OC(C)(C)C)c3c2)cn1 (optimized conformer: 110.87058645323968 kcal/mol)

>  <smiles>  (3) 
Cn1cc(-c2ccc3cc(C(N)=O)n(C(=O)OC(C)(C)C)c3c2)cn1

>  <score_type>  (3) 
oracle

>  <origin>  (3) 
adg

>  <m_score__min__energy>  (3) 
-10.75

>  <m_primary>  (3) 
energy

$$$$
3:0
     RDKit          3D

 53 56  0  0  0  0  0  0  0  0999 V2000
   -3.1120   15.3550  -35.9820 N   0  0  0  0  0  0  0  0  0  0  0  0
   -1.9180   16.0710  -35.6560 C   0  0  0  0  0  0  0  0  0  0  0  0
   -0.8070   15.6140  -36.0320 O   0  0  0  0  0  0  0  0  0  0  0  0
   -1.9770   17.3130  -34.8550 C   0  0  0  0  0  0  0  0  0  0  0  0
   -0.8520   18.0160  -34.4280 C   0  0  0  0  0  0  0  0  0  0  0  0
   -1.3410   19.1390  -33.8020 C   0  0  0  0  0  0  0  0  0  0  0  0
   -0.6630   20.1820  -33.1750 C   0  0  0  0  0  0  0  0  0  0  0  0
   -1.4260   21.1980  -32.5770 C   0  0  0  0  0  0  0  0  0  0  0  0
   -2.8390   21.1490  -32.6140 C   0  0  0  0  0  0  0  0  0  0  0  0
   -3.6090   22.1830  -31.9780 C   0  0  0  0  0  0  0  0  0  0  0  0
   -4.2530   23.0480  -31.4390 C   0  0  0  0  0  0  0  0  0  0  0  0
   -5.0520   24.1080  -30.7830 C   0  0  0  0  0  0  0  0  0  0  0  0
   -4.2200   25.2110  -30.5180 O   0  0  0  0  0  0  0  0  0  0  0  0
   -6.1770   24.5570  -31.7330 C   0  0  0  0  0  0  0  0  0  0  0  0
   -7.2520   23.4590  -31.9260 C   0  0  0  0  0  0  0  0  0  0  0  0
   -7.1110   22.3740  -31.0230 O   0  0  0  0  0  0  0  0  0  0  0  0
   -7.0150   22.8560  -29.6970 C   0  0  0  0  0  0  0  0  0  0  0  0
   -5.6730   23.5770  -29.4640 C   0  0  0  0  0  0  0  0  0  0  0  0
   -3.4960   20.0820  -33.2590 C   0  0  0  0  0  0  0  0  0  0  0  0
   -2.7110   19.0900  -33.8620 C   0  0  0  0  0  0  0  0  0  0  0  0
   -3.1160   17.9740  -34.5060 N   0  0  0  0  0  0  0  0  0  0  0  0
   -4.4720   17.5350  -34.6940 C   0  0  0  0  0  0  0  0  0  0  0  0
   -5.0270   17.6740  -35.8180 O   0  0  0  0  0  0  0  0  0  0  0  0
   -5.1780   16.9790  -33.6200 O   0  0  0  0  0  0  0  0  0  0  0  0
   -5.3470   17.6370  -32.3660 C   0  0  0  0  0  0  0  0  0  0  0  0
   -6.6310   18.4210  -32.3540 C   0  0  0  0  0  0  0  0  0  0  0  0
   -7.7490   17.9250  -31.6640 C   0  0  0  0  0  0  0  0  0  0  0  0
   -8.9550   18.6330  -31.6740 C   0  0  0  0  0  0  0  0  0  0  0  0
   -9.0530   19.8390  -32.3740 C   0  0  0  0  0  0  0  0  0  0  0  0
   -7.9450   20.3380  -33.0630 C   0  0  0  0  0  0  0  0  0  0  0  0
   -6.7370   19.6330  -33.0560 C   0  0  0  0  0  0  0  0  0  0  0  0
   -4.0530   15.7300  -35.7310 H   0  0  0  0  0  0  0  0  0  0  0  0
   -3.0550   14.4620  -36.5190 H   0  0  0  0  0  0  0  0  0  0  0  0
    0.2024   17.7331  -34.5628 H   0  0  0  0  0  0  0  0  0  0  0  0
    0.4364   20.2089  -33.1491 H   0  0  0  0  0  0  0  0  0  0  0  0
   -0.9214   22.0375  -32.0765 H   0  0  0  0  0  0  0  0  0  0  0  0
   -4.5820   25.6820  -29.7200 H   0  0  0  0  0  0  0  0  0  0  0  0
   -6.6575   25.4536  -31.3144 H   0  0  0  0  0  0  0  0  0  0  0  0
   -5.7270   24.7657  -32.7148 H   0  0  0  0  0  0  0  0  0  0  0  0
   -8.2438   23.9108  -31.7774 H   0  0  0  0  0  0  0  0  0  0  0  0
   -7.1293   23.0565  -32.9423 H   0  0  0  0  0  0  0  0  0  0  0  0
   -7.8386   23.5610  -29.5106 H   0  0  0  0  0  0  0  0  0  0  0  0
   -7.0754   21.9998  -29.0090 H   0  0  0  0  0  0  0  0  0  0  0  0
   -5.8410   24.4262  -28.7853 H   0  0  0  0  0  0  0  0  0  0  0  0
   -4.9710   22.8490  -29.0312 H   0  0  0  0  0  0  0  0  0  0  0  0
   -4.5943   20.0293  -33.2883 H   0  0  0  0  0  0  0  0  0  0  0  0
   -5.3736   16.8856  -31.5631 H   0  0  0  0  0  0  0  0  0  0  0  0
   -4.5055   18.3279  -32.2093 H   0  0  0  0  0  0  0  0  0  0  0  0
   -7.6758   16.9756  -31.1133 H   0  0  0  0  0  0  0  0  0  0  0  0
   -9.8272   18.2406  -31.1306 H   0  0  0  0  0  0  0  0  0  0  0  0
  -10.0022   20.3948  -32.3823 H   0  0  0  0  0  0  0  0  0  0  0  0
   -8.0227   21.2878  -33.6124 H   0  0  0  0  0  0  0  0  0  0  0  0
   -5.8677   20.0287  -33.6017 H   0  0  0  0  0  0  0  0  0  0  0  0
  1  2  1  0
  2  3  2  0
  2  4  1  0
  4  5  2  0
  5  6  1  0
  6  7  2  0
  7  8  1  0
  8  9  2  0
  9 10  1  0
 10 11  3  0
 11 12  1  0
 12 13  1  0
 12 14  1  0
 14 15  1  0
 15 16  1  0
 16 17  1  0
 17 18  1  0
  9 19  1  0
 19 20  2  0
 20 21  1  0
 21 22  1  0
 22 23  2  0
 22 24  1  0
 24 25  1  0
 25 26  1  0
 26 27  2  0
 27 28  1  0
 28 29  2  0
 29 30  1  0
 30 31  2  0
 21  4  1  0
 31 26  1  0
 20  6  1  0
 18 12  1  0
  1 32  1  0
  1 33  1  0
  5 34  1  0
  7 35  1  0
  8 36  1  0
 13 37  1  0
 14 38  1  0
 14 39  1  0
 15 40  1  0
 15 41  1  0
 17 42  1  0
 17 43  1  0
 18 44  1  0
 18 45  1  0
 19 46  1  0
 25 47  1  0
 25 48  1  0
 27 49  1  0
 28 50  1  0
 29 51  1  0
 30 52  1  0
 31 53  1  0
M  END
>  <UniqueID>  (4) 
4

>  <SMILES>  (4) 
NC(=O)c1cc2ccc(C#CC3(O)CCOCC3)cc2n1C(=O)OCc1ccccc1

>  <Energy>  (4) 
97.19964720534117

>  <Genealogy>  (4) 
NC(=O)c1cc2ccc(C#CC3(O)CCOCC3)cc2n1C(=O)OCc1ccccc1 (3D coordinates assigned)
NC(=O)c1cc2ccc(C#CC3(O)CCOCC3)cc2n1C(=O)OCc1ccccc1 (nonaromatic ring conformer: 97.19964720534117 kcal/mol)

>  <smiles>  (4) 
NC(=O)c1cc2ccc(C#CC3(O)CCOCC3)cc2n1C(=O)OCc1ccccc1

>  <score_type>  (4) 
oracle

>  <origin>  (4) 
adg

>  <m_score__min__energy>  (4) 
-10.5

>  <m_primary>  (4) 
energy

$$$$
4:0
     RDKit          3D

 46 48  0  0  0  0  0  0  0  0999 V2000
   -4.6290   13.5190  -31.4320 C   0  0  0  0  0  0  0  0  0  0  0  0
   -4.2530   13.9730  -32.6310 C   0  0  0  0  0  0  0  0  0  0  0  0
   -4.8350   13.4150  -33.8930 C   0  0  0  0  0  0  0  0  0  0  0  0
   -5.3840   14.4730  -34.6760 O   0  0  0  0  0  0  0  0  0  0  0  0
   -5.6060   15.7750  -34.2040 C   0  0  0  0  0  0  0  0  0  0  0  0
   -4.6360   16.7880  -34.3000 C   0  0  0  0  0  0  0  0  0  0  0  0
   -4.9060   18.0720  -33.8150 C   0  0  0  0  0  0  0  0  0  0  0  0
   -6.1480   18.3660  -33.2250 C   0  0  0  0  0  0  0  0  0  0  0  0
   -6.4340   19.7290  -32.7090 C   0  0  0  0  0  0  0  0  0  0  0  0
   -7.7740   20.1880  -32.5990 C   0  0  0  0  0  0  0  0  0  0  0  0
   -8.0570   21.4690  -32.0990 C   0  0  0  0  0  0  0  0  0  0  0  0
   -6.9860   22.2760  -31.7260 C   0  0  0  0  0  0  0  0  0  0  0  0
   -6.9780   23.5430  -31.1890 C   0  0  0  0  0  0  0  0  0  0  0  0
   -5.6330   23.8550  -31.0010 C   0  0  0  0  0  0  0  0  0  0  0  0
   -5.1640   25.1690  -30.5140 C   0  0  0  0  0  0  0  0  0  0  0  0
   -3.8760   25.6640  -30.8690 N   0  0  0  0  0  0  0  0  0  0  0  0
   -5.9290   25.8850  -29.8140 O   0  0  0  0  0  0  0  0  0  0  0  0
   -4.8420   22.8190  -31.3980 N   0  0  0  0  0  0  0  0  0  0  0  0
   -3.4160   22.7080  -31.2750 C   0  0  0  0  0  0  0  0  0  0  0  0
   -2.7430   22.1940  -32.2100 O   0  0  0  0  0  0  0  0  0  0  0  0
   -2.7840   23.1530  -30.1080 O   0  0  0  0  0  0  0  0  0  0  0  0
   -2.9440   22.5250  -28.8390 C   0  0  0  0  0  0  0  0  0  0  0  0
   -3.8560   23.3530  -27.9400 C   0  0  0  0  0  0  0  0  0  0  0  0
   -5.6860   21.8600  -31.8420 C   0  0  0  0  0  0  0  0  0  0  0  0
   -5.3740   20.5820  -32.3170 C   0  0  0  0  0  0  0  0  0  0  0  0
   -7.1140   17.3490  -33.1320 C   0  0  0  0  0  0  0  0  0  0  0  0
   -6.8430   16.0670  -33.6190 C   0  0  0  0  0  0  0  0  0  0  0  0
   -4.1870   13.9449  -30.5192 H   0  0  0  0  0  0  0  0  0  0  0  0
   -5.3806   12.7193  -31.3576 H   0  0  0  0  0  0  0  0  0  0  0  0
   -3.5005   14.7730  -32.6924 H   0  0  0  0  0  0  0  0  0  0  0  0
   -4.0458   12.9067  -34.4665 H   0  0  0  0  0  0  0  0  0  0  0  0
   -5.6292   12.6964  -33.6422 H   0  0  0  0  0  0  0  0  0  0  0  0
   -3.6602   16.5700  -34.7586 H   0  0  0  0  0  0  0  0  0  0  0  0
   -4.1406   18.8579  -33.8958 H   0  0  0  0  0  0  0  0  0  0  0  0
   -8.6002   19.5315  -32.9095 H   0  0  0  0  0  0  0  0  0  0  0  0
   -9.0938   21.8242  -32.0049 H   0  0  0  0  0  0  0  0  0  0  0  0
   -7.8481   24.1749  -30.9575 H   0  0  0  0  0  0  0  0  0  0  0  0
   -3.0120   25.2770  -30.4290 H   0  0  0  0  0  0  0  0  0  0  0  0
   -3.3864   21.5282  -28.9825 H   0  0  0  0  0  0  0  0  0  0  0  0
   -1.9577   22.4389  -28.3597 H   0  0  0  0  0  0  0  0  0  0  0  0
   -3.6226   23.1411  -26.8861 H   0  0  0  0  0  0  0  0  0  0  0  0
   -3.6979   24.4225  -28.1427 H   0  0  0  0  0  0  0  0  0  0  0  0
   -4.9053   23.0926  -28.1427 H   0  0  0  0  0  0  0  0  0  0  0  0
   -4.3284   20.2470  -32.3845 H   0  0  0  0  0  0  0  0  0  0  0  0
   -8.0902   17.5635  -32.6727 H   0  0  0  0  0  0  0  0  0  0  0  0
   -7.6088   15.2811  -33.5416 H   0  0  0  0  0  0  0  0  0  0  0  0
  1  2  2  0
  2  3  1  0
  3  4  1  0
  4  5  1  0
  5  6  2  0
  6  7  1  0
  7  8  2  0
  8  9  1  0
  9 10  2  0
 10 11  1  0
 11 12  2  0
 12 13  1  0
 13 14  2  0
 14 15  1  0
 15 16  1  0
 15 17  2  0
 14 18  1  0
 18 19  1  0
 19 20  2  0
 19 21  1  0
 21 22  1  0
 22 23  1  0
 18 24  1  0
 24 25  2  0
  8 26  1  0
 26 27  2  0
 27  5  1  0
 25  9  1  0
 24 12  1  0
  1 28  1  0
  1 29  1  0
  2 30  1  0
  3 31  1  0
  3 32  1  0
  6 33  1  0
  7 34  1  0
 10 35  1  0
 11 36  1  0
 13 37  1  0
 16 38  1  0
 22 39  1  0
 22 40  1  0
 23 41  1  0
 23 42  1  0
 23 43  1  0
 25 44  1  0
 26 45  1  0
 27 46  1  0
M  CHG  1  16  -1
M  END
>  <UniqueID>  (5) 
5

>  <SMILES>  (5) 
C=CCOc1ccc(-c2ccc3cc(C([NH-])=O)n(C(=O)OCC)c3c2)cc1

>  <Energy>  (5) 
85.18940599798783

>  <Genealogy>  (5) 
C=CCOc1ccc(-c2ccc3cc(C([NH-])=O)n(C(=O)OCC)c3c2)cc1 (protonated)
C=CCOc1ccc(-c2ccc3cc(C([NH-])=O)n(C(=O)OCC)c3c2)cc1 (3D coordinates assigned)
C=CCOc1ccc(-c2ccc3cc(C([NH-])=O)n(C(=O)OCC)c3c2)cc1 (optimized conformer: 85.18940599798783 kcal/mol)

>  <smiles>  (5) 
C=CCOc1ccc(-c2ccc3cc(C(N)=O)n(C(=O)OCC)c3c2)cc1

>  <score_type>  (5) 
oracle

>  <origin>  (5) 
adg

>  <m_score__min__energy>  (5) 
-10.359999999999999

>  <m_primary>  (5) 
energy

$$$$
5:0
     RDKit          3D

 35 37  0  0  0  0  0  0  0  0999 V2000
   -3.2070   22.4580  -28.9620 C   0  0  0  0  0  0  0  0  0  0  0  0
   -3.0810   23.1390  -30.2040 O   0  0  0  0  0  0  0  0  0  0  0  0
   -3.7330   22.7140  -31.3660 C   0  0  0  0  0  0  0  0  0  0  0  0
   -3.0650   22.2870  -32.3480 O   0  0  0  0  0  0  0  0  0  0  0  0
   -5.1680   22.7660  -31.4390 N   0  0  0  0  0  0  0  0  0  0  0  0
   -5.9800   23.7650  -30.9900 C   0  0  0  0  0  0  0  0  0  0  0  0
   -5.5360   25.0820  -30.4910 C   0  0  0  0  0  0  0  0  0  0  0  0
   -4.1840   25.5130  -30.6410 N   0  0  0  0  0  0  0  0  0  0  0  0
   -6.3790   25.8620  -29.9720 O   0  0  0  0  0  0  0  0  0  0  0  0
   -7.3180   23.4040  -31.1120 C   0  0  0  0  0  0  0  0  0  0  0  0
   -7.3050   22.1450  -31.6660 C   0  0  0  0  0  0  0  0  0  0  0  0
   -8.3620   21.3010  -31.9890 C   0  0  0  0  0  0  0  0  0  0  0  0
   -8.0580   20.0340  -32.5140 C   0  0  0  0  0  0  0  0  0  0  0  0
   -6.7110   19.6270  -32.6970 C   0  0  0  0  0  0  0  0  0  0  0  0
   -6.4020   18.2800  -33.2400 C   0  0  0  0  0  0  0  0  0  0  0  0
   -5.2900   18.0770  -34.0760 C   0  0  0  0  0  0  0  0  0  0  0  0
   -5.0120   16.8050  -34.5780 C   0  0  0  0  0  0  0  0  0  0  0  0
   -5.8470   15.7390  -34.2430 C   0  0  0  0  0  0  0  0  0  0  0  0
   -6.9180   15.9440  -33.4340 N   0  0  0  0  0  0  0  0  0  0  0  0
   -7.2130   17.1730  -32.9320 C   0  0  0  0  0  0  0  0  0  0  0  0
   -5.6640   20.5150  -32.3540 C   0  0  0  0  0  0  0  0  0  0  0  0
   -5.9970   21.7810  -31.8530 C   0  0  0  0  0  0  0  0  0  0  0  0
   -3.0747   23.1731  -28.1367 H   0  0  0  0  0  0  0  0  0  0  0  0
   -4.2050   22.0005  -28.8943 H   0  0  0  0  0  0  0  0  0  0  0  0
   -2.4387   21.6737  -28.8943 H   0  0  0  0  0  0  0  0  0  0  0  0
   -3.8790   26.4300  -30.2450 H   0  0  0  0  0  0  0  0  0  0  0  0
   -3.5030   24.9650  -31.2110 H   0  0  0  0  0  0  0  0  0  0  0  0
   -8.1984   23.9984  -30.8264 H   0  0  0  0  0  0  0  0  0  0  0  0
   -9.4050   21.6161  -31.8379 H   0  0  0  0  0  0  0  0  0  0  0  0
   -8.8743   19.3489  -32.7866 H   0  0  0  0  0  0  0  0  0  0  0  0
   -4.6371   18.9235  -34.3352 H   0  0  0  0  0  0  0  0  0  0  0  0
   -4.1422   16.6444  -35.2320 H   0  0  0  0  0  0  0  0  0  0  0  0
   -5.6378   14.7324  -34.6342 H   0  0  0  0  0  0  0  0  0  0  0  0
   -8.0907   17.3020  -32.2815 H   0  0  0  0  0  0  0  0  0  0  0  0
   -4.6120   20.2183  -32.4778 H   0  0  0  0  0  0  0  0  0  0  0  0
  1  2  1  0
  2  3  1  0
  3  4  2  0
  3  5  1  0
  5  6  1  0
  6  7  1  0
  7  8  1  0
  7  9  2  0
  6 10  2  0
 10 11  1  0
 11 12  2  0
 12 13  1  0
 13 14  2  0
 14 15  1  0
 15 16  2  0
 16 17  1  0
 17 18  2  0
 18 19  1  0
 19 20  2  0
 14 21  1  0
 21 22  2  0
 22  5  1  0
 22 11  1  0
 20 15  1  0
  1 23  1  0
  1 24  1  0
  1 25  1  0
  8 26  1  0
  8 27  1  0
 10 28  1  0
 12 29  1  0
 13 30  1  0
 16 31  1  0
 17 32  1  0
 18 33  1  0
 20 34  1  0
 21 35  1  0
M  END
>  <UniqueID>  (6) 
6

>  <SMILES>  (6) 
COC(=O)n1c(C(N)=O)cc2ccc(-c3cccnc3)cc21

>  <Energy>  (6) 
81.02015895897577

>  <Genealogy>  (6) 
COC(=O)n1c(C(N)=O)cc2ccc(-c3cccnc3)cc21 (3D coordinates assigned)
COC(=O)n1c(C(N)=O)cc2ccc(-c3cccnc3)cc21 (optimized conformer: 81.02015895897577 kcal/mol)

>  <smiles>  (6) 
COC(=O)n1c(C(N)=O)cc2ccc(-c3cccnc3)cc21

>  <score_type>  (6) 
oracle

>  <origin>  (6) 
adg

>  <m_score__min__energy>  (6) 
-9.0600000000000005

>  <m_primary>  (6) 
energy

$$$$
6:0
     RDKit          3D

 44 46  0  0  0  0  0  0  0  0999 V2000
   -1.7530   19.1060  -33.8600 C   0  0  0  0  0  0  0  0  0  0  0  0
   -2.5150   18.0110  -33.1730 C   0  0  0  0  0  0  0  0  0  0  0  0
   -1.8980   17.2730  -32.3580 O   0  0  0  0  0  0  0  0  0  0  0  0
   -3.9230   17.7980  -33.4270 N   0  0  0  0  0  0  0  0  0  0  0  0
   -4.6060   18.5710  -34.4780 C   0  0  0  0  0  0  0  0  0  0  0  0
   -6.1090   18.2630  -34.5340 C   0  0  0  0  0  0  0  0  0  0  0  0
   -6.7410   18.2120  -33.1280 C   0  0  0  0  0  0  0  0  0  0  0  0
   -6.9170   19.6140  -32.5580 C   0  0  0  0  0  0  0  0  0  0  0  0
   -8.2240   20.1520  -32.4220 C   0  0  0  0  0  0  0  0  0  0  0  0
   -8.4230   21.4530  -31.9290 C   0  0  0  0  0  0  0  0  0  0  0  0
   -7.3000   22.2020  -31.5930 C   0  0  0  0  0  0  0  0  0  0  0  0
   -7.2020   23.4770  -31.0850 C   0  0  0  0  0  0  0  0  0  0  0  0
   -5.8360   23.7150  -30.9460 C   0  0  0  0  0  0  0  0  0  0  0  0
   -5.2710   25.0090  -30.5070 C   0  0  0  0  0  0  0  0  0  0  0  0
   -3.8750   25.2720  -30.6080 N   0  0  0  0  0  0  0  0  0  0  0  0
   -6.0390   25.9080  -30.0710 O   0  0  0  0  0  0  0  0  0  0  0  0
   -5.1200   22.6260  -31.3430 N   0  0  0  0  0  0  0  0  0  0  0  0
   -3.6990   22.4290  -31.2920 C   0  0  0  0  0  0  0  0  0  0  0  0
   -2.9870   22.3310  -29.9810 C   0  0  0  0  0  0  0  0  0  0  0  0
   -3.0510   22.2620  -32.3590 O   0  0  0  0  0  0  0  0  0  0  0  0
   -6.0300   21.7120  -31.7400 C   0  0  0  0  0  0  0  0  0  0  0  0
   -5.8010   20.4180  -32.2160 C   0  0  0  0  0  0  0  0  0  0  0  0
   -5.9860   17.2540  -32.1620 C   0  0  0  0  0  0  0  0  0  0  0  0
   -4.6550   16.7300  -32.7260 C   0  0  0  0  0  0  0  0  0  0  0  0
   -1.2956   19.7633  -33.1059 H   0  0  0  0  0  0  0  0  0  0  0  0
   -0.9652   18.6657  -34.4889 H   0  0  0  0  0  0  0  0  0  0  0  0
   -2.4396   19.6917  -34.4889 H   0  0  0  0  0  0  0  0  0  0  0  0
   -4.4707   19.6435  -34.2747 H   0  0  0  0  0  0  0  0  0  0  0  0
   -4.1656   18.2908  -35.4462 H   0  0  0  0  0  0  0  0  0  0  0  0
   -6.6105   19.0468  -35.1206 H   0  0  0  0  0  0  0  0  0  0  0  0
   -6.2362   17.2746  -34.9998 H   0  0  0  0  0  0  0  0  0  0  0  0
   -7.7456   17.7770  -33.2354 H   0  0  0  0  0  0  0  0  0  0  0  0
   -9.0936   19.5415  -32.7067 H   0  0  0  0  0  0  0  0  0  0  0  0
   -9.4357   21.8663  -31.8124 H   0  0  0  0  0  0  0  0  0  0  0  0
   -8.0267   24.1627  -30.8406 H   0  0  0  0  0  0  0  0  0  0  0  0
   -3.5160   26.0360  -31.2220 H   0  0  0  0  0  0  0  0  0  0  0  0
   -3.7133   22.4310  -29.1609 H   0  0  0  0  0  0  0  0  0  0  0  0
   -2.4844   21.3552  -29.9088 H   0  0  0  0  0  0  0  0  0  0  0  0
   -2.2395   23.1347  -29.9088 H   0  0  0  0  0  0  0  0  0  0  0  0
   -4.7766   20.0318  -32.3229 H   0  0  0  0  0  0  0  0  0  0  0  0
   -5.7778   17.7961  -31.2278 H   0  0  0  0  0  0  0  0  0  0  0  0
   -6.6347   16.3797  -32.0044 H   0  0  0  0  0  0  0  0  0  0  0  0
   -4.0366   16.3535  -31.8979 H   0  0  0  0  0  0  0  0  0  0  0  0
   -4.8708   15.9239  -33.4426 H   0  0  0  0  0  0  0  0  0  0  0  0
  1  2  1  0
  2  3  2  0
  2  4  1  0
  4  5  1  0
  5  6  1  0
  6  7  1  0
  7  8  1  0
  8  9  2  0
  9 10  1  0
 10 11  2  0
 11 12  1  0
 12 13  2  0
 13 14  1  0
 14 15  1  0
 14 16  2  0
 13 17  1  0
 17 18  1  0
 18 19  1  0
 18 20  2  0
 17 21  1  0
 21 22  2  0
  7 23  1  0
 23 24  1  0
 24  4  1  0
 22  8  1  0
 21 11  1  0
  1 25  1  0
  1 26  1  0
  1 27  1  0
  5 28  1  0
  5 29  1  0
  6 30  1  0
  6 31  1  0
  7 32  1  0
  9 33  1  0
 10 34  1  0
 12 35  1  0
 15 36  1  0
 19 37  1  0
 19 38  1  0
 19 39  1  0
 22 40  1  0
 23 41  1  0
 23 42  1  0
 24 43  1  0
 24 44  1  0
M  CHG  1  15  -1
M  END
>  <UniqueID>  (7) 
7

>  <SMILES>  (7) 
CC(=O)N1CCC(c2ccc3cc(C([NH-])=O)n(C(C)=O)c3c2)CC1

>  <Energy>  (7) 
86.90297991005394

>  <Genealogy>  (7) 
CC(=O)N1CCC(c2ccc3cc(C([NH-])=O)n(C(C)=O)c3c2)CC1 (protonated)
CC(=O)N1CCC(c2ccc3cc(C([NH-])=O)n(C(C)=O)c3c2)CC1 (3D coordinates assigned)
CC(=O)N1CCC(c2ccc3cc(C([NH-])=O)n(C(C)=O)c3c2)CC1 (nonaromatic ring conformer: 86.90297991005394 kcal/mol)

>  <smiles>  (7) 
CC(=O)N1CCC(c2ccc3cc(C(N)=O)n(C(C)=O)c3c2)CC1

>  <score_type>  (7) 
oracle

>  <origin>  (7) 
adg

>  <m_score__min__energy>  (7) 
-11.51

>  <m_primary>  (7) 
energy

$$$$
7:0
     RDKit          3D

 59 61  0  0  0  0  0  0  0  0999 V2000
   -6.1160   17.0680  -30.8310 C   0  0  0  0  0  0  0  0  0  0  0  0
   -6.3250   17.5520  -32.0640 C   0  0  0  0  0  0  0  0  0  0  0  0
   -7.0460   18.8370  -32.1880 C   0  0  0  0  0  0  0  0  0  0  0  0
   -8.2520   18.9950  -31.4880 C   0  0  0  0  0  0  0  0  0  0  0  0
   -8.9400   20.2070  -31.5260 C   0  0  0  0  0  0  0  0  0  0  0  0
   -8.4250   21.2770  -32.2500 C   0  0  0  0  0  0  0  0  0  0  0  0
   -9.0840   22.4610  -32.2680 F   0  0  0  0  0  0  0  0  0  0  0  0
   -7.2250   21.1360  -32.9510 C   0  0  0  0  0  0  0  0  0  0  0  0
   -6.5300   19.9090  -32.9560 C   0  0  0  0  0  0  0  0  0  0  0  0
   -5.1960   19.7740  -33.6750 C   0  0  0  0  0  0  0  0  0  0  0  0
   -4.0340   20.3150  -32.8820 C   0  0  0  0  0  0  0  0  0  0  0  0
   -2.8330   19.5690  -32.7780 C   0  0  0  0  0  0  0  0  0  0  0  0
   -1.7660   20.0390  -31.9960 C   0  0  0  0  0  0  0  0  0  0  0  0
   -1.9270   21.2530  -31.3350 C   0  0  0  0  0  0  0  0  0  0  0  0
   -1.0780   21.9110  -30.4750 C   0  0  0  0  0  0  0  0  0  0  0  0
   -1.7630   23.0610  -30.0880 C   0  0  0  0  0  0  0  0  0  0  0  0
   -1.1830   24.0950  -29.2070 C   0  0  0  0  0  0  0  0  0  0  0  0
   -1.6390   25.4430  -29.2620 N   0  0  0  0  0  0  0  0  0  0  0  0
   -0.2410   23.7960  -28.4270 O   0  0  0  0  0  0  0  0  0  0  0  0
   -2.9870   23.1120  -30.6820 N   0  0  0  0  0  0  0  0  0  0  0  0
   -4.0320   24.0680  -30.4560 C   0  0  0  0  0  0  0  0  0  0  0  0
   -3.8850   25.2560  -30.8490 O   0  0  0  0  0  0  0  0  0  0  0  0
   -5.2170   23.6570  -29.8280 O   0  0  0  0  0  0  0  0  0  0  0  0
   -6.5540   23.9320  -30.2700 C   0  0  0  0  0  0  0  0  0  0  0  0
   -7.5350   22.8700  -29.7320 C   0  0  0  0  0  0  0  0  0  0  0  0
   -6.6110   23.9940  -31.8070 C   0  0  0  0  0  0  0  0  0  0  0  0
   -6.9460   25.3040  -29.7020 C   0  0  0  0  0  0  0  0  0  0  0  0
   -3.0740   21.9980  -31.4430 C   0  0  0  0  0  0  0  0  0  0  0  0
   -4.1580   21.5470  -32.2040 C   0  0  0  0  0  0  0  0  0  0  0  0
   -5.8690   16.8530  -33.2510 N   0  0  0  0  0  0  0  0  0  0  0  0
   -4.4380   16.6340  -33.5030 C   0  0  0  0  0  0  0  0  0  0  0  0
   -6.8510   16.3270  -34.2060 C   0  0  0  0  0  0  0  0  0  0  0  0
   -5.5834   16.1149  -30.6973 H   0  0  0  0  0  0  0  0  0  0  0  0
   -6.4771   17.6241  -29.9533 H   0  0  0  0  0  0  0  0  0  0  0  0
   -8.6579   18.1555  -30.9044 H   0  0  0  0  0  0  0  0  0  0  0  0
   -9.8904   20.3170  -30.9832 H   0  0  0  0  0  0  0  0  0  0  0  0
   -6.8168   21.9933  -33.5064 H   0  0  0  0  0  0  0  0  0  0  0  0
   -5.0146   18.7081  -33.8772 H   0  0  0  0  0  0  0  0  0  0  0  0
   -5.2630   20.3657  -34.5999 H   0  0  0  0  0  0  0  0  0  0  0  0
   -2.7363   18.6137  -33.3146 H   0  0  0  0  0  0  0  0  0  0  0  0
   -0.8315   19.4654  -31.9085 H   0  0  0  0  0  0  0  0  0  0  0  0
   -0.0722   21.5961  -30.1600 H   0  0  0  0  0  0  0  0  0  0  0  0
   -2.6570   25.6650  -29.2780 H   0  0  0  0  0  0  0  0  0  0  0  0
   -7.5227   22.8833  -28.6321 H   0  0  0  0  0  0  0  0  0  0  0  0
   -8.5506   23.0942  -30.0901 H   0  0  0  0  0  0  0  0  0  0  0  0
   -7.2311   21.8753  -30.0901 H   0  0  0  0  0  0  0  0  0  0  0  0
   -7.3254   24.7711  -32.1164 H   0  0  0  0  0  0  0  0  0  0  0  0
   -5.6130   24.2355  -32.2015 H   0  0  0  0  0  0  0  0  0  0  0  0
   -6.9353   23.0197  -32.2015 H   0  0  0  0  0  0  0  0  0  0  0  0
   -6.9342   25.2628  -28.6028 H   0  0  0  0  0  0  0  0  0  0  0  0
   -6.2287   26.0627  -30.0482 H   0  0  0  0  0  0  0  0  0  0  0  0
   -7.9559   25.5692  -30.0482 H   0  0  0  0  0  0  0  0  0  0  0  0
   -5.0835   22.1375  -32.2723 H   0  0  0  0  0  0  0  0  0  0  0  0
   -3.9051   16.5524  -32.5442 H   0  0  0  0  0  0  0  0  0  0  0  0
   -4.3047   15.7050  -34.0767 H   0  0  0  0  0  0  0  0  0  0  0  0
   -4.0330   17.4806  -34.0767 H   0  0  0  0  0  0  0  0  0  0  0  0
   -7.6914   15.8768  -33.6573 H   0  0  0  0  0  0  0  0  0  0  0  0
   -7.2230   17.1466  -34.8383 H   0  0  0  0  0  0  0  0  0  0  0  0
   -6.3748   15.5632  -34.8383 H   0  0  0  0  0  0  0  0  0  0  0  0
  1  2  2  0
  2  3  1  0
  3  4  2  0
  4  5  1  0
  5  6  2  0
  6  7  1  0
  6  8  1  0
  8  9  2  0
  9 10  1  0
 10 11  1  0
 11 12  2  0
 12 13  1  0
 13 14  2  0
 14 15  1  0
 15 16  2  0
 16 17  1  0
 17 18  1  0
 17 19  2  0
 16 20  1  0
 20 21  1  0
 21 22  2  0
 21 23  1  0
 23 24  1  0
 24 25  1  0
 24 26  1  0
 24 27  1  0
 20 28  1  0
 28 29  2  0
  2 30  1  0
 30 31  1  0
 30 32  1  0
  9  3  1  0
 29 11  1  0
 28 14  1  0
  1 33  1  0
  1 34  1  0
  4 35  1  0
  5 36  1  0
  8 37  1  0
 10 38  1  0
 10 39  1  0
 12 40  1  0
 13 41  1  0
 15 42  1  0
 18 43  1  0
 25 44  1  0
 25 45  1  0
 25 46  1  0
 26 47  1  0
 26 48  1  0
 26 49  1  0
 27 50  1  0
 27 51  1  0
 27 52  1  0
 29 53  1  0
 31 54  1  0
 31 55  1  0
 31 56  1  0
 32 57  1  0
 32 58  1  0
 32 59  1  0
M  CHG  1  18  -1
M  END
>  <UniqueID>  (8) 
8

>  <SMILES>  (8) 
C=C(c1ccc(F)cc1Cc1ccc2cc(C([NH-])=O)n(C(=O)OC(C)(C)C)c2c1)N(C)C

>  <Energy>  (8) 
102.44957769221543

>  <Genealogy>  (8) 
C=C(c1ccc(F)cc1Cc1ccc2cc(C([NH-])=O)n(C(=O)OC(C)(C)C)c2c1)N(C)C (protonated)
C=C(c1ccc(F)cc1Cc1ccc2cc(C([NH-])=O)n(C(=O)OC(C)(C)C)c2c1)N(C)C (3D coordinates assigned)
C=C(c1ccc(F)cc1Cc1ccc2cc(C([NH-])=O)n(C(=O)OC(C)(C)C)c2c1)N(C)C (optimized conformer: 102.44957769221543 kcal/mol)

>  <smiles>  (8) 
C=C(c1ccc(F)cc1Cc1ccc2cc(C(N)=O)n(C(=O)OC(C)(C)C)c2c1)N(C)C

>  <score_type>  (8) 
oracle

>  <origin>  (8) 
adg

>  <m_score__min__energy>  (8) 
-12.609999999999999

>  <m_primary>  (8) 
energy

$$$$
8:0
     RDKit          3D

 36 38  0  0  0  0  0  0  0  0999 V2000
   -3.1780   24.8950  -30.0680 N   0  0  0  0  0  0  0  0  0  0  0  0
   -3.5320   23.6490  -30.6640 C   0  0  0  0  0  0  0  0  0  0  0  0
   -2.6310   22.8060  -30.9180 O   0  0  0  0  0  0  0  0  0  0  0  0
   -4.9040   23.3640  -30.9860 N   0  0  0  0  0  0  0  0  0  0  0  0
   -5.9810   24.1840  -30.8300 C   0  0  0  0  0  0  0  0  0  0  0  0
   -5.9850   25.4840  -30.1300 C   0  0  0  0  0  0  0  0  0  0  0  0
   -6.7850   25.6940  -28.9660 N   0  0  0  0  0  0  0  0  0  0  0  0
   -5.3170   26.4430  -30.6000 O   0  0  0  0  0  0  0  0  0  0  0  0
   -7.1240   23.6070  -31.3760 C   0  0  0  0  0  0  0  0  0  0  0  0
   -6.7160   22.3870  -31.8640 C   0  0  0  0  0  0  0  0  0  0  0  0
   -7.4420   21.4020  -32.5280 C   0  0  0  0  0  0  0  0  0  0  0  0
   -6.7540   20.2530  -32.9550 C   0  0  0  0  0  0  0  0  0  0  0  0
   -5.3660   20.1140  -32.7150 C   0  0  0  0  0  0  0  0  0  0  0  0
   -4.6550   18.9090  -33.1920 C   0  0  0  0  0  0  0  0  0  0  0  0
   -3.6270   19.0800  -34.1330 C   0  0  0  0  0  0  0  0  0  0  0  0
   -2.8910   17.9860  -34.5880 C   0  0  0  0  0  0  0  0  0  0  0  0
   -3.1690   16.7090  -34.1040 C   0  0  0  0  0  0  0  0  0  0  0  0
   -4.1950   16.5180  -33.1770 C   0  0  0  0  0  0  0  0  0  0  0  0
   -4.9730   17.6030  -32.7260 C   0  0  0  0  0  0  0  0  0  0  0  0
   -6.0920   17.3520  -31.7320 C   0  0  0  0  0  0  0  0  0  0  0  0
   -7.2810   17.1650  -32.4130 F   0  0  0  0  0  0  0  0  0  0  0  0
   -6.2440   18.4230  -30.8690 F   0  0  0  0  0  0  0  0  0  0  0  0
   -5.8240   16.2320  -30.9650 F   0  0  0  0  0  0  0  0  0  0  0  0
   -4.6580   21.1410  -32.0540 C   0  0  0  0  0  0  0  0  0  0  0  0
   -5.3720   22.2640  -31.6180 C   0  0  0  0  0  0  0  0  0  0  0  0
   -3.8340   25.3870  -29.4220 H   0  0  0  0  0  0  0  0  0  0  0  0
   -6.7490   26.6080  -28.4620 H   0  0  0  0  0  0  0  0  0  0  0  0
   -7.4730   24.9760  -28.6490 H   0  0  0  0  0  0  0  0  0  0  0  0
   -8.1368   24.0349  -31.4100 H   0  0  0  0  0  0  0  0  0  0  0  0
   -8.5200   21.5192  -32.7127 H   0  0  0  0  0  0  0  0  0  0  0  0
   -7.2991   19.4549  -33.4803 H   0  0  0  0  0  0  0  0  0  0  0  0
   -3.3999   20.0862  -34.5150 H   0  0  0  0  0  0  0  0  0  0  0  0
   -2.0910   18.1312  -35.3289 H   0  0  0  0  0  0  0  0  0  0  0  0
   -2.5783   15.8493  -34.4534 H   0  0  0  0  0  0  0  0  0  0  0  0
   -4.3989   15.5074  -32.7935 H   0  0  0  0  0  0  0  0  0  0  0  0
   -3.5739   21.0612  -31.8858 H   0  0  0  0  0  0  0  0  0  0  0  0
  1  2  1  0
  2  3  2  0
  2  4  1  0
  4  5  1  0
  5  6  1  0
  6  7  1  0
  6  8  2  0
  5  9  2  0
  9 10  1  0
 10 11  2  0
 11 12  1  0
 12 13  2  0
 13 14  1  0
 14 15  2  0
 15 16  1  0
 16 17  2  0
 17 18  1  0
 18 19  2  0
 19 20  1  0
 20 21  1  0
 20 22  1  0
 20 23  1  0
 13 24  1  0
 24 25  2  0
 25  4  1  0
 25 10  1  0
 19 14  1  0
  1 26  1  0
  7 27  1  0
  7 28  1  0
  9 29  1  0
 11 30  1  0
 12 31  1  0
 15 32  1  0
 16 33  1  0
 17 34  1  0
 18 35  1  0
 24 36  1  0
M  CHG  1   1  -1
M  END
>  <UniqueID>  (9) 
9

>  <SMILES>  (9) 
[NH-]C(=O)n1c(C(N)=O)cc2ccc(-c3ccccc3C(F)(F)F)cc21

>  <Energy>  (9) 
88.00439782493793

>  <Genealogy>  (9) 
[NH-]C(=O)n1c(C(N)=O)cc2ccc(-c3ccccc3C(F)(F)F)cc21 (protonated)
[NH-]C(=O)n1c(C(N)=O)cc2ccc(-c3ccccc3C(F)(F)F)cc21 (3D coordinates assigned)
[NH-]C(=O)n1c(C(N)=O)cc2ccc(-c3ccccc3C(F)(F)F)cc21 (optimized conformer: 88.00439782493793 kcal/mol)

>  <smiles>  (9) 
NC(=O)c1cc2ccc(-c3ccccc3C(F)(F)F)cc2n1C(N)=O

>  <score_type>  (9) 
oracle

>  <origin>  (9) 
adg

>  <m_score__min__energy>  (9) 
-9.3200000000000003

>  <m_primary>  (9) 
energy

$$$$
9:0
     RDKit          3D

 37 38  0  0  0  0  0  0  0  0999 V2000
   -1.9030   23.3510  -28.9740 C   0  0  0  0  0  0  0  0  0  0  0  0
   -3.0000   22.3330  -28.6080 C   0  0  0  0  0  0  0  0  0  0  0  0
   -2.4550   21.2760  -27.6290 C   0  0  0  0  0  0  0  0  0  0  0  0
   -4.1640   23.0780  -27.9360 C   0  0  0  0  0  0  0  0  0  0  0  0
   -3.5230   21.7080  -29.7900 O   0  0  0  0  0  0  0  0  0  0  0  0
   -4.0150   22.3610  -30.9300 C   0  0  0  0  0  0  0  0  0  0  0  0
   -3.2450   22.6780  -31.8760 O   0  0  0  0  0  0  0  0  0  0  0  0
   -5.4100   22.6900  -31.0060 N   0  0  0  0  0  0  0  0  0  0  0  0
   -5.9830   23.9210  -30.8820 C   0  0  0  0  0  0  0  0  0  0  0  0
   -5.2960   25.1600  -30.4610 C   0  0  0  0  0  0  0  0  0  0  0  0
   -3.8870   25.3050  -30.6170 N   0  0  0  0  0  0  0  0  0  0  0  0
   -5.9550   26.0830  -29.9130 O   0  0  0  0  0  0  0  0  0  0  0  0
   -7.3520   23.8520  -31.1310 C   0  0  0  0  0  0  0  0  0  0  0  0
   -7.6040   22.5270  -31.4070 C   0  0  0  0  0  0  0  0  0  0  0  0
   -8.8020   21.8930  -31.7280 C   0  0  0  0  0  0  0  0  0  0  0  0
   -8.7660   20.5140  -31.9910 C   0  0  0  0  0  0  0  0  0  0  0  0
   -7.5410   19.8000  -31.9570 C   0  0  0  0  0  0  0  0  0  0  0  0
   -7.5210   18.3120  -32.2060 C   0  0  0  0  0  0  0  0  0  0  0  0
   -7.1550   18.0400  -33.5120 F   0  0  0  0  0  0  0  0  0  0  0  0
   -8.7830   17.7970  -31.9750 F   0  0  0  0  0  0  0  0  0  0  0  0
   -6.6180   17.6880  -31.3640 F   0  0  0  0  0  0  0  0  0  0  0  0
   -6.3500   20.4770  -31.6050 C   0  0  0  0  0  0  0  0  0  0  0  0
   -6.4180   21.8470  -31.3280 C   0  0  0  0  0  0  0  0  0  0  0  0
   -1.4613   23.7609  -28.0537 H   0  0  0  0  0  0  0  0  0  0  0  0
   -1.1213   22.8511  -29.5648 H   0  0  0  0  0  0  0  0  0  0  0  0
   -2.3432   24.1678  -29.5648 H   0  0  0  0  0  0  0  0  0  0  0  0
   -2.6273   21.6102  -26.5953 H   0  0  0  0  0  0  0  0  0  0  0  0
   -2.9725   20.3199  -27.7963 H   0  0  0  0  0  0  0  0  0  0  0  0
   -1.3760   21.1431  -27.7963 H   0  0  0  0  0  0  0  0  0  0  0  0
   -4.0598   23.0113  -26.8430 H   0  0  0  0  0  0  0  0  0  0  0  0
   -4.1486   24.1345  -28.2420 H   0  0  0  0  0  0  0  0  0  0  0  0
   -5.1169   22.6215  -28.2420 H   0  0  0  0  0  0  0  0  0  0  0  0
   -3.4890   26.0250  -31.2580 H   0  0  0  0  0  0  0  0  0  0  0  0
   -8.0766   24.6793  -31.1113 H   0  0  0  0  0  0  0  0  0  0  0  0
   -9.7466   22.4548  -31.7740 H   0  0  0  0  0  0  0  0  0  0  0  0
   -9.6991   19.9812  -32.2262 H   0  0  0  0  0  0  0  0  0  0  0  0
   -5.3922   19.9389  -31.5502 H   0  0  0  0  0  0  0  0  0  0  0  0
  1  2  1  0
  2  3  1  0
  2  4  1  0
  2  5  1  0
  5  6  1  0
  6  7  2  0
  6  8  1  0
  8  9  1  0
  9 10  1  0
 10 11  1  0
 10 12  2  0
  9 13  2  0
 13 14  1  0
 14 15  2  0
 15 16  1  0
 16 17  2  0
 17 18  1  0
 18 19  1  0
 18 20  1  0
 18 21  1  0
 17 22  1  0
 22 23  2  0
 23  8  1  0
 23 14  1  0
  1 24  1  0
  1 25  1  0
  1 26  1  0
  3 27  1  0
  3 28  1  0
  3 29  1  0
  4 30  1  0
  4 31  1  0
  4 32  1  0
 11 33  1  0
 13 34  1  0
 15 35  1  0
 16 36  1  0
 22 37  1  0
M  CHG  1  11  -1
M  END
>  <UniqueID>  (10) 
10

>  <SMILES>  (10) 
CC(C)(C)OC(=O)n1c(C([NH-])=O)cc2ccc(C(F)(F)F)cc21

>  <Energy>  (10) 
71.88240107213832

>  <Genealogy>  (10) 
CC(C)(C)OC(=O)n1c(C([NH-])=O)cc2ccc(C(F)(F)F)cc21 (protonated)
CC(C)(C)OC(=O)n1c(C([NH-])=O)cc2ccc(C(F)(F)F)cc21 (3D coordinates assigned)
CC(C)(C)OC(=O)n1c(C([NH-])=O)cc2ccc(C(F)(F)F)cc21 (optimized conformer: 71.88240107213832 kcal/mol)

>  <smiles>  (10) 
CC(C)(C)OC(=O)n1c(C(N)=O)cc2ccc(C(F)(F)F)cc21

>  <score_type>  (10) 
oracle

>  <origin>  (10) 
adg

>  <m_score__min__energy>  (10) 
-9.9900000000000002

>  <m_primary>  (10) 
energy

$$$$
10:0
     RDKit          3D

 43 45  0  0  0  0  0  0  0  0999 V2000
   -0.8640   21.1930  -33.0660 C   0  0  0  0  0  0  0  0  0  0  0  0
   -2.3410   20.9340  -32.7130 C   0  0  0  0  0  0  0  0  0  0  0  0
   -2.4120   20.2820  -31.3230 C   0  0  0  0  0  0  0  0  0  0  0  0
   -2.9900   19.9870  -33.7390 C   0  0  0  0  0  0  0  0  0  0  0  0
   -3.0670   22.1680  -32.6370 O   0  0  0  0  0  0  0  0  0  0  0  0
   -3.6350   22.7310  -31.4830 C   0  0  0  0  0  0  0  0  0  0  0  0
   -2.9100   23.1400  -30.5370 O   0  0  0  0  0  0  0  0  0  0  0  0
   -5.0610   22.8690  -31.3980 N   0  0  0  0  0  0  0  0  0  0  0  0
   -5.7790   23.9740  -31.0450 C   0  0  0  0  0  0  0  0  0  0  0  0
   -5.2240   25.2380  -30.5150 C   0  0  0  0  0  0  0  0  0  0  0  0
   -3.9030   25.6550  -30.8470 N   0  0  0  0  0  0  0  0  0  0  0  0
   -5.9110   25.9340  -29.7200 O   0  0  0  0  0  0  0  0  0  0  0  0
   -7.1440   23.7280  -31.1700 C   0  0  0  0  0  0  0  0  0  0  0  0
   -7.2430   22.4270  -31.6040 C   0  0  0  0  0  0  0  0  0  0  0  0
   -8.3690   21.6650  -31.9020 C   0  0  0  0  0  0  0  0  0  0  0  0
   -8.1730   20.3500  -32.3590 C   0  0  0  0  0  0  0  0  0  0  0  0
   -6.8650   19.8260  -32.5150 C   0  0  0  0  0  0  0  0  0  0  0  0
   -6.6620   18.4480  -33.0040 C   0  0  0  0  0  0  0  0  0  0  0  0
   -7.5670   17.4560  -32.8880 N   0  0  0  0  0  0  0  0  0  0  0  0
   -7.0190   16.3840  -33.4390 N   0  0  0  0  0  0  0  0  0  0  0  0
   -5.8030   16.7650  -33.8740 C   0  0  0  0  0  0  0  0  0  0  0  0
   -4.8270   15.8560  -34.5370 C   0  0  0  0  0  0  0  0  0  0  0  0
   -3.9100   16.6170  -35.2700 O   0  0  0  0  0  0  0  0  0  0  0  0
   -5.5750   18.0280  -33.6060 O   0  0  0  0  0  0  0  0  0  0  0  0
   -5.7470   20.6310  -32.2050 C   0  0  0  0  0  0  0  0  0  0  0  0
   -5.9720   21.9300  -31.7340 C   0  0  0  0  0  0  0  0  0  0  0  0
   -0.2784   21.2957  -32.1405 H   0  0  0  0  0  0  0  0  0  0  0  0
   -0.4744   20.3495  -33.6548 H   0  0  0  0  0  0  0  0  0  0  0  0
   -0.7846   22.1188  -33.6548 H   0  0  0  0  0  0  0  0  0  0  0  0
   -2.3274   21.0589  -30.5488 H   0  0  0  0  0  0  0  0  0  0  0  0
   -3.3726   19.7575  -31.2127 H   0  0  0  0  0  0  0  0  0  0  0  0
   -1.5868   19.5630  -31.2127 H   0  0  0  0  0  0  0  0  0  0  0  0
   -3.5352   19.1914  -33.2100 H   0  0  0  0  0  0  0  0  0  0  0  0
   -3.6901   20.5542  -34.3700 H   0  0  0  0  0  0  0  0  0  0  0  0
   -2.2084   19.5388  -34.3700 H   0  0  0  0  0  0  0  0  0  0  0  0
   -3.0750   25.2730  -30.3380 H   0  0  0  0  0  0  0  0  0  0  0  0
   -7.9685   24.4266  -30.9649 H   0  0  0  0  0  0  0  0  0  0  0  0
   -9.3812   22.0790  -31.7836 H   0  0  0  0  0  0  0  0  0  0  0  0
   -9.0434   19.7213  -32.5980 H   0  0  0  0  0  0  0  0  0  0  0  0
   -4.2923   15.2715  -33.7738 H   0  0  0  0  0  0  0  0  0  0  0  0
   -5.3612   15.1718  -35.2126 H   0  0  0  0  0  0  0  0  0  0  0  0
   -4.1960   17.5630  -35.1680 H   0  0  0  0  0  0  0  0  0  0  0  0
   -4.7240   20.2467  -32.3306 H   0  0  0  0  0  0  0  0  0  0  0  0
  1  2  1  0
  2  3  1  0
  2  4  1  0
  2  5  1  0
  5  6  1  0
  6  7  2  0
  6  8  1  0
  8  9  1  0
  9 10  1  0
 10 11  1  0
 10 12  2  0
  9 13  2  0
 13 14  1  0
 14 15  2  0
 15 16  1  0
 16 17  2  0
 17 18  1  0
 18 19  2  0
 19 20  1  0
 20 21  2  0
 21 22  1  0
 22 23  1  0
 21 24  1  0
 17 25  1  0
 25 26  2  0
 26  8  1  0
 26 14  1  0
 24 18  1  0
  1 27  1  0
  1 28  1  0
  1 29  1  0
  3 30  1  0
  3 31  1  0
  3 32  1  0
  4 33  1  0
  4 34  1  0
  4 35  1  0
 11 36  1  0
 13 37  1  0
 15 38  1  0
 16 39  1  0
 22 40  1  0
 22 41  1  0
 23 42  1  0
 25 43  1  0
M  CHG  1  11  -1
M  END
>  <UniqueID>  (11) 
11

>  <SMILES>  (11) 
CC(C)(C)OC(=O)n1c(C([NH-])=O)cc2ccc(-c3nnc(CO)o3)cc21

>  <Energy>  (11) 
111.88164407770888

>  <Genealogy>  (11) 
CC(C)(C)OC(=O)n1c(C([NH-])=O)cc2ccc(-c3nnc(CO)o3)cc21 (protonated)
CC(C)(C)OC(=O)n1c(C([NH-])=O)cc2ccc(-c3nnc(CO)o3)cc21 (3D coordinates assigned)
CC(C)(C)OC(=O)n1c(C([NH-])=O)cc2ccc(-c3nnc(CO)o3)cc21 (optimized conformer: 111.88164407770888 kcal/mol)

>  <smiles>  (11) 
CC(C)(C)OC(=O)n1c(C(N)=O)cc2ccc(-c3nnc(CO)o3)cc21

>  <score_type>  (11) 
oracle

>  <origin>  (11) 
adg

>  <m_score__min__energy>  (11) 
-10.07

>  <m_primary>  (11) 
energy

$$$$
11:0
     RDKit          3D

 48 50  0  0  0  0  0  0  0  0999 V2000
   -7.4010   23.3420  -31.2260 C   0  0  0  0  0  0  0  0  0  0  0  0
   -6.2250   24.2700  -30.9090 C   0  0  0  0  0  0  0  0  0  0  0  0
   -6.5910   25.2320  -29.7800 C   0  0  0  0  0  0  0  0  0  0  0  0
   -5.0590   23.4870  -30.5100 N   0  0  0  0  0  0  0  0  0  0  0  0
   -3.7340   24.0200  -30.4140 C   0  0  0  0  0  0  0  0  0  0  0  0
   -3.5500   25.2660  -30.4510 O   0  0  0  0  0  0  0  0  0  0  0  0
   -2.6140   23.1330  -30.2560 N   0  0  0  0  0  0  0  0  0  0  0  0
   -1.5040   23.3300  -29.4910 C   0  0  0  0  0  0  0  0  0  0  0  0
   -1.3060   24.4240  -28.5190 C   0  0  0  0  0  0  0  0  0  0  0  0
   -1.3280   25.7920  -28.9320 N   0  0  0  0  0  0  0  0  0  0  0  0
   -1.1680   24.1500  -27.2970 O   0  0  0  0  0  0  0  0  0  0  0  0
   -0.5710   22.3180  -29.7040 C   0  0  0  0  0  0  0  0  0  0  0  0
   -1.1540   21.4760  -30.6240 C   0  0  0  0  0  0  0  0  0  0  0  0
   -0.6590   20.3180  -31.2150 C   0  0  0  0  0  0  0  0  0  0  0  0
   -1.4580   19.6720  -32.1720 C   0  0  0  0  0  0  0  0  0  0  0  0
   -2.7310   20.1930  -32.5180 C   0  0  0  0  0  0  0  0  0  0  0  0
   -3.5530   19.5260  -33.5870 C   0  0  0  0  0  0  0  0  0  0  0  0
   -4.9900   19.4310  -33.1520 C   0  0  0  0  0  0  0  0  0  0  0  0
   -5.8840   20.4770  -33.4300 C   0  0  0  0  0  0  0  0  0  0  0  0
   -7.2280   20.3730  -33.0630 C   0  0  0  0  0  0  0  0  0  0  0  0
   -7.7000   19.2170  -32.4180 C   0  0  0  0  0  0  0  0  0  0  0  0
   -9.1450   19.0930  -32.0260 C   0  0  0  0  0  0  0  0  0  0  0  0
   -9.9470   19.3570  -33.1200 F   0  0  0  0  0  0  0  0  0  0  0  0
   -9.3980   17.8110  -31.5720 F   0  0  0  0  0  0  0  0  0  0  0  0
   -6.8080   18.1660  -32.1530 C   0  0  0  0  0  0  0  0  0  0  0  0
   -5.4640   18.2710  -32.5200 C   0  0  0  0  0  0  0  0  0  0  0  0
   -3.1950   21.3780  -31.9070 C   0  0  0  0  0  0  0  0  0  0  0  0
   -2.3860   21.9900  -30.9420 C   0  0  0  0  0  0  0  0  0  0  0  0
   -7.8511   22.9868  -30.2873 H   0  0  0  0  0  0  0  0  0  0  0  0
   -8.1547   23.8913  -31.8092 H   0  0  0  0  0  0  0  0  0  0  0  0
   -7.0420   22.4812  -31.8092 H   0  0  0  0  0  0  0  0  0  0  0  0
   -5.9897   24.8471  -31.8154 H   0  0  0  0  0  0  0  0  0  0  0  0
   -6.4063   24.7466  -28.8103 H   0  0  0  0  0  0  0  0  0  0  0  0
   -5.9757   26.1404  -29.8584 H   0  0  0  0  0  0  0  0  0  0  0  0
   -7.6545   25.5017  -29.8584 H   0  0  0  0  0  0  0  0  0  0  0  0
   -1.1380   26.5500  -28.2410 H   0  0  0  0  0  0  0  0  0  0  0  0
   -1.6070   26.0570  -29.9020 H   0  0  0  0  0  0  0  0  0  0  0  0
    0.4195   22.2139  -29.2371 H   0  0  0  0  0  0  0  0  0  0  0  0
    0.3292   19.9202  -30.9407 H   0  0  0  0  0  0  0  0  0  0  0  0
   -1.0937   18.7545  -32.6573 H   0  0  0  0  0  0  0  0  0  0  0  0
   -3.4918   20.1156  -34.5136 H   0  0  0  0  0  0  0  0  0  0  0  0
   -3.1623   18.5126  -33.7610 H   0  0  0  0  0  0  0  0  0  0  0  0
   -5.5245   21.3832  -33.9394 H   0  0  0  0  0  0  0  0  0  0  0  0
   -7.9202   21.2000  -33.2799 H   0  0  0  0  0  0  0  0  0  0  0  0
   -9.3645   19.8148  -31.2255 H   0  0  0  0  0  0  0  0  0  0  0  0
   -7.1691   17.2548  -31.6537 H   0  0  0  0  0  0  0  0  0  0  0  0
   -4.7737   17.4401  -32.3125 H   0  0  0  0  0  0  0  0  0  0  0  0
   -4.1684   21.8100  -32.1824 H   0  0  0  0  0  0  0  0  0  0  0  0
  1  2  1  0
  2  3  1  0
  2  4  1  0
  4  5  1  0
  5  6  2  0
  5  7  1  0
  7  8  1  0
  8  9  1  0
  9 10  1  0
  9 11  2  0
  8 12  2  0
 12 13  1  0
 13 14  2  0
 14 15  1  0
 15 16  2  0
 16 17  1  0
 17 18  1  0
 18 19  2  0
 19 20  1  0
 20 21  2  0
 21 22  1  0
 22 23  1  0
 22 24  1  0
 21 25  1  0
 25 26  2  0
 16 27  1  0
 27 28  2  0
 28  7  1  0
 28 13  1  0
 26 18  1  0
  1 29  1  0
  1 30  1  0
  1 31  1  0
  2 32  1  0
  3 33  1  0
  3 34  1  0
  3 35  1  0
 10 36  1  0
 10 37  1  0
 12 38  1  0
 14 39  1  0
 15 40  1  0
 17 41  1  0
 17 42  1  0
 19 43  1  0
 20 44  1  0
 22 45  1  0
 25 46  1  0
 26 47  1  0
 27 48  1  0
M  CHG  1   4  -1
M  END
>  <UniqueID>  (12) 
12

>  <SMILES>  (12) 
CC(C)[N-]C(=O)n1c(C(N)=O)cc2ccc(Cc3ccc(C(F)F)cc3)cc21

>  <Energy>  (12) 
80.57667873798245

>  <Genealogy>  (12) 
CC(C)[N-]C(=O)n1c(C(N)=O)cc2ccc(Cc3ccc(C(F)F)cc3)cc21 (protonated)
CC(C)[N-]C(=O)n1c(C(N)=O)cc2ccc(Cc3ccc(C(F)F)cc3)cc21 (3D coordinates assigned)
CC(C)[N-]C(=O)n1c(C(N)=O)cc2ccc(Cc3ccc(C(F)F)cc3)cc21 (optimized conformer: 80.57667873798245 kcal/mol)

>  <smiles>  (12) 
CC(C)NC(=O)n1c(C(N)=O)cc2ccc(Cc3ccc(C(F)F)cc3)cc21

>  <score_type>  (12) 
oracle

>  <origin>  (12) 
adg

>  <m_score__min__energy>  (12) 
-10.19

>  <m_primary>  (12) 
energy

$$$$
12:0
     RDKit          3D

 40 41  0  0  0  0  0  0  0  0999 V2000
   -5.2280   18.0990  -34.9130 C   0  0  0  0  0  0  0  0  0  0  0  0
   -6.1330   18.0740  -34.1170 C   0  0  0  0  0  0  0  0  0  0  0  0
   -7.2330   18.0460  -33.1480 C   0  0  0  0  0  0  0  0  0  0  0  0
   -7.3740   19.3890  -32.4900 C   0  0  0  0  0  0  0  0  0  0  0  0
   -8.5990   19.7570  -31.8800 C   0  0  0  0  0  0  0  0  0  0  0  0
   -8.7280   20.9920  -31.2230 C   0  0  0  0  0  0  0  0  0  0  0  0
   -7.6210   21.8350  -31.1940 C   0  0  0  0  0  0  0  0  0  0  0  0
   -7.4610   23.0640  -30.5960 C   0  0  0  0  0  0  0  0  0  0  0  0
   -6.1470   23.4360  -30.8660 C   0  0  0  0  0  0  0  0  0  0  0  0
   -5.5670   24.7300  -30.4560 C   0  0  0  0  0  0  0  0  0  0  0  0
   -5.8820   25.3160  -29.1930 N   0  0  0  0  0  0  0  0  0  0  0  0
   -4.7350   25.3010  -31.2110 O   0  0  0  0  0  0  0  0  0  0  0  0
   -5.5130   22.4710  -31.5910 N   0  0  0  0  0  0  0  0  0  0  0  0
   -4.1280   22.4290  -31.9700 C   0  0  0  0  0  0  0  0  0  0  0  0
   -3.7770   21.7590  -32.9780 O   0  0  0  0  0  0  0  0  0  0  0  0
   -3.1850   23.1400  -31.2140 O   0  0  0  0  0  0  0  0  0  0  0  0
   -2.5140   22.6760  -30.0340 C   0  0  0  0  0  0  0  0  0  0  0  0
   -3.5130   22.0040  -29.0730 C   0  0  0  0  0  0  0  0  0  0  0  0
   -1.7820   23.8380  -29.3340 C   0  0  0  0  0  0  0  0  0  0  0  0
   -1.4790   21.6340  -30.4820 C   0  0  0  0  0  0  0  0  0  0  0  0
   -6.4300   21.4970  -31.7870 C   0  0  0  0  0  0  0  0  0  0  0  0
   -6.2670   20.2650  -32.4290 C   0  0  0  0  0  0  0  0  0  0  0  0
   -4.4022   18.1218  -35.6393 H   0  0  0  0  0  0  0  0  0  0  0  0
   -8.1695   17.7950  -33.6676 H   0  0  0  0  0  0  0  0  0  0  0  0
   -7.0175   17.2889  -32.3797 H   0  0  0  0  0  0  0  0  0  0  0  0
   -9.4566   19.0694  -31.9213 H   0  0  0  0  0  0  0  0  0  0  0  0
   -9.6752   21.2839  -30.7459 H   0  0  0  0  0  0  0  0  0  0  0  0
   -8.2114   23.6315  -30.0261 H   0  0  0  0  0  0  0  0  0  0  0  0
   -5.4940   26.2520  -28.9380 H   0  0  0  0  0  0  0  0  0  0  0  0
   -6.4260   24.7910  -28.4740 H   0  0  0  0  0  0  0  0  0  0  0  0
   -3.2140   22.2052  -28.0337 H   0  0  0  0  0  0  0  0  0  0  0  0
   -4.5205   22.4087  -29.2495 H   0  0  0  0  0  0  0  0  0  0  0  0
   -3.5179   20.9183  -29.2495 H   0  0  0  0  0  0  0  0  0  0  0  0
   -1.8589   23.7159  -28.2435 H   0  0  0  0  0  0  0  0  0  0  0  0
   -0.7224   23.8349  -29.6295 H   0  0  0  0  0  0  0  0  0  0  0  0
   -2.2423   24.7924  -29.6295 H   0  0  0  0  0  0  0  0  0  0  0  0
   -1.0186   21.1705  -29.5970 H   0  0  0  0  0  0  0  0  0  0  0  0
   -1.9757   20.8596  -31.0850 H   0  0  0  0  0  0  0  0  0  0  0  0
   -0.7012   22.1255  -31.0850 H   0  0  0  0  0  0  0  0  0  0  0  0
   -5.3013   19.9851  -32.8752 H   0  0  0  0  0  0  0  0  0  0  0  0
  1  2  3  0
  2  3  1  0
  3  4  1  0
  4  5  2  0
  5  6  1  0
  6  7  2  0
  7  8  1  0
  8  9  2  0
  9 10  1  0
 10 11  1  0
 10 12  2  0
  9 13  1  0
 13 14  1  0
 14 15  2  0
 14 16  1  0
 16 17  1  0
 17 18  1  0
 17 19  1  0
 17 20  1  0
 13 21  1  0
 21 22  2  0
 22  4  1  0
 21  7  1  0
  1 23  1  0
  3 24  1  0
  3 25  1  0
  5 26  1  0
  6 27  1  0
  8 28  1  0
 11 29  1  0
 11 30  1  0
 18 31  1  0
 18 32  1  0
 18 33  1  0
 19 34  1  0
 19 35  1  0
 19 36  1  0
 20 37  1  0
 20 38  1  0
 20 39  1  0
 22 40  1  0
M  END
>  <UniqueID>  (13) 
13

>  <SMILES>  (13) 
C#CCc1ccc2cc(C(N)=O)n(C(=O)OC(C)(C)C)c2c1

>  <Energy>  (13) 
71.0043631135397

>  <Genealogy>  (13) 
C#CCc1ccc2cc(C(N)=O)n(C(=O)OC(C)(C)C)c2c1 (3D coordinates assigned)
C#CCc1ccc2cc(C(N)=O)n(C(=O)OC(C)(C)C)c2c1 (optimized conformer: 71.0043631135397 kcal/mol)

>  <smiles>  (13) 
C#CCc1ccc2cc(C(N)=O)n(C(=O)OC(C)(C)C)c2c1

>  <score_type>  (13) 
oracle

>  <origin>  (13) 
adg

>  <m_score__min__energy>  (13) 
-9.1199999999999992

>  <m_primary>  (13) 
energy

$$$$
13:0
     RDKit          3D

 53 55  0  0  0  0  0  0  0  0999 V2000
   -1.1360   22.8430  -29.7610 C   0  0  0  0  0  0  0  0  0  0  0  0
   -2.0620   21.9350  -30.5830 C   0  0  0  0  0  0  0  0  0  0  0  0
   -1.2130   21.1520  -31.6020 C   0  0  0  0  0  0  0  0  0  0  0  0
   -2.7930   20.9720  -29.6280 C   0  0  0  0  0  0  0  0  0  0  0  0
   -2.9980   22.7860  -31.2580 O   0  0  0  0  0  0  0  0  0  0  0  0
   -4.1180   22.3740  -31.9960 C   0  0  0  0  0  0  0  0  0  0  0  0
   -3.9820   21.7330  -33.0740 O   0  0  0  0  0  0  0  0  0  0  0  0
   -5.4330   22.7090  -31.5280 N   0  0  0  0  0  0  0  0  0  0  0  0
   -5.8170   23.8160  -30.8320 C   0  0  0  0  0  0  0  0  0  0  0  0
   -4.9640   24.9950  -30.5570 C   0  0  0  0  0  0  0  0  0  0  0  0
   -3.6740   24.8400  -29.9620 N   0  0  0  0  0  0  0  0  0  0  0  0
   -5.3820   26.1530  -30.8190 O   0  0  0  0  0  0  0  0  0  0  0  0
   -7.1640   23.7320  -30.4860 C   0  0  0  0  0  0  0  0  0  0  0  0
   -7.5970   22.5290  -30.9940 C   0  0  0  0  0  0  0  0  0  0  0  0
   -8.8520   21.9330  -30.9330 C   0  0  0  0  0  0  0  0  0  0  0  0
   -9.0090   20.6660  -31.5200 C   0  0  0  0  0  0  0  0  0  0  0  0
   -7.9120   20.0130  -32.1400 C   0  0  0  0  0  0  0  0  0  0  0  0
   -8.0820   18.6390  -32.7480 C   0  0  0  0  0  0  0  0  0  0  0  0
   -6.7700   17.9930  -33.2620 C   0  0  0  0  0  0  0  0  0  0  0  0
   -5.7460   17.6930  -32.1360 C   0  0  0  0  0  0  0  0  0  0  0  0
   -4.5860   18.6970  -32.1500 C   0  0  0  0  0  0  0  0  0  0  0  0
   -3.8400   18.6650  -33.4240 N   0  0  0  0  0  0  0  0  0  0  0  0
   -4.6650   18.3730  -34.6160 C   0  0  0  0  0  0  0  0  0  0  0  0
   -6.1320   18.7820  -34.4300 C   0  0  0  0  0  0  0  0  0  0  0  0
   -6.6600   20.6650  -32.2030 C   0  0  0  0  0  0  0  0  0  0  0  0
   -6.5350   21.9310  -31.6200 C   0  0  0  0  0  0  0  0  0  0  0  0
   -1.3113   22.6711  -28.6887 H   0  0  0  0  0  0  0  0  0  0  0  0
   -0.0878   22.6129  -30.0027 H   0  0  0  0  0  0  0  0  0  0  0  0
   -1.3455   23.8955  -30.0027 H   0  0  0  0  0  0  0  0  0  0  0  0
   -0.5065   20.5004  -31.0669 H   0  0  0  0  0  0  0  0  0  0  0  0
   -1.8720   20.5380  -32.2334 H   0  0  0  0  0  0  0  0  0  0  0  0
   -0.6542   21.8584  -32.2334 H   0  0  0  0  0  0  0  0  0  0  0  0
   -2.5783   21.2549  -28.5869 H   0  0  0  0  0  0  0  0  0  0  0  0
   -3.8767   21.0298  -29.8076 H   0  0  0  0  0  0  0  0  0  0  0  0
   -2.4459   19.9438  -29.8076 H   0  0  0  0  0  0  0  0  0  0  0  0
   -3.2690   23.8950  -29.7810 H   0  0  0  0  0  0  0  0  0  0  0  0
   -3.0980   25.6800  -29.7360 H   0  0  0  0  0  0  0  0  0  0  0  0
   -7.7557   24.4708  -29.9256 H   0  0  0  0  0  0  0  0  0  0  0  0
   -9.6960   22.4380  -30.4403 H   0  0  0  0  0  0  0  0  0  0  0  0
   -9.9930   20.1749  -31.4987 H   0  0  0  0  0  0  0  0  0  0  0  0
   -8.5137   17.9766  -31.9832 H   0  0  0  0  0  0  0  0  0  0  0  0
   -8.7318   18.7655  -33.6265 H   0  0  0  0  0  0  0  0  0  0  0  0
   -7.0715   17.0151  -33.6654 H   0  0  0  0  0  0  0  0  0  0  0  0
   -6.2568   17.7503  -31.1635 H   0  0  0  0  0  0  0  0  0  0  0  0
   -5.3341   16.6868  -32.3027 H   0  0  0  0  0  0  0  0  0  0  0  0
   -4.9907   19.7089  -32.0011 H   0  0  0  0  0  0  0  0  0  0  0  0
   -3.8906   18.4230  -31.3429 H   0  0  0  0  0  0  0  0  0  0  0  0
   -3.3860   19.6000  -33.5540 H   0  0  0  0  0  0  0  0  0  0  0  0
   -4.2516   18.9228  -35.4744 H   0  0  0  0  0  0  0  0  0  0  0  0
   -4.6396   17.2859  -34.7818 H   0  0  0  0  0  0  0  0  0  0  0  0
   -6.1827   19.8586  -34.2101 H   0  0  0  0  0  0  0  0  0  0  0  0
   -6.6841   18.5577  -35.3546 H   0  0  0  0  0  0  0  0  0  0  0  0
   -5.8022   20.1878  -32.6995 H   0  0  0  0  0  0  0  0  0  0  0  0
  1  2  1  0
  2  3  1  0
  2  4  1  0
  2  5  1  0
  5  6  1  0
  6  7  2  0
  6  8  1  0
  8  9  1  0
  9 10  1  0
 10 11  1  0
 10 12  2  0
  9 13  2  0
 13 14  1  0
 14 15  2  0
 15 16  1  0
 16 17  2  0
 17 18  1  0
 18 19  1  0
 19 20  1  0
 20 21  1  0
 21 22  1  0
 22 23  1  0
 23 24  1  0
 17 25  1  0
 25 26  2  0
 26  8  1  0
 26 14  1  0
 24 19  1  0
  1 27  1  0
  1 28  1  0
  1 29  1  0
  3 30  1  0
  3 31  1  0
  3 32  1  0
  4 33  1  0
  4 34  1  0
  4 35  1  0
 11 36  1  0
 11 37  1  0
 13 38  1  0
 15 39  1  0
 16 40  1  0
 18 41  1  0
 18 42  1  0
 19 43  1  0
 20 44  1  0
 20 45  1  0
 21 46  1  0
 21 47  1  0
 22 48  1  0
 23 49  1  0
 23 50  1  0
 24 51  1  0
 24 52  1  0
 25 53  1  0
M  END
>  <UniqueID>  (14) 
14

>  <SMILES>  (14) 
CC(C)(C)OC(=O)n1c(C(N)=O)cc2ccc(CC3CCNCC3)cc21

>  <Energy>  (14) 
92.1253590013375

>  <Genealogy>  (14) 
CC(C)(C)OC(=O)n1c(C(N)=O)cc2ccc(CC3CCNCC3)cc21 (3D coordinates assigned)
CC(C)(C)OC(=O)n1c(C(N)=O)cc2ccc(CC3CCNCC3)cc21 (nonaromatic ring conformer: 92.1253590013375 kcal/mol)

>  <smiles>  (14) 
CC(C)(C)OC(=O)n1c(C(N)=O)cc2ccc(CC3CCNCC3)cc21

>  <score_type>  (14) 
oracle

>  <origin>  (14) 
adg

>  <m_score__min__energy>  (14) 
-9.6999999999999993

>  <m_primary>  (14) 
energy

$$$$
14:0
     RDKit          3D

 59 61  0  0  0  0  0  0  0  0999 V2000
   -1.3910   22.2150  -28.8510 C   0  0  0  0  0  0  0  0  0  0  0  0
   -2.8170   21.7600  -28.5030 C   0  0  0  0  0  0  0  0  0  0  0  0
   -3.5150   22.8770  -27.7060 C   0  0  0  0  0  0  0  0  0  0  0  0
   -2.7390   20.4660  -27.6690 C   0  0  0  0  0  0  0  0  0  0  0  0
   -3.5010   21.5290  -29.7430 O   0  0  0  0  0  0  0  0  0  0  0  0
   -3.9590   22.5110  -30.6350 C   0  0  0  0  0  0  0  0  0  0  0  0
   -3.1520   23.2700  -31.2370 O   0  0  0  0  0  0  0  0  0  0  0  0
   -5.3690   22.6780  -30.8310 N   0  0  0  0  0  0  0  0  0  0  0  0
   -6.0810   23.8370  -30.7740 C   0  0  0  0  0  0  0  0  0  0  0  0
   -5.5470   25.1420  -30.3300 C   0  0  0  0  0  0  0  0  0  0  0  0
   -4.2310   25.5590  -30.7040 N   0  0  0  0  0  0  0  0  0  0  0  0
   -6.2610   25.9110  -29.6310 O   0  0  0  0  0  0  0  0  0  0  0  0
   -7.4040   23.6140  -31.1560 C   0  0  0  0  0  0  0  0  0  0  0  0
   -7.4730   22.2750  -31.4680 C   0  0  0  0  0  0  0  0  0  0  0  0
   -8.5290   21.5270  -31.9820 C   0  0  0  0  0  0  0  0  0  0  0  0
   -8.2780   20.1890  -32.3340 C   0  0  0  0  0  0  0  0  0  0  0  0
   -6.9820   19.6330  -32.1760 C   0  0  0  0  0  0  0  0  0  0  0  0
   -6.6760   18.2530  -32.6950 C   0  0  0  0  0  0  0  0  0  0  0  0
   -6.1130   18.2730  -34.1320 C   0  0  0  0  0  0  0  0  0  0  0  0
   -4.6600   18.7820  -34.2360 C   0  0  0  0  0  0  0  0  0  0  0  0
   -3.7650   18.3820  -33.0540 C   0  0  0  0  0  0  0  0  0  0  0  0
   -3.0590   19.5700  -32.5160 N   0  0  0  0  0  0  0  0  0  0  0  0
   -1.6530   19.3070  -32.1980 C   0  0  0  0  0  0  0  0  0  0  0  0
   -0.9650   20.6560  -32.1950 C   0  0  0  0  0  0  0  0  0  0  0  0
   -1.7470   21.4800  -33.2020 C   0  0  0  0  0  0  0  0  0  0  0  0
   -3.0490   20.7180  -33.4360 C   0  0  0  0  0  0  0  0  0  0  0  0
   -5.9520   20.4070  -31.6040 C   0  0  0  0  0  0  0  0  0  0  0  0
   -6.2300   21.7330  -31.2620 C   0  0  0  0  0  0  0  0  0  0  0  0
   -0.8270   22.3950  -27.9239 H   0  0  0  0  0  0  0  0  0  0  0  0
   -0.8896   21.4322  -29.4391 H   0  0  0  0  0  0  0  0  0  0  0  0
   -1.4356   23.1435  -29.4391 H   0  0  0  0  0  0  0  0  0  0  0  0
   -3.3967   22.6877  -26.6289 H   0  0  0  0  0  0  0  0  0  0  0  0
   -3.0618   23.8466  -27.9598 H   0  0  0  0  0  0  0  0  0  0  0  0
   -4.5852   22.8947  -27.9598 H   0  0  0  0  0  0  0  0  0  0  0  0
   -2.7542   20.7183  -26.5984 H   0  0  0  0  0  0  0  0  0  0  0  0
   -3.6001   19.8241  -27.9067 H   0  0  0  0  0  0  0  0  0  0  0  0
   -1.8070   19.9322  -27.9067 H   0  0  0  0  0  0  0  0  0  0  0  0
   -3.5910   24.9270  -31.2320 H   0  0  0  0  0  0  0  0  0  0  0  0
   -3.8740   26.4950  -30.4070 H   0  0  0  0  0  0  0  0  0  0  0  0
   -8.2190   24.3515  -31.1988 H   0  0  0  0  0  0  0  0  0  0  0  0
   -9.5283   21.9690  -32.1087 H   0  0  0  0  0  0  0  0  0  0  0  0
   -9.0928   19.5683  -32.7351 H   0  0  0  0  0  0  0  0  0  0  0  0
   -5.9344   17.7833  -32.0321 H   0  0  0  0  0  0  0  0  0  0  0  0
   -7.6186   17.6863  -32.7133 H   0  0  0  0  0  0  0  0  0  0  0  0
   -6.1488   17.2484  -34.5306 H   0  0  0  0  0  0  0  0  0  0  0  0
   -6.7355   18.9758  -34.7052 H   0  0  0  0  0  0  0  0  0  0  0  0
   -4.2172   18.3747  -35.1569 H   0  0  0  0  0  0  0  0  0  0  0  0
   -4.7100   19.8809  -34.2359 H   0  0  0  0  0  0  0  0  0  0  0  0
   -4.3869   17.9401  -32.2616 H   0  0  0  0  0  0  0  0  0  0  0  0
   -3.0202   17.6508  -33.4014 H   0  0  0  0  0  0  0  0  0  0  0  0
   -1.5673   18.8323  -31.2094 H   0  0  0  0  0  0  0  0  0  0  0  0
   -1.1961   18.6239  -32.9291 H   0  0  0  0  0  0  0  0  0  0  0  0
   -1.0118   21.1147  -31.1963 H   0  0  0  0  0  0  0  0  0  0  0  0
    0.1024   20.5832  -32.4508 H   0  0  0  0  0  0  0  0  0  0  0  0
   -1.9559   22.4817  -32.7984 H   0  0  0  0  0  0  0  0  0  0  0  0
   -1.1845   21.6199  -34.1369 H   0  0  0  0  0  0  0  0  0  0  0  0
   -3.9093   21.3719  -33.2305 H   0  0  0  0  0  0  0  0  0  0  0  0
   -3.1181   20.3792  -34.4802 H   0  0  0  0  0  0  0  0  0  0  0  0
   -4.9541   19.9777  -31.4312 H   0  0  0  0  0  0  0  0  0  0  0  0
  1  2  1  0
  2  3  1  0
  2  4  1  0
  2  5  1  0
  5  6  1  0
  6  7  2  0
  6  8  1  0
  8  9  1  0
  9 10  1  0
 10 11  1  0
 10 12  2  0
  9 13  2  0
 13 14  1  0
 14 15  2  0
 15 16  1  0
 16 17  2  0
 17 18  1  0
 18 19  1  0
 19 20  1  0
 20 21  1  0
 21 22  1  0
 22 23  1  0
 23 24  1  0
 24 25  1  0
 25 26  1  0
 17 27  1  0
 27 28  2  0
 28  8  1  0
 28 14  1  0
 26 22  1  0
  1 29  1  0
  1 30  1  0
  1 31  1  0
  3 32  1  0
  3 33  1  0
  3 34  1  0
  4 35  1  0
  4 36  1  0
  4 37  1  0
 11 38  1  0
 11 39  1  0
 13 40  1  0
 15 41  1  0
 16 42  1  0
 18 43  1  0
 18 44  1  0
 19 45  1  0
 19 46  1  0
 20 47  1  0
 20 48  1  0
 21 49  1  0
 21 50  1  0
 23 51  1  0
 23 52  1  0
 24 53  1  0
 24 54  1  0
 25 55  1  0
 25 56  1  0
 26 57  1  0
 26 58  1  0
 27 59  1  0
M  END
>  <UniqueID>  (15) 
15

>  <SMILES>  (15) 
CC(C)(C)OC(=O)n1c(C(N)=O)cc2ccc(CCCCN3CCCC3)cc21

>  <Energy>  (15) 
90.62361174454632

>  <Genealogy>  (15) 
CC(C)(C)OC(=O)n1c(C(N)=O)cc2ccc(CCCCN3CCCC3)cc21 (3D coordinates assigned)
CC(C)(C)OC(=O)n1c(C(N)=O)cc2ccc(CCCCN3CCCC3)cc21 (nonaromatic ring conformer: 90.62361174454632 kcal/mol)

>  <smiles>  (15) 
CC(C)(C)OC(=O)n1c(C(N)=O)cc2ccc(CCCCN3CCCC3)cc21

>  <score_type>  (15) 
oracle

>  <origin>  (15) 
adg

>  <m_score__min__energy>  (15) 
-9.3699999999999992

>  <m_primary>  (15) 
energy

$$$$
15:0
     RDKit          3D

 61 63  0  0  0  0  0  0  0  0999 V2000
   -3.6600   22.8500  -28.3410 C   0  0  0  0  0  0  0  0  0  0  0  0
   -2.4880   23.1110  -29.2790 C   0  0  0  0  0  0  0  0  0  0  0  0
   -2.9470   23.6160  -30.5310 O   0  0  0  0  0  0  0  0  0  0  0  0
   -3.6810   22.8550  -31.4480 C   0  0  0  0  0  0  0  0  0  0  0  0
   -3.0870   22.1730  -32.3280 O   0  0  0  0  0  0  0  0  0  0  0  0
   -5.1180   22.8680  -31.4010 N   0  0  0  0  0  0  0  0  0  0  0  0
   -5.9230   23.8050  -30.8250 C   0  0  0  0  0  0  0  0  0  0  0  0
   -5.4720   25.0960  -30.2610 C   0  0  0  0  0  0  0  0  0  0  0  0
   -6.1100   25.6510  -29.1090 N   0  0  0  0  0  0  0  0  0  0  0  0
   -4.5360   25.7340  -30.8120 O   0  0  0  0  0  0  0  0  0  0  0  0
   -7.2600   23.4250  -30.9250 C   0  0  0  0  0  0  0  0  0  0  0  0
   -7.2490   22.2180  -31.5860 C   0  0  0  0  0  0  0  0  0  0  0  0
   -8.3030   21.3850  -31.9430 C   0  0  0  0  0  0  0  0  0  0  0  0
   -7.9990   20.1810  -32.6000 C   0  0  0  0  0  0  0  0  0  0  0  0
   -6.6540   19.8240  -32.8860 C   0  0  0  0  0  0  0  0  0  0  0  0
   -6.3490   18.5830  -33.5600 N   0  0  0  0  0  0  0  0  0  0  0  0
   -6.6300   17.2650  -33.0210 C   0  0  0  0  0  0  0  0  0  0  0  0
   -6.3120   16.3210  -34.1780 C   0  0  2  0  0  0  0  0  0  0  0  0
   -5.8490   14.9020  -33.7540 C   0  0  0  0  0  0  0  0  0  0  0  0
   -4.9660   14.8790  -32.4870 C   0  0  0  0  0  0  0  0  0  0  0  0
   -4.3100   13.5160  -32.1530 C   0  0  0  0  0  0  0  0  0  0  0  0
   -4.9250   12.9470  -30.8670 C   0  0  0  0  0  0  0  0  0  0  0  0
   -2.7860   13.6270  -31.9970 C   0  0  0  0  0  0  0  0  0  0  0  0
   -5.4040   17.0610  -35.0870 N   0  0  0  0  0  0  0  0  0  0  0  0
   -3.9440   16.8060  -34.9500 C   0  0  0  0  0  0  0  0  0  0  0  0
   -3.1550   17.8710  -34.1650 C   0  0  0  0  0  0  0  0  0  0  0  0
   -5.7510   18.4780  -34.8860 C   0  0  0  0  0  0  0  0  0  0  0  0
   -5.6120   20.7040  -32.5010 C   0  0  0  0  0  0  0  0  0  0  0  0
   -5.9450   21.9040  -31.8630 C   0  0  0  0  0  0  0  0  0  0  0  0
   -3.3188   22.9260  -27.2980 H   0  0  0  0  0  0  0  0  0  0  0  0
   -4.4489   23.5945  -28.5239 H   0  0  0  0  0  0  0  0  0  0  0  0
   -4.0584   21.8411  -28.5239 H   0  0  0  0  0  0  0  0  0  0  0  0
   -1.8136   23.8476  -28.8179 H   0  0  0  0  0  0  0  0  0  0  0  0
   -1.9568   22.1636  -29.4532 H   0  0  0  0  0  0  0  0  0  0  0  0
   -6.8520   25.1270  -28.5930 H   0  0  0  0  0  0  0  0  0  0  0  0
   -5.8110   26.5820  -28.7420 H   0  0  0  0  0  0  0  0  0  0  0  0
   -8.1383   23.9737  -30.5541 H   0  0  0  0  0  0  0  0  0  0  0  0
   -9.3439   21.6603  -31.7178 H   0  0  0  0  0  0  0  0  0  0  0  0
   -8.8142   19.5049  -32.8973 H   0  0  0  0  0  0  0  0  0  0  0  0
   -5.9879   17.0516  -32.1537 H   0  0  0  0  0  0  0  0  0  0  0  0
   -7.6653   17.1644  -32.6631 H   0  0  0  0  0  0  0  0  0  0  0  0
   -7.2295   16.0560  -34.7239 H   0  0  0  0  0  0  0  0  0  0  0  0
   -6.7427   14.2896  -33.5634 H   0  0  0  0  0  0  0  0  0  0  0  0
   -5.2331   14.5103  -34.5769 H   0  0  0  0  0  0  0  0  0  0  0  0
   -4.1620   15.6176  -32.6213 H   0  0  0  0  0  0  0  0  0  0  0  0
   -5.6396   15.1027  -31.6467 H   0  0  0  0  0  0  0  0  0  0  0  0
   -4.5059   12.8381  -32.9969 H   0  0  0  0  0  0  0  0  0  0  0  0
   -4.4341   13.4012  -29.9937 H   0  0  0  0  0  0  0  0  0  0  0  0
   -6.0008   13.1753  -30.8428 H   0  0  0  0  0  0  0  0  0  0  0  0
   -4.7809   11.8567  -30.8428 H   0  0  0  0  0  0  0  0  0  0  0  0
   -2.5272   13.6458  -30.9280 H   0  0  0  0  0  0  0  0  0  0  0  0
   -2.3044   12.7616  -32.4756 H   0  0  0  0  0  0  0  0  0  0  0  0
   -2.4349   14.5531  -32.4756 H   0  0  0  0  0  0  0  0  0  0  0  0
   -3.8152   15.8419  -34.4363 H   0  0  0  0  0  0  0  0  0  0  0  0
   -3.5377   16.8219  -35.9721 H   0  0  0  0  0  0  0  0  0  0  0  0
   -3.2818   17.6998  -33.0858 H   0  0  0  0  0  0  0  0  0  0  0  0
   -2.0882   17.8022  -34.4243 H   0  0  0  0  0  0  0  0  0  0  0  0
   -3.5316   18.8715  -34.4243 H   0  0  0  0  0  0  0  0  0  0  0  0
   -4.8462   19.1010  -34.9435 H   0  0  0  0  0  0  0  0  0  0  0  0
   -6.4487   18.8267  -35.6616 H   0  0  0  0  0  0  0  0  0  0  0  0
   -4.5608   20.4484  -32.7000 H   0  0  0  0  0  0  0  0  0  0  0  0
  1  2  1  0
  2  3  1  0
  3  4  1  0
  4  5  2  0
  4  6  1  0
  6  7  1  0
  7  8  1  0
  8  9  1  0
  8 10  2  0
  7 11  2  0
 11 12  1  0
 12 13  2  0
 13 14  1  0
 14 15  2  0
 15 16  1  0
 16 17  1  0
 17 18  1  0
 18 19  1  0
 19 20  1  0
 20 21  1  0
 21 22  1  0
 21 23  1  0
 18 24  1  0
 24 25  1  0
 25 26  1  0
 24 27  1  0
 15 28  1  0
 28 29  2  0
 29  6  1  0
 29 12  1  0
 27 16  1  0
  1 30  1  0
  1 31  1  0
  1 32  1  0
  2 33  1  0
  2 34  1  0
  9 35  1  0
  9 36  1  0
 11 37  1  0
 13 38  1  0
 14 39  1  0
 17 40  1  0
 17 41  1  0
 18 42  1  6
 19 43  1  0
 19 44  1  0
 20 45  1  0
 20 46  1  0
 21 47  1  0
 22 48  1  0
 22 49  1  0
 22 50  1  0
 23 51  1  0
 23 52  1  0
 23 53  1  0
 25 54  1  0
 25 55  1  0
 26 56  1  0
 26 57  1  0
 26 58  1  0
 27 59  1  0
 27 60  1  0
 28 61  1  0
M  END
>  <UniqueID>  (16) 
16

>  <SMILES>  (16) 
CCOC(=O)n1c(C(N)=O)cc2ccc(N3C[C@H](CCC(C)C)N(CC)C3)cc21

>  <Energy>  (16) 
102.55484771975858

>  <Genealogy>  (16) 
CCOC(=O)n1c(C(N)=O)cc2ccc(N3C[C@H](CCC(C)C)N(CC)C3)cc21 (chirality)
CCOC(=O)n1c(C(N)=O)cc2ccc(N3C[C@H](CCC(C)C)N(CC)C3)cc21 (3D coordinates assigned)
CCOC(=O)n1c(C(N)=O)cc2ccc(N3C[C@H](CCC(C)C)N(CC)C3)cc21 (nonaromatic ring conformer: 102.55484771975858 kcal/mol)

>  <smiles>  (16) 
CCOC(=O)n1c(C(N)=O)cc2ccc(N3CC(CCC(C)C)N(CC)C3)cc21

>  <score_type>  (16) 
oracle

>  <origin>  (16) 
adg

>  <m_score__min__energy>  (16) 
-9.5600000000000005

>  <m_primary>  (16) 
energy

$$$$
16:0
     RDKit          3D

 52 56  0  0  0  0  0  0  0  0999 V2000
   -1.6040   18.3660  -34.2480 C   0  0  0  0  0  0  0  0  0  0  0  0
   -1.0440   19.7470  -34.1460 C   0  0  0  0  0  0  0  0  0  0  0  0
   -0.5110   20.4160  -35.1410 O   0  0  0  0  0  0  0  0  0  0  0  0
   -0.1280   21.5660  -34.6360 C   0  0  0  0  0  0  0  0  0  0  0  0
    0.4310   22.4720  -35.3080 O   0  0  0  0  0  0  0  0  0  0  0  0
   -0.3870   21.6670  -33.3520 O   0  0  0  0  0  0  0  0  0  0  0  0
   -0.9630   20.5370  -33.0140 C   0  0  0  0  0  0  0  0  0  0  0  0
   -1.4290   20.1970  -31.6360 C   0  0  0  0  0  0  0  0  0  0  0  0
   -2.5980   20.9480  -31.3340 O   0  0  0  0  0  0  0  0  0  0  0  0
   -2.5530   22.2220  -30.7620 C   0  0  0  0  0  0  0  0  0  0  0  0
   -1.4440   22.7740  -30.5280 O   0  0  0  0  0  0  0  0  0  0  0  0
   -3.7770   22.9100  -30.4600 N   0  0  0  0  0  0  0  0  0  0  0  0
   -3.9800   23.8680  -29.5120 C   0  0  0  0  0  0  0  0  0  0  0  0
   -2.9320   24.5330  -28.7100 C   0  0  0  0  0  0  0  0  0  0  0  0
   -1.8910   25.2780  -29.3370 N   0  0  0  0  0  0  0  0  0  0  0  0
   -2.9850   24.4840  -27.4520 O   0  0  0  0  0  0  0  0  0  0  0  0
   -5.3290   24.2090  -29.4430 C   0  0  0  0  0  0  0  0  0  0  0  0
   -5.9510   23.4290  -30.3900 C   0  0  0  0  0  0  0  0  0  0  0  0
   -7.2960   23.3480  -30.7390 C   0  0  0  0  0  0  0  0  0  0  0  0
   -7.6650   22.4250  -31.7320 C   0  0  0  0  0  0  0  0  0  0  0  0
   -6.6920   21.6000  -32.3540 C   0  0  0  0  0  0  0  0  0  0  0  0
   -7.1110   20.5920  -33.4070 C   0  0  2  0  0  0  0  0  0  0  0  0
   -8.5210   20.0460  -33.0830 C   0  0  0  0  0  0  0  0  0  0  0  0
   -8.5430   18.5530  -32.7030 C   0  0  0  0  0  0  0  0  0  0  0  0
   -7.9820   18.2080  -31.3150 C   0  0  0  0  0  0  0  0  0  0  0  0
   -6.4510   18.2750  -31.2390 C   0  0  0  0  0  0  0  0  0  0  0  0
   -5.8430   18.4690  -32.5960 C   0  0  0  0  0  0  0  0  0  0  0  0
   -4.9110   17.6580  -33.1280 N   0  0  0  0  0  0  0  0  0  0  0  0
   -4.6260   18.1410  -34.3280 N   0  0  0  0  0  0  0  0  0  0  0  0
   -5.3310   19.2330  -34.5900 N   0  0  0  0  0  0  0  0  0  0  0  0
   -6.0900   19.4780  -33.5060 C   0  0  0  0  0  0  0  0  0  0  0  0
   -5.3340   21.7110  -31.9660 C   0  0  0  0  0  0  0  0  0  0  0  0
   -4.9940   22.6530  -30.9900 C   0  0  0  0  0  0  0  0  0  0  0  0
   -1.7681   17.9614  -33.2384 H   0  0  0  0  0  0  0  0  0  0  0  0
   -2.5605   18.3973  -34.7904 H   0  0  0  0  0  0  0  0  0  0  0  0
   -0.8958   17.7223  -34.7904 H   0  0  0  0  0  0  0  0  0  0  0  0
   -1.6586   19.1226  -31.5809 H   0  0  0  0  0  0  0  0  0  0  0  0
   -0.6386   20.4399  -30.9105 H   0  0  0  0  0  0  0  0  0  0  0  0
   -1.2400   24.8260  -30.0160 H   0  0  0  0  0  0  0  0  0  0  0  0
   -5.7973   24.9455  -28.7735 H   0  0  0  0  0  0  0  0  0  0  0  0
   -8.0473   23.9872  -30.2522 H   0  0  0  0  0  0  0  0  0  0  0  0
   -8.7203   22.3408  -32.0308 H   0  0  0  0  0  0  0  0  0  0  0  0
   -7.1562   21.0881  -34.3877 H   0  0  0  0  0  0  0  0  0  0  0  0
   -8.9303   20.6233  -32.2409 H   0  0  0  0  0  0  0  0  0  0  0  0
   -9.1208   20.1500  -33.9992 H   0  0  0  0  0  0  0  0  0  0  0  0
   -9.5878   18.2109  -32.7393 H   0  0  0  0  0  0  0  0  0  0  0  0
   -7.8825   18.0511  -33.4254 H   0  0  0  0  0  0  0  0  0  0  0  0
   -8.3981   18.9180  -30.5851 H   0  0  0  0  0  0  0  0  0  0  0  0
   -8.2713   17.1690  -31.0985 H   0  0  0  0  0  0  0  0  0  0  0  0
   -6.1614   19.1173  -30.5935 H   0  0  0  0  0  0  0  0  0  0  0  0
   -6.0831   17.3233  -30.8281 H   0  0  0  0  0  0  0  0  0  0  0  0
   -4.5645   21.0708  -32.4221 H   0  0  0  0  0  0  0  0  0  0  0  0
  1  2  1  0
  2  3  1  0
  3  4  1  0
  4  5  2  0
  4  6  1  0
  6  7  1  0
  7  8  1  0
  8  9  1  0
  9 10  1  0
 10 11  2  0
 10 12  1  0
 12 13  1  0
 13 14  1  0
 14 15  1  0
 14 16  2  0
 13 17  2  0
 17 18  1  0
 18 19  2  0
 19 20  1  0
 20 21  2  0
 21 22  1  0
 22 23  1  0
 23 24  1  0
 24 25  1  0
 25 26  1  0
 26 27  1  0
 27 28  2  0
 28 29  1  0
 29 30  1  0
 30 31  2  0
 21 32  1  0
 32 33  2  0
  7  2  2  0
 33 12  1  0
 33 18  1  0
 31 22  1  0
 31 27  1  0
  1 34  1  0
  1 35  1  0
  1 36  1  0
  8 37  1  0
  8 38  1  0
 15 39  1  0
 17 40  1  0
 19 41  1  0
 20 42  1  0
 22 43  1  6
 23 44  1  0
 23 45  1  0
 24 46  1  0
 24 47  1  0
 25 48  1  0
 25 49  1  0
 26 50  1  0
 26 51  1  0
 32 52  1  0
M  CHG  2  15  -1  29  -1
M  END
>  <UniqueID>  (17) 
17

>  <SMILES>  (17) 
Cc1oc(=O)oc1COC(=O)n1c(C([NH-])=O)cc2ccc([C@@H]3CCCCc4n[n-]nc43)cc21

>  <Energy>  (17) 
161.92564151762406

>  <Genealogy>  (17) 
Cc1oc(=O)oc1COC(=O)n1c(C([NH-])=O)cc2ccc(C3CCCCc4n[n-]nc43)cc21 (protonated)
Cc1oc(=O)oc1COC(=O)n1c(C([NH-])=O)cc2ccc([C@@H]3CCCCc4n[n-]nc43)cc21 (chirality)
Cc1oc(=O)oc1COC(=O)n1c(C([NH-])=O)cc2ccc([C@@H]3CCCCc4n[n-]nc43)cc21 (3D coordinates assigned)
Cc1oc(=O)oc1COC(=O)n1c(C([NH-])=O)cc2ccc([C@@H]3CCCCc4n[n-]nc43)cc21 (nonaromatic ring conformer: 161.92564151762406 kcal/mol)

>  <smiles>  (17) 
Cc1oc(=O)oc1COC(=O)n1c(C(N)=O)cc2ccc(C3CCCCc4n[nH]nc43)cc21

>  <score_type>  (17) 
oracle

>  <origin>  (17) 
adg

>  <m_score__min__energy>  (17) 
-10.800000000000001

>  <m_primary>  (17) 
energy

$$$$
17:0
     RDKit          3D

 41 42  0  0  0  0  0  0  0  0999 V2000
   -4.0270   22.9080  -28.3450 C   0  0  0  0  0  0  0  0  0  0  0  0
   -2.8030   22.7710  -29.2710 C   0  0  0  0  0  0  0  0  0  0  0  0
   -1.6330   23.5650  -28.6700 C   0  0  0  0  0  0  0  0  0  0  0  0
   -2.3840   21.2950  -29.4060 C   0  0  0  0  0  0  0  0  0  0  0  0
   -3.0790   23.3360  -30.5590 O   0  0  0  0  0  0  0  0  0  0  0  0
   -3.8860   22.7760  -31.5610 C   0  0  0  0  0  0  0  0  0  0  0  0
   -3.3740   22.2540  -32.5870 O   0  0  0  0  0  0  0  0  0  0  0  0
   -5.3140   22.8150  -31.4190 N   0  0  0  0  0  0  0  0  0  0  0  0
   -6.0730   23.8040  -30.8660 C   0  0  0  0  0  0  0  0  0  0  0  0
   -5.5710   25.1210  -30.4160 C   0  0  0  0  0  0  0  0  0  0  0  0
   -4.2240   25.5200  -30.6810 N   0  0  0  0  0  0  0  0  0  0  0  0
   -6.3210   25.8950  -29.7630 O   0  0  0  0  0  0  0  0  0  0  0  0
   -7.4200   23.4450  -30.8700 C   0  0  0  0  0  0  0  0  0  0  0  0
   -7.4630   22.1970  -31.4480 C   0  0  0  0  0  0  0  0  0  0  0  0
   -8.5510   21.3660  -31.7050 C   0  0  0  0  0  0  0  0  0  0  0  0
   -8.3000   20.1180  -32.2990 C   0  0  0  0  0  0  0  0  0  0  0  0
   -6.9770   19.7200  -32.6110 C   0  0  0  0  0  0  0  0  0  0  0  0
   -6.7170   18.3830  -33.2590 C   0  0  0  0  0  0  0  0  0  0  0  0
   -5.9440   18.5340  -34.5690 C   0  0  0  0  0  0  0  0  0  0  0  0
   -4.6060   17.3560  -34.6720 Cl  0  0  0  0  0  0  0  0  0  0  0  0
   -5.8990   20.5920  -32.3400 C   0  0  0  0  0  0  0  0  0  0  0  0
   -6.1800   21.8380  -31.7690 C   0  0  0  0  0  0  0  0  0  0  0  0
   -3.6989   22.8713  -27.2957 H   0  0  0  0  0  0  0  0  0  0  0  0
   -4.5280   23.8678  -28.5391 H   0  0  0  0  0  0  0  0  0  0  0  0
   -4.7278   22.0827  -28.5391 H   0  0  0  0  0  0  0  0  0  0  0  0
   -1.6895   23.5267  -27.5721 H   0  0  0  0  0  0  0  0  0  0  0  0
   -0.6816   23.1252  -29.0038 H   0  0  0  0  0  0  0  0  0  0  0  0
   -1.6903   24.6116  -29.0038 H   0  0  0  0  0  0  0  0  0  0  0  0
   -2.2594   20.8562  -28.4050 H   0  0  0  0  0  0  0  0  0  0  0  0
   -3.1607   20.7421  -29.9547 H   0  0  0  0  0  0  0  0  0  0  0  0
   -1.4327   21.2326  -29.9547 H   0  0  0  0  0  0  0  0  0  0  0  0
   -3.5900   24.9320  -31.2650 H   0  0  0  0  0  0  0  0  0  0  0  0
   -3.8690   26.4340  -30.3250 H   0  0  0  0  0  0  0  0  0  0  0  0
   -8.2683   24.0342  -30.4915 H   0  0  0  0  0  0  0  0  0  0  0  0
   -9.5749   21.6774  -31.4507 H   0  0  0  0  0  0  0  0  0  0  0  0
   -9.1391   19.4433  -32.5240 H   0  0  0  0  0  0  0  0  0  0  0  0
   -6.1305   17.7594  -32.5682 H   0  0  0  0  0  0  0  0  0  0  0  0
   -7.6868   17.9148  -33.4835 H   0  0  0  0  0  0  0  0  0  0  0  0
   -6.6316   18.3699  -35.4118 H   0  0  0  0  0  0  0  0  0  0  0  0
   -5.5180   19.5475  -34.6060 H   0  0  0  0  0  0  0  0  0  0  0  0
   -4.8646   20.2987  -32.5721 H   0  0  0  0  0  0  0  0  0  0  0  0
  1  2  1  0
  2  3  1  0
  2  4  1  0
  2  5  1  0
  5  6  1  0
  6  7  2  0
  6  8  1  0
  8  9  1  0
  9 10  1  0
 10 11  1  0
 10 12  2  0
  9 13  2  0
 13 14  1  0
 14 15  2  0
 15 16  1  0
 16 17  2  0
 17 18  1  0
 18 19  1  0
 19 20  1  0
 17 21  1  0
 21 22  2  0
 22  8  1  0
 22 14  1  0
  1 23  1  0
  1 24  1  0
  1 25  1  0
  3 26  1  0
  3 27  1  0
  3 28  1  0
  4 29  1  0
  4 30  1  0
  4 31  1  0
 11 32  1  0
 11 33  1  0
 13 34  1  0
 15 35  1  0
 16 36  1  0
 18 37  1  0
 18 38  1  0
 19 39  1  0
 19 40  1  0
 21 41  1  0
M  END
>  <UniqueID>  (18) 
18

>  <SMILES>  (18) 
CC(C)(C)OC(=O)n1c(C(N)=O)cc2ccc(CCCl)cc21

>  <Energy>  (18) 
71.28843109209146

>  <Genealogy>  (18) 
CC(C)(C)OC(=O)n1c(C(N)=O)cc2ccc(CCCl)cc21 (3D coordinates assigned)
CC(C)(C)OC(=O)n1c(C(N)=O)cc2ccc(CCCl)cc21 (optimized conformer: 71.28843109209146 kcal/mol)

>  <smiles>  (18) 
CC(C)(C)OC(=O)n1c(C(N)=O)cc2ccc(CCCl)cc21

>  <score_type>  (18) 
oracle

>  <origin>  (18) 
adg

>  <m_score__min__energy>  (18) 
-8.9800000000000004

>  <m_primary>  (18) 
energy

$$$$
18:0
     RDKit          3D

 48 50  0  0  0  0  0  0  0  0999 V2000
   -5.9660   13.2700  -34.3240 C   0  0  0  0  0  0  0  0  0  0  0  0
   -5.3270   14.4760  -34.7330 O   0  0  0  0  0  0  0  0  0  0  0  0
   -5.6360   15.7490  -34.2300 C   0  0  0  0  0  0  0  0  0  0  0  0
   -6.8800   16.0380  -33.6370 C   0  0  0  0  0  0  0  0  0  0  0  0
   -7.1500   17.3180  -33.1480 C   0  0  0  0  0  0  0  0  0  0  0  0
   -6.1870   18.3360  -33.2400 C   0  0  0  0  0  0  0  0  0  0  0  0
   -6.4760   19.6980  -32.7210 C   0  0  0  0  0  0  0  0  0  0  0  0
   -7.8160   20.1540  -32.6110 C   0  0  0  0  0  0  0  0  0  0  0  0
   -8.1010   21.4340  -32.1090 C   0  0  0  0  0  0  0  0  0  0  0  0
   -7.0330   22.2410  -31.7330 C   0  0  0  0  0  0  0  0  0  0  0  0
   -7.0270   23.5060  -31.1910 C   0  0  0  0  0  0  0  0  0  0  0  0
   -5.6840   23.8200  -30.9990 C   0  0  0  0  0  0  0  0  0  0  0  0
   -5.2180   25.1310  -30.5040 C   0  0  0  0  0  0  0  0  0  0  0  0
   -3.9350   25.6370  -30.8630 N   0  0  0  0  0  0  0  0  0  0  0  0
   -5.9810   25.8370  -29.7930 O   0  0  0  0  0  0  0  0  0  0  0  0
   -4.8900   22.7880  -31.4020 N   0  0  0  0  0  0  0  0  0  0  0  0
   -3.4630   22.6780  -31.2740 C   0  0  0  0  0  0  0  0  0  0  0  0
   -2.7980   22.1080  -32.1780 O   0  0  0  0  0  0  0  0  0  0  0  0
   -2.8340   23.1880  -30.1270 O   0  0  0  0  0  0  0  0  0  0  0  0
   -2.8670   22.6130  -28.8120 C   0  0  0  0  0  0  0  0  0  0  0  0
   -2.8120   21.0870  -28.9850 C   0  0  0  0  0  0  0  0  0  0  0  0
   -4.1760   22.9830  -28.0890 C   0  0  0  0  0  0  0  0  0  0  0  0
   -1.6450   23.0670  -27.9930 C   0  0  0  0  0  0  0  0  0  0  0  0
   -5.7320   21.8290  -31.8480 C   0  0  0  0  0  0  0  0  0  0  0  0
   -5.4170   20.5510  -32.3270 C   0  0  0  0  0  0  0  0  0  0  0  0
   -4.9460   18.0460  -33.8310 C   0  0  0  0  0  0  0  0  0  0  0  0
   -4.6730   16.7640  -34.3210 C   0  0  0  0  0  0  0  0  0  0  0  0
   -3.1060   16.4400  -35.0500 Cl  0  0  0  0  0  0  0  0  0  0  0  0
   -5.9911   13.2227  -33.2253 H   0  0  0  0  0  0  0  0  0  0  0  0
   -6.9938   13.2486  -34.7155 H   0  0  0  0  0  0  0  0  0  0  0  0
   -5.4065   12.4076  -34.7155 H   0  0  0  0  0  0  0  0  0  0  0  0
   -7.6440   15.2506  -33.5584 H   0  0  0  0  0  0  0  0  0  0  0  0
   -8.1257   17.5307  -32.6867 H   0  0  0  0  0  0  0  0  0  0  0  0
   -8.6410   19.4966  -32.9228 H   0  0  0  0  0  0  0  0  0  0  0  0
   -9.1384   21.7878  -32.0160 H   0  0  0  0  0  0  0  0  0  0  0  0
   -7.8985   24.1357  -30.9587 H   0  0  0  0  0  0  0  0  0  0  0  0
   -3.0710   25.3000  -30.3850 H   0  0  0  0  0  0  0  0  0  0  0  0
   -2.7947   20.6062  -27.9958 H   0  0  0  0  0  0  0  0  0  0  0  0
   -3.6985   20.7489  -29.5415 H   0  0  0  0  0  0  0  0  0  0  0  0
   -1.9034   20.8136  -29.5415 H   0  0  0  0  0  0  0  0  0  0  0  0
   -4.0192   22.9387  -27.0011 H   0  0  0  0  0  0  0  0  0  0  0  0
   -4.4775   24.0015  -28.3748 H   0  0  0  0  0  0  0  0  0  0  0  0
   -4.9661   22.2730  -28.3748 H   0  0  0  0  0  0  0  0  0  0  0  0
   -1.8711   22.9830  -26.9198 H   0  0  0  0  0  0  0  0  0  0  0  0
   -0.7826   22.4293  -28.2370 H   0  0  0  0  0  0  0  0  0  0  0  0
   -1.4082   24.1131  -28.2370 H   0  0  0  0  0  0  0  0  0  0  0  0
   -4.3709   20.2178  -32.3955 H   0  0  0  0  0  0  0  0  0  0  0  0
   -4.1821   18.8336  -33.9093 H   0  0  0  0  0  0  0  0  0  0  0  0
  1  2  1  0
  2  3  1  0
  3  4  2  0
  4  5  1  0
  5  6  2  0
  6  7  1  0
  7  8  2  0
  8  9  1  0
  9 10  2  0
 10 11  1  0
 11 12  2  0
 12 13  1  0
 13 14  1  0
 13 15  2  0
 12 16  1  0
 16 17  1  0
 17 18  2  0
 17 19  1  0
 19 20  1  0
 20 21  1  0
 20 22  1  0
 20 23  1  0
 16 24  1  0
 24 25  2  0
  6 26  1  0
 26 27  2  0
 27 28  1  0
 27  3  1  0
 25  7  1  0
 24 10  1  0
  1 29  1  0
  1 30  1  0
  1 31  1  0
  4 32  1  0
  5 33  1  0
  8 34  1  0
  9 35  1  0
 11 36  1  0
 14 37  1  0
 21 38  1  0
 21 39  1  0
 21 40  1  0
 22 41  1  0
 22 42  1  0
 22 43  1  0
 23 44  1  0
 23 45  1  0
 23 46  1  0
 25 47  1  0
 26 48  1  0
M  CHG  1  14  -1
M  END
>  <UniqueID>  (19) 
19

>  <SMILES>  (19) 
COc1ccc(-c2ccc3cc(C([NH-])=O)n(C(=O)OC(C)(C)C)c3c2)cc1Cl

>  <Energy>  (19) 
89.24397216400219

>  <Genealogy>  (19) 
COc1ccc(-c2ccc3cc(C([NH-])=O)n(C(=O)OC(C)(C)C)c3c2)cc1Cl (protonated)
COc1ccc(-c2ccc3cc(C([NH-])=O)n(C(=O)OC(C)(C)C)c3c2)cc1Cl (3D coordinates assigned)
COc1ccc(-c2ccc3cc(C([NH-])=O)n(C(=O)OC(C)(C)C)c3c2)cc1Cl (optimized conformer: 89.24397216400219 kcal/mol)

>  <smiles>  (19) 
COc1ccc(-c2ccc3cc(C(N)=O)n(C(=O)OC(C)(C)C)c3c2)cc1Cl

>  <score_type>  (19) 
oracle

>  <origin>  (19) 
adg

>  <m_score__min__energy>  (19) 
-11.140000000000001

>  <m_primary>  (19) 
energy

$$$$
19:0
     RDKit          3D

100103  0  0  0  0  0  0  0  0999 V2000
   -2.3970   25.6860  -25.6280 C   0  0  0  0  0  0  0  0  0  0  0  0
   -1.0120   26.2720  -25.9670 C   0  0  0  0  0  0  0  0  0  0  0  0
    0.0720   25.2800  -25.5190 C   0  0  0  0  0  0  0  0  0  0  0  0
   -0.7950   27.6100  -25.2410 C   0  0  0  0  0  0  0  0  0  0  0  0
   -0.8650   26.4430  -27.3830 O   0  0  0  0  0  0  0  0  0  0  0  0
   -0.8600   25.4300  -28.3520 C   0  0  0  0  0  0  0  0  0  0  0  0
    0.1110   24.6370  -28.4460 O   0  0  0  0  0  0  0  0  0  0  0  0
   -1.9630   25.2920  -29.2560 N   0  0  0  0  0  0  0  0  0  0  0  0
   -2.9040   24.1650  -29.3050 C   0  0  2  0  0  0  0  0  0  0  0  0
   -3.3260   23.7430  -27.8760 C   0  0  0  0  0  0  0  0  0  0  0  0
   -2.7080   22.4290  -27.4670 C   0  0  0  0  0  0  0  0  0  0  0  0
   -3.3490   21.2170  -27.7860 C   0  0  0  0  0  0  0  0  0  0  0  0
   -2.7750   19.9980  -27.4180 C   0  0  0  0  0  0  0  0  0  0  0  0
   -1.5580   19.9770  -26.7290 C   0  0  0  0  0  0  0  0  0  0  0  0
   -0.9120   21.1740  -26.4130 C   0  0  0  0  0  0  0  0  0  0  0  0
   -1.4830   22.3960  -26.7810 C   0  0  0  0  0  0  0  0  0  0  0  0
   -2.3390   22.9750  -30.1320 C   0  0  2  0  0  0  0  0  0  0  0  0
   -0.9750   23.1540  -30.4070 O   0  0  0  0  0  0  0  0  0  0  0  0
   -3.1130   22.7060  -31.4400 C   0  0  0  0  0  0  0  0  0  0  0  0
   -4.4570   22.1090  -31.2000 N   0  0  0  0  0  0  0  0  0  0  0  0
   -4.8600   21.2820  -32.3670 C   0  0  0  0  0  0  0  0  0  0  0  0
   -3.7960   21.2700  -33.4880 C   0  0  0  0  0  0  0  0  0  0  0  0
   -2.7610   20.1860  -33.3190 C   0  0  0  0  0  0  0  0  0  0  0  0
   -1.3980   20.5240  -33.1130 C   0  0  0  0  0  0  0  0  0  0  0  0
   -0.4360   19.5200  -32.9160 C   0  0  0  0  0  0  0  0  0  0  0  0
   -0.8640   18.1950  -32.9120 C   0  0  0  0  0  0  0  0  0  0  0  0
   -0.1440   17.0340  -32.7490 C   0  0  0  0  0  0  0  0  0  0  0  0
   -1.0820   16.0050  -32.8090 C   0  0  0  0  0  0  0  0  0  0  0  0
   -0.7460   14.5850  -32.5740 C   0  0  0  0  0  0  0  0  0  0  0  0
   -1.3180   13.5750  -33.4030 N   0  0  0  0  0  0  0  0  0  0  0  0
    0.0680   14.2520  -31.6740 O   0  0  0  0  0  0  0  0  0  0  0  0
   -2.3330   16.5110  -33.0150 N   0  0  0  0  0  0  0  0  0  0  0  0
   -3.5640   15.7890  -33.1690 C   0  0  0  0  0  0  0  0  0  0  0  0
   -3.7740   14.7540  -32.4810 O   0  0  0  0  0  0  0  0  0  0  0  0
   -4.5110   16.2380  -34.1040 O   0  0  0  0  0  0  0  0  0  0  0  0
   -5.8150   16.7610  -33.8110 C   0  0  0  0  0  0  0  0  0  0  0  0
   -6.9040   15.7450  -34.2030 C   0  0  0  0  0  0  0  0  0  0  0  0
   -6.0410   18.1050  -34.5300 C   0  0  0  0  0  0  0  0  0  0  0  0
   -5.8760   16.9940  -32.2940 C   0  0  0  0  0  0  0  0  0  0  0  0
   -2.1810   17.8540  -33.0730 C   0  0  0  0  0  0  0  0  0  0  0  0
   -3.1590   18.8300  -33.2860 C   0  0  0  0  0  0  0  0  0  0  0  0
   -5.6290   23.4070  -30.9830 S   0  0  0  0  0  0  0  0  0  0  0  0
   -6.1110   23.3970  -29.5570 O   0  0  0  0  0  0  0  0  0  0  0  0
   -5.0120   24.7520  -31.2560 O   0  0  0  0  0  0  0  0  0  0  0  0
   -7.0600   23.1820  -32.0460 C   0  0  0  0  0  0  0  0  0  0  0  0
   -8.0880   22.1690  -31.5160 C   0  0  0  0  0  0  0  0  0  0  0  0
   -8.1120   20.8560  -32.3230 C   0  0  0  0  0  0  0  0  0  0  0  0
   -7.4960   19.6730  -31.5730 C   0  0  0  0  0  0  0  0  0  0  0  0
   -8.8330   18.9470  -31.6160 C   0  0  0  0  0  0  0  0  0  0  0  0
   -9.4560   20.1330  -32.3340 C   0  0  0  0  0  0  0  0  0  0  0  0
   -2.5164   25.6355  -24.5357 H   0  0  0  0  0  0  0  0  0  0  0  0
   -3.1814   26.3293  -26.0532 H   0  0  0  0  0  0  0  0  0  0  0  0
   -2.4815   24.6750  -26.0532 H   0  0  0  0  0  0  0  0  0  0  0  0
    0.1076   25.2474  -24.4201 H   0  0  0  0  0  0  0  0  0  0  0  0
   -0.1640   24.2785  -25.9081 H   0  0  0  0  0  0  0  0  0  0  0  0
    1.0486   25.6037  -25.9081 H   0  0  0  0  0  0  0  0  0  0  0  0
   -0.8216   27.4457  -24.1537 H   0  0  0  0  0  0  0  0  0  0  0  0
    0.1825   28.0269  -25.5250 H   0  0  0  0  0  0  0  0  0  0  0  0
   -1.5906   28.3145  -25.5250 H   0  0  0  0  0  0  0  0  0  0  0  0
   -3.8102   24.5001  -29.8309 H   0  0  0  0  0  0  0  0  0  0  0  0
   -3.0064   24.5212  -27.1673 H   0  0  0  0  0  0  0  0  0  0  0  0
   -4.4191   23.6206  -27.8677 H   0  0  0  0  0  0  0  0  0  0  0  0
   -4.3063   21.2300  -28.3276 H   0  0  0  0  0  0  0  0  0  0  0  0
   -3.2803   19.0540  -27.6702 H   0  0  0  0  0  0  0  0  0  0  0  0
   -1.1092   19.0165  -26.4357 H   0  0  0  0  0  0  0  0  0  0  0  0
    0.0468   21.1555  -25.8742 H   0  0  0  0  0  0  0  0  0  0  0  0
   -0.9700   23.3366  -26.5319 H   0  0  0  0  0  0  0  0  0  0  0  0
   -2.4721   22.0857  -29.4985 H   0  0  0  0  0  0  0  0  0  0  0  0
   -0.7800   24.1260  -30.3080 H   0  0  0  0  0  0  0  0  0  0  0  0
   -3.2414   23.6584  -31.9753 H   0  0  0  0  0  0  0  0  0  0  0  0
   -2.5289   21.9839  -32.0294 H   0  0  0  0  0  0  0  0  0  0  0  0
   -5.0232   20.2489  -32.0262 H   0  0  0  0  0  0  0  0  0  0  0  0
   -5.7768   21.7232  -32.7850 H   0  0  0  0  0  0  0  0  0  0  0  0
   -4.3056   21.1186  -34.4510 H   0  0  0  0  0  0  0  0  0  0  0  0
   -3.2674   22.2337  -33.4447 H   0  0  0  0  0  0  0  0  0  0  0  0
   -1.0927   21.5808  -33.1076 H   0  0  0  0  0  0  0  0  0  0  0  0
    0.6244   19.7729  -32.7692 H   0  0  0  0  0  0  0  0  0  0  0  0
    0.9420   16.9382  -32.6024 H   0  0  0  0  0  0  0  0  0  0  0  0
   -2.3530   13.5090  -33.5310 H   0  0  0  0  0  0  0  0  0  0  0  0
   -7.3563   15.3230  -33.2934 H   0  0  0  0  0  0  0  0  0  0  0  0
   -7.6795   16.2499  -34.7978 H   0  0  0  0  0  0  0  0  0  0  0  0
   -6.4541   14.9364  -34.7978 H   0  0  0  0  0  0  0  0  0  0  0  0
   -6.1750   18.9020  -33.7838 H   0  0  0  0  0  0  0  0  0  0  0  0
   -5.1689   18.3351  -35.1597 H   0  0  0  0  0  0  0  0  0  0  0  0
   -6.9404   18.0373  -35.1597 H   0  0  0  0  0  0  0  0  0  0  0  0
   -5.6311   16.0588  -31.7693 H   0  0  0  0  0  0  0  0  0  0  0  0
   -5.1514   17.7725  -32.0132 H   0  0  0  0  0  0  0  0  0  0  0  0
   -6.8891   17.3176  -32.0132 H   0  0  0  0  0  0  0  0  0  0  0  0
   -4.2135   18.5493  -33.4247 H   0  0  0  0  0  0  0  0  0  0  0  0
   -7.5614   24.1545  -32.1594 H   0  0  0  0  0  0  0  0  0  0  0  0
   -6.6848   22.7811  -32.9992 H   0  0  0  0  0  0  0  0  0  0  0  0
   -7.8406   21.9332  -30.4704 H   0  0  0  0  0  0  0  0  0  0  0  0
   -9.0822   22.6303  -31.6091 H   0  0  0  0  0  0  0  0  0  0  0  0
   -7.6794   21.2255  -33.2645 H   0  0  0  0  0  0  0  0  0  0  0  0
   -6.6908   19.1634  -32.1225 H   0  0  0  0  0  0  0  0  0  0  0  0
   -6.9792   19.8303  -30.6148 H   0  0  0  0  0  0  0  0  0  0  0  0
   -8.8214   18.0197  -32.2077 H   0  0  0  0  0  0  0  0  0  0  0  0
   -9.2840   18.5570  -30.6916 H   0  0  0  0  0  0  0  0  0  0  0  0
   -9.8310   19.9000  -33.3415 H   0  0  0  0  0  0  0  0  0  0  0  0
  -10.3514   20.6218  -31.9225 H   0  0  0  0  0  0  0  0  0  0  0  0
  1  2  1  0
  2  3  1  0
  2  4  1  0
  2  5  1  0
  5  6  1  0
  6  7  2  0
  6  8  1  0
  8  9  1  0
  9 10  1  0
 10 11  1  0
 11 12  2  0
 12 13  1  0
 13 14  2  0
 14 15  1  0
 15 16  2  0
  9 17  1  0
 17 18  1  0
 17 19  1  0
 19 20  1  0
 20 21  1  0
 21 22  1  0
 22 23  1  0
 23 24  2  0
 24 25  1  0
 25 26  2  0
 26 27  1  0
 27 28  2  0
 28 29  1  0
 29 30  1  0
 29 31  2  0
 28 32  1  0
 32 33  1  0
 33 34  2  0
 33 35  1  0
 35 36  1  0
 36 37  1  0
 36 38  1  0
 36 39  1  0
 32 40  1  0
 40 41  2  0
 20 42  1  0
 42 43  2  0
 42 44  2  0
 42 45  1  0
 45 46  1  0
 46 47  1  0
 47 48  1  0
 48 49  1  0
 49 50  1  0
 16 11  1  0
 41 23  1  0
 50 47  1  0
 40 26  1  0
  1 51  1  0
  1 52  1  0
  1 53  1  0
  3 54  1  0
  3 55  1  0
  3 56  1  0
  4 57  1  0
  4 58  1  0
  4 59  1  0
  9 60  1  6
 10 61  1  0
 10 62  1  0
 12 63  1  0
 13 64  1  0
 14 65  1  0
 15 66  1  0
 16 67  1  0
 17 68  1  1
 18 69  1  0
 19 70  1  0
 19 71  1  0
 21 72  1  0
 21 73  1  0
 22 74  1  0
 22 75  1  0
 24 76  1  0
 25 77  1  0
 27 78  1  0
 30 79  1  0
 37 80  1  0
 37 81  1  0
 37 82  1  0
 38 83  1  0
 38 84  1  0
 38 85  1  0
 39 86  1  0
 39 87  1  0
 39 88  1  0
 41 89  1  0
 45 90  1  0
 45 91  1  0
 46 92  1  0
 46 93  1  0
 47 94  1  0
 48 95  1  0
 48 96  1  0
 49 97  1  0
 49 98  1  0
 50 99  1  0
 50100  1  0
M  CHG  2   8  -1  30  -1
M  END
>  <UniqueID>  (20) 
20

>  <SMILES>  (20) 
CC(C)(C)OC(=O)[N-][C@H](Cc1ccccc1)[C@H](O)CN(CCc1ccc2cc(C([NH-])=O)n(C(=O)OC(C)(C)C)c2c1)S(=O)(=O)CCC1CCC1

>  <Energy>  (20) 
180.8927232480044

>  <Genealogy>  (20) 
CC(C)(C)OC(=O)[N-]C(Cc1ccccc1)C(O)CN(CCc1ccc2cc(C([NH-])=O)n(C(=O)OC(C)(C)C)c2c1)S(=O)(=O)CCC1CCC1 (protonated)
CC(C)(C)OC(=O)[N-][C@H](Cc1ccccc1)[C@H](O)CN(CCc1ccc2cc(C([NH-])=O)n(C(=O)OC(C)(C)C)c2c1)S(=O)(=O)CCC1CCC1 (chirality)
CC(C)(C)OC(=O)[N-][C@H](Cc1ccccc1)[C@H](O)CN(CCc1ccc2cc(C([NH-])=O)n(C(=O)OC(C)(C)C)c2c1)S(=O)(=O)CCC1CCC1 (3D coordinates assigned)
CC(C)(C)OC(=O)[N-][C@H](Cc1ccccc1)[C@H](O)CN(CCc1ccc2cc(C([NH-])=O)n(C(=O)OC(C)(C)C)c2c1)S(=O)(=O)CCC1CCC1 (nonaromatic ring conformer: 180.8927232480044 kcal/mol)

>  <smiles>  (20) 
CC(C)(C)OC(=O)NC(Cc1ccccc1)C(O)CN(CCc1ccc2cc(C(N)=O)n(C(=O)OC(C)(C)C)c2c1)S(=O)(=O)CCC1CCC1

>  <score_type>  (20) 
oracle

>  <origin>  (20) 
adg

>  <m_score__min__energy>  (20) 
-13.08

>  <m_primary>  (20) 
energy

$$$$
20:0
     RDKit          3D

 75 79  0  0  0  0  0  0  0  0999 V2000
   -2.3000   25.3060  -29.3300 N   0  0  0  0  0  0  0  0  0  0  0  0
   -2.5730   24.2710  -28.3890 C   0  0  0  0  0  0  0  0  0  0  0  0
   -2.5100   24.5210  -27.1560 O   0  0  0  0  0  0  0  0  0  0  0  0
   -2.9100   22.8800  -28.8550 C   0  0  1  0  0  0  0  0  0  0  0  0
   -4.2910   22.8170  -29.3260 N   0  0  0  0  0  0  0  0  0  0  0  0
   -4.8710   23.7010  -30.2930 C   0  0  0  0  0  0  0  0  0  0  0  0
   -4.1350   24.4980  -30.9370 O   0  0  0  0  0  0  0  0  0  0  0  0
   -6.3780   23.7370  -30.4560 C   0  0  0  0  0  0  0  0  0  0  0  0
   -7.0230   22.5100  -29.7620 C   0  0  0  0  0  0  0  0  0  0  0  0
   -8.4090   22.2000  -30.3440 C   0  0  0  0  0  0  0  0  0  0  0  0
   -8.3690   21.8990  -31.7980 N   0  0  0  0  0  0  0  0  0  0  0  0
   -8.4420   20.1790  -32.0980 S   0  0  0  0  0  0  0  0  0  0  0  0
   -8.8830   19.4720  -30.8470 O   0  0  0  0  0  0  0  0  0  0  0  0
   -9.4540   19.8980  -33.1750 O   0  0  0  0  0  0  0  0  0  0  0  0
   -6.8690   19.5550  -32.6000 C   0  0  0  0  0  0  0  0  0  0  0  0
   -5.9560   19.0800  -31.6480 C   0  0  0  0  0  0  0  0  0  0  0  0
   -4.6740   18.6790  -32.0380 C   0  0  0  0  0  0  0  0  0  0  0  0
   -4.2860   18.7470  -33.3880 C   0  0  0  0  0  0  0  0  0  0  0  0
   -2.9100   18.3710  -33.8060 C   0  0  0  0  0  0  0  0  0  0  0  0
   -2.4880   17.0180  -33.7560 C   0  0  0  0  0  0  0  0  0  0  0  0
   -1.1830   16.6560  -34.1230 C   0  0  0  0  0  0  0  0  0  0  0  0
   -0.3170   17.6650  -34.5360 C   0  0  0  0  0  0  0  0  0  0  0  0
    0.9860   17.5830  -34.9660 C   0  0  0  0  0  0  0  0  0  0  0  0
    1.3440   18.8850  -35.2900 C   0  0  0  0  0  0  0  0  0  0  0  0
    2.6550   19.2380  -35.8570 C   0  0  0  0  0  0  0  0  0  0  0  0
    3.2430   20.5060  -35.5790 N   0  0  0  0  0  0  0  0  0  0  0  0
    3.2120   18.4560  -36.6720 O   0  0  0  0  0  0  0  0  0  0  0  0
    0.3190   19.7550  -35.0460 N   0  0  0  0  0  0  0  0  0  0  0  0
    0.3620   21.1960  -35.1370 C   0  0  0  0  0  0  0  0  0  0  0  0
    0.8380   21.8840  -34.1980 O   0  0  0  0  0  0  0  0  0  0  0  0
   -0.1710   21.8590  -36.2360 O   0  0  0  0  0  0  0  0  0  0  0  0
   -0.6970   18.9830  -34.5900 C   0  0  0  0  0  0  0  0  0  0  0  0
   -2.0020   19.3650  -34.2430 C   0  0  0  0  0  0  0  0  0  0  0  0
   -5.2180   19.1980  -34.3410 C   0  0  0  0  0  0  0  0  0  0  0  0
   -6.4980   19.5940  -33.9490 C   0  0  0  0  0  0  0  0  0  0  0  0
   -7.2240   22.5000  -32.5200 C   0  0  0  0  0  0  0  0  0  0  0  0
   -6.8390   23.8630  -31.9350 C   0  0  0  0  0  0  0  0  0  0  0  0
   -1.9360   22.3970  -29.9670 C   0  0  0  0  0  0  0  0  0  0  0  0
   -0.5180   22.1140  -29.3910 C   0  0  0  0  0  0  0  0  0  0  0  0
   -0.3060   20.6310  -29.0510 C   0  0  0  0  0  0  0  0  0  0  0  0
   -0.5080   19.7090  -30.2750 C   0  0  0  0  0  0  0  0  0  0  0  0
   -1.3840   20.3350  -31.3760 C   0  0  0  0  0  0  0  0  0  0  0  0
   -2.5010   21.1870  -30.7650 C   0  0  0  0  0  0  0  0  0  0  0  0
   -1.3480   25.4190  -29.7450 H   0  0  0  0  0  0  0  0  0  0  0  0
   -2.7971   22.2051  -27.9937 H   0  0  0  0  0  0  0  0  0  0  0  0
   -6.7294   24.6542  -29.9608 H   0  0  0  0  0  0  0  0  0  0  0  0
   -6.3715   21.6352  -29.9044 H   0  0  0  0  0  0  0  0  0  0  0  0
   -7.1408   22.7401  -28.6928 H   0  0  0  0  0  0  0  0  0  0  0  0
   -8.8250   21.3291  -29.8162 H   0  0  0  0  0  0  0  0  0  0  0  0
   -9.0328   23.0958  -30.2085 H   0  0  0  0  0  0  0  0  0  0  0  0
   -6.2492   19.0224  -30.5894 H   0  0  0  0  0  0  0  0  0  0  0  0
   -3.9645   18.3080  -31.2837 H   0  0  0  0  0  0  0  0  0  0  0  0
   -3.1935   16.2416  -33.4249 H   0  0  0  0  0  0  0  0  0  0  0  0
   -0.8541   15.6070  -34.0856 H   0  0  0  0  0  0  0  0  0  0  0  0
    1.6106   16.6804  -35.0380 H   0  0  0  0  0  0  0  0  0  0  0  0
    2.7520   21.1950  -34.9670 H   0  0  0  0  0  0  0  0  0  0  0  0
    4.1560   20.7760  -36.0080 H   0  0  0  0  0  0  0  0  0  0  0  0
   -2.3136   20.4178  -34.3094 H   0  0  0  0  0  0  0  0  0  0  0  0
   -4.9357   19.2388  -35.4034 H   0  0  0  0  0  0  0  0  0  0  0  0
   -7.2192   19.9387  -34.7047 H   0  0  0  0  0  0  0  0  0  0  0  0
   -6.3602   21.8230  -32.4454 H   0  0  0  0  0  0  0  0  0  0  0  0
   -7.5190   22.6476  -33.5694 H   0  0  0  0  0  0  0  0  0  0  0  0
   -6.0180   24.2888  -32.5305 H   0  0  0  0  0  0  0  0  0  0  0  0
   -7.7242   24.5153  -31.9668 H   0  0  0  0  0  0  0  0  0  0  0  0
   -1.8367   23.2188  -30.6914 H   0  0  0  0  0  0  0  0  0  0  0  0
    0.2323   22.4156  -30.1367 H   0  0  0  0  0  0  0  0  0  0  0  0
   -0.4154   22.6885  -28.4586 H   0  0  0  0  0  0  0  0  0  0  0  0
    0.7190   20.4983  -28.6746 H   0  0  0  0  0  0  0  0  0  0  0  0
   -1.0538   20.3511  -28.2944 H   0  0  0  0  0  0  0  0  0  0  0  0
    0.4783   19.4780  -30.7038 H   0  0  0  0  0  0  0  0  0  0  0  0
   -1.0290   18.8078  -29.9195 H   0  0  0  0  0  0  0  0  0  0  0  0
   -0.7564   20.9703  -32.0183 H   0  0  0  0  0  0  0  0  0  0  0  0
   -1.8404   19.5261  -31.9654 H   0  0  0  0  0  0  0  0  0  0  0  0
   -3.1443   21.5635  -31.5740 H   0  0  0  0  0  0  0  0  0  0  0  0
   -3.0703   20.5544  -30.0680 H   0  0  0  0  0  0  0  0  0  0  0  0
  1  2  1  0
  2  3  2  0
  2  4  1  0
  4  5  1  0
  5  6  1  0
  6  7  2  0
  6  8  1  0
  8  9  1  0
  9 10  1  0
 10 11  1  0
 11 12  1  0
 12 13  2  0
 12 14  2  0
 12 15  1  0
 15 16  2  0
 16 17  1  0
 17 18  2  0
 18 19  1  0
 19 20  2  0
 20 21  1  0
 21 22  2  0
 22 23  1  0
 23 24  2  0
 24 25  1  0
 25 26  1  0
 25 27  2  0
 24 28  1  0
 28 29  1  0
 29 30  2  0
 29 31  1  0
 28 32  1  0
 32 33  2  0
 18 34  1  0
 34 35  2  0
 11 36  1  0
 36 37  1  0
  4 38  1  0
 38 39  1  0
 39 40  1  0
 40 41  1  0
 41 42  1  0
 42 43  1  0
 37  8  1  0
 43 38  1  0
 35 15  1  0
 33 19  1  0
 32 22  1  0
  1 44  1  0
  4 45  1  1
  8 46  1  0
  9 47  1  0
  9 48  1  0
 10 49  1  0
 10 50  1  0
 16 51  1  0
 17 52  1  0
 20 53  1  0
 21 54  1  0
 23 55  1  0
 26 56  1  0
 26 57  1  0
 33 58  1  0
 34 59  1  0
 35 60  1  0
 36 61  1  0
 36 62  1  0
 37 63  1  0
 37 64  1  0
 38 65  1  0
 39 66  1  0
 39 67  1  0
 40 68  1  0
 40 69  1  0
 41 70  1  0
 41 71  1  0
 42 72  1  0
 42 73  1  0
 43 74  1  0
 43 75  1  0
M  CHG  3   1  -1   5  -1  31  -1
M  END
>  <UniqueID>  (21) 
21

>  <SMILES>  (21) 
[NH-]C(=O)[C@@H]([N-]C(=O)C1CCN(S(=O)(=O)c2ccc(-c3ccc4cc(C(N)=O)n(C(=O)[O-])c4c3)cc2)CC1)C1CCCCC1

>  <Energy>  (21) 
128.62092012904884

>  <Genealogy>  (21) 
[NH-]C(=O)[C@@H]([N-]C(=O)C1CCN(S(=O)(=O)c2ccc(-c3ccc4cc(C(N)=O)n(C(=O)[O-])c4c3)cc2)CC1)C1CCCCC1 (protonated)
[NH-]C(=O)[C@@H]([N-]C(=O)C1CCN(S(=O)(=O)c2ccc(-c3ccc4cc(C(N)=O)n(C(=O)[O-])c4c3)cc2)CC1)C1CCCCC1 (3D coordinates assigned)
[NH-]C(=O)[C@@H]([N-]C(=O)C1CCN(S(=O)(=O)c2ccc(-c3ccc4cc(C(N)=O)n(C(=O)[O-])c4c3)cc2)CC1)C1CCCCC1 (nonaromatic ring conformer: 128.62092012904884 kcal/mol)

>  <smiles>  (21) 
NC(=O)c1cc2ccc(-c3ccc(S(=O)(=O)N4CCC(C(=O)N[C@H](C(N)=O)C5CCCCC5)CC4)cc3)cc2n1C(=O)O

>  <score_type>  (21) 
oracle

>  <origin>  (21) 
adg

>  <m_score__min__energy>  (21) 
-15.800000000000001

>  <m_primary>  (21) 
energy

$$$$
21:0
     RDKit          3D

 55 58  0  0  0  0  0  0  0  0999 V2000
   -4.5740   12.2280  -36.2410 C   0  0  0  0  0  0  0  0  0  0  0  0
   -3.6090   13.0840  -35.6380 O   0  0  0  0  0  0  0  0  0  0  0  0
   -3.8920   14.3580  -35.1210 C   0  0  0  0  0  0  0  0  0  0  0  0
   -2.9350   15.3900  -35.0930 C   0  0  0  0  0  0  0  0  0  0  0  0
   -3.2620   16.6440  -34.5690 C   0  0  0  0  0  0  0  0  0  0  0  0
   -4.5470   16.8860  -34.0640 C   0  0  0  0  0  0  0  0  0  0  0  0
   -4.8830   18.1420  -33.5370 C   0  0  0  0  0  0  0  0  0  0  0  0
   -6.1730   18.3830  -33.0290 C   0  0  0  0  0  0  0  0  0  0  0  0
   -6.5210   19.7120  -32.4620 C   0  0  0  0  0  0  0  0  0  0  0  0
   -7.8780   20.0670  -32.2380 C   0  0  0  0  0  0  0  0  0  0  0  0
   -8.2120   21.3170  -31.6920 C   0  0  0  0  0  0  0  0  0  0  0  0
   -7.1780   22.1970  -31.3900 C   0  0  0  0  0  0  0  0  0  0  0  0
   -7.2190   23.4540  -30.8300 C   0  0  0  0  0  0  0  0  0  0  0  0
   -5.8910   23.8630  -30.7490 C   0  0  0  0  0  0  0  0  0  0  0  0
   -5.4780   25.1940  -30.2600 C   0  0  0  0  0  0  0  0  0  0  0  0
   -6.1530   25.8260  -29.1710 N   0  0  0  0  0  0  0  0  0  0  0  0
   -4.4780   25.7590  -30.7770 O   0  0  0  0  0  0  0  0  0  0  0  0
   -5.0590   22.8950  -31.2260 N   0  0  0  0  0  0  0  0  0  0  0  0
   -3.6230   22.8930  -31.2300 C   0  0  0  0  0  0  0  0  0  0  0  0
   -3.0000   22.2130  -32.0890 O   0  0  0  0  0  0  0  0  0  0  0  0
   -2.9310   23.6550  -30.2760 O   0  0  0  0  0  0  0  0  0  0  0  0
   -2.6610   23.2830  -28.9180 C   0  0  0  0  0  0  0  0  0  0  0  0
   -2.4580   24.5350  -28.0440 C   0  0  0  0  0  0  0  0  0  0  0  0
   -1.3620   22.4640  -28.9260 C   0  0  0  0  0  0  0  0  0  0  0  0
   -3.7980   22.4060  -28.3610 C   0  0  0  0  0  0  0  0  0  0  0  0
   -5.8630   21.8820  -31.6180 C   0  0  0  0  0  0  0  0  0  0  0  0
   -5.4990   20.6330  -32.1350 C   0  0  0  0  0  0  0  0  0  0  0  0
   -7.1250   17.3490  -33.0610 C   0  0  0  0  0  0  0  0  0  0  0  0
   -6.7990   16.0960  -33.5870 C   0  0  0  0  0  0  0  0  0  0  0  0
   -5.5130   15.8540  -34.0900 C   0  0  0  0  0  0  0  0  0  0  0  0
   -5.1770   14.5990  -34.6180 C   0  0  0  0  0  0  0  0  0  0  0  0
   -5.1510   11.7161  -35.4568 H   0  0  0  0  0  0  0  0  0  0  0  0
   -5.2542   12.8252  -36.8660 H   0  0  0  0  0  0  0  0  0  0  0  0
   -4.0622   11.4814  -36.8660 H   0  0  0  0  0  0  0  0  0  0  0  0
   -1.9237   15.2085  -35.4859 H   0  0  0  0  0  0  0  0  0  0  0  0
   -2.5076   17.4444  -34.5529 H   0  0  0  0  0  0  0  0  0  0  0  0
   -4.1317   18.9453  -33.5207 H   0  0  0  0  0  0  0  0  0  0  0  0
   -8.6761   19.3549  -32.4950 H   0  0  0  0  0  0  0  0  0  0  0  0
   -9.2611   21.5922  -31.5084 H   0  0  0  0  0  0  0  0  0  0  0  0
   -8.1107   24.0152  -30.5141 H   0  0  0  0  0  0  0  0  0  0  0  0
   -5.8740   26.7850  -28.8680 H   0  0  0  0  0  0  0  0  0  0  0  0
   -6.8680   25.3140  -28.6100 H   0  0  0  0  0  0  0  0  0  0  0  0
   -2.5039   24.2522  -26.9820 H   0  0  0  0  0  0  0  0  0  0  0  0
   -1.4760   24.9797  -28.2629 H   0  0  0  0  0  0  0  0  0  0  0  0
   -3.2492   25.2672  -28.2629 H   0  0  0  0  0  0  0  0  0  0  0  0
   -1.0473   22.2656  -27.8908 H   0  0  0  0  0  0  0  0  0  0  0  0
   -1.5331   21.5101  -29.4464 H   0  0  0  0  0  0  0  0  0  0  0  0
   -0.5751   23.0296  -29.4464 H   0  0  0  0  0  0  0  0  0  0  0  0
   -3.7717   22.4263  -27.2615 H   0  0  0  0  0  0  0  0  0  0  0  0
   -4.7657   22.7938  -28.7118 H   0  0  0  0  0  0  0  0  0  0  0  0
   -3.6686   21.3715  -28.7118 H   0  0  0  0  0  0  0  0  0  0  0  0
   -4.4404   20.3735  -32.2837 H   0  0  0  0  0  0  0  0  0  0  0  0
   -8.1367   17.5280  -32.6680 H   0  0  0  0  0  0  0  0  0  0  0  0
   -7.5543   15.2966  -33.6064 H   0  0  0  0  0  0  0  0  0  0  0  0
   -5.9292   13.7967  -34.6373 H   0  0  0  0  0  0  0  0  0  0  0  0
  1  2  1  0
  2  3  1  0
  3  4  2  0
  4  5  1  0
  5  6  2  0
  6  7  1  0
  7  8  2  0
  8  9  1  0
  9 10  2  0
 10 11  1  0
 11 12  2  0
 12 13  1  0
 13 14  2  0
 14 15  1  0
 15 16  1  0
 15 17  2  0
 14 18  1  0
 18 19  1  0
 19 20  2  0
 19 21  1  0
 21 22  1  0
 22 23  1  0
 22 24  1  0
 22 25  1  0
 18 26  1  0
 26 27  2  0
  8 28  1  0
 28 29  2  0
 29 30  1  0
 30 31  2  0
 31  3  1  0
 30  6  1  0
 27  9  1  0
 26 12  1  0
  1 32  1  0
  1 33  1  0
  1 34  1  0
  4 35  1  0
  5 36  1  0
  7 37  1  0
 10 38  1  0
 11 39  1  0
 13 40  1  0
 16 41  1  0
 16 42  1  0
 23 43  1  0
 23 44  1  0
 23 45  1  0
 24 46  1  0
 24 47  1  0
 24 48  1  0
 25 49  1  0
 25 50  1  0
 25 51  1  0
 27 52  1  0
 28 53  1  0
 29 54  1  0
 31 55  1  0
M  END
>  <UniqueID>  (22) 
22

>  <SMILES>  (22) 
COc1ccc2cc(-c3ccc4cc(C(N)=O)n(C(=O)OC(C)(C)C)c4c3)ccc2c1

>  <Energy>  (22) 
100.58162539282226

>  <Genealogy>  (22) 
COc1ccc2cc(-c3ccc4cc(C(N)=O)n(C(=O)OC(C)(C)C)c4c3)ccc2c1 (3D coordinates assigned)
COc1ccc2cc(-c3ccc4cc(C(N)=O)n(C(=O)OC(C)(C)C)c4c3)ccc2c1 (optimized conformer: 100.58162539282226 kcal/mol)

>  <smiles>  (22) 
COc1ccc2cc(-c3ccc4cc(C(N)=O)n(C(=O)OC(C)(C)C)c4c3)ccc2c1

>  <score_type>  (22) 
oracle

>  <origin>  (22) 
adg

>  <m_score__min__energy>  (22) 
-10.369999999999999

>  <m_primary>  (22) 
energy

$$$$
22:0
     RDKit          3D

 58 61  0  0  0  0  0  0  0  0999 V2000
    0.3490   22.1080  -35.6440 C   0  0  0  0  0  0  0  0  0  0  0  0
    0.0370   21.4670  -34.4130 O   0  0  0  0  0  0  0  0  0  0  0  0
   -0.2030   20.0920  -34.3170 C   0  0  0  0  0  0  0  0  0  0  0  0
   -0.5290   19.4360  -35.3450 O   0  0  0  0  0  0  0  0  0  0  0  0
   -0.0300   19.3930  -33.0220 C   0  0  0  0  0  0  0  0  0  0  0  0
    0.6460   20.0600  -31.9820 C   0  0  0  0  0  0  0  0  0  0  0  0
    0.7670   19.4750  -30.7210 C   0  0  0  0  0  0  0  0  0  0  0  0
    0.2190   18.2190  -30.4780 C   0  0  0  0  0  0  0  0  0  0  0  0
   -0.4400   17.5330  -31.5000 C   0  0  0  0  0  0  0  0  0  0  0  0
   -0.5660   18.1010  -32.7840 C   0  0  0  0  0  0  0  0  0  0  0  0
   -1.1620   17.3420  -33.8550 N   0  0  0  0  0  0  0  0  0  0  0  0
   -1.7520   16.0170  -33.6750 C   0  0  0  0  0  0  0  0  0  0  0  0
   -1.9380   15.3330  -35.0350 C   0  0  0  0  0  0  0  0  0  0  0  0
   -3.4040   15.3190  -35.4850 C   0  0  0  0  0  0  0  0  0  0  0  0
   -4.2460   16.2430  -34.6570 C   0  0  0  0  0  0  0  0  0  0  0  0
   -5.1630   15.8590  -33.6880 C   0  0  0  0  0  0  0  0  0  0  0  0
   -5.7540   16.9400  -33.0220 C   0  0  0  0  0  0  0  0  0  0  0  0
   -5.3000   18.1880  -33.4610 C   0  0  0  0  0  0  0  0  0  0  0  0
   -5.7180   19.5220  -32.9520 C   0  0  0  0  0  0  0  0  0  0  0  0
   -7.0810   19.9210  -33.0370 C   0  0  0  0  0  0  0  0  0  0  0  0
   -7.4950   21.1810  -32.5760 C   0  0  0  0  0  0  0  0  0  0  0  0
   -6.5360   22.0210  -32.0220 C   0  0  0  0  0  0  0  0  0  0  0  0
   -6.6590   23.2980  -31.5250 C   0  0  0  0  0  0  0  0  0  0  0  0
   -5.3770   23.6620  -31.1190 C   0  0  0  0  0  0  0  0  0  0  0  0
   -5.0570   24.9510  -30.4700 C   0  0  0  0  0  0  0  0  0  0  0  0
   -3.8700   25.6520  -30.8340 N   0  0  0  0  0  0  0  0  0  0  0  0
   -5.8310   25.4530  -29.6130 O   0  0  0  0  0  0  0  0  0  0  0  0
   -4.4980   22.6470  -31.3550 N   0  0  0  0  0  0  0  0  0  0  0  0
   -3.0800   22.6480  -31.1180 C   0  0  0  0  0  0  0  0  0  0  0  0
   -2.1480   21.9300  -32.0390 C   0  0  0  0  0  0  0  0  0  0  0  0
   -2.6100   23.2690  -30.1270 O   0  0  0  0  0  0  0  0  0  0  0  0
   -5.2230   21.6520  -31.9100 C   0  0  0  0  0  0  0  0  0  0  0  0
   -4.7760   20.4120  -32.3800 C   0  0  0  0  0  0  0  0  0  0  0  0
   -4.1600   17.9200  -34.6780 S   0  0  0  0  0  0  0  0  0  0  0  0
    0.8222   23.0802  -35.4416 H   0  0  0  0  0  0  0  0  0  0  0  0
    1.0406   21.4767  -36.2212 H   0  0  0  0  0  0  0  0  0  0  0  0
   -0.5745   22.2628  -36.2212 H   0  0  0  0  0  0  0  0  0  0  0  0
    1.0832   21.0525  -32.1657 H   0  0  0  0  0  0  0  0  0  0  0  0
    1.2966   20.0076  -29.9174 H   0  0  0  0  0  0  0  0  0  0  0  0
    0.3052   17.7661  -29.4793 H   0  0  0  0  0  0  0  0  0  0  0  0
   -0.8656   16.5384  -31.3011 H   0  0  0  0  0  0  0  0  0  0  0  0
   -1.0870   17.7010  -34.8330 H   0  0  0  0  0  0  0  0  0  0  0  0
   -1.0870   15.4049  -33.0480 H   0  0  0  0  0  0  0  0  0  0  0  0
   -2.7329   16.1230  -33.1885 H   0  0  0  0  0  0  0  0  0  0  0  0
   -1.3427   15.8724  -35.7864 H   0  0  0  0  0  0  0  0  0  0  0  0
   -1.6075   14.2887  -34.9339 H   0  0  0  0  0  0  0  0  0  0  0  0
   -3.4571   15.6348  -36.5374 H   0  0  0  0  0  0  0  0  0  0  0  0
   -3.7916   14.2971  -35.3606 H   0  0  0  0  0  0  0  0  0  0  0  0
   -5.4020   14.8087  -33.4652 H   0  0  0  0  0  0  0  0  0  0  0  0
   -6.5052   16.8189  -32.2277 H   0  0  0  0  0  0  0  0  0  0  0  0
   -7.8213   19.2323  -33.4702 H   0  0  0  0  0  0  0  0  0  0  0  0
   -8.5468   21.4940  -32.6510 H   0  0  0  0  0  0  0  0  0  0  0  0
   -7.5753   23.9033  -31.4616 H   0  0  0  0  0  0  0  0  0  0  0  0
   -2.9290   25.3020  -30.5460 H   0  0  0  0  0  0  0  0  0  0  0  0
   -1.4129   21.3637  -31.4484 H   0  0  0  0  0  0  0  0  0  0  0  0
   -2.7206   21.2374  -32.6733 H   0  0  0  0  0  0  0  0  0  0  0  0
   -1.6244   22.6604  -32.6733 H   0  0  0  0  0  0  0  0  0  0  0  0
   -3.7143   20.1339  -32.3067 H   0  0  0  0  0  0  0  0  0  0  0  0
  1  2  1  0
  2  3  1  0
  3  4  2  0
  3  5  1  0
  5  6  2  0
  6  7  1  0
  7  8  2  0
  8  9  1  0
  9 10  2  0
 10 11  1  0
 11 12  1  0
 12 13  1  0
 13 14  1  0
 14 15  1  0
 15 16  2  0
 16 17  1  0
 17 18  2  0
 18 19  1  0
 19 20  2  0
 20 21  1  0
 21 22  2  0
 22 23  1  0
 23 24  2  0
 24 25  1  0
 25 26  1  0
 25 27  2  0
 24 28  1  0
 28 29  1  0
 29 30  1  0
 29 31  2  0
 28 32  1  0
 32 33  2  0
 18 34  1  0
 10  5  1  0
 34 15  1  0
 33 19  1  0
 32 22  1  0
  1 35  1  0
  1 36  1  0
  1 37  1  0
  6 38  1  0
  7 39  1  0
  8 40  1  0
  9 41  1  0
 11 42  1  0
 12 43  1  0
 12 44  1  0
 13 45  1  0
 13 46  1  0
 14 47  1  0
 14 48  1  0
 16 49  1  0
 17 50  1  0
 20 51  1  0
 21 52  1  0
 23 53  1  0
 26 54  1  0
 30 55  1  0
 30 56  1  0
 30 57  1  0
 33 58  1  0
M  CHG  1  26  -1
M  END
>  <UniqueID>  (23) 
23

>  <SMILES>  (23) 
COC(=O)c1ccccc1NCCCc1ccc(-c2ccc3cc(C([NH-])=O)n(C(C)=O)c3c2)s1

>  <Energy>  (23) 
126.76295130926772

>  <Genealogy>  (23) 
COC(=O)c1ccccc1NCCCc1ccc(-c2ccc3cc(C([NH-])=O)n(C(C)=O)c3c2)s1 (protonated)
COC(=O)c1ccccc1NCCCc1ccc(-c2ccc3cc(C([NH-])=O)n(C(C)=O)c3c2)s1 (3D coordinates assigned)
COC(=O)c1ccccc1NCCCc1ccc(-c2ccc3cc(C([NH-])=O)n(C(C)=O)c3c2)s1 (optimized conformer: 126.76295130926772 kcal/mol)

>  <smiles>  (23) 
COC(=O)c1ccccc1NCCCc1ccc(-c2ccc3cc(C(N)=O)n(C(C)=O)c3c2)s1

>  <score_type>  (23) 
oracle

>  <origin>  (23) 
adg

>  <m_score__min__energy>  (23) 
-10.81

>  <m_primary>  (23) 
energy

$$$$
23:0
     RDKit          3D

 46 49  0  0  0  0  0  0  0  0999 V2000
   -1.1870   25.5150  -29.1920 N   0  0  0  0  0  0  0  0  0  0  0  0
   -0.5500   24.2370  -29.1430 C   0  0  0  0  0  0  0  0  0  0  0  0
    0.5200   24.1100  -28.4910 O   0  0  0  0  0  0  0  0  0  0  0  0
   -1.1500   23.0660  -29.8220 C   0  0  0  0  0  0  0  0  0  0  0  0
   -0.4180   21.9910  -30.3270 C   0  0  0  0  0  0  0  0  0  0  0  0
   -1.3430   21.1730  -30.9360 C   0  0  0  0  0  0  0  0  0  0  0  0
   -1.1720   19.9540  -31.5850 C   0  0  0  0  0  0  0  0  0  0  0  0
   -2.3150   19.3060  -32.0840 C   0  0  0  0  0  0  0  0  0  0  0  0
   -3.6040   19.8800  -31.9220 C   0  0  0  0  0  0  0  0  0  0  0  0
   -4.8100   19.1790  -32.4290 C   0  0  0  0  0  0  0  0  0  0  0  0
   -4.9510   18.8960  -33.8010 C   0  0  0  0  0  0  0  0  0  0  0  0
   -6.0930   18.2440  -34.2760 C   0  0  0  0  0  0  0  0  0  0  0  0
   -7.1040   17.8670  -33.3900 C   0  0  0  0  0  0  0  0  0  0  0  0
   -6.9760   18.1400  -32.0260 C   0  0  0  0  0  0  0  0  0  0  0  0
   -5.8360   18.7920  -31.5460 C   0  0  0  0  0  0  0  0  0  0  0  0
   -3.7310   21.1240  -31.2620 C   0  0  0  0  0  0  0  0  0  0  0  0
   -2.5750   21.7530  -30.7910 C   0  0  0  0  0  0  0  0  0  0  0  0
   -2.4730   22.9170  -30.1140 N   0  0  0  0  0  0  0  0  0  0  0  0
   -3.5650   23.7610  -29.7210 C   0  0  0  0  0  0  0  0  0  0  0  0
   -4.2470   23.4750  -28.7000 O   0  0  0  0  0  0  0  0  0  0  0  0
   -3.8770   24.8870  -30.4910 O   0  0  0  0  0  0  0  0  0  0  0  0
   -5.2060   25.2260  -30.8810 C   0  0  0  0  0  0  0  0  0  0  0  0
   -6.0110   23.9730  -31.0870 C   0  0  0  0  0  0  0  0  0  0  0  0
   -6.8580   23.5080  -30.0650 C   0  0  0  0  0  0  0  0  0  0  0  0
   -7.6440   22.3690  -30.2670 C   0  0  0  0  0  0  0  0  0  0  0  0
   -7.5970   21.6930  -31.4880 C   0  0  0  0  0  0  0  0  0  0  0  0
   -6.7640   22.1550  -32.5110 C   0  0  0  0  0  0  0  0  0  0  0  0
   -5.9750   23.2930  -32.3150 C   0  0  0  0  0  0  0  0  0  0  0  0
   -0.7740   26.3250  -28.6770 H   0  0  0  0  0  0  0  0  0  0  0  0
   -2.0410   25.6780  -29.7690 H   0  0  0  0  0  0  0  0  0  0  0  0
    0.6678   21.8309  -30.2541 H   0  0  0  0  0  0  0  0  0  0  0  0
   -0.1723   19.5109  -31.7039 H   0  0  0  0  0  0  0  0  0  0  0  0
   -2.2101   18.3434  -32.6059 H   0  0  0  0  0  0  0  0  0  0  0  0
   -4.1575   19.1898  -34.5038 H   0  0  0  0  0  0  0  0  0  0  0  0
   -6.1951   18.0277  -35.3497 H   0  0  0  0  0  0  0  0  0  0  0  0
   -8.0018   17.3547  -33.7662 H   0  0  0  0  0  0  0  0  0  0  0  0
   -7.7729   17.8417  -31.3288 H   0  0  0  0  0  0  0  0  0  0  0  0
   -5.7401   19.0041  -30.4709 H   0  0  0  0  0  0  0  0  0  0  0  0
   -4.7189   21.5871  -31.1221 H   0  0  0  0  0  0  0  0  0  0  0  0
   -5.6736   25.8353  -30.0935 H   0  0  0  0  0  0  0  0  0  0  0  0
   -5.1746   25.7964  -31.8210 H   0  0  0  0  0  0  0  0  0  0  0  0
   -6.9024   24.0417  -29.1041 H   0  0  0  0  0  0  0  0  0  0  0  0
   -8.3003   22.0050  -29.4628 H   0  0  0  0  0  0  0  0  0  0  0  0
   -8.2155   20.7970  -31.6448 H   0  0  0  0  0  0  0  0  0  0  0  0
   -6.7289   21.6221  -33.4727 H   0  0  0  0  0  0  0  0  0  0  0  0
   -5.3248   23.6561  -33.1246 H   0  0  0  0  0  0  0  0  0  0  0  0
  1  2  1  0
  2  3  2  0
  2  4  1  0
  4  5  2  0
  5  6  1  0
  6  7  2  0
  7  8  1  0
  8  9  2  0
  9 10  1  0
 10 11  2  0
 11 12  1  0
 12 13  2  0
 13 14  1  0
 14 15  2  0
  9 16  1  0
 16 17  2  0
 17 18  1  0
 18 19  1  0
 19 20  2  0
 19 21  1  0
 21 22  1  0
 22 23  1  0
 23 24  2  0
 24 25  1  0
 25 26  2  0
 26 27  1  0
 27 28  2  0
 18  4  1  0
 28 23  1  0
 17  6  1  0
 15 10  1  0
  1 29  1  0
  1 30  1  0
  5 31  1  0
  7 32  1  0
  8 33  1  0
 11 34  1  0
 12 35  1  0
 13 36  1  0
 14 37  1  0
 15 38  1  0
 16 39  1  0
 22 40  1  0
 22 41  1  0
 24 42  1  0
 25 43  1  0
 26 44  1  0
 27 45  1  0
 28 46  1  0
M  END
>  <UniqueID>  (24) 
24

>  <SMILES>  (24) 
NC(=O)c1cc2ccc(-c3ccccc3)cc2n1C(=O)OCc1ccccc1

>  <Energy>  (24) 
90.92219643929238

>  <Genealogy>  (24) 
NC(=O)c1cc2ccc(-c3ccccc3)cc2n1C(=O)OCc1ccccc1 (3D coordinates assigned)
NC(=O)c1cc2ccc(-c3ccccc3)cc2n1C(=O)OCc1ccccc1 (optimized conformer: 90.92219643929238 kcal/mol)

>  <smiles>  (24) 
NC(=O)c1cc2ccc(-c3ccccc3)cc2n1C(=O)OCc1ccccc1

>  <score_type>  (24) 
oracle

>  <origin>  (24) 
adg

>  <m_score__min__energy>  (24) 
-10.800000000000001

>  <m_primary>  (24) 
energy

$$$$
24:0
     RDKit          3D

 25 26  0  0  0  0  0  0  0  0999 V2000
   -4.1090   19.2260  -33.4530 C   0  0  0  0  0  0  0  0  0  0  0  0
   -5.0050   20.3020  -32.9170 C   0  0  0  0  0  0  0  0  0  0  0  0
   -6.4060   20.2150  -33.1010 C   0  0  0  0  0  0  0  0  0  0  0  0
   -7.2580   21.2060  -32.5850 C   0  0  0  0  0  0  0  0  0  0  0  0
   -6.6830   22.2540  -31.8720 C   0  0  0  0  0  0  0  0  0  0  0  0
   -7.2700   23.3550  -31.2940 C   0  0  0  0  0  0  0  0  0  0  0  0
   -6.2220   24.0730  -30.7240 C   0  0  0  0  0  0  0  0  0  0  0  0
   -6.4190   25.3090  -29.9420 C   0  0  0  0  0  0  0  0  0  0  0  0
   -5.6560   26.4860  -30.2130 N   0  0  0  0  0  0  0  0  0  0  0  0
   -7.2340   25.3110  -28.9800 O   0  0  0  0  0  0  0  0  0  0  0  0
   -5.0310   23.4520  -30.9510 N   0  0  0  0  0  0  0  0  0  0  0  0
   -3.7170   23.9350  -30.6230 C   0  0  0  0  0  0  0  0  0  0  0  0
   -2.7600   23.1280  -30.4780 O   0  0  0  0  0  0  0  0  0  0  0  0
   -3.4850   25.2950  -30.4590 O   0  0  0  0  0  0  0  0  0  0  0  0
   -5.3310   22.3350  -31.6540 C   0  0  0  0  0  0  0  0  0  0  0  0
   -4.4570   21.3730  -32.1770 C   0  0  0  0  0  0  0  0  0  0  0  0
   -3.6526   18.6779  -32.6155 H   0  0  0  0  0  0  0  0  0  0  0  0
   -4.6987   18.5306  -34.0684 H   0  0  0  0  0  0  0  0  0  0  0  0
   -3.3183   19.6800  -34.0684 H   0  0  0  0  0  0  0  0  0  0  0  0
   -6.8314   19.3639  -33.6529 H   0  0  0  0  0  0  0  0  0  0  0  0
   -8.3459   21.1552  -32.7397 H   0  0  0  0  0  0  0  0  0  0  0  0
   -8.3392   23.6133  -31.2841 H   0  0  0  0  0  0  0  0  0  0  0  0
   -5.8360   27.3630  -29.6750 H   0  0  0  0  0  0  0  0  0  0  0  0
   -4.8580   26.4680  -30.8850 H   0  0  0  0  0  0  0  0  0  0  0  0
   -3.3716   21.4498  -32.0154 H   0  0  0  0  0  0  0  0  0  0  0  0
  1  2  1  0
  2  3  2  0
  3  4  1  0
  4  5  2  0
  5  6  1  0
  6  7  2  0
  7  8  1  0
  8  9  1  0
  8 10  2  0
  7 11  1  0
 11 12  1  0
 12 13  2  0
 12 14  1  0
 11 15  1  0
 15 16  2  0
 16  2  1  0
 15  5  1  0
  1 17  1  0
  1 18  1  0
  1 19  1  0
  3 20  1  0
  4 21  1  0
  6 22  1  0
  9 23  1  0
  9 24  1  0
 16 25  1  0
M  CHG  1  14  -1
M  END
>  <UniqueID>  (25) 
25

>  <SMILES>  (25) 
Cc1ccc2cc(C(N)=O)n(C(=O)[O-])c2c1

>  <Energy>  (25) 
64.9479714419803

>  <Genealogy>  (25) 
Cc1ccc2cc(C(N)=O)n(C(=O)[O-])c2c1 (protonated)
Cc1ccc2cc(C(N)=O)n(C(=O)[O-])c2c1 (3D coordinates assigned)
Cc1ccc2cc(C(N)=O)n(C(=O)[O-])c2c1 (optimized conformer: 64.9479714419803 kcal/mol)

>  <smiles>  (25) 
Cc1ccc2cc(C(N)=O)n(C(=O)O)c2c1

>  <score_type>  (25) 
oracle

>  <origin>  (25) 
adg

>  <m_score__min__energy>  (25) 
-8.0399999999999991

>  <m_primary>  (25) 
energy

$$$$
25:0
     RDKit          3D

 43 45  0  0  0  0  0  0  0  0999 V2000
   -1.7510   20.8050  -33.8410 C   0  0  0  0  0  0  0  0  0  0  0  0
   -3.0760   20.6080  -33.0880 C   0  0  0  0  0  0  0  0  0  0  0  0
   -2.7680   20.1260  -31.6570 C   0  0  0  0  0  0  0  0  0  0  0  0
   -3.9270   19.5680  -33.8410 C   0  0  0  0  0  0  0  0  0  0  0  0
   -3.7390   21.8800  -33.0600 O   0  0  0  0  0  0  0  0  0  0  0  0
   -3.9550   22.6810  -31.9280 C   0  0  0  0  0  0  0  0  0  0  0  0
   -2.9860   23.1190  -31.2500 O   0  0  0  0  0  0  0  0  0  0  0  0
   -5.2970   23.0260  -31.5520 N   0  0  0  0  0  0  0  0  0  0  0  0
   -5.7160   24.1360  -30.8820 C   0  0  0  0  0  0  0  0  0  0  0  0
   -4.8800   25.3010  -30.5250 C   0  0  0  0  0  0  0  0  0  0  0  0
   -3.5210   25.1070  -30.1390 N   0  0  0  0  0  0  0  0  0  0  0  0
   -5.3630   26.4640  -30.5200 O   0  0  0  0  0  0  0  0  0  0  0  0
   -7.0860   24.0700  -30.6370 C   0  0  0  0  0  0  0  0  0  0  0  0
   -7.4990   22.8800  -31.1880 C   0  0  0  0  0  0  0  0  0  0  0  0
   -8.7620   22.2950  -31.2170 C   0  0  0  0  0  0  0  0  0  0  0  0
   -8.8910   21.0350  -31.8260 C   0  0  0  0  0  0  0  0  0  0  0  0
   -7.7690   20.3890  -32.3990 C   0  0  0  0  0  0  0  0  0  0  0  0
   -7.9310   19.0850  -32.9790 N   0  0  0  0  0  0  0  0  0  0  0  0
   -6.9220   18.0630  -32.9660 C   0  0  0  0  0  0  0  0  0  0  0  0
   -6.3420   17.6010  -31.7760 C   0  0  0  0  0  0  0  0  0  0  0  0
   -5.4230   16.5790  -31.9660 C   0  0  0  0  0  0  0  0  0  0  0  0
   -5.3540   16.2400  -33.6100 S   0  0  0  0  0  0  0  0  0  0  0  0
   -6.4810   17.3850  -34.1020 C   0  0  0  0  0  0  0  0  0  0  0  0
   -6.4970   21.0040  -32.3290 C   0  0  0  0  0  0  0  0  0  0  0  0
   -6.4010   22.2670  -31.7350 C   0  0  0  0  0  0  0  0  0  0  0  0
   -0.9322   20.9267  -33.1166 H   0  0  0  0  0  0  0  0  0  0  0  0
   -1.5541   19.9263  -34.4727 H   0  0  0  0  0  0  0  0  0  0  0  0
   -1.8183   21.7030  -34.4727 H   0  0  0  0  0  0  0  0  0  0  0  0
   -3.2133   20.8228  -30.9316 H   0  0  0  0  0  0  0  0  0  0  0  0
   -3.1923   19.1220  -31.5090 H   0  0  0  0  0  0  0  0  0  0  0  0
   -1.6786   20.0892  -31.5090 H   0  0  0  0  0  0  0  0  0  0  0  0
   -4.4506   18.9281  -33.1155 H   0  0  0  0  0  0  0  0  0  0  0  0
   -4.6641   20.0854  -34.4726 H   0  0  0  0  0  0  0  0  0  0  0  0
   -3.2739   18.9478  -34.4726 H   0  0  0  0  0  0  0  0  0  0  0  0
   -2.7430   25.2640  -30.8180 H   0  0  0  0  0  0  0  0  0  0  0  0
   -7.7059   24.8127  -30.1135 H   0  0  0  0  0  0  0  0  0  0  0  0
   -9.6324   22.8035  -30.7767 H   0  0  0  0  0  0  0  0  0  0  0  0
   -9.8753   20.5449  -31.8579 H   0  0  0  0  0  0  0  0  0  0  0  0
   -8.8290   18.8750  -33.4700 H   0  0  0  0  0  0  0  0  0  0  0  0
   -6.5918   18.0099  -30.7859 H   0  0  0  0  0  0  0  0  0  0  0  0
   -4.8413   16.0783  -31.1780 H   0  0  0  0  0  0  0  0  0  0  0  0
   -6.8117   17.5672  -35.1352 H   0  0  0  0  0  0  0  0  0  0  0  0
   -5.6052   20.5015  -32.7317 H   0  0  0  0  0  0  0  0  0  0  0  0
  1  2  1  0
  2  3  1  0
  2  4  1  0
  2  5  1  0
  5  6  1  0
  6  7  2  0
  6  8  1  0
  8  9  1  0
  9 10  1  0
 10 11  1  0
 10 12  2  0
  9 13  2  0
 13 14  1  0
 14 15  2  0
 15 16  1  0
 16 17  2  0
 17 18  1  0
 18 19  1  0
 19 20  1  0
 20 21  2  0
 21 22  1  0
 22 23  1  0
 17 24  1  0
 24 25  2  0
 25  8  1  0
 25 14  1  0
 23 19  2  0
  1 26  1  0
  1 27  1  0
  1 28  1  0
  3 29  1  0
  3 30  1  0
  3 31  1  0
  4 32  1  0
  4 33  1  0
  4 34  1  0
 11 35  1  0
 13 36  1  0
 15 37  1  0
 16 38  1  0
 18 39  1  0
 20 40  1  0
 21 41  1  0
 23 42  1  0
 24 43  1  0
M  CHG  1  11  -1
M  END
>  <UniqueID>  (26) 
26

>  <SMILES>  (26) 
CC(C)(C)OC(=O)n1c(C([NH-])=O)cc2ccc(Nc3ccsc3)cc21

>  <Energy>  (26) 
108.80459037226598

>  <Genealogy>  (26) 
CC(C)(C)OC(=O)n1c(C([NH-])=O)cc2ccc(Nc3ccsc3)cc21 (protonated)
CC(C)(C)OC(=O)n1c(C([NH-])=O)cc2ccc(Nc3ccsc3)cc21 (3D coordinates assigned)
CC(C)(C)OC(=O)n1c(C([NH-])=O)cc2ccc(Nc3ccsc3)cc21 (optimized conformer: 108.80459037226598 kcal/mol)

>  <smiles>  (26) 
CC(C)(C)OC(=O)n1c(C(N)=O)cc2ccc(Nc3ccsc3)cc21

>  <score_type>  (26) 
oracle

>  <origin>  (26) 
adg

>  <m_score__min__energy>  (26) 
-11.31

>  <m_primary>  (26) 
energy

$$$$
26:0
     RDKit          3D

 57 59  0  0  0  0  0  0  0  0999 V2000
   -4.2390   13.3060  -31.1080 C   0  0  0  0  0  0  0  0  0  0  0  0
   -3.1630   13.4320  -32.1810 C   0  0  0  0  0  0  0  0  0  0  0  0
   -3.7020   14.0080  -33.3710 O   0  0  0  0  0  0  0  0  0  0  0  0
   -5.0580   14.3250  -33.5350 C   0  0  0  0  0  0  0  0  0  0  0  0
   -5.9280   13.4100  -33.5310 O   0  0  0  0  0  0  0  0  0  0  0  0
   -5.4510   15.6990  -33.7180 N   0  0  0  0  0  0  0  0  0  0  0  0
   -4.4050   16.7310  -33.7400 C   0  0  0  0  0  0  0  0  0  0  0  0
   -4.9740   18.1140  -34.0710 C   0  0  0  0  0  0  0  0  0  0  0  0
   -6.1830   18.3710  -33.2760 N   0  0  0  0  0  0  0  0  0  0  0  0
   -6.4490   19.6990  -32.7780 C   0  0  0  0  0  0  0  0  0  0  0  0
   -7.7850   20.1570  -32.6390 C   0  0  0  0  0  0  0  0  0  0  0  0
   -8.0560   21.4380  -32.1330 C   0  0  0  0  0  0  0  0  0  0  0  0
   -6.9780   22.2430  -31.7790 C   0  0  0  0  0  0  0  0  0  0  0  0
   -6.9560   23.5110  -31.2530 C   0  0  0  0  0  0  0  0  0  0  0  0
   -5.6060   23.8220  -31.0830 C   0  0  0  0  0  0  0  0  0  0  0  0
   -5.1400   25.0760  -30.4480 C   0  0  0  0  0  0  0  0  0  0  0  0
   -3.8840   25.6420  -30.8320 N   0  0  0  0  0  0  0  0  0  0  0  0
   -5.8290   25.6520  -29.5640 O   0  0  0  0  0  0  0  0  0  0  0  0
   -4.8240   22.7830  -31.4940 N   0  0  0  0  0  0  0  0  0  0  0  0
   -3.3930   22.6600  -31.4220 C   0  0  0  0  0  0  0  0  0  0  0  0
   -2.7700   22.1240  -32.3770 O   0  0  0  0  0  0  0  0  0  0  0  0
   -2.7040   23.1700  -30.3080 O   0  0  0  0  0  0  0  0  0  0  0  0
   -2.6500   22.5790  -29.0020 C   0  0  0  0  0  0  0  0  0  0  0  0
   -3.8490   23.0410  -28.1510 C   0  0  0  0  0  0  0  0  0  0  0  0
   -1.3210   22.9230  -28.3000 C   0  0  0  0  0  0  0  0  0  0  0  0
   -2.7290   21.0570  -29.1900 C   0  0  0  0  0  0  0  0  0  0  0  0
   -5.6810   21.8230  -31.9070 C   0  0  0  0  0  0  0  0  0  0  0  0
   -5.3810   20.5540  -32.4150 C   0  0  0  0  0  0  0  0  0  0  0  0
   -7.2110   17.3270  -33.1430 C   0  0  0  0  0  0  0  0  0  0  0  0
   -6.8560   16.0700  -33.9470 C   0  0  0  0  0  0  0  0  0  0  0  0
   -3.7729   13.3606  -30.1131 H   0  0  0  0  0  0  0  0  0  0  0  0
   -4.9646   14.1253  -31.2184 H   0  0  0  0  0  0  0  0  0  0  0  0
   -4.7557   12.3412  -31.2184 H   0  0  0  0  0  0  0  0  0  0  0  0
   -2.3516   14.0726  -31.8052 H   0  0  0  0  0  0  0  0  0  0  0  0
   -2.7790   12.4284  -32.4164 H   0  0  0  0  0  0  0  0  0  0  0  0
   -3.9245   16.7715  -32.7513 H   0  0  0  0  0  0  0  0  0  0  0  0
   -3.6796   16.4645  -34.5228 H   0  0  0  0  0  0  0  0  0  0  0  0
   -4.2195   18.8811  -33.8425 H   0  0  0  0  0  0  0  0  0  0  0  0
   -5.2340   18.1480  -35.1393 H   0  0  0  0  0  0  0  0  0  0  0  0
   -8.6179   19.5005  -32.9312 H   0  0  0  0  0  0  0  0  0  0  0  0
   -9.0903   21.7948  -32.0197 H   0  0  0  0  0  0  0  0  0  0  0  0
   -7.8207   24.1480  -31.0154 H   0  0  0  0  0  0  0  0  0  0  0  0
   -2.9890   25.2940  -30.4210 H   0  0  0  0  0  0  0  0  0  0  0  0
   -3.5999   22.9450  -27.0839 H   0  0  0  0  0  0  0  0  0  0  0  0
   -4.0785   24.0919  -28.3809 H   0  0  0  0  0  0  0  0  0  0  0  0
   -4.7244   22.4158  -28.3809 H   0  0  0  0  0  0  0  0  0  0  0  0
   -1.4621   22.8865  -27.2097 H   0  0  0  0  0  0  0  0  0  0  0  0
   -0.5513   22.1945  -28.5947 H   0  0  0  0  0  0  0  0  0  0  0  0
   -1.0015   23.9335  -28.5947 H   0  0  0  0  0  0  0  0  0  0  0  0
   -2.7544   20.5668  -28.2056 H   0  0  0  0  0  0  0  0  0  0  0  0
   -3.6415   20.8035  -29.7495 H   0  0  0  0  0  0  0  0  0  0  0  0
   -1.8476   20.7104  -29.7495 H   0  0  0  0  0  0  0  0  0  0  0  0
   -4.3368   20.2277  -32.5298 H   0  0  0  0  0  0  0  0  0  0  0  0
   -7.3066   17.0551  -32.0814 H   0  0  0  0  0  0  0  0  0  0  0  0
   -8.1570   17.7276  -33.5362 H   0  0  0  0  0  0  0  0  0  0  0  0
   -7.5066   15.2411  -33.6311 H   0  0  0  0  0  0  0  0  0  0  0  0
   -7.0024   16.2761  -35.0176 H   0  0  0  0  0  0  0  0  0  0  0  0
  1  2  1  0
  2  3  1  0
  3  4  1  0
  4  5  2  0
  4  6  1  0
  6  7  1  0
  7  8  1  0
  8  9  1  0
  9 10  1  0
 10 11  2  0
 11 12  1  0
 12 13  2  0
 13 14  1  0
 14 15  2  0
 15 16  1  0
 16 17  1  0
 16 18  2  0
 15 19  1  0
 19 20  1  0
 20 21  2  0
 20 22  1  0
 22 23  1  0
 23 24  1  0
 23 25  1  0
 23 26  1  0
 19 27  1  0
 27 28  2  0
  9 29  1  0
 29 30  1  0
 30  6  1  0
 28 10  1  0
 27 13  1  0
  1 31  1  0
  1 32  1  0
  1 33  1  0
  2 34  1  0
  2 35  1  0
  7 36  1  0
  7 37  1  0
  8 38  1  0
  8 39  1  0
 11 40  1  0
 12 41  1  0
 14 42  1  0
 17 43  1  0
 24 44  1  0
 24 45  1  0
 24 46  1  0
 25 47  1  0
 25 48  1  0
 25 49  1  0
 26 50  1  0
 26 51  1  0
 26 52  1  0
 28 53  1  0
 29 54  1  0
 29 55  1  0
 30 56  1  0
 30 57  1  0
M  CHG  1  17  -1
M  END
>  <UniqueID>  (27) 
27

>  <SMILES>  (27) 
CCOC(=O)N1CCN(c2ccc3cc(C([NH-])=O)n(C(=O)OC(C)(C)C)c3c2)CC1

>  <Energy>  (27) 
91.75250643516023

>  <Genealogy>  (27) 
CCOC(=O)N1CCN(c2ccc3cc(C([NH-])=O)n(C(=O)OC(C)(C)C)c3c2)CC1 (protonated)
CCOC(=O)N1CCN(c2ccc3cc(C([NH-])=O)n(C(=O)OC(C)(C)C)c3c2)CC1 (3D coordinates assigned)
CCOC(=O)N1CCN(c2ccc3cc(C([NH-])=O)n(C(=O)OC(C)(C)C)c3c2)CC1 (nonaromatic ring conformer: 91.75250643516023 kcal/mol)

>  <smiles>  (27) 
CCOC(=O)N1CCN(c2ccc3cc(C(N)=O)n(C(=O)OC(C)(C)C)c3c2)CC1

>  <score_type>  (27) 
oracle

>  <origin>  (27) 
adg

>  <m_score__min__energy>  (27) 
-10.81

>  <m_primary>  (27) 
energy

$$$$
27:0
     RDKit          3D

 28 29  0  0  0  0  0  0  0  0999 V2000
   -3.7130   25.2560  -30.4720 N   0  0  0  0  0  0  0  0  0  0  0  0
   -5.1150   25.2710  -30.7310 C   0  0  0  0  0  0  0  0  0  0  0  0
   -5.7150   26.3760  -30.8110 O   0  0  0  0  0  0  0  0  0  0  0  0
   -5.8600   24.0160  -30.9550 C   0  0  0  0  0  0  0  0  0  0  0  0
   -7.1940   23.8380  -30.5900 C   0  0  0  0  0  0  0  0  0  0  0  0
   -7.5360   22.5880  -31.0540 C   0  0  0  0  0  0  0  0  0  0  0  0
   -8.7420   21.8990  -30.9690 C   0  0  0  0  0  0  0  0  0  0  0  0
   -8.8060   20.6110  -31.5260 C   0  0  0  0  0  0  0  0  0  0  0  0
   -7.6650   20.0320  -32.1390 C   0  0  0  0  0  0  0  0  0  0  0  0
   -7.7530   18.6630  -32.7510 C   0  0  0  0  0  0  0  0  0  0  0  0
   -6.4770   18.3340  -33.4580 C   0  0  0  0  0  0  0  0  0  0  0  0
   -5.7320   17.4160  -33.0240 O   0  0  0  0  0  0  0  0  0  0  0  0
   -6.0860   19.0730  -34.5660 O   0  0  0  0  0  0  0  0  0  0  0  0
   -6.4610   20.7670  -32.2160 C   0  0  0  0  0  0  0  0  0  0  0  0
   -6.4320   22.0530  -31.6670 C   0  0  0  0  0  0  0  0  0  0  0  0
   -5.3940   22.9150  -31.6090 N   0  0  0  0  0  0  0  0  0  0  0  0
   -4.0600   22.6640  -32.0770 C   0  0  0  0  0  0  0  0  0  0  0  0
   -3.8280   22.2990  -33.4370 N   0  0  0  0  0  0  0  0  0  0  0  0
   -3.0820   22.7990  -31.2940 O   0  0  0  0  0  0  0  0  0  0  0  0
   -3.0350   24.9510  -31.2060 H   0  0  0  0  0  0  0  0  0  0  0  0
   -7.8367   24.5463  -30.0466 H   0  0  0  0  0  0  0  0  0  0  0  0
   -9.6187   22.3493  -30.4804 H   0  0  0  0  0  0  0  0  0  0  0  0
   -9.7492   20.0463  -31.4865 H   0  0  0  0  0  0  0  0  0  0  0  0
   -7.9320   17.9210  -31.9589 H   0  0  0  0  0  0  0  0  0  0  0  0
   -8.5811   18.6444  -33.4748 H   0  0  0  0  0  0  0  0  0  0  0  0
   -5.5686   20.3386  -32.6957 H   0  0  0  0  0  0  0  0  0  0  0  0
   -4.6190   22.2570  -34.1180 H   0  0  0  0  0  0  0  0  0  0  0  0
   -2.8590   22.1040  -33.7740 H   0  0  0  0  0  0  0  0  0  0  0  0
  1  2  1  0
  2  3  2  0
  2  4  1  0
  4  5  2  0
  5  6  1  0
  6  7  2  0
  7  8  1  0
  8  9  2  0
  9 10  1  0
 10 11  1  0
 11 12  2  0
 11 13  1  0
  9 14  1  0
 14 15  2  0
 15 16  1  0
 16 17  1  0
 17 18  1  0
 17 19  2  0
 16  4  1  0
 15  6  1  0
  1 20  1  0
  5 21  1  0
  7 22  1  0
  8 23  1  0
 10 24  1  0
 10 25  1  0
 14 26  1  0
 18 27  1  0
 18 28  1  0
M  CHG  2   1  -1  13  -1
M  END
>  <UniqueID>  (28) 
28

>  <SMILES>  (28) 
[NH-]C(=O)c1cc2ccc(CC(=O)[O-])cc2n1C(N)=O

>  <Energy>  (28) 
65.40525766860641

>  <Genealogy>  (28) 
[NH-]C(=O)c1cc2ccc(CC(=O)[O-])cc2n1C(N)=O (protonated)
[NH-]C(=O)c1cc2ccc(CC(=O)[O-])cc2n1C(N)=O (3D coordinates assigned)
[NH-]C(=O)c1cc2ccc(CC(=O)[O-])cc2n1C(N)=O (optimized conformer: 65.40525766860641 kcal/mol)

>  <smiles>  (28) 
NC(=O)c1cc2ccc(CC(=O)O)cc2n1C(N)=O

>  <score_type>  (28) 
oracle

>  <origin>  (28) 
adg

>  <m_score__min__energy>  (28) 
-10.279999999999999

>  <m_primary>  (28) 
energy

$$$$
28:0
     RDKit          3D

 35 36  0  0  0  0  0  0  0  0999 V2000
   -4.6270   16.4050  -34.7080 C   0  0  0  0  0  0  0  0  0  0  0  0
   -5.5630   17.4250  -35.0340 O   0  0  0  0  0  0  0  0  0  0  0  0
   -5.9600   18.4030  -34.1170 C   0  0  0  0  0  0  0  0  0  0  0  0
   -5.8910   19.6280  -34.4110 O   0  0  0  0  0  0  0  0  0  0  0  0
   -6.5030   17.9870  -32.7850 C   0  0  0  0  0  0  0  0  0  0  0  0
   -7.8880   18.5910  -32.5300 C   0  0  0  0  0  0  0  0  0  0  0  0
   -7.7940   19.9870  -31.9690 C   0  0  0  0  0  0  0  0  0  0  0  0
   -8.9260   20.5930  -31.3670 C   0  0  0  0  0  0  0  0  0  0  0  0
   -8.8590   21.9120  -30.8850 C   0  0  0  0  0  0  0  0  0  0  0  0
   -7.6550   22.5960  -31.0180 C   0  0  0  0  0  0  0  0  0  0  0  0
   -7.3210   23.8820  -30.6600 C   0  0  0  0  0  0  0  0  0  0  0  0
   -5.9890   24.0370  -31.0370 C   0  0  0  0  0  0  0  0  0  0  0  0
   -5.1960   25.2500  -30.7460 C   0  0  0  0  0  0  0  0  0  0  0  0
   -3.8090   25.1610  -30.4280 N   0  0  0  0  0  0  0  0  0  0  0  0
   -5.7600   26.3780  -30.7350 O   0  0  0  0  0  0  0  0  0  0  0  0
   -5.5210   22.8950  -31.6160 N   0  0  0  0  0  0  0  0  0  0  0  0
   -4.2350   22.6710  -32.2150 C   0  0  0  0  0  0  0  0  0  0  0  0
   -4.1270   22.0000  -33.4700 N   0  0  0  0  0  0  0  0  0  0  0  0
   -3.1890   23.0360  -31.6120 O   0  0  0  0  0  0  0  0  0  0  0  0
   -6.5500   22.0210  -31.5920 C   0  0  0  0  0  0  0  0  0  0  0  0
   -6.5910   20.7170  -32.0950 C   0  0  0  0  0  0  0  0  0  0  0  0
   -4.5464   16.3172  -33.6145 H   0  0  0  0  0  0  0  0  0  0  0  0
   -4.9671   15.4472  -35.1287 H   0  0  0  0  0  0  0  0  0  0  0  0
   -3.6436   16.6617  -35.1287 H   0  0  0  0  0  0  0  0  0  0  0  0
   -6.5808   16.8901  -32.7574 H   0  0  0  0  0  0  0  0  0  0  0  0
   -5.8187   18.3507  -32.0043 H   0  0  0  0  0  0  0  0  0  0  0  0
   -8.4421   18.6252  -33.4796 H   0  0  0  0  0  0  0  0  0  0  0  0
   -8.4063   17.9600  -31.7930 H   0  0  0  0  0  0  0  0  0  0  0  0
   -9.8644   20.0263  -31.2764 H   0  0  0  0  0  0  0  0  0  0  0  0
   -9.7326   22.3889  -30.4167 H   0  0  0  0  0  0  0  0  0  0  0  0
   -7.9686   24.6293  -30.1782 H   0  0  0  0  0  0  0  0  0  0  0  0
   -3.0860   25.1500  -31.1810 H   0  0  0  0  0  0  0  0  0  0  0  0
   -3.1910   21.8500  -33.9080 H   0  0  0  0  0  0  0  0  0  0  0  0
   -4.9760   21.6210  -33.9440 H   0  0  0  0  0  0  0  0  0  0  0  0
   -5.7086   20.2707  -32.5768 H   0  0  0  0  0  0  0  0  0  0  0  0
  1  2  1  0
  2  3  1  0
  3  4  2  0
  3  5  1  0
  5  6  1  0
  6  7  1  0
  7  8  2  0
  8  9  1  0
  9 10  2  0
 10 11  1  0
 11 12  2  0
 12 13  1  0
 13 14  1  0
 13 15  2  0
 12 16  1  0
 16 17  1  0
 17 18  1  0
 17 19  2  0
 16 20  1  0
 20 21  2  0
 21  7  1  0
 20 10  1  0
  1 22  1  0
  1 23  1  0
  1 24  1  0
  5 25  1  0
  5 26  1  0
  6 27  1  0
  6 28  1  0
  8 29  1  0
  9 30  1  0
 11 31  1  0
 14 32  1  0
 18 33  1  0
 18 34  1  0
 21 35  1  0
M  CHG  1  14  -1
M  END
>  <UniqueID>  (29) 
29

>  <SMILES>  (29) 
COC(=O)CCc1ccc2cc(C([NH-])=O)n(C(N)=O)c2c1

>  <Energy>  (29) 
67.57361600408011

>  <Genealogy>  (29) 
COC(=O)CCc1ccc2cc(C([NH-])=O)n(C(N)=O)c2c1 (protonated)
COC(=O)CCc1ccc2cc(C([NH-])=O)n(C(N)=O)c2c1 (3D coordinates assigned)
COC(=O)CCc1ccc2cc(C([NH-])=O)n(C(N)=O)c2c1 (optimized conformer: 67.57361600408011 kcal/mol)

>  <smiles>  (29) 
COC(=O)CCc1ccc2cc(C(N)=O)n(C(N)=O)c2c1

>  <score_type>  (29) 
oracle

>  <origin>  (29) 
adg

>  <m_score__min__energy>  (29) 
-10.050000000000001

>  <m_primary>  (29) 
energy

$$$$
29:0
     RDKit          3D

 85 89  0  0  0  0  0  0  0  0999 V2000
   -0.0430   21.7220  -35.1780 C   0  0  0  0  0  0  0  0  0  0  0  0
   -0.0480   20.3980  -34.3890 C   0  0  0  0  0  0  0  0  0  0  0  0
    0.1800   19.1990  -35.3340 C   0  0  0  0  0  0  0  0  0  0  0  0
    1.0830   20.4270  -33.3490 C   0  0  0  0  0  0  0  0  0  0  0  0
   -1.2820   20.2490  -33.6710 O   0  0  0  0  0  0  0  0  0  0  0  0
   -1.7040   19.1070  -32.9730 C   0  0  0  0  0  0  0  0  0  0  0  0
   -2.6720   18.4190  -33.3960 O   0  0  0  0  0  0  0  0  0  0  0  0
   -1.0120   18.7000  -31.7790 N   0  0  0  0  0  0  0  0  0  0  0  0
   -0.2240   17.5950  -31.6210 C   0  0  0  0  0  0  0  0  0  0  0  0
   -0.1530   16.4470  -32.5480 C   0  0  0  0  0  0  0  0  0  0  0  0
   -1.3230   15.9570  -33.2060 N   0  0  0  0  0  0  0  0  0  0  0  0
    0.9440   15.8480  -32.7100 O   0  0  0  0  0  0  0  0  0  0  0  0
    0.4510   17.6370  -30.4070 C   0  0  0  0  0  0  0  0  0  0  0  0
    0.0310   18.7990  -29.8010 C   0  0  0  0  0  0  0  0  0  0  0  0
    0.3820   19.3330  -28.5660 C   0  0  0  0  0  0  0  0  0  0  0  0
   -0.2150   20.5450  -28.1830 C   0  0  0  0  0  0  0  0  0  0  0  0
   -1.1340   21.2060  -29.0360 C   0  0  0  0  0  0  0  0  0  0  0  0
   -1.8400   22.4550  -28.5670 C   0  0  0  0  0  0  0  0  0  0  0  0
   -1.6080   23.6180  -29.5350 C   0  0  0  0  0  0  0  0  0  0  0  0
   -2.7170   24.5600  -29.4540 N   0  0  0  0  0  0  0  0  0  0  0  0
   -3.8480   24.5290  -30.3390 C   0  0  0  0  0  0  0  0  0  0  0  0
   -4.2940   25.5960  -30.8510 O   0  0  0  0  0  0  0  0  0  0  0  0
   -4.4590   23.2070  -30.6970 C   0  0  0  0  0  0  0  0  0  0  0  0
   -5.1490   23.2370  -32.0120 N   0  0  0  0  0  0  0  0  0  0  0  0
   -6.4960   22.6230  -32.0130 C   0  0  0  0  0  0  0  0  0  0  0  0
   -6.4470   21.1040  -31.8330 C   0  0  0  0  0  0  0  0  0  0  0  0
   -5.4910   20.5020  -32.7650 N   0  0  0  0  0  0  0  0  0  0  0  0
   -5.6240   19.1050  -33.0620 C   0  0  0  0  0  0  0  0  0  0  0  0
   -5.6080   18.6760  -34.3950 C   0  0  0  0  0  0  0  0  0  0  0  0
   -5.7860   17.3230  -34.7030 C   0  0  0  0  0  0  0  0  0  0  0  0
   -5.9860   16.3850  -33.6800 C   0  0  0  0  0  0  0  0  0  0  0  0
   -6.1930   15.0040  -34.0210 N   0  0  0  0  0  0  0  0  0  0  0  0
   -5.1140   14.0350  -34.2560 C   0  0  2  0  0  0  0  0  0  0  0  0
   -5.3520   12.7020  -33.5110 C   0  0  0  0  0  0  0  0  0  0  0  0
   -4.9560   12.7340  -32.0240 C   0  0  0  0  0  0  0  0  0  0  0  0
   -3.5860   13.3080  -31.8340 C   0  0  0  0  0  0  0  0  0  0  0  0
   -2.9360   13.0350  -30.7900 O   0  0  0  0  0  0  0  0  0  0  0  0
   -3.0430   14.2300  -32.7830 N   0  0  0  0  0  0  0  0  0  0  0  0
   -3.7590   14.6160  -33.9570 C   0  0  0  0  0  0  0  0  0  0  0  0
   -3.2600   15.4710  -34.7340 O   0  0  0  0  0  0  0  0  0  0  0  0
   -5.9410   16.8100  -32.3450 C   0  0  0  0  0  0  0  0  0  0  0  0
   -5.7730   18.1610  -32.0320 C   0  0  0  0  0  0  0  0  0  0  0  0
   -5.7280   18.5490  -30.7310 F   0  0  0  0  0  0  0  0  0  0  0  0
   -4.1790   21.1270  -32.9650 C   0  0  0  0  0  0  0  0  0  0  0  0
   -4.3110   22.6560  -33.0820 C   0  0  0  0  0  0  0  0  0  0  0  0
   -1.4470   20.6440  -30.2940 C   0  0  0  0  0  0  0  0  0  0  0  0
   -0.8560   19.4210  -30.6440 C   0  0  0  0  0  0  0  0  0  0  0  0
   -0.0398   22.5679  -34.4748 H   0  0  0  0  0  0  0  0  0  0  0  0
    0.8553   21.7681  -35.8112 H   0  0  0  0  0  0  0  0  0  0  0  0
   -0.9410   21.7749  -35.8112 H   0  0  0  0  0  0  0  0  0  0  0  0
    0.3528   18.2904  -34.7385 H   0  0  0  0  0  0  0  0  0  0  0  0
   -0.7075   19.0583  -35.9685 H   0  0  0  0  0  0  0  0  0  0  0  0
    1.0572   19.3938  -35.9685 H   0  0  0  0  0  0  0  0  0  0  0  0
    0.6512   20.4159  -32.3373 H   0  0  0  0  0  0  0  0  0  0  0  0
    1.7267   19.5451  -33.4826 H   0  0  0  0  0  0  0  0  0  0  0  0
    1.6806   21.3408  -33.4826 H   0  0  0  0  0  0  0  0  0  0  0  0
   -1.2530   15.1510  -33.8660 H   0  0  0  0  0  0  0  0  0  0  0  0
   -2.2690   16.3310  -32.9710 H   0  0  0  0  0  0  0  0  0  0  0  0
    1.1671   16.8999  -30.0147 H   0  0  0  0  0  0  0  0  0  0  0  0
    1.1034   18.8229  -27.9107 H   0  0  0  0  0  0  0  0  0  0  0  0
    0.0341   20.9876  -27.2073 H   0  0  0  0  0  0  0  0  0  0  0  0
   -2.9193   22.2535  -28.5001 H   0  0  0  0  0  0  0  0  0  0  0  0
   -1.4363   22.7349  -27.5828 H   0  0  0  0  0  0  0  0  0  0  0  0
   -0.6726   24.1323  -29.2696 H   0  0  0  0  0  0  0  0  0  0  0  0
   -1.5394   23.2269  -30.5609 H   0  0  0  0  0  0  0  0  0  0  0  0
   -3.6630   22.4487  -30.7335 H   0  0  0  0  0  0  0  0  0  0  0  0
   -5.2107   22.9675  -29.9304 H   0  0  0  0  0  0  0  0  0  0  0  0
   -7.0824   23.0572  -31.1898 H   0  0  0  0  0  0  0  0  0  0  0  0
   -6.9570   22.8294  -32.9902 H   0  0  0  0  0  0  0  0  0  0  0  0
   -6.1408   20.8724  -30.8022 H   0  0  0  0  0  0  0  0  0  0  0  0
   -7.4463   20.6917  -32.0366 H   0  0  0  0  0  0  0  0  0  0  0  0
   -5.4548   19.4061  -35.2034 H   0  0  0  0  0  0  0  0  0  0  0  0
   -5.7690   16.9935  -35.7523 H   0  0  0  0  0  0  0  0  0  0  0  0
   -7.1440   14.6090  -33.8430 H   0  0  0  0  0  0  0  0  0  0  0  0
   -5.1297   13.8007  -35.3307 H   0  0  0  0  0  0  0  0  0  0  0  0
   -6.4217   12.4548  -33.5784 H   0  0  0  0  0  0  0  0  0  0  0  0
   -4.7110   11.9498  -33.9939 H   0  0  0  0  0  0  0  0  0  0  0  0
   -5.6817   13.3510  -31.4739 H   0  0  0  0  0  0  0  0  0  0  0  0
   -4.9536   11.7014  -31.6448 H   0  0  0  0  0  0  0  0  0  0  0  0
   -6.0390   16.0719  -31.5353 H   0  0  0  0  0  0  0  0  0  0  0  0
   -3.5311   20.8859  -32.1094 H   0  0  0  0  0  0  0  0  0  0  0  0
   -3.7437   20.7395  -33.8979 H   0  0  0  0  0  0  0  0  0  0  0  0
   -3.3070   23.1018  -33.0246 H   0  0  0  0  0  0  0  0  0  0  0  0
   -4.7979   22.8761  -34.0435 H   0  0  0  0  0  0  0  0  0  0  0  0
   -2.1375   21.1533  -30.9823 H   0  0  0  0  0  0  0  0  0  0  0  0
  1  2  1  0
  2  3  1  0
  2  4  1  0
  2  5  1  0
  5  6  1  0
  6  7  2  0
  6  8  1  0
  8  9  1  0
  9 10  1  0
 10 11  1  0
 10 12  2  0
  9 13  2  0
 13 14  1  0
 14 15  2  0
 15 16  1  0
 16 17  2  0
 17 18  1  0
 18 19  1  0
 19 20  1  0
 20 21  1  0
 21 22  2  0
 21 23  1  0
 23 24  1  0
 24 25  1  0
 25 26  1  0
 26 27  1  0
 27 28  1  0
 28 29  2  0
 29 30  1  0
 30 31  2  0
 31 32  1  0
 32 33  1  0
 33 34  1  0
 34 35  1  0
 35 36  1  0
 36 37  2  0
 36 38  1  0
 38 39  1  0
 39 40  2  0
 31 41  1  0
 41 42  2  0
 42 43  1  0
 27 44  1  0
 44 45  1  0
 17 46  1  0
 46 47  2  0
 47  8  1  0
 47 14  1  0
 45 24  1  0
 42 28  1  0
 39 33  1  0
  1 48  1  0
  1 49  1  0
  1 50  1  0
  3 51  1  0
  3 52  1  0
  3 53  1  0
  4 54  1  0
  4 55  1  0
  4 56  1  0
 11 57  1  0
 11 58  1  0
 13 59  1  0
 15 60  1  0
 16 61  1  0
 18 62  1  0
 18 63  1  0
 19 64  1  0
 19 65  1  0
 23 66  1  0
 23 67  1  0
 25 68  1  0
 25 69  1  0
 26 70  1  0
 26 71  1  0
 29 72  1  0
 30 73  1  0
 32 74  1  0
 33 75  1  6
 34 76  1  0
 34 77  1  0
 35 78  1  0
 35 79  1  0
 41 80  1  0
 44 81  1  0
 44 82  1  0
 45 83  1  0
 45 84  1  0
 46 85  1  0
M  CHG  2  20  -1  38  -1
M  END
>  <UniqueID>  (30) 
30

>  <SMILES>  (30) 
CC(C)(C)OC(=O)n1c(C(N)=O)cc2ccc(CC[N-]C(=O)CN3CCN(c4ccc(N[C@@H]5CCC(=O)[N-]C5=O)cc4F)CC3)cc21

>  <Energy>  (30) 
133.28757569091502

>  <Genealogy>  (30) 
CC(C)(C)OC(=O)n1c(C(N)=O)cc2ccc(CC[N-]C(=O)CN3CCN(c4ccc(NC5CCC(=O)[N-]C5=O)cc4F)CC3)cc21 (protonated)
CC(C)(C)OC(=O)n1c(C(N)=O)cc2ccc(CC[N-]C(=O)CN3CCN(c4ccc(N[C@@H]5CCC(=O)[N-]C5=O)cc4F)CC3)cc21 (chirality)
CC(C)(C)OC(=O)n1c(C(N)=O)cc2ccc(CC[N-]C(=O)CN3CCN(c4ccc(N[C@@H]5CCC(=O)[N-]C5=O)cc4F)CC3)cc21 (3D coordinates assigned)
CC(C)(C)OC(=O)n1c(C(N)=O)cc2ccc(CC[N-]C(=O)CN3CCN(c4ccc(N[C@@H]5CCC(=O)[N-]C5=O)cc4F)CC3)cc21 (nonaromatic ring conformer: 133.28757569091502 kcal/mol)

>  <smiles>  (30) 
CC(C)(C)OC(=O)n1c(C(N)=O)cc2ccc(CCNC(=O)CN3CCN(c4ccc(NC5CCC(=O)NC5=O)cc4F)CC3)cc21

>  <score_type>  (30) 
oracle

>  <origin>  (30) 
adg

>  <m_score__min__energy>  (30) 
-12.789999999999999

>  <m_primary>  (30) 
energy

$$$$
30:0
     RDKit          3D

 44 45  0  0  0  0  0  0  0  0999 V2000
   -1.4960   23.0170  -28.7070 C   0  0  0  0  0  0  0  0  0  0  0  0
   -2.9280   22.6270  -29.1030 C   0  0  0  0  0  0  0  0  0  0  0  0
   -3.9010   23.1390  -28.0250 C   0  0  0  0  0  0  0  0  0  0  0  0
   -3.0080   21.0930  -29.2260 C   0  0  0  0  0  0  0  0  0  0  0  0
   -3.2000   23.2480  -30.3670 O   0  0  0  0  0  0  0  0  0  0  0  0
   -3.9760   22.7150  -31.4070 C   0  0  0  0  0  0  0  0  0  0  0  0
   -3.4350   22.1390  -32.3880 O   0  0  0  0  0  0  0  0  0  0  0  0
   -5.4060   22.8320  -31.3520 N   0  0  0  0  0  0  0  0  0  0  0  0
   -6.1370   23.8620  -30.8370 C   0  0  0  0  0  0  0  0  0  0  0  0
   -5.5980   25.1560  -30.3720 C   0  0  0  0  0  0  0  0  0  0  0  0
   -4.2430   25.5280  -30.6230 N   0  0  0  0  0  0  0  0  0  0  0  0
   -6.3630   25.9690  -29.7880 O   0  0  0  0  0  0  0  0  0  0  0  0
   -7.4950   23.5560  -30.8490 C   0  0  0  0  0  0  0  0  0  0  0  0
   -7.5790   22.2990  -31.4050 C   0  0  0  0  0  0  0  0  0  0  0  0
   -8.6920   21.4990  -31.6410 C   0  0  0  0  0  0  0  0  0  0  0  0
   -8.4820   20.2230  -32.1890 C   0  0  0  0  0  0  0  0  0  0  0  0
   -7.1720   19.7700  -32.4830 C   0  0  0  0  0  0  0  0  0  0  0  0
   -6.9520   18.3860  -33.0370 C   0  0  0  0  0  0  0  0  0  0  0  0
   -5.4760   17.9630  -32.9830 C   0  0  0  0  0  0  0  0  0  0  0  0
   -4.7460   18.1690  -34.3150 C   0  0  0  0  0  0  0  0  0  0  0  0
   -5.6740   18.3790  -35.3190 F   0  0  0  0  0  0  0  0  0  0  0  0
   -3.9130   19.2710  -34.2440 F   0  0  0  0  0  0  0  0  0  0  0  0
   -6.0650   20.6100  -32.2260 C   0  0  0  0  0  0  0  0  0  0  0  0
   -6.3050   21.8840  -31.6990 C   0  0  0  0  0  0  0  0  0  0  0  0
   -1.4121   23.0398  -27.6104 H   0  0  0  0  0  0  0  0  0  0  0  0
   -0.7892   22.2786  -29.1135 H   0  0  0  0  0  0  0  0  0  0  0  0
   -1.2612   24.0118  -29.1135 H   0  0  0  0  0  0  0  0  0  0  0  0
   -3.4902   22.9228  -27.0278 H   0  0  0  0  0  0  0  0  0  0  0  0
   -4.0357   24.2248  -28.1386 H   0  0  0  0  0  0  0  0  0  0  0  0
   -4.8722   22.6352  -28.1386 H   0  0  0  0  0  0  0  0  0  0  0  0
   -3.0313   20.6453  -28.2215 H   0  0  0  0  0  0  0  0  0  0  0  0
   -3.9218   20.8161  -29.7722 H   0  0  0  0  0  0  0  0  0  0  0  0
   -2.1280   20.7226  -29.7722 H   0  0  0  0  0  0  0  0  0  0  0  0
   -3.6340   24.9570  -31.2510 H   0  0  0  0  0  0  0  0  0  0  0  0
   -3.8690   26.4280  -30.2500 H   0  0  0  0  0  0  0  0  0  0  0  0
   -8.3239   24.1842  -30.4908 H   0  0  0  0  0  0  0  0  0  0  0  0
   -9.7059   21.8548  -31.4056 H   0  0  0  0  0  0  0  0  0  0  0  0
   -9.3428   19.5690  -32.3919 H   0  0  0  0  0  0  0  0  0  0  0  0
   -7.5464   17.6712  -32.4490 H   0  0  0  0  0  0  0  0  0  0  0  0
   -7.2610   18.3936  -34.0927 H   0  0  0  0  0  0  0  0  0  0  0  0
   -4.9687   18.5580  -32.2093 H   0  0  0  0  0  0  0  0  0  0  0  0
   -5.4497   16.8871  -32.7558 H   0  0  0  0  0  0  0  0  0  0  0  0
   -4.1458   17.2724  -34.5292 H   0  0  0  0  0  0  0  0  0  0  0  0
   -5.0397   20.2707  -32.4351 H   0  0  0  0  0  0  0  0  0  0  0  0
  1  2  1  0
  2  3  1  0
  2  4  1  0
  2  5  1  0
  5  6  1  0
  6  7  2  0
  6  8  1  0
  8  9  1  0
  9 10  1  0
 10 11  1  0
 10 12  2  0
  9 13  2  0
 13 14  1  0
 14 15  2  0
 15 16  1  0
 16 17  2  0
 17 18  1  0
 18 19  1  0
 19 20  1  0
 20 21  1  0
 20 22  1  0
 17 23  1  0
 23 24  2  0
 24  8  1  0
 24 14  1  0
  1 25  1  0
  1 26  1  0
  1 27  1  0
  3 28  1  0
  3 29  1  0
  3 30  1  0
  4 31  1  0
  4 32  1  0
  4 33  1  0
 11 34  1  0
 11 35  1  0
 13 36  1  0
 15 37  1  0
 16 38  1  0
 18 39  1  0
 18 40  1  0
 19 41  1  0
 19 42  1  0
 20 43  1  0
 23 44  1  0
M  END
>  <UniqueID>  (31) 
31

>  <SMILES>  (31) 
CC(C)(C)OC(=O)n1c(C(N)=O)cc2ccc(CCC(F)F)cc21

>  <Energy>  (31) 
73.5895930608735

>  <Genealogy>  (31) 
CC(C)(C)OC(=O)n1c(C(N)=O)cc2ccc(CCC(F)F)cc21 (3D coordinates assigned)
CC(C)(C)OC(=O)n1c(C(N)=O)cc2ccc(CCC(F)F)cc21 (optimized conformer: 73.5895930608735 kcal/mol)

>  <smiles>  (31) 
CC(C)(C)OC(=O)n1c(C(N)=O)cc2ccc(CCC(F)F)cc21

>  <score_type>  (31) 
oracle

>  <origin>  (31) 
adg

>  <m_score__min__energy>  (31) 
-8.7400000000000002

>  <m_primary>  (31) 
energy

$$$$
31:0
     RDKit          3D

 39 41  0  0  0  0  0  0  0  0999 V2000
   -4.2350   25.5030  -30.5430 N   0  0  0  0  0  0  0  0  0  0  0  0
   -5.5470   25.0490  -30.2060 C   0  0  0  0  0  0  0  0  0  0  0  0
   -6.3030   25.7910  -29.5210 O   0  0  0  0  0  0  0  0  0  0  0  0
   -6.0540   23.7560  -30.6990 C   0  0  0  0  0  0  0  0  0  0  0  0
   -7.4040   23.4940  -30.9160 C   0  0  0  0  0  0  0  0  0  0  0  0
   -7.4470   22.2200  -31.4340 C   0  0  0  0  0  0  0  0  0  0  0  0
   -8.5380   21.4540  -31.8280 C   0  0  0  0  0  0  0  0  0  0  0  0
   -8.2940   20.1550  -32.3040 C   0  0  0  0  0  0  0  0  0  0  0  0
   -6.9740   19.6340  -32.3460 C   0  0  0  0  0  0  0  0  0  0  0  0
   -6.7210   18.2550  -32.9010 C   0  0  0  0  0  0  0  0  0  0  0  0
   -7.8520   17.4790  -32.7180 F   0  0  0  0  0  0  0  0  0  0  0  0
   -5.6540   17.6540  -32.2580 F   0  0  0  0  0  0  0  0  0  0  0  0
   -6.4310   18.3180  -34.2540 F   0  0  0  0  0  0  0  0  0  0  0  0
   -5.8900   20.4510  -31.9500 C   0  0  0  0  0  0  0  0  0  0  0  0
   -6.1600   21.7510  -31.5060 C   0  0  0  0  0  0  0  0  0  0  0  0
   -5.2910   22.6840  -31.0570 N   0  0  0  0  0  0  0  0  0  0  0  0
   -3.8780   22.5190  -30.8470 C   0  0  0  0  0  0  0  0  0  0  0  0
   -3.0750   23.4220  -31.2080 O   0  0  0  0  0  0  0  0  0  0  0  0
   -3.3980   21.3400  -30.2650 O   0  0  0  0  0  0  0  0  0  0  0  0
   -3.0870   21.2150  -28.8790 C   0  0  0  0  0  0  0  0  0  0  0  0
   -2.8400   22.5690  -28.2710 C   0  0  0  0  0  0  0  0  0  0  0  0
   -3.8500   23.2240  -27.5450 C   0  0  0  0  0  0  0  0  0  0  0  0
   -3.6030   24.4740  -26.9680 C   0  0  0  0  0  0  0  0  0  0  0  0
   -2.3500   25.0750  -27.1100 C   0  0  0  0  0  0  0  0  0  0  0  0
   -1.3380   24.4250  -27.8240 C   0  0  0  0  0  0  0  0  0  0  0  0
   -1.5800   23.1760  -28.4010 C   0  0  0  0  0  0  0  0  0  0  0  0
   -3.6370   24.9650  -31.2050 H   0  0  0  0  0  0  0  0  0  0  0  0
   -3.8840   26.4160  -30.1770 H   0  0  0  0  0  0  0  0  0  0  0  0
   -8.2544   24.1625  -30.7161 H   0  0  0  0  0  0  0  0  0  0  0  0
   -9.5614   21.8529  -31.7689 H   0  0  0  0  0  0  0  0  0  0  0  0
   -9.1348   19.5348  -32.6479 H   0  0  0  0  0  0  0  0  0  0  0  0
   -4.8576   20.0736  -31.9899 H   0  0  0  0  0  0  0  0  0  0  0  0
   -3.9294   20.7335  -28.3608 H   0  0  0  0  0  0  0  0  0  0  0  0
   -2.1778   20.6052  -28.7716 H   0  0  0  0  0  0  0  0  0  0  0  0
   -4.8371   22.7523  -27.4304 H   0  0  0  0  0  0  0  0  0  0  0  0
   -4.3962   24.9843  -26.4019 H   0  0  0  0  0  0  0  0  0  0  0  0
   -2.1590   26.0604  -26.6599 H   0  0  0  0  0  0  0  0  0  0  0  0
   -0.3506   24.8978  -27.9313 H   0  0  0  0  0  0  0  0  0  0  0  0
   -0.7810   22.6661  -28.9591 H   0  0  0  0  0  0  0  0  0  0  0  0
  1  2  1  0
  2  3  2  0
  2  4  1  0
  4  5  2  0
  5  6  1  0
  6  7  2  0
  7  8  1  0
  8  9  2  0
  9 10  1  0
 10 11  1  0
 10 12  1  0
 10 13  1  0
  9 14  1  0
 14 15  2  0
 15 16  1  0
 16 17  1  0
 17 18  2  0
 17 19  1  0
 19 20  1  0
 20 21  1  0
 21 22  2  0
 22 23  1  0
 23 24  2  0
 24 25  1  0
 25 26  2  0
 16  4  1  0
 26 21  1  0
 15  6  1  0
  1 27  1  0
  1 28  1  0
  5 29  1  0
  7 30  1  0
  8 31  1  0
 14 32  1  0
 20 33  1  0
 20 34  1  0
 22 35  1  0
 23 36  1  0
 24 37  1  0
 25 38  1  0
 26 39  1  0
M  END
>  <UniqueID>  (32) 
32

>  <SMILES>  (32) 
NC(=O)c1cc2ccc(C(F)(F)F)cc2n1C(=O)OCc1ccccc1

>  <Energy>  (32) 
78.94801513948208

>  <Genealogy>  (32) 
NC(=O)c1cc2ccc(C(F)(F)F)cc2n1C(=O)OCc1ccccc1 (3D coordinates assigned)
NC(=O)c1cc2ccc(C(F)(F)F)cc2n1C(=O)OCc1ccccc1 (optimized conformer: 78.94801513948208 kcal/mol)

>  <smiles>  (32) 
NC(=O)c1cc2ccc(C(F)(F)F)cc2n1C(=O)OCc1ccccc1

>  <score_type>  (32) 
oracle

>  <origin>  (32) 
adg

>  <m_score__min__energy>  (32) 
-9.2400000000000002

>  <m_primary>  (32) 
energy

$$$$
32:0
     RDKit          3D

 43 45  0  0  0  0  0  0  0  0999 V2000
   -3.1790   21.7180  -32.4520 C   0  0  0  0  0  0  0  0  0  0  0  0
   -3.8120   22.7390  -31.5580 C   0  0  0  0  0  0  0  0  0  0  0  0
   -3.0740   23.5170  -30.8990 O   0  0  0  0  0  0  0  0  0  0  0  0
   -5.2420   22.8580  -31.4660 N   0  0  0  0  0  0  0  0  0  0  0  0
   -5.9650   23.7950  -30.7920 C   0  0  0  0  0  0  0  0  0  0  0  0
   -5.4210   25.0060  -30.1430 C   0  0  0  0  0  0  0  0  0  0  0  0
   -4.2770   25.6770  -30.6720 N   0  0  0  0  0  0  0  0  0  0  0  0
   -6.0080   25.4850  -29.1370 O   0  0  0  0  0  0  0  0  0  0  0  0
   -7.3240   23.4950  -30.8390 C   0  0  0  0  0  0  0  0  0  0  0  0
   -7.4140   22.3440  -31.5870 C   0  0  0  0  0  0  0  0  0  0  0  0
   -8.5290   21.5930  -31.9440 C   0  0  0  0  0  0  0  0  0  0  0  0
   -8.3250   20.4270  -32.6980 C   0  0  0  0  0  0  0  0  0  0  0  0
   -7.0200   20.0250  -33.0810 C   0  0  0  0  0  0  0  0  0  0  0  0
   -6.8620   18.8120  -33.8450 N   0  0  0  0  0  0  0  0  0  0  0  0
   -6.6110   17.4830  -33.2620 C   0  0  0  0  0  0  0  0  0  0  0  0
   -6.2480   16.4500  -34.3640 C   0  0  0  0  0  0  0  0  0  0  0  0
   -4.7310   16.2500  -34.5660 C   0  0  0  0  0  0  0  0  0  0  0  0
   -3.9370   17.5250  -34.2620 C   0  0  0  0  0  0  0  0  0  0  0  0
   -4.1480   18.0060  -32.8120 C   0  0  0  0  0  0  0  0  0  0  0  0
   -5.4930   17.5630  -32.2040 C   0  0  0  0  0  0  0  0  0  0  0  0
   -5.9080   20.8120  -32.6880 C   0  0  0  0  0  0  0  0  0  0  0  0
   -6.1450   21.9790  -31.9520 C   0  0  0  0  0  0  0  0  0  0  0  0
   -2.6978   20.9418  -31.8389 H   0  0  0  0  0  0  0  0  0  0  0  0
   -3.9505   21.2579  -33.0869 H   0  0  0  0  0  0  0  0  0  0  0  0
   -2.4238   22.2044  -33.0869 H   0  0  0  0  0  0  0  0  0  0  0  0
   -3.8710   25.4070  -31.5950 H   0  0  0  0  0  0  0  0  0  0  0  0
   -3.8800   26.5050  -30.1760 H   0  0  0  0  0  0  0  0  0  0  0  0
   -8.1486   24.0577  -30.3771 H   0  0  0  0  0  0  0  0  0  0  0  0
   -9.5407   21.9038  -31.6442 H   0  0  0  0  0  0  0  0  0  0  0  0
   -9.1898   19.8161  -32.9962 H   0  0  0  0  0  0  0  0  0  0  0  0
   -6.9080   18.8980  -34.8860 H   0  0  0  0  0  0  0  0  0  0  0  0
   -7.5352   17.1439  -32.7712 H   0  0  0  0  0  0  0  0  0  0  0  0
   -6.6904   15.4813  -34.0885 H   0  0  0  0  0  0  0  0  0  0  0  0
   -6.6446   16.8445  -35.3112 H   0  0  0  0  0  0  0  0  0  0  0  0
   -4.3863   15.4489  -33.8956 H   0  0  0  0  0  0  0  0  0  0  0  0
   -4.5609   15.9879  -35.6207 H   0  0  0  0  0  0  0  0  0  0  0  0
   -2.8670   17.3222  -34.4166 H   0  0  0  0  0  0  0  0  0  0  0  0
   -4.2940   18.3164  -34.9375 H   0  0  0  0  0  0  0  0  0  0  0  0
   -3.3355   17.6022  -32.1901 H   0  0  0  0  0  0  0  0  0  0  0  0
   -4.1510   19.1058  -32.8344 H   0  0  0  0  0  0  0  0  0  0  0  0
   -5.3657   16.5705  -31.7472 H   0  0  0  0  0  0  0  0  0  0  0  0
   -5.7889   18.3127  -31.4555 H   0  0  0  0  0  0  0  0  0  0  0  0
   -4.8837   20.5128  -32.9550 H   0  0  0  0  0  0  0  0  0  0  0  0
  1  2  1  0
  2  3  2  0
  2  4  1  0
  4  5  1  0
  5  6  1  0
  6  7  1  0
  6  8  2  0
  5  9  2  0
  9 10  1  0
 10 11  2  0
 11 12  1  0
 12 13  2  0
 13 14  1  0
 14 15  1  0
 15 16  1  0
 16 17  1  0
 17 18  1  0
 18 19  1  0
 19 20  1  0
 13 21  1  0
 21 22  2  0
 22  4  1  0
 22 10  1  0
 20 15  1  0
  1 23  1  0
  1 24  1  0
  1 25  1  0
  7 26  1  0
  7 27  1  0
  9 28  1  0
 11 29  1  0
 12 30  1  0
 14 31  1  0
 15 32  1  0
 16 33  1  0
 16 34  1  0
 17 35  1  0
 17 36  1  0
 18 37  1  0
 18 38  1  0
 19 39  1  0
 19 40  1  0
 20 41  1  0
 20 42  1  0
 21 43  1  0
M  END
>  <UniqueID>  (33) 
33

>  <SMILES>  (33) 
CC(=O)n1c(C(N)=O)cc2ccc(NC3CCCCC3)cc21

>  <Energy>  (33) 
86.10751094241256

>  <Genealogy>  (33) 
CC(=O)n1c(C(N)=O)cc2ccc(NC3CCCCC3)cc21 (3D coordinates assigned)
CC(=O)n1c(C(N)=O)cc2ccc(NC3CCCCC3)cc21 (nonaromatic ring conformer: 86.10751094241256 kcal/mol)

>  <smiles>  (33) 
CC(=O)n1c(C(N)=O)cc2ccc(NC3CCCCC3)cc21

>  <score_type>  (33) 
oracle

>  <origin>  (33) 
adg

>  <m_score__min__energy>  (33) 
-9.8200000000000003

>  <m_primary>  (33) 
energy

$$$$
33:0
     RDKit          3D

 47 49  0  0  0  0  0  0  0  0999 V2000
   -4.0660   23.4400  -27.9330 C   0  0  0  0  0  0  0  0  0  0  0  0
   -2.8460   22.8550  -28.6590 C   0  0  0  0  0  0  0  0  0  0  0  0
   -3.0160   21.3270  -28.7700 C   0  0  0  0  0  0  0  0  0  0  0  0
   -1.5760   23.2030  -27.8580 C   0  0  0  0  0  0  0  0  0  0  0  0
   -2.8010   23.4530  -29.9620 O   0  0  0  0  0  0  0  0  0  0  0  0
   -3.2860   22.8900  -31.1530 C   0  0  0  0  0  0  0  0  0  0  0  0
   -2.5050   22.3220  -31.9650 O   0  0  0  0  0  0  0  0  0  0  0  0
   -4.6910   22.9400  -31.4360 N   0  0  0  0  0  0  0  0  0  0  0  0
   -5.5720   23.9280  -31.1090 C   0  0  0  0  0  0  0  0  0  0  0  0
   -5.2230   25.2430  -30.5310 C   0  0  0  0  0  0  0  0  0  0  0  0
   -3.8620   25.6670  -30.5060 N   0  0  0  0  0  0  0  0  0  0  0  0
   -6.1090   25.9810  -30.0260 O   0  0  0  0  0  0  0  0  0  0  0  0
   -6.8690   23.5650  -31.4690 C   0  0  0  0  0  0  0  0  0  0  0  0
   -6.7550   22.3170  -32.0340 C   0  0  0  0  0  0  0  0  0  0  0  0
   -7.7350   21.4770  -32.5560 C   0  0  0  0  0  0  0  0  0  0  0  0
   -7.3340   20.2220  -33.0450 C   0  0  0  0  0  0  0  0  0  0  0  0
   -5.9740   19.8280  -32.9900 C   0  0  0  0  0  0  0  0  0  0  0  0
   -5.5710   18.5020  -33.5020 C   0  0  0  0  0  0  0  0  0  0  0  0
   -5.0620   18.4280  -34.8100 C   0  0  0  0  0  0  0  0  0  0  0  0
   -4.6230   17.2120  -35.3330 C   0  0  0  0  0  0  0  0  0  0  0  0
   -4.6810   16.0570  -34.5560 C   0  0  0  0  0  0  0  0  0  0  0  0
   -5.1970   16.1080  -33.2610 C   0  0  0  0  0  0  0  0  0  0  0  0
   -5.6760   17.3190  -32.7200 C   0  0  0  0  0  0  0  0  0  0  0  0
   -6.2450   17.3290  -31.3140 C   0  0  0  0  0  0  0  0  0  0  0  0
   -5.9360   16.1540  -30.6510 F   0  0  0  0  0  0  0  0  0  0  0  0
   -7.6180   17.4730  -31.3710 F   0  0  0  0  0  0  0  0  0  0  0  0
   -5.7250   18.3760  -30.5710 F   0  0  0  0  0  0  0  0  0  0  0  0
   -5.0060   20.7120  -32.4690 C   0  0  0  0  0  0  0  0  0  0  0  0
   -5.4320   21.9610  -32.0020 C   0  0  0  0  0  0  0  0  0  0  0  0
   -3.9152   23.3677  -26.8458 H   0  0  0  0  0  0  0  0  0  0  0  0
   -4.1901   24.4956  -28.2166 H   0  0  0  0  0  0  0  0  0  0  0  0
   -4.9667   22.8759  -28.2166 H   0  0  0  0  0  0  0  0  0  0  0  0
   -3.0647   20.8893  -27.7620 H   0  0  0  0  0  0  0  0  0  0  0  0
   -3.9449   21.0999  -29.3136 H   0  0  0  0  0  0  0  0  0  0  0  0
   -2.1597   20.9013  -29.3136 H   0  0  0  0  0  0  0  0  0  0  0  0
   -1.7937   23.1434  -26.7814 H   0  0  0  0  0  0  0  0  0  0  0  0
   -0.7766   22.4908  -28.1105 H   0  0  0  0  0  0  0  0  0  0  0  0
   -1.2513   24.2232  -28.1105 H   0  0  0  0  0  0  0  0  0  0  0  0
   -3.1570   25.2470  -31.1520 H   0  0  0  0  0  0  0  0  0  0  0  0
   -7.7885   24.1526  -31.3304 H   0  0  0  0  0  0  0  0  0  0  0  0
   -8.7903   21.7861  -32.5848 H   0  0  0  0  0  0  0  0  0  0  0  0
   -8.0824   19.5396  -33.4742 H   0  0  0  0  0  0  0  0  0  0  0  0
   -5.0094   19.3374  -35.4267 H   0  0  0  0  0  0  0  0  0  0  0  0
   -4.2307   17.1647  -36.3596 H   0  0  0  0  0  0  0  0  0  0  0  0
   -4.3189   15.1022  -34.9649 H   0  0  0  0  0  0  0  0  0  0  0  0
   -5.2307   15.1914  -32.6538 H   0  0  0  0  0  0  0  0  0  0  0  0
   -3.9442   20.4273  -32.4307 H   0  0  0  0  0  0  0  0  0  0  0  0
  1  2  1  0
  2  3  1  0
  2  4  1  0
  2  5  1  0
  5  6  1  0
  6  7  2  0
  6  8  1  0
  8  9  1  0
  9 10  1  0
 10 11  1  0
 10 12  2  0
  9 13  2  0
 13 14  1  0
 14 15  2  0
 15 16  1  0
 16 17  2  0
 17 18  1  0
 18 19  2  0
 19 20  1  0
 20 21  2  0
 21 22  1  0
 22 23  2  0
 23 24  1  0
 24 25  1  0
 24 26  1  0
 24 27  1  0
 17 28  1  0
 28 29  2  0
 29  8  1  0
 29 14  1  0
 23 18  1  0
  1 30  1  0
  1 31  1  0
  1 32  1  0
  3 33  1  0
  3 34  1  0
  3 35  1  0
  4 36  1  0
  4 37  1  0
  4 38  1  0
 11 39  1  0
 13 40  1  0
 15 41  1  0
 16 42  1  0
 19 43  1  0
 20 44  1  0
 21 45  1  0
 22 46  1  0
 28 47  1  0
M  CHG  1  11  -1
M  END
>  <UniqueID>  (34) 
34

>  <SMILES>  (34) 
CC(C)(C)OC(=O)n1c(C([NH-])=O)cc2ccc(-c3ccccc3C(F)(F)F)cc21

>  <Energy>  (34) 
92.67811111085882

>  <Genealogy>  (34) 
CC(C)(C)OC(=O)n1c(C([NH-])=O)cc2ccc(-c3ccccc3C(F)(F)F)cc21 (protonated)
CC(C)(C)OC(=O)n1c(C([NH-])=O)cc2ccc(-c3ccccc3C(F)(F)F)cc21 (3D coordinates assigned)
CC(C)(C)OC(=O)n1c(C([NH-])=O)cc2ccc(-c3ccccc3C(F)(F)F)cc21 (optimized conformer: 92.67811111085882 kcal/mol)

>  <smiles>  (34) 
CC(C)(C)OC(=O)n1c(C(N)=O)cc2ccc(-c3ccccc3C(F)(F)F)cc21

>  <score_type>  (34) 
oracle

>  <origin>  (34) 
adg

>  <m_score__min__energy>  (34) 
-10.869999999999999

>  <m_primary>  (34) 
energy

$$$$
34:0
     RDKit          3D

 65 67  0  0  0  0  0  0  0  0999 V2000
   -5.0170   14.2790  -33.7530 C   0  0  0  0  0  0  0  0  0  0  0  0
   -5.7210   15.2690  -33.0130 O   0  0  0  0  0  0  0  0  0  0  0  0
   -6.4850   16.2680  -33.6260 C   0  0  0  0  0  0  0  0  0  0  0  0
   -7.2990   15.9640  -34.5430 O   0  0  0  0  0  0  0  0  0  0  0  0
   -6.3160   17.7120  -33.1690 C   0  0  2  0  0  0  0  0  0  0  0  0
   -7.5480   18.1420  -32.3220 C   0  0  0  0  0  0  0  0  0  0  0  0
   -7.5930   19.6280  -32.0450 C   0  0  0  0  0  0  0  0  0  0  0  0
   -8.8200   20.3330  -32.1340 C   0  0  0  0  0  0  0  0  0  0  0  0
   -8.8700   21.7160  -31.8980 C   0  0  0  0  0  0  0  0  0  0  0  0
   -7.6830   22.3680  -31.5830 C   0  0  0  0  0  0  0  0  0  0  0  0
   -7.4520   23.6930  -31.3080 C   0  0  0  0  0  0  0  0  0  0  0  0
   -6.0890   23.7850  -31.0510 C   0  0  0  0  0  0  0  0  0  0  0  0
   -5.4220   25.0600  -30.7390 C   0  0  0  0  0  0  0  0  0  0  0  0
   -4.0020   25.1680  -30.7840 N   0  0  0  0  0  0  0  0  0  0  0  0
   -6.1070   26.0400  -30.3430 O   0  0  0  0  0  0  0  0  0  0  0  0
   -5.4850   22.5680  -31.1860 N   0  0  0  0  0  0  0  0  0  0  0  0
   -4.0730   22.2790  -31.1800 C   0  0  0  0  0  0  0  0  0  0  0  0
   -3.3510   22.6710  -32.1350 O   0  0  0  0  0  0  0  0  0  0  0  0
   -3.5020   21.5820  -30.1050 O   0  0  0  0  0  0  0  0  0  0  0  0
   -3.0720   22.1430  -28.8550 C   0  0  0  0  0  0  0  0  0  0  0  0
   -1.8360   23.0410  -29.0610 C   0  0  0  0  0  0  0  0  0  0  0  0
   -2.6870   20.9710  -27.9410 C   0  0  0  0  0  0  0  0  0  0  0  0
   -4.2160   22.9350  -28.1930 C   0  0  0  0  0  0  0  0  0  0  0  0
   -6.4830   21.7080  -31.5020 C   0  0  0  0  0  0  0  0  0  0  0  0
   -6.4090   20.3250  -31.7140 C   0  0  0  0  0  0  0  0  0  0  0  0
   -6.0920   18.6720  -34.3560 C   0  0  0  0  0  0  0  0  0  0  0  0
   -4.5950   18.6850  -34.5790 C   0  0  0  0  0  0  0  0  0  0  0  0
   -3.9940   18.6450  -33.1710 C   0  0  2  0  0  0  0  0  0  0  0  0
   -2.6180   18.0710  -33.1370 N   0  0  0  0  0  0  0  0  0  0  0  0
   -2.2620   17.4470  -34.4290 C   0  0  0  0  0  0  0  0  0  0  0  0
   -1.6210   19.1180  -32.8310 C   0  0  0  0  0  0  0  0  0  0  0  0
   -5.0100   17.8290  -32.3400 C   0  0  0  0  0  0  0  0  0  0  0  0
   -4.5229   13.5841  -33.0580 H   0  0  0  0  0  0  0  0  0  0  0  0
   -5.7238   13.7232  -34.3866 H   0  0  0  0  0  0  0  0  0  0  0  0
   -4.2599   14.7641  -34.3866 H   0  0  0  0  0  0  0  0  0  0  0  0
   -8.4615   17.8603  -32.8661 H   0  0  0  0  0  0  0  0  0  0  0  0
   -7.4705   17.6313  -31.3508 H   0  0  0  0  0  0  0  0  0  0  0  0
   -9.7421   19.7908  -32.3906 H   0  0  0  0  0  0  0  0  0  0  0  0
   -9.8198   22.2673  -31.9604 H   0  0  0  0  0  0  0  0  0  0  0  0
   -8.1894   24.5091  -31.2940 H   0  0  0  0  0  0  0  0  0  0  0  0
   -3.5400   26.0020  -31.2110 H   0  0  0  0  0  0  0  0  0  0  0  0
   -1.4299   23.3360  -28.0822 H   0  0  0  0  0  0  0  0  0  0  0  0
   -1.0702   22.4872  -29.6239 H   0  0  0  0  0  0  0  0  0  0  0  0
   -2.1260   23.9405  -29.6239 H   0  0  0  0  0  0  0  0  0  0  0  0
   -2.7877   21.2777  -26.8894 H   0  0  0  0  0  0  0  0  0  0  0  0
   -3.3520   20.1175  -28.1394 H   0  0  0  0  0  0  0  0  0  0  0  0
   -1.6454   20.6781  -28.1394 H   0  0  0  0  0  0  0  0  0  0  0  0
   -4.1219   22.8698  -27.0990 H   0  0  0  0  0  0  0  0  0  0  0  0
   -4.1602   23.9887  -28.5037 H   0  0  0  0  0  0  0  0  0  0  0  0
   -5.1826   22.5118  -28.5037 H   0  0  0  0  0  0  0  0  0  0  0  0
   -5.4502   19.7933  -31.6247 H   0  0  0  0  0  0  0  0  0  0  0  0
   -6.6124   18.3046  -35.2528 H   0  0  0  0  0  0  0  0  0  0  0  0
   -6.4858   19.6784  -34.1507 H   0  0  0  0  0  0  0  0  0  0  0  0
   -4.2814   17.8053  -35.1602 H   0  0  0  0  0  0  0  0  0  0  0  0
   -4.2658   19.5669  -35.1480 H   0  0  0  0  0  0  0  0  0  0  0  0
   -3.8491   19.6558  -32.7619 H   0  0  0  0  0  0  0  0  0  0  0  0
   -2.5620   17.3330  -32.3950 H   0  0  0  0  0  0  0  0  0  0  0  0
   -1.7245   16.5050  -34.2455 H   0  0  0  0  0  0  0  0  0  0  0  0
   -3.1784   17.2408  -35.0015 H   0  0  0  0  0  0  0  0  0  0  0  0
   -1.6182   18.1309  -35.0015 H   0  0  0  0  0  0  0  0  0  0  0  0
   -1.5217   19.2223  -31.7405 H   0  0  0  0  0  0  0  0  0  0  0  0
   -0.6492   18.8362  -33.2624 H   0  0  0  0  0  0  0  0  0  0  0  0
   -1.9500   20.0749  -33.2624 H   0  0  0  0  0  0  0  0  0  0  0  0
   -4.6061   16.8266  -32.1347 H   0  0  0  0  0  0  0  0  0  0  0  0
   -5.2082   18.3267  -31.3793 H   0  0  0  0  0  0  0  0  0  0  0  0
  1  2  1  0
  2  3  1  0
  3  4  2  0
  3  5  1  0
  5  6  1  1
  6  7  1  0
  7  8  2  0
  8  9  1  0
  9 10  2  0
 10 11  1  0
 11 12  2  0
 12 13  1  0
 13 14  1  0
 13 15  2  0
 12 16  1  0
 16 17  1  0
 17 18  2  0
 17 19  1  0
 19 20  1  0
 20 21  1  0
 20 22  1  0
 20 23  1  0
 16 24  1  0
 24 25  2  0
  5 26  1  0
 26 27  1  0
 27 28  1  0
 28 29  1  0
 29 30  1  0
 29 31  1  0
 28 32  1  0
 32  5  1  0
 25  7  1  0
 24 10  1  0
  1 33  1  0
  1 34  1  0
  1 35  1  0
  6 36  1  0
  6 37  1  0
  8 38  1  0
  9 39  1  0
 11 40  1  0
 14 41  1  0
 21 42  1  0
 21 43  1  0
 21 44  1  0
 22 45  1  0
 22 46  1  0
 22 47  1  0
 23 48  1  0
 23 49  1  0
 23 50  1  0
 25 51  1  0
 26 52  1  0
 26 53  1  0
 27 54  1  0
 27 55  1  0
 28 56  1  1
 29 57  1  0
 30 58  1  0
 30 59  1  0
 30 60  1  0
 31 61  1  0
 31 62  1  0
 31 63  1  0
 32 64  1  0
 32 65  1  0
M  CHG  2  14  -1  29   1
M  END
>  <UniqueID>  (35) 
35

>  <SMILES>  (35) 
COC(=O)[C@]1(Cc2ccc3cc(C([NH-])=O)n(C(=O)OC(C)(C)C)c3c2)CC[C@H]([NH+](C)C)C1

>  <Energy>  (35) 
107.83042402355557

>  <Genealogy>  (35) 
COC(=O)[C@]1(Cc2ccc3cc(C([NH-])=O)n(C(=O)OC(C)(C)C)c3c2)CC[C@H]([NH+](C)C)C1 (protonated)
COC(=O)[C@]1(Cc2ccc3cc(C([NH-])=O)n(C(=O)OC(C)(C)C)c3c2)CC[C@H]([NH+](C)C)C1 (3D coordinates assigned)
COC(=O)[C@]1(Cc2ccc3cc(C([NH-])=O)n(C(=O)OC(C)(C)C)c3c2)CC[C@H]([NH+](C)C)C1 (nonaromatic ring conformer: 107.83042402355557 kcal/mol)

>  <smiles>  (35) 
COC(=O)[C@]1(Cc2ccc3cc(C(N)=O)n(C(=O)OC(C)(C)C)c3c2)CC[C@H](N(C)C)C1

>  <score_type>  (35) 
oracle

>  <origin>  (35) 
adg

>  <m_score__min__energy>  (35) 
-11.869999999999999

>  <m_primary>  (35) 
energy

$$$$
35:0
     RDKit          3D

 42 44  0  0  0  0  0  0  0  0999 V2000
   -3.4030   23.0740  -28.4730 C   0  0  0  0  0  0  0  0  0  0  0  0
   -2.4620   23.6110  -29.5260 C   0  0  0  0  0  0  0  0  0  0  0  0
   -1.3580   22.5660  -29.6570 C   0  0  0  0  0  0  0  0  0  0  0  0
   -1.8230   24.8550  -28.9670 C   0  0  0  0  0  0  0  0  0  0  0  0
   -3.0400   23.7480  -30.7760 O   0  0  0  0  0  0  0  0  0  0  0  0
   -3.9270   22.9290  -31.4080 C   0  0  0  0  0  0  0  0  0  0  0  0
   -3.4280   22.0160  -32.1350 O   0  0  0  0  0  0  0  0  0  0  0  0
   -5.3420   23.0050  -31.3260 N   0  0  0  0  0  0  0  0  0  0  0  0
   -6.0740   24.0190  -30.8490 C   0  0  0  0  0  0  0  0  0  0  0  0
   -5.6840   25.2980  -30.2920 C   0  0  0  0  0  0  0  0  0  0  0  0
   -4.3850   25.8520  -30.6030 N   0  0  0  0  0  0  0  0  0  0  0  0
   -6.3810   26.0110  -29.5350 O   0  0  0  0  0  0  0  0  0  0  0  0
   -7.4230   23.6520  -30.9660 C   0  0  0  0  0  0  0  0  0  0  0  0
   -7.4950   22.4050  -31.5190 C   0  0  0  0  0  0  0  0  0  0  0  0
   -8.5830   21.6120  -31.8350 C   0  0  0  0  0  0  0  0  0  0  0  0
   -8.3710   20.3710  -32.3950 C   0  0  0  0  0  0  0  0  0  0  0  0
   -7.0830   19.9420  -32.6300 C   0  0  0  0  0  0  0  0  0  0  0  0
   -6.8250   18.6190  -33.2280 C   0  0  0  0  0  0  0  0  0  0  0  0
   -6.0980   18.4130  -34.3280 N   0  0  0  0  0  0  0  0  0  0  0  0
   -6.0630   17.0850  -34.5990 C   0  0  0  0  0  0  0  0  0  0  0  0
   -6.8070   16.4710  -33.6090 C   0  0  0  0  0  0  0  0  0  0  0  0
   -7.2780   17.4200  -32.7610 N   0  0  0  0  0  0  0  0  0  0  0  0
   -6.0080   20.7660  -32.3000 C   0  0  0  0  0  0  0  0  0  0  0  0
   -6.1900   22.0160  -31.7360 C   0  0  0  0  0  0  0  0  0  0  0  0
   -3.0036   23.3019  -27.4737 H   0  0  0  0  0  0  0  0  0  0  0  0
   -4.3904   23.5446  -28.5893 H   0  0  0  0  0  0  0  0  0  0  0  0
   -3.5001   21.9845  -28.5893 H   0  0  0  0  0  0  0  0  0  0  0  0
   -1.0280   22.2537  -28.6552 H   0  0  0  0  0  0  0  0  0  0  0  0
   -1.7424   21.6932  -30.2051 H   0  0  0  0  0  0  0  0  0  0  0  0
   -0.5076   22.9978  -30.2051 H   0  0  0  0  0  0  0  0  0  0  0  0
   -1.8433   24.8155  -27.8679 H   0  0  0  0  0  0  0  0  0  0  0  0
   -0.7806   24.9187  -29.3124 H   0  0  0  0  0  0  0  0  0  0  0  0
   -2.3784   25.7394  -29.3124 H   0  0  0  0  0  0  0  0  0  0  0  0
   -3.8640   26.4330  -29.9140 H   0  0  0  0  0  0  0  0  0  0  0  0
   -3.9840   25.6400  -31.5640 H   0  0  0  0  0  0  0  0  0  0  0  0
   -8.2823   24.2678  -30.6621 H   0  0  0  0  0  0  0  0  0  0  0  0
   -9.6057   21.9678  -31.6416 H   0  0  0  0  0  0  0  0  0  0  0  0
   -9.2246   19.7269  -32.6528 H   0  0  0  0  0  0  0  0  0  0  0  0
   -5.5466   16.5950  -35.4376 H   0  0  0  0  0  0  0  0  0  0  0  0
   -6.9878   15.3894  -33.5226 H   0  0  0  0  0  0  0  0  0  0  0  0
   -7.8740   17.2500  -31.9150 H   0  0  0  0  0  0  0  0  0  0  0  0
   -4.9848   20.4117  -32.4938 H   0  0  0  0  0  0  0  0  0  0  0  0
  1  2  1  0
  2  3  1  0
  2  4  1  0
  2  5  1  0
  5  6  1  0
  6  7  2  0
  6  8  1  0
  8  9  1  0
  9 10  1  0
 10 11  1  0
 10 12  2  0
  9 13  2  0
 13 14  1  0
 14 15  2  0
 15 16  1  0
 16 17  2  0
 17 18  1  0
 18 19  2  0
 19 20  1  0
 20 21  2  0
 21 22  1  0
 17 23  1  0
 23 24  2  0
 24  8  1  0
 24 14  1  0
 22 18  1  0
  1 25  1  0
  1 26  1  0
  1 27  1  0
  3 28  1  0
  3 29  1  0
  3 30  1  0
  4 31  1  0
  4 32  1  0
  4 33  1  0
 11 34  1  0
 11 35  1  0
 13 36  1  0
 15 37  1  0
 16 38  1  0
 20 39  1  0
 21 40  1  0
 22 41  1  0
 23 42  1  0
M  END
>  <smiles>  (36) 
CC(C)(C)OC(=O)n1c(C(N)=O)cc2ccc(-c3ncc[nH]3)cc21

>  <score_type>  (36) 
oracle

>  <origin>  (36) 
adg

>  <m_score__min__energy>  (36) 
-9.1600000000000001

>  <m_primary>  (36) 
energy

$$$$
36:0
     RDKit          3D

 47 49  0  0  0  0  0  0  0  0999 V2000
   -4.5500   12.9020  -31.5600 C   0  0  0  0  0  0  0  0  0  0  0  0
   -3.3940   13.5430  -32.3120 C   0  0  0  0  0  0  0  0  0  0  0  0
   -3.7800   13.7860  -33.6600 O   0  0  0  0  0  0  0  0  0  0  0  0
   -5.0300   14.3110  -34.0070 C   0  0  0  0  0  0  0  0  0  0  0  0
   -5.8450   13.6120  -34.6720 O   0  0  0  0  0  0  0  0  0  0  0  0
   -5.3950   15.6830  -33.5920 C   0  0  0  0  0  0  0  0  0  0  0  0
   -5.6030   15.9930  -32.2370 C   0  0  0  0  0  0  0  0  0  0  0  0
   -5.9470   17.2910  -31.8480 C   0  0  0  0  0  0  0  0  0  0  0  0
   -6.1130   17.5590  -30.5270 F   0  0  0  0  0  0  0  0  0  0  0  0
   -6.0900   18.3080  -32.8100 C   0  0  0  0  0  0  0  0  0  0  0  0
   -6.4560   19.6830  -32.4010 C   0  0  0  0  0  0  0  0  0  0  0  0
   -7.8050   20.1160  -32.4780 C   0  0  0  0  0  0  0  0  0  0  0  0
   -8.1620   21.4220  -32.1060 C   0  0  0  0  0  0  0  0  0  0  0  0
   -7.1550   22.2690  -31.6520 C   0  0  0  0  0  0  0  0  0  0  0  0
   -7.2200   23.5830  -31.2500 C   0  0  0  0  0  0  0  0  0  0  0  0
   -5.9140   23.9300  -30.9110 C   0  0  0  0  0  0  0  0  0  0  0  0
   -5.5430   25.2430  -30.3390 C   0  0  0  0  0  0  0  0  0  0  0  0
   -4.2220   25.7470  -30.5230 N   0  0  0  0  0  0  0  0  0  0  0  0
   -6.3880   25.9400  -29.7210 O   0  0  0  0  0  0  0  0  0  0  0  0
   -5.0740   22.8730  -31.1030 N   0  0  0  0  0  0  0  0  0  0  0  0
   -3.6490   22.8360  -30.9270 C   0  0  0  0  0  0  0  0  0  0  0  0
   -2.9350   22.1520  -31.7090 O   0  0  0  0  0  0  0  0  0  0  0  0
   -3.0630   23.5390  -29.8670 O   0  0  0  0  0  0  0  0  0  0  0  0
   -3.4170   23.3400  -28.5010 C   0  0  0  0  0  0  0  0  0  0  0  0
   -3.3470   21.8620  -28.1350 C   0  0  0  0  0  0  0  0  0  0  0  0
   -5.8500   21.8640  -31.5550 C   0  0  0  0  0  0  0  0  0  0  0  0
   -5.4620   20.5740  -31.9370 C   0  0  0  0  0  0  0  0  0  0  0  0
   -5.8810   17.9980  -34.1670 C   0  0  0  0  0  0  0  0  0  0  0  0
   -6.0390   18.9470  -35.1250 F   0  0  0  0  0  0  0  0  0  0  0  0
   -5.5370   16.6990  -34.5510 C   0  0  0  0  0  0  0  0  0  0  0  0
   -4.3802   12.9961  -30.4773 H   0  0  0  0  0  0  0  0  0  0  0  0
   -5.4885   13.4086  -31.8294 H   0  0  0  0  0  0  0  0  0  0  0  0
   -4.6174   11.8376  -31.8294 H   0  0  0  0  0  0  0  0  0  0  0  0
   -3.1264   14.4950  -31.8302 H   0  0  0  0  0  0  0  0  0  0  0  0
   -2.5267   12.8666  -32.2958 H   0  0  0  0  0  0  0  0  0  0  0  0
   -5.4941   15.2069  -31.4754 H   0  0  0  0  0  0  0  0  0  0  0  0
   -8.5799   19.4207  -32.8331 H   0  0  0  0  0  0  0  0  0  0  0  0
   -9.2051   21.7652  -32.1713 H   0  0  0  0  0  0  0  0  0  0  0  0
   -8.1132   24.2235  -31.2056 H   0  0  0  0  0  0  0  0  0  0  0  0
   -3.5080   25.6690  -29.7660 H   0  0  0  0  0  0  0  0  0  0  0  0
   -2.7210   23.9034  -27.8621 H   0  0  0  0  0  0  0  0  0  0  0  0
   -4.4474   23.6933  -28.3481 H   0  0  0  0  0  0  0  0  0  0  0  0
   -3.3419   21.7552  -27.0402 H   0  0  0  0  0  0  0  0  0  0  0  0
   -4.2214   21.3396  -28.5503 H   0  0  0  0  0  0  0  0  0  0  0  0
   -2.4271   21.4246  -28.5503 H   0  0  0  0  0  0  0  0  0  0  0  0
   -4.4090   20.2616  -31.8774 H   0  0  0  0  0  0  0  0  0  0  0  0
   -5.3759   16.4702  -35.6148 H   0  0  0  0  0  0  0  0  0  0  0  0
  1  2  1  0
  2  3  1  0
  3  4  1  0
  4  5  2  0
  4  6  1  0
  6  7  2  0
  7  8  1  0
  8  9  1  0
  8 10  2  0
 10 11  1  0
 11 12  2  0
 12 13  1  0
 13 14  2  0
 14 15  1  0
 15 16  2  0
 16 17  1  0
 17 18  1  0
 17 19  2  0
 16 20  1  0
 20 21  1  0
 21 22  2  0
 21 23  1  0
 23 24  1  0
 24 25  1  0
 20 26  1  0
 26 27  2  0
 10 28  1  0
 28 29  1  0
 28 30  2  0
 30  6  1  0
 27 11  1  0
 26 14  1  0
  1 31  1  0
  1 32  1  0
  1 33  1  0
  2 34  1  0
  2 35  1  0
  7 36  1  0
 12 37  1  0
 13 38  1  0
 15 39  1  0
 18 40  1  0
 24 41  1  0
 24 42  1  0
 25 43  1  0
 25 44  1  0
 25 45  1  0
 27 46  1  0
 30 47  1  0
M  CHG  1  18  -1
M  END
>  <UniqueID>  (37) 
36

>  <SMILES>  (37) 
CCOC(=O)c1cc(F)c(-c2ccc3cc(C([NH-])=O)n(C(=O)OCC)c3c2)c(F)c1

>  <Energy>  (37) 
86.51153080242801

>  <Genealogy>  (37) 
CCOC(=O)c1cc(F)c(-c2ccc3cc(C([NH-])=O)n(C(=O)OCC)c3c2)c(F)c1 (protonated)
CCOC(=O)c1cc(F)c(-c2ccc3cc(C([NH-])=O)n(C(=O)OCC)c3c2)c(F)c1 (3D coordinates assigned)
CCOC(=O)c1cc(F)c(-c2ccc3cc(C([NH-])=O)n(C(=O)OCC)c3c2)c(F)c1 (optimized conformer: 86.51153080242801 kcal/mol)

>  <smiles>  (37) 
CCOC(=O)c1cc(F)c(-c2ccc3cc(C(N)=O)n(C(=O)OCC)c3c2)c(F)c1

>  <score_type>  (37) 
oracle

>  <origin>  (37) 
adg

>  <m_score__min__energy>  (37) 
-10.26

>  <m_primary>  (37) 
energy

$$$$
37:0
     RDKit          3D

 61 63  0  0  0  0  0  0  0  0999 V2000
   -0.4410   18.3210  -27.6380 C   0  0  0  0  0  0  0  0  0  0  0  0
   -1.1280   19.5750  -27.3180 N   0  0  0  0  0  0  0  0  0  0  0  0
   -2.3150   19.5730  -26.4560 C   0  0  0  0  0  0  0  0  0  0  0  0
   -0.6490   20.8060  -27.8880 C   0  0  0  0  0  0  0  0  0  0  0  0
    0.1490   20.7840  -28.8660 O   0  0  0  0  0  0  0  0  0  0  0  0
   -1.1610   22.4010  -27.2330 S   0  0  0  0  0  0  0  0  0  0  0  0
   -1.3380   23.2080  -28.8750 C   0  0  1  0  0  0  0  0  0  0  0  0
   -2.8010   23.2090  -29.3520 C   0  0  0  0  0  0  0  0  0  0  0  0
   -2.8780   23.4030  -30.7650 O   0  0  0  0  0  0  0  0  0  0  0  0
   -3.7720   22.7280  -31.6010 C   0  0  0  0  0  0  0  0  0  0  0  0
   -3.3450   21.9330  -32.4830 O   0  0  0  0  0  0  0  0  0  0  0  0
   -5.1850   22.8780  -31.4090 N   0  0  0  0  0  0  0  0  0  0  0  0
   -5.8580   23.9360  -30.8690 C   0  0  0  0  0  0  0  0  0  0  0  0
   -5.2650   25.2010  -30.3920 C   0  0  0  0  0  0  0  0  0  0  0  0
   -3.9990   25.6560  -30.8770 N   0  0  0  0  0  0  0  0  0  0  0  0
   -5.8720   25.8800  -29.5140 O   0  0  0  0  0  0  0  0  0  0  0  0
   -7.2330   23.6930  -30.8890 C   0  0  0  0  0  0  0  0  0  0  0  0
   -7.3770   22.4470  -31.4560 C   0  0  0  0  0  0  0  0  0  0  0  0
   -8.5230   21.6990  -31.6980 C   0  0  0  0  0  0  0  0  0  0  0  0
   -8.3690   20.4310  -32.2820 C   0  0  0  0  0  0  0  0  0  0  0  0
   -7.0790   19.9340  -32.6060 C   0  0  0  0  0  0  0  0  0  0  0  0
   -6.9320   18.6030  -33.3010 C   0  0  0  0  0  0  0  0  0  0  0  0
   -6.0860   18.7420  -34.5740 C   0  0  0  0  0  0  0  0  0  0  0  0
   -4.9860   17.7470  -34.5990 N   0  0  0  0  0  0  0  0  0  0  0  0
   -5.2910   16.6020  -33.7130 C   0  0  0  0  0  0  0  0  0  0  0  0
   -4.1480   15.5820  -33.7590 C   0  0  0  0  0  0  0  0  0  0  0  0
   -2.8850   16.2010  -33.3410 N   0  0  0  0  0  0  0  0  0  0  0  0
   -2.5680   17.3500  -34.1950 C   0  0  0  0  0  0  0  0  0  0  0  0
   -3.7120   18.3780  -34.1970 C   0  0  0  0  0  0  0  0  0  0  0  0
   -5.9400   20.7230  -32.3460 C   0  0  0  0  0  0  0  0  0  0  0  0
   -6.1240   21.9800  -31.7650 C   0  0  0  0  0  0  0  0  0  0  0  0
   -0.8140   24.6150  -28.8120 C   0  0  0  0  0  0  0  0  0  0  0  0
    0.2680   24.8700  -28.2160 O   0  0  0  0  0  0  0  0  0  0  0  0
   -1.5660   25.6570  -29.3450 O   0  0  0  0  0  0  0  0  0  0  0  0
   -0.1603   17.8086  -26.7060 H   0  0  0  0  0  0  0  0  0  0  0  0
   -1.1112   17.6750  -28.2241 H   0  0  0  0  0  0  0  0  0  0  0  0
    0.4642   18.5380  -28.2241 H   0  0  0  0  0  0  0  0  0  0  0  0
   -2.0023   19.5735  -25.4014 H   0  0  0  0  0  0  0  0  0  0  0  0
   -2.9179   20.4701  -26.6601 H   0  0  0  0  0  0  0  0  0  0  0  0
   -2.9149   18.6738  -26.6601 H   0  0  0  0  0  0  0  0  0  0  0  0
   -0.7498   22.6289  -29.6021 H   0  0  0  0  0  0  0  0  0  0  0  0
   -3.2638   22.2446  -29.0955 H   0  0  0  0  0  0  0  0  0  0  0  0
   -3.3313   24.0348  -28.8552 H   0  0  0  0  0  0  0  0  0  0  0  0
   -3.1110   25.2990  -30.4610 H   0  0  0  0  0  0  0  0  0  0  0  0
   -8.0322   24.3570  -30.5279 H   0  0  0  0  0  0  0  0  0  0  0  0
   -9.5192   22.0878  -31.4403 H   0  0  0  0  0  0  0  0  0  0  0  0
   -9.2571   19.8164  -32.4906 H   0  0  0  0  0  0  0  0  0  0  0  0
   -6.4426   17.8923  -32.6188 H   0  0  0  0  0  0  0  0  0  0  0  0
   -7.9318   18.2395  -33.5807 H   0  0  0  0  0  0  0  0  0  0  0  0
   -6.7305   18.5864  -35.4518 H   0  0  0  0  0  0  0  0  0  0  0  0
   -5.6446   19.7494  -34.5903 H   0  0  0  0  0  0  0  0  0  0  0  0
   -5.4152   16.9631  -32.6814 H   0  0  0  0  0  0  0  0  0  0  0  0
   -6.2185   16.1193  -34.0546 H   0  0  0  0  0  0  0  0  0  0  0  0
   -4.3820   14.7464  -33.0830 H   0  0  0  0  0  0  0  0  0  0  0  0
   -4.0394   15.2180  -34.7913 H   0  0  0  0  0  0  0  0  0  0  0  0
   -2.9910   16.5370  -32.3550 H   0  0  0  0  0  0  0  0  0  0  0  0
   -1.6532   17.8328  -33.8209 H   0  0  0  0  0  0  0  0  0  0  0  0
   -2.4246   16.9884  -35.2239 H   0  0  0  0  0  0  0  0  0  0  0  0
   -3.8210   18.7977  -33.1861 H   0  0  0  0  0  0  0  0  0  0  0  0
   -3.4699   19.1724  -34.9183 H   0  0  0  0  0  0  0  0  0  0  0  0
   -4.9324   20.3582  -32.5942 H   0  0  0  0  0  0  0  0  0  0  0  0
  1  2  1  0
  2  3  1  0
  2  4  1  0
  4  5  2  0
  4  6  1  0
  6  7  1  0
  7  8  1  0
  8  9  1  0
  9 10  1  0
 10 11  2  0
 10 12  1  0
 12 13  1  0
 13 14  1  0
 14 15  1  0
 14 16  2  0
 13 17  2  0
 17 18  1  0
 18 19  2  0
 19 20  1  0
 20 21  2  0
 21 22  1  0
 22 23  1  0
 23 24  1  0
 24 25  1  0
 25 26  1  0
 26 27  1  0
 27 28  1  0
 28 29  1  0
 21 30  1  0
 30 31  2  0
  7 32  1  0
 32 33  2  0
 32 34  1  0
 31 12  1  0
 31 18  1  0
 29 24  1  0
  1 35  1  0
  1 36  1  0
  1 37  1  0
  3 38  1  0
  3 39  1  0
  3 40  1  0
  7 41  1  6
  8 42  1  0
  8 43  1  0
 15 44  1  0
 17 45  1  0
 19 46  1  0
 20 47  1  0
 22 48  1  0
 22 49  1  0
 23 50  1  0
 23 51  1  0
 25 52  1  0
 25 53  1  0
 26 54  1  0
 26 55  1  0
 27 56  1  0
 28 57  1  0
 28 58  1  0
 29 59  1  0
 29 60  1  0
 30 61  1  0
M  CHG  2  15  -1  34  -1
M  END
>  <UniqueID>  (38) 
37

>  <SMILES>  (38) 
CN(C)C(=O)S[C@@H](COC(=O)n1c(C([NH-])=O)cc2ccc(CCN3CCNCC3)cc21)C(=O)[O-]

>  <Energy>  (38) 
92.24895754513109

>  <Genealogy>  (38) 
CN(C)C(=O)SC(COC(=O)n1c(C([NH-])=O)cc2ccc(CCN3CCNCC3)cc21)C(=O)[O-] (protonated)
CN(C)C(=O)S[C@@H](COC(=O)n1c(C([NH-])=O)cc2ccc(CCN3CCNCC3)cc21)C(=O)[O-] (chirality)
CN(C)C(=O)S[C@@H](COC(=O)n1c(C([NH-])=O)cc2ccc(CCN3CCNCC3)cc21)C(=O)[O-] (3D coordinates assigned)
CN(C)C(=O)S[C@@H](COC(=O)n1c(C([NH-])=O)cc2ccc(CCN3CCNCC3)cc21)C(=O)[O-] (nonaromatic ring conformer: 92.24895754513109 kcal/mol)

>  <smiles>  (38) 
CN(C)C(=O)SC(COC(=O)n1c(C(N)=O)cc2ccc(CCN3CCNCC3)cc21)C(=O)O

>  <score_type>  (38) 
oracle

>  <origin>  (38) 
adg

>  <m_score__min__energy>  (38) 
-14.41

>  <m_primary>  (38) 
energy

$$$$
38:0
     RDKit          3D

 38 40  0  0  0  0  0  0  0  0999 V2000
   -2.1100   17.2120  -34.6030 C   0  0  0  0  0  0  0  0  0  0  0  0
   -3.2810   16.3880  -34.9280 N   0  0  0  0  0  0  0  0  0  0  0  0
   -3.1210   15.2070  -35.7850 C   0  0  0  0  0  0  0  0  0  0  0  0
   -4.5740   16.7650  -34.3970 C   0  0  0  0  0  0  0  0  0  0  0  0
   -4.8170   18.0490  -33.8760 C   0  0  0  0  0  0  0  0  0  0  0  0
   -6.0920   18.3550  -33.3780 C   0  0  0  0  0  0  0  0  0  0  0  0
   -6.3820   19.7030  -32.8270 C   0  0  0  0  0  0  0  0  0  0  0  0
   -7.7210   20.1670  -32.7270 C   0  0  0  0  0  0  0  0  0  0  0  0
   -8.0010   21.4470  -32.2220 C   0  0  0  0  0  0  0  0  0  0  0  0
   -6.9320   22.2380  -31.8170 C   0  0  0  0  0  0  0  0  0  0  0  0
   -6.9190   23.5200  -31.3170 C   0  0  0  0  0  0  0  0  0  0  0  0
   -5.5770   23.8160  -31.0940 C   0  0  0  0  0  0  0  0  0  0  0  0
   -5.1170   25.0770  -30.4740 C   0  0  0  0  0  0  0  0  0  0  0  0
   -3.8720   25.6660  -30.8460 N   0  0  0  0  0  0  0  0  0  0  0  0
   -5.8080   25.6160  -29.5690 O   0  0  0  0  0  0  0  0  0  0  0  0
   -4.7880   22.7620  -31.4500 N   0  0  0  0  0  0  0  0  0  0  0  0
   -3.3530   22.6970  -31.4560 C   0  0  0  0  0  0  0  0  0  0  0  0
   -2.7420   22.1890  -32.4320 O   0  0  0  0  0  0  0  0  0  0  0  0
   -2.6260   23.1740  -30.3730 O   0  0  0  0  0  0  0  0  0  0  0  0
   -5.6340   21.8030  -31.8890 C   0  0  0  0  0  0  0  0  0  0  0  0
   -5.3230   20.5410  -32.4080 C   0  0  0  0  0  0  0  0  0  0  0  0
   -7.0680   17.4010  -33.4120 N   0  0  0  0  0  0  0  0  0  0  0  0
   -6.8210   16.1660  -33.9180 C   0  0  0  0  0  0  0  0  0  0  0  0
   -5.5900   15.8600  -34.4000 N   0  0  0  0  0  0  0  0  0  0  0  0
   -2.0053   17.2857  -33.5105 H   0  0  0  0  0  0  0  0  0  0  0  0
   -1.2068   16.7493  -35.0275 H   0  0  0  0  0  0  0  0  0  0  0  0
   -2.2406   18.2183  -35.0275 H   0  0  0  0  0  0  0  0  0  0  0  0
   -2.9997   14.3120  -35.1571 H   0  0  0  0  0  0  0  0  0  0  0  0
   -4.0117   15.0914  -36.4201 H   0  0  0  0  0  0  0  0  0  0  0  0
   -2.2317   15.3326  -36.4201 H   0  0  0  0  0  0  0  0  0  0  0  0
   -4.0169   18.8037  -33.8594 H   0  0  0  0  0  0  0  0  0  0  0  0
   -8.5476   19.5164  -33.0487 H   0  0  0  0  0  0  0  0  0  0  0  0
   -9.0358   21.8130  -32.1490 H   0  0  0  0  0  0  0  0  0  0  0  0
   -7.7852   24.1725  -31.1326 H   0  0  0  0  0  0  0  0  0  0  0  0
   -2.9720   25.3010  -30.4650 H   0  0  0  0  0  0  0  0  0  0  0  0
   -4.2776   20.2083  -32.4882 H   0  0  0  0  0  0  0  0  0  0  0  0
   -8.0190   17.6000  -33.0280 H   0  0  0  0  0  0  0  0  0  0  0  0
   -7.6209   15.4111  -33.9374 H   0  0  0  0  0  0  0  0  0  0  0  0
  1  2  1  0
  2  3  1  0
  2  4  1  0
  4  5  2  0
  5  6  1  0
  6  7  1  0
  7  8  2  0
  8  9  1  0
  9 10  2  0
 10 11  1  0
 11 12  2  0
 12 13  1  0
 13 14  1  0
 13 15  2  0
 12 16  1  0
 16 17  1  0
 17 18  2  0
 17 19  1  0
 16 20  1  0
 20 21  2  0
  6 22  2  0
 22 23  1  0
 23 24  2  0
 24  4  1  0
 21  7  1  0
 20 10  1  0
  1 25  1  0
  1 26  1  0
  1 27  1  0
  3 28  1  0
  3 29  1  0
  3 30  1  0
  5 31  1  0
  8 32  1  0
  9 33  1  0
 11 34  1  0
 14 35  1  0
 21 36  1  0
 22 37  1  0
 23 38  1  0
M  CHG  3  14  -1  19  -1  22   1
M  END
>  <UniqueID>  (39) 
38

>  <SMILES>  (39) 
CN(C)c1cc(-c2ccc3cc(C([NH-])=O)n(C(=O)[O-])c3c2)[nH+]cn1

>  <Energy>  (39) 
84.87362599412286

>  <Genealogy>  (39) 
CN(C)c1cc(-c2ccc3cc(C([NH-])=O)n(C(=O)[O-])c3c2)[nH+]cn1 (protonated)
CN(C)c1cc(-c2ccc3cc(C([NH-])=O)n(C(=O)[O-])c3c2)[nH+]cn1 (3D coordinates assigned)
CN(C)c1cc(-c2ccc3cc(C([NH-])=O)n(C(=O)[O-])c3c2)[nH+]cn1 (optimized conformer: 84.87362599412286 kcal/mol)

>  <smiles>  (39) 
CN(C)c1cc(-c2ccc3cc(C(N)=O)n(C(=O)O)c3c2)ncn1

>  <score_type>  (39) 
oracle

>  <origin>  (39) 
adg

>  <m_score__min__energy>  (39) 
-11.31

>  <m_primary>  (39) 
energy

$$$$
39:0
     RDKit          3D

 37 39  0  0  0  0  0  0  0  0999 V2000
   -6.4870   13.1200  -34.9460 C   0  0  0  0  0  0  0  0  0  0  0  0
   -4.9620   13.9530  -34.5610 S   0  0  0  0  0  0  0  0  0  0  0  0
   -4.1010   13.9750  -35.7930 O   0  0  0  0  0  0  0  0  0  0  0  0
   -4.2280   13.2080  -33.4810 O   0  0  0  0  0  0  0  0  0  0  0  0
   -5.3030   15.6060  -34.0280 C   0  0  0  0  0  0  0  0  0  0  0  0
   -6.6290   15.9860  -33.7820 C   0  0  0  0  0  0  0  0  0  0  0  0
   -6.9320   17.2800  -33.3530 C   0  0  0  0  0  0  0  0  0  0  0  0
   -5.9090   18.2230  -33.1570 C   0  0  0  0  0  0  0  0  0  0  0  0
   -6.2310   19.5980  -32.6990 C   0  0  0  0  0  0  0  0  0  0  0  0
   -7.5710   20.0670  -32.7230 C   0  0  0  0  0  0  0  0  0  0  0  0
   -7.8850   21.3700  -32.3040 C   0  0  0  0  0  0  0  0  0  0  0  0
   -6.8470   22.1800  -31.8580 C   0  0  0  0  0  0  0  0  0  0  0  0
   -6.8680   23.4840  -31.4210 C   0  0  0  0  0  0  0  0  0  0  0  0
   -5.5450   23.7920  -31.1100 C   0  0  0  0  0  0  0  0  0  0  0  0
   -5.1300   25.0800  -30.5160 C   0  0  0  0  0  0  0  0  0  0  0  0
   -3.8750   25.6680  -30.8470 N   0  0  0  0  0  0  0  0  0  0  0  0
   -5.8710   25.6420  -29.6660 O   0  0  0  0  0  0  0  0  0  0  0  0
   -4.7360   22.7230  -31.3540 N   0  0  0  0  0  0  0  0  0  0  0  0
   -3.3030   22.6660  -31.2540 C   0  0  0  0  0  0  0  0  0  0  0  0
   -2.6190   22.1790  -32.1910 O   0  0  0  0  0  0  0  0  0  0  0  0
   -2.6580   23.1750  -30.1330 O   0  0  0  0  0  0  0  0  0  0  0  0
   -5.5480   21.7430  -31.8100 C   0  0  0  0  0  0  0  0  0  0  0  0
   -5.2030   20.4560  -32.2390 C   0  0  0  0  0  0  0  0  0  0  0  0
   -4.5780   17.8410  -33.3980 C   0  0  0  0  0  0  0  0  0  0  0  0
   -4.2700   16.5460  -33.8280 C   0  0  0  0  0  0  0  0  0  0  0  0
   -2.5760   16.1470  -34.0990 Cl  0  0  0  0  0  0  0  0  0  0  0  0
   -6.9980   12.8409  -34.0128 H   0  0  0  0  0  0  0  0  0  0  0  0
   -7.1333   13.7904  -35.5316 H   0  0  0  0  0  0  0  0  0  0  0  0
   -6.2722   12.2139  -35.5316 H   0  0  0  0  0  0  0  0  0  0  0  0
   -7.4400   15.2573  -33.9283 H   0  0  0  0  0  0  0  0  0  0  0  0
   -7.9786   17.5629  -33.1673 H   0  0  0  0  0  0  0  0  0  0  0  0
   -8.3732   19.4013  -33.0742 H   0  0  0  0  0  0  0  0  0  0  0  0
   -8.9211   21.7386  -32.3280 H   0  0  0  0  0  0  0  0  0  0  0  0
   -7.7438   24.1440  -31.3352 H   0  0  0  0  0  0  0  0  0  0  0  0
   -2.9840   25.2850  -30.4600 H   0  0  0  0  0  0  0  0  0  0  0  0
   -4.1562   20.1187  -32.2192 H   0  0  0  0  0  0  0  0  0  0  0  0
   -3.7681   18.5698  -33.2465 H   0  0  0  0  0  0  0  0  0  0  0  0
  1  2  1  0
  2  3  2  0
  2  4  2  0
  2  5  1  0
  5  6  2  0
  6  7  1  0
  7  8  2  0
  8  9  1  0
  9 10  2  0
 10 11  1  0
 11 12  2  0
 12 13  1  0
 13 14  2  0
 14 15  1  0
 15 16  1  0
 15 17  2  0
 14 18  1  0
 18 19  1  0
 19 20  2  0
 19 21  1  0
 18 22  1  0
 22 23  2  0
  8 24  1  0
 24 25  2  0
 25 26  1  0
 25  5  1  0
 23  9  1  0
 22 12  1  0
  1 27  1  0
  1 28  1  0
  1 29  1  0
  6 30  1  0
  7 31  1  0
 10 32  1  0
 11 33  1  0
 13 34  1  0
 16 35  1  0
 23 36  1  0
 24 37  1  0
M  CHG  2  16  -1  21  -1
M  END
>  <UniqueID>  (40) 
39

>  <SMILES>  (40) 
CS(=O)(=O)c1ccc(-c2ccc3cc(C([NH-])=O)n(C(=O)[O-])c3c2)cc1Cl

>  <Energy>  (40) 
84.08080348973945

>  <Genealogy>  (40) 
CS(=O)(=O)c1ccc(-c2ccc3cc(C([NH-])=O)n(C(=O)[O-])c3c2)cc1Cl (protonated)
CS(=O)(=O)c1ccc(-c2ccc3cc(C([NH-])=O)n(C(=O)[O-])c3c2)cc1Cl (3D coordinates assigned)
CS(=O)(=O)c1ccc(-c2ccc3cc(C([NH-])=O)n(C(=O)[O-])c3c2)cc1Cl (optimized conformer: 84.08080348973945 kcal/mol)

>  <smiles>  (40) 
CS(=O)(=O)c1ccc(-c2ccc3cc(C(N)=O)n(C(=O)O)c3c2)cc1Cl

>  <score_type>  (40) 
oracle

>  <origin>  (40) 
adg

>  <m_score__min__energy>  (40) 
-11.289999999999999

>  <m_primary>  (40) 
energy

$$$$
40:0
     RDKit          3D

 35 37  0  0  0  0  0  0  0  0999 V2000
   -5.5440   26.4800  -30.4650 N   0  0  0  0  0  0  0  0  0  0  0  0
   -6.4360   25.4220  -30.1090 C   0  0  0  0  0  0  0  0  0  0  0  0
   -7.3570   25.6450  -29.2790 O   0  0  0  0  0  0  0  0  0  0  0  0
   -6.3360   24.0920  -30.7420 C   0  0  0  0  0  0  0  0  0  0  0  0
   -7.4410   23.3730  -31.1880 C   0  0  0  0  0  0  0  0  0  0  0  0
   -6.9260   22.2350  -31.7640 C   0  0  0  0  0  0  0  0  0  0  0  0
   -7.5810   21.1570  -32.3520 C   0  0  0  0  0  0  0  0  0  0  0  0
   -6.7990   20.0940  -32.8310 C   0  0  0  0  0  0  0  0  0  0  0  0
   -5.3880   20.1270  -32.7120 C   0  0  0  0  0  0  0  0  0  0  0  0
   -4.5830   18.9870  -33.1990 C   0  0  0  0  0  0  0  0  0  0  0  0
   -3.5120   19.2610  -34.0660 C   0  0  0  0  0  0  0  0  0  0  0  0
   -2.7430   18.2240  -34.5940 C   0  0  0  0  0  0  0  0  0  0  0  0
   -3.0360   16.9020  -34.2670 C   0  0  0  0  0  0  0  0  0  0  0  0
   -4.0880   16.6110  -33.3970 C   0  0  0  0  0  0  0  0  0  0  0  0
   -4.8610   17.6440  -32.8270 C   0  0  0  0  0  0  0  0  0  0  0  0
   -5.9840   17.2870  -31.8710 C   0  0  0  0  0  0  0  0  0  0  0  0
   -5.7160   16.0680  -31.2770 F   0  0  0  0  0  0  0  0  0  0  0  0
   -6.1170   18.2410  -30.8770 F   0  0  0  0  0  0  0  0  0  0  0  0
   -7.1920   17.2110  -32.5410 F   0  0  0  0  0  0  0  0  0  0  0  0
   -4.7590   21.2280  -32.0950 C   0  0  0  0  0  0  0  0  0  0  0  0
   -5.5600   22.2860  -31.6480 C   0  0  0  0  0  0  0  0  0  0  0  0
   -5.1810   23.4220  -31.0180 N   0  0  0  0  0  0  0  0  0  0  0  0
   -3.8460   23.7790  -30.6220 C   0  0  0  0  0  0  0  0  0  0  0  0
   -2.9860   22.8850  -30.4040 O   0  0  0  0  0  0  0  0  0  0  0  0
   -3.4880   25.1140  -30.4760 O   0  0  0  0  0  0  0  0  0  0  0  0
   -4.8820   26.3800  -31.2660 H   0  0  0  0  0  0  0  0  0  0  0  0
   -5.6050   27.4010  -29.9790 H   0  0  0  0  0  0  0  0  0  0  0  0
   -8.5006   23.6548  -31.0989 H   0  0  0  0  0  0  0  0  0  0  0  0
   -8.6774   21.1384  -32.4388 H   0  0  0  0  0  0  0  0  0  0  0  0
   -7.2863   19.2280  -33.3028 H   0  0  0  0  0  0  0  0  0  0  0  0
   -3.2778   20.3027  -34.3308 H   0  0  0  0  0  0  0  0  0  0  0  0
   -1.9045   18.4503  -35.2691 H   0  0  0  0  0  0  0  0  0  0  0  0
   -2.4367   16.0852  -34.6956 H   0  0  0  0  0  0  0  0  0  0  0  0
   -4.3170   15.5632  -33.1529 H   0  0  0  0  0  0  0  0  0  0  0  0
   -3.6667   21.2550  -31.9681 H   0  0  0  0  0  0  0  0  0  0  0  0
  1  2  1  0
  2  3  2  0
  2  4  1  0
  4  5  2  0
  5  6  1  0
  6  7  2  0
  7  8  1  0
  8  9  2  0
  9 10  1  0
 10 11  2  0
 11 12  1  0
 12 13  2  0
 13 14  1  0
 14 15  2  0
 15 16  1  0
 16 17  1  0
 16 18  1  0
 16 19  1  0
  9 20  1  0
 20 21  2  0
 21 22  1  0
 22 23  1  0
 23 24  2  0
 23 25  1  0
 22  4  1  0
 21  6  1  0
 15 10  1  0
  1 26  1  0
  1 27  1  0
  5 28  1  0
  7 29  1  0
  8 30  1  0
 11 31  1  0
 12 32  1  0
 13 33  1  0
 14 34  1  0
 20 35  1  0
M  CHG  1  25  -1
M  END
>  <UniqueID>  (41) 
40

>  <SMILES>  (41) 
NC(=O)c1cc2ccc(-c3ccccc3C(F)(F)F)cc2n1C(=O)[O-]

>  <Energy>  (41) 
87.61449064939886

>  <Genealogy>  (41) 
NC(=O)c1cc2ccc(-c3ccccc3C(F)(F)F)cc2n1C(=O)[O-] (protonated)
NC(=O)c1cc2ccc(-c3ccccc3C(F)(F)F)cc2n1C(=O)[O-] (3D coordinates assigned)
NC(=O)c1cc2ccc(-c3ccccc3C(F)(F)F)cc2n1C(=O)[O-] (optimized conformer: 87.61449064939886 kcal/mol)

>  <smiles>  (41) 
NC(=O)c1cc2ccc(-c3ccccc3C(F)(F)F)cc2n1C(=O)O

>  <score_type>  (41) 
oracle

>  <origin>  (41) 
adg

>  <m_score__min__energy>  (41) 
-9.2699999999999996

>  <m_primary>  (41) 
energy

$$$$
41:0
     RDKit          3D

 33 34  0  0  0  0  0  0  0  0999 V2000
   -7.7560   18.5770  -32.2120 C   0  0  0  0  0  0  0  0  0  0  0  0
   -6.2530   18.7730  -32.4090 C   0  0  0  0  0  0  0  0  0  0  0  0
   -5.8950   20.1910  -32.9080 C   0  0  1  0  0  0  0  0  0  0  0  0
   -7.0340   21.1950  -32.6710 C   0  0  0  0  0  0  0  0  0  0  0  0
   -4.6180   20.6790  -32.2470 C   0  0  0  0  0  0  0  0  0  0  0  0
   -3.4480   19.8770  -32.2910 C   0  0  0  0  0  0  0  0  0  0  0  0
   -2.2540   20.3140  -31.6960 C   0  0  0  0  0  0  0  0  0  0  0  0
   -2.2560   21.5500  -31.0590 C   0  0  0  0  0  0  0  0  0  0  0  0
   -1.2340   22.2200  -30.4250 C   0  0  0  0  0  0  0  0  0  0  0  0
   -1.7960   23.4140  -29.9800 C   0  0  0  0  0  0  0  0  0  0  0  0
   -1.0580   24.4050  -29.1680 C   0  0  0  0  0  0  0  0  0  0  0  0
   -1.6150   25.7000  -28.9530 N   0  0  0  0  0  0  0  0  0  0  0  0
    0.0750   24.1350  -28.6910 O   0  0  0  0  0  0  0  0  0  0  0  0
   -3.1130   23.4840  -30.3310 N   0  0  0  0  0  0  0  0  0  0  0  0
   -4.0270   24.5700  -30.1140 C   0  0  0  0  0  0  0  0  0  0  0  0
   -3.8930   25.6510  -30.7460 O   0  0  0  0  0  0  0  0  0  0  0  0
   -5.0850   24.4300  -29.2240 O   0  0  0  0  0  0  0  0  0  0  0  0
   -3.3790   22.3330  -30.9880 C   0  0  0  0  0  0  0  0  0  0  0  0
   -4.5770   21.9320  -31.5880 C   0  0  0  0  0  0  0  0  0  0  0  0
   -7.9840   18.5473  -31.1363 H   0  0  0  0  0  0  0  0  0  0  0  0
   -8.2990   19.4119  -32.6790 H   0  0  0  0  0  0  0  0  0  0  0  0
   -8.0667   17.6307  -32.6790 H   0  0  0  0  0  0  0  0  0  0  0  0
   -5.7470   18.6004  -31.4477 H   0  0  0  0  0  0  0  0  0  0  0  0
   -5.9234   18.0582  -33.1774 H   0  0  0  0  0  0  0  0  0  0  0  0
   -5.7379   20.1230  -33.9946 H   0  0  0  0  0  0  0  0  0  0  0  0
   -7.1858   21.3288  -31.5898 H   0  0  0  0  0  0  0  0  0  0  0  0
   -6.7719   22.1612  -33.1268 H   0  0  0  0  0  0  0  0  0  0  0  0
   -7.9597   20.8137  -33.1268 H   0  0  0  0  0  0  0  0  0  0  0  0
   -3.4771   18.9010  -32.7975 H   0  0  0  0  0  0  0  0  0  0  0  0
   -1.3440   19.6971  -31.7326 H   0  0  0  0  0  0  0  0  0  0  0  0
   -0.1945   21.8837  -30.2971 H   0  0  0  0  0  0  0  0  0  0  0  0
   -2.6500   25.8460  -28.9530 H   0  0  0  0  0  0  0  0  0  0  0  0
   -5.4681   22.5758  -31.5489 H   0  0  0  0  0  0  0  0  0  0  0  0
  1  2  1  0
  2  3  1  0
  3  4  1  0
  3  5  1  0
  5  6  2  0
  6  7  1  0
  7  8  2  0
  8  9  1  0
  9 10  2  0
 10 11  1  0
 11 12  1  0
 11 13  2  0
 10 14  1  0
 14 15  1  0
 15 16  2  0
 15 17  1  0
 14 18  1  0
 18 19  2  0
 19  5  1  0
 18  8  1  0
  1 20  1  0
  1 21  1  0
  1 22  1  0
  2 23  1  0
  2 24  1  0
  3 25  1  6
  4 26  1  0
  4 27  1  0
  4 28  1  0
  6 29  1  0
  7 30  1  0
  9 31  1  0
 12 32  1  0
 19 33  1  0
M  CHG  2  12  -1  17  -1
M  END
>  <UniqueID>  (42) 
41

>  <SMILES>  (42) 
CC[C@@H](C)c1ccc2cc(C([NH-])=O)n(C(=O)[O-])c2c1

>  <Energy>  (42) 
67.93519302089504

>  <Genealogy>  (42) 
CCC(C)c1ccc2cc(C([NH-])=O)n(C(=O)[O-])c2c1 (protonated)
CC[C@@H](C)c1ccc2cc(C([NH-])=O)n(C(=O)[O-])c2c1 (chirality)
CC[C@@H](C)c1ccc2cc(C([NH-])=O)n(C(=O)[O-])c2c1 (3D coordinates assigned)
CC[C@@H](C)c1ccc2cc(C([NH-])=O)n(C(=O)[O-])c2c1 (optimized conformer: 67.93519302089504 kcal/mol)

>  <smiles>  (42) 
CCC(C)c1ccc2cc(C(N)=O)n(C(=O)O)c2c1

>  <score_type>  (42) 
oracle

>  <origin>  (42) 
adg

>  <m_score__min__energy>  (42) 
-10.83

>  <m_primary>  (42) 
energy

$$$$
42:0
     RDKit          3D

 51 52  0  0  0  0  0  0  0  0999 V2000
   -6.0370   16.8930  -31.0630 C   0  0  0  0  0  0  0  0  0  0  0  0
   -6.1190   17.9300  -32.1930 C   0  0  2  0  0  0  0  0  0  0  0  0
   -7.5400   18.5120  -32.3160 C   0  0  0  0  0  0  0  0  0  0  0  0
   -7.5340   20.0020  -32.0970 C   0  0  0  0  0  0  0  0  0  0  0  0
   -8.7320   20.7450  -32.2350 C   0  0  0  0  0  0  0  0  0  0  0  0
   -8.7530   22.1260  -31.9780 C   0  0  0  0  0  0  0  0  0  0  0  0
   -7.5700   22.7280  -31.5580 C   0  0  0  0  0  0  0  0  0  0  0  0
   -7.3150   24.0360  -31.2200 C   0  0  0  0  0  0  0  0  0  0  0  0
   -5.9740   24.0660  -30.8410 C   0  0  0  0  0  0  0  0  0  0  0  0
   -5.3060   25.2710  -30.3070 C   0  0  0  0  0  0  0  0  0  0  0  0
   -4.0390   25.6700  -30.8280 N   0  0  0  0  0  0  0  0  0  0  0  0
   -5.8530   25.9720  -29.4160 O   0  0  0  0  0  0  0  0  0  0  0  0
   -5.4190   22.8250  -30.9500 N   0  0  0  0  0  0  0  0  0  0  0  0
   -4.0670   22.4340  -30.6660 C   0  0  0  0  0  0  0  0  0  0  0  0
   -2.9770   23.2080  -31.1630 N   0  0  0  0  0  0  0  0  0  0  0  0
   -3.8370   21.4100  -29.9680 O   0  0  0  0  0  0  0  0  0  0  0  0
   -6.4090   22.0180  -31.3930 C   0  0  0  0  0  0  0  0  0  0  0  0
   -6.3520   20.6500  -31.6760 C   0  0  0  0  0  0  0  0  0  0  0  0
   -5.6630   17.3530  -33.4770 N   0  0  0  0  0  0  0  0  0  0  0  0
   -6.5000   16.4060  -34.2280 C   0  0  0  0  0  0  0  0  0  0  0  0
   -4.4250   17.7890  -34.0710 C   0  0  0  0  0  0  0  0  0  0  0  0
   -3.5660   16.9350  -34.4230 O   0  0  0  0  0  0  0  0  0  0  0  0
   -4.1910   19.1600  -34.2720 O   0  0  0  0  0  0  0  0  0  0  0  0
   -3.2590   19.9810  -33.5540 C   0  0  0  0  0  0  0  0  0  0  0  0
   -3.1050   19.4800  -32.1050 C   0  0  0  0  0  0  0  0  0  0  0  0
   -3.8330   21.4050  -33.5280 C   0  0  0  0  0  0  0  0  0  0  0  0
   -1.8920   20.0100  -34.2650 C   0  0  0  0  0  0  0  0  0  0  0  0
   -6.0776   17.4061  -30.0908 H   0  0  0  0  0  0  0  0  0  0  0  0
   -6.8827   16.1943  -31.1444 H   0  0  0  0  0  0  0  0  0  0  0  0
   -5.0920   16.3359  -31.1444 H   0  0  0  0  0  0  0  0  0  0  0  0
   -5.4426   18.7589  -31.9375 H   0  0  0  0  0  0  0  0  0  0  0  0
   -7.9306   18.2979  -33.3218 H   0  0  0  0  0  0  0  0  0  0  0  0
   -8.1765   18.0476  -31.5484 H   0  0  0  0  0  0  0  0  0  0  0  0
   -9.6556   20.2353  -32.5467 H   0  0  0  0  0  0  0  0  0  0  0  0
   -9.6747   22.7129  -32.1046 H   0  0  0  0  0  0  0  0  0  0  0  0
   -8.0200   24.8801  -31.2437 H   0  0  0  0  0  0  0  0  0  0  0  0
   -3.1530   25.2610  -30.4550 H   0  0  0  0  0  0  0  0  0  0  0  0
   -3.1270   24.1800  -31.5160 H   0  0  0  0  0  0  0  0  0  0  0  0
   -5.4095   20.0921  -31.5732 H   0  0  0  0  0  0  0  0  0  0  0  0
   -7.0596   15.7729  -33.5237 H   0  0  0  0  0  0  0  0  0  0  0  0
   -7.2063   16.9631  -34.8611 H   0  0  0  0  0  0  0  0  0  0  0  0
   -5.8604   15.7735  -34.8611 H   0  0  0  0  0  0  0  0  0  0  0  0
   -3.3549   20.2930  -31.4074 H   0  0  0  0  0  0  0  0  0  0  0  0
   -3.7836   18.6308  -31.9366 H   0  0  0  0  0  0  0  0  0  0  0  0
   -2.0666   19.1586  -31.9366 H   0  0  0  0  0  0  0  0  0  0  0  0
   -3.9635   21.7287  -32.4848 H   0  0  0  0  0  0  0  0  0  0  0  0
   -3.1403   22.0890  -34.0403 H   0  0  0  0  0  0  0  0  0  0  0  0
   -4.8064   21.4174  -34.0403 H   0  0  0  0  0  0  0  0  0  0  0  0
   -1.0884   20.0270  -33.5140 H   0  0  0  0  0  0  0  0  0  0  0  0
   -1.7869   19.1139  -34.8942 H   0  0  0  0  0  0  0  0  0  0  0  0
   -1.8250   20.9098  -34.8942 H   0  0  0  0  0  0  0  0  0  0  0  0
  1  2  1  0
  2  3  1  0
  3  4  1  0
  4  5  2  0
  5  6  1  0
  6  7  2  0
  7  8  1  0
  8  9  2  0
  9 10  1  0
 10 11  1  0
 10 12  2  0
  9 13  1  0
 13 14  1  0
 14 15  1  0
 14 16  2  0
 13 17  1  0
 17 18  2  0
  2 19  1  0
 19 20  1  0
 19 21  1  0
 21 22  2  0
 21 23  1  0
 23 24  1  0
 24 25  1  0
 24 26  1  0
 24 27  1  0
 18  4  1  0
 17  7  1  0
  1 28  1  0
  1 29  1  0
  1 30  1  0
  2 31  1  1
  3 32  1  0
  3 33  1  0
  5 34  1  0
  6 35  1  0
  8 36  1  0
 11 37  1  0
 15 38  1  0
 18 39  1  0
 20 40  1  0
 20 41  1  0
 20 42  1  0
 25 43  1  0
 25 44  1  0
 25 45  1  0
 26 46  1  0
 26 47  1  0
 26 48  1  0
 27 49  1  0
 27 50  1  0
 27 51  1  0
M  CHG  2  11  -1  15  -1
M  END
>  <UniqueID>  (43) 
42

>  <SMILES>  (43) 
C[C@H](Cc1ccc2cc(C([NH-])=O)n(C([NH-])=O)c2c1)N(C)C(=O)OC(C)(C)C

>  <Energy>  (43) 
74.9870397517821

>  <Genealogy>  (43) 
C[C@H](Cc1ccc2cc(C([NH-])=O)n(C([NH-])=O)c2c1)N(C)C(=O)OC(C)(C)C (protonated)
C[C@H](Cc1ccc2cc(C([NH-])=O)n(C([NH-])=O)c2c1)N(C)C(=O)OC(C)(C)C (3D coordinates assigned)
C[C@H](Cc1ccc2cc(C([NH-])=O)n(C([NH-])=O)c2c1)N(C)C(=O)OC(C)(C)C (optimized conformer: 74.9870397517821 kcal/mol)

>  <smiles>  (43) 
C[C@H](Cc1ccc2cc(C(N)=O)n(C(N)=O)c2c1)N(C)C(=O)OC(C)(C)C

>  <score_type>  (43) 
oracle

>  <origin>  (43) 
adg

>  <m_score__min__energy>  (43) 
-12.06

>  <m_primary>  (43) 
energy

$$$$
43:0
     RDKit          3D

 44 46  0  0  0  0  0  0  0  0999 V2000
   -1.2540   22.9360  -28.3200 C   0  0  0  0  0  0  0  0  0  0  0  0
   -2.5690   22.5610  -29.0290 C   0  0  0  0  0  0  0  0  0  0  0  0
   -2.7080   21.0320  -29.1460 C   0  0  0  0  0  0  0  0  0  0  0  0
   -3.7490   23.1040  -28.2080 C   0  0  0  0  0  0  0  0  0  0  0  0
   -2.6380   23.1740  -30.3240 O   0  0  0  0  0  0  0  0  0  0  0  0
   -3.3260   22.6810  -31.4430 C   0  0  0  0  0  0  0  0  0  0  0  0
   -2.7040   22.1740  -32.4140 O   0  0  0  0  0  0  0  0  0  0  0  0
   -4.7600   22.7310  -31.4650 N   0  0  0  0  0  0  0  0  0  0  0  0
   -5.5700   23.7710  -31.1190 C   0  0  0  0  0  0  0  0  0  0  0  0
   -5.1390   25.0360  -30.4870 C   0  0  0  0  0  0  0  0  0  0  0  0
   -3.9040   25.6510  -30.8440 N   0  0  0  0  0  0  0  0  0  0  0  0
   -5.8480   25.5540  -29.5830 O   0  0  0  0  0  0  0  0  0  0  0  0
   -6.9040   23.4540  -31.3680 C   0  0  0  0  0  0  0  0  0  0  0  0
   -6.8870   22.1730  -31.8720 C   0  0  0  0  0  0  0  0  0  0  0  0
   -7.9360   21.3650  -32.2970 C   0  0  0  0  0  0  0  0  0  0  0  0
   -7.6230   20.0910  -32.7990 C   0  0  0  0  0  0  0  0  0  0  0  0
   -6.2760   19.6480  -32.8760 C   0  0  0  0  0  0  0  0  0  0  0  0
   -5.9570   18.3020  -33.4190 C   0  0  0  0  0  0  0  0  0  0  0  0
   -4.7500   18.0720  -34.0990 C   0  0  0  0  0  0  0  0  0  0  0  0
   -4.4710   16.8000  -34.6060 C   0  0  0  0  0  0  0  0  0  0  0  0
   -5.3640   15.7870  -34.4430 N   0  0  0  0  0  0  0  0  0  0  0  0
   -6.5410   15.9800  -33.7890 C   0  0  0  0  0  0  0  0  0  0  0  0
   -6.8590   17.2360  -33.2670 C   0  0  0  0  0  0  0  0  0  0  0  0
   -5.2400   20.5030  -32.4330 C   0  0  0  0  0  0  0  0  0  0  0  0
   -5.5820   21.7590  -31.9210 C   0  0  0  0  0  0  0  0  0  0  0  0
   -1.4000   22.8944  -27.2305 H   0  0  0  0  0  0  0  0  0  0  0  0
   -0.4651   22.2270  -28.6116 H   0  0  0  0  0  0  0  0  0  0  0  0
   -0.9577   23.9544  -28.6116 H   0  0  0  0  0  0  0  0  0  0  0  0
   -2.7482   20.5894  -28.1398 H   0  0  0  0  0  0  0  0  0  0  0  0
   -3.6320   20.7884  -29.6909 H   0  0  0  0  0  0  0  0  0  0  0  0
   -1.8431   20.6258  -29.6909 H   0  0  0  0  0  0  0  0  0  0  0  0
   -3.5272   23.0019  -27.1354 H   0  0  0  0  0  0  0  0  0  0  0  0
   -3.9068   24.1653  -28.4504 H   0  0  0  0  0  0  0  0  0  0  0  0
   -4.6577   22.5335  -28.4504 H   0  0  0  0  0  0  0  0  0  0  0  0
   -2.9970   25.2860  -30.4780 H   0  0  0  0  0  0  0  0  0  0  0  0
   -7.7838   24.0919  -31.1979 H   0  0  0  0  0  0  0  0  0  0  0  0
   -8.9782   21.7126  -32.2418 H   0  0  0  0  0  0  0  0  0  0  0  0
   -8.4324   19.4273  -33.1371 H   0  0  0  0  0  0  0  0  0  0  0  0
   -4.0268   18.8901  -34.2321 H   0  0  0  0  0  0  0  0  0  0  0  0
   -3.5261   16.6173  -35.1387 H   0  0  0  0  0  0  0  0  0  0  0  0
   -5.1410   14.8420  -34.8270 H   0  0  0  0  0  0  0  0  0  0  0  0
   -7.2454   15.1434  -33.6707 H   0  0  0  0  0  0  0  0  0  0  0  0
   -7.8118   17.3896  -32.7391 H   0  0  0  0  0  0  0  0  0  0  0  0
   -4.1879   20.1870  -32.4899 H   0  0  0  0  0  0  0  0  0  0  0  0
  1  2  1  0
  2  3  1  0
  2  4  1  0
  2  5  1  0
  5  6  1  0
  6  7  2  0
  6  8  1  0
  8  9  1  0
  9 10  1  0
 10 11  1  0
 10 12  2  0
  9 13  2  0
 13 14  1  0
 14 15  2  0
 15 16  1  0
 16 17  2  0
 17 18  1  0
 18 19  2  0
 19 20  1  0
 20 21  2  0
 21 22  1  0
 22 23  2  0
 17 24  1  0
 24 25  2  0
 25  8  1  0
 25 14  1  0
 23 18  1  0
  1 26  1  0
  1 27  1  0
  1 28  1  0
  3 29  1  0
  3 30  1  0
  3 31  1  0
  4 32  1  0
  4 33  1  0
  4 34  1  0
 11 35  1  0
 13 36  1  0
 15 37  1  0
 16 38  1  0
 19 39  1  0
 20 40  1  0
 21 41  1  0
 22 42  1  0
 23 43  1  0
 24 44  1  0
M  CHG  2  11  -1  21   1
M  END
>  <UniqueID>  (44) 
43

>  <SMILES>  (44) 
CC(C)(C)OC(=O)n1c(C([NH-])=O)cc2ccc(-c3cc[nH+]cc3)cc21

>  <Energy>  (44) 
85.52522960920487

>  <Genealogy>  (44) 
CC(C)(C)OC(=O)n1c(C([NH-])=O)cc2ccc(-c3cc[nH+]cc3)cc21 (protonated)
CC(C)(C)OC(=O)n1c(C([NH-])=O)cc2ccc(-c3cc[nH+]cc3)cc21 (3D coordinates assigned)
CC(C)(C)OC(=O)n1c(C([NH-])=O)cc2ccc(-c3cc[nH+]cc3)cc21 (optimized conformer: 85.52522960920487 kcal/mol)

>  <smiles>  (44) 
CC(C)(C)OC(=O)n1c(C(N)=O)cc2ccc(-c3ccncc3)cc21

>  <score_type>  (44) 
oracle

>  <origin>  (44) 
adg

>  <m_score__min__energy>  (44) 
-10.49

>  <m_primary>  (44) 
energy

$$$$
44:0
     RDKit          3D

 40 42  0  0  0  0  0  0  0  0999 V2000
   -3.4210   22.8740  -28.7240 C   0  0  0  0  0  0  0  0  0  0  0  0
   -2.8890   23.1630  -30.0100 O   0  0  0  0  0  0  0  0  0  0  0  0
   -3.5120   22.7540  -31.1930 C   0  0  0  0  0  0  0  0  0  0  0  0
   -2.8280   22.2750  -32.1390 O   0  0  0  0  0  0  0  0  0  0  0  0
   -4.9400   22.8590  -31.3230 N   0  0  0  0  0  0  0  0  0  0  0  0
   -5.7310   23.9170  -30.9850 C   0  0  0  0  0  0  0  0  0  0  0  0
   -5.2600   25.2490  -30.5490 C   0  0  0  0  0  0  0  0  0  0  0  0
   -3.9280   25.6610  -30.8440 N   0  0  0  0  0  0  0  0  0  0  0  0
   -6.0090   26.0120  -29.8860 O   0  0  0  0  0  0  0  0  0  0  0  0
   -7.0740   23.6060  -31.1850 C   0  0  0  0  0  0  0  0  0  0  0  0
   -7.0820   22.3170  -31.6670 C   0  0  0  0  0  0  0  0  0  0  0  0
   -8.1510   21.5030  -32.0250 C   0  0  0  0  0  0  0  0  0  0  0  0
   -7.8680   20.2000  -32.4650 C   0  0  0  0  0  0  0  0  0  0  0  0
   -6.5310   19.7280  -32.5330 C   0  0  0  0  0  0  0  0  0  0  0  0
   -6.2450   18.3450  -32.9890 C   0  0  0  0  0  0  0  0  0  0  0  0
   -4.9500   17.9710  -33.3870 C   0  0  0  0  0  0  0  0  0  0  0  0
   -4.6960   16.6670  -33.8160 C   0  0  0  0  0  0  0  0  0  0  0  0
   -5.7390   15.7380  -33.8450 C   0  0  0  0  0  0  0  0  0  0  0  0
   -5.4440   14.0920  -34.3810 S   0  0  0  0  0  0  0  0  0  0  0  0
   -4.9740   13.0680  -33.0030 C   0  0  0  0  0  0  0  0  0  0  0  0
   -4.3330   14.0870  -35.3940 O   0  0  0  0  0  0  0  0  0  0  0  0
   -6.6940   13.5350  -34.9990 O   0  0  0  0  0  0  0  0  0  0  0  0
   -6.9870   16.1110  -33.4570 N   0  0  0  0  0  0  0  0  0  0  0  0
   -7.2620   17.3750  -33.0380 C   0  0  0  0  0  0  0  0  0  0  0  0
   -5.4710   20.5900  -32.1600 C   0  0  0  0  0  0  0  0  0  0  0  0
   -5.7820   21.8900  -31.7420 C   0  0  0  0  0  0  0  0  0  0  0  0
   -2.7337   23.2473  -27.9505 H   0  0  0  0  0  0  0  0  0  0  0  0
   -4.3992   23.3647  -28.6131 H   0  0  0  0  0  0  0  0  0  0  0  0
   -3.5418   21.7863  -28.6131 H   0  0  0  0  0  0  0  0  0  0  0  0
   -3.1170   25.2810  -30.3080 H   0  0  0  0  0  0  0  0  0  0  0  0
   -7.9434   24.2532  -30.9975 H   0  0  0  0  0  0  0  0  0  0  0  0
   -9.1867   21.8687  -31.9653 H   0  0  0  0  0  0  0  0  0  0  0  0
   -8.6935   19.5360  -32.7610 H   0  0  0  0  0  0  0  0  0  0  0  0
   -4.1340   18.7081  -33.3604 H   0  0  0  0  0  0  0  0  0  0  0  0
   -3.6830   16.3734  -34.1286 H   0  0  0  0  0  0  0  0  0  0  0  0
   -5.2121   13.5868  -32.0627 H   0  0  0  0  0  0  0  0  0  0  0  0
   -5.5260   12.1176  -33.0474 H   0  0  0  0  0  0  0  0  0  0  0  0
   -3.8935   12.8669  -33.0474 H   0  0  0  0  0  0  0  0  0  0  0  0
   -8.2858   17.6403  -32.7356 H   0  0  0  0  0  0  0  0  0  0  0  0
   -4.4268   20.2462  -32.1978 H   0  0  0  0  0  0  0  0  0  0  0  0
  1  2  1  0
  2  3  1  0
  3  4  2  0
  3  5  1  0
  5  6  1  0
  6  7  1  0
  7  8  1  0
  7  9  2  0
  6 10  2  0
 10 11  1  0
 11 12  2  0
 12 13  1  0
 13 14  2  0
 14 15  1  0
 15 16  2  0
 16 17  1  0
 17 18  2  0
 18 19  1  0
 19 20  1  0
 19 21  2  0
 19 22  2  0
 18 23  1  0
 23 24  2  0
 14 25  1  0
 25 26  2  0
 26  5  1  0
 26 11  1  0
 24 15  1  0
  1 27  1  0
  1 28  1  0
  1 29  1  0
  8 30  1  0
 10 31  1  0
 12 32  1  0
 13 33  1  0
 16 34  1  0
 17 35  1  0
 20 36  1  0
 20 37  1  0
 20 38  1  0
 24 39  1  0
 25 40  1  0
M  CHG  1   8  -1
M  END
>  <UniqueID>  (45) 
44

>  <SMILES>  (45) 
COC(=O)n1c(C([NH-])=O)cc2ccc(-c3ccc(S(C)(=O)=O)nc3)cc21

>  <Energy>  (45) 
82.4209575513515

>  <Genealogy>  (45) 
COC(=O)n1c(C([NH-])=O)cc2ccc(-c3ccc(S(C)(=O)=O)nc3)cc21 (protonated)
COC(=O)n1c(C([NH-])=O)cc2ccc(-c3ccc(S(C)(=O)=O)nc3)cc21 (3D coordinates assigned)
COC(=O)n1c(C([NH-])=O)cc2ccc(-c3ccc(S(C)(=O)=O)nc3)cc21 (optimized conformer: 82.4209575513515 kcal/mol)

>  <smiles>  (45) 
COC(=O)n1c(C(N)=O)cc2ccc(-c3ccc(S(C)(=O)=O)nc3)cc21

>  <score_type>  (45) 
oracle

>  <origin>  (45) 
adg

>  <m_score__min__energy>  (45) 
-10.470000000000001

>  <m_primary>  (45) 
energy

$$$$
45:0
     RDKit          3D

 25 26  0  0  0  0  0  0  0  0999 V2000
   -7.2450   20.3880  -33.1000 C   0  0  0  0  0  0  0  0  0  0  0  0
   -5.8990   20.7130  -32.5270 C   0  0  0  0  0  0  0  0  0  0  0  0
   -4.8340   19.7860  -32.6460 C   0  0  0  0  0  0  0  0  0  0  0  0
   -3.5750   20.0690  -32.0910 C   0  0  0  0  0  0  0  0  0  0  0  0
   -3.4180   21.2710  -31.4070 C   0  0  0  0  0  0  0  0  0  0  0  0
   -2.3070   21.8000  -30.7930 C   0  0  0  0  0  0  0  0  0  0  0  0
   -2.7220   23.0260  -30.2720 C   0  0  0  0  0  0  0  0  0  0  0  0
   -1.8560   23.8920  -29.4460 C   0  0  0  0  0  0  0  0  0  0  0  0
   -2.1110   25.2890  -29.3320 N   0  0  0  0  0  0  0  0  0  0  0  0
   -0.9070   23.3830  -28.7910 O   0  0  0  0  0  0  0  0  0  0  0  0
   -4.0350   23.2480  -30.5630 N   0  0  0  0  0  0  0  0  0  0  0  0
   -4.8100   24.4270  -30.2900 C   0  0  0  0  0  0  0  0  0  0  0  0
   -4.4700   25.6680  -30.9040 N   0  0  0  0  0  0  0  0  0  0  0  0
   -5.8130   24.3630  -29.5300 O   0  0  0  0  0  0  0  0  0  0  0  0
   -4.4470   22.1630  -31.2550 C   0  0  0  0  0  0  0  0  0  0  0  0
   -5.7070   21.9160  -31.8130 C   0  0  0  0  0  0  0  0  0  0  0  0
   -7.9598   20.2154  -32.2819 H   0  0  0  0  0  0  0  0  0  0  0  0
   -7.5924   21.2281  -33.7193 H   0  0  0  0  0  0  0  0  0  0  0  0
   -7.1708   19.4820  -33.7193 H   0  0  0  0  0  0  0  0  0  0  0  0
   -4.9945   18.8365  -33.1776 H   0  0  0  0  0  0  0  0  0  0  0  0
   -2.7385   19.3621  -32.1938 H   0  0  0  0  0  0  0  0  0  0  0  0
   -1.3046   21.3520  -30.7267 H   0  0  0  0  0  0  0  0  0  0  0  0
   -3.0880   25.6590  -29.3410 H   0  0  0  0  0  0  0  0  0  0  0  0
   -3.4930   26.0350  -30.8650 H   0  0  0  0  0  0  0  0  0  0  0  0
   -6.5266   22.6406  -31.6981 H   0  0  0  0  0  0  0  0  0  0  0  0
  1  2  1  0
  2  3  2  0
  3  4  1  0
  4  5  2  0
  5  6  1  0
  6  7  2  0
  7  8  1  0
  8  9  1  0
  8 10  2  0
  7 11  1  0
 11 12  1  0
 12 13  1  0
 12 14  2  0
 11 15  1  0
 15 16  2  0
 16  2  1  0
 15  5  1  0
  1 17  1  0
  1 18  1  0
  1 19  1  0
  3 20  1  0
  4 21  1  0
  6 22  1  0
  9 23  1  0
 13 24  1  0
 16 25  1  0
M  CHG  2   9  -1  13  -1
M  END
>  <UniqueID>  (46) 
45

>  <SMILES>  (46) 
Cc1ccc2cc(C([NH-])=O)n(C([NH-])=O)c2c1

>  <Energy>  (46) 
64.29056217253144

>  <Genealogy>  (46) 
Cc1ccc2cc(C([NH-])=O)n(C([NH-])=O)c2c1 (protonated)
Cc1ccc2cc(C([NH-])=O)n(C([NH-])=O)c2c1 (3D coordinates assigned)
Cc1ccc2cc(C([NH-])=O)n(C([NH-])=O)c2c1 (optimized conformer: 64.29056217253144 kcal/mol)

>  <smiles>  (46) 
Cc1ccc2cc(C(N)=O)n(C(N)=O)c2c1

>  <score_type>  (46) 
oracle

>  <origin>  (46) 
adg

>  <m_score__min__energy>  (46) 
-9.3499999999999996

>  <m_primary>  (46) 
energy

$$$$
46:0
     RDKit          3D

 41 43  0  0  0  0  0  0  0  0999 V2000
   -6.9860   15.0160  -34.2240 C   0  0  0  0  0  0  0  0  0  0  0  0
   -6.5480   16.4350  -34.0940 C   0  0  0  0  0  0  0  0  0  0  0  0
   -7.1830   17.3400  -33.3210 N   0  0  0  0  0  0  0  0  0  0  0  0
   -6.4440   18.4580  -33.4800 C   0  0  0  0  0  0  0  0  0  0  0  0
   -6.7520   19.7490  -32.8160 C   0  0  0  0  0  0  0  0  0  0  0  0
   -8.0910   20.1340  -32.5410 C   0  0  0  0  0  0  0  0  0  0  0  0
   -8.3730   21.3530  -31.9040 C   0  0  0  0  0  0  0  0  0  0  0  0
   -7.3040   22.1730  -31.5590 C   0  0  0  0  0  0  0  0  0  0  0  0
   -7.2940   23.3890  -30.9160 C   0  0  0  0  0  0  0  0  0  0  0  0
   -5.9500   23.7480  -30.8250 C   0  0  0  0  0  0  0  0  0  0  0  0
   -5.4740   25.0390  -30.2770 C   0  0  0  0  0  0  0  0  0  0  0  0
   -6.0910   25.6150  -29.1250 N   0  0  0  0  0  0  0  0  0  0  0  0
   -4.5320   25.6560  -30.8410 O   0  0  0  0  0  0  0  0  0  0  0  0
   -5.1620   22.7900  -31.3900 N   0  0  0  0  0  0  0  0  0  0  0  0
   -3.7260   22.7630  -31.4530 C   0  0  0  0  0  0  0  0  0  0  0  0
   -3.1490   22.3140  -32.4790 O   0  0  0  0  0  0  0  0  0  0  0  0
   -2.9540   23.2580  -30.3540 N   0  0  0  0  0  0  0  0  0  0  0  0
   -3.2710   22.9970  -28.9520 C   0  0  0  0  0  0  0  0  0  0  0  0
   -2.6090   21.6870  -28.5260 C   0  0  0  0  0  0  0  0  0  0  0  0
   -2.7840   24.1560  -28.0780 C   0  0  0  0  0  0  0  0  0  0  0  0
   -6.0060   21.8320  -31.8340 C   0  0  0  0  0  0  0  0  0  0  0  0
   -5.6940   20.6130  -32.4480 C   0  0  0  0  0  0  0  0  0  0  0  0
   -5.3930   18.1850  -34.3350 C   0  0  0  0  0  0  0  0  0  0  0  0
   -5.4870   16.9280  -34.6900 O   0  0  0  0  0  0  0  0  0  0  0  0
   -7.1204   14.5806  -33.2228 H   0  0  0  0  0  0  0  0  0  0  0  0
   -7.9386   14.9751  -34.7725 H   0  0  0  0  0  0  0  0  0  0  0  0
   -6.2222   14.4453  -34.7725 H   0  0  0  0  0  0  0  0  0  0  0  0
   -8.9177   19.4687  -32.8307 H   0  0  0  0  0  0  0  0  0  0  0  0
   -9.4089   21.6507  -31.6843 H   0  0  0  0  0  0  0  0  0  0  0  0
   -8.1622   23.9574  -30.5511 H   0  0  0  0  0  0  0  0  0  0  0  0
   -5.7720   26.5440  -28.7700 H   0  0  0  0  0  0  0  0  0  0  0  0
   -6.8330   25.1080  -28.5950 H   0  0  0  0  0  0  0  0  0  0  0  0
   -4.3604   22.9087  -28.8281 H   0  0  0  0  0  0  0  0  0  0  0  0
   -2.5806   21.6307  -27.4278 H   0  0  0  0  0  0  0  0  0  0  0  0
   -3.1866   20.8386  -28.9218 H   0  0  0  0  0  0  0  0  0  0  0  0
   -1.5834   21.6488  -28.9218 H   0  0  0  0  0  0  0  0  0  0  0  0
   -2.8967   23.8878  -27.0172 H   0  0  0  0  0  0  0  0  0  0  0  0
   -1.7247   24.3585  -28.2945 H   0  0  0  0  0  0  0  0  0  0  0  0
   -3.3807   25.0544  -28.2945 H   0  0  0  0  0  0  0  0  0  0  0  0
   -4.6478   20.3329  -32.6403 H   0  0  0  0  0  0  0  0  0  0  0  0
   -4.6178   18.8951  -34.6587 H   0  0  0  0  0  0  0  0  0  0  0  0
  1  2  1  0
  2  3  2  0
  3  4  1  0
  4  5  1  0
  5  6  2  0
  6  7  1  0
  7  8  2  0
  8  9  1  0
  9 10  2  0
 10 11  1  0
 11 12  1  0
 11 13  2  0
 10 14  1  0
 14 15  1  0
 15 16  2  0
 15 17  1  0
 17 18  1  0
 18 19  1  0
 18 20  1  0
 14 21  1  0
 21 22  2  0
  4 23  2  0
 23 24  1  0
 24  2  1  0
 22  5  1  0
 21  8  1  0
  1 25  1  0
  1 26  1  0
  1 27  1  0
  6 28  1  0
  7 29  1  0
  9 30  1  0
 12 31  1  0
 12 32  1  0
 18 33  1  0
 19 34  1  0
 19 35  1  0
 19 36  1  0
 20 37  1  0
 20 38  1  0
 20 39  1  0
 22 40  1  0
 23 41  1  0
M  CHG  1  17  -1
M  END
>  <UniqueID>  (47) 
46

>  <SMILES>  (47) 
Cc1nc(-c2ccc3cc(C(N)=O)n(C(=O)[N-]C(C)C)c3c2)co1

>  <Energy>  (47) 
104.4655443122208

>  <Genealogy>  (47) 
Cc1nc(-c2ccc3cc(C(N)=O)n(C(=O)[N-]C(C)C)c3c2)co1 (protonated)
Cc1nc(-c2ccc3cc(C(N)=O)n(C(=O)[N-]C(C)C)c3c2)co1 (3D coordinates assigned)
Cc1nc(-c2ccc3cc(C(N)=O)n(C(=O)[N-]C(C)C)c3c2)co1 (optimized conformer: 104.4655443122208 kcal/mol)

>  <smiles>  (47) 
Cc1nc(-c2ccc3cc(C(N)=O)n(C(=O)NC(C)C)c3c2)co1

>  <score_type>  (47) 
oracle

>  <origin>  (47) 
adg

>  <m_score__min__energy>  (47) 
-9.8599999999999994

>  <m_primary>  (47) 
energy

$$$$
47:0
     RDKit          3D

 55 57  0  0  0  0  0  0  0  0999 V2000
   -8.4320   20.2110  -31.9540 C   0  0  0  0  0  0  0  0  0  0  0  0
   -7.3500   19.6470  -32.4990 C   0  0  0  0  0  0  0  0  0  0  0  0
   -7.4020   18.3630  -33.1390 N   0  0  0  0  0  0  0  0  0  0  0  0
   -5.9800   18.0300  -33.4490 C   0  0  1  0  0  0  0  0  0  0  0  0
   -5.5090   16.9030  -32.6120 C   0  0  0  0  0  0  0  0  0  0  0  0
   -5.1390   16.0220  -31.9580 N   0  0  0  0  0  0  0  0  0  0  0  0
   -5.7850   17.7070  -34.9580 C   0  0  0  0  0  0  0  0  0  0  0  0
   -4.4340   17.0540  -35.2780 C   0  0  0  0  0  0  0  0  0  0  0  0
   -5.2020   19.2650  -33.0600 C   0  0  0  0  0  0  0  0  0  0  0  0
   -3.8860   19.4400  -33.2360 C   0  0  0  0  0  0  0  0  0  0  0  0
   -6.0570   20.2360  -32.4760 N   0  0  0  0  0  0  0  0  0  0  0  0
   -5.6710   21.4580  -31.8230 C   0  0  0  0  0  0  0  0  0  0  0  0
   -6.4560   22.6260  -31.9760 C   0  0  0  0  0  0  0  0  0  0  0  0
   -6.0790   23.8280  -31.3530 C   0  0  0  0  0  0  0  0  0  0  0  0
   -4.9180   23.8260  -30.5840 C   0  0  0  0  0  0  0  0  0  0  0  0
   -4.3090   24.8510  -29.8970 C   0  0  0  0  0  0  0  0  0  0  0  0
   -3.1720   24.2880  -29.3220 C   0  0  0  0  0  0  0  0  0  0  0  0
   -2.2610   25.0270  -28.4220 C   0  0  0  0  0  0  0  0  0  0  0  0
   -1.3260   25.9560  -28.9680 N   0  0  0  0  0  0  0  0  0  0  0  0
   -2.3250   24.8770  -27.1740 O   0  0  0  0  0  0  0  0  0  0  0  0
   -3.0780   22.9660  -29.6460 N   0  0  0  0  0  0  0  0  0  0  0  0
   -2.0280   22.0440  -29.3170 C   0  0  0  0  0  0  0  0  0  0  0  0
   -0.8330   22.3300  -29.6000 O   0  0  0  0  0  0  0  0  0  0  0  0
   -2.3520   20.8220  -28.7110 O   0  0  0  0  0  0  0  0  0  0  0  0
   -1.7590   20.2750  -27.5240 C   0  0  0  0  0  0  0  0  0  0  0  0
   -2.8490   19.4680  -26.8050 C   0  0  0  0  0  0  0  0  0  0  0  0
   -0.5980   19.3290  -27.8880 C   0  0  0  0  0  0  0  0  0  0  0  0
   -1.2720   21.4000  -26.5930 C   0  0  0  0  0  0  0  0  0  0  0  0
   -4.1560   22.6980  -30.4150 C   0  0  0  0  0  0  0  0  0  0  0  0
   -4.5010   21.4930  -31.0370 C   0  0  0  0  0  0  0  0  0  0  0  0
   -8.3546   21.1966  -31.4717 H   0  0  0  0  0  0  0  0  0  0  0  0
   -9.4000   19.6897  -31.9877 H   0  0  0  0  0  0  0  0  0  0  0  0
   -7.9840   18.4650  -34.0010 H   0  0  0  0  0  0  0  0  0  0  0  0
   -7.8480   17.6650  -32.4960 H   0  0  0  0  0  0  0  0  0  0  0  0
   -6.5856   17.0215  -35.2730 H   0  0  0  0  0  0  0  0  0  0  0  0
   -5.8161   18.6643  -35.4989 H   0  0  0  0  0  0  0  0  0  0  0  0
   -3.9164   16.8038  -34.3402 H   0  0  0  0  0  0  0  0  0  0  0  0
   -4.5994   16.1364  -35.8616 H   0  0  0  0  0  0  0  0  0  0  0  0
   -3.8177   17.7536  -35.8616 H   0  0  0  0  0  0  0  0  0  0  0  0
   -3.4087   20.3788  -32.9184 H   0  0  0  0  0  0  0  0  0  0  0  0
   -3.2824   18.6450  -33.6981 H   0  0  0  0  0  0  0  0  0  0  0  0
   -7.3694   22.5925  -32.5881 H   0  0  0  0  0  0  0  0  0  0  0  0
   -6.6815   24.7409  -31.4691 H   0  0  0  0  0  0  0  0  0  0  0  0
   -4.6483   25.8944  -29.8185 H   0  0  0  0  0  0  0  0  0  0  0  0
   -1.2160   26.0620  -30.0010 H   0  0  0  0  0  0  0  0  0  0  0  0
   -2.7189   19.5643  -25.7170 H   0  0  0  0  0  0  0  0  0  0  0  0
   -3.8390   19.8526  -27.0914 H   0  0  0  0  0  0  0  0  0  0  0  0
   -2.7701   18.4089  -27.0914 H   0  0  0  0  0  0  0  0  0  0  0  0
   -0.1319   18.9492  -26.9668 H   0  0  0  0  0  0  0  0  0  0  0  0
   -0.9841   18.4850  -28.4785 H   0  0  0  0  0  0  0  0  0  0  0  0
    0.1506   19.8776  -28.4785 H   0  0  0  0  0  0  0  0  0  0  0  0
   -1.4052   21.0923  -25.5453 H   0  0  0  0  0  0  0  0  0  0  0  0
   -0.2072   21.5990  -26.7842 H   0  0  0  0  0  0  0  0  0  0  0  0
   -1.8556   22.3126  -26.7842 H   0  0  0  0  0  0  0  0  0  0  0  0
   -3.8756   20.5962  -30.9159 H   0  0  0  0  0  0  0  0  0  0  0  0
  1  2  2  0
  2  3  1  0
  3  4  1  0
  4  5  1  1
  5  6  3  0
  4  7  1  0
  7  8  1  0
  4  9  1  0
  9 10  2  0
  9 11  1  0
 11 12  1  0
 12 13  2  0
 13 14  1  0
 14 15  2  0
 15 16  1  0
 16 17  2  0
 17 18  1  0
 18 19  1  0
 18 20  2  0
 17 21  1  0
 21 22  1  0
 22 23  2  0
 22 24  1  0
 24 25  1  0
 25 26  1  0
 25 27  1  0
 25 28  1  0
 21 29  1  0
 29 30  2  0
 11  2  1  0
 30 12  1  0
 29 15  1  0
  1 31  1  0
  1 32  1  0
  3 33  1  0
  3 34  1  0
  7 35  1  0
  7 36  1  0
  8 37  1  0
  8 38  1  0
  8 39  1  0
 10 40  1  0
 10 41  1  0
 13 42  1  0
 14 43  1  0
 16 44  1  0
 19 45  1  0
 26 46  1  0
 26 47  1  0
 26 48  1  0
 27 49  1  0
 27 50  1  0
 27 51  1  0
 28 52  1  0
 28 53  1  0
 28 54  1  0
 30 55  1  0
M  CHG  2   3   1  19  -1
M  END
>  <UniqueID>  (48) 
47

>  <SMILES>  (48) 
C=C1[NH2+][C@@](C#N)(CC)C(=C)N1c1ccc2cc(C([NH-])=O)n(C(=O)OC(C)(C)C)c2c1

>  <Energy>  (48) 
108.7952822509092

>  <Genealogy>  (48) 
C=C1[NH2+]C(C#N)(CC)C(=C)N1c1ccc2cc(C([NH-])=O)n(C(=O)OC(C)(C)C)c2c1 (protonated)
C=C1[NH2+][C@@](C#N)(CC)C(=C)N1c1ccc2cc(C([NH-])=O)n(C(=O)OC(C)(C)C)c2c1 (chirality)
C=C1[NH2+][C@@](C#N)(CC)C(=C)N1c1ccc2cc(C([NH-])=O)n(C(=O)OC(C)(C)C)c2c1 (3D coordinates assigned)
C=C1[NH2+][C@@](C#N)(CC)C(=C)N1c1ccc2cc(C([NH-])=O)n(C(=O)OC(C)(C)C)c2c1 (nonaromatic ring conformer: 108.7952822509092 kcal/mol)

>  <smiles>  (48) 
C=C1NC(C#N)(CC)C(=C)N1c1ccc2cc(C(N)=O)n(C(=O)OC(C)(C)C)c2c1

>  <score_type>  (48) 
oracle

>  <origin>  (48) 
adg

>  <m_score__min__energy>  (48) 
-11.25

>  <m_primary>  (48) 
energy

$$$$
48:0
     RDKit          3D

 45 47  0  0  0  0  0  0  0  0999 V2000
   -2.2990   19.9650  -33.8400 C   0  0  0  0  0  0  0  0  0  0  0  0
   -1.9550   20.8660  -32.6380 C   0  0  0  0  0  0  0  0  0  0  0  0
   -0.4460   21.1670  -32.5970 C   0  0  0  0  0  0  0  0  0  0  0  0
   -2.3530   20.1420  -31.3430 C   0  0  0  0  0  0  0  0  0  0  0  0
   -2.7100   22.0860  -32.6890 O   0  0  0  0  0  0  0  0  0  0  0  0
   -3.3690   22.7010  -31.6150 C   0  0  0  0  0  0  0  0  0  0  0  0
   -2.7250   23.1440  -30.6260 O   0  0  0  0  0  0  0  0  0  0  0  0
   -4.8010   22.7950  -31.6310 N   0  0  0  0  0  0  0  0  0  0  0  0
   -5.5870   23.7460  -31.0500 C   0  0  0  0  0  0  0  0  0  0  0  0
   -5.1150   24.9950  -30.4170 C   0  0  0  0  0  0  0  0  0  0  0  0
   -3.9060   25.6190  -30.8380 N   0  0  0  0  0  0  0  0  0  0  0  0
   -5.8140   25.5440  -29.5240 O   0  0  0  0  0  0  0  0  0  0  0  0
   -6.9350   23.4240  -31.2020 C   0  0  0  0  0  0  0  0  0  0  0  0
   -6.9510   22.2420  -31.9070 C   0  0  0  0  0  0  0  0  0  0  0  0
   -8.0250   21.4580  -32.3170 C   0  0  0  0  0  0  0  0  0  0  0  0
   -7.7460   20.2600  -32.9960 C   0  0  0  0  0  0  0  0  0  0  0  0
   -6.4070   19.8700  -33.2510 C   0  0  0  0  0  0  0  0  0  0  0  0
   -6.1210   18.5650  -33.9490 C   0  0  0  0  0  0  0  0  0  0  0  0
   -6.7820   17.3740  -33.2390 C   0  0  1  0  0  0  0  0  0  0  0  0
   -6.0180   15.8110  -33.8430 S   0  0  0  0  0  0  0  0  0  0  0  0
   -5.3180   15.5200  -32.2270 C   0  0  0  0  0  0  0  0  0  0  0  0
   -4.5030   14.5870  -32.0000 O   0  0  0  0  0  0  0  0  0  0  0  0
   -5.7250   16.4180  -31.2170 N   0  0  0  0  0  0  0  0  0  0  0  0
   -6.5710   17.4170  -31.7520 C   0  0  0  0  0  0  0  0  0  0  0  0
   -7.1290   18.2700  -31.0100 O   0  0  0  0  0  0  0  0  0  0  0  0
   -5.3430   20.6910  -32.8160 C   0  0  0  0  0  0  0  0  0  0  0  0
   -5.6510   21.8850  -32.1540 C   0  0  0  0  0  0  0  0  0  0  0  0
   -2.6694   18.9949  -33.4770 H   0  0  0  0  0  0  0  0  0  0  0  0
   -3.0757   20.4488  -34.4505 H   0  0  0  0  0  0  0  0  0  0  0  0
   -1.3975   19.8081  -34.4505 H   0  0  0  0  0  0  0  0  0  0  0  0
   -0.1136   21.2333  -31.5505 H   0  0  0  0  0  0  0  0  0  0  0  0
    0.1027   20.3606  -33.1056 H   0  0  0  0  0  0  0  0  0  0  0  0
   -0.2487   22.1222  -33.1056 H   0  0  0  0  0  0  0  0  0  0  0  0
   -2.0268   20.7354  -30.4761 H   0  0  0  0  0  0  0  0  0  0  0  0
   -3.4457   20.0188  -31.3128 H   0  0  0  0  0  0  0  0  0  0  0  0
   -1.8715   19.1534  -31.3128 H   0  0  0  0  0  0  0  0  0  0  0  0
   -2.9800   25.2910  -30.4820 H   0  0  0  0  0  0  0  0  0  0  0  0
   -7.8019   23.9938  -30.8361 H   0  0  0  0  0  0  0  0  0  0  0  0
   -9.0613   21.7669  -32.1156 H   0  0  0  0  0  0  0  0  0  0  0  0
   -8.5740   19.6189  -33.3328 H   0  0  0  0  0  0  0  0  0  0  0  0
   -6.5044   18.6217  -34.9785 H   0  0  0  0  0  0  0  0  0  0  0  0
   -5.0327   18.4055  -33.9371 H   0  0  0  0  0  0  0  0  0  0  0  0
   -7.8591   17.4229  -33.4570 H   0  0  0  0  0  0  0  0  0  0  0  0
   -5.4470   16.3500  -30.2130 H   0  0  0  0  0  0  0  0  0  0  0  0
   -4.2974   20.3989  -32.9933 H   0  0  0  0  0  0  0  0  0  0  0  0
  1  2  1  0
  2  3  1  0
  2  4  1  0
  2  5  1  0
  5  6  1  0
  6  7  2  0
  6  8  1  0
  8  9  1  0
  9 10  1  0
 10 11  1  0
 10 12  2  0
  9 13  2  0
 13 14  1  0
 14 15  2  0
 15 16  1  0
 16 17  2  0
 17 18  1  0
 18 19  1  0
 19 20  1  0
 20 21  1  0
 21 22  2  0
 21 23  1  0
 23 24  1  0
 24 25  2  0
 17 26  1  0
 26 27  2  0
 27  8  1  0
 27 14  1  0
 24 19  1  0
  1 28  1  0
  1 29  1  0
  1 30  1  0
  3 31  1  0
  3 32  1  0
  3 33  1  0
  4 34  1  0
  4 35  1  0
  4 36  1  0
 11 37  1  0
 13 38  1  0
 15 39  1  0
 16 40  1  0
 18 41  1  0
 18 42  1  0
 19 43  1  1
 23 44  1  0
 26 45  1  0
M  CHG  1  11  -1
M  END
>  <UniqueID>  (49) 
48

>  <SMILES>  (49) 
CC(C)(C)OC(=O)n1c(C([NH-])=O)cc2ccc(C[C@H]3SC(=O)NC3=O)cc21

>  <Energy>  (49) 
86.77965537720046

>  <Genealogy>  (49) 
CC(C)(C)OC(=O)n1c(C([NH-])=O)cc2ccc(CC3SC(=O)NC3=O)cc21 (protonated)
CC(C)(C)OC(=O)n1c(C([NH-])=O)cc2ccc(C[C@H]3SC(=O)NC3=O)cc21 (chirality)
CC(C)(C)OC(=O)n1c(C([NH-])=O)cc2ccc(C[C@H]3SC(=O)NC3=O)cc21 (3D coordinates assigned)
CC(C)(C)OC(=O)n1c(C([NH-])=O)cc2ccc(C[C@H]3SC(=O)NC3=O)cc21 (nonaromatic ring conformer: 86.77965537720046 kcal/mol)

>  <smiles>  (49) 
CC(C)(C)OC(=O)n1c(C(N)=O)cc2ccc(CC3SC(=O)NC3=O)cc21

>  <score_type>  (49) 
oracle

>  <origin>  (49) 
adg

>  <m_score__min__energy>  (49) 
-11.470000000000001

>  <m_primary>  (49) 
energy

$$$$
49:0
     RDKit          3D

 25 26  0  0  0  0  0  0  0  0999 V2000
   -5.6490   26.4860  -30.2280 N   0  0  0  0  0  0  0  0  0  0  0  0
   -6.4140   25.3120  -29.9540 C   0  0  0  0  0  0  0  0  0  0  0  0
   -7.2140   25.3100  -28.9810 O   0  0  0  0  0  0  0  0  0  0  0  0
   -6.2330   24.0790  -30.7470 C   0  0  0  0  0  0  0  0  0  0  0  0
   -7.2910   23.3710  -31.3100 C   0  0  0  0  0  0  0  0  0  0  0  0
   -6.7160   22.2680  -31.8980 C   0  0  0  0  0  0  0  0  0  0  0  0
   -7.3070   21.2240  -32.6030 C   0  0  0  0  0  0  0  0  0  0  0  0
   -6.4680   20.2270  -33.1280 C   0  0  0  0  0  0  0  0  0  0  0  0
   -5.0610   20.3030  -32.9650 C   0  0  0  0  0  0  0  0  0  0  0  0
   -4.1750   19.2080  -33.5020 C   0  0  0  0  0  0  0  0  0  0  0  0
   -3.9410   18.2800  -32.5030 F   0  0  0  0  0  0  0  0  0  0  0  0
   -2.9640   19.7240  -33.9300 F   0  0  0  0  0  0  0  0  0  0  0  0
   -4.7770   18.5730  -34.5740 F   0  0  0  0  0  0  0  0  0  0  0  0
   -4.5010   21.3690  -32.2220 C   0  0  0  0  0  0  0  0  0  0  0  0
   -5.3630   22.3390  -31.6910 C   0  0  0  0  0  0  0  0  0  0  0  0
   -5.0480   23.4500  -30.9860 N   0  0  0  0  0  0  0  0  0  0  0  0
   -3.7300   23.9310  -30.6730 C   0  0  0  0  0  0  0  0  0  0  0  0
   -2.7610   23.1310  -30.5880 O   0  0  0  0  0  0  0  0  0  0  0  0
   -3.5090   25.2870  -30.4680 O   0  0  0  0  0  0  0  0  0  0  0  0
   -5.8140   27.3590  -29.6810 H   0  0  0  0  0  0  0  0  0  0  0  0
   -4.8630   26.4690  -30.9150 H   0  0  0  0  0  0  0  0  0  0  0  0
   -8.3583   23.6365  -31.2892 H   0  0  0  0  0  0  0  0  0  0  0  0
   -8.3970   21.1807  -32.7448 H   0  0  0  0  0  0  0  0  0  0  0  0
   -6.9072   19.3776  -33.6717 H   0  0  0  0  0  0  0  0  0  0  0  0
   -3.4143   21.4352  -32.0646 H   0  0  0  0  0  0  0  0  0  0  0  0
  1  2  1  0
  2  3  2  0
  2  4  1  0
  4  5  2  0
  5  6  1  0
  6  7  2  0
  7  8  1  0
  8  9  2  0
  9 10  1  0
 10 11  1  0
 10 12  1  0
 10 13  1  0
  9 14  1  0
 14 15  2  0
 15 16  1  0
 16 17  1  0
 17 18  2  0
 17 19  1  0
 16  4  1  0
 15  6  1  0
  1 20  1  0
  1 21  1  0
  5 22  1  0
  7 23  1  0
  8 24  1  0
 14 25  1  0
M  CHG  1  19  -1
M  END
>  <UniqueID>  (50) 
49

>  <SMILES>  (50) 
NC(=O)c1cc2ccc(C(F)(F)F)cc2n1C(=O)[O-]

>  <Energy>  (50) 
66.3201135683808

>  <Genealogy>  (50) 
NC(=O)c1cc2ccc(C(F)(F)F)cc2n1C(=O)[O-] (protonated)
NC(=O)c1cc2ccc(C(F)(F)F)cc2n1C(=O)[O-] (3D coordinates assigned)
NC(=O)c1cc2ccc(C(F)(F)F)cc2n1C(=O)[O-] (optimized conformer: 66.3201135683808 kcal/mol)

>  <smiles>  (50) 
NC(=O)c1cc2ccc(C(F)(F)F)cc2n1C(=O)O

>  <score_type>  (50) 
oracle

>  <origin>  (50) 
adg

>  <m_score__min__energy>  (50) 
-7.8499999999999996

>  <m_primary>  (50) 
energy

$$$$
50:0
     RDKit          3D

 64 68  0  0  0  0  0  0  0  0999 V2000
   -7.3660   23.4550  -32.1740 C   0  0  0  0  0  0  0  0  0  0  0  0
   -6.9940   22.6400  -30.9210 C   0  0  0  0  0  0  0  0  0  0  0  0
   -6.2800   21.3520  -31.3590 C   0  0  0  0  0  0  0  0  0  0  0  0
   -8.2560   22.2630  -30.1230 C   0  0  0  0  0  0  0  0  0  0  0  0
   -6.0760   23.3720  -30.0960 O   0  0  0  0  0  0  0  0  0  0  0  0
   -4.8590   23.9380  -30.5030 C   0  0  0  0  0  0  0  0  0  0  0  0
   -4.8340   24.9890  -31.1990 O   0  0  0  0  0  0  0  0  0  0  0  0
   -3.6260   23.3190  -30.1040 N   0  0  0  0  0  0  0  0  0  0  0  0
   -2.9310   23.5100  -28.9470 C   0  0  0  0  0  0  0  0  0  0  0  0
   -3.2520   24.5130  -27.9080 C   0  0  0  0  0  0  0  0  0  0  0  0
   -4.6090   24.8480  -27.6110 N   0  0  0  0  0  0  0  0  0  0  0  0
   -2.3280   25.0600  -27.2480 O   0  0  0  0  0  0  0  0  0  0  0  0
   -1.8050   22.6900  -28.9160 C   0  0  0  0  0  0  0  0  0  0  0  0
   -1.8300   21.9890  -30.1000 C   0  0  0  0  0  0  0  0  0  0  0  0
   -0.9510   21.0310  -30.5920 C   0  0  0  0  0  0  0  0  0  0  0  0
   -1.2320   20.4530  -31.8410 C   0  0  0  0  0  0  0  0  0  0  0  0
   -2.3950   20.8280  -32.5710 C   0  0  0  0  0  0  0  0  0  0  0  0
   -2.7310   20.2420  -33.8460 N   0  0  0  0  0  0  0  0  0  0  0  0
   -2.7640   18.8080  -34.1550 C   0  0  0  0  0  0  0  0  0  0  0  0
   -4.0990   18.1400  -33.7300 C   0  0  2  0  0  0  0  0  0  0  0  0
   -4.6570   18.8870  -32.4850 C   0  0  0  0  0  0  0  0  0  0  0  0
   -5.9820   18.2460  -32.0210 C   0  0  1  0  0  0  0  0  0  0  0  0
   -7.0180   18.3290  -33.1620 C   0  0  0  0  0  0  0  0  0  0  0  0
   -6.4850   17.5730  -34.3980 C   0  0  2  0  0  0  0  0  0  0  0  0
   -6.2390   16.0930  -34.0300 C   0  0  0  0  0  0  0  0  0  0  0  0
   -5.2030   16.0100  -32.8880 C   0  0  2  0  0  0  0  0  0  0  0  0
   -5.7360   16.7680  -31.6530 C   0  0  0  0  0  0  0  0  0  0  0  0
   -3.8750   16.6480  -33.3510 C   0  0  0  0  0  0  0  0  0  0  0  0
   -5.1600   18.2150  -34.8650 C   0  0  0  0  0  0  0  0  0  0  0  0
   -3.2580   21.8090  -32.0330 C   0  0  0  0  0  0  0  0  0  0  0  0
   -2.9380   22.3850  -30.7990 C   0  0  0  0  0  0  0  0  0  0  0  0
   -7.8049   24.4165  -31.8691 H   0  0  0  0  0  0  0  0  0  0  0  0
   -6.4623   23.6382  -32.7739 H   0  0  0  0  0  0  0  0  0  0  0  0
   -8.0965   22.8923  -32.7739 H   0  0  0  0  0  0  0  0  0  0  0  0
   -5.9663   20.7860  -30.4695 H   0  0  0  0  0  0  0  0  0  0  0  0
   -6.9668   20.7385  -31.9606 H   0  0  0  0  0  0  0  0  0  0  0  0
   -5.3958   21.6094  -31.9606 H   0  0  0  0  0  0  0  0  0  0  0  0
   -8.0416   22.3271  -29.0460 H   0  0  0  0  0  0  0  0  0  0  0  0
   -9.0710   22.9569  -30.3765 H   0  0  0  0  0  0  0  0  0  0  0  0
   -8.5569   21.2358  -30.3765 H   0  0  0  0  0  0  0  0  0  0  0  0
   -5.3990   24.4550  -28.1680 H   0  0  0  0  0  0  0  0  0  0  0  0
   -4.8260   25.5330  -26.8530 H   0  0  0  0  0  0  0  0  0  0  0  0
   -1.0548   22.6181  -28.1147 H   0  0  0  0  0  0  0  0  0  0  0  0
   -0.0602   20.7339  -30.0191 H   0  0  0  0  0  0  0  0  0  0  0  0
   -0.5457   19.7022  -32.2596 H   0  0  0  0  0  0  0  0  0  0  0  0
   -2.9820   20.8880  -34.6300 H   0  0  0  0  0  0  0  0  0  0  0  0
   -2.6336   18.6775  -35.2394 H   0  0  0  0  0  0  0  0  0  0  0  0
   -1.9533   18.3251  -33.5897 H   0  0  0  0  0  0  0  0  0  0  0  0
   -3.9217   18.8303  -31.6688 H   0  0  0  0  0  0  0  0  0  0  0  0
   -4.8439   19.9372  -32.7536 H   0  0  0  0  0  0  0  0  0  0  0  0
   -6.3631   18.7833  -31.1401 H   0  0  0  0  0  0  0  0  0  0  0  0
   -7.9632   17.8728  -32.8327 H   0  0  0  0  0  0  0  0  0  0  0  0
   -7.1910   19.3833  -33.4238 H   0  0  0  0  0  0  0  0  0  0  0  0
   -7.2253   17.6311  -35.2096 H   0  0  0  0  0  0  0  0  0  0  0  0
   -7.1838   15.6353  -33.7015 H   0  0  0  0  0  0  0  0  0  0  0  0
   -5.8569   15.5557  -34.9105 H   0  0  0  0  0  0  0  0  0  0  0  0
   -5.0311   14.9560  -32.6244 H   0  0  0  0  0  0  0  0  0  0  0  0
   -6.6802   16.3109  -31.3219 H   0  0  0  0  0  0  0  0  0  0  0  0
   -4.9957   16.7114  -30.8413 H   0  0  0  0  0  0  0  0  0  0  0  0
   -3.1389   16.5868  -32.5359 H   0  0  0  0  0  0  0  0  0  0  0  0
   -3.5046   16.1054  -34.2332 H   0  0  0  0  0  0  0  0  0  0  0  0
   -4.7863   17.6762  -35.7482 H   0  0  0  0  0  0  0  0  0  0  0  0
   -5.3414   19.2699  -35.1184 H   0  0  0  0  0  0  0  0  0  0  0  0
   -4.1653   22.1143  -32.5749 H   0  0  0  0  0  0  0  0  0  0  0  0
  1  2  1  0
  2  3  1  0
  2  4  1  0
  2  5  1  0
  5  6  1  0
  6  7  2  0
  6  8  1  0
  8  9  1  0
  9 10  1  0
 10 11  1  0
 10 12  2  0
  9 13  2  0
 13 14  1  0
 14 15  2  0
 15 16  1  0
 16 17  2  0
 17 18  1  0
 18 19  1  0
 20 19  1  6
 20 21  1  0
 21 22  1  0
 22 23  1  0
 23 24  1  0
 24 25  1  0
 25 26  1  0
 26 27  1  0
 26 28  1  0
 24 29  1  0
 17 30  1  0
 30 31  2  0
 31  8  1  0
 31 14  1  0
 28 20  1  0
 29 20  1  0
 27 22  1  0
  1 32  1  0
  1 33  1  0
  1 34  1  0
  3 35  1  0
  3 36  1  0
  3 37  1  0
  4 38  1  0
  4 39  1  0
  4 40  1  0
 11 41  1  0
 11 42  1  0
 13 43  1  0
 15 44  1  0
 16 45  1  0
 18 46  1  0
 19 47  1  0
 19 48  1  0
 21 49  1  0
 21 50  1  0
 22 51  1  1
 23 52  1  0
 23 53  1  0
 24 54  1  6
 25 55  1  0
 25 56  1  0
 26 57  1  1
 27 58  1  0
 27 59  1  0
 28 60  1  0
 28 61  1  0
 29 62  1  0
 29 63  1  0
 30 64  1  0
M  END
>  <UniqueID>  (51) 
50

>  <SMILES>  (51) 
CC(C)(C)OC(=O)n1c(C(N)=O)cc2ccc(NCC34CC5CC(CC(C5)C3)C4)cc21

>  <Energy>  (51) 
99.04315916462782

>  <Genealogy>  (51) 
CC(C)(C)OC(=O)n1c(C(N)=O)cc2ccc(NCC34CC5CC(CC(C5)C3)C4)cc21 (3D coordinates assigned)
CC(C)(C)OC(=O)n1c(C(N)=O)cc2ccc(NCC34CC5CC(CC(C5)C3)C4)cc21 (nonaromatic ring conformer: 99.04315916462782 kcal/mol)

>  <smiles>  (51) 
CC(C)(C)OC(=O)n1c(C(N)=O)cc2ccc(NCC34CC5CC(CC(C5)C3)C4)cc21

>  <score_type>  (51) 
oracle

>  <origin>  (51) 
adg

>  <m_score__min__energy>  (51) 
-10.82

>  <m_primary>  (51) 
energy

$$$$
51:0
     RDKit          3D

 43 45  0  0  0  0  0  0  0  0999 V2000
   -9.3120   12.5490  -36.4500 C   0  0  0  0  0  0  0  0  0  0  0  0
   -7.9620   13.0600  -36.2670 N   0  0  0  0  0  0  0  0  0  0  0  0
   -7.3560   13.2900  -34.9910 C   0  0  0  0  0  0  0  0  0  0  0  0
   -8.0410   13.1020  -33.9510 O   0  0  0  0  0  0  0  0  0  0  0  0
   -5.9930   13.7320  -34.8840 N   0  0  0  0  0  0  0  0  0  0  0  0
   -5.3780   14.0600  -33.5990 C   0  0  0  0  0  0  0  0  0  0  0  0
   -5.6280   15.5030  -33.2560 C   0  0  0  0  0  0  0  0  0  0  0  0
   -6.1520   16.3720  -34.2230 C   0  0  0  0  0  0  0  0  0  0  0  0
   -6.4130   17.7080  -33.9050 C   0  0  0  0  0  0  0  0  0  0  0  0
   -6.1600   18.1970  -32.6100 C   0  0  0  0  0  0  0  0  0  0  0  0
   -6.4500   19.6130  -32.2680 C   0  0  0  0  0  0  0  0  0  0  0  0
   -7.7700   20.1240  -32.3890 C   0  0  0  0  0  0  0  0  0  0  0  0
   -8.0580   21.4600  -32.0640 C   0  0  0  0  0  0  0  0  0  0  0  0
   -7.0110   22.2660  -31.6280 C   0  0  0  0  0  0  0  0  0  0  0  0
   -7.0140   23.5830  -31.2300 C   0  0  0  0  0  0  0  0  0  0  0  0
   -5.6940   23.8690  -30.8920 C   0  0  0  0  0  0  0  0  0  0  0  0
   -5.2310   25.2150  -30.4960 C   0  0  0  0  0  0  0  0  0  0  0  0
   -3.9270   25.6730  -30.8450 N   0  0  0  0  0  0  0  0  0  0  0  0
   -6.0140   25.9890  -29.8830 O   0  0  0  0  0  0  0  0  0  0  0  0
   -4.9060   22.7700  -31.0650 N   0  0  0  0  0  0  0  0  0  0  0  0
   -3.5150   22.6210  -30.7380 C   0  0  0  0  0  0  0  0  0  0  0  0
   -2.9680   23.2900  -29.6030 N   0  0  0  0  0  0  0  0  0  0  0  0
   -2.7770   21.8760  -31.4360 O   0  0  0  0  0  0  0  0  0  0  0  0
   -5.7280   21.7980  -31.5190 C   0  0  0  0  0  0  0  0  0  0  0  0
   -5.4140   20.4670  -31.8200 C   0  0  0  0  0  0  0  0  0  0  0  0
   -5.6370   17.3200  -31.6440 C   0  0  0  0  0  0  0  0  0  0  0  0
   -5.3750   15.9850  -31.9640 C   0  0  0  0  0  0  0  0  0  0  0  0
   -9.7742   12.3741  -35.4673 H   0  0  0  0  0  0  0  0  0  0  0  0
   -9.9092   13.2833  -37.0105 H   0  0  0  0  0  0  0  0  0  0  0  0
   -9.2733   11.6033  -37.0105 H   0  0  0  0  0  0  0  0  0  0  0  0
   -5.4050   13.8240  -35.7420 H   0  0  0  0  0  0  0  0  0  0  0  0
   -5.8104   13.4203  -32.8156 H   0  0  0  0  0  0  0  0  0  0  0  0
   -4.2933   13.8902  -33.6668 H   0  0  0  0  0  0  0  0  0  0  0  0
   -6.3589   16.0007  -35.2375 H   0  0  0  0  0  0  0  0  0  0  0  0
   -6.8194   18.3824  -34.6732 H   0  0  0  0  0  0  0  0  0  0  0  0
   -8.5770   19.4650  -32.7417 H   0  0  0  0  0  0  0  0  0  0  0  0
   -9.0802   21.8569  -32.1515 H   0  0  0  0  0  0  0  0  0  0  0  0
   -7.8760   24.2650  -31.1878 H   0  0  0  0  0  0  0  0  0  0  0  0
   -3.0810   25.3040  -30.3580 H   0  0  0  0  0  0  0  0  0  0  0  0
   -3.2700   24.2570  -29.3520 H   0  0  0  0  0  0  0  0  0  0  0  0
   -4.3852   20.0935  -31.7107 H   0  0  0  0  0  0  0  0  0  0  0  0
   -5.4322   17.6875  -30.6276 H   0  0  0  0  0  0  0  0  0  0  0  0
   -4.9680   15.3087  -31.1979 H   0  0  0  0  0  0  0  0  0  0  0  0
  1  2  1  0
  2  3  1  0
  3  4  2  0
  3  5  1  0
  5  6  1  0
  6  7  1  0
  7  8  2  0
  8  9  1  0
  9 10  2  0
 10 11  1  0
 11 12  2  0
 12 13  1  0
 13 14  2  0
 14 15  1  0
 15 16  2  0
 16 17  1  0
 17 18  1  0
 17 19  2  0
 16 20  1  0
 20 21  1  0
 21 22  1  0
 21 23  2  0
 20 24  1  0
 24 25  2  0
 10 26  1  0
 26 27  2  0
 27  7  1  0
 25 11  1  0
 24 14  1  0
  1 28  1  0
  1 29  1  0
  1 30  1  0
  5 31  1  0
  6 32  1  0
  6 33  1  0
  8 34  1  0
  9 35  1  0
 12 36  1  0
 13 37  1  0
 15 38  1  0
 18 39  1  0
 22 40  1  0
 25 41  1  0
 26 42  1  0
 27 43  1  0
M  CHG  3   2  -1  18  -1  22  -1
M  END
>  <UniqueID>  (52) 
51

>  <SMILES>  (52) 
C[N-]C(=O)NCc1ccc(-c2ccc3cc(C([NH-])=O)n(C([NH-])=O)c3c2)cc1

>  <Energy>  (52) 
85.132209066107

>  <Genealogy>  (52) 
C[N-]C(=O)NCc1ccc(-c2ccc3cc(C([NH-])=O)n(C([NH-])=O)c3c2)cc1 (protonated)
C[N-]C(=O)NCc1ccc(-c2ccc3cc(C([NH-])=O)n(C([NH-])=O)c3c2)cc1 (3D coordinates assigned)
C[N-]C(=O)NCc1ccc(-c2ccc3cc(C([NH-])=O)n(C([NH-])=O)c3c2)cc1 (optimized conformer: 85.132209066107 kcal/mol)

>  <smiles>  (52) 
CNC(=O)NCc1ccc(-c2ccc3cc(C(N)=O)n(C(N)=O)c3c2)cc1

>  <score_type>  (52) 
oracle

>  <origin>  (52) 
adg

>  <m_score__min__energy>  (52) 
-10.619999999999999

>  <m_primary>  (52) 
energy

$$$$
52:0
     RDKit          3D

 69 73  0  0  0  0  0  0  0  0999 V2000
   -0.6120   27.6120  -26.4970 C   0  0  0  0  0  0  0  0  0  0  0  0
   -0.0830   26.1880  -26.7620 C   0  0  1  0  0  0  0  0  0  0  0  0
   -0.1880   25.3280  -25.4720 C   0  0  2  0  0  0  0  0  0  0  0  0
    0.9880   25.4650  -24.7130 O   0  0  0  0  0  0  0  0  0  0  0  0
   -0.4150   23.8360  -25.8350 C   0  0  1  0  0  0  0  0  0  0  0  0
   -0.4370   22.9440  -24.5850 C   0  0  0  0  0  0  0  0  0  0  0  0
    0.8380   22.8840  -23.9990 O   0  0  0  0  0  0  0  0  0  0  0  0
   -1.6410   23.6330  -26.5260 O   0  0  0  0  0  0  0  0  0  0  0  0
   -1.9900   24.6470  -27.4640 C   0  0  2  0  0  0  0  0  0  0  0  0
   -2.7270   23.9860  -28.5990 C   0  0  0  0  0  0  0  0  0  0  0  0
   -3.6760   24.6090  -29.3510 N   0  0  0  0  0  0  0  0  0  0  0  0
   -4.0200   23.6610  -30.2320 C   0  0  0  0  0  0  0  0  0  0  0  0
   -4.9780   23.7410  -31.2360 C   0  0  0  0  0  0  0  0  0  0  0  0
   -5.1830   22.6020  -32.0370 C   0  0  0  0  0  0  0  0  0  0  0  0
   -4.4190   21.4220  -31.8280 C   0  0  0  0  0  0  0  0  0  0  0  0
   -4.6520   20.2250  -32.6670 C   0  0  0  0  0  0  0  0  0  0  0  0
   -5.9710   19.8590  -33.0430 C   0  0  0  0  0  0  0  0  0  0  0  0
   -6.2010   18.7140  -33.8230 C   0  0  0  0  0  0  0  0  0  0  0  0
   -5.0980   17.9690  -34.2290 C   0  0  0  0  0  0  0  0  0  0  0  0
   -5.0320   16.8210  -34.9860 C   0  0  0  0  0  0  0  0  0  0  0  0
   -3.6740   16.5270  -35.0970 C   0  0  0  0  0  0  0  0  0  0  0  0
   -3.1490   15.4140  -35.9180 C   0  0  0  0  0  0  0  0  0  0  0  0
   -1.8410   15.4980  -36.4720 N   0  0  0  0  0  0  0  0  0  0  0  0
   -3.8290   14.3720  -36.1090 O   0  0  0  0  0  0  0  0  0  0  0  0
   -2.9280   17.4530  -34.4280 N   0  0  0  0  0  0  0  0  0  0  0  0
   -1.5000   17.5030  -34.2890 C   0  0  0  0  0  0  0  0  0  0  0  0
   -0.8820   16.4970  -33.8460 O   0  0  0  0  0  0  0  0  0  0  0  0
   -0.8060   18.6600  -34.6720 O   0  0  0  0  0  0  0  0  0  0  0  0
   -0.1920   19.6130  -33.7910 C   0  0  0  0  0  0  0  0  0  0  0  0
   -0.8560   20.9730  -34.0590 C   0  0  0  0  0  0  0  0  0  0  0  0
    1.3170   19.7280  -34.0870 C   0  0  0  0  0  0  0  0  0  0  0  0
   -0.4280   19.2250  -32.3170 C   0  0  0  0  0  0  0  0  0  0  0  0
   -3.8160   18.3250  -33.9000 C   0  0  0  0  0  0  0  0  0  0  0  0
   -3.5580   19.4420  -33.0990 C   0  0  0  0  0  0  0  0  0  0  0  0
   -3.4480   21.3910  -30.8000 C   0  0  0  0  0  0  0  0  0  0  0  0
   -3.2920   22.5330  -30.0190 C   0  0  0  0  0  0  0  0  0  0  0  0
   -2.4590   22.7100  -28.9840 N   0  0  0  0  0  0  0  0  0  0  0  0
   -0.7930   25.4990  -27.9620 C   0  0  1  0  0  0  0  0  0  0  0  0
   -1.2300   26.4420  -28.9130 O   0  0  0  0  0  0  0  0  0  0  0  0
   -0.6757   27.7835  -25.4123 H   0  0  0  0  0  0  0  0  0  0  0  0
    0.0731   28.3469  -26.9448 H   0  0  0  0  0  0  0  0  0  0  0  0
   -1.6107   27.7214  -26.9448 H   0  0  0  0  0  0  0  0  0  0  0  0
    0.9766   26.2772  -27.0436 H   0  0  0  0  0  0  0  0  0  0  0  0
   -1.0452   25.6792  -24.8787 H   0  0  0  0  0  0  0  0  0  0  0  0
    0.8110   25.0500  -23.8280 H   0  0  0  0  0  0  0  0  0  0  0  0
    0.4293   23.5613  -26.4844 H   0  0  0  0  0  0  0  0  0  0  0  0
   -1.1503   23.3585  -23.8574 H   0  0  0  0  0  0  0  0  0  0  0  0
   -0.7408   21.9284  -24.8789 H   0  0  0  0  0  0  0  0  0  0  0  0
    0.9450   23.7080  -23.4510 H   0  0  0  0  0  0  0  0  0  0  0  0
   -2.6332   25.3807  -26.9562 H   0  0  0  0  0  0  0  0  0  0  0  0
   -5.5559   24.6627  -31.3989 H   0  0  0  0  0  0  0  0  0  0  0  0
   -5.9421   22.6254  -32.8327 H   0  0  0  0  0  0  0  0  0  0  0  0
   -6.8211   20.4781  -32.7203 H   0  0  0  0  0  0  0  0  0  0  0  0
   -7.2216   18.4153  -34.1043 H   0  0  0  0  0  0  0  0  0  0  0  0
   -5.8732   16.2553  -35.4130 H   0  0  0  0  0  0  0  0  0  0  0  0
   -1.0680   15.9770  -35.9570 H   0  0  0  0  0  0  0  0  0  0  0  0
   -1.0937   21.4599  -33.1017 H   0  0  0  0  0  0  0  0  0  0  0  0
   -0.1677   21.6102  -34.6335 H   0  0  0  0  0  0  0  0  0  0  0  0
   -1.7818   20.8221  -34.6335 H   0  0  0  0  0  0  0  0  0  0  0  0
    1.8743   19.7705  -33.1396 H   0  0  0  0  0  0  0  0  0  0  0  0
    1.6448   18.8522  -34.6663 H   0  0  0  0  0  0  0  0  0  0  0  0
    1.5083   20.6433  -34.6663 H   0  0  0  0  0  0  0  0  0  0  0  0
    0.0309   19.9795  -31.6612 H   0  0  0  0  0  0  0  0  0  0  0  0
   -1.5090   19.1761  -32.1193 H   0  0  0  0  0  0  0  0  0  0  0  0
    0.0257   18.2426  -32.1193 H   0  0  0  0  0  0  0  0  0  0  0  0
   -2.5289   19.7045  -32.8124 H   0  0  0  0  0  0  0  0  0  0  0  0
   -2.8362   20.4941  -30.6234 H   0  0  0  0  0  0  0  0  0  0  0  0
   -0.0608   24.8395  -28.4509 H   0  0  0  0  0  0  0  0  0  0  0  0
   -2.0360   26.0540  -29.3470 H   0  0  0  0  0  0  0  0  0  0  0  0
  1  2  1  0
  2  3  1  0
  3  4  1  0
  3  5  1  0
  5  6  1  0
  6  7  1  0
  5  8  1  0
  8  9  1  0
  9 10  1  0
 10 11  2  0
 11 12  1  0
 12 13  2  0
 13 14  1  0
 14 15  2  0
 15 16  1  0
 16 17  2  0
 17 18  1  0
 18 19  2  0
 19 20  1  0
 20 21  2  0
 21 22  1  0
 22 23  1  0
 22 24  2  0
 21 25  1  0
 25 26  1  0
 26 27  2  0
 26 28  1  0
 28 29  1  0
 29 30  1  0
 29 31  1  0
 29 32  1  0
 25 33  1  0
 33 34  2  0
 15 35  1  0
 35 36  2  0
 36 37  1  0
  9 38  1  0
 38 39  1  0
 38  2  1  0
 37 10  1  0
 36 12  1  0
 34 16  1  0
 33 19  1  0
  1 40  1  0
  1 41  1  0
  1 42  1  0
  2 43  1  6
  3 44  1  1
  4 45  1  0
  5 46  1  6
  6 47  1  0
  6 48  1  0
  7 49  1  0
  9 50  1  1
 13 51  1  0
 14 52  1  0
 17 53  1  0
 18 54  1  0
 20 55  1  0
 23 56  1  0
 30 57  1  0
 30 58  1  0
 30 59  1  0
 31 60  1  0
 31 61  1  0
 31 62  1  0
 32 63  1  0
 32 64  1  0
 32 65  1  0
 34 66  1  0
 35 67  1  0
 38 68  1  6
 39 69  1  0
M  CHG  2  23  -1  37  -1
M  END
>  <UniqueID>  (53) 
52

>  <SMILES>  (53) 
C[C@@H]1[C@H](O)[C@@H](c2nc3ccc(-c4ccc5cc(C([NH-])=O)n(C(=O)OC(C)(C)C)c5c4)cc3[n-]2)O[C@H](CO)[C@H]1O

>  <Energy>  (53) 
160.41222227501262

>  <Genealogy>  (53) 
CC1[C@H](O)C(CO)O[C@H](c2nc3ccc(-c4ccc5cc(C([NH-])=O)n(C(=O)OC(C)(C)C)c5c4)cc3[n-]2)[C@H]1O (protonated)
C[C@@H]1[C@H](O)[C@@H](c2nc3ccc(-c4ccc5cc(C([NH-])=O)n(C(=O)OC(C)(C)C)c5c4)cc3[n-]2)O[C@H](CO)[C@H]1O (chirality)
C[C@@H]1[C@H](O)[C@@H](c2nc3ccc(-c4ccc5cc(C([NH-])=O)n(C(=O)OC(C)(C)C)c5c4)cc3[n-]2)O[C@H](CO)[C@H]1O (3D coordinates assigned)
C[C@@H]1[C@H](O)[C@@H](c2nc3ccc(-c4ccc5cc(C([NH-])=O)n(C(=O)OC(C)(C)C)c5c4)cc3[n-]2)O[C@H](CO)[C@H]1O (nonaromatic ring conformer: 160.41222227501262 kcal/mol)

>  <smiles>  (53) 
CC1[C@H](O)C(CO)O[C@H](c2nc3ccc(-c4ccc5cc(C(N)=O)n(C(=O)OC(C)(C)C)c5c4)cc3[nH]2)[C@H]1O

>  <score_type>  (53) 
oracle

>  <origin>  (53) 
adg

>  <m_score__min__energy>  (53) 
-10.59

>  <m_primary>  (53) 
energy

$$$$
53:0
     RDKit          3D

 55 58  0  0  0  0  0  0  0  0999 V2000
   -6.2940   14.7740  -34.1640 C   0  0  0  0  0  0  0  0  0  0  0  0
   -5.7640   16.1070  -33.9090 N   0  0  0  0  0  0  0  0  0  0  0  0
   -6.4830   17.1910  -33.5640 C   0  0  0  0  0  0  0  0  0  0  0  0
   -5.6080   18.2370  -33.3200 C   0  0  0  0  0  0  0  0  0  0  0  0
   -5.9820   19.5810  -32.8230 C   0  0  0  0  0  0  0  0  0  0  0  0
   -7.3340   20.0080  -32.8850 C   0  0  0  0  0  0  0  0  0  0  0  0
   -7.7030   21.2860  -32.4330 C   0  0  0  0  0  0  0  0  0  0  0  0
   -6.7070   22.1080  -31.9150 C   0  0  0  0  0  0  0  0  0  0  0  0
   -6.7770   23.4050  -31.4570 C   0  0  0  0  0  0  0  0  0  0  0  0
   -5.4730   23.7390  -31.0930 C   0  0  0  0  0  0  0  0  0  0  0  0
   -5.1010   25.0330  -30.4880 C   0  0  0  0  0  0  0  0  0  0  0  0
   -3.8720   25.6720  -30.8210 N   0  0  0  0  0  0  0  0  0  0  0  0
   -5.8570   25.5620  -29.6290 O   0  0  0  0  0  0  0  0  0  0  0  0
   -4.6320   22.6910  -31.3180 N   0  0  0  0  0  0  0  0  0  0  0  0
   -3.2010   22.6780  -31.2130 C   0  0  0  0  0  0  0  0  0  0  0  0
   -2.5100   22.2190  -32.1630 O   0  0  0  0  0  0  0  0  0  0  0  0
   -2.5900   23.2090  -30.0680 O   0  0  0  0  0  0  0  0  0  0  0  0
   -2.5840   22.6230  -28.7580 C   0  0  0  0  0  0  0  0  0  0  0  0
   -1.3000   23.0140  -28.0020 C   0  0  0  0  0  0  0  0  0  0  0  0
   -2.7210   21.0910  -28.8450 C   0  0  0  0  0  0  0  0  0  0  0  0
   -3.7960   23.1870  -28.0030 C   0  0  0  0  0  0  0  0  0  0  0  0
   -5.4030   21.7010  -31.8190 C   0  0  0  0  0  0  0  0  0  0  0  0
   -5.0060   20.4360  -32.2650 C   0  0  0  0  0  0  0  0  0  0  0  0
   -4.3380   17.7020  -33.5410 C   0  0  0  0  0  0  0  0  0  0  0  0
   -3.0340   18.3980  -33.4870 C   0  0  0  0  0  0  0  0  0  0  0  0
   -2.8240   19.5880  -34.2040 C   0  0  0  0  0  0  0  0  0  0  0  0
   -1.5880   20.2400  -34.1420 C   0  0  0  0  0  0  0  0  0  0  0  0
   -0.5490   19.7020  -33.3790 C   0  0  0  0  0  0  0  0  0  0  0  0
    0.6490   20.3340  -33.3250 F   0  0  0  0  0  0  0  0  0  0  0  0
   -0.7440   18.5090  -32.6760 C   0  0  0  0  0  0  0  0  0  0  0  0
    0.2630   17.9840  -31.9360 F   0  0  0  0  0  0  0  0  0  0  0  0
   -1.9790   17.8560  -32.7350 C   0  0  0  0  0  0  0  0  0  0  0  0
   -4.4750   16.4050  -33.8810 N   0  0  0  0  0  0  0  0  0  0  0  0
   -6.4944   14.2699  -33.2071 H   0  0  0  0  0  0  0  0  0  0  0  0
   -7.2284   14.8547  -34.7387 H   0  0  0  0  0  0  0  0  0  0  0  0
   -5.5593   14.1910  -34.7387 H   0  0  0  0  0  0  0  0  0  0  0  0
   -7.5794   17.2385  -33.4885 H   0  0  0  0  0  0  0  0  0  0  0  0
   -8.1006   19.3316  -33.2910 H   0  0  0  0  0  0  0  0  0  0  0  0
   -8.7476   21.6265  -32.4870 H   0  0  0  0  0  0  0  0  0  0  0  0
   -7.6714   24.0420  -31.3921 H   0  0  0  0  0  0  0  0  0  0  0  0
   -2.9600   25.3010  -30.4750 H   0  0  0  0  0  0  0  0  0  0  0  0
   -1.4813   22.9588  -26.9184 H   0  0  0  0  0  0  0  0  0  0  0  0
   -0.4893   22.3220  -28.2739 H   0  0  0  0  0  0  0  0  0  0  0  0
   -1.0126   24.0404  -28.2739 H   0  0  0  0  0  0  0  0  0  0  0  0
   -2.7588   20.6680  -27.8303 H   0  0  0  0  0  0  0  0  0  0  0  0
   -3.6456   20.8355  -29.3834 H   0  0  0  0  0  0  0  0  0  0  0  0
   -1.8564   20.6755  -29.3834 H   0  0  0  0  0  0  0  0  0  0  0  0
   -3.6231   23.1065  -26.9197 H   0  0  0  0  0  0  0  0  0  0  0  0
   -3.9377   24.2436  -28.2742 H   0  0  0  0  0  0  0  0  0  0  0  0
   -4.6956   22.6150  -28.2742 H   0  0  0  0  0  0  0  0  0  0  0  0
   -3.9573   20.1143  -32.1830 H   0  0  0  0  0  0  0  0  0  0  0  0
   -3.6350   20.0087  -34.8167 H   0  0  0  0  0  0  0  0  0  0  0  0
   -1.4339   21.1782  -34.6952 H   0  0  0  0  0  0  0  0  0  0  0  0
   -2.1251   16.9122  -32.1892 H   0  0  0  0  0  0  0  0  0  0  0  0
   -3.7050   15.7350  -34.1060 H   0  0  0  0  0  0  0  0  0  0  0  0
  1  2  1  0
  2  3  1  0
  3  4  2  0
  4  5  1  0
  5  6  2  0
  6  7  1  0
  7  8  2  0
  8  9  1  0
  9 10  2  0
 10 11  1  0
 11 12  1  0
 11 13  2  0
 10 14  1  0
 14 15  1  0
 15 16  2  0
 15 17  1  0
 17 18  1  0
 18 19  1  0
 18 20  1  0
 18 21  1  0
 14 22  1  0
 22 23  2  0
  4 24  1  0
 24 25  1  0
 25 26  2  0
 26 27  1  0
 27 28  2  0
 28 29  1  0
 28 30  1  0
 30 31  1  0
 30 32  2  0
 24 33  2  0
 33  2  1  0
 23  5  1  0
 32 25  1  0
 22  8  1  0
  1 34  1  0
  1 35  1  0
  1 36  1  0
  3 37  1  0
  6 38  1  0
  7 39  1  0
  9 40  1  0
 12 41  1  0
 19 42  1  0
 19 43  1  0
 19 44  1  0
 20 45  1  0
 20 46  1  0
 20 47  1  0
 21 48  1  0
 21 49  1  0
 21 50  1  0
 23 51  1  0
 26 52  1  0
 27 53  1  0
 32 54  1  0
 33 55  1  0
M  CHG  2  12  -1  33   1
M  END
>  <UniqueID>  (54) 
53

>  <SMILES>  (54) 
Cn1cc(-c2ccc3cc(C([NH-])=O)n(C(=O)OC(C)(C)C)c3c2)c(-c2ccc(F)c(F)c2)[nH+]1

>  <Energy>  (54) 
128.71749866370686

>  <Genealogy>  (54) 
Cn1cc(-c2ccc3cc(C([NH-])=O)n(C(=O)OC(C)(C)C)c3c2)c(-c2ccc(F)c(F)c2)[nH+]1 (protonated)
Cn1cc(-c2ccc3cc(C([NH-])=O)n(C(=O)OC(C)(C)C)c3c2)c(-c2ccc(F)c(F)c2)[nH+]1 (3D coordinates assigned)
Cn1cc(-c2ccc3cc(C([NH-])=O)n(C(=O)OC(C)(C)C)c3c2)c(-c2ccc(F)c(F)c2)[nH+]1 (optimized conformer: 128.71749866370686 kcal/mol)

>  <smiles>  (54) 
Cn1cc(-c2ccc3cc(C(N)=O)n(C(=O)OC(C)(C)C)c3c2)c(-c2ccc(F)c(F)c2)n1

>  <score_type>  (54) 
oracle

>  <origin>  (54) 
adg

>  <m_score__min__energy>  (54) 
-11.15

>  <m_primary>  (54) 
energy

$$$$
54:0
     RDKit          3D

 61 64  0  0  0  0  0  0  0  0999 V2000
   -4.0800   24.1130  -28.0770 C   0  0  0  0  0  0  0  0  0  0  0  0
   -2.9660   23.7340  -29.0710 C   0  0  0  0  0  0  0  0  0  0  0  0
   -1.6610   24.4800  -28.7330 C   0  0  0  0  0  0  0  0  0  0  0  0
   -2.7110   22.2220  -28.9810 C   0  0  0  0  0  0  0  0  0  0  0  0
   -3.3760   24.0140  -30.4180 O   0  0  0  0  0  0  0  0  0  0  0  0
   -3.9760   23.1140  -31.3110 C   0  0  0  0  0  0  0  0  0  0  0  0
   -3.2800   22.4630  -32.1350 O   0  0  0  0  0  0  0  0  0  0  0  0
   -5.4020   22.9390  -31.2820 N   0  0  0  0  0  0  0  0  0  0  0  0
   -6.3380   23.8690  -30.9390 C   0  0  0  0  0  0  0  0  0  0  0  0
   -6.0620   25.1970  -30.3560 C   0  0  0  0  0  0  0  0  0  0  0  0
   -4.9860   26.0050  -30.8360 N   0  0  0  0  0  0  0  0  0  0  0  0
   -6.7520   25.6010  -29.3830 O   0  0  0  0  0  0  0  0  0  0  0  0
   -7.6210   23.3830  -31.1680 C   0  0  0  0  0  0  0  0  0  0  0  0
   -7.4460   22.1100  -31.6560 C   0  0  0  0  0  0  0  0  0  0  0  0
   -8.3890   21.1730  -32.0660 C   0  0  0  0  0  0  0  0  0  0  0  0
   -7.9260   19.9460  -32.5680 C   0  0  0  0  0  0  0  0  0  0  0  0
   -6.5350   19.6780  -32.6620 C   0  0  0  0  0  0  0  0  0  0  0  0
   -6.0550   18.3830  -33.2080 C   0  0  0  0  0  0  0  0  0  0  0  0
   -6.8690   17.2410  -33.1590 C   0  0  0  0  0  0  0  0  0  0  0  0
   -6.4120   16.0220  -33.6650 C   0  0  0  0  0  0  0  0  0  0  0  0
   -5.1220   15.9090  -34.2090 C   0  0  0  0  0  0  0  0  0  0  0  0
   -4.6380   14.5710  -34.7410 C   0  0  0  0  0  0  0  0  0  0  0  0
   -4.2970   13.5840  -33.6890 N   0  0  0  0  0  0  0  0  0  0  0  0
   -3.6640   14.1500  -32.4780 C   0  0  0  0  0  0  0  0  0  0  0  0
   -4.5790   14.0210  -31.2480 C   0  0  0  0  0  0  0  0  0  0  0  0
   -4.9430   12.6770  -30.9550 O   0  0  0  0  0  0  0  0  0  0  0  0
   -5.0630   11.8470  -32.1050 C   0  0  0  0  0  0  0  0  0  0  0  0
   -5.3760   12.6160  -33.3990 C   0  0  0  0  0  0  0  0  0  0  0  0
   -4.3220   17.0650  -34.3010 C   0  0  0  0  0  0  0  0  0  0  0  0
   -3.1180   17.0330  -34.9250 F   0  0  0  0  0  0  0  0  0  0  0  0
   -4.7820   18.2840  -33.7940 C   0  0  0  0  0  0  0  0  0  0  0  0
   -5.6080   20.6590  -32.2360 C   0  0  0  0  0  0  0  0  0  0  0  0
   -6.0980   21.8640  -31.7190 C   0  0  0  0  0  0  0  0  0  0  0  0
   -3.7116   23.9877  -27.0481 H   0  0  0  0  0  0  0  0  0  0  0  0
   -4.3727   25.1613  -28.2365 H   0  0  0  0  0  0  0  0  0  0  0  0
   -4.9512   23.4607  -28.2365 H   0  0  0  0  0  0  0  0  0  0  0  0
   -1.5480   24.5446  -27.6407 H   0  0  0  0  0  0  0  0  0  0  0  0
   -0.8059   23.9343  -29.1585 H   0  0  0  0  0  0  0  0  0  0  0  0
   -1.6974   25.4937  -29.1585 H   0  0  0  0  0  0  0  0  0  0  0  0
   -2.6602   21.9210  -27.9242 H   0  0  0  0  0  0  0  0  0  0  0  0
   -3.5307   21.6817  -29.4772 H   0  0  0  0  0  0  0  0  0  0  0  0
   -1.7594   21.9805  -29.4772 H   0  0  0  0  0  0  0  0  0  0  0  0
   -4.2930   25.6280  -31.5190 H   0  0  0  0  0  0  0  0  0  0  0  0
   -4.8350   26.9620  -30.4460 H   0  0  0  0  0  0  0  0  0  0  0  0
   -8.5731   23.9061  -30.9953 H   0  0  0  0  0  0  0  0  0  0  0  0
   -9.4659   21.3870  -31.9989 H   0  0  0  0  0  0  0  0  0  0  0  0
   -8.6496   19.1835  -32.8922 H   0  0  0  0  0  0  0  0  0  0  0  0
   -7.8749   17.3063  -32.7186 H   0  0  0  0  0  0  0  0  0  0  0  0
   -7.0697   15.1407  -33.6372 H   0  0  0  0  0  0  0  0  0  0  0  0
   -5.4319   14.1430  -35.3707 H   0  0  0  0  0  0  0  0  0  0  0  0
   -3.7110   14.7702  -35.2987 H   0  0  0  0  0  0  0  0  0  0  0  0
   -2.7244   13.6126  -32.2819 H   0  0  0  0  0  0  0  0  0  0  0  0
   -3.4753   15.2190  -32.6559 H   0  0  0  0  0  0  0  0  0  0  0  0
   -4.0531   14.4381  -30.3765 H   0  0  0  0  0  0  0  0  0  0  0  0
   -5.5065   14.5677  -31.4735 H   0  0  0  0  0  0  0  0  0  0  0  0
   -4.1142   11.3079  -32.2435 H   0  0  0  0  0  0  0  0  0  0  0  0
   -5.9109   11.1703  -31.9230 H   0  0  0  0  0  0  0  0  0  0  0  0
   -5.4603   11.9044  -34.2336 H   0  0  0  0  0  0  0  0  0  0  0  0
   -6.3236   13.1604  -33.2737 H   0  0  0  0  0  0  0  0  0  0  0  0
   -4.1402   19.1753  -33.8546 H   0  0  0  0  0  0  0  0  0  0  0  0
   -4.5254   20.4783  -32.3096 H   0  0  0  0  0  0  0  0  0  0  0  0
  1  2  1  0
  2  3  1  0
  2  4  1  0
  2  5  1  0
  5  6  1  0
  6  7  2  0
  6  8  1  0
  8  9  1  0
  9 10  1  0
 10 11  1  0
 10 12  2  0
  9 13  2  0
 13 14  1  0
 14 15  2  0
 15 16  1  0
 16 17  2  0
 17 18  1  0
 18 19  2  0
 19 20  1  0
 20 21  2  0
 21 22  1  0
 22 23  1  0
 23 24  1  0
 24 25  1  0
 25 26  1  0
 26 27  1  0
 27 28  1  0
 21 29  1  0
 29 30  1  0
 29 31  2  0
 17 32  1  0
 32 33  2  0
 33  8  1  0
 33 14  1  0
 31 18  1  0
 28 23  1  0
  1 34  1  0
  1 35  1  0
  1 36  1  0
  3 37  1  0
  3 38  1  0
  3 39  1  0
  4 40  1  0
  4 41  1  0
  4 42  1  0
 11 43  1  0
 11 44  1  0
 13 45  1  0
 15 46  1  0
 16 47  1  0
 19 48  1  0
 20 49  1  0
 22 50  1  0
 22 51  1  0
 24 52  1  0
 24 53  1  0
 25 54  1  0
 25 55  1  0
 27 56  1  0
 27 57  1  0
 28 58  1  0
 28 59  1  0
 31 60  1  0
 32 61  1  0
M  END
>  <UniqueID>  (55) 
54

>  <SMILES>  (55) 
CC(C)(C)OC(=O)n1c(C(N)=O)cc2ccc(-c3ccc(CN4CCOCC4)c(F)c3)cc21

>  <Energy>  (55) 
121.38515524112752

>  <Genealogy>  (55) 
CC(C)(C)OC(=O)n1c(C(N)=O)cc2ccc(-c3ccc(CN4CCOCC4)c(F)c3)cc21 (3D coordinates assigned)
CC(C)(C)OC(=O)n1c(C(N)=O)cc2ccc(-c3ccc(CN4CCOCC4)c(F)c3)cc21 (nonaromatic ring conformer: 121.38515524112752 kcal/mol)

>  <smiles>  (55) 
CC(C)(C)OC(=O)n1c(C(N)=O)cc2ccc(-c3ccc(CN4CCOCC4)c(F)c3)cc21

>  <score_type>  (55) 
oracle

>  <origin>  (55) 
adg

>  <m_score__min__energy>  (55) 
-10.41

>  <m_primary>  (55) 
energy

$$$$
55:0
     RDKit          3D

 35 37  0  0  0  0  0  0  0  0999 V2000
   -3.1510   21.8060  -31.5560 C   0  0  0  0  0  0  0  0  0  0  0  0
   -3.9210   23.0430  -31.2130 C   0  0  0  0  0  0  0  0  0  0  0  0
   -3.2940   24.0720  -30.8460 O   0  0  0  0  0  0  0  0  0  0  0  0
   -5.3530   23.0790  -31.3150 N   0  0  0  0  0  0  0  0  0  0  0  0
   -6.1860   24.0410  -30.8290 C   0  0  0  0  0  0  0  0  0  0  0  0
   -5.7670   25.3200  -30.2220 C   0  0  0  0  0  0  0  0  0  0  0  0
   -6.2850   25.7500  -28.9620 N   0  0  0  0  0  0  0  0  0  0  0  0
   -4.9010   26.0260  -30.8050 O   0  0  0  0  0  0  0  0  0  0  0  0
   -7.5180   23.6680  -30.9950 C   0  0  0  0  0  0  0  0  0  0  0  0
   -7.4770   22.4370  -31.6090 C   0  0  0  0  0  0  0  0  0  0  0  0
   -8.5150   21.5930  -31.9870 C   0  0  0  0  0  0  0  0  0  0  0  0
   -8.1830   20.3530  -32.5560 C   0  0  0  0  0  0  0  0  0  0  0  0
   -6.8260   19.9720  -32.7270 C   0  0  0  0  0  0  0  0  0  0  0  0
   -6.4860   18.6510  -33.3150 C   0  0  0  0  0  0  0  0  0  0  0  0
   -7.1830   17.4930  -32.9230 C   0  0  0  0  0  0  0  0  0  0  0  0
   -6.8640   16.2510  -33.4790 C   0  0  0  0  0  0  0  0  0  0  0  0
   -5.8450   16.1500  -34.4300 C   0  0  0  0  0  0  0  0  0  0  0  0
   -5.1450   17.2910  -34.8270 C   0  0  0  0  0  0  0  0  0  0  0  0
   -5.4620   18.5370  -34.2750 C   0  0  0  0  0  0  0  0  0  0  0  0
   -5.7990   20.8600  -32.3250 C   0  0  0  0  0  0  0  0  0  0  0  0
   -6.1600   22.0990  -31.7860 C   0  0  0  0  0  0  0  0  0  0  0  0
   -2.8368   21.3013  -30.6305 H   0  0  0  0  0  0  0  0  0  0  0  0
   -3.7877   21.1292  -32.1448 H   0  0  0  0  0  0  0  0  0  0  0  0
   -2.2627   22.0785  -32.1448 H   0  0  0  0  0  0  0  0  0  0  0  0
   -6.0150   26.6830  -28.5770 H   0  0  0  0  0  0  0  0  0  0  0  0
   -6.8510   25.1110  -28.3640 H   0  0  0  0  0  0  0  0  0  0  0  0
   -8.4119   24.2363  -30.6985 H   0  0  0  0  0  0  0  0  0  0  0  0
   -9.5651   21.8878  -31.8446 H   0  0  0  0  0  0  0  0  0  0  0  0
   -8.9837   19.6687  -32.8730 H   0  0  0  0  0  0  0  0  0  0  0  0
   -7.9848   17.5659  -32.1735 H   0  0  0  0  0  0  0  0  0  0  0  0
   -7.4158   15.3518  -33.1676 H   0  0  0  0  0  0  0  0  0  0  0  0
   -5.5944   15.1716  -34.8658 H   0  0  0  0  0  0  0  0  0  0  0  0
   -4.3427   17.2102  -35.5752 H   0  0  0  0  0  0  0  0  0  0  0  0
   -4.9082   19.4327  -34.5927 H   0  0  0  0  0  0  0  0  0  0  0  0
   -4.7405   20.5815  -32.4342 H   0  0  0  0  0  0  0  0  0  0  0  0
  1  2  1  0
  2  3  2  0
  2  4  1  0
  4  5  1  0
  5  6  1  0
  6  7  1  0
  6  8  2  0
  5  9  2  0
  9 10  1  0
 10 11  2  0
 11 12  1  0
 12 13  2  0
 13 14  1  0
 14 15  2  0
 15 16  1  0
 16 17  2  0
 17 18  1  0
 18 19  2  0
 13 20  1  0
 20 21  2  0
 21  4  1  0
 21 10  1  0
 19 14  1  0
  1 22  1  0
  1 23  1  0
  1 24  1  0
  7 25  1  0
  7 26  1  0
  9 27  1  0
 11 28  1  0
 12 29  1  0
 15 30  1  0
 16 31  1  0
 17 32  1  0
 18 33  1  0
 19 34  1  0
 20 35  1  0
M  END
>  <UniqueID>  (56) 
55

>  <SMILES>  (56) 
CC(=O)n1c(C(N)=O)cc2ccc(-c3ccccc3)cc21

>  <Energy>  (56) 
82.13304747315001

>  <Genealogy>  (56) 
CC(=O)n1c(C(N)=O)cc2ccc(-c3ccccc3)cc21 (3D coordinates assigned)
CC(=O)n1c(C(N)=O)cc2ccc(-c3ccccc3)cc21 (optimized conformer: 82.13304747315001 kcal/mol)

>  <smiles>  (56) 
CC(=O)n1c(C(N)=O)cc2ccc(-c3ccccc3)cc21

>  <score_type>  (56) 
oracle

>  <origin>  (56) 
adg

>  <m_score__min__energy>  (56) 
-9.6699999999999999

>  <m_primary>  (56) 
energy

$$$$
56:0
     RDKit          3D

 46 48  0  0  0  0  0  0  0  0999 V2000
   -9.5050   19.3200  -32.6910 C   0  0  0  0  0  0  0  0  0  0  0  0
   -8.6160   19.2920  -31.5160 N   0  0  0  0  0  0  0  0  0  0  0  0
   -8.0200   20.6150  -31.2440 C   0  0  0  0  0  0  0  0  0  0  0  0
   -6.9550   21.0190  -32.2910 C   0  0  0  0  0  0  0  0  0  0  0  0
   -6.4430   19.8530  -33.0420 N   0  0  0  0  0  0  0  0  0  0  0  0
   -5.2230   20.1820  -33.8140 C   0  0  0  0  0  0  0  0  0  0  0  0
   -4.0540   19.3030  -33.3550 C   0  0  0  0  0  0  0  0  0  0  0  0
   -3.0790   20.0690  -32.5010 C   0  0  0  0  0  0  0  0  0  0  0  0
   -1.8010   19.5260  -32.2180 C   0  0  0  0  0  0  0  0  0  0  0  0
   -0.9140   20.1940  -31.3590 C   0  0  0  0  0  0  0  0  0  0  0  0
   -1.3280   21.4010  -30.8040 C   0  0  0  0  0  0  0  0  0  0  0  0
   -0.6860   22.2280  -29.9110 C   0  0  0  0  0  0  0  0  0  0  0  0
   -1.5720   23.2780  -29.6830 C   0  0  0  0  0  0  0  0  0  0  0  0
   -1.2500   24.4370  -28.8270 C   0  0  0  0  0  0  0  0  0  0  0  0
   -2.2770   25.2930  -28.3260 N   0  0  0  0  0  0  0  0  0  0  0  0
   -0.0450   24.7080  -28.5790 O   0  0  0  0  0  0  0  0  0  0  0  0
   -2.7220   23.1030  -30.3920 N   0  0  0  0  0  0  0  0  0  0  0  0
   -3.9180   23.8980  -30.3290 C   0  0  0  0  0  0  0  0  0  0  0  0
   -3.8690   25.2940  -30.6150 N   0  0  0  0  0  0  0  0  0  0  0  0
   -5.0160   23.3690  -30.0090 O   0  0  0  0  0  0  0  0  0  0  0  0
   -2.5550   21.9500  -31.0790 C   0  0  0  0  0  0  0  0  0  0  0  0
   -3.4660   21.2950  -31.9160 C   0  0  0  0  0  0  0  0  0  0  0  0
   -6.2370   18.7120  -32.1350 C   0  0  0  0  0  0  0  0  0  0  0  0
   -7.5970   18.2190  -31.6050 C   0  0  0  0  0  0  0  0  0  0  0  0
  -10.5527   19.3530  -32.3574 H   0  0  0  0  0  0  0  0  0  0  0  0
   -9.2847   20.2117  -33.2963 H   0  0  0  0  0  0  0  0  0  0  0  0
   -9.3412   18.4163  -33.2963 H   0  0  0  0  0  0  0  0  0  0  0  0
   -8.8209   21.3690  -31.2483 H   0  0  0  0  0  0  0  0  0  0  0  0
   -7.5188   20.5580  -30.2665 H   0  0  0  0  0  0  0  0  0  0  0  0
   -7.4065   21.7277  -33.0009 H   0  0  0  0  0  0  0  0  0  0  0  0
   -6.1093   21.4748  -31.7553 H   0  0  0  0  0  0  0  0  0  0  0  0
   -5.4114   20.0069  -34.8835 H   0  0  0  0  0  0  0  0  0  0  0  0
   -4.9657   21.2383  -33.6464 H   0  0  0  0  0  0  0  0  0  0  0  0
   -4.4510   18.4588  -32.7720 H   0  0  0  0  0  0  0  0  0  0  0  0
   -3.5203   18.9500  -34.2497 H   0  0  0  0  0  0  0  0  0  0  0  0
   -1.5011   18.5718  -32.6758 H   0  0  0  0  0  0  0  0  0  0  0  0
    0.0778   19.7761  -31.1317 H   0  0  0  0  0  0  0  0  0  0  0  0
    0.3128   22.0895  -29.4715 H   0  0  0  0  0  0  0  0  0  0  0  0
   -2.0340   26.0870  -27.6920 H   0  0  0  0  0  0  0  0  0  0  0  0
   -3.2660   25.1930  -28.6450 H   0  0  0  0  0  0  0  0  0  0  0  0
   -3.5790   25.6390  -31.5560 H   0  0  0  0  0  0  0  0  0  0  0  0
   -4.4592   21.7247  -32.1134 H   0  0  0  0  0  0  0  0  0  0  0  0
   -5.7395   17.8964  -32.6803 H   0  0  0  0  0  0  0  0  0  0  0  0
   -5.6086   19.0274  -31.2891 H   0  0  0  0  0  0  0  0  0  0  0  0
   -7.9722   17.4365  -32.2810 H   0  0  0  0  0  0  0  0  0  0  0  0
   -7.4316   17.8416  -30.5851 H   0  0  0  0  0  0  0  0  0  0  0  0
  1  2  1  0
  2  3  1  0
  3  4  1  0
  4  5  1  0
  5  6  1  0
  6  7  1  0
  7  8  1  0
  8  9  2  0
  9 10  1  0
 10 11  2  0
 11 12  1  0
 12 13  2  0
 13 14  1  0
 14 15  1  0
 14 16  2  0
 13 17  1  0
 17 18  1  0
 18 19  1  0
 18 20  2  0
 17 21  1  0
 21 22  2  0
  5 23  1  0
 23 24  1  0
 24  2  1  0
 22  8  1  0
 21 11  1  0
  1 25  1  0
  1 26  1  0
  1 27  1  0
  3 28  1  0
  3 29  1  0
  4 30  1  0
  4 31  1  0
  6 32  1  0
  6 33  1  0
  7 34  1  0
  7 35  1  0
  9 36  1  0
 10 37  1  0
 12 38  1  0
 15 39  1  0
 15 40  1  0
 19 41  1  0
 22 42  1  0
 23 43  1  0
 23 44  1  0
 24 45  1  0
 24 46  1  0
M  CHG  1  19  -1
M  END
>  <UniqueID>  (57) 
56

>  <SMILES>  (57) 
CN1CCN(CCc2ccc3cc(C(N)=O)n(C([NH-])=O)c3c2)CC1

>  <Energy>  (57) 
95.04449481286711

>  <Genealogy>  (57) 
CN1CCN(CCc2ccc3cc(C(N)=O)n(C([NH-])=O)c3c2)CC1 (protonated)
CN1CCN(CCc2ccc3cc(C(N)=O)n(C([NH-])=O)c3c2)CC1 (3D coordinates assigned)
CN1CCN(CCc2ccc3cc(C(N)=O)n(C([NH-])=O)c3c2)CC1 (nonaromatic ring conformer: 95.04449481286711 kcal/mol)

>  <smiles>  (57) 
CN1CCN(CCc2ccc3cc(C(N)=O)n(C(N)=O)c3c2)CC1

>  <score_type>  (57) 
oracle

>  <origin>  (57) 
adg

>  <m_score__min__energy>  (57) 
-9.3900000000000006

>  <m_primary>  (57) 
energy

$$$$
57:0
     RDKit          3D

 39 41  0  0  0  0  0  0  0  0999 V2000
   -3.8650   25.2620  -30.6820 N   0  0  0  0  0  0  0  0  0  0  0  0
   -5.2570   25.1520  -30.3900 C   0  0  0  0  0  0  0  0  0  0  0  0
   -5.8300   26.0780  -29.7590 O   0  0  0  0  0  0  0  0  0  0  0  0
   -6.0170   23.9750  -30.8610 C   0  0  0  0  0  0  0  0  0  0  0  0
   -7.3760   24.0070  -31.1650 C   0  0  0  0  0  0  0  0  0  0  0  0
   -7.7140   22.7060  -31.4620 C   0  0  0  0  0  0  0  0  0  0  0  0
   -8.9410   22.1590  -31.8290 C   0  0  0  0  0  0  0  0  0  0  0  0
   -8.9960   20.7790  -32.0850 C   0  0  0  0  0  0  0  0  0  0  0  0
   -7.8300   19.9790  -31.9850 C   0  0  0  0  0  0  0  0  0  0  0  0
   -7.9090   18.4970  -32.2280 C   0  0  0  0  0  0  0  0  0  0  0  0
   -6.6690   18.0210  -32.9320 C   0  0  0  0  0  0  0  0  0  0  0  0
   -6.1870   18.7090  -34.0560 C   0  0  0  0  0  0  0  0  0  0  0  0
   -5.0670   18.2350  -34.7440 C   0  0  0  0  0  0  0  0  0  0  0  0
   -4.4210   17.0730  -34.3170 C   0  0  0  0  0  0  0  0  0  0  0  0
   -4.8790   16.3780  -33.1850 C   0  0  0  0  0  0  0  0  0  0  0  0
   -4.2200   15.0910  -32.7580 C   0  0  0  0  0  0  0  0  0  0  0  0
   -4.6900   14.6900  -31.5190 F   0  0  0  0  0  0  0  0  0  0  0  0
   -4.5020   14.1060  -33.6870 F   0  0  0  0  0  0  0  0  0  0  0  0
   -2.8470   15.2470  -32.6690 F   0  0  0  0  0  0  0  0  0  0  0  0
   -6.0230   16.8460  -32.5130 C   0  0  0  0  0  0  0  0  0  0  0  0
   -6.6060   20.5690  -31.6010 C   0  0  0  0  0  0  0  0  0  0  0  0
   -6.5840   21.9420  -31.3380 C   0  0  0  0  0  0  0  0  0  0  0  0
   -5.5330   22.7060  -30.9730 N   0  0  0  0  0  0  0  0  0  0  0  0
   -4.1790   22.2580  -30.8010 C   0  0  0  0  0  0  0  0  0  0  0  0
   -3.3420   22.8480  -29.8070 N   0  0  0  0  0  0  0  0  0  0  0  0
   -3.7130   21.3610  -31.5530 O   0  0  0  0  0  0  0  0  0  0  0  0
   -3.4990   26.0500  -31.2590 H   0  0  0  0  0  0  0  0  0  0  0  0
   -8.0384   24.8852  -31.1673 H   0  0  0  0  0  0  0  0  0  0  0  0
   -9.8392   22.7881  -31.9157 H   0  0  0  0  0  0  0  0  0  0  0  0
   -9.9529   20.3147  -32.3657 H   0  0  0  0  0  0  0  0  0  0  0  0
   -8.0031   17.9750  -31.2643 H   0  0  0  0  0  0  0  0  0  0  0  0
   -8.7849   18.2821  -32.8578 H   0  0  0  0  0  0  0  0  0  0  0  0
   -6.6926   19.6246  -34.3967 H   0  0  0  0  0  0  0  0  0  0  0  0
   -4.6932   18.7786  -35.6242 H   0  0  0  0  0  0  0  0  0  0  0  0
   -3.5473   16.6990  -34.8708 H   0  0  0  0  0  0  0  0  0  0  0  0
   -6.4154   16.2864  -31.6511 H   0  0  0  0  0  0  0  0  0  0  0  0
   -5.6922   19.9633  -31.5110 H   0  0  0  0  0  0  0  0  0  0  0  0
   -3.6850   23.6490  -29.2320 H   0  0  0  0  0  0  0  0  0  0  0  0
   -2.3630   22.5110  -29.6730 H   0  0  0  0  0  0  0  0  0  0  0  0
  1  2  1  0
  2  3  2  0
  2  4  1  0
  4  5  2  0
  5  6  1  0
  6  7  2  0
  7  8  1  0
  8  9  2  0
  9 10  1  0
 10 11  1  0
 11 12  2  0
 12 13  1  0
 13 14  2  0
 14 15  1  0
 15 16  1  0
 16 17  1  0
 16 18  1  0
 16 19  1  0
 15 20  2  0
  9 21  1  0
 21 22  2  0
 22 23  1  0
 23 24  1  0
 24 25  1  0
 24 26  2  0
 23  4  1  0
 22  6  1  0
 20 11  1  0
  1 27  1  0
  5 28  1  0
  7 29  1  0
  8 30  1  0
 10 31  1  0
 10 32  1  0
 12 33  1  0
 13 34  1  0
 14 35  1  0
 20 36  1  0
 21 37  1  0
 25 38  1  0
 25 39  1  0
M  CHG  1   1  -1
M  END
>  <UniqueID>  (58) 
57

>  <SMILES>  (58) 
[NH-]C(=O)c1cc2ccc(Cc3cccc(C(F)(F)F)c3)cc2n1C(N)=O

>  <Energy>  (58) 
78.47325430024263

>  <Genealogy>  (58) 
[NH-]C(=O)c1cc2ccc(Cc3cccc(C(F)(F)F)c3)cc2n1C(N)=O (protonated)
[NH-]C(=O)c1cc2ccc(Cc3cccc(C(F)(F)F)c3)cc2n1C(N)=O (3D coordinates assigned)
[NH-]C(=O)c1cc2ccc(Cc3cccc(C(F)(F)F)c3)cc2n1C(N)=O (optimized conformer: 78.47325430024263 kcal/mol)

>  <smiles>  (58) 
NC(=O)c1cc2ccc(Cc3cccc(C(F)(F)F)c3)cc2n1C(N)=O

>  <score_type>  (58) 
oracle

>  <origin>  (58) 
adg

>  <m_score__min__energy>  (58) 
-11.74

>  <m_primary>  (58) 
energy

$$$$
58:0
     RDKit          3D

 75 79  0  0  0  0  0  0  0  0999 V2000
   -7.2310   22.5030  -30.3110 C   0  0  0  0  0  0  0  0  0  0  0  0
   -6.2600   23.5980  -30.7830 C   0  0  0  0  0  0  0  0  0  0  0  0
   -6.6090   24.9170  -30.0660 C   0  0  0  0  0  0  0  0  0  0  0  0
   -6.3970   23.7570  -32.3090 C   0  0  0  0  0  0  0  0  0  0  0  0
   -4.9370   23.1690  -30.4310 O   0  0  0  0  0  0  0  0  0  0  0  0
   -3.7790   23.9630  -30.4190 C   0  0  0  0  0  0  0  0  0  0  0  0
   -3.8190   25.1690  -30.7890 O   0  0  0  0  0  0  0  0  0  0  0  0
   -2.5390   23.4000  -29.9560 N   0  0  0  0  0  0  0  0  0  0  0  0
   -1.6240   23.9720  -29.1220 C   0  0  0  0  0  0  0  0  0  0  0  0
   -1.7850   25.2520  -28.4000 C   0  0  0  0  0  0  0  0  0  0  0  0
   -1.2460   26.4490  -28.9550 N   0  0  0  0  0  0  0  0  0  0  0  0
   -2.3650   25.2940  -27.2820 O   0  0  0  0  0  0  0  0  0  0  0  0
   -0.5170   23.1430  -28.9670 C   0  0  0  0  0  0  0  0  0  0  0  0
   -0.7830   22.0310  -29.7310 C   0  0  0  0  0  0  0  0  0  0  0  0
   -0.0240   20.8850  -29.9370 C   0  0  0  0  0  0  0  0  0  0  0  0
   -0.5350   19.9000  -30.7960 C   0  0  0  0  0  0  0  0  0  0  0  0
   -1.7880   20.0800  -31.4450 C   0  0  0  0  0  0  0  0  0  0  0  0
   -2.3720   19.0130  -32.3560 C   0  0  1  0  0  0  0  0  0  0  0  0
   -3.8910   18.9820  -32.3970 C   0  0  0  0  0  0  0  0  0  0  0  0
   -4.2530   18.2860  -33.6440 N   0  0  0  0  0  0  0  0  0  0  0  0
   -5.5780   18.6920  -34.1960 C   0  0  0  0  0  0  0  0  0  0  0  0
   -6.4900   17.4560  -34.4030 C   0  0  0  0  0  0  0  0  0  0  0  0
   -6.7520   16.6950  -33.0860 C   0  0  0  0  0  0  0  0  0  0  0  0
   -6.6830   17.5930  -31.8360 C   0  0  0  0  0  0  0  0  0  0  0  0
   -7.1520   19.0220  -32.1380 C   0  0  0  0  0  0  0  0  0  0  0  0
   -6.3350   19.6930  -33.2670 C   0  0  0  0  0  0  0  0  0  0  0  0
   -3.1370   18.5270  -34.5860 C   0  0  0  0  0  0  0  0  0  0  0  0
   -1.9950   19.1980  -33.8190 C   0  0  2  0  0  0  0  0  0  0  0  0
   -0.6370   18.6240  -34.1730 C   0  0  0  0  0  0  0  0  0  0  0  0
   -0.5480   17.7030  -35.0290 O   0  0  0  0  0  0  0  0  0  0  0  0
    0.5720   19.1530  -33.6100 N   0  0  0  0  0  0  0  0  0  0  0  0
    1.1740   20.4340  -33.9750 C   0  0  0  0  0  0  0  0  0  0  0  0
    1.5640   20.4970  -35.4520 C   0  0  0  0  0  0  0  0  0  0  0  0
    0.5150   21.5780  -35.6730 C   0  0  0  0  0  0  0  0  0  0  0  0
    1.0660   22.8010  -36.0200 F   0  0  0  0  0  0  0  0  0  0  0  0
   -0.4980   21.1810  -36.5290 F   0  0  0  0  0  0  0  0  0  0  0  0
    0.1150   21.5060  -34.2040 C   0  0  0  0  0  0  0  0  0  0  0  0
   -2.5310   21.2570  -31.2000 C   0  0  0  0  0  0  0  0  0  0  0  0
   -2.0060   22.2120  -30.3220 C   0  0  0  0  0  0  0  0  0  0  0  0
   -7.2513   22.4801  -29.2114 H   0  0  0  0  0  0  0  0  0  0  0  0
   -8.2401   22.7187  -30.6920 H   0  0  0  0  0  0  0  0  0  0  0  0
   -6.8961   21.5269  -30.6920 H   0  0  0  0  0  0  0  0  0  0  0  0
   -6.5686   24.7644  -28.9774 H   0  0  0  0  0  0  0  0  0  0  0  0
   -5.8855   25.6937  -30.3545 H   0  0  0  0  0  0  0  0  0  0  0  0
   -7.6220   25.2342  -30.3545 H   0  0  0  0  0  0  0  0  0  0  0  0
   -7.1003   24.5732  -32.5309 H   0  0  0  0  0  0  0  0  0  0  0  0
   -5.4139   23.9919  -32.7429 H   0  0  0  0  0  0  0  0  0  0  0  0
   -6.7747   22.8194  -32.7429 H   0  0  0  0  0  0  0  0  0  0  0  0
   -0.9380   26.4900  -29.9520 H   0  0  0  0  0  0  0  0  0  0  0  0
    0.3808   23.3363  -28.3615 H   0  0  0  0  0  0  0  0  0  0  0  0
    0.9491   20.7539  -29.4411 H   0  0  0  0  0  0  0  0  0  0  0  0
    0.0398   18.9783  -30.9694 H   0  0  0  0  0  0  0  0  0  0  0  0
   -1.9532   18.0974  -31.9129 H   0  0  0  0  0  0  0  0  0  0  0  0
   -4.2851   18.4361  -31.5271 H   0  0  0  0  0  0  0  0  0  0  0  0
   -4.3142   19.9969  -32.3663 H   0  0  0  0  0  0  0  0  0  0  0  0
   -5.3646   19.1864  -35.1552 H   0  0  0  0  0  0  0  0  0  0  0  0
   -7.4530   17.7918  -34.8152 H   0  0  0  0  0  0  0  0  0  0  0  0
   -5.9759   16.7697  -35.0920 H   0  0  0  0  0  0  0  0  0  0  0  0
   -7.7544   16.2448  -33.1370 H   0  0  0  0  0  0  0  0  0  0  0  0
   -5.9605   15.9377  -32.9857 H   0  0  0  0  0  0  0  0  0  0  0  0
   -7.3262   17.1646  -31.0532 H   0  0  0  0  0  0  0  0  0  0  0  0
   -5.6354   17.6387  -31.5038 H   0  0  0  0  0  0  0  0  0  0  0  0
   -8.2090   18.9888  -32.4407 H   0  0  0  0  0  0  0  0  0  0  0  0
   -7.0086   19.6184  -31.2249 H   0  0  0  0  0  0  0  0  0  0  0  0
   -7.0253   20.2836  -33.8872 H   0  0  0  0  0  0  0  0  0  0  0  0
   -5.5670   20.3088  -32.7761 H   0  0  0  0  0  0  0  0  0  0  0  0
   -2.7915   17.5706  -35.0054 H   0  0  0  0  0  0  0  0  0  0  0  0
   -3.4708   19.1744  -35.4103 H   0  0  0  0  0  0  0  0  0  0  0  0
   -1.8837   20.2618  -34.0758 H   0  0  0  0  0  0  0  0  0  0  0  0
    1.9405   20.5527  -33.1950 H   0  0  0  0  0  0  0  0  0  0  0  0
    2.5974   20.8287  -35.6313 H   0  0  0  0  0  0  0  0  0  0  0  0
    1.5684   19.5865  -36.0693 H   0  0  0  0  0  0  0  0  0  0  0  0
    0.2885   22.4369  -33.6442 H   0  0  0  0  0  0  0  0  0  0  0  0
   -0.9320   21.3274  -33.9179 H   0  0  0  0  0  0  0  0  0  0  0  0
   -3.5026   21.4192  -31.6897 H   0  0  0  0  0  0  0  0  0  0  0  0
  1  2  1  0
  2  3  1  0
  2  4  1  0
  2  5  1  0
  5  6  1  0
  6  7  2  0
  6  8  1  0
  8  9  1  0
  9 10  1  0
 10 11  1  0
 10 12  2  0
  9 13  2  0
 13 14  1  0
 14 15  2  0
 15 16  1  0
 16 17  2  0
 17 18  1  0
 18 19  1  0
 19 20  1  0
 20 21  1  0
 21 22  1  0
 22 23  1  0
 23 24  1  0
 24 25  1  0
 25 26  1  0
 20 27  1  0
 27 28  1  0
 28 29  1  0
 29 30  2  0
 29 31  1  0
 31 32  1  0
 32 33  1  0
 33 34  1  0
 34 35  1  0
 34 36  1  0
 34 37  1  0
 17 38  1  0
 38 39  2  0
 39  8  1  0
 39 14  1  0
 28 18  1  0
 37 32  1  0
 26 21  1  0
  1 40  1  0
  1 41  1  0
  1 42  1  0
  3 43  1  0
  3 44  1  0
  3 45  1  0
  4 46  1  0
  4 47  1  0
  4 48  1  0
 11 49  1  0
 13 50  1  0
 15 51  1  0
 16 52  1  0
 18 53  1  1
 19 54  1  0
 19 55  1  0
 21 56  1  0
 22 57  1  0
 22 58  1  0
 23 59  1  0
 23 60  1  0
 24 61  1  0
 24 62  1  0
 25 63  1  0
 25 64  1  0
 26 65  1  0
 26 66  1  0
 27 67  1  0
 27 68  1  0
 28 69  1  6
 32 70  1  0
 33 71  1  0
 33 72  1  0
 37 73  1  0
 37 74  1  0
 38 75  1  0
M  CHG  2  11  -1  31  -1
M  END
>  <UniqueID>  (59) 
58

>  <SMILES>  (59) 
CC(C)(C)OC(=O)n1c(C([NH-])=O)cc2ccc([C@H]3CN(C4CCCCC4)C[C@@H]3C(=O)[N-]C3CC(F)(F)C3)cc21

>  <Energy>  (59) 
182.38829952557137

>  <Genealogy>  (59) 
CC(C)(C)OC(=O)n1c(C([NH-])=O)cc2ccc([C@H]3CN(C4CCCCC4)C[C@@H]3C(=O)[N-]C3CC(F)(F)C3)cc21 (protonated)
CC(C)(C)OC(=O)n1c(C([NH-])=O)cc2ccc([C@H]3CN(C4CCCCC4)C[C@@H]3C(=O)[N-]C3CC(F)(F)C3)cc21 (3D coordinates assigned)
CC(C)(C)OC(=O)n1c(C([NH-])=O)cc2ccc([C@H]3CN(C4CCCCC4)C[C@@H]3C(=O)[N-]C3CC(F)(F)C3)cc21 (nonaromatic ring conformer: 182.38829952557137 kcal/mol)

>  <smiles>  (59) 
CC(C)(C)OC(=O)n1c(C(N)=O)cc2ccc([C@H]3CN(C4CCCCC4)C[C@@H]3C(=O)NC3CC(F)(F)C3)cc21

>  <score_type>  (59) 
oracle

>  <origin>  (59) 
adg

>  <m_score__min__energy>  (59) 
-12.91

>  <m_primary>  (59) 
energy

$$$$
59:0
     RDKit          3D

 37 38  0  0  0  0  0  0  0  0999 V2000
   -1.8810   24.2730  -28.8140 C   0  0  0  0  0  0  0  0  0  0  0  0
   -2.4220   23.0540  -29.5840 C   0  0  0  0  0  0  0  0  0  0  0  0
   -3.4930   22.3190  -28.7560 C   0  0  0  0  0  0  0  0  0  0  0  0
   -1.2620   22.0870  -29.8640 C   0  0  0  0  0  0  0  0  0  0  0  0
   -2.9540   23.4540  -30.8550 O   0  0  0  0  0  0  0  0  0  0  0  0
   -3.7560   22.6780  -31.7050 C   0  0  0  0  0  0  0  0  0  0  0  0
   -3.2400   21.9680  -32.6100 O   0  0  0  0  0  0  0  0  0  0  0  0
   -5.1840   22.7070  -31.5500 N   0  0  0  0  0  0  0  0  0  0  0  0
   -5.9300   23.6190  -30.8650 C   0  0  0  0  0  0  0  0  0  0  0  0
   -5.4160   24.8640  -30.2520 C   0  0  0  0  0  0  0  0  0  0  0  0
   -5.8620   25.2790  -28.9590 N   0  0  0  0  0  0  0  0  0  0  0  0
   -4.6000   25.5890  -30.8800 O   0  0  0  0  0  0  0  0  0  0  0  0
   -7.2790   23.2690  -30.9000 C   0  0  0  0  0  0  0  0  0  0  0  0
   -7.3360   22.1070  -31.6350 C   0  0  0  0  0  0  0  0  0  0  0  0
   -8.4300   21.3160  -31.9760 C   0  0  0  0  0  0  0  0  0  0  0  0
   -8.1920   20.1510  -32.7250 C   0  0  0  0  0  0  0  0  0  0  0  0
   -6.8760   19.7990  -33.1090 C   0  0  0  0  0  0  0  0  0  0  0  0
   -6.6460   18.6040  -33.8600 N   0  0  0  0  0  0  0  0  0  0  0  0
   -5.7910   20.6240  -32.7470 C   0  0  0  0  0  0  0  0  0  0  0  0
   -6.0580   21.7890  -32.0160 C   0  0  0  0  0  0  0  0  0  0  0  0
   -1.9625   24.0893  -27.7325 H   0  0  0  0  0  0  0  0  0  0  0  0
   -0.8261   24.4359  -29.0797 H   0  0  0  0  0  0  0  0  0  0  0  0
   -2.4679   25.1646  -29.0797 H   0  0  0  0  0  0  0  0  0  0  0  0
   -3.2883   22.4595  -27.6844 H   0  0  0  0  0  0  0  0  0  0  0  0
   -4.4860   22.7269  -28.9962 H   0  0  0  0  0  0  0  0  0  0  0  0
   -3.4695   21.2458  -28.9962 H   0  0  0  0  0  0  0  0  0  0  0  0
   -0.8399   21.7351  -28.9111 H   0  0  0  0  0  0  0  0  0  0  0  0
   -1.6328   21.2268  -30.4407 H   0  0  0  0  0  0  0  0  0  0  0  0
   -0.4826   22.6066  -30.4407 H   0  0  0  0  0  0  0  0  0  0  0  0
   -5.5220   26.1780  -28.5530 H   0  0  0  0  0  0  0  0  0  0  0  0
   -6.4940   24.6790  -28.3840 H   0  0  0  0  0  0  0  0  0  0  0  0
   -8.1196   23.8075  -30.4380 H   0  0  0  0  0  0  0  0  0  0  0  0
   -9.4489   21.5944  -31.6687 H   0  0  0  0  0  0  0  0  0  0  0  0
   -9.0355   19.5073  -33.0152 H   0  0  0  0  0  0  0  0  0  0  0  0
   -6.2410   17.7560  -33.4040 H   0  0  0  0  0  0  0  0  0  0  0  0
   -6.8810   18.5590  -34.8760 H   0  0  0  0  0  0  0  0  0  0  0  0
   -4.7618   20.3597  -33.0312 H   0  0  0  0  0  0  0  0  0  0  0  0
  1  2  1  0
  2  3  1  0
  2  4  1  0
  2  5  1  0
  5  6  1  0
  6  7  2  0
  6  8  1  0
  8  9  1  0
  9 10  1  0
 10 11  1  0
 10 12  2  0
  9 13  2  0
 13 14  1  0
 14 15  2  0
 15 16  1  0
 16 17  2  0
 17 18  1  0
 17 19  1  0
 19 20  2  0
 20  8  1  0
 20 14  1  0
  1 21  1  0
  1 22  1  0
  1 23  1  0
  3 24  1  0
  3 25  1  0
  3 26  1  0
  4 27  1  0
  4 28  1  0
  4 29  1  0
 11 30  1  0
 11 31  1  0
 13 32  1  0
 15 33  1  0
 16 34  1  0
 18 35  1  0
 18 36  1  0
 19 37  1  0
M  END
>  <UniqueID>  (60) 
59

>  <SMILES>  (60) 
CC(C)(C)OC(=O)n1c(C(N)=O)cc2ccc(N)cc21

>  <Energy>  (60) 
69.78631420584166

>  <Genealogy>  (60) 
CC(C)(C)OC(=O)n1c(C(N)=O)cc2ccc(N)cc21 (3D coordinates assigned)
CC(C)(C)OC(=O)n1c(C(N)=O)cc2ccc(N)cc21 (optimized conformer: 69.78631420584166 kcal/mol)

>  <smiles>  (60) 
CC(C)(C)OC(=O)n1c(C(N)=O)cc2ccc(N)cc21

>  <score_type>  (60) 
oracle

>  <origin>  (60) 
adg

>  <m_score__min__energy>  (60) 
-8.0299999999999994

>  <m_primary>  (60) 
energy

$$$$
60:0
     RDKit          3D

 52 54  0  0  0  0  0  0  0  0999 V2000
   -6.8080   25.0990  -29.8990 C   0  0  0  0  0  0  0  0  0  0  0  0
   -6.3660   23.7170  -30.4050 C   0  0  0  0  0  0  0  0  0  0  0  0
   -6.3200   23.7400  -31.9450 C   0  0  0  0  0  0  0  0  0  0  0  0
   -7.3730   22.6610  -29.9080 C   0  0  0  0  0  0  0  0  0  0  0  0
   -5.0600   23.4670  -29.8660 O   0  0  0  0  0  0  0  0  0  0  0  0
   -3.8420   23.9450  -30.3740 C   0  0  0  0  0  0  0  0  0  0  0  0
   -3.7450   25.1210  -30.8180 O   0  0  0  0  0  0  0  0  0  0  0  0
   -2.6900   23.0900  -30.3650 N   0  0  0  0  0  0  0  0  0  0  0  0
   -1.4590   23.3600  -29.8440 C   0  0  0  0  0  0  0  0  0  0  0  0
   -1.1040   24.5330  -29.0200 C   0  0  0  0  0  0  0  0  0  0  0  0
   -1.9550   25.6740  -28.9660 N   0  0  0  0  0  0  0  0  0  0  0  0
   -0.0610   24.5070  -28.3130 O   0  0  0  0  0  0  0  0  0  0  0  0
   -0.5700   22.3240  -30.1260 C   0  0  0  0  0  0  0  0  0  0  0  0
   -1.3020   21.3990  -30.8330 C   0  0  0  0  0  0  0  0  0  0  0  0
   -0.9140   20.1780  -31.3760 C   0  0  0  0  0  0  0  0  0  0  0  0
   -1.8720   19.4380  -32.0870 C   0  0  0  0  0  0  0  0  0  0  0  0
   -3.1940   19.9300  -32.2540 C   0  0  0  0  0  0  0  0  0  0  0  0
   -4.1970   19.1450  -33.0180 C   0  0  0  0  0  0  0  0  0  0  0  0
   -3.8410   18.5120  -34.2220 C   0  0  0  0  0  0  0  0  0  0  0  0
   -4.7870   17.7780  -34.9400 C   0  0  0  0  0  0  0  0  0  0  0  0
   -4.4330   17.1780  -36.1040 F   0  0  0  0  0  0  0  0  0  0  0  0
   -6.0950   17.6620  -34.4670 C   0  0  0  0  0  0  0  0  0  0  0  0
   -6.4700   18.2830  -33.2600 C   0  0  0  0  0  0  0  0  0  0  0  0
   -7.7690   18.1980  -32.7330 O   0  0  0  0  0  0  0  0  0  0  0  0
   -8.2170   18.8050  -31.5210 C   0  0  0  0  0  0  0  0  0  0  0  0
   -8.9360   20.1280  -31.7990 C   0  0  0  0  0  0  0  0  0  0  0  0
   -9.0680   20.3330  -33.1790 O   0  0  0  0  0  0  0  0  0  0  0  0
   -5.5170   19.0230  -32.5490 C   0  0  0  0  0  0  0  0  0  0  0  0
   -3.5470   21.1790  -31.6870 C   0  0  0  0  0  0  0  0  0  0  0  0
   -2.5780   21.8830  -30.9650 C   0  0  0  0  0  0  0  0  0  0  0  0
   -6.8094   25.1035  -28.7990 H   0  0  0  0  0  0  0  0  0  0  0  0
   -6.1100   25.8650  -30.2679 H   0  0  0  0  0  0  0  0  0  0  0  0
   -7.8209   25.3178  -30.2679 H   0  0  0  0  0  0  0  0  0  0  0  0
   -5.3820   24.2090  -32.2768 H   0  0  0  0  0  0  0  0  0  0  0  0
   -6.3709   22.7104  -32.3288 H   0  0  0  0  0  0  0  0  0  0  0  0
   -7.1743   24.3170  -32.3288 H   0  0  0  0  0  0  0  0  0  0  0  0
   -7.3818   22.6518  -28.8081 H   0  0  0  0  0  0  0  0  0  0  0  0
   -8.3779   22.9086  -30.2806 H   0  0  0  0  0  0  0  0  0  0  0  0
   -7.0779   21.6690  -30.2806 H   0  0  0  0  0  0  0  0  0  0  0  0
   -2.9320   25.6350  -29.3310 H   0  0  0  0  0  0  0  0  0  0  0  0
    0.4911   22.2600  -29.8432 H   0  0  0  0  0  0  0  0  0  0  0  0
    0.1129   19.8037  -31.2518 H   0  0  0  0  0  0  0  0  0  0  0  0
   -1.5955   18.4654  -32.5200 H   0  0  0  0  0  0  0  0  0  0  0  0
   -2.8115   18.5956  -34.6003 H   0  0  0  0  0  0  0  0  0  0  0  0
   -6.8354   17.0836  -35.0390 H   0  0  0  0  0  0  0  0  0  0  0  0
   -8.9102   18.1198  -31.0111 H   0  0  0  0  0  0  0  0  0  0  0  0
   -7.3406   19.0102  -30.8887 H   0  0  0  0  0  0  0  0  0  0  0  0
   -9.9351   20.1008  -31.3396 H   0  0  0  0  0  0  0  0  0  0  0  0
   -8.3450   20.9514  -31.3714 H   0  0  0  0  0  0  0  0  0  0  0  0
   -8.8140   19.4800  -33.6190 H   0  0  0  0  0  0  0  0  0  0  0  0
   -5.8055   19.5164  -31.6092 H   0  0  0  0  0  0  0  0  0  0  0  0
   -4.5611   21.5864  -31.8118 H   0  0  0  0  0  0  0  0  0  0  0  0
  1  2  1  0
  2  3  1  0
  2  4  1  0
  2  5  1  0
  5  6  1  0
  6  7  2  0
  6  8  1  0
  8  9  1  0
  9 10  1  0
 10 11  1  0
 10 12  2  0
  9 13  2  0
 13 14  1  0
 14 15  2  0
 15 16  1  0
 16 17  2  0
 17 18  1  0
 18 19  2  0
 19 20  1  0
 20 21  1  0
 20 22  2  0
 22 23  1  0
 23 24  1  0
 24 25  1  0
 25 26  1  0
 26 27  1  0
 23 28  2  0
 17 29  1  0
 29 30  2  0
 30  8  1  0
 30 14  1  0
 28 18  1  0
  1 31  1  0
  1 32  1  0
  1 33  1  0
  3 34  1  0
  3 35  1  0
  3 36  1  0
  4 37  1  0
  4 38  1  0
  4 39  1  0
 11 40  1  0
 13 41  1  0
 15 42  1  0
 16 43  1  0
 19 44  1  0
 22 45  1  0
 25 46  1  0
 25 47  1  0
 26 48  1  0
 26 49  1  0
 27 50  1  0
 28 51  1  0
 29 52  1  0
M  CHG  1  11  -1
M  END
>  <UniqueID>  (61) 
60

>  <SMILES>  (61) 
CC(C)(C)OC(=O)n1c(C([NH-])=O)cc2ccc(-c3cc(F)cc(OCCO)c3)cc21

>  <Energy>  (61) 
91.7479427295104

>  <Genealogy>  (61) 
CC(C)(C)OC(=O)n1c(C([NH-])=O)cc2ccc(-c3cc(F)cc(OCCO)c3)cc21 (protonated)
CC(C)(C)OC(=O)n1c(C([NH-])=O)cc2ccc(-c3cc(F)cc(OCCO)c3)cc21 (3D coordinates assigned)
CC(C)(C)OC(=O)n1c(C([NH-])=O)cc2ccc(-c3cc(F)cc(OCCO)c3)cc21 (optimized conformer: 91.7479427295104 kcal/mol)

>  <smiles>  (61) 
CC(C)(C)OC(=O)n1c(C(N)=O)cc2ccc(-c3cc(F)cc(OCCO)c3)cc21

>  <score_type>  (61) 
oracle

>  <origin>  (61) 
adg

>  <m_score__min__energy>  (61) 
-11.42

>  <m_primary>  (61) 
energy

$$$$
61:0
     RDKit          3D

 39 41  0  0  0  0  0  0  0  0999 V2000
   -3.9540   25.3880  -30.8400 N   0  0  0  0  0  0  0  0  0  0  0  0
   -4.0370   24.0590  -30.3320 C   0  0  0  0  0  0  0  0  0  0  0  0
   -5.0910   23.6800  -29.7540 O   0  0  0  0  0  0  0  0  0  0  0  0
   -2.9310   23.1520  -30.4890 N   0  0  0  0  0  0  0  0  0  0  0  0
   -1.6660   23.2950  -30.0030 C   0  0  0  0  0  0  0  0  0  0  0  0
   -1.2150   24.3340  -29.0550 C   0  0  0  0  0  0  0  0  0  0  0  0
   -2.1060   25.3490  -28.5930 N   0  0  0  0  0  0  0  0  0  0  0  0
   -0.0400   24.2900  -28.6030 O   0  0  0  0  0  0  0  0  0  0  0  0
   -0.8390   22.2780  -30.4730 C   0  0  0  0  0  0  0  0  0  0  0  0
   -1.6460   21.4890  -31.2610 C   0  0  0  0  0  0  0  0  0  0  0  0
   -1.3410   20.3390  -31.9810 C   0  0  0  0  0  0  0  0  0  0  0  0
   -2.3660   19.7420  -32.7320 C   0  0  0  0  0  0  0  0  0  0  0  0
   -3.6650   20.3090  -32.7610 C   0  0  0  0  0  0  0  0  0  0  0  0
   -4.7680   19.6360  -33.5360 C   0  0  0  0  0  0  0  0  0  0  0  0
   -5.7370   18.8880  -32.6100 C   0  0  0  0  0  0  0  0  0  0  0  0
   -7.0340   19.6350  -32.4340 C   0  0  0  0  0  0  0  0  0  0  0  0
   -8.2600   18.9640  -32.5630 C   0  0  0  0  0  0  0  0  0  0  0  0
   -9.4630   19.6470  -32.3540 C   0  0  0  0  0  0  0  0  0  0  0  0
   -9.4480   21.0000  -32.0050 C   0  0  0  0  0  0  0  0  0  0  0  0
   -8.2310   21.6720  -31.8640 C   0  0  0  0  0  0  0  0  0  0  0  0
   -7.0270   20.9930  -32.0750 C   0  0  0  0  0  0  0  0  0  0  0  0
   -3.9380   21.4750  -32.0130 C   0  0  0  0  0  0  0  0  0  0  0  0
   -2.9030   22.0380  -31.2560 C   0  0  0  0  0  0  0  0  0  0  0  0
   -3.2490   25.6400  -31.5680 H   0  0  0  0  0  0  0  0  0  0  0  0
   -1.7600   26.0970  -27.9510 H   0  0  0  0  0  0  0  0  0  0  0  0
   -3.1250   25.3170  -28.8180 H   0  0  0  0  0  0  0  0  0  0  0  0
    0.2307   22.1356  -30.2600 H   0  0  0  0  0  0  0  0  0  0  0  0
   -0.3281   19.9104  -31.9627 H   0  0  0  0  0  0  0  0  0  0  0  0
   -2.1591   18.8252  -33.3036 H   0  0  0  0  0  0  0  0  0  0  0  0
   -5.3277   20.3997  -34.0958 H   0  0  0  0  0  0  0  0  0  0  0  0
   -4.3109   18.9038  -34.2179 H   0  0  0  0  0  0  0  0  0  0  0  0
   -5.9515   17.8998  -33.0429 H   0  0  0  0  0  0  0  0  0  0  0  0
   -5.2611   18.7931  -31.6228 H   0  0  0  0  0  0  0  0  0  0  0  0
   -8.2751   17.8969  -32.8295 H   0  0  0  0  0  0  0  0  0  0  0  0
  -10.4214   19.1185  -32.4645 H   0  0  0  0  0  0  0  0  0  0  0  0
  -10.3944   21.5362  -31.8412 H   0  0  0  0  0  0  0  0  0  0  0  0
   -8.2201   22.7364  -31.5867 H   0  0  0  0  0  0  0  0  0  0  0  0
   -6.0708   21.5243  -31.9594 H   0  0  0  0  0  0  0  0  0  0  0  0
   -4.9394   21.9301  -32.0246 H   0  0  0  0  0  0  0  0  0  0  0  0
  1  2  1  0
  2  3  2  0
  2  4  1  0
  4  5  1  0
  5  6  1  0
  6  7  1  0
  6  8  2  0
  5  9  2  0
  9 10  1  0
 10 11  2  0
 11 12  1  0
 12 13  2  0
 13 14  1  0
 14 15  1  0
 15 16  1  0
 16 17  2  0
 17 18  1  0
 18 19  2  0
 19 20  1  0
 20 21  2  0
 13 22  1  0
 22 23  2  0
 23  4  1  0
 23 10  1  0
 21 16  1  0
  1 24  1  0
  7 25  1  0
  7 26  1  0
  9 27  1  0
 11 28  1  0
 12 29  1  0
 14 30  1  0
 14 31  1  0
 15 32  1  0
 15 33  1  0
 17 34  1  0
 18 35  1  0
 19 36  1  0
 20 37  1  0
 21 38  1  0
 22 39  1  0
M  CHG  1   1  -1
M  END
>  <UniqueID>  (62) 
61

>  <SMILES>  (62) 
[NH-]C(=O)n1c(C(N)=O)cc2ccc(CCc3ccccc3)cc21

>  <Energy>  (62) 
77.00695217790941

>  <Genealogy>  (62) 
[NH-]C(=O)n1c(C(N)=O)cc2ccc(CCc3ccccc3)cc21 (protonated)
[NH-]C(=O)n1c(C(N)=O)cc2ccc(CCc3ccccc3)cc21 (3D coordinates assigned)
[NH-]C(=O)n1c(C(N)=O)cc2ccc(CCc3ccccc3)cc21 (optimized conformer: 77.00695217790941 kcal/mol)

>  <smiles>  (62) 
NC(=O)c1cc2ccc(CCc3ccccc3)cc2n1C(N)=O

>  <score_type>  (62) 
oracle

>  <origin>  (62) 
adg

>  <m_score__min__energy>  (62) 
-9.7599999999999998

>  <m_primary>  (62) 
energy

$$$$
62:0
     RDKit          3D

103111  0  0  0  0  0  0  0  0999 V2000
   -7.6080   24.1480  -30.8540 N   0  0  0  0  0  0  0  0  0  0  0  0
   -8.3190   23.3920  -31.8330 C   0  0  0  0  0  0  0  0  0  0  0  0
   -9.3710   23.8570  -32.3290 O   0  0  0  0  0  0  0  0  0  0  0  0
   -7.9030   22.0180  -32.1430 C   0  0  0  0  0  0  0  0  0  0  0  0
   -8.7740   20.9370  -32.1420 C   0  0  0  0  0  0  0  0  0  0  0  0
   -7.9750   19.8450  -32.3920 C   0  0  0  0  0  0  0  0  0  0  0  0
   -8.3070   18.4970  -32.4410 C   0  0  0  0  0  0  0  0  0  0  0  0
   -7.2690   17.5680  -32.6020 C   0  0  0  0  0  0  0  0  0  0  0  0
   -5.9130   17.9830  -32.6710 C   0  0  0  0  0  0  0  0  0  0  0  0
   -4.8230   16.9630  -32.6750 C   0  0  0  0  0  0  0  0  0  0  0  0
   -3.5010   17.3270  -32.9800 C   0  0  0  0  0  0  0  0  0  0  0  0
   -2.5070   16.3980  -32.9870 N   0  0  0  0  0  0  0  0  0  0  0  0
   -2.7640   15.0900  -32.7150 C   0  0  0  0  0  0  0  0  0  0  0  0
   -1.7000   14.1120  -32.7800 N   0  0  0  0  0  0  0  0  0  0  0  0
   -1.7540   12.8840  -31.9900 C   0  0  0  0  0  0  0  0  0  0  0  0
   -0.3900   12.5270  -31.3720 C   0  0  0  0  0  0  0  0  0  0  0  0
    0.8300   12.9840  -32.1910 C   0  0  0  0  0  0  0  0  0  0  0  0
    2.0120   11.9990  -32.0680 C   0  0  0  0  0  0  0  0  0  0  0  0
    3.0590   12.5730  -31.1850 N   0  0  0  0  0  0  0  0  0  0  0  0
    3.6660   13.8110  -31.7260 C   0  0  0  0  0  0  0  0  0  0  0  0
    2.7460   15.0310  -31.5720 C   0  0  0  0  0  0  0  0  0  0  0  0
    2.2840   15.1460  -30.1860 N   0  0  0  0  0  0  0  0  0  0  0  0
    2.0780   16.4590  -29.5880 C   0  0  0  0  0  0  0  0  0  0  0  0
    3.1340   17.0930  -28.8890 C   0  0  0  0  0  0  0  0  0  0  0  0
    2.9760   18.3700  -28.3350 C   0  0  0  0  0  0  0  0  0  0  0  0
    1.7380   18.9890  -28.4440 C   0  0  0  0  0  0  0  0  0  0  0  0
    0.6870   18.4010  -29.1110 C   0  0  0  0  0  0  0  0  0  0  0  0
    0.8320   17.1420  -29.7120 C   0  0  0  0  0  0  0  0  0  0  0  0
   -0.5200   19.3000  -29.1260 C   0  0  0  0  0  0  0  0  0  0  0  0
   -0.0370   20.5170  -28.4590 N   0  0  0  0  0  0  0  0  0  0  0  0
   -0.7990   21.7580  -28.2940 C   0  0  1  0  0  0  0  0  0  0  0  0
   -0.1820   22.8900  -29.1360 C   0  0  0  0  0  0  0  0  0  0  0  0
   -0.9660   24.1910  -29.0130 C   0  0  0  0  0  0  0  0  0  0  0  0
   -2.4130   23.9680  -29.3410 C   0  0  0  0  0  0  0  0  0  0  0  0
   -3.1130   24.9310  -29.7370 O   0  0  0  0  0  0  0  0  0  0  0  0
   -3.0150   22.7010  -29.1290 N   0  0  0  0  0  0  0  0  0  0  0  0
   -2.2510   21.5830  -28.6510 C   0  0  0  0  0  0  0  0  0  0  0  0
   -2.8330   20.4970  -28.4240 O   0  0  0  0  0  0  0  0  0  0  0  0
    1.3190   20.3050  -28.0370 C   0  0  0  0  0  0  0  0  0  0  0  0
    2.0330   21.1770  -27.4700 O   0  0  0  0  0  0  0  0  0  0  0  0
    1.7110   13.9350  -29.5740 C   0  0  0  0  0  0  0  0  0  0  0  0
    2.6430   12.7230  -29.7720 C   0  0  0  0  0  0  0  0  0  0  0  0
    0.4480   13.1960  -33.6640 C   0  0  0  0  0  0  0  0  0  0  0  0
   -0.6280   14.2980  -33.7670 C   0  0  0  0  0  0  0  0  0  0  0  0
   -4.0440   14.7190  -32.4260 N   0  0  0  0  0  0  0  0  0  0  0  0
   -5.0680   15.6120  -32.4020 C   0  0  0  0  0  0  0  0  0  0  0  0
   -5.6170   19.3750  -32.6260 C   0  0  0  0  0  0  0  0  0  0  0  0
   -6.6750   20.2800  -32.5150 C   0  0  0  0  0  0  0  0  0  0  0  0
   -6.6230   21.6230  -32.3890 N   0  0  0  0  0  0  0  0  0  0  0  0
   -5.4660   22.4760  -32.4260 C   0  0  0  0  0  0  0  0  0  0  0  0
   -5.5770   23.6800  -32.0730 O   0  0  0  0  0  0  0  0  0  0  0  0
   -4.2240   21.9660  -32.8230 O   0  0  0  0  0  0  0  0  0  0  0  0
   -3.0680   21.9550  -31.9770 C   0  0  0  0  0  0  0  0  0  0  0  0
   -1.9800   21.0560  -32.5280 C   0  0  0  0  0  0  0  0  0  0  0  0
   -0.7220   21.0050  -31.8970 C   0  0  0  0  0  0  0  0  0  0  0  0
    0.2860   20.1770  -32.4080 C   0  0  0  0  0  0  0  0  0  0  0  0
    0.0460   19.3940  -33.5390 C   0  0  0  0  0  0  0  0  0  0  0  0
   -1.1910   19.4550  -34.1810 C   0  0  0  0  0  0  0  0  0  0  0  0
   -2.2120   20.2650  -33.6650 C   0  0  0  0  0  0  0  0  0  0  0  0
   -7.8400   25.1520  -30.6930 H   0  0  0  0  0  0  0  0  0  0  0  0
   -6.8560   23.7140  -30.3080 H   0  0  0  0  0  0  0  0  0  0  0  0
   -9.8616   20.9504  -31.9778 H   0  0  0  0  0  0  0  0  0  0  0  0
   -9.3532   18.1680  -32.3560 H   0  0  0  0  0  0  0  0  0  0  0  0
   -7.5100   16.4973  -32.6763 H   0  0  0  0  0  0  0  0  0  0  0  0
   -3.2666   18.3755  -33.2160 H   0  0  0  0  0  0  0  0  0  0  0  0
   -2.4858   13.0166  -31.1795 H   0  0  0  0  0  0  0  0  0  0  0  0
   -2.0441   12.0634  -32.6626 H   0  0  0  0  0  0  0  0  0  0  0  0
   -0.3309   12.9968  -30.3791 H   0  0  0  0  0  0  0  0  0  0  0  0
   -0.3446   11.4285  -31.3363 H   0  0  0  0  0  0  0  0  0  0  0  0
    1.1625   13.9455  -31.7727 H   0  0  0  0  0  0  0  0  0  0  0  0
    1.6537   11.0510  -31.6402 H   0  0  0  0  0  0  0  0  0  0  0  0
    2.4387   11.8192  -33.0658 H   0  0  0  0  0  0  0  0  0  0  0  0
    4.6057   14.0074  -31.1889 H   0  0  0  0  0  0  0  0  0  0  0  0
    3.8403   13.6565  -32.8011 H   0  0  0  0  0  0  0  0  0  0  0  0
    3.3001   15.9407  -31.8468 H   0  0  0  0  0  0  0  0  0  0  0  0
    1.8742   14.9081  -32.2314 H   0  0  0  0  0  0  0  0  0  0  0  0
    4.0969   16.5727  -28.7789 H   0  0  0  0  0  0  0  0  0  0  0  0
    3.8129   18.8704  -27.8258 H   0  0  0  0  0  0  0  0  0  0  0  0
   -0.0011   16.6891  -30.2695 H   0  0  0  0  0  0  0  0  0  0  0  0
   -0.8397   19.5147  -30.1564 H   0  0  0  0  0  0  0  0  0  0  0  0
   -1.3967   18.8552  -28.6325 H   0  0  0  0  0  0  0  0  0  0  0  0
   -0.7469   22.0286  -27.2291 H   0  0  0  0  0  0  0  0  0  0  0  0
    0.8491   23.0640  -28.7946 H   0  0  0  0  0  0  0  0  0  0  0  0
   -0.2070   22.5788  -30.1908 H   0  0  0  0  0  0  0  0  0  0  0  0
   -0.8826   24.5674  -27.9828 H   0  0  0  0  0  0  0  0  0  0  0  0
   -0.5506   24.9238  -29.7204 H   0  0  0  0  0  0  0  0  0  0  0  0
    1.5700   14.1084  -28.4969 H   0  0  0  0  0  0  0  0  0  0  0  0
    0.7473   13.7194  -30.0586 H   0  0  0  0  0  0  0  0  0  0  0  0
    3.5398   12.8582  -29.1495 H   0  0  0  0  0  0  0  0  0  0  0  0
    2.0915   11.8170  -29.4804 H   0  0  0  0  0  0  0  0  0  0  0  0
    1.3389   13.5001  -34.2330 H   0  0  0  0  0  0  0  0  0  0  0  0
    0.0499   12.2573  -34.0767 H   0  0  0  0  0  0  0  0  0  0  0  0
   -0.1532   15.2755  -33.5962 H   0  0  0  0  0  0  0  0  0  0  0  0
   -1.0757   14.2440  -34.7703 H   0  0  0  0  0  0  0  0  0  0  0  0
   -6.0883   15.2737  -32.1683 H   0  0  0  0  0  0  0  0  0  0  0  0
   -4.5772   19.7301  -32.6776 H   0  0  0  0  0  0  0  0  0  0  0  0
   -2.6764   22.9796  -31.8948 H   0  0  0  0  0  0  0  0  0  0  0  0
   -3.3672   21.5677  -30.9919 H   0  0  0  0  0  0  0  0  0  0  0  0
   -0.5307   21.6157  -31.0023 H   0  0  0  0  0  0  0  0  0  0  0  0
    1.2696   20.1436  -31.9167 H   0  0  0  0  0  0  0  0  0  0  0  0
    0.8328   18.7287  -33.9240 H   0  0  0  0  0  0  0  0  0  0  0  0
   -1.3655   18.8664  -35.0938 H   0  0  0  0  0  0  0  0  0  0  0  0
   -3.1981   20.2811  -34.1522 H   0  0  0  0  0  0  0  0  0  0  0  0
  1  2  1  0
  2  3  2  0
  2  4  1  0
  4  5  2  0
  5  6  1  0
  6  7  2  0
  7  8  1  0
  8  9  2  0
  9 10  1  0
 10 11  2  0
 11 12  1  0
 12 13  2  0
 13 14  1  0
 14 15  1  0
 15 16  1  0
 16 17  1  0
 17 18  1  0
 18 19  1  0
 19 20  1  0
 20 21  1  0
 21 22  1  0
 22 23  1  0
 23 24  2  0
 24 25  1  0
 25 26  2  0
 26 27  1  0
 27 28  2  0
 27 29  1  0
 29 30  1  0
 30 31  1  0
 31 32  1  0
 32 33  1  0
 33 34  1  0
 34 35  2  0
 34 36  1  0
 36 37  1  0
 37 38  2  0
 30 39  1  0
 39 40  2  0
 22 41  1  0
 41 42  1  0
 17 43  1  0
 43 44  1  0
 13 45  1  0
 45 46  2  0
  9 47  1  0
 47 48  2  0
 48 49  1  0
 49 50  1  0
 50 51  2  0
 50 52  1  0
 52 53  1  0
 53 54  1  0
 54 55  2  0
 55 56  1  0
 56 57  2  0
 57 58  1  0
 58 59  2  0
 49  4  1  0
 59 54  1  0
 48  6  1  0
 46 10  1  0
 44 14  1  0
 42 19  1  0
 28 23  1  0
 37 31  1  0
 39 26  1  0
  1 60  1  0
  1 61  1  0
  5 62  1  0
  7 63  1  0
  8 64  1  0
 11 65  1  0
 15 66  1  0
 15 67  1  0
 16 68  1  0
 16 69  1  0
 17 70  1  0
 18 71  1  0
 18 72  1  0
 20 73  1  0
 20 74  1  0
 21 75  1  0
 21 76  1  0
 24 77  1  0
 25 78  1  0
 28 79  1  0
 29 80  1  0
 29 81  1  0
 31 82  1  1
 32 83  1  0
 32 84  1  0
 33 85  1  0
 33 86  1  0
 41 87  1  0
 41 88  1  0
 42 89  1  0
 42 90  1  0
 43 91  1  0
 43 92  1  0
 44 93  1  0
 44 94  1  0
 46 95  1  0
 47 96  1  0
 53 97  1  0
 53 98  1  0
 55 99  1  0
 56100  1  0
 57101  1  0
 58102  1  0
 59103  1  0
M  CHG  1  36  -1
M  END
>  <UniqueID>  (63) 
62

>  <SMILES>  (63) 
NC(=O)c1cc2ccc(-c3cnc(N4CCC(CN5CCN(c6ccc7c(c6)CN([C@H]6CCC(=O)[N-]C6=O)C7=O)CC5)CC4)nc3)cc2n1C(=O)OCc1ccccc1

>  <Energy>  (63) 
196.81536278707196

>  <Genealogy>  (63) 
NC(=O)c1cc2ccc(-c3cnc(N4CCC(CN5CCN(c6ccc7c(c6)CN([C@H]6CCC(=O)[N-]C6=O)C7=O)CC5)CC4)nc3)cc2n1C(=O)OCc1ccccc1 (protonated)
NC(=O)c1cc2ccc(-c3cnc(N4CCC(CN5CCN(c6ccc7c(c6)CN([C@H]6CCC(=O)[N-]C6=O)C7=O)CC5)CC4)nc3)cc2n1C(=O)OCc1ccccc1 (3D coordinates assigned)
NC(=O)c1cc2ccc(-c3cnc(N4CCC(CN5CCN(c6ccc7c(c6)CN([C@H]6CCC(=O)[N-]C6=O)C7=O)CC5)CC4)nc3)cc2n1C(=O)OCc1ccccc1 (nonaromatic ring conformer: 196.81536278707196 kcal/mol)

>  <smiles>  (63) 
NC(=O)c1cc2ccc(-c3cnc(N4CCC(CN5CCN(c6ccc7c(c6)CN([C@H]6CCC(=O)NC6=O)C7=O)CC5)CC4)nc3)cc2n1C(=O)OCc1ccccc1

>  <score_type>  (63) 
oracle

>  <origin>  (63) 
adg

>  <m_score__min__energy>  (63) 
-12.800000000000001

>  <m_primary>  (63) 
energy

$$$$
63:0
     RDKit          3D

 34 36  0  0  0  0  0  0  0  0999 V2000
   -6.0610   25.5740  -29.1480 N   0  0  0  0  0  0  0  0  0  0  0  0
   -5.4440   25.0410  -30.3200 C   0  0  0  0  0  0  0  0  0  0  0  0
   -4.4570   25.6420  -30.8230 O   0  0  0  0  0  0  0  0  0  0  0  0
   -5.9050   23.7740  -30.9250 C   0  0  0  0  0  0  0  0  0  0  0  0
   -7.2470   23.4550  -31.1150 C   0  0  0  0  0  0  0  0  0  0  0  0
   -7.2430   22.2110  -31.7020 C   0  0  0  0  0  0  0  0  0  0  0  0
   -8.3070   21.4040  -32.0900 C   0  0  0  0  0  0  0  0  0  0  0  0
   -8.0140   20.1400  -32.6290 C   0  0  0  0  0  0  0  0  0  0  0  0
   -6.6700   19.6930  -32.7480 C   0  0  0  0  0  0  0  0  0  0  0  0
   -6.3500   18.3550  -33.3100 C   0  0  0  0  0  0  0  0  0  0  0  0
   -7.1660   17.2340  -33.0690 C   0  0  0  0  0  0  0  0  0  0  0  0
   -6.8190   15.9980  -33.6180 C   0  0  0  0  0  0  0  0  0  0  0  0
   -5.6680   15.8810  -34.3950 C   0  0  0  0  0  0  0  0  0  0  0  0
   -4.8720   17.0060  -34.6080 C   0  0  0  0  0  0  0  0  0  0  0  0
   -5.2250   18.2020  -34.0660 N   0  0  0  0  0  0  0  0  0  0  0  0
   -5.6180   20.5500  -32.3450 C   0  0  0  0  0  0  0  0  0  0  0  0
   -5.9390   21.8150  -31.8410 C   0  0  0  0  0  0  0  0  0  0  0  0
   -5.1030   22.7700  -31.3750 N   0  0  0  0  0  0  0  0  0  0  0  0
   -3.6760   22.6730  -31.2310 C   0  0  0  0  0  0  0  0  0  0  0  0
   -2.9730   22.3460  -32.2240 O   0  0  0  0  0  0  0  0  0  0  0  0
   -3.0030   22.9210  -29.9120 C   0  0  0  0  0  0  0  0  0  0  0  0
   -3.8660   22.6550  -28.8640 F   0  0  0  0  0  0  0  0  0  0  0  0
   -2.5890   24.2380  -29.8420 F   0  0  0  0  0  0  0  0  0  0  0  0
   -1.9000   22.0960  -29.7970 F   0  0  0  0  0  0  0  0  0  0  0  0
   -5.7580   26.4980  -28.7700 H   0  0  0  0  0  0  0  0  0  0  0  0
   -6.7440   25.0130  -28.5920 H   0  0  0  0  0  0  0  0  0  0  0  0
   -8.1226   24.0667  -30.8521 H   0  0  0  0  0  0  0  0  0  0  0  0
   -9.3468   21.7450  -31.9783 H   0  0  0  0  0  0  0  0  0  0  0  0
   -8.8348   19.4883  -32.9630 H   0  0  0  0  0  0  0  0  0  0  0  0
   -8.0715   17.3309  -32.4520 H   0  0  0  0  0  0  0  0  0  0  0  0
   -7.4533   15.1177  -33.4374 H   0  0  0  0  0  0  0  0  0  0  0  0
   -5.3905   14.9120  -34.8354 H   0  0  0  0  0  0  0  0  0  0  0  0
   -3.9580   16.9258  -35.2148 H   0  0  0  0  0  0  0  0  0  0  0  0
   -4.5694   20.2279  -32.4264 H   0  0  0  0  0  0  0  0  0  0  0  0
  1  2  1  0
  2  3  2  0
  2  4  1  0
  4  5  2  0
  5  6  1  0
  6  7  2  0
  7  8  1  0
  8  9  2  0
  9 10  1  0
 10 11  2  0
 11 12  1  0
 12 13  2  0
 13 14  1  0
 14 15  2  0
  9 16  1  0
 16 17  2  0
 17 18  1  0
 18 19  1  0
 19 20  2  0
 19 21  1  0
 21 22  1  0
 21 23  1  0
 21 24  1  0
 18  4  1  0
 17  6  1  0
 15 10  1  0
  1 25  1  0
  1 26  1  0
  5 27  1  0
  7 28  1  0
  8 29  1  0
 11 30  1  0
 12 31  1  0
 13 32  1  0
 14 33  1  0
 16 34  1  0
M  END
>  <UniqueID>  (64) 
63

>  <SMILES>  (64) 
NC(=O)c1cc2ccc(-c3ccccn3)cc2n1C(=O)C(F)(F)F

>  <Energy>  (64) 
81.68340117810122

>  <Genealogy>  (64) 
NC(=O)c1cc2ccc(-c3ccccn3)cc2n1C(=O)C(F)(F)F (3D coordinates assigned)
NC(=O)c1cc2ccc(-c3ccccn3)cc2n1C(=O)C(F)(F)F (optimized conformer: 81.68340117810122 kcal/mol)

>  <smiles>  (64) 
NC(=O)c1cc2ccc(-c3ccccn3)cc2n1C(=O)C(F)(F)F

>  <score_type>  (64) 
oracle

>  <origin>  (64) 
adg

>  <m_score__min__energy>  (64) 
-9.0999999999999996

>  <m_primary>  (64) 
energy

$$$$
64:0
     RDKit          3D

 87 91  0  0  0  0  0  0  0  0999 V2000
   -1.5810   23.2870  -26.7110 C   0  0  0  0  0  0  0  0  0  0  0  0
   -2.4020   24.5870  -26.8280 C   0  0  0  0  0  0  0  0  0  0  0  0
   -1.4650   25.7880  -27.0120 C   0  0  0  0  0  0  0  0  0  0  0  0
   -3.4350   24.5420  -27.9790 C   0  0  0  0  0  0  0  0  0  0  0  0
   -2.7950   24.4850  -29.3800 C   0  0  2  0  0  0  0  0  0  0  0  0
   -3.6150   25.2460  -30.3270 N   0  0  0  0  0  0  0  0  0  0  0  0
   -4.9700   24.9060  -30.6170 C   0  0  0  0  0  0  0  0  0  0  0  0
   -5.8990   25.4780  -29.9840 O   0  0  0  0  0  0  0  0  0  0  0  0
   -5.2420   23.9410  -31.5970 O   0  0  0  0  0  0  0  0  0  0  0  0
   -5.5310   22.5780  -31.2990 C   0  0  0  0  0  0  0  0  0  0  0  0
   -5.9520   21.7940  -32.5570 C   0  0  0  0  0  0  0  0  0  0  0  0
   -4.9250   20.7360  -32.8470 C   0  0  0  0  0  0  0  0  0  0  0  0
   -3.5910   20.9330  -33.2280 C   0  0  0  0  0  0  0  0  0  0  0  0
   -2.7670   19.8050  -33.4000 C   0  0  0  0  0  0  0  0  0  0  0  0
   -3.2750   18.5080  -33.1910 C   0  0  0  0  0  0  0  0  0  0  0  0
   -4.6220   18.3260  -32.8310 C   0  0  0  0  0  0  0  0  0  0  0  0
   -5.4210   19.4640  -32.6560 C   0  0  0  0  0  0  0  0  0  0  0  0
   -6.8260   19.5780  -32.3350 C   0  0  0  0  0  0  0  0  0  0  0  0
   -7.7810   18.5720  -32.1540 C   0  0  0  0  0  0  0  0  0  0  0  0
   -9.1240   18.9540  -31.9760 C   0  0  0  0  0  0  0  0  0  0  0  0
   -9.4870   20.3150  -32.0100 C   0  0  0  0  0  0  0  0  0  0  0  0
   -8.5040   21.3140  -32.2040 C   0  0  0  0  0  0  0  0  0  0  0  0
   -7.1650   20.9240  -32.3250 C   0  0  0  0  0  0  0  0  0  0  0  0
   -2.7030   23.0520  -29.8410 C   0  0  0  0  0  0  0  0  0  0  0  0
   -2.0520   22.7710  -30.8880 O   0  0  0  0  0  0  0  0  0  0  0  0
   -3.3790   22.0180  -29.1110 N   0  0  0  0  0  0  0  0  0  0  0  0
   -3.0850   20.6080  -29.3630 C   0  0  0  0  0  0  0  0  0  0  0  0
   -1.8620   20.1230  -28.5690 C   0  0  0  0  0  0  0  0  0  0  0  0
   -0.7340   19.6070  -29.4320 C   0  0  0  0  0  0  0  0  0  0  0  0
   -0.0950   18.3840  -29.1060 C   0  0  0  0  0  0  0  0  0  0  0  0
    0.9050   17.8540  -29.9370 C   0  0  0  0  0  0  0  0  0  0  0  0
    1.2600   18.5660  -31.0780 C   0  0  0  0  0  0  0  0  0  0  0  0
    2.1590   18.2550  -32.0730 C   0  0  0  0  0  0  0  0  0  0  0  0
    2.0480   19.2980  -32.9890 C   0  0  0  0  0  0  0  0  0  0  0  0
    2.7290   19.3190  -34.2930 C   0  0  0  0  0  0  0  0  0  0  0  0
    3.7100   20.3090  -34.5670 N   0  0  0  0  0  0  0  0  0  0  0  0
    2.4100   18.4830  -35.1860 O   0  0  0  0  0  0  0  0  0  0  0  0
    1.0880   20.1820  -32.6080 N   0  0  0  0  0  0  0  0  0  0  0  0
    0.5400   21.2420  -33.4180 C   0  0  0  0  0  0  0  0  0  0  0  0
   -0.6560   21.6030  -33.2540 O   0  0  0  0  0  0  0  0  0  0  0  0
    1.3720   21.9350  -34.2970 O   0  0  0  0  0  0  0  0  0  0  0  0
    1.1680   22.1050  -35.7090 C   0  0  0  0  0  0  0  0  0  0  0  0
    0.3740   20.9030  -36.2800 C   0  0  0  0  0  0  0  0  0  0  0  0
    2.5140   22.2760  -36.4570 C   0  0  0  0  0  0  0  0  0  0  0  0
    0.3330   23.3820  -35.9000 C   0  0  0  0  0  0  0  0  0  0  0  0
    0.6260   19.7280  -31.4290 C   0  0  0  0  0  0  0  0  0  0  0  0
   -0.3760   20.2820  -30.6230 C   0  0  0  0  0  0  0  0  0  0  0  0
   -1.4278   23.0444  -25.6491 H   0  0  0  0  0  0  0  0  0  0  0  0
   -2.1242   22.4650  -27.2002 H   0  0  0  0  0  0  0  0  0  0  0  0
   -0.6054   23.4242  -27.2002 H   0  0  0  0  0  0  0  0  0  0  0  0
   -2.9676   24.6934  -25.8906 H   0  0  0  0  0  0  0  0  0  0  0  0
   -1.1646   26.1731  -26.0264 H   0  0  0  0  0  0  0  0  0  0  0  0
   -0.5712   25.4735  -27.5708 H   0  0  0  0  0  0  0  0  0  0  0  0
   -1.9875   26.5784  -27.5708 H   0  0  0  0  0  0  0  0  0  0  0  0
   -4.0639   23.6492  -27.8473 H   0  0  0  0  0  0  0  0  0  0  0  0
   -4.0165   25.4743  -27.9275 H   0  0  0  0  0  0  0  0  0  0  0  0
   -1.7858   24.9202  -29.3327 H   0  0  0  0  0  0  0  0  0  0  0  0
   -4.6327   22.1089  -30.8711 H   0  0  0  0  0  0  0  0  0  0  0  0
   -6.3677   22.5540  -30.5853 H   0  0  0  0  0  0  0  0  0  0  0  0
   -6.1049   22.5614  -33.3301 H   0  0  0  0  0  0  0  0  0  0  0  0
   -3.1964   21.9471  -33.3891 H   0  0  0  0  0  0  0  0  0  0  0  0
   -1.7171   19.9375  -33.7003 H   0  0  0  0  0  0  0  0  0  0  0  0
   -2.6162   17.6351  -33.3097 H   0  0  0  0  0  0  0  0  0  0  0  0
   -5.0376   17.3173  -32.6905 H   0  0  0  0  0  0  0  0  0  0  0  0
   -7.4903   17.5111  -32.1509 H   0  0  0  0  0  0  0  0  0  0  0  0
   -9.8939   18.1862  -31.8095 H   0  0  0  0  0  0  0  0  0  0  0  0
  -10.5413   20.6027  -31.8849 H   0  0  0  0  0  0  0  0  0  0  0  0
   -8.7863   22.3758  -32.2586 H   0  0  0  0  0  0  0  0  0  0  0  0
   -4.0990   22.2920  -28.4010 H   0  0  0  0  0  0  0  0  0  0  0  0
   -3.9585   20.0059  -29.0723 H   0  0  0  0  0  0  0  0  0  0  0  0
   -2.8612   20.4942  -30.4340 H   0  0  0  0  0  0  0  0  0  0  0  0
   -1.4825   20.9642  -27.9703 H   0  0  0  0  0  0  0  0  0  0  0  0
   -2.1994   19.2797  -27.9486 H   0  0  0  0  0  0  0  0  0  0  0  0
   -0.3857   17.8447  -28.1924 H   0  0  0  0  0  0  0  0  0  0  0  0
    1.3951   16.9002  -29.6920 H   0  0  0  0  0  0  0  0  0  0  0  0
    2.8190   17.3769  -32.1316 H   0  0  0  0  0  0  0  0  0  0  0  0
    3.4560   21.3180  -34.5010 H   0  0  0  0  0  0  0  0  0  0  0  0
   -0.0245   20.2997  -35.4510 H   0  0  0  0  0  0  0  0  0  0  0  0
   -0.4580   21.2730  -36.8972 H   0  0  0  0  0  0  0  0  0  0  0  0
    1.0408   20.2830  -36.8972 H   0  0  0  0  0  0  0  0  0  0  0  0
    3.3292   22.3796  -35.7258 H   0  0  0  0  0  0  0  0  0  0  0  0
    2.6974   21.3939  -37.0881 H   0  0  0  0  0  0  0  0  0  0  0  0
    2.4710   23.1759  -37.0881 H   0  0  0  0  0  0  0  0  0  0  0  0
    0.0634   23.7943  -34.9165 H   0  0  0  0  0  0  0  0  0  0  0  0
    0.9208   24.1241  -36.4601 H   0  0  0  0  0  0  0  0  0  0  0  0
   -0.5826   23.1411  -36.4601 H   0  0  0  0  0  0  0  0  0  0  0  0
   -0.8735   21.2204  -30.9091 H   0  0  0  0  0  0  0  0  0  0  0  0
  1  2  1  0
  2  3  1  0
  2  4  1  0
  4  5  1  0
  5  6  1  0
  6  7  1  0
  7  8  2  0
  7  9  1  0
  9 10  1  0
 10 11  1  0
 11 12  1  0
 12 13  2  0
 13 14  1  0
 14 15  2  0
 15 16  1  0
 16 17  2  0
 17 18  1  0
 18 19  2  0
 19 20  1  0
 20 21  2  0
 21 22  1  0
 22 23  2  0
  5 24  1  0
 24 25  2  0
 24 26  1  0
 26 27  1  0
 27 28  1  0
 28 29  1  0
 29 30  2  0
 30 31  1  0
 31 32  2  0
 32 33  1  0
 33 34  2  0
 34 35  1  0
 35 36  1  0
 35 37  2  0
 34 38  1  0
 38 39  1  0
 39 40  2  0
 39 41  1  0
 41 42  1  0
 42 43  1  0
 42 44  1  0
 42 45  1  0
 38 46  1  0
 46 47  2  0
 23 11  1  0
 47 29  1  0
 17 12  1  0
 23 18  1  0
 46 32  1  0
  1 48  1  0
  1 49  1  0
  1 50  1  0
  2 51  1  0
  3 52  1  0
  3 53  1  0
  3 54  1  0
  4 55  1  0
  4 56  1  0
  5 57  1  1
 10 58  1  0
 10 59  1  0
 11 60  1  0
 13 61  1  0
 14 62  1  0
 15 63  1  0
 16 64  1  0
 19 65  1  0
 20 66  1  0
 21 67  1  0
 22 68  1  0
 26 69  1  0
 27 70  1  0
 27 71  1  0
 28 72  1  0
 28 73  1  0
 30 74  1  0
 31 75  1  0
 33 76  1  0
 36 77  1  0
 43 78  1  0
 43 79  1  0
 43 80  1  0
 44 81  1  0
 44 82  1  0
 44 83  1  0
 45 84  1  0
 45 85  1  0
 45 86  1  0
 47 87  1  0
M  CHG  2   6  -1  36  -1
M  END
>  <UniqueID>  (65) 
64

>  <SMILES>  (65) 
CC(C)C[C@H]([N-]C(=O)OCC1c2ccccc2-c2ccccc21)C(=O)NCCc1ccc2cc(C([NH-])=O)n(C(=O)OC(C)(C)C)c2c1

>  <Energy>  (65) 
142.84055876268755

>  <Genealogy>  (65) 
CC(C)C[C@H]([N-]C(=O)OCC1c2ccccc2-c2ccccc21)C(=O)NCCc1ccc2cc(C([NH-])=O)n(C(=O)OC(C)(C)C)c2c1 (protonated)
CC(C)C[C@H]([N-]C(=O)OCC1c2ccccc2-c2ccccc21)C(=O)NCCc1ccc2cc(C([NH-])=O)n(C(=O)OC(C)(C)C)c2c1 (3D coordinates assigned)
CC(C)C[C@H]([N-]C(=O)OCC1c2ccccc2-c2ccccc21)C(=O)NCCc1ccc2cc(C([NH-])=O)n(C(=O)OC(C)(C)C)c2c1 (nonaromatic ring conformer: 142.84055876268755 kcal/mol)

>  <smiles>  (65) 
CC(C)C[C@H](NC(=O)OCC1c2ccccc2-c2ccccc21)C(=O)NCCc1ccc2cc(C(N)=O)n(C(=O)OC(C)(C)C)c2c1

>  <score_type>  (65) 
oracle

>  <origin>  (65) 
adg

>  <m_score__min__energy>  (65) 
-13.75

>  <m_primary>  (65) 
energy

$$$$
65:0
     RDKit          3D

 75 76  0  0  0  0  0  0  0  0999 V2000
    2.3860   21.3650  -34.9730 C   0  0  0  0  0  0  0  0  0  0  0  0
    1.0290   21.7870  -35.4200 C   0  0  0  0  0  0  0  0  0  0  0  0
    0.7150   23.0060  -35.3780 O   0  0  0  0  0  0  0  0  0  0  0  0
    0.1330   20.8280  -35.9080 O   0  0  0  0  0  0  0  0  0  0  0  0
    0.1050   19.4720  -35.4620 C   0  0  0  0  0  0  0  0  0  0  0  0
   -1.0730   19.2090  -34.5010 C   0  0  1  0  0  0  0  0  0  0  0  0
   -1.2830   17.7030  -34.1890 C   0  0  0  0  0  0  0  0  0  0  0  0
   -2.7610   17.2980  -34.1160 C   0  0  0  0  0  0  0  0  0  0  0  0
   -3.4670   18.2330  -33.3330 O   0  0  0  0  0  0  0  0  0  0  0  0
   -5.1800   17.9910  -33.4800 Si  0  0  0  0  0  4  0  0  0  0  0  0
   -5.6180   16.2680  -32.8880 C   0  0  0  0  0  0  0  0  0  0  0  0
   -5.7290   18.1680  -35.2650 C   0  0  0  0  0  0  0  0  0  0  0  0
   -6.0390   19.2920  -32.3910 C   0  0  0  0  0  0  0  0  0  0  0  0
   -5.0420   19.8710  -31.3700 C   0  0  0  0  0  0  0  0  0  0  0  0
   -7.2110   18.6300  -31.6430 C   0  0  0  0  0  0  0  0  0  0  0  0
   -6.5760   20.4230  -33.2850 C   0  0  0  0  0  0  0  0  0  0  0  0
   -0.9270   20.0600  -33.2470 C   0  0  0  0  0  0  0  0  0  0  0  0
    0.2150   19.8730  -32.4250 C   0  0  0  0  0  0  0  0  0  0  0  0
    0.3600   20.5720  -31.2160 C   0  0  0  0  0  0  0  0  0  0  0  0
   -0.6580   21.4430  -30.8410 C   0  0  0  0  0  0  0  0  0  0  0  0
   -0.7690   22.2420  -29.7270 C   0  0  0  0  0  0  0  0  0  0  0  0
   -1.9870   22.9050  -29.8660 C   0  0  0  0  0  0  0  0  0  0  0  0
   -2.5570   23.8080  -28.8410 C   0  0  0  0  0  0  0  0  0  0  0  0
   -2.4420   25.2270  -28.9680 N   0  0  0  0  0  0  0  0  0  0  0  0
   -3.1300   23.3320  -27.8260 O   0  0  0  0  0  0  0  0  0  0  0  0
   -2.6030   22.5300  -31.0240 N   0  0  0  0  0  0  0  0  0  0  0  0
   -3.8240   23.0510  -31.5790 C   0  0  0  0  0  0  0  0  0  0  0  0
   -4.3270   22.5060  -32.6000 O   0  0  0  0  0  0  0  0  0  0  0  0
   -4.4520   24.1470  -30.9670 O   0  0  0  0  0  0  0  0  0  0  0  0
   -5.7790   24.1650  -30.4190 C   0  0  0  0  0  0  0  0  0  0  0  0
   -5.8540   23.0400  -29.3760 C   0  0  0  0  0  0  0  0  0  0  0  0
   -6.8250   23.8940  -31.5180 C   0  0  0  0  0  0  0  0  0  0  0  0
   -6.0570   25.5100  -29.7210 C   0  0  0  0  0  0  0  0  0  0  0  0
   -1.7770   21.6310  -31.6070 C   0  0  0  0  0  0  0  0  0  0  0  0
   -1.9400   20.9580  -32.8250 C   0  0  0  0  0  0  0  0  0  0  0  0
    2.4228   21.3535  -33.8737 H   0  0  0  0  0  0  0  0  0  0  0  0
    2.6019   20.3573  -35.3576 H   0  0  0  0  0  0  0  0  0  0  0  0
    3.1353   22.0726  -35.3576 H   0  0  0  0  0  0  0  0  0  0  0  0
    0.0056   18.8117  -36.3361 H   0  0  0  0  0  0  0  0  0  0  0  0
    1.0404   19.2713  -34.9191 H   0  0  0  0  0  0  0  0  0  0  0  0
   -1.9966   19.5161  -35.0134 H   0  0  0  0  0  0  0  0  0  0  0  0
   -0.7978   17.1118  -34.9796 H   0  0  0  0  0  0  0  0  0  0  0  0
   -0.8437   17.5114  -33.1989 H   0  0  0  0  0  0  0  0  0  0  0  0
   -3.1852   17.2750  -35.1306 H   0  0  0  0  0  0  0  0  0  0  0  0
   -2.8454   16.3005  -33.6601 H   0  0  0  0  0  0  0  0  0  0  0  0
   -5.6230   16.2484  -31.7882 H   0  0  0  0  0  0  0  0  0  0  0  0
   -6.6145   15.9933  -33.2641 H   0  0  0  0  0  0  0  0  0  0  0  0
   -4.8736   15.5508  -33.2641 H   0  0  0  0  0  0  0  0  0  0  0  0
   -6.7755   18.5054  -35.2950 H   0  0  0  0  0  0  0  0  0  0  0  0
   -5.0911   18.9060  -35.7734 H   0  0  0  0  0  0  0  0  0  0  0  0
   -5.6423   17.1964  -35.7734 H   0  0  0  0  0  0  0  0  0  0  0  0
   -5.3992   19.6636  -30.3505 H   0  0  0  0  0  0  0  0  0  0  0  0
   -4.0563   19.4048  -31.5151 H   0  0  0  0  0  0  0  0  0  0  0  0
   -4.9584   20.9582  -31.5151 H   0  0  0  0  0  0  0  0  0  0  0  0
   -7.0514   18.7201  -30.5584 H   0  0  0  0  0  0  0  0  0  0  0  0
   -8.1511   19.1305  -31.9182 H   0  0  0  0  0  0  0  0  0  0  0  0
   -7.2677   17.5665  -31.9182 H   0  0  0  0  0  0  0  0  0  0  0  0
   -6.9625   21.2370  -32.6541 H   0  0  0  0  0  0  0  0  0  0  0  0
   -5.7634   20.8056  -33.9201 H   0  0  0  0  0  0  0  0  0  0  0  0
   -7.3861   20.0351  -33.9201 H   0  0  0  0  0  0  0  0  0  0  0  0
    0.9992   19.1690  -32.7403 H   0  0  0  0  0  0  0  0  0  0  0  0
    1.2506   20.4353  -30.5850 H   0  0  0  0  0  0  0  0  0  0  0  0
   -0.0488   22.3375  -28.9011 H   0  0  0  0  0  0  0  0  0  0  0  0
   -1.9950   25.6670  -29.8010 H   0  0  0  0  0  0  0  0  0  0  0  0
   -2.8370   25.8530  -28.2300 H   0  0  0  0  0  0  0  0  0  0  0  0
   -5.8251   23.4741  -28.3657 H   0  0  0  0  0  0  0  0  0  0  0  0
   -6.7915   22.4798  -29.5077 H   0  0  0  0  0  0  0  0  0  0  0  0
   -4.9992   22.3603  -29.5077 H   0  0  0  0  0  0  0  0  0  0  0  0
   -7.7897   23.6441  -31.0524 H   0  0  0  0  0  0  0  0  0  0  0  0
   -6.9412   24.7917  -32.1430 H   0  0  0  0  0  0  0  0  0  0  0  0
   -6.4907   23.0528  -32.1430 H   0  0  0  0  0  0  0  0  0  0  0  0
   -6.0281   25.3700  -28.6303 H   0  0  0  0  0  0  0  0  0  0  0  0
   -5.2912   26.2420  -30.0171 H   0  0  0  0  0  0  0  0  0  0  0  0
   -7.0503   25.8784  -30.0171 H   0  0  0  0  0  0  0  0  0  0  0  0
   -2.8359   21.1230  -33.4416 H   0  0  0  0  0  0  0  0  0  0  0  0
  1  2  1  0
  2  3  2  0
  2  4  1  0
  4  5  1  0
  5  6  1  0
  6  7  1  0
  7  8  1  0
  8  9  1  0
  9 10  1  0
 10 11  1  0
 10 12  1  0
 10 13  1  0
 13 14  1  0
 13 15  1  0
 13 16  1  0
  6 17  1  0
 17 18  2  0
 18 19  1  0
 19 20  2  0
 20 21  1  0
 21 22  2  0
 22 23  1  0
 23 24  1  0
 23 25  2  0
 22 26  1  0
 26 27  1  0
 27 28  2  0
 27 29  1  0
 29 30  1  0
 30 31  1  0
 30 32  1  0
 30 33  1  0
 26 34  1  0
 34 35  2  0
 35 17  1  0
 34 20  1  0
  1 36  1  0
  1 37  1  0
  1 38  1  0
  5 39  1  0
  5 40  1  0
  6 41  1  6
  7 42  1  0
  7 43  1  0
  8 44  1  0
  8 45  1  0
 11 46  1  0
 11 47  1  0
 11 48  1  0
 12 49  1  0
 12 50  1  0
 12 51  1  0
 14 52  1  0
 14 53  1  0
 14 54  1  0
 15 55  1  0
 15 56  1  0
 15 57  1  0
 16 58  1  0
 16 59  1  0
 16 60  1  0
 18 61  1  0
 19 62  1  0
 21 63  1  0
 24 64  1  0
 24 65  1  0
 31 66  1  0
 31 67  1  0
 31 68  1  0
 32 69  1  0
 32 70  1  0
 32 71  1  0
 33 72  1  0
 33 73  1  0
 33 74  1  0
 35 75  1  0
M  END
>  <UniqueID>  (66) 
65

>  <SMILES>  (66) 
CC(=O)OC[C@@H](CCO[Si](C)(C)C(C)(C)C)c1ccc2cc(C(N)=O)n(C(=O)OC(C)(C)C)c2c1

>  <Energy>  (66) 
83.00112486728355

>  <Genealogy>  (66) 
CC(=O)OC[C@@H](CCO[Si](C)(C)C(C)(C)C)c1ccc2cc(C(N)=O)n(C(=O)OC(C)(C)C)c2c1 (chirality)
CC(=O)OC[C@@H](CCO[Si](C)(C)C(C)(C)C)c1ccc2cc(C(N)=O)n(C(=O)OC(C)(C)C)c2c1 (3D coordinates assigned)
CC(=O)OC[C@@H](CCO[Si](C)(C)C(C)(C)C)c1ccc2cc(C(N)=O)n(C(=O)OC(C)(C)C)c2c1 (optimized conformer: 83.00112486728355 kcal/mol)

>  <smiles>  (66) 
CC(=O)OCC(CCO[Si](C)(C)C(C)(C)C)c1ccc2cc(C(N)=O)n(C(=O)OC(C)(C)C)c2c1

>  <score_type>  (66) 
oracle

>  <origin>  (66) 
adg

>  <m_score__min__energy>  (66) 
-9.8399999999999999

>  <m_primary>  (66) 
energy

$$$$
66:0
     RDKit          3D

 63 64  0  0  0  0  0  0  0  0999 V2000
   -1.2260   20.5520  -34.1800 C   0  0  0  0  0  0  0  0  0  0  0  0
   -2.1540   19.4460  -33.6400 C   0  0  0  0  0  0  0  0  0  0  0  0
   -3.5880   19.9810  -33.4630 C   0  0  0  0  0  0  0  0  0  0  0  0
   -1.6230   18.9820  -32.2750 C   0  0  0  0  0  0  0  0  0  0  0  0
   -2.1440   18.3040  -34.5090 O   0  0  0  0  0  0  0  0  0  0  0  0
   -3.1290   17.3100  -34.5800 C   0  0  0  0  0  0  0  0  0  0  0  0
   -3.7230   17.0560  -35.6640 O   0  0  0  0  0  0  0  0  0  0  0  0
   -3.4460   16.5980  -33.4220 O   0  0  0  0  0  0  0  0  0  0  0  0
   -4.5280   15.6720  -33.3620 C   0  0  0  0  0  0  0  0  0  0  0  0
   -5.7430   16.3090  -32.6820 C   0  0  0  0  0  0  0  0  0  0  0  0
   -6.1230   17.6940  -33.2390 C   0  0  0  0  0  0  0  0  0  0  0  0
   -7.5580   18.1420  -32.8950 C   0  0  0  0  0  0  0  0  0  0  0  0
   -7.6340   19.5400  -32.3280 C   0  0  0  0  0  0  0  0  0  0  0  0
   -8.8820   20.2080  -32.2430 C   0  0  0  0  0  0  0  0  0  0  0  0
   -8.9600   21.5300  -31.7740 C   0  0  0  0  0  0  0  0  0  0  0  0
   -7.7750   22.1620  -31.4050 C   0  0  0  0  0  0  0  0  0  0  0  0
   -7.5550   23.4500  -30.9680 C   0  0  0  0  0  0  0  0  0  0  0  0
   -6.1750   23.5450  -30.7810 C   0  0  0  0  0  0  0  0  0  0  0  0
   -5.4900   24.7360  -30.2290 C   0  0  0  0  0  0  0  0  0  0  0  0
   -5.8870   25.2910  -28.9730 N   0  0  0  0  0  0  0  0  0  0  0  0
   -4.5310   25.2600  -30.8540 O   0  0  0  0  0  0  0  0  0  0  0  0
   -5.5740   22.3600  -31.0830 N   0  0  0  0  0  0  0  0  0  0  0  0
   -4.1770   22.0400  -31.0390 C   0  0  0  0  0  0  0  0  0  0  0  0
   -3.4000   22.5090  -31.9140 O   0  0  0  0  0  0  0  0  0  0  0  0
   -3.7050   21.1890  -30.0290 O   0  0  0  0  0  0  0  0  0  0  0  0
   -3.0390   21.5830  -28.8220 C   0  0  0  0  0  0  0  0  0  0  0  0
   -1.7130   22.2390  -29.2340 C   0  0  0  0  0  0  0  0  0  0  0  0
   -3.8920   22.6130  -28.0580 C   0  0  0  0  0  0  0  0  0  0  0  0
   -2.7390   20.3640  -27.9290 C   0  0  0  0  0  0  0  0  0  0  0  0
   -6.5640   21.5280  -31.4690 C   0  0  0  0  0  0  0  0  0  0  0  0
   -6.4540   20.2190  -31.9500 C   0  0  0  0  0  0  0  0  0  0  0  0
   -0.7717   21.0934  -33.3371 H   0  0  0  0  0  0  0  0  0  0  0  0
   -0.4340   20.0986  -34.7941 H   0  0  0  0  0  0  0  0  0  0  0  0
   -1.8100   21.2532  -34.7941 H   0  0  0  0  0  0  0  0  0  0  0  0
   -3.8176   20.0667  -32.3907 H   0  0  0  0  0  0  0  0  0  0  0  0
   -3.6711   20.9706  -33.9360 H   0  0  0  0  0  0  0  0  0  0  0  0
   -4.2990   19.2877  -33.9360 H   0  0  0  0  0  0  0  0  0  0  0  0
   -2.1901   19.4775  -31.4732 H   0  0  0  0  0  0  0  0  0  0  0  0
   -1.7403   17.8918  -32.1872 H   0  0  0  0  0  0  0  0  0  0  0  0
   -0.5584   19.2444  -32.1872 H   0  0  0  0  0  0  0  0  0  0  0  0
   -4.8023   15.3693  -34.3834 H   0  0  0  0  0  0  0  0  0  0  0  0
   -4.2131   14.7948  -32.7778 H   0  0  0  0  0  0  0  0  0  0  0  0
   -6.6036   15.6365  -32.8125 H   0  0  0  0  0  0  0  0  0  0  0  0
   -5.4738   16.4556  -31.6256 H   0  0  0  0  0  0  0  0  0  0  0  0
   -5.4222   18.4354  -32.8275 H   0  0  0  0  0  0  0  0  0  0  0  0
   -6.0695   17.6193  -34.3352 H   0  0  0  0  0  0  0  0  0  0  0  0
   -8.1635   18.1052  -33.8126 H   0  0  0  0  0  0  0  0  0  0  0  0
   -7.9330   17.4579  -32.1195 H   0  0  0  0  0  0  0  0  0  0  0  0
   -9.8002   19.6847  -32.5480 H   0  0  0  0  0  0  0  0  0  0  0  0
   -9.9267   22.0497  -31.7005 H   0  0  0  0  0  0  0  0  0  0  0  0
   -8.3066   24.2358  -30.8019 H   0  0  0  0  0  0  0  0  0  0  0  0
   -5.3710   26.1090  -28.5770 H   0  0  0  0  0  0  0  0  0  0  0  0
   -6.7130   24.9240  -28.4520 H   0  0  0  0  0  0  0  0  0  0  0  0
   -1.1470   22.5190  -28.3333 H   0  0  0  0  0  0  0  0  0  0  0  0
   -1.1228   21.5289  -29.8319 H   0  0  0  0  0  0  0  0  0  0  0  0
   -1.9193   23.1390  -29.8319 H   0  0  0  0  0  0  0  0  0  0  0  0
   -3.7669   22.4620  -26.9756 H   0  0  0  0  0  0  0  0  0  0  0  0
   -3.5674   23.6292  -28.3264 H   0  0  0  0  0  0  0  0  0  0  0  0
   -4.9509   22.4835  -28.3264 H   0  0  0  0  0  0  0  0  0  0  0  0
   -2.8113   20.6576  -26.8714 H   0  0  0  0  0  0  0  0  0  0  0  0
   -3.4679   19.5674  -28.1390 H   0  0  0  0  0  0  0  0  0  0  0  0
   -1.7236   19.9966  -28.1390 H   0  0  0  0  0  0  0  0  0  0  0  0
   -5.4721   19.7299  -32.0320 H   0  0  0  0  0  0  0  0  0  0  0  0
  1  2  1  0
  2  3  1  0
  2  4  1  0
  2  5  1  0
  5  6  1  0
  6  7  2  0
  6  8  1  0
  8  9  1  0
  9 10  1  0
 10 11  1  0
 11 12  1  0
 12 13  1  0
 13 14  2  0
 14 15  1  0
 15 16  2  0
 16 17  1  0
 17 18  2  0
 18 19  1  0
 19 20  1  0
 19 21  2  0
 18 22  1  0
 22 23  1  0
 23 24  2  0
 23 25  1  0
 25 26  1  0
 26 27  1  0
 26 28  1  0
 26 29  1  0
 22 30  1  0
 30 31  2  0
 31 13  1  0
 30 16  1  0
  1 32  1  0
  1 33  1  0
  1 34  1  0
  3 35  1  0
  3 36  1  0
  3 37  1  0
  4 38  1  0
  4 39  1  0
  4 40  1  0
  9 41  1  0
  9 42  1  0
 10 43  1  0
 10 44  1  0
 11 45  1  0
 11 46  1  0
 12 47  1  0
 12 48  1  0
 14 49  1  0
 15 50  1  0
 17 51  1  0
 20 52  1  0
 20 53  1  0
 27 54  1  0
 27 55  1  0
 27 56  1  0
 28 57  1  0
 28 58  1  0
 28 59  1  0
 29 60  1  0
 29 61  1  0
 29 62  1  0
 31 63  1  0
M  END
>  <UniqueID>  (67) 
66

>  <SMILES>  (67) 
CC(C)(C)OC(=O)OCCCCc1ccc2cc(C(N)=O)n(C(=O)OC(C)(C)C)c2c1

>  <Energy>  (67) 
78.8850307291515

>  <Genealogy>  (67) 
CC(C)(C)OC(=O)OCCCCc1ccc2cc(C(N)=O)n(C(=O)OC(C)(C)C)c2c1 (3D coordinates assigned)
CC(C)(C)OC(=O)OCCCCc1ccc2cc(C(N)=O)n(C(=O)OC(C)(C)C)c2c1 (optimized conformer: 78.8850307291515 kcal/mol)

>  <smiles>  (67) 
CC(C)(C)OC(=O)OCCCCc1ccc2cc(C(N)=O)n(C(=O)OC(C)(C)C)c2c1

>  <score_type>  (67) 
oracle

>  <origin>  (67) 
adg

>  <m_score__min__energy>  (67) 
-9.3399999999999999

>  <m_primary>  (67) 
energy

$$$$
67:0
     RDKit          3D

 41 42  0  0  0  0  0  0  0  0999 V2000
   -2.3210   21.4790  -27.5970 C   0  0  0  0  0  0  0  0  0  0  0  0
   -2.9530   22.4240  -28.6400 C   0  0  0  0  0  0  0  0  0  0  0  0
   -4.1540   23.1420  -27.9890 C   0  0  0  0  0  0  0  0  0  0  0  0
   -1.8940   23.4690  -29.0580 C   0  0  0  0  0  0  0  0  0  0  0  0
   -3.3990   21.5710  -29.8630 C   0  0  0  0  0  0  0  0  0  0  0  0
   -3.9210   22.3750  -31.0280 C   0  0  0  0  0  0  0  0  0  0  0  0
   -3.1250   22.7390  -31.9360 O   0  0  0  0  0  0  0  0  0  0  0  0
   -5.3170   22.6990  -31.1420 N   0  0  0  0  0  0  0  0  0  0  0  0
   -5.9400   23.8670  -30.8190 C   0  0  0  0  0  0  0  0  0  0  0  0
   -5.2680   25.1240  -30.4300 C   0  0  0  0  0  0  0  0  0  0  0  0
   -3.8650   25.2710  -30.6290 N   0  0  0  0  0  0  0  0  0  0  0  0
   -5.9200   26.0640  -29.9010 O   0  0  0  0  0  0  0  0  0  0  0  0
   -7.3140   23.7600  -31.0230 C   0  0  0  0  0  0  0  0  0  0  0  0
   -7.5130   22.4860  -31.5060 C   0  0  0  0  0  0  0  0  0  0  0  0
   -8.6870   21.8400  -31.8810 C   0  0  0  0  0  0  0  0  0  0  0  0
   -8.5940   20.5100  -32.3260 C   0  0  0  0  0  0  0  0  0  0  0  0
   -7.3400   19.8530  -32.3820 C   0  0  0  0  0  0  0  0  0  0  0  0
   -7.2480   18.4270  -32.8520 C   0  0  0  0  0  0  0  0  0  0  0  0
   -6.1020   18.2550  -33.7970 C   0  0  0  0  0  0  0  0  0  0  0  0
   -6.0260   18.9600  -34.8390 O   0  0  0  0  0  0  0  0  0  0  0  0
   -5.1070   17.3210  -33.5220 O   0  0  0  0  0  0  0  0  0  0  0  0
   -6.1680   20.5470  -32.0090 C   0  0  0  0  0  0  0  0  0  0  0  0
   -6.2910   21.8710  -31.5740 C   0  0  0  0  0  0  0  0  0  0  0  0
   -2.5606   21.8372  -26.5849 H   0  0  0  0  0  0  0  0  0  0  0  0
   -2.7225   20.4637  -27.7312 H   0  0  0  0  0  0  0  0  0  0  0  0
   -1.2293   21.4623  -27.7312 H   0  0  0  0  0  0  0  0  0  0  0  0
   -4.0639   23.0881  -26.8940 H   0  0  0  0  0  0  0  0  0  0  0  0
   -4.1662   24.1957  -28.3045 H   0  0  0  0  0  0  0  0  0  0  0  0
   -5.0880   22.6539  -28.3045 H   0  0  0  0  0  0  0  0  0  0  0  0
   -1.4431   23.9140  -28.1587 H   0  0  0  0  0  0  0  0  0  0  0  0
   -1.1117   22.9791  -29.6564 H   0  0  0  0  0  0  0  0  0  0  0  0
   -2.3734   24.2577  -29.6564 H   0  0  0  0  0  0  0  0  0  0  0  0
   -2.5334   20.9868  -30.2087 H   0  0  0  0  0  0  0  0  0  0  0  0
   -4.2323   20.9410  -29.5185 H   0  0  0  0  0  0  0  0  0  0  0  0
   -3.4860   26.0300  -31.2380 H   0  0  0  0  0  0  0  0  0  0  0  0
   -8.0776   24.5297  -30.8376 H   0  0  0  0  0  0  0  0  0  0  0  0
   -9.6580   22.3544  -31.8307 H   0  0  0  0  0  0  0  0  0  0  0  0
   -9.5039   19.9739  -32.6338 H   0  0  0  0  0  0  0  0  0  0  0  0
   -7.1012   17.7690  -31.9828 H   0  0  0  0  0  0  0  0  0  0  0  0
   -8.1799   18.1661  -33.3750 H   0  0  0  0  0  0  0  0  0  0  0  0
   -5.1835   20.0590  -32.0592 H   0  0  0  0  0  0  0  0  0  0  0  0
  1  2  1  0
  2  3  1  0
  2  4  1  0
  2  5  1  0
  5  6  1  0
  6  7  2  0
  6  8  1  0
  8  9  1  0
  9 10  1  0
 10 11  1  0
 10 12  2  0
  9 13  2  0
 13 14  1  0
 14 15  2  0
 15 16  1  0
 16 17  2  0
 17 18  1  0
 18 19  1  0
 19 20  2  0
 19 21  1  0
 17 22  1  0
 22 23  2  0
 23  8  1  0
 23 14  1  0
  1 24  1  0
  1 25  1  0
  1 26  1  0
  3 27  1  0
  3 28  1  0
  3 29  1  0
  4 30  1  0
  4 31  1  0
  4 32  1  0
  5 33  1  0
  5 34  1  0
 11 35  1  0
 13 36  1  0
 15 37  1  0
 16 38  1  0
 18 39  1  0
 18 40  1  0
 22 41  1  0
M  CHG  2  11  -1  21  -1
M  END
>  <UniqueID>  (68) 
67

>  <SMILES>  (68) 
CC(C)(C)CC(=O)n1c(C([NH-])=O)cc2ccc(CC(=O)[O-])cc21

>  <Energy>  (68) 
73.16078877974903

>  <Genealogy>  (68) 
CC(C)(C)CC(=O)n1c(C([NH-])=O)cc2ccc(CC(=O)[O-])cc21 (protonated)
CC(C)(C)CC(=O)n1c(C([NH-])=O)cc2ccc(CC(=O)[O-])cc21 (3D coordinates assigned)
CC(C)(C)CC(=O)n1c(C([NH-])=O)cc2ccc(CC(=O)[O-])cc21 (optimized conformer: 73.16078877974903 kcal/mol)

>  <smiles>  (68) 
CC(C)(C)CC(=O)n1c(C(N)=O)cc2ccc(CC(=O)O)cc21

>  <score_type>  (68) 
oracle

>  <origin>  (68) 
adg

>  <m_score__min__energy>  (68) 
-10.699999999999999

>  <m_primary>  (68) 
energy

$$$$
68:0
     RDKit          3D

 51 53  0  0  0  0  0  0  0  0999 V2000
   -7.1830   12.9790  -35.0560 C   0  0  0  0  0  0  0  0  0  0  0  0
   -6.0490   13.3110  -34.2620 O   0  0  0  0  0  0  0  0  0  0  0  0
   -5.2130   14.3930  -34.5530 C   0  0  0  0  0  0  0  0  0  0  0  0
   -4.1720   14.2180  -35.2470 O   0  0  0  0  0  0  0  0  0  0  0  0
   -5.5500   15.7430  -34.0480 C   0  0  0  0  0  0  0  0  0  0  0  0
   -6.8590   16.0390  -33.6350 C   0  0  0  0  0  0  0  0  0  0  0  0
   -7.1820   17.3120  -33.1560 C   0  0  0  0  0  0  0  0  0  0  0  0
   -6.2010   18.3170  -33.0800 C   0  0  0  0  0  0  0  0  0  0  0  0
   -6.5440   19.6680  -32.5710 C   0  0  0  0  0  0  0  0  0  0  0  0
   -7.8960   20.1010  -32.5390 C   0  0  0  0  0  0  0  0  0  0  0  0
   -8.2320   21.3730  -32.0470 C   0  0  0  0  0  0  0  0  0  0  0  0
   -7.2030   22.1950  -31.6030 C   0  0  0  0  0  0  0  0  0  0  0  0
   -7.2520   23.4580  -31.0590 C   0  0  0  0  0  0  0  0  0  0  0  0
   -5.9270   23.7950  -30.7860 C   0  0  0  0  0  0  0  0  0  0  0  0
   -5.5000   25.1130  -30.2670 C   0  0  0  0  0  0  0  0  0  0  0  0
   -6.1140   25.6730  -29.1050 N   0  0  0  0  0  0  0  0  0  0  0  0
   -4.6100   25.7700  -30.8690 O   0  0  0  0  0  0  0  0  0  0  0  0
   -5.0930   22.7790  -31.1470 N   0  0  0  0  0  0  0  0  0  0  0  0
   -3.6710   22.7110  -30.9570 C   0  0  0  0  0  0  0  0  0  0  0  0
   -3.0180   23.7660  -30.7320 O   0  0  0  0  0  0  0  0  0  0  0  0
   -3.0250   21.4680  -31.0350 O   0  0  0  0  0  0  0  0  0  0  0  0
   -2.1400   21.0320  -32.0770 C   0  0  0  0  0  0  0  0  0  0  0  0
   -2.1320   19.4970  -32.0530 C   0  0  0  0  0  0  0  0  0  0  0  0
   -2.6470   21.5060  -33.4530 C   0  0  0  0  0  0  0  0  0  0  0  0
   -0.7080   21.5410  -31.8210 C   0  0  0  0  0  0  0  0  0  0  0  0
   -5.8890   21.8060  -31.6440 C   0  0  0  0  0  0  0  0  0  0  0  0
   -5.5250   20.5370  -32.1110 C   0  0  0  0  0  0  0  0  0  0  0  0
   -4.8920   18.0190  -33.4940 C   0  0  0  0  0  0  0  0  0  0  0  0
   -4.5690   16.7470  -33.9720 C   0  0  0  0  0  0  0  0  0  0  0  0
   -8.0302   12.7310  -34.3997 H   0  0  0  0  0  0  0  0  0  0  0  0
   -7.4499   13.8367  -35.6909 H   0  0  0  0  0  0  0  0  0  0  0  0
   -6.9452   12.1128  -35.6909 H   0  0  0  0  0  0  0  0  0  0  0  0
   -7.6366   15.2629  -33.6888 H   0  0  0  0  0  0  0  0  0  0  0  0
   -8.2117   17.5294  -32.8359 H   0  0  0  0  0  0  0  0  0  0  0  0
   -8.6896   19.4323  -32.9038 H   0  0  0  0  0  0  0  0  0  0  0  0
   -9.2790   21.7088  -32.0141 H   0  0  0  0  0  0  0  0  0  0  0  0
   -8.1468   24.0716  -30.8779 H   0  0  0  0  0  0  0  0  0  0  0  0
   -5.8310   26.6210  -28.7690 H   0  0  0  0  0  0  0  0  0  0  0  0
   -6.8160   25.1360  -28.5500 H   0  0  0  0  0  0  0  0  0  0  0  0
   -2.1302   19.1466  -31.0103 H   0  0  0  0  0  0  0  0  0  0  0  0
   -3.0282   19.1176  -32.5658 H   0  0  0  0  0  0  0  0  0  0  0  0
   -1.2319   19.1270  -32.5658 H   0  0  0  0  0  0  0  0  0  0  0  0
   -3.4440   22.2511  -33.3133 H   0  0  0  0  0  0  0  0  0  0  0  0
   -1.8161   21.9587  -34.0139 H   0  0  0  0  0  0  0  0  0  0  0  0
   -3.0428   20.6465  -34.0139 H   0  0  0  0  0  0  0  0  0  0  0  0
   -0.5296   21.6044  -30.7374 H   0  0  0  0  0  0  0  0  0  0  0  0
    0.0147   20.8447  -32.2714 H   0  0  0  0  0  0  0  0  0  0  0  0
   -0.5870   22.5372  -32.2714 H   0  0  0  0  0  0  0  0  0  0  0  0
   -4.4710   20.2223  -32.1203 H   0  0  0  0  0  0  0  0  0  0  0  0
   -4.1140   18.7949  -33.4412 H   0  0  0  0  0  0  0  0  0  0  0  0
   -3.5392   16.5292  -34.2914 H   0  0  0  0  0  0  0  0  0  0  0  0
  1  2  1  0
  2  3  1  0
  3  4  2  0
  3  5  1  0
  5  6  2  0
  6  7  1  0
  7  8  2  0
  8  9  1  0
  9 10  2  0
 10 11  1  0
 11 12  2  0
 12 13  1  0
 13 14  2  0
 14 15  1  0
 15 16  1  0
 15 17  2  0
 14 18  1  0
 18 19  1  0
 19 20  2  0
 19 21  1  0
 21 22  1  0
 22 23  1  0
 22 24  1  0
 22 25  1  0
 18 26  1  0
 26 27  2  0
  8 28  1  0
 28 29  2  0
 29  5  1  0
 27  9  1  0
 26 12  1  0
  1 30  1  0
  1 31  1  0
  1 32  1  0
  6 33  1  0
  7 34  1  0
 10 35  1  0
 11 36  1  0
 13 37  1  0
 16 38  1  0
 16 39  1  0
 23 40  1  0
 23 41  1  0
 23 42  1  0
 24 43  1  0
 24 44  1  0
 24 45  1  0
 25 46  1  0
 25 47  1  0
 25 48  1  0
 27 49  1  0
 28 50  1  0
 29 51  1  0
M  END
>  <UniqueID>  (69) 
68

>  <SMILES>  (69) 
COC(=O)c1ccc(-c2ccc3cc(C(N)=O)n(C(=O)OC(C)(C)C)c3c2)cc1

>  <Energy>  (69) 
90.28582098475977

>  <Genealogy>  (69) 
COC(=O)c1ccc(-c2ccc3cc(C(N)=O)n(C(=O)OC(C)(C)C)c3c2)cc1 (3D coordinates assigned)
COC(=O)c1ccc(-c2ccc3cc(C(N)=O)n(C(=O)OC(C)(C)C)c3c2)cc1 (optimized conformer: 90.28582098475977 kcal/mol)

>  <smiles>  (69) 
COC(=O)c1ccc(-c2ccc3cc(C(N)=O)n(C(=O)OC(C)(C)C)c3c2)cc1

>  <score_type>  (69) 
oracle

>  <origin>  (69) 
adg

>  <m_score__min__energy>  (69) 
-9.6199999999999992

>  <m_primary>  (69) 
energy

$$$$
69:0
     RDKit          3D

 43 44  0  0  0  0  0  0  0  0999 V2000
   -4.0780   23.2660  -28.1430 C   0  0  0  0  0  0  0  0  0  0  0  0
   -2.9320   22.7770  -29.0490 C   0  0  0  0  0  0  0  0  0  0  0  0
   -1.5670   23.2230  -28.4900 C   0  0  0  0  0  0  0  0  0  0  0  0
   -2.9660   21.2420  -29.1090 C   0  0  0  0  0  0  0  0  0  0  0  0
   -3.1090   23.2560  -30.3890 O   0  0  0  0  0  0  0  0  0  0  0  0
   -3.8890   22.6590  -31.3910 C   0  0  0  0  0  0  0  0  0  0  0  0
   -3.3520   22.0410  -32.3480 O   0  0  0  0  0  0  0  0  0  0  0  0
   -5.3210   22.7550  -31.3210 N   0  0  0  0  0  0  0  0  0  0  0  0
   -6.0650   23.8500  -30.9920 C   0  0  0  0  0  0  0  0  0  0  0  0
   -5.5400   25.1330  -30.4860 C   0  0  0  0  0  0  0  0  0  0  0  0
   -4.2130   25.5630  -30.7940 N   0  0  0  0  0  0  0  0  0  0  0  0
   -6.2550   25.8370  -29.7240 O   0  0  0  0  0  0  0  0  0  0  0  0
   -7.4230   23.5840  -31.1460 C   0  0  0  0  0  0  0  0  0  0  0  0
   -7.4910   22.2760  -31.5700 C   0  0  0  0  0  0  0  0  0  0  0  0
   -8.5990   21.4940  -31.8820 C   0  0  0  0  0  0  0  0  0  0  0  0
   -8.3740   20.1800  -32.3250 C   0  0  0  0  0  0  0  0  0  0  0  0
   -7.0550   19.6820  -32.4660 C   0  0  0  0  0  0  0  0  0  0  0  0
   -6.8260   18.2660  -32.9230 C   0  0  0  0  0  0  0  0  0  0  0  0
   -5.6770   18.2050  -33.9300 C   0  0  0  0  0  0  0  0  0  0  0  0
   -6.0730   18.8410  -35.1830 N   0  0  0  0  0  0  0  0  0  0  0  0
   -5.9550   20.5030  -32.1310 C   0  0  0  0  0  0  0  0  0  0  0  0
   -6.2100   21.7990  -31.6700 C   0  0  0  0  0  0  0  0  0  0  0  0
   -3.7898   23.1430  -27.0886 H   0  0  0  0  0  0  0  0  0  0  0  0
   -4.2788   24.3282  -28.3468 H   0  0  0  0  0  0  0  0  0  0  0  0
   -4.9837   22.6760  -28.3468 H   0  0  0  0  0  0  0  0  0  0  0  0
   -1.5998   23.2123  -27.3905 H   0  0  0  0  0  0  0  0  0  0  0  0
   -0.7845   22.5338  -28.8402 H   0  0  0  0  0  0  0  0  0  0  0  0
   -1.3423   24.2413  -28.8402 H   0  0  0  0  0  0  0  0  0  0  0  0
   -2.9750   20.8352  -28.0870 H   0  0  0  0  0  0  0  0  0  0  0  0
   -3.8716   20.9158  -29.6415 H   0  0  0  0  0  0  0  0  0  0  0  0
   -2.0757   20.8761  -29.6415 H   0  0  0  0  0  0  0  0  0  0  0  0
   -3.8740   26.4940  -30.4620 H   0  0  0  0  0  0  0  0  0  0  0  0
   -3.5370   24.9290  -31.2730 H   0  0  0  0  0  0  0  0  0  0  0  0
   -8.2624   24.2721  -30.9671 H   0  0  0  0  0  0  0  0  0  0  0  0
   -9.6196   21.8925  -31.7847 H   0  0  0  0  0  0  0  0  0  0  0  0
   -9.2297   19.5317  -32.5646 H   0  0  0  0  0  0  0  0  0  0  0  0
   -6.5776   17.6409  -32.0527 H   0  0  0  0  0  0  0  0  0  0  0  0
   -7.7421   17.8970  -33.4073 H   0  0  0  0  0  0  0  0  0  0  0  0
   -4.8028   18.7291  -33.5165 H   0  0  0  0  0  0  0  0  0  0  0  0
   -5.4249   17.1522  -34.1249 H   0  0  0  0  0  0  0  0  0  0  0  0
   -6.6490   19.6850  -34.9530 H   0  0  0  0  0  0  0  0  0  0  0  0
   -6.7050   18.1810  -35.6900 H   0  0  0  0  0  0  0  0  0  0  0  0
   -4.9240   20.1325  -32.2302 H   0  0  0  0  0  0  0  0  0  0  0  0
  1  2  1  0
  2  3  1  0
  2  4  1  0
  2  5  1  0
  5  6  1  0
  6  7  2  0
  6  8  1  0
  8  9  1  0
  9 10  1  0
 10 11  1  0
 10 12  2  0
  9 13  2  0
 13 14  1  0
 14 15  2  0
 15 16  1  0
 16 17  2  0
 17 18  1  0
 18 19  1  0
 19 20  1  0
 17 21  1  0
 21 22  2  0
 22  8  1  0
 22 14  1  0
  1 23  1  0
  1 24  1  0
  1 25  1  0
  3 26  1  0
  3 27  1  0
  3 28  1  0
  4 29  1  0
  4 30  1  0
  4 31  1  0
 11 32  1  0
 11 33  1  0
 13 34  1  0
 15 35  1  0
 16 36  1  0
 18 37  1  0
 18 38  1  0
 19 39  1  0
 19 40  1  0
 20 41  1  0
 20 42  1  0
 21 43  1  0
M  END
>  <UniqueID>  (70) 
69

>  <SMILES>  (70) 
CC(C)(C)OC(=O)n1c(C(N)=O)cc2ccc(CCN)cc21

>  <Energy>  (70) 
72.60099264608017

>  <Genealogy>  (70) 
CC(C)(C)OC(=O)n1c(C(N)=O)cc2ccc(CCN)cc21 (3D coordinates assigned)
CC(C)(C)OC(=O)n1c(C(N)=O)cc2ccc(CCN)cc21 (optimized conformer: 72.60099264608017 kcal/mol)

>  <smiles>  (70) 
CC(C)(C)OC(=O)n1c(C(N)=O)cc2ccc(CCN)cc21

>  <score_type>  (70) 
oracle

>  <origin>  (70) 
adg

>  <m_score__min__energy>  (70) 
-8.9600000000000009

>  <m_primary>  (70) 
energy

$$$$
70:0
     RDKit          3D

 52 54  0  0  0  0  0  0  0  0999 V2000
   -3.9200   18.0230  -33.6800 C   0  0  0  0  0  0  0  0  0  0  0  0
   -4.2410   19.3580  -33.1770 N   0  0  0  0  0  0  0  0  0  0  0  0
   -5.3770   20.0900  -33.7490 C   0  0  0  0  0  0  0  0  0  0  0  0
   -6.6430   19.7740  -33.0010 C   0  0  0  0  0  0  0  0  0  0  0  0
   -7.5490   20.8010  -32.6870 C   0  0  0  0  0  0  0  0  0  0  0  0
   -8.7400   20.5080  -32.0150 C   0  0  0  0  0  0  0  0  0  0  0  0
   -9.0350   19.1900  -31.6550 C   0  0  0  0  0  0  0  0  0  0  0  0
   -8.1400   18.1630  -31.9670 C   0  0  0  0  0  0  0  0  0  0  0  0
   -6.9480   18.4510  -32.6380 C   0  0  0  0  0  0  0  0  0  0  0  0
   -3.2600   20.0710  -32.4050 C   0  0  0  0  0  0  0  0  0  0  0  0
   -1.9500   19.5520  -32.2680 C   0  0  0  0  0  0  0  0  0  0  0  0
   -0.9810   20.2440  -31.5220 C   0  0  0  0  0  0  0  0  0  0  0  0
   -1.3530   21.4460  -30.9270 C   0  0  0  0  0  0  0  0  0  0  0  0
   -0.6100   22.3310  -30.1790 C   0  0  0  0  0  0  0  0  0  0  0  0
   -1.4820   23.3690  -29.8590 C   0  0  0  0  0  0  0  0  0  0  0  0
   -1.1130   24.5040  -28.9890 C   0  0  0  0  0  0  0  0  0  0  0  0
   -1.9250   25.6760  -28.9680 N   0  0  0  0  0  0  0  0  0  0  0  0
   -0.0660   24.4680  -28.2910 O   0  0  0  0  0  0  0  0  0  0  0  0
   -2.7160   23.1390  -30.3930 N   0  0  0  0  0  0  0  0  0  0  0  0
   -3.8610   24.0030  -30.3600 C   0  0  0  0  0  0  0  0  0  0  0  0
   -3.7640   25.1840  -30.7910 O   0  0  0  0  0  0  0  0  0  0  0  0
   -5.0700   23.5280  -29.8280 O   0  0  0  0  0  0  0  0  0  0  0  0
   -6.3870   23.8250  -30.3110 C   0  0  0  0  0  0  0  0  0  0  0  0
   -6.8600   25.1960  -29.7890 C   0  0  0  0  0  0  0  0  0  0  0  0
   -7.3250   22.7370  -29.7670 C   0  0  0  0  0  0  0  0  0  0  0  0
   -6.4230   23.7880  -31.8510 C   0  0  0  0  0  0  0  0  0  0  0  0
   -2.6210   21.9570  -31.0430 C   0  0  0  0  0  0  0  0  0  0  0  0
   -3.5990   21.2970  -31.7940 C   0  0  0  0  0  0  0  0  0  0  0  0
   -3.7561   17.3414  -32.8323 H   0  0  0  0  0  0  0  0  0  0  0  0
   -4.7545   17.6517  -34.2930 H   0  0  0  0  0  0  0  0  0  0  0  0
   -3.0080   18.0717  -34.2930 H   0  0  0  0  0  0  0  0  0  0  0  0
   -5.1797   21.1703  -33.6851 H   0  0  0  0  0  0  0  0  0  0  0  0
   -5.5011   19.7866  -34.7990 H   0  0  0  0  0  0  0  0  0  0  0  0
   -7.3208   21.8390  -32.9707 H   0  0  0  0  0  0  0  0  0  0  0  0
   -9.4453   21.3156  -31.7695 H   0  0  0  0  0  0  0  0  0  0  0  0
   -9.9719   18.9611  -31.1260 H   0  0  0  0  0  0  0  0  0  0  0  0
   -8.3740   17.1261  -31.6840 H   0  0  0  0  0  0  0  0  0  0  0  0
   -6.2466   17.6397  -32.8826 H   0  0  0  0  0  0  0  0  0  0  0  0
   -1.6884   18.5984  -32.7499 H   0  0  0  0  0  0  0  0  0  0  0  0
    0.0394   19.8483  -31.4117 H   0  0  0  0  0  0  0  0  0  0  0  0
    0.4484   22.2382  -29.8942 H   0  0  0  0  0  0  0  0  0  0  0  0
   -2.9030   25.6570  -29.3340 H   0  0  0  0  0  0  0  0  0  0  0  0
   -6.8580   25.1901  -28.6890 H   0  0  0  0  0  0  0  0  0  0  0  0
   -6.1808   25.9811  -30.1527 H   0  0  0  0  0  0  0  0  0  0  0  0
   -7.8788   25.3952  -30.1527 H   0  0  0  0  0  0  0  0  0  0  0  0
   -7.3091   22.7555  -28.6673 H   0  0  0  0  0  0  0  0  0  0  0  0
   -8.3491   22.9247  -30.1221 H   0  0  0  0  0  0  0  0  0  0  0  0
   -6.9886   21.7517  -30.1221 H   0  0  0  0  0  0  0  0  0  0  0  0
   -7.1544   23.0363  -32.1827 H   0  0  0  0  0  0  0  0  0  0  0  0
   -6.7139   24.7770  -32.2348 H   0  0  0  0  0  0  0  0  0  0  0  0
   -5.4264   23.5243  -32.2348 H   0  0  0  0  0  0  0  0  0  0  0  0
   -4.6071   21.7229  -31.9056 H   0  0  0  0  0  0  0  0  0  0  0  0
  1  2  1  0
  2  3  1  0
  3  4  1  0
  4  5  2  0
  5  6  1  0
  6  7  2  0
  7  8  1  0
  8  9  2  0
  2 10  1  0
 10 11  2  0
 11 12  1  0
 12 13  2  0
 13 14  1  0
 14 15  2  0
 15 16  1  0
 16 17  1  0
 16 18  2  0
 15 19  1  0
 19 20  1  0
 20 21  2  0
 20 22  1  0
 22 23  1  0
 23 24  1  0
 23 25  1  0
 23 26  1  0
 19 27  1  0
 27 28  2  0
  9  4  1  0
 28 10  1  0
 27 13  1  0
  1 29  1  0
  1 30  1  0
  1 31  1  0
  3 32  1  0
  3 33  1  0
  5 34  1  0
  6 35  1  0
  7 36  1  0
  8 37  1  0
  9 38  1  0
 11 39  1  0
 12 40  1  0
 14 41  1  0
 17 42  1  0
 24 43  1  0
 24 44  1  0
 24 45  1  0
 25 46  1  0
 25 47  1  0
 25 48  1  0
 26 49  1  0
 26 50  1  0
 26 51  1  0
 28 52  1  0
M  CHG  1  17  -1
M  END
>  <UniqueID>  (71) 
70

>  <SMILES>  (71) 
CN(Cc1ccccc1)c1ccc2cc(C([NH-])=O)n(C(=O)OC(C)(C)C)c2c1

>  <Energy>  (71) 
90.60704313913884

>  <Genealogy>  (71) 
CN(Cc1ccccc1)c1ccc2cc(C([NH-])=O)n(C(=O)OC(C)(C)C)c2c1 (protonated)
CN(Cc1ccccc1)c1ccc2cc(C([NH-])=O)n(C(=O)OC(C)(C)C)c2c1 (3D coordinates assigned)
CN(Cc1ccccc1)c1ccc2cc(C([NH-])=O)n(C(=O)OC(C)(C)C)c2c1 (optimized conformer: 90.60704313913884 kcal/mol)

>  <smiles>  (71) 
CN(Cc1ccccc1)c1ccc2cc(C(N)=O)n(C(=O)OC(C)(C)C)c2c1

>  <score_type>  (71) 
oracle

>  <origin>  (71) 
adg

>  <m_score__min__energy>  (71) 
-12.15

>  <m_primary>  (71) 
energy

$$$$
71:0
     RDKit          3D

 46 49  0  0  0  0  0  0  0  0999 V2000
   -0.9180   15.9540  -32.7990 C   0  0  0  0  0  0  0  0  0  0  0  0
   -0.2730   17.1900  -32.5130 O   0  0  0  0  0  0  0  0  0  0  0  0
   -0.9150   18.4380  -32.5190 C   0  0  0  0  0  0  0  0  0  0  0  0
   -1.6260   18.8160  -33.6630 C   0  0  0  0  0  0  0  0  0  0  0  0
   -2.2800   20.0510  -33.7170 C   0  0  0  0  0  0  0  0  0  0  0  0
   -2.2220   20.9330  -32.6240 C   0  0  0  0  0  0  0  0  0  0  0  0
   -2.8750   22.1740  -32.6260 O   0  0  0  0  0  0  0  0  0  0  0  0
   -3.4860   22.7690  -31.5150 C   0  0  0  0  0  0  0  0  0  0  0  0
   -2.7890   23.2510  -30.5800 O   0  0  0  0  0  0  0  0  0  0  0  0
   -4.9190   22.8040  -31.4300 N   0  0  0  0  0  0  0  0  0  0  0  0
   -5.7130   23.8420  -31.0420 C   0  0  0  0  0  0  0  0  0  0  0  0
   -5.2530   25.1200  -30.4610 C   0  0  0  0  0  0  0  0  0  0  0  0
   -3.9890   25.6750  -30.8140 N   0  0  0  0  0  0  0  0  0  0  0  0
   -5.9650   25.7060  -29.6010 O   0  0  0  0  0  0  0  0  0  0  0  0
   -7.0580   23.5080  -31.1920 C   0  0  0  0  0  0  0  0  0  0  0  0
   -7.0630   22.2210  -31.6780 C   0  0  0  0  0  0  0  0  0  0  0  0
   -8.1300   21.3970  -32.0200 C   0  0  0  0  0  0  0  0  0  0  0  0
   -7.8410   20.1190  -32.5260 C   0  0  0  0  0  0  0  0  0  0  0  0
   -6.4990   19.6890  -32.6920 C   0  0  0  0  0  0  0  0  0  0  0  0
   -6.2040   18.3410  -33.2400 C   0  0  0  0  0  0  0  0  0  0  0  0
   -7.1390   17.2970  -33.1130 C   0  0  0  0  0  0  0  0  0  0  0  0
   -6.8580   16.0280  -33.6270 C   0  0  0  0  0  0  0  0  0  0  0  0
   -5.6440   15.7860  -34.2740 C   0  0  0  0  0  0  0  0  0  0  0  0
   -4.7080   16.8140  -34.4080 C   0  0  0  0  0  0  0  0  0  0  0  0
   -4.9830   18.0850  -33.8950 C   0  0  0  0  0  0  0  0  0  0  0  0
   -5.4410   20.5600  -32.3340 C   0  0  0  0  0  0  0  0  0  0  0  0
   -5.7600   21.8190  -31.8130 C   0  0  0  0  0  0  0  0  0  0  0  0
   -1.5270   20.5470  -31.4720 C   0  0  0  0  0  0  0  0  0  0  0  0
   -0.8710   19.3140  -31.4170 C   0  0  0  0  0  0  0  0  0  0  0  0
   -1.1806   15.4508  -31.8567 H   0  0  0  0  0  0  0  0  0  0  0  0
   -1.8322   16.1435  -33.3807 H   0  0  0  0  0  0  0  0  0  0  0  0
   -0.2397   15.3124  -33.3807 H   0  0  0  0  0  0  0  0  0  0  0  0
   -1.6710   18.1365  -34.5268 H   0  0  0  0  0  0  0  0  0  0  0  0
   -2.8425   20.3335  -34.6191 H   0  0  0  0  0  0  0  0  0  0  0  0
   -3.0990   25.2130  -30.5220 H   0  0  0  0  0  0  0  0  0  0  0  0
   -7.9305   24.1397  -30.9690 H   0  0  0  0  0  0  0  0  0  0  0  0
   -9.1693   21.7361  -31.8978 H   0  0  0  0  0  0  0  0  0  0  0  0
   -8.6654   19.4430  -32.7970 H   0  0  0  0  0  0  0  0  0  0  0  0
   -8.0976   17.4809  -32.6057 H   0  0  0  0  0  0  0  0  0  0  0  0
   -7.5947   15.2179  -33.5217 H   0  0  0  0  0  0  0  0  0  0  0  0
   -5.4252   14.7864  -34.6777 H   0  0  0  0  0  0  0  0  0  0  0  0
   -3.7524   16.6231  -34.9183 H   0  0  0  0  0  0  0  0  0  0  0  0
   -4.2415   18.8903  -34.0034 H   0  0  0  0  0  0  0  0  0  0  0  0
   -4.3924   20.2537  -32.4626 H   0  0  0  0  0  0  0  0  0  0  0  0
   -1.4968   21.2199  -30.6023 H   0  0  0  0  0  0  0  0  0  0  0  0
   -0.3186   19.0269  -30.5101 H   0  0  0  0  0  0  0  0  0  0  0  0
  1  2  1  0
  2  3  1  0
  3  4  2  0
  4  5  1  0
  5  6  2  0
  6  7  1  0
  7  8  1  0
  8  9  2  0
  8 10  1  0
 10 11  1  0
 11 12  1  0
 12 13  1  0
 12 14  2  0
 11 15  2  0
 15 16  1  0
 16 17  2  0
 17 18  1  0
 18 19  2  0
 19 20  1  0
 20 21  2  0
 21 22  1  0
 22 23  2  0
 23 24  1  0
 24 25  2  0
 19 26  1  0
 26 27  2  0
  6 28  1  0
 28 29  2  0
 29  3  1  0
 27 10  1  0
 27 16  1  0
 25 20  1  0
  1 30  1  0
  1 31  1  0
  1 32  1  0
  4 33  1  0
  5 34  1  0
 13 35  1  0
 15 36  1  0
 17 37  1  0
 18 38  1  0
 21 39  1  0
 22 40  1  0
 23 41  1  0
 24 42  1  0
 25 43  1  0
 26 44  1  0
 28 45  1  0
 29 46  1  0
M  CHG  1  13  -1
M  END
>  <UniqueID>  (72) 
71

>  <SMILES>  (72) 
COc1ccc(OC(=O)n2c(C([NH-])=O)cc3ccc(-c4ccccc4)cc32)cc1

>  <Energy>  (72) 
99.17939742083594

>  <Genealogy>  (72) 
COc1ccc(OC(=O)n2c(C([NH-])=O)cc3ccc(-c4ccccc4)cc32)cc1 (protonated)
COc1ccc(OC(=O)n2c(C([NH-])=O)cc3ccc(-c4ccccc4)cc32)cc1 (3D coordinates assigned)
COc1ccc(OC(=O)n2c(C([NH-])=O)cc3ccc(-c4ccccc4)cc32)cc1 (optimized conformer: 99.17939742083594 kcal/mol)

>  <smiles>  (72) 
COc1ccc(OC(=O)n2c(C(N)=O)cc3ccc(-c4ccccc4)cc32)cc1

>  <score_type>  (72) 
oracle

>  <origin>  (72) 
adg

>  <m_score__min__energy>  (72) 
-11.699999999999999

>  <m_primary>  (72) 
energy

$$$$
72:0
     RDKit          3D

 56 58  0  0  0  0  0  0  0  0999 V2000
   -6.8350   25.3230  -29.3550 C   0  0  0  0  0  0  0  0  0  0  0  0
   -5.7320   26.0940  -30.0710 C   0  0  0  0  0  0  0  0  0  0  0  0
   -4.9020   25.2100  -30.8240 O   0  0  0  0  0  0  0  0  0  0  0  0
   -5.2400   23.9060  -31.2290 C   0  0  0  0  0  0  0  0  0  0  0  0
   -6.3940   23.6320  -31.9870 C   0  0  0  0  0  0  0  0  0  0  0  0
   -6.7030   22.3240  -32.3620 C   0  0  0  0  0  0  0  0  0  0  0  0
   -5.8720   21.2580  -31.9850 C   0  0  0  0  0  0  0  0  0  0  0  0
   -6.2000   19.8660  -32.3860 C   0  0  0  0  0  0  0  0  0  0  0  0
   -7.5510   19.4300  -32.4290 C   0  0  0  0  0  0  0  0  0  0  0  0
   -7.8730   18.1210  -32.8220 C   0  0  0  0  0  0  0  0  0  0  0  0
   -6.8290   17.2650  -33.1570 C   0  0  0  0  0  0  0  0  0  0  0  0
   -6.8600   15.9610  -33.5990 C   0  0  0  0  0  0  0  0  0  0  0  0
   -5.5270   15.6070  -33.7990 C   0  0  0  0  0  0  0  0  0  0  0  0
   -5.0800   14.2550  -34.2010 C   0  0  0  0  0  0  0  0  0  0  0  0
   -3.8020   14.0580  -34.8080 N   0  0  0  0  0  0  0  0  0  0  0  0
   -5.8390   13.2630  -34.0370 O   0  0  0  0  0  0  0  0  0  0  0  0
   -4.7060   16.6510  -33.4910 N   0  0  0  0  0  0  0  0  0  0  0  0
   -3.2780   16.7100  -33.6310 C   0  0  0  0  0  0  0  0  0  0  0  0
   -2.5560   15.8370  -33.0740 O   0  0  0  0  0  0  0  0  0  0  0  0
   -2.6950   17.7480  -34.3670 O   0  0  0  0  0  0  0  0  0  0  0  0
   -1.5950   18.5300  -33.9030 C   0  0  0  0  0  0  0  0  0  0  0  0
   -2.0460   19.5450  -32.8350 C   0  0  0  0  0  0  0  0  0  0  0  0
   -1.0270   19.6620  -31.6930 C   0  0  0  0  0  0  0  0  0  0  0  0
   -2.2790   20.9190  -33.4750 C   0  0  0  0  0  0  0  0  0  0  0  0
   -5.5180   17.6580  -33.1010 C   0  0  0  0  0  0  0  0  0  0  0  0
   -5.1680   18.9620  -32.7340 C   0  0  0  0  0  0  0  0  0  0  0  0
   -4.7220   21.5290  -31.2250 C   0  0  0  0  0  0  0  0  0  0  0  0
   -4.4000   22.8420  -30.8510 C   0  0  0  0  0  0  0  0  0  0  0  0
   -2.9490   23.1460  -29.8900 S   0  0  0  0  0  0  0  0  0  0  0  0
   -2.7630   24.8470  -29.6450 N   0  0  0  0  0  0  0  0  0  0  0  0
   -3.0600   22.4670  -28.5530 O   0  0  0  0  0  0  0  0  0  0  0  0
   -1.7440   22.6020  -30.6050 O   0  0  0  0  0  0  0  0  0  0  0  0
   -6.7011   25.4166  -28.2672 H   0  0  0  0  0  0  0  0  0  0  0  0
   -7.8145   25.7341  -29.6406 H   0  0  0  0  0  0  0  0  0  0  0  0
   -6.7854   24.2619  -29.6406 H   0  0  0  0  0  0  0  0  0  0  0  0
   -6.1884   26.8276  -30.7518 H   0  0  0  0  0  0  0  0  0  0  0  0
   -5.1125   26.6036  -29.3183 H   0  0  0  0  0  0  0  0  0  0  0  0
   -7.0581   24.4563  -32.2864 H   0  0  0  0  0  0  0  0  0  0  0  0
   -7.6060   22.1268  -32.9584 H   0  0  0  0  0  0  0  0  0  0  0  0
   -8.3555   20.1268  -32.1508 H   0  0  0  0  0  0  0  0  0  0  0  0
   -8.9189   17.7828  -32.8637 H   0  0  0  0  0  0  0  0  0  0  0  0
   -7.7482   15.3324  -33.7600 H   0  0  0  0  0  0  0  0  0  0  0  0
   -3.1220   14.8430  -34.9100 H   0  0  0  0  0  0  0  0  0  0  0  0
   -3.5130   13.1050  -35.1230 H   0  0  0  0  0  0  0  0  0  0  0  0
   -0.8382   17.8617  -33.4663 H   0  0  0  0  0  0  0  0  0  0  0  0
   -1.1763   19.0840  -34.7561 H   0  0  0  0  0  0  0  0  0  0  0  0
   -2.9895   19.1774  -32.4053 H   0  0  0  0  0  0  0  0  0  0  0  0
   -1.5501   19.6019  -30.7272 H   0  0  0  0  0  0  0  0  0  0  0  0
   -0.2979   18.8417  -31.7667 H   0  0  0  0  0  0  0  0  0  0  0  0
   -0.5028   20.6262  -31.7667 H   0  0  0  0  0  0  0  0  0  0  0  0
   -2.4071   21.6742  -32.6856 H   0  0  0  0  0  0  0  0  0  0  0  0
   -1.4130   21.1843  -34.0993 H   0  0  0  0  0  0  0  0  0  0  0  0
   -3.1840   20.8840  -34.0993 H   0  0  0  0  0  0  0  0  0  0  0  0
   -4.1144   19.2776  -32.7163 H   0  0  0  0  0  0  0  0  0  0  0  0
   -4.0656   20.7009  -30.9193 H   0  0  0  0  0  0  0  0  0  0  0  0
   -2.7600   25.2950  -30.5870 H   0  0  0  0  0  0  0  0  0  0  0  0
  1  2  1  0
  2  3  1  0
  3  4  1  0
  4  5  2  0
  5  6  1  0
  6  7  2  0
  7  8  1  0
  8  9  2  0
  9 10  1  0
 10 11  2  0
 11 12  1  0
 12 13  2  0
 13 14  1  0
 14 15  1  0
 14 16  2  0
 13 17  1  0
 17 18  1  0
 18 19  2  0
 18 20  1  0
 20 21  1  0
 21 22  1  0
 22 23  1  0
 22 24  1  0
 17 25  1  0
 25 26  2  0
  7 27  1  0
 27 28  2  0
 28 29  1  0
 29 30  1  0
 29 31  2  0
 29 32  2  0
 28  4  1  0
 26  8  1  0
 25 11  1  0
  1 33  1  0
  1 34  1  0
  1 35  1  0
  2 36  1  0
  2 37  1  0
  5 38  1  0
  6 39  1  0
  9 40  1  0
 10 41  1  0
 12 42  1  0
 15 43  1  0
 15 44  1  0
 21 45  1  0
 21 46  1  0
 22 47  1  0
 23 48  1  0
 23 49  1  0
 23 50  1  0
 24 51  1  0
 24 52  1  0
 24 53  1  0
 26 54  1  0
 27 55  1  0
 30 56  1  0
M  CHG  1  30  -1
M  END
>  <UniqueID>  (73) 
72

>  <SMILES>  (73) 
CCOc1ccc(-c2ccc3cc(C(N)=O)n(C(=O)OCC(C)C)c3c2)cc1S([NH-])(=O)=O

>  <Energy>  (73) 
93.63569319078654

>  <Genealogy>  (73) 
CCOc1ccc(-c2ccc3cc(C(N)=O)n(C(=O)OCC(C)C)c3c2)cc1S([NH-])(=O)=O (protonated)
CCOc1ccc(-c2ccc3cc(C(N)=O)n(C(=O)OCC(C)C)c3c2)cc1S([NH-])(=O)=O (3D coordinates assigned)
CCOc1ccc(-c2ccc3cc(C(N)=O)n(C(=O)OCC(C)C)c3c2)cc1S([NH-])(=O)=O (optimized conformer: 93.63569319078654 kcal/mol)

>  <smiles>  (73) 
CCOc1ccc(-c2ccc3cc(C(N)=O)n(C(=O)OCC(C)C)c3c2)cc1S(N)(=O)=O

>  <score_type>  (73) 
oracle

>  <origin>  (73) 
adg

>  <m_score__min__energy>  (73) 
-10.449999999999999

>  <m_primary>  (73) 
energy

$$$$
73:0
     RDKit          3D

 41 43  0  0  0  0  0  0  0  0999 V2000
   -2.9950   20.1120  -33.1910 C   0  0  0  0  0  0  0  0  0  0  0  0
   -3.5080   21.5340  -33.3850 C   0  0  0  0  0  0  0  0  0  0  0  0
   -3.4780   22.2530  -32.1550 O   0  0  0  0  0  0  0  0  0  0  0  0
   -4.2770   21.9300  -31.0520 C   0  0  0  0  0  0  0  0  0  0  0  0
   -3.7760   21.3490  -30.0500 O   0  0  0  0  0  0  0  0  0  0  0  0
   -5.6730   22.2680  -31.0580 N   0  0  0  0  0  0  0  0  0  0  0  0
   -6.2320   23.4830  -30.7910 C   0  0  0  0  0  0  0  0  0  0  0  0
   -5.5180   24.6700  -30.2790 C   0  0  0  0  0  0  0  0  0  0  0  0
   -5.9110   25.3020  -29.0600 N   0  0  0  0  0  0  0  0  0  0  0  0
   -4.5790   25.1670  -30.9570 O   0  0  0  0  0  0  0  0  0  0  0  0
   -7.6050   23.4540  -31.0200 C   0  0  0  0  0  0  0  0  0  0  0  0
   -7.8780   22.1680  -31.4250 C   0  0  0  0  0  0  0  0  0  0  0  0
   -9.0840   21.5870  -31.8050 C   0  0  0  0  0  0  0  0  0  0  0  0
   -9.0680   20.2470  -32.2230 C   0  0  0  0  0  0  0  0  0  0  0  0
   -7.8540   19.5140  -32.2530 C   0  0  0  0  0  0  0  0  0  0  0  0
   -7.8400   18.0970  -32.7550 C   0  0  0  0  0  0  0  0  0  0  0  0
   -6.4890   17.7610  -33.3240 C   0  0  0  0  0  0  0  0  0  0  0  0
   -6.0450   18.3600  -34.5120 C   0  0  0  0  0  0  0  0  0  0  0  0
   -4.8360   18.0230  -35.0390 N   0  0  0  0  0  0  0  0  0  0  0  0
   -4.0300   17.1030  -34.4450 C   0  0  0  0  0  0  0  0  0  0  0  0
   -4.4380   16.4720  -33.2680 C   0  0  0  0  0  0  0  0  0  0  0  0
   -3.6420   15.5480  -32.6760 F   0  0  0  0  0  0  0  0  0  0  0  0
   -5.6750   16.8000  -32.7080 C   0  0  0  0  0  0  0  0  0  0  0  0
   -6.6470   20.1410  -31.8720 C   0  0  0  0  0  0  0  0  0  0  0  0
   -6.6950   21.4710  -31.4400 C   0  0  0  0  0  0  0  0  0  0  0  0
   -2.9164   19.8941  -32.1157 H   0  0  0  0  0  0  0  0  0  0  0  0
   -3.6940   19.4030  -33.6587 H   0  0  0  0  0  0  0  0  0  0  0  0
   -2.0043   20.0126  -33.6587 H   0  0  0  0  0  0  0  0  0  0  0  0
   -2.8728   22.0498  -34.1202 H   0  0  0  0  0  0  0  0  0  0  0  0
   -4.5472   21.4891  -33.7429 H   0  0  0  0  0  0  0  0  0  0  0  0
   -5.3680   26.1140  -28.6930 H   0  0  0  0  0  0  0  0  0  0  0  0
   -6.7870   25.0230  -28.5660 H   0  0  0  0  0  0  0  0  0  0  0  0
   -8.3190   24.2825  -30.9022 H   0  0  0  0  0  0  0  0  0  0  0  0
  -10.0221   22.1608  -31.7786 H   0  0  0  0  0  0  0  0  0  0  0  0
  -10.0057   19.7609  -32.5302 H   0  0  0  0  0  0  0  0  0  0  0  0
   -8.0635   17.4142  -31.9220 H   0  0  0  0  0  0  0  0  0  0  0  0
   -8.5989   17.9881  -33.5438 H   0  0  0  0  0  0  0  0  0  0  0  0
   -6.6759   19.1046  -35.0195 H   0  0  0  0  0  0  0  0  0  0  0  0
   -3.0558   16.8556  -34.8920 H   0  0  0  0  0  0  0  0  0  0  0  0
   -6.0101   16.3048  -31.7847 H   0  0  0  0  0  0  0  0  0  0  0  0
   -5.6920   19.5967  -31.9139 H   0  0  0  0  0  0  0  0  0  0  0  0
  1  2  1  0
  2  3  1  0
  3  4  1  0
  4  5  2  0
  4  6  1  0
  6  7  1  0
  7  8  1  0
  8  9  1  0
  8 10  2  0
  7 11  2  0
 11 12  1  0
 12 13  2  0
 13 14  1  0
 14 15  2  0
 15 16  1  0
 16 17  1  0
 17 18  2  0
 18 19  1  0
 19 20  2  0
 20 21  1  0
 21 22  1  0
 21 23  2  0
 15 24  1  0
 24 25  2  0
 25  6  1  0
 25 12  1  0
 23 17  1  0
  1 26  1  0
  1 27  1  0
  1 28  1  0
  2 29  1  0
  2 30  1  0
  9 31  1  0
  9 32  1  0
 11 33  1  0
 13 34  1  0
 14 35  1  0
 16 36  1  0
 16 37  1  0
 18 38  1  0
 20 39  1  0
 23 40  1  0
 24 41  1  0
M  END
>  <UniqueID>  (74) 
73

>  <SMILES>  (74) 
CCOC(=O)n1c(C(N)=O)cc2ccc(Cc3cncc(F)c3)cc21

>  <Energy>  (74) 
77.96489946273647

>  <Genealogy>  (74) 
CCOC(=O)n1c(C(N)=O)cc2ccc(Cc3cncc(F)c3)cc21 (3D coordinates assigned)
CCOC(=O)n1c(C(N)=O)cc2ccc(Cc3cncc(F)c3)cc21 (optimized conformer: 77.96489946273647 kcal/mol)

>  <smiles>  (74) 
CCOC(=O)n1c(C(N)=O)cc2ccc(Cc3cncc(F)c3)cc21

>  <score_type>  (74) 
oracle

>  <origin>  (74) 
adg

>  <m_score__min__energy>  (74) 
-9.0099999999999998

>  <m_primary>  (74) 
energy

$$$$
74:0
     RDKit          3D

 30 31  0  0  0  0  0  0  0  0999 V2000
   -6.8700   20.5680  -32.6030 C   0  0  0  0  0  0  0  0  0  0  0  0
   -5.5940   20.3580  -33.4270 C   0  0  0  0  0  0  0  0  0  0  0  0
   -5.4690   18.9020  -33.8890 C   0  0  0  0  0  0  0  0  0  0  0  0
   -4.3650   20.7930  -32.6520 C   0  0  0  0  0  0  0  0  0  0  0  0
   -3.2010   19.9790  -32.6140 C   0  0  0  0  0  0  0  0  0  0  0  0
   -2.0680   20.3770  -31.8860 C   0  0  0  0  0  0  0  0  0  0  0  0
   -2.1200   21.5920  -31.2120 C   0  0  0  0  0  0  0  0  0  0  0  0
   -1.1790   22.2010  -30.4140 C   0  0  0  0  0  0  0  0  0  0  0  0
   -1.7670   23.3910  -29.9920 C   0  0  0  0  0  0  0  0  0  0  0  0
   -1.0590   24.4020  -29.1790 C   0  0  0  0  0  0  0  0  0  0  0  0
   -1.6180   25.6970  -28.9690 N   0  0  0  0  0  0  0  0  0  0  0  0
    0.0780   24.1360  -28.7050 O   0  0  0  0  0  0  0  0  0  0  0  0
   -3.0260   23.5100  -30.5010 N   0  0  0  0  0  0  0  0  0  0  0  0
   -3.9900   24.5390  -30.2260 C   0  0  0  0  0  0  0  0  0  0  0  0
   -3.8760   25.6760  -30.7540 O   0  0  0  0  0  0  0  0  0  0  0  0
   -5.0750   24.2800  -29.3970 O   0  0  0  0  0  0  0  0  0  0  0  0
   -3.2250   22.4010  -31.2490 C   0  0  0  0  0  0  0  0  0  0  0  0
   -4.3760   22.0210  -31.9510 C   0  0  0  0  0  0  0  0  0  0  0  0
   -6.6252   20.5277  -31.5313 H   0  0  0  0  0  0  0  0  0  0  0  0
   -7.3042   21.5497  -32.8433 H   0  0  0  0  0  0  0  0  0  0  0  0
   -7.5959   19.7772  -32.8433 H   0  0  0  0  0  0  0  0  0  0  0  0
   -5.6658   20.9902  -34.3243 H   0  0  0  0  0  0  0  0  0  0  0  0
   -5.4124   18.2422  -33.0107 H   0  0  0  0  0  0  0  0  0  0  0  0
   -6.3473   18.6326  -34.4940 H   0  0  0  0  0  0  0  0  0  0  0  0
   -4.5576   18.7862  -34.4940 H   0  0  0  0  0  0  0  0  0  0  0  0
   -3.1872   19.0251  -33.1617 H   0  0  0  0  0  0  0  0  0  0  0  0
   -1.1671   19.7469  -31.8501 H   0  0  0  0  0  0  0  0  0  0  0  0
   -0.1754   21.8274  -30.1627 H   0  0  0  0  0  0  0  0  0  0  0  0
   -2.6510   25.8430  -28.9680 H   0  0  0  0  0  0  0  0  0  0  0  0
   -5.2687   22.6637  -31.9568 H   0  0  0  0  0  0  0  0  0  0  0  0
  1  2  1  0
  2  3  1  0
  2  4  1  0
  4  5  2  0
  5  6  1  0
  6  7  2  0
  7  8  1  0
  8  9  2  0
  9 10  1  0
 10 11  1  0
 10 12  2  0
  9 13  1  0
 13 14  1  0
 14 15  2  0
 14 16  1  0
 13 17  1  0
 17 18  2  0
 18  4  1  0
 17  7  1  0
  1 19  1  0
  1 20  1  0
  1 21  1  0
  2 22  1  0
  3 23  1  0
  3 24  1  0
  3 25  1  0
  5 26  1  0
  6 27  1  0
  8 28  1  0
 11 29  1  0
 18 30  1  0
M  CHG  2  11  -1  16  -1
M  END
>  <UniqueID>  (75) 
74

>  <SMILES>  (75) 
CC(C)c1ccc2cc(C([NH-])=O)n(C(=O)[O-])c2c1

>  <Energy>  (75) 
66.66391138332312

>  <Genealogy>  (75) 
CC(C)c1ccc2cc(C([NH-])=O)n(C(=O)[O-])c2c1 (protonated)
CC(C)c1ccc2cc(C([NH-])=O)n(C(=O)[O-])c2c1 (3D coordinates assigned)
CC(C)c1ccc2cc(C([NH-])=O)n(C(=O)[O-])c2c1 (optimized conformer: 66.66391138332312 kcal/mol)

>  <smiles>  (75) 
CC(C)c1ccc2cc(C(N)=O)n(C(=O)O)c2c1

>  <score_type>  (75) 
oracle

>  <origin>  (75) 
adg

>  <m_score__min__energy>  (75) 
-10.619999999999999

>  <m_primary>  (75) 
energy

$$$$
75:0
     RDKit          3D

 43 45  0  0  0  0  0  0  0  0999 V2000
   -3.8810   22.7550  -28.1790 C   0  0  0  0  0  0  0  0  0  0  0  0
   -2.6140   23.0890  -28.9490 C   0  0  0  0  0  0  0  0  0  0  0  0
   -2.9580   23.5570  -30.2480 O   0  0  0  0  0  0  0  0  0  0  0  0
   -3.6260   22.7660  -31.1870 C   0  0  0  0  0  0  0  0  0  0  0  0
   -2.9730   22.0150  -31.9620 O   0  0  0  0  0  0  0  0  0  0  0  0
   -5.0600   22.8150  -31.2720 N   0  0  0  0  0  0  0  0  0  0  0  0
   -5.8870   23.8000  -30.8220 C   0  0  0  0  0  0  0  0  0  0  0  0
   -5.4630   25.1070  -30.2830 C   0  0  0  0  0  0  0  0  0  0  0  0
   -6.1090   25.6840  -29.1470 N   0  0  0  0  0  0  0  0  0  0  0  0
   -4.4770   25.6980  -30.7990 O   0  0  0  0  0  0  0  0  0  0  0  0
   -7.2210   23.4380  -30.9890 C   0  0  0  0  0  0  0  0  0  0  0  0
   -7.1880   22.1930  -31.5750 C   0  0  0  0  0  0  0  0  0  0  0  0
   -8.2330   21.3550  -31.9520 C   0  0  0  0  0  0  0  0  0  0  0  0
   -7.9080   20.1060  -32.5060 C   0  0  0  0  0  0  0  0  0  0  0  0
   -6.5550   19.7130  -32.6650 C   0  0  0  0  0  0  0  0  0  0  0  0
   -6.2280   18.3840  -33.2350 C   0  0  0  0  0  0  0  0  0  0  0  0
   -7.1080   17.3070  -33.0270 C   0  0  0  0  0  0  0  0  0  0  0  0
   -6.8160   16.0430  -33.5400 C   0  0  0  0  0  0  0  0  0  0  0  0
   -5.6450   15.8380  -34.2690 C   0  0  0  0  0  0  0  0  0  0  0  0
   -4.7640   16.8970  -34.4920 C   0  0  0  0  0  0  0  0  0  0  0  0
   -5.0460   18.1820  -33.9850 C   0  0  0  0  0  0  0  0  0  0  0  0
   -4.1930   19.2760  -34.2200 O   0  0  0  0  0  0  0  0  0  0  0  0
   -2.8220   19.3600  -33.8390 C   0  0  0  0  0  0  0  0  0  0  0  0
   -2.3260   20.5920  -34.2190 F   0  0  0  0  0  0  0  0  0  0  0  0
   -2.0910   18.3710  -34.4720 F   0  0  0  0  0  0  0  0  0  0  0  0
   -2.7000   19.2340  -32.4660 F   0  0  0  0  0  0  0  0  0  0  0  0
   -5.5220   20.5870  -32.2540 C   0  0  0  0  0  0  0  0  0  0  0  0
   -5.8730   21.8380  -31.7320 C   0  0  0  0  0  0  0  0  0  0  0  0
   -3.6786   22.8084  -27.0991 H   0  0  0  0  0  0  0  0  0  0  0  0
   -4.6697   23.4759  -28.4403 H   0  0  0  0  0  0  0  0  0  0  0  0
   -4.2118   21.7390  -28.4403 H   0  0  0  0  0  0  0  0  0  0  0  0
   -2.0549   23.8706  -28.4138 H   0  0  0  0  0  0  0  0  0  0  0  0
   -1.9901   22.1873  -29.0374 H   0  0  0  0  0  0  0  0  0  0  0  0
   -5.8210   26.6280  -28.8040 H   0  0  0  0  0  0  0  0  0  0  0  0
   -6.8110   25.1450  -28.5940 H   0  0  0  0  0  0  0  0  0  0  0  0
   -8.1110   24.0221  -30.7119 H   0  0  0  0  0  0  0  0  0  0  0  0
   -9.2812   21.6613  -31.8202 H   0  0  0  0  0  0  0  0  0  0  0  0
   -8.7125   19.4248  -32.8202 H   0  0  0  0  0  0  0  0  0  0  0  0
   -8.0345   17.4626  -32.4549 H   0  0  0  0  0  0  0  0  0  0  0  0
   -7.5103   15.2070  -33.3693 H   0  0  0  0  0  0  0  0  0  0  0  0
   -5.4153   14.8394  -34.6691 H   0  0  0  0  0  0  0  0  0  0  0  0
   -3.8422   16.7279  -35.0679 H   0  0  0  0  0  0  0  0  0  0  0  0
   -4.4664   20.2907  -32.3424 H   0  0  0  0  0  0  0  0  0  0  0  0
  1  2  1  0
  2  3  1  0
  3  4  1  0
  4  5  2  0
  4  6  1  0
  6  7  1  0
  7  8  1  0
  8  9  1  0
  8 10  2  0
  7 11  2  0
 11 12  1  0
 12 13  2  0
 13 14  1  0
 14 15  2  0
 15 16  1  0
 16 17  2  0
 17 18  1  0
 18 19  2  0
 19 20  1  0
 20 21  2  0
 21 22  1  0
 22 23  1  0
 23 24  1  0
 23 25  1  0
 23 26  1  0
 15 27  1  0
 27 28  2  0
 28  6  1  0
 28 12  1  0
 21 16  1  0
  1 29  1  0
  1 30  1  0
  1 31  1  0
  2 32  1  0
  2 33  1  0
  9 34  1  0
  9 35  1  0
 11 36  1  0
 13 37  1  0
 14 38  1  0
 17 39  1  0
 18 40  1  0
 19 41  1  0
 20 42  1  0
 27 43  1  0
M  END
>  <UniqueID>  (76) 
75

>  <SMILES>  (76) 
CCOC(=O)n1c(C(N)=O)cc2ccc(-c3ccccc3OC(F)(F)F)cc21

>  <Energy>  (76) 
85.34692045167563

>  <Genealogy>  (76) 
CCOC(=O)n1c(C(N)=O)cc2ccc(-c3ccccc3OC(F)(F)F)cc21 (3D coordinates assigned)
CCOC(=O)n1c(C(N)=O)cc2ccc(-c3ccccc3OC(F)(F)F)cc21 (optimized conformer: 85.34692045167563 kcal/mol)

>  <smiles>  (76) 
CCOC(=O)n1c(C(N)=O)cc2ccc(-c3ccccc3OC(F)(F)F)cc21

>  <score_type>  (76) 
oracle

>  <origin>  (76) 
adg

>  <m_score__min__energy>  (76) 
-9.1600000000000001

>  <m_primary>  (76) 
energy

$$$$
76:0
     RDKit          3D

 49 51  0  0  0  0  0  0  0  0999 V2000
   -3.5790   21.9260  -33.1830 C   0  0  0  0  0  0  0  0  0  0  0  0
   -2.9240   20.5310  -33.1600 C   0  0  0  0  0  0  0  0  0  0  0  0
   -2.6910   20.1160  -31.7010 C   0  0  0  0  0  0  0  0  0  0  0  0
   -1.5730   20.5540  -33.9000 C   0  0  0  0  0  0  0  0  0  0  0  0
   -3.7890   19.5450  -33.7380 O   0  0  0  0  0  0  0  0  0  0  0  0
   -4.3820   18.4610  -33.0690 C   0  0  0  0  0  0  0  0  0  0  0  0
   -3.6920   17.4540  -32.7610 O   0  0  0  0  0  0  0  0  0  0  0  0
   -5.7840   18.5080  -32.7320 N   0  0  0  0  0  0  0  0  0  0  0  0
   -6.7330   17.5800  -33.0540 C   0  0  0  0  0  0  0  0  0  0  0  0
   -6.4770   16.2570  -33.6520 C   0  0  0  0  0  0  0  0  0  0  0  0
   -5.3990   15.4410  -33.1850 N   0  0  0  0  0  0  0  0  0  0  0  0
   -7.2270   15.8310  -34.5720 O   0  0  0  0  0  0  0  0  0  0  0  0
   -8.0010   18.0090  -32.6780 C   0  0  0  0  0  0  0  0  0  0  0  0
   -7.8050   19.2350  -32.0850 C   0  0  0  0  0  0  0  0  0  0  0  0
   -8.7290   20.1030  -31.5180 C   0  0  0  0  0  0  0  0  0  0  0  0
   -8.2570   21.3090  -30.9740 C   0  0  0  0  0  0  0  0  0  0  0  0
   -6.8740   21.6340  -31.0080 C   0  0  0  0  0  0  0  0  0  0  0  0
   -6.3930   22.8730  -30.4270 N   0  0  0  0  0  0  0  0  0  0  0  0
   -6.9760   24.1790  -30.7060 C   0  0  0  0  0  0  0  0  0  0  0  0
   -6.3150   25.1540  -29.7400 C   0  0  0  0  0  0  0  0  0  0  0  0
   -5.0770   24.4340  -29.1860 C   0  0  2  0  0  0  0  0  0  0  0  0
   -3.8140   24.9240  -29.8470 C   0  0  0  0  0  0  0  0  0  0  0  0
   -3.8650   25.6050  -30.9090 O   0  0  0  0  0  0  0  0  0  0  0  0
   -2.5780   24.6020  -29.3020 O   0  0  0  0  0  0  0  0  0  0  0  0
   -5.3090   22.9450  -29.4560 C   0  0  0  0  0  0  0  0  0  0  0  0
   -5.9690   20.7240  -31.6110 C   0  0  0  0  0  0  0  0  0  0  0  0
   -6.4630   19.5190  -32.1290 C   0  0  0  0  0  0  0  0  0  0  0  0
   -3.7414   22.2719  -32.1515 H   0  0  0  0  0  0  0  0  0  0  0  0
   -2.9185   22.6326  -33.7070 H   0  0  0  0  0  0  0  0  0  0  0  0
   -4.5445   21.8691  -33.7070 H   0  0  0  0  0  0  0  0  0  0  0  0
   -3.1180   20.8766  -31.0308 H   0  0  0  0  0  0  0  0  0  0  0  0
   -3.1771   19.1473  -31.5132 H   0  0  0  0  0  0  0  0  0  0  0  0
   -1.6108   20.0267  -31.5132 H   0  0  0  0  0  0  0  0  0  0  0  0
   -0.7534   20.5680  -33.1665 H   0  0  0  0  0  0  0  0  0  0  0  0
   -1.4852   19.6572  -34.5309 H   0  0  0  0  0  0  0  0  0  0  0  0
   -1.5158   21.4533  -34.5309 H   0  0  0  0  0  0  0  0  0  0  0  0
   -4.8270   15.7300  -32.3550 H   0  0  0  0  0  0  0  0  0  0  0  0
   -5.1820   14.5340  -33.6560 H   0  0  0  0  0  0  0  0  0  0  0  0
   -8.9554   17.4817  -32.8233 H   0  0  0  0  0  0  0  0  0  0  0  0
   -9.8000   19.8532  -31.4955 H   0  0  0  0  0  0  0  0  0  0  0  0
   -8.9680   22.0118  -30.5152 H   0  0  0  0  0  0  0  0  0  0  0  0
   -6.7709   24.4740  -31.7456 H   0  0  0  0  0  0  0  0  0  0  0  0
   -8.0685   24.1662  -30.5780 H   0  0  0  0  0  0  0  0  0  0  0  0
   -6.0179   26.0720  -30.2683 H   0  0  0  0  0  0  0  0  0  0  0  0
   -7.0027   25.4477  -28.9333 H   0  0  0  0  0  0  0  0  0  0  0  0
   -4.9450   24.6307  -28.1118 H   0  0  0  0  0  0  0  0  0  0  0  0
   -4.3979   22.4852  -29.8665 H   0  0  0  0  0  0  0  0  0  0  0  0
   -5.5614   22.4042  -28.5320 H   0  0  0  0  0  0  0  0  0  0  0  0
   -4.8963   20.9601  -31.6713 H   0  0  0  0  0  0  0  0  0  0  0  0
  1  2  1  0
  2  3  1  0
  2  4  1  0
  2  5  1  0
  5  6  1  0
  6  7  2  0
  6  8  1  0
  8  9  1  0
  9 10  1  0
 10 11  1  0
 10 12  2  0
  9 13  2  0
 13 14  1  0
 14 15  2  0
 15 16  1  0
 16 17  2  0
 17 18  1  0
 18 19  1  0
 19 20  1  0
 20 21  1  0
 21 22  1  0
 22 23  2  0
 22 24  1  0
 21 25  1  0
 17 26  1  0
 26 27  2  0
 27  8  1  0
 27 14  1  0
 25 18  1  0
  1 28  1  0
  1 29  1  0
  1 30  1  0
  3 31  1  0
  3 32  1  0
  3 33  1  0
  4 34  1  0
  4 35  1  0
  4 36  1  0
 11 37  1  0
 11 38  1  0
 13 39  1  0
 15 40  1  0
 16 41  1  0
 19 42  1  0
 19 43  1  0
 20 44  1  0
 20 45  1  0
 21 46  1  1
 25 47  1  0
 25 48  1  0
 26 49  1  0
M  CHG  1  24  -1
M  END
>  <UniqueID>  (77) 
76

>  <SMILES>  (77) 
CC(C)(C)OC(=O)n1c(C(N)=O)cc2ccc(N3CC[C@H](C(=O)[O-])C3)cc21

>  <Energy>  (77) 
88.28580912030553

>  <Genealogy>  (77) 
CC(C)(C)OC(=O)n1c(C(N)=O)cc2ccc(N3CCC(C(=O)[O-])C3)cc21 (protonated)
CC(C)(C)OC(=O)n1c(C(N)=O)cc2ccc(N3CC[C@H](C(=O)[O-])C3)cc21 (chirality)
CC(C)(C)OC(=O)n1c(C(N)=O)cc2ccc(N3CC[C@H](C(=O)[O-])C3)cc21 (3D coordinates assigned)
CC(C)(C)OC(=O)n1c(C(N)=O)cc2ccc(N3CC[C@H](C(=O)[O-])C3)cc21 (nonaromatic ring conformer: 88.28580912030553 kcal/mol)

>  <smiles>  (77) 
CC(C)(C)OC(=O)n1c(C(N)=O)cc2ccc(N3CCC(C(=O)O)C3)cc21

>  <score_type>  (77) 
oracle

>  <origin>  (77) 
adg

>  <m_score__min__energy>  (77) 
-10.76

>  <m_primary>  (77) 
energy

$$$$
77:0
     RDKit          3D

 35 38  0  0  0  0  0  0  0  0999 V2000
   -1.4180   25.9400  -28.9490 N   0  0  0  0  0  0  0  0  0  0  0  0
   -0.8150   24.6510  -29.0170 C   0  0  0  0  0  0  0  0  0  0  0  0
    0.3520   24.4910  -28.5720 O   0  0  0  0  0  0  0  0  0  0  0  0
   -1.5170   23.5180  -29.6550 C   0  0  0  0  0  0  0  0  0  0  0  0
   -0.8850   22.3250  -30.0010 C   0  0  0  0  0  0  0  0  0  0  0  0
   -1.8430   21.5780  -30.6460 C   0  0  0  0  0  0  0  0  0  0  0  0
   -1.7610   20.3060  -31.2030 C   0  0  0  0  0  0  0  0  0  0  0  0
   -2.9180   19.7670  -31.7890 C   0  0  0  0  0  0  0  0  0  0  0  0
   -4.1340   20.4940  -31.7880 C   0  0  0  0  0  0  0  0  0  0  0  0
   -5.3600   19.9210  -32.4520 C   0  0  1  0  0  0  0  0  0  0  0  0
   -6.4910   20.8490  -32.8780 C   0  0  0  0  0  0  0  0  0  0  0  0
   -6.7750   19.6840  -33.8230 C   0  0  1  0  0  0  0  0  0  0  0  0
   -5.2750   19.4210  -33.8890 C   0  0  0  0  0  0  0  0  0  0  0  0
   -7.2260   18.5980  -32.8290 C   0  0  0  0  0  0  0  0  0  0  0  0
   -7.1920   17.3360  -33.3980 F   0  0  0  0  0  0  0  0  0  0  0  0
   -8.4890   18.8590  -32.3210 F   0  0  0  0  0  0  0  0  0  0  0  0
   -6.1210   18.7840  -31.7600 C   0  0  0  0  0  0  0  0  0  0  0  0
   -4.1730   21.7920  -31.2320 C   0  0  0  0  0  0  0  0  0  0  0  0
   -3.0010   22.3120  -30.6700 C   0  0  0  0  0  0  0  0  0  0  0  0
   -2.8180   23.5050  -30.0630 N   0  0  0  0  0  0  0  0  0  0  0  0
   -3.8240   24.5010  -29.8140 C   0  0  0  0  0  0  0  0  0  0  0  0
   -4.6600   24.3410  -28.8870 O   0  0  0  0  0  0  0  0  0  0  0  0
   -3.8660   25.6610  -30.5770 O   0  0  0  0  0  0  0  0  0  0  0  0
   -2.4560   26.0490  -28.9570 H   0  0  0  0  0  0  0  0  0  0  0  0
    0.1587   22.0410  -29.8007 H   0  0  0  0  0  0  0  0  0  0  0  0
   -0.8184   19.7393  -31.1850 H   0  0  0  0  0  0  0  0  0  0  0  0
   -2.8797   18.7705  -32.2533 H   0  0  0  0  0  0  0  0  0  0  0  0
   -6.1870   21.7930  -33.3539 H   0  0  0  0  0  0  0  0  0  0  0  0
   -7.2258   21.3026  -32.1966 H   0  0  0  0  0  0  0  0  0  0  0  0
   -7.4149   19.7677  -34.7138 H   0  0  0  0  0  0  0  0  0  0  0  0
   -4.9749   18.3705  -34.0169 H   0  0  0  0  0  0  0  0  0  0  0  0
   -4.5976   19.8222  -34.6572 H   0  0  0  0  0  0  0  0  0  0  0  0
   -5.5034   17.8823  -31.6352 H   0  0  0  0  0  0  0  0  0  0  0  0
   -6.4645   18.9818  -30.7339 H   0  0  0  0  0  0  0  0  0  0  0  0
   -5.1024   22.3803  -31.2404 H   0  0  0  0  0  0  0  0  0  0  0  0
  1  2  1  0
  2  3  2  0
  2  4  1  0
  4  5  2  0
  5  6  1  0
  6  7  2  0
  7  8  1  0
  8  9  2  0
 10  9  1  6
 10 11  1  0
 11 12  1  0
 12 13  1  0
 12 14  1  0
 14 15  1  0
 14 16  1  0
 14 17  1  0
  9 18  1  0
 18 19  2  0
 19 20  1  0
 20 21  1  0
 21 22  2  0
 21 23  1  0
 20  4  1  0
 19  6  1  0
 13 10  1  0
 17 10  1  0
  1 24  1  0
  5 25  1  0
  7 26  1  0
  8 27  1  0
 11 28  1  0
 11 29  1  0
 12 30  1  1
 13 31  1  0
 13 32  1  0
 17 33  1  0
 17 34  1  0
 18 35  1  0
M  CHG  2   1  -1  23  -1
M  END
>  <UniqueID>  (78) 
77

>  <SMILES>  (78) 
[NH-]C(=O)c1cc2ccc(C34CC(C3)C(F)(F)C4)cc2n1C(=O)[O-]

>  <Energy>  (78) 
200.3104511520399

>  <Genealogy>  (78) 
[NH-]C(=O)c1cc2ccc(C34CC(C3)C(F)(F)C4)cc2n1C(=O)[O-] (protonated)
[NH-]C(=O)c1cc2ccc(C34CC(C3)C(F)(F)C4)cc2n1C(=O)[O-] (3D coordinates assigned)
[NH-]C(=O)c1cc2ccc(C34CC(C3)C(F)(F)C4)cc2n1C(=O)[O-] (nonaromatic ring conformer: 200.3104511520399 kcal/mol)

>  <smiles>  (78) 
NC(=O)c1cc2ccc(C34CC(C3)C(F)(F)C4)cc2n1C(=O)O

>  <score_type>  (78) 
oracle

>  <origin>  (78) 
adg

>  <m_score__min__energy>  (78) 
-11.890000000000001

>  <m_primary>  (78) 
energy

$$$$
78:0
     RDKit          3D

 57 59  0  0  0  0  0  0  0  0999 V2000
   -3.3310   11.7260  -32.7640 C   0  0  0  0  0  0  0  0  0  0  0  0
   -3.4360   13.2110  -32.3690 C   0  0  0  0  0  0  0  0  0  0  0  0
   -2.0480   13.7240  -31.9530 C   0  0  0  0  0  0  0  0  0  0  0  0
   -4.4170   13.3640  -31.1950 C   0  0  0  0  0  0  0  0  0  0  0  0
   -4.0540   14.2060  -33.8670 Si  0  0  0  0  0  4  0  0  0  0  0  0
   -2.7060   14.2820  -35.1740 C   0  0  0  0  0  0  0  0  0  0  0  0
   -5.5530   13.3850  -34.6350 C   0  0  0  0  0  0  0  0  0  0  0  0
   -4.5170   15.7840  -33.2940 O   0  0  0  0  0  0  0  0  0  0  0  0
   -5.4120   16.4250  -34.1800 C   0  0  1  0  0  0  0  0  0  0  0  0
   -6.8440   16.0310  -33.8080 C   0  0  0  0  0  0  0  0  0  0  0  0
   -7.3990   17.1690  -32.9650 C   0  0  0  0  0  0  0  0  0  0  0  0
   -6.5130   18.3020  -33.1840 N   0  0  0  0  0  0  0  0  0  0  0  0
   -6.7420   19.6250  -32.6450 C   0  0  0  0  0  0  0  0  0  0  0  0
   -8.0630   20.0810  -32.3810 C   0  0  0  0  0  0  0  0  0  0  0  0
   -8.2950   21.3650  -31.8600 C   0  0  0  0  0  0  0  0  0  0  0  0
   -7.1960   22.1730  -31.5990 C   0  0  0  0  0  0  0  0  0  0  0  0
   -7.1340   23.4530  -31.1000 C   0  0  0  0  0  0  0  0  0  0  0  0
   -5.7780   23.7650  -31.0410 C   0  0  0  0  0  0  0  0  0  0  0  0
   -5.2550   25.0190  -30.4560 C   0  0  0  0  0  0  0  0  0  0  0  0
   -3.8710   25.3480  -30.5340 N   0  0  0  0  0  0  0  0  0  0  0  0
   -6.0370   25.7910  -29.8390 O   0  0  0  0  0  0  0  0  0  0  0  0
   -5.0310   22.7220  -31.5020 N   0  0  0  0  0  0  0  0  0  0  0  0
   -3.6080   22.6630  -31.6840 C   0  0  0  0  0  0  0  0  0  0  0  0
   -2.7260   23.0770  -30.6400 N   0  0  0  0  0  0  0  0  0  0  0  0
   -3.1320   22.2900  -32.7890 O   0  0  0  0  0  0  0  0  0  0  0  0
   -5.9150   21.7540  -31.8320 C   0  0  0  0  0  0  0  0  0  0  0  0
   -5.6510   20.4900  -32.3690 C   0  0  0  0  0  0  0  0  0  0  0  0
   -5.3490   17.9420  -33.9790 C   0  0  0  0  0  0  0  0  0  0  0  0
   -3.2872   11.1072  -31.8556 H   0  0  0  0  0  0  0  0  0  0  0  0
   -4.2113   11.4418  -33.3592 H   0  0  0  0  0  0  0  0  0  0  0  0
   -2.4195   11.5685  -33.3592 H   0  0  0  0  0  0  0  0  0  0  0  0
   -1.9802   13.7491  -30.8554 H   0  0  0  0  0  0  0  0  0  0  0  0
   -1.2739   13.0526  -32.3530 H   0  0  0  0  0  0  0  0  0  0  0  0
   -1.8966   14.7375  -32.3530 H   0  0  0  0  0  0  0  0  0  0  0  0
   -3.8685   13.2785  -30.2453 H   0  0  0  0  0  0  0  0  0  0  0  0
   -4.9037   14.3489  -31.2499 H   0  0  0  0  0  0  0  0  0  0  0  0
   -5.1806   12.5741  -31.2499 H   0  0  0  0  0  0  0  0  0  0  0  0
   -1.7228   14.3374  -34.6839 H   0  0  0  0  0  0  0  0  0  0  0  0
   -2.7525   13.3798  -35.8016 H   0  0  0  0  0  0  0  0  0  0  0  0
   -2.8536   15.1732  -35.8016 H   0  0  0  0  0  0  0  0  0  0  0  0
   -6.2192   13.0201  -33.8393 H   0  0  0  0  0  0  0  0  0  0  0  0
   -6.0914   14.1142  -35.2583 H   0  0  0  0  0  0  0  0  0  0  0  0
   -5.2285   12.5387  -35.2583 H   0  0  0  0  0  0  0  0  0  0  0  0
   -5.1443   16.1381  -35.2076 H   0  0  0  0  0  0  0  0  0  0  0  0
   -7.4504   15.9000  -34.7164 H   0  0  0  0  0  0  0  0  0  0  0  0
   -6.8645   15.0798  -33.2559 H   0  0  0  0  0  0  0  0  0  0  0  0
   -8.4220   17.4170  -33.2843 H   0  0  0  0  0  0  0  0  0  0  0  0
   -7.4459   16.8951  -31.9007 H   0  0  0  0  0  0  0  0  0  0  0  0
   -8.9162   19.4182  -32.5879 H   0  0  0  0  0  0  0  0  0  0  0  0
   -9.3176   21.7201  -31.6645 H   0  0  0  0  0  0  0  0  0  0  0  0
   -7.9781   24.0954  -30.8087 H   0  0  0  0  0  0  0  0  0  0  0  0
   -3.5240   26.0550  -31.2200 H   0  0  0  0  0  0  0  0  0  0  0  0
   -1.6920   23.0390  -30.7780 H   0  0  0  0  0  0  0  0  0  0  0  0
   -3.1060   23.4640  -29.7470 H   0  0  0  0  0  0  0  0  0  0  0  0
   -4.6179   20.1723  -32.5735 H   0  0  0  0  0  0  0  0  0  0  0  0
   -5.3792   18.4557  -34.9512 H   0  0  0  0  0  0  0  0  0  0  0  0
   -4.4167   18.2383  -33.4760 H   0  0  0  0  0  0  0  0  0  0  0  0
  1  2  1  0
  2  3  1  0
  2  4  1  0
  2  5  1  0
  5  6  1  0
  5  7  1  0
  5  8  1  0
  8  9  1  0
  9 10  1  0
 10 11  1  0
 11 12  1  0
 12 13  1  0
 13 14  2  0
 14 15  1  0
 15 16  2  0
 16 17  1  0
 17 18  2  0
 18 19  1  0
 19 20  1  0
 19 21  2  0
 18 22  1  0
 22 23  1  0
 23 24  1  0
 23 25  2  0
 22 26  1  0
 26 27  2  0
 12 28  1  0
 28  9  1  0
 27 13  1  0
 26 16  1  0
  1 29  1  0
  1 30  1  0
  1 31  1  0
  3 32  1  0
  3 33  1  0
  3 34  1  0
  4 35  1  0
  4 36  1  0
  4 37  1  0
  6 38  1  0
  6 39  1  0
  6 40  1  0
  7 41  1  0
  7 42  1  0
  7 43  1  0
  9 44  1  6
 10 45  1  0
 10 46  1  0
 11 47  1  0
 11 48  1  0
 14 49  1  0
 15 50  1  0
 17 51  1  0
 20 52  1  0
 24 53  1  0
 24 54  1  0
 27 55  1  0
 28 56  1  0
 28 57  1  0
M  CHG  1  20  -1
M  END
>  <UniqueID>  (79) 
78

>  <SMILES>  (79) 
CC(C)(C)[Si](C)(C)O[C@H]1CCN(c2ccc3cc(C([NH-])=O)n(C(N)=O)c3c2)C1

>  <Energy>  (79) 
82.09606900731876

>  <Genealogy>  (79) 
CC(C)(C)[Si](C)(C)OC1CCN(c2ccc3cc(C([NH-])=O)n(C(N)=O)c3c2)C1 (protonated)
CC(C)(C)[Si](C)(C)O[C@H]1CCN(c2ccc3cc(C([NH-])=O)n(C(N)=O)c3c2)C1 (chirality)
CC(C)(C)[Si](C)(C)O[C@H]1CCN(c2ccc3cc(C([NH-])=O)n(C(N)=O)c3c2)C1 (3D coordinates assigned)
CC(C)(C)[Si](C)(C)O[C@H]1CCN(c2ccc3cc(C([NH-])=O)n(C(N)=O)c3c2)C1 (nonaromatic ring conformer: 82.09606900731876 kcal/mol)

>  <smiles>  (79) 
CC(C)(C)[Si](C)(C)OC1CCN(c2ccc3cc(C(N)=O)n(C(N)=O)c3c2)C1

>  <score_type>  (79) 
oracle

>  <origin>  (79) 
adg

>  <m_score__min__energy>  (79) 
-10.720000000000001

>  <m_primary>  (79) 
energy

$$$$
79:0
     RDKit          3D

 33 35  0  0  0  0  0  0  0  0999 V2000
   -3.8660   25.3090  -30.5660 N   0  0  0  0  0  0  0  0  0  0  0  0
   -5.2440   24.9470  -30.5730 C   0  0  0  0  0  0  0  0  0  0  0  0
   -6.0860   25.7160  -30.0370 O   0  0  0  0  0  0  0  0  0  0  0  0
   -5.6900   23.6630  -31.1530 C   0  0  0  0  0  0  0  0  0  0  0  0
   -7.0290   23.3330  -31.3510 C   0  0  0  0  0  0  0  0  0  0  0  0
   -7.0210   22.0350  -31.8100 C   0  0  0  0  0  0  0  0  0  0  0  0
   -8.0780   21.2090  -32.1750 C   0  0  0  0  0  0  0  0  0  0  0  0
   -7.7740   19.9180  -32.6380 C   0  0  0  0  0  0  0  0  0  0  0  0
   -6.4270   19.4760  -32.7340 C   0  0  0  0  0  0  0  0  0  0  0  0
   -6.1180   18.1130  -33.2330 C   0  0  0  0  0  0  0  0  0  0  0  0
   -4.8030   17.7660  -33.5990 C   0  0  0  0  0  0  0  0  0  0  0  0
   -4.5130   16.4810  -34.0710 C   0  0  0  0  0  0  0  0  0  0  0  0
   -5.5300   15.5300  -34.1820 C   0  0  0  0  0  0  0  0  0  0  0  0
   -5.2470   14.2860  -34.6390 F   0  0  0  0  0  0  0  0  0  0  0  0
   -6.8380   15.8620  -33.8230 C   0  0  0  0  0  0  0  0  0  0  0  0
   -7.1340   17.1450  -33.3510 C   0  0  0  0  0  0  0  0  0  0  0  0
   -5.3820   20.3510  -32.3510 C   0  0  0  0  0  0  0  0  0  0  0  0
   -5.7170   21.6240  -31.8810 C   0  0  0  0  0  0  0  0  0  0  0  0
   -4.8860   22.6140  -31.4870 N   0  0  0  0  0  0  0  0  0  0  0  0
   -3.4510   22.5720  -31.5040 C   0  0  0  0  0  0  0  0  0  0  0  0
   -2.7000   23.0600  -30.3930 N   0  0  0  0  0  0  0  0  0  0  0  0
   -2.8460   22.1360  -32.5200 O   0  0  0  0  0  0  0  0  0  0  0  0
   -3.4950   26.0270  -31.2270 H   0  0  0  0  0  0  0  0  0  0  0  0
   -7.9063   23.9735  -31.1775 H   0  0  0  0  0  0  0  0  0  0  0  0
   -9.1196   21.5554  -32.1035 H   0  0  0  0  0  0  0  0  0  0  0  0
   -8.5896   19.2402  -32.9301 H   0  0  0  0  0  0  0  0  0  0  0  0
   -3.9979   18.5106  -33.5132 H   0  0  0  0  0  0  0  0  0  0  0  0
   -3.4830   16.2195  -34.3549 H   0  0  0  0  0  0  0  0  0  0  0  0
   -7.6380   15.1123  -33.9117 H   0  0  0  0  0  0  0  0  0  0  0  0
   -8.1667   17.3994  -33.0703 H   0  0  0  0  0  0  0  0  0  0  0  0
   -4.3304   20.0362  -32.4217 H   0  0  0  0  0  0  0  0  0  0  0  0
   -3.1820   23.4950  -29.5760 H   0  0  0  0  0  0  0  0  0  0  0  0
   -1.6560   23.0190  -30.4030 H   0  0  0  0  0  0  0  0  0  0  0  0
  1  2  1  0
  2  3  2  0
  2  4  1  0
  4  5  2  0
  5  6  1  0
  6  7  2  0
  7  8  1  0
  8  9  2  0
  9 10  1  0
 10 11  2  0
 11 12  1  0
 12 13  2  0
 13 14  1  0
 13 15  1  0
 15 16  2  0
  9 17  1  0
 17 18  2  0
 18 19  1  0
 19 20  1  0
 20 21  1  0
 20 22  2  0
 19  4  1  0
 18  6  1  0
 16 10  1  0
  1 23  1  0
  5 24  1  0
  7 25  1  0
  8 26  1  0
 11 27  1  0
 12 28  1  0
 15 29  1  0
 16 30  1  0
 17 31  1  0
 21 32  1  0
 21 33  1  0
M  CHG  1   1  -1
M  END
>  <UniqueID>  (80) 
79

>  <SMILES>  (80) 
[NH-]C(=O)c1cc2ccc(-c3ccc(F)cc3)cc2n1C(N)=O

>  <Energy>  (80) 
79.7457760256782

>  <Genealogy>  (80) 
[NH-]C(=O)c1cc2ccc(-c3ccc(F)cc3)cc2n1C(N)=O (protonated)
[NH-]C(=O)c1cc2ccc(-c3ccc(F)cc3)cc2n1C(N)=O (3D coordinates assigned)
[NH-]C(=O)c1cc2ccc(-c3ccc(F)cc3)cc2n1C(N)=O (optimized conformer: 79.7457760256782 kcal/mol)

>  <smiles>  (80) 
NC(=O)c1cc2ccc(-c3ccc(F)cc3)cc2n1C(N)=O

>  <score_type>  (80) 
oracle

>  <origin>  (80) 
adg

>  <m_score__min__energy>  (80) 
-10.4

>  <m_primary>  (80) 
energy

$$$$
80:0
     RDKit          3D

 41 42  0  0  0  0  0  0  0  0999 V2000
   -4.1010   22.8440  -28.2510 C   0  0  0  0  0  0  0  0  0  0  0  0
   -2.8230   22.5530  -29.0500 C   0  0  0  0  0  0  0  0  0  0  0  0
   -1.6180   23.1450  -28.2930 C   0  0  0  0  0  0  0  0  0  0  0  0
   -2.6690   21.0280  -29.2080 C   0  0  0  0  0  0  0  0  0  0  0  0
   -2.9730   23.1800  -30.3320 O   0  0  0  0  0  0  0  0  0  0  0  0
   -3.7690   22.7240  -31.3940 C   0  0  0  0  0  0  0  0  0  0  0  0
   -3.2570   22.1130  -32.3710 O   0  0  0  0  0  0  0  0  0  0  0  0
   -5.1880   22.9370  -31.3530 N   0  0  0  0  0  0  0  0  0  0  0  0
   -5.8530   24.0210  -30.8640 C   0  0  0  0  0  0  0  0  0  0  0  0
   -5.2390   25.2930  -30.4310 C   0  0  0  0  0  0  0  0  0  0  0  0
   -3.9240   25.6500  -30.8460 N   0  0  0  0  0  0  0  0  0  0  0  0
   -5.9030   26.0980  -29.7250 O   0  0  0  0  0  0  0  0  0  0  0  0
   -7.2290   23.8070  -30.8970 C   0  0  0  0  0  0  0  0  0  0  0  0
   -7.3910   22.5500  -31.4330 C   0  0  0  0  0  0  0  0  0  0  0  0
   -8.5530   21.8270  -31.6870 C   0  0  0  0  0  0  0  0  0  0  0  0
   -8.4210   20.5350  -32.2200 C   0  0  0  0  0  0  0  0  0  0  0  0
   -7.1400   19.9850  -32.4710 C   0  0  0  0  0  0  0  0  0  0  0  0
   -7.0130   18.6070  -33.0640 C   0  0  0  0  0  0  0  0  0  0  0  0
   -5.7750   18.5150  -33.9570 C   0  0  0  0  0  0  0  0  0  0  0  0
   -6.0870   18.9210  -35.2620 O   0  0  0  0  0  0  0  0  0  0  0  0
   -5.9820   20.7520  -32.2120 C   0  0  0  0  0  0  0  0  0  0  0  0
   -6.1440   22.0450  -31.6990 C   0  0  0  0  0  0  0  0  0  0  0  0
   -3.8799   22.7937  -27.1746 H   0  0  0  0  0  0  0  0  0  0  0  0
   -4.4700   23.8492  -28.5029 H   0  0  0  0  0  0  0  0  0  0  0  0
   -4.8688   22.0977  -28.5029 H   0  0  0  0  0  0  0  0  0  0  0  0
   -1.7885   23.0612  -27.2095 H   0  0  0  0  0  0  0  0  0  0  0  0
   -0.7067   22.5920  -28.5646 H   0  0  0  0  0  0  0  0  0  0  0  0
   -1.4988   24.2043  -28.5646 H   0  0  0  0  0  0  0  0  0  0  0  0
   -2.6217   20.5593  -28.2140 H   0  0  0  0  0  0  0  0  0  0  0  0
   -3.5313   20.6278  -29.7614 H   0  0  0  0  0  0  0  0  0  0  0  0
   -1.7441   20.8083  -29.7614 H   0  0  0  0  0  0  0  0  0  0  0  0
   -3.0840   25.2970  -30.3370 H   0  0  0  0  0  0  0  0  0  0  0  0
   -8.0189   24.4968  -30.5649 H   0  0  0  0  0  0  0  0  0  0  0  0
   -9.5443   22.2549  -31.4765 H   0  0  0  0  0  0  0  0  0  0  0  0
   -9.3211   19.9440  -32.4449 H   0  0  0  0  0  0  0  0  0  0  0  0
   -6.9276   17.8706  -32.2513 H   0  0  0  0  0  0  0  0  0  0  0  0
   -7.9050   18.4007  -33.6737 H   0  0  0  0  0  0  0  0  0  0  0  0
   -4.9864   19.1666  -33.5527 H   0  0  0  0  0  0  0  0  0  0  0  0
   -5.4261   17.4720  -33.9798 H   0  0  0  0  0  0  0  0  0  0  0  0
   -6.9740   19.3650  -35.2160 H   0  0  0  0  0  0  0  0  0  0  0  0
   -4.9794   20.3442  -32.4082 H   0  0  0  0  0  0  0  0  0  0  0  0
  1  2  1  0
  2  3  1  0
  2  4  1  0
  2  5  1  0
  5  6  1  0
  6  7  2  0
  6  8  1  0
  8  9  1  0
  9 10  1  0
 10 11  1  0
 10 12  2  0
  9 13  2  0
 13 14  1  0
 14 15  2  0
 15 16  1  0
 16 17  2  0
 17 18  1  0
 18 19  1  0
 19 20  1  0
 17 21  1  0
 21 22  2  0
 22  8  1  0
 22 14  1  0
  1 23  1  0
  1 24  1  0
  1 25  1  0
  3 26  1  0
  3 27  1  0
  3 28  1  0
  4 29  1  0
  4 30  1  0
  4 31  1  0
 11 32  1  0
 13 33  1  0
 15 34  1  0
 16 35  1  0
 18 36  1  0
 18 37  1  0
 19 38  1  0
 19 39  1  0
 20 40  1  0
 21 41  1  0
M  CHG  1  11  -1
M  END
>  <UniqueID>  (81) 
80

>  <SMILES>  (81) 
CC(C)(C)OC(=O)n1c(C([NH-])=O)cc2ccc(CCO)cc21

>  <Energy>  (81) 
71.94121814595458

>  <Genealogy>  (81) 
CC(C)(C)OC(=O)n1c(C([NH-])=O)cc2ccc(CCO)cc21 (protonated)
CC(C)(C)OC(=O)n1c(C([NH-])=O)cc2ccc(CCO)cc21 (3D coordinates assigned)
CC(C)(C)OC(=O)n1c(C([NH-])=O)cc2ccc(CCO)cc21 (optimized conformer: 71.94121814595458 kcal/mol)

>  <smiles>  (81) 
CC(C)(C)OC(=O)n1c(C(N)=O)cc2ccc(CCO)cc21

>  <score_type>  (81) 
oracle

>  <origin>  (81) 
adg

>  <m_score__min__energy>  (81) 
-10.390000000000001

>  <m_primary>  (81) 
energy

$$$$
81:0
     RDKit          3D

 36 37  0  0  0  0  0  0  0  0999 V2000
   -6.4000   25.6450  -29.3710 C   0  0  0  0  0  0  0  0  0  0  0  0
   -6.4380   24.4670  -30.0020 C   0  0  0  0  0  0  0  0  0  0  0  0
   -6.2270   24.3530  -31.4840 C   0  0  0  0  0  0  0  0  0  0  0  0
   -6.8320   23.1590  -31.9780 O   0  0  0  0  0  0  0  0  0  0  0  0
   -6.4860   21.8730  -31.5450 C   0  0  0  0  0  0  0  0  0  0  0  0
   -7.1690   21.2950  -30.6560 O   0  0  0  0  0  0  0  0  0  0  0  0
   -5.3300   21.2230  -32.0990 N   0  0  0  0  0  0  0  0  0  0  0  0
   -5.2980   20.3690  -33.1600 C   0  0  0  0  0  0  0  0  0  0  0  0
   -6.4740   19.7890  -33.8380 C   0  0  0  0  0  0  0  0  0  0  0  0
   -7.8000   20.0850  -33.3990 N   0  0  0  0  0  0  0  0  0  0  0  0
   -6.3040   18.9740  -34.7850 O   0  0  0  0  0  0  0  0  0  0  0  0
   -3.9850   20.0550  -33.5010 C   0  0  0  0  0  0  0  0  0  0  0  0
   -3.2030   20.7400  -32.5990 C   0  0  0  0  0  0  0  0  0  0  0  0
   -1.8170   20.8070  -32.4890 C   0  0  0  0  0  0  0  0  0  0  0  0
   -1.2750   21.6280  -31.4880 C   0  0  0  0  0  0  0  0  0  0  0  0
   -2.1210   22.3640  -30.6210 C   0  0  0  0  0  0  0  0  0  0  0  0
   -1.5270   23.2730  -29.5820 C   0  0  0  0  0  0  0  0  0  0  0  0
   -2.5980   24.7210  -29.3250 P   0  0  0  0  0  0  0  0  0  0  0  0
   -3.5450   24.4610  -28.1760 O   0  0  0  0  0  0  0  0  0  0  0  0
   -1.6390   26.0660  -28.9680 O   0  0  0  0  0  0  0  0  0  0  0  0
   -3.4890   25.0270  -30.7300 O   0  0  0  0  0  0  0  0  0  0  0  0
   -3.5230   22.2810  -30.7700 C   0  0  0  0  0  0  0  0  0  0  0  0
   -4.0380   21.4390  -31.7640 C   0  0  0  0  0  0  0  0  0  0  0  0
   -6.5590   25.6918  -28.2836 H   0  0  0  0  0  0  0  0  0  0  0  0
   -6.2097   26.5674  -29.9393 H   0  0  0  0  0  0  0  0  0  0  0  0
   -6.6295   23.5546  -29.4182 H   0  0  0  0  0  0  0  0  0  0  0  0
   -6.6791   25.2227  -31.9832 H   0  0  0  0  0  0  0  0  0  0  0  0
   -5.1472   24.3201  -31.6911 H   0  0  0  0  0  0  0  0  0  0  0  0
   -8.6230   19.7040  -33.9180 H   0  0  0  0  0  0  0  0  0  0  0  0
   -7.9680   20.6170  -32.5170 H   0  0  0  0  0  0  0  0  0  0  0  0
   -3.6454   19.3997  -34.3167 H   0  0  0  0  0  0  0  0  0  0  0  0
   -1.1664   20.2340  -33.1660 H   0  0  0  0  0  0  0  0  0  0  0  0
   -0.1832   21.7010  -31.3752 H   0  0  0  0  0  0  0  0  0  0  0  0
   -1.4255   22.7238  -28.6344 H   0  0  0  0  0  0  0  0  0  0  0  0
   -0.5398   23.6143  -29.9268 H   0  0  0  0  0  0  0  0  0  0  0  0
   -4.1941   22.8633  -30.1214 H   0  0  0  0  0  0  0  0  0  0  0  0
  1  2  2  0
  2  3  1  0
  3  4  1  0
  4  5  1  0
  5  6  2  0
  5  7  1  0
  7  8  1  0
  8  9  1  0
  9 10  1  0
  9 11  2  0
  8 12  2  0
 12 13  1  0
 13 14  2  0
 14 15  1  0
 15 16  2  0
 16 17  1  0
 17 18  1  0
 18 19  2  0
 18 20  1  0
 18 21  1  0
 16 22  1  0
 22 23  2  0
 23  7  1  0
 23 13  1  0
  1 24  1  0
  1 25  1  0
  2 26  1  0
  3 27  1  0
  3 28  1  0
 10 29  1  0
 10 30  1  0
 12 31  1  0
 14 32  1  0
 15 33  1  0
 17 34  1  0
 17 35  1  0
 22 36  1  0
M  CHG  2  20  -1  21  -1
M  END
>  <UniqueID>  (82) 
81

>  <SMILES>  (82) 
C=CCOC(=O)n1c(C(N)=O)cc2ccc(CP(=O)([O-])[O-])cc21

>  <Energy>  (82) 
66.96128147071215

>  <Genealogy>  (82) 
C=CCOC(=O)n1c(C(N)=O)cc2ccc(CP(=O)([O-])[O-])cc21 (protonated)
C=CCOC(=O)n1c(C(N)=O)cc2ccc(CP(=O)([O-])[O-])cc21 (3D coordinates assigned)
C=CCOC(=O)n1c(C(N)=O)cc2ccc(CP(=O)([O-])[O-])cc21 (optimized conformer: 66.96128147071215 kcal/mol)

>  <smiles>  (82) 
C=CCOC(=O)n1c(C(N)=O)cc2ccc(CP(=O)(O)O)cc21

>  <score_type>  (82) 
oracle

>  <origin>  (82) 
adg

>  <m_score__min__energy>  (82) 
-11.5

>  <m_primary>  (82) 
energy

$$$$
82:0
     RDKit          3D

 57 59  0  0  0  0  0  0  0  0999 V2000
    0.8960   20.0410  -35.2820 C   0  0  0  0  0  0  0  0  0  0  0  0
    0.2840   18.8110  -35.9490 C   0  0  0  0  0  0  0  0  0  0  0  0
    0.2940   17.5940  -35.0230 C   0  0  0  0  0  0  0  0  0  0  0  0
   -0.8930   16.7780  -35.2480 N   0  0  0  0  0  0  0  0  0  0  0  0
   -2.1240   16.9230  -34.5300 C   0  0  0  0  0  0  0  0  0  0  0  0
   -2.0740   17.2650  -33.3180 O   0  0  0  0  0  0  0  0  0  0  0  0
   -3.3900   16.6690  -35.1660 N   0  0  0  0  0  0  0  0  0  0  0  0
   -4.6640   16.9340  -34.5540 C   0  0  0  0  0  0  0  0  0  0  0  0
   -4.9170   18.1910  -33.9870 C   0  0  0  0  0  0  0  0  0  0  0  0
   -6.1610   18.4550  -33.3870 C   0  0  0  0  0  0  0  0  0  0  0  0
   -6.4510   19.7900  -32.8020 C   0  0  0  0  0  0  0  0  0  0  0  0
   -7.7920   20.2300  -32.6520 C   0  0  0  0  0  0  0  0  0  0  0  0
   -8.0780   21.4930  -32.1070 C   0  0  0  0  0  0  0  0  0  0  0  0
   -7.0090   22.3000  -31.7320 C   0  0  0  0  0  0  0  0  0  0  0  0
   -7.0040   23.5550  -31.1710 C   0  0  0  0  0  0  0  0  0  0  0  0
   -5.6600   23.8790  -31.0020 C   0  0  0  0  0  0  0  0  0  0  0  0
   -5.1970   25.1920  -30.5060 C   0  0  0  0  0  0  0  0  0  0  0  0
   -3.8930   25.6580  -30.8450 N   0  0  0  0  0  0  0  0  0  0  0  0
   -5.9260   25.8910  -29.7520 O   0  0  0  0  0  0  0  0  0  0  0  0
   -4.8630   22.8600  -31.4340 N   0  0  0  0  0  0  0  0  0  0  0  0
   -3.4310   22.7740  -31.3570 C   0  0  0  0  0  0  0  0  0  0  0  0
   -2.8380   23.1440  -30.3070 O   0  0  0  0  0  0  0  0  0  0  0  0
   -2.7070   22.3040  -32.4640 O   0  0  0  0  0  0  0  0  0  0  0  0
   -1.9920   21.0620  -32.5500 C   0  0  0  0  0  0  0  0  0  0  0  0
   -2.4410   20.1970  -31.3610 C   0  0  0  0  0  0  0  0  0  0  0  0
   -0.4720   21.3000  -32.4440 C   0  0  0  0  0  0  0  0  0  0  0  0
   -2.3380   20.3290  -33.8590 C   0  0  0  0  0  0  0  0  0  0  0  0
   -5.7050   21.9010  -31.8810 C   0  0  0  0  0  0  0  0  0  0  0  0
   -5.3920   20.6380  -32.3990 C   0  0  0  0  0  0  0  0  0  0  0  0
   -7.1270   17.4350  -33.3600 C   0  0  0  0  0  0  0  0  0  0  0  0
   -6.8370   16.1930  -33.9270 C   0  0  0  0  0  0  0  0  0  0  0  0
   -5.6280   15.9720  -34.5030 N   0  0  0  0  0  0  0  0  0  0  0  0
    0.8412   19.9308  -34.1889 H   0  0  0  0  0  0  0  0  0  0  0  0
    1.9479   20.1390  -35.5883 H   0  0  0  0  0  0  0  0  0  0  0  0
    0.3397   20.9392  -35.5883 H   0  0  0  0  0  0  0  0  0  0  0  0
   -0.7560   19.0378  -36.2266 H   0  0  0  0  0  0  0  0  0  0  0  0
    0.8881   18.5688  -36.8358 H   0  0  0  0  0  0  0  0  0  0  0  0
    1.1921   16.9917  -35.2248 H   0  0  0  0  0  0  0  0  0  0  0  0
    0.2987   17.9389  -33.9785 H   0  0  0  0  0  0  0  0  0  0  0  0
   -3.3920   16.2420  -36.1180 H   0  0  0  0  0  0  0  0  0  0  0  0
   -4.1419   18.9712  -34.0115 H   0  0  0  0  0  0  0  0  0  0  0  0
   -8.6174   19.5743  -32.9662 H   0  0  0  0  0  0  0  0  0  0  0  0
   -9.1163   21.8335  -31.9806 H   0  0  0  0  0  0  0  0  0  0  0  0
   -7.8764   24.1724  -30.9108 H   0  0  0  0  0  0  0  0  0  0  0  0
   -3.0480   25.2920  -30.3530 H   0  0  0  0  0  0  0  0  0  0  0  0
   -2.1786   20.7026  -30.4200 H   0  0  0  0  0  0  0  0  0  0  0  0
   -3.5300   20.0485  -31.4061 H   0  0  0  0  0  0  0  0  0  0  0  0
   -1.9357   19.2210  -31.4061 H   0  0  0  0  0  0  0  0  0  0  0  0
   -0.1810   21.3456  -31.3842 H   0  0  0  0  0  0  0  0  0  0  0  0
    0.0635   20.4748  -32.9361 H   0  0  0  0  0  0  0  0  0  0  0  0
   -0.2143   22.2494  -32.9361 H   0  0  0  0  0  0  0  0  0  0  0  0
   -2.7968   19.3571  -33.6248 H   0  0  0  0  0  0  0  0  0  0  0  0
   -3.0444   20.9365  -34.4437 H   0  0  0  0  0  0  0  0  0  0  0  0
   -1.4200   20.1697  -34.4437 H   0  0  0  0  0  0  0  0  0  0  0  0
   -4.3454   20.3121  -32.4907 H   0  0  0  0  0  0  0  0  0  0  0  0
   -8.1072   17.6145  -32.8942 H   0  0  0  0  0  0  0  0  0  0  0  0
   -7.5900   15.3914  -33.9070 H   0  0  0  0  0  0  0  0  0  0  0  0
  1  2  1  0
  2  3  1  0
  3  4  1  0
  4  5  1  0
  5  6  2  0
  5  7  1  0
  7  8  1  0
  8  9  2  0
  9 10  1  0
 10 11  1  0
 11 12  2  0
 12 13  1  0
 13 14  2  0
 14 15  1  0
 15 16  2  0
 16 17  1  0
 17 18  1  0
 17 19  2  0
 16 20  1  0
 20 21  1  0
 21 22  2  0
 21 23  1  0
 23 24  1  0
 24 25  1  0
 24 26  1  0
 24 27  1  0
 20 28  1  0
 28 29  2  0
 10 30  2  0
 30 31  1  0
 31 32  2  0
 32  8  1  0
 29 11  1  0
 28 14  1  0
  1 33  1  0
  1 34  1  0
  1 35  1  0
  2 36  1  0
  2 37  1  0
  3 38  1  0
  3 39  1  0
  7 40  1  0
  9 41  1  0
 12 42  1  0
 13 43  1  0
 15 44  1  0
 18 45  1  0
 25 46  1  0
 25 47  1  0
 25 48  1  0
 26 49  1  0
 26 50  1  0
 26 51  1  0
 27 52  1  0
 27 53  1  0
 27 54  1  0
 29 55  1  0
 30 56  1  0
 31 57  1  0
M  CHG  2   4  -1  18  -1
M  END
>  <UniqueID>  (83) 
82

>  <SMILES>  (83) 
CCC[N-]C(=O)Nc1cc(-c2ccc3cc(C([NH-])=O)n(C(=O)OC(C)(C)C)c3c2)ccn1

>  <Energy>  (83) 
92.70620276089983

>  <Genealogy>  (83) 
CCC[N-]C(=O)Nc1cc(-c2ccc3cc(C([NH-])=O)n(C(=O)OC(C)(C)C)c3c2)ccn1 (protonated)
CCC[N-]C(=O)Nc1cc(-c2ccc3cc(C([NH-])=O)n(C(=O)OC(C)(C)C)c3c2)ccn1 (3D coordinates assigned)
CCC[N-]C(=O)Nc1cc(-c2ccc3cc(C([NH-])=O)n(C(=O)OC(C)(C)C)c3c2)ccn1 (optimized conformer: 92.70620276089983 kcal/mol)

>  <smiles>  (83) 
CCCNC(=O)Nc1cc(-c2ccc3cc(C(N)=O)n(C(=O)OC(C)(C)C)c3c2)ccn1

>  <score_type>  (83) 
oracle

>  <origin>  (83) 
adg

>  <m_score__min__energy>  (83) 
-11.470000000000001

>  <m_primary>  (83) 
energy

$$$$
83:0
     RDKit          3D

 47 49  0  0  0  0  0  0  0  0999 V2000
   -1.6690   21.6010  -30.3600 C   0  0  0  0  0  0  0  0  0  0  0  0
   -2.6100   22.7740  -30.0220 C   0  0  0  0  0  0  0  0  0  0  0  0
   -3.7020   22.2740  -29.0650 C   0  0  0  0  0  0  0  0  0  0  0  0
   -1.8320   23.9150  -29.3380 C   0  0  0  0  0  0  0  0  0  0  0  0
   -3.2680   23.2490  -31.2040 O   0  0  0  0  0  0  0  0  0  0  0  0
   -4.2260   22.5560  -31.9600 C   0  0  0  0  0  0  0  0  0  0  0  0
   -3.8830   21.8420  -32.9400 O   0  0  0  0  0  0  0  0  0  0  0  0
   -5.6130   22.6520  -31.5980 N   0  0  0  0  0  0  0  0  0  0  0  0
   -6.2440   23.6880  -30.9760 C   0  0  0  0  0  0  0  0  0  0  0  0
   -5.5800   24.8850  -30.4130 C   0  0  0  0  0  0  0  0  0  0  0  0
   -5.8720   25.3250  -29.0850 N   0  0  0  0  0  0  0  0  0  0  0  0
   -4.7260   25.5120  -31.0920 O   0  0  0  0  0  0  0  0  0  0  0  0
   -7.6070   23.4240  -30.8540 C   0  0  0  0  0  0  0  0  0  0  0  0
   -7.7920   22.1840  -31.4210 C   0  0  0  0  0  0  0  0  0  0  0  0
   -8.9570   21.4410  -31.5880 C   0  0  0  0  0  0  0  0  0  0  0  0
   -8.8590   20.2000  -32.2390 C   0  0  0  0  0  0  0  0  0  0  0  0
   -7.6050   19.7230  -32.7030 C   0  0  0  0  0  0  0  0  0  0  0  0
   -7.5000   18.4740  -33.4060 N   0  0  0  0  0  0  0  0  0  0  0  0
   -6.2670   17.7700  -33.6310 C   0  0  0  0  0  0  0  0  0  0  0  0
   -5.4940   18.0750  -34.7620 C   0  0  0  0  0  0  0  0  0  0  0  0
   -4.2780   17.4210  -34.9860 C   0  0  0  0  0  0  0  0  0  0  0  0
   -3.8180   16.4690  -34.0730 C   0  0  0  0  0  0  0  0  0  0  0  0
   -4.5680   16.1750  -32.9320 C   0  0  0  0  0  0  0  0  0  0  0  0
   -5.7840   16.8260  -32.7050 C   0  0  0  0  0  0  0  0  0  0  0  0
   -6.4510   20.5160  -32.5340 C   0  0  0  0  0  0  0  0  0  0  0  0
   -6.5730   21.7400  -31.8640 C   0  0  0  0  0  0  0  0  0  0  0  0
   -1.3028   21.1446  -29.4286 H   0  0  0  0  0  0  0  0  0  0  0  0
   -2.2169   20.8486  -30.9463 H   0  0  0  0  0  0  0  0  0  0  0  0
   -0.8157   21.9727  -30.9463 H   0  0  0  0  0  0  0  0  0  0  0  0
   -3.3751   22.4237  -28.0254 H   0  0  0  0  0  0  0  0  0  0  0  0
   -4.6305   22.8367  -29.2420 H   0  0  0  0  0  0  0  0  0  0  0  0
   -3.8826   21.2035  -29.2420 H   0  0  0  0  0  0  0  0  0  0  0  0
   -1.9062   23.8062  -28.2459 H   0  0  0  0  0  0  0  0  0  0  0  0
   -0.7752   23.8706  -29.6399 H   0  0  0  0  0  0  0  0  0  0  0  0
   -2.2593   24.8826  -29.6399 H   0  0  0  0  0  0  0  0  0  0  0  0
   -6.6150   24.8670  -28.5130 H   0  0  0  0  0  0  0  0  0  0  0  0
   -5.3710   26.1480  -28.6840 H   0  0  0  0  0  0  0  0  0  0  0  0
   -8.3729   24.0702  -30.4004 H   0  0  0  0  0  0  0  0  0  0  0  0
   -9.9247   21.8141  -31.2215 H   0  0  0  0  0  0  0  0  0  0  0  0
   -9.7629   19.5918  -32.3907 H   0  0  0  0  0  0  0  0  0  0  0  0
   -8.3800   18.0510  -33.7830 H   0  0  0  0  0  0  0  0  0  0  0  0
   -5.8466   18.8331  -35.4768 H   0  0  0  0  0  0  0  0  0  0  0  0
   -3.6838   17.6564  -35.8813 H   0  0  0  0  0  0  0  0  0  0  0  0
   -2.8646   15.9506  -34.2528 H   0  0  0  0  0  0  0  0  0  0  0  0
   -4.2011   15.4299  -32.2108 H   0  0  0  0  0  0  0  0  0  0  0  0
   -6.3658   16.5998  -31.7993 H   0  0  0  0  0  0  0  0  0  0  0  0
   -5.4769   20.1808  -32.9197 H   0  0  0  0  0  0  0  0  0  0  0  0
  1  2  1  0
  2  3  1  0
  2  4  1  0
  2  5  1  0
  5  6  1  0
  6  7  2  0
  6  8  1  0
  8  9  1  0
  9 10  1  0
 10 11  1  0
 10 12  2  0
  9 13  2  0
 13 14  1  0
 14 15  2  0
 15 16  1  0
 16 17  2  0
 17 18  1  0
 18 19  1  0
 19 20  2  0
 20 21  1  0
 21 22  2  0
 22 23  1  0
 23 24  2  0
 17 25  1  0
 25 26  2  0
 26  8  1  0
 26 14  1  0
 24 19  1  0
  1 27  1  0
  1 28  1  0
  1 29  1  0
  3 30  1  0
  3 31  1  0
  3 32  1  0
  4 33  1  0
  4 34  1  0
  4 35  1  0
 11 36  1  0
 11 37  1  0
 13 38  1  0
 15 39  1  0
 16 40  1  0
 18 41  1  0
 20 42  1  0
 21 43  1  0
 22 44  1  0
 23 45  1  0
 24 46  1  0
 25 47  1  0
M  END
>  <UniqueID>  (84) 
83

>  <SMILES>  (84) 
CC(C)(C)OC(=O)n1c(C(N)=O)cc2ccc(Nc3ccccc3)cc21

>  <Energy>  (84) 
88.1567810196178

>  <Genealogy>  (84) 
CC(C)(C)OC(=O)n1c(C(N)=O)cc2ccc(Nc3ccccc3)cc21 (3D coordinates assigned)
CC(C)(C)OC(=O)n1c(C(N)=O)cc2ccc(Nc3ccccc3)cc21 (optimized conformer: 88.1567810196178 kcal/mol)

>  <smiles>  (84) 
CC(C)(C)OC(=O)n1c(C(N)=O)cc2ccc(Nc3ccccc3)cc21

>  <score_type>  (84) 
oracle

>  <origin>  (84) 
adg

>  <m_score__min__energy>  (84) 
-9.9499999999999993

>  <m_primary>  (84) 
energy

$$$$
84:0
     RDKit          3D

 47 48  0  0  0  0  0  0  0  0999 V2000
   -4.4900   18.3320  -33.3990 C   0  0  0  0  0  0  0  0  0  0  0  0
   -5.9490   18.2870  -33.8830 C   0  0  0  0  0  0  0  0  0  0  0  0
   -6.2050   16.9240  -34.5560 C   0  0  0  0  0  0  0  0  0  0  0  0
   -6.1290   19.3150  -34.8300 O   0  0  0  0  0  0  0  0  0  0  0  0
   -6.9300   18.4680  -32.6920 C   0  0  0  0  0  0  0  0  0  0  0  0
   -7.0740   19.9060  -32.2540 C   0  0  0  0  0  0  0  0  0  0  0  0
   -8.3610   20.4860  -32.1190 C   0  0  0  0  0  0  0  0  0  0  0  0
   -8.5060   21.8140  -31.6840 C   0  0  0  0  0  0  0  0  0  0  0  0
   -7.3510   22.5370  -31.3970 C   0  0  0  0  0  0  0  0  0  0  0  0
   -7.2050   23.8240  -30.9310 C   0  0  0  0  0  0  0  0  0  0  0  0
   -5.8300   24.0170  -30.8090 C   0  0  0  0  0  0  0  0  0  0  0  0
   -5.2220   25.3060  -30.4150 C   0  0  0  0  0  0  0  0  0  0  0  0
   -3.9110   25.6620  -30.8480 N   0  0  0  0  0  0  0  0  0  0  0  0
   -5.8880   26.1250  -29.7270 O   0  0  0  0  0  0  0  0  0  0  0  0
   -5.1540   22.8920  -31.1760 N   0  0  0  0  0  0  0  0  0  0  0  0
   -3.7420   22.6470  -31.1090 C   0  0  0  0  0  0  0  0  0  0  0  0
   -3.1780   21.9850  -32.0210 O   0  0  0  0  0  0  0  0  0  0  0  0
   -3.0030   23.1790  -30.0410 O   0  0  0  0  0  0  0  0  0  0  0  0
   -2.9270   22.6480  -28.7100 C   0  0  0  0  0  0  0  0  0  0  0  0
   -2.8160   21.1120  -28.7430 C   0  0  0  0  0  0  0  0  0  0  0  0
   -1.7380   23.2660  -27.9500 C   0  0  0  0  0  0  0  0  0  0  0  0
   -4.2290   23.0370  -27.9940 C   0  0  0  0  0  0  0  0  0  0  0  0
   -6.1000   21.9960  -31.5370 C   0  0  0  0  0  0  0  0  0  0  0  0
   -5.9260   20.6710  -31.9530 C   0  0  0  0  0  0  0  0  0  0  0  0
   -4.4684   18.3327  -32.2992 H   0  0  0  0  0  0  0  0  0  0  0  0
   -3.9513   17.4500  -33.7758 H   0  0  0  0  0  0  0  0  0  0  0  0
   -4.0067   19.2455  -33.7758 H   0  0  0  0  0  0  0  0  0  0  0  0
   -6.3495   16.1548  -33.7830 H   0  0  0  0  0  0  0  0  0  0  0  0
   -7.1068   16.9881  -35.1826 H   0  0  0  0  0  0  0  0  0  0  0  0
   -5.3414   16.6565  -35.1826 H   0  0  0  0  0  0  0  0  0  0  0  0
   -7.0960   19.3590  -35.0530 H   0  0  0  0  0  0  0  0  0  0  0  0
   -7.9193   18.0936  -32.9938 H   0  0  0  0  0  0  0  0  0  0  0  0
   -6.5181   17.9063  -31.8406 H   0  0  0  0  0  0  0  0  0  0  0  0
   -9.2545   19.8903  -32.3572 H   0  0  0  0  0  0  0  0  0  0  0  0
   -9.5015   22.2687  -31.5735 H   0  0  0  0  0  0  0  0  0  0  0  0
   -8.0031   24.5460  -30.7035 H   0  0  0  0  0  0  0  0  0  0  0  0
   -3.0670   25.2970  -30.3550 H   0  0  0  0  0  0  0  0  0  0  0  0
   -2.7880   20.7242  -27.7140 H   0  0  0  0  0  0  0  0  0  0  0  0
   -3.6862   20.6927  -29.2693 H   0  0  0  0  0  0  0  0  0  0  0  0
   -1.8946   20.8222  -29.2693 H   0  0  0  0  0  0  0  0  0  0  0  0
   -1.9090   23.1771  -26.8670 H   0  0  0  0  0  0  0  0  0  0  0  0
   -0.8138   22.7341  -28.2202 H   0  0  0  0  0  0  0  0  0  0  0  0
   -1.6422   24.3280  -28.2202 H   0  0  0  0  0  0  0  0  0  0  0  0
   -4.0766   22.9915  -26.9056 H   0  0  0  0  0  0  0  0  0  0  0  0
   -4.5143   24.0596  -28.2818 H   0  0  0  0  0  0  0  0  0  0  0  0
   -5.0285   22.3385  -28.2818 H   0  0  0  0  0  0  0  0  0  0  0  0
   -4.9196   20.2363  -32.0432 H   0  0  0  0  0  0  0  0  0  0  0  0
  1  2  1  0
  2  3  1  0
  2  4  1  0
  2  5  1  0
  5  6  1  0
  6  7  2  0
  7  8  1  0
  8  9  2  0
  9 10  1  0
 10 11  2  0
 11 12  1  0
 12 13  1  0
 12 14  2  0
 11 15  1  0
 15 16  1  0
 16 17  2  0
 16 18  1  0
 18 19  1  0
 19 20  1  0
 19 21  1  0
 19 22  1  0
 15 23  1  0
 23 24  2  0
 24  6  1  0
 23  9  1  0
  1 25  1  0
  1 26  1  0
  1 27  1  0
  3 28  1  0
  3 29  1  0
  3 30  1  0
  4 31  1  0
  5 32  1  0
  5 33  1  0
  7 34  1  0
  8 35  1  0
 10 36  1  0
 13 37  1  0
 20 38  1  0
 20 39  1  0
 20 40  1  0
 21 41  1  0
 21 42  1  0
 21 43  1  0
 22 44  1  0
 22 45  1  0
 22 46  1  0
 24 47  1  0
M  CHG  1  13  -1
M  END
>  <UniqueID>  (85) 
84

>  <SMILES>  (85) 
CC(C)(O)Cc1ccc2cc(C([NH-])=O)n(C(=O)OC(C)(C)C)c2c1

>  <Energy>  (85) 
76.60992025917031

>  <Genealogy>  (85) 
CC(C)(O)Cc1ccc2cc(C([NH-])=O)n(C(=O)OC(C)(C)C)c2c1 (protonated)
CC(C)(O)Cc1ccc2cc(C([NH-])=O)n(C(=O)OC(C)(C)C)c2c1 (3D coordinates assigned)
CC(C)(O)Cc1ccc2cc(C([NH-])=O)n(C(=O)OC(C)(C)C)c2c1 (optimized conformer: 76.60992025917031 kcal/mol)

>  <smiles>  (85) 
CC(C)(O)Cc1ccc2cc(C(N)=O)n(C(=O)OC(C)(C)C)c2c1

>  <score_type>  (85) 
oracle

>  <origin>  (85) 
adg

>  <m_score__min__energy>  (85) 
-11.279999999999999

>  <m_primary>  (85) 
energy

$$$$
85:0
     RDKit          3D

 66 69  0  0  0  0  0  0  0  0999 V2000
   -0.4520   21.3070  -31.9510 C   0  0  0  0  0  0  0  0  0  0  0  0
   -1.6840   20.9020  -32.7830 C   0  0  0  0  0  0  0  0  0  0  0  0
   -1.2730   20.5160  -34.2160 C   0  0  0  0  0  0  0  0  0  0  0  0
   -2.3590   19.6940  -32.1180 C   0  0  0  0  0  0  0  0  0  0  0  0
   -2.6480   21.9650  -32.8040 O   0  0  0  0  0  0  0  0  0  0  0  0
   -3.2110   22.6010  -31.6870 C   0  0  0  0  0  0  0  0  0  0  0  0
   -2.4830   23.1550  -30.8220 O   0  0  0  0  0  0  0  0  0  0  0  0
   -4.6400   22.6510  -31.5530 N   0  0  0  0  0  0  0  0  0  0  0  0
   -5.3930   23.5950  -30.9180 C   0  0  0  0  0  0  0  0  0  0  0  0
   -4.8770   24.7090  -30.0960 C   0  0  0  0  0  0  0  0  0  0  0  0
   -3.8870   25.5850  -30.6290 N   0  0  0  0  0  0  0  0  0  0  0  0
   -5.3280   24.9190  -28.9380 O   0  0  0  0  0  0  0  0  0  0  0  0
   -6.7510   23.3240  -31.0810 C   0  0  0  0  0  0  0  0  0  0  0  0
   -6.8070   22.1730  -31.8330 C   0  0  0  0  0  0  0  0  0  0  0  0
   -7.9080   21.4660  -32.3070 C   0  0  0  0  0  0  0  0  0  0  0  0
   -7.6700   20.3260  -33.0910 C   0  0  0  0  0  0  0  0  0  0  0  0
   -6.3460   19.9160  -33.3880 C   0  0  0  0  0  0  0  0  0  0  0  0
   -6.1080   18.7050  -34.2550 C   0  0  0  0  0  0  0  0  0  0  0  0
   -5.6000   17.4820  -33.4430 C   0  0  1  0  0  0  0  0  0  0  0  0
   -6.6070   16.3220  -33.5530 C   0  0  0  0  0  0  0  0  0  0  0  0
   -6.0200   15.0790  -34.2120 C   0  0  0  0  0  0  0  0  0  0  0  0
   -5.2010   14.2680  -33.2150 C   0  0  0  0  0  0  0  0  0  0  0  0
   -3.7320   14.7000  -33.0990 C   0  0  0  0  0  0  0  0  0  0  0  0
   -3.4430   16.1590  -32.9430 N   0  0  1  0  0  0  0  0  0  0  0  0
   -1.9680   16.3680  -33.0360 C   0  0  0  0  0  0  0  0  0  0  0  0
   -1.4640   16.6980  -34.4700 C   0  0  0  0  0  0  0  0  0  0  0  0
   -2.4460   16.3050  -35.5880 C   0  0  0  0  0  0  0  0  0  0  0  0
   -3.8790   16.8200  -35.3390 C   0  0  0  0  0  0  0  0  0  0  0  0
   -4.1300   17.1290  -33.8460 C   0  0  1  0  0  0  0  0  0  0  0  0
   -5.2540   20.6630  -32.8930 C   0  0  0  0  0  0  0  0  0  0  0  0
   -5.5210   21.7860  -32.1020 C   0  0  0  0  0  0  0  0  0  0  0  0
   -0.6908   21.2285  -30.8801 H   0  0  0  0  0  0  0  0  0  0  0  0
    0.3877   20.6376  -32.1895 H   0  0  0  0  0  0  0  0  0  0  0  0
   -0.1733   22.3440  -32.1895 H   0  0  0  0  0  0  0  0  0  0  0  0
   -0.4717   19.7634  -34.1775 H   0  0  0  0  0  0  0  0  0  0  0  0
   -2.1417   20.0997  -34.7471 H   0  0  0  0  0  0  0  0  0  0  0  0
   -0.9120   21.4091  -34.7471 H   0  0  0  0  0  0  0  0  0  0  0  0
   -2.3011   19.7976  -31.0244 H   0  0  0  0  0  0  0  0  0  0  0  0
   -3.4138   19.6475  -32.4266 H   0  0  0  0  0  0  0  0  0  0  0  0
   -1.8457   18.7713  -32.4266 H   0  0  0  0  0  0  0  0  0  0  0  0
   -2.8900   25.2820  -30.7110 H   0  0  0  0  0  0  0  0  0  0  0  0
   -7.5983   23.9070  -30.6909 H   0  0  0  0  0  0  0  0  0  0  0  0
   -8.9331   21.7904  -32.0745 H   0  0  0  0  0  0  0  0  0  0  0  0
   -8.5197   19.7450  -33.4788 H   0  0  0  0  0  0  0  0  0  0  0  0
   -7.0529   18.4331  -34.7481 H   0  0  0  0  0  0  0  0  0  0  0  0
   -5.3299   18.9662  -34.9874 H   0  0  0  0  0  0  0  0  0  0  0  0
   -5.5480   17.7231  -32.3710 H   0  0  0  0  0  0  0  0  0  0  0  0
   -6.9448   16.0548  -32.5408 H   0  0  0  0  0  0  0  0  0  0  0  0
   -7.4367   16.6678  -34.1871 H   0  0  0  0  0  0  0  0  0  0  0  0
   -6.8398   14.4545  -34.5966 H   0  0  0  0  0  0  0  0  0  0  0  0
   -5.3597   15.3959  -35.0327 H   0  0  0  0  0  0  0  0  0  0  0  0
   -5.6681   14.3682  -32.2242 H   0  0  0  0  0  0  0  0  0  0  0  0
   -5.1948   13.2317  -33.5840 H   0  0  0  0  0  0  0  0  0  0  0  0
   -3.3074   14.1863  -32.2239 H   0  0  0  0  0  0  0  0  0  0  0  0
   -3.2879   14.4325  -34.0691 H   0  0  0  0  0  0  0  0  0  0  0  0
   -3.7100   16.4090  -31.9610 H   0  0  0  0  0  0  0  0  0  0  0  0
   -1.6945   17.2020  -32.3730 H   0  0  0  0  0  0  0  0  0  0  0  0
   -1.4935   15.4199  -32.7427 H   0  0  0  0  0  0  0  0  0  0  0  0
   -1.2855   17.7816  -34.5324 H   0  0  0  0  0  0  0  0  0  0  0  0
   -0.5502   16.1066  -34.6286 H   0  0  0  0  0  0  0  0  0  0  0  0
   -2.0825   16.7247  -36.5376 H   0  0  0  0  0  0  0  0  0  0  0  0
   -2.4910   15.2063  -35.6158 H   0  0  0  0  0  0  0  0  0  0  0  0
   -4.0328   17.7394  -35.9230 H   0  0  0  0  0  0  0  0  0  0  0  0
   -4.5822   16.0320  -35.6465 H   0  0  0  0  0  0  0  0  0  0  0  0
   -3.6374   18.0992  -33.6847 H   0  0  0  0  0  0  0  0  0  0  0  0
   -4.2194   20.3692  -33.1236 H   0  0  0  0  0  0  0  0  0  0  0  0
  1  2  1  0
  2  3  1  0
  2  4  1  0
  2  5  1  0
  5  6  1  0
  6  7  2  0
  6  8  1  0
  8  9  1  0
  9 10  1  0
 10 11  1  0
 10 12  2  0
  9 13  2  0
 13 14  1  0
 14 15  2  0
 15 16  1  0
 16 17  2  0
 17 18  1  0
 18 19  1  0
 19 20  1  0
 20 21  1  0
 21 22  1  0
 22 23  1  0
 23 24  1  0
 24 25  1  0
 25 26  1  0
 26 27  1  0
 27 28  1  0
 28 29  1  0
 17 30  1  0
 30 31  2  0
 31  8  1  0
 31 14  1  0
 29 19  1  0
 29 24  1  0
  1 32  1  0
  1 33  1  0
  1 34  1  0
  3 35  1  0
  3 36  1  0
  3 37  1  0
  4 38  1  0
  4 39  1  0
  4 40  1  0
 11 41  1  0
 13 42  1  0
 15 43  1  0
 16 44  1  0
 18 45  1  0
 18 46  1  0
 19 47  1  1
 20 48  1  0
 20 49  1  0
 21 50  1  0
 21 51  1  0
 22 52  1  0
 22 53  1  0
 23 54  1  0
 23 55  1  0
 24 56  1  1
 25 57  1  0
 25 58  1  0
 26 59  1  0
 26 60  1  0
 27 61  1  0
 27 62  1  0
 28 63  1  0
 28 64  1  0
 29 65  1  1
 30 66  1  0
M  CHG  2  11  -1  24   1
M  END
>  <UniqueID>  (86) 
85

>  <SMILES>  (86) 
CC(C)(C)OC(=O)n1c(C([NH-])=O)cc2ccc(C[C@H]3CCCC[N@H+]4CCCCC34)cc21

>  <Energy>  (86) 
124.02093072852519

>  <Genealogy>  (86) 
CC(C)(C)OC(=O)n1c(C([NH-])=O)cc2ccc(CC3CCCC[NH+]4CCCCC34)cc21 (protonated)
CC(C)(C)OC(=O)n1c(C([NH-])=O)cc2ccc(C[C@H]3CCCC[N@H+]4CCCCC34)cc21 (chirality)
CC(C)(C)OC(=O)n1c(C([NH-])=O)cc2ccc(C[C@H]3CCCC[N@H+]4CCCCC34)cc21 (3D coordinates assigned)
CC(C)(C)OC(=O)n1c(C([NH-])=O)cc2ccc(C[C@H]3CCCC[N@H+]4CCCCC34)cc21 (nonaromatic ring conformer: 124.02093072852519 kcal/mol)

>  <smiles>  (86) 
CC(C)(C)OC(=O)n1c(C(N)=O)cc2ccc(CC3CCCCN4CCCCC34)cc21

>  <score_type>  (86) 
oracle

>  <origin>  (86) 
adg

>  <m_score__min__energy>  (86) 
-10.460000000000001

>  <m_primary>  (86) 
energy

$$$$
86:0
     RDKit          3D

 60 62  0  0  0  0  0  0  0  0999 V2000
   -3.8680   24.0970  -27.4400 C   0  0  0  0  0  0  0  0  0  0  0  0
   -2.8960   23.2190  -28.2420 C   0  0  0  0  0  0  0  0  0  0  0  0
   -3.0530   21.7570  -27.7880 C   0  0  0  0  0  0  0  0  0  0  0  0
   -1.4610   23.7190  -27.9870 C   0  0  0  0  0  0  0  0  0  0  0  0
   -3.2410   23.3550  -29.6300 O   0  0  0  0  0  0  0  0  0  0  0  0
   -3.8570   22.3790  -30.4280 C   0  0  0  0  0  0  0  0  0  0  0  0
   -3.2230   21.3450  -30.7760 O   0  0  0  0  0  0  0  0  0  0  0  0
   -5.2130   22.5640  -30.8790 N   0  0  0  0  0  0  0  0  0  0  0  0
   -5.9850   23.6760  -30.7170 C   0  0  0  0  0  0  0  0  0  0  0  0
   -5.5090   25.0040  -30.2810 C   0  0  0  0  0  0  0  0  0  0  0  0
   -6.1170   25.6800  -29.1790 N   0  0  0  0  0  0  0  0  0  0  0  0
   -4.5140   25.5240  -30.8520 O   0  0  0  0  0  0  0  0  0  0  0  0
   -7.3050   23.4170  -31.0680 C   0  0  0  0  0  0  0  0  0  0  0  0
   -7.3210   22.1050  -31.4760 C   0  0  0  0  0  0  0  0  0  0  0  0
   -8.3830   21.3200  -31.9030 C   0  0  0  0  0  0  0  0  0  0  0  0
   -8.1210   19.9850  -32.2430 C   0  0  0  0  0  0  0  0  0  0  0  0
   -6.8050   19.4500  -32.1810 C   0  0  0  0  0  0  0  0  0  0  0  0
   -6.5900   17.9970  -32.6320 C   0  0  1  0  0  0  0  0  0  0  0  0
   -6.4830   17.8850  -34.1660 C   0  0  0  0  0  0  0  0  0  0  0  0
   -5.2400   18.6100  -34.7040 C   0  0  0  0  0  0  0  0  0  0  0  0
   -3.9670   18.4360  -33.8260 C   0  0  1  0  0  0  0  0  0  0  0  0
   -3.6500   19.6900  -33.1110 N   0  0  0  0  0  0  0  0  0  0  0  0
   -2.5970   20.4840  -33.7770 C   0  0  0  0  0  0  0  0  0  0  0  0
   -1.2270   20.3380  -33.0960 C   0  0  0  0  0  0  0  0  0  0  0  0
   -1.3600   19.7960  -31.8110 O   0  0  0  0  0  0  0  0  0  0  0  0
   -4.0980   17.2470  -32.8380 C   0  0  0  0  0  0  0  0  0  0  0  0
   -5.3970   17.2360  -31.9920 C   0  0  0  0  0  0  0  0  0  0  0  0
   -5.7600   20.2800  -31.6890 C   0  0  0  0  0  0  0  0  0  0  0  0
   -6.0470   21.6110  -31.3620 C   0  0  0  0  0  0  0  0  0  0  0  0
   -3.6982   23.9436  -26.3641 H   0  0  0  0  0  0  0  0  0  0  0  0
   -3.6990   25.1546  -27.6908 H   0  0  0  0  0  0  0  0  0  0  0  0
   -4.9030   23.8216  -27.6908 H   0  0  0  0  0  0  0  0  0  0  0  0
   -3.0577   21.7129  -26.6889 H   0  0  0  0  0  0  0  0  0  0  0  0
   -3.9998   21.3524  -28.1753 H   0  0  0  0  0  0  0  0  0  0  0  0
   -2.2137   21.1607  -28.1753 H   0  0  0  0  0  0  0  0  0  0  0  0
   -1.2816   23.7815  -26.9035 H   0  0  0  0  0  0  0  0  0  0  0  0
   -0.7430   23.0181  -28.4377 H   0  0  0  0  0  0  0  0  0  0  0  0
   -1.3340   24.7144  -28.4377 H   0  0  0  0  0  0  0  0  0  0  0  0
   -6.8380   25.2100  -28.5890 H   0  0  0  0  0  0  0  0  0  0  0  0
   -5.7860   26.6300  -28.9010 H   0  0  0  0  0  0  0  0  0  0  0  0
   -8.1553   24.1137  -31.0277 H   0  0  0  0  0  0  0  0  0  0  0  0
   -9.4002   21.7329  -31.9727 H   0  0  0  0  0  0  0  0  0  0  0  0
   -8.9507   19.3383  -32.5643 H   0  0  0  0  0  0  0  0  0  0  0  0
   -7.4962   17.4995  -32.2562 H   0  0  0  0  0  0  0  0  0  0  0  0
   -7.3802   18.3317  -34.6194 H   0  0  0  0  0  0  0  0  0  0  0  0
   -6.3979   16.8197  -34.4266 H   0  0  0  0  0  0  0  0  0  0  0  0
   -5.4690   19.6839  -34.7697 H   0  0  0  0  0  0  0  0  0  0  0  0
   -5.0120   18.1609  -35.6819 H   0  0  0  0  0  0  0  0  0  0  0  0
   -3.1315   18.2005  -34.5017 H   0  0  0  0  0  0  0  0  0  0  0  0
   -3.3560   19.4880  -32.1290 H   0  0  0  0  0  0  0  0  0  0  0  0
   -2.5093   20.1478  -34.8207 H   0  0  0  0  0  0  0  0  0  0  0  0
   -2.8887   21.5428  -33.7150 H   0  0  0  0  0  0  0  0  0  0  0  0
   -0.5928   19.6745  -33.7023 H   0  0  0  0  0  0  0  0  0  0  0  0
   -0.7704   21.3351  -33.0101 H   0  0  0  0  0  0  0  0  0  0  0  0
   -2.2580   20.0610  -31.4810 H   0  0  0  0  0  0  0  0  0  0  0  0
   -3.2420   17.2813  -32.1480 H   0  0  0  0  0  0  0  0  0  0  0  0
   -4.1264   16.3370  -33.4553 H   0  0  0  0  0  0  0  0  0  0  0  0
   -5.1768   17.6989  -31.0187 H   0  0  0  0  0  0  0  0  0  0  0  0
   -5.7064   16.1837  -31.9083 H   0  0  0  0  0  0  0  0  0  0  0  0
   -4.7417   19.8823  -31.5672 H   0  0  0  0  0  0  0  0  0  0  0  0
  1  2  1  0
  2  3  1  0
  2  4  1  0
  2  5  1  0
  5  6  1  0
  6  7  2  0
  6  8  1  0
  8  9  1  0
  9 10  1  0
 10 11  1  0
 10 12  2  0
  9 13  2  0
 13 14  1  0
 14 15  2  0
 15 16  1  0
 16 17  2  0
 17 18  1  0
 18 19  1  0
 19 20  1  0
 20 21  1  0
 21 22  1  0
 22 23  1  0
 23 24  1  0
 24 25  1  0
 21 26  1  0
 26 27  1  0
 17 28  1  0
 28 29  2  0
 29  8  1  0
 29 14  1  0
 27 18  1  0
  1 30  1  0
  1 31  1  0
  1 32  1  0
  3 33  1  0
  3 34  1  0
  3 35  1  0
  4 36  1  0
  4 37  1  0
  4 38  1  0
 11 39  1  0
 11 40  1  0
 13 41  1  0
 15 42  1  0
 16 43  1  0
 18 44  1  1
 19 45  1  0
 19 46  1  0
 20 47  1  0
 20 48  1  0
 21 49  1  6
 22 50  1  0
 23 51  1  0
 23 52  1  0
 24 53  1  0
 24 54  1  0
 25 55  1  0
 26 56  1  0
 26 57  1  0
 27 58  1  0
 27 59  1  0
 28 60  1  0
M  END
>  <UniqueID>  (87) 
86

>  <SMILES>  (87) 
CC(C)(C)OC(=O)n1c(C(N)=O)cc2ccc(C3CCC(NCCO)CC3)cc21

>  <Energy>  (87) 
105.42871006319724

>  <Genealogy>  (87) 
CC(C)(C)OC(=O)n1c(C(N)=O)cc2ccc(C3CCC(NCCO)CC3)cc21 (3D coordinates assigned)
CC(C)(C)OC(=O)n1c(C(N)=O)cc2ccc(C3CCC(NCCO)CC3)cc21 (nonaromatic ring conformer: 105.42871006319724 kcal/mol)

>  <smiles>  (87) 
CC(C)(C)OC(=O)n1c(C(N)=O)cc2ccc(C3CCC(NCCO)CC3)cc21

>  <score_type>  (87) 
oracle

>  <origin>  (87) 
adg

>  <m_score__min__energy>  (87) 
-9.75

>  <m_primary>  (87) 
energy

$$$$
87:0
     RDKit          3D

 53 59  0  0  0  0  0  0  0  0999 V2000
   -7.5120   23.4710  -32.3070 N   0  0  0  0  0  0  0  0  0  0  0  0
   -7.6470   22.1670  -31.7390 C   0  0  0  0  0  0  0  0  0  0  0  0
   -8.4680   21.9890  -30.8010 O   0  0  0  0  0  0  0  0  0  0  0  0
   -6.8630   21.0290  -32.2670 C   0  0  0  0  0  0  0  0  0  0  0  0
   -7.3500   19.7260  -32.3570 C   0  0  0  0  0  0  0  0  0  0  0  0
   -6.2880   18.9690  -32.7960 C   0  0  0  0  0  0  0  0  0  0  0  0
   -6.2140   17.6070  -33.0690 C   0  0  0  0  0  0  0  0  0  0  0  0
   -4.9930   17.0930  -33.5330 C   0  0  0  0  0  0  0  0  0  0  0  0
   -3.8730   17.9450  -33.7120 C   0  0  0  0  0  0  0  0  0  0  0  0
   -2.5910   17.3930  -34.2050 C   0  0  0  0  0  0  0  0  0  0  0  0
   -2.6220   16.4760  -35.2870 C   0  0  0  0  0  0  0  0  0  0  0  0
   -1.4790   15.8850  -35.7390 N   0  0  0  0  0  0  0  0  0  0  0  0
   -0.3020   16.1810  -35.1420 C   0  0  0  0  0  0  0  0  0  0  0  0
    0.8990   15.6990  -35.4960 N   0  0  0  0  0  0  0  0  0  0  0  0
    1.7850   16.2950  -34.6680 C   0  0  0  0  0  0  0  0  0  0  0  0
    1.1360   17.1570  -33.7890 C   0  0  0  0  0  0  0  0  0  0  0  0
   -0.2080   17.0650  -34.1030 C   0  0  0  0  0  0  0  0  0  0  0  0
   -1.3420   17.7160  -33.5970 C   0  0  0  0  0  0  0  0  0  0  0  0
   -1.2230   18.7210  -32.5140 C   0  0  0  0  0  0  0  0  0  0  0  0
   -0.8710   18.3980  -31.2410 N   0  0  0  0  0  0  0  0  0  0  0  0
   -0.8970   19.5850  -30.6200 C   0  0  0  0  0  0  0  0  0  0  0  0
   -0.6260   19.8520  -29.2840 C   0  0  0  0  0  0  0  0  0  0  0  0
   -0.7280   21.1860  -28.8490 C   0  0  0  0  0  0  0  0  0  0  0  0
   -1.0960   22.2230  -29.7510 C   0  0  0  0  0  0  0  0  0  0  0  0
   -1.2040   23.6290  -29.2830 C   0  0  0  0  0  0  0  0  0  0  0  0
   -0.2600   24.3700  -28.5960 C   0  0  0  0  0  0  0  0  0  0  0  0
   -0.7510   25.6010  -28.3570 N   0  0  0  0  0  0  0  0  0  0  0  0
   -1.9710   25.6750  -28.8660 N   0  0  0  0  0  0  0  0  0  0  0  0
   -2.2740   24.4930  -29.4330 C   0  0  0  0  0  0  0  0  0  0  0  0
   -1.3610   21.8960  -31.1050 C   0  0  0  0  0  0  0  0  0  0  0  0
   -1.2480   20.5650  -31.4920 C   0  0  0  0  0  0  0  0  0  0  0  0
   -1.4590   20.0460  -32.7090 N   0  0  0  0  0  0  0  0  0  0  0  0
   -3.9900   19.3250  -33.4380 C   0  0  0  0  0  0  0  0  0  0  0  0
   -5.2130   19.8060  -32.9590 C   0  0  0  0  0  0  0  0  0  0  0  0
   -5.5510   21.0760  -32.6390 N   0  0  0  0  0  0  0  0  0  0  0  0
   -4.7150   22.2400  -32.7460 C   0  0  0  0  0  0  0  0  0  0  0  0
   -3.7710   22.2730  -33.5780 O   0  0  0  0  0  0  0  0  0  0  0  0
   -4.9520   23.3500  -31.9450 O   0  0  0  0  0  0  0  0  0  0  0  0
   -6.8040   23.6690  -33.0490 H   0  0  0  0  0  0  0  0  0  0  0  0
   -8.0980   24.2600  -31.9540 H   0  0  0  0  0  0  0  0  0  0  0  0
   -8.3673   19.3770  -32.1261 H   0  0  0  0  0  0  0  0  0  0  0  0
   -7.0863   16.9523  -32.9255 H   0  0  0  0  0  0  0  0  0  0  0  0
   -4.9039   16.0203  -33.7598 H   0  0  0  0  0  0  0  0  0  0  0  0
   -3.5820   16.2382  -35.7685 H   0  0  0  0  0  0  0  0  0  0  0  0
    1.1090   15.0200  -36.2610 H   0  0  0  0  0  0  0  0  0  0  0  0
    2.8712   16.1224  -34.6862 H   0  0  0  0  0  0  0  0  0  0  0  0
    1.5955   17.7808  -33.0082 H   0  0  0  0  0  0  0  0  0  0  0  0
   -0.3413   19.0477  -28.5897 H   0  0  0  0  0  0  0  0  0  0  0  0
   -0.5204   21.4307  -27.7969 H   0  0  0  0  0  0  0  0  0  0  0  0
    0.7345   24.0108  -28.2928 H   0  0  0  0  0  0  0  0  0  0  0  0
   -3.2221   24.2519  -29.9360 H   0  0  0  0  0  0  0  0  0  0  0  0
   -1.6478   22.6731  -31.8288 H   0  0  0  0  0  0  0  0  0  0  0  0
   -3.1403   20.0052  -33.5973 H   0  0  0  0  0  0  0  0  0  0  0  0
  1  2  1  0
  2  3  2  0
  2  4  1  0
  4  5  2  0
  5  6  1  0
  6  7  2  0
  7  8  1  0
  8  9  2  0
  9 10  1  0
 10 11  2  0
 11 12  1  0
 12 13  2  0
 13 14  1  0
 14 15  1  0
 15 16  2  0
 16 17  1  0
 17 18  2  0
 18 19  1  0
 19 20  2  0
 20 21  1  0
 21 22  2  0
 22 23  1  0
 23 24  2  0
 24 25  1  0
 25 26  1  0
 26 27  2  0
 27 28  1  0
 28 29  1  0
 24 30  1  0
 30 31  2  0
 31 32  1  0
  9 33  1  0
 33 34  2  0
 34 35  1  0
 35 36  1  0
 36 37  2  0
 36 38  1  0
 35  4  1  0
 34  6  1  0
 18 10  1  0
 32 19  1  0
 17 13  1  0
 31 21  1  0
 29 25  2  0
  1 39  1  0
  1 40  1  0
  5 41  1  0
  7 42  1  0
  8 43  1  0
 11 44  1  0
 14 45  1  0
 15 46  1  0
 16 47  1  0
 22 48  1  0
 23 49  1  0
 26 50  1  0
 29 51  1  0
 30 52  1  0
 33 53  1  0
M  CHG  3  28  -1  32  -1  38  -1
M  END
>  <UniqueID>  (88) 
87

>  <SMILES>  (88) 
NC(=O)c1cc2ccc(-c3cnc4[nH]ccc4c3-c3nc4ccc(-c5cn[n-]c5)cc4[n-]3)cc2n1C(=O)[O-]

>  <Energy>  (88) 
214.25950813662914

>  <Genealogy>  (88) 
NC(=O)c1cc2ccc(-c3cnc4[nH]ccc4c3-c3nc4ccc(-c5cn[n-]c5)cc4[n-]3)cc2n1C(=O)[O-] (protonated)
NC(=O)c1cc2ccc(-c3cnc4[nH]ccc4c3-c3nc4ccc(-c5cn[n-]c5)cc4[n-]3)cc2n1C(=O)[O-] (3D coordinates assigned)
NC(=O)c1cc2ccc(-c3cnc4[nH]ccc4c3-c3nc4ccc(-c5cn[n-]c5)cc4[n-]3)cc2n1C(=O)[O-] (optimized conformer: 214.25950813662914 kcal/mol)

>  <smiles>  (88) 
NC(=O)c1cc2ccc(-c3cnc4[nH]ccc4c3-c3nc4ccc(-c5cn[nH]c5)cc4[nH]3)cc2n1C(=O)O

>  <score_type>  (88) 
oracle

>  <origin>  (88) 
adg

>  <m_score__min__energy>  (88) 
-12.300000000000001

>  <m_primary>  (88) 
energy

$$$$
88:0
     RDKit          3D

 44 46  0  0  0  0  0  0  0  0999 V2000
   -3.0300   21.0710  -29.2410 C   0  0  0  0  0  0  0  0  0  0  0  0
   -2.2550   22.3640  -29.4330 C   0  0  0  0  0  0  0  0  0  0  0  0
   -2.9370   23.1910  -30.3700 O   0  0  0  0  0  0  0  0  0  0  0  0
   -3.6760   22.6740  -31.4390 C   0  0  0  0  0  0  0  0  0  0  0  0
   -3.0850   22.1980  -32.4470 O   0  0  0  0  0  0  0  0  0  0  0  0
   -5.1120   22.6800  -31.3850 N   0  0  0  0  0  0  0  0  0  0  0  0
   -5.9250   23.7190  -31.0430 C   0  0  0  0  0  0  0  0  0  0  0  0
   -5.4860   25.0170  -30.4940 C   0  0  0  0  0  0  0  0  0  0  0  0
   -4.1710   25.5190  -30.7430 N   0  0  0  0  0  0  0  0  0  0  0  0
   -6.2640   25.6680  -29.7470 O   0  0  0  0  0  0  0  0  0  0  0  0
   -7.2620   23.3810  -31.2320 C   0  0  0  0  0  0  0  0  0  0  0  0
   -7.2470   22.0840  -31.6910 C   0  0  0  0  0  0  0  0  0  0  0  0
   -8.3010   21.2520  -32.0530 C   0  0  0  0  0  0  0  0  0  0  0  0
   -7.9950   19.9680  -32.5290 C   0  0  0  0  0  0  0  0  0  0  0  0
   -6.6470   19.5380  -32.6470 C   0  0  0  0  0  0  0  0  0  0  0  0
   -6.3350   18.1820  -33.1640 C   0  0  0  0  0  0  0  0  0  0  0  0
   -7.2360   17.1210  -32.9920 C   0  0  0  0  0  0  0  0  0  0  0  0
   -6.9400   15.8850  -33.4700 N   0  0  0  0  0  0  0  0  0  0  0  0
   -5.7810   15.6130  -34.1320 C   0  0  0  0  0  0  0  0  0  0  0  0
   -5.5350   14.2810  -34.6130 N   0  0  0  0  0  0  0  0  0  0  0  0
   -6.5090   13.2110  -34.4370 C   0  0  0  0  0  0  0  0  0  0  0  0
   -4.8450   16.6490  -34.3290 C   0  0  0  0  0  0  0  0  0  0  0  0
   -3.6020   16.4270  -35.0250 C   0  0  0  0  0  0  0  0  0  0  0  0
   -2.6040   16.2490  -35.5840 N   0  0  0  0  0  0  0  0  0  0  0  0
   -5.1320   17.9300  -33.8420 C   0  0  0  0  0  0  0  0  0  0  0  0
   -5.6030   20.4160  -32.2710 C   0  0  0  0  0  0  0  0  0  0  0  0
   -5.9380   21.6830  -31.7780 C   0  0  0  0  0  0  0  0  0  0  0  0
   -3.1496   20.8714  -28.1659 H   0  0  0  0  0  0  0  0  0  0  0  0
   -4.0210   21.1646  -29.7091 H   0  0  0  0  0  0  0  0  0  0  0  0
   -2.4803   20.2411  -29.7091 H   0  0  0  0  0  0  0  0  0  0  0  0
   -2.1746   22.8898  -28.4702 H   0  0  0  0  0  0  0  0  0  0  0  0
   -1.2476   22.1352  -29.8108 H   0  0  0  0  0  0  0  0  0  0  0  0
   -3.8920   26.4570  -30.3790 H   0  0  0  0  0  0  0  0  0  0  0  0
   -3.4490   24.9300  -31.2130 H   0  0  0  0  0  0  0  0  0  0  0  0
   -8.1426   24.0154  -31.0527 H   0  0  0  0  0  0  0  0  0  0  0  0
   -9.3442   21.5907  -31.9686 H   0  0  0  0  0  0  0  0  0  0  0  0
   -8.8096   19.2861  -32.8143 H   0  0  0  0  0  0  0  0  0  0  0  0
   -8.1876   17.2911  -32.4670 H   0  0  0  0  0  0  0  0  0  0  0  0
   -4.6430   14.0500  -35.1040 H   0  0  0  0  0  0  0  0  0  0  0  0
   -6.6697   13.0344  -33.3632 H   0  0  0  0  0  0  0  0  0  0  0  0
   -7.4603   13.5001  -34.9075 H   0  0  0  0  0  0  0  0  0  0  0  0
   -6.1320   12.2909  -34.9075 H   0  0  0  0  0  0  0  0  0  0  0  0
   -4.4090   18.7454  -33.9919 H   0  0  0  0  0  0  0  0  0  0  0  0
   -4.5506   20.1097  -32.3640 H   0  0  0  0  0  0  0  0  0  0  0  0
  1  2  1  0
  2  3  1  0
  3  4  1  0
  4  5  2  0
  4  6  1  0
  6  7  1  0
  7  8  1  0
  8  9  1  0
  8 10  2  0
  7 11  2  0
 11 12  1  0
 12 13  2  0
 13 14  1  0
 14 15  2  0
 15 16  1  0
 16 17  2  0
 17 18  1  0
 18 19  2  0
 19 20  1  0
 20 21  1  0
 19 22  1  0
 22 23  1  0
 23 24  3  0
 22 25  2  0
 15 26  1  0
 26 27  2  0
 27  6  1  0
 27 12  1  0
 25 16  1  0
  1 28  1  0
  1 29  1  0
  1 30  1  0
  2 31  1  0
  2 32  1  0
  9 33  1  0
  9 34  1  0
 11 35  1  0
 13 36  1  0
 14 37  1  0
 17 38  1  0
 20 39  1  0
 21 40  1  0
 21 41  1  0
 21 42  1  0
 25 43  1  0
 26 44  1  0
M  END
>  <UniqueID>  (89) 
88

>  <SMILES>  (89) 
CCOC(=O)n1c(C(N)=O)cc2ccc(-c3cnc(NC)c(C#N)c3)cc21

>  <Energy>  (89) 
84.29546674565519

>  <Genealogy>  (89) 
CCOC(=O)n1c(C(N)=O)cc2ccc(-c3cnc(NC)c(C#N)c3)cc21 (3D coordinates assigned)
CCOC(=O)n1c(C(N)=O)cc2ccc(-c3cnc(NC)c(C#N)c3)cc21 (optimized conformer: 84.29546674565519 kcal/mol)

>  <smiles>  (89) 
CCOC(=O)n1c(C(N)=O)cc2ccc(-c3cnc(NC)c(C#N)c3)cc21

>  <score_type>  (89) 
oracle

>  <origin>  (89) 
adg

>  <m_score__min__energy>  (89) 
-9.1199999999999992

>  <m_primary>  (89) 
energy

$$$$
89:0
     RDKit          3D

 56 59  0  0  0  0  0  0  0  0999 V2000
   -0.2560   18.6870  -27.7940 C   0  0  0  0  0  0  0  0  0  0  0  0
   -0.1650   19.9850  -28.3760 O   0  0  0  0  0  0  0  0  0  0  0  0
   -1.2410   20.8790  -28.5060 C   0  0  0  0  0  0  0  0  0  0  0  0
   -1.8380   21.1460  -29.7540 C   0  0  0  0  0  0  0  0  0  0  0  0
   -2.8810   22.0830  -29.8700 C   0  0  0  0  0  0  0  0  0  0  0  0
   -3.5010   22.3550  -31.1890 C   0  0  0  0  0  0  0  0  0  0  0  0
   -2.7740   22.4700  -32.2130 O   0  0  0  0  0  0  0  0  0  0  0  0
   -4.9240   22.5120  -31.3240 N   0  0  0  0  0  0  0  0  0  0  0  0
   -5.6870   23.5810  -30.9600 C   0  0  0  0  0  0  0  0  0  0  0  0
   -5.1870   24.7920  -30.2690 C   0  0  0  0  0  0  0  0  0  0  0  0
   -5.7410   25.2040  -29.0180 N   0  0  0  0  0  0  0  0  0  0  0  0
   -4.2520   25.4680  -30.7750 O   0  0  0  0  0  0  0  0  0  0  0  0
   -7.0280   23.3440  -31.2660 C   0  0  0  0  0  0  0  0  0  0  0  0
   -7.0580   22.0840  -31.8240 C   0  0  0  0  0  0  0  0  0  0  0  0
   -8.1300   21.3420  -32.3070 C   0  0  0  0  0  0  0  0  0  0  0  0
   -7.8660   20.0670  -32.8360 C   0  0  0  0  0  0  0  0  0  0  0  0
   -6.5390   19.5560  -32.8780 C   0  0  0  0  0  0  0  0  0  0  0  0
   -6.2780   18.2510  -33.4420 N   0  0  0  0  0  0  0  0  0  0  0  0
   -7.0200   17.0850  -32.9420 C   0  0  0  0  0  0  0  0  0  0  0  0
   -6.8330   15.8840  -33.8680 C   0  0  0  0  0  0  0  0  0  0  0  0
   -5.4020   15.6340  -34.0740 N   0  0  0  0  0  0  0  0  0  0  0  0
   -4.6660   16.7880  -34.6410 C   0  0  0  0  0  0  0  0  0  0  0  0
   -5.4550   18.1120  -34.6510 C   0  0  0  0  0  0  0  0  0  0  0  0
   -5.4780   20.3460  -32.3730 C   0  0  0  0  0  0  0  0  0  0  0  0
   -5.7760   21.6050  -31.8430 C   0  0  0  0  0  0  0  0  0  0  0  0
   -3.3070   22.7720  -28.7230 C   0  0  0  0  0  0  0  0  0  0  0  0
   -2.7260   22.5060  -27.4830 C   0  0  0  0  0  0  0  0  0  0  0  0
   -1.7160   21.5480  -27.3590 C   0  0  0  0  0  0  0  0  0  0  0  0
   -1.1770   21.3130  -26.0860 O   0  0  0  0  0  0  0  0  0  0  0  0
   -0.5050   22.2770  -25.3230 C   0  0  0  0  0  0  0  0  0  0  0  0
    0.2030   23.3950  -26.0120 C   0  0  0  0  0  0  0  0  0  0  0  0
   -0.4920   22.2150  -24.0640 O   0  0  0  0  0  0  0  0  0  0  0  0
   -0.2498   18.7755  -26.6976 H   0  0  0  0  0  0  0  0  0  0  0  0
   -1.1902   18.2047  -28.1176 H   0  0  0  0  0  0  0  0  0  0  0  0
    0.6017   18.0791  -28.1176 H   0  0  0  0  0  0  0  0  0  0  0  0
   -1.4838   20.6147  -30.6497 H   0  0  0  0  0  0  0  0  0  0  0  0
   -6.5510   24.7060  -28.5900 H   0  0  0  0  0  0  0  0  0  0  0  0
   -5.3620   26.0450  -28.5310 H   0  0  0  0  0  0  0  0  0  0  0  0
   -7.8799   24.0193  -31.0976 H   0  0  0  0  0  0  0  0  0  0  0  0
   -9.1546   21.7411  -32.2760 H   0  0  0  0  0  0  0  0  0  0  0  0
   -8.6956   19.4567  -33.2223 H   0  0  0  0  0  0  0  0  0  0  0  0
   -6.6519   16.8269  -31.9381 H   0  0  0  0  0  0  0  0  0  0  0  0
   -8.0899   17.3378  -32.9047 H   0  0  0  0  0  0  0  0  0  0  0  0
   -7.2971   14.9964  -33.4133 H   0  0  0  0  0  0  0  0  0  0  0  0
   -7.3083   16.0950  -34.8373 H   0  0  0  0  0  0  0  0  0  0  0  0
   -5.3050   14.8140  -34.7230 H   0  0  0  0  0  0  0  0  0  0  0  0
   -3.7527   16.9377  -34.0465 H   0  0  0  0  0  0  0  0  0  0  0  0
   -4.4613   16.5399  -35.6929 H   0  0  0  0  0  0  0  0  0  0  0  0
   -4.7459   18.9515  -34.7005 H   0  0  0  0  0  0  0  0  0  0  0  0
   -6.1207   18.1134  -35.5267 H   0  0  0  0  0  0  0  0  0  0  0  0
   -4.4419   19.9773  -32.3971 H   0  0  0  0  0  0  0  0  0  0  0  0
   -4.1038   23.5262  -28.8028 H   0  0  0  0  0  0  0  0  0  0  0  0
   -3.0664   23.0561  -26.5933 H   0  0  0  0  0  0  0  0  0  0  0  0
    0.6332   24.0744  -25.2615 H   0  0  0  0  0  0  0  0  0  0  0  0
    1.0077   22.9869  -26.6413 H   0  0  0  0  0  0  0  0  0  0  0  0
   -0.5099   23.9480  -26.6413 H   0  0  0  0  0  0  0  0  0  0  0  0
  1  2  1  0
  2  3  1  0
  3  4  2  0
  4  5  1  0
  5  6  1  0
  6  7  2  0
  6  8  1  0
  8  9  1  0
  9 10  1  0
 10 11  1  0
 10 12  2  0
  9 13  2  0
 13 14  1  0
 14 15  2  0
 15 16  1  0
 16 17  2  0
 17 18  1  0
 18 19  1  0
 19 20  1  0
 20 21  1  0
 21 22  1  0
 22 23  1  0
 17 24  1  0
 24 25  2  0
  5 26  2  0
 26 27  1  0
 27 28  2  0
 28 29  1  0
 29 30  1  0
 30 31  1  0
 30 32  2  0
 28  3  1  0
 25  8  1  0
 25 14  1  0
 23 18  1  0
  1 33  1  0
  1 34  1  0
  1 35  1  0
  4 36  1  0
 11 37  1  0
 11 38  1  0
 13 39  1  0
 15 40  1  0
 16 41  1  0
 19 42  1  0
 19 43  1  0
 20 44  1  0
 20 45  1  0
 21 46  1  0
 22 47  1  0
 22 48  1  0
 23 49  1  0
 23 50  1  0
 24 51  1  0
 26 52  1  0
 27 53  1  0
 31 54  1  0
 31 55  1  0
 31 56  1  0
M  END
>  <UniqueID>  (90) 
89

>  <SMILES>  (90) 
COc1cc(C(=O)n2c(C(N)=O)cc3ccc(N4CCNCC4)cc32)ccc1OC(C)=O

>  <Energy>  (90) 
111.34558403431096

>  <Genealogy>  (90) 
COc1cc(C(=O)n2c(C(N)=O)cc3ccc(N4CCNCC4)cc32)ccc1OC(C)=O (3D coordinates assigned)
COc1cc(C(=O)n2c(C(N)=O)cc3ccc(N4CCNCC4)cc32)ccc1OC(C)=O (nonaromatic ring conformer: 111.34558403431096 kcal/mol)

>  <smiles>  (90) 
COc1cc(C(=O)n2c(C(N)=O)cc3ccc(N4CCNCC4)cc32)ccc1OC(C)=O

>  <score_type>  (90) 
oracle

>  <origin>  (90) 
adg

>  <m_score__min__energy>  (90) 
-10.470000000000001

>  <m_primary>  (90) 
energy

$$$$
90:0
     RDKit          3D

 38 40  0  0  0  0  0  0  0  0999 V2000
   -1.4900   14.9570  -33.5780 C   0  0  0  0  0  0  0  0  0  0  0  0
   -2.6900   15.4240  -34.1850 O   0  0  0  0  0  0  0  0  0  0  0  0
   -3.3870   16.5760  -33.7890 C   0  0  0  0  0  0  0  0  0  0  0  0
   -4.6360   16.5090  -33.1440 C   0  0  0  0  0  0  0  0  0  0  0  0
   -5.3060   17.6750  -32.7630 C   0  0  0  0  0  0  0  0  0  0  0  0
   -6.8330   17.5130  -31.8970 Cl  0  0  0  0  0  0  0  0  0  0  0  0
   -4.7330   18.9360  -33.0300 C   0  0  0  0  0  0  0  0  0  0  0  0
   -5.4160   20.1950  -32.6570 C   0  0  0  0  0  0  0  0  0  0  0  0
   -6.7620   20.4100  -33.0460 C   0  0  0  0  0  0  0  0  0  0  0  0
   -7.4260   21.5970  -32.6990 C   0  0  0  0  0  0  0  0  0  0  0  0
   -6.7270   22.5410  -31.9530 C   0  0  0  0  0  0  0  0  0  0  0  0
   -7.1190   23.7840  -31.5100 C   0  0  0  0  0  0  0  0  0  0  0  0
   -6.0210   24.2930  -30.8230 C   0  0  0  0  0  0  0  0  0  0  0  0
   -6.0340   25.5910  -30.1210 C   0  0  0  0  0  0  0  0  0  0  0  0
   -6.8480   25.7980  -28.9660 N   0  0  0  0  0  0  0  0  0  0  0  0
   -5.3600   26.5500  -30.5820 O   0  0  0  0  0  0  0  0  0  0  0  0
   -4.9840   23.4090  -30.8500 N   0  0  0  0  0  0  0  0  0  0  0  0
   -3.6460   23.6140  -30.3640 C   0  0  0  0  0  0  0  0  0  0  0  0
   -3.1870   24.9290  -30.0560 N   0  0  0  0  0  0  0  0  0  0  0  0
   -2.8650   22.6370  -30.2180 O   0  0  0  0  0  0  0  0  0  0  0  0
   -5.4350   22.3380  -31.5430 C   0  0  0  0  0  0  0  0  0  0  0  0
   -4.7430   21.1720  -31.8910 C   0  0  0  0  0  0  0  0  0  0  0  0
   -3.4820   18.9990  -33.6630 C   0  0  0  0  0  0  0  0  0  0  0  0
   -2.8080   17.8270  -34.0450 C   0  0  0  0  0  0  0  0  0  0  0  0
   -1.5630   17.8690  -34.6830 O   0  0  0  0  0  0  0  0  0  0  0  0
   -0.4830   19.2200  -34.6100 Cl  0  0  0  0  0  0  0  0  0  0  0  0
   -1.5930   14.9971  -32.4836 H   0  0  0  0  0  0  0  0  0  0  0  0
   -1.3006   13.9195  -33.8907 H   0  0  0  0  0  0  0  0  0  0  0  0
   -0.6491   15.5935  -33.8907 H   0  0  0  0  0  0  0  0  0  0  0  0
   -5.0898   15.5285  -32.9375 H   0  0  0  0  0  0  0  0  0  0  0  0
   -7.2913   19.6392  -33.6254 H   0  0  0  0  0  0  0  0  0  0  0  0
   -8.4667   21.7754  -33.0073 H   0  0  0  0  0  0  0  0  0  0  0  0
   -8.0928   24.2712  -31.6659 H   0  0  0  0  0  0  0  0  0  0  0  0
   -7.5390   25.0800  -28.6570 H   0  0  0  0  0  0  0  0  0  0  0  0
   -6.8170   26.7110  -28.4610 H   0  0  0  0  0  0  0  0  0  0  0  0
   -3.8100   25.6160  -29.5760 H   0  0  0  0  0  0  0  0  0  0  0  0
   -3.7002   21.0204  -31.5754 H   0  0  0  0  0  0  0  0  0  0  0  0
   -3.0233   19.9787  -33.8626 H   0  0  0  0  0  0  0  0  0  0  0  0
  1  2  1  0
  2  3  1  0
  3  4  2  0
  4  5  1  0
  5  6  1  0
  5  7  2  0
  7  8  1  0
  8  9  2  0
  9 10  1  0
 10 11  2  0
 11 12  1  0
 12 13  2  0
 13 14  1  0
 14 15  1  0
 14 16  2  0
 13 17  1  0
 17 18  1  0
 18 19  1  0
 18 20  2  0
 17 21  1  0
 21 22  2  0
  7 23  1  0
 23 24  2  0
 24 25  1  0
 25 26  1  0
 24  3  1  0
 22  8  1  0
 21 11  1  0
  1 27  1  0
  1 28  1  0
  1 29  1  0
  4 30  1  0
  9 31  1  0
 10 32  1  0
 12 33  1  0
 15 34  1  0
 15 35  1  0
 19 36  1  0
 22 37  1  0
 23 38  1  0
M  CHG  1  19  -1
M  END
>  <UniqueID>  (91) 
90

>  <SMILES>  (91) 
COc1cc(Cl)c(-c2ccc3cc(C(N)=O)n(C([NH-])=O)c3c2)cc1OCl

>  <Energy>  (91) 
88.69157337766887

>  <Genealogy>  (91) 
COc1cc(Cl)c(-c2ccc3cc(C(N)=O)n(C([NH-])=O)c3c2)cc1OCl (protonated)
COc1cc(Cl)c(-c2ccc3cc(C(N)=O)n(C([NH-])=O)c3c2)cc1OCl (3D coordinates assigned)
COc1cc(Cl)c(-c2ccc3cc(C(N)=O)n(C([NH-])=O)c3c2)cc1OCl (optimized conformer: 88.69157337766887 kcal/mol)

>  <smiles>  (91) 
COc1cc(Cl)c(-c2ccc3cc(C(N)=O)n(C(N)=O)c3c2)cc1OCl

>  <score_type>  (91) 
oracle

>  <origin>  (91) 
adg

>  <m_score__min__energy>  (91) 
-9.5700000000000003

>  <m_primary>  (91) 
energy

$$$$
91:0
     RDKit          3D

 40 42  0  0  0  0  0  0  0  0999 V2000
   -8.7280   18.2910  -31.2070 C   0  0  0  0  0  0  0  0  0  0  0  0
   -7.5640   19.0990  -31.6120 N   0  0  1  0  0  0  0  0  0  0  0  0
   -6.3880   18.2260  -31.9000 C   0  0  0  0  0  0  0  0  0  0  0  0
   -5.6240   18.5860  -33.1920 C   0  0  0  0  0  0  0  0  0  0  0  0
   -5.4680   20.1060  -33.4160 C   0  0  2  0  0  0  0  0  0  0  0  0
   -4.2530   20.6540  -32.6800 C   0  0  0  0  0  0  0  0  0  0  0  0
   -3.0320   19.9300  -32.7080 C   0  0  0  0  0  0  0  0  0  0  0  0
   -1.9000   20.3990  -32.0230 C   0  0  0  0  0  0  0  0  0  0  0  0
   -2.0160   21.5830  -31.3040 C   0  0  0  0  0  0  0  0  0  0  0  0
   -1.0750   22.2700  -30.5720 C   0  0  0  0  0  0  0  0  0  0  0  0
   -1.7380   23.3900  -30.0750 C   0  0  0  0  0  0  0  0  0  0  0  0
   -1.1130   24.3620  -29.1540 C   0  0  0  0  0  0  0  0  0  0  0  0
   -1.6810   25.6530  -28.9550 N   0  0  0  0  0  0  0  0  0  0  0  0
   -0.0930   24.0280  -28.4950 O   0  0  0  0  0  0  0  0  0  0  0  0
   -3.0370   23.4010  -30.4910 N   0  0  0  0  0  0  0  0  0  0  0  0
   -4.0210   24.4240  -30.2730 C   0  0  0  0  0  0  0  0  0  0  0  0
   -5.0430   24.1870  -29.5770 O   0  0  0  0  0  0  0  0  0  0  0  0
   -3.8680   25.6790  -30.8510 O   0  0  0  0  0  0  0  0  0  0  0  0
   -3.1900   22.2850  -31.2400 C   0  0  0  0  0  0  0  0  0  0  0  0
   -4.3290   21.8530  -31.9300 C   0  0  0  0  0  0  0  0  0  0  0  0
   -6.7650   20.9000  -33.1130 C   0  0  0  0  0  0  0  0  0  0  0  0
   -7.9360   19.9830  -32.7370 C   0  0  0  0  0  0  0  0  0  0  0  0
   -8.7835   18.2525  -30.1091 H   0  0  0  0  0  0  0  0  0  0  0  0
   -9.6468   18.7465  -31.6048 H   0  0  0  0  0  0  0  0  0  0  0  0
   -8.6225   17.2709  -31.6048 H   0  0  0  0  0  0  0  0  0  0  0  0
   -7.3290   19.7100  -30.7940 H   0  0  0  0  0  0  0  0  0  0  0  0
   -6.7437   17.1889  -31.9890 H   0  0  0  0  0  0  0  0  0  0  0  0
   -5.6816   18.3690  -31.0690 H   0  0  0  0  0  0  0  0  0  0  0  0
   -6.1700   18.1628  -34.0480 H   0  0  0  0  0  0  0  0  0  0  0  0
   -4.6108   18.1692  -33.0939 H   0  0  0  0  0  0  0  0  0  0  0  0
   -5.2860   20.2525  -34.4909 H   0  0  0  0  0  0  0  0  0  0  0  0
   -2.9722   18.9888  -33.2742 H   0  0  0  0  0  0  0  0  0  0  0  0
   -0.9496   19.8461  -32.0543 H   0  0  0  0  0  0  0  0  0  0  0  0
   -0.0223   21.9935  -30.4129 H   0  0  0  0  0  0  0  0  0  0  0  0
   -2.7110   25.8050  -29.0340 H   0  0  0  0  0  0  0  0  0  0  0  0
   -5.2631   22.4325  -31.8905 H   0  0  0  0  0  0  0  0  0  0  0  0
   -7.0420   21.4788  -34.0064 H   0  0  0  0  0  0  0  0  0  0  0  0
   -6.5637   21.5572  -32.2542 H   0  0  0  0  0  0  0  0  0  0  0  0
   -8.2063   19.3666  -33.6070 H   0  0  0  0  0  0  0  0  0  0  0  0
   -8.7900   20.6054  -32.4316 H   0  0  0  0  0  0  0  0  0  0  0  0
  1  2  1  0
  2  3  1  0
  3  4  1  0
  4  5  1  0
  5  6  1  0
  6  7  2  0
  7  8  1  0
  8  9  2  0
  9 10  1  0
 10 11  2  0
 11 12  1  0
 12 13  1  0
 12 14  2  0
 11 15  1  0
 15 16  1  0
 16 17  2  0
 16 18  1  0
 15 19  1  0
 19 20  2  0
  5 21  1  0
 21 22  1  0
 22  2  1  0
 20  6  1  0
 19  9  1  0
  1 23  1  0
  1 24  1  0
  1 25  1  0
  2 26  1  1
  3 27  1  0
  3 28  1  0
  4 29  1  0
  4 30  1  0
  5 31  1  6
  7 32  1  0
  8 33  1  0
 10 34  1  0
 13 35  1  0
 20 36  1  0
 21 37  1  0
 21 38  1  0
 22 39  1  0
 22 40  1  0
M  CHG  3   2   1  13  -1  18  -1
M  END
>  <UniqueID>  (92) 
91

>  <SMILES>  (92) 
C[NH+]1CCC(c2ccc3cc(C([NH-])=O)n(C(=O)[O-])c3c2)CC1

>  <Energy>  (92) 
91.42693269345452

>  <Genealogy>  (92) 
C[NH+]1CCC(c2ccc3cc(C([NH-])=O)n(C(=O)[O-])c3c2)CC1 (protonated)
C[NH+]1CCC(c2ccc3cc(C([NH-])=O)n(C(=O)[O-])c3c2)CC1 (3D coordinates assigned)
C[NH+]1CCC(c2ccc3cc(C([NH-])=O)n(C(=O)[O-])c3c2)CC1 (nonaromatic ring conformer: 91.42693269345452 kcal/mol)

>  <smiles>  (92) 
CN1CCC(c2ccc3cc(C(N)=O)n(C(=O)O)c3c2)CC1

>  <score_type>  (92) 
oracle

>  <origin>  (92) 
adg

>  <m_score__min__energy>  (92) 
-11.279999999999999

>  <m_primary>  (92) 
energy

$$$$
92:0
     RDKit          3D

 56 58  0  0  0  0  0  0  0  0999 V2000
   -2.6570   12.2950  -31.8640 C   0  0  0  0  0  0  0  0  0  0  0  0
   -3.7480   12.8560  -32.5860 O   0  0  0  0  0  0  0  0  0  0  0  0
   -4.2960   14.1070  -32.2780 C   0  0  0  0  0  0  0  0  0  0  0  0
   -4.8940   14.2850  -31.1790 O   0  0  0  0  0  0  0  0  0  0  0  0
   -4.1550   15.2350  -33.2850 C   0  0  0  0  0  0  0  0  0  0  0  0
   -4.3120   14.7150  -34.7290 C   0  0  0  0  0  0  0  0  0  0  0  0
   -2.7470   15.8440  -33.1100 C   0  0  0  0  0  0  0  0  0  0  0  0
   -5.2010   16.2460  -33.0350 N   0  0  0  0  0  0  0  0  0  0  0  0
   -5.0160   17.5160  -32.6080 C   0  0  0  0  0  0  0  0  0  0  0  0
   -6.2320   18.1740  -32.6540 C   0  0  0  0  0  0  0  0  0  0  0  0
   -6.5110   19.5860  -32.3020 C   0  0  0  0  0  0  0  0  0  0  0  0
   -7.8420   20.0860  -32.3070 C   0  0  0  0  0  0  0  0  0  0  0  0
   -8.1110   21.4260  -31.9790 C   0  0  0  0  0  0  0  0  0  0  0  0
   -7.0360   22.2430  -31.6410 C   0  0  0  0  0  0  0  0  0  0  0  0
   -7.0100   23.5700  -31.2790 C   0  0  0  0  0  0  0  0  0  0  0  0
   -5.6660   23.8680  -31.0470 C   0  0  0  0  0  0  0  0  0  0  0  0
   -5.2020   25.1860  -30.5600 C   0  0  0  0  0  0  0  0  0  0  0  0
   -3.8920   25.6740  -30.8520 N   0  0  0  0  0  0  0  0  0  0  0  0
   -5.9800   25.8990  -29.8680 O   0  0  0  0  0  0  0  0  0  0  0  0
   -4.8940   22.7620  -31.2620 N   0  0  0  0  0  0  0  0  0  0  0  0
   -3.4750   22.6160  -31.1030 C   0  0  0  0  0  0  0  0  0  0  0  0
   -2.8130   22.0070  -31.9880 O   0  0  0  0  0  0  0  0  0  0  0  0
   -2.8320   23.2130  -30.0110 O   0  0  0  0  0  0  0  0  0  0  0  0
   -2.8860   22.7610  -28.6480 C   0  0  0  0  0  0  0  0  0  0  0  0
   -2.8390   21.2240  -28.5970 C   0  0  0  0  0  0  0  0  0  0  0  0
   -1.6530   23.3290  -27.9250 C   0  0  0  0  0  0  0  0  0  0  0  0
   -4.1550   23.2860  -27.9420 C   0  0  0  0  0  0  0  0  0  0  0  0
   -5.7480   21.7790  -31.6180 C   0  0  0  0  0  0  0  0  0  0  0  0
   -5.4480   20.4550  -31.9540 C   0  0  0  0  0  0  0  0  0  0  0  0
   -7.1230   17.2370  -33.1480 C   0  0  0  0  0  0  0  0  0  0  0  0
   -6.4690   16.0850  -33.3880 N   0  0  0  0  0  0  0  0  0  0  0  0
   -2.8438   12.3910  -30.7842 H   0  0  0  0  0  0  0  0  0  0  0  0
   -2.5528   11.2315  -32.1249 H   0  0  0  0  0  0  0  0  0  0  0  0
   -1.7314   12.8290  -32.1249 H   0  0  0  0  0  0  0  0  0  0  0  0
   -4.6299   13.6622  -34.7070 H   0  0  0  0  0  0  0  0  0  0  0  0
   -5.0688   15.3156  -35.2548 H   0  0  0  0  0  0  0  0  0  0  0  0
   -3.3492   14.7964  -35.2548 H   0  0  0  0  0  0  0  0  0  0  0  0
   -2.5205   15.9420  -32.0380 H   0  0  0  0  0  0  0  0  0  0  0  0
   -2.0021   15.1876  -33.5836 H   0  0  0  0  0  0  0  0  0  0  0  0
   -2.7152   16.8363  -33.5836 H   0  0  0  0  0  0  0  0  0  0  0  0
   -4.0608   17.9517  -32.2799 H   0  0  0  0  0  0  0  0  0  0  0  0
   -8.6726   19.4149  -32.5712 H   0  0  0  0  0  0  0  0  0  0  0  0
   -9.1392   21.8169  -31.9891 H   0  0  0  0  0  0  0  0  0  0  0  0
   -7.8679   24.2528  -31.1909 H   0  0  0  0  0  0  0  0  0  0  0  0
   -3.0550   25.2960  -30.3540 H   0  0  0  0  0  0  0  0  0  0  0  0
   -2.8288   20.8921  -27.5483 H   0  0  0  0  0  0  0  0  0  0  0  0
   -3.7250   20.8131  -29.1031 H   0  0  0  0  0  0  0  0  0  0  0  0
   -1.9295   20.8680  -29.1031 H   0  0  0  0  0  0  0  0  0  0  0  0
   -1.8018   23.2604  -26.8373 H   0  0  0  0  0  0  0  0  0  0  0  0
   -0.7619   22.7506  -28.2103 H   0  0  0  0  0  0  0  0  0  0  0  0
   -1.5135   24.3821  -28.2103 H   0  0  0  0  0  0  0  0  0  0  0  0
   -4.0182   23.2294  -26.8520 H   0  0  0  0  0  0  0  0  0  0  0  0
   -4.3321   24.3312  -28.2355 H   0  0  0  0  0  0  0  0  0  0  0  0
   -5.0188   22.6714  -28.2355 H   0  0  0  0  0  0  0  0  0  0  0  0
   -4.4082   20.0960  -31.9481 H   0  0  0  0  0  0  0  0  0  0  0  0
   -8.1965   17.4069  -33.3178 H   0  0  0  0  0  0  0  0  0  0  0  0
  1  2  1  0
  2  3  1  0
  3  4  2  0
  3  5  1  0
  5  6  1  0
  5  7  1  0
  5  8  1  0
  8  9  1  0
  9 10  2  0
 10 11  1  0
 11 12  2  0
 12 13  1  0
 13 14  2  0
 14 15  1  0
 15 16  2  0
 16 17  1  0
 17 18  1  0
 17 19  2  0
 16 20  1  0
 20 21  1  0
 21 22  2  0
 21 23  1  0
 23 24  1  0
 24 25  1  0
 24 26  1  0
 24 27  1  0
 20 28  1  0
 28 29  2  0
 10 30  1  0
 30 31  2  0
 31  8  1  0
 29 11  1  0
 28 14  1  0
  1 32  1  0
  1 33  1  0
  1 34  1  0
  6 35  1  0
  6 36  1  0
  6 37  1  0
  7 38  1  0
  7 39  1  0
  7 40  1  0
  9 41  1  0
 12 42  1  0
 13 43  1  0
 15 44  1  0
 18 45  1  0
 25 46  1  0
 25 47  1  0
 25 48  1  0
 26 49  1  0
 26 50  1  0
 26 51  1  0
 27 52  1  0
 27 53  1  0
 27 54  1  0
 29 55  1  0
 30 56  1  0
M  CHG  1  18  -1
M  END
>  <UniqueID>  (93) 
92

>  <SMILES>  (93) 
COC(=O)C(C)(C)n1cc(-c2ccc3cc(C([NH-])=O)n(C(=O)OC(C)(C)C)c3c2)cn1

>  <Energy>  (93) 
122.44845604077362

>  <Genealogy>  (93) 
COC(=O)C(C)(C)n1cc(-c2ccc3cc(C([NH-])=O)n(C(=O)OC(C)(C)C)c3c2)cn1 (protonated)
COC(=O)C(C)(C)n1cc(-c2ccc3cc(C([NH-])=O)n(C(=O)OC(C)(C)C)c3c2)cn1 (3D coordinates assigned)
COC(=O)C(C)(C)n1cc(-c2ccc3cc(C([NH-])=O)n(C(=O)OC(C)(C)C)c3c2)cn1 (optimized conformer: 122.44845604077362 kcal/mol)

>  <smiles>  (93) 
COC(=O)C(C)(C)n1cc(-c2ccc3cc(C(N)=O)n(C(=O)OC(C)(C)C)c3c2)cn1

>  <score_type>  (93) 
oracle

>  <origin>  (93) 
adg

>  <m_score__min__energy>  (93) 
-10.67

>  <m_primary>  (93) 
energy

$$$$
93:0
     RDKit          3D

 52 54  0  0  0  0  0  0  0  0999 V2000
   -0.7020   21.3000  -32.9950 C   0  0  0  0  0  0  0  0  0  0  0  0
   -2.1640   20.8620  -32.7810 C   0  0  0  0  0  0  0  0  0  0  0  0
   -2.3110   20.0780  -31.4630 C   0  0  0  0  0  0  0  0  0  0  0  0
   -2.5860   19.9590  -33.9490 C   0  0  0  0  0  0  0  0  0  0  0  0
   -3.0350   22.0010  -32.7930 O   0  0  0  0  0  0  0  0  0  0  0  0
   -3.5680   22.6580  -31.6730 C   0  0  0  0  0  0  0  0  0  0  0  0
   -2.8150   23.1750  -30.8040 O   0  0  0  0  0  0  0  0  0  0  0  0
   -4.9920   22.7700  -31.5410 N   0  0  0  0  0  0  0  0  0  0  0  0
   -5.7160   23.8110  -31.0410 C   0  0  0  0  0  0  0  0  0  0  0  0
   -5.1660   25.0160  -30.3860 C   0  0  0  0  0  0  0  0  0  0  0  0
   -3.9510   25.6090  -30.8370 N   0  0  0  0  0  0  0  0  0  0  0  0
   -5.7540   25.5030  -29.3830 O   0  0  0  0  0  0  0  0  0  0  0  0
   -7.0810   23.5510  -31.1480 C   0  0  0  0  0  0  0  0  0  0  0  0
   -7.1720   22.3030  -31.7240 C   0  0  0  0  0  0  0  0  0  0  0  0
   -8.2920   21.5450  -32.0550 C   0  0  0  0  0  0  0  0  0  0  0  0
   -8.0840   20.2910  -32.6560 C   0  0  0  0  0  0  0  0  0  0  0  0
   -6.7730   19.8290  -32.9310 C   0  0  0  0  0  0  0  0  0  0  0  0
   -6.5700   18.5400  -33.5380 N   0  0  0  0  0  0  0  0  0  0  0  0
   -6.7020   17.3240  -32.7220 C   0  0  0  0  0  0  0  0  0  0  0  0
   -5.8700   16.1690  -33.3040 C   0  0  0  0  0  0  0  0  0  0  0  0
   -4.5200   16.6690  -33.8700 C   0  0  0  0  0  0  0  0  0  0  0  0
   -3.6490   17.1630  -32.7920 N   0  0  0  0  0  0  0  0  0  0  0  0
   -4.7150   17.7550  -34.9650 C   0  0  0  0  0  0  0  0  0  0  0  0
   -6.0980   18.4250  -34.9230 C   0  0  0  0  0  0  0  0  0  0  0  0
   -5.6630   20.6260  -32.5750 C   0  0  0  0  0  0  0  0  0  0  0  0
   -5.8980   21.8570  -31.9550 C   0  0  0  0  0  0  0  0  0  0  0  0
   -0.2162   21.4455  -32.0189 H   0  0  0  0  0  0  0  0  0  0  0  0
   -0.1654   20.5232  -33.5594 H   0  0  0  0  0  0  0  0  0  0  0  0
   -0.6809   22.2439  -33.5594 H   0  0  0  0  0  0  0  0  0  0  0  0
   -2.1825   20.7635  -30.6123 H   0  0  0  0  0  0  0  0  0  0  0  0
   -3.3105   19.6209  -31.4178 H   0  0  0  0  0  0  0  0  0  0  0  0
   -1.5450   19.2899  -31.4178 H   0  0  0  0  0  0  0  0  0  0  0  0
   -3.0208   19.0287  -33.5547 H   0  0  0  0  0  0  0  0  0  0  0  0
   -3.3334   20.4810  -34.5645 H   0  0  0  0  0  0  0  0  0  0  0  0
   -1.7061   19.7205  -34.5645 H   0  0  0  0  0  0  0  0  0  0  0  0
   -3.0290   25.2910  -30.4680 H   0  0  0  0  0  0  0  0  0  0  0  0
   -7.9101   24.2041  -30.8381 H   0  0  0  0  0  0  0  0  0  0  0  0
   -9.3077   21.9156  -31.8527 H   0  0  0  0  0  0  0  0  0  0  0  0
   -8.9482   19.6619  -32.9155 H   0  0  0  0  0  0  0  0  0  0  0  0
   -6.3535   17.5379  -31.7008 H   0  0  0  0  0  0  0  0  0  0  0  0
   -7.7598   17.0222  -32.7163 H   0  0  0  0  0  0  0  0  0  0  0  0
   -5.6738   15.4344  -32.5091 H   0  0  0  0  0  0  0  0  0  0  0  0
   -6.4409   15.7141  -34.1269 H   0  0  0  0  0  0  0  0  0  0  0  0
   -4.0284   15.8083  -34.3470 H   0  0  0  0  0  0  0  0  0  0  0  0
   -2.7110   17.4200  -33.1760 H   0  0  0  0  0  0  0  0  0  0  0  0
   -4.0710   18.0200  -32.3670 H   0  0  0  0  0  0  0  0  0  0  0  0
   -3.5310   16.4410  -32.0450 H   0  0  0  0  0  0  0  0  0  0  0  0
   -3.9476   18.5309  -34.8267 H   0  0  0  0  0  0  0  0  0  0  0  0
   -4.6280   17.2520  -35.9394 H   0  0  0  0  0  0  0  0  0  0  0  0
   -6.0276   19.4292  -35.3663 H   0  0  0  0  0  0  0  0  0  0  0  0
   -6.8098   17.8091  -35.4921 H   0  0  0  0  0  0  0  0  0  0  0  0
   -4.6372   20.2863  -32.7807 H   0  0  0  0  0  0  0  0  0  0  0  0
  1  2  1  0
  2  3  1  0
  2  4  1  0
  2  5  1  0
  5  6  1  0
  6  7  2  0
  6  8  1  0
  8  9  1  0
  9 10  1  0
 10 11  1  0
 10 12  2  0
  9 13  2  0
 13 14  1  0
 14 15  2  0
 15 16  1  0
 16 17  2  0
 17 18  1  0
 18 19  1  0
 19 20  1  0
 20 21  1  0
 21 22  1  0
 21 23  1  0
 23 24  1  0
 17 25  1  0
 25 26  2  0
 26  8  1  0
 26 14  1  0
 24 18  1  0
  1 27  1  0
  1 28  1  0
  1 29  1  0
  3 30  1  0
  3 31  1  0
  3 32  1  0
  4 33  1  0
  4 34  1  0
  4 35  1  0
 11 36  1  0
 13 37  1  0
 15 38  1  0
 16 39  1  0
 19 40  1  0
 19 41  1  0
 20 42  1  0
 20 43  1  0
 21 44  1  0
 22 45  1  0
 22 46  1  0
 22 47  1  0
 23 48  1  0
 23 49  1  0
 24 50  1  0
 24 51  1  0
 25 52  1  0
M  CHG  2  11  -1  22   1
M  END
>  <UniqueID>  (94) 
93

>  <SMILES>  (94) 
CC(C)(C)OC(=O)n1c(C([NH-])=O)cc2ccc(N3CCC([NH3+])CC3)cc21

>  <Energy>  (94) 
91.98783833482274

>  <Genealogy>  (94) 
CC(C)(C)OC(=O)n1c(C([NH-])=O)cc2ccc(N3CCC([NH3+])CC3)cc21 (protonated)
CC(C)(C)OC(=O)n1c(C([NH-])=O)cc2ccc(N3CCC([NH3+])CC3)cc21 (3D coordinates assigned)
CC(C)(C)OC(=O)n1c(C([NH-])=O)cc2ccc(N3CCC([NH3+])CC3)cc21 (nonaromatic ring conformer: 91.98783833482274 kcal/mol)

>  <smiles>  (94) 
CC(C)(C)OC(=O)n1c(C(N)=O)cc2ccc(N3CCC(N)CC3)cc21

>  <score_type>  (94) 
oracle

>  <origin>  (94) 
adg

>  <m_score__min__energy>  (94) 
-10.369999999999999

>  <m_primary>  (94) 
energy

$$$$
94:0
     RDKit          3D

 40 42  0  0  0  0  0  0  0  0999 V2000
   -1.9120   25.6500  -28.7930 N   0  0  0  0  0  0  0  0  0  0  0  0
   -1.0370   24.5340  -28.9380 C   0  0  0  0  0  0  0  0  0  0  0  0
    0.0480   24.5150  -28.2990 O   0  0  0  0  0  0  0  0  0  0  0  0
   -1.3910   23.4380  -29.8640 C   0  0  0  0  0  0  0  0  0  0  0  0
   -0.5160   22.4100  -30.2060 C   0  0  0  0  0  0  0  0  0  0  0  0
   -1.2430   21.5610  -31.0070 C   0  0  0  0  0  0  0  0  0  0  0  0
   -0.8620   20.3800  -31.6370 C   0  0  0  0  0  0  0  0  0  0  0  0
   -1.8130   19.7230  -32.4360 C   0  0  0  0  0  0  0  0  0  0  0  0
   -3.1140   20.2610  -32.6000 C   0  0  0  0  0  0  0  0  0  0  0  0
   -4.1160   19.5660  -33.4850 C   0  0  0  0  0  0  0  0  0  0  0  0
   -5.2220   18.8470  -32.6910 C   0  0  0  0  0  0  0  0  0  0  0  0
   -6.6210   18.9190  -33.3520 C   0  0  2  0  0  0  0  0  0  0  0  0
   -7.3110   20.3030  -33.1760 C   0  0  0  0  0  0  0  0  0  0  0  0
   -8.7650   20.1450  -33.0760 N   0  0  0  0  0  0  0  0  0  0  0  0
   -9.1210   19.2990  -31.9260 C   0  0  0  0  0  0  0  0  0  0  0  0
   -8.0990   18.1700  -31.6950 C   0  0  0  0  0  0  0  0  0  0  0  0
   -7.4330   17.8420  -32.8980 O   0  0  0  0  0  0  0  0  0  0  0  0
   -3.4670   21.4570  -31.9340 C   0  0  0  0  0  0  0  0  0  0  0  0
   -2.5060   22.0820  -31.1330 C   0  0  0  0  0  0  0  0  0  0  0  0
   -2.6130   23.2370  -30.4390 N   0  0  0  0  0  0  0  0  0  0  0  0
   -3.7640   24.0960  -30.3910 C   0  0  0  0  0  0  0  0  0  0  0  0
   -3.7010   25.2710  -30.8370 O   0  0  0  0  0  0  0  0  0  0  0  0
   -4.9660   23.6290  -29.8730 O   0  0  0  0  0  0  0  0  0  0  0  0
   -2.8260   25.6860  -29.2950 H   0  0  0  0  0  0  0  0  0  0  0  0
    0.5349   22.3003  -29.9000 H   0  0  0  0  0  0  0  0  0  0  0  0
    0.1525   19.9733  -31.5133 H   0  0  0  0  0  0  0  0  0  0  0  0
   -1.5452   18.7821  -32.9390 H   0  0  0  0  0  0  0  0  0  0  0  0
   -4.5849   20.3154  -34.1396 H   0  0  0  0  0  0  0  0  0  0  0  0
   -3.5731   18.8013  -34.0600 H   0  0  0  0  0  0  0  0  0  0  0  0
   -4.9418   17.7882  -32.5890 H   0  0  0  0  0  0  0  0  0  0  0  0
   -5.3017   19.3597  -31.7211 H   0  0  0  0  0  0  0  0  0  0  0  0
   -6.4811   18.8103  -34.4376 H   0  0  0  0  0  0  0  0  0  0  0  0
   -6.9352   20.7804  -32.2590 H   0  0  0  0  0  0  0  0  0  0  0  0
   -7.0813   20.9280  -34.0516 H   0  0  0  0  0  0  0  0  0  0  0  0
   -9.1070   19.6840  -33.9520 H   0  0  0  0  0  0  0  0  0  0  0  0
   -9.1645   19.9273  -31.0241 H   0  0  0  0  0  0  0  0  0  0  0  0
  -10.0952   18.8342  -32.1378 H   0  0  0  0  0  0  0  0  0  0  0  0
   -7.3587   18.5002  -30.9514 H   0  0  0  0  0  0  0  0  0  0  0  0
   -8.6334   17.2791  -31.3336 H   0  0  0  0  0  0  0  0  0  0  0  0
   -4.4740   21.8860  -32.0433 H   0  0  0  0  0  0  0  0  0  0  0  0
  1  2  1  0
  2  3  2  0
  2  4  1  0
  4  5  2  0
  5  6  1  0
  6  7  2  0
  7  8  1  0
  8  9  2  0
  9 10  1  0
 10 11  1  0
 11 12  1  0
 12 13  1  0
 13 14  1  0
 14 15  1  0
 15 16  1  0
 16 17  1  0
  9 18  1  0
 18 19  2  0
 19 20  1  0
 20 21  1  0
 21 22  2  0
 21 23  1  0
 20  4  1  0
 19  6  1  0
 17 12  1  0
  1 24  1  0
  5 25  1  0
  7 26  1  0
  8 27  1  0
 10 28  1  0
 10 29  1  0
 11 30  1  0
 11 31  1  0
 12 32  1  6
 13 33  1  0
 13 34  1  0
 14 35  1  0
 15 36  1  0
 15 37  1  0
 16 38  1  0
 16 39  1  0
 18 40  1  0
M  CHG  2   1  -1  23  -1
M  END
>  <UniqueID>  (95) 
94

>  <SMILES>  (95) 
[NH-]C(=O)c1cc2ccc(CC[C@@H]3CNCCO3)cc2n1C(=O)[O-]

>  <Energy>  (95) 
87.23945342522903

>  <Genealogy>  (95) 
[NH-]C(=O)c1cc2ccc(CC[C@@H]3CNCCO3)cc2n1C(=O)[O-] (protonated)
[NH-]C(=O)c1cc2ccc(CC[C@@H]3CNCCO3)cc2n1C(=O)[O-] (3D coordinates assigned)
[NH-]C(=O)c1cc2ccc(CC[C@@H]3CNCCO3)cc2n1C(=O)[O-] (nonaromatic ring conformer: 87.23945342522903 kcal/mol)

>  <smiles>  (95) 
NC(=O)c1cc2ccc(CC[C@@H]3CNCCO3)cc2n1C(=O)O

>  <score_type>  (95) 
oracle

>  <origin>  (95) 
adg

>  <m_score__min__energy>  (95) 
-12.15

>  <m_primary>  (95) 
energy

$$$$
