0:0
     RDKit          3D

 36 37  0  0  0  0  0  0  0  0999 V2000
   -4.0510   25.6730  -30.8510 N   0  0  0  0  0  0  0  0  0  0  0  0
   -5.2260   25.1000  -30.2860 C   0  0  0  0  0  0  0  0  0  0  0  0
   -5.7130   25.6000  -29.2370 O   0  0  0  0  0  0  0  0  0  0  0  0
   -5.8480   23.8970  -30.8780 C   0  0  0  0  0  0  0  0  0  0  0  0
   -7.2190   23.7690  -31.0920 C   0  0  0  0  0  0  0  0  0  0  0  0
   -7.3960   22.4880  -31.5620 C   0  0  0  0  0  0  0  0  0  0  0  0
   -8.5600   21.8290  -31.9460 C   0  0  0  0  0  0  0  0  0  0  0  0
   -8.4450   20.5130  -32.4210 C   0  0  0  0  0  0  0  0  0  0  0  0
   -7.1790   19.8800  -32.5150 C   0  0  0  0  0  0  0  0  0  0  0  0
   -7.1070   18.5320  -33.0180 N   0  0  0  0  0  0  0  0  0  0  0  0
   -6.1080   17.5610  -32.5660 C   0  0  0  0  0  0  0  0  0  0  0  0
   -5.8770   16.4640  -33.6080 C   0  0  0  0  0  0  0  0  0  0  0  0
   -6.8370   16.5420  -34.6270 O   0  0  0  0  0  0  0  0  0  0  0  0
   -6.0180   20.5860  -32.1150 C   0  0  0  0  0  0  0  0  0  0  0  0
   -6.1650   21.8900  -31.6270 C   0  0  0  0  0  0  0  0  0  0  0  0
   -5.2020   22.7440  -31.2150 N   0  0  0  0  0  0  0  0  0  0  0  0
   -3.7890   22.4930  -31.2160 C   0  0  0  0  0  0  0  0  0  0  0  0
   -3.3430   21.4150  -31.6970 O   0  0  0  0  0  0  0  0  0  0  0  0
   -2.9150   23.4350  -30.6600 O   0  0  0  0  0  0  0  0  0  0  0  0
   -2.1430   23.1910  -29.4870 C   0  0  0  0  0  0  0  0  0  0  0  0
   -1.1870   24.3160  -29.2520 C   0  0  0  0  0  0  0  0  0  0  0  0
    0.0250   24.0780  -29.0050 O   0  0  0  0  0  0  0  0  0  0  0  0
   -1.6290   25.6300  -29.3340 O   0  0  0  0  0  0  0  0  0  0  0  0
   -3.1050   25.3030  -30.6120 H   0  0  0  0  0  0  0  0  0  0  0  0
   -7.9947   24.5301  -30.9215 H   0  0  0  0  0  0  0  0  0  0  0  0
   -9.5400   22.3241  -31.8794 H   0  0  0  0  0  0  0  0  0  0  0  0
   -9.3492   19.9650  -32.7245 H   0  0  0  0  0  0  0  0  0  0  0  0
   -7.8140   18.2380  -33.7300 H   0  0  0  0  0  0  0  0  0  0  0  0
   -5.1583   18.0849  -32.3827 H   0  0  0  0  0  0  0  0  0  0  0  0
   -6.4798   17.0881  -31.6451 H   0  0  0  0  0  0  0  0  0  0  0  0
   -4.8749   16.5857  -34.0451 H   0  0  0  0  0  0  0  0  0  0  0  0
   -5.9607   15.4838  -33.1159 H   0  0  0  0  0  0  0  0  0  0  0  0
   -6.8300   17.4770  -34.9620 H   0  0  0  0  0  0  0  0  0  0  0  0
   -5.0239   20.1205  -32.1861 H   0  0  0  0  0  0  0  0  0  0  0  0
   -2.8162   23.1001  -28.6218 H   0  0  0  0  0  0  0  0  0  0  0  0
   -1.5735   22.2594  -29.6207 H   0  0  0  0  0  0  0  0  0  0  0  0
  1  2  1  0
  2  3  2  0
  2  4  1  0
  4  5  2  0
  5  6  1  0
  6  7  2  0
  7  8  1  0
  8  9  2  0
  9 10  1  0
 10 11  1  0
 11 12  1  0
 12 13  1  0
  9 14  1  0
 14 15  2  0
 15 16  1  0
 16 17  1  0
 17 18  2  0
 17 19  1  0
 19 20  1  0
 20 21  1  0
 21 22  2  0
 21 23  1  0
 16  4  1  0
 15  6  1  0
  1 24  1  0
  5 25  1  0
  7 26  1  0
  8 27  1  0
 10 28  1  0
 11 29  1  0
 11 30  1  0
 12 31  1  0
 12 32  1  0
 13 33  1  0
 14 34  1  0
 20 35  1  0
 20 36  1  0
M  CHG  2   1  -1  23  -1
M  END
>  <UniqueID>  (1) 
1

>  <SMILES>  (1) 
[NH-]C(=O)c1cc2ccc(NCCO)cc2n1C(=O)OCC(=O)[O-]

>  <Energy>  (1) 
70.59954283623736

>  <Genealogy>  (1) 
[NH-]C(=O)c1cc2ccc(NCCO)cc2n1C(=O)OCC(=O)[O-] (protonated)
[NH-]C(=O)c1cc2ccc(NCCO)cc2n1C(=O)OCC(=O)[O-] (3D coordinates assigned)
[NH-]C(=O)c1cc2ccc(NCCO)cc2n1C(=O)OCC(=O)[O-] (optimized conformer: 70.59954283623736 kcal/mol)

>  <smiles>  (1) 
NC(=O)c1cc2ccc(NCCO)cc2n1C(=O)OCC(=O)O

>  <score_type>  (1) 
oracle

>  <origin>  (1) 
adg

>  <m_score__min__energy>  (1) 
-11.69

>  <m_primary>  (1) 
energy

$$$$
1:0
     RDKit          3D

 45 47  0  0  0  0  0  0  0  0999 V2000
   -3.6830   25.2960  -30.4670 N   0  0  0  0  0  0  0  0  0  0  0  0
   -5.0970   25.3300  -30.6340 C   0  0  0  0  0  0  0  0  0  0  0  0
   -5.7160   26.4110  -30.4450 O   0  0  0  0  0  0  0  0  0  0  0  0
   -5.8540   24.1040  -30.9660 C   0  0  0  0  0  0  0  0  0  0  0  0
   -7.2390   24.0090  -30.8600 C   0  0  0  0  0  0  0  0  0  0  0  0
   -7.5390   22.6990  -31.1550 C   0  0  0  0  0  0  0  0  0  0  0  0
   -8.7690   22.0510  -31.1920 C   0  0  0  0  0  0  0  0  0  0  0  0
   -8.7860   20.6910  -31.5420 C   0  0  0  0  0  0  0  0  0  0  0  0
   -7.5850   20.0110  -31.8730 C   0  0  0  0  0  0  0  0  0  0  0  0
   -7.6110   18.5410  -32.2080 C   0  0  0  0  0  0  0  0  0  0  0  0
   -8.8980   18.0610  -32.0520 F   0  0  0  0  0  0  0  0  0  0  0  0
   -6.7620   17.8360  -31.3730 F   0  0  0  0  0  0  0  0  0  0  0  0
   -7.2050   18.3300  -33.5140 F   0  0  0  0  0  0  0  0  0  0  0  0
   -6.3530   20.7020  -31.8020 C   0  0  0  0  0  0  0  0  0  0  0  0
   -6.3640   22.0510  -31.4310 C   0  0  0  0  0  0  0  0  0  0  0  0
   -5.3180   22.9020  -31.3230 N   0  0  0  0  0  0  0  0  0  0  0  0
   -3.9430   22.5960  -31.6060 C   0  0  0  0  0  0  0  0  0  0  0  0
   -3.5900   22.3090  -32.7830 O   0  0  0  0  0  0  0  0  0  0  0  0
   -3.0080   22.5920  -30.5700 O   0  0  0  0  0  0  0  0  0  0  0  0
   -3.1430   21.7780  -29.4090 C   0  0  0  0  0  0  0  0  0  0  0  0
   -2.8180   22.6030  -28.1560 C   0  0  0  0  0  0  0  0  0  0  0  0
   -2.4710   24.0150  -28.4800 N   0  0  0  0  0  0  0  0  0  0  0  0
   -1.0540   24.1630  -28.9070 C   0  0  0  0  0  0  0  0  0  0  0  0
   -0.1100   24.4910  -27.7310 C   0  0  0  0  0  0  0  0  0  0  0  0
   -0.6270   23.9800  -26.5210 O   0  0  0  0  0  0  0  0  0  0  0  0
   -1.8030   24.6830  -26.1570 C   0  0  0  0  0  0  0  0  0  0  0  0
   -2.7660   24.9170  -27.3450 C   0  0  0  0  0  0  0  0  0  0  0  0
   -3.0830   24.7040  -31.0840 H   0  0  0  0  0  0  0  0  0  0  0  0
   -7.9439   24.8112  -30.5963 H   0  0  0  0  0  0  0  0  0  0  0  0
   -9.6997   22.5871  -30.9545 H   0  0  0  0  0  0  0  0  0  0  0  0
   -9.7415   20.1463  -31.5598 H   0  0  0  0  0  0  0  0  0  0  0  0
   -5.4072   20.1902  -32.0333 H   0  0  0  0  0  0  0  0  0  0  0  0
   -4.1755   21.4044  -29.3428 H   0  0  0  0  0  0  0  0  0  0  0  0
   -2.4460   20.9297  -29.4767 H   0  0  0  0  0  0  0  0  0  0  0  0
   -3.6953   22.5982  -27.4925 H   0  0  0  0  0  0  0  0  0  0  0  0
   -1.9432   22.1455  -27.6708 H   0  0  0  0  0  0  0  0  0  0  0  0
   -3.0780   24.3340  -29.2720 H   0  0  0  0  0  0  0  0  0  0  0  0
   -0.7255   23.2208  -29.3700 H   0  0  0  0  0  0  0  0  0  0  0  0
   -1.0061   25.0024  -29.6163 H   0  0  0  0  0  0  0  0  0  0  0  0
    0.8752   24.0406  -27.9219 H   0  0  0  0  0  0  0  0  0  0  0  0
   -0.0186   25.5837  -27.6440 H   0  0  0  0  0  0  0  0  0  0  0  0
   -2.3326   24.1031  -25.3868 H   0  0  0  0  0  0  0  0  0  0  0  0
   -1.4918   25.6718  -25.7890 H   0  0  0  0  0  0  0  0  0  0  0  0
   -3.7975   24.7381  -27.0073 H   0  0  0  0  0  0  0  0  0  0  0  0
   -2.6360   25.9533  -27.6903 H   0  0  0  0  0  0  0  0  0  0  0  0
  1  2  1  0
  2  3  2  0
  2  4  1  0
  4  5  2  0
  5  6  1  0
  6  7  2  0
  7  8  1  0
  8  9  2  0
  9 10  1  0
 10 11  1  0
 10 12  1  0
 10 13  1  0
  9 14  1  0
 14 15  2  0
 15 16  1  0
 16 17  1  0
 17 18  2  0
 17 19  1  0
 19 20  1  0
 20 21  1  0
 21 22  1  0
 22 23  1  0
 23 24  1  0
 24 25  1  0
 25 26  1  0
 26 27  1  0
 16  4  1  0
 27 22  1  0
 15  6  1  0
  1 28  1  0
  5 29  1  0
  7 30  1  0
  8 31  1  0
 14 32  1  0
 20 33  1  0
 20 34  1  0
 21 35  1  0
 21 36  1  0
 22 37  1  0
 23 38  1  0
 23 39  1  0
 24 40  1  0
 24 41  1  0
 26 42  1  0
 26 43  1  0
 27 44  1  0
 27 45  1  0
M  CHG  2   1  -1  22   1
M  END
>  <UniqueID>  (2) 
2

>  <SMILES>  (2) 
[NH-]C(=O)c1cc2ccc(C(F)(F)F)cc2n1C(=O)OCC[NH+]1CCOCC1

>  <Energy>  (2) 
95.66197941747339

>  <Genealogy>  (2) 
[NH-]C(=O)c1cc2ccc(C(F)(F)F)cc2n1C(=O)OCC[NH+]1CCOCC1 (protonated)
[NH-]C(=O)c1cc2ccc(C(F)(F)F)cc2n1C(=O)OCC[NH+]1CCOCC1 (3D coordinates assigned)
[NH-]C(=O)c1cc2ccc(C(F)(F)F)cc2n1C(=O)OCC[NH+]1CCOCC1 (nonaromatic ring conformer: 95.66197941747339 kcal/mol)

>  <smiles>  (2) 
NC(=O)c1cc2ccc(C(F)(F)F)cc2n1C(=O)OCCN1CCOCC1

>  <score_type>  (2) 
oracle

>  <origin>  (2) 
adg

>  <m_score__min__energy>  (2) 
-8.8000000000000007

>  <m_primary>  (2) 
energy

$$$$
2:0
     RDKit          3D

 66 69  0  0  0  0  0  0  0  0999 V2000
   -3.8340   22.3800  -28.5730 C   0  0  0  0  0  0  0  0  0  0  0  0
   -2.7130   22.6400  -29.2300 C   0  0  0  0  0  0  0  0  0  0  0  0
   -2.7650   23.2000  -30.5070 O   0  0  0  0  0  0  0  0  0  0  0  0
   -3.5510   22.6710  -31.5350 C   0  0  0  0  0  0  0  0  0  0  0  0
   -3.0110   22.1170  -32.5290 O   0  0  0  0  0  0  0  0  0  0  0  0
   -4.9720   22.8270  -31.4890 N   0  0  0  0  0  0  0  0  0  0  0  0
   -5.7000   23.8510  -30.9570 C   0  0  0  0  0  0  0  0  0  0  0  0
   -5.1520   25.1020  -30.3990 C   0  0  0  0  0  0  0  0  0  0  0  0
   -3.8980   25.6160  -30.8430 N   0  0  0  0  0  0  0  0  0  0  0  0
   -5.8250   25.7530  -29.5480 O   0  0  0  0  0  0  0  0  0  0  0  0
   -7.0660   23.5760  -31.0540 C   0  0  0  0  0  0  0  0  0  0  0  0
   -7.1470   22.3410  -31.6630 C   0  0  0  0  0  0  0  0  0  0  0  0
   -8.2570   21.5690  -31.9810 C   0  0  0  0  0  0  0  0  0  0  0  0
   -8.0400   20.3030  -32.5520 C   0  0  0  0  0  0  0  0  0  0  0  0
   -6.7220   19.8280  -32.7770 C   0  0  0  0  0  0  0  0  0  0  0  0
   -6.5040   18.5130  -33.3280 N   0  0  0  0  0  0  0  0  0  0  0  0
   -6.6990   17.3120  -32.5100 C   0  0  0  0  0  0  0  0  0  0  0  0
   -5.4140   16.4630  -32.4560 C   0  0  0  0  0  0  0  0  0  0  0  0
   -4.4370   16.7300  -33.6450 C   0  0  0  0  0  0  0  0  0  0  0  0
   -5.2540   17.0750  -34.9250 C   0  0  0  0  0  0  0  0  0  0  0  0
   -6.0920   18.3550  -34.7290 C   0  0  0  0  0  0  0  0  0  0  0  0
   -3.5320   15.5020  -33.8910 C   0  0  0  0  0  0  0  0  0  0  0  0
   -2.1140   16.0450  -33.8890 C   0  0  0  0  0  0  0  0  0  0  0  0
   -2.1390   17.2380  -33.0350 N   0  0  1  0  0  0  0  0  0  0  0  0
   -1.0560   18.1670  -33.2710 C   0  0  0  0  0  0  0  0  0  0  0  0
   -0.2180   17.9680  -34.1910 O   0  0  0  0  0  0  0  0  0  0  0  0
   -0.9330   19.2820  -32.4270 O   0  0  0  0  0  0  0  0  0  0  0  0
   -0.0780   20.4160  -32.6500 C   0  0  0  0  0  0  0  0  0  0  0  0
    1.4040   20.0000  -32.7450 C   0  0  0  0  0  0  0  0  0  0  0  0
   -0.2580   21.3700  -31.4610 C   0  0  0  0  0  0  0  0  0  0  0  0
   -0.5230   21.1320  -33.9380 C   0  0  0  0  0  0  0  0  0  0  0  0
   -3.4360   17.8680  -33.3060 C   0  0  0  0  0  0  0  0  0  0  0  0
   -5.6200   20.6540  -32.4600 C   0  0  0  0  0  0  0  0  0  0  0  0
   -5.8690   21.9140  -31.9090 C   0  0  0  0  0  0  0  0  0  0  0  0
   -3.7918   21.9385  -27.5664 H   0  0  0  0  0  0  0  0  0  0  0  0
   -4.8068   22.6056  -29.0342 H   0  0  0  0  0  0  0  0  0  0  0  0
   -1.7405   22.4141  -28.7682 H   0  0  0  0  0  0  0  0  0  0  0  0
   -3.0040   25.2640  -30.4310 H   0  0  0  0  0  0  0  0  0  0  0  0
   -7.8996   24.2094  -30.7166 H   0  0  0  0  0  0  0  0  0  0  0  0
   -9.2760   21.9375  -31.7916 H   0  0  0  0  0  0  0  0  0  0  0  0
   -8.9000   19.6747  -32.8270 H   0  0  0  0  0  0  0  0  0  0  0  0
   -6.9734   17.6138  -31.4884 H   0  0  0  0  0  0  0  0  0  0  0  0
   -7.4987   16.7071  -32.9624 H   0  0  0  0  0  0  0  0  0  0  0  0
   -4.8879   16.6880  -31.5165 H   0  0  0  0  0  0  0  0  0  0  0  0
   -5.7212   15.4088  -32.5218 H   0  0  0  0  0  0  0  0  0  0  0  0
   -4.5584   17.2274  -35.7634 H   0  0  0  0  0  0  0  0  0  0  0  0
   -5.9397   16.2406  -35.1338 H   0  0  0  0  0  0  0  0  0  0  0  0
   -5.4901   19.2265  -35.0261 H   0  0  0  0  0  0  0  0  0  0  0  0
   -6.9963   18.2769  -35.3505 H   0  0  0  0  0  0  0  0  0  0  0  0
   -3.6621   14.7603  -33.0892 H   0  0  0  0  0  0  0  0  0  0  0  0
   -3.7762   14.9942  -34.8357 H   0  0  0  0  0  0  0  0  0  0  0  0
   -1.4188   15.2969  -33.4803 H   0  0  0  0  0  0  0  0  0  0  0  0
   -1.7731   16.2852  -34.9069 H   0  0  0  0  0  0  0  0  0  0  0  0
   -2.1040   16.9270  -32.0370 H   0  0  0  0  0  0  0  0  0  0  0  0
    1.8179   19.8838  -31.7325 H   0  0  0  0  0  0  0  0  0  0  0  0
    1.4829   19.0450  -33.2851 H   0  0  0  0  0  0  0  0  0  0  0  0
    1.9683   20.7744  -33.2851 H   0  0  0  0  0  0  0  0  0  0  0  0
   -0.1521   20.8085  -30.5211 H   0  0  0  0  0  0  0  0  0  0  0  0
    0.5071   22.1591  -31.5049 H   0  0  0  0  0  0  0  0  0  0  0  0
   -1.2580   21.8261  -31.5049 H   0  0  0  0  0  0  0  0  0  0  0  0
   -1.0870   22.0395  -33.6768 H   0  0  0  0  0  0  0  0  0  0  0  0
    0.3628   21.4081  -34.5288 H   0  0  0  0  0  0  0  0  0  0  0  0
   -1.1628   20.4599  -34.5288 H   0  0  0  0  0  0  0  0  0  0  0  0
   -3.7795   18.4203  -32.4189 H   0  0  0  0  0  0  0  0  0  0  0  0
   -3.3574   18.5805  -34.1403 H   0  0  0  0  0  0  0  0  0  0  0  0
   -4.5902   20.3131  -32.6427 H   0  0  0  0  0  0  0  0  0  0  0  0
  1  2  2  0
  2  3  1  0
  3  4  1  0
  4  5  2  0
  4  6  1  0
  6  7  1  0
  7  8  1  0
  8  9  1  0
  8 10  2  0
  7 11  2  0
 11 12  1  0
 12 13  2  0
 13 14  1  0
 14 15  2  0
 15 16  1  0
 16 17  1  0
 17 18  1  0
 18 19  1  0
 19 20  1  0
 20 21  1  0
 19 22  1  0
 22 23  1  0
 23 24  1  0
 24 25  1  0
 25 26  2  0
 25 27  1  0
 27 28  1  0
 28 29  1  0
 28 30  1  0
 28 31  1  0
 24 32  1  0
 15 33  1  0
 33 34  2  0
 34  6  1  0
 34 12  1  0
 21 16  1  0
 32 19  1  0
  1 35  1  0
  1 36  1  0
  2 37  1  0
  9 38  1  0
 11 39  1  0
 13 40  1  0
 14 41  1  0
 17 42  1  0
 17 43  1  0
 18 44  1  0
 18 45  1  0
 20 46  1  0
 20 47  1  0
 21 48  1  0
 21 49  1  0
 22 50  1  0
 22 51  1  0
 23 52  1  0
 23 53  1  0
 24 54  1  1
 29 55  1  0
 29 56  1  0
 29 57  1  0
 30 58  1  0
 30 59  1  0
 30 60  1  0
 31 61  1  0
 31 62  1  0
 31 63  1  0
 32 64  1  0
 32 65  1  0
 33 66  1  0
M  CHG  2   9  -1  24   1
M  END
>  <UniqueID>  (3) 
3

>  <SMILES>  (3) 
C=COC(=O)n1c(C([NH-])=O)cc2ccc(N3CCC4(CC3)CC[N@@H+](C(=O)OC(C)(C)C)C4)cc21

>  <Energy>  (3) 
117.08714996037419

>  <Genealogy>  (3) 
C=COC(=O)n1c(C([NH-])=O)cc2ccc(N3CCC4(CC3)CC[NH+](C(=O)OC(C)(C)C)C4)cc21 (protonated)
C=COC(=O)n1c(C([NH-])=O)cc2ccc(N3CCC4(CC3)CC[N@@H+](C(=O)OC(C)(C)C)C4)cc21 (chirality)
C=COC(=O)n1c(C([NH-])=O)cc2ccc(N3CCC4(CC3)CC[N@@H+](C(=O)OC(C)(C)C)C4)cc21 (3D coordinates assigned)
C=COC(=O)n1c(C([NH-])=O)cc2ccc(N3CCC4(CC3)CC[N@@H+](C(=O)OC(C)(C)C)C4)cc21 (nonaromatic ring conformer: 117.08714996037419 kcal/mol)

>  <smiles>  (3) 
C=COC(=O)n1c(C(N)=O)cc2ccc(N3CCC4(CCN(C(=O)OC(C)(C)C)C4)CC3)cc21

>  <score_type>  (3) 
oracle

>  <origin>  (3) 
adg

>  <m_score__min__energy>  (3) 
-11.18

>  <m_primary>  (3) 
energy

$$$$
3:0
     RDKit          3D

 48 49  0  0  0  0  0  0  0  0999 V2000
   -6.4110   15.1090  -34.2400 C   0  0  0  0  0  0  0  0  0  0  0  0
   -5.5220   15.9860  -33.7630 C   0  0  0  0  0  0  0  0  0  0  0  0
   -6.0000   17.2740  -33.3250 C   0  0  0  0  0  0  0  0  0  0  0  0
   -6.3900   18.3530  -32.9540 C   0  0  0  0  0  0  0  0  0  0  0  0
   -6.8580   19.6370  -32.5070 C   0  0  0  0  0  0  0  0  0  0  0  0
   -8.2330   19.9540  -32.5940 C   0  0  0  0  0  0  0  0  0  0  0  0
   -8.7020   21.2100  -32.1710 C   0  0  0  0  0  0  0  0  0  0  0  0
   -7.7730   22.1140  -31.6610 C   0  0  0  0  0  0  0  0  0  0  0  0
   -7.9490   23.4020  -31.2090 C   0  0  0  0  0  0  0  0  0  0  0  0
   -6.6780   23.8390  -30.8340 C   0  0  0  0  0  0  0  0  0  0  0  0
   -6.3940   25.1620  -30.2300 C   0  0  0  0  0  0  0  0  0  0  0  0
   -5.1870   25.8630  -30.5350 N   0  0  0  0  0  0  0  0  0  0  0  0
   -7.2290   25.6910  -29.4500 O   0  0  0  0  0  0  0  0  0  0  0  0
   -5.7570   22.8550  -31.0410 N   0  0  0  0  0  0  0  0  0  0  0  0
   -4.3370   22.9400  -30.8320 C   0  0  0  0  0  0  0  0  0  0  0  0
   -3.6020   23.4080  -31.7420 O   0  0  0  0  0  0  0  0  0  0  0  0
   -3.7410   22.5900  -29.4990 C   0  0  0  0  0  0  0  0  0  0  0  0
   -2.5000   23.8180  -28.9740 P   0  0  0  0  0  0  0  0  0  0  0  0
   -2.5520   24.0040  -27.4750 O   0  0  0  0  0  0  0  0  0  0  0  0
   -2.8250   25.2930  -29.7320 O   0  0  0  0  0  0  0  0  0  0  0  0
   -0.9560   23.2920  -29.4190 O   0  0  0  0  0  0  0  0  0  0  0  0
   -6.4410   21.8090  -31.5530 C   0  0  0  0  0  0  0  0  0  0  0  0
   -5.9450   20.5740  -31.9860 C   0  0  0  0  0  0  0  0  0  0  0  0
   -4.1070   15.6770  -33.6940 N   0  0  0  0  0  0  0  0  0  0  0  0
   -3.5910   14.6180  -32.8080 C   0  0  0  0  0  0  0  0  0  0  0  0
   -4.5950   14.2830  -31.7080 C   0  0  0  0  0  0  0  0  0  0  0  0
   -3.1460   16.4800  -34.4650 C   0  0  0  0  0  0  0  0  0  0  0  0
   -2.7920   17.7630  -33.7190 C   0  0  0  0  0  0  0  0  0  0  0  0
   -6.0772   14.1182  -34.5819 H   0  0  0  0  0  0  0  0  0  0  0  0
   -7.4764   15.3781  -34.2906 H   0  0  0  0  0  0  0  0  0  0  0  0
   -8.9403   19.2132  -32.9952 H   0  0  0  0  0  0  0  0  0  0  0  0
   -9.7684   21.4705  -32.2405 H   0  0  0  0  0  0  0  0  0  0  0  0
   -8.8913   23.9669  -31.1549 H   0  0  0  0  0  0  0  0  0  0  0  0
   -4.4390   25.4340  -31.1230 H   0  0  0  0  0  0  0  0  0  0  0  0
   -5.0190   26.8120  -30.1330 H   0  0  0  0  0  0  0  0  0  0  0  0
   -4.5441   22.5510  -28.7483 H   0  0  0  0  0  0  0  0  0  0  0  0
   -3.2413   21.6145  -29.5916 H   0  0  0  0  0  0  0  0  0  0  0  0
   -4.8718   20.3417  -31.9211 H   0  0  0  0  0  0  0  0  0  0  0  0
   -3.3965   13.7142  -33.4041 H   0  0  0  0  0  0  0  0  0  0  0  0
   -2.6643   14.9778  -32.3370 H   0  0  0  0  0  0  0  0  0  0  0  0
   -4.1273   14.4391  -30.7247 H   0  0  0  0  0  0  0  0  0  0  0  0
   -5.4749   14.9362  -31.8033 H   0  0  0  0  0  0  0  0  0  0  0  0
   -4.9063   13.2323  -31.8033 H   0  0  0  0  0  0  0  0  0  0  0  0
   -2.2306   15.8915  -34.6252 H   0  0  0  0  0  0  0  0  0  0  0  0
   -3.6026   16.7470  -35.4295 H   0  0  0  0  0  0  0  0  0  0  0  0
   -2.8418   17.5825  -32.6351 H   0  0  0  0  0  0  0  0  0  0  0  0
   -1.7737   18.0768  -33.9921 H   0  0  0  0  0  0  0  0  0  0  0  0
   -3.5053   18.5546  -33.9921 H   0  0  0  0  0  0  0  0  0  0  0  0
  1  2  2  0
  2  3  1  0
  3  4  3  0
  4  5  1  0
  5  6  2  0
  6  7  1  0
  7  8  2  0
  8  9  1  0
  9 10  2  0
 10 11  1  0
 11 12  1  0
 11 13  2  0
 10 14  1  0
 14 15  1  0
 15 16  2  0
 15 17  1  0
 17 18  1  0
 18 19  2  0
 18 20  1  0
 18 21  1  0
 14 22  1  0
 22 23  2  0
  2 24  1  0
 24 25  1  0
 25 26  1  0
 24 27  1  0
 27 28  1  0
 23  5  1  0
 22  8  1  0
  1 29  1  0
  1 30  1  0
  6 31  1  0
  7 32  1  0
  9 33  1  0
 12 34  1  0
 12 35  1  0
 17 36  1  0
 17 37  1  0
 23 38  1  0
 25 39  1  0
 25 40  1  0
 26 41  1  0
 26 42  1  0
 26 43  1  0
 27 44  1  0
 27 45  1  0
 28 46  1  0
 28 47  1  0
 28 48  1  0
M  CHG  2  20  -1  21  -1
M  END
>  <UniqueID>  (4) 
4

>  <SMILES>  (4) 
C=C(C#Cc1ccc2cc(C(N)=O)n(C(=O)CP(=O)([O-])[O-])c2c1)N(CC)CC

>  <Energy>  (4) 
74.1090257556961

>  <Genealogy>  (4) 
C=C(C#Cc1ccc2cc(C(N)=O)n(C(=O)CP(=O)([O-])[O-])c2c1)N(CC)CC (protonated)
C=C(C#Cc1ccc2cc(C(N)=O)n(C(=O)CP(=O)([O-])[O-])c2c1)N(CC)CC (3D coordinates assigned)
C=C(C#Cc1ccc2cc(C(N)=O)n(C(=O)CP(=O)([O-])[O-])c2c1)N(CC)CC (optimized conformer: 74.1090257556961 kcal/mol)

>  <smiles>  (4) 
C=C(C#Cc1ccc2cc(C(N)=O)n(C(=O)CP(=O)(O)O)c2c1)N(CC)CC

>  <score_type>  (4) 
oracle

>  <origin>  (4) 
adg

>  <m_score__min__energy>  (4) 
-13.15

>  <m_primary>  (4) 
energy

$$$$
4:0
     RDKit          3D

 36 37  0  0  0  0  0  0  0  0999 V2000
   -6.2100   17.1260  -31.8450 C   0  0  0  0  0  0  0  0  0  0  0  0
   -6.3400   18.1470  -32.8920 N   0  0  0  0  0  0  0  0  0  0  0  0
   -6.1710   17.7500  -34.2950 C   0  0  0  0  0  0  0  0  0  0  0  0
   -6.6300   19.5250  -32.5460 C   0  0  0  0  0  0  0  0  0  0  0  0
   -7.9450   20.0480  -32.6880 C   0  0  0  0  0  0  0  0  0  0  0  0
   -8.2400   21.3750  -32.3390 C   0  0  0  0  0  0  0  0  0  0  0  0
   -7.2050   22.1700  -31.8630 C   0  0  0  0  0  0  0  0  0  0  0  0
   -7.2270   23.4760  -31.4380 C   0  0  0  0  0  0  0  0  0  0  0  0
   -5.9230   23.7530  -31.0440 C   0  0  0  0  0  0  0  0  0  0  0  0
   -5.5130   25.0610  -30.5050 C   0  0  0  0  0  0  0  0  0  0  0  0
   -4.1620   25.5060  -30.6200 N   0  0  0  0  0  0  0  0  0  0  0  0
   -6.3470   25.7590  -29.8680 O   0  0  0  0  0  0  0  0  0  0  0  0
   -5.1110   22.6750  -31.2430 N   0  0  0  0  0  0  0  0  0  0  0  0
   -3.6720   22.6280  -31.1290 C   0  0  0  0  0  0  0  0  0  0  0  0
   -2.9690   22.2220  -32.0930 O   0  0  0  0  0  0  0  0  0  0  0  0
   -3.0530   22.9890  -29.9290 O   0  0  0  0  0  0  0  0  0  0  0  0
   -1.6390   23.0330  -29.7690 C   0  0  0  0  0  0  0  0  0  0  0  0
   -1.2420   24.3780  -29.2610 C   0  0  0  0  0  0  0  0  0  0  0  0
   -2.0470   25.3440  -29.3350 O   0  0  0  0  0  0  0  0  0  0  0  0
    0.0170   24.5710  -28.7040 O   0  0  0  0  0  0  0  0  0  0  0  0
   -5.9220   21.7050  -31.7340 C   0  0  0  0  0  0  0  0  0  0  0  0
   -5.6080   20.3750  -32.0510 C   0  0  0  0  0  0  0  0  0  0  0  0
   -6.2709   17.6047  -30.8565 H   0  0  0  0  0  0  0  0  0  0  0  0
   -7.0218   16.3907  -31.9470 H   0  0  0  0  0  0  0  0  0  0  0  0
   -5.2399   16.6176  -31.9470 H   0  0  0  0  0  0  0  0  0  0  0  0
   -5.7405   16.7388  -34.3406 H   0  0  0  0  0  0  0  0  0  0  0  0
   -7.1493   17.7551  -34.7979 H   0  0  0  0  0  0  0  0  0  0  0  0
   -5.4965   18.4587  -34.7979 H   0  0  0  0  0  0  0  0  0  0  0  0
   -8.7447   19.4012  -33.0781 H   0  0  0  0  0  0  0  0  0  0  0  0
   -9.2603   21.7736  -32.4394 H   0  0  0  0  0  0  0  0  0  0  0  0
   -8.0909   24.1565  -31.4145 H   0  0  0  0  0  0  0  0  0  0  0  0
   -3.4300   24.8860  -31.0340 H   0  0  0  0  0  0  0  0  0  0  0  0
   -3.8790   26.4340  -30.2360 H   0  0  0  0  0  0  0  0  0  0  0  0
   -1.3264   22.2616  -29.0498 H   0  0  0  0  0  0  0  0  0  0  0  0
   -1.1526   22.8467  -30.7379 H   0  0  0  0  0  0  0  0  0  0  0  0
   -4.5838   19.9967  -31.9176 H   0  0  0  0  0  0  0  0  0  0  0  0
  1  2  1  0
  2  3  1  0
  2  4  1  0
  4  5  2  0
  5  6  1  0
  6  7  2  0
  7  8  1  0
  8  9  2  0
  9 10  1  0
 10 11  1  0
 10 12  2  0
  9 13  1  0
 13 14  1  0
 14 15  2  0
 14 16  1  0
 16 17  1  0
 17 18  1  0
 18 19  2  0
 18 20  1  0
 13 21  1  0
 21 22  2  0
 22  4  1  0
 21  7  1  0
  1 23  1  0
  1 24  1  0
  1 25  1  0
  3 26  1  0
  3 27  1  0
  3 28  1  0
  5 29  1  0
  6 30  1  0
  8 31  1  0
 11 32  1  0
 11 33  1  0
 17 34  1  0
 17 35  1  0
 22 36  1  0
M  CHG  1  20  -1
M  END
>  <UniqueID>  (5) 
5

>  <SMILES>  (5) 
CN(C)c1ccc2cc(C(N)=O)n(C(=O)OCC(=O)[O-])c2c1

>  <Energy>  (5) 
76.15787909038887

>  <Genealogy>  (5) 
CN(C)c1ccc2cc(C(N)=O)n(C(=O)OCC(=O)[O-])c2c1 (protonated)
CN(C)c1ccc2cc(C(N)=O)n(C(=O)OCC(=O)[O-])c2c1 (3D coordinates assigned)
CN(C)c1ccc2cc(C(N)=O)n(C(=O)OCC(=O)[O-])c2c1 (optimized conformer: 76.15787909038887 kcal/mol)

>  <smiles>  (5) 
CN(C)c1ccc2cc(C(N)=O)n(C(=O)OCC(=O)O)c2c1

>  <score_type>  (5) 
oracle

>  <origin>  (5) 
adg

>  <m_score__min__energy>  (5) 
-9.8100000000000005

>  <m_primary>  (5) 
energy

$$$$
5:0
     RDKit          3D

 33 34  0  0  0  0  0  0  0  0999 V2000
   -5.4400   18.6020  -34.5950 C   0  0  0  0  0  0  0  0  0  0  0  0
   -6.0260   18.7210  -33.1880 C   0  0  2  0  0  0  0  0  0  0  0  0
   -7.3740   18.3250  -33.2020 O   0  0  0  0  0  0  0  0  0  0  0  0
   -5.8770   20.0960  -32.6690 N   0  0  0  0  0  0  0  0  0  0  0  0
   -7.0350   20.9970  -32.7300 C   0  0  0  0  0  0  0  0  0  0  0  0
   -4.6440   20.5760  -32.0790 C   0  0  0  0  0  0  0  0  0  0  0  0
   -3.4630   19.7880  -32.1540 C   0  0  0  0  0  0  0  0  0  0  0  0
   -2.2530   20.2440  -31.6060 C   0  0  0  0  0  0  0  0  0  0  0  0
   -2.2470   21.4850  -30.9810 C   0  0  0  0  0  0  0  0  0  0  0  0
   -1.2120   22.1740  -30.3920 C   0  0  0  0  0  0  0  0  0  0  0  0
   -1.7730   23.3660  -29.9400 C   0  0  0  0  0  0  0  0  0  0  0  0
   -1.0200   24.3720  -29.1610 C   0  0  0  0  0  0  0  0  0  0  0  0
   -1.5310   25.6890  -28.9780 N   0  0  0  0  0  0  0  0  0  0  0  0
    0.0640   24.0490  -28.6070 O   0  0  0  0  0  0  0  0  0  0  0  0
   -3.1000   23.4170  -30.2460 N   0  0  0  0  0  0  0  0  0  0  0  0
   -4.0070   24.5120  -30.0360 C   0  0  0  0  0  0  0  0  0  0  0  0
   -4.9430   24.4100  -29.1990 O   0  0  0  0  0  0  0  0  0  0  0  0
   -3.8760   25.6820  -30.7720 O   0  0  0  0  0  0  0  0  0  0  0  0
   -3.3750   22.2560  -30.8800 C   0  0  0  0  0  0  0  0  0  0  0  0
   -4.5890   21.8360  -31.4350 C   0  0  0  0  0  0  0  0  0  0  0  0
   -4.3641   18.3835  -34.5268 H   0  0  0  0  0  0  0  0  0  0  0  0
   -5.9459   17.7883  -35.1353 H   0  0  0  0  0  0  0  0  0  0  0  0
   -5.5884   19.5486  -35.1353 H   0  0  0  0  0  0  0  0  0  0  0  0
   -5.4710   18.0540  -32.5119 H   0  0  0  0  0  0  0  0  0  0  0  0
   -7.8380   18.9280  -33.8410 H   0  0  0  0  0  0  0  0  0  0  0  0
   -7.3581   21.2484  -31.7090 H   0  0  0  0  0  0  0  0  0  0  0  0
   -6.7556   21.9176  -33.2633 H   0  0  0  0  0  0  0  0  0  0  0  0
   -7.8587   20.4999  -33.2633 H   0  0  0  0  0  0  0  0  0  0  0  0
   -3.4975   18.8062  -32.6488 H   0  0  0  0  0  0  0  0  0  0  0  0
   -1.3378   19.6371  -31.6696 H   0  0  0  0  0  0  0  0  0  0  0  0
   -0.1644   21.8520  -30.2981 H   0  0  0  0  0  0  0  0  0  0  0  0
   -2.5590   25.8720  -28.9850 H   0  0  0  0  0  0  0  0  0  0  0  0
   -5.4838   22.4727  -31.3722 H   0  0  0  0  0  0  0  0  0  0  0  0
  1  2  1  0
  2  3  1  0
  2  4  1  0
  4  5  1  0
  4  6  1  0
  6  7  2  0
  7  8  1  0
  8  9  2  0
  9 10  1  0
 10 11  2  0
 11 12  1  0
 12 13  1  0
 12 14  2  0
 11 15  1  0
 15 16  1  0
 16 17  2  0
 16 18  1  0
 15 19  1  0
 19 20  2  0
 20  6  1  0
 19  9  1  0
  1 21  1  0
  1 22  1  0
  1 23  1  0
  2 24  1  1
  3 25  1  0
  5 26  1  0
  5 27  1  0
  5 28  1  0
  7 29  1  0
  8 30  1  0
 10 31  1  0
 13 32  1  0
 20 33  1  0
M  CHG  2  13  -1  18  -1
M  END
>  <UniqueID>  (6) 
6

>  <SMILES>  (6) 
C[C@H](O)N(C)c1ccc2cc(C([NH-])=O)n(C(=O)[O-])c2c1

>  <Energy>  (6) 
75.15226880783916

>  <Genealogy>  (6) 
CC(O)N(C)c1ccc2cc(C([NH-])=O)n(C(=O)[O-])c2c1 (protonated)
C[C@H](O)N(C)c1ccc2cc(C([NH-])=O)n(C(=O)[O-])c2c1 (chirality)
C[C@H](O)N(C)c1ccc2cc(C([NH-])=O)n(C(=O)[O-])c2c1 (3D coordinates assigned)
C[C@H](O)N(C)c1ccc2cc(C([NH-])=O)n(C(=O)[O-])c2c1 (optimized conformer: 75.15226880783916 kcal/mol)

>  <smiles>  (6) 
CC(O)N(C)c1ccc2cc(C(N)=O)n(C(=O)O)c2c1

>  <score_type>  (6) 
oracle

>  <origin>  (6) 
adg

>  <m_score__min__energy>  (6) 
-10.42

>  <m_primary>  (6) 
energy

$$$$
6:0
     RDKit          3D

 33 34  0  0  0  0  0  0  0  0999 V2000
   -6.6820   17.4770  -32.4650 C   0  0  0  0  0  0  0  0  0  0  0  0
   -6.9140   18.6670  -33.2760 N   0  0  0  0  0  0  0  0  0  0  0  0
   -7.0950   19.9840  -32.7230 C   0  0  0  0  0  0  0  0  0  0  0  0
   -8.3920   20.5330  -32.5220 C   0  0  0  0  0  0  0  0  0  0  0  0
   -8.5490   21.8160  -31.9700 C   0  0  0  0  0  0  0  0  0  0  0  0
   -7.4030   22.5290  -31.6370 C   0  0  0  0  0  0  0  0  0  0  0  0
   -7.2700   23.7740  -31.0660 C   0  0  0  0  0  0  0  0  0  0  0  0
   -5.8980   23.9820  -30.9490 C   0  0  0  0  0  0  0  0  0  0  0  0
   -5.3060   25.2450  -30.4600 C   0  0  0  0  0  0  0  0  0  0  0  0
   -4.0050   25.6550  -30.8720 N   0  0  0  0  0  0  0  0  0  0  0  0
   -5.9790   25.9970  -29.7060 O   0  0  0  0  0  0  0  0  0  0  0  0
   -5.2090   22.9030  -31.4200 N   0  0  0  0  0  0  0  0  0  0  0  0
   -3.7890   22.6870  -31.4030 C   0  0  0  0  0  0  0  0  0  0  0  0
   -3.1990   22.2950  -32.4460 O   0  0  0  0  0  0  0  0  0  0  0  0
   -3.0640   22.9470  -30.2330 O   0  0  0  0  0  0  0  0  0  0  0  0
   -1.6410   22.9910  -30.1840 C   0  0  0  0  0  0  0  0  0  0  0  0
   -1.0850   24.1750  -28.9200 P   0  0  0  0  0  0  0  0  0  0  0  0
   -1.6750   23.8000  -27.5800 O   0  0  0  0  0  0  0  0  0  0  0  0
    0.6030   24.1640  -28.8120 O   0  0  0  0  0  0  0  0  0  0  0  0
   -1.6050   25.7270  -29.3450 O   0  0  0  0  0  0  0  0  0  0  0  0
   -6.1450   22.0240  -31.8390 C   0  0  0  0  0  0  0  0  0  0  0  0
   -5.9580   20.7420  -32.3700 C   0  0  0  0  0  0  0  0  0  0  0  0
   -6.7340   17.7438  -31.3991 H   0  0  0  0  0  0  0  0  0  0  0  0
   -7.4501   16.7230  -32.6921 H   0  0  0  0  0  0  0  0  0  0  0  0
   -5.6870   17.0667  -32.6921 H   0  0  0  0  0  0  0  0  0  0  0  0
   -6.9500   18.5460  -34.3140 H   0  0  0  0  0  0  0  0  0  0  0  0
   -9.2805   19.9477  -32.8013 H   0  0  0  0  0  0  0  0  0  0  0  0
   -9.5493   22.2434  -31.8063 H   0  0  0  0  0  0  0  0  0  0  0  0
   -8.0763   24.4594  -30.7657 H   0  0  0  0  0  0  0  0  0  0  0  0
   -3.1580   25.1140  -30.5940 H   0  0  0  0  0  0  0  0  0  0  0  0
   -1.2559   21.9905  -29.9375 H   0  0  0  0  0  0  0  0  0  0  0  0
   -1.2604   23.3120  -31.1649 H   0  0  0  0  0  0  0  0  0  0  0  0
   -4.9460   20.3341  -32.5091 H   0  0  0  0  0  0  0  0  0  0  0  0
  1  2  1  0
  2  3  1  0
  3  4  2  0
  4  5  1  0
  5  6  2  0
  6  7  1  0
  7  8  2  0
  8  9  1  0
  9 10  1  0
  9 11  2  0
  8 12  1  0
 12 13  1  0
 13 14  2  0
 13 15  1  0
 15 16  1  0
 16 17  1  0
 17 18  2  0
 17 19  1  0
 17 20  1  0
 12 21  1  0
 21 22  2  0
 22  3  1  0
 21  6  1  0
  1 23  1  0
  1 24  1  0
  1 25  1  0
  2 26  1  0
  4 27  1  0
  5 28  1  0
  7 29  1  0
 10 30  1  0
 16 31  1  0
 16 32  1  0
 22 33  1  0
M  CHG  3  10  -1  19  -1  20  -1
M  END
>  <UniqueID>  (7) 
7

>  <SMILES>  (7) 
CNc1ccc2cc(C([NH-])=O)n(C(=O)OCP(=O)([O-])[O-])c2c1

>  <Energy>  (7) 
66.2194759108855

>  <Genealogy>  (7) 
CNc1ccc2cc(C([NH-])=O)n(C(=O)OCP(=O)([O-])[O-])c2c1 (protonated)
CNc1ccc2cc(C([NH-])=O)n(C(=O)OCP(=O)([O-])[O-])c2c1 (3D coordinates assigned)
CNc1ccc2cc(C([NH-])=O)n(C(=O)OCP(=O)([O-])[O-])c2c1 (optimized conformer: 66.2194759108855 kcal/mol)

>  <smiles>  (7) 
CNc1ccc2cc(C(N)=O)n(C(=O)OCP(=O)(O)O)c2c1

>  <score_type>  (7) 
oracle

>  <origin>  (7) 
adg

>  <m_score__min__energy>  (7) 
-13.529999999999999

>  <m_primary>  (7) 
energy

$$$$
7:0
     RDKit          3D

 32 33  0  0  0  0  0  0  0  0999 V2000
   -6.4840   17.4690  -33.9480 C   0  0  0  0  0  0  0  0  0  0  0  0
   -6.6430   18.5400  -33.4170 C   0  0  0  0  0  0  0  0  0  0  0  0
   -6.8310   19.8180  -32.7840 C   0  0  0  0  0  0  0  0  0  0  0  0
   -8.1390   20.2890  -32.5250 C   0  0  0  0  0  0  0  0  0  0  0  0
   -8.3370   21.5410  -31.9170 C   0  0  0  0  0  0  0  0  0  0  0  0
   -7.2110   22.2880  -31.5790 C   0  0  0  0  0  0  0  0  0  0  0  0
   -7.1140   23.5340  -31.0050 C   0  0  0  0  0  0  0  0  0  0  0  0
   -5.7490   23.7900  -30.9050 C   0  0  0  0  0  0  0  0  0  0  0  0
   -5.1930   24.9990  -30.2590 C   0  0  0  0  0  0  0  0  0  0  0  0
   -4.0710   25.6590  -30.8390 N   0  0  0  0  0  0  0  0  0  0  0  0
   -5.7190   25.4750  -29.2180 O   0  0  0  0  0  0  0  0  0  0  0  0
   -5.0270   22.7460  -31.4040 N   0  0  0  0  0  0  0  0  0  0  0  0
   -3.6010   22.6410  -31.5370 C   0  0  0  0  0  0  0  0  0  0  0  0
   -3.1030   22.0670  -32.5430 O   0  0  0  0  0  0  0  0  0  0  0  0
   -2.7720   23.1530  -30.5320 O   0  0  0  0  0  0  0  0  0  0  0  0
   -2.7350   22.6330  -29.2040 C   0  0  0  0  0  0  0  0  0  0  0  0
   -2.3940   23.7390  -28.2050 C   0  0  0  0  0  0  0  0  0  0  0  0
   -2.5180   25.0470  -28.8410 N   0  0  0  0  0  0  0  0  0  0  0  0
   -5.9370   21.8320  -31.8100 C   0  0  0  0  0  0  0  0  0  0  0  0
   -5.7120   20.5960  -32.4290 C   0  0  0  0  0  0  0  0  0  0  0  0
   -6.3390   16.4921  -34.4324 H   0  0  0  0  0  0  0  0  0  0  0  0
   -9.0068   19.6720  -32.8010 H   0  0  0  0  0  0  0  0  0  0  0  0
   -9.3499   21.9191  -31.7144 H   0  0  0  0  0  0  0  0  0  0  0  0
   -7.9398   24.1895  -30.6913 H   0  0  0  0  0  0  0  0  0  0  0  0
   -3.1030   25.2910  -30.7060 H   0  0  0  0  0  0  0  0  0  0  0  0
   -3.7189   22.2097  -28.9535 H   0  0  0  0  0  0  0  0  0  0  0  0
   -1.9613   21.8530  -29.1489 H   0  0  0  0  0  0  0  0  0  0  0  0
   -3.0849   23.6831  -27.3509 H   0  0  0  0  0  0  0  0  0  0  0  0
   -1.3585   23.6042  -27.8592 H   0  0  0  0  0  0  0  0  0  0  0  0
   -2.2410   24.9490  -29.8450 H   0  0  0  0  0  0  0  0  0  0  0  0
   -3.5300   25.3080  -28.8370 H   0  0  0  0  0  0  0  0  0  0  0  0
   -4.6902   20.2429  -32.6321 H   0  0  0  0  0  0  0  0  0  0  0  0
  1  2  3  0
  2  3  1  0
  3  4  2  0
  4  5  1  0
  5  6  2  0
  6  7  1  0
  7  8  2  0
  8  9  1  0
  9 10  1  0
  9 11  2  0
  8 12  1  0
 12 13  1  0
 13 14  2  0
 13 15  1  0
 15 16  1  0
 16 17  1  0
 17 18  1  0
 12 19  1  0
 19 20  2  0
 20  3  1  0
 19  6  1  0
  1 21  1  0
  4 22  1  0
  5 23  1  0
  7 24  1  0
 10 25  1  0
 16 26  1  0
 16 27  1  0
 17 28  1  0
 17 29  1  0
 18 30  1  0
 18 31  1  0
 20 32  1  0
M  CHG  1  10  -1
M  END
>  <UniqueID>  (8) 
8

>  <SMILES>  (8) 
C#Cc1ccc2cc(C([NH-])=O)n(C(=O)OCCN)c2c1

>  <Energy>  (8) 
64.41411879511638

>  <Genealogy>  (8) 
C#Cc1ccc2cc(C([NH-])=O)n(C(=O)OCCN)c2c1 (protonated)
C#Cc1ccc2cc(C([NH-])=O)n(C(=O)OCCN)c2c1 (3D coordinates assigned)
C#Cc1ccc2cc(C([NH-])=O)n(C(=O)OCCN)c2c1 (optimized conformer: 64.41411879511638 kcal/mol)

>  <smiles>  (8) 
C#Cc1ccc2cc(C(N)=O)n(C(=O)OCCN)c2c1

>  <score_type>  (8) 
oracle

>  <origin>  (8) 
adg

>  <m_score__min__energy>  (8) 
-9.8599999999999994

>  <m_primary>  (8) 
energy

$$$$
8:0
     RDKit          3D

 33 34  0  0  0  0  0  0  0  0999 V2000
    0.2320   23.5110  -35.8610 N   0  0  0  0  0  0  0  0  0  0  0  0
    0.7160   22.2590  -35.3820 C   0  0  0  0  0  0  0  0  0  0  0  0
    1.5530   22.2310  -34.4390 O   0  0  0  0  0  0  0  0  0  0  0  0
    0.2290   20.9820  -36.0010 C   0  0  1  0  0  0  0  0  0  0  0  0
    1.6140   20.0950  -36.6960 S   0  0  0  0  0  0  0  0  0  0  0  0
   -0.5190   20.1280  -34.9650 C   0  0  0  0  0  0  0  0  0  0  0  0
   -0.8170   20.9090  -33.7630 N   0  0  0  0  0  0  0  0  0  0  0  0
   -2.1280   21.1080  -33.1970 C   0  0  0  0  0  0  0  0  0  0  0  0
   -3.1510   20.1800  -33.5150 C   0  0  0  0  0  0  0  0  0  0  0  0
   -4.4470   20.3270  -32.9960 C   0  0  0  0  0  0  0  0  0  0  0  0
   -4.6900   21.3980  -32.1440 C   0  0  0  0  0  0  0  0  0  0  0  0
   -5.8570   21.7860  -31.5260 C   0  0  0  0  0  0  0  0  0  0  0  0
   -5.5230   22.9250  -30.7980 C   0  0  0  0  0  0  0  0  0  0  0  0
   -6.4790   23.6390  -29.9270 C   0  0  0  0  0  0  0  0  0  0  0  0
   -6.1360   24.8830  -29.3170 N   0  0  0  0  0  0  0  0  0  0  0  0
   -7.5960   23.1150  -29.6750 O   0  0  0  0  0  0  0  0  0  0  0  0
   -4.2070   23.2380  -30.9680 N   0  0  0  0  0  0  0  0  0  0  0  0
   -3.5160   24.3980  -30.4730 C   0  0  0  0  0  0  0  0  0  0  0  0
   -3.8740   25.5520  -30.8290 O   0  0  0  0  0  0  0  0  0  0  0  0
   -2.4450   24.2600  -29.5980 O   0  0  0  0  0  0  0  0  0  0  0  0
   -3.7100   22.2910  -31.7950 C   0  0  0  0  0  0  0  0  0  0  0  0
   -2.4160   22.1830  -32.3200 C   0  0  0  0  0  0  0  0  0  0  0  0
   -0.7900   23.6700  -36.0060 H   0  0  0  0  0  0  0  0  0  0  0  0
   -0.4811   21.2150  -36.8081 H   0  0  0  0  0  0  0  0  0  0  0  0
   -1.4615   19.7707  -35.4054 H   0  0  0  0  0  0  0  0  0  0  0  0
    0.1193   19.2777  -34.6830 H   0  0  0  0  0  0  0  0  0  0  0  0
    0.0010   21.3320  -33.2680 H   0  0  0  0  0  0  0  0  0  0  0  0
   -2.9260   19.3319  -34.1784 H   0  0  0  0  0  0  0  0  0  0  0  0
   -5.2456   19.6165  -33.2556 H   0  0  0  0  0  0  0  0  0  0  0  0
   -6.8419   21.3006  -31.5928 H   0  0  0  0  0  0  0  0  0  0  0  0
   -6.8390   25.3930  -28.7370 H   0  0  0  0  0  0  0  0  0  0  0  0
   -5.1640   25.2590  -29.3670 H   0  0  0  0  0  0  0  0  0  0  0  0
   -1.6400   22.9170  -32.0571 H   0  0  0  0  0  0  0  0  0  0  0  0
  1  2  1  0
  2  3  2  0
  2  4  1  0
  4  5  1  0
  4  6  1  0
  6  7  1  0
  7  8  1  0
  8  9  2  0
  9 10  1  0
 10 11  2  0
 11 12  1  0
 12 13  2  0
 13 14  1  0
 14 15  1  0
 14 16  2  0
 13 17  1  0
 17 18  1  0
 18 19  2  0
 18 20  1  0
 17 21  1  0
 21 22  2  0
 22  8  1  0
 21 11  1  0
  1 23  1  0
  4 24  1  6
  6 25  1  0
  6 26  1  0
  7 27  1  0
  9 28  1  0
 10 29  1  0
 12 30  1  0
 15 31  1  0
 15 32  1  0
 22 33  1  0
M  CHG  3   1  -1   5  -1  20  -1
M  END
>  <UniqueID>  (9) 
9

>  <SMILES>  (9) 
[NH-]C(=O)[C@@H]([S-])CNc1ccc2cc(C(N)=O)n(C(=O)[O-])c2c1

>  <Energy>  (9) 
72.1514308058689

>  <Genealogy>  (9) 
[NH-]C(=O)C([S-])CNc1ccc2cc(C(N)=O)n(C(=O)[O-])c2c1 (protonated)
[NH-]C(=O)[C@@H]([S-])CNc1ccc2cc(C(N)=O)n(C(=O)[O-])c2c1 (chirality)
[NH-]C(=O)[C@@H]([S-])CNc1ccc2cc(C(N)=O)n(C(=O)[O-])c2c1 (3D coordinates assigned)
[NH-]C(=O)[C@@H]([S-])CNc1ccc2cc(C(N)=O)n(C(=O)[O-])c2c1 (optimized conformer: 72.1514308058689 kcal/mol)

>  <smiles>  (9) 
NC(=O)c1cc2ccc(NCC(S)C(N)=O)cc2n1C(=O)O

>  <score_type>  (9) 
oracle

>  <origin>  (9) 
adg

>  <m_score__min__energy>  (9) 
-10.130000000000001

>  <m_primary>  (9) 
energy

$$$$
9:0
     RDKit          3D

 41 42  0  0  0  0  0  0  0  0999 V2000
   -3.8100   18.9820  -32.6660 C   0  0  0  0  0  0  0  0  0  0  0  0
   -3.2970   19.8180  -33.8380 C   0  0  0  0  0  0  0  0  0  0  0  0
   -2.6600   21.1380  -33.3920 C   0  0  0  0  0  0  0  0  0  0  0  0
   -3.6500   22.1500  -33.2090 O   0  0  0  0  0  0  0  0  0  0  0  0
   -3.9310   22.7450  -31.9720 C   0  0  0  0  0  0  0  0  0  0  0  0
   -3.0010   23.0100  -31.1630 O   0  0  0  0  0  0  0  0  0  0  0  0
   -5.2820   23.0950  -31.6440 N   0  0  0  0  0  0  0  0  0  0  0  0
   -5.7190   24.1820  -30.9470 C   0  0  0  0  0  0  0  0  0  0  0  0
   -4.8880   25.3270  -30.5210 C   0  0  0  0  0  0  0  0  0  0  0  0
   -3.5340   25.1130  -30.1270 N   0  0  0  0  0  0  0  0  0  0  0  0
   -5.3680   26.4890  -30.4700 O   0  0  0  0  0  0  0  0  0  0  0  0
   -7.0950   24.1020  -30.7330 C   0  0  0  0  0  0  0  0  0  0  0  0
   -7.4890   22.9230  -31.3230 C   0  0  0  0  0  0  0  0  0  0  0  0
   -8.7430   22.3230  -31.3770 C   0  0  0  0  0  0  0  0  0  0  0  0
   -8.8460   21.0690  -32.0030 C   0  0  0  0  0  0  0  0  0  0  0  0
   -7.7020   20.4380  -32.5580 C   0  0  0  0  0  0  0  0  0  0  0  0
   -7.8130   19.1300  -33.1590 N   0  0  0  0  0  0  0  0  0  0  0  0
   -7.4230   18.0640  -32.2180 C   0  0  0  0  0  0  0  0  0  0  0  0
   -6.5040   17.0030  -32.8510 C   0  0  0  0  0  0  0  0  0  0  0  0
   -6.4720   17.1230  -34.2890 N   0  0  0  0  0  0  0  0  0  0  0  0
   -6.0460   18.1080  -34.8100 O   0  0  0  0  0  0  0  0  0  0  0  0
   -6.4470   21.0850  -32.4870 C   0  0  0  0  0  0  0  0  0  0  0  0
   -6.3770   22.3360  -31.8670 C   0  0  0  0  0  0  0  0  0  0  0  0
   -3.5171   19.4593  -31.7192 H   0  0  0  0  0  0  0  0  0  0  0  0
   -4.9066   18.9122  -32.7176 H   0  0  0  0  0  0  0  0  0  0  0  0
   -3.3756   17.9727  -32.7176 H   0  0  0  0  0  0  0  0  0  0  0  0
   -2.5440   19.2316  -34.3850 H   0  0  0  0  0  0  0  0  0  0  0  0
   -4.1614   20.0650  -34.4719 H   0  0  0  0  0  0  0  0  0  0  0  0
   -2.1297   20.9780  -32.4416 H   0  0  0  0  0  0  0  0  0  0  0  0
   -1.9608   21.4703  -34.1735 H   0  0  0  0  0  0  0  0  0  0  0  0
   -2.7550   25.2020  -30.8170 H   0  0  0  0  0  0  0  0  0  0  0  0
   -7.7306   24.8277  -30.2045 H   0  0  0  0  0  0  0  0  0  0  0  0
   -9.6262   22.8147  -30.9433 H   0  0  0  0  0  0  0  0  0  0  0  0
   -9.8247   20.5706  -32.0636 H   0  0  0  0  0  0  0  0  0  0  0  0
   -7.2370   19.0750  -34.0310 H   0  0  0  0  0  0  0  0  0  0  0  0
   -8.8080   18.9730  -33.4440 H   0  0  0  0  0  0  0  0  0  0  0  0
   -6.8946   18.5228  -31.3693 H   0  0  0  0  0  0  0  0  0  0  0  0
   -8.3445   17.5525  -31.9030 H   0  0  0  0  0  0  0  0  0  0  0  0
   -5.4846   17.1326  -32.4585 H   0  0  0  0  0  0  0  0  0  0  0  0
   -6.8975   16.0080  -32.5957 H   0  0  0  0  0  0  0  0  0  0  0  0
   -5.5467   20.6151  -32.9097 H   0  0  0  0  0  0  0  0  0  0  0  0
  1  2  1  0
  2  3  1  0
  3  4  1  0
  4  5  1  0
  5  6  2  0
  5  7  1  0
  7  8  1  0
  8  9  1  0
  9 10  1  0
  9 11  2  0
  8 12  2  0
 12 13  1  0
 13 14  2  0
 14 15  1  0
 15 16  2  0
 16 17  1  0
 17 18  1  0
 18 19  1  0
 19 20  1  0
 20 21  2  0
 16 22  1  0
 22 23  2  0
 23  7  1  0
 23 13  1  0
  1 24  1  0
  1 25  1  0
  1 26  1  0
  2 27  1  0
  2 28  1  0
  3 29  1  0
  3 30  1  0
 10 31  1  0
 12 32  1  0
 14 33  1  0
 15 34  1  0
 17 35  1  0
 17 36  1  0
 18 37  1  0
 18 38  1  0
 19 39  1  0
 19 40  1  0
 22 41  1  0
M  CHG  2  10  -1  17   1
M  END
>  <UniqueID>  (10) 
10

>  <SMILES>  (10) 
CCCOC(=O)n1c(C([NH-])=O)cc2ccc([NH2+]CCN=O)cc21

>  <Energy>  (10) 
73.44211746387768

>  <Genealogy>  (10) 
CCCOC(=O)n1c(C([NH-])=O)cc2ccc([NH2+]CCN=O)cc21 (protonated)
CCCOC(=O)n1c(C([NH-])=O)cc2ccc([NH2+]CCN=O)cc21 (3D coordinates assigned)
CCCOC(=O)n1c(C([NH-])=O)cc2ccc([NH2+]CCN=O)cc21 (optimized conformer: 73.44211746387768 kcal/mol)

>  <smiles>  (10) 
CCCOC(=O)n1c(C(N)=O)cc2ccc(NCCN=O)cc21

>  <score_type>  (10) 
oracle

>  <origin>  (10) 
adg

>  <m_score__min__energy>  (10) 
-9.5

>  <m_primary>  (10) 
energy

$$$$
10:0
     RDKit          3D

 37 38  0  0  0  0  0  0  0  0999 V2000
   -3.0740   21.1430  -28.9430 C   0  0  0  0  0  0  0  0  0  0  0  0
   -2.8430   22.6660  -28.9110 C   0  0  0  0  0  0  0  0  0  0  0  0
   -1.4390   22.9430  -28.3510 C   0  0  0  0  0  0  0  0  0  0  0  0
   -3.8840   23.3560  -28.0090 C   0  0  0  0  0  0  0  0  0  0  0  0
   -2.8830   23.2110  -30.2380 O   0  0  0  0  0  0  0  0  0  0  0  0
   -3.6370   22.7210  -31.3150 C   0  0  0  0  0  0  0  0  0  0  0  0
   -3.0820   22.1510  -32.2920 O   0  0  0  0  0  0  0  0  0  0  0  0
   -5.0620   22.8990  -31.3120 N   0  0  0  0  0  0  0  0  0  0  0  0
   -5.7700   23.9770  -30.8710 C   0  0  0  0  0  0  0  0  0  0  0  0
   -5.2040   25.2740  -30.4430 C   0  0  0  0  0  0  0  0  0  0  0  0
   -3.8950   25.6700  -30.8420 N   0  0  0  0  0  0  0  0  0  0  0  0
   -5.9050   26.0620  -29.7540 O   0  0  0  0  0  0  0  0  0  0  0  0
   -7.1380   23.7290  -30.9580 C   0  0  0  0  0  0  0  0  0  0  0  0
   -7.2470   22.4590  -31.4770 C   0  0  0  0  0  0  0  0  0  0  0  0
   -8.3790   21.7080  -31.7750 C   0  0  0  0  0  0  0  0  0  0  0  0
   -8.1950   20.4130  -32.2860 C   0  0  0  0  0  0  0  0  0  0  0  0
   -6.8910   19.8820  -32.4640 C   0  0  0  0  0  0  0  0  0  0  0  0
   -6.7050   18.5040  -33.0490 C   0  0  0  0  0  0  0  0  0  0  0  0
   -7.9130   17.8330  -33.0250 F   0  0  0  0  0  0  0  0  0  0  0  0
   -6.2600   18.5850  -34.3580 F   0  0  0  0  0  0  0  0  0  0  0  0
   -5.7740   17.7850  -32.3190 F   0  0  0  0  0  0  0  0  0  0  0  0
   -5.7660   20.6870  -32.1710 C   0  0  0  0  0  0  0  0  0  0  0  0
   -5.9810   21.9800  -31.6820 C   0  0  0  0  0  0  0  0  0  0  0  0
   -3.1322   20.7593  -27.9137 H   0  0  0  0  0  0  0  0  0  0  0  0
   -4.0153   20.9259  -29.4691 H   0  0  0  0  0  0  0  0  0  0  0  0
   -2.2394   20.6565  -29.4691 H   0  0  0  0  0  0  0  0  0  0  0  0
   -1.4748   22.9359  -27.2516 H   0  0  0  0  0  0  0  0  0  0  0  0
   -0.7448   22.1645  -28.7003 H   0  0  0  0  0  0  0  0  0  0  0  0
   -1.0925   23.9268  -28.7003 H   0  0  0  0  0  0  0  0  0  0  0  0
   -3.6256   23.1848  -26.9536 H   0  0  0  0  0  0  0  0  0  0  0  0
   -3.8886   24.4366  -28.2147 H   0  0  0  0  0  0  0  0  0  0  0  0
   -4.8810   22.9393  -28.2147 H   0  0  0  0  0  0  0  0  0  0  0  0
   -3.0490   25.2950  -30.3580 H   0  0  0  0  0  0  0  0  0  0  0  0
   -7.9575   24.4050  -30.6724 H   0  0  0  0  0  0  0  0  0  0  0  0
   -9.3879   22.1161  -31.6153 H   0  0  0  0  0  0  0  0  0  0  0  0
   -9.0714   19.8034  -32.5513 H   0  0  0  0  0  0  0  0  0  0  0  0
   -4.7457   20.3055  -32.3240 H   0  0  0  0  0  0  0  0  0  0  0  0
  1  2  1  0
  2  3  1  0
  2  4  1  0
  2  5  1  0
  5  6  1  0
  6  7  2  0
  6  8  1  0
  8  9  1  0
  9 10  1  0
 10 11  1  0
 10 12  2  0
  9 13  2  0
 13 14  1  0
 14 15  2  0
 15 16  1  0
 16 17  2  0
 17 18  1  0
 18 19  1  0
 18 20  1  0
 18 21  1  0
 17 22  1  0
 22 23  2  0
 23  8  1  0
 23 14  1  0
  1 24  1  0
  1 25  1  0
  1 26  1  0
  3 27  1  0
  3 28  1  0
  3 29  1  0
  4 30  1  0
  4 31  1  0
  4 32  1  0
 11 33  1  0
 13 34  1  0
 15 35  1  0
 16 36  1  0
 22 37  1  0
M  CHG  1  11  -1
M  END
>  <UniqueID>  (11) 
11

>  <SMILES>  (11) 
CC(C)(C)OC(=O)n1c(C([NH-])=O)cc2ccc(C(F)(F)F)cc21

>  <Energy>  (11) 
71.88827248534564

>  <Genealogy>  (11) 
CC(C)(C)OC(=O)n1c(C([NH-])=O)cc2ccc(C(F)(F)F)cc21 (protonated)
CC(C)(C)OC(=O)n1c(C([NH-])=O)cc2ccc(C(F)(F)F)cc21 (3D coordinates assigned)
CC(C)(C)OC(=O)n1c(C([NH-])=O)cc2ccc(C(F)(F)F)cc21 (optimized conformer: 71.88827248534564 kcal/mol)

>  <smiles>  (11) 
CC(C)(C)OC(=O)n1c(C(N)=O)cc2ccc(C(F)(F)F)cc21

>  <score_type>  (11) 
oracle

>  <origin>  (11) 
adg

>  <m_score__min__energy>  (11) 
-9.5899999999999999

>  <m_primary>  (11) 
energy

$$$$
11:0
     RDKit          3D

 43 44  0  0  0  0  0  0  0  0999 V2000
   -3.1520   21.1840  -33.5030 C   0  0  0  0  0  0  0  0  0  0  0  0
   -3.5380   21.8760  -32.5950 C   0  0  0  0  0  0  0  0  0  0  0  0
   -4.0030   22.7010  -31.5130 C   0  0  0  0  0  0  0  0  0  0  0  0
   -3.1740   23.1430  -30.6750 O   0  0  0  0  0  0  0  0  0  0  0  0
   -5.3980   23.0130  -31.3830 N   0  0  0  0  0  0  0  0  0  0  0  0
   -5.9550   24.1800  -30.9500 C   0  0  0  0  0  0  0  0  0  0  0  0
   -5.2240   25.3420  -30.4020 C   0  0  0  0  0  0  0  0  0  0  0  0
   -3.9080   25.6600  -30.8470 N   0  0  0  0  0  0  0  0  0  0  0  0
   -5.7550   26.0450  -29.5010 O   0  0  0  0  0  0  0  0  0  0  0  0
   -7.3460   24.1110  -31.0150 C   0  0  0  0  0  0  0  0  0  0  0  0
   -7.6260   22.8550  -31.5010 C   0  0  0  0  0  0  0  0  0  0  0  0
   -8.8520   22.2510  -31.7690 C   0  0  0  0  0  0  0  0  0  0  0  0
   -8.8430   20.9440  -32.2840 C   0  0  0  0  0  0  0  0  0  0  0  0
   -7.6180   20.2690  -32.5300 C   0  0  0  0  0  0  0  0  0  0  0  0
   -7.6190   18.9200  -33.0440 N   0  0  0  0  0  0  0  0  0  0  0  0
   -7.7090   17.9260  -31.9590 C   0  0  0  0  0  0  0  0  0  0  0  0
   -6.3370   17.3190  -31.6150 C   0  0  0  0  0  0  0  0  0  0  0  0
   -5.6330   16.7970  -32.8730 C   0  0  0  0  0  0  0  0  0  0  0  0
   -5.0120   17.9150  -33.6190 N   0  0  0  0  0  0  0  0  0  0  0  0
   -5.3110   17.8010  -35.0550 C   0  0  0  0  0  0  0  0  0  0  0  0
   -3.5520   17.9340  -33.4230 C   0  0  0  0  0  0  0  0  0  0  0  0
   -6.3950   20.9190  -32.2480 C   0  0  0  0  0  0  0  0  0  0  0  0
   -6.4350   22.2130  -31.7160 C   0  0  0  0  0  0  0  0  0  0  0  0
   -2.7997   20.5524  -34.3318 H   0  0  0  0  0  0  0  0  0  0  0  0
   -3.0680   25.2900  -30.3490 H   0  0  0  0  0  0  0  0  0  0  0  0
   -8.0664   24.8944  -30.7368 H   0  0  0  0  0  0  0  0  0  0  0  0
   -9.7979   22.7809  -31.5832 H   0  0  0  0  0  0  0  0  0  0  0  0
   -9.7956   20.4377  -32.4991 H   0  0  0  0  0  0  0  0  0  0  0  0
   -6.7280   18.7600  -33.5690 H   0  0  0  0  0  0  0  0  0  0  0  0
   -8.4060   18.7800  -33.7210 H   0  0  0  0  0  0  0  0  0  0  0  0
   -8.1152   18.4160  -31.0618 H   0  0  0  0  0  0  0  0  0  0  0  0
   -8.3644   17.1109  -32.2997 H   0  0  0  0  0  0  0  0  0  0  0  0
   -5.7096   18.0917  -31.1467 H   0  0  0  0  0  0  0  0  0  0  0  0
   -6.4911   16.4758  -30.9257 H   0  0  0  0  0  0  0  0  0  0  0  0
   -4.8527   16.0792  -32.5801 H   0  0  0  0  0  0  0  0  0  0  0  0
   -6.3754   16.3059  -33.5193 H   0  0  0  0  0  0  0  0  0  0  0  0
   -6.3314   17.4120  -35.1873 H   0  0  0  0  0  0  0  0  0  0  0  0
   -5.2326   18.7921  -35.5257 H   0  0  0  0  0  0  0  0  0  0  0  0
   -4.5926   17.1137  -35.5257 H   0  0  0  0  0  0  0  0  0  0  0  0
   -3.3266   17.9369  -32.3463 H   0  0  0  0  0  0  0  0  0  0  0  0
   -3.1080   17.0416  -33.8882 H   0  0  0  0  0  0  0  0  0  0  0  0
   -3.1313   18.8377  -33.8882 H   0  0  0  0  0  0  0  0  0  0  0  0
   -5.4343   20.4196  -32.4421 H   0  0  0  0  0  0  0  0  0  0  0  0
  1  2  3  0
  2  3  1  0
  3  4  2  0
  3  5  1  0
  5  6  1  0
  6  7  1  0
  7  8  1  0
  7  9  2  0
  6 10  2  0
 10 11  1  0
 11 12  2  0
 12 13  1  0
 13 14  2  0
 14 15  1  0
 15 16  1  0
 16 17  1  0
 17 18  1  0
 18 19  1  0
 19 20  1  0
 19 21  1  0
 14 22  1  0
 22 23  2  0
 23  5  1  0
 23 11  1  0
  1 24  1  0
  8 25  1  0
 10 26  1  0
 12 27  1  0
 13 28  1  0
 15 29  1  0
 15 30  1  0
 16 31  1  0
 16 32  1  0
 17 33  1  0
 17 34  1  0
 18 35  1  0
 18 36  1  0
 20 37  1  0
 20 38  1  0
 20 39  1  0
 21 40  1  0
 21 41  1  0
 21 42  1  0
 22 43  1  0
M  CHG  2   8  -1  15   1
M  END
>  <UniqueID>  (12) 
12

>  <SMILES>  (12) 
C#CC(=O)n1c(C([NH-])=O)cc2ccc([NH2+]CCCN(C)C)cc21

>  <Energy>  (12) 
79.0195631116886

>  <Genealogy>  (12) 
C#CC(=O)n1c(C([NH-])=O)cc2ccc([NH2+]CCCN(C)C)cc21 (protonated)
C#CC(=O)n1c(C([NH-])=O)cc2ccc([NH2+]CCCN(C)C)cc21 (3D coordinates assigned)
C#CC(=O)n1c(C([NH-])=O)cc2ccc([NH2+]CCCN(C)C)cc21 (optimized conformer: 79.0195631116886 kcal/mol)

>  <smiles>  (12) 
C#CC(=O)n1c(C(N)=O)cc2ccc(NCCCN(C)C)cc21

>  <score_type>  (12) 
oracle

>  <origin>  (12) 
adg

>  <m_score__min__energy>  (12) 
-10.470000000000001

>  <m_primary>  (12) 
energy

$$$$
12:0
     RDKit          3D

 38 40  0  0  0  0  0  0  0  0999 V2000
   -5.1360   14.5790  -34.6180 N   0  0  0  0  0  0  0  0  0  0  0  0
   -6.3870   15.2270  -34.3820 C   0  0  0  0  0  0  0  0  0  0  0  0
   -7.4430   14.7140  -34.8400 O   0  0  0  0  0  0  0  0  0  0  0  0
   -6.4590   16.5160  -33.6670 C   0  0  0  0  0  0  0  0  0  0  0  0
   -7.5520   16.9070  -32.8990 C   0  0  0  0  0  0  0  0  0  0  0  0
   -7.2560   18.1790  -32.4660 C   0  0  0  0  0  0  0  0  0  0  0  0
   -7.9900   19.0420  -31.6580 C   0  0  0  0  0  0  0  0  0  0  0  0
   -7.4240   20.2870  -31.3400 C   0  0  0  0  0  0  0  0  0  0  0  0
   -6.1390   20.6480  -31.8220 C   0  0  0  0  0  0  0  0  0  0  0  0
   -5.5460   21.9610  -31.4650 C   0  0  0  0  0  0  0  0  0  0  0  0
   -6.3630   23.1000  -31.3230 C   0  0  0  0  0  0  0  0  0  0  0  0
   -5.8020   24.3360  -30.9900 C   0  0  0  0  0  0  0  0  0  0  0  0
   -4.4240   24.4520  -30.7930 C   0  0  0  0  0  0  0  0  0  0  0  0
   -3.8700   25.6820  -30.4620 O   0  0  0  0  0  0  0  0  0  0  0  0
   -3.6030   23.3290  -30.9320 C   0  0  0  0  0  0  0  0  0  0  0  0
   -4.1580   22.0900  -31.2660 C   0  0  0  0  0  0  0  0  0  0  0  0
   -5.4240   19.7400  -32.6400 C   0  0  0  0  0  0  0  0  0  0  0  0
   -6.0210   18.5150  -32.9590 C   0  0  0  0  0  0  0  0  0  0  0  0
   -5.5170   17.5000  -33.6980 N   0  0  0  0  0  0  0  0  0  0  0  0
   -4.2090   17.4380  -34.2880 C   0  0  0  0  0  0  0  0  0  0  0  0
   -4.0680   16.9900  -35.4590 O   0  0  0  0  0  0  0  0  0  0  0  0
   -3.0950   17.8730  -33.5610 O   0  0  0  0  0  0  0  0  0  0  0  0
   -2.1120   16.9880  -33.0270 C   0  0  0  0  0  0  0  0  0  0  0  0
   -2.4990   15.5670  -33.2840 C   0  0  0  0  0  0  0  0  0  0  0  0
   -3.2220   14.9500  -32.4580 O   0  0  0  0  0  0  0  0  0  0  0  0
   -2.0380   14.9110  -34.4190 O   0  0  0  0  0  0  0  0  0  0  0  0
   -5.1090   13.6480  -35.0880 H   0  0  0  0  0  0  0  0  0  0  0  0
   -4.2330   15.0570  -34.4080 H   0  0  0  0  0  0  0  0  0  0  0  0
   -8.4593   16.3233  -32.6840 H   0  0  0  0  0  0  0  0  0  0  0  0
   -8.9831   18.7576  -31.2800 H   0  0  0  0  0  0  0  0  0  0  0  0
   -7.9843   20.9922  -30.7086 H   0  0  0  0  0  0  0  0  0  0  0  0
   -7.4492   23.0160  -31.4752 H   0  0  0  0  0  0  0  0  0  0  0  0
   -6.4476   25.2201  -30.8827 H   0  0  0  0  0  0  0  0  0  0  0  0
   -2.5177   23.4204  -30.7782 H   0  0  0  0  0  0  0  0  0  0  0  0
   -3.5063   21.2104  -31.3740 H   0  0  0  0  0  0  0  0  0  0  0  0
   -4.4216   19.9918  -33.0164 H   0  0  0  0  0  0  0  0  0  0  0  0
   -1.1423   17.1921  -33.5045 H   0  0  0  0  0  0  0  0  0  0  0  0
   -2.0384   17.1481  -31.9412 H   0  0  0  0  0  0  0  0  0  0  0  0
  1  2  1  0
  2  3  2  0
  2  4  1  0
  4  5  2  0
  5  6  1  0
  6  7  2  0
  7  8  1  0
  8  9  2  0
  9 10  1  0
 10 11  2  0
 11 12  1  0
 12 13  2  0
 13 14  1  0
 13 15  1  0
 15 16  2  0
  9 17  1  0
 17 18  2  0
 18 19  1  0
 19 20  1  0
 20 21  2  0
 20 22  1  0
 22 23  1  0
 23 24  1  0
 24 25  2  0
 24 26  1  0
 19  4  1  0
 18  6  1  0
 16 10  1  0
  1 27  1  0
  1 28  1  0
  5 29  1  0
  7 30  1  0
  8 31  1  0
 11 32  1  0
 12 33  1  0
 15 34  1  0
 16 35  1  0
 17 36  1  0
 23 37  1  0
 23 38  1  0
M  CHG  2  14  -1  26  -1
M  END
>  <UniqueID>  (13) 
13

>  <SMILES>  (13) 
NC(=O)c1cc2ccc(-c3ccc([O-])cc3)cc2n1C(=O)OCC(=O)[O-]

>  <Energy>  (13) 
83.13036406293338

>  <Genealogy>  (13) 
NC(=O)c1cc2ccc(-c3ccc([O-])cc3)cc2n1C(=O)OCC(=O)[O-] (protonated)
NC(=O)c1cc2ccc(-c3ccc([O-])cc3)cc2n1C(=O)OCC(=O)[O-] (3D coordinates assigned)
NC(=O)c1cc2ccc(-c3ccc([O-])cc3)cc2n1C(=O)OCC(=O)[O-] (optimized conformer: 83.13036406293338 kcal/mol)

>  <smiles>  (13) 
NC(=O)c1cc2ccc(-c3ccc(O)cc3)cc2n1C(=O)OCC(=O)O

>  <score_type>  (13) 
oracle

>  <origin>  (13) 
adg

>  <m_score__min__energy>  (13) 
-11.32

>  <m_primary>  (13) 
energy

$$$$
13:0
     RDKit          3D

 48 51  0  0  0  0  0  0  0  0999 V2000
   -6.4550   23.6580  -32.2840 C   0  0  0  0  0  0  0  0  0  0  0  0
   -5.5070   24.5130  -31.6860 O   0  0  0  0  0  0  0  0  0  0  0  0
   -5.9120   24.8320  -30.3710 C   0  0  0  0  0  0  0  0  0  0  0  0
   -4.7810   24.8800  -29.5040 O   0  0  0  0  0  0  0  0  0  0  0  0
   -4.1670   23.7280  -29.0010 C   0  0  0  0  0  0  0  0  0  0  0  0
   -4.5330   23.2560  -27.8910 O   0  0  0  0  0  0  0  0  0  0  0  0
   -3.1480   23.0650  -29.7710 N   0  0  0  0  0  0  0  0  0  0  0  0
   -1.8030   23.2800  -29.7240 C   0  0  0  0  0  0  0  0  0  0  0  0
   -1.1260   24.3420  -28.9610 C   0  0  0  0  0  0  0  0  0  0  0  0
   -1.8690   25.4210  -28.3950 N   0  0  0  0  0  0  0  0  0  0  0  0
    0.1300   24.3340  -28.8670 O   0  0  0  0  0  0  0  0  0  0  0  0
   -1.1190   22.3100  -30.4480 C   0  0  0  0  0  0  0  0  0  0  0  0
   -2.0950   21.4970  -30.9730 C   0  0  0  0  0  0  0  0  0  0  0  0
   -1.9800   20.3790  -31.7930 C   0  0  0  0  0  0  0  0  0  0  0  0
   -3.1600   19.7410  -32.2050 C   0  0  0  0  0  0  0  0  0  0  0  0
   -4.4290   20.2310  -31.8050 C   0  0  0  0  0  0  0  0  0  0  0  0
   -5.6270   19.5790  -32.2690 N   0  0  0  0  0  0  0  0  0  0  0  0
   -6.3680   19.9930  -33.4570 C   0  0  1  0  0  0  0  0  0  0  0  0
   -6.0980   18.9490  -34.5790 C   0  0  0  0  0  0  0  0  0  0  0  0
   -5.2340   17.9090  -34.1400 O   0  0  0  0  0  0  0  0  0  0  0  0
   -5.7660   17.2550  -32.9950 C   0  0  0  0  0  0  0  0  0  0  0  0
   -6.0230   18.2470  -31.8240 C   0  0  2  0  0  0  0  0  0  0  0  0
   -7.5250   18.3210  -31.4800 C   0  0  0  0  0  0  0  0  0  0  0  0
   -8.2920   18.7390  -32.6010 O   0  0  0  0  0  0  0  0  0  0  0  0
   -7.8610   20.0110  -33.0660 C   0  0  0  0  0  0  0  0  0  0  0  0
   -4.5040   21.3640  -30.9600 C   0  0  0  0  0  0  0  0  0  0  0  0
   -3.3110   21.9710  -30.5500 C   0  0  0  0  0  0  0  0  0  0  0  0
   -7.0283   23.1410  -31.5004 H   0  0  0  0  0  0  0  0  0  0  0  0
   -7.1398   24.2499  -32.9091 H   0  0  0  0  0  0  0  0  0  0  0  0
   -5.9367   22.9160  -32.9091 H   0  0  0  0  0  0  0  0  0  0  0  0
   -6.4103   25.8126  -30.3724 H   0  0  0  0  0  0  0  0  0  0  0  0
   -6.6061   24.0578  -30.0121 H   0  0  0  0  0  0  0  0  0  0  0  0
   -2.8900   25.5260  -28.5890 H   0  0  0  0  0  0  0  0  0  0  0  0
   -1.3830   26.1590  -27.8380 H   0  0  0  0  0  0  0  0  0  0  0  0
   -0.0304   22.2138  -30.5737 H   0  0  0  0  0  0  0  0  0  0  0  0
   -0.9943   20.0066  -32.1087 H   0  0  0  0  0  0  0  0  0  0  0  0
   -3.0997   18.8494  -32.8464 H   0  0  0  0  0  0  0  0  0  0  0  0
   -6.0664   20.9861  -33.8215 H   0  0  0  0  0  0  0  0  0  0  0  0
   -5.6331   19.4596  -35.4352 H   0  0  0  0  0  0  0  0  0  0  0  0
   -7.0599   18.4961  -34.8612 H   0  0  0  0  0  0  0  0  0  0  0  0
   -5.0521   16.4879  -32.6604 H   0  0  0  0  0  0  0  0  0  0  0  0
   -6.7295   16.8057  -33.2774 H   0  0  0  0  0  0  0  0  0  0  0  0
   -5.4570   17.9062  -30.9445 H   0  0  0  0  0  0  0  0  0  0  0  0
   -7.6696   19.0389  -30.6592 H   0  0  0  0  0  0  0  0  0  0  0  0
   -7.8629   17.3171  -31.1833 H   0  0  0  0  0  0  0  0  0  0  0  0
   -8.0130   20.7535  -32.2688 H   0  0  0  0  0  0  0  0  0  0  0  0
   -8.4490   20.2700  -33.9589 H   0  0  0  0  0  0  0  0  0  0  0  0
   -5.4773   21.7585  -30.6330 H   0  0  0  0  0  0  0  0  0  0  0  0
  1  2  1  0
  2  3  1  0
  3  4  1  0
  4  5  1  0
  5  6  2  0
  5  7  1  0
  7  8  1  0
  8  9  1  0
  9 10  1  0
  9 11  2  0
  8 12  2  0
 12 13  1  0
 13 14  2  0
 14 15  1  0
 15 16  2  0
 16 17  1  0
 17 18  1  0
 18 19  1  0
 19 20  1  0
 20 21  1  0
 21 22  1  0
 22 23  1  0
 23 24  1  0
 24 25  1  0
 16 26  1  0
 26 27  2  0
 27  7  1  0
 27 13  1  0
 22 17  1  0
 25 18  1  0
  1 28  1  0
  1 29  1  0
  1 30  1  0
  3 31  1  0
  3 32  1  0
 10 33  1  0
 10 34  1  0
 12 35  1  0
 14 36  1  0
 15 37  1  0
 18 38  1  6
 19 39  1  0
 19 40  1  0
 21 41  1  0
 21 42  1  0
 22 43  1  1
 23 44  1  0
 23 45  1  0
 25 46  1  0
 25 47  1  0
 26 48  1  0
M  END
>  <UniqueID>  (14) 
14

>  <SMILES>  (14) 
COCOC(=O)n1c(C(N)=O)cc2ccc(N3C4COCC3COC4)cc21

>  <Energy>  (14) 
113.50274730895798

>  <Genealogy>  (14) 
COCOC(=O)n1c(C(N)=O)cc2ccc(N3C4COCC3COC4)cc21 (3D coordinates assigned)
COCOC(=O)n1c(C(N)=O)cc2ccc(N3C4COCC3COC4)cc21 (nonaromatic ring conformer: 113.50274730895798 kcal/mol)

>  <smiles>  (14) 
COCOC(=O)n1c(C(N)=O)cc2ccc(N3C4COCC3COC4)cc21

>  <score_type>  (14) 
oracle

>  <origin>  (14) 
adg

>  <m_score__min__energy>  (14) 
-8.8499999999999996

>  <m_primary>  (14) 
energy

$$$$
15:0
     RDKit          3D

 39 40  0  0  0  0  0  0  0  0999 V2000
   -5.0450   18.1610  -34.4630 C   0  0  0  0  0  0  0  0  0  0  0  0
   -5.9200   18.3290  -33.2960 N   0  0  0  0  0  0  0  0  0  0  0  0
   -6.4710   17.1320  -32.6480 C   0  0  0  0  0  0  0  0  0  0  0  0
   -6.2350   19.6540  -32.7930 C   0  0  0  0  0  0  0  0  0  0  0  0
   -7.5820   20.1170  -32.7630 C   0  0  0  0  0  0  0  0  0  0  0  0
   -7.8980   21.4010  -32.2890 C   0  0  0  0  0  0  0  0  0  0  0  0
   -6.8580   22.2070  -31.8420 C   0  0  0  0  0  0  0  0  0  0  0  0
   -6.8820   23.4950  -31.3610 C   0  0  0  0  0  0  0  0  0  0  0  0
   -5.5540   23.8080  -31.0780 C   0  0  0  0  0  0  0  0  0  0  0  0
   -5.1310   25.0820  -30.4590 C   0  0  0  0  0  0  0  0  0  0  0  0
   -3.8790   25.6630  -30.8170 N   0  0  0  0  0  0  0  0  0  0  0  0
   -5.8800   25.6840  -29.6460 O   0  0  0  0  0  0  0  0  0  0  0  0
   -4.7420   22.7560  -31.3770 N   0  0  0  0  0  0  0  0  0  0  0  0
   -3.3080   22.7050  -31.3010 C   0  0  0  0  0  0  0  0  0  0  0  0
   -2.6550   22.0990  -32.1930 O   0  0  0  0  0  0  0  0  0  0  0  0
   -2.6520   23.3500  -30.2430 O   0  0  0  0  0  0  0  0  0  0  0  0
   -2.9010   23.1230  -28.8830 C   0  0  0  0  0  0  0  0  0  0  0  0
   -3.1430   21.9650  -28.4470 O   0  0  0  0  0  0  0  0  0  0  0  0
   -2.8380   24.2740  -27.9300 C   0  0  0  0  0  0  0  0  0  0  0  0
   -1.4900   24.9930  -28.0190 C   0  0  0  0  0  0  0  0  0  0  0  0
   -1.5420   26.0310  -28.9610 O   0  0  0  0  0  0  0  0  0  0  0  0
   -5.5570   21.7820  -31.8430 C   0  0  0  0  0  0  0  0  0  0  0  0
   -5.2090   20.5160  -32.3260 C   0  0  0  0  0  0  0  0  0  0  0  0
   -4.0170   17.9636  -34.1251 H   0  0  0  0  0  0  0  0  0  0  0  0
   -5.4006   17.3147  -35.0691 H   0  0  0  0  0  0  0  0  0  0  0  0
   -5.0619   19.0788  -35.0691 H   0  0  0  0  0  0  0  0  0  0  0  0
   -6.4172   17.2488  -31.5555 H   0  0  0  0  0  0  0  0  0  0  0  0
   -7.5201   17.0008  -32.9515 H   0  0  0  0  0  0  0  0  0  0  0  0
   -5.8884   16.2497  -32.9515 H   0  0  0  0  0  0  0  0  0  0  0  0
   -8.3883   19.4578  -33.1170 H   0  0  0  0  0  0  0  0  0  0  0  0
   -8.9383   21.7580  -32.2722 H   0  0  0  0  0  0  0  0  0  0  0  0
   -7.7624   24.1409  -31.2279 H   0  0  0  0  0  0  0  0  0  0  0  0
   -2.9850   25.2900  -30.4290 H   0  0  0  0  0  0  0  0  0  0  0  0
   -3.6409   24.9855  -28.1731 H   0  0  0  0  0  0  0  0  0  0  0  0
   -2.9594   23.8868  -26.9076 H   0  0  0  0  0  0  0  0  0  0  0  0
   -1.2388   25.4122  -27.0335 H   0  0  0  0  0  0  0  0  0  0  0  0
   -0.7236   24.2691  -28.3330 H   0  0  0  0  0  0  0  0  0  0  0  0
   -2.0000   25.6680  -29.7620 H   0  0  0  0  0  0  0  0  0  0  0  0
   -4.1573   20.1940  -32.3435 H   0  0  0  0  0  0  0  0  0  0  0  0
  1  2  1  0
  2  3  1  0
  2  4  1  0
  4  5  2  0
  5  6  1  0
  6  7  2  0
  7  8  1  0
  8  9  2  0
  9 10  1  0
 10 11  1  0
 10 12  2  0
  9 13  1  0
 13 14  1  0
 14 15  2  0
 14 16  1  0
 16 17  1  0
 17 18  2  0
 17 19  1  0
 19 20  1  0
 20 21  1  0
 13 22  1  0
 22 23  2  0
 23  4  1  0
 22  7  1  0
  1 24  1  0
  1 25  1  0
  1 26  1  0
  3 27  1  0
  3 28  1  0
  3 29  1  0
  5 30  1  0
  6 31  1  0
  8 32  1  0
 11 33  1  0
 19 34  1  0
 19 35  1  0
 20 36  1  0
 20 37  1  0
 21 38  1  0
 23 39  1  0
M  CHG  1  11  -1
M  END
>  <UniqueID>  (15) 
15

>  <SMILES>  (15) 
CN(C)c1ccc2cc(C([NH-])=O)n(C(=O)OC(=O)CCO)c2c1

>  <Energy>  (15) 
76.70932245595678

>  <Genealogy>  (15) 
CN(C)c1ccc2cc(C([NH-])=O)n(C(=O)OC(=O)CCO)c2c1 (protonated)
CN(C)c1ccc2cc(C([NH-])=O)n(C(=O)OC(=O)CCO)c2c1 (3D coordinates assigned)
CN(C)c1ccc2cc(C([NH-])=O)n(C(=O)OC(=O)CCO)c2c1 (optimized conformer: 76.70932245595678 kcal/mol)

>  <smiles>  (15) 
CN(C)c1ccc2cc(C(N)=O)n(C(=O)OC(=O)CCO)c2c1

>  <score_type>  (15) 
oracle

>  <origin>  (15) 
adg

>  <m_score__min__energy>  (15) 
-10.460000000000001

>  <m_primary>  (15) 
energy

$$$$
16:0
     RDKit          3D

 42 43  0  0  0  0  0  0  0  0999 V2000
   -7.1120   17.3600  -33.1880 C   0  0  0  0  0  0  0  0  0  0  0  0
   -7.2060   18.5070  -32.8280 C   0  0  0  0  0  0  0  0  0  0  0  0
   -7.3170   19.8750  -32.3960 C   0  0  0  0  0  0  0  0  0  0  0  0
   -8.5810   20.5070  -32.3740 C   0  0  0  0  0  0  0  0  0  0  0  0
   -8.7040   21.8380  -31.9390 C   0  0  0  0  0  0  0  0  0  0  0  0
   -7.5470   22.5040  -31.5420 C   0  0  0  0  0  0  0  0  0  0  0  0
   -7.3850   23.7770  -31.0460 C   0  0  0  0  0  0  0  0  0  0  0  0
   -6.0200   23.9050  -30.7950 C   0  0  0  0  0  0  0  0  0  0  0  0
   -5.3930   25.1540  -30.3180 C   0  0  0  0  0  0  0  0  0  0  0  0
   -4.1500   25.6020  -30.8530 N   0  0  0  0  0  0  0  0  0  0  0  0
   -5.9840   25.8610  -29.4580 O   0  0  0  0  0  0  0  0  0  0  0  0
   -5.3640   22.7540  -31.1180 N   0  0  0  0  0  0  0  0  0  0  0  0
   -3.9810   22.4410  -30.9020 C   0  0  0  0  0  0  0  0  0  0  0  0
   -3.0890   23.2710  -31.2260 O   0  0  0  0  0  0  0  0  0  0  0  0
   -3.6280   21.1990  -30.3610 O   0  0  0  0  0  0  0  0  0  0  0  0
   -2.2820   20.8200  -30.0840 C   0  0  0  0  0  0  0  0  0  0  0  0
   -1.6480   21.8070  -29.1510 C   0  0  0  0  0  0  0  0  0  0  0  0
   -0.4580   21.6280  -28.7760 O   0  0  0  0  0  0  0  0  0  0  0  0
   -2.4060   22.9350  -28.6780 N   0  0  0  0  0  0  0  0  0  0  0  0
   -1.8950   23.9310  -27.7180 C   0  0  0  0  0  0  0  0  0  0  0  0
   -3.0810   24.6430  -27.0380 C   0  0  0  0  0  0  0  0  0  0  0  0
   -1.0630   23.2160  -26.6380 C   0  0  0  0  0  0  0  0  0  0  0  0
   -0.9960   24.9240  -28.4240 C   0  0  0  0  0  0  0  0  0  0  0  0
   -1.4650   25.6740  -29.3220 O   0  0  0  0  0  0  0  0  0  0  0  0
    0.3670   24.9670  -28.1500 O   0  0  0  0  0  0  0  0  0  0  0  0
   -6.3130   21.9070  -31.5760 C   0  0  0  0  0  0  0  0  0  0  0  0
   -6.1640   20.5770  -31.9890 C   0  0  0  0  0  0  0  0  0  0  0  0
   -7.0263   16.3137  -33.5164 H   0  0  0  0  0  0  0  0  0  0  0  0
   -9.4743   19.9537  -32.6994 H   0  0  0  0  0  0  0  0  0  0  0  0
   -9.6835   22.3380  -31.9130 H   0  0  0  0  0  0  0  0  0  0  0  0
   -8.1668   24.5333  -30.8823 H   0  0  0  0  0  0  0  0  0  0  0  0
   -3.2420   25.2740  -30.4550 H   0  0  0  0  0  0  0  0  0  0  0  0
   -2.2735   19.8232  -29.6190 H   0  0  0  0  0  0  0  0  0  0  0  0
   -1.7137   20.7999  -31.0256 H   0  0  0  0  0  0  0  0  0  0  0  0
   -3.3850   23.0310  -29.0350 H   0  0  0  0  0  0  0  0  0  0  0  0
   -2.9709   24.5769  -25.9455 H   0  0  0  0  0  0  0  0  0  0  0  0
   -3.0970   25.7002  -27.3416 H   0  0  0  0  0  0  0  0  0  0  0  0
   -4.0215   24.1601  -27.3416 H   0  0  0  0  0  0  0  0  0  0  0  0
   -1.4166   23.5199  -25.6417 H   0  0  0  0  0  0  0  0  0  0  0  0
   -1.1743   22.1274  -26.7503 H   0  0  0  0  0  0  0  0  0  0  0  0
   -0.0035   23.4898  -26.7503 H   0  0  0  0  0  0  0  0  0  0  0  0
   -5.1757   20.0940  -31.9956 H   0  0  0  0  0  0  0  0  0  0  0  0
  1  2  3  0
  2  3  1  0
  3  4  2  0
  4  5  1  0
  5  6  2  0
  6  7  1  0
  7  8  2  0
  8  9  1  0
  9 10  1  0
  9 11  2  0
  8 12  1  0
 12 13  1  0
 13 14  2  0
 13 15  1  0
 15 16  1  0
 16 17  1  0
 17 18  2  0
 17 19  1  0
 19 20  1  0
 20 21  1  0
 20 22  1  0
 20 23  1  0
 23 24  2  0
 23 25  1  0
 12 26  1  0
 26 27  2  0
 27  3  1  0
 26  6  1  0
  1 28  1  0
  4 29  1  0
  5 30  1  0
  7 31  1  0
 10 32  1  0
 16 33  1  0
 16 34  1  0
 19 35  1  0
 21 36  1  0
 21 37  1  0
 21 38  1  0
 22 39  1  0
 22 40  1  0
 22 41  1  0
 27 42  1  0
M  CHG  2  10  -1  25  -1
M  END
>  <UniqueID>  (16) 
16

>  <SMILES>  (16) 
C#Cc1ccc2cc(C([NH-])=O)n(C(=O)OCC(=O)NC(C)(C)C(=O)[O-])c2c1

>  <Energy>  (16) 
73.53579002880541

>  <Genealogy>  (16) 
C#Cc1ccc2cc(C([NH-])=O)n(C(=O)OCC(=O)NC(C)(C)C(=O)[O-])c2c1 (protonated)
C#Cc1ccc2cc(C([NH-])=O)n(C(=O)OCC(=O)NC(C)(C)C(=O)[O-])c2c1 (3D coordinates assigned)
C#Cc1ccc2cc(C([NH-])=O)n(C(=O)OCC(=O)NC(C)(C)C(=O)[O-])c2c1 (optimized conformer: 73.53579002880541 kcal/mol)

>  <smiles>  (16) 
C#Cc1ccc2cc(C(N)=O)n(C(=O)OCC(=O)NC(C)(C)C(=O)O)c2c1

>  <score_type>  (16) 
oracle

>  <origin>  (16) 
adg

>  <m_score__min__energy>  (16) 
-13.140000000000001

>  <m_primary>  (16) 
energy

$$$$
17:0
     RDKit          3D

 42 43  0  0  0  0  0  0  0  0999 V2000
   -3.6930   23.1680  -27.4510 C   0  0  0  0  0  0  0  0  0  0  0  0
   -3.4680   24.5670  -27.5760 O   0  0  0  0  0  0  0  0  0  0  0  0
   -2.4310   25.2260  -26.9070 C   0  0  0  0  0  0  0  0  0  0  0  0
   -2.2430   25.0450  -25.6740 O   0  0  0  0  0  0  0  0  0  0  0  0
   -1.5190   26.1220  -27.6750 C   0  0  0  0  0  0  0  0  0  0  0  0
   -1.2680   25.5440  -28.9880 N   0  0  0  0  0  0  0  0  0  0  0  0
   -0.7360   24.2290  -29.1540 C   0  0  0  0  0  0  0  0  0  0  0  0
    0.4910   24.0310  -28.9500 O   0  0  0  0  0  0  0  0  0  0  0  0
   -1.5770   23.1760  -29.5350 O   0  0  0  0  0  0  0  0  0  0  0  0
   -1.6350   22.6760  -30.8650 C   0  0  0  0  0  0  0  0  0  0  0  0
   -2.9600   22.8130  -31.3720 O   0  0  0  0  0  0  0  0  0  0  0  0
   -4.0350   22.0630  -30.8870 C   0  0  0  0  0  0  0  0  0  0  0  0
   -3.8290   20.9550  -30.3190 O   0  0  0  0  0  0  0  0  0  0  0  0
   -5.3760   22.5590  -31.0380 N   0  0  0  0  0  0  0  0  0  0  0  0
   -5.7810   23.8600  -31.0030 C   0  0  0  0  0  0  0  0  0  0  0  0
   -4.9430   25.0180  -30.6340 C   0  0  0  0  0  0  0  0  0  0  0  0
   -3.6880   24.8440  -29.9760 N   0  0  0  0  0  0  0  0  0  0  0  0
   -5.3690   26.1840  -30.8520 O   0  0  0  0  0  0  0  0  0  0  0  0
   -7.1340   23.9640  -31.3150 C   0  0  0  0  0  0  0  0  0  0  0  0
   -7.5560   22.6730  -31.5330 C   0  0  0  0  0  0  0  0  0  0  0  0
   -8.8160   22.1930  -31.8760 C   0  0  0  0  0  0  0  0  0  0  0  0
   -8.9640   20.8100  -32.0690 C   0  0  0  0  0  0  0  0  0  0  0  0
   -7.8510   19.9370  -31.9450 C   0  0  0  0  0  0  0  0  0  0  0  0
   -8.0240   18.4500  -32.1220 C   0  0  0  0  0  0  0  0  0  0  0  0
   -7.6180   18.0930  -33.3950 F   0  0  0  0  0  0  0  0  0  0  0  0
   -7.2680   17.7510  -31.1960 F   0  0  0  0  0  0  0  0  0  0  0  0
   -9.3500   18.0930  -31.9550 F   0  0  0  0  0  0  0  0  0  0  0  0
   -6.5920   20.4620  -31.5720 C   0  0  0  0  0  0  0  0  0  0  0  0
   -6.4780   21.8430  -31.3650 C   0  0  0  0  0  0  0  0  0  0  0  0
   -3.7365   22.8974  -26.3857 H   0  0  0  0  0  0  0  0  0  0  0  0
   -4.6450   22.9050  -27.9353 H   0  0  0  0  0  0  0  0  0  0  0  0
   -2.8715   22.6198  -27.9353 H   0  0  0  0  0  0  0  0  0  0  0  0
   -1.9879   27.1101  -27.7923 H   0  0  0  0  0  0  0  0  0  0  0  0
   -0.5680   26.2312  -27.1330 H   0  0  0  0  0  0  0  0  0  0  0  0
   -0.9398   23.2446  -31.5001 H   0  0  0  0  0  0  0  0  0  0  0  0
   -1.3520   21.6130  -30.8674 H   0  0  0  0  0  0  0  0  0  0  0  0
   -3.0880   25.6730  -29.7630 H   0  0  0  0  0  0  0  0  0  0  0  0
   -3.3850   23.9060  -29.6310 H   0  0  0  0  0  0  0  0  0  0  0  0
   -7.7367   24.8823  -31.3745 H   0  0  0  0  0  0  0  0  0  0  0  0
   -9.6703   22.8761  -31.9925 H   0  0  0  0  0  0  0  0  0  0  0  0
   -9.9530   20.3984  -32.3190 H   0  0  0  0  0  0  0  0  0  0  0  0
   -5.7217   19.8009  -31.4472 H   0  0  0  0  0  0  0  0  0  0  0  0
  1  2  1  0
  2  3  1  0
  3  4  2  0
  3  5  1  0
  5  6  1  0
  6  7  1  0
  7  8  2  0
  7  9  1  0
  9 10  1  0
 10 11  1  0
 11 12  1  0
 12 13  2  0
 12 14  1  0
 14 15  1  0
 15 16  1  0
 16 17  1  0
 16 18  2  0
 15 19  2  0
 19 20  1  0
 20 21  2  0
 21 22  1  0
 22 23  2  0
 23 24  1  0
 24 25  1  0
 24 26  1  0
 24 27  1  0
 23 28  1  0
 28 29  2  0
 29 14  1  0
 29 20  1  0
  1 30  1  0
  1 31  1  0
  1 32  1  0
  5 33  1  0
  5 34  1  0
 10 35  1  0
 10 36  1  0
 17 37  1  0
 17 38  1  0
 19 39  1  0
 21 40  1  0
 22 41  1  0
 28 42  1  0
M  CHG  1   6  -1
M  END
>  <UniqueID>  (17) 
17

>  <SMILES>  (17) 
COC(=O)C[N-]C(=O)OCOC(=O)n1c(C(N)=O)cc2ccc(C(F)(F)F)cc21

>  <Energy>  (17) 
71.98336020604764

>  <Genealogy>  (17) 
COC(=O)C[N-]C(=O)OCOC(=O)n1c(C(N)=O)cc2ccc(C(F)(F)F)cc21 (protonated)
COC(=O)C[N-]C(=O)OCOC(=O)n1c(C(N)=O)cc2ccc(C(F)(F)F)cc21 (3D coordinates assigned)
COC(=O)C[N-]C(=O)OCOC(=O)n1c(C(N)=O)cc2ccc(C(F)(F)F)cc21 (optimized conformer: 71.98336020604764 kcal/mol)

>  <smiles>  (17) 
COC(=O)CNC(=O)OCOC(=O)n1c(C(N)=O)cc2ccc(C(F)(F)F)cc21

>  <score_type>  (17) 
oracle

>  <origin>  (17) 
adg

>  <m_score__min__energy>  (17) 
-9.0899999999999999

>  <m_primary>  (17) 
energy

$$$$
18:0
     RDKit          3D

 49 50  0  0  0  0  0  0  0  0999 V2000
   -7.2490   18.5120  -33.0070 C   0  0  0  0  0  0  0  0  0  0  0  0
   -7.3300   19.8910  -32.4260 C   0  0  0  0  0  0  0  0  0  0  0  0
   -8.5730   20.5690  -32.3770 C   0  0  0  0  0  0  0  0  0  0  0  0
   -8.6500   21.8850  -31.8910 C   0  0  0  0  0  0  0  0  0  0  0  0
   -7.4720   22.4970  -31.4740 C   0  0  0  0  0  0  0  0  0  0  0  0
   -7.2560   23.7770  -31.0190 C   0  0  0  0  0  0  0  0  0  0  0  0
   -5.8830   23.8650  -30.8020 C   0  0  0  0  0  0  0  0  0  0  0  0
   -5.2230   25.0610  -30.2400 C   0  0  0  0  0  0  0  0  0  0  0  0
   -4.0200   25.5500  -30.8290 N   0  0  0  0  0  0  0  0  0  0  0  0
   -5.7320   25.6820  -29.2700 O   0  0  0  0  0  0  0  0  0  0  0  0
   -5.2720   22.6860  -31.1120 N   0  0  0  0  0  0  0  0  0  0  0  0
   -3.8600   22.4200  -31.1550 C   0  0  0  0  0  0  0  0  0  0  0  0
   -3.0530   23.3470  -31.4390 O   0  0  0  0  0  0  0  0  0  0  0  0
   -3.3870   21.1370  -30.8460 O   0  0  0  0  0  0  0  0  0  0  0  0
   -2.2190   20.5550  -31.4240 C   0  0  0  0  0  0  0  0  0  0  0  0
   -0.9570   21.2190  -30.8700 C   0  0  0  0  0  0  0  0  0  0  0  0
   -1.2150   21.9310  -29.5620 C   0  0  0  0  0  0  0  0  0  0  0  0
   -0.6600   23.0030  -29.3550 O   0  0  0  0  0  0  0  0  0  0  0  0
   -2.0710   21.3440  -28.5450 N   0  0  1  0  0  0  0  0  0  0  0  0
   -1.3950   20.1690  -27.9640 C   0  0  0  0  0  0  0  0  0  0  0  0
   -2.3930   22.3660  -27.5200 C   0  0  0  0  0  0  0  0  0  0  0  0
   -3.1280   23.6100  -28.0660 C   0  0  0  0  0  0  0  0  0  0  0  0
   -2.3000   24.9010  -28.0100 C   0  0  0  0  0  0  0  0  0  0  0  0
   -1.8600   25.2770  -29.2880 O   0  0  0  0  0  0  0  0  0  0  0  0
   -6.2600   21.8560  -31.5160 C   0  0  0  0  0  0  0  0  0  0  0  0
   -6.1540   20.5470  -32.0010 C   0  0  0  0  0  0  0  0  0  0  0  0
   -7.2056   17.7732  -32.1932 H   0  0  0  0  0  0  0  0  0  0  0  0
   -8.1376   18.3226  -33.6271 H   0  0  0  0  0  0  0  0  0  0  0  0
   -6.3444   18.4279  -33.6271 H   0  0  0  0  0  0  0  0  0  0  0  0
   -9.4854   20.0609  -32.7223 H   0  0  0  0  0  0  0  0  0  0  0  0
   -9.6124   22.4154  -31.8417 H   0  0  0  0  0  0  0  0  0  0  0  0
   -8.0079   24.5640  -30.8602 H   0  0  0  0  0  0  0  0  0  0  0  0
   -3.0870   25.2690  -30.4540 H   0  0  0  0  0  0  0  0  0  0  0  0
   -2.1957   19.4808  -31.1883 H   0  0  0  0  0  0  0  0  0  0  0  0
   -2.2498   20.7046  -32.5133 H   0  0  0  0  0  0  0  0  0  0  0  0
   -0.1917   20.4457  -30.7077 H   0  0  0  0  0  0  0  0  0  0  0  0
   -0.6198   21.9678  -31.6018 H   0  0  0  0  0  0  0  0  0  0  0  0
   -2.9550   21.0190  -28.9960 H   0  0  0  0  0  0  0  0  0  0  0  0
   -1.4307   20.2310  -26.8663 H   0  0  0  0  0  0  0  0  0  0  0  0
   -1.9036   19.2519  -28.2962 H   0  0  0  0  0  0  0  0  0  0  0  0
   -0.3466   20.1477  -28.2962 H   0  0  0  0  0  0  0  0  0  0  0  0
   -3.0309   21.8976  -26.7561 H   0  0  0  0  0  0  0  0  0  0  0  0
   -1.4322   22.7208  -27.1188 H   0  0  0  0  0  0  0  0  0  0  0  0
   -3.3991   23.4186  -29.1147 H   0  0  0  0  0  0  0  0  0  0  0  0
   -4.0061   23.7678  -27.4225 H   0  0  0  0  0  0  0  0  0  0  0  0
   -2.9206   25.7075  -27.5924 H   0  0  0  0  0  0  0  0  0  0  0  0
   -1.4186   24.7225  -27.3765 H   0  0  0  0  0  0  0  0  0  0  0  0
   -2.1420   24.5550  -29.9080 H   0  0  0  0  0  0  0  0  0  0  0  0
   -5.1781   20.0417  -32.0498 H   0  0  0  0  0  0  0  0  0  0  0  0
  1  2  1  0
  2  3  2  0
  3  4  1  0
  4  5  2  0
  5  6  1  0
  6  7  2  0
  7  8  1  0
  8  9  1  0
  8 10  2  0
  7 11  1  0
 11 12  1  0
 12 13  2  0
 12 14  1  0
 14 15  1  0
 15 16  1  0
 16 17  1  0
 17 18  2  0
 17 19  1  0
 19 20  1  0
 19 21  1  0
 21 22  1  0
 22 23  1  0
 23 24  1  0
 11 25  1  0
 25 26  2  0
 26  2  1  0
 25  5  1  0
  1 27  1  0
  1 28  1  0
  1 29  1  0
  3 30  1  0
  4 31  1  0
  6 32  1  0
  9 33  1  0
 15 34  1  0
 15 35  1  0
 16 36  1  0
 16 37  1  0
 19 38  1  6
 20 39  1  0
 20 40  1  0
 20 41  1  0
 21 42  1  0
 21 43  1  0
 22 44  1  0
 22 45  1  0
 23 46  1  0
 23 47  1  0
 24 48  1  0
 26 49  1  0
M  CHG  2   9  -1  19   1
M  END
>  <UniqueID>  (18) 
18

>  <SMILES>  (18) 
Cc1ccc2cc(C([NH-])=O)n(C(=O)OCCC(=O)[N@@H+](C)CCCO)c2c1

>  <Energy>  (18) 
78.74856177045943

>  <Genealogy>  (18) 
Cc1ccc2cc(C([NH-])=O)n(C(=O)OCCC(=O)[NH+](C)CCCO)c2c1 (protonated)
Cc1ccc2cc(C([NH-])=O)n(C(=O)OCCC(=O)[N@@H+](C)CCCO)c2c1 (chirality)
Cc1ccc2cc(C([NH-])=O)n(C(=O)OCCC(=O)[N@@H+](C)CCCO)c2c1 (3D coordinates assigned)
Cc1ccc2cc(C([NH-])=O)n(C(=O)OCCC(=O)[N@@H+](C)CCCO)c2c1 (optimized conformer: 78.74856177045943 kcal/mol)

>  <smiles>  (18) 
Cc1ccc2cc(C(N)=O)n(C(=O)OCCC(=O)N(C)CCCO)c2c1

>  <score_type>  (18) 
oracle

>  <origin>  (18) 
adg

>  <m_score__min__energy>  (18) 
-8.8000000000000007

>  <m_primary>  (18) 
energy

$$$$
19:0
     RDKit          3D

 48 50  0  0  0  0  0  0  0  0999 V2000
   -6.8610   14.8390  -34.1780 C   0  0  0  0  0  0  0  0  0  0  0  0
   -6.3840   16.2270  -33.9160 C   0  0  0  0  0  0  0  0  0  0  0  0
   -7.1150   17.2330  -33.3150 C   0  0  0  0  0  0  0  0  0  0  0  0
   -6.2870   18.3380  -33.3730 C   0  0  0  0  0  0  0  0  0  0  0  0
   -6.6230   19.6810  -32.8510 C   0  0  0  0  0  0  0  0  0  0  0  0
   -7.9740   20.0890  -32.7150 C   0  0  0  0  0  0  0  0  0  0  0  0
   -8.2940   21.3520  -32.1910 C   0  0  0  0  0  0  0  0  0  0  0  0
   -7.2460   22.1850  -31.8130 C   0  0  0  0  0  0  0  0  0  0  0  0
   -7.2760   23.4360  -31.2410 C   0  0  0  0  0  0  0  0  0  0  0  0
   -5.9420   23.7820  -31.0480 C   0  0  0  0  0  0  0  0  0  0  0  0
   -5.5120   25.0860  -30.5020 C   0  0  0  0  0  0  0  0  0  0  0  0
   -4.1630   25.5340  -30.6370 N   0  0  0  0  0  0  0  0  0  0  0  0
   -6.3610   25.8390  -29.9550 O   0  0  0  0  0  0  0  0  0  0  0  0
   -5.1170   22.7840  -31.4710 N   0  0  0  0  0  0  0  0  0  0  0  0
   -3.6900   22.7150  -31.3200 C   0  0  0  0  0  0  0  0  0  0  0  0
   -3.1500   23.1460  -30.2670 O   0  0  0  0  0  0  0  0  0  0  0  0
   -2.9150   22.1690  -32.3550 O   0  0  0  0  0  0  0  0  0  0  0  0
   -1.8160   21.2580  -32.2080 C   0  0  0  0  0  0  0  0  0  0  0  0
   -0.8000   21.7930  -31.1800 C   0  0  0  0  0  0  0  0  0  0  0  0
   -1.1340   21.0070  -33.5670 C   0  0  0  0  0  0  0  0  0  0  0  0
   -2.3940   19.9330  -31.6890 C   0  0  0  0  0  0  0  0  0  0  0  0
   -5.9330   21.8110  -31.9390 C   0  0  0  0  0  0  0  0  0  0  0  0
   -5.5880   20.5480  -32.4360 C   0  0  0  0  0  0  0  0  0  0  0  0
   -5.1270   17.9770  -33.9700 N   0  0  0  0  0  0  0  0  0  0  0  0
   -3.9510   18.8050  -34.2140 C   0  0  0  0  0  0  0  0  0  0  0  0
   -5.1880   16.7000  -34.3170 N   0  0  0  0  0  0  0  0  0  0  0  0
   -7.0375   14.3253  -33.2215 H   0  0  0  0  0  0  0  0  0  0  0  0
   -7.7981   14.8757  -34.7529 H   0  0  0  0  0  0  0  0  0  0  0  0
   -6.0993   14.2919  -34.7529 H   0  0  0  0  0  0  0  0  0  0  0  0
   -8.1264   17.1692  -32.8873 H   0  0  0  0  0  0  0  0  0  0  0  0
   -8.7810   19.4082  -33.0236 H   0  0  0  0  0  0  0  0  0  0  0  0
   -9.3407   21.6726  -32.0828 H   0  0  0  0  0  0  0  0  0  0  0  0
   -8.1642   24.0344  -30.9900 H   0  0  0  0  0  0  0  0  0  0  0  0
   -3.8630   26.4330  -30.2010 H   0  0  0  0  0  0  0  0  0  0  0  0
   -3.4800   25.0140  -31.2310 H   0  0  0  0  0  0  0  0  0  0  0  0
   -1.1704   21.5980  -30.1628 H   0  0  0  0  0  0  0  0  0  0  0  0
    0.1662   21.2867  -31.3218 H   0  0  0  0  0  0  0  0  0  0  0  0
   -0.6707   22.8761  -31.3218 H   0  0  0  0  0  0  0  0  0  0  0  0
   -0.1135   20.6314  -33.4013 H   0  0  0  0  0  0  0  0  0  0  0  0
   -1.7111   20.2623  -34.1349 H   0  0  0  0  0  0  0  0  0  0  0  0
   -1.0907   21.9481  -34.1349 H   0  0  0  0  0  0  0  0  0  0  0  0
   -2.3919   19.9379  -30.5890 H   0  0  0  0  0  0  0  0  0  0  0  0
   -3.4253   19.8152  -32.0531 H   0  0  0  0  0  0  0  0  0  0  0  0
   -1.7788   19.0970  -32.0531 H   0  0  0  0  0  0  0  0  0  0  0  0
   -4.5346   20.2381  -32.5017 H   0  0  0  0  0  0  0  0  0  0  0  0
   -3.5136   19.1130  -33.2528 H   0  0  0  0  0  0  0  0  0  0  0  0
   -3.2093   18.2288  -34.7866 H   0  0  0  0  0  0  0  0  0  0  0  0
   -4.2434   19.6976  -34.7866 H   0  0  0  0  0  0  0  0  0  0  0  0
  1  2  1  0
  2  3  1  0
  3  4  2  0
  4  5  1  0
  5  6  2  0
  6  7  1  0
  7  8  2  0
  8  9  1  0
  9 10  2  0
 10 11  1  0
 11 12  1  0
 11 13  2  0
 10 14  1  0
 14 15  1  0
 15 16  2  0
 15 17  1  0
 17 18  1  0
 18 19  1  0
 18 20  1  0
 18 21  1  0
 14 22  1  0
 22 23  2  0
  4 24  1  0
 24 25  1  0
 24 26  1  0
 26  2  2  0
 23  5  1  0
 22  8  1  0
  1 27  1  0
  1 28  1  0
  1 29  1  0
  3 30  1  0
  6 31  1  0
  7 32  1  0
  9 33  1  0
 12 34  1  0
 12 35  1  0
 19 36  1  0
 19 37  1  0
 19 38  1  0
 20 39  1  0
 20 40  1  0
 20 41  1  0
 21 42  1  0
 21 43  1  0
 21 44  1  0
 23 45  1  0
 25 46  1  0
 25 47  1  0
 25 48  1  0
M  END
>  <UniqueID>  (19) 
19

>  <SMILES>  (19) 
Cc1cc(-c2ccc3cc(C(N)=O)n(C(=O)OC(C)(C)C)c3c2)n(C)n1

>  <Energy>  (19) 
116.52533536490408

>  <Genealogy>  (19) 
Cc1cc(-c2ccc3cc(C(N)=O)n(C(=O)OC(C)(C)C)c3c2)n(C)n1 (3D coordinates assigned)
Cc1cc(-c2ccc3cc(C(N)=O)n(C(=O)OC(C)(C)C)c3c2)n(C)n1 (optimized conformer: 116.52533536490408 kcal/mol)

>  <smiles>  (19) 
Cc1cc(-c2ccc3cc(C(N)=O)n(C(=O)OC(C)(C)C)c3c2)n(C)n1

>  <score_type>  (19) 
oracle

>  <origin>  (19) 
adg

>  <m_score__min__energy>  (19) 
-10.039999999999999

>  <m_primary>  (19) 
energy

$$$$
20:0
     RDKit          3D

 38 40  0  0  0  0  0  0  0  0999 V2000
   -4.1210   22.2980  -28.3140 C   0  0  0  0  0  0  0  0  0  0  0  0
   -3.3390   23.3390  -29.0400 C   0  0  0  0  0  0  0  0  0  0  0  0
   -3.0020   24.3930  -28.4360 O   0  0  0  0  0  0  0  0  0  0  0  0
   -2.9520   23.1020  -30.3650 O   0  0  0  0  0  0  0  0  0  0  0  0
   -3.8230   22.7700  -31.4110 C   0  0  0  0  0  0  0  0  0  0  0  0
   -3.3800   22.3090  -32.4990 O   0  0  0  0  0  0  0  0  0  0  0  0
   -5.2330   22.9830  -31.2490 N   0  0  0  0  0  0  0  0  0  0  0  0
   -5.8630   24.0870  -30.7540 C   0  0  0  0  0  0  0  0  0  0  0  0
   -5.2230   25.3780  -30.4230 C   0  0  0  0  0  0  0  0  0  0  0  0
   -3.8970   25.6710  -30.8520 N   0  0  0  0  0  0  0  0  0  0  0  0
   -5.8770   26.2530  -29.7940 O   0  0  0  0  0  0  0  0  0  0  0  0
   -7.2370   23.8710  -30.6740 C   0  0  0  0  0  0  0  0  0  0  0  0
   -7.4340   22.5940  -31.1480 C   0  0  0  0  0  0  0  0  0  0  0  0
   -8.6080   21.8610  -31.2830 C   0  0  0  0  0  0  0  0  0  0  0  0
   -8.5140   20.5500  -31.7760 C   0  0  0  0  0  0  0  0  0  0  0  0
   -7.2530   19.9890  -32.1180 C   0  0  0  0  0  0  0  0  0  0  0  0
   -7.1370   18.5680  -32.6380 C   0  0  1  0  0  0  0  0  0  0  0  0
   -6.2450   18.4330  -33.8410 C   0  0  0  0  0  0  0  0  0  0  0  0
   -5.7130   17.0200  -33.7020 C   0  0  0  0  0  0  0  0  0  0  0  0
   -5.8150   16.6020  -32.3580 O   0  0  0  0  0  0  0  0  0  0  0  0
   -6.5160   17.5960  -31.6470 C   0  0  0  0  0  0  0  0  0  0  0  0
   -6.0840   20.7680  -31.9630 C   0  0  0  0  0  0  0  0  0  0  0  0
   -6.2100   22.0800  -31.4890 C   0  0  0  0  0  0  0  0  0  0  0  0
   -4.0100   22.4458  -27.2296 H   0  0  0  0  0  0  0  0  0  0  0  0
   -5.1831   22.3795  -28.5883 H   0  0  0  0  0  0  0  0  0  0  0  0
   -3.7469   21.3006  -28.5883 H   0  0  0  0  0  0  0  0  0  0  0  0
   -3.0710   25.2790  -30.3490 H   0  0  0  0  0  0  0  0  0  0  0  0
   -8.0020   24.5723  -30.3094 H   0  0  0  0  0  0  0  0  0  0  0  0
   -9.5814   22.2956  -31.0115 H   0  0  0  0  0  0  0  0  0  0  0  0
   -9.4272   19.9493  -31.8993 H   0  0  0  0  0  0  0  0  0  0  0  0
   -8.1885   18.3323  -32.8588 H   0  0  0  0  0  0  0  0  0  0  0  0
   -6.8157   18.5524  -34.7738 H   0  0  0  0  0  0  0  0  0  0  0  0
   -5.4537   19.1957  -33.8865 H   0  0  0  0  0  0  0  0  0  0  0  0
   -6.3005   16.3439  -34.3405 H   0  0  0  0  0  0  0  0  0  0  0  0
   -4.6575   16.9967  -34.0110 H   0  0  0  0  0  0  0  0  0  0  0  0
   -7.3078   17.1286  -31.0432 H   0  0  0  0  0  0  0  0  0  0  0  0
   -5.8251   18.1342  -30.9815 H   0  0  0  0  0  0  0  0  0  0  0  0
   -5.0957   20.3526  -32.2095 H   0  0  0  0  0  0  0  0  0  0  0  0
  1  2  1  0
  2  3  2  0
  2  4  1  0
  4  5  1  0
  5  6  2  0
  5  7  1  0
  7  8  1  0
  8  9  1  0
  9 10  1  0
  9 11  2  0
  8 12  2  0
 12 13  1  0
 13 14  2  0
 14 15  1  0
 15 16  2  0
 16 17  1  0
 17 18  1  0
 18 19  1  0
 19 20  1  0
 20 21  1  0
 16 22  1  0
 22 23  2  0
 23  7  1  0
 23 13  1  0
 21 17  1  0
  1 24  1  0
  1 25  1  0
  1 26  1  0
 10 27  1  0
 12 28  1  0
 14 29  1  0
 15 30  1  0
 17 31  1  6
 18 32  1  0
 18 33  1  0
 19 34  1  0
 19 35  1  0
 21 36  1  0
 21 37  1  0
 22 38  1  0
M  CHG  1  10  -1
M  END
>  <UniqueID>  (20) 
20

>  <SMILES>  (20) 
CC(=O)OC(=O)n1c(C([NH-])=O)cc2ccc([C@H]3CCOC3)cc21

>  <Energy>  (20) 
80.17393534300285

>  <Genealogy>  (20) 
CC(=O)OC(=O)n1c(C([NH-])=O)cc2ccc([C@H]3CCOC3)cc21 (protonated)
CC(=O)OC(=O)n1c(C([NH-])=O)cc2ccc([C@H]3CCOC3)cc21 (3D coordinates assigned)
CC(=O)OC(=O)n1c(C([NH-])=O)cc2ccc([C@H]3CCOC3)cc21 (nonaromatic ring conformer: 80.17393534300285 kcal/mol)

>  <smiles>  (20) 
CC(=O)OC(=O)n1c(C(N)=O)cc2ccc([C@H]3CCOC3)cc21

>  <score_type>  (20) 
oracle

>  <origin>  (20) 
adg

>  <m_score__min__energy>  (20) 
-10.699999999999999

>  <m_primary>  (20) 
energy

$$$$
21:0
     RDKit          3D

 45 46  0  0  0  0  0  0  0  0999 V2000
   -8.1570   18.6910  -32.7420 C   0  0  0  0  0  0  0  0  0  0  0  0
   -7.9420   20.0520  -32.1510 C   0  0  0  0  0  0  0  0  0  0  0  0
   -9.0360   20.9400  -31.9960 C   0  0  0  0  0  0  0  0  0  0  0  0
   -8.8400   22.2360  -31.4870 C   0  0  0  0  0  0  0  0  0  0  0  0
   -7.5420   22.6150  -31.1510 C   0  0  0  0  0  0  0  0  0  0  0  0
   -7.0630   23.8120  -30.6670 C   0  0  0  0  0  0  0  0  0  0  0  0
   -5.6860   23.6320  -30.5380 C   0  0  0  0  0  0  0  0  0  0  0  0
   -4.7710   24.6550  -29.9870 C   0  0  0  0  0  0  0  0  0  0  0  0
   -3.8670   25.3610  -30.8320 N   0  0  0  0  0  0  0  0  0  0  0  0
   -4.7660   24.8850  -28.7480 O   0  0  0  0  0  0  0  0  0  0  0  0
   -5.3320   22.3770  -30.9320 N   0  0  0  0  0  0  0  0  0  0  0  0
   -4.0160   21.8200  -31.0350 C   0  0  0  0  0  0  0  0  0  0  0  0
   -3.4580   21.7410  -32.1630 O   0  0  0  0  0  0  0  0  0  0  0  0
   -3.2510   21.4470  -29.8020 C   0  0  0  0  0  0  0  0  0  0  0  0
   -2.2920   22.5480  -29.4440 C   0  0  0  0  0  0  0  0  0  0  0  0
   -2.1080   23.4620  -30.2340 O   0  0  0  0  0  0  0  0  0  0  0  0
   -1.5220   22.5180  -28.1390 C   0  0  0  0  0  0  0  0  0  0  0  0
   -0.5190   23.6040  -28.0160 N   0  0  2  0  0  0  0  0  0  0  0  0
    0.7820   23.0750  -27.5590 C   0  0  0  0  0  0  0  0  0  0  0  0
   -1.0050   24.7070  -27.1440 C   0  0  0  0  0  0  0  0  0  0  0  0
   -1.4900   25.9330  -27.9380 C   0  0  0  0  0  0  0  0  0  0  0  0
   -1.1940   25.8040  -29.3010 O   0  0  0  0  0  0  0  0  0  0  0  0
   -6.4770   21.7670  -31.3000 C   0  0  0  0  0  0  0  0  0  0  0  0
   -6.6390   20.4770  -31.8140 C   0  0  0  0  0  0  0  0  0  0  0  0
   -8.2734   17.9544  -31.9334 H   0  0  0  0  0  0  0  0  0  0  0  0
   -9.0648   18.7002  -33.3631 H   0  0  0  0  0  0  0  0  0  0  0  0
   -7.2905   18.4199  -33.3631 H   0  0  0  0  0  0  0  0  0  0  0  0
  -10.0478   20.6121  -32.2766 H   0  0  0  0  0  0  0  0  0  0  0  0
   -9.6847   22.9287  -31.3581 H   0  0  0  0  0  0  0  0  0  0  0  0
   -7.6427   24.7169  -30.4323 H   0  0  0  0  0  0  0  0  0  0  0  0
   -2.8350   25.3050  -30.6820 H   0  0  0  0  0  0  0  0  0  0  0  0
   -3.9534   21.2900  -28.9702 H   0  0  0  0  0  0  0  0  0  0  0  0
   -2.6869   20.5218  -29.9911 H   0  0  0  0  0  0  0  0  0  0  0  0
   -2.2390   22.6113  -27.3100 H   0  0  0  0  0  0  0  0  0  0  0  0
   -0.9716   21.5660  -28.1111 H   0  0  0  0  0  0  0  0  0  0  0  0
   -0.3790   23.9790  -28.9830 H   0  0  0  0  0  0  0  0  0  0  0  0
    0.8077   23.0645  -26.4594 H   0  0  0  0  0  0  0  0  0  0  0  0
    0.9153   22.0512  -27.9386 H   0  0  0  0  0  0  0  0  0  0  0  0
    1.5919   23.7152  -27.9386 H   0  0  0  0  0  0  0  0  0  0  0  0
   -1.8406   24.3305  -26.5357 H   0  0  0  0  0  0  0  0  0  0  0  0
   -0.1578   25.0321  -26.5222 H   0  0  0  0  0  0  0  0  0  0  0  0
   -2.5786   26.0322  -27.8152 H   0  0  0  0  0  0  0  0  0  0  0  0
   -0.9731   26.8241  -27.5524 H   0  0  0  0  0  0  0  0  0  0  0  0
   -2.0590   25.6570  -29.7670 H   0  0  0  0  0  0  0  0  0  0  0  0
   -5.7743   19.8112  -31.9520 H   0  0  0  0  0  0  0  0  0  0  0  0
  1  2  1  0
  2  3  2  0
  3  4  1  0
  4  5  2  0
  5  6  1  0
  6  7  2  0
  7  8  1  0
  8  9  1  0
  8 10  2  0
  7 11  1  0
 11 12  1  0
 12 13  2  0
 12 14  1  0
 14 15  1  0
 15 16  2  0
 15 17  1  0
 17 18  1  0
 18 19  1  0
 18 20  1  0
 20 21  1  0
 21 22  1  0
 11 23  1  0
 23 24  2  0
 24  2  1  0
 23  5  1  0
  1 25  1  0
  1 26  1  0
  1 27  1  0
  3 28  1  0
  4 29  1  0
  6 30  1  0
  9 31  1  0
 14 32  1  0
 14 33  1  0
 17 34  1  0
 17 35  1  0
 18 36  1  6
 19 37  1  0
 19 38  1  0
 19 39  1  0
 20 40  1  0
 20 41  1  0
 21 42  1  0
 21 43  1  0
 22 44  1  0
 24 45  1  0
M  CHG  2   9  -1  18   1
M  END
>  <UniqueID>  (21) 
21

>  <SMILES>  (21) 
Cc1ccc2cc(C([NH-])=O)n(C(=O)CC(=O)C[N@H+](C)CCO)c2c1

>  <Energy>  (21) 
82.7716361321808

>  <Genealogy>  (21) 
Cc1ccc2cc(C([NH-])=O)n(C(=O)CC(=O)C[NH+](C)CCO)c2c1 (protonated)
Cc1ccc2cc(C([NH-])=O)n(C(=O)CC(=O)C[N@H+](C)CCO)c2c1 (chirality)
Cc1ccc2cc(C([NH-])=O)n(C(=O)CC(=O)C[N@H+](C)CCO)c2c1 (3D coordinates assigned)
Cc1ccc2cc(C([NH-])=O)n(C(=O)CC(=O)C[N@H+](C)CCO)c2c1 (optimized conformer: 82.7716361321808 kcal/mol)

>  <smiles>  (21) 
Cc1ccc2cc(C(N)=O)n(C(=O)CC(=O)CN(C)CCO)c2c1

>  <score_type>  (21) 
oracle

>  <origin>  (21) 
adg

>  <m_score__min__energy>  (21) 
-9.1699999999999999

>  <m_primary>  (21) 
energy

$$$$
22:0
     RDKit          3D

 41 42  0  0  0  0  0  0  0  0999 V2000
   -1.6930   22.4300  -30.4460 C   0  0  0  0  0  0  0  0  0  0  0  0
   -3.0760   22.8580  -30.1750 N   0  0  2  0  0  0  0  0  0  0  0  0
   -3.5650   22.4830  -28.8240 C   0  0  0  0  0  0  0  0  0  0  0  0
   -3.5050   23.6130  -27.7530 C   0  0  2  0  0  0  0  0  0  0  0  0
   -4.5410   24.5320  -27.9970 O   0  0  0  0  0  0  0  0  0  0  0  0
   -2.1620   24.3860  -27.7710 C   0  0  0  0  0  0  0  0  0  0  0  0
   -2.1510   25.3450  -28.7920 O   0  0  0  0  0  0  0  0  0  0  0  0
   -3.9880   22.4240  -31.2130 C   0  0  0  0  0  0  0  0  0  0  0  0
   -3.5790   21.7260  -32.1820 O   0  0  0  0  0  0  0  0  0  0  0  0
   -5.3830   22.7540  -31.1310 N   0  0  0  0  0  0  0  0  0  0  0  0
   -5.9410   23.9650  -30.8520 C   0  0  0  0  0  0  0  0  0  0  0  0
   -5.2020   25.2130  -30.5680 C   0  0  0  0  0  0  0  0  0  0  0  0
   -3.8160   25.3030  -30.8830 N   0  0  0  0  0  0  0  0  0  0  0  0
   -5.7820   26.2040  -30.0540 O   0  0  0  0  0  0  0  0  0  0  0  0
   -7.3310   23.8880  -30.9200 C   0  0  0  0  0  0  0  0  0  0  0  0
   -7.6080   22.5810  -31.2450 C   0  0  0  0  0  0  0  0  0  0  0  0
   -8.8320   21.9420  -31.4300 C   0  0  0  0  0  0  0  0  0  0  0  0
   -8.8190   20.5720  -31.7480 C   0  0  0  0  0  0  0  0  0  0  0  0
   -7.5930   19.8720  -31.8880 C   0  0  0  0  0  0  0  0  0  0  0  0
   -7.5750   18.3920  -32.1830 C   0  0  0  0  0  0  0  0  0  0  0  0
   -6.6850   17.7510  -31.3400 F   0  0  0  0  0  0  0  0  0  0  0  0
   -7.1890   18.1420  -33.4890 F   0  0  0  0  0  0  0  0  0  0  0  0
   -8.8400   17.8710  -31.9820 F   0  0  0  0  0  0  0  0  0  0  0  0
   -6.3710   20.5560  -31.6800 C   0  0  0  0  0  0  0  0  0  0  0  0
   -6.4160   21.9180  -31.3680 C   0  0  0  0  0  0  0  0  0  0  0  0
   -1.1664   22.2670  -29.4941 H   0  0  0  0  0  0  0  0  0  0  0  0
   -1.7054   21.4937  -31.0232 H   0  0  0  0  0  0  0  0  0  0  0  0
   -1.1743   23.2097  -31.0232 H   0  0  0  0  0  0  0  0  0  0  0  0
   -3.0610   23.9060  -30.1930 H   0  0  0  0  0  0  0  0  0  0  0  0
   -4.6126   22.1616  -28.9196 H   0  0  0  0  0  0  0  0  0  0  0  0
   -2.8900   21.6913  -28.4668 H   0  0  0  0  0  0  0  0  0  0  0  0
   -3.6080   23.1315  -26.7694 H   0  0  0  0  0  0  0  0  0  0  0  0
   -4.2390   25.1210  -28.7380 H   0  0  0  0  0  0  0  0  0  0  0  0
   -2.0230   24.8892  -26.8027 H   0  0  0  0  0  0  0  0  0  0  0  0
   -1.3468   23.6701  -27.9524 H   0  0  0  0  0  0  0  0  0  0  0  0
   -3.0800   25.6890  -28.8720 H   0  0  0  0  0  0  0  0  0  0  0  0
   -3.0870   25.2730  -30.1360 H   0  0  0  0  0  0  0  0  0  0  0  0
   -8.0530   24.7003  -30.7498 H   0  0  0  0  0  0  0  0  0  0  0  0
   -9.7794   22.4920  -31.3304 H   0  0  0  0  0  0  0  0  0  0  0  0
   -9.7699   20.0374  -31.8897 H   0  0  0  0  0  0  0  0  0  0  0  0
   -5.4092   20.0284  -31.7619 H   0  0  0  0  0  0  0  0  0  0  0  0
  1  2  1  0
  2  3  1  0
  3  4  1  0
  4  5  1  0
  4  6  1  0
  6  7  1  0
  2  8  1  0
  8  9  2  0
  8 10  1  0
 10 11  1  0
 11 12  1  0
 12 13  1  0
 12 14  2  0
 11 15  2  0
 15 16  1  0
 16 17  2  0
 17 18  1  0
 18 19  2  0
 19 20  1  0
 20 21  1  0
 20 22  1  0
 20 23  1  0
 19 24  1  0
 24 25  2  0
 25 10  1  0
 25 16  1  0
  1 26  1  0
  1 27  1  0
  1 28  1  0
  2 29  1  1
  3 30  1  0
  3 31  1  0
  4 32  1  1
  5 33  1  0
  6 34  1  0
  6 35  1  0
  7 36  1  0
 13 37  1  0
 15 38  1  0
 17 39  1  0
 18 40  1  0
 24 41  1  0
M  CHG  2   2   1  13  -1
M  END
>  <UniqueID>  (22) 
22

>  <SMILES>  (22) 
C[N@H+](C[C@H](O)CO)C(=O)n1c(C([NH-])=O)cc2ccc(C(F)(F)F)cc21

>  <Energy>  (22) 
89.81169932534738

>  <Genealogy>  (22) 
C[NH+](CC(O)CO)C(=O)n1c(C([NH-])=O)cc2ccc(C(F)(F)F)cc21 (protonated)
C[N@H+](C[C@H](O)CO)C(=O)n1c(C([NH-])=O)cc2ccc(C(F)(F)F)cc21 (chirality)
C[N@H+](C[C@H](O)CO)C(=O)n1c(C([NH-])=O)cc2ccc(C(F)(F)F)cc21 (3D coordinates assigned)
C[N@H+](C[C@H](O)CO)C(=O)n1c(C([NH-])=O)cc2ccc(C(F)(F)F)cc21 (optimized conformer: 89.81169932534738 kcal/mol)

>  <smiles>  (22) 
CN(CC(O)CO)C(=O)n1c(C(N)=O)cc2ccc(C(F)(F)F)cc21

>  <score_type>  (22) 
oracle

>  <origin>  (22) 
adg

>  <m_score__min__energy>  (22) 
-8.4700000000000006

>  <m_primary>  (22) 
energy

$$$$
23:0
     RDKit          3D

 42 43  0  0  0  0  0  0  0  0999 V2000
   -0.5920   22.6180  -30.0670 C   0  0  0  0  0  0  0  0  0  0  0  0
   -1.3410   23.3890  -29.0630 N   0  0  1  0  0  0  0  0  0  0  0  0
   -1.4070   22.6530  -27.7830 C   0  0  0  0  0  0  0  0  0  0  0  0
   -2.4070   21.5340  -27.8420 C   0  0  0  0  0  0  0  0  0  0  0  0
   -2.3840   20.6270  -26.9660 O   0  0  0  0  0  0  0  0  0  0  0  0
   -3.3800   21.5340  -28.8460 O   0  0  0  0  0  0  0  0  0  0  0  0
   -3.4550   20.5250  -29.8490 C   0  0  0  0  0  0  0  0  0  0  0  0
   -3.6100   21.1190  -31.1340 O   0  0  0  0  0  0  0  0  0  0  0  0
   -3.9430   22.4660  -31.3130 C   0  0  0  0  0  0  0  0  0  0  0  0
   -3.0480   23.3120  -31.5840 O   0  0  0  0  0  0  0  0  0  0  0  0
   -5.3140   22.8810  -31.2090 N   0  0  0  0  0  0  0  0  0  0  0  0
   -5.7960   24.1200  -30.9110 C   0  0  0  0  0  0  0  0  0  0  0  0
   -4.9920   25.2870  -30.4920 C   0  0  0  0  0  0  0  0  0  0  0  0
   -3.6380   25.1070  -30.0830 N   0  0  0  0  0  0  0  0  0  0  0  0
   -5.4760   26.4500  -30.5230 O   0  0  0  0  0  0  0  0  0  0  0  0
   -7.1880   24.1310  -30.9770 C   0  0  0  0  0  0  0  0  0  0  0  0
   -7.5480   22.8500  -31.3230 C   0  0  0  0  0  0  0  0  0  0  0  0
   -8.8090   22.3000  -31.5410 C   0  0  0  0  0  0  0  0  0  0  0  0
   -8.8820   20.9490  -31.9210 C   0  0  0  0  0  0  0  0  0  0  0  0
   -7.7030   20.1790  -32.0800 C   0  0  0  0  0  0  0  0  0  0  0  0
   -7.7820   18.7410  -32.5050 C   0  0  0  0  0  0  0  0  0  0  0  0
   -6.8940   17.9860  -31.7600 F   0  0  0  0  0  0  0  0  0  0  0  0
   -9.0650   18.2650  -32.3030 F   0  0  0  0  0  0  0  0  0  0  0  0
   -6.4410   20.7720  -31.8500 C   0  0  0  0  0  0  0  0  0  0  0  0
   -6.3990   22.1140  -31.4560 C   0  0  0  0  0  0  0  0  0  0  0  0
   -0.7290   24.6860  -28.8880 C   0  0  0  0  0  0  0  0  0  0  0  0
   -1.2740   25.7240  -29.3500 O   0  0  0  0  0  0  0  0  0  0  0  0
    0.4770   24.7970  -28.2040 O   0  0  0  0  0  0  0  0  0  0  0  0
    0.0880   21.9180  -29.5594 H   0  0  0  0  0  0  0  0  0  0  0  0
   -1.2961   22.0539  -30.6962 H   0  0  0  0  0  0  0  0  0  0  0  0
   -0.0077   23.3055  -30.6962 H   0  0  0  0  0  0  0  0  0  0  0  0
   -2.3150   23.5220  -29.4290 H   0  0  0  0  0  0  0  0  0  0  0  0
   -0.4146   22.2341  -27.5601 H   0  0  0  0  0  0  0  0  0  0  0  0
   -1.7213   23.3554  -26.9970 H   0  0  0  0  0  0  0  0  0  0  0  0
   -2.5311   19.9282  -29.8337 H   0  0  0  0  0  0  0  0  0  0  0  0
   -4.3224   19.8800  -29.6449 H   0  0  0  0  0  0  0  0  0  0  0  0
   -2.8480   25.2930  -30.7400 H   0  0  0  0  0  0  0  0  0  0  0  0
   -7.8572   24.9841  -30.7915 H   0  0  0  0  0  0  0  0  0  0  0  0
   -9.7198   22.9046  -31.4194 H   0  0  0  0  0  0  0  0  0  0  0  0
   -9.8637   20.4848  -32.0967 H   0  0  0  0  0  0  0  0  0  0  0  0
   -7.5251   18.6663  -33.5720 H   0  0  0  0  0  0  0  0  0  0  0  0
   -5.5145   20.1929  -31.9776 H   0  0  0  0  0  0  0  0  0  0  0  0
  1  2  1  0
  2  3  1  0
  3  4  1  0
  4  5  2  0
  4  6  1  0
  6  7  1  0
  7  8  1  0
  8  9  1  0
  9 10  2  0
  9 11  1  0
 11 12  1  0
 12 13  1  0
 13 14  1  0
 13 15  2  0
 12 16  2  0
 16 17  1  0
 17 18  2  0
 18 19  1  0
 19 20  2  0
 20 21  1  0
 21 22  1  0
 21 23  1  0
 20 24  1  0
 24 25  2  0
  2 26  1  0
 26 27  2  0
 26 28  1  0
 25 11  1  0
 25 17  1  0
  1 29  1  0
  1 30  1  0
  1 31  1  0
  2 32  1  6
  3 33  1  0
  3 34  1  0
  7 35  1  0
  7 36  1  0
 14 37  1  0
 16 38  1  0
 18 39  1  0
 19 40  1  0
 21 41  1  0
 24 42  1  0
M  CHG  3   2   1  14  -1  28  -1
M  END
>  <UniqueID>  (23) 
23

>  <SMILES>  (23) 
C[N@@H+](CC(=O)OCOC(=O)n1c(C([NH-])=O)cc2ccc(C(F)F)cc21)C(=O)[O-]

>  <Energy>  (23) 
77.62693900050273

>  <Genealogy>  (23) 
C[NH+](CC(=O)OCOC(=O)n1c(C([NH-])=O)cc2ccc(C(F)F)cc21)C(=O)[O-] (protonated)
C[N@@H+](CC(=O)OCOC(=O)n1c(C([NH-])=O)cc2ccc(C(F)F)cc21)C(=O)[O-] (chirality)
C[N@@H+](CC(=O)OCOC(=O)n1c(C([NH-])=O)cc2ccc(C(F)F)cc21)C(=O)[O-] (3D coordinates assigned)
C[N@@H+](CC(=O)OCOC(=O)n1c(C([NH-])=O)cc2ccc(C(F)F)cc21)C(=O)[O-] (optimized conformer: 77.62693900050273 kcal/mol)

>  <smiles>  (23) 
CN(CC(=O)OCOC(=O)n1c(C(N)=O)cc2ccc(C(F)F)cc21)C(=O)O

>  <score_type>  (23) 
oracle

>  <origin>  (23) 
adg

>  <m_score__min__energy>  (23) 
-10.279999999999999

>  <m_primary>  (23) 
energy

$$$$
24:0
     RDKit          3D

 34 35  0  0  0  0  0  0  0  0999 V2000
   -6.7230   17.1830  -32.5580 C   0  0  0  0  0  0  0  0  0  0  0  0
   -6.8630   18.3600  -32.3370 C   0  0  0  0  0  0  0  0  0  0  0  0
   -7.0290   19.7640  -32.0710 C   0  0  0  0  0  0  0  0  0  0  0  0
   -8.2940   20.3690  -32.2480 C   0  0  0  0  0  0  0  0  0  0  0  0
   -8.4670   21.7430  -32.0060 C   0  0  0  0  0  0  0  0  0  0  0  0
   -7.3610   22.4740  -31.5810 C   0  0  0  0  0  0  0  0  0  0  0  0
   -7.2420   23.8150  -31.3010 C   0  0  0  0  0  0  0  0  0  0  0  0
   -5.9110   24.0020  -30.9340 C   0  0  0  0  0  0  0  0  0  0  0  0
   -5.3720   25.3000  -30.4760 C   0  0  0  0  0  0  0  0  0  0  0  0
   -4.0410   25.6750  -30.8200 N   0  0  0  0  0  0  0  0  0  0  0  0
   -6.0860   26.0990  -29.8150 O   0  0  0  0  0  0  0  0  0  0  0  0
   -5.2290   22.8210  -30.9920 N   0  0  0  0  0  0  0  0  0  0  0  0
   -3.8320   22.5910  -30.7430 C   0  0  0  0  0  0  0  0  0  0  0  0
   -2.9730   22.9630  -31.5880 O   0  0  0  0  0  0  0  0  0  0  0  0
   -3.4360   21.9290  -29.5740 O   0  0  0  0  0  0  0  0  0  0  0  0
   -3.6010   22.4630  -28.2610 C   0  0  0  0  0  0  0  0  0  0  0  0
   -2.3310   23.1800  -27.7920 C   0  0  0  0  0  0  0  0  0  0  0  0
   -2.3690   24.6910  -28.0400 C   0  0  0  0  0  0  0  0  0  0  0  0
   -2.0140   24.9730  -29.3650 O   0  0  0  0  0  0  0  0  0  0  0  0
   -6.1310   21.8950  -31.3880 C   0  0  0  0  0  0  0  0  0  0  0  0
   -5.9280   20.5320  -31.6410 C   0  0  0  0  0  0  0  0  0  0  0  0
   -6.5953   16.1092  -32.7596 H   0  0  0  0  0  0  0  0  0  0  0  0
   -9.1491   19.7605  -32.5774 H   0  0  0  0  0  0  0  0  0  0  0  0
   -9.4454   22.2253  -32.1480 H   0  0  0  0  0  0  0  0  0  0  0  0
   -8.0314   24.5792  -31.3553 H   0  0  0  0  0  0  0  0  0  0  0  0
   -3.2750   24.9660  -30.8550 H   0  0  0  0  0  0  0  0  0  0  0  0
   -4.4361   23.1790  -28.2670 H   0  0  0  0  0  0  0  0  0  0  0  0
   -3.8079   21.6324  -27.5702 H   0  0  0  0  0  0  0  0  0  0  0  0
   -2.2082   23.0051  -26.7130 H   0  0  0  0  0  0  0  0  0  0  0  0
   -1.4903   22.7728  -28.3730 H   0  0  0  0  0  0  0  0  0  0  0  0
   -3.3856   25.0651  -27.8488 H   0  0  0  0  0  0  0  0  0  0  0  0
   -1.6542   25.1836  -27.3644 H   0  0  0  0  0  0  0  0  0  0  0  0
   -2.5330   24.3420  -29.9290 H   0  0  0  0  0  0  0  0  0  0  0  0
   -4.9368   20.0739  -31.5078 H   0  0  0  0  0  0  0  0  0  0  0  0
  1  2  3  0
  2  3  1  0
  3  4  2  0
  4  5  1  0
  5  6  2  0
  6  7  1  0
  7  8  2  0
  8  9  1  0
  9 10  1  0
  9 11  2  0
  8 12  1  0
 12 13  1  0
 13 14  2  0
 13 15  1  0
 15 16  1  0
 16 17  1  0
 17 18  1  0
 18 19  1  0
 12 20  1  0
 20 21  2  0
 21  3  1  0
 20  6  1  0
  1 22  1  0
  4 23  1  0
  5 24  1  0
  7 25  1  0
 10 26  1  0
 16 27  1  0
 16 28  1  0
 17 29  1  0
 17 30  1  0
 18 31  1  0
 18 32  1  0
 19 33  1  0
 21 34  1  0
M  CHG  1  10  -1
M  END
>  <UniqueID>  (24) 
24

>  <SMILES>  (24) 
C#Cc1ccc2cc(C([NH-])=O)n(C(=O)OCCCO)c2c1

>  <Energy>  (24) 
67.15483765097709

>  <Genealogy>  (24) 
C#Cc1ccc2cc(C([NH-])=O)n(C(=O)OCCCO)c2c1 (protonated)
C#Cc1ccc2cc(C([NH-])=O)n(C(=O)OCCCO)c2c1 (3D coordinates assigned)
C#Cc1ccc2cc(C([NH-])=O)n(C(=O)OCCCO)c2c1 (optimized conformer: 67.15483765097709 kcal/mol)

>  <smiles>  (24) 
C#Cc1ccc2cc(C(N)=O)n(C(=O)OCCCO)c2c1

>  <score_type>  (24) 
oracle

>  <origin>  (24) 
adg

>  <m_score__min__energy>  (24) 
-10.58

>  <m_primary>  (24) 
energy

$$$$
25:0
     RDKit          3D

 35 36  0  0  0  0  0  0  0  0999 V2000
   -3.9400   25.6730  -30.8420 N   0  0  0  0  0  0  0  0  0  0  0  0
   -5.0390   24.9150  -30.3440 C   0  0  0  0  0  0  0  0  0  0  0  0
   -5.7220   25.3730  -29.3890 O   0  0  0  0  0  0  0  0  0  0  0  0
   -5.4220   23.6320  -30.9670 C   0  0  0  0  0  0  0  0  0  0  0  0
   -6.7400   23.2740  -31.2410 C   0  0  0  0  0  0  0  0  0  0  0  0
   -6.6630   22.0620  -31.8890 C   0  0  0  0  0  0  0  0  0  0  0  0
   -7.6760   21.2380  -32.3690 C   0  0  0  0  0  0  0  0  0  0  0  0
   -7.3080   20.0180  -32.9610 C   0  0  0  0  0  0  0  0  0  0  0  0
   -5.9430   19.6460  -33.0610 C   0  0  0  0  0  0  0  0  0  0  0  0
   -5.5670   18.3120  -33.6570 C   0  0  1  0  0  0  0  0  0  0  0  0
   -4.2120   18.0830  -33.4850 F   0  0  0  0  0  0  0  0  0  0  0  0
   -6.3610   17.1800  -33.0080 C   0  0  0  0  0  0  0  0  0  0  0  0
   -6.8710   16.3340  -33.9770 F   0  0  0  0  0  0  0  0  0  0  0  0
   -4.9430   20.5050  -32.5510 C   0  0  0  0  0  0  0  0  0  0  0  0
   -5.3380   21.7210  -31.9840 C   0  0  0  0  0  0  0  0  0  0  0  0
   -4.5630   22.6740  -31.4200 N   0  0  0  0  0  0  0  0  0  0  0  0
   -3.1400   22.6180  -31.2420 C   0  0  0  0  0  0  0  0  0  0  0  0
   -2.4680   21.7300  -31.8350 O   0  0  0  0  0  0  0  0  0  0  0  0
   -2.5100   23.5360  -30.3950 O   0  0  0  0  0  0  0  0  0  0  0  0
   -2.3380   23.3240  -28.9940 C   0  0  0  0  0  0  0  0  0  0  0  0
   -1.8490   24.5970  -28.3030 C   0  0  0  0  0  0  0  0  0  0  0  0
   -1.5140   25.5730  -29.2530 O   0  0  0  0  0  0  0  0  0  0  0  0
   -2.9700   25.2850  -30.8300 H   0  0  0  0  0  0  0  0  0  0  0  0
   -7.6498   23.8400  -30.9922 H   0  0  0  0  0  0  0  0  0  0  0  0
   -8.7327   21.5326  -32.2876 H   0  0  0  0  0  0  0  0  0  0  0  0
   -8.0860   19.3450  -33.3506 H   0  0  0  0  0  0  0  0  0  0  0  0
   -5.8050   18.3373  -34.7306 H   0  0  0  0  0  0  0  0  0  0  0  0
   -5.6993   16.6093  -32.3399 H   0  0  0  0  0  0  0  0  0  0  0  0
   -7.1949   17.6110  -32.4345 H   0  0  0  0  0  0  0  0  0  0  0  0
   -3.8805   20.2241  -32.5989 H   0  0  0  0  0  0  0  0  0  0  0  0
   -3.3007   23.0235  -28.5548 H   0  0  0  0  0  0  0  0  0  0  0  0
   -1.5851   22.5353  -28.8488 H   0  0  0  0  0  0  0  0  0  0  0  0
   -2.6461   24.9844  -27.6514 H   0  0  0  0  0  0  0  0  0  0  0  0
   -0.9555   24.3582  -27.7075 H   0  0  0  0  0  0  0  0  0  0  0  0
   -2.2990   25.6680  -29.8530 H   0  0  0  0  0  0  0  0  0  0  0  0
  1  2  1  0
  2  3  2  0
  2  4  1  0
  4  5  2  0
  5  6  1  0
  6  7  2  0
  7  8  1  0
  8  9  2  0
  9 10  1  0
 10 11  1  0
 10 12  1  0
 12 13  1  0
  9 14  1  0
 14 15  2  0
 15 16  1  0
 16 17  1  0
 17 18  2  0
 17 19  1  0
 19 20  1  0
 20 21  1  0
 21 22  1  0
 16  4  1  0
 15  6  1  0
  1 23  1  0
  5 24  1  0
  7 25  1  0
  8 26  1  0
 10 27  1  6
 12 28  1  0
 12 29  1  0
 14 30  1  0
 20 31  1  0
 20 32  1  0
 21 33  1  0
 21 34  1  0
 22 35  1  0
M  CHG  1   1  -1
M  END
>  <UniqueID>  (25) 
25

>  <SMILES>  (25) 
[NH-]C(=O)c1cc2ccc([C@@H](F)CF)cc2n1C(=O)OCCO

>  <Energy>  (25) 
68.14202755565852

>  <Genealogy>  (25) 
[NH-]C(=O)c1cc2ccc(C(F)CF)cc2n1C(=O)OCCO (protonated)
[NH-]C(=O)c1cc2ccc([C@@H](F)CF)cc2n1C(=O)OCCO (chirality)
[NH-]C(=O)c1cc2ccc([C@@H](F)CF)cc2n1C(=O)OCCO (3D coordinates assigned)
[NH-]C(=O)c1cc2ccc([C@@H](F)CF)cc2n1C(=O)OCCO (optimized conformer: 68.14202755565852 kcal/mol)

>  <smiles>  (25) 
NC(=O)c1cc2ccc(C(F)CF)cc2n1C(=O)OCCO

>  <score_type>  (25) 
oracle

>  <origin>  (25) 
adg

>  <m_score__min__energy>  (25) 
-9.6300000000000008

>  <m_primary>  (25) 
energy

$$$$
26:0
     RDKit          3D

 42 43  0  0  0  0  0  0  0  0999 V2000
   -0.4280   22.3100  -26.0770 C   0  0  0  0  0  0  0  0  0  0  0  0
   -1.5400   22.6440  -26.9760 N   0  0  0  0  0  0  0  0  0  0  0  0
   -1.7900   24.0490  -27.3320 C   0  0  0  0  0  0  0  0  0  0  0  0
   -1.1890   24.3660  -28.7020 C   0  0  0  0  0  0  0  0  0  0  0  0
   -1.4440   25.6990  -29.0490 O   0  0  0  0  0  0  0  0  0  0  0  0
   -2.3990   21.6050  -27.4990 C   0  0  0  0  0  0  0  0  0  0  0  0
   -2.1390   20.3950  -27.2570 O   0  0  0  0  0  0  0  0  0  0  0  0
   -3.6240   21.9260  -28.3100 C   0  0  0  0  0  0  0  0  0  0  0  0
   -3.3800   21.7000  -29.6960 O   0  0  0  0  0  0  0  0  0  0  0  0
   -3.7280   22.6100  -30.6990 C   0  0  0  0  0  0  0  0  0  0  0  0
   -2.8320   23.2240  -31.3410 O   0  0  0  0  0  0  0  0  0  0  0  0
   -5.1130   22.8640  -30.9800 N   0  0  0  0  0  0  0  0  0  0  0  0
   -5.7990   24.0330  -30.8350 C   0  0  0  0  0  0  0  0  0  0  0  0
   -5.2180   25.3430  -30.4740 C   0  0  0  0  0  0  0  0  0  0  0  0
   -3.8860   25.6610  -30.8710 N   0  0  0  0  0  0  0  0  0  0  0  0
   -5.8700   26.1730  -29.7880 O   0  0  0  0  0  0  0  0  0  0  0  0
   -7.1420   23.8560  -31.1640 C   0  0  0  0  0  0  0  0  0  0  0  0
   -7.2580   22.5330  -31.5260 C   0  0  0  0  0  0  0  0  0  0  0  0
   -8.3750   21.8120  -31.9330 C   0  0  0  0  0  0  0  0  0  0  0  0
   -8.2090   20.4460  -32.2190 C   0  0  0  0  0  0  0  0  0  0  0  0
   -6.9380   19.8340  -32.0980 C   0  0  0  0  0  0  0  0  0  0  0  0
   -6.7820   18.3650  -32.3610 C   0  0  0  0  0  0  0  0  0  0  0  0
   -5.7450   18.0660  -34.2030 I   0  0  0  0  0  0  0  0  0  0  0  0
   -5.8280   20.5950  -31.6710 C   0  0  0  0  0  0  0  0  0  0  0  0
   -6.0180   21.9570  -31.4090 C   0  0  0  0  0  0  0  0  0  0  0  0
   -0.7584   22.4092  -25.0325 H   0  0  0  0  0  0  0  0  0  0  0  0
   -0.1047   21.2751  -26.2625 H   0  0  0  0  0  0  0  0  0  0  0  0
    0.4121   22.9955  -26.2625 H   0  0  0  0  0  0  0  0  0  0  0  0
   -2.8749   24.2280  -27.3618 H   0  0  0  0  0  0  0  0  0  0  0  0
   -1.3209   24.6975  -26.5775 H   0  0  0  0  0  0  0  0  0  0  0  0
   -0.1019   24.2016  -28.6680 H   0  0  0  0  0  0  0  0  0  0  0  0
   -1.6468   23.7069  -29.4543 H   0  0  0  0  0  0  0  0  0  0  0  0
   -2.0050   25.6770  -29.8690 H   0  0  0  0  0  0  0  0  0  0  0  0
   -4.4547   21.2850  -27.9797 H   0  0  0  0  0  0  0  0  0  0  0  0
   -3.8799   22.9856  -28.1626 H   0  0  0  0  0  0  0  0  0  0  0  0
   -3.0660   25.1910  -30.4260 H   0  0  0  0  0  0  0  0  0  0  0  0
   -7.9398   24.6129  -31.1395 H   0  0  0  0  0  0  0  0  0  0  0  0
   -9.3583   22.2958  -32.0282 H   0  0  0  0  0  0  0  0  0  0  0  0
   -9.0741   19.8471  -32.5397 H   0  0  0  0  0  0  0  0  0  0  0  0
   -6.2099   17.9060  -31.5412 H   0  0  0  0  0  0  0  0  0  0  0  0
   -7.7768   17.8999  -32.4247 H   0  0  0  0  0  0  0  0  0  0  0  0
   -4.8391   20.1295  -31.5473 H   0  0  0  0  0  0  0  0  0  0  0  0
  1  2  1  0
  2  3  1  0
  3  4  1  0
  4  5  1  0
  2  6  1  0
  6  7  2  0
  6  8  1  0
  8  9  1  0
  9 10  1  0
 10 11  2  0
 10 12  1  0
 12 13  1  0
 13 14  1  0
 14 15  1  0
 14 16  2  0
 13 17  2  0
 17 18  1  0
 18 19  2  0
 19 20  1  0
 20 21  2  0
 21 22  1  0
 22 23  1  0
 21 24  1  0
 24 25  2  0
 25 12  1  0
 25 18  1  0
  1 26  1  0
  1 27  1  0
  1 28  1  0
  3 29  1  0
  3 30  1  0
  4 31  1  0
  4 32  1  0
  5 33  1  0
  8 34  1  0
  8 35  1  0
 15 36  1  0
 17 37  1  0
 19 38  1  0
 20 39  1  0
 22 40  1  0
 22 41  1  0
 24 42  1  0
M  CHG  1  15  -1
M  END
>  <UniqueID>  (26) 
26

>  <SMILES>  (26) 
CN(CCO)C(=O)COC(=O)n1c(C([NH-])=O)cc2ccc(CI)cc21

>  <Energy>  (26) 
72.05388558251724

>  <Genealogy>  (26) 
CN(CCO)C(=O)COC(=O)n1c(C([NH-])=O)cc2ccc(CI)cc21 (protonated)
CN(CCO)C(=O)COC(=O)n1c(C([NH-])=O)cc2ccc(CI)cc21 (3D coordinates assigned)
CN(CCO)C(=O)COC(=O)n1c(C([NH-])=O)cc2ccc(CI)cc21 (optimized conformer: 72.05388558251724 kcal/mol)

>  <smiles>  (26) 
CN(CCO)C(=O)COC(=O)n1c(C(N)=O)cc2ccc(CI)cc21

>  <score_type>  (26) 
oracle

>  <origin>  (26) 
adg

>  <m_score__min__energy>  (26) 
-10.74

>  <m_primary>  (26) 
energy

$$$$
27:0
     RDKit          3D

 40 41  0  0  0  0  0  0  0  0999 V2000
   -5.7420   18.1220  -34.9390 C   0  0  0  0  0  0  0  0  0  0  0  0
   -5.0340   19.0010  -34.0000 N   0  0  0  0  0  0  0  0  0  0  0  0
   -3.5770   18.8730  -33.8680 C   0  0  0  0  0  0  0  0  0  0  0  0
   -5.7620   19.9830  -33.2170 C   0  0  0  0  0  0  0  0  0  0  0  0
   -7.1780   19.9060  -33.0880 C   0  0  0  0  0  0  0  0  0  0  0  0
   -7.8890   20.8460  -32.3230 C   0  0  0  0  0  0  0  0  0  0  0  0
   -7.1720   21.8620  -31.7050 C   0  0  0  0  0  0  0  0  0  0  0  0
   -7.6080   22.8780  -30.8860 C   0  0  0  0  0  0  0  0  0  0  0  0
   -6.4630   23.5900  -30.5440 C   0  0  0  0  0  0  0  0  0  0  0  0
   -6.4840   24.8160  -29.7200 C   0  0  0  0  0  0  0  0  0  0  0  0
   -5.3710   25.1770  -28.9020 N   0  0  0  0  0  0  0  0  0  0  0  0
   -7.4800   25.5840  -29.7820 O   0  0  0  0  0  0  0  0  0  0  0  0
   -5.3590   23.0300  -31.1150 N   0  0  0  0  0  0  0  0  0  0  0  0
   -3.9850   23.4090  -30.9230 C   0  0  0  0  0  0  0  0  0  0  0  0
   -3.6730   24.6290  -30.8480 O   0  0  0  0  0  0  0  0  0  0  0  0
   -3.0020   22.4220  -30.8120 O   0  0  0  0  0  0  0  0  0  0  0  0
   -2.4390   22.0290  -29.5660 C   0  0  0  0  0  0  0  0  0  0  0  0
   -2.6350   23.1310  -28.5680 C   0  0  0  0  0  0  0  0  0  0  0  0
   -3.5760   23.0740  -27.7900 O   0  0  0  0  0  0  0  0  0  0  0  0
   -1.7010   24.3130  -28.5490 C   0  0  0  0  0  0  0  0  0  0  0  0
   -2.3600   25.4880  -28.9430 O   0  0  0  0  0  0  0  0  0  0  0  0
   -5.8120   21.9730  -31.8260 C   0  0  0  0  0  0  0  0  0  0  0  0
   -5.0740   21.0360  -32.5600 C   0  0  0  0  0  0  0  0  0  0  0  0
   -6.3349   17.3859  -34.3762 H   0  0  0  0  0  0  0  0  0  0  0  0
   -6.4102   18.7241  -35.5721 H   0  0  0  0  0  0  0  0  0  0  0  0
   -5.0113   17.5974  -35.5721 H   0  0  0  0  0  0  0  0  0  0  0  0
   -3.3061   18.8492  -32.8021 H   0  0  0  0  0  0  0  0  0  0  0  0
   -3.2454   17.9423  -34.3515 H   0  0  0  0  0  0  0  0  0  0  0  0
   -3.0882   19.7317  -34.3515 H   0  0  0  0  0  0  0  0  0  0  0  0
   -7.7242   19.0973  -33.5956 H   0  0  0  0  0  0  0  0  0  0  0  0
   -8.9818   20.7790  -32.2168 H   0  0  0  0  0  0  0  0  0  0  0  0
   -8.6412   23.0833  -30.5693 H   0  0  0  0  0  0  0  0  0  0  0  0
   -5.4200   26.0260  -28.2960 H   0  0  0  0  0  0  0  0  0  0  0  0
   -4.4680   24.6560  -28.9590 H   0  0  0  0  0  0  0  0  0  0  0  0
   -2.9373   21.1158  -29.2086 H   0  0  0  0  0  0  0  0  0  0  0  0
   -1.3644   21.8305  -29.6917 H   0  0  0  0  0  0  0  0  0  0  0  0
   -1.3108   24.4454  -27.5291 H   0  0  0  0  0  0  0  0  0  0  0  0
   -0.8811   24.1200  -29.2564 H   0  0  0  0  0  0  0  0  0  0  0  0
   -3.3300   25.3270  -28.8080 H   0  0  0  0  0  0  0  0  0  0  0  0
   -3.9788   21.1150  -32.6262 H   0  0  0  0  0  0  0  0  0  0  0  0
  1  2  1  0
  2  3  1  0
  2  4  1  0
  4  5  2  0
  5  6  1  0
  6  7  2  0
  7  8  1  0
  8  9  2  0
  9 10  1  0
 10 11  1  0
 10 12  2  0
  9 13  1  0
 13 14  1  0
 14 15  2  0
 14 16  1  0
 16 17  1  0
 17 18  1  0
 18 19  2  0
 18 20  1  0
 20 21  1  0
 13 22  1  0
 22 23  2  0
 23  4  1  0
 22  7  1  0
  1 24  1  0
  1 25  1  0
  1 26  1  0
  3 27  1  0
  3 28  1  0
  3 29  1  0
  5 30  1  0
  6 31  1  0
  8 32  1  0
 11 33  1  0
 11 34  1  0
 17 35  1  0
 17 36  1  0
 20 37  1  0
 20 38  1  0
 21 39  1  0
 23 40  1  0
M  END
>  <UniqueID>  (27) 
27

>  <SMILES>  (27) 
CN(C)c1ccc2cc(C(N)=O)n(C(=O)OCC(=O)CO)c2c1

>  <Energy>  (27) 
76.27549035715025

>  <Genealogy>  (27) 
CN(C)c1ccc2cc(C(N)=O)n(C(=O)OCC(=O)CO)c2c1 (3D coordinates assigned)
CN(C)c1ccc2cc(C(N)=O)n(C(=O)OCC(=O)CO)c2c1 (optimized conformer: 76.27549035715025 kcal/mol)

>  <smiles>  (27) 
CN(C)c1ccc2cc(C(N)=O)n(C(=O)OCC(=O)CO)c2c1

>  <score_type>  (27) 
oracle

>  <origin>  (27) 
adg

>  <m_score__min__energy>  (27) 
-8.7400000000000002

>  <m_primary>  (27) 
energy

$$$$
28:0
     RDKit          3D

 44 45  0  0  0  0  0  0  0  0999 V2000
   -3.9020   25.5820  -30.8600 N   0  0  0  0  0  0  0  0  0  0  0  0
   -5.2150   25.2630  -30.4050 C   0  0  0  0  0  0  0  0  0  0  0  0
   -5.8090   26.0570  -29.6300 O   0  0  0  0  0  0  0  0  0  0  0  0
   -5.8790   24.0300  -30.8800 C   0  0  0  0  0  0  0  0  0  0  0  0
   -7.2240   23.9760  -31.2420 C   0  0  0  0  0  0  0  0  0  0  0  0
   -7.4720   22.6530  -31.5290 C   0  0  0  0  0  0  0  0  0  0  0  0
   -8.6420   22.0350  -31.9560 C   0  0  0  0  0  0  0  0  0  0  0  0
   -8.6040   20.6530  -32.2050 C   0  0  0  0  0  0  0  0  0  0  0  0
   -7.4080   19.9130  -32.0150 C   0  0  0  0  0  0  0  0  0  0  0  0
   -7.3640   18.4430  -32.3430 C   0  0  0  0  0  0  0  0  0  0  0  0
   -6.5400   17.7980  -31.4380 F   0  0  0  0  0  0  0  0  0  0  0  0
   -6.8740   18.2410  -33.6220 F   0  0  0  0  0  0  0  0  0  0  0  0
   -8.6310   17.8890  -32.2720 F   0  0  0  0  0  0  0  0  0  0  0  0
   -6.2330   20.5840  -31.6040 C   0  0  0  0  0  0  0  0  0  0  0  0
   -6.3050   21.9580  -31.3440 C   0  0  0  0  0  0  0  0  0  0  0  0
   -5.3150   22.7900  -30.9500 N   0  0  0  0  0  0  0  0  0  0  0  0
   -3.9460   22.4270  -30.7100 C   0  0  0  0  0  0  0  0  0  0  0  0
   -3.0160   23.2010  -31.0660 O   0  0  0  0  0  0  0  0  0  0  0  0
   -3.6510   21.2030  -30.1050 O   0  0  0  0  0  0  0  0  0  0  0  0
   -2.4100   20.9420  -29.4550 C   0  0  0  0  0  0  0  0  0  0  0  0
   -2.5070   21.2930  -28.0800 O   0  0  0  0  0  0  0  0  0  0  0  0
   -1.4400   21.1600  -27.1860 C   0  0  0  0  0  0  0  0  0  0  0  0
   -1.0440   20.0190  -26.8210 O   0  0  0  0  0  0  0  0  0  0  0  0
   -0.7950   22.3850  -26.6230 C   0  0  0  0  0  0  0  0  0  0  0  0
   -1.7260   23.5960  -26.7720 C   0  0  0  0  0  0  0  0  0  0  0  0
   -1.9260   24.0130  -28.2420 C   0  0  1  0  0  0  0  0  0  0  0  0
   -3.2710   24.5560  -28.4530 N   0  0  0  0  0  0  0  0  0  0  0  0
   -0.8970   25.0460  -28.6110 C   0  0  0  0  0  0  0  0  0  0  0  0
   -1.2150   26.0420  -29.3140 O   0  0  0  0  0  0  0  0  0  0  0  0
    0.4070   24.9250  -28.1440 O   0  0  0  0  0  0  0  0  0  0  0  0
   -3.0610   25.2850  -30.3200 H   0  0  0  0  0  0  0  0  0  0  0  0
   -7.9361   24.8131  -31.2884 H   0  0  0  0  0  0  0  0  0  0  0  0
   -9.5691   22.6106  -32.0946 H   0  0  0  0  0  0  0  0  0  0  0  0
   -9.5122   20.1382  -32.5514 H   0  0  0  0  0  0  0  0  0  0  0  0
   -5.2842   20.0390  -31.4911 H   0  0  0  0  0  0  0  0  0  0  0  0
   -2.1685   19.8725  -29.5434 H   0  0  0  0  0  0  0  0  0  0  0  0
   -1.6173   21.5395  -29.9289 H   0  0  0  0  0  0  0  0  0  0  0  0
   -0.5785   22.2232  -25.5567 H   0  0  0  0  0  0  0  0  0  0  0  0
    0.1375   22.5819  -27.1722 H   0  0  0  0  0  0  0  0  0  0  0  0
   -2.7059   23.3420  -26.3415 H   0  0  0  0  0  0  0  0  0  0  0  0
   -1.2587   24.4419  -26.2466 H   0  0  0  0  0  0  0  0  0  0  0  0
   -1.8089   23.1244  -28.8797 H   0  0  0  0  0  0  0  0  0  0  0  0
   -3.7070   24.0600  -29.2640 H   0  0  0  0  0  0  0  0  0  0  0  0
   -3.1830   25.5530  -28.7600 H   0  0  0  0  0  0  0  0  0  0  0  0
  1  2  1  0
  2  3  2  0
  2  4  1  0
  4  5  2  0
  5  6  1  0
  6  7  2  0
  7  8  1  0
  8  9  2  0
  9 10  1  0
 10 11  1  0
 10 12  1  0
 10 13  1  0
  9 14  1  0
 14 15  2  0
 15 16  1  0
 16 17  1  0
 17 18  2  0
 17 19  1  0
 19 20  1  0
 20 21  1  0
 21 22  1  0
 22 23  2  0
 22 24  1  0
 24 25  1  0
 25 26  1  0
 26 27  1  0
 26 28  1  0
 28 29  2  0
 28 30  1  0
 16  4  1  0
 15  6  1  0
  1 31  1  0
  5 32  1  0
  7 33  1  0
  8 34  1  0
 14 35  1  0
 20 36  1  0
 20 37  1  0
 24 38  1  0
 24 39  1  0
 25 40  1  0
 25 41  1  0
 26 42  1  6
 27 43  1  0
 27 44  1  0
M  CHG  2   1  -1  30  -1
M  END
>  <UniqueID>  (28) 
28

>  <SMILES>  (28) 
[NH-]C(=O)c1cc2ccc(C(F)(F)F)cc2n1C(=O)OCOC(=O)CC[C@@H](N)C(=O)[O-]

>  <Energy>  (28) 
74.60472608163732

>  <Genealogy>  (28) 
[NH-]C(=O)c1cc2ccc(C(F)(F)F)cc2n1C(=O)OCOC(=O)CC[C@@H](N)C(=O)[O-] (protonated)
[NH-]C(=O)c1cc2ccc(C(F)(F)F)cc2n1C(=O)OCOC(=O)CC[C@@H](N)C(=O)[O-] (3D coordinates assigned)
[NH-]C(=O)c1cc2ccc(C(F)(F)F)cc2n1C(=O)OCOC(=O)CC[C@@H](N)C(=O)[O-] (optimized conformer: 74.60472608163732 kcal/mol)

>  <smiles>  (28) 
NC(=O)c1cc2ccc(C(F)(F)F)cc2n1C(=O)OCOC(=O)CC[C@@H](N)C(=O)O

>  <score_type>  (28) 
oracle

>  <origin>  (28) 
adg

>  <m_score__min__energy>  (28) 
-11.710000000000001

>  <m_primary>  (28) 
energy

$$$$
29:0
     RDKit          3D

 47 48  0  0  0  0  0  0  0  0999 V2000
    2.1670   19.1450  -34.5180 C   0  0  0  0  0  0  0  0  0  0  0  0
    0.8120   19.4580  -34.0570 N   0  0  0  0  0  0  0  0  0  0  0  0
   -0.1360   18.3760  -33.7580 C   0  0  0  0  0  0  0  0  0  0  0  0
   -0.0700   18.0040  -32.2730 C   0  0  0  0  0  0  0  0  0  0  0  0
   -0.4020   19.1670  -31.4330 N   0  0  0  0  0  0  0  0  0  0  0  0
    0.5360   19.5280  -30.3620 C   0  0  0  0  0  0  0  0  0  0  0  0
   -1.5860   19.9770  -31.6770 C   0  0  0  0  0  0  0  0  0  0  0  0
   -2.5150   19.6350  -32.7030 C   0  0  0  0  0  0  0  0  0  0  0  0
   -3.6490   20.4240  -32.9530 C   0  0  0  0  0  0  0  0  0  0  0  0
   -3.8490   21.5480  -32.1640 C   0  0  0  0  0  0  0  0  0  0  0  0
   -4.8450   22.4960  -32.2140 C   0  0  0  0  0  0  0  0  0  0  0  0
   -4.5390   23.4050  -31.2030 C   0  0  0  0  0  0  0  0  0  0  0  0
   -5.4060   24.5490  -30.8520 C   0  0  0  0  0  0  0  0  0  0  0  0
   -4.8590   25.8460  -30.6320 N   0  0  0  0  0  0  0  0  0  0  0  0
   -6.6440   24.3680  -30.6950 O   0  0  0  0  0  0  0  0  0  0  0  0
   -3.3950   23.0370  -30.5590 N   0  0  0  0  0  0  0  0  0  0  0  0
   -2.7030   23.7420  -29.5160 C   0  0  0  0  0  0  0  0  0  0  0  0
   -2.4270   23.1640  -28.4320 O   0  0  0  0  0  0  0  0  0  0  0  0
   -2.3500   25.0750  -29.6850 O   0  0  0  0  0  0  0  0  0  0  0  0
   -2.9870   21.8950  -31.1600 C   0  0  0  0  0  0  0  0  0  0  0  0
   -1.8380   21.1400  -30.9000 C   0  0  0  0  0  0  0  0  0  0  0  0
    0.4120   20.8310  -33.9000 C   0  0  0  0  0  0  0  0  0  0  0  0
    0.6290   21.4330  -32.8110 O   0  0  0  0  0  0  0  0  0  0  0  0
   -0.2170   21.4990  -34.9570 O   0  0  0  0  0  0  0  0  0  0  0  0
    0.4970   22.2600  -35.9270 C   0  0  0  0  0  0  0  0  0  0  0  0
    1.4030   23.1270  -35.2850 O   0  0  0  0  0  0  0  0  0  0  0  0
    2.6670   23.5160  -36.3650 P   0  0  0  0  0  0  0  0  0  0  0  0
    3.8140   24.1670  -35.6240 O   0  0  0  0  0  0  0  0  0  0  0  0
    2.0810   24.5930  -37.5280 O   0  0  0  0  0  0  0  0  0  0  0  0
    3.2180   22.1190  -37.1440 O   0  0  0  0  0  0  0  0  0  0  0  0
    2.8241   18.9932  -33.6490 H   0  0  0  0  0  0  0  0  0  0  0  0
    2.1450   18.2283  -35.1256 H   0  0  0  0  0  0  0  0  0  0  0  0
    2.5493   19.9785  -35.1256 H   0  0  0  0  0  0  0  0  0  0  0  0
   -1.1553   18.7089  -34.0034 H   0  0  0  0  0  0  0  0  0  0  0  0
    0.1281   17.4935  -34.3592 H   0  0  0  0  0  0  0  0  0  0  0  0
   -0.7874   17.1951  -32.0706 H   0  0  0  0  0  0  0  0  0  0  0  0
    0.9520   17.6742  -32.0347 H   0  0  0  0  0  0  0  0  0  0  0  0
    0.0644   19.3465  -29.3849 H   0  0  0  0  0  0  0  0  0  0  0  0
    1.4457   18.9157  -30.4495 H   0  0  0  0  0  0  0  0  0  0  0  0
    0.8005   20.5921  -30.4495 H   0  0  0  0  0  0  0  0  0  0  0  0
   -2.3398   18.7351  -33.3108 H   0  0  0  0  0  0  0  0  0  0  0  0
   -4.3583   20.1590  -33.7510 H   0  0  0  0  0  0  0  0  0  0  0  0
   -5.7004   22.5293  -32.9047 H   0  0  0  0  0  0  0  0  0  0  0  0
   -3.8700   26.0630  -30.8900 H   0  0  0  0  0  0  0  0  0  0  0  0
   -1.1398   21.4423  -30.1056 H   0  0  0  0  0  0  0  0  0  0  0  0
    1.0513   21.5786  -36.5891 H   0  0  0  0  0  0  0  0  0  0  0  0
   -0.2161   22.8542  -36.5173 H   0  0  0  0  0  0  0  0  0  0  0  0
  1  2  1  0
  2  3  1  0
  3  4  1  0
  4  5  1  0
  5  6  1  0
  5  7  1  0
  7  8  2  0
  8  9  1  0
  9 10  2  0
 10 11  1  0
 11 12  2  0
 12 13  1  0
 13 14  1  0
 13 15  2  0
 12 16  1  0
 16 17  1  0
 17 18  2  0
 17 19  1  0
 16 20  1  0
 20 21  2  0
  2 22  1  0
 22 23  2  0
 22 24  1  0
 24 25  1  0
 25 26  1  0
 26 27  1  0
 27 28  2  0
 27 29  1  0
 27 30  1  0
 21  7  1  0
 20 10  1  0
  1 31  1  0
  1 32  1  0
  1 33  1  0
  3 34  1  0
  3 35  1  0
  4 36  1  0
  4 37  1  0
  6 38  1  0
  6 39  1  0
  6 40  1  0
  8 41  1  0
  9 42  1  0
 11 43  1  0
 14 44  1  0
 21 45  1  0
 25 46  1  0
 25 47  1  0
M  CHG  4  14  -1  19  -1  29  -1  30  -1
M  END
>  <UniqueID>  (29) 
29

>  <SMILES>  (29) 
CN(CCN(C)c1ccc2cc(C([NH-])=O)n(C(=O)[O-])c2c1)C(=O)OCOP(=O)([O-])[O-]

>  <Energy>  (29) 
79.88954382493412

>  <Genealogy>  (29) 
CN(CCN(C)c1ccc2cc(C([NH-])=O)n(C(=O)[O-])c2c1)C(=O)OCOP(=O)([O-])[O-] (protonated)
CN(CCN(C)c1ccc2cc(C([NH-])=O)n(C(=O)[O-])c2c1)C(=O)OCOP(=O)([O-])[O-] (3D coordinates assigned)
CN(CCN(C)c1ccc2cc(C([NH-])=O)n(C(=O)[O-])c2c1)C(=O)OCOP(=O)([O-])[O-] (optimized conformer: 79.88954382493412 kcal/mol)

>  <smiles>  (29) 
CN(CCN(C)c1ccc2cc(C(N)=O)n(C(=O)O)c2c1)C(=O)OCOP(=O)(O)O

>  <score_type>  (29) 
oracle

>  <origin>  (29) 
adg

>  <m_score__min__energy>  (29) 
-11.82

>  <m_primary>  (29) 
energy

$$$$
30:0
     RDKit          3D

 41 42  0  0  0  0  0  0  0  0999 V2000
   -7.2410   17.4440  -33.1550 C   0  0  0  0  0  0  0  0  0  0  0  0
   -7.2960   18.5690  -32.7250 C   0  0  0  0  0  0  0  0  0  0  0  0
   -7.3620   19.9150  -32.2160 C   0  0  0  0  0  0  0  0  0  0  0  0
   -8.6160   20.4840  -31.8880 C   0  0  0  0  0  0  0  0  0  0  0  0
   -8.6950   21.8010  -31.4010 C   0  0  0  0  0  0  0  0  0  0  0  0
   -7.5080   22.5150  -31.2610 C   0  0  0  0  0  0  0  0  0  0  0  0
   -7.2950   23.7940  -30.8030 C   0  0  0  0  0  0  0  0  0  0  0  0
   -5.9140   23.9870  -30.8610 C   0  0  0  0  0  0  0  0  0  0  0  0
   -5.2710   25.2810  -30.5310 C   0  0  0  0  0  0  0  0  0  0  0  0
   -3.9060   25.5440  -30.8470 N   0  0  0  0  0  0  0  0  0  0  0  0
   -5.9500   26.1770  -29.9590 O   0  0  0  0  0  0  0  0  0  0  0  0
   -5.2990   22.8620  -31.3350 N   0  0  0  0  0  0  0  0  0  0  0  0
   -3.8980   22.6320  -31.5620 C   0  0  0  0  0  0  0  0  0  0  0  0
   -3.5070   22.2420  -32.6960 O   0  0  0  0  0  0  0  0  0  0  0  0
   -2.9840   22.7920  -30.5190 O   0  0  0  0  0  0  0  0  0  0  0  0
   -2.4930   21.7070  -29.7280 C   0  0  0  0  0  0  0  0  0  0  0  0
   -1.0000   21.8750  -29.4540 C   0  0  0  0  0  0  0  0  0  0  0  0
   -0.5670   23.1330  -29.9190 O   0  0  0  0  0  0  0  0  0  0  0  0
   -0.8350   24.2890  -28.6930 P   0  0  1  0  0  0  0  0  0  0  0  0
    0.4940   24.6890  -28.0920 O   0  0  0  0  0  0  0  0  0  0  0  0
   -1.5950   25.6750  -29.3120 O   0  0  0  0  0  0  0  0  0  0  0  0
   -1.8030   23.6000  -27.4690 O   0  0  0  0  0  0  0  0  0  0  0  0
   -2.7760   24.5400  -27.0940 C   0  0  0  0  0  0  0  0  0  0  0  0
   -4.1400   24.0640  -27.5790 C   0  0  0  0  0  0  0  0  0  0  0  0
   -6.2880   21.9750  -31.5780 C   0  0  0  0  0  0  0  0  0  0  0  0
   -6.1790   20.6630  -32.0540 C   0  0  0  0  0  0  0  0  0  0  0  0
   -7.1908   16.4176  -33.5473 H   0  0  0  0  0  0  0  0  0  0  0  0
   -9.5346   19.8923  -32.0148 H   0  0  0  0  0  0  0  0  0  0  0  0
   -9.6633   22.2524  -31.1392 H   0  0  0  0  0  0  0  0  0  0  0  0
   -8.0538   24.5139  -30.4624 H   0  0  0  0  0  0  0  0  0  0  0  0
   -3.1400   24.9500  -30.4570 H   0  0  0  0  0  0  0  0  0  0  0  0
   -3.0357   21.6822  -28.7715 H   0  0  0  0  0  0  0  0  0  0  0  0
   -2.6493   20.7674  -30.2783 H   0  0  0  0  0  0  0  0  0  0  0  0
   -0.8172   21.8032  -28.3717 H   0  0  0  0  0  0  0  0  0  0  0  0
   -0.4437   21.0835  -29.9776 H   0  0  0  0  0  0  0  0  0  0  0  0
   -2.7887   24.6405  -25.9987 H   0  0  0  0  0  0  0  0  0  0  0  0
   -2.5420   25.5162  -27.5438 H   0  0  0  0  0  0  0  0  0  0  0  0
   -4.7798   23.8407  -26.7125 H   0  0  0  0  0  0  0  0  0  0  0  0
   -4.6083   24.8518  -28.1873 H   0  0  0  0  0  0  0  0  0  0  0  0
   -4.0164   23.1559  -28.1873 H   0  0  0  0  0  0  0  0  0  0  0  0
   -5.1976   20.2284  -32.2947 H   0  0  0  0  0  0  0  0  0  0  0  0
  1  2  3  0
  2  3  1  0
  3  4  2  0
  4  5  1  0
  5  6  2  0
  6  7  1  0
  7  8  2  0
  8  9  1  0
  9 10  1  0
  9 11  2  0
  8 12  1  0
 12 13  1  0
 13 14  2  0
 13 15  1  0
 15 16  1  0
 16 17  1  0
 17 18  1  0
 18 19  1  0
 19 20  2  0
 19 21  1  6
 19 22  1  0
 22 23  1  0
 23 24  1  0
 12 25  1  0
 25 26  2  0
 26  3  1  0
 25  6  1  0
  1 27  1  0
  4 28  1  0
  5 29  1  0
  7 30  1  0
 10 31  1  0
 16 32  1  0
 16 33  1  0
 17 34  1  0
 17 35  1  0
 23 36  1  0
 23 37  1  0
 24 38  1  0
 24 39  1  0
 24 40  1  0
 26 41  1  0
M  CHG  2  10  -1  21  -1
M  END
>  <UniqueID>  (30) 
30

>  <SMILES>  (30) 
C#Cc1ccc2cc(C([NH-])=O)n(C(=O)OCCO[P@@](=O)([O-])OCC)c2c1

>  <Energy>  (30) 
70.14914469295836

>  <Genealogy>  (30) 
C#Cc1ccc2cc(C([NH-])=O)n(C(=O)OCCOP(=O)([O-])OCC)c2c1 (protonated)
C#Cc1ccc2cc(C([NH-])=O)n(C(=O)OCCO[P@@](=O)([O-])OCC)c2c1 (chirality)
C#Cc1ccc2cc(C([NH-])=O)n(C(=O)OCCO[P@@](=O)([O-])OCC)c2c1 (3D coordinates assigned)
C#Cc1ccc2cc(C([NH-])=O)n(C(=O)OCCO[P@@](=O)([O-])OCC)c2c1 (optimized conformer: 70.14914469295836 kcal/mol)

>  <smiles>  (30) 
C#Cc1ccc2cc(C(N)=O)n(C(=O)OCCOP(=O)(O)OCC)c2c1

>  <score_type>  (30) 
oracle

>  <origin>  (30) 
adg

>  <m_score__min__energy>  (30) 
-13.369999999999999

>  <m_primary>  (30) 
energy

$$$$
31:0
     RDKit          3D

 40 41  0  0  0  0  0  0  0  0999 V2000
   -1.1920   26.1260  -26.3160 C   0  0  0  0  0  0  0  0  0  0  0  0
   -1.5980   25.0630  -27.6860 S   0  0  0  0  0  0  0  0  0  0  0  0
   -1.2400   25.7500  -28.9730 O   0  0  0  0  0  0  0  0  0  0  0  0
   -3.0770   24.7920  -27.6690 O   0  0  0  0  0  0  0  0  0  0  0  0
   -0.7270   23.5040  -27.5610 C   0  0  0  0  0  0  0  0  0  0  0  0
   -1.3650   22.4200  -28.4280 C   0  0  0  0  0  0  0  0  0  0  0  0
   -1.5420   22.8960  -29.7600 O   0  0  0  0  0  0  0  0  0  0  0  0
   -2.3300   22.2310  -30.7010 C   0  0  0  0  0  0  0  0  0  0  0  0
   -2.3840   20.9700  -30.7080 O   0  0  0  0  0  0  0  0  0  0  0  0
   -3.0500   22.9900  -31.6300 O   0  0  0  0  0  0  0  0  0  0  0  0
   -4.2310   22.5830  -32.2650 C   0  0  0  0  0  0  0  0  0  0  0  0
   -4.1940   22.0070  -33.3870 O   0  0  0  0  0  0  0  0  0  0  0  0
   -5.4950   22.8140  -31.6230 N   0  0  0  0  0  0  0  0  0  0  0  0
   -5.8880   23.9210  -30.9300 C   0  0  0  0  0  0  0  0  0  0  0  0
   -5.0220   25.0680  -30.5780 C   0  0  0  0  0  0  0  0  0  0  0  0
   -3.7420   24.8590  -29.9790 N   0  0  0  0  0  0  0  0  0  0  0  0
   -5.3950   26.2450  -30.8300 O   0  0  0  0  0  0  0  0  0  0  0  0
   -7.2100   23.7880  -30.5090 C   0  0  0  0  0  0  0  0  0  0  0  0
   -7.6180   22.5560  -30.9660 C   0  0  0  0  0  0  0  0  0  0  0  0
   -8.8480   21.9170  -30.8410 C   0  0  0  0  0  0  0  0  0  0  0  0
   -8.9980   20.6540  -31.4400 C   0  0  0  0  0  0  0  0  0  0  0  0
   -7.9270   20.0640  -32.1530 C   0  0  0  0  0  0  0  0  0  0  0  0
   -8.0980   18.7850  -32.7690 N   0  0  0  0  0  0  0  0  0  0  0  0
   -6.6930   20.7390  -32.2580 C   0  0  0  0  0  0  0  0  0  0  0  0
   -6.5650   21.9880  -31.6360 C   0  0  0  0  0  0  0  0  0  0  0  0
   -1.3931   25.5996  -25.3713 H   0  0  0  0  0  0  0  0  0  0  0  0
   -0.1271   26.3970  -26.3653 H   0  0  0  0  0  0  0  0  0  0  0  0
   -1.8051   27.0380  -26.3653 H   0  0  0  0  0  0  0  0  0  0  0  0
    0.3135   23.6517  -27.8858 H   0  0  0  0  0  0  0  0  0  0  0  0
   -0.7739   23.1720  -26.5133 H   0  0  0  0  0  0  0  0  0  0  0  0
   -0.7120   21.5349  -28.4422 H   0  0  0  0  0  0  0  0  0  0  0  0
   -2.3466   22.1557  -28.0078 H   0  0  0  0  0  0  0  0  0  0  0  0
   -3.4220   23.9060  -29.7000 H   0  0  0  0  0  0  0  0  0  0  0  0
   -3.1220   25.6740  -29.7720 H   0  0  0  0  0  0  0  0  0  0  0  0
   -7.8021   24.5145  -29.9331 H   0  0  0  0  0  0  0  0  0  0  0  0
   -9.6771   22.3856  -30.2906 H   0  0  0  0  0  0  0  0  0  0  0  0
   -9.9557   20.1198  -31.3539 H   0  0  0  0  0  0  0  0  0  0  0  0
   -8.0940   17.9110  -32.1970 H   0  0  0  0  0  0  0  0  0  0  0  0
   -8.2250   18.7030  -33.8030 H   0  0  0  0  0  0  0  0  0  0  0  0
   -5.8531   20.2965  -32.8136 H   0  0  0  0  0  0  0  0  0  0  0  0
  1  2  1  0
  2  3  2  0
  2  4  2  0
  2  5  1  0
  5  6  1  0
  6  7  1  0
  7  8  1  0
  8  9  2  0
  8 10  1  0
 10 11  1  0
 11 12  2  0
 11 13  1  0
 13 14  1  0
 14 15  1  0
 15 16  1  0
 15 17  2  0
 14 18  2  0
 18 19  1  0
 19 20  2  0
 20 21  1  0
 21 22  2  0
 22 23  1  0
 22 24  1  0
 24 25  2  0
 25 13  1  0
 25 19  1  0
  1 26  1  0
  1 27  1  0
  1 28  1  0
  5 29  1  0
  5 30  1  0
  6 31  1  0
  6 32  1  0
 16 33  1  0
 16 34  1  0
 18 35  1  0
 20 36  1  0
 21 37  1  0
 23 38  1  0
 23 39  1  0
 24 40  1  0
M  END
>  <UniqueID>  (31) 
31

>  <SMILES>  (31) 
CS(=O)(=O)CCOC(=O)OC(=O)n1c(C(N)=O)cc2ccc(N)cc21

>  <Energy>  (31) 
67.721262842069

>  <Genealogy>  (31) 
CS(=O)(=O)CCOC(=O)OC(=O)n1c(C(N)=O)cc2ccc(N)cc21 (3D coordinates assigned)
CS(=O)(=O)CCOC(=O)OC(=O)n1c(C(N)=O)cc2ccc(N)cc21 (optimized conformer: 67.721262842069 kcal/mol)

>  <smiles>  (31) 
CS(=O)(=O)CCOC(=O)OC(=O)n1c(C(N)=O)cc2ccc(N)cc21

>  <score_type>  (31) 
oracle

>  <origin>  (31) 
adg

>  <m_score__min__energy>  (31) 
-7.9900000000000002

>  <m_primary>  (31) 
energy

$$$$
32:0
     RDKit          3D

 49 52  0  0  0  0  0  0  0  0999 V2000
   -3.4120   17.4700  -33.1640 C   0  0  0  0  0  0  0  0  0  0  0  0
   -4.5470   16.5460  -33.3390 N   0  0  0  0  0  0  0  0  0  0  0  0
   -5.3840   16.4630  -32.1130 C   0  0  0  0  0  0  0  0  0  0  0  0
   -6.7120   17.2360  -32.2120 C   0  0  0  0  0  0  0  0  0  0  0  0
   -6.5530   18.4060  -33.0790 N   0  0  0  0  0  0  0  0  0  0  0  0
   -6.7710   19.7390  -32.5810 C   0  0  0  0  0  0  0  0  0  0  0  0
   -8.0710   20.3070  -32.6040 C   0  0  0  0  0  0  0  0  0  0  0  0
   -8.2870   21.6200  -32.1510 C   0  0  0  0  0  0  0  0  0  0  0  0
   -7.1920   22.3380  -31.6830 C   0  0  0  0  0  0  0  0  0  0  0  0
   -7.1090   23.6340  -31.2250 C   0  0  0  0  0  0  0  0  0  0  0  0
   -5.7620   23.8340  -30.9210 C   0  0  0  0  0  0  0  0  0  0  0  0
   -5.2370   25.0790  -30.3220 C   0  0  0  0  0  0  0  0  0  0  0  0
   -3.8580   25.4110  -30.4700 N   0  0  0  0  0  0  0  0  0  0  0  0
   -5.9990   25.8720  -29.7090 O   0  0  0  0  0  0  0  0  0  0  0  0
   -5.0420   22.7070  -31.1850 N   0  0  0  0  0  0  0  0  0  0  0  0
   -3.6240   22.5130  -31.0840 C   0  0  0  0  0  0  0  0  0  0  0  0
   -2.9010   22.5750  -32.1160 O   0  0  0  0  0  0  0  0  0  0  0  0
   -3.0500   22.2580  -29.8330 O   0  0  0  0  0  0  0  0  0  0  0  0
   -2.7540   23.2410  -28.8790 C   0  0  0  0  0  0  0  0  0  0  0  0
   -1.5090   23.9010  -28.8490 C   0  0  0  0  0  0  0  0  0  0  0  0
   -0.5270   23.5710  -29.7260 F   0  0  0  0  0  0  0  0  0  0  0  0
   -1.2500   24.8660  -27.8690 C   0  0  0  0  0  0  0  0  0  0  0  0
   -0.0500   25.4950  -27.8390 F   0  0  0  0  0  0  0  0  0  0  0  0
   -2.2210   25.1710  -26.9110 C   0  0  0  0  0  0  0  0  0  0  0  0
   -1.9670   26.1050  -25.9610 F   0  0  0  0  0  0  0  0  0  0  0  0
   -3.4500   24.5020  -26.9220 C   0  0  0  0  0  0  0  0  0  0  0  0
   -4.3860   24.7900  -25.9840 F   0  0  0  0  0  0  0  0  0  0  0  0
   -3.7110   23.5360  -27.8990 C   0  0  0  0  0  0  0  0  0  0  0  0
   -4.9050   22.8890  -27.9020 F   0  0  0  0  0  0  0  0  0  0  0  0
   -5.9310   21.8020  -31.6470 C   0  0  0  0  0  0  0  0  0  0  0  0
   -5.6840   20.5040  -32.1070 C   0  0  0  0  0  0  0  0  0  0  0  0
   -6.0590   18.2020  -34.4450 C   0  0  0  0  0  0  0  0  0  0  0  0
   -5.3250   16.8550  -34.5590 C   0  0  0  0  0  0  0  0  0  0  0  0
   -3.2251   17.6221  -32.0907 H   0  0  0  0  0  0  0  0  0  0  0  0
   -2.5149   17.0422  -33.6353 H   0  0  0  0  0  0  0  0  0  0  0  0
   -3.6489   18.4352  -33.6353 H   0  0  0  0  0  0  0  0  0  0  0  0
   -5.6127   15.4044  -31.9206 H   0  0  0  0  0  0  0  0  0  0  0  0
   -4.8055   16.9242  -31.2990 H   0  0  0  0  0  0  0  0  0  0  0  0
   -7.4862   16.5761  -32.6306 H   0  0  0  0  0  0  0  0  0  0  0  0
   -7.0077   17.5716  -31.2070 H   0  0  0  0  0  0  0  0  0  0  0  0
   -8.9179   19.7142  -32.9799 H   0  0  0  0  0  0  0  0  0  0  0  0
   -9.2923   22.0662  -32.1663 H   0  0  0  0  0  0  0  0  0  0  0  0
   -7.9305   24.3581  -31.1209 H   0  0  0  0  0  0  0  0  0  0  0  0
   -3.5370   26.0430  -31.2360 H   0  0  0  0  0  0  0  0  0  0  0  0
   -4.6653   20.0891  -32.0994 H   0  0  0  0  0  0  0  0  0  0  0  0
   -6.9097   18.2104  -35.1423 H   0  0  0  0  0  0  0  0  0  0  0  0
   -5.3563   19.0112  -34.6929 H   0  0  0  0  0  0  0  0  0  0  0  0
   -6.0664   16.0584  -34.7193 H   0  0  0  0  0  0  0  0  0  0  0  0
   -4.6234   16.9194  -35.4037 H   0  0  0  0  0  0  0  0  0  0  0  0
  1  2  1  0
  2  3  1  0
  3  4  1  0
  4  5  1  0
  5  6  1  0
  6  7  2  0
  7  8  1  0
  8  9  2  0
  9 10  1  0
 10 11  2  0
 11 12  1  0
 12 13  1  0
 12 14  2  0
 11 15  1  0
 15 16  1  0
 16 17  2  0
 16 18  1  0
 18 19  1  0
 19 20  2  0
 20 21  1  0
 20 22  1  0
 22 23  1  0
 22 24  2  0
 24 25  1  0
 24 26  1  0
 26 27  1  0
 26 28  2  0
 28 29  1  0
 15 30  1  0
 30 31  2  0
  5 32  1  0
 32 33  1  0
 33  2  1  0
 31  6  1  0
 30  9  1  0
 28 19  1  0
  1 34  1  0
  1 35  1  0
  1 36  1  0
  3 37  1  0
  3 38  1  0
  4 39  1  0
  4 40  1  0
  7 41  1  0
  8 42  1  0
 10 43  1  0
 13 44  1  0
 31 45  1  0
 32 46  1  0
 32 47  1  0
 33 48  1  0
 33 49  1  0
M  CHG  1  13  -1
M  END
>  <UniqueID>  (32) 
32

>  <SMILES>  (32) 
CN1CCN(c2ccc3cc(C([NH-])=O)n(C(=O)Oc4c(F)c(F)c(F)c(F)c4F)c3c2)CC1

>  <Energy>  (32) 
108.36139377090089

>  <Genealogy>  (32) 
CN1CCN(c2ccc3cc(C([NH-])=O)n(C(=O)Oc4c(F)c(F)c(F)c(F)c4F)c3c2)CC1 (protonated)
CN1CCN(c2ccc3cc(C([NH-])=O)n(C(=O)Oc4c(F)c(F)c(F)c(F)c4F)c3c2)CC1 (3D coordinates assigned)
CN1CCN(c2ccc3cc(C([NH-])=O)n(C(=O)Oc4c(F)c(F)c(F)c(F)c4F)c3c2)CC1 (nonaromatic ring conformer: 108.36139377090089 kcal/mol)

>  <smiles>  (32) 
CN1CCN(c2ccc3cc(C(N)=O)n(C(=O)Oc4c(F)c(F)c(F)c(F)c4F)c3c2)CC1

>  <score_type>  (32) 
oracle

>  <origin>  (32) 
adg

>  <m_score__min__energy>  (32) 
-11.51

>  <m_primary>  (32) 
energy

$$$$
33:0
     RDKit          3D

 39 40  0  0  0  0  0  0  0  0999 V2000
   -3.9250   25.6350  -30.9520 N   0  0  0  0  0  0  0  0  0  0  0  0
   -5.2390   25.3600  -30.4720 C   0  0  0  0  0  0  0  0  0  0  0  0
   -5.8110   26.1980  -29.7250 O   0  0  0  0  0  0  0  0  0  0  0  0
   -5.9600   24.1380  -30.8860 C   0  0  0  0  0  0  0  0  0  0  0  0
   -7.3470   24.0190  -30.8510 C   0  0  0  0  0  0  0  0  0  0  0  0
   -7.6200   22.7830  -31.3910 C   0  0  0  0  0  0  0  0  0  0  0  0
   -8.8380   22.1420  -31.5870 C   0  0  0  0  0  0  0  0  0  0  0  0
   -8.8220   20.8500  -32.1360 C   0  0  0  0  0  0  0  0  0  0  0  0
   -7.6000   20.2170  -32.4750 C   0  0  0  0  0  0  0  0  0  0  0  0
   -7.6360   18.8840  -33.0230 N   0  0  0  0  0  0  0  0  0  0  0  0
   -6.5440   17.9140  -32.9280 C   0  0  0  0  0  0  0  0  0  0  0  0
   -5.5230   18.1140  -34.0530 C   0  0  0  0  0  0  0  0  0  0  0  0
   -6.1120   18.8760  -35.1510 N   0  0  0  0  0  0  0  0  0  0  0  0
   -6.3790   20.9020  -32.2520 C   0  0  0  0  0  0  0  0  0  0  0  0
   -6.4270   22.1970  -31.7230 C   0  0  0  0  0  0  0  0  0  0  0  0
   -5.3960   23.0170  -31.4170 N   0  0  0  0  0  0  0  0  0  0  0  0
   -3.9980   22.7110  -31.5340 C   0  0  0  0  0  0  0  0  0  0  0  0
   -3.5860   21.9920  -32.4860 O   0  0  0  0  0  0  0  0  0  0  0  0
   -3.0990   23.1980  -30.5800 O   0  0  0  0  0  0  0  0  0  0  0  0
   -3.2900   23.0200  -29.1810 C   0  0  0  0  0  0  0  0  0  0  0  0
   -2.5170   24.0880  -28.4130 C   0  0  0  0  0  0  0  0  0  0  0  0
   -1.9300   25.0020  -29.3000 O   0  0  0  0  0  0  0  0  0  0  0  0
   -3.0830   25.2890  -30.4400 H   0  0  0  0  0  0  0  0  0  0  0  0
   -8.0704   24.7561  -30.4723 H   0  0  0  0  0  0  0  0  0  0  0  0
   -9.7857   22.6324  -31.3200 H   0  0  0  0  0  0  0  0  0  0  0  0
   -9.7716   20.3213  -32.3055 H   0  0  0  0  0  0  0  0  0  0  0  0
   -8.5000   18.5780  -33.5250 H   0  0  0  0  0  0  0  0  0  0  0  0
   -6.0383   18.0373  -31.9589 H   0  0  0  0  0  0  0  0  0  0  0  0
   -6.9682   16.9032  -33.0194 H   0  0  0  0  0  0  0  0  0  0  0  0
   -4.6533   18.6604  -33.6592 H   0  0  0  0  0  0  0  0  0  0  0  0
   -5.2134   17.1284  -34.4308 H   0  0  0  0  0  0  0  0  0  0  0  0
   -6.8410   19.5060  -34.7440 H   0  0  0  0  0  0  0  0  0  0  0  0
   -6.6180   18.2090  -35.7780 H   0  0  0  0  0  0  0  0  0  0  0  0
   -5.4158   20.4266  -32.4893 H   0  0  0  0  0  0  0  0  0  0  0  0
   -4.3611   23.1042  -28.9452 H   0  0  0  0  0  0  0  0  0  0  0  0
   -2.9227   22.0253  -28.8883 H   0  0  0  0  0  0  0  0  0  0  0  0
   -3.2069   24.6241  -27.7447 H   0  0  0  0  0  0  0  0  0  0  0  0
   -1.7236   23.6010  -27.8270 H   0  0  0  0  0  0  0  0  0  0  0  0
   -2.0830   24.6490  -30.2160 H   0  0  0  0  0  0  0  0  0  0  0  0
  1  2  1  0
  2  3  2  0
  2  4  1  0
  4  5  2  0
  5  6  1  0
  6  7  2  0
  7  8  1  0
  8  9  2  0
  9 10  1  0
 10 11  1  0
 11 12  1  0
 12 13  1  0
  9 14  1  0
 14 15  2  0
 15 16  1  0
 16 17  1  0
 17 18  2  0
 17 19  1  0
 19 20  1  0
 20 21  1  0
 21 22  1  0
 16  4  1  0
 15  6  1  0
  1 23  1  0
  5 24  1  0
  7 25  1  0
  8 26  1  0
 10 27  1  0
 11 28  1  0
 11 29  1  0
 12 30  1  0
 12 31  1  0
 13 32  1  0
 13 33  1  0
 14 34  1  0
 20 35  1  0
 20 36  1  0
 21 37  1  0
 21 38  1  0
 22 39  1  0
M  CHG  1   1  -1
M  END
>  <UniqueID>  (33) 
33

>  <SMILES>  (33) 
[NH-]C(=O)c1cc2ccc(NCCN)cc2n1C(=O)OCCO

>  <Energy>  (33) 
69.78680344993744

>  <Genealogy>  (33) 
[NH-]C(=O)c1cc2ccc(NCCN)cc2n1C(=O)OCCO (protonated)
[NH-]C(=O)c1cc2ccc(NCCN)cc2n1C(=O)OCCO (3D coordinates assigned)
[NH-]C(=O)c1cc2ccc(NCCN)cc2n1C(=O)OCCO (optimized conformer: 69.78680344993744 kcal/mol)

>  <smiles>  (33) 
NCCNc1ccc2cc(C(N)=O)n(C(=O)OCCO)c2c1

>  <score_type>  (33) 
oracle

>  <origin>  (33) 
adg

>  <m_score__min__energy>  (33) 
-10.119999999999999

>  <m_primary>  (33) 
energy

$$$$
34:0
     RDKit          3D

 46 47  0  0  0  0  0  0  0  0999 V2000
   -6.4870   18.2120  -33.9690 C   0  0  0  0  0  0  0  0  0  0  0  0
   -6.6760   19.4750  -33.1850 C   0  0  0  0  0  0  0  0  0  0  0  0
   -7.9560   19.8130  -32.6810 C   0  0  0  0  0  0  0  0  0  0  0  0
   -8.1360   20.9670  -31.9010 C   0  0  0  0  0  0  0  0  0  0  0  0
   -7.0200   21.7580  -31.6400 C   0  0  0  0  0  0  0  0  0  0  0  0
   -6.9060   22.9040  -30.8850 C   0  0  0  0  0  0  0  0  0  0  0  0
   -5.5570   23.2520  -30.9450 C   0  0  0  0  0  0  0  0  0  0  0  0
   -4.9910   24.4760  -30.3340 C   0  0  0  0  0  0  0  0  0  0  0  0
   -5.2330   24.7850  -28.9600 N   0  0  0  0  0  0  0  0  0  0  0  0
   -4.3120   25.2740  -31.0320 O   0  0  0  0  0  0  0  0  0  0  0  0
   -4.8670   22.3580  -31.7060 N   0  0  0  0  0  0  0  0  0  0  0  0
   -3.4500   22.3210  -31.9400 C   0  0  0  0  0  0  0  0  0  0  0  0
   -3.0020   21.8650  -33.0270 O   0  0  0  0  0  0  0  0  0  0  0  0
   -2.5720   22.7690  -30.9460 O   0  0  0  0  0  0  0  0  0  0  0  0
   -1.6880   21.9070  -30.2330 C   0  0  0  0  0  0  0  0  0  0  0  0
   -2.4400   21.1220  -29.1940 C   0  0  0  0  0  0  0  0  0  0  0  0
   -3.4120   20.4110  -29.5710 O   0  0  0  0  0  0  0  0  0  0  0  0
   -2.1060   21.1860  -27.7890 N   0  0  0  0  0  0  0  0  0  0  0  0
   -2.1120   19.9440  -27.0100 C   0  0  0  0  0  0  0  0  0  0  0  0
   -1.7070   22.4400  -27.1260 C   0  0  0  0  0  0  0  0  0  0  0  0
   -2.5650   23.6220  -27.6040 C   0  0  0  0  0  0  0  0  0  0  0  0
   -1.7300   24.7650  -28.1930 C   0  0  0  0  0  0  0  0  0  0  0  0
   -2.3480   25.3030  -29.3310 O   0  0  0  0  0  0  0  0  0  0  0  0
   -5.7760   21.4480  -32.1230 C   0  0  0  0  0  0  0  0  0  0  0  0
   -5.5650   20.2930  -32.8860 C   0  0  0  0  0  0  0  0  0  0  0  0
   -6.3605   17.3663  -33.2770 H   0  0  0  0  0  0  0  0  0  0  0  0
   -7.3692   18.0383  -34.6028 H   0  0  0  0  0  0  0  0  0  0  0  0
   -5.5926   18.3042  -34.6028 H   0  0  0  0  0  0  0  0  0  0  0  0
   -8.8172   19.1655  -32.9026 H   0  0  0  0  0  0  0  0  0  0  0  0
   -9.1274   21.2375  -31.5086 H   0  0  0  0  0  0  0  0  0  0  0  0
   -7.7081   23.4323  -30.3488 H   0  0  0  0  0  0  0  0  0  0  0  0
   -4.8610   25.6700  -28.5500 H   0  0  0  0  0  0  0  0  0  0  0  0
   -5.7420   24.1220  -28.3360 H   0  0  0  0  0  0  0  0  0  0  0  0
   -1.2139   21.2102  -30.9399 H   0  0  0  0  0  0  0  0  0  0  0  0
   -0.9233   22.5184  -29.7317 H   0  0  0  0  0  0  0  0  0  0  0  0
   -2.1108   20.1844  -25.9366 H   0  0  0  0  0  0  0  0  0  0  0  0
   -3.0130   19.3622  -27.2545 H   0  0  0  0  0  0  0  0  0  0  0  0
   -1.2167   19.3535  -27.2545 H   0  0  0  0  0  0  0  0  0  0  0  0
   -1.8292   22.3251  -26.0389 H   0  0  0  0  0  0  0  0  0  0  0  0
   -0.6571   22.6481  -27.3799 H   0  0  0  0  0  0  0  0  0  0  0  0
   -3.2605   23.2613  -28.3761 H   0  0  0  0  0  0  0  0  0  0  0  0
   -3.0973   24.0196  -26.7273 H   0  0  0  0  0  0  0  0  0  0  0  0
   -1.6180   25.5557  -27.4365 H   0  0  0  0  0  0  0  0  0  0  0  0
   -0.7462   24.3675  -28.4829 H   0  0  0  0  0  0  0  0  0  0  0  0
   -2.5940   24.5350  -29.9110 H   0  0  0  0  0  0  0  0  0  0  0  0
   -4.5586   20.0296  -33.2435 H   0  0  0  0  0  0  0  0  0  0  0  0
  1  2  1  0
  2  3  2  0
  3  4  1  0
  4  5  2  0
  5  6  1  0
  6  7  2  0
  7  8  1  0
  8  9  1  0
  8 10  2  0
  7 11  1  0
 11 12  1  0
 12 13  2  0
 12 14  1  0
 14 15  1  0
 15 16  1  0
 16 17  2  0
 16 18  1  0
 18 19  1  0
 18 20  1  0
 20 21  1  0
 21 22  1  0
 22 23  1  0
 11 24  1  0
 24 25  2  0
 25  2  1  0
 24  5  1  0
  1 26  1  0
  1 27  1  0
  1 28  1  0
  3 29  1  0
  4 30  1  0
  6 31  1  0
  9 32  1  0
  9 33  1  0
 15 34  1  0
 15 35  1  0
 19 36  1  0
 19 37  1  0
 19 38  1  0
 20 39  1  0
 20 40  1  0
 21 41  1  0
 21 42  1  0
 22 43  1  0
 22 44  1  0
 23 45  1  0
 25 46  1  0
M  END
>  <UniqueID>  (34) 
34

>  <SMILES>  (34) 
Cc1ccc2cc(C(N)=O)n(C(=O)OCC(=O)N(C)CCCO)c2c1

>  <Energy>  (34) 
76.38194934273143

>  <Genealogy>  (34) 
Cc1ccc2cc(C(N)=O)n(C(=O)OCC(=O)N(C)CCCO)c2c1 (3D coordinates assigned)
Cc1ccc2cc(C(N)=O)n(C(=O)OCC(=O)N(C)CCCO)c2c1 (optimized conformer: 76.38194934273143 kcal/mol)

>  <smiles>  (34) 
Cc1ccc2cc(C(N)=O)n(C(=O)OCC(=O)N(C)CCCO)c2c1

>  <score_type>  (34) 
oracle

>  <origin>  (34) 
adg

>  <m_score__min__energy>  (34) 
-9.1600000000000001

>  <m_primary>  (34) 
energy

$$$$
35:0
     RDKit          3D

 71 74  0  0  0  0  0  0  0  0999 V2000
    0.5120   20.0360  -33.7200 C   0  0  0  0  0  0  0  0  0  0  0  0
   -0.3810   18.8870  -33.2240 C   0  0  0  0  0  0  0  0  0  0  0  0
   -1.8400   19.1800  -33.6210 C   0  0  0  0  0  0  0  0  0  0  0  0
   -0.2460   18.7740  -31.6950 C   0  0  0  0  0  0  0  0  0  0  0  0
    0.0910   17.6870  -33.8520 O   0  0  0  0  0  0  0  0  0  0  0  0
   -0.5590   16.9630  -34.8670 C   0  0  0  0  0  0  0  0  0  0  0  0
   -0.3380   17.2160  -36.0830 O   0  0  0  0  0  0  0  0  0  0  0  0
   -1.5050   15.9440  -34.4990 N   0  0  0  0  0  0  0  0  0  0  0  0
   -2.1200   15.0560  -35.4900 C   0  0  0  0  0  0  0  0  0  0  0  0
   -3.6400   15.0880  -35.3080 C   0  0  0  0  0  0  0  0  0  0  0  0
   -4.0710   14.7960  -33.9150 N   0  0  0  0  0  0  0  0  0  0  0  0
   -5.3410   15.4790  -33.5470 C   0  0  0  0  0  0  0  0  0  0  0  0
   -5.3220   15.9860  -32.0820 C   0  0  0  0  0  0  0  0  0  0  0  0
   -6.3210   17.1270  -31.8560 C   0  0  0  0  0  0  0  0  0  0  0  0
   -6.0510   18.2520  -32.7710 N   0  0  0  0  0  0  0  0  0  0  0  0
   -6.3700   19.6120  -32.3830 C   0  0  0  0  0  0  0  0  0  0  0  0
   -7.7030   20.0970  -32.4540 C   0  0  0  0  0  0  0  0  0  0  0  0
   -8.0080   21.4240  -32.1090 C   0  0  0  0  0  0  0  0  0  0  0  0
   -6.9680   22.2510  -31.7010 C   0  0  0  0  0  0  0  0  0  0  0  0
   -6.9780   23.5860  -31.3660 C   0  0  0  0  0  0  0  0  0  0  0  0
   -5.6530   23.9060  -31.0800 C   0  0  0  0  0  0  0  0  0  0  0  0
   -5.2210   25.2390  -30.6150 C   0  0  0  0  0  0  0  0  0  0  0  0
   -3.8830   25.6710  -30.8470 N   0  0  0  0  0  0  0  0  0  0  0  0
   -6.0260   26.0140  -30.0350 O   0  0  0  0  0  0  0  0  0  0  0  0
   -4.8530   22.8100  -31.2340 N   0  0  0  0  0  0  0  0  0  0  0  0
   -3.4190   22.7380  -31.1400 C   0  0  0  0  0  0  0  0  0  0  0  0
   -2.7480   22.2380  -32.0850 O   0  0  0  0  0  0  0  0  0  0  0  0
   -2.7760   23.1770  -29.9770 O   0  0  0  0  0  0  0  0  0  0  0  0
   -1.3650   23.1200  -29.8070 C   0  0  0  0  0  0  0  0  0  0  0  0
   -0.8810   24.4190  -29.2550 C   0  0  0  0  0  0  0  0  0  0  0  0
   -1.5930   25.4540  -29.3520 O   0  0  0  0  0  0  0  0  0  0  0  0
    0.3480   24.4880  -28.6120 O   0  0  0  0  0  0  0  0  0  0  0  0
   -5.6780   21.8060  -31.6110 C   0  0  0  0  0  0  0  0  0  0  0  0
   -5.3440   20.4920  -31.9520 C   0  0  0  0  0  0  0  0  0  0  0  0
   -5.4920   17.9880  -34.1090 C   0  0  0  0  0  0  0  0  0  0  0  0
   -5.7830   16.5580  -34.5720 C   0  0  0  0  0  0  0  0  0  0  0  0
   -2.9920   14.7690  -32.8870 C   0  0  0  0  0  0  0  0  0  0  0  0
   -1.9080   15.8370  -33.0950 C   0  0  0  0  0  0  0  0  0  0  0  0
    0.9303   20.5742  -32.8567 H   0  0  0  0  0  0  0  0  0  0  0  0
    1.3315   19.6268  -34.3291 H   0  0  0  0  0  0  0  0  0  0  0  0
   -0.0868   20.7291  -34.3291 H   0  0  0  0  0  0  0  0  0  0  0  0
   -2.4494   19.3024  -32.7135 H   0  0  0  0  0  0  0  0  0  0  0  0
   -1.8795   20.1040  -34.2165 H   0  0  0  0  0  0  0  0  0  0  0  0
   -2.2331   18.3429  -34.2165 H   0  0  0  0  0  0  0  0  0  0  0  0
   -1.0039   19.4084  -31.2121 H   0  0  0  0  0  0  0  0  0  0  0  0
   -0.3953   17.7277  -31.3901 H   0  0  0  0  0  0  0  0  0  0  0  0
    0.7577   19.1052  -31.3901 H   0  0  0  0  0  0  0  0  0  0  0  0
   -1.8620   15.3982  -36.5031 H   0  0  0  0  0  0  0  0  0  0  0  0
   -1.7494   14.0296  -35.3520 H   0  0  0  0  0  0  0  0  0  0  0  0
   -4.0038   16.0888  -35.5837 H   0  0  0  0  0  0  0  0  0  0  0  0
   -4.0622   14.3022  -35.9516 H   0  0  0  0  0  0  0  0  0  0  0  0
   -6.1300   14.7142  -33.5978 H   0  0  0  0  0  0  0  0  0  0  0  0
   -5.5795   15.1510  -31.4139 H   0  0  0  0  0  0  0  0  0  0  0  0
   -4.3136   16.3701  -31.8685 H   0  0  0  0  0  0  0  0  0  0  0  0
   -7.3403   16.7540  -32.0348 H   0  0  0  0  0  0  0  0  0  0  0  0
   -6.2186   17.4838  -30.8205 H   0  0  0  0  0  0  0  0  0  0  0  0
   -8.5080   19.4238  -32.7839 H   0  0  0  0  0  0  0  0  0  0  0  0
   -9.0411   21.7983  -32.1603 H   0  0  0  0  0  0  0  0  0  0  0  0
   -7.8482   24.2579  -31.3315 H   0  0  0  0  0  0  0  0  0  0  0  0
   -3.0890   24.9940  -30.8250 H   0  0  0  0  0  0  0  0  0  0  0  0
   -1.1116   22.3075  -29.1101 H   0  0  0  0  0  0  0  0  0  0  0  0
   -0.8846   22.9309  -30.7783 H   0  0  0  0  0  0  0  0  0  0  0  0
   -4.3019   20.1458  -31.8872 H   0  0  0  0  0  0  0  0  0  0  0  0
   -5.9372   18.6927  -34.8268 H   0  0  0  0  0  0  0  0  0  0  0  0
   -4.4008   18.1160  -34.0562 H   0  0  0  0  0  0  0  0  0  0  0  0
   -6.8657   16.4585  -34.7388 H   0  0  0  0  0  0  0  0  0  0  0  0
   -5.2048   16.3894  -35.4924 H   0  0  0  0  0  0  0  0  0  0  0  0
   -3.4501   14.9281  -31.8997 H   0  0  0  0  0  0  0  0  0  0  0  0
   -2.4964   13.7904  -32.9696 H   0  0  0  0  0  0  0  0  0  0  0  0
   -2.2996   16.8098  -32.7629 H   0  0  0  0  0  0  0  0  0  0  0  0
   -1.0245   15.5427  -32.5095 H   0  0  0  0  0  0  0  0  0  0  0  0
  1  2  1  0
  2  3  1  0
  2  4  1  0
  2  5  1  0
  5  6  1  0
  6  7  2  0
  6  8  1  0
  8  9  1  0
  9 10  1  0
 10 11  1  0
 11 12  1  0
 12 13  1  0
 13 14  1  0
 14 15  1  0
 15 16  1  0
 16 17  2  0
 17 18  1  0
 18 19  2  0
 19 20  1  0
 20 21  2  0
 21 22  1  0
 22 23  1  0
 22 24  2  0
 21 25  1  0
 25 26  1  0
 26 27  2  0
 26 28  1  0
 28 29  1  0
 29 30  1  0
 30 31  2  0
 30 32  1  0
 25 33  1  0
 33 34  2  0
 15 35  1  0
 35 36  1  0
 11 37  1  0
 37 38  1  0
 38  8  1  0
 36 12  1  0
 34 16  1  0
 33 19  1  0
  1 39  1  0
  1 40  1  0
  1 41  1  0
  3 42  1  0
  3 43  1  0
  3 44  1  0
  4 45  1  0
  4 46  1  0
  4 47  1  0
  9 48  1  0
  9 49  1  0
 10 50  1  0
 10 51  1  0
 12 52  1  0
 13 53  1  0
 13 54  1  0
 14 55  1  0
 14 56  1  0
 17 57  1  0
 18 58  1  0
 20 59  1  0
 23 60  1  0
 29 61  1  0
 29 62  1  0
 34 63  1  0
 35 64  1  0
 35 65  1  0
 36 66  1  0
 36 67  1  0
 37 68  1  0
 37 69  1  0
 38 70  1  0
 38 71  1  0
M  CHG  2  23  -1  32  -1
M  END
>  <UniqueID>  (35) 
35

>  <SMILES>  (35) 
CC(C)(C)OC(=O)N1CCN(C2CCN(c3ccc4cc(C([NH-])=O)n(C(=O)OCC(=O)[O-])c4c3)CC2)CC1

>  <Energy>  (35) 
122.59636722924427

>  <Genealogy>  (35) 
CC(C)(C)OC(=O)N1CCN(C2CCN(c3ccc4cc(C([NH-])=O)n(C(=O)OCC(=O)[O-])c4c3)CC2)CC1 (protonated)
CC(C)(C)OC(=O)N1CCN(C2CCN(c3ccc4cc(C([NH-])=O)n(C(=O)OCC(=O)[O-])c4c3)CC2)CC1 (3D coordinates assigned)
CC(C)(C)OC(=O)N1CCN(C2CCN(c3ccc4cc(C([NH-])=O)n(C(=O)OCC(=O)[O-])c4c3)CC2)CC1 (nonaromatic ring conformer: 122.59636722924427 kcal/mol)

>  <smiles>  (35) 
CC(C)(C)OC(=O)N1CCN(C2CCN(c3ccc4cc(C(N)=O)n(C(=O)OCC(=O)O)c4c3)CC2)CC1

>  <score_type>  (35) 
oracle

>  <origin>  (35) 
adg

>  <m_score__min__energy>  (35) 
-14.02

>  <m_primary>  (35) 
energy

$$$$
36:0
     RDKit          3D

 34 35  0  0  0  0  0  0  0  0999 V2000
   -1.3930   25.9570  -28.9540 N   0  0  0  0  0  0  0  0  0  0  0  0
   -0.7760   24.6730  -28.9330 C   0  0  0  0  0  0  0  0  0  0  0  0
    0.3250   24.5280  -28.3340 O   0  0  0  0  0  0  0  0  0  0  0  0
   -1.3760   23.5280  -29.6480 C   0  0  0  0  0  0  0  0  0  0  0  0
   -0.6480   22.4100  -30.0470 C   0  0  0  0  0  0  0  0  0  0  0  0
   -1.5360   21.6270  -30.7480 C   0  0  0  0  0  0  0  0  0  0  0  0
   -1.3490   20.3930  -31.3610 C   0  0  0  0  0  0  0  0  0  0  0  0
   -2.4540   19.7950  -31.9890 C   0  0  0  0  0  0  0  0  0  0  0  0
   -3.7210   20.4300  -31.9920 C   0  0  0  0  0  0  0  0  0  0  0  0
   -4.8300   19.7750  -32.6370 N   0  0  0  0  0  0  0  0  0  0  0  0
   -4.9940   18.3190  -32.6660 C   0  0  0  0  0  0  0  0  0  0  0  0
   -6.3100   17.8970  -33.3560 C   0  0  1  0  0  0  0  0  0  0  0  0
   -7.2300   18.9600  -33.3220 O   0  0  0  0  0  0  0  0  0  0  0  0
   -6.0950   17.4430  -34.8140 C   0  0  0  0  0  0  0  0  0  0  0  0
   -6.0890   18.5350  -35.6940 O   0  0  0  0  0  0  0  0  0  0  0  0
   -3.8710   21.6860  -31.3520 C   0  0  0  0  0  0  0  0  0  0  0  0
   -2.7470   22.2670  -30.7510 C   0  0  0  0  0  0  0  0  0  0  0  0
   -2.6680   23.4350  -30.0760 N   0  0  0  0  0  0  0  0  0  0  0  0
   -3.7540   24.3340  -29.8020 C   0  0  0  0  0  0  0  0  0  0  0  0
   -4.6060   24.0530  -28.9180 O   0  0  0  0  0  0  0  0  0  0  0  0
   -3.8890   25.5130  -30.5260 O   0  0  0  0  0  0  0  0  0  0  0  0
   -2.4330   26.0520  -28.9650 H   0  0  0  0  0  0  0  0  0  0  0  0
    0.4122   22.1978  -29.8447 H   0  0  0  0  0  0  0  0  0  0  0  0
   -0.3656   19.9001  -31.3543 H   0  0  0  0  0  0  0  0  0  0  0  0
   -2.3343   18.8206  -32.4852 H   0  0  0  0  0  0  0  0  0  0  0  0
   -5.5350   20.3750  -33.1200 H   0  0  0  0  0  0  0  0  0  0  0  0
   -4.1486   17.8775  -33.2140 H   0  0  0  0  0  0  0  0  0  0  0  0
   -5.0260   17.9606  -31.6265 H   0  0  0  0  0  0  0  0  0  0  0  0
   -6.7056   17.0348  -32.7991 H   0  0  0  0  0  0  0  0  0  0  0  0
   -7.6050   19.0620  -34.2360 H   0  0  0  0  0  0  0  0  0  0  0  0
   -5.1306   16.9190  -34.8872 H   0  0  0  0  0  0  0  0  0  0  0  0
   -6.9236   16.7763  -35.0949 H   0  0  0  0  0  0  0  0  0  0  0  0
   -6.7970   19.1560  -35.3800 H   0  0  0  0  0  0  0  0  0  0  0  0
   -4.8472   22.1925  -31.3279 H   0  0  0  0  0  0  0  0  0  0  0  0
  1  2  1  0
  2  3  2  0
  2  4  1  0
  4  5  2  0
  5  6  1  0
  6  7  2  0
  7  8  1  0
  8  9  2  0
  9 10  1  0
 10 11  1  0
 11 12  1  0
 12 13  1  0
 12 14  1  0
 14 15  1  0
  9 16  1  0
 16 17  2  0
 17 18  1  0
 18 19  1  0
 19 20  2  0
 19 21  1  0
 18  4  1  0
 17  6  1  0
  1 22  1  0
  5 23  1  0
  7 24  1  0
  8 25  1  0
 10 26  1  0
 11 27  1  0
 11 28  1  0
 12 29  1  1
 13 30  1  0
 14 31  1  0
 14 32  1  0
 15 33  1  0
 16 34  1  0
M  CHG  2   1  -1  21  -1
M  END
>  <UniqueID>  (36) 
36

>  <SMILES>  (36) 
[NH-]C(=O)c1cc2ccc(NC[C@@H](O)CO)cc2n1C(=O)[O-]

>  <Energy>  (36) 
72.09542711785116

>  <Genealogy>  (36) 
[NH-]C(=O)c1cc2ccc(NC[C@@H](O)CO)cc2n1C(=O)[O-] (protonated)
[NH-]C(=O)c1cc2ccc(NC[C@@H](O)CO)cc2n1C(=O)[O-] (3D coordinates assigned)
[NH-]C(=O)c1cc2ccc(NC[C@@H](O)CO)cc2n1C(=O)[O-] (optimized conformer: 72.09542711785116 kcal/mol)

>  <smiles>  (36) 
NC(=O)c1cc2ccc(NC[C@@H](O)CO)cc2n1C(=O)O

>  <score_type>  (36) 
oracle

>  <origin>  (36) 
adg

>  <m_score__min__energy>  (36) 
-10.31

>  <m_primary>  (36) 
energy

$$$$
37:0
     RDKit          3D

 28 29  0  0  0  0  0  0  0  0999 V2000
   -1.8030   25.3050  -29.3230 N   0  0  0  0  0  0  0  0  0  0  0  0
   -1.5490   23.9030  -29.3380 C   0  0  0  0  0  0  0  0  0  0  0  0
   -0.7150   23.4190  -28.5270 O   0  0  0  0  0  0  0  0  0  0  0  0
   -2.2900   23.0050  -30.2480 C   0  0  0  0  0  0  0  0  0  0  0  0
   -1.7880   21.7850  -30.6950 C   0  0  0  0  0  0  0  0  0  0  0  0
   -2.8040   21.2210  -31.4310 C   0  0  0  0  0  0  0  0  0  0  0  0
   -2.8480   20.0060  -32.1110 C   0  0  0  0  0  0  0  0  0  0  0  0
   -4.0240   19.6860  -32.8100 C   0  0  0  0  0  0  0  0  0  0  0  0
   -5.1190   20.5850  -32.8310 C   0  0  0  0  0  0  0  0  0  0  0  0
   -6.3800   20.2200  -33.5620 C   0  0  0  0  0  0  0  0  0  0  0  0
   -7.1930   18.8110  -32.7480 P   0  0  2  0  0  0  0  0  0  0  0  0
   -6.6950   18.6870  -31.3260 O   0  0  0  0  0  0  0  0  0  0  0  0
   -6.8290   17.3920  -33.5920 O   0  0  0  0  0  0  0  0  0  0  0  0
   -8.8700   19.0430  -32.7370 O   0  0  0  0  0  0  0  0  0  0  0  0
   -5.0410   21.8040  -32.1210 C   0  0  0  0  0  0  0  0  0  0  0  0
   -3.8650   22.0890  -31.4170 C   0  0  0  0  0  0  0  0  0  0  0  0
   -3.5640   23.1930  -30.6960 N   0  0  0  0  0  0  0  0  0  0  0  0
   -4.3910   24.3560  -30.5320 C   0  0  0  0  0  0  0  0  0  0  0  0
   -5.5790   24.2410  -30.1340 O   0  0  0  0  0  0  0  0  0  0  0  0
   -3.8950   25.6180  -30.8390 O   0  0  0  0  0  0  0  0  0  0  0  0
   -2.7800   25.6740  -29.3220 H   0  0  0  0  0  0  0  0  0  0  0  0
   -0.7911   21.3625  -30.5007 H   0  0  0  0  0  0  0  0  0  0  0  0
   -1.9891   19.3188  -32.1010 H   0  0  0  0  0  0  0  0  0  0  0  0
   -4.0953   18.7282  -33.3462 H   0  0  0  0  0  0  0  0  0  0  0  0
   -7.0625   21.0827  -33.5622 H   0  0  0  0  0  0  0  0  0  0  0  0
   -6.1275   19.9404  -34.5955 H   0  0  0  0  0  0  0  0  0  0  0  0
   -9.0910   19.3220  -33.6610 H   0  0  0  0  0  0  0  0  0  0  0  0
   -5.8833   22.5115  -32.1214 H   0  0  0  0  0  0  0  0  0  0  0  0
  1  2  1  0
  2  3  2  0
  2  4  1  0
  4  5  2  0
  5  6  1  0
  6  7  2  0
  7  8  1  0
  8  9  2  0
  9 10  1  0
 10 11  1  0
 11 12  2  0
 11 13  1  6
 11 14  1  0
  9 15  1  0
 15 16  2  0
 16 17  1  0
 17 18  1  0
 18 19  2  0
 18 20  1  0
 17  4  1  0
 16  6  1  0
  1 21  1  0
  5 22  1  0
  7 23  1  0
  8 24  1  0
 10 25  1  0
 10 26  1  0
 14 27  1  0
 15 28  1  0
M  CHG  3   1  -1  13  -1  20  -1
M  END
>  <UniqueID>  (37) 
37

>  <SMILES>  (37) 
[NH-]C(=O)c1cc2ccc(C[P@](=O)([O-])O)cc2n1C(=O)[O-]

>  <Energy>  (37) 
62.247915827503505

>  <Genealogy>  (37) 
[NH-]C(=O)c1cc2ccc(CP(=O)([O-])O)cc2n1C(=O)[O-] (protonated)
[NH-]C(=O)c1cc2ccc(C[P@](=O)([O-])O)cc2n1C(=O)[O-] (chirality)
[NH-]C(=O)c1cc2ccc(C[P@](=O)([O-])O)cc2n1C(=O)[O-] (3D coordinates assigned)
[NH-]C(=O)c1cc2ccc(C[P@](=O)([O-])O)cc2n1C(=O)[O-] (optimized conformer: 62.247915827503505 kcal/mol)

>  <smiles>  (37) 
NC(=O)c1cc2ccc(CP(=O)(O)O)cc2n1C(=O)O

>  <score_type>  (37) 
oracle

>  <origin>  (37) 
adg

>  <m_score__min__energy>  (37) 
-10.289999999999999

>  <m_primary>  (37) 
energy

$$$$
38:0
     RDKit          3D

 44 45  0  0  0  0  0  0  0  0999 V2000
   -7.2090   17.2280  -33.1070 C   0  0  0  0  0  0  0  0  0  0  0  0
   -7.2610   18.3790  -32.7560 C   0  0  0  0  0  0  0  0  0  0  0  0
   -7.3220   19.7550  -32.3360 C   0  0  0  0  0  0  0  0  0  0  0  0
   -8.5700   20.4170  -32.2730 C   0  0  0  0  0  0  0  0  0  0  0  0
   -8.6410   21.7640  -31.8780 C   0  0  0  0  0  0  0  0  0  0  0  0
   -7.4530   22.4110  -31.5470 C   0  0  0  0  0  0  0  0  0  0  0  0
   -7.2310   23.7130  -31.1600 C   0  0  0  0  0  0  0  0  0  0  0  0
   -5.8550   23.8130  -30.9700 C   0  0  0  0  0  0  0  0  0  0  0  0
   -5.1920   25.0330  -30.4630 C   0  0  0  0  0  0  0  0  0  0  0  0
   -3.8580   25.3570  -30.8460 N   0  0  0  0  0  0  0  0  0  0  0  0
   -5.7950   25.7740  -29.6400 O   0  0  0  0  0  0  0  0  0  0  0  0
   -5.2470   22.6230  -31.2400 N   0  0  0  0  0  0  0  0  0  0  0  0
   -3.8410   22.3290  -31.2460 C   0  0  0  0  0  0  0  0  0  0  0  0
   -3.1670   22.4990  -32.2990 O   0  0  0  0  0  0  0  0  0  0  0  0
   -3.2320   21.8320  -30.0890 O   0  0  0  0  0  0  0  0  0  0  0  0
   -2.5760   22.6640  -29.1380 C   0  0  1  0  0  0  0  0  0  0  0  0
   -1.7220   21.7890  -28.2260 C   0  0  0  0  0  0  0  0  0  0  0  0
   -1.7540   23.6070  -29.8250 O   0  0  0  0  0  0  0  0  0  0  0  0
   -0.9090   24.5120  -29.1760 C   0  0  0  0  0  0  0  0  0  0  0  0
    0.2610   24.1750  -28.8430 O   0  0  0  0  0  0  0  0  0  0  0  0
   -1.3880   25.8290  -28.8920 N   0  0  0  0  0  0  0  0  0  0  0  0
   -1.1660   26.5170  -27.6240 C   0  0  0  0  0  0  0  0  0  0  0  0
   -1.4220   25.5720  -26.4480 C   0  0  0  0  0  0  0  0  0  0  0  0
   -2.7600   25.6950  -26.0070 O   0  0  0  0  0  0  0  0  0  0  0  0
   -3.6040   24.8400  -26.7460 C   0  0  0  0  0  0  0  0  0  0  0  0
   -6.2390   21.7740  -31.5880 C   0  0  0  0  0  0  0  0  0  0  0  0
   -6.1370   20.4380  -31.9970 C   0  0  0  0  0  0  0  0  0  0  0  0
   -7.1615   16.1768  -33.4276 H   0  0  0  0  0  0  0  0  0  0  0  0
   -9.4905   19.8746  -32.5346 H   0  0  0  0  0  0  0  0  0  0  0  0
   -9.6054   22.2910  -31.8317 H   0  0  0  0  0  0  0  0  0  0  0  0
   -7.9814   24.5065  -31.0286 H   0  0  0  0  0  0  0  0  0  0  0  0
   -3.0730   25.2960  -30.1600 H   0  0  0  0  0  0  0  0  0  0  0  0
   -3.3159   23.2091  -28.5336 H   0  0  0  0  0  0  0  0  0  0  0  0
   -1.9498   22.0224  -27.1755 H   0  0  0  0  0  0  0  0  0  0  0  0
   -1.9429   20.7295  -28.4224 H   0  0  0  0  0  0  0  0  0  0  0  0
   -0.6574   21.9841  -28.4224 H   0  0  0  0  0  0  0  0  0  0  0  0
   -0.1259   26.8725  -27.5826 H   0  0  0  0  0  0  0  0  0  0  0  0
   -1.8610   27.3668  -27.5546 H   0  0  0  0  0  0  0  0  0  0  0  0
   -1.2383   24.5356  -26.7676 H   0  0  0  0  0  0  0  0  0  0  0  0
   -0.7453   25.8348  -25.6215 H   0  0  0  0  0  0  0  0  0  0  0  0
   -4.2051   24.2310  -26.0548 H   0  0  0  0  0  0  0  0  0  0  0  0
   -4.2717   25.4420  -27.3798 H   0  0  0  0  0  0  0  0  0  0  0  0
   -2.9934   24.1801  -27.3798 H   0  0  0  0  0  0  0  0  0  0  0  0
   -5.1596   19.9364  -32.0520 H   0  0  0  0  0  0  0  0  0  0  0  0
  1  2  3  0
  2  3  1  0
  3  4  2  0
  4  5  1  0
  5  6  2  0
  6  7  1  0
  7  8  2  0
  8  9  1  0
  9 10  1  0
  9 11  2  0
  8 12  1  0
 12 13  1  0
 13 14  2  0
 13 15  1  0
 15 16  1  0
 16 17  1  0
 16 18  1  0
 18 19  1  0
 19 20  2  0
 19 21  1  0
 21 22  1  0
 22 23  1  0
 23 24  1  0
 24 25  1  0
 12 26  1  0
 26 27  2  0
 27  3  1  0
 26  6  1  0
  1 28  1  0
  4 29  1  0
  5 30  1  0
  7 31  1  0
 10 32  1  0
 16 33  1  1
 17 34  1  0
 17 35  1  0
 17 36  1  0
 22 37  1  0
 22 38  1  0
 23 39  1  0
 23 40  1  0
 25 41  1  0
 25 42  1  0
 25 43  1  0
 27 44  1  0
M  CHG  2  10  -1  21  -1
M  END
>  <UniqueID>  (38) 
38

>  <SMILES>  (38) 
C#Cc1ccc2cc(C([NH-])=O)n(C(=O)O[C@@H](C)OC(=O)[N-]CCOC)c2c1

>  <Energy>  (38) 
74.26437186006679

>  <Genealogy>  (38) 
C#Cc1ccc2cc(C([NH-])=O)n(C(=O)OC(C)OC(=O)[N-]CCOC)c2c1 (protonated)
C#Cc1ccc2cc(C([NH-])=O)n(C(=O)O[C@@H](C)OC(=O)[N-]CCOC)c2c1 (chirality)
C#Cc1ccc2cc(C([NH-])=O)n(C(=O)O[C@@H](C)OC(=O)[N-]CCOC)c2c1 (3D coordinates assigned)
C#Cc1ccc2cc(C([NH-])=O)n(C(=O)O[C@@H](C)OC(=O)[N-]CCOC)c2c1 (optimized conformer: 74.26437186006679 kcal/mol)

>  <smiles>  (38) 
C#Cc1ccc2cc(C(N)=O)n(C(=O)OC(C)OC(=O)NCCOC)c2c1

>  <score_type>  (38) 
oracle

>  <origin>  (38) 
adg

>  <m_score__min__energy>  (38) 
-12.1

>  <m_primary>  (38) 
energy

$$$$
39:0
     RDKit          3D

 55 57  0  0  0  0  0  0  0  0999 V2000
   -4.6290   14.3960  -31.7280 C   0  0  0  0  0  0  0  0  0  0  0  0
   -4.8560   15.1560  -32.9660 N   0  0  0  0  0  0  0  0  0  0  0  0
   -6.0590   14.6900  -33.6680 C   0  0  0  0  0  0  0  0  0  0  0  0
   -6.7160   15.9110  -34.2690 C   0  0  0  0  0  0  0  0  0  0  0  0
   -6.3920   17.0240  -33.2810 C   0  0  2  0  0  0  0  0  0  0  0  0
   -6.3480   18.3670  -33.9060 N   0  0  0  0  0  0  0  0  0  0  0  0
   -5.7470   18.5460  -35.2330 C   0  0  0  0  0  0  0  0  0  0  0  0
   -6.5740   19.5590  -33.1270 C   0  0  0  0  0  0  0  0  0  0  0  0
   -7.8690   19.8480  -32.6350 C   0  0  0  0  0  0  0  0  0  0  0  0
   -8.1020   21.0010  -31.8700 C   0  0  0  0  0  0  0  0  0  0  0  0
   -7.0210   21.8360  -31.6020 C   0  0  0  0  0  0  0  0  0  0  0  0
   -6.9680   23.0040  -30.8800 C   0  0  0  0  0  0  0  0  0  0  0  0
   -5.6400   23.4140  -30.9370 C   0  0  0  0  0  0  0  0  0  0  0  0
   -5.1560   24.6460  -30.2790 C   0  0  0  0  0  0  0  0  0  0  0  0
   -5.7530   25.0950  -29.0620 N   0  0  0  0  0  0  0  0  0  0  0  0
   -4.2690   25.3520  -30.8270 O   0  0  0  0  0  0  0  0  0  0  0  0
   -4.8850   22.5250  -31.6510 N   0  0  0  0  0  0  0  0  0  0  0  0
   -3.4480   22.4780  -31.7710 C   0  0  0  0  0  0  0  0  0  0  0  0
   -2.7170   22.9630  -30.8680 O   0  0  0  0  0  0  0  0  0  0  0  0
   -2.8690   21.8550  -32.8890 O   0  0  0  0  0  0  0  0  0  0  0  0
   -2.0100   20.7060  -32.8810 C   0  0  0  0  0  0  0  0  0  0  0  0
   -1.8640   20.1390  -31.4560 C   0  0  0  0  0  0  0  0  0  0  0  0
   -0.6300   21.1720  -33.3730 C   0  0  0  0  0  0  0  0  0  0  0  0
   -2.5450   19.6280  -33.8450 C   0  0  0  0  0  0  0  0  0  0  0  0
   -5.7570   21.5710  -32.0630 C   0  0  0  0  0  0  0  0  0  0  0  0
   -5.5110   20.4490  -32.8640 C   0  0  0  0  0  0  0  0  0  0  0  0
   -5.0330   16.5960  -32.7100 C   0  0  0  0  0  0  0  0  0  0  0  0
   -4.8223   15.0432  -30.8598 H   0  0  0  0  0  0  0  0  0  0  0  0
   -5.3080   13.5311  -31.6990 H   0  0  0  0  0  0  0  0  0  0  0  0
   -3.5869   14.0452  -31.6990 H   0  0  0  0  0  0  0  0  0  0  0  0
   -5.7830   13.9797  -34.4613 H   0  0  0  0  0  0  0  0  0  0  0  0
   -6.7428   14.1738  -32.9781 H   0  0  0  0  0  0  0  0  0  0  0  0
   -6.2958   16.1334  -35.2609 H   0  0  0  0  0  0  0  0  0  0  0  0
   -7.7975   15.7797  -34.4209 H   0  0  0  0  0  0  0  0  0  0  0  0
   -7.1678   17.1381  -32.5095 H   0  0  0  0  0  0  0  0  0  0  0  0
   -4.6982   18.8584  -35.1214 H   0  0  0  0  0  0  0  0  0  0  0  0
   -5.7898   17.5961  -35.7861 H   0  0  0  0  0  0  0  0  0  0  0  0
   -6.3026   19.3177  -35.7861 H   0  0  0  0  0  0  0  0  0  0  0  0
   -8.7007   19.1624  -32.8543 H   0  0  0  0  0  0  0  0  0  0  0  0
   -9.1081   21.2378  -31.4936 H   0  0  0  0  0  0  0  0  0  0  0  0
   -7.7996   23.5080  -30.3658 H   0  0  0  0  0  0  0  0  0  0  0  0
   -6.4920   24.5290  -28.5870 H   0  0  0  0  0  0  0  0  0  0  0  0
   -5.4410   25.9880  -28.6200 H   0  0  0  0  0  0  0  0  0  0  0  0
   -2.0685   20.9330  -30.7227 H   0  0  0  0  0  0  0  0  0  0  0  0
   -2.5794   19.3156  -31.3139 H   0  0  0  0  0  0  0  0  0  0  0  0
   -0.8399   19.7635  -31.3139 H   0  0  0  0  0  0  0  0  0  0  0  0
    0.0136   21.3893  -32.5078 H   0  0  0  0  0  0  0  0  0  0  0  0
   -0.1707   20.3791  -33.9816 H   0  0  0  0  0  0  0  0  0  0  0  0
   -0.7454   22.0810  -33.9816 H   0  0  0  0  0  0  0  0  0  0  0  0
   -2.9605   18.7909  -33.2648 H   0  0  0  0  0  0  0  0  0  0  0  0
   -3.3326   20.0613  -34.4789 H   0  0  0  0  0  0  0  0  0  0  0  0
   -1.7236   19.2628  -34.4789 H   0  0  0  0  0  0  0  0  0  0  0  0
   -4.5093   20.2651  -33.2798 H   0  0  0  0  0  0  0  0  0  0  0  0
   -4.2282   17.1627  -33.2011 H   0  0  0  0  0  0  0  0  0  0  0  0
   -4.9964   16.7959  -31.6289 H   0  0  0  0  0  0  0  0  0  0  0  0
  1  2  1  0
  2  3  1  0
  3  4  1  0
  4  5  1  0
  5  6  1  0
  6  7  1  0
  6  8  1  0
  8  9  2  0
  9 10  1  0
 10 11  2  0
 11 12  1  0
 12 13  2  0
 13 14  1  0
 14 15  1  0
 14 16  2  0
 13 17  1  0
 17 18  1  0
 18 19  2  0
 18 20  1  0
 20 21  1  0
 21 22  1  0
 21 23  1  0
 21 24  1  0
 17 25  1  0
 25 26  2  0
  5 27  1  0
 27  2  1  0
 26  8  1  0
 25 11  1  0
  1 28  1  0
  1 29  1  0
  1 30  1  0
  3 31  1  0
  3 32  1  0
  4 33  1  0
  4 34  1  0
  5 35  1  1
  7 36  1  0
  7 37  1  0
  7 38  1  0
  9 39  1  0
 10 40  1  0
 12 41  1  0
 15 42  1  0
 15 43  1  0
 22 44  1  0
 22 45  1  0
 22 46  1  0
 23 47  1  0
 23 48  1  0
 23 49  1  0
 24 50  1  0
 24 51  1  0
 24 52  1  0
 26 53  1  0
 27 54  1  0
 27 55  1  0
M  END
>  <UniqueID>  (39) 
39

>  <SMILES>  (39) 
CN1CC[C@H](N(C)c2ccc3cc(C(N)=O)n(C(=O)OC(C)(C)C)c3c2)C1

>  <Energy>  (39) 
99.39403320353964

>  <Genealogy>  (39) 
CN1CC[C@H](N(C)c2ccc3cc(C(N)=O)n(C(=O)OC(C)(C)C)c3c2)C1 (chirality)
CN1CC[C@H](N(C)c2ccc3cc(C(N)=O)n(C(=O)OC(C)(C)C)c3c2)C1 (3D coordinates assigned)
CN1CC[C@H](N(C)c2ccc3cc(C(N)=O)n(C(=O)OC(C)(C)C)c3c2)C1 (nonaromatic ring conformer: 99.39403320353964 kcal/mol)

>  <smiles>  (39) 
CN1CCC(N(C)c2ccc3cc(C(N)=O)n(C(=O)OC(C)(C)C)c3c2)C1

>  <score_type>  (39) 
oracle

>  <origin>  (39) 
adg

>  <m_score__min__energy>  (39) 
-9.4499999999999993

>  <m_primary>  (39) 
energy

$$$$
40:0
     RDKit          3D

 55 56  0  0  0  0  0  0  0  0999 V2000
   -0.3890   18.7880  -31.5470 C   0  0  0  0  0  0  0  0  0  0  0  0
   -1.4050   19.7510  -31.1070 N   0  0  0  0  0  0  0  0  0  0  0  0
   -2.5760   20.0200  -31.9570 C   0  0  0  0  0  0  0  0  0  0  0  0
   -2.2790   21.1660  -32.9460 C   0  0  0  0  0  0  0  0  0  0  0  0
   -3.5350   21.9380  -33.3500 C   0  0  0  0  0  0  0  0  0  0  0  0
   -3.8630   22.8860  -32.3400 O   0  0  0  0  0  0  0  0  0  0  0  0
   -4.4930   22.5400  -31.1480 C   0  0  0  0  0  0  0  0  0  0  0  0
   -3.8130   22.3900  -30.0960 O   0  0  0  0  0  0  0  0  0  0  0  0
   -5.9170   22.3470  -31.1120 N   0  0  0  0  0  0  0  0  0  0  0  0
   -6.8580   23.2010  -30.6110 C   0  0  0  0  0  0  0  0  0  0  0  0
   -6.5890   24.4090  -29.8030 C   0  0  0  0  0  0  0  0  0  0  0  0
   -5.3550   24.5690  -29.1030 N   0  0  0  0  0  0  0  0  0  0  0  0
   -7.4890   25.2840  -29.6790 O   0  0  0  0  0  0  0  0  0  0  0  0
   -8.1390   22.7320  -30.8770 C   0  0  0  0  0  0  0  0  0  0  0  0
   -7.9600   21.5450  -31.5480 C   0  0  0  0  0  0  0  0  0  0  0  0
   -8.9010   20.6540  -32.0490 C   0  0  0  0  0  0  0  0  0  0  0  0
   -8.4360   19.5050  -32.7110 C   0  0  0  0  0  0  0  0  0  0  0  0
   -7.0410   19.2630  -32.8730 C   0  0  0  0  0  0  0  0  0  0  0  0
   -6.5710   18.0730  -33.5590 N   0  0  0  0  0  0  0  0  0  0  0  0
   -5.7470   18.1800  -34.7690 C   0  0  0  0  0  0  0  0  0  0  0  0
   -6.9390   16.7380  -33.0710 C   0  0  0  0  0  0  0  0  0  0  0  0
   -6.1200   20.2080  -32.3530 C   0  0  0  0  0  0  0  0  0  0  0  0
   -6.6120   21.3320  -31.6790 C   0  0  0  0  0  0  0  0  0  0  0  0
   -1.2610   20.3970  -29.8320 C   0  0  0  0  0  0  0  0  0  0  0  0
   -1.9200   19.9850  -28.8360 O   0  0  0  0  0  0  0  0  0  0  0  0
   -0.3850   21.4800  -29.6930 O   0  0  0  0  0  0  0  0  0  0  0  0
   -0.7640   22.7290  -29.1150 C   0  0  0  0  0  0  0  0  0  0  0  0
   -1.2860   23.6150  -30.0820 O   0  0  0  0  0  0  0  0  0  0  0  0
   -2.2510   24.8010  -29.3170 P   0  0  0  0  0  0  0  0  0  0  0  0
   -2.8790   24.2690  -28.0460 O   0  0  0  0  0  0  0  0  0  0  0  0
   -3.4780   25.2680  -30.3810 O   0  0  0  0  0  0  0  0  0  0  0  0
   -1.3050   26.1540  -28.9570 O   0  0  0  0  0  0  0  0  0  0  0  0
    0.0906   18.3334  -30.6676 H   0  0  0  0  0  0  0  0  0  0  0  0
   -0.8658   18.0025  -32.1516 H   0  0  0  0  0  0  0  0  0  0  0  0
    0.3699   19.3062  -32.1516 H   0  0  0  0  0  0  0  0  0  0  0  0
   -2.8283   19.1109  -32.5227 H   0  0  0  0  0  0  0  0  0  0  0  0
   -3.4189   20.3158  -31.3151 H   0  0  0  0  0  0  0  0  0  0  0  0
   -1.5735   21.8649  -32.4730 H   0  0  0  0  0  0  0  0  0  0  0  0
   -1.8578   20.7169  -33.8576 H   0  0  0  0  0  0  0  0  0  0  0  0
   -3.3514   22.4636  -34.2987 H   0  0  0  0  0  0  0  0  0  0  0  0
   -4.3709   21.2336  -33.4728 H   0  0  0  0  0  0  0  0  0  0  0  0
   -5.1610   25.4480  -28.5740 H   0  0  0  0  0  0  0  0  0  0  0  0
   -4.6320   23.8190  -29.1070 H   0  0  0  0  0  0  0  0  0  0  0  0
   -9.0931   23.2088  -30.6080 H   0  0  0  0  0  0  0  0  0  0  0  0
   -9.9783   20.8425  -31.9309 H   0  0  0  0  0  0  0  0  0  0  0  0
   -9.1607   18.7804  -33.1107 H   0  0  0  0  0  0  0  0  0  0  0  0
   -4.6934   18.3168  -34.4842 H   0  0  0  0  0  0  0  0  0  0  0  0
   -5.8494   17.2610  -35.3648 H   0  0  0  0  0  0  0  0  0  0  0  0
   -6.0807   19.0424  -35.3648 H   0  0  0  0  0  0  0  0  0  0  0  0
   -6.9393   16.7369  -31.9710 H   0  0  0  0  0  0  0  0  0  0  0  0
   -7.9426   16.4771  -33.4382 H   0  0  0  0  0  0  0  0  0  0  0  0
   -6.2108   15.9998  -33.4382 H   0  0  0  0  0  0  0  0  0  0  0  0
   -5.0371   20.0602  -32.4773 H   0  0  0  0  0  0  0  0  0  0  0  0
   -1.5301   22.5483  -28.3466 H   0  0  0  0  0  0  0  0  0  0  0  0
    0.1332   23.1901  -28.6764 H   0  0  0  0  0  0  0  0  0  0  0  0
  1  2  1  0
  2  3  1  0
  3  4  1  0
  4  5  1  0
  5  6  1  0
  6  7  1  0
  7  8  2  0
  7  9  1  0
  9 10  1  0
 10 11  1  0
 11 12  1  0
 11 13  2  0
 10 14  2  0
 14 15  1  0
 15 16  2  0
 16 17  1  0
 17 18  2  0
 18 19  1  0
 19 20  1  0
 19 21  1  0
 18 22  1  0
 22 23  2  0
  2 24  1  0
 24 25  2  0
 24 26  1  0
 26 27  1  0
 27 28  1  0
 28 29  1  0
 29 30  2  0
 29 31  1  0
 29 32  1  0
 23  9  1  0
 23 15  1  0
  1 33  1  0
  1 34  1  0
  1 35  1  0
  3 36  1  0
  3 37  1  0
  4 38  1  0
  4 39  1  0
  5 40  1  0
  5 41  1  0
 12 42  1  0
 12 43  1  0
 14 44  1  0
 16 45  1  0
 17 46  1  0
 20 47  1  0
 20 48  1  0
 20 49  1  0
 21 50  1  0
 21 51  1  0
 21 52  1  0
 22 53  1  0
 27 54  1  0
 27 55  1  0
M  CHG  2  31  -1  32  -1
M  END
>  <UniqueID>  (40) 
40

>  <SMILES>  (40) 
CN(CCCOC(=O)n1c(C(N)=O)cc2ccc(N(C)C)cc21)C(=O)OCOP(=O)([O-])[O-]

>  <Energy>  (40) 
86.1190486574176

>  <Genealogy>  (40) 
CN(CCCOC(=O)n1c(C(N)=O)cc2ccc(N(C)C)cc21)C(=O)OCOP(=O)([O-])[O-] (protonated)
CN(CCCOC(=O)n1c(C(N)=O)cc2ccc(N(C)C)cc21)C(=O)OCOP(=O)([O-])[O-] (3D coordinates assigned)
CN(CCCOC(=O)n1c(C(N)=O)cc2ccc(N(C)C)cc21)C(=O)OCOP(=O)([O-])[O-] (optimized conformer: 86.1190486574176 kcal/mol)

>  <smiles>  (40) 
CN(CCCOC(=O)n1c(C(N)=O)cc2ccc(N(C)C)cc21)C(=O)OCOP(=O)(O)O

>  <score_type>  (40) 
oracle

>  <origin>  (40) 
adg

>  <m_score__min__energy>  (40) 
-12.470000000000001

>  <m_primary>  (40) 
energy

$$$$
42:0
     RDKit          3D

 32 33  0  0  0  0  0  0  0  0999 V2000
   -5.7360   25.1700  -29.0890 N   0  0  0  0  0  0  0  0  0  0  0  0
   -5.2040   24.7120  -30.3310 C   0  0  0  0  0  0  0  0  0  0  0  0
   -4.2430   25.3290  -30.8640 O   0  0  0  0  0  0  0  0  0  0  0  0
   -5.7090   23.4790  -30.9560 C   0  0  0  0  0  0  0  0  0  0  0  0
   -7.0640   23.1950  -31.0870 C   0  0  0  0  0  0  0  0  0  0  0  0
   -7.1160   21.9570  -31.6810 C   0  0  0  0  0  0  0  0  0  0  0  0
   -8.2190   21.1970  -32.0620 C   0  0  0  0  0  0  0  0  0  0  0  0
   -7.9850   19.9560  -32.6740 C   0  0  0  0  0  0  0  0  0  0  0  0
   -6.6620   19.5000  -32.8990 C   0  0  0  0  0  0  0  0  0  0  0  0
   -6.4350   18.1800  -33.5790 C   0  0  0  0  0  0  0  0  0  0  0  0
   -6.1430   18.3890  -34.9140 F   0  0  0  0  0  0  0  0  0  0  0  0
   -7.5720   17.4010  -33.4750 F   0  0  0  0  0  0  0  0  0  0  0  0
   -5.5670   20.3000  -32.5020 C   0  0  0  0  0  0  0  0  0  0  0  0
   -5.8280   21.5270  -31.8750 C   0  0  0  0  0  0  0  0  0  0  0  0
   -4.9460   22.4500  -31.4230 N   0  0  0  0  0  0  0  0  0  0  0  0
   -3.5170   22.2980  -31.3010 C   0  0  0  0  0  0  0  0  0  0  0  0
   -2.7900   22.2930  -32.3290 O   0  0  0  0  0  0  0  0  0  0  0  0
   -2.9150   22.1810  -30.0070 N   0  0  0  0  0  0  0  0  0  0  0  0
   -1.7490   22.9470  -29.5770 C   0  0  0  0  0  0  0  0  0  0  0  0
   -2.1660   24.1080  -28.6790 C   0  0  0  0  0  0  0  0  0  0  0  0
   -1.9910   25.3140  -29.3330 F   0  0  0  0  0  0  0  0  0  0  0  0
   -5.3830   26.0550  -28.6610 H   0  0  0  0  0  0  0  0  0  0  0  0
   -6.4340   24.5990  -28.5650 H   0  0  0  0  0  0  0  0  0  0  0  0
   -7.9117   23.8256  -30.7810 H   0  0  0  0  0  0  0  0  0  0  0  0
   -9.2432   21.5587  -31.8884 H   0  0  0  0  0  0  0  0  0  0  0  0
   -8.8364   19.3313  -32.9820 H   0  0  0  0  0  0  0  0  0  0  0  0
   -5.5922   17.6646  -33.0952 H   0  0  0  0  0  0  0  0  0  0  0  0
   -4.5336   19.9680  -32.6806 H   0  0  0  0  0  0  0  0  0  0  0  0
   -1.0686   22.2862  -29.0199 H   0  0  0  0  0  0  0  0  0  0  0  0
   -1.2450   23.3522  -30.4668 H   0  0  0  0  0  0  0  0  0  0  0  0
   -3.2260   23.9936  -28.4084 H   0  0  0  0  0  0  0  0  0  0  0  0
   -1.5404   24.1001  -27.7743 H   0  0  0  0  0  0  0  0  0  0  0  0
  1  2  1  0
  2  3  2  0
  2  4  1  0
  4  5  2  0
  5  6  1  0
  6  7  2  0
  7  8  1  0
  8  9  2  0
  9 10  1  0
 10 11  1  0
 10 12  1  0
  9 13  1  0
 13 14  2  0
 14 15  1  0
 15 16  1  0
 16 17  2  0
 16 18  1  0
 18 19  1  0
 19 20  1  0
 20 21  1  0
 15  4  1  0
 14  6  1  0
  1 22  1  0
  1 23  1  0
  5 24  1  0
  7 25  1  0
  8 26  1  0
 10 27  1  0
 13 28  1  0
 19 29  1  0
 19 30  1  0
 20 31  1  0
 20 32  1  0
M  CHG  1  18  -1
M  END
>  <UniqueID>  (41) 
41

>  <SMILES>  (41) 
NC(=O)c1cc2ccc(C(F)F)cc2n1C(=O)[N-]CCF

>  <Energy>  (41) 
70.73711541823813

>  <Genealogy>  (41) 
NC(=O)c1cc2ccc(C(F)F)cc2n1C(=O)[N-]CCF (protonated)
NC(=O)c1cc2ccc(C(F)F)cc2n1C(=O)[N-]CCF (3D coordinates assigned)
NC(=O)c1cc2ccc(C(F)F)cc2n1C(=O)[N-]CCF (optimized conformer: 70.73711541823813 kcal/mol)

>  <smiles>  (41) 
NC(=O)c1cc2ccc(C(F)F)cc2n1C(=O)NCCF

>  <score_type>  (41) 
oracle

>  <origin>  (41) 
adg

>  <m_score__min__energy>  (41) 
-8.5700000000000003

>  <m_primary>  (41) 
energy

$$$$
43:0
     RDKit          3D

 38 39  0  0  0  0  0  0  0  0999 V2000
   -9.4840   21.6990  -31.3960 C   0  0  0  0  0  0  0  0  0  0  0  0
   -8.4690   20.6420  -31.7160 C   0  0  0  0  0  0  0  0  0  0  0  0
   -8.8150   19.2730  -31.6240 C   0  0  0  0  0  0  0  0  0  0  0  0
   -7.8640   18.2750  -31.8970 C   0  0  0  0  0  0  0  0  0  0  0  0
   -6.5740   18.6770  -32.2330 C   0  0  0  0  0  0  0  0  0  0  0  0
   -5.4740   17.9230  -32.5680 C   0  0  0  0  0  0  0  0  0  0  0  0
   -4.4580   18.8430  -32.8090 C   0  0  0  0  0  0  0  0  0  0  0  0
   -3.0750   18.4530  -33.1520 C   0  0  0  0  0  0  0  0  0  0  0  0
   -2.3750   19.0760  -34.2300 N   0  0  0  0  0  0  0  0  0  0  0  0
   -2.4830   17.5920  -32.4490 O   0  0  0  0  0  0  0  0  0  0  0  0
   -4.9090   20.1180  -32.6410 N   0  0  0  0  0  0  0  0  0  0  0  0
   -4.1840   21.3350  -32.8910 C   0  0  0  0  0  0  0  0  0  0  0  0
   -3.4550   21.4380  -33.9120 O   0  0  0  0  0  0  0  0  0  0  0  0
   -4.2630   22.4380  -31.9730 C   0  0  0  0  0  0  0  0  0  0  0  0
   -4.3520   23.3550  -31.1960 C   0  0  0  0  0  0  0  0  0  0  0  0
   -4.4380   24.4630  -30.2320 C   0  0  2  0  0  0  0  0  0  0  0  0
   -5.8830   24.5580  -29.7170 C   0  0  0  0  0  0  0  0  0  0  0  0
   -4.0880   25.6510  -30.8990 O   0  0  0  0  0  0  0  0  0  0  0  0
   -3.4650   24.1930  -29.0620 C   0  0  0  0  0  0  0  0  0  0  0  0
   -2.5440   25.2420  -28.9180 O   0  0  0  0  0  0  0  0  0  0  0  0
   -6.2120   20.0000  -32.2890 C   0  0  0  0  0  0  0  0  0  0  0  0
   -7.1480   21.0130  -32.0510 C   0  0  0  0  0  0  0  0  0  0  0  0
   -9.5789   21.7978  -30.3046 H   0  0  0  0  0  0  0  0  0  0  0  0
   -9.1609   22.6593  -31.8244 H   0  0  0  0  0  0  0  0  0  0  0  0
  -10.4566   21.4151  -31.8244 H   0  0  0  0  0  0  0  0  0  0  0  0
   -9.8375   18.9874  -31.3362 H   0  0  0  0  0  0  0  0  0  0  0  0
   -8.1306   17.2090  -31.8468 H   0  0  0  0  0  0  0  0  0  0  0  0
   -5.4106   16.8267  -32.6319 H   0  0  0  0  0  0  0  0  0  0  0  0
   -2.7670   19.9140  -34.7160 H   0  0  0  0  0  0  0  0  0  0  0  0
   -1.4150   18.7570  -34.4850 H   0  0  0  0  0  0  0  0  0  0  0  0
   -5.8810   24.5579  -28.6170 H   0  0  0  0  0  0  0  0  0  0  0  0
   -6.3422   25.4883  -30.0827 H   0  0  0  0  0  0  0  0  0  0  0  0
   -6.4600   23.6959  -30.0827 H   0  0  0  0  0  0  0  0  0  0  0  0
   -3.0990   25.7430  -30.8560 H   0  0  0  0  0  0  0  0  0  0  0  0
   -4.0421   24.0914  -28.1311 H   0  0  0  0  0  0  0  0  0  0  0  0
   -2.9098   23.2678  -29.2759 H   0  0  0  0  0  0  0  0  0  0  0  0
   -2.9620   26.0480  -29.3190 H   0  0  0  0  0  0  0  0  0  0  0  0
   -6.8617   22.0726  -32.1231 H   0  0  0  0  0  0  0  0  0  0  0  0
  1  2  1  0
  2  3  2  0
  3  4  1  0
  4  5  2  0
  5  6  1  0
  6  7  2  0
  7  8  1  0
  8  9  1  0
  8 10  2  0
  7 11  1  0
 11 12  1  0
 12 13  2  0
 12 14  1  0
 14 15  3  0
 16 15  1  6
 16 17  1  0
 16 18  1  0
 16 19  1  0
 19 20  1  0
 11 21  1  0
 21 22  2  0
 22  2  1  0
 21  5  1  0
  1 23  1  0
  1 24  1  0
  1 25  1  0
  3 26  1  0
  4 27  1  0
  6 28  1  0
  9 29  1  0
  9 30  1  0
 17 31  1  0
 17 32  1  0
 17 33  1  0
 18 34  1  0
 19 35  1  0
 19 36  1  0
 20 37  1  0
 22 38  1  0
M  END
>  <UniqueID>  (42) 
42

>  <SMILES>  (42) 
Cc1ccc2cc(C(N)=O)n(C(=O)C#C[C@](C)(O)CO)c2c1

>  <Energy>  (42) 
69.8096042812552

>  <Genealogy>  (42) 
Cc1ccc2cc(C(N)=O)n(C(=O)C#C[C@](C)(O)CO)c2c1 (chirality)
Cc1ccc2cc(C(N)=O)n(C(=O)C#C[C@](C)(O)CO)c2c1 (3D coordinates assigned)
Cc1ccc2cc(C(N)=O)n(C(=O)C#C[C@](C)(O)CO)c2c1 (optimized conformer: 69.8096042812552 kcal/mol)

>  <smiles>  (42) 
Cc1ccc2cc(C(N)=O)n(C(=O)C#CC(C)(O)CO)c2c1

>  <score_type>  (42) 
oracle

>  <origin>  (42) 
adg

>  <m_score__min__energy>  (42) 
-10.109999999999999

>  <m_primary>  (42) 
energy

$$$$
44:0
     RDKit          3D

 52 53  0  0  0  0  0  0  0  0999 V2000
   -3.7960   15.4220  -35.3890 C   0  0  0  0  0  0  0  0  0  0  0  0
   -4.2490   16.5720  -34.4740 C   0  0  0  0  0  0  0  0  0  0  0  0
   -4.7210   17.7570  -35.3340 C   0  0  0  0  0  0  0  0  0  0  0  0
   -3.0720   17.0200  -33.5900 C   0  0  0  0  0  0  0  0  0  0  0  0
   -5.6810   16.0020  -33.3600 Si  0  0  0  0  0  4  0  0  0  0  0  0
   -5.0100   15.3090  -31.7510 C   0  0  0  0  0  0  0  0  0  0  0  0
   -6.6700   14.6610  -34.2160 C   0  0  0  0  0  0  0  0  0  0  0  0
   -6.7000   17.3800  -33.0770 O   0  0  0  0  0  0  0  0  0  0  0  0
   -6.3540   18.0090  -31.8660 C   0  0  0  0  0  0  0  0  0  0  0  0
   -6.6270   19.5090  -31.9770 C   0  0  0  0  0  0  0  0  0  0  0  0
   -5.7030   20.1770  -33.0030 C   0  0  0  0  0  0  0  0  0  0  0  0
   -4.4480   20.6750  -32.3380 C   0  0  0  0  0  0  0  0  0  0  0  0
   -3.2980   19.8480  -32.2840 C   0  0  0  0  0  0  0  0  0  0  0  0
   -2.1350   20.2830  -31.6270 C   0  0  0  0  0  0  0  0  0  0  0  0
   -2.1530   21.5420  -31.0340 C   0  0  0  0  0  0  0  0  0  0  0  0
   -1.1800   22.1920  -30.3110 C   0  0  0  0  0  0  0  0  0  0  0  0
   -1.7460   23.4110  -29.9420 C   0  0  0  0  0  0  0  0  0  0  0  0
   -1.0050   24.4650  -29.2200 C   0  0  0  0  0  0  0  0  0  0  0  0
   -1.6310   25.7180  -28.9540 N   0  0  0  0  0  0  0  0  0  0  0  0
    0.1660   24.2600  -28.8010 O   0  0  0  0  0  0  0  0  0  0  0  0
   -3.0230   23.5070  -30.4100 N   0  0  0  0  0  0  0  0  0  0  0  0
   -3.9660   24.5680  -30.1820 C   0  0  0  0  0  0  0  0  0  0  0  0
   -3.8760   25.6460  -30.8250 O   0  0  0  0  0  0  0  0  0  0  0  0
   -5.0010   24.4040  -29.2700 O   0  0  0  0  0  0  0  0  0  0  0  0
   -3.2550   22.3550  -31.0800 C   0  0  0  0  0  0  0  0  0  0  0  0
   -4.4340   21.9410  -31.7130 C   0  0  0  0  0  0  0  0  0  0  0  0
   -3.4618   14.5737  -34.7736 H   0  0  0  0  0  0  0  0  0  0  0  0
   -4.6367   15.1057  -36.0239 H   0  0  0  0  0  0  0  0  0  0  0  0
   -2.9654   15.7640  -36.0239 H   0  0  0  0  0  0  0  0  0  0  0  0
   -5.0480   18.5780  -34.6791 H   0  0  0  0  0  0  0  0  0  0  0  0
   -3.8918   18.1025  -35.9689 H   0  0  0  0  0  0  0  0  0  0  0  0
   -5.5606   17.4378  -35.9689 H   0  0  0  0  0  0  0  0  0  0  0  0
   -3.3484   16.9148  -32.5305 H   0  0  0  0  0  0  0  0  0  0  0  0
   -2.1936   16.3933  -33.8038 H   0  0  0  0  0  0  0  0  0  0  0  0
   -2.8326   18.0721  -33.8038 H   0  0  0  0  0  0  0  0  0  0  0  0
   -5.4976   15.8126  -30.9033 H   0  0  0  0  0  0  0  0  0  0  0  0
   -5.2147   14.2293  -31.7031 H   0  0  0  0  0  0  0  0  0  0  0  0
   -3.9242   15.4788  -31.7031 H   0  0  0  0  0  0  0  0  0  0  0  0
   -7.1449   14.0171  -33.4611 H   0  0  0  0  0  0  0  0  0  0  0  0
   -7.4458   15.1223  -34.8448 H   0  0  0  0  0  0  0  0  0  0  0  0
   -6.0001   14.0561  -34.8448 H   0  0  0  0  0  0  0  0  0  0  0  0
   -6.9554   17.5861  -31.0478 H   0  0  0  0  0  0  0  0  0  0  0  0
   -5.2865   17.8442  -31.6582 H   0  0  0  0  0  0  0  0  0  0  0  0
   -7.6718   19.6597  -32.2863 H   0  0  0  0  0  0  0  0  0  0  0  0
   -6.4380   19.9666  -30.9947 H   0  0  0  0  0  0  0  0  0  0  0  0
   -5.4352   19.4451  -33.7792 H   0  0  0  0  0  0  0  0  0  0  0  0
   -6.2300   21.0315  -33.4525 H   0  0  0  0  0  0  0  0  0  0  0  0
   -3.3164   18.8569  -32.7608 H   0  0  0  0  0  0  0  0  0  0  0  0
   -1.2378   19.6482  -31.5826 H   0  0  0  0  0  0  0  0  0  0  0  0
   -0.1696   21.8272  -30.0743 H   0  0  0  0  0  0  0  0  0  0  0  0
   -2.6670   25.8250  -29.0200 H   0  0  0  0  0  0  0  0  0  0  0  0
   -5.3255   22.5853  -31.7229 H   0  0  0  0  0  0  0  0  0  0  0  0
  1  2  1  0
  2  3  1  0
  2  4  1  0
  2  5  1  0
  5  6  1  0
  5  7  1  0
  5  8  1  0
  8  9  1  0
  9 10  1  0
 10 11  1  0
 11 12  1  0
 12 13  2  0
 13 14  1  0
 14 15  2  0
 15 16  1  0
 16 17  2  0
 17 18  1  0
 18 19  1  0
 18 20  2  0
 17 21  1  0
 21 22  1  0
 22 23  2  0
 22 24  1  0
 21 25  1  0
 25 26  2  0
 26 12  1  0
 25 15  1  0
  1 27  1  0
  1 28  1  0
  1 29  1  0
  3 30  1  0
  3 31  1  0
  3 32  1  0
  4 33  1  0
  4 34  1  0
  4 35  1  0
  6 36  1  0
  6 37  1  0
  6 38  1  0
  7 39  1  0
  7 40  1  0
  7 41  1  0
  9 42  1  0
  9 43  1  0
 10 44  1  0
 10 45  1  0
 11 46  1  0
 11 47  1  0
 13 48  1  0
 14 49  1  0
 16 50  1  0
 19 51  1  0
 26 52  1  0
M  CHG  2  19  -1  24  -1
M  END
>  <UniqueID>  (43) 
43

>  <SMILES>  (43) 
CC(C)(C)[Si](C)(C)OCCCc1ccc2cc(C([NH-])=O)n(C(=O)[O-])c2c1

>  <Energy>  (43) 
68.45242281194282

>  <Genealogy>  (43) 
CC(C)(C)[Si](C)(C)OCCCc1ccc2cc(C([NH-])=O)n(C(=O)[O-])c2c1 (protonated)
CC(C)(C)[Si](C)(C)OCCCc1ccc2cc(C([NH-])=O)n(C(=O)[O-])c2c1 (3D coordinates assigned)
CC(C)(C)[Si](C)(C)OCCCc1ccc2cc(C([NH-])=O)n(C(=O)[O-])c2c1 (optimized conformer: 68.45242281194282 kcal/mol)

>  <smiles>  (43) 
CC(C)(C)[Si](C)(C)OCCCc1ccc2cc(C(N)=O)n(C(=O)O)c2c1

>  <score_type>  (43) 
oracle

>  <origin>  (43) 
adg

>  <m_score__min__energy>  (43) 
-11.800000000000001

>  <m_primary>  (43) 
energy

$$$$
45:0
     RDKit          3D

 50 51  0  0  0  0  0  0  0  0999 V2000
   -7.8670   18.6530  -32.3990 C   0  0  0  0  0  0  0  0  0  0  0  0
   -7.7530   20.0530  -31.8760 C   0  0  0  0  0  0  0  0  0  0  0  0
   -8.8930   20.7120  -31.3540 C   0  0  0  0  0  0  0  0  0  0  0  0
   -8.8080   22.0400  -30.9050 C   0  0  0  0  0  0  0  0  0  0  0  0
   -7.5770   22.6820  -30.9950 C   0  0  0  0  0  0  0  0  0  0  0  0
   -7.2240   23.9700  -30.6630 C   0  0  0  0  0  0  0  0  0  0  0  0
   -5.8720   24.0760  -30.9800 C   0  0  0  0  0  0  0  0  0  0  0  0
   -5.0650   25.2770  -30.6880 C   0  0  0  0  0  0  0  0  0  0  0  0
   -3.6650   25.1750  -30.4420 N   0  0  0  0  0  0  0  0  0  0  0  0
   -5.6270   26.4010  -30.5970 O   0  0  0  0  0  0  0  0  0  0  0  0
   -5.4070   22.9040  -31.4960 N   0  0  0  0  0  0  0  0  0  0  0  0
   -4.1020   22.6320  -32.0320 C   0  0  0  0  0  0  0  0  0  0  0  0
   -3.9780   22.3120  -33.2460 O   0  0  0  0  0  0  0  0  0  0  0  0
   -2.9710   22.7620  -31.2180 O   0  0  0  0  0  0  0  0  0  0  0  0
   -2.5970   21.7780  -30.2570 C   0  0  0  0  0  0  0  0  0  0  0  0
   -2.3430   20.5340  -30.9040 O   0  0  0  0  0  0  0  0  0  0  0  0
   -1.2550   20.3340  -31.7630 C   0  0  0  0  0  0  0  0  0  0  0  0
   -0.0820   20.3010  -31.2970 O   0  0  0  0  0  0  0  0  0  0  0  0
   -1.4730   20.1700  -33.1760 N   0  0  0  0  0  0  0  0  0  0  0  0
   -0.9440   21.1730  -34.1050 C   0  0  0  0  0  0  0  0  0  0  0  0
   -2.2350   19.0190  -33.6820 C   0  0  0  0  0  0  0  0  0  0  0  0
   -3.7490   19.2370  -33.5270 C   0  0  0  0  0  0  0  0  0  0  0  0
   -4.5220   18.1020  -34.0760 N   0  0  0  0  0  0  0  0  0  0  0  0
   -4.9420   17.2030  -32.9900 C   0  0  0  0  0  0  0  0  0  0  0  0
   -5.7120   18.5760  -34.8040 C   0  0  0  0  0  0  0  0  0  0  0  0
   -6.4630   22.0580  -31.4950 C   0  0  0  0  0  0  0  0  0  0  0  0
   -6.5240   20.7420  -31.9670 C   0  0  0  0  0  0  0  0  0  0  0  0
   -7.9243   17.9498  -31.5550 H   0  0  0  0  0  0  0  0  0  0  0  0
   -8.7754   18.5637  -33.0129 H   0  0  0  0  0  0  0  0  0  0  0  0
   -6.9850   18.4180  -33.0129 H   0  0  0  0  0  0  0  0  0  0  0  0
   -9.8536   20.1788  -31.2998 H   0  0  0  0  0  0  0  0  0  0  0  0
   -9.6880   22.5569  -30.4946 H   0  0  0  0  0  0  0  0  0  0  0  0
   -7.8722   24.7503  -30.2375 H   0  0  0  0  0  0  0  0  0  0  0  0
   -3.0040   24.9170  -31.2070 H   0  0  0  0  0  0  0  0  0  0  0  0
   -1.6878   22.1080  -29.7331 H   0  0  0  0  0  0  0  0  0  0  0  0
   -3.4177   21.6482  -29.5362 H   0  0  0  0  0  0  0  0  0  0  0  0
   -0.5051   22.0052  -33.5351 H   0  0  0  0  0  0  0  0  0  0  0  0
   -0.1706   20.7142  -34.7385 H   0  0  0  0  0  0  0  0  0  0  0  0
   -1.7594   21.5522  -34.7385 H   0  0  0  0  0  0  0  0  0  0  0  0
   -2.0013   18.8753  -34.7472 H   0  0  0  0  0  0  0  0  0  0  0  0
   -1.9512   18.1317  -33.0971 H   0  0  0  0  0  0  0  0  0  0  0  0
   -3.9862   19.3467  -32.4585 H   0  0  0  0  0  0  0  0  0  0  0  0
   -4.0249   20.1433  -34.0860 H   0  0  0  0  0  0  0  0  0  0  0  0
   -4.7226   17.6726  -32.0198 H   0  0  0  0  0  0  0  0  0  0  0  0
   -6.0224   17.0122  -33.0691 H   0  0  0  0  0  0  0  0  0  0  0  0
   -4.3950   16.2519  -33.0691 H   0  0  0  0  0  0  0  0  0  0  0  0
   -6.4842   18.8836  -34.0835 H   0  0  0  0  0  0  0  0  0  0  0  0
   -5.4378   19.4335  -35.4360 H   0  0  0  0  0  0  0  0  0  0  0  0
   -6.1025   17.7648  -35.4360 H   0  0  0  0  0  0  0  0  0  0  0  0
   -5.6363   20.2563  -32.3983 H   0  0  0  0  0  0  0  0  0  0  0  0
  1  2  1  0
  2  3  2  0
  3  4  1  0
  4  5  2  0
  5  6  1  0
  6  7  2  0
  7  8  1  0
  8  9  1  0
  8 10  2  0
  7 11  1  0
 11 12  1  0
 12 13  2  0
 12 14  1  0
 14 15  1  0
 15 16  1  0
 16 17  1  0
 17 18  2  0
 17 19  1  0
 19 20  1  0
 19 21  1  0
 21 22  1  0
 22 23  1  0
 23 24  1  0
 23 25  1  0
 11 26  1  0
 26 27  2  0
 27  2  1  0
 26  5  1  0
  1 28  1  0
  1 29  1  0
  1 30  1  0
  3 31  1  0
  4 32  1  0
  6 33  1  0
  9 34  1  0
 15 35  1  0
 15 36  1  0
 20 37  1  0
 20 38  1  0
 20 39  1  0
 21 40  1  0
 21 41  1  0
 22 42  1  0
 22 43  1  0
 24 44  1  0
 24 45  1  0
 24 46  1  0
 25 47  1  0
 25 48  1  0
 25 49  1  0
 27 50  1  0
M  CHG  1   9  -1
M  END
>  <UniqueID>  (44) 
44

>  <SMILES>  (44) 
Cc1ccc2cc(C([NH-])=O)n(C(=O)OCOC(=O)N(C)CCN(C)C)c2c1

>  <Energy>  (44) 
77.91756916683532

>  <Genealogy>  (44) 
Cc1ccc2cc(C([NH-])=O)n(C(=O)OCOC(=O)N(C)CCN(C)C)c2c1 (protonated)
Cc1ccc2cc(C([NH-])=O)n(C(=O)OCOC(=O)N(C)CCN(C)C)c2c1 (3D coordinates assigned)
Cc1ccc2cc(C([NH-])=O)n(C(=O)OCOC(=O)N(C)CCN(C)C)c2c1 (optimized conformer: 77.91756916683532 kcal/mol)

>  <smiles>  (44) 
Cc1ccc2cc(C(N)=O)n(C(=O)OCOC(=O)N(C)CCN(C)C)c2c1

>  <score_type>  (44) 
oracle

>  <origin>  (44) 
adg

>  <m_score__min__energy>  (44) 
-10

>  <m_primary>  (44) 
energy

$$$$
46:0
     RDKit          3D

 39 42  0  0  0  0  0  0  0  0999 V2000
   -5.3050   26.3700  -30.4570 N   0  0  0  0  0  0  0  0  0  0  0  0
   -6.2300   25.4010  -29.9630 C   0  0  0  0  0  0  0  0  0  0  0  0
   -6.9680   25.6950  -28.9860 O   0  0  0  0  0  0  0  0  0  0  0  0
   -6.3820   24.0850  -30.6150 C   0  0  0  0  0  0  0  0  0  0  0  0
   -7.6170   23.5080  -30.8920 C   0  0  0  0  0  0  0  0  0  0  0  0
   -7.3310   22.3350  -31.5510 C   0  0  0  0  0  0  0  0  0  0  0  0
   -8.1880   21.3560  -32.0460 C   0  0  0  0  0  0  0  0  0  0  0  0
   -7.6150   20.2230  -32.6480 C   0  0  0  0  0  0  0  0  0  0  0  0
   -6.2100   20.0900  -32.7340 C   0  0  0  0  0  0  0  0  0  0  0  0
   -5.6390   18.9260  -33.3360 N   0  0  0  0  0  0  0  0  0  0  0  0
   -4.4980   18.0220  -33.0870 C   0  0  0  0  0  0  0  0  0  0  0  0
   -4.7610   17.1260  -34.2670 C   0  0  0  0  0  0  0  0  0  0  0  0
   -5.0830   15.6920  -33.9620 C   0  0  0  0  0  0  0  0  0  0  0  0
   -3.7810   15.0050  -34.3330 C   0  0  0  0  0  0  0  0  0  0  0  0
   -3.0630   15.7950  -35.2630 O   0  0  0  0  0  0  0  0  0  0  0  0
   -3.6760   17.0650  -35.3310 C   0  0  0  0  0  0  0  0  0  0  0  0
   -5.9100   18.0590  -34.5010 C   0  0  0  0  0  0  0  0  0  0  0  0
   -5.3710   21.0990  -32.2210 C   0  0  0  0  0  0  0  0  0  0  0  0
   -5.9660   22.2280  -31.6450 C   0  0  0  0  0  0  0  0  0  0  0  0
   -5.3670   23.2960  -31.0700 N   0  0  0  0  0  0  0  0  0  0  0  0
   -3.9550   23.4890  -30.8760 C   0  0  0  0  0  0  0  0  0  0  0  0
   -3.4860   24.6490  -30.7290 O   0  0  0  0  0  0  0  0  0  0  0  0
   -3.0930   22.4000  -30.8450 O   0  0  0  0  0  0  0  0  0  0  0  0
   -5.1830   27.2800  -29.9600 H   0  0  0  0  0  0  0  0  0  0  0  0
   -4.8030   26.2240  -31.3610 H   0  0  0  0  0  0  0  0  0  0  0  0
   -8.6108   23.9052  -30.6381 H   0  0  0  0  0  0  0  0  0  0  0  0
   -9.2797   21.4659  -31.9683 H   0  0  0  0  0  0  0  0  0  0  0  0
   -8.2642   19.4339  -33.0553 H   0  0  0  0  0  0  0  0  0  0  0  0
   -3.5265   18.5342  -33.1484 H   0  0  0  0  0  0  0  0  0  0  0  0
   -4.4350   17.5482  -32.0963 H   0  0  0  0  0  0  0  0  0  0  0  0
   -5.3226   15.5514  -32.8977 H   0  0  0  0  0  0  0  0  0  0  0  0
   -5.9628   15.3058  -34.4975 H   0  0  0  0  0  0  0  0  0  0  0  0
   -3.1722   14.8653  -33.4275 H   0  0  0  0  0  0  0  0  0  0  0  0
   -4.0053   14.0285  -34.7869 H   0  0  0  0  0  0  0  0  0  0  0  0
   -2.9280   17.8500  -35.1457 H   0  0  0  0  0  0  0  0  0  0  0  0
   -4.1122   17.2237  -36.3283 H   0  0  0  0  0  0  0  0  0  0  0  0
   -5.8342   18.5960  -35.4580 H   0  0  0  0  0  0  0  0  0  0  0  0
   -6.9131   17.6137  -34.5746 H   0  0  0  0  0  0  0  0  0  0  0  0
   -4.2764   21.0022  -32.2717 H   0  0  0  0  0  0  0  0  0  0  0  0
  1  2  1  0
  2  3  2  0
  2  4  1  0
  4  5  2  0
  5  6  1  0
  6  7  2  0
  7  8  1  0
  8  9  2  0
  9 10  1  0
 10 11  1  0
 11 12  1  0
 12 13  1  0
 13 14  1  0
 14 15  1  0
 15 16  1  0
 12 17  1  0
  9 18  1  0
 18 19  2  0
 19 20  1  0
 20 21  1  0
 21 22  2  0
 21 23  1  0
 20  4  1  0
 19  6  1  0
 17 10  1  0
 16 12  1  0
  1 24  1  0
  1 25  1  0
  5 26  1  0
  7 27  1  0
  8 28  1  0
 11 29  1  0
 11 30  1  0
 13 31  1  0
 13 32  1  0
 14 33  1  0
 14 34  1  0
 16 35  1  0
 16 36  1  0
 17 37  1  0
 17 38  1  0
 18 39  1  0
M  CHG  1  23  -1
M  END
>  <UniqueID>  (45) 
45

>  <SMILES>  (45) 
NC(=O)c1cc2ccc(N3CC4(CCOC4)C3)cc2n1C(=O)[O-]

>  <Energy>  (45) 
132.46444926176983

>  <Genealogy>  (45) 
NC(=O)c1cc2ccc(N3CC4(CCOC4)C3)cc2n1C(=O)[O-] (protonated)
NC(=O)c1cc2ccc(N3CC4(CCOC4)C3)cc2n1C(=O)[O-] (3D coordinates assigned)
NC(=O)c1cc2ccc(N3CC4(CCOC4)C3)cc2n1C(=O)[O-] (nonaromatic ring conformer: 132.46444926176983 kcal/mol)

>  <smiles>  (45) 
NC(=O)c1cc2ccc(N3CC4(CCOC4)C3)cc2n1C(=O)O

>  <score_type>  (45) 
oracle

>  <origin>  (45) 
adg

>  <m_score__min__energy>  (45) 
-9.7400000000000002

>  <m_primary>  (45) 
energy

$$$$
47:0
     RDKit          3D

 39 40  0  0  0  0  0  0  0  0999 V2000
   -1.7060   20.7020  -29.4520 C   0  0  0  0  0  0  0  0  0  0  0  0
   -2.2340   21.9340  -28.8600 N   0  0  0  0  0  0  0  0  0  0  0  0
   -1.4460   22.6340  -27.8360 C   0  0  0  0  0  0  0  0  0  0  0  0
   -1.9540   24.0670  -27.6460 C   0  0  0  0  0  0  0  0  0  0  0  0
   -1.0460   25.0400  -28.3280 C   0  0  0  0  0  0  0  0  0  0  0  0
   -1.5250   26.0190  -28.9580 O   0  0  0  0  0  0  0  0  0  0  0  0
    0.3330   24.8920  -28.2280 O   0  0  0  0  0  0  0  0  0  0  0  0
   -3.5730   22.3500  -29.2100 C   0  0  0  0  0  0  0  0  0  0  0  0
   -4.3600   22.7140  -28.2950 O   0  0  0  0  0  0  0  0  0  0  0  0
   -4.0640   22.3560  -30.6070 C   0  0  0  0  0  0  0  0  0  0  0  0
   -3.3080   22.0180  -31.5570 O   0  0  0  0  0  0  0  0  0  0  0  0
   -5.4200   22.7260  -30.8950 N   0  0  0  0  0  0  0  0  0  0  0  0
   -5.9510   23.9800  -30.9030 C   0  0  0  0  0  0  0  0  0  0  0  0
   -5.2390   25.2180  -30.5270 C   0  0  0  0  0  0  0  0  0  0  0  0
   -3.8630   25.3780  -30.8670 N   0  0  0  0  0  0  0  0  0  0  0  0
   -5.8350   26.1450  -29.9170 O   0  0  0  0  0  0  0  0  0  0  0  0
   -7.2910   23.9370  -31.2880 C   0  0  0  0  0  0  0  0  0  0  0  0
   -7.5610   22.6070  -31.5230 C   0  0  0  0  0  0  0  0  0  0  0  0
   -8.7290   21.9910  -31.9610 C   0  0  0  0  0  0  0  0  0  0  0  0
   -8.7080   20.6000  -32.1560 C   0  0  0  0  0  0  0  0  0  0  0  0
   -7.5300   19.8480  -31.9020 C   0  0  0  0  0  0  0  0  0  0  0  0
   -7.5030   18.3650  -32.1730 C   0  0  0  0  0  0  0  0  0  0  0  0
   -7.1150   18.1150  -33.4770 F   0  0  0  0  0  0  0  0  0  0  0  0
   -8.7580   17.8120  -31.9810 F   0  0  0  0  0  0  0  0  0  0  0  0
   -6.6080   17.7610  -31.3100 F   0  0  0  0  0  0  0  0  0  0  0  0
   -6.3560   20.5160  -31.4830 C   0  0  0  0  0  0  0  0  0  0  0  0
   -6.4130   21.8980  -31.2820 C   0  0  0  0  0  0  0  0  0  0  0  0
   -1.4088   20.0086  -28.6515 H   0  0  0  0  0  0  0  0  0  0  0  0
   -2.4819   20.2325  -30.0745 H   0  0  0  0  0  0  0  0  0  0  0  0
   -0.8309   20.9401  -30.0745 H   0  0  0  0  0  0  0  0  0  0  0  0
   -1.5303   22.0918  -26.8826 H   0  0  0  0  0  0  0  0  0  0  0  0
   -0.3963   22.6718  -28.1627 H   0  0  0  0  0  0  0  0  0  0  0  0
   -2.9636   24.1528  -28.0742 H   0  0  0  0  0  0  0  0  0  0  0  0
   -1.9772   24.2962  -26.5704 H   0  0  0  0  0  0  0  0  0  0  0  0
   -3.1160   25.2790  -30.1450 H   0  0  0  0  0  0  0  0  0  0  0  0
   -7.9848   24.7852  -31.3836 H   0  0  0  0  0  0  0  0  0  0  0  0
   -9.6416   22.5757  -32.1490 H   0  0  0  0  0  0  0  0  0  0  0  0
   -9.6146   20.0870  -32.5096 H   0  0  0  0  0  0  0  0  0  0  0  0
   -5.4204   19.9612  -31.3192 H   0  0  0  0  0  0  0  0  0  0  0  0
  1  2  1  0
  2  3  1  0
  3  4  1  0
  4  5  1  0
  5  6  2  0
  5  7  1  0
  2  8  1  0
  8  9  2  0
  8 10  1  0
 10 11  2  0
 10 12  1  0
 12 13  1  0
 13 14  1  0
 14 15  1  0
 14 16  2  0
 13 17  2  0
 17 18  1  0
 18 19  2  0
 19 20  1  0
 20 21  2  0
 21 22  1  0
 22 23  1  0
 22 24  1  0
 22 25  1  0
 21 26  1  0
 26 27  2  0
 27 12  1  0
 27 18  1  0
  1 28  1  0
  1 29  1  0
  1 30  1  0
  3 31  1  0
  3 32  1  0
  4 33  1  0
  4 34  1  0
 15 35  1  0
 17 36  1  0
 19 37  1  0
 20 38  1  0
 26 39  1  0
M  CHG  2   7  -1  15  -1
M  END
>  <UniqueID>  (46) 
46

>  <SMILES>  (46) 
CN(CCC(=O)[O-])C(=O)C(=O)n1c(C([NH-])=O)cc2ccc(C(F)(F)F)cc21

>  <Energy>  (46) 
77.54859736472362

>  <Genealogy>  (46) 
CN(CCC(=O)[O-])C(=O)C(=O)n1c(C([NH-])=O)cc2ccc(C(F)(F)F)cc21 (protonated)
CN(CCC(=O)[O-])C(=O)C(=O)n1c(C([NH-])=O)cc2ccc(C(F)(F)F)cc21 (3D coordinates assigned)
CN(CCC(=O)[O-])C(=O)C(=O)n1c(C([NH-])=O)cc2ccc(C(F)(F)F)cc21 (optimized conformer: 77.54859736472362 kcal/mol)

>  <smiles>  (46) 
CN(CCC(=O)O)C(=O)C(=O)n1c(C(N)=O)cc2ccc(C(F)(F)F)cc21

>  <score_type>  (46) 
oracle

>  <origin>  (46) 
adg

>  <m_score__min__energy>  (46) 
-12.369999999999999

>  <m_primary>  (46) 
energy

$$$$
49:0
     RDKit          3D

 40 41  0  0  0  0  0  0  0  0999 V2000
   -1.6250   25.6510  -27.7220 C   0  0  0  0  0  0  0  0  0  0  0  0
   -1.6030   25.1950  -29.0540 O   0  0  0  0  0  0  0  0  0  0  0  0
   -0.5890   24.2250  -29.2010 C   0  0  0  0  0  0  0  0  0  0  0  0
   -0.9890   22.9530  -28.4610 C   0  0  0  0  0  0  0  0  0  0  0  0
   -2.3520   22.6580  -28.7070 O   0  0  0  0  0  0  0  0  0  0  0  0
   -2.4950   21.3830  -29.2980 C   0  0  0  0  0  0  0  0  0  0  0  0
   -3.6780   21.3450  -30.0940 O   0  0  0  0  0  0  0  0  0  0  0  0
   -4.0290   22.3710  -30.9760 C   0  0  0  0  0  0  0  0  0  0  0  0
   -3.1360   22.9790  -31.6270 O   0  0  0  0  0  0  0  0  0  0  0  0
   -5.4100   22.7400  -31.1340 N   0  0  0  0  0  0  0  0  0  0  0  0
   -5.9740   23.9580  -30.9020 C   0  0  0  0  0  0  0  0  0  0  0  0
   -5.2450   25.2000  -30.5850 C   0  0  0  0  0  0  0  0  0  0  0  0
   -3.9410   25.1600  -30.0040 N   0  0  0  0  0  0  0  0  0  0  0  0
   -5.7570   26.3120  -30.8770 O   0  0  0  0  0  0  0  0  0  0  0  0
   -7.3560   23.8980  -31.0470 C   0  0  0  0  0  0  0  0  0  0  0  0
   -7.6280   22.5950  -31.3930 C   0  0  0  0  0  0  0  0  0  0  0  0
   -8.8490   21.9730  -31.6330 C   0  0  0  0  0  0  0  0  0  0  0  0
   -8.8410   20.5980  -31.9230 C   0  0  0  0  0  0  0  0  0  0  0  0
   -7.6210   19.8750  -31.9770 C   0  0  0  0  0  0  0  0  0  0  0  0
   -7.6190   18.3880  -32.2270 C   0  0  0  0  0  0  0  0  0  0  0  0
   -7.2180   18.1480  -33.5290 F   0  0  0  0  0  0  0  0  0  0  0  0
   -6.7550   17.7390  -31.3630 F   0  0  0  0  0  0  0  0  0  0  0  0
   -8.8880   17.8680  -32.0410 F   0  0  0  0  0  0  0  0  0  0  0  0
   -6.4040   20.5400  -31.7040 C   0  0  0  0  0  0  0  0  0  0  0  0
   -6.4380   21.9150  -31.4380 C   0  0  0  0  0  0  0  0  0  0  0  0
   -1.5835   24.7898  -27.0389 H   0  0  0  0  0  0  0  0  0  0  0  0
   -0.7573   26.3030  -27.5433 H   0  0  0  0  0  0  0  0  0  0  0  0
   -2.5515   26.2164  -27.5433 H   0  0  0  0  0  0  0  0  0  0  0  0
   -0.4498   23.9994  -30.2686 H   0  0  0  0  0  0  0  0  0  0  0  0
    0.3513   24.6121  -28.7816 H   0  0  0  0  0  0  0  0  0  0  0  0
   -0.3663   22.1166  -28.8113 H   0  0  0  0  0  0  0  0  0  0  0  0
   -0.8409   23.1016  -27.3812 H   0  0  0  0  0  0  0  0  0  0  0  0
   -1.6214   21.1758  -29.9335 H   0  0  0  0  0  0  0  0  0  0  0  0
   -2.5680   20.6235  -28.5056 H   0  0  0  0  0  0  0  0  0  0  0  0
   -3.4280   24.2590  -29.8900 H   0  0  0  0  0  0  0  0  0  0  0  0
   -3.4600   26.0490  -29.7360 H   0  0  0  0  0  0  0  0  0  0  0  0
   -8.0774   24.7176  -30.9135 H   0  0  0  0  0  0  0  0  0  0  0  0
   -9.7911   22.5397  -31.5969 H   0  0  0  0  0  0  0  0  0  0  0  0
   -9.7911   20.0762  -32.1103 H   0  0  0  0  0  0  0  0  0  0  0  0
   -5.4513   19.9901  -31.7005 H   0  0  0  0  0  0  0  0  0  0  0  0
  1  2  1  0
  2  3  1  0
  3  4  1  0
  4  5  1  0
  5  6  1  0
  6  7  1  0
  7  8  1  0
  8  9  2  0
  8 10  1  0
 10 11  1  0
 11 12  1  0
 12 13  1  0
 12 14  2  0
 11 15  2  0
 15 16  1  0
 16 17  2  0
 17 18  1  0
 18 19  2  0
 19 20  1  0
 20 21  1  0
 20 22  1  0
 20 23  1  0
 19 24  1  0
 24 25  2  0
 25 10  1  0
 25 16  1  0
  1 26  1  0
  1 27  1  0
  1 28  1  0
  3 29  1  0
  3 30  1  0
  4 31  1  0
  4 32  1  0
  6 33  1  0
  6 34  1  0
 13 35  1  0
 13 36  1  0
 15 37  1  0
 17 38  1  0
 18 39  1  0
 24 40  1  0
M  END
>  <UniqueID>  (47) 
47

>  <SMILES>  (47) 
COCCOCOC(=O)n1c(C(N)=O)cc2ccc(C(F)(F)F)cc21

>  <Energy>  (47) 
79.3005897750693

>  <Genealogy>  (47) 
COCCOCOC(=O)n1c(C(N)=O)cc2ccc(C(F)(F)F)cc21 (3D coordinates assigned)
COCCOCOC(=O)n1c(C(N)=O)cc2ccc(C(F)(F)F)cc21 (optimized conformer: 79.3005897750693 kcal/mol)

>  <smiles>  (47) 
COCCOCOC(=O)n1c(C(N)=O)cc2ccc(C(F)(F)F)cc21

>  <score_type>  (47) 
oracle

>  <origin>  (47) 
adg

>  <m_score__min__energy>  (47) 
-6.9100000000000001

>  <m_primary>  (47) 
energy

$$$$
50:0
     RDKit          3D

 34 35  0  0  0  0  0  0  0  0999 V2000
   -1.6640   21.0400  -31.4160 C   0  0  0  0  0  0  0  0  0  0  0  0
   -2.7300   21.9120  -30.7170 C   0  0  0  0  0  0  0  0  0  0  0  0
   -3.1400   21.2340  -29.3970 C   0  0  0  0  0  0  0  0  0  0  0  0
   -2.1680   23.2350  -30.4140 N   0  0  0  0  0  0  0  0  0  0  0  0
   -3.9710   22.0940  -31.5800 C   0  0  0  0  0  0  0  0  0  0  0  0
   -3.8780   21.9560  -32.8300 O   0  0  0  0  0  0  0  0  0  0  0  0
   -5.2430   22.4460  -31.0150 N   0  0  0  0  0  0  0  0  0  0  0  0
   -5.5170   23.4570  -30.1470 C   0  0  0  0  0  0  0  0  0  0  0  0
   -4.5420   24.4420  -29.6370 C   0  0  0  0  0  0  0  0  0  0  0  0
   -3.8650   25.3080  -30.5450 N   0  0  0  0  0  0  0  0  0  0  0  0
   -4.2830   24.5140  -28.4070 O   0  0  0  0  0  0  0  0  0  0  0  0
   -6.8720   23.4630  -29.8190 C   0  0  0  0  0  0  0  0  0  0  0  0
   -7.4260   22.4280  -30.5400 C   0  0  0  0  0  0  0  0  0  0  0  0
   -8.7460   21.9910  -30.6180 C   0  0  0  0  0  0  0  0  0  0  0  0
   -9.0300   20.9080  -31.4700 C   0  0  0  0  0  0  0  0  0  0  0  0
   -8.0020   20.2950  -32.2240 C   0  0  0  0  0  0  0  0  0  0  0  0
   -8.3060   19.1990  -33.0920 N   0  0  0  0  0  0  0  0  0  0  0  0
   -6.6760   20.7660  -32.1240 C   0  0  0  0  0  0  0  0  0  0  0  0
   -6.4200   21.8350  -31.2600 C   0  0  0  0  0  0  0  0  0  0  0  0
   -1.0476   20.5358  -30.6572 H   0  0  0  0  0  0  0  0  0  0  0  0
   -2.1612   20.2864  -32.0443 H   0  0  0  0  0  0  0  0  0  0  0  0
   -1.0239   21.6768  -32.0443 H   0  0  0  0  0  0  0  0  0  0  0  0
   -2.7775   21.8334  -28.5489 H   0  0  0  0  0  0  0  0  0  0  0  0
   -4.2363   21.1568  -29.3495 H   0  0  0  0  0  0  0  0  0  0  0  0
   -2.6992   20.2273  -29.3495 H   0  0  0  0  0  0  0  0  0  0  0  0
   -2.3690   23.8920  -31.2040 H   0  0  0  0  0  0  0  0  0  0  0  0
   -2.6400   23.6290  -29.5680 H   0  0  0  0  0  0  0  0  0  0  0  0
   -2.8250   25.2800  -30.6410 H   0  0  0  0  0  0  0  0  0  0  0  0
   -7.3888   24.1483  -29.1310 H   0  0  0  0  0  0  0  0  0  0  0  0
   -9.5406   22.4767  -30.0326 H   0  0  0  0  0  0  0  0  0  0  0  0
  -10.0614   20.5343  -31.5506 H   0  0  0  0  0  0  0  0  0  0  0  0
   -7.8120   18.2850  -32.9920 H   0  0  0  0  0  0  0  0  0  0  0  0
   -9.0290   19.2960  -33.8400 H   0  0  0  0  0  0  0  0  0  0  0  0
   -5.8665   20.3053  -32.7092 H   0  0  0  0  0  0  0  0  0  0  0  0
  1  2  1  0
  2  3  1  0
  2  4  1  0
  2  5  1  0
  5  6  2  0
  5  7  1  0
  7  8  1  0
  8  9  1  0
  9 10  1  0
  9 11  2  0
  8 12  2  0
 12 13  1  0
 13 14  2  0
 14 15  1  0
 15 16  2  0
 16 17  1  0
 16 18  1  0
 18 19  2  0
 19  7  1  0
 19 13  1  0
  1 20  1  0
  1 21  1  0
  1 22  1  0
  3 23  1  0
  3 24  1  0
  3 25  1  0
  4 26  1  0
  4 27  1  0
 10 28  1  0
 12 29  1  0
 14 30  1  0
 15 31  1  0
 17 32  1  0
 17 33  1  0
 18 34  1  0
M  CHG  1  10  -1
M  END
>  <UniqueID>  (48) 
48

>  <SMILES>  (48) 
CC(C)(N)C(=O)n1c(C([NH-])=O)cc2ccc(N)cc21

>  <Energy>  (48) 
71.17795900833906

>  <Genealogy>  (48) 
CC(C)(N)C(=O)n1c(C([NH-])=O)cc2ccc(N)cc21 (protonated)
CC(C)(N)C(=O)n1c(C([NH-])=O)cc2ccc(N)cc21 (3D coordinates assigned)
CC(C)(N)C(=O)n1c(C([NH-])=O)cc2ccc(N)cc21 (optimized conformer: 71.17795900833906 kcal/mol)

>  <smiles>  (48) 
CC(C)(N)C(=O)n1c(C(N)=O)cc2ccc(N)cc21

>  <score_type>  (48) 
oracle

>  <origin>  (48) 
adg

>  <m_score__min__energy>  (48) 
-9.0700000000000003

>  <m_primary>  (48) 
energy

$$$$
51:0
     RDKit          3D

 39 40  0  0  0  0  0  0  0  0999 V2000
   -3.8420   24.1730  -27.4880 C   0  0  0  0  0  0  0  0  0  0  0  0
   -2.5270   24.9410  -27.4340 C   0  0  0  0  0  0  0  0  0  0  0  0
   -1.9550   25.0540  -28.7350 O   0  0  0  0  0  0  0  0  0  0  0  0
   -1.0550   24.1220  -29.2640 C   0  0  0  0  0  0  0  0  0  0  0  0
    0.1800   24.2030  -29.0170 O   0  0  0  0  0  0  0  0  0  0  0  0
   -1.5710   22.9910  -30.0950 C   0  0  1  0  0  0  0  0  0  0  0  0
   -1.2040   21.7920  -29.5140 F   0  0  0  0  0  0  0  0  0  0  0  0
   -2.9930   23.0480  -30.1810 O   0  0  0  0  0  0  0  0  0  0  0  0
   -3.7080   22.7360  -31.3440 C   0  0  0  0  0  0  0  0  0  0  0  0
   -3.1140   22.2470  -32.3440 O   0  0  0  0  0  0  0  0  0  0  0  0
   -5.1280   22.9480  -31.3890 N   0  0  0  0  0  0  0  0  0  0  0  0
   -5.8210   24.0330  -30.9420 C   0  0  0  0  0  0  0  0  0  0  0  0
   -5.2340   25.2990  -30.4550 C   0  0  0  0  0  0  0  0  0  0  0  0
   -3.9160   25.6680  -30.8520 N   0  0  0  0  0  0  0  0  0  0  0  0
   -5.8700   26.0400  -29.6610 O   0  0  0  0  0  0  0  0  0  0  0  0
   -7.1920   23.8290  -31.0830 C   0  0  0  0  0  0  0  0  0  0  0  0
   -7.3190   22.5770  -31.6400 C   0  0  0  0  0  0  0  0  0  0  0  0
   -8.4610   21.8640  -31.9860 C   0  0  0  0  0  0  0  0  0  0  0  0
   -8.2990   20.5740  -32.5200 C   0  0  0  0  0  0  0  0  0  0  0  0
   -7.0010   20.0200  -32.6930 C   0  0  0  0  0  0  0  0  0  0  0  0
   -6.8130   18.6970  -33.2280 N   0  0  0  0  0  0  0  0  0  0  0  0
   -6.5370   17.5240  -32.4030 C   0  0  0  0  0  0  0  0  0  0  0  0
   -5.8670   20.7790  -32.3290 C   0  0  0  0  0  0  0  0  0  0  0  0
   -6.0590   22.0660  -31.8150 C   0  0  0  0  0  0  0  0  0  0  0  0
   -4.1902   23.9697  -26.4646 H   0  0  0  0  0  0  0  0  0  0  0  0
   -4.5955   24.7730  -28.0192 H   0  0  0  0  0  0  0  0  0  0  0  0
   -3.6896   23.2219  -28.0192 H   0  0  0  0  0  0  0  0  0  0  0  0
   -2.7134   25.9482  -27.0329 H   0  0  0  0  0  0  0  0  0  0  0  0
   -1.8255   24.3955  -26.7857 H   0  0  0  0  0  0  0  0  0  0  0  0
   -1.1442   23.0696  -31.1058 H   0  0  0  0  0  0  0  0  0  0  0  0
   -3.0790   25.2130  -30.4220 H   0  0  0  0  0  0  0  0  0  0  0  0
   -8.0010   24.5215  -30.8076 H   0  0  0  0  0  0  0  0  0  0  0  0
   -9.4625   22.2968  -31.8459 H   0  0  0  0  0  0  0  0  0  0  0  0
   -9.1845   19.9877  -32.8067 H   0  0  0  0  0  0  0  0  0  0  0  0
   -6.8770   18.5560  -34.2630 H   0  0  0  0  0  0  0  0  0  0  0  0
   -6.6019   17.7998  -31.3401 H   0  0  0  0  0  0  0  0  0  0  0  0
   -7.2749   16.7386  -32.6237 H   0  0  0  0  0  0  0  0  0  0  0  0
   -5.5263   17.1500  -32.6237 H   0  0  0  0  0  0  0  0  0  0  0  0
   -4.8540   20.3669  -32.4471 H   0  0  0  0  0  0  0  0  0  0  0  0
  1  2  1  0
  2  3  1  0
  3  4  1  0
  4  5  2  0
  4  6  1  0
  6  7  1  0
  6  8  1  0
  8  9  1  0
  9 10  2  0
  9 11  1  0
 11 12  1  0
 12 13  1  0
 13 14  1  0
 13 15  2  0
 12 16  2  0
 16 17  1  0
 17 18  2  0
 18 19  1  0
 19 20  2  0
 20 21  1  0
 21 22  1  0
 20 23  1  0
 23 24  2  0
 24 11  1  0
 24 17  1  0
  1 25  1  0
  1 26  1  0
  1 27  1  0
  2 28  1  0
  2 29  1  0
  6 30  1  6
 14 31  1  0
 16 32  1  0
 18 33  1  0
 19 34  1  0
 21 35  1  0
 22 36  1  0
 22 37  1  0
 22 38  1  0
 23 39  1  0
M  CHG  1  14  -1
M  END
>  <UniqueID>  (49) 
49

>  <SMILES>  (49) 
CCOC(=O)[C@@H](F)OC(=O)n1c(C([NH-])=O)cc2ccc(NC)cc21

>  <Energy>  (49) 
69.84055195470938

>  <Genealogy>  (49) 
CCOC(=O)C(F)OC(=O)n1c(C([NH-])=O)cc2ccc(NC)cc21 (protonated)
CCOC(=O)[C@@H](F)OC(=O)n1c(C([NH-])=O)cc2ccc(NC)cc21 (chirality)
CCOC(=O)[C@@H](F)OC(=O)n1c(C([NH-])=O)cc2ccc(NC)cc21 (3D coordinates assigned)
CCOC(=O)[C@@H](F)OC(=O)n1c(C([NH-])=O)cc2ccc(NC)cc21 (optimized conformer: 69.84055195470938 kcal/mol)

>  <smiles>  (49) 
CCOC(=O)C(F)OC(=O)n1c(C(N)=O)cc2ccc(NC)cc21

>  <score_type>  (49) 
oracle

>  <origin>  (49) 
adg

>  <m_score__min__energy>  (49) 
-9.8800000000000008

>  <m_primary>  (49) 
energy

$$$$
52:0
     RDKit          3D

 45 46  0  0  0  0  0  0  0  0999 V2000
   -1.3270   21.8480  -28.3060 C   0  0  0  0  0  0  0  0  0  0  0  0
   -2.6160   22.5410  -28.7760 C   0  0  2  0  0  0  0  0  0  0  0  0
   -3.6340   22.7230  -27.6360 C   0  0  0  0  0  0  0  0  0  0  0  0
   -4.0480   24.4910  -27.3910 S   0  0  0  0  0  0  0  0  0  0  0  0
   -2.3540   25.0370  -26.9940 C   0  0  0  0  0  0  0  0  0  0  0  0
   -1.6040   25.2840  -28.2590 C   0  0  0  0  0  0  0  0  0  0  0  0
   -2.2110   25.2960  -29.3620 O   0  0  0  0  0  0  0  0  0  0  0  0
   -0.2420   25.5490  -28.2190 O   0  0  0  0  0  0  0  0  0  0  0  0
   -3.2290   21.8040  -29.8990 N   0  0  0  0  0  0  0  0  0  0  0  0
   -3.3680   20.3420  -29.8620 C   0  0  0  0  0  0  0  0  0  0  0  0
   -3.8750   22.5270  -30.9660 C   0  0  0  0  0  0  0  0  0  0  0  0
   -3.1850   23.0640  -31.8760 O   0  0  0  0  0  0  0  0  0  0  0  0
   -5.3040   22.6660  -30.9960 N   0  0  0  0  0  0  0  0  0  0  0  0
   -6.0330   23.7920  -30.7580 C   0  0  0  0  0  0  0  0  0  0  0  0
   -5.4990   25.0810  -30.2700 C   0  0  0  0  0  0  0  0  0  0  0  0
   -4.2060   25.5490  -30.6590 N   0  0  0  0  0  0  0  0  0  0  0  0
   -6.1820   25.7640  -29.4630 O   0  0  0  0  0  0  0  0  0  0  0  0
   -7.3780   23.5730  -31.0510 C   0  0  0  0  0  0  0  0  0  0  0  0
   -7.4490   22.2670  -31.4810 C   0  0  0  0  0  0  0  0  0  0  0  0
   -8.5370   21.5360  -31.9490 C   0  0  0  0  0  0  0  0  0  0  0  0
   -8.3050   20.2250  -32.3960 C   0  0  0  0  0  0  0  0  0  0  0  0
   -7.0000   19.6660  -32.3650 C   0  0  0  0  0  0  0  0  0  0  0  0
   -6.7470   18.2810  -32.9040 C   0  0  0  0  0  0  0  0  0  0  0  0
   -5.6820   17.6850  -32.2510 F   0  0  0  0  0  0  0  0  0  0  0  0
   -7.8780   17.5090  -32.7200 F   0  0  0  0  0  0  0  0  0  0  0  0
   -6.4520   18.3350  -34.2550 F   0  0  0  0  0  0  0  0  0  0  0  0
   -5.9180   20.4540  -31.9110 C   0  0  0  0  0  0  0  0  0  0  0  0
   -6.1830   21.7460  -31.4470 C   0  0  0  0  0  0  0  0  0  0  0  0
   -1.2988   21.8329  -27.2065 H   0  0  0  0  0  0  0  0  0  0  0  0
   -1.3052   20.8165  -28.6876 H   0  0  0  0  0  0  0  0  0  0  0  0
   -0.4546   22.3987  -28.6876 H   0  0  0  0  0  0  0  0  0  0  0  0
   -2.3287   23.5452  -29.1211 H   0  0  0  0  0  0  0  0  0  0  0  0
   -4.5524   22.1707  -27.8839 H   0  0  0  0  0  0  0  0  0  0  0  0
   -3.1881   22.3383  -26.7069 H   0  0  0  0  0  0  0  0  0  0  0  0
   -2.3961   25.9651  -26.4051 H   0  0  0  0  0  0  0  0  0  0  0  0
   -1.8436   24.2565  -26.4106 H   0  0  0  0  0  0  0  0  0  0  0  0
   -3.4002   20.0031  -28.8160 H   0  0  0  0  0  0  0  0  0  0  0  0
   -4.2980   20.0491  -30.3711 H   0  0  0  0  0  0  0  0  0  0  0  0
   -2.5098   19.8791  -30.3711 H   0  0  0  0  0  0  0  0  0  0  0  0
   -3.8740   26.4860  -30.3420 H   0  0  0  0  0  0  0  0  0  0  0  0
   -3.5350   24.9330  -31.1670 H   0  0  0  0  0  0  0  0  0  0  0  0
   -8.2064   24.2908  -30.9584 H   0  0  0  0  0  0  0  0  0  0  0  0
   -9.5470   21.9715  -31.9682 H   0  0  0  0  0  0  0  0  0  0  0  0
   -9.1446   19.6237  -32.7748 H   0  0  0  0  0  0  0  0  0  0  0  0
   -4.8911   20.0598  -31.9225 H   0  0  0  0  0  0  0  0  0  0  0  0
  1  2  1  0
  2  3  1  0
  3  4  1  0
  4  5  1  0
  5  6  1  0
  6  7  2  0
  6  8  1  0
  2  9  1  0
  9 10  1  0
  9 11  1  0
 11 12  2  0
 11 13  1  0
 13 14  1  0
 14 15  1  0
 15 16  1  0
 15 17  2  0
 14 18  2  0
 18 19  1  0
 19 20  2  0
 20 21  1  0
 21 22  2  0
 22 23  1  0
 23 24  1  0
 23 25  1  0
 23 26  1  0
 22 27  1  0
 27 28  2  0
 28 13  1  0
 28 19  1  0
  1 29  1  0
  1 30  1  0
  1 31  1  0
  2 32  1  6
  3 33  1  0
  3 34  1  0
  5 35  1  0
  5 36  1  0
 10 37  1  0
 10 38  1  0
 10 39  1  0
 16 40  1  0
 16 41  1  0
 18 42  1  0
 20 43  1  0
 21 44  1  0
 27 45  1  0
M  CHG  1   8  -1
M  END
>  <UniqueID>  (50) 
50

>  <SMILES>  (50) 
C[C@H](CSCC(=O)[O-])N(C)C(=O)n1c(C(N)=O)cc2ccc(C(F)(F)F)cc21

>  <Energy>  (50) 
78.4862327647739

>  <Genealogy>  (50) 
CC(CSCC(=O)[O-])N(C)C(=O)n1c(C(N)=O)cc2ccc(C(F)(F)F)cc21 (protonated)
C[C@H](CSCC(=O)[O-])N(C)C(=O)n1c(C(N)=O)cc2ccc(C(F)(F)F)cc21 (chirality)
C[C@H](CSCC(=O)[O-])N(C)C(=O)n1c(C(N)=O)cc2ccc(C(F)(F)F)cc21 (3D coordinates assigned)
C[C@H](CSCC(=O)[O-])N(C)C(=O)n1c(C(N)=O)cc2ccc(C(F)(F)F)cc21 (optimized conformer: 78.4862327647739 kcal/mol)

>  <smiles>  (50) 
CC(CSCC(=O)O)N(C)C(=O)n1c(C(N)=O)cc2ccc(C(F)(F)F)cc21

>  <score_type>  (50) 
oracle

>  <origin>  (50) 
adg

>  <m_score__min__energy>  (50) 
-10.69

>  <m_primary>  (50) 
energy

$$$$
53:0
     RDKit          3D

 31 32  0  0  0  0  0  0  0  0999 V2000
   -2.8860   20.7430  -27.4850 C   0  0  0  0  0  0  0  0  0  0  0  0
   -3.3580   21.7970  -28.4410 C   0  0  0  0  0  0  0  0  0  0  0  0
   -3.7950   23.3690  -27.7730 Cl  0  0  0  0  0  0  0  0  0  0  0  0
   -3.4140   21.5120  -29.7540 C   0  0  0  0  0  0  0  0  0  0  0  0
   -3.8560   22.4380  -30.8210 C   0  0  0  0  0  0  0  0  0  0  0  0
   -3.0270   23.0000  -31.5860 O   0  0  0  0  0  0  0  0  0  0  0  0
   -5.2550   22.7180  -30.9800 N   0  0  0  0  0  0  0  0  0  0  0  0
   -5.8870   23.9170  -30.8380 C   0  0  0  0  0  0  0  0  0  0  0  0
   -5.2710   25.1700  -30.3530 C   0  0  0  0  0  0  0  0  0  0  0  0
   -3.8710   25.4000  -30.4830 N   0  0  0  0  0  0  0  0  0  0  0  0
   -5.9870   26.0380  -29.7840 O   0  0  0  0  0  0  0  0  0  0  0  0
   -7.2390   23.7960  -31.1600 C   0  0  0  0  0  0  0  0  0  0  0  0
   -7.4160   22.4760  -31.5040 C   0  0  0  0  0  0  0  0  0  0  0  0
   -8.5600   21.8080  -31.9330 C   0  0  0  0  0  0  0  0  0  0  0  0
   -8.4430   20.4450  -32.2580 C   0  0  0  0  0  0  0  0  0  0  0  0
   -7.1950   19.7820  -32.1480 C   0  0  0  0  0  0  0  0  0  0  0  0
   -7.0730   18.3390  -32.5440 C   0  0  0  0  0  0  0  0  0  0  0  0
   -6.0700   18.2020  -34.0090 Cl  0  0  0  0  0  0  0  0  0  0  0  0
   -6.0540   20.4970  -31.7250 C   0  0  0  0  0  0  0  0  0  0  0  0
   -6.2040   21.8470  -31.3890 C   0  0  0  0  0  0  0  0  0  0  0  0
   -3.0408   21.0888  -26.4523 H   0  0  0  0  0  0  0  0  0  0  0  0
   -3.4551   19.8164  -27.6506 H   0  0  0  0  0  0  0  0  0  0  0  0
   -1.8157   20.5505  -27.6506 H   0  0  0  0  0  0  0  0  0  0  0  0
   -3.1043   20.5025  -30.0621 H   0  0  0  0  0  0  0  0  0  0  0  0
   -3.4960   26.0390  -31.2180 H   0  0  0  0  0  0  0  0  0  0  0  0
   -8.0019   24.5883  -31.1425 H   0  0  0  0  0  0  0  0  0  0  0  0
   -9.5247   22.3301  -32.0150 H   0  0  0  0  0  0  0  0  0  0  0  0
   -9.3277   19.8883  -32.6006 H   0  0  0  0  0  0  0  0  0  0  0  0
   -6.6039   17.7735  -31.7254 H   0  0  0  0  0  0  0  0  0  0  0  0
   -8.0740   17.9312  -32.7481 H   0  0  0  0  0  0  0  0  0  0  0  0
   -5.0720   20.0056  -31.6611 H   0  0  0  0  0  0  0  0  0  0  0  0
  1  2  1  0
  2  3  1  0
  2  4  2  3
  4  5  1  0
  5  6  2  0
  5  7  1  0
  7  8  1  0
  8  9  1  0
  9 10  1  0
  9 11  2  0
  8 12  2  0
 12 13  1  0
 13 14  2  0
 14 15  1  0
 15 16  2  0
 16 17  1  0
 17 18  1  0
 16 19  1  0
 19 20  2  0
 20  7  1  0
 20 13  1  0
  1 21  1  0
  1 22  1  0
  1 23  1  0
  4 24  1  0
 10 25  1  0
 12 26  1  0
 14 27  1  0
 15 28  1  0
 17 29  1  0
 17 30  1  0
 19 31  1  0
M  CHG  1  10  -1
M  END
>  <UniqueID>  (51) 
51

>  <SMILES>  (51) 
CC(Cl)=CC(=O)n1c(C([NH-])=O)cc2ccc(CCl)cc21

>  <Energy>  (51) 
69.8625648671289

>  <Genealogy>  (51) 
CC(Cl)=CC(=O)n1c(C([NH-])=O)cc2ccc(CCl)cc21 (protonated)
CC(Cl)=CC(=O)n1c(C([NH-])=O)cc2ccc(CCl)cc21 (3D coordinates assigned)
CC(Cl)=CC(=O)n1c(C([NH-])=O)cc2ccc(CCl)cc21 (optimized conformer: 69.8625648671289 kcal/mol)

>  <smiles>  (51) 
CC(Cl)=CC(=O)n1c(C(N)=O)cc2ccc(CCl)cc21

>  <score_type>  (51) 
oracle

>  <origin>  (51) 
adg

>  <m_score__min__energy>  (51) 
-10.83

>  <m_primary>  (51) 
energy

$$$$
54:0
     RDKit          3D

 40 41  0  0  0  0  0  0  0  0999 V2000
   -4.7230   17.7860  -34.9350 C   0  0  0  0  0  0  0  0  0  0  0  0
   -5.9500   17.1430  -34.6670 O   0  0  0  0  0  0  0  0  0  0  0  0
   -6.0340   16.7760  -33.3020 C   0  0  0  0  0  0  0  0  0  0  0  0
   -6.9470   17.7350  -32.5150 C   0  0  0  0  0  0  0  0  0  0  0  0
   -7.5280   18.7960  -33.3590 N   0  0  0  0  0  0  0  0  0  0  0  0
   -7.5200   20.0780  -32.6950 C   0  0  0  0  0  0  0  0  0  0  0  0
   -8.7430   20.7130  -32.3540 C   0  0  0  0  0  0  0  0  0  0  0  0
   -8.7490   21.9430  -31.6770 C   0  0  0  0  0  0  0  0  0  0  0  0
   -7.5230   22.5210  -31.3630 C   0  0  0  0  0  0  0  0  0  0  0  0
   -7.2420   23.6850  -30.6840 C   0  0  0  0  0  0  0  0  0  0  0  0
   -5.8520   23.7620  -30.6450 C   0  0  0  0  0  0  0  0  0  0  0  0
   -5.1170   24.9130  -30.0760 C   0  0  0  0  0  0  0  0  0  0  0  0
   -4.1600   25.6280  -30.8530 N   0  0  0  0  0  0  0  0  0  0  0  0
   -5.3740   25.3000  -28.9050 O   0  0  0  0  0  0  0  0  0  0  0  0
   -5.2950   22.6840  -31.2650 N   0  0  0  0  0  0  0  0  0  0  0  0
   -3.9040   22.3440  -31.3640 C   0  0  0  0  0  0  0  0  0  0  0  0
   -3.5580   21.2600  -31.9080 O   0  0  0  0  0  0  0  0  0  0  0  0
   -2.9360   23.2330  -30.8800 O   0  0  0  0  0  0  0  0  0  0  0  0
   -2.1750   22.9930  -29.6990 C   0  0  0  0  0  0  0  0  0  0  0  0
   -1.3920   24.2120  -29.3270 C   0  0  0  0  0  0  0  0  0  0  0  0
   -1.9510   25.3410  -29.3140 O   0  0  0  0  0  0  0  0  0  0  0  0
   -0.0560   24.1010  -28.9670 O   0  0  0  0  0  0  0  0  0  0  0  0
   -6.3320   21.9360  -31.7030 C   0  0  0  0  0  0  0  0  0  0  0  0
   -6.2940   20.7040  -32.3640 C   0  0  0  0  0  0  0  0  0  0  0  0
   -4.2297   18.0445  -33.9864 H   0  0  0  0  0  0  0  0  0  0  0  0
   -4.0745   17.1119  -35.5138 H   0  0  0  0  0  0  0  0  0  0  0  0
   -4.9083   18.7029  -35.5138 H   0  0  0  0  0  0  0  0  0  0  0  0
   -6.4402   15.7563  -33.2303 H   0  0  0  0  0  0  0  0  0  0  0  0
   -5.0244   16.8266  -32.8681 H   0  0  0  0  0  0  0  0  0  0  0  0
   -7.7668   17.1526  -32.0693 H   0  0  0  0  0  0  0  0  0  0  0  0
   -6.3288   18.2245  -31.7481 H   0  0  0  0  0  0  0  0  0  0  0  0
   -8.5200   18.5430  -33.5740 H   0  0  0  0  0  0  0  0  0  0  0  0
   -7.0210   18.8460  -34.2740 H   0  0  0  0  0  0  0  0  0  0  0  0
   -9.6969   20.2359  -32.6233 H   0  0  0  0  0  0  0  0  0  0  0  0
   -9.6941   22.4347  -31.4032 H   0  0  0  0  0  0  0  0  0  0  0  0
   -7.9620   24.4017  -30.2621 H   0  0  0  0  0  0  0  0  0  0  0  0
   -3.1730   25.2950  -30.9270 H   0  0  0  0  0  0  0  0  0  0  0  0
   -2.8563   22.7343  -28.8750 H   0  0  0  0  0  0  0  0  0  0  0  0
   -1.4770   22.1638  -29.8865 H   0  0  0  0  0  0  0  0  0  0  0  0
   -5.3339   20.2324  -32.6207 H   0  0  0  0  0  0  0  0  0  0  0  0
  1  2  1  0
  2  3  1  0
  3  4  1  0
  4  5  1  0
  5  6  1  0
  6  7  2  0
  7  8  1  0
  8  9  2  0
  9 10  1  0
 10 11  2  0
 11 12  1  0
 12 13  1  0
 12 14  2  0
 11 15  1  0
 15 16  1  0
 16 17  2  0
 16 18  1  0
 18 19  1  0
 19 20  1  0
 20 21  2  0
 20 22  1  0
 15 23  1  0
 23 24  2  0
 24  6  1  0
 23  9  1  0
  1 25  1  0
  1 26  1  0
  1 27  1  0
  3 28  1  0
  3 29  1  0
  4 30  1  0
  4 31  1  0
  5 32  1  0
  5 33  1  0
  7 34  1  0
  8 35  1  0
 10 36  1  0
 13 37  1  0
 19 38  1  0
 19 39  1  0
 24 40  1  0
M  CHG  3   5   1  13  -1  22  -1
M  END
>  <UniqueID>  (52) 
52

>  <SMILES>  (52) 
COCC[NH2+]c1ccc2cc(C([NH-])=O)n(C(=O)OCC(=O)[O-])c2c1

>  <Energy>  (52) 
78.83909804619636

>  <Genealogy>  (52) 
COCC[NH2+]c1ccc2cc(C([NH-])=O)n(C(=O)OCC(=O)[O-])c2c1 (protonated)
COCC[NH2+]c1ccc2cc(C([NH-])=O)n(C(=O)OCC(=O)[O-])c2c1 (3D coordinates assigned)
COCC[NH2+]c1ccc2cc(C([NH-])=O)n(C(=O)OCC(=O)[O-])c2c1 (optimized conformer: 78.83909804619636 kcal/mol)

>  <smiles>  (52) 
COCCNc1ccc2cc(C(N)=O)n(C(=O)OCC(=O)O)c2c1

>  <score_type>  (52) 
oracle

>  <origin>  (52) 
adg

>  <m_score__min__energy>  (52) 
-11.359999999999999

>  <m_primary>  (52) 
energy

$$$$
55:0
     RDKit          3D

 45 46  0  0  0  0  0  0  0  0999 V2000
   -3.1640   24.4460  -30.4630 H   0  0  0  0  0  0  0  0  0  0  0  0
   -3.7520   25.2990  -30.5960 N   0  0  0  0  0  0  0  0  0  0  0  0
   -5.1720   25.2330  -30.4970 C   0  0  0  0  0  0  0  0  0  0  0  0
   -5.8050   26.2280  -30.0530 O   0  0  0  0  0  0  0  0  0  0  0  0
   -5.9070   24.0060  -30.8740 C   0  0  0  0  0  0  0  0  0  0  0  0
   -7.2370   24.0010  -31.2930 C   0  0  0  0  0  0  0  0  0  0  0  0
   -7.8960   24.8709  -31.4312 H   0  0  0  0  0  0  0  0  0  0  0  0
   -7.5500   22.6760  -31.4970 C   0  0  0  0  0  0  0  0  0  0  0  0
   -8.7300   22.0920  -31.9480 C   0  0  0  0  0  0  0  0  0  0  0  0
   -9.6149   22.7049  -32.1746 H   0  0  0  0  0  0  0  0  0  0  0  0
   -8.7570   20.6970  -32.1050 C   0  0  0  0  0  0  0  0  0  0  0  0
   -9.6744   20.2081  -32.4646 H   0  0  0  0  0  0  0  0  0  0  0  0
   -7.6140   19.9100  -31.8050 C   0  0  0  0  0  0  0  0  0  0  0  0
   -7.6360   18.4200  -32.0380 C   0  0  0  0  0  0  0  0  0  0  0  0
   -8.9170   17.9200  -31.8780 F   0  0  0  0  0  0  0  0  0  0  0  0
   -6.8040   17.7740  -31.1410 F   0  0  0  0  0  0  0  0  0  0  0  0
   -7.2050   18.1550  -33.3240 F   0  0  0  0  0  0  0  0  0  0  0  0
   -6.4260   20.5450  -31.3750 C   0  0  0  0  0  0  0  0  0  0  0  0
   -5.5154   19.9607  -31.1766 H   0  0  0  0  0  0  0  0  0  0  0  0
   -6.4360   21.9330  -31.2080 C   0  0  0  0  0  0  0  0  0  0  0  0
   -5.4210   22.7350  -30.8210 N   0  0  0  0  0  0  0  0  0  0  0  0
   -4.0840   22.3220  -30.5040 C   0  0  0  0  0  0  0  0  0  0  0  0
   -3.6100   22.5960  -29.3680 O   0  0  0  0  0  0  0  0  0  0  0  0
   -3.2760   21.6120  -31.5220 C   0  0  0  0  0  0  0  0  0  0  0  0
   -3.8064   20.9310  -32.2038 H   0  0  0  0  0  0  0  0  0  0  0  0
   -1.9450   21.7330  -31.6800 C   0  0  0  0  0  0  0  0  0  0  0  0
   -1.2860   20.9980  -32.7780 C   0  0  0  0  0  0  0  0  0  0  0  0
   -1.5606   19.9509  -32.9735 H   0  0  0  0  0  0  0  0  0  0  0  0
   -0.4130   21.5570  -33.4930 O   0  0  0  0  0  0  0  0  0  0  0  0
   -1.1490   22.4960  -30.7590 N   0  0  0  0  0  0  0  0  0  0  0  0
   -0.9020   23.4830  -31.0000 H   0  0  0  0  0  0  0  0  0  0  0  0
   -0.6680   21.9610  -29.5220 C   0  0  0  0  0  0  0  0  0  0  0  0
   -0.8130   20.7340  -29.2600 O   0  0  0  0  0  0  0  0  0  0  0  0
   -0.0100   22.8070  -28.6230 O   0  0  0  0  0  0  0  0  0  0  0  0
   -0.6400   23.4000  -27.4870 C   0  0  0  0  0  0  0  0  0  0  0  0
    0.1302   23.6882  -26.7564 H   0  0  0  0  0  0  0  0  0  0  0  0
   -1.3315   22.6682  -27.0439 H   0  0  0  0  0  0  0  0  0  0  0  0
   -1.4360   24.6450  -27.8970 C   0  0  1  0  0  0  0  0  0  0  0  0
   -0.9572   25.5291  -27.4509 H   0  0  0  0  0  0  0  0  0  0  0  0
   -1.4400   24.7670  -29.2960 O   0  0  0  0  0  0  0  0  0  0  0  0
   -2.1450   24.1590  -29.6370 H   0  0  0  0  0  0  0  0  0  0  0  0
   -2.8770   24.5540  -27.3870 C   0  0  0  0  0  0  0  0  0  0  0  0
   -2.8773   24.5540  -26.2870 H   0  0  0  0  0  0  0  0  0  0  0  0
   -3.4510   25.4177  -27.7538 H   0  0  0  0  0  0  0  0  0  0  0  0
   -3.3378   23.6250  -27.7538 H   0  0  0  0  0  0  0  0  0  0  0  0
  1  2  1  0
  2  3  1  0
  3  4  2  0
  3  5  1  0
  5  6  2  0
  6  7  1  0
  6  8  1  0
  8  9  2  0
  9 10  1  0
  9 11  1  0
 11 12  1  0
 11 13  2  0
 13 14  1  0
 14 15  1  0
 14 16  1  0
 14 17  1  0
 13 18  1  0
 18 19  1  0
 18 20  2  0
 20 21  1  0
 21 22  1  0
 22 23  2  0
 22 24  1  0
 24 25  1  0
 24 26  2  0
 26 27  1  0
 27 28  1  0
 27 29  2  0
 26 30  1  0
 30 31  1  0
 30 32  1  0
 32 33  2  0
 32 34  1  0
 34 35  1  0
 35 36  1  0
 35 37  1  0
 35 38  1  0
 38 39  1  1
 38 40  1  0
 40 41  1  0
 38 42  1  0
 42 43  1  0
 42 44  1  0
 42 45  1  0
 21  5  1  0
 20  8  1  0
M  CHG  1   2  -1
M  END
>  <UniqueID>  (53) 
53

>  <SMILES>  (53) 
C[C@H](O)COC(=O)N/C(C=O)=C\C(=O)n1c(C([NH-])=O)cc2ccc(C(F)(F)F)cc21

>  <Energy>  (53) 
85.6915613894523

>  <Genealogy>  (53) 
CC(O)COC(=O)N/C(C=O)=C\C(=O)n1c(C([NH-])=O)cc2ccc(C(F)(F)F)cc21 (protonated)
C[C@H](O)COC(=O)N/C(C=O)=C\C(=O)n1c(C([NH-])=O)cc2ccc(C(F)(F)F)cc21 (chirality)
C[C@H](O)COC(=O)N/C(C=O)=C\C(=O)n1c(C([NH-])=O)cc2ccc(C(F)(F)F)cc21 (cis-trans isomerization)
C[C@H](O)COC(=O)N/C(C=O)=C\C(=O)n1c(C([NH-])=O)cc2ccc(C(F)(F)F)cc21 (3D coordinates assigned)
C[C@H](O)COC(=O)N/C(C=O)=C\C(=O)n1c(C([NH-])=O)cc2ccc(C(F)(F)F)cc21 (optimized conformer: 85.6915613894523 kcal/mol)

>  <smiles>  (53) 
CC(O)COC(=O)N/C(C=O)=C\C(=O)n1c(C(N)=O)cc2ccc(C(F)(F)F)cc21

>  <score_type>  (53) 
oracle

>  <origin>  (53) 
adg

>  <m_score__min__energy>  (53) 
-10.73

>  <m_primary>  (53) 
energy

$$$$
56:0
     RDKit          3D

 45 48  0  0  0  0  0  0  0  0999 V2000
   -7.5800   18.0850  -33.0970 C   0  0  0  0  0  0  0  0  0  0  0  0
   -7.5620   19.4280  -32.4300 C   0  0  0  0  0  0  0  0  0  0  0  0
   -8.7620   19.9970  -31.9350 C   0  0  0  0  0  0  0  0  0  0  0  0
   -8.7490   21.2480  -31.2960 C   0  0  0  0  0  0  0  0  0  0  0  0
   -7.5240   21.8930  -31.1500 C   0  0  0  0  0  0  0  0  0  0  0  0
   -7.2320   23.1240  -30.6090 C   0  0  0  0  0  0  0  0  0  0  0  0
   -5.8530   23.2670  -30.7430 C   0  0  0  0  0  0  0  0  0  0  0  0
   -5.1040   24.4390  -30.2470 C   0  0  0  0  0  0  0  0  0  0  0  0
   -5.1890   24.8480  -28.8820 N   0  0  0  0  0  0  0  0  0  0  0  0
   -4.4200   25.1230  -31.0550 O   0  0  0  0  0  0  0  0  0  0  0  0
   -5.3130   22.1730  -31.3480 N   0  0  0  0  0  0  0  0  0  0  0  0
   -3.9570   22.0000  -31.7880 C   0  0  0  0  0  0  0  0  0  0  0  0
   -3.6770   22.0950  -33.0140 O   0  0  0  0  0  0  0  0  0  0  0  0
   -2.9530   21.7230  -30.8530 O   0  0  0  0  0  0  0  0  0  0  0  0
   -2.0110   22.6920  -30.3990 C   0  0  0  0  0  0  0  0  0  0  0  0
   -2.3460   23.1000  -28.9950 C   0  0  0  0  0  0  0  0  0  0  0  0
   -2.7890   24.2950  -28.6780 O   0  0  0  0  0  0  0  0  0  0  0  0
   -2.8660   24.3200  -27.3680 C   0  0  0  0  0  0  0  0  0  0  0  0
   -3.2570   25.3200  -26.7110 O   0  0  0  0  0  0  0  0  0  0  0  0
   -2.4830   23.1920  -26.8190 O   0  0  0  0  0  0  0  0  0  0  0  0
   -2.1570   22.3970  -27.8110 C   0  0  0  0  0  0  0  0  0  0  0  0
   -1.6570   21.0240  -27.6230 C   0  0  0  0  0  0  0  0  0  0  0  0
   -2.4710   20.0720  -26.9900 C   0  0  0  0  0  0  0  0  0  0  0  0
   -2.0130   18.7650  -26.8040 C   0  0  0  0  0  0  0  0  0  0  0  0
   -0.7460   18.3950  -27.2640 C   0  0  0  0  0  0  0  0  0  0  0  0
   -0.3030   17.1260  -27.0820 F   0  0  0  0  0  0  0  0  0  0  0  0
    0.0590   19.3300  -27.9200 C   0  0  0  0  0  0  0  0  0  0  0  0
   -0.3960   20.6390  -28.1070 C   0  0  0  0  0  0  0  0  0  0  0  0
   -6.3490   21.3400  -31.5920 C   0  0  0  0  0  0  0  0  0  0  0  0
   -6.3370   20.1030  -32.2500 C   0  0  0  0  0  0  0  0  0  0  0  0
   -7.5906   17.2954  -32.3312 H   0  0  0  0  0  0  0  0  0  0  0  0
   -8.4794   17.9993  -33.7245 H   0  0  0  0  0  0  0  0  0  0  0  0
   -6.6832   17.9752  -33.7245 H   0  0  0  0  0  0  0  0  0  0  0  0
   -9.7117   19.4544  -32.0522 H   0  0  0  0  0  0  0  0  0  0  0  0
   -9.6779   21.7037  -30.9226 H   0  0  0  0  0  0  0  0  0  0  0  0
   -7.9373   23.8421  -30.1653 H   0  0  0  0  0  0  0  0  0  0  0  0
   -5.8760   24.4110  -28.2290 H   0  0  0  0  0  0  0  0  0  0  0  0
   -4.6140   25.6500  -28.5380 H   0  0  0  0  0  0  0  0  0  0  0  0
   -1.0000   22.2591  -30.4231 H   0  0  0  0  0  0  0  0  0  0  0  0
   -2.0495   23.5742  -31.0549 H   0  0  0  0  0  0  0  0  0  0  0  0
   -3.4740   20.3559  -26.6387 H   0  0  0  0  0  0  0  0  0  0  0  0
   -2.6501   18.0267  -26.2951 H   0  0  0  0  0  0  0  0  0  0  0  0
    1.0523   19.0358  -28.2899 H   0  0  0  0  0  0  0  0  0  0  0  0
    0.2354   21.3691  -28.6346 H   0  0  0  0  0  0  0  0  0  0  0  0
   -5.3952   19.6691  -32.6171 H   0  0  0  0  0  0  0  0  0  0  0  0
  1  2  1  0
  2  3  2  0
  3  4  1  0
  4  5  2  0
  5  6  1  0
  6  7  2  0
  7  8  1  0
  8  9  1  0
  8 10  2  0
  7 11  1  0
 11 12  1  0
 12 13  2  0
 12 14  1  0
 14 15  1  0
 15 16  1  0
 16 17  1  0
 17 18  1  0
 18 19  2  0
 18 20  1  0
 20 21  1  0
 21 22  1  0
 22 23  2  0
 23 24  1  0
 24 25  2  0
 25 26  1  0
 25 27  1  0
 27 28  2  0
 11 29  1  0
 29 30  2  0
 30  2  1  0
 29  5  1  0
 21 16  2  0
 28 22  1  0
  1 31  1  0
  1 32  1  0
  1 33  1  0
  3 34  1  0
  4 35  1  0
  6 36  1  0
  9 37  1  0
  9 38  1  0
 15 39  1  0
 15 40  1  0
 23 41  1  0
 24 42  1  0
 27 43  1  0
 28 44  1  0
 30 45  1  0
M  END
>  <UniqueID>  (54) 
54

>  <SMILES>  (54) 
Cc1ccc2cc(C(N)=O)n(C(=O)OCc3oc(=O)oc3-c3ccc(F)cc3)c2c1

>  <Energy>  (54) 
123.09637100053854

>  <Genealogy>  (54) 
Cc1ccc2cc(C(N)=O)n(C(=O)OCc3oc(=O)oc3-c3ccc(F)cc3)c2c1 (3D coordinates assigned)
Cc1ccc2cc(C(N)=O)n(C(=O)OCc3oc(=O)oc3-c3ccc(F)cc3)c2c1 (optimized conformer: 123.09637100053854 kcal/mol)

>  <smiles>  (54) 
Cc1ccc2cc(C(N)=O)n(C(=O)OCc3oc(=O)oc3-c3ccc(F)cc3)c2c1

>  <score_type>  (54) 
oracle

>  <origin>  (54) 
adg

>  <m_score__min__energy>  (54) 
-9.7200000000000006

>  <m_primary>  (54) 
energy

$$$$
57:0
     RDKit          3D

 45 46  0  0  0  0  0  0  0  0999 V2000
   -8.1040   19.1430  -33.0620 N   0  0  0  0  0  0  0  0  0  0  0  0
   -8.6730   20.3510  -32.5620 C   0  0  0  0  0  0  0  0  0  0  0  0
   -9.9180   20.5210  -32.6340 O   0  0  0  0  0  0  0  0  0  0  0  0
   -7.8040   21.3660  -31.9300 C   0  0  0  0  0  0  0  0  0  0  0  0
   -8.2740   22.5840  -31.4430 C   0  0  0  0  0  0  0  0  0  0  0  0
   -7.1560   23.2690  -31.0290 C   0  0  0  0  0  0  0  0  0  0  0  0
   -7.0400   24.5300  -30.4560 C   0  0  0  0  0  0  0  0  0  0  0  0
   -5.7550   24.9780  -30.1070 C   0  0  0  0  0  0  0  0  0  0  0  0
   -4.6110   24.1680  -30.3300 C   0  0  0  0  0  0  0  0  0  0  0  0
   -3.3160   24.6830  -29.9470 N   0  0  0  0  0  0  0  0  0  0  0  0
   -2.2120   23.9470  -29.3090 C   0  0  2  0  0  0  0  0  0  0  0  0
   -2.6940   22.7690  -28.4430 C   0  0  0  0  0  0  0  0  0  0  0  0
   -1.3320   21.6260  -28.0350 P   0  0  2  0  0  0  0  0  0  0  0  0
   -0.5550   21.3130  -29.2940 O   0  0  0  0  0  0  0  0  0  0  0  0
   -1.9630   20.1910  -27.4030 O   0  0  0  0  0  0  0  0  0  0  0  0
   -0.2940   22.3300  -26.9000 O   0  0  0  0  0  0  0  0  0  0  0  0
   -1.0970   25.0720  -28.3890 P   0  0  0  0  0  0  0  0  0  0  0  0
   -1.4810   25.0580  -26.9270 O   0  0  0  0  0  0  0  0  0  0  0  0
    0.5040   24.5500  -28.5410 O   0  0  0  0  0  0  0  0  0  0  0  0
   -1.2270   26.6570  -28.9670 O   0  0  0  0  0  0  0  0  0  0  0  0
   -4.7790   22.8840  -30.8990 C   0  0  0  0  0  0  0  0  0  0  0  0
   -6.0670   22.4730  -31.2610 C   0  0  0  0  0  0  0  0  0  0  0  0
   -6.4460   21.2990  -31.8120 N   0  0  0  0  0  0  0  0  0  0  0  0
   -5.5780   20.2070  -32.1570 C   0  0  0  0  0  0  0  0  0  0  0  0
   -5.1900   19.4080  -31.2620 O   0  0  0  0  0  0  0  0  0  0  0  0
   -5.1500   20.0620  -33.4830 O   0  0  0  0  0  0  0  0  0  0  0  0
   -5.2470   18.8890  -34.2400 C   0  0  0  0  0  0  0  0  0  0  0  0
   -6.1270   18.7640  -35.1360 O   0  0  0  0  0  0  0  0  0  0  0  0
   -4.3510   17.8470  -33.9780 O   0  0  0  0  0  0  0  0  0  0  0  0
   -4.6990   16.6830  -33.2320 C   0  0  0  0  0  0  0  0  0  0  0  0
   -6.1730   16.6480  -32.9630 C   0  0  0  0  0  0  0  0  0  0  0  0
   -6.6310   17.2430  -32.0000 O   0  0  0  0  0  0  0  0  0  0  0  0
   -7.0710   19.0380  -33.1630 H   0  0  0  0  0  0  0  0  0  0  0  0
   -9.3188   22.9254  -31.3990 H   0  0  0  0  0  0  0  0  0  0  0  0
   -7.9264   25.1575  -30.2813 H   0  0  0  0  0  0  0  0  0  0  0  0
   -5.6335   25.9728  -29.6535 H   0  0  0  0  0  0  0  0  0  0  0  0
   -3.0910   25.6590  -30.2430 H   0  0  0  0  0  0  0  0  0  0  0  0
   -1.6259   23.4968  -30.1237 H   0  0  0  0  0  0  0  0  0  0  0  0
   -3.1189   23.1645  -27.5086 H   0  0  0  0  0  0  0  0  0  0  0  0
   -3.4491   22.2104  -29.0155 H   0  0  0  0  0  0  0  0  0  0  0  0
   -0.2460   23.2850  -27.1570 H   0  0  0  0  0  0  0  0  0  0  0  0
   -3.9146   22.2216  -31.0539 H   0  0  0  0  0  0  0  0  0  0  0  0
   -4.4151   15.7882  -33.8054 H   0  0  0  0  0  0  0  0  0  0  0  0
   -4.1643   16.7056  -32.2710 H   0  0  0  0  0  0  0  0  0  0  0  0
   -6.8416   16.0869  -33.6324 H   0  0  0  0  0  0  0  0  0  0  0  0
  1  2  1  0
  2  3  2  0
  2  4  1  0
  4  5  2  0
  5  6  1  0
  6  7  2  0
  7  8  1  0
  8  9  2  0
  9 10  1  0
 10 11  1  0
 11 12  1  0
 12 13  1  0
 13 14  2  0
 13 15  1  1
 13 16  1  0
 11 17  1  0
 17 18  2  0
 17 19  1  0
 17 20  1  0
  9 21  1  0
 21 22  2  0
 22 23  1  0
 23 24  1  0
 24 25  2  0
 24 26  1  0
 26 27  1  0
 27 28  2  0
 27 29  1  0
 29 30  1  0
 30 31  1  0
 31 32  2  0
 23  4  1  0
 22  6  1  0
  1 33  1  0
  5 34  1  0
  7 35  1  0
  8 36  1  0
 10 37  1  0
 11 38  1  6
 12 39  1  0
 12 40  1  0
 16 41  1  0
 21 42  1  0
 30 43  1  0
 30 44  1  0
 31 45  1  0
M  CHG  4   1  -1  15  -1  19  -1  20  -1
M  END
>  <UniqueID>  (55) 
55

>  <SMILES>  (55) 
[NH-]C(=O)c1cc2ccc(N[C@H](C[P@](=O)([O-])O)P(=O)([O-])[O-])cc2n1C(=O)OC(=O)OCC=O

>  <Energy>  (55) 
75.68689784485053

>  <Genealogy>  (55) 
[NH-]C(=O)c1cc2ccc(NC(CP(=O)([O-])O)P(=O)([O-])[O-])cc2n1C(=O)OC(=O)OCC=O (protonated)
[NH-]C(=O)c1cc2ccc(N[C@H](C[P@](=O)([O-])O)P(=O)([O-])[O-])cc2n1C(=O)OC(=O)OCC=O (chirality)
[NH-]C(=O)c1cc2ccc(N[C@H](C[P@](=O)([O-])O)P(=O)([O-])[O-])cc2n1C(=O)OC(=O)OCC=O (3D coordinates assigned)
[NH-]C(=O)c1cc2ccc(N[C@H](C[P@](=O)([O-])O)P(=O)([O-])[O-])cc2n1C(=O)OC(=O)OCC=O (optimized conformer: 75.68689784485053 kcal/mol)

>  <smiles>  (55) 
NC(=O)c1cc2ccc(NC(CP(=O)(O)O)P(=O)(O)O)cc2n1C(=O)OC(=O)OCC=O

>  <score_type>  (55) 
oracle

>  <origin>  (55) 
adg

>  <m_score__min__energy>  (55) 
-13.220000000000001

>  <m_primary>  (55) 
energy

$$$$
58:0
     RDKit          3D

 39 42  0  0  0  0  0  0  0  0999 V2000
   -1.5950   26.0220  -28.8020 N   0  0  0  0  0  0  0  0  0  0  0  0
   -1.9280   24.6800  -28.4570 C   0  0  0  0  0  0  0  0  0  0  0  0
   -2.2140   24.4040  -27.2610 O   0  0  0  0  0  0  0  0  0  0  0  0
   -2.0020   23.6240  -29.4880 C   0  0  0  0  0  0  0  0  0  0  0  0
   -1.1210   22.5460  -29.5420 C   0  0  0  0  0  0  0  0  0  0  0  0
   -1.5760   21.7540  -30.5720 C   0  0  0  0  0  0  0  0  0  0  0  0
   -1.0710   20.5560  -31.0690 C   0  0  0  0  0  0  0  0  0  0  0  0
   -1.7290   19.9670  -32.1610 C   0  0  0  0  0  0  0  0  0  0  0  0
   -2.8650   20.5870  -32.7390 C   0  0  0  0  0  0  0  0  0  0  0  0
   -3.5770   19.9460  -33.8990 C   0  0  0  0  0  0  0  0  0  0  0  0
   -4.5280   18.9480  -33.4130 N   0  0  0  0  0  0  0  0  0  0  0  0
   -4.3220   17.6380  -33.4920 N   0  0  0  0  0  0  0  0  0  0  0  0
   -5.4250   17.0060  -33.0240 C   0  0  0  0  0  0  0  0  0  0  0  0
   -5.5530   15.5420  -32.9640 C   0  0  0  0  0  0  0  0  0  0  0  0
   -6.2260   14.9370  -33.8400 O   0  0  0  0  0  0  0  0  0  0  0  0
   -4.9400   14.8110  -31.9550 O   0  0  0  0  0  0  0  0  0  0  0  0
   -6.3580   17.9610  -32.6500 C   0  0  0  0  0  0  0  0  0  0  0  0
   -7.6520   17.8810  -32.1290 C   0  0  0  0  0  0  0  0  0  0  0  0
   -8.3320   19.0870  -31.8800 C   0  0  0  0  0  0  0  0  0  0  0  0
   -7.7160   20.3290  -32.1530 C   0  0  0  0  0  0  0  0  0  0  0  0
   -6.4120   20.3770  -32.6780 C   0  0  0  0  0  0  0  0  0  0  0  0
   -5.7600   19.1650  -32.9130 C   0  0  0  0  0  0  0  0  0  0  0  0
   -3.3480   21.8040  -32.2070 C   0  0  0  0  0  0  0  0  0  0  0  0
   -2.6850   22.3570  -31.1060 C   0  0  0  0  0  0  0  0  0  0  0  0
   -2.9600   23.5090  -30.4530 N   0  0  0  0  0  0  0  0  0  0  0  0
   -3.9980   24.4450  -30.7820 C   0  0  0  0  0  0  0  0  0  0  0  0
   -3.8780   25.6610  -30.4800 O   0  0  0  0  0  0  0  0  0  0  0  0
   -5.1340   24.0220  -31.4620 O   0  0  0  0  0  0  0  0  0  0  0  0
   -1.1840   26.2500  -29.7340 H   0  0  0  0  0  0  0  0  0  0  0  0
   -0.2474   22.3660  -28.8983 H   0  0  0  0  0  0  0  0  0  0  0  0
   -0.1839   20.0851  -30.6203 H   0  0  0  0  0  0  0  0  0  0  0  0
   -1.3594   19.0158  -32.5715 H   0  0  0  0  0  0  0  0  0  0  0  0
   -4.1174   20.7181  -34.4662 H   0  0  0  0  0  0  0  0  0  0  0  0
   -2.8381   19.4540  -34.5486 H   0  0  0  0  0  0  0  0  0  0  0  0
   -8.1226   16.9088  -31.9208 H   0  0  0  0  0  0  0  0  0  0  0  0
   -9.3521   19.0630  -31.4692 H   0  0  0  0  0  0  0  0  0  0  0  0
   -8.2597   21.2642  -31.9537 H   0  0  0  0  0  0  0  0  0  0  0  0
   -5.9222   21.3375  -32.8962 H   0  0  0  0  0  0  0  0  0  0  0  0
   -4.2232   22.3039  -32.6475 H   0  0  0  0  0  0  0  0  0  0  0  0
  1  2  1  0
  2  3  2  0
  2  4  1  0
  4  5  2  0
  5  6  1  0
  6  7  2  0
  7  8  1  0
  8  9  2  0
  9 10  1  0
 10 11  1  0
 11 12  1  0
 12 13  2  0
 13 14  1  0
 14 15  2  0
 14 16  1  0
 13 17  1  0
 17 18  2  0
 18 19  1  0
 19 20  2  0
 20 21  1  0
 21 22  2  0
  9 23  1  0
 23 24  2  0
 24 25  1  0
 25 26  1  0
 26 27  2  0
 26 28  1  0
 25  4  1  0
 24  6  1  0
 22 11  1  0
 22 17  1  0
  1 29  1  0
  5 30  1  0
  7 31  1  0
  8 32  1  0
 10 33  1  0
 10 34  1  0
 18 35  1  0
 19 36  1  0
 20 37  1  0
 21 38  1  0
 23 39  1  0
M  CHG  3   1  -1  16  -1  28  -1
M  END
>  <UniqueID>  (56) 
56

>  <SMILES>  (56) 
[NH-]C(=O)c1cc2ccc(Cn3nc(C(=O)[O-])c4ccccc43)cc2n1C(=O)[O-]

>  <Energy>  (56) 
121.26372334809727

>  <Genealogy>  (56) 
[NH-]C(=O)c1cc2ccc(Cn3nc(C(=O)[O-])c4ccccc43)cc2n1C(=O)[O-] (protonated)
[NH-]C(=O)c1cc2ccc(Cn3nc(C(=O)[O-])c4ccccc43)cc2n1C(=O)[O-] (3D coordinates assigned)
[NH-]C(=O)c1cc2ccc(Cn3nc(C(=O)[O-])c4ccccc43)cc2n1C(=O)[O-] (optimized conformer: 121.26372334809727 kcal/mol)

>  <smiles>  (56) 
NC(=O)c1cc2ccc(Cn3nc(C(=O)O)c4ccccc43)cc2n1C(=O)O

>  <score_type>  (56) 
oracle

>  <origin>  (56) 
adg

>  <m_score__min__energy>  (56) 
-12.529999999999999

>  <m_primary>  (56) 
energy

$$$$
59:0
     RDKit          3D

 40 41  0  0  0  0  0  0  0  0999 V2000
   -0.8530   26.4970  -28.1080 C   0  0  0  0  0  0  0  0  0  0  0  0
   -1.5900   25.6760  -29.0590 N   0  0  0  0  0  0  0  0  0  0  0  0
   -2.2010   24.4220  -28.7380 C   0  0  0  0  0  0  0  0  0  0  0  0
   -3.4320   24.3940  -28.4710 O   0  0  0  0  0  0  0  0  0  0  0  0
   -1.4270   23.1370  -28.7510 C   0  0  0  0  0  0  0  0  0  0  0  0
   -2.2790   22.0820  -28.3530 O   0  0  0  0  0  0  0  0  0  0  0  0
   -1.8990   20.8670  -28.9770 C   0  0  0  0  0  0  0  0  0  0  0  0
   -2.2420   20.9170  -30.4610 C   0  0  0  0  0  0  0  0  0  0  0  0
   -3.6030   21.2930  -30.6230 O   0  0  0  0  0  0  0  0  0  0  0  0
   -3.9990   22.5450  -31.0990 C   0  0  0  0  0  0  0  0  0  0  0  0
   -3.1350   23.3990  -31.4400 O   0  0  0  0  0  0  0  0  0  0  0  0
   -5.3970   22.8400  -31.2340 N   0  0  0  0  0  0  0  0  0  0  0  0
   -6.0510   23.9630  -30.8230 C   0  0  0  0  0  0  0  0  0  0  0  0
   -5.4190   25.1990  -30.3170 C   0  0  0  0  0  0  0  0  0  0  0  0
   -4.1780   25.6580  -30.8460 N   0  0  0  0  0  0  0  0  0  0  0  0
   -6.0060   25.8850  -29.4380 O   0  0  0  0  0  0  0  0  0  0  0  0
   -7.4260   23.8170  -30.9900 C   0  0  0  0  0  0  0  0  0  0  0  0
   -7.5970   22.5600  -31.5240 C   0  0  0  0  0  0  0  0  0  0  0  0
   -8.7660   21.8840  -31.8650 C   0  0  0  0  0  0  0  0  0  0  0  0
   -8.6480   20.5720  -32.3520 C   0  0  0  0  0  0  0  0  0  0  0  0
   -7.3770   19.9630  -32.4800 C   0  0  0  0  0  0  0  0  0  0  0  0
   -7.2720   18.6220  -32.9650 N   0  0  0  0  0  0  0  0  0  0  0  0
   -6.2130   20.6770  -32.1230 C   0  0  0  0  0  0  0  0  0  0  0  0
   -6.3580   21.9900  -31.6600 C   0  0  0  0  0  0  0  0  0  0  0  0
   -1.1198   26.1998  -27.0831 H   0  0  0  0  0  0  0  0  0  0  0  0
    0.2270   26.3556  -28.2614 H   0  0  0  0  0  0  0  0  0  0  0  0
   -1.1097   27.5556  -28.2614 H   0  0  0  0  0  0  0  0  0  0  0  0
   -1.0504   22.9437  -29.7663 H   0  0  0  0  0  0  0  0  0  0  0  0
   -0.5761   23.2089  -28.0576 H   0  0  0  0  0  0  0  0  0  0  0  0
   -0.8155   20.7190  -28.8578 H   0  0  0  0  0  0  0  0  0  0  0  0
   -2.4419   20.0334  -28.5076 H   0  0  0  0  0  0  0  0  0  0  0  0
   -1.5965   21.6539  -30.9614 H   0  0  0  0  0  0  0  0  0  0  0  0
   -2.0815   19.9243  -30.9068 H   0  0  0  0  0  0  0  0  0  0  0  0
   -3.2700   25.3200  -30.4570 H   0  0  0  0  0  0  0  0  0  0  0  0
   -8.2089   24.5504  -30.7468 H   0  0  0  0  0  0  0  0  0  0  0  0
   -9.7505   22.3625  -31.7563 H   0  0  0  0  0  0  0  0  0  0  0  0
   -9.5515   20.0128  -32.6365 H   0  0  0  0  0  0  0  0  0  0  0  0
   -7.7250   18.3410  -33.8630 H   0  0  0  0  0  0  0  0  0  0  0  0
   -6.7410   17.9000  -32.4290 H   0  0  0  0  0  0  0  0  0  0  0  0
   -5.2186   20.2141  -32.2064 H   0  0  0  0  0  0  0  0  0  0  0  0
  1  2  1  0
  2  3  1  0
  3  4  2  0
  3  5  1  0
  5  6  1  0
  6  7  1  0
  7  8  1  0
  8  9  1  0
  9 10  1  0
 10 11  2  0
 10 12  1  0
 12 13  1  0
 13 14  1  0
 14 15  1  0
 14 16  2  0
 13 17  2  0
 17 18  1  0
 18 19  2  0
 19 20  1  0
 20 21  2  0
 21 22  1  0
 21 23  1  0
 23 24  2  0
 24 12  1  0
 24 18  1  0
  1 25  1  0
  1 26  1  0
  1 27  1  0
  5 28  1  0
  5 29  1  0
  7 30  1  0
  7 31  1  0
  8 32  1  0
  8 33  1  0
 15 34  1  0
 17 35  1  0
 19 36  1  0
 20 37  1  0
 22 38  1  0
 22 39  1  0
 23 40  1  0
M  CHG  2   2  -1  15  -1
M  END
>  <UniqueID>  (57) 
57

>  <SMILES>  (57) 
C[N-]C(=O)COCCOC(=O)n1c(C([NH-])=O)cc2ccc(N)cc21

>  <Energy>  (57) 
70.22793317173556

>  <Genealogy>  (57) 
C[N-]C(=O)COCCOC(=O)n1c(C([NH-])=O)cc2ccc(N)cc21 (protonated)
C[N-]C(=O)COCCOC(=O)n1c(C([NH-])=O)cc2ccc(N)cc21 (3D coordinates assigned)
C[N-]C(=O)COCCOC(=O)n1c(C([NH-])=O)cc2ccc(N)cc21 (optimized conformer: 70.22793317173556 kcal/mol)

>  <smiles>  (57) 
CNC(=O)COCCOC(=O)n1c(C(N)=O)cc2ccc(N)cc21

>  <score_type>  (57) 
oracle

>  <origin>  (57) 
adg

>  <m_score__min__energy>  (57) 
-10.43

>  <m_primary>  (57) 
energy

$$$$
60:0
     RDKit          3D

 39 40  0  0  0  0  0  0  0  0999 V2000
   -2.7960   24.9290  -26.6420 C   0  0  0  0  0  0  0  0  0  0  0  0
   -1.8050   25.4580  -27.6840 C   0  0  0  0  0  0  0  0  0  0  0  0
   -2.0270   24.8910  -29.0290 N   0  0  0  0  0  0  0  0  0  0  0  0
   -1.0290   23.8850  -29.4360 C   0  0  0  0  0  0  0  0  0  0  0  0
   -1.6580   22.7110  -30.1260 C   0  0  0  0  0  0  0  0  0  0  0  0
   -0.9280   21.8620  -30.7040 O   0  0  0  0  0  0  0  0  0  0  0  0
   -3.0540   22.6130  -30.1580 O   0  0  0  0  0  0  0  0  0  0  0  0
   -3.8200   22.3920  -31.3090 C   0  0  0  0  0  0  0  0  0  0  0  0
   -3.2910   21.9270  -32.3550 O   0  0  0  0  0  0  0  0  0  0  0  0
   -5.2310   22.6630  -31.2810 N   0  0  0  0  0  0  0  0  0  0  0  0
   -5.8540   23.8290  -30.9440 C   0  0  0  0  0  0  0  0  0  0  0  0
   -5.2070   25.0270  -30.3730 C   0  0  0  0  0  0  0  0  0  0  0  0
   -3.8880   25.4050  -30.7610 N   0  0  0  0  0  0  0  0  0  0  0  0
   -5.8060   25.6970  -29.4890 O   0  0  0  0  0  0  0  0  0  0  0  0
   -7.2320   23.7150  -31.1180 C   0  0  0  0  0  0  0  0  0  0  0  0
   -7.4390   22.4300  -31.5630 C   0  0  0  0  0  0  0  0  0  0  0  0
   -8.6250   21.7770  -31.8860 C   0  0  0  0  0  0  0  0  0  0  0  0
   -8.5440   20.4480  -32.3310 C   0  0  0  0  0  0  0  0  0  0  0  0
   -7.2880   19.8070  -32.4640 C   0  0  0  0  0  0  0  0  0  0  0  0
   -7.2170   18.3770  -32.9110 C   0  0  0  0  0  0  0  0  0  0  0  0
   -6.1060   20.4960  -32.1140 C   0  0  0  0  0  0  0  0  0  0  0  0
   -6.2170   21.8150  -31.6540 C   0  0  0  0  0  0  0  0  0  0  0  0
   -2.4110   25.1345  -25.6323 H   0  0  0  0  0  0  0  0  0  0  0  0
   -3.7672   25.4287  -26.7728 H   0  0  0  0  0  0  0  0  0  0  0  0
   -2.9213   23.8440  -26.7728 H   0  0  0  0  0  0  0  0  0  0  0  0
   -1.9082   26.5516  -27.7429 H   0  0  0  0  0  0  0  0  0  0  0  0
   -0.7968   25.1583  -27.3621 H   0  0  0  0  0  0  0  0  0  0  0  0
   -2.9780   24.4520  -29.0520 H   0  0  0  0  0  0  0  0  0  0  0  0
   -2.0250   25.6680  -29.7310 H   0  0  0  0  0  0  0  0  0  0  0  0
   -0.3103   24.3563  -30.1226 H   0  0  0  0  0  0  0  0  0  0  0  0
   -0.5309   23.5160  -28.5273 H   0  0  0  0  0  0  0  0  0  0  0  0
   -3.1070   24.7110  -30.7530 H   0  0  0  0  0  0  0  0  0  0  0  0
   -7.9929   24.4887  -30.9377 H   0  0  0  0  0  0  0  0  0  0  0  0
   -9.5957   22.2865  -31.7954 H   0  0  0  0  0  0  0  0  0  0  0  0
   -9.4646   19.8993  -32.5787 H   0  0  0  0  0  0  0  0  0  0  0  0
   -7.1843   17.7187  -32.0303 H   0  0  0  0  0  0  0  0  0  0  0  0
   -8.1043   18.1372  -33.5153 H   0  0  0  0  0  0  0  0  0  0  0  0
   -6.3103   18.2263  -33.5153 H   0  0  0  0  0  0  0  0  0  0  0  0
   -5.1231   20.0096  -32.2003 H   0  0  0  0  0  0  0  0  0  0  0  0
  1  2  1  0
  2  3  1  0
  3  4  1  0
  4  5  1  0
  5  6  2  0
  5  7  1  0
  7  8  1  0
  8  9  2  0
  8 10  1  0
 10 11  1  0
 11 12  1  0
 12 13  1  0
 12 14  2  0
 11 15  2  0
 15 16  1  0
 16 17  2  0
 17 18  1  0
 18 19  2  0
 19 20  1  0
 19 21  1  0
 21 22  2  0
 22 10  1  0
 22 16  1  0
  1 23  1  0
  1 24  1  0
  1 25  1  0
  2 26  1  0
  2 27  1  0
  3 28  1  0
  3 29  1  0
  4 30  1  0
  4 31  1  0
 13 32  1  0
 15 33  1  0
 17 34  1  0
 18 35  1  0
 20 36  1  0
 20 37  1  0
 20 38  1  0
 21 39  1  0
M  CHG  2   3   1  13  -1
M  END
>  <UniqueID>  (58) 
58

>  <SMILES>  (58) 
CC[NH2+]CC(=O)OC(=O)n1c(C([NH-])=O)cc2ccc(C)cc21

>  <Energy>  (58) 
76.1395894792683

>  <Genealogy>  (58) 
CC[NH2+]CC(=O)OC(=O)n1c(C([NH-])=O)cc2ccc(C)cc21 (protonated)
CC[NH2+]CC(=O)OC(=O)n1c(C([NH-])=O)cc2ccc(C)cc21 (3D coordinates assigned)
CC[NH2+]CC(=O)OC(=O)n1c(C([NH-])=O)cc2ccc(C)cc21 (optimized conformer: 76.1395894792683 kcal/mol)

>  <smiles>  (58) 
CCNCC(=O)OC(=O)n1c(C(N)=O)cc2ccc(C)cc21

>  <score_type>  (58) 
oracle

>  <origin>  (58) 
adg

>  <m_score__min__energy>  (58) 
-9.3800000000000008

>  <m_primary>  (58) 
energy

$$$$
61:0
     RDKit          3D

 39 40  0  0  0  0  0  0  0  0999 V2000
   -6.0810   17.0500  -31.2560 C   0  0  0  0  0  0  0  0  0  0  0  0
   -6.0130   17.7080  -32.6420 C   0  0  1  0  0  0  0  0  0  0  0  0
   -5.8240   16.6900  -33.7780 C   0  0  0  0  0  0  0  0  0  0  0  0
   -6.4760   17.0920  -34.9510 O   0  0  0  0  0  0  0  0  0  0  0  0
   -7.1430   18.6100  -32.9240 N   0  0  0  0  0  0  0  0  0  0  0  0
   -7.2860   19.9630  -32.4530 C   0  0  0  0  0  0  0  0  0  0  0  0
   -8.5470   20.6110  -32.4320 C   0  0  0  0  0  0  0  0  0  0  0  0
   -8.6620   21.9440  -32.0040 C   0  0  0  0  0  0  0  0  0  0  0  0
   -7.5030   22.6050  -31.6100 C   0  0  0  0  0  0  0  0  0  0  0  0
   -7.3250   23.9020  -31.1850 C   0  0  0  0  0  0  0  0  0  0  0  0
   -5.9580   24.0280  -30.9500 C   0  0  0  0  0  0  0  0  0  0  0  0
   -5.3380   25.2500  -30.3960 C   0  0  0  0  0  0  0  0  0  0  0  0
   -4.0510   25.6810  -30.8280 N   0  0  0  0  0  0  0  0  0  0  0  0
   -5.9320   25.8940  -29.4900 O   0  0  0  0  0  0  0  0  0  0  0  0
   -5.3140   22.8590  -31.2260 N   0  0  0  0  0  0  0  0  0  0  0  0
   -3.8990   22.6110  -31.2070 C   0  0  0  0  0  0  0  0  0  0  0  0
   -3.3500   22.0160  -32.1740 O   0  0  0  0  0  0  0  0  0  0  0  0
   -3.1330   23.0490  -30.1230 O   0  0  0  0  0  0  0  0  0  0  0  0
   -1.7110   23.0610  -30.1400 C   0  0  0  0  0  0  0  0  0  0  0  0
   -1.2200   24.2440  -29.3780 C   0  0  0  0  0  0  0  0  0  0  0  0
   -1.9130   25.2940  -29.3240 O   0  0  0  0  0  0  0  0  0  0  0  0
    0.0290   24.2130  -28.7720 O   0  0  0  0  0  0  0  0  0  0  0  0
   -6.2750   21.9970  -31.6270 C   0  0  0  0  0  0  0  0  0  0  0  0
   -6.1300   20.6760  -32.0680 C   0  0  0  0  0  0  0  0  0  0  0  0
   -6.0010   17.8239  -30.4784 H   0  0  0  0  0  0  0  0  0  0  0  0
   -7.0387   16.5197  -31.1484 H   0  0  0  0  0  0  0  0  0  0  0  0
   -5.2520   16.3351  -31.1484 H   0  0  0  0  0  0  0  0  0  0  0  0
   -5.1102   18.3354  -32.6052 H   0  0  0  0  0  0  0  0  0  0  0  0
   -4.7491   16.5846  -33.9864 H   0  0  0  0  0  0  0  0  0  0  0  0
   -6.2600   15.7330  -33.4554 H   0  0  0  0  0  0  0  0  0  0  0  0
   -6.5590   18.0800  -34.9110 H   0  0  0  0  0  0  0  0  0  0  0  0
   -7.7690   18.3200  -33.7100 H   0  0  0  0  0  0  0  0  0  0  0  0
   -9.4451   20.0638  -32.7544 H   0  0  0  0  0  0  0  0  0  0  0  0
   -9.6386   22.4497  -31.9811 H   0  0  0  0  0  0  0  0  0  0  0  0
   -8.0978   24.6745  -31.0580 H   0  0  0  0  0  0  0  0  0  0  0  0
   -3.1840   25.2000  -30.4980 H   0  0  0  0  0  0  0  0  0  0  0  0
   -1.3300   22.1400  -29.6746 H   0  0  0  0  0  0  0  0  0  0  0  0
   -1.3551   23.1181  -31.1793 H   0  0  0  0  0  0  0  0  0  0  0  0
   -5.1373   20.2042  -32.1135 H   0  0  0  0  0  0  0  0  0  0  0  0
  1  2  1  0
  2  3  1  0
  3  4  1  0
  2  5  1  0
  5  6  1  0
  6  7  2  0
  7  8  1  0
  8  9  2  0
  9 10  1  0
 10 11  2  0
 11 12  1  0
 12 13  1  0
 12 14  2  0
 11 15  1  0
 15 16  1  0
 16 17  2  0
 16 18  1  0
 18 19  1  0
 19 20  1  0
 20 21  2  0
 20 22  1  0
 15 23  1  0
 23 24  2  0
 24  6  1  0
 23  9  1  0
  1 25  1  0
  1 26  1  0
  1 27  1  0
  2 28  1  1
  3 29  1  0
  3 30  1  0
  4 31  1  0
  5 32  1  0
  7 33  1  0
  8 34  1  0
 10 35  1  0
 13 36  1  0
 19 37  1  0
 19 38  1  0
 24 39  1  0
M  CHG  2  13  -1  22  -1
M  END
>  <UniqueID>  (59) 
59

>  <SMILES>  (59) 
C[C@@H](CO)Nc1ccc2cc(C([NH-])=O)n(C(=O)OCC(=O)[O-])c2c1

>  <Energy>  (59) 
78.98816150801366

>  <Genealogy>  (59) 
C[C@@H](CO)Nc1ccc2cc(C([NH-])=O)n(C(=O)OCC(=O)[O-])c2c1 (protonated)
C[C@@H](CO)Nc1ccc2cc(C([NH-])=O)n(C(=O)OCC(=O)[O-])c2c1 (3D coordinates assigned)
C[C@@H](CO)Nc1ccc2cc(C([NH-])=O)n(C(=O)OCC(=O)[O-])c2c1 (optimized conformer: 78.98816150801366 kcal/mol)

>  <smiles>  (59) 
C[C@@H](CO)Nc1ccc2cc(C(N)=O)n(C(=O)OCC(=O)O)c2c1

>  <score_type>  (59) 
oracle

>  <origin>  (59) 
adg

>  <m_score__min__energy>  (59) 
-12.210000000000001

>  <m_primary>  (59) 
energy

$$$$
62:0
     RDKit          3D

 36 37  0  0  0  0  0  0  0  0999 V2000
   -7.3350   19.5880  -31.6030 C   0  0  0  0  0  0  0  0  0  0  0  0
   -7.0010   19.2850  -33.0690 C   0  0  1  0  0  0  0  0  0  0  0  0
   -7.2920   20.4220  -33.8400 O   0  0  0  0  0  0  0  0  0  0  0  0
   -5.5260   18.8480  -33.2950 C   0  0  2  0  0  0  0  0  0  0  0  0
   -4.6960   19.9620  -33.8080 N   0  0  0  0  0  0  0  0  0  0  0  0
   -3.8140   20.4720  -32.7830 C   0  0  0  0  0  0  0  0  0  0  0  0
   -2.6410   19.7540  -32.4340 C   0  0  0  0  0  0  0  0  0  0  0  0
   -1.7550   20.2530  -31.4650 C   0  0  0  0  0  0  0  0  0  0  0  0
   -2.0660   21.4670  -30.8610 C   0  0  0  0  0  0  0  0  0  0  0  0
   -1.3720   22.1880  -29.9170 C   0  0  0  0  0  0  0  0  0  0  0  0
   -2.1370   23.3290  -29.6870 C   0  0  0  0  0  0  0  0  0  0  0  0
   -1.7960   24.3450  -28.6690 C   0  0  0  0  0  0  0  0  0  0  0  0
   -1.5550   25.6930  -29.0670 N   0  0  0  0  0  0  0  0  0  0  0  0
   -1.6760   24.0280  -27.4560 O   0  0  0  0  0  0  0  0  0  0  0  0
   -3.2580   23.3180  -30.4630 N   0  0  0  0  0  0  0  0  0  0  0  0
   -4.2590   24.3430  -30.5760 C   0  0  0  0  0  0  0  0  0  0  0  0
   -5.4810   24.0530  -30.4880 O   0  0  0  0  0  0  0  0  0  0  0  0
   -3.8900   25.6620  -30.8110 O   0  0  0  0  0  0  0  0  0  0  0  0
   -3.2000   22.1690  -31.1740 C   0  0  0  0  0  0  0  0  0  0  0  0
   -4.0930   21.7040  -32.1460 C   0  0  0  0  0  0  0  0  0  0  0  0
   -5.4390   17.6290  -34.1880 C   0  0  0  0  0  0  0  0  0  0  0  0
   -4.7330   17.6640  -35.2300 O   0  0  0  0  0  0  0  0  0  0  0  0
   -6.1010   16.4540  -33.8550 O   0  0  0  0  0  0  0  0  0  0  0  0
   -6.6807   18.9944  -30.9476 H   0  0  0  0  0  0  0  0  0  0  0  0
   -7.1785   20.6586  -31.4050 H   0  0  0  0  0  0  0  0  0  0  0  0
   -8.3854   19.3282  -31.4050 H   0  0  0  0  0  0  0  0  0  0  0  0
   -7.6186   18.4285  -33.3773 H   0  0  0  0  0  0  0  0  0  0  0  0
   -7.9130   20.1330  -34.5600 H   0  0  0  0  0  0  0  0  0  0  0  0
   -5.1160   18.5654  -32.3142 H   0  0  0  0  0  0  0  0  0  0  0  0
   -4.1370   19.6580  -34.6400 H   0  0  0  0  0  0  0  0  0  0  0  0
   -5.3150   20.7450  -34.1260 H   0  0  0  0  0  0  0  0  0  0  0  0
   -2.4230   18.7956  -32.9279 H   0  0  0  0  0  0  0  0  0  0  0  0
   -0.8435   19.7010  -31.1922 H   0  0  0  0  0  0  0  0  0  0  0  0
   -0.4156   21.9202  -29.4441 H   0  0  0  0  0  0  0  0  0  0  0  0
   -1.2280   25.9170  -30.0330 H   0  0  0  0  0  0  0  0  0  0  0  0
   -4.9908   22.2828  -32.4086 H   0  0  0  0  0  0  0  0  0  0  0  0
  1  2  1  0
  2  3  1  0
  2  4  1  0
  4  5  1  0
  5  6  1  0
  6  7  2  0
  7  8  1  0
  8  9  2  0
  9 10  1  0
 10 11  2  0
 11 12  1  0
 12 13  1  0
 12 14  2  0
 11 15  1  0
 15 16  1  0
 16 17  2  0
 16 18  1  0
 15 19  1  0
 19 20  2  0
  4 21  1  0
 21 22  2  0
 21 23  1  0
 20  6  1  0
 19  9  1  0
  1 24  1  0
  1 25  1  0
  1 26  1  0
  2 27  1  6
  3 28  1  0
  4 29  1  1
  5 30  1  0
  5 31  1  0
  7 32  1  0
  8 33  1  0
 10 34  1  0
 13 35  1  0
 20 36  1  0
M  CHG  4   5   1  13  -1  18  -1  23  -1
M  END
>  <UniqueID>  (60) 
60

>  <SMILES>  (60) 
C[C@@H](O)[C@H]([NH2+]c1ccc2cc(C([NH-])=O)n(C(=O)[O-])c2c1)C(=O)[O-]

>  <Energy>  (60) 
76.44132741468297

>  <Genealogy>  (60) 
C[C@@H](O)[C@H]([NH2+]c1ccc2cc(C([NH-])=O)n(C(=O)[O-])c2c1)C(=O)[O-] (protonated)
C[C@@H](O)[C@H]([NH2+]c1ccc2cc(C([NH-])=O)n(C(=O)[O-])c2c1)C(=O)[O-] (3D coordinates assigned)
C[C@@H](O)[C@H]([NH2+]c1ccc2cc(C([NH-])=O)n(C(=O)[O-])c2c1)C(=O)[O-] (optimized conformer: 76.44132741468297 kcal/mol)

>  <smiles>  (60) 
C[C@@H](O)[C@H](Nc1ccc2cc(C(N)=O)n(C(=O)O)c2c1)C(=O)O

>  <score_type>  (60) 
oracle

>  <origin>  (60) 
adg

>  <m_score__min__energy>  (60) 
-10.41

>  <m_primary>  (60) 
energy

$$$$
63:0
     RDKit          3D

 40 42  0  0  0  0  0  0  0  0999 V2000
   -3.8330   25.3000  -30.7770 N   0  0  0  0  0  0  0  0  0  0  0  0
   -5.0820   24.7500  -30.3630 C   0  0  0  0  0  0  0  0  0  0  0  0
   -5.8070   25.4010  -29.5650 O   0  0  0  0  0  0  0  0  0  0  0  0
   -5.5600   23.4590  -30.9000 C   0  0  0  0  0  0  0  0  0  0  0  0
   -6.9020   23.1870  -31.1590 C   0  0  0  0  0  0  0  0  0  0  0  0
   -6.9170   21.9320  -31.7220 C   0  0  0  0  0  0  0  0  0  0  0  0
   -7.9880   21.1620  -32.1600 C   0  0  0  0  0  0  0  0  0  0  0  0
   -7.7160   19.8820  -32.6700 C   0  0  0  0  0  0  0  0  0  0  0  0
   -6.3860   19.3900  -32.7270 C   0  0  0  0  0  0  0  0  0  0  0  0
   -6.1100   18.0300  -33.2560 C   0  0  0  0  0  0  0  0  0  0  0  0
   -4.8080   17.6650  -33.6510 C   0  0  0  0  0  0  0  0  0  0  0  0
   -4.5520   16.3840  -34.1490 C   0  0  0  0  0  0  0  0  0  0  0  0
   -5.5880   15.4550  -34.2590 C   0  0  0  0  0  0  0  0  0  0  0  0
   -6.8840   15.8030  -33.8710 C   0  0  0  0  0  0  0  0  0  0  0  0
   -7.1470   17.0840  -33.3730 C   0  0  0  0  0  0  0  0  0  0  0  0
   -5.3230   20.2060  -32.2710 C   0  0  0  0  0  0  0  0  0  0  0  0
   -5.6230   21.4840  -31.7860 C   0  0  0  0  0  0  0  0  0  0  0  0
   -4.7760   22.4110  -31.2820 N   0  0  0  0  0  0  0  0  0  0  0  0
   -3.3610   22.2600  -31.0910 C   0  0  0  0  0  0  0  0  0  0  0  0
   -2.5730   22.4260  -32.0610 O   0  0  0  0  0  0  0  0  0  0  0  0
   -2.8650   21.9050  -29.8330 O   0  0  0  0  0  0  0  0  0  0  0  0
   -1.6300   22.3990  -29.3220 C   0  0  0  0  0  0  0  0  0  0  0  0
   -1.4170   23.7200  -29.7600 O   0  0  0  0  0  0  0  0  0  0  0  0
   -1.7420   24.7950  -28.4740 P   0  0  1  0  0  0  0  0  0  0  0  0
   -0.8860   24.4530  -27.2740 O   0  0  0  0  0  0  0  0  0  0  0  0
   -1.4340   26.3900  -28.9510 O   0  0  0  0  0  0  0  0  0  0  0  0
   -3.3720   24.6550  -28.0470 O   0  0  0  0  0  0  0  0  0  0  0  0
   -2.9990   25.2710  -30.1510 H   0  0  0  0  0  0  0  0  0  0  0  0
   -7.7656   23.8375  -30.9563 H   0  0  0  0  0  0  0  0  0  0  0  0
   -9.0183   21.5439  -32.1087 H   0  0  0  0  0  0  0  0  0  0  0  0
   -8.5438   19.2532  -33.0296 H   0  0  0  0  0  0  0  0  0  0  0  0
   -3.9874   18.3927  -33.5671 H   0  0  0  0  0  0  0  0  0  0  0  0
   -3.5321   16.1076  -34.4548 H   0  0  0  0  0  0  0  0  0  0  0  0
   -5.3837   14.4480  -34.6516 H   0  0  0  0  0  0  0  0  0  0  0  0
   -7.6989   15.0691  -33.9570 H   0  0  0  0  0  0  0  0  0  0  0  0
   -8.1698   17.3538  -33.0711 H   0  0  0  0  0  0  0  0  0  0  0  0
   -4.2847   19.8438  -32.2973 H   0  0  0  0  0  0  0  0  0  0  0  0
   -1.6582   22.3807  -28.2225 H   0  0  0  0  0  0  0  0  0  0  0  0
   -0.8101   21.7629  -29.6869 H   0  0  0  0  0  0  0  0  0  0  0  0
   -3.8440   25.3010  -28.6300 H   0  0  0  0  0  0  0  0  0  0  0  0
  1  2  1  0
  2  3  2  0
  2  4  1  0
  4  5  2  0
  5  6  1  0
  6  7  2  0
  7  8  1  0
  8  9  2  0
  9 10  1  0
 10 11  2  0
 11 12  1  0
 12 13  2  0
 13 14  1  0
 14 15  2  0
  9 16  1  0
 16 17  2  0
 17 18  1  0
 18 19  1  0
 19 20  2  0
 19 21  1  0
 21 22  1  0
 22 23  1  0
 23 24  1  0
 24 25  2  0
 24 26  1  6
 24 27  1  0
 18  4  1  0
 17  6  1  0
 15 10  1  0
  1 28  1  0
  5 29  1  0
  7 30  1  0
  8 31  1  0
 11 32  1  0
 12 33  1  0
 13 34  1  0
 14 35  1  0
 15 36  1  0
 16 37  1  0
 22 38  1  0
 22 39  1  0
 27 40  1  0
M  CHG  2   1  -1  26  -1
M  END
>  <UniqueID>  (61) 
61

>  <SMILES>  (61) 
[NH-]C(=O)c1cc2ccc(-c3ccccc3)cc2n1C(=O)OCO[P@@](=O)([O-])O

>  <Energy>  (61) 
83.97595279864181

>  <Genealogy>  (61) 
[NH-]C(=O)c1cc2ccc(-c3ccccc3)cc2n1C(=O)OCOP(=O)([O-])O (protonated)
[NH-]C(=O)c1cc2ccc(-c3ccccc3)cc2n1C(=O)OCO[P@@](=O)([O-])O (chirality)
[NH-]C(=O)c1cc2ccc(-c3ccccc3)cc2n1C(=O)OCO[P@@](=O)([O-])O (3D coordinates assigned)
[NH-]C(=O)c1cc2ccc(-c3ccccc3)cc2n1C(=O)OCO[P@@](=O)([O-])O (optimized conformer: 83.97595279864181 kcal/mol)

>  <smiles>  (61) 
NC(=O)c1cc2ccc(-c3ccccc3)cc2n1C(=O)OCOP(=O)(O)O

>  <score_type>  (61) 
oracle

>  <origin>  (61) 
adg

>  <m_score__min__energy>  (61) 
-13.42

>  <m_primary>  (61) 
energy

$$$$
64:0
     RDKit          3D

 44 46  0  0  0  0  0  0  0  0999 V2000
   -3.7770   25.2910  -30.8420 N   0  0  0  0  0  0  0  0  0  0  0  0
   -5.1720   25.2230  -30.5610 C   0  0  0  0  0  0  0  0  0  0  0  0
   -5.7360   26.1980  -29.9970 O   0  0  0  0  0  0  0  0  0  0  0  0
   -5.9480   24.0330  -30.9680 C   0  0  0  0  0  0  0  0  0  0  0  0
   -7.3290   24.0390  -31.1500 C   0  0  0  0  0  0  0  0  0  0  0  0
   -7.6650   22.7370  -31.4430 C   0  0  0  0  0  0  0  0  0  0  0  0
   -8.9060   22.1720  -31.7220 C   0  0  0  0  0  0  0  0  0  0  0  0
   -8.9530   20.7990  -32.0160 C   0  0  0  0  0  0  0  0  0  0  0  0
   -7.7660   20.0260  -32.0470 C   0  0  0  0  0  0  0  0  0  0  0  0
   -7.8310   18.5530  -32.3320 C   0  0  0  0  0  0  0  0  0  0  0  0
   -6.6810   18.1540  -33.1370 N   0  0  0  0  0  0  0  0  0  0  0  0
   -5.7340   17.2640  -32.7830 C   0  0  0  0  0  0  0  0  0  0  0  0
   -4.8700   17.1000  -33.8490 C   0  0  0  0  0  0  0  0  0  0  0  0
   -5.3650   17.9260  -34.8420 C   0  0  0  0  0  0  0  0  0  0  0  0
   -6.4660   18.5460  -34.3820 N   0  0  0  0  0  0  0  0  0  0  0  0
   -6.5260   20.6300  -31.7450 C   0  0  0  0  0  0  0  0  0  0  0  0
   -6.5120   21.9960  -31.4360 C   0  0  0  0  0  0  0  0  0  0  0  0
   -5.4490   22.7770  -31.1450 N   0  0  0  0  0  0  0  0  0  0  0  0
   -4.0740   22.3640  -31.1170 C   0  0  0  0  0  0  0  0  0  0  0  0
   -3.3040   22.6870  -32.0610 O   0  0  0  0  0  0  0  0  0  0  0  0
   -3.5940   21.6290  -30.0260 O   0  0  0  0  0  0  0  0  0  0  0  0
   -3.1880   22.2140  -28.7890 C   0  0  0  0  0  0  0  0  0  0  0  0
   -1.8630   22.9820  -28.9490 C   0  0  1  0  0  0  0  0  0  0  0  0
   -1.5320   23.0760  -30.3100 O   0  0  0  0  0  0  0  0  0  0  0  0
   -1.9200   24.3940  -28.3480 C   0  0  0  0  0  0  0  0  0  0  0  0
   -1.7240   25.3750  -29.3310 O   0  0  0  0  0  0  0  0  0  0  0  0
   -3.1630   24.4550  -30.7240 H   0  0  0  0  0  0  0  0  0  0  0  0
   -8.0073   24.9017  -31.0753 H   0  0  0  0  0  0  0  0  0  0  0  0
   -9.8216   22.7816  -31.7126 H   0  0  0  0  0  0  0  0  0  0  0  0
   -9.9208   20.3194  -32.2242 H   0  0  0  0  0  0  0  0  0  0  0  0
   -7.8231   17.9968  -31.3830 H   0  0  0  0  0  0  0  0  0  0  0  0
   -8.7558   18.3304  -32.8844 H   0  0  0  0  0  0  0  0  0  0  0  0
   -5.6608   16.7545  -31.8109 H   0  0  0  0  0  0  0  0  0  0  0  0
   -3.9816   16.4531  -33.8973 H   0  0  0  0  0  0  0  0  0  0  0  0
   -4.9294   18.0546  -35.8438 H   0  0  0  0  0  0  0  0  0  0  0  0
   -7.0680   19.2150  -34.9130 H   0  0  0  0  0  0  0  0  0  0  0  0
   -5.5956   20.0432  -31.7522 H   0  0  0  0  0  0  0  0  0  0  0  0
   -3.9681   22.9102  -28.4474 H   0  0  0  0  0  0  0  0  0  0  0  0
   -3.0396   21.4096  -28.0535 H   0  0  0  0  0  0  0  0  0  0  0  0
   -1.0959   22.4168  -28.3994 H   0  0  0  0  0  0  0  0  0  0  0  0
   -2.1780   23.7080  -30.7220 H   0  0  0  0  0  0  0  0  0  0  0  0
   -2.9048   24.5455  -27.8820 H   0  0  0  0  0  0  0  0  0  0  0  0
   -1.1176   24.4859  -27.6012 H   0  0  0  0  0  0  0  0  0  0  0  0
   -1.7380   24.9090  -30.2070 H   0  0  0  0  0  0  0  0  0  0  0  0
  1  2  1  0
  2  3  2  0
  2  4  1  0
  4  5  2  0
  5  6  1  0
  6  7  2  0
  7  8  1  0
  8  9  2  0
  9 10  1  0
 10 11  1  0
 11 12  1  0
 12 13  2  0
 13 14  1  0
 14 15  2  0
  9 16  1  0
 16 17  2  0
 17 18  1  0
 18 19  1  0
 19 20  2  0
 19 21  1  0
 21 22  1  0
 22 23  1  0
 23 24  1  0
 23 25  1  0
 25 26  1  0
 18  4  1  0
 17  6  1  0
 15 11  1  0
  1 27  1  0
  5 28  1  0
  7 29  1  0
  8 30  1  0
 10 31  1  0
 10 32  1  0
 12 33  1  0
 13 34  1  0
 14 35  1  0
 15 36  1  0
 16 37  1  0
 22 38  1  0
 22 39  1  0
 23 40  1  1
 24 41  1  0
 25 42  1  0
 25 43  1  0
 26 44  1  0
M  CHG  2   1  -1  15   1
M  END
>  <UniqueID>  (62) 
62

>  <SMILES>  (62) 
[NH-]C(=O)c1cc2ccc(Cn3ccc[nH+]3)cc2n1C(=O)OC[C@@H](O)CO

>  <Energy>  (62) 
109.42411198583852

>  <Genealogy>  (62) 
[NH-]C(=O)c1cc2ccc(Cn3ccc[nH+]3)cc2n1C(=O)OCC(O)CO (protonated)
[NH-]C(=O)c1cc2ccc(Cn3ccc[nH+]3)cc2n1C(=O)OC[C@@H](O)CO (chirality)
[NH-]C(=O)c1cc2ccc(Cn3ccc[nH+]3)cc2n1C(=O)OC[C@@H](O)CO (3D coordinates assigned)
[NH-]C(=O)c1cc2ccc(Cn3ccc[nH+]3)cc2n1C(=O)OC[C@@H](O)CO (optimized conformer: 109.42411198583852 kcal/mol)

>  <smiles>  (62) 
NC(=O)c1cc2ccc(Cn3cccn3)cc2n1C(=O)OCC(O)CO

>  <score_type>  (62) 
oracle

>  <origin>  (62) 
adg

>  <m_score__min__energy>  (62) 
-10.99

>  <m_primary>  (62) 
energy

$$$$
65:0
     RDKit          3D

 42 43  0  0  0  0  0  0  0  0999 V2000
   -2.0210   20.6020  -31.4810 C   0  0  0  0  0  0  0  0  0  0  0  0
   -2.9740   21.6280  -31.0480 N   0  0  0  0  0  0  0  0  0  0  0  0
   -2.7220   22.3660  -29.8350 C   0  0  0  0  0  0  0  0  0  0  0  0
   -3.6100   22.4310  -28.9400 O   0  0  0  0  0  0  0  0  0  0  0  0
   -1.4900   23.0050  -29.6460 O   0  0  0  0  0  0  0  0  0  0  0  0
   -1.0780   23.5920  -28.4130 C   0  0  0  0  0  0  0  0  0  0  0  0
   -1.5640   25.0350  -28.3130 C   0  0  0  0  0  0  0  0  0  0  0  0
   -2.4980   25.3020  -29.3200 O   0  0  0  0  0  0  0  0  0  0  0  0
   -4.0420   22.0150  -31.9350 C   0  0  0  0  0  0  0  0  0  0  0  0
   -3.8020   22.2080  -33.1580 O   0  0  0  0  0  0  0  0  0  0  0  0
   -5.3830   22.1900  -31.4470 N   0  0  0  0  0  0  0  0  0  0  0  0
   -5.8980   23.2660  -30.7870 C   0  0  0  0  0  0  0  0  0  0  0  0
   -5.1200   24.4380  -30.3260 C   0  0  0  0  0  0  0  0  0  0  0  0
   -5.1930   24.8770  -28.9690 N   0  0  0  0  0  0  0  0  0  0  0  0
   -4.3680   25.0520  -31.1290 O   0  0  0  0  0  0  0  0  0  0  0  0
   -7.2580   23.0800  -30.5430 C   0  0  0  0  0  0  0  0  0  0  0  0
   -7.5600   21.8470  -31.0780 C   0  0  0  0  0  0  0  0  0  0  0  0
   -8.7710   21.1620  -31.1240 C   0  0  0  0  0  0  0  0  0  0  0  0
   -8.7940   19.9090  -31.7600 C   0  0  0  0  0  0  0  0  0  0  0  0
   -7.6180   19.3740  -32.3430 C   0  0  0  0  0  0  0  0  0  0  0  0
   -7.6520   18.0220  -33.0020 C   0  0  0  0  0  0  0  0  0  0  0  0
   -6.5280   17.1670  -32.5030 C   0  0  0  0  0  0  0  0  0  0  0  0
   -6.2510   17.1410  -31.3140 O   0  0  0  0  0  0  0  0  0  0  0  0
   -6.4050   20.0930  -32.2650 C   0  0  0  0  0  0  0  0  0  0  0  0
   -6.4100   21.3310  -31.6140 C   0  0  0  0  0  0  0  0  0  0  0  0
   -1.5741   20.1209  -30.5985 H   0  0  0  0  0  0  0  0  0  0  0  0
   -2.5449   19.8463  -32.0847 H   0  0  0  0  0  0  0  0  0  0  0  0
   -1.2288   21.0688  -32.0847 H   0  0  0  0  0  0  0  0  0  0  0  0
   -1.4978   23.0111  -27.5786 H   0  0  0  0  0  0  0  0  0  0  0  0
    0.0211   23.5853  -28.3682 H   0  0  0  0  0  0  0  0  0  0  0  0
   -2.0337   25.1928  -27.3309 H   0  0  0  0  0  0  0  0  0  0  0  0
   -0.7050   25.7117  -28.4321 H   0  0  0  0  0  0  0  0  0  0  0  0
   -3.0400   24.4760  -29.4180 H   0  0  0  0  0  0  0  0  0  0  0  0
   -4.5970   25.6710  -28.6440 H   0  0  0  0  0  0  0  0  0  0  0  0
   -5.8620   24.4470  -28.2930 H   0  0  0  0  0  0  0  0  0  0  0  0
   -7.9443   23.7711  -30.0318 H   0  0  0  0  0  0  0  0  0  0  0  0
   -9.6812   21.5880  -30.6767 H   0  0  0  0  0  0  0  0  0  0  0  0
   -9.7332   19.3382  -31.8058 H   0  0  0  0  0  0  0  0  0  0  0  0
   -8.6094   17.5314  -32.7726 H   0  0  0  0  0  0  0  0  0  0  0  0
   -7.5440   18.1531  -34.0888 H   0  0  0  0  0  0  0  0  0  0  0  0
   -5.9481   16.5584  -33.2124 H   0  0  0  0  0  0  0  0  0  0  0  0
   -5.4807   19.6901  -32.7046 H   0  0  0  0  0  0  0  0  0  0  0  0
  1  2  1  0
  2  3  1  0
  3  4  2  0
  3  5  1  0
  5  6  1  0
  6  7  1  0
  7  8  1  0
  2  9  1  0
  9 10  2  0
  9 11  1  0
 11 12  1  0
 12 13  1  0
 13 14  1  0
 13 15  2  0
 12 16  2  0
 16 17  1  0
 17 18  2  0
 18 19  1  0
 19 20  2  0
 20 21  1  0
 21 22  1  0
 22 23  2  0
 20 24  1  0
 24 25  2  0
 25 11  1  0
 25 17  1  0
  1 26  1  0
  1 27  1  0
  1 28  1  0
  6 29  1  0
  6 30  1  0
  7 31  1  0
  7 32  1  0
  8 33  1  0
 14 34  1  0
 14 35  1  0
 16 36  1  0
 18 37  1  0
 19 38  1  0
 21 39  1  0
 21 40  1  0
 22 41  1  0
 24 42  1  0
M  END
>  <UniqueID>  (63) 
63

>  <SMILES>  (63) 
CN(C(=O)OCCO)C(=O)n1c(C(N)=O)cc2ccc(CC=O)cc21

>  <Energy>  (63) 
75.76464644922353

>  <Genealogy>  (63) 
CN(C(=O)OCCO)C(=O)n1c(C(N)=O)cc2ccc(CC=O)cc21 (3D coordinates assigned)
CN(C(=O)OCCO)C(=O)n1c(C(N)=O)cc2ccc(CC=O)cc21 (optimized conformer: 75.76464644922353 kcal/mol)

>  <smiles>  (63) 
CN(C(=O)OCCO)C(=O)n1c(C(N)=O)cc2ccc(CC=O)cc21

>  <score_type>  (63) 
oracle

>  <origin>  (63) 
adg

>  <m_score__min__energy>  (63) 
-9.1400000000000006

>  <m_primary>  (63) 
energy

$$$$
66:0
     RDKit          3D

 48 50  0  0  0  0  0  0  0  0999 V2000
   -4.9230   14.1850  -34.5740 C   0  0  0  0  0  0  0  0  0  0  0  0
   -5.2980   15.5170  -34.0850 N   0  0  0  0  0  0  0  0  0  0  0  0
   -4.3210   16.4050  -33.7260 C   0  0  0  0  0  0  0  0  0  0  0  0
   -4.6510   17.6810  -33.2690 C   0  0  0  0  0  0  0  0  0  0  0  0
   -5.9960   18.0660  -33.1770 C   0  0  0  0  0  0  0  0  0  0  0  0
   -6.3650   19.4220  -32.6940 C   0  0  0  0  0  0  0  0  0  0  0  0
   -7.7270   19.8230  -32.6460 C   0  0  0  0  0  0  0  0  0  0  0  0
   -8.0830   21.1080  -32.2020 C   0  0  0  0  0  0  0  0  0  0  0  0
   -7.0650   21.9660  -31.8030 C   0  0  0  0  0  0  0  0  0  0  0  0
   -7.1280   23.2680  -31.3600 C   0  0  0  0  0  0  0  0  0  0  0  0
   -5.8070   23.6360  -31.1140 C   0  0  0  0  0  0  0  0  0  0  0  0
   -5.4180   24.9480  -30.5590 C   0  0  0  0  0  0  0  0  0  0  0  0
   -4.1160   25.4900  -30.7840 N   0  0  0  0  0  0  0  0  0  0  0  0
   -6.2310   25.5780  -29.8310 O   0  0  0  0  0  0  0  0  0  0  0  0
   -4.9610   22.6090  -31.4030 N   0  0  0  0  0  0  0  0  0  0  0  0
   -3.5240   22.6210  -31.3750 C   0  0  0  0  0  0  0  0  0  0  0  0
   -2.9230   23.0060  -30.3360 O   0  0  0  0  0  0  0  0  0  0  0  0
   -2.8110   22.2070  -32.5090 O   0  0  0  0  0  0  0  0  0  0  0  0
   -2.0350   21.0080  -32.6370 C   0  0  0  0  0  0  0  0  0  0  0  0
   -0.5360   21.3430  -32.7580 C   0  0  0  0  0  0  0  0  0  0  0  0
   -2.5080   20.1820  -33.8490 C   0  0  0  0  0  0  0  0  0  0  0  0
   -2.2610   20.1860  -31.3580 C   0  0  0  0  0  0  0  0  0  0  0  0
   -5.7460   21.5910  -31.8200 C   0  0  0  0  0  0  0  0  0  0  0  0
   -5.3610   20.3280  -32.2830 C   0  0  0  0  0  0  0  0  0  0  0  0
   -6.9850   17.1470  -33.5570 C   0  0  0  0  0  0  0  0  0  0  0  0
   -6.6200   15.8750  -34.0130 C   0  0  0  0  0  0  0  0  0  0  0  0
   -7.5240   15.0660  -34.3600 O   0  0  0  0  0  0  0  0  0  0  0  0
   -4.7357   13.5196  -33.7183 H   0  0  0  0  0  0  0  0  0  0  0  0
   -5.7407   13.7751  -35.1851 H   0  0  0  0  0  0  0  0  0  0  0  0
   -4.0116   14.2619  -35.1851 H   0  0  0  0  0  0  0  0  0  0  0  0
   -3.2639   16.1096  -33.7985 H   0  0  0  0  0  0  0  0  0  0  0  0
   -3.8563   18.3849  -32.9809 H   0  0  0  0  0  0  0  0  0  0  0  0
   -8.5122   19.1195  -32.9600 H   0  0  0  0  0  0  0  0  0  0  0  0
   -9.1358   21.4252  -32.1712 H   0  0  0  0  0  0  0  0  0  0  0  0
   -8.0287   23.8856  -31.2284 H   0  0  0  0  0  0  0  0  0  0  0  0
   -3.8730   26.4380  -30.4190 H   0  0  0  0  0  0  0  0  0  0  0  0
   -3.3650   24.9220  -31.2330 H   0  0  0  0  0  0  0  0  0  0  0  0
   -0.0998   21.4405  -31.7529 H   0  0  0  0  0  0  0  0  0  0  0  0
   -0.0231   20.5373  -33.3037 H   0  0  0  0  0  0  0  0  0  0  0  0
   -0.4149   22.2904  -33.3037 H   0  0  0  0  0  0  0  0  0  0  0  0
   -3.0258   19.2777  -33.4968 H   0  0  0  0  0  0  0  0  0  0  0  0
   -3.1973   20.7857  -34.4576 H   0  0  0  0  0  0  0  0  0  0  0  0
   -1.6385   19.8931  -34.4576 H   0  0  0  0  0  0  0  0  0  0  0  0
   -2.0861   20.8220  -30.4777 H   0  0  0  0  0  0  0  0  0  0  0  0
   -3.2953   19.8120  -31.3405 H   0  0  0  0  0  0  0  0  0  0  0  0
   -1.5633   19.3358  -31.3405 H   0  0  0  0  0  0  0  0  0  0  0  0
   -4.2987   20.0459  -32.3263 H   0  0  0  0  0  0  0  0  0  0  0  0
   -8.0474   17.4258  -33.4967 H   0  0  0  0  0  0  0  0  0  0  0  0
  1  2  1  0
  2  3  1  0
  3  4  2  0
  4  5  1  0
  5  6  1  0
  6  7  2  0
  7  8  1  0
  8  9  2  0
  9 10  1  0
 10 11  2  0
 11 12  1  0
 12 13  1  0
 12 14  2  0
 11 15  1  0
 15 16  1  0
 16 17  2  0
 16 18  1  0
 18 19  1  0
 19 20  1  0
 19 21  1  0
 19 22  1  0
 15 23  1  0
 23 24  2  0
  5 25  2  0
 25 26  1  0
 26 27  2  0
 26  2  1  0
 24  6  1  0
 23  9  1  0
  1 28  1  0
  1 29  1  0
  1 30  1  0
  3 31  1  0
  4 32  1  0
  7 33  1  0
  8 34  1  0
 10 35  1  0
 13 36  1  0
 13 37  1  0
 20 38  1  0
 20 39  1  0
 20 40  1  0
 21 41  1  0
 21 42  1  0
 21 43  1  0
 22 44  1  0
 22 45  1  0
 22 46  1  0
 24 47  1  0
 25 48  1  0
M  END
>  <UniqueID>  (64) 
64

>  <SMILES>  (64) 
Cn1ccc(-c2ccc3cc(C(N)=O)n(C(=O)OC(C)(C)C)c3c2)cc1=O

>  <Energy>  (64) 
91.27395301958819

>  <Genealogy>  (64) 
Cn1ccc(-c2ccc3cc(C(N)=O)n(C(=O)OC(C)(C)C)c3c2)cc1=O (3D coordinates assigned)
Cn1ccc(-c2ccc3cc(C(N)=O)n(C(=O)OC(C)(C)C)c3c2)cc1=O (optimized conformer: 91.27395301958819 kcal/mol)

>  <smiles>  (64) 
Cn1ccc(-c2ccc3cc(C(N)=O)n(C(=O)OC(C)(C)C)c3c2)cc1=O

>  <score_type>  (64) 
oracle

>  <origin>  (64) 
adg

>  <m_score__min__energy>  (64) 
-9.6199999999999992

>  <m_primary>  (64) 
energy

$$$$
67:0
     RDKit          3D

 40 41  0  0  0  0  0  0  0  0999 V2000
   -7.8500   18.6380  -32.7320 C   0  0  0  0  0  0  0  0  0  0  0  0
   -7.8040   20.0520  -32.2350 C   0  0  0  0  0  0  0  0  0  0  0  0
   -9.0080   20.7780  -32.0540 C   0  0  0  0  0  0  0  0  0  0  0  0
   -8.9800   22.1140  -31.6170 C   0  0  0  0  0  0  0  0  0  0  0  0
   -7.7370   22.6980  -31.3890 C   0  0  0  0  0  0  0  0  0  0  0  0
   -7.4200   23.9620  -30.9430 C   0  0  0  0  0  0  0  0  0  0  0  0
   -6.0280   24.0000  -30.9010 C   0  0  0  0  0  0  0  0  0  0  0  0
   -5.2570   25.2150  -30.5780 C   0  0  0  0  0  0  0  0  0  0  0  0
   -3.8680   25.2950  -30.8830 N   0  0  0  0  0  0  0  0  0  0  0  0
   -5.8410   26.2110  -30.0730 O   0  0  0  0  0  0  0  0  0  0  0  0
   -5.5030   22.8080  -31.2990 N   0  0  0  0  0  0  0  0  0  0  0  0
   -4.1270   22.4000  -31.2790 C   0  0  0  0  0  0  0  0  0  0  0  0
   -3.4980   22.2750  -32.3660 O   0  0  0  0  0  0  0  0  0  0  0  0
   -3.5080   22.1000  -30.0580 O   0  0  0  0  0  0  0  0  0  0  0  0
   -2.5260   22.9010  -29.4520 C   0  0  0  0  0  0  0  0  0  0  0  0
   -1.3800   23.0020  -29.9750 O   0  0  0  0  0  0  0  0  0  0  0  0
   -2.7960   23.5630  -28.1960 N   0  0  0  0  0  0  0  0  0  0  0  0
   -4.1860   23.6410  -27.7310 C   0  0  0  0  0  0  0  0  0  0  0  0
   -1.7090   24.1300  -27.3700 C   0  0  1  0  0  0  0  0  0  0  0  0
   -0.8590   23.0010  -26.7740 C   0  0  0  0  0  0  0  0  0  0  0  0
   -0.8930   25.1280  -28.1540 C   0  0  0  0  0  0  0  0  0  0  0  0
    0.3660   25.0580  -28.1330 O   0  0  0  0  0  0  0  0  0  0  0  0
   -1.5080   26.0720  -28.9700 O   0  0  0  0  0  0  0  0  0  0  0  0
   -6.5620   22.0200  -31.5930 C   0  0  0  0  0  0  0  0  0  0  0  0
   -6.5600   20.6830  -32.0110 C   0  0  0  0  0  0  0  0  0  0  0  0
   -7.8724   17.9487  -31.8751 H   0  0  0  0  0  0  0  0  0  0  0  0
   -8.7533   18.4932  -33.3428 H   0  0  0  0  0  0  0  0  0  0  0  0
   -6.9580   18.4348  -33.3428 H   0  0  0  0  0  0  0  0  0  0  0  0
   -9.9734   20.2915  -32.2574 H   0  0  0  0  0  0  0  0  0  0  0  0
   -9.9103   22.6796  -31.4603 H   0  0  0  0  0  0  0  0  0  0  0  0
   -8.1176   24.7697  -30.6766 H   0  0  0  0  0  0  0  0  0  0  0  0
   -3.1520   25.2740  -30.1230 H   0  0  0  0  0  0  0  0  0  0  0  0
   -4.2052   23.6421  -26.6312 H   0  0  0  0  0  0  0  0  0  0  0  0
   -4.6469   24.5664  -28.1067 H   0  0  0  0  0  0  0  0  0  0  0  0
   -4.7476   22.7730  -28.1067 H   0  0  0  0  0  0  0  0  0  0  0  0
   -2.1473   24.6883  -26.5296 H   0  0  0  0  0  0  0  0  0  0  0  0
   -0.8982   23.0531  -25.6759 H   0  0  0  0  0  0  0  0  0  0  0  0
   -1.2521   22.0299  -27.1093 H   0  0  0  0  0  0  0  0  0  0  0  0
    0.1829   23.1103  -27.1093 H   0  0  0  0  0  0  0  0  0  0  0  0
   -5.6156   20.1393  -32.1607 H   0  0  0  0  0  0  0  0  0  0  0  0
  1  2  1  0
  2  3  2  0
  3  4  1  0
  4  5  2  0
  5  6  1  0
  6  7  2  0
  7  8  1  0
  8  9  1  0
  8 10  2  0
  7 11  1  0
 11 12  1  0
 12 13  2  0
 12 14  1  0
 14 15  1  0
 15 16  2  0
 15 17  1  0
 17 18  1  0
 17 19  1  0
 19 20  1  0
 19 21  1  0
 21 22  2  0
 21 23  1  0
 11 24  1  0
 24 25  2  0
 25  2  1  0
 24  5  1  0
  1 26  1  0
  1 27  1  0
  1 28  1  0
  3 29  1  0
  4 30  1  0
  6 31  1  0
  9 32  1  0
 18 33  1  0
 18 34  1  0
 18 35  1  0
 19 36  1  1
 20 37  1  0
 20 38  1  0
 20 39  1  0
 25 40  1  0
M  CHG  2   9  -1  23  -1
M  END
>  <UniqueID>  (65) 
65

>  <SMILES>  (65) 
Cc1ccc2cc(C([NH-])=O)n(C(=O)OC(=O)N(C)[C@@H](C)C(=O)[O-])c2c1

>  <Energy>  (65) 
77.64498720254562

>  <Genealogy>  (65) 
Cc1ccc2cc(C([NH-])=O)n(C(=O)OC(=O)N(C)C(C)C(=O)[O-])c2c1 (protonated)
Cc1ccc2cc(C([NH-])=O)n(C(=O)OC(=O)N(C)[C@@H](C)C(=O)[O-])c2c1 (chirality)
Cc1ccc2cc(C([NH-])=O)n(C(=O)OC(=O)N(C)[C@@H](C)C(=O)[O-])c2c1 (3D coordinates assigned)
Cc1ccc2cc(C([NH-])=O)n(C(=O)OC(=O)N(C)[C@@H](C)C(=O)[O-])c2c1 (optimized conformer: 77.64498720254562 kcal/mol)

>  <smiles>  (65) 
Cc1ccc2cc(C(N)=O)n(C(=O)OC(=O)N(C)C(C)C(=O)O)c2c1

>  <score_type>  (65) 
oracle

>  <origin>  (65) 
adg

>  <m_score__min__energy>  (65) 
-12.74

>  <m_primary>  (65) 
energy

$$$$
68:0
     RDKit          3D

 55 58  0  0  0  0  0  0  0  0999 V2000
   -1.3820   22.7980  -28.5450 C   0  0  0  0  0  0  0  0  0  0  0  0
   -2.7270   22.4560  -29.2110 C   0  0  0  0  0  0  0  0  0  0  0  0
   -2.7620   20.9510  -29.5090 C   0  0  0  0  0  0  0  0  0  0  0  0
   -3.9020   22.8060  -28.2810 C   0  0  0  0  0  0  0  0  0  0  0  0
   -2.8610   23.1410  -30.4650 O   0  0  0  0  0  0  0  0  0  0  0  0
   -3.6490   22.7380  -31.5550 C   0  0  0  0  0  0  0  0  0  0  0  0
   -3.1250   22.2560  -32.5940 O   0  0  0  0  0  0  0  0  0  0  0  0
   -5.0710   22.9100  -31.4920 N   0  0  0  0  0  0  0  0  0  0  0  0
   -5.7710   23.9440  -30.9470 C   0  0  0  0  0  0  0  0  0  0  0  0
   -5.1960   25.2050  -30.4340 C   0  0  0  0  0  0  0  0  0  0  0  0
   -3.9050   25.6450  -30.8520 N   0  0  0  0  0  0  0  0  0  0  0  0
   -5.8670   25.9250  -29.6470 O   0  0  0  0  0  0  0  0  0  0  0  0
   -7.1420   23.6900  -31.0100 C   0  0  0  0  0  0  0  0  0  0  0  0
   -7.2560   22.4610  -31.6220 C   0  0  0  0  0  0  0  0  0  0  0  0
   -8.3890   21.7170  -31.9350 C   0  0  0  0  0  0  0  0  0  0  0  0
   -8.2050   20.4640  -32.5440 C   0  0  0  0  0  0  0  0  0  0  0  0
   -6.9020   19.9730  -32.8200 C   0  0  0  0  0  0  0  0  0  0  0  0
   -6.7220   18.6870  -33.4450 N   0  0  0  0  0  0  0  0  0  0  0  0
   -6.0430   18.5890  -34.7450 C   0  0  0  0  0  0  0  0  0  0  0  0
   -4.6090   18.1740  -34.5590 C   0  0  0  0  0  0  0  0  0  0  0  0
   -3.6970   19.0250  -33.9220 C   0  0  0  0  0  0  0  0  0  0  0  0
   -2.3600   18.6460  -33.7940 C   0  0  0  0  0  0  0  0  0  0  0  0
   -1.9450   17.4200  -34.3130 C   0  0  0  0  0  0  0  0  0  0  0  0
   -2.8380   16.6080  -34.9390 N   0  0  0  0  0  0  0  0  0  0  0  0
   -4.1460   16.9550  -35.0760 C   0  0  0  0  0  0  0  0  0  0  0  0
   -6.9760   17.4620  -32.6740 C   0  0  0  0  0  0  0  0  0  0  0  0
   -5.7380   16.8770  -32.0090 C   0  0  0  0  0  0  0  0  0  0  0  0
   -6.7710   17.6150  -31.1740 C   0  0  0  0  0  0  0  0  0  0  0  0
   -5.7790   20.7630  -32.4910 C   0  0  0  0  0  0  0  0  0  0  0  0
   -5.9930   22.0130  -31.9020 C   0  0  0  0  0  0  0  0  0  0  0  0
   -1.4965   22.7689  -27.4514 H   0  0  0  0  0  0  0  0  0  0  0  0
   -0.6229   22.0643  -28.8539 H   0  0  0  0  0  0  0  0  0  0  0  0
   -1.0655   23.8052  -28.8539 H   0  0  0  0  0  0  0  0  0  0  0  0
   -2.7750   20.3901  -28.5629 H   0  0  0  0  0  0  0  0  0  0  0  0
   -3.6659   20.7130  -30.0889 H   0  0  0  0  0  0  0  0  0  0  0  0
   -1.8701   20.6712  -30.0889 H   0  0  0  0  0  0  0  0  0  0  0  0
   -3.5813   22.7105  -27.2331 H   0  0  0  0  0  0  0  0  0  0  0  0
   -4.2259   23.8396  -28.4725 H   0  0  0  0  0  0  0  0  0  0  0  0
   -4.7387   22.1181  -28.4725 H   0  0  0  0  0  0  0  0  0  0  0  0
   -3.0380   25.2830  -30.3940 H   0  0  0  0  0  0  0  0  0  0  0  0
   -7.9574   24.3337  -30.6482 H   0  0  0  0  0  0  0  0  0  0  0  0
   -9.3969   22.0974  -31.7128 H   0  0  0  0  0  0  0  0  0  0  0  0
   -9.0820   19.8558  -32.8103 H   0  0  0  0  0  0  0  0  0  0  0  0
   -6.5583   17.8426  -35.3674 H   0  0  0  0  0  0  0  0  0  0  0  0
   -6.0683   19.5733  -35.2353 H   0  0  0  0  0  0  0  0  0  0  0  0
   -4.0348   19.9926  -33.5224 H   0  0  0  0  0  0  0  0  0  0  0  0
   -1.6409   19.3076  -33.2889 H   0  0  0  0  0  0  0  0  0  0  0  0
   -0.8942   17.1096  -34.2158 H   0  0  0  0  0  0  0  0  0  0  0  0
   -4.8421   16.2783  -35.5933 H   0  0  0  0  0  0  0  0  0  0  0  0
   -7.7777   17.0687  -33.3163 H   0  0  0  0  0  0  0  0  0  0  0  0
   -5.6293   15.7867  -31.9117 H   0  0  0  0  0  0  0  0  0  0  0  0
   -4.6533   16.9713  -32.1655 H   0  0  0  0  0  0  0  0  0  0  0  0
   -7.4099   17.0588  -30.4722 H   0  0  0  0  0  0  0  0  0  0  0  0
   -6.7432   18.4646  -30.4758 H   0  0  0  0  0  0  0  0  0  0  0  0
   -4.7593   20.4035  -32.6934 H   0  0  0  0  0  0  0  0  0  0  0  0
  1  2  1  0
  2  3  1  0
  2  4  1  0
  2  5  1  0
  5  6  1  0
  6  7  2  0
  6  8  1  0
  8  9  1  0
  9 10  1  0
 10 11  1  0
 10 12  2  0
  9 13  2  0
 13 14  1  0
 14 15  2  0
 15 16  1  0
 16 17  2  0
 17 18  1  0
 18 19  1  0
 19 20  1  0
 20 21  2  0
 21 22  1  0
 22 23  2  0
 23 24  1  0
 24 25  2  0
 18 26  1  0
 26 27  1  0
 27 28  1  0
 17 29  1  0
 29 30  2  0
 30  8  1  0
 30 14  1  0
 25 20  1  0
 28 26  1  0
  1 31  1  0
  1 32  1  0
  1 33  1  0
  3 34  1  0
  3 35  1  0
  3 36  1  0
  4 37  1  0
  4 38  1  0
  4 39  1  0
 11 40  1  0
 13 41  1  0
 15 42  1  0
 16 43  1  0
 19 44  1  0
 19 45  1  0
 21 46  1  0
 22 47  1  0
 23 48  1  0
 25 49  1  0
 26 50  1  0
 27 51  1  0
 27 52  1  0
 28 53  1  0
 28 54  1  0
 29 55  1  0
M  CHG  1  11  -1
M  END
>  <UniqueID>  (66) 
66

>  <SMILES>  (66) 
CC(C)(C)OC(=O)n1c(C([NH-])=O)cc2ccc(N(Cc3cccnc3)C3CC3)cc21

>  <Energy>  (66) 
359.36820000639113

>  <Genealogy>  (66) 
CC(C)(C)OC(=O)n1c(C([NH-])=O)cc2ccc(N(Cc3cccnc3)C3CC3)cc21 (protonated)
CC(C)(C)OC(=O)n1c(C([NH-])=O)cc2ccc(N(Cc3cccnc3)C3CC3)cc21 (3D coordinates assigned)
CC(C)(C)OC(=O)n1c(C([NH-])=O)cc2ccc(N(Cc3cccnc3)C3CC3)cc21 (nonaromatic ring conformer: 359.36820000639113 kcal/mol)

>  <smiles>  (66) 
CC(C)(C)OC(=O)n1c(C(N)=O)cc2ccc(N(Cc3cccnc3)C3CC3)cc21

>  <score_type>  (66) 
oracle

>  <origin>  (66) 
adg

>  <m_score__min__energy>  (66) 
-12.23

>  <m_primary>  (66) 
energy

$$$$
69:0
     RDKit          3D

 40 42  0  0  0  0  0  0  0  0999 V2000
   -6.8940   14.6980  -34.2750 C   0  0  0  0  0  0  0  0  0  0  0  0
   -6.4630   16.1150  -34.1830 C   0  0  0  0  0  0  0  0  0  0  0  0
   -5.4680   16.6640  -34.9230 N   0  0  0  0  0  0  0  0  0  0  0  0
   -5.3710   17.9690  -34.5560 C   0  0  0  0  0  0  0  0  0  0  0  0
   -6.3200   18.2050  -33.5830 C   0  0  0  0  0  0  0  0  0  0  0  0
   -6.5580   19.4710  -32.9170 C   0  0  0  0  0  0  0  0  0  0  0  0
   -7.8430   19.8770  -32.6300 C   0  0  0  0  0  0  0  0  0  0  0  0
   -8.0500   21.0800  -31.9970 C   0  0  0  0  0  0  0  0  0  0  0  0
   -6.9620   21.8600  -31.6620 C   0  0  0  0  0  0  0  0  0  0  0  0
   -6.8820   23.0830  -31.0380 C   0  0  0  0  0  0  0  0  0  0  0  0
   -5.5340   23.4540  -30.9300 C   0  0  0  0  0  0  0  0  0  0  0  0
   -5.1360   24.7010  -30.3120 C   0  0  0  0  0  0  0  0  0  0  0  0
   -5.3420   24.8920  -28.8930 N   0  0  0  0  0  0  0  0  0  0  0  0
   -4.6120   25.6760  -30.8940 O   0  0  0  0  0  0  0  0  0  0  0  0
   -4.8090   22.4710  -31.4800 N   0  0  0  0  0  0  0  0  0  0  0  0
   -3.3980   22.4090  -31.5990 C   0  0  0  0  0  0  0  0  0  0  0  0
   -2.9060   21.7070  -32.5440 O   0  0  0  0  0  0  0  0  0  0  0  0
   -2.4940   23.0340  -30.7910 O   0  0  0  0  0  0  0  0  0  0  0  0
   -2.3000   22.6080  -29.4640 C   0  0  0  0  0  0  0  0  0  0  0  0
   -2.3220   23.8500  -28.5790 C   0  0  0  0  0  0  0  0  0  0  0  0
   -2.5840   24.9520  -29.3920 O   0  0  0  0  0  0  0  0  0  0  0  0
   -5.6580   21.5000  -31.9280 C   0  0  0  0  0  0  0  0  0  0  0  0
   -5.4780   20.2840  -32.5650 C   0  0  0  0  0  0  0  0  0  0  0  0
   -6.9800   17.0520  -33.3680 N   0  0  0  0  0  0  0  0  0  0  0  0
   -7.0192   14.2864  -33.2626 H   0  0  0  0  0  0  0  0  0  0  0  0
   -7.8504   14.6400  -34.8153 H   0  0  0  0  0  0  0  0  0  0  0  0
   -6.1319   14.1173  -34.8153 H   0  0  0  0  0  0  0  0  0  0  0  0
   -4.6622   18.7056  -34.9623 H   0  0  0  0  0  0  0  0  0  0  0  0
   -8.6982   19.2425  -32.9056 H   0  0  0  0  0  0  0  0  0  0  0  0
   -9.0702   21.4165  -31.7606 H   0  0  0  0  0  0  0  0  0  0  0  0
   -7.7377   23.6749  -30.6811 H   0  0  0  0  0  0  0  0  0  0  0  0
   -4.5830   25.3490  -28.3340 H   0  0  0  0  0  0  0  0  0  0  0  0
   -6.2400   24.5770  -28.4350 H   0  0  0  0  0  0  0  0  0  0  0  0
   -3.1064   21.9209  -29.1679 H   0  0  0  0  0  0  0  0  0  0  0  0
   -1.3428   22.0756  -29.3628 H   0  0  0  0  0  0  0  0  0  0  0  0
   -3.1095   23.7521  -27.8173 H   0  0  0  0  0  0  0  0  0  0  0  0
   -1.3559   23.9727  -28.0675 H   0  0  0  0  0  0  0  0  0  0  0  0
   -2.8110   24.6030  -30.2960 H   0  0  0  0  0  0  0  0  0  0  0  0
   -4.4570   19.9491  -32.8003 H   0  0  0  0  0  0  0  0  0  0  0  0
   -7.7690   16.8560  -32.6980 H   0  0  0  0  0  0  0  0  0  0  0  0
  1  2  1  0
  2  3  2  0
  3  4  1  0
  4  5  2  0
  5  6  1  0
  6  7  2  0
  7  8  1  0
  8  9  2  0
  9 10  1  0
 10 11  2  0
 11 12  1  0
 12 13  1  0
 12 14  2  0
 11 15  1  0
 15 16  1  0
 16 17  2  0
 16 18  1  0
 18 19  1  0
 19 20  1  0
 20 21  1  0
 15 22  1  0
 22 23  2  0
  5 24  1  0
 24  2  1  0
 23  6  1  0
 22  9  1  0
  1 25  1  0
  1 26  1  0
  1 27  1  0
  4 28  1  0
  7 29  1  0
  8 30  1  0
 10 31  1  0
 13 32  1  0
 13 33  1  0
 19 34  1  0
 19 35  1  0
 20 36  1  0
 20 37  1  0
 21 38  1  0
 23 39  1  0
 24 40  1  0
M  END
>  <smiles>  (67) 
Cc1ncc(-c2ccc3cc(C(N)=O)n(C(=O)OCCO)c3c2)[nH]1

>  <score_type>  (67) 
oracle

>  <origin>  (67) 
adg

>  <m_score__min__energy>  (67) 
-8.5500000000000007

>  <m_primary>  (67) 
energy

$$$$
70:0
     RDKit          3D

 44 45  0  0  0  0  0  0  0  0999 V2000
   -6.4820   25.6410  -29.4030 C   0  0  0  0  0  0  0  0  0  0  0  0
   -6.0340   25.2070  -30.7230 N   0  0  0  0  0  0  0  0  0  0  0  0
   -6.3410   23.9180  -31.2840 C   0  0  0  0  0  0  0  0  0  0  0  0
   -7.6850   23.4710  -31.2910 C   0  0  0  0  0  0  0  0  0  0  0  0
   -8.0250   22.2140  -31.8170 C   0  0  0  0  0  0  0  0  0  0  0  0
   -7.0040   21.4290  -32.3430 C   0  0  0  0  0  0  0  0  0  0  0  0
   -7.0500   20.1630  -32.8790 C   0  0  0  0  0  0  0  0  0  0  0  0
   -5.7350   19.8630  -33.2240 C   0  0  0  0  0  0  0  0  0  0  0  0
   -5.3360   18.6070  -33.8900 C   0  0  0  0  0  0  0  0  0  0  0  0
   -3.9680   18.3390  -34.2030 N   0  0  0  0  0  0  0  0  0  0  0  0
   -6.2220   17.7820  -34.2370 O   0  0  0  0  0  0  0  0  0  0  0  0
   -4.9060   20.8950  -32.9030 N   0  0  0  0  0  0  0  0  0  0  0  0
   -3.4720   20.9150  -32.9910 C   0  0  0  0  0  0  0  0  0  0  0  0
   -2.9000   21.7310  -33.7630 O   0  0  0  0  0  0  0  0  0  0  0  0
   -2.7160   20.0320  -32.2120 O   0  0  0  0  0  0  0  0  0  0  0  0
   -2.0880   20.4200  -30.9950 C   0  0  0  0  0  0  0  0  0  0  0  0
   -1.8280   21.8200  -31.0160 O   0  0  0  0  0  0  0  0  0  0  0  0
   -1.5750   22.5630  -29.8570 C   0  0  0  0  0  0  0  0  0  0  0  0
   -0.4940   23.2030  -29.7410 O   0  0  0  0  0  0  0  0  0  0  0  0
   -2.5510   22.5910  -28.8000 N   0  0  0  0  0  0  0  0  0  0  0  0
   -2.6360   21.4560  -27.8770 C   0  0  0  0  0  0  0  0  0  0  0  0
   -3.4390   23.7500  -28.6360 C   0  0  0  0  0  0  0  0  0  0  0  0
   -2.9040   24.9190  -29.3990 C   0  0  0  0  0  0  0  0  0  0  0  0
   -1.9330   25.5820  -28.9480 O   0  0  0  0  0  0  0  0  0  0  0  0
   -3.4970   25.2950  -30.5980 O   0  0  0  0  0  0  0  0  0  0  0  0
   -5.6990   21.8490  -32.3650 C   0  0  0  0  0  0  0  0  0  0  0  0
   -5.3290   23.0860  -31.8250 C   0  0  0  0  0  0  0  0  0  0  0  0
   -5.9210   25.0976  -28.6284 H   0  0  0  0  0  0  0  0  0  0  0  0
   -6.3063   26.7213  -29.2930 H   0  0  0  0  0  0  0  0  0  0  0  0
   -7.5562   25.4311  -29.2930 H   0  0  0  0  0  0  0  0  0  0  0  0
   -5.4550   25.8750  -31.2800 H   0  0  0  0  0  0  0  0  0  0  0  0
   -8.4736   24.1175  -30.8786 H   0  0  0  0  0  0  0  0  0  0  0  0
   -9.0668   21.8609  -31.8132 H   0  0  0  0  0  0  0  0  0  0  0  0
   -7.9363   19.5242  -33.0076 H   0  0  0  0  0  0  0  0  0  0  0  0
   -3.6990   17.4260  -34.6310 H   0  0  0  0  0  0  0  0  0  0  0  0
   -3.2330   19.0700  -34.0820 H   0  0  0  0  0  0  0  0  0  0  0  0
   -2.7508   20.1835  -30.1496 H   0  0  0  0  0  0  0  0  0  0  0  0
   -1.1395   19.8742  -30.8836 H   0  0  0  0  0  0  0  0  0  0  0  0
   -2.6085   21.8234  -26.8405 H   0  0  0  0  0  0  0  0  0  0  0  0
   -3.5773   20.9134  -28.0488 H   0  0  0  0  0  0  0  0  0  0  0  0
   -1.7860   20.7792  -28.0488 H   0  0  0  0  0  0  0  0  0  0  0  0
   -4.4409   23.4970  -29.0132 H   0  0  0  0  0  0  0  0  0  0  0  0
   -3.4959   24.0119  -27.5691 H   0  0  0  0  0  0  0  0  0  0  0  0
   -4.2764   23.4054  -31.8205 H   0  0  0  0  0  0  0  0  0  0  0  0
  1  2  1  0
  2  3  1  0
  3  4  2  0
  4  5  1  0
  5  6  2  0
  6  7  1  0
  7  8  2  0
  8  9  1  0
  9 10  1  0
  9 11  2  0
  8 12  1  0
 12 13  1  0
 13 14  2  0
 13 15  1  0
 15 16  1  0
 16 17  1  0
 17 18  1  0
 18 19  2  0
 18 20  1  0
 20 21  1  0
 20 22  1  0
 22 23  1  0
 23 24  2  0
 23 25  1  0
 12 26  1  0
 26 27  2  0
 27  3  1  0
 26  6  1  0
  1 28  1  0
  1 29  1  0
  1 30  1  0
  2 31  1  0
  4 32  1  0
  5 33  1  0
  7 34  1  0
 10 35  1  0
 10 36  1  0
 16 37  1  0
 16 38  1  0
 21 39  1  0
 21 40  1  0
 21 41  1  0
 22 42  1  0
 22 43  1  0
 27 44  1  0
M  CHG  1  25  -1
M  END
>  <UniqueID>  (68) 
67

>  <SMILES>  (68) 
CNc1ccc2cc(C(N)=O)n(C(=O)OCOC(=O)N(C)CC(=O)[O-])c2c1

>  <Energy>  (68) 
74.40000330973379

>  <Genealogy>  (68) 
CNc1ccc2cc(C(N)=O)n(C(=O)OCOC(=O)N(C)CC(=O)[O-])c2c1 (protonated)
CNc1ccc2cc(C(N)=O)n(C(=O)OCOC(=O)N(C)CC(=O)[O-])c2c1 (3D coordinates assigned)
CNc1ccc2cc(C(N)=O)n(C(=O)OCOC(=O)N(C)CC(=O)[O-])c2c1 (optimized conformer: 74.40000330973379 kcal/mol)

>  <smiles>  (68) 
CNc1ccc2cc(C(N)=O)n(C(=O)OCOC(=O)N(C)CC(=O)O)c2c1

>  <score_type>  (68) 
oracle

>  <origin>  (68) 
adg

>  <m_score__min__energy>  (68) 
-10.32

>  <m_primary>  (68) 
energy

$$$$
71:0
     RDKit          3D

 40 41  0  0  0  0  0  0  0  0999 V2000
   -9.5430   20.9500  -32.3320 C   0  0  0  0  0  0  0  0  0  0  0  0
   -8.0740   20.8730  -32.3080 N   0  0  0  0  0  0  0  0  0  0  0  0
   -7.5320   22.0650  -31.6310 C   0  0  0  0  0  0  0  0  0  0  0  0
   -7.6380   19.6300  -31.6300 C   0  0  0  0  0  0  0  0  0  0  0  0
   -7.1950   18.5630  -32.6420 C   0  0  0  0  0  0  0  0  0  0  0  0
   -5.8200   18.8780  -33.2460 C   0  0  0  0  0  0  0  0  0  0  0  0
   -5.4780   20.2900  -33.0600 N   0  0  0  0  0  0  0  0  0  0  0  0
   -4.2940   20.7300  -32.3680 C   0  0  0  0  0  0  0  0  0  0  0  0
   -3.1190   19.9300  -32.3200 C   0  0  0  0  0  0  0  0  0  0  0  0
   -1.9780   20.3730  -31.6300 C   0  0  0  0  0  0  0  0  0  0  0  0
   -2.0320   21.6130  -31.0050 C   0  0  0  0  0  0  0  0  0  0  0  0
   -1.0830   22.2680  -30.2540 C   0  0  0  0  0  0  0  0  0  0  0  0
   -1.6780   23.4670  -29.8700 C   0  0  0  0  0  0  0  0  0  0  0  0
   -0.9690   24.5210  -29.1130 C   0  0  0  0  0  0  0  0  0  0  0  0
   -1.5850   25.7920  -28.9240 N   0  0  0  0  0  0  0  0  0  0  0  0
    0.1590   24.2980  -28.5990 O   0  0  0  0  0  0  0  0  0  0  0  0
   -2.9490   23.5490  -30.3580 N   0  0  0  0  0  0  0  0  0  0  0  0
   -3.9140   24.5880  -30.1260 C   0  0  0  0  0  0  0  0  0  0  0  0
   -3.8590   25.6650  -30.7760 O   0  0  0  0  0  0  0  0  0  0  0  0
   -4.9340   24.4040  -29.2000 O   0  0  0  0  0  0  0  0  0  0  0  0
   -3.1480   22.4060  -31.0540 C   0  0  0  0  0  0  0  0  0  0  0  0
   -4.3060   21.9840  -31.7180 C   0  0  0  0  0  0  0  0  0  0  0  0
   -9.9260   20.9701  -31.3010 H   0  0  0  0  0  0  0  0  0  0  0  0
   -9.8537   21.8657  -32.8565 H   0  0  0  0  0  0  0  0  0  0  0  0
   -9.9477   20.0718  -32.8565 H   0  0  0  0  0  0  0  0  0  0  0  0
   -7.5943   21.9279  -30.5414 H   0  0  0  0  0  0  0  0  0  0  0  0
   -6.4810   22.2065  -31.9232 H   0  0  0  0  0  0  0  0  0  0  0  0
   -8.1162   22.9500  -31.9232 H   0  0  0  0  0  0  0  0  0  0  0  0
   -6.7942   19.8632  -30.9639 H   0  0  0  0  0  0  0  0  0  0  0  0
   -8.4893   19.2316  -31.0585 H   0  0  0  0  0  0  0  0  0  0  0  0
   -7.1442   17.5896  -32.1322 H   0  0  0  0  0  0  0  0  0  0  0  0
   -7.9295   18.5460  -33.4607 H   0  0  0  0  0  0  0  0  0  0  0  0
   -5.0590   18.2552  -32.7531 H   0  0  0  0  0  0  0  0  0  0  0  0
   -5.8526   18.6636  -34.3244 H   0  0  0  0  0  0  0  0  0  0  0  0
   -6.1200   21.0190  -33.4480 H   0  0  0  0  0  0  0  0  0  0  0  0
   -3.1034   18.9546  -32.8282 H   0  0  0  0  0  0  0  0  0  0  0  0
   -1.0683   19.7561  -31.5858 H   0  0  0  0  0  0  0  0  0  0  0  0
   -0.0692   21.9185  -30.0089 H   0  0  0  0  0  0  0  0  0  0  0  0
   -2.6230   25.8980  -28.9740 H   0  0  0  0  0  0  0  0  0  0  0  0
   -5.2064   22.6158  -31.7332 H   0  0  0  0  0  0  0  0  0  0  0  0
  1  2  1  0
  2  3  1  0
  2  4  1  0
  4  5  1  0
  5  6  1  0
  6  7  1  0
  7  8  1  0
  8  9  2  0
  9 10  1  0
 10 11  2  0
 11 12  1  0
 12 13  2  0
 13 14  1  0
 14 15  1  0
 14 16  2  0
 13 17  1  0
 17 18  1  0
 18 19  2  0
 18 20  1  0
 17 21  1  0
 21 22  2  0
 22  8  1  0
 21 11  1  0
  1 23  1  0
  1 24  1  0
  1 25  1  0
  3 26  1  0
  3 27  1  0
  3 28  1  0
  4 29  1  0
  4 30  1  0
  5 31  1  0
  5 32  1  0
  6 33  1  0
  6 34  1  0
  7 35  1  0
  9 36  1  0
 10 37  1  0
 12 38  1  0
 15 39  1  0
 22 40  1  0
M  CHG  2  15  -1  20  -1
M  END
>  <UniqueID>  (69) 
68

>  <SMILES>  (69) 
CN(C)CCCNc1ccc2cc(C([NH-])=O)n(C(=O)[O-])c2c1

>  <Energy>  (69) 
75.72520991865714

>  <Genealogy>  (69) 
CN(C)CCCNc1ccc2cc(C([NH-])=O)n(C(=O)[O-])c2c1 (protonated)
CN(C)CCCNc1ccc2cc(C([NH-])=O)n(C(=O)[O-])c2c1 (3D coordinates assigned)
CN(C)CCCNc1ccc2cc(C([NH-])=O)n(C(=O)[O-])c2c1 (optimized conformer: 75.72520991865714 kcal/mol)

>  <smiles>  (69) 
CN(C)CCCNc1ccc2cc(C(N)=O)n(C(=O)O)c2c1

>  <score_type>  (69) 
oracle

>  <origin>  (69) 
adg

>  <m_score__min__energy>  (69) 
-10.869999999999999

>  <m_primary>  (69) 
energy

$$$$
72:0
     RDKit          3D

 33 34  0  0  0  0  0  0  0  0999 V2000
   -6.4810   17.6260  -33.9720 C   0  0  0  0  0  0  0  0  0  0  0  0
   -6.4250   18.1050  -32.5850 N   0  0  0  0  0  0  0  0  0  0  0  0
   -6.1290   17.1450  -31.5150 C   0  0  0  0  0  0  0  0  0  0  0  0
   -6.6610   19.5040  -32.2770 C   0  0  0  0  0  0  0  0  0  0  0  0
   -7.9570   20.0750  -32.4290 C   0  0  0  0  0  0  0  0  0  0  0  0
   -8.1920   21.4290  -32.1420 C   0  0  0  0  0  0  0  0  0  0  0  0
   -7.1240   22.1970  -31.6950 C   0  0  0  0  0  0  0  0  0  0  0  0
   -7.0680   23.5340  -31.3720 C   0  0  0  0  0  0  0  0  0  0  0  0
   -5.7440   23.7690  -31.0030 C   0  0  0  0  0  0  0  0  0  0  0  0
   -5.2510   25.0760  -30.5180 C   0  0  0  0  0  0  0  0  0  0  0  0
   -3.8550   25.3360  -30.3980 N   0  0  0  0  0  0  0  0  0  0  0  0
   -6.0750   25.9640  -30.1730 O   0  0  0  0  0  0  0  0  0  0  0  0
   -5.0130   22.6220  -31.0970 N   0  0  0  0  0  0  0  0  0  0  0  0
   -3.6040   22.4580  -30.8760 C   0  0  0  0  0  0  0  0  0  0  0  0
   -2.7920   23.1520  -31.5430 O   0  0  0  0  0  0  0  0  0  0  0  0
   -3.1340   21.4950  -29.8550 C   0  0  0  0  0  0  0  0  0  0  0  0
   -3.0470   21.7290  -28.5370 C   0  0  0  0  0  0  0  0  0  0  0  0
   -2.4030   20.3340  -27.4020 Br  0  0  0  0  0  0  0  0  0  0  0  0
   -3.4890   23.3920  -27.6920 Br  0  0  0  0  0  0  0  0  0  0  0  0
   -5.8720   21.6700  -31.5230 C   0  0  0  0  0  0  0  0  0  0  0  0
   -5.6020   20.3310  -31.8220 C   0  0  0  0  0  0  0  0  0  0  0  0
   -6.6087   16.5335  -33.9777 H   0  0  0  0  0  0  0  0  0  0  0  0
   -7.3302   18.0972  -34.4886 H   0  0  0  0  0  0  0  0  0  0  0  0
   -5.5460   17.8886  -34.4886 H   0  0  0  0  0  0  0  0  0  0  0  0
   -6.2778   17.6277  -30.5378 H   0  0  0  0  0  0  0  0  0  0  0  0
   -6.8019   16.2793  -31.6026 H   0  0  0  0  0  0  0  0  0  0  0  0
   -5.0854   16.8085  -31.6026 H   0  0  0  0  0  0  0  0  0  0  0  0
   -8.7881   19.4442  -32.7773 H   0  0  0  0  0  0  0  0  0  0  0  0
   -9.1924   21.8689  -32.2674 H   0  0  0  0  0  0  0  0  0  0  0  0
   -7.8922   24.2620  -31.3992 H   0  0  0  0  0  0  0  0  0  0  0  0
   -3.2250   25.2840  -31.2300 H   0  0  0  0  0  0  0  0  0  0  0  0
   -2.8290   20.4990  -30.2084 H   0  0  0  0  0  0  0  0  0  0  0  0
   -4.5859   19.9259  -31.7064 H   0  0  0  0  0  0  0  0  0  0  0  0
  1  2  1  0
  2  3  1  0
  2  4  1  0
  4  5  2  0
  5  6  1  0
  6  7  2  0
  7  8  1  0
  8  9  2  0
  9 10  1  0
 10 11  1  0
 10 12  2  0
  9 13  1  0
 13 14  1  0
 14 15  2  0
 14 16  1  0
 16 17  2  3
 17 18  1  0
 17 19  1  0
 13 20  1  0
 20 21  2  0
 21  4  1  0
 20  7  1  0
  1 22  1  0
  1 23  1  0
  1 24  1  0
  3 25  1  0
  3 26  1  0
  3 27  1  0
  5 28  1  0
  6 29  1  0
  8 30  1  0
 11 31  1  0
 16 32  1  0
 21 33  1  0
M  CHG  1  11  -1
M  END
>  <UniqueID>  (70) 
69

>  <SMILES>  (70) 
CN(C)c1ccc2cc(C([NH-])=O)n(C(=O)C=C(Br)Br)c2c1

>  <Energy>  (70) 
76.26966966016911

>  <Genealogy>  (70) 
CN(C)c1ccc2cc(C([NH-])=O)n(C(=O)C=C(Br)Br)c2c1 (protonated)
CN(C)c1ccc2cc(C([NH-])=O)n(C(=O)C=C(Br)Br)c2c1 (3D coordinates assigned)
CN(C)c1ccc2cc(C([NH-])=O)n(C(=O)C=C(Br)Br)c2c1 (optimized conformer: 76.26966966016911 kcal/mol)

>  <smiles>  (70) 
CN(C)c1ccc2cc(C(N)=O)n(C(=O)C=C(Br)Br)c2c1

>  <score_type>  (70) 
oracle

>  <origin>  (70) 
adg

>  <m_score__min__energy>  (70) 
-10.91

>  <m_primary>  (70) 
energy

$$$$
73:0
     RDKit          3D

 42 43  0  0  0  0  0  0  0  0999 V2000
   -3.8390   25.2860  -30.8650 N   0  0  0  0  0  0  0  0  0  0  0  0
   -5.1790   25.0380  -30.4450 C   0  0  0  0  0  0  0  0  0  0  0  0
   -5.7260   25.8270  -29.6280 O   0  0  0  0  0  0  0  0  0  0  0  0
   -5.9120   23.8410  -30.9090 C   0  0  0  0  0  0  0  0  0  0  0  0
   -7.2690   23.8470  -31.2210 C   0  0  0  0  0  0  0  0  0  0  0  0
   -7.5840   22.5380  -31.5040 C   0  0  0  0  0  0  0  0  0  0  0  0
   -8.7990   21.9680  -31.8690 C   0  0  0  0  0  0  0  0  0  0  0  0
   -8.8310   20.5840  -32.1150 C   0  0  0  0  0  0  0  0  0  0  0  0
   -7.6500   19.8030  -32.0190 C   0  0  0  0  0  0  0  0  0  0  0  0
   -7.7050   18.3140  -32.2480 C   0  0  0  0  0  0  0  0  0  0  0  0
   -7.3110   18.0030  -33.5380 F   0  0  0  0  0  0  0  0  0  0  0  0
   -8.9910   17.8370  -32.0620 F   0  0  0  0  0  0  0  0  0  0  0  0
   -6.8580   17.6850  -31.3540 F   0  0  0  0  0  0  0  0  0  0  0  0
   -6.4390   20.4170  -31.6240 C   0  0  0  0  0  0  0  0  0  0  0  0
   -6.4420   21.7930  -31.3670 C   0  0  0  0  0  0  0  0  0  0  0  0
   -5.4040   22.5800  -31.0070 N   0  0  0  0  0  0  0  0  0  0  0  0
   -4.0420   22.1630  -30.8350 C   0  0  0  0  0  0  0  0  0  0  0  0
   -3.1620   22.5390  -31.6560 O   0  0  0  0  0  0  0  0  0  0  0  0
   -3.7040   21.3250  -29.7660 O   0  0  0  0  0  0  0  0  0  0  0  0
   -2.3650   20.9460  -29.4570 C   0  0  0  0  0  0  0  0  0  0  0  0
   -2.1550   20.8050  -27.9420 C   0  0  0  0  0  0  0  0  0  0  0  0
   -1.7130   22.1090  -27.2550 C   0  0  0  0  0  0  0  0  0  0  0  0
   -2.6950   23.2620  -27.4760 C   0  0  0  0  0  0  0  0  0  0  0  0
   -1.9930   24.4800  -27.3900 O   0  0  0  0  0  0  0  0  0  0  0  0
   -1.0740   24.6740  -28.8140 P   0  0  2  0  0  0  0  0  0  0  0  0
    0.3840   24.3870  -28.5310 O   0  0  0  0  0  0  0  0  0  0  0  0
   -1.2290   26.2700  -29.3500 O   0  0  0  0  0  0  0  0  0  0  0  0
   -1.6360   23.6290  -30.0220 O   0  0  0  0  0  0  0  0  0  0  0  0
   -3.0540   25.2970  -30.1770 H   0  0  0  0  0  0  0  0  0  0  0  0
   -7.9455   24.7142  -31.2377 H   0  0  0  0  0  0  0  0  0  0  0  0
   -9.7074   22.5813  -31.9624 H   0  0  0  0  0  0  0  0  0  0  0  0
   -9.7819   20.1013  -32.3848 H   0  0  0  0  0  0  0  0  0  0  0  0
   -5.5162   19.8272  -31.5211 H   0  0  0  0  0  0  0  0  0  0  0  0
   -2.1461   19.9820  -29.9394 H   0  0  0  0  0  0  0  0  0  0  0  0
   -1.6899   21.7316  -29.8273 H   0  0  0  0  0  0  0  0  0  0  0  0
   -3.1024   20.4777  -27.4890 H   0  0  0  0  0  0  0  0  0  0  0  0
   -1.3457   20.0744  -27.7962 H   0  0  0  0  0  0  0  0  0  0  0  0
   -1.6264   21.9242  -26.1741 H   0  0  0  0  0  0  0  0  0  0  0  0
   -0.7510   22.4056  -27.6983 H   0  0  0  0  0  0  0  0  0  0  0  0
   -3.1550   23.1701  -28.4710 H   0  0  0  0  0  0  0  0  0  0  0  0
   -3.4849   23.2315  -26.7110 H   0  0  0  0  0  0  0  0  0  0  0  0
   -2.3840   24.1160  -30.4500 H   0  0  0  0  0  0  0  0  0  0  0  0
  1  2  1  0
  2  3  2  0
  2  4  1  0
  4  5  2  0
  5  6  1  0
  6  7  2  0
  7  8  1  0
  8  9  2  0
  9 10  1  0
 10 11  1  0
 10 12  1  0
 10 13  1  0
  9 14  1  0
 14 15  2  0
 15 16  1  0
 16 17  1  0
 17 18  2  0
 17 19  1  0
 19 20  1  0
 20 21  1  0
 21 22  1  0
 22 23  1  0
 23 24  1  0
 24 25  1  0
 25 26  2  0
 25 27  1  6
 25 28  1  0
 16  4  1  0
 15  6  1  0
  1 29  1  0
  5 30  1  0
  7 31  1  0
  8 32  1  0
 14 33  1  0
 20 34  1  0
 20 35  1  0
 21 36  1  0
 21 37  1  0
 22 38  1  0
 22 39  1  0
 23 40  1  0
 23 41  1  0
 28 42  1  0
M  CHG  2   1  -1  27  -1
M  END
>  <UniqueID>  (71) 
70

>  <SMILES>  (71) 
[NH-]C(=O)c1cc2ccc(C(F)(F)F)cc2n1C(=O)OCCCCO[P@](=O)([O-])O

>  <Energy>  (71) 
72.69483604810115

>  <Genealogy>  (71) 
[NH-]C(=O)c1cc2ccc(C(F)(F)F)cc2n1C(=O)OCCCCOP(=O)([O-])O (protonated)
[NH-]C(=O)c1cc2ccc(C(F)(F)F)cc2n1C(=O)OCCCCO[P@](=O)([O-])O (chirality)
[NH-]C(=O)c1cc2ccc(C(F)(F)F)cc2n1C(=O)OCCCCO[P@](=O)([O-])O (3D coordinates assigned)
[NH-]C(=O)c1cc2ccc(C(F)(F)F)cc2n1C(=O)OCCCCO[P@](=O)([O-])O (optimized conformer: 72.69483604810115 kcal/mol)

>  <smiles>  (71) 
NC(=O)c1cc2ccc(C(F)(F)F)cc2n1C(=O)OCCCCOP(=O)(O)O

>  <score_type>  (71) 
oracle

>  <origin>  (71) 
adg

>  <m_score__min__energy>  (71) 
-12.08

>  <m_primary>  (71) 
energy

$$$$
74:0
     RDKit          3D

 39 40  0  0  0  0  0  0  0  0999 V2000
   -4.9820   24.8220  -29.0890 N   0  0  0  0  0  0  0  0  0  0  0  0
   -6.2480   24.6430  -29.7250 C   0  0  0  0  0  0  0  0  0  0  0  0
   -7.1760   25.4630  -29.4940 O   0  0  0  0  0  0  0  0  0  0  0  0
   -6.5080   23.4800  -30.5960 C   0  0  0  0  0  0  0  0  0  0  0  0
   -7.7840   22.9910  -30.8600 C   0  0  0  0  0  0  0  0  0  0  0  0
   -7.5920   21.8860  -31.6570 C   0  0  0  0  0  0  0  0  0  0  0  0
   -8.5230   21.0270  -32.2360 C   0  0  0  0  0  0  0  0  0  0  0  0
   -8.0440   19.9940  -33.0570 C   0  0  0  0  0  0  0  0  0  0  0  0
   -6.6570   19.8450  -33.2900 C   0  0  0  0  0  0  0  0  0  0  0  0
   -6.1820   18.8000  -34.1450 N   0  0  0  0  0  0  0  0  0  0  0  0
   -5.7410   20.7320  -32.6870 C   0  0  0  0  0  0  0  0  0  0  0  0
   -6.2420   21.7410  -31.8570 C   0  0  0  0  0  0  0  0  0  0  0  0
   -5.5610   22.7180  -31.2150 N   0  0  0  0  0  0  0  0  0  0  0  0
   -4.1500   22.9720  -31.2940 C   0  0  0  0  0  0  0  0  0  0  0  0
   -3.7190   24.1560  -31.2130 O   0  0  0  0  0  0  0  0  0  0  0  0
   -3.2570   21.9100  -31.4710 O   0  0  0  0  0  0  0  0  0  0  0  0
   -2.0530   21.7770  -30.7210 C   0  0  0  0  0  0  0  0  0  0  0  0
   -2.3360   21.2510  -29.4270 O   0  0  0  0  0  0  0  0  0  0  0  0
   -2.8390   22.0340  -28.3840 C   0  0  0  0  0  0  0  0  0  0  0  0
   -4.0830   22.1910  -28.2370 O   0  0  0  0  0  0  0  0  0  0  0  0
   -1.8900   22.6630  -27.4120 C   0  0  0  0  0  0  0  0  0  0  0  0
   -2.1510   24.1650  -27.2630 C   0  0  0  0  0  0  0  0  0  0  0  0
   -1.6750   24.9370  -28.4570 C   0  0  0  0  0  0  0  0  0  0  0  0
   -2.4920   25.3010  -29.3430 O   0  0  0  0  0  0  0  0  0  0  0  0
   -0.3310   25.2630  -28.5840 O   0  0  0  0  0  0  0  0  0  0  0  0
   -4.2510   24.0770  -29.1210 H   0  0  0  0  0  0  0  0  0  0  0  0
   -4.8030   25.6720  -28.5080 H   0  0  0  0  0  0  0  0  0  0  0  0
   -8.7418   23.4006  -30.5068 H   0  0  0  0  0  0  0  0  0  0  0  0
   -9.6006   21.1541  -32.0555 H   0  0  0  0  0  0  0  0  0  0  0  0
   -8.7535   19.2944  -33.5231 H   0  0  0  0  0  0  0  0  0  0  0  0
   -5.3650   18.2130  -33.8670 H   0  0  0  0  0  0  0  0  0  0  0  0
   -6.6450   18.6080  -35.0610 H   0  0  0  0  0  0  0  0  0  0  0  0
   -4.6600   20.6330  -32.8647 H   0  0  0  0  0  0  0  0  0  0  0  0
   -1.3693   21.0958  -31.2488 H   0  0  0  0  0  0  0  0  0  0  0  0
   -1.5861   22.7670  -30.6123 H   0  0  0  0  0  0  0  0  0  0  0  0
   -2.0113   22.1803  -26.4310 H   0  0  0  0  0  0  0  0  0  0  0  0
   -0.8668   22.5270  -27.7921 H   0  0  0  0  0  0  0  0  0  0  0  0
   -3.2322   24.3277  -27.1424 H   0  0  0  0  0  0  0  0  0  0  0  0
   -1.5954   24.5216  -26.3832 H   0  0  0  0  0  0  0  0  0  0  0  0
  1  2  1  0
  2  3  2  0
  2  4  1  0
  4  5  2  0
  5  6  1  0
  6  7  2  0
  7  8  1  0
  8  9  2  0
  9 10  1  0
  9 11  1  0
 11 12  2  0
 12 13  1  0
 13 14  1  0
 14 15  2  0
 14 16  1  0
 16 17  1  0
 17 18  1  0
 18 19  1  0
 19 20  2  0
 19 21  1  0
 21 22  1  0
 22 23  1  0
 23 24  2  0
 23 25  1  0
 13  4  1  0
 12  6  1  0
  1 26  1  0
  1 27  1  0
  5 28  1  0
  7 29  1  0
  8 30  1  0
 10 31  1  0
 10 32  1  0
 11 33  1  0
 17 34  1  0
 17 35  1  0
 21 36  1  0
 21 37  1  0
 22 38  1  0
 22 39  1  0
M  CHG  1  25  -1
M  END
>  <UniqueID>  (72) 
71

>  <SMILES>  (72) 
NC(=O)c1cc2ccc(N)cc2n1C(=O)OCOC(=O)CCC(=O)[O-]

>  <Energy>  (72) 
68.4742383375052

>  <Genealogy>  (72) 
NC(=O)c1cc2ccc(N)cc2n1C(=O)OCOC(=O)CCC(=O)[O-] (protonated)
NC(=O)c1cc2ccc(N)cc2n1C(=O)OCOC(=O)CCC(=O)[O-] (3D coordinates assigned)
NC(=O)c1cc2ccc(N)cc2n1C(=O)OCOC(=O)CCC(=O)[O-] (optimized conformer: 68.4742383375052 kcal/mol)

>  <smiles>  (72) 
NC(=O)c1cc2ccc(N)cc2n1C(=O)OCOC(=O)CCC(=O)O

>  <score_type>  (72) 
oracle

>  <origin>  (72) 
adg

>  <m_score__min__energy>  (72) 
-9.9299999999999997

>  <m_primary>  (72) 
energy

$$$$
75:0
     RDKit          3D

 39 40  0  0  0  0  0  0  0  0999 V2000
   -4.5330   17.5250  -35.0500 C   0  0  0  0  0  0  0  0  0  0  0  0
   -5.5470   16.6130  -34.5410 N   0  0  0  0  0  0  0  0  0  0  0  0
   -5.7720   16.4120  -33.1430 C   0  0  0  0  0  0  0  0  0  0  0  0
   -5.3120   15.3930  -32.5620 O   0  0  0  0  0  0  0  0  0  0  0  0
   -6.5850   17.4060  -32.3720 C   0  0  0  0  0  0  0  0  0  0  0  0
   -6.8760   18.5800  -33.1940 N   0  0  0  0  0  0  0  0  0  0  0  0
   -7.1320   19.8990  -32.6700 C   0  0  0  0  0  0  0  0  0  0  0  0
   -8.4530   20.4020  -32.5250 C   0  0  0  0  0  0  0  0  0  0  0  0
   -8.6800   21.6830  -31.9940 C   0  0  0  0  0  0  0  0  0  0  0  0
   -7.5740   22.4430  -31.6280 C   0  0  0  0  0  0  0  0  0  0  0  0
   -7.5110   23.6950  -31.0590 C   0  0  0  0  0  0  0  0  0  0  0  0
   -6.1540   23.9550  -30.8960 C   0  0  0  0  0  0  0  0  0  0  0  0
   -5.6280   25.2300  -30.3670 C   0  0  0  0  0  0  0  0  0  0  0  0
   -4.2410   25.5610  -30.4740 N   0  0  0  0  0  0  0  0  0  0  0  0
   -6.4240   26.0650  -29.8620 O   0  0  0  0  0  0  0  0  0  0  0  0
   -5.4060   22.9030  -31.3340 N   0  0  0  0  0  0  0  0  0  0  0  0
   -3.9800   22.7450  -31.2380 C   0  0  0  0  0  0  0  0  0  0  0  0
   -3.3210   22.3720  -32.2470 O   0  0  0  0  0  0  0  0  0  0  0  0
   -3.3310   23.0040  -30.0260 O   0  0  0  0  0  0  0  0  0  0  0  0
   -1.9140   22.9680  -29.8740 C   0  0  0  0  0  0  0  0  0  0  0  0
   -1.4160   24.2740  -29.3440 C   0  0  0  0  0  0  0  0  0  0  0  0
   -2.1650   25.2860  -29.3390 O   0  0  0  0  0  0  0  0  0  0  0  0
   -0.1120   24.3790  -28.8780 O   0  0  0  0  0  0  0  0  0  0  0  0
   -6.2910   21.9870  -31.7830 C   0  0  0  0  0  0  0  0  0  0  0  0
   -6.0380   20.7060  -32.2890 C   0  0  0  0  0  0  0  0  0  0  0  0
   -4.0080   17.9972  -34.2066 H   0  0  0  0  0  0  0  0  0  0  0  0
   -3.8118   16.9657  -35.6640 H   0  0  0  0  0  0  0  0  0  0  0  0
   -5.0130   18.3013  -35.6640 H   0  0  0  0  0  0  0  0  0  0  0  0
   -7.5310   16.9375  -32.0629 H   0  0  0  0  0  0  0  0  0  0  0  0
   -6.0120   17.7244  -31.4886 H   0  0  0  0  0  0  0  0  0  0  0  0
   -6.8800   18.4460  -34.2310 H   0  0  0  0  0  0  0  0  0  0  0  0
   -9.3078   19.7814  -32.8320 H   0  0  0  0  0  0  0  0  0  0  0  0
   -9.7013   22.0729  -31.8715 H   0  0  0  0  0  0  0  0  0  0  0  0
   -8.3533   24.3497  -30.7907 H   0  0  0  0  0  0  0  0  0  0  0  0
   -3.8820   26.4470  -30.0570 H   0  0  0  0  0  0  0  0  0  0  0  0
   -3.5890   24.9740  -31.0390 H   0  0  0  0  0  0  0  0  0  0  0  0
   -1.6446   22.1650  -29.1721 H   0  0  0  0  0  0  0  0  0  0  0  0
   -1.4534   22.7809  -30.8552 H   0  0  0  0  0  0  0  0  0  0  0  0
   -5.0069   20.3357  -32.3877 H   0  0  0  0  0  0  0  0  0  0  0  0
  1  2  1  0
  2  3  1  0
  3  4  2  0
  3  5  1  0
  5  6  1  0
  6  7  1  0
  7  8  2  0
  8  9  1  0
  9 10  2  0
 10 11  1  0
 11 12  2  0
 12 13  1  0
 13 14  1  0
 13 15  2  0
 12 16  1  0
 16 17  1  0
 17 18  2  0
 17 19  1  0
 19 20  1  0
 20 21  1  0
 21 22  2  0
 21 23  1  0
 16 24  1  0
 24 25  2  0
 25  7  1  0
 24 10  1  0
  1 26  1  0
  1 27  1  0
  1 28  1  0
  5 29  1  0
  5 30  1  0
  6 31  1  0
  8 32  1  0
  9 33  1  0
 11 34  1  0
 14 35  1  0
 14 36  1  0
 20 37  1  0
 20 38  1  0
 25 39  1  0
M  CHG  2   2  -1  23  -1
M  END
>  <UniqueID>  (73) 
72

>  <SMILES>  (73) 
C[N-]C(=O)CNc1ccc2cc(C(N)=O)n(C(=O)OCC(=O)[O-])c2c1

>  <Energy>  (73) 
72.12389400355457

>  <Genealogy>  (73) 
C[N-]C(=O)CNc1ccc2cc(C(N)=O)n(C(=O)OCC(=O)[O-])c2c1 (protonated)
C[N-]C(=O)CNc1ccc2cc(C(N)=O)n(C(=O)OCC(=O)[O-])c2c1 (3D coordinates assigned)
C[N-]C(=O)CNc1ccc2cc(C(N)=O)n(C(=O)OCC(=O)[O-])c2c1 (optimized conformer: 72.12389400355457 kcal/mol)

>  <smiles>  (73) 
CNC(=O)CNc1ccc2cc(C(N)=O)n(C(=O)OCC(=O)O)c2c1

>  <score_type>  (73) 
oracle

>  <origin>  (73) 
adg

>  <m_score__min__energy>  (73) 
-10.06

>  <m_primary>  (73) 
energy

$$$$
76:0
     RDKit          3D

 46 47  0  0  0  0  0  0  0  0999 V2000
   -2.8070   25.3610  -26.1740 C   0  0  0  0  0  0  0  0  0  0  0  0
   -3.9250   24.8070  -26.6540 C   0  0  0  0  0  0  0  0  0  0  0  0
   -3.8950   23.7820  -27.7550 C   0  0  0  0  0  0  0  0  0  0  0  0
   -2.5570   23.3570  -28.0000 O   0  0  0  0  0  0  0  0  0  0  0  0
   -1.8810   23.6050  -29.2020 C   0  0  0  0  0  0  0  0  0  0  0  0
   -1.1680   24.6360  -29.3430 O   0  0  0  0  0  0  0  0  0  0  0  0
   -1.9880   22.6190  -30.3210 C   0  0  0  0  0  0  0  0  0  0  0  0
   -3.3360   22.1790  -30.4740 O   0  0  0  0  0  0  0  0  0  0  0  0
   -4.1250   22.4880  -31.5890 C   0  0  0  0  0  0  0  0  0  0  0  0
   -3.6260   22.4720  -32.7470 O   0  0  0  0  0  0  0  0  0  0  0  0
   -5.5050   22.8390  -31.4090 N   0  0  0  0  0  0  0  0  0  0  0  0
   -6.0110   24.0310  -30.9800 C   0  0  0  0  0  0  0  0  0  0  0  0
   -5.2230   25.1730  -30.4720 C   0  0  0  0  0  0  0  0  0  0  0  0
   -3.8420   25.2890  -30.8090 N   0  0  0  0  0  0  0  0  0  0  0  0
   -5.7640   26.0700  -29.7730 O   0  0  0  0  0  0  0  0  0  0  0  0
   -7.4040   24.0030  -30.9990 C   0  0  0  0  0  0  0  0  0  0  0  0
   -7.7380   22.7470  -31.4500 C   0  0  0  0  0  0  0  0  0  0  0  0
   -8.9870   22.1780  -31.6660 C   0  0  0  0  0  0  0  0  0  0  0  0
   -9.0350   20.8630  -32.1580 C   0  0  0  0  0  0  0  0  0  0  0  0
   -7.8460   20.1410  -32.4410 C   0  0  0  0  0  0  0  0  0  0  0  0
   -7.9720   18.7910  -32.9430 N   0  0  0  0  0  0  0  0  0  0  0  0
   -6.9850   17.6990  -32.8890 C   0  0  0  0  0  0  0  0  0  0  0  0
   -6.3520   17.5510  -31.4970 C   0  0  0  0  0  0  0  0  0  0  0  0
   -5.9510   17.7950  -34.0170 C   0  0  0  0  0  0  0  0  0  0  0  0
   -6.5930   20.7610  -32.2040 C   0  0  0  0  0  0  0  0  0  0  0  0
   -6.5760   22.0640  -31.6920 C   0  0  0  0  0  0  0  0  0  0  0  0
   -2.8652   26.1076  -25.3683 H   0  0  0  0  0  0  0  0  0  0  0  0
   -1.8289   25.0702  -26.5847 H   0  0  0  0  0  0  0  0  0  0  0  0
   -4.8948   25.1092  -26.2318 H   0  0  0  0  0  0  0  0  0  0  0  0
   -4.5028   22.9142  -27.4593 H   0  0  0  0  0  0  0  0  0  0  0  0
   -4.3009   24.2317  -28.6731 H   0  0  0  0  0  0  0  0  0  0  0  0
   -1.6545   23.0945  -31.2552 H   0  0  0  0  0  0  0  0  0  0  0  0
   -1.3548   21.7497  -30.0899 H   0  0  0  0  0  0  0  0  0  0  0  0
   -3.1070   25.3020  -30.0670 H   0  0  0  0  0  0  0  0  0  0  0  0
   -8.0910   24.8134  -30.7138 H   0  0  0  0  0  0  0  0  0  0  0  0
   -9.9096   22.7397  -31.4582 H   0  0  0  0  0  0  0  0  0  0  0  0
  -10.0110   20.3845  -32.3269 H   0  0  0  0  0  0  0  0  0  0  0  0
   -8.8430   18.5720  -33.4790 H   0  0  0  0  0  0  0  0  0  0  0  0
   -7.5355   16.7632  -33.0658 H   0  0  0  0  0  0  0  0  0  0  0  0
   -7.1159   17.7296  -30.7259 H   0  0  0  0  0  0  0  0  0  0  0  0
   -5.9479   16.5342  -31.3842 H   0  0  0  0  0  0  0  0  0  0  0  0
   -5.5389   18.2833  -31.3842 H   0  0  0  0  0  0  0  0  0  0  0  0
   -4.9440   17.8885  -33.5843 H   0  0  0  0  0  0  0  0  0  0  0  0
   -6.0006   16.8884  -34.6380 H   0  0  0  0  0  0  0  0  0  0  0  0
   -6.1666   18.6770  -34.6380 H   0  0  0  0  0  0  0  0  0  0  0  0
   -5.6540   20.2294  -32.4179 H   0  0  0  0  0  0  0  0  0  0  0  0
  1  2  2  0
  2  3  1  0
  3  4  1  0
  4  5  1  0
  5  6  2  0
  5  7  1  0
  7  8  1  0
  8  9  1  0
  9 10  2  0
  9 11  1  0
 11 12  1  0
 12 13  1  0
 13 14  1  0
 13 15  2  0
 12 16  2  0
 16 17  1  0
 17 18  2  0
 18 19  1  0
 19 20  2  0
 20 21  1  0
 21 22  1  0
 22 23  1  0
 22 24  1  0
 20 25  1  0
 25 26  2  0
 26 11  1  0
 26 17  1  0
  1 27  1  0
  1 28  1  0
  2 29  1  0
  3 30  1  0
  3 31  1  0
  7 32  1  0
  7 33  1  0
 14 34  1  0
 16 35  1  0
 18 36  1  0
 19 37  1  0
 21 38  1  0
 22 39  1  0
 23 40  1  0
 23 41  1  0
 23 42  1  0
 24 43  1  0
 24 44  1  0
 24 45  1  0
 25 46  1  0
M  CHG  1  14  -1
M  END
>  <UniqueID>  (74) 
73

>  <SMILES>  (74) 
C=CCOC(=O)COC(=O)n1c(C([NH-])=O)cc2ccc(NC(C)C)cc21

>  <Energy>  (74) 
76.85906379193592

>  <Genealogy>  (74) 
C=CCOC(=O)COC(=O)n1c(C([NH-])=O)cc2ccc(NC(C)C)cc21 (protonated)
C=CCOC(=O)COC(=O)n1c(C([NH-])=O)cc2ccc(NC(C)C)cc21 (3D coordinates assigned)
C=CCOC(=O)COC(=O)n1c(C([NH-])=O)cc2ccc(NC(C)C)cc21 (optimized conformer: 76.85906379193592 kcal/mol)

>  <smiles>  (74) 
C=CCOC(=O)COC(=O)n1c(C(N)=O)cc2ccc(NC(C)C)cc21

>  <score_type>  (74) 
oracle

>  <origin>  (74) 
adg

>  <m_score__min__energy>  (74) 
-10.75

>  <m_primary>  (74) 
energy

$$$$
77:0
     RDKit          3D

 51 52  0  0  0  0  0  0  0  0999 V2000
   -7.2100   17.1950  -32.4660 C   0  0  0  0  0  0  0  0  0  0  0  0
   -6.6810   18.3780  -33.1600 N   0  0  0  0  0  0  0  0  0  0  0  0
   -5.8750   18.1820  -34.3730 C   0  0  0  0  0  0  0  0  0  0  0  0
   -6.9300   19.7140  -32.6420 C   0  0  0  0  0  0  0  0  0  0  0  0
   -8.2350   20.2880  -32.6940 C   0  0  0  0  0  0  0  0  0  0  0  0
   -8.4780   21.5920  -32.2310 C   0  0  0  0  0  0  0  0  0  0  0  0
   -7.4080   22.3140  -31.7190 C   0  0  0  0  0  0  0  0  0  0  0  0
   -7.3550   23.6020  -31.2390 C   0  0  0  0  0  0  0  0  0  0  0  0
   -6.0240   23.8090  -30.8800 C   0  0  0  0  0  0  0  0  0  0  0  0
   -5.5150   25.0360  -30.2260 C   0  0  0  0  0  0  0  0  0  0  0  0
   -4.2040   25.5320  -30.5130 N   0  0  0  0  0  0  0  0  0  0  0  0
   -6.2470   25.6720  -29.4230 O   0  0  0  0  0  0  0  0  0  0  0  0
   -5.2870   22.6900  -31.1360 N   0  0  0  0  0  0  0  0  0  0  0  0
   -3.8730   22.5060  -30.9640 C   0  0  0  0  0  0  0  0  0  0  0  0
   -3.0680   23.2470  -31.5890 O   0  0  0  0  0  0  0  0  0  0  0  0
   -3.3430   21.4800  -30.0020 C   0  0  0  0  0  0  0  0  0  0  0  0
   -2.9940   22.1120  -28.6500 C   0  0  0  0  0  0  0  0  0  0  0  0
   -1.8910   23.0120  -28.7670 O   0  0  0  0  0  0  0  0  0  0  0  0
   -1.9710   24.3750  -28.4500 C   0  0  0  0  0  0  0  0  0  0  0  0
   -2.1320   25.2290  -29.3660 O   0  0  0  0  0  0  0  0  0  0  0  0
   -1.9170   24.8030  -26.9950 C   0  0  0  0  0  0  0  0  0  0  0  0
   -1.1480   23.7470  -26.1820 C   0  0  0  0  0  0  0  0  0  0  0  0
   -3.3560   24.9160  -26.4580 C   0  0  0  0  0  0  0  0  0  0  0  0
   -1.2080   26.1670  -26.8400 C   0  0  0  0  0  0  0  0  0  0  0  0
   -6.1500   21.7840  -31.6410 C   0  0  0  0  0  0  0  0  0  0  0  0
   -5.8740   20.4900  -32.0910 C   0  0  0  0  0  0  0  0  0  0  0  0
   -7.1421   17.3469  -31.3787 H   0  0  0  0  0  0  0  0  0  0  0  0
   -8.2618   17.0431  -32.7500 H   0  0  0  0  0  0  0  0  0  0  0  0
   -6.6220   16.3098  -32.7500 H   0  0  0  0  0  0  0  0  0  0  0  0
   -4.8421   17.9308  -34.0903 H   0  0  0  0  0  0  0  0  0  0  0  0
   -6.3020   17.3615  -34.9684 H   0  0  0  0  0  0  0  0  0  0  0  0
   -5.8776   19.1069  -34.9684 H   0  0  0  0  0  0  0  0  0  0  0  0
   -9.0675   19.6979  -33.1048 H   0  0  0  0  0  0  0  0  0  0  0  0
   -9.4868   22.0285  -32.2729 H   0  0  0  0  0  0  0  0  0  0  0  0
   -8.1867   24.3171  -31.1560 H   0  0  0  0  0  0  0  0  0  0  0  0
   -3.8640   26.4060  -30.0530 H   0  0  0  0  0  0  0  0  0  0  0  0
   -3.5570   25.0270  -31.1580 H   0  0  0  0  0  0  0  0  0  0  0  0
   -4.1076   20.7043  -29.8482 H   0  0  0  0  0  0  0  0  0  0  0  0
   -2.4272   21.0447  -30.4284 H   0  0  0  0  0  0  0  0  0  0  0  0
   -3.8688   22.6641  -28.2761 H   0  0  0  0  0  0  0  0  0  0  0  0
   -2.7139   21.3084  -27.9531 H   0  0  0  0  0  0  0  0  0  0  0  0
   -1.2873   23.9383  -25.1078 H   0  0  0  0  0  0  0  0  0  0  0  0
   -1.5295   22.7452  -26.4285 H   0  0  0  0  0  0  0  0  0  0  0  0
   -0.0774   23.8026  -26.4285 H   0  0  0  0  0  0  0  0  0  0  0  0
   -3.3381   24.9146  -25.3581 H   0  0  0  0  0  0  0  0  0  0  0  0
   -3.8085   25.8524  -26.8162 H   0  0  0  0  0  0  0  0  0  0  0  0
   -3.9492   24.0617  -26.8162 H   0  0  0  0  0  0  0  0  0  0  0  0
   -1.0877   26.3984  -25.7714 H   0  0  0  0  0  0  0  0  0  0  0  0
   -0.2188   26.1226  -27.3191 H   0  0  0  0  0  0  0  0  0  0  0  0
   -1.8127   26.9511  -27.3191 H   0  0  0  0  0  0  0  0  0  0  0  0
   -4.8563   20.0787  -32.0200 H   0  0  0  0  0  0  0  0  0  0  0  0
  1  2  1  0
  2  3  1  0
  2  4  1  0
  4  5  2  0
  5  6  1  0
  6  7  2  0
  7  8  1  0
  8  9  2  0
  9 10  1  0
 10 11  1  0
 10 12  2  0
  9 13  1  0
 13 14  1  0
 14 15  2  0
 14 16  1  0
 16 17  1  0
 17 18  1  0
 18 19  1  0
 19 20  2  0
 19 21  1  0
 21 22  1  0
 21 23  1  0
 21 24  1  0
 13 25  1  0
 25 26  2  0
 26  4  1  0
 25  7  1  0
  1 27  1  0
  1 28  1  0
  1 29  1  0
  3 30  1  0
  3 31  1  0
  3 32  1  0
  5 33  1  0
  6 34  1  0
  8 35  1  0
 11 36  1  0
 11 37  1  0
 16 38  1  0
 16 39  1  0
 17 40  1  0
 17 41  1  0
 22 42  1  0
 22 43  1  0
 22 44  1  0
 23 45  1  0
 23 46  1  0
 23 47  1  0
 24 48  1  0
 24 49  1  0
 24 50  1  0
 26 51  1  0
M  END
>  <UniqueID>  (75) 
74

>  <SMILES>  (75) 
CN(C)c1ccc2cc(C(N)=O)n(C(=O)CCOC(=O)C(C)(C)C)c2c1

>  <Energy>  (75) 
78.9660406660325

>  <Genealogy>  (75) 
CN(C)c1ccc2cc(C(N)=O)n(C(=O)CCOC(=O)C(C)(C)C)c2c1 (3D coordinates assigned)
CN(C)c1ccc2cc(C(N)=O)n(C(=O)CCOC(=O)C(C)(C)C)c2c1 (optimized conformer: 78.9660406660325 kcal/mol)

>  <smiles>  (75) 
CN(C)c1ccc2cc(C(N)=O)n(C(=O)CCOC(=O)C(C)(C)C)c2c1

>  <score_type>  (75) 
oracle

>  <origin>  (75) 
adg

>  <m_score__min__energy>  (75) 
-9.8000000000000007

>  <m_primary>  (75) 
energy

$$$$
78:0
     RDKit          3D

 40 42  0  0  0  0  0  0  0  0999 V2000
   -7.1550   17.5470  -32.9870 C   0  0  0  0  0  0  0  0  0  0  0  0
   -8.1740   18.5910  -33.0040 N   0  0  0  0  0  0  0  0  0  0  0  0
   -7.9810   19.8990  -32.4340 C   0  0  0  0  0  0  0  0  0  0  0  0
   -9.1160   20.6890  -32.1260 C   0  0  0  0  0  0  0  0  0  0  0  0
   -8.9730   21.9750  -31.5790 C   0  0  0  0  0  0  0  0  0  0  0  0
   -7.6860   22.4430  -31.3410 C   0  0  0  0  0  0  0  0  0  0  0  0
   -7.2630   23.6550  -30.8460 C   0  0  0  0  0  0  0  0  0  0  0  0
   -5.8730   23.5790  -30.8300 C   0  0  0  0  0  0  0  0  0  0  0  0
   -5.0050   24.6500  -30.2980 C   0  0  0  0  0  0  0  0  0  0  0  0
   -3.6940   24.8680  -30.8200 N   0  0  0  0  0  0  0  0  0  0  0  0
   -5.4100   25.3500  -29.3320 O   0  0  0  0  0  0  0  0  0  0  0  0
   -5.4510   22.3760  -31.3090 N   0  0  0  0  0  0  0  0  0  0  0  0
   -4.0970   21.9550  -31.5400 C   0  0  0  0  0  0  0  0  0  0  0  0
   -3.3890   22.5570  -32.3920 O   0  0  0  0  0  0  0  0  0  0  0  0
   -3.5680   20.8870  -30.8090 O   0  0  0  0  0  0  0  0  0  0  0  0
   -2.2300   20.8650  -30.3170 C   0  0  0  0  0  0  0  0  0  0  0  0
   -1.9420   22.1060  -29.5270 C   0  0  0  0  0  0  0  0  0  0  0  0
   -1.8400   23.3090  -30.0390 O   0  0  0  0  0  0  0  0  0  0  0  0
   -1.5930   24.1100  -29.0270 C   0  0  0  0  0  0  0  0  0  0  0  0
   -1.4360   25.3520  -29.1430 O   0  0  0  0  0  0  0  0  0  0  0  0
   -1.5290   23.4710  -27.8800 O   0  0  0  0  0  0  0  0  0  0  0  0
   -1.7400   22.2070  -28.1620 C   0  0  0  0  0  0  0  0  0  0  0  0
   -1.7850   21.1070  -27.1540 C   0  0  0  0  0  0  0  0  0  0  0  0
   -6.5730   21.6880  -31.6130 C   0  0  0  0  0  0  0  0  0  0  0  0
   -6.6860   20.4120  -32.1780 C   0  0  0  0  0  0  0  0  0  0  0  0
   -6.9074   17.2933  -31.9457 H   0  0  0  0  0  0  0  0  0  0  0  0
   -7.5374   16.6530  -33.5012 H   0  0  0  0  0  0  0  0  0  0  0  0
   -6.2520   17.9076  -33.5012 H   0  0  0  0  0  0  0  0  0  0  0  0
   -9.0900   18.3650  -33.4530 H   0  0  0  0  0  0  0  0  0  0  0  0
  -10.1230   20.2899  -32.3178 H   0  0  0  0  0  0  0  0  0  0  0  0
   -9.8528   22.5928  -31.3461 H   0  0  0  0  0  0  0  0  0  0  0  0
   -7.8891   24.5026  -30.5304 H   0  0  0  0  0  0  0  0  0  0  0  0
   -3.1120   25.6590  -30.4630 H   0  0  0  0  0  0  0  0  0  0  0  0
   -3.2620   24.1990  -31.4940 H   0  0  0  0  0  0  0  0  0  0  0  0
   -2.0961   19.9850  -29.6707 H   0  0  0  0  0  0  0  0  0  0  0  0
   -1.5374   20.8170  -31.1702 H   0  0  0  0  0  0  0  0  0  0  0  0
   -1.7674   21.5366  -26.1415 H   0  0  0  0  0  0  0  0  0  0  0  0
   -2.7078   20.5236  -27.2888 H   0  0  0  0  0  0  0  0  0  0  0  0
   -0.9130   20.4502  -27.2888 H   0  0  0  0  0  0  0  0  0  0  0  0
   -5.7894   19.8214  -32.4176 H   0  0  0  0  0  0  0  0  0  0  0  0
  1  2  1  0
  2  3  1  0
  3  4  2  0
  4  5  1  0
  5  6  2  0
  6  7  1  0
  7  8  2  0
  8  9  1  0
  9 10  1  0
  9 11  2  0
  8 12  1  0
 12 13  1  0
 13 14  2  0
 13 15  1  0
 15 16  1  0
 16 17  1  0
 17 18  1  0
 18 19  1  0
 19 20  2  0
 19 21  1  0
 21 22  1  0
 22 23  1  0
 12 24  1  0
 24 25  2  0
 25  3  1  0
 24  6  1  0
 22 17  2  0
  1 26  1  0
  1 27  1  0
  1 28  1  0
  2 29  1  0
  4 30  1  0
  5 31  1  0
  7 32  1  0
 10 33  1  0
 10 34  1  0
 16 35  1  0
 16 36  1  0
 23 37  1  0
 23 38  1  0
 23 39  1  0
 25 40  1  0
M  END
>  <UniqueID>  (76) 
75

>  <SMILES>  (76) 
CNc1ccc2cc(C(N)=O)n(C(=O)OCc3oc(=O)oc3C)c2c1

>  <Energy>  (76) 
108.63732901020437

>  <Genealogy>  (76) 
CNc1ccc2cc(C(N)=O)n(C(=O)OCc3oc(=O)oc3C)c2c1 (3D coordinates assigned)
CNc1ccc2cc(C(N)=O)n(C(=O)OCc3oc(=O)oc3C)c2c1 (optimized conformer: 108.63732901020437 kcal/mol)

>  <smiles>  (76) 
CNc1ccc2cc(C(N)=O)n(C(=O)OCc3oc(=O)oc3C)c2c1

>  <score_type>  (76) 
oracle

>  <origin>  (76) 
adg

>  <m_score__min__energy>  (76) 
-8.9299999999999997

>  <m_primary>  (76) 
energy

$$$$
79:0
     RDKit          3D

 56 57  0  0  0  0  0  0  0  0999 V2000
   -7.1780   17.6820  -32.5890 C   0  0  0  0  0  0  0  0  0  0  0  0
   -7.9920   18.8320  -32.9730 N   0  0  0  0  0  0  0  0  0  0  0  0
   -7.9160   20.1120  -32.3180 C   0  0  0  0  0  0  0  0  0  0  0  0
   -9.0550   20.7030  -31.7080 C   0  0  0  0  0  0  0  0  0  0  0  0
   -8.9650   21.9590  -31.0880 C   0  0  0  0  0  0  0  0  0  0  0  0
   -7.7340   22.6070  -31.1010 C   0  0  0  0  0  0  0  0  0  0  0  0
   -7.3810   23.8320  -30.5870 C   0  0  0  0  0  0  0  0  0  0  0  0
   -6.0330   23.9880  -30.8970 C   0  0  0  0  0  0  0  0  0  0  0  0
   -5.2700   25.2250  -30.6140 C   0  0  0  0  0  0  0  0  0  0  0  0
   -3.9980   25.1650  -29.9670 N   0  0  0  0  0  0  0  0  0  0  0  0
   -5.7540   26.3510  -30.9110 O   0  0  0  0  0  0  0  0  0  0  0  0
   -5.5640   22.8960  -31.5710 N   0  0  0  0  0  0  0  0  0  0  0  0
   -4.2160   22.6420  -32.0060 C   0  0  0  0  0  0  0  0  0  0  0  0
   -4.0020   22.0870  -33.1180 O   0  0  0  0  0  0  0  0  0  0  0  0
   -3.1410   23.0340  -31.2020 O   0  0  0  0  0  0  0  0  0  0  0  0
   -1.9280   22.2900  -31.0780 C   0  0  0  0  0  0  0  0  0  0  0  0
   -1.5410   22.1150  -29.6100 C   0  0  0  0  0  0  0  0  0  0  0  0
   -1.0030   23.3350  -29.1020 O   0  0  0  0  0  0  0  0  0  0  0  0
   -1.7940   24.3570  -28.5660 C   0  0  0  0  0  0  0  0  0  0  0  0
   -2.7340   24.0920  -27.7680 O   0  0  0  0  0  0  0  0  0  0  0  0
   -1.5400   25.7090  -28.9510 N   0  0  0  0  0  0  0  0  0  0  0  0
   -0.8920   26.6720  -28.0690 C   0  0  0  0  0  0  0  0  0  0  0  0
   -0.9630   26.1940  -26.6060 C   0  0  0  0  0  0  0  0  0  0  0  0
    0.3140   25.6610  -26.0710 N   0  0  0  0  0  0  0  0  0  0  0  0
    0.6970   26.2940  -24.7970 C   0  0  0  0  0  0  0  0  0  0  0  0
    0.3270   24.1830  -25.9840 C   0  0  0  0  0  0  0  0  0  0  0  0
    1.2480   23.5900  -27.0530 C   0  0  0  0  0  0  0  0  0  0  0  0
    1.1950   24.3620  -28.2220 O   0  0  0  0  0  0  0  0  0  0  0  0
   -6.6240   22.0620  -31.6920 C   0  0  0  0  0  0  0  0  0  0  0  0
   -6.6810   20.7980  -32.2940 C   0  0  0  0  0  0  0  0  0  0  0  0
   -7.1312   17.6158  -31.4920 H   0  0  0  0  0  0  0  0  0  0  0  0
   -7.6279   16.7631  -32.9929 H   0  0  0  0  0  0  0  0  0  0  0  0
   -6.1618   17.8008  -32.9929 H   0  0  0  0  0  0  0  0  0  0  0  0
   -8.6650   18.7060  -33.7640 H   0  0  0  0  0  0  0  0  0  0  0  0
  -10.0175   20.1706  -31.7218 H   0  0  0  0  0  0  0  0  0  0  0  0
   -9.8414   22.4172  -30.6063 H   0  0  0  0  0  0  0  0  0  0  0  0
   -8.0268   24.5390  -30.0456 H   0  0  0  0  0  0  0  0  0  0  0  0
   -3.4880   26.0450  -29.7340 H   0  0  0  0  0  0  0  0  0  0  0  0
   -3.5390   24.2520  -29.7570 H   0  0  0  0  0  0  0  0  0  0  0  0
   -2.0657   21.2987  -31.5344 H   0  0  0  0  0  0  0  0  0  0  0  0
   -1.1248   22.8411  -31.5890 H   0  0  0  0  0  0  0  0  0  0  0  0
   -2.4326   21.8390  -29.0279 H   0  0  0  0  0  0  0  0  0  0  0  0
   -0.7832   21.3220  -29.5268 H   0  0  0  0  0  0  0  0  0  0  0  0
    0.1621   26.7811  -28.3638 H   0  0  0  0  0  0  0  0  0  0  0  0
   -1.4106   27.6384  -28.1539 H   0  0  0  0  0  0  0  0  0  0  0  0
   -1.2688   27.0457  -25.9806 H   0  0  0  0  0  0  0  0  0  0  0  0
   -1.6834   25.3631  -26.5826 H   0  0  0  0  0  0  0  0  0  0  0  0
    0.3281   25.6842  -23.9591 H   0  0  0  0  0  0  0  0  0  0  0  0
    1.7929   26.3703  -24.7403 H   0  0  0  0  0  0  0  0  0  0  0  0
    0.2560   27.3001  -24.7403 H   0  0  0  0  0  0  0  0  0  0  0  0
    0.6870   23.8823  -24.9890 H   0  0  0  0  0  0  0  0  0  0  0  0
   -0.6943   23.8085  -26.1475 H   0  0  0  0  0  0  0  0  0  0  0  0
    2.2807   23.5746  -26.6746 H   0  0  0  0  0  0  0  0  0  0  0  0
    0.9166   22.5668  -27.2840 H   0  0  0  0  0  0  0  0  0  0  0  0
    0.3260   24.8400  -28.2030 H   0  0  0  0  0  0  0  0  0  0  0  0
   -5.7814   20.3483  -32.7394 H   0  0  0  0  0  0  0  0  0  0  0  0
  1  2  1  0
  2  3  1  0
  3  4  2  0
  4  5  1  0
  5  6  2  0
  6  7  1  0
  7  8  2  0
  8  9  1  0
  9 10  1  0
  9 11  2  0
  8 12  1  0
 12 13  1  0
 13 14  2  0
 13 15  1  0
 15 16  1  0
 16 17  1  0
 17 18  1  0
 18 19  1  0
 19 20  2  0
 19 21  1  0
 21 22  1  0
 22 23  1  0
 23 24  1  0
 24 25  1  0
 24 26  1  0
 26 27  1  0
 27 28  1  0
 12 29  1  0
 29 30  2  0
 30  3  1  0
 29  6  1  0
  1 31  1  0
  1 32  1  0
  1 33  1  0
  2 34  1  0
  4 35  1  0
  5 36  1  0
  7 37  1  0
 10 38  1  0
 10 39  1  0
 16 40  1  0
 16 41  1  0
 17 42  1  0
 17 43  1  0
 22 44  1  0
 22 45  1  0
 23 46  1  0
 23 47  1  0
 25 48  1  0
 25 49  1  0
 25 50  1  0
 26 51  1  0
 26 52  1  0
 27 53  1  0
 27 54  1  0
 28 55  1  0
 30 56  1  0
M  CHG  1  21  -1
M  END
>  <UniqueID>  (77) 
76

>  <SMILES>  (77) 
CNc1ccc2cc(C(N)=O)n(C(=O)OCCOC(=O)[N-]CCN(C)CCO)c2c1

>  <Energy>  (77) 
82.81636745212178

>  <Genealogy>  (77) 
CNc1ccc2cc(C(N)=O)n(C(=O)OCCOC(=O)[N-]CCN(C)CCO)c2c1 (protonated)
CNc1ccc2cc(C(N)=O)n(C(=O)OCCOC(=O)[N-]CCN(C)CCO)c2c1 (3D coordinates assigned)
CNc1ccc2cc(C(N)=O)n(C(=O)OCCOC(=O)[N-]CCN(C)CCO)c2c1 (optimized conformer: 82.81636745212178 kcal/mol)

>  <smiles>  (77) 
CNc1ccc2cc(C(N)=O)n(C(=O)OCCOC(=O)NCCN(C)CCO)c2c1

>  <score_type>  (77) 
oracle

>  <origin>  (77) 
adg

>  <m_score__min__energy>  (77) 
-8.5199999999999996

>  <m_primary>  (77) 
energy

$$$$
80:0
     RDKit          3D

 39 41  0  0  0  0  0  0  0  0999 V2000
   -6.1140   13.2920  -34.5610 C   0  0  0  0  0  0  0  0  0  0  0  0
   -5.2550   14.4220  -34.6860 O   0  0  0  0  0  0  0  0  0  0  0  0
   -5.5590   15.7110  -34.2160 C   0  0  0  0  0  0  0  0  0  0  0  0
   -6.8200   16.0260  -33.6770 C   0  0  0  0  0  0  0  0  0  0  0  0
   -7.0880   17.3120  -33.2040 C   0  0  0  0  0  0  0  0  0  0  0  0
   -6.1030   18.3110  -33.2520 C   0  0  0  0  0  0  0  0  0  0  0  0
   -6.3880   19.6740  -32.7380 C   0  0  0  0  0  0  0  0  0  0  0  0
   -7.7240   20.1480  -32.6660 C   0  0  0  0  0  0  0  0  0  0  0  0
   -8.0050   21.4400  -32.1930 C   0  0  0  0  0  0  0  0  0  0  0  0
   -6.9350   22.2350  -31.7920 C   0  0  0  0  0  0  0  0  0  0  0  0
   -6.9230   23.5270  -31.3210 C   0  0  0  0  0  0  0  0  0  0  0  0
   -5.5810   23.8220  -31.0850 C   0  0  0  0  0  0  0  0  0  0  0  0
   -5.1230   25.0920  -30.4870 C   0  0  0  0  0  0  0  0  0  0  0  0
   -3.8730   25.6690  -30.8560 N   0  0  0  0  0  0  0  0  0  0  0  0
   -5.8240   25.6540  -29.6030 O   0  0  0  0  0  0  0  0  0  0  0  0
   -4.7940   22.7550  -31.4080 N   0  0  0  0  0  0  0  0  0  0  0  0
   -3.3600   22.6820  -31.3910 C   0  0  0  0  0  0  0  0  0  0  0  0
   -2.7390   22.1530  -32.3500 O   0  0  0  0  0  0  0  0  0  0  0  0
   -2.6440   23.1710  -30.3050 O   0  0  0  0  0  0  0  0  0  0  0  0
   -5.6400   21.7910  -31.8360 C   0  0  0  0  0  0  0  0  0  0  0  0
   -5.3290   20.5150  -32.3210 C   0  0  0  0  0  0  0  0  0  0  0  0
   -4.8440   17.9980  -33.7910 C   0  0  0  0  0  0  0  0  0  0  0  0
   -4.5700   16.7130  -34.2840 C   0  0  0  0  0  0  0  0  0  0  0  0
   -3.2010   16.4010  -34.8350 C   0  0  0  0  0  0  0  0  0  0  0  0
   -3.3160   15.7460  -36.0680 O   0  0  0  0  0  0  0  0  0  0  0  0
   -6.2800   13.0737  -33.4957 H   0  0  0  0  0  0  0  0  0  0  0  0
   -7.0776   13.5085  -35.0454 H   0  0  0  0  0  0  0  0  0  0  0  0
   -5.6476   12.4215  -35.0454 H   0  0  0  0  0  0  0  0  0  0  0  0
   -7.6009   15.2529  -33.6279 H   0  0  0  0  0  0  0  0  0  0  0  0
   -8.0802   17.5445  -32.7899 H   0  0  0  0  0  0  0  0  0  0  0  0
   -8.5498   19.4949  -32.9848 H   0  0  0  0  0  0  0  0  0  0  0  0
   -9.0388   21.8124  -32.1410 H   0  0  0  0  0  0  0  0  0  0  0  0
   -7.7885   24.1875  -31.1638 H   0  0  0  0  0  0  0  0  0  0  0  0
   -2.9770   25.2990  -30.4710 H   0  0  0  0  0  0  0  0  0  0  0  0
   -4.2847   20.1738  -32.3767 H   0  0  0  0  0  0  0  0  0  0  0  0
   -4.0621   18.7709  -33.8271 H   0  0  0  0  0  0  0  0  0  0  0  0
   -2.6416   17.3382  -34.9717 H   0  0  0  0  0  0  0  0  0  0  0  0
   -2.6690   15.7472  -34.1283 H   0  0  0  0  0  0  0  0  0  0  0  0
   -3.9130   14.9660  -35.9200 H   0  0  0  0  0  0  0  0  0  0  0  0
  1  2  1  0
  2  3  1  0
  3  4  2  0
  4  5  1  0
  5  6  2  0
  6  7  1  0
  7  8  2  0
  8  9  1  0
  9 10  2  0
 10 11  1  0
 11 12  2  0
 12 13  1  0
 13 14  1  0
 13 15  2  0
 12 16  1  0
 16 17  1  0
 17 18  2  0
 17 19  1  0
 16 20  1  0
 20 21  2  0
  6 22  1  0
 22 23  2  0
 23 24  1  0
 24 25  1  0
 23  3  1  0
 21  7  1  0
 20 10  1  0
  1 26  1  0
  1 27  1  0
  1 28  1  0
  4 29  1  0
  5 30  1  0
  8 31  1  0
  9 32  1  0
 11 33  1  0
 14 34  1  0
 21 35  1  0
 22 36  1  0
 24 37  1  0
 24 38  1  0
 25 39  1  0
M  CHG  2  14  -1  19  -1
M  END
>  <UniqueID>  (78) 
77

>  <SMILES>  (78) 
COc1ccc(-c2ccc3cc(C([NH-])=O)n(C(=O)[O-])c3c2)cc1CO

>  <Energy>  (78) 
86.21252833310298

>  <Genealogy>  (78) 
COc1ccc(-c2ccc3cc(C([NH-])=O)n(C(=O)[O-])c3c2)cc1CO (protonated)
COc1ccc(-c2ccc3cc(C([NH-])=O)n(C(=O)[O-])c3c2)cc1CO (3D coordinates assigned)
COc1ccc(-c2ccc3cc(C([NH-])=O)n(C(=O)[O-])c3c2)cc1CO (optimized conformer: 86.21252833310298 kcal/mol)

>  <smiles>  (78) 
COc1ccc(-c2ccc3cc(C(N)=O)n(C(=O)O)c3c2)cc1CO

>  <score_type>  (78) 
oracle

>  <origin>  (78) 
adg

>  <m_score__min__energy>  (78) 
-10.92

>  <m_primary>  (78) 
energy

$$$$
81:0
     RDKit          3D

 35 37  0  0  0  0  0  0  0  0999 V2000
   -1.8940   25.2490  -29.3260 N   0  0  0  0  0  0  0  0  0  0  0  0
   -1.6430   23.8470  -29.3360 C   0  0  0  0  0  0  0  0  0  0  0  0
   -0.8650   23.3550  -28.4760 O   0  0  0  0  0  0  0  0  0  0  0  0
   -2.3120   22.9610  -30.3110 C   0  0  0  0  0  0  0  0  0  0  0  0
   -1.6320   22.0620  -31.1310 C   0  0  0  0  0  0  0  0  0  0  0  0
   -2.6110   21.3770  -31.8150 C   0  0  0  0  0  0  0  0  0  0  0  0
   -2.5050   20.3670  -32.7640 C   0  0  0  0  0  0  0  0  0  0  0  0
   -3.6900   19.8510  -33.3160 C   0  0  0  0  0  0  0  0  0  0  0  0
   -4.9580   20.3580  -32.9180 C   0  0  0  0  0  0  0  0  0  0  0  0
   -6.1880   19.8500  -33.4710 N   0  0  0  0  0  0  0  0  0  0  0  0
   -6.9080   18.6820  -32.9650 C   0  0  0  0  0  0  0  0  0  0  0  0
   -7.9910   19.1200  -31.9690 C   0  0  0  0  0  0  0  0  0  0  0  0
   -9.3310   19.4900  -32.5870 C   0  0  0  0  0  0  0  0  0  0  0  0
   -8.4070   20.5790  -32.0620 C   0  0  0  0  0  0  0  0  0  0  0  0
   -5.0200   21.3820  -31.9460 C   0  0  0  0  0  0  0  0  0  0  0  0
   -3.8240   21.8660  -31.4080 C   0  0  0  0  0  0  0  0  0  0  0  0
   -3.6580   22.8430  -30.4930 N   0  0  0  0  0  0  0  0  0  0  0  0
   -4.7060   23.6180  -29.8910 C   0  0  0  0  0  0  0  0  0  0  0  0
   -5.4570   23.0870  -29.0300 O   0  0  0  0  0  0  0  0  0  0  0  0
   -4.9490   25.0080  -30.3050 C   0  0  0  0  0  0  0  0  0  0  0  0
   -4.0380   25.6760  -30.8620 O   0  0  0  0  0  0  0  0  0  0  0  0
   -6.1930   25.5890  -30.0970 O   0  0  0  0  0  0  0  0  0  0  0  0
   -2.8700   25.6210  -29.3350 H   0  0  0  0  0  0  0  0  0  0  0  0
   -0.5433   21.9281  -31.2140 H   0  0  0  0  0  0  0  0  0  0  0  0
   -1.5221   19.9827  -33.0740 H   0  0  0  0  0  0  0  0  0  0  0  0
   -3.6363   19.0463  -34.0640 H   0  0  0  0  0  0  0  0  0  0  0  0
   -6.6070   20.3470  -34.2900 H   0  0  0  0  0  0  0  0  0  0  0  0
   -7.3799   18.1531  -33.8062 H   0  0  0  0  0  0  0  0  0  0  0  0
   -6.1979   18.0150  -32.4542 H   0  0  0  0  0  0  0  0  0  0  0  0
   -7.6646   18.4529  -31.1576 H   0  0  0  0  0  0  0  0  0  0  0  0
   -9.4877   19.3762  -33.6698 H   0  0  0  0  0  0  0  0  0  0  0  0
  -10.3773   19.2031  -32.4057 H   0  0  0  0  0  0  0  0  0  0  0  0
   -7.8959   21.2528  -32.7654 H   0  0  0  0  0  0  0  0  0  0  0  0
   -8.5090   21.4059  -31.3438 H   0  0  0  0  0  0  0  0  0  0  0  0
   -5.9884   21.7893  -31.6199 H   0  0  0  0  0  0  0  0  0  0  0  0
  1  2  1  0
  2  3  2  0
  2  4  1  0
  4  5  2  0
  5  6  1  0
  6  7  2  0
  7  8  1  0
  8  9  2  0
  9 10  1  0
 10 11  1  0
 11 12  1  0
 12 13  1  0
 13 14  1  0
  9 15  1  0
 15 16  2  0
 16 17  1  0
 17 18  1  0
 18 19  2  0
 18 20  1  0
 20 21  2  0
 20 22  1  0
 17  4  1  0
 16  6  1  0
 14 12  1  0
  1 23  1  0
  5 24  1  0
  7 25  1  0
  8 26  1  0
 10 27  1  0
 11 28  1  0
 11 29  1  0
 12 30  1  0
 13 31  1  0
 13 32  1  0
 14 33  1  0
 14 34  1  0
 15 35  1  0
M  CHG  2   1  -1  22  -1
M  END
>  <UniqueID>  (79) 
78

>  <SMILES>  (79) 
[NH-]C(=O)c1cc2ccc(NCC3CC3)cc2n1C(=O)C(=O)[O-]

>  <Energy>  (79) 
338.36618333714375

>  <Genealogy>  (79) 
[NH-]C(=O)c1cc2ccc(NCC3CC3)cc2n1C(=O)C(=O)[O-] (protonated)
[NH-]C(=O)c1cc2ccc(NCC3CC3)cc2n1C(=O)C(=O)[O-] (3D coordinates assigned)
[NH-]C(=O)c1cc2ccc(NCC3CC3)cc2n1C(=O)C(=O)[O-] (nonaromatic ring conformer: 338.36618333714375 kcal/mol)

>  <smiles>  (79) 
NC(=O)c1cc2ccc(NCC3CC3)cc2n1C(=O)C(=O)O

>  <score_type>  (79) 
oracle

>  <origin>  (79) 
adg

>  <m_score__min__energy>  (79) 
-11.16

>  <m_primary>  (79) 
energy

$$$$
82:0
     RDKit          3D

 38 39  0  0  0  0  0  0  0  0999 V2000
    0.2670   21.7900  -35.2990 C   0  0  0  0  0  0  0  0  0  0  0  0
   -0.2390   20.9170  -34.1840 C   0  0  0  0  0  0  0  0  0  0  0  0
    0.2360   21.1470  -32.7740 C   0  0  0  0  0  0  0  0  0  0  0  0
   -1.1000   19.9240  -34.4650 C   0  0  0  0  0  0  0  0  0  0  0  0
   -1.6010   19.1080  -33.4450 O   0  0  0  0  0  0  0  0  0  0  0  0
   -2.8650   18.5190  -33.4850 C   0  0  0  0  0  0  0  0  0  0  0  0
   -2.9850   17.3010  -33.7950 O   0  0  0  0  0  0  0  0  0  0  0  0
   -4.0300   19.3160  -33.1940 N   0  0  0  0  0  0  0  0  0  0  0  0
   -5.3250   19.0250  -33.5130 C   0  0  0  0  0  0  0  0  0  0  0  0
   -5.7680   17.9990  -34.4710 C   0  0  0  0  0  0  0  0  0  0  0  0
   -5.0530   17.7860  -35.6810 N   0  0  0  0  0  0  0  0  0  0  0  0
   -6.8280   17.3530  -34.2480 O   0  0  0  0  0  0  0  0  0  0  0  0
   -6.1900   19.9540  -32.9330 C   0  0  0  0  0  0  0  0  0  0  0  0
   -5.3850   20.8490  -32.2680 C   0  0  0  0  0  0  0  0  0  0  0  0
   -5.7300   21.9690  -31.5190 C   0  0  0  0  0  0  0  0  0  0  0  0
   -4.6980   22.7010  -30.9270 C   0  0  0  0  0  0  0  0  0  0  0  0
   -3.3470   22.3140  -31.0930 C   0  0  0  0  0  0  0  0  0  0  0  0
   -2.2460   23.0970  -30.4260 C   0  0  0  0  0  0  0  0  0  0  0  0
   -2.9020   24.6370  -29.7120 P   0  0  0  0  0  0  0  0  0  0  0  0
   -3.7140   24.3000  -28.4810 O   0  0  0  0  0  0  0  0  0  0  0  0
   -1.6230   25.6610  -29.2820 O   0  0  0  0  0  0  0  0  0  0  0  0
   -3.8920   25.4160  -30.8420 O   0  0  0  0  0  0  0  0  0  0  0  0
   -3.0350   21.1620  -31.8470 C   0  0  0  0  0  0  0  0  0  0  0  0
   -4.0840   20.4490  -32.4390 C   0  0  0  0  0  0  0  0  0  0  0  0
    0.7760   22.6681  -34.8750 H   0  0  0  0  0  0  0  0  0  0  0  0
    0.9746   21.2198  -35.9188 H   0  0  0  0  0  0  0  0  0  0  0  0
   -0.5795   22.1206  -35.9188 H   0  0  0  0  0  0  0  0  0  0  0  0
   -0.5225   20.7797  -32.0671 H   0  0  0  0  0  0  0  0  0  0  0  0
    1.1802   20.6063  -32.6124 H   0  0  0  0  0  0  0  0  0  0  0  0
    0.3974   22.2230  -32.6124 H   0  0  0  0  0  0  0  0  0  0  0  0
   -1.4133   19.7515  -35.5052 H   0  0  0  0  0  0  0  0  0  0  0  0
   -4.0310   17.6110  -35.6770 H   0  0  0  0  0  0  0  0  0  0  0  0
   -7.2882   19.9676  -32.9949 H   0  0  0  0  0  0  0  0  0  0  0  0
   -6.7813   22.2686  -31.3968 H   0  0  0  0  0  0  0  0  0  0  0  0
   -4.9385   23.5892  -30.3243 H   0  0  0  0  0  0  0  0  0  0  0  0
   -1.8019   22.4872  -29.6254 H   0  0  0  0  0  0  0  0  0  0  0  0
   -1.4835   23.3497  -31.1774 H   0  0  0  0  0  0  0  0  0  0  0  0
   -1.9923   20.8325  -31.9664 H   0  0  0  0  0  0  0  0  0  0  0  0
  1  2  1  0
  2  3  1  0
  2  4  2  3
  4  5  1  0
  5  6  1  0
  6  7  2  0
  6  8  1  0
  8  9  1  0
  9 10  1  0
 10 11  1  0
 10 12  2  0
  9 13  2  0
 13 14  1  0
 14 15  2  0
 15 16  1  0
 16 17  2  0
 17 18  1  0
 18 19  1  0
 19 20  2  0
 19 21  1  0
 19 22  1  0
 17 23  1  0
 23 24  2  0
 24  8  1  0
 24 14  1  0
  1 25  1  0
  1 26  1  0
  1 27  1  0
  3 28  1  0
  3 29  1  0
  3 30  1  0
  4 31  1  0
 11 32  1  0
 13 33  1  0
 15 34  1  0
 16 35  1  0
 18 36  1  0
 18 37  1  0
 23 38  1  0
M  CHG  3  11  -1  21  -1  22  -1
M  END
>  <UniqueID>  (80) 
79

>  <SMILES>  (80) 
CC(C)=COC(=O)n1c(C([NH-])=O)cc2ccc(CP(=O)([O-])[O-])cc21

>  <Energy>  (80) 
67.9640189062165

>  <Genealogy>  (80) 
CC(C)=COC(=O)n1c(C([NH-])=O)cc2ccc(CP(=O)([O-])[O-])cc21 (protonated)
CC(C)=COC(=O)n1c(C([NH-])=O)cc2ccc(CP(=O)([O-])[O-])cc21 (3D coordinates assigned)
CC(C)=COC(=O)n1c(C([NH-])=O)cc2ccc(CP(=O)([O-])[O-])cc21 (optimized conformer: 67.9640189062165 kcal/mol)

>  <smiles>  (80) 
CC(C)=COC(=O)n1c(C(N)=O)cc2ccc(CP(=O)(O)O)cc21

>  <score_type>  (80) 
oracle

>  <origin>  (80) 
adg

>  <m_score__min__energy>  (80) 
-11.359999999999999

>  <m_primary>  (80) 
energy

$$$$
83:0
     RDKit          3D

 43 44  0  0  0  0  0  0  0  0999 V2000
   -7.1160   17.0670  -32.7630 C   0  0  0  0  0  0  0  0  0  0  0  0
   -6.4810   18.2590  -33.3360 N   0  0  0  0  0  0  0  0  0  0  0  0
   -5.5540   18.1050  -34.4740 C   0  0  0  0  0  0  0  0  0  0  0  0
   -4.1920   18.7600  -34.1920 C   0  0  0  0  0  0  0  0  0  0  0  0
   -3.4050   18.0370  -33.0960 C   0  0  0  0  0  0  0  0  0  0  0  0
   -2.5300   18.9280  -32.4610 O   0  0  0  0  0  0  0  0  0  0  0  0
   -6.7870   19.5660  -32.7890 C   0  0  0  0  0  0  0  0  0  0  0  0
   -8.1280   20.0360  -32.7580 C   0  0  0  0  0  0  0  0  0  0  0  0
   -8.4400   21.3010  -32.2310 C   0  0  0  0  0  0  0  0  0  0  0  0
   -7.3950   22.0830  -31.7540 C   0  0  0  0  0  0  0  0  0  0  0  0
   -7.4150   23.3350  -31.1800 C   0  0  0  0  0  0  0  0  0  0  0  0
   -6.0830   23.6290  -30.8870 C   0  0  0  0  0  0  0  0  0  0  0  0
   -5.6190   24.9150  -30.3160 C   0  0  0  0  0  0  0  0  0  0  0  0
   -5.9660   25.2920  -28.9820 N   0  0  0  0  0  0  0  0  0  0  0  0
   -4.9250   25.7010  -31.0130 O   0  0  0  0  0  0  0  0  0  0  0  0
   -5.2750   22.6010  -31.2720 N   0  0  0  0  0  0  0  0  0  0  0  0
   -3.8490   22.5050  -31.1160 C   0  0  0  0  0  0  0  0  0  0  0  0
   -3.2450   21.4840  -31.5440 O   0  0  0  0  0  0  0  0  0  0  0  0
   -3.1050   23.5900  -30.4490 C   0  0  0  0  0  0  0  0  0  0  0  0
   -1.8780   23.4140  -29.9460 C   0  0  0  0  0  0  0  0  0  0  0  0
   -1.1400   24.5070  -29.2940 C   0  0  0  0  0  0  0  0  0  0  0  0
   -1.6110   25.6730  -29.3140 O   0  0  0  0  0  0  0  0  0  0  0  0
    0.0700   24.2700  -28.6510 O   0  0  0  0  0  0  0  0  0  0  0  0
   -6.0930   21.6610  -31.7930 C   0  0  0  0  0  0  0  0  0  0  0  0
   -5.7570   20.3950  -32.2810 C   0  0  0  0  0  0  0  0  0  0  0  0
   -7.0843   17.1266  -31.6651 H   0  0  0  0  0  0  0  0  0  0  0  0
   -8.1626   17.0126  -33.0972 H   0  0  0  0  0  0  0  0  0  0  0  0
   -6.5772   16.1681  -33.0972 H   0  0  0  0  0  0  0  0  0  0  0  0
   -5.4008   17.0328  -34.6661 H   0  0  0  0  0  0  0  0  0  0  0  0
   -5.9991   18.6030  -35.3480 H   0  0  0  0  0  0  0  0  0  0  0  0
   -3.5977   18.7490  -35.1176 H   0  0  0  0  0  0  0  0  0  0  0  0
   -4.3822   19.7857  -33.8432 H   0  0  0  0  0  0  0  0  0  0  0  0
   -4.1069   17.6269  -32.3550 H   0  0  0  0  0  0  0  0  0  0  0  0
   -2.8211   17.2232  -33.5507 H   0  0  0  0  0  0  0  0  0  0  0  0
   -3.0610   19.7450  -32.2710 H   0  0  0  0  0  0  0  0  0  0  0  0
   -8.9340   19.3999  -33.1525 H   0  0  0  0  0  0  0  0  0  0  0  0
   -9.4789   21.6608  -32.1972 H   0  0  0  0  0  0  0  0  0  0  0  0
   -8.2945   23.9685  -30.9924 H   0  0  0  0  0  0  0  0  0  0  0  0
   -5.6620   26.2180  -28.6060 H   0  0  0  0  0  0  0  0  0  0  0  0
   -6.4850   24.6450  -28.3490 H   0  0  0  0  0  0  0  0  0  0  0  0
   -3.5763   24.5801  -30.3620 H   0  0  0  0  0  0  0  0  0  0  0  0
   -1.4070   22.4229  -30.0221 H   0  0  0  0  0  0  0  0  0  0  0  0
   -4.7128   20.0492  -32.2707 H   0  0  0  0  0  0  0  0  0  0  0  0
  1  2  1  0
  2  3  1  0
  3  4  1  0
  4  5  1  0
  5  6  1  0
  2  7  1  0
  7  8  2  0
  8  9  1  0
  9 10  2  0
 10 11  1  0
 11 12  2  0
 12 13  1  0
 13 14  1  0
 13 15  2  0
 12 16  1  0
 16 17  1  0
 17 18  2  0
 17 19  1  0
 19 20  2  3
 20 21  1  0
 21 22  2  0
 21 23  1  0
 16 24  1  0
 24 25  2  0
 25  7  1  0
 24 10  1  0
  1 26  1  0
  1 27  1  0
  1 28  1  0
  3 29  1  0
  3 30  1  0
  4 31  1  0
  4 32  1  0
  5 33  1  0
  5 34  1  0
  6 35  1  0
  8 36  1  0
  9 37  1  0
 11 38  1  0
 14 39  1  0
 14 40  1  0
 19 41  1  0
 20 42  1  0
 25 43  1  0
M  CHG  1  23  -1
M  END
>  <UniqueID>  (81) 
80

>  <SMILES>  (81) 
CN(CCCO)c1ccc2cc(C(N)=O)n(C(=O)C=CC(=O)[O-])c2c1

>  <Energy>  (81) 
77.27892888839546

>  <Genealogy>  (81) 
CN(CCCO)c1ccc2cc(C(N)=O)n(C(=O)C=CC(=O)[O-])c2c1 (protonated)
CN(CCCO)c1ccc2cc(C(N)=O)n(C(=O)C=CC(=O)[O-])c2c1 (3D coordinates assigned)
CN(CCCO)c1ccc2cc(C(N)=O)n(C(=O)C=CC(=O)[O-])c2c1 (optimized conformer: 77.27892888839546 kcal/mol)

>  <smiles>  (81) 
CN(CCCO)c1ccc2cc(C(N)=O)n(C(=O)C=CC(=O)O)c2c1

>  <score_type>  (81) 
oracle

>  <origin>  (81) 
adg

>  <m_score__min__energy>  (81) 
-10.029999999999999

>  <m_primary>  (81) 
energy

$$$$
84:0
     RDKit          3D

 40 41  0  0  0  0  0  0  0  0999 V2000
   -8.0150   18.5570  -32.5030 C   0  0  0  0  0  0  0  0  0  0  0  0
   -7.8680   19.9670  -32.0140 C   0  0  0  0  0  0  0  0  0  0  0  0
   -9.0070   20.7090  -31.6120 C   0  0  0  0  0  0  0  0  0  0  0  0
   -8.8770   22.0340  -31.1640 C   0  0  0  0  0  0  0  0  0  0  0  0
   -7.6030   22.5920  -31.1440 C   0  0  0  0  0  0  0  0  0  0  0  0
   -7.1940   23.8320  -30.7130 C   0  0  0  0  0  0  0  0  0  0  0  0
   -5.8150   23.8420  -30.8870 C   0  0  0  0  0  0  0  0  0  0  0  0
   -4.9660   25.0090  -30.5780 C   0  0  0  0  0  0  0  0  0  0  0  0
   -3.6500   24.8440  -30.0510 N   0  0  0  0  0  0  0  0  0  0  0  0
   -5.3930   26.1710  -30.8220 O   0  0  0  0  0  0  0  0  0  0  0  0
   -5.3800   22.6550  -31.3960 N   0  0  0  0  0  0  0  0  0  0  0  0
   -4.0160   22.2250  -31.5400 C   0  0  0  0  0  0  0  0  0  0  0  0
   -3.3530   22.5450  -32.5630 O   0  0  0  0  0  0  0  0  0  0  0  0
   -3.4310   21.4360  -30.5450 O   0  0  0  0  0  0  0  0  0  0  0  0
   -2.0400   21.4700  -30.2420 C   0  0  0  0  0  0  0  0  0  0  0  0
   -1.7650   22.5140  -29.3140 O   0  0  0  0  0  0  0  0  0  0  0  0
   -2.5840   22.7800  -28.2100 C   0  0  0  0  0  0  0  0  0  0  0  0
   -3.8340   22.6260  -28.2810 O   0  0  0  0  0  0  0  0  0  0  0  0
   -1.9590   23.2080  -26.9160 C   0  0  0  0  0  0  0  0  0  0  0  0
   -1.7450   24.7260  -26.8690 C   0  0  0  0  0  0  0  0  0  0  0  0
   -0.9580   25.2280  -28.0420 C   0  0  0  0  0  0  0  0  0  0  0  0
    0.2630   24.9390  -28.1630 O   0  0  0  0  0  0  0  0  0  0  0  0
   -1.5590   26.0660  -28.9740 O   0  0  0  0  0  0  0  0  0  0  0  0
   -6.4920   21.9000  -31.5540 C   0  0  0  0  0  0  0  0  0  0  0  0
   -6.5930   20.5720  -31.9940 C   0  0  0  0  0  0  0  0  0  0  0  0
   -8.0860   17.8759  -31.6422 H   0  0  0  0  0  0  0  0  0  0  0  0
   -8.9267   18.4736  -33.1128 H   0  0  0  0  0  0  0  0  0  0  0  0
   -7.1401   18.2873  -33.1128 H   0  0  0  0  0  0  0  0  0  0  0  0
  -10.0025   20.2426  -31.6513 H   0  0  0  0  0  0  0  0  0  0  0  0
   -9.7548   22.6120  -30.8393 H   0  0  0  0  0  0  0  0  0  0  0  0
   -7.8231   24.6422  -30.3158 H   0  0  0  0  0  0  0  0  0  0  0  0
   -3.1000   25.6750  -29.7420 H   0  0  0  0  0  0  0  0  0  0  0  0
   -3.2140   23.8960  -29.9820 H   0  0  0  0  0  0  0  0  0  0  0  0
   -1.7396   20.5064  -29.8046 H   0  0  0  0  0  0  0  0  0  0  0  0
   -1.4751   21.6542  -31.1677 H   0  0  0  0  0  0  0  0  0  0  0  0
   -2.6188   22.9144  -26.0862 H   0  0  0  0  0  0  0  0  0  0  0  0
   -0.9777   22.7187  -26.8287 H   0  0  0  0  0  0  0  0  0  0  0  0
   -2.7271   25.2214  -26.8643 H   0  0  0  0  0  0  0  0  0  0  0  0
   -1.1734   24.9564  -25.9578 H   0  0  0  0  0  0  0  0  0  0  0  0
   -5.7003   20.0156  -32.3156 H   0  0  0  0  0  0  0  0  0  0  0  0
  1  2  1  0
  2  3  2  0
  3  4  1  0
  4  5  2  0
  5  6  1  0
  6  7  2  0
  7  8  1  0
  8  9  1  0
  8 10  2  0
  7 11  1  0
 11 12  1  0
 12 13  2  0
 12 14  1  0
 14 15  1  0
 15 16  1  0
 16 17  1  0
 17 18  2  0
 17 19  1  0
 19 20  1  0
 20 21  1  0
 21 22  2  0
 21 23  1  0
 11 24  1  0
 24 25  2  0
 25  2  1  0
 24  5  1  0
  1 26  1  0
  1 27  1  0
  1 28  1  0
  3 29  1  0
  4 30  1  0
  6 31  1  0
  9 32  1  0
  9 33  1  0
 15 34  1  0
 15 35  1  0
 19 36  1  0
 19 37  1  0
 20 38  1  0
 20 39  1  0
 25 40  1  0
M  CHG  1  23  -1
M  END
>  <UniqueID>  (82) 
81

>  <SMILES>  (82) 
Cc1ccc2cc(C(N)=O)n(C(=O)OCOC(=O)CCC(=O)[O-])c2c1

>  <Energy>  (82) 
70.41957053405896

>  <Genealogy>  (82) 
Cc1ccc2cc(C(N)=O)n(C(=O)OCOC(=O)CCC(=O)[O-])c2c1 (protonated)
Cc1ccc2cc(C(N)=O)n(C(=O)OCOC(=O)CCC(=O)[O-])c2c1 (3D coordinates assigned)
Cc1ccc2cc(C(N)=O)n(C(=O)OCOC(=O)CCC(=O)[O-])c2c1 (optimized conformer: 70.41957053405896 kcal/mol)

>  <smiles>  (82) 
Cc1ccc2cc(C(N)=O)n(C(=O)OCOC(=O)CCC(=O)O)c2c1

>  <score_type>  (82) 
oracle

>  <origin>  (82) 
adg

>  <m_score__min__energy>  (82) 
-10.640000000000001

>  <m_primary>  (82) 
energy

$$$$
85:0
     RDKit          3D

 34 35  0  0  0  0  0  0  0  0999 V2000
   -3.9420   25.6660  -30.8590 N   0  0  0  0  0  0  0  0  0  0  0  0
   -5.2410   25.2180  -30.4830 C   0  0  0  0  0  0  0  0  0  0  0  0
   -5.9050   25.8850  -29.6450 O   0  0  0  0  0  0  0  0  0  0  0  0
   -5.7950   23.9560  -31.0160 C   0  0  0  0  0  0  0  0  0  0  0  0
   -7.1610   23.7090  -31.1380 C   0  0  0  0  0  0  0  0  0  0  0  0
   -7.2590   22.4080  -31.5760 C   0  0  0  0  0  0  0  0  0  0  0  0
   -8.3850   21.6500  -31.8810 C   0  0  0  0  0  0  0  0  0  0  0  0
   -8.1900   20.3390  -32.3480 C   0  0  0  0  0  0  0  0  0  0  0  0
   -6.8820   19.8140  -32.5010 C   0  0  0  0  0  0  0  0  0  0  0  0
   -6.6850   18.4280  -33.0450 C   0  0  0  0  0  0  0  0  0  0  0  0
   -5.6790   18.4480  -34.1500 C   0  0  0  0  0  0  0  0  0  0  0  0
   -6.0520   18.5990  -35.3440 O   0  0  0  0  0  0  0  0  0  0  0  0
   -4.3240   18.3510  -33.8590 O   0  0  0  0  0  0  0  0  0  0  0  0
   -5.7620   20.6190  -32.1930 C   0  0  0  0  0  0  0  0  0  0  0  0
   -5.9870   21.9140  -31.7120 C   0  0  0  0  0  0  0  0  0  0  0  0
   -5.0770   22.8530  -31.3770 N   0  0  0  0  0  0  0  0  0  0  0  0
   -3.6500   22.7230  -31.4690 C   0  0  0  0  0  0  0  0  0  0  0  0
   -3.1370   22.0960  -32.4360 O   0  0  0  0  0  0  0  0  0  0  0  0
   -2.8380   23.2660  -30.4660 O   0  0  0  0  0  0  0  0  0  0  0  0
   -3.1250   23.1600  -29.0720 C   0  0  0  0  0  0  0  0  0  0  0  0
   -2.5590   24.3550  -28.3090 C   0  0  0  0  0  0  0  0  0  0  0  0
   -1.9380   25.2450  -29.1930 O   0  0  0  0  0  0  0  0  0  0  0  0
   -3.0880   25.2970  -30.3840 H   0  0  0  0  0  0  0  0  0  0  0  0
   -7.9859   24.4060  -30.9287 H   0  0  0  0  0  0  0  0  0  0  0  0
   -9.3969   22.0641  -31.7603 H   0  0  0  0  0  0  0  0  0  0  0  0
   -9.0604   19.7143  -32.5972 H   0  0  0  0  0  0  0  0  0  0  0  0
   -6.3282   17.7686  -32.2401 H   0  0  0  0  0  0  0  0  0  0  0  0
   -7.6429   18.0557  -33.4370 H   0  0  0  0  0  0  0  0  0  0  0  0
   -4.7392   20.2374  -32.3279 H   0  0  0  0  0  0  0  0  0  0  0  0
   -4.2152   23.1251  -28.9300 H   0  0  0  0  0  0  0  0  0  0  0  0
   -2.6586   22.2420  -28.6851 H   0  0  0  0  0  0  0  0  0  0  0  0
   -3.3771   24.8731  -27.7873 H   0  0  0  0  0  0  0  0  0  0  0  0
   -1.8162   23.9961  -27.5814 H   0  0  0  0  0  0  0  0  0  0  0  0
   -2.0110   24.8350  -30.0940 H   0  0  0  0  0  0  0  0  0  0  0  0
  1  2  1  0
  2  3  2  0
  2  4  1  0
  4  5  2  0
  5  6  1  0
  6  7  2  0
  7  8  1  0
  8  9  2  0
  9 10  1  0
 10 11  1  0
 11 12  2  0
 11 13  1  0
  9 14  1  0
 14 15  2  0
 15 16  1  0
 16 17  1  0
 17 18  2  0
 17 19  1  0
 19 20  1  0
 20 21  1  0
 21 22  1  0
 16  4  1  0
 15  6  1  0
  1 23  1  0
  5 24  1  0
  7 25  1  0
  8 26  1  0
 10 27  1  0
 10 28  1  0
 14 29  1  0
 20 30  1  0
 20 31  1  0
 21 32  1  0
 21 33  1  0
 22 34  1  0
M  CHG  2   1  -1  13  -1
M  END
>  <UniqueID>  (83) 
82

>  <SMILES>  (83) 
[NH-]C(=O)c1cc2ccc(CC(=O)[O-])cc2n1C(=O)OCCO

>  <Energy>  (83) 
68.28058057384104

>  <Genealogy>  (83) 
[NH-]C(=O)c1cc2ccc(CC(=O)[O-])cc2n1C(=O)OCCO (protonated)
[NH-]C(=O)c1cc2ccc(CC(=O)[O-])cc2n1C(=O)OCCO (3D coordinates assigned)
[NH-]C(=O)c1cc2ccc(CC(=O)[O-])cc2n1C(=O)OCCO (optimized conformer: 68.28058057384104 kcal/mol)

>  <smiles>  (83) 
NC(=O)c1cc2ccc(CC(=O)O)cc2n1C(=O)OCCO

>  <score_type>  (83) 
oracle

>  <origin>  (83) 
adg

>  <m_score__min__energy>  (83) 
-9.9499999999999993

>  <m_primary>  (83) 
energy

$$$$
86:0
     RDKit          3D

 57 60  0  0  0  0  0  0  0  0999 V2000
   -1.3370   25.4660  -27.6010 C   0  0  0  0  0  0  0  0  0  0  0  0
   -1.3610   25.1730  -28.9810 O   0  0  0  0  0  0  0  0  0  0  0  0
   -2.5350   24.4490  -29.3010 C   0  0  0  0  0  0  0  0  0  0  0  0
   -3.4930   25.2830  -29.9280 O   0  0  0  0  0  0  0  0  0  0  0  0
   -4.5440   24.5240  -30.5010 C   0  0  0  0  0  0  0  0  0  0  0  0
   -5.8530   25.3240  -30.4310 C   0  0  0  0  0  0  0  0  0  0  0  0
   -6.9850   24.5470  -31.1160 C   0  0  0  0  0  0  0  0  0  0  0  0
   -6.9100   23.1120  -30.8170 N   0  0  0  0  0  0  0  0  0  0  0  0
   -7.8180   22.2160  -31.4780 C   0  0  0  0  0  0  0  0  0  0  0  0
   -9.0290   22.5470  -31.6040 O   0  0  0  0  0  0  0  0  0  0  0  0
   -7.3510   20.9280  -32.0420 C   0  0  0  0  0  0  0  0  0  0  0  0
   -6.0840   20.8310  -32.6380 C   0  0  0  0  0  0  0  0  0  0  0  0
   -5.6270   19.6070  -33.1360 C   0  0  0  0  0  0  0  0  0  0  0  0
   -6.4240   18.4520  -33.0380 C   0  0  0  0  0  0  0  0  0  0  0  0
   -5.9280   17.1490  -33.5470 C   0  0  0  0  0  0  0  0  0  0  0  0
   -6.8270   16.0680  -33.7410 C   0  0  0  0  0  0  0  0  0  0  0  0
   -6.3710   14.8340  -34.2280 C   0  0  0  0  0  0  0  0  0  0  0  0
   -5.0150   14.7030  -34.5120 C   0  0  0  0  0  0  0  0  0  0  0  0
   -4.3200   13.6260  -35.0060 C   0  0  0  0  0  0  0  0  0  0  0  0
   -3.0040   14.0600  -35.1130 C   0  0  0  0  0  0  0  0  0  0  0  0
   -1.9120   13.1980  -35.5890 C   0  0  0  0  0  0  0  0  0  0  0  0
   -0.5580   13.6460  -35.5410 N   0  0  0  0  0  0  0  0  0  0  0  0
   -2.1820   12.0800  -36.1030 O   0  0  0  0  0  0  0  0  0  0  0  0
   -2.8740   15.3450  -34.6770 N   0  0  0  0  0  0  0  0  0  0  0  0
   -1.6480   16.0830  -34.4950 C   0  0  0  0  0  0  0  0  0  0  0  0
   -1.1310   16.1920  -33.3530 O   0  0  0  0  0  0  0  0  0  0  0  0
   -0.9910   16.6510  -35.5790 O   0  0  0  0  0  0  0  0  0  0  0  0
   -4.1250   15.7290  -34.3200 C   0  0  0  0  0  0  0  0  0  0  0  0
   -4.5560   16.9760  -33.8450 C   0  0  0  0  0  0  0  0  0  0  0  0
   -7.6910   18.5510  -32.4390 C   0  0  0  0  0  0  0  0  0  0  0  0
   -8.1490   19.7750  -31.9440 C   0  0  0  0  0  0  0  0  0  0  0  0
   -6.1110   22.6390  -29.6780 C   0  0  0  0  0  0  0  0  0  0  0  0
   -4.6730   23.1920  -29.7280 C   0  0  0  0  0  0  0  0  0  0  0  0
   -1.4136   24.5312  -27.0263 H   0  0  0  0  0  0  0  0  0  0  0  0
   -0.3942   25.9743  -27.3504 H   0  0  0  0  0  0  0  0  0  0  0  0
   -2.1845   26.1209  -27.3504 H   0  0  0  0  0  0  0  0  0  0  0  0
   -2.2748   23.6254  -29.9822 H   0  0  0  0  0  0  0  0  0  0  0  0
   -2.9690   24.0573  -28.3692 H   0  0  0  0  0  0  0  0  0  0  0  0
   -4.3278   24.3076  -31.5576 H   0  0  0  0  0  0  0  0  0  0  0  0
   -6.1170   25.4977  -29.3774 H   0  0  0  0  0  0  0  0  0  0  0  0
   -5.7143   26.2859  -30.9463 H   0  0  0  0  0  0  0  0  0  0  0  0
   -7.9510   24.9360  -30.7616 H   0  0  0  0  0  0  0  0  0  0  0  0
   -6.8851   24.6786  -32.2035 H   0  0  0  0  0  0  0  0  0  0  0  0
   -5.4462   21.7240  -32.7138 H   0  0  0  0  0  0  0  0  0  0  0  0
   -4.6355   19.5467  -33.6086 H   0  0  0  0  0  0  0  0  0  0  0  0
   -7.8937   16.1993  -33.5068 H   0  0  0  0  0  0  0  0  0  0  0  0
   -7.0650   13.9944  -34.3809 H   0  0  0  0  0  0  0  0  0  0  0  0
   -4.7192   12.6334  -35.2619 H   0  0  0  0  0  0  0  0  0  0  0  0
    0.2140   13.0230  -35.8650 H   0  0  0  0  0  0  0  0  0  0  0  0
   -0.3280   14.6090  -35.2070 H   0  0  0  0  0  0  0  0  0  0  0  0
   -3.8426   17.8019  -33.7071 H   0  0  0  0  0  0  0  0  0  0  0  0
   -8.3278   17.6576  -32.3590 H   0  0  0  0  0  0  0  0  0  0  0  0
   -9.1417   19.8366  -31.4741 H   0  0  0  0  0  0  0  0  0  0  0  0
   -6.5889   22.9700  -28.7442 H   0  0  0  0  0  0  0  0  0  0  0  0
   -6.0603   21.5411  -29.7243 H   0  0  0  0  0  0  0  0  0  0  0  0
   -4.3279   23.3548  -28.6963 H   0  0  0  0  0  0  0  0  0  0  0  0
   -4.0627   22.4501  -30.2637 H   0  0  0  0  0  0  0  0  0  0  0  0
  1  2  1  0
  2  3  1  0
  3  4  1  0
  4  5  1  0
  5  6  1  0
  6  7  1  0
  7  8  1  0
  8  9  1  0
  9 10  2  0
  9 11  1  0
 11 12  2  0
 12 13  1  0
 13 14  2  0
 14 15  1  0
 15 16  2  0
 16 17  1  0
 17 18  2  0
 18 19  1  0
 19 20  2  0
 20 21  1  0
 21 22  1  0
 21 23  2  0
 20 24  1  0
 24 25  1  0
 25 26  2  0
 25 27  1  0
 24 28  1  0
 28 29  2  0
 14 30  1  0
 30 31  2  0
  8 32  1  0
 32 33  1  0
 33  5  1  0
 31 11  1  0
 29 15  1  0
 28 18  1  0
  1 34  1  0
  1 35  1  0
  1 36  1  0
  3 37  1  0
  3 38  1  0
  5 39  1  0
  6 40  1  0
  6 41  1  0
  7 42  1  0
  7 43  1  0
 12 44  1  0
 13 45  1  0
 16 46  1  0
 17 47  1  0
 19 48  1  0
 22 49  1  0
 22 50  1  0
 29 51  1  0
 30 52  1  0
 31 53  1  0
 32 54  1  0
 32 55  1  0
 33 56  1  0
 33 57  1  0
M  CHG  1  27  -1
M  END
>  <UniqueID>  (84) 
83

>  <SMILES>  (84) 
COCOC1CCN(C(=O)c2ccc(-c3ccc4cc(C(N)=O)n(C(=O)[O-])c4c3)cc2)CC1

>  <Energy>  (84) 
119.30587071155777

>  <Genealogy>  (84) 
COCOC1CCN(C(=O)c2ccc(-c3ccc4cc(C(N)=O)n(C(=O)[O-])c4c3)cc2)CC1 (protonated)
COCOC1CCN(C(=O)c2ccc(-c3ccc4cc(C(N)=O)n(C(=O)[O-])c4c3)cc2)CC1 (3D coordinates assigned)
COCOC1CCN(C(=O)c2ccc(-c3ccc4cc(C(N)=O)n(C(=O)[O-])c4c3)cc2)CC1 (nonaromatic ring conformer: 119.30587071155777 kcal/mol)

>  <smiles>  (84) 
COCOC1CCN(C(=O)c2ccc(-c3ccc4cc(C(N)=O)n(C(=O)O)c4c3)cc2)CC1

>  <score_type>  (84) 
oracle

>  <origin>  (84) 
adg

>  <m_score__min__energy>  (84) 
-9.8399999999999999

>  <m_primary>  (84) 
energy

$$$$
87:0
     RDKit          3D

 36 37  0  0  0  0  0  0  0  0999 V2000
   -6.9220   16.7690  -33.4710 C   0  0  0  0  0  0  0  0  0  0  0  0
   -7.0890   17.8980  -33.0830 C   0  0  0  0  0  0  0  0  0  0  0  0
   -7.2860   19.2460  -32.6180 C   0  0  0  0  0  0  0  0  0  0  0  0
   -8.5910   19.7860  -32.5520 C   0  0  0  0  0  0  0  0  0  0  0  0
   -8.7950   21.1050  -32.1100 C   0  0  0  0  0  0  0  0  0  0  0  0
   -7.6770   21.8460  -31.7360 C   0  0  0  0  0  0  0  0  0  0  0  0
   -7.5870   23.1440  -31.2880 C   0  0  0  0  0  0  0  0  0  0  0  0
   -6.2300   23.3650  -31.0640 C   0  0  0  0  0  0  0  0  0  0  0  0
   -5.6850   24.6100  -30.4770 C   0  0  0  0  0  0  0  0  0  0  0  0
   -5.4200   24.7020  -29.0770 N   0  0  0  0  0  0  0  0  0  0  0  0
   -5.4180   25.5940  -31.2170 O   0  0  0  0  0  0  0  0  0  0  0  0
   -5.5070   22.2480  -31.3650 N   0  0  0  0  0  0  0  0  0  0  0  0
   -4.0810   22.0800  -31.3040 C   0  0  0  0  0  0  0  0  0  0  0  0
   -3.3700   22.3890  -32.2990 O   0  0  0  0  0  0  0  0  0  0  0  0
   -3.4980   21.5550  -30.1440 O   0  0  0  0  0  0  0  0  0  0  0  0
   -3.2240   22.2800  -28.9760 C   0  0  0  0  0  0  0  0  0  0  0  0
   -4.1120   22.4380  -28.0930 O   0  0  0  0  0  0  0  0  0  0  0  0
   -1.8690   22.8500  -28.7840 C   0  0  0  0  0  0  0  0  0  0  0  0
   -0.7920   22.2450  -29.2980 C   0  0  0  0  0  0  0  0  0  0  0  0
   -1.7120   24.1550  -28.0440 C   0  0  0  0  0  0  0  0  0  0  0  0
   -2.0510   25.3050  -28.9380 C   0  0  0  0  0  0  0  0  0  0  0  0
   -3.0610   25.2480  -29.6890 O   0  0  0  0  0  0  0  0  0  0  0  0
   -1.2310   26.4260  -28.9710 O   0  0  0  0  0  0  0  0  0  0  0  0
   -6.4080   21.3280  -31.7750 C   0  0  0  0  0  0  0  0  0  0  0  0
   -6.1760   20.0240  -32.2330 C   0  0  0  0  0  0  0  0  0  0  0  0
   -6.7696   15.7387  -33.8251 H   0  0  0  0  0  0  0  0  0  0  0  0
   -9.4527   19.1699  -32.8485 H   0  0  0  0  0  0  0  0  0  0  0  0
   -9.8052   21.5376  -32.0612 H   0  0  0  0  0  0  0  0  0  0  0  0
   -8.4119   23.8562  -31.1384 H   0  0  0  0  0  0  0  0  0  0  0  0
   -4.9990   25.5700  -28.6790 H   0  0  0  0  0  0  0  0  0  0  0  0
   -5.6770   23.9290  -28.4240 H   0  0  0  0  0  0  0  0  0  0  0  0
    0.2072   22.6796  -29.1474 H   0  0  0  0  0  0  0  0  0  0  0  0
   -0.9058   21.3130  -29.8711 H   0  0  0  0  0  0  0  0  0  0  0  0
   -2.3850   24.1616  -27.1739 H   0  0  0  0  0  0  0  0  0  0  0  0
   -0.6673   24.2550  -27.7144 H   0  0  0  0  0  0  0  0  0  0  0  0
   -5.1550   19.6188  -32.2904 H   0  0  0  0  0  0  0  0  0  0  0  0
  1  2  3  0
  2  3  1  0
  3  4  2  0
  4  5  1  0
  5  6  2  0
  6  7  1  0
  7  8  2  0
  8  9  1  0
  9 10  1  0
  9 11  2  0
  8 12  1  0
 12 13  1  0
 13 14  2  0
 13 15  1  0
 15 16  1  0
 16 17  2  0
 16 18  1  0
 18 19  2  0
 18 20  1  0
 20 21  1  0
 21 22  2  0
 21 23  1  0
 12 24  1  0
 24 25  2  0
 25  3  1  0
 24  6  1  0
  1 26  1  0
  4 27  1  0
  5 28  1  0
  7 29  1  0
 10 30  1  0
 10 31  1  0
 19 32  1  0
 19 33  1  0
 20 34  1  0
 20 35  1  0
 25 36  1  0
M  CHG  1  23  -1
M  END
>  <UniqueID>  (85) 
84

>  <SMILES>  (85) 
C#Cc1ccc2cc(C(N)=O)n(C(=O)OC(=O)C(=C)CC(=O)[O-])c2c1

>  <Energy>  (85) 
70.82076694654134

>  <Genealogy>  (85) 
C#Cc1ccc2cc(C(N)=O)n(C(=O)OC(=O)C(=C)CC(=O)[O-])c2c1 (protonated)
C#Cc1ccc2cc(C(N)=O)n(C(=O)OC(=O)C(=C)CC(=O)[O-])c2c1 (3D coordinates assigned)
C#Cc1ccc2cc(C(N)=O)n(C(=O)OC(=O)C(=C)CC(=O)[O-])c2c1 (optimized conformer: 70.82076694654134 kcal/mol)

>  <smiles>  (85) 
C#Cc1ccc2cc(C(N)=O)n(C(=O)OC(=O)C(=C)CC(=O)O)c2c1

>  <score_type>  (85) 
oracle

>  <origin>  (85) 
adg

>  <m_score__min__energy>  (85) 
-11.880000000000001

>  <m_primary>  (85) 
energy

$$$$
88:0
     RDKit          3D

 42 44  0  0  0  0  0  0  0  0999 V2000
   -1.1970   21.9130  -26.5480 C   0  0  0  0  0  0  0  0  0  0  0  0
   -1.2060   22.9020  -27.6670 C   0  0  0  0  0  0  0  0  0  0  0  0
   -1.1660   24.2040  -27.5120 O   0  0  0  0  0  0  0  0  0  0  0  0
   -1.2180   24.7110  -28.7230 C   0  0  0  0  0  0  0  0  0  0  0  0
   -1.1970   25.9460  -28.9640 O   0  0  0  0  0  0  0  0  0  0  0  0
   -1.2950   23.7890  -29.6550 O   0  0  0  0  0  0  0  0  0  0  0  0
   -1.2950   22.6380  -29.0230 C   0  0  0  0  0  0  0  0  0  0  0  0
   -1.3710   21.3000  -29.6920 C   0  0  0  0  0  0  0  0  0  0  0  0
   -2.6600   21.0950  -30.2630 O   0  0  0  0  0  0  0  0  0  0  0  0
   -3.2230   21.9510  -31.2160 C   0  0  0  0  0  0  0  0  0  0  0  0
   -2.4980   22.4940  -32.0940 O   0  0  0  0  0  0  0  0  0  0  0  0
   -4.6350   22.2070  -31.1950 N   0  0  0  0  0  0  0  0  0  0  0  0
   -5.2780   23.2960  -30.6890 C   0  0  0  0  0  0  0  0  0  0  0  0
   -4.6560   24.3870  -29.9100 C   0  0  0  0  0  0  0  0  0  0  0  0
   -3.7470   25.3000  -30.5200 N   0  0  0  0  0  0  0  0  0  0  0  0
   -4.8940   24.4860  -28.6760 O   0  0  0  0  0  0  0  0  0  0  0  0
   -6.6490   23.2030  -30.9230 C   0  0  0  0  0  0  0  0  0  0  0  0
   -6.8250   22.0070  -31.5820 C   0  0  0  0  0  0  0  0  0  0  0  0
   -7.9860   21.4110  -32.0580 C   0  0  0  0  0  0  0  0  0  0  0  0
   -7.8710   20.1780  -32.7200 C   0  0  0  0  0  0  0  0  0  0  0  0
   -6.6030   19.5560  -32.9050 C   0  0  0  0  0  0  0  0  0  0  0  0
   -6.4940   18.2840  -33.5970 N   0  0  0  0  0  0  0  0  0  0  0  0
   -7.1720   17.0910  -33.0760 C   0  0  0  0  0  0  0  0  0  0  0  0
   -5.7040   18.1710  -34.8290 C   0  0  0  0  0  0  0  0  0  0  0  0
   -5.4460   20.2060  -32.4010 C   0  0  0  0  0  0  0  0  0  0  0  0
   -5.5960   21.4250  -31.7310 C   0  0  0  0  0  0  0  0  0  0  0  0
   -1.2019   22.4472  -25.5864 H   0  0  0  0  0  0  0  0  0  0  0  0
   -2.0894   21.2735  -26.6167 H   0  0  0  0  0  0  0  0  0  0  0  0
   -0.2931   21.2898  -26.6167 H   0  0  0  0  0  0  0  0  0  0  0  0
   -0.6120   21.2499  -30.4866 H   0  0  0  0  0  0  0  0  0  0  0  0
   -1.1887   20.5179  -28.9403 H   0  0  0  0  0  0  0  0  0  0  0  0
   -2.7340   25.2990  -30.2700 H   0  0  0  0  0  0  0  0  0  0  0  0
   -7.4249   23.9301  -30.6412 H   0  0  0  0  0  0  0  0  0  0  0  0
   -8.9663   21.8907  -31.9204 H   0  0  0  0  0  0  0  0  0  0  0  0
   -8.7762   19.6837  -33.1025 H   0  0  0  0  0  0  0  0  0  0  0  0
   -7.1595   17.1130  -31.9763 H   0  0  0  0  0  0  0  0  0  0  0  0
   -8.2132   17.0767  -33.4306 H   0  0  0  0  0  0  0  0  0  0  0  0
   -6.6515   16.1892  -33.4306 H   0  0  0  0  0  0  0  0  0  0  0  0
   -4.6450   18.0195  -34.5729 H   0  0  0  0  0  0  0  0  0  0  0  0
   -6.0647   17.3153  -35.4187 H   0  0  0  0  0  0  0  0  0  0  0  0
   -5.8103   19.0935  -35.4187 H   0  0  0  0  0  0  0  0  0  0  0  0
   -4.4497   19.7594  -32.5348 H   0  0  0  0  0  0  0  0  0  0  0  0
  1  2  1  0
  2  3  1  0
  3  4  1  0
  4  5  2  0
  4  6  1  0
  6  7  1  0
  7  8  1  0
  8  9  1  0
  9 10  1  0
 10 11  2  0
 10 12  1  0
 12 13  1  0
 13 14  1  0
 14 15  1  0
 14 16  2  0
 13 17  2  0
 17 18  1  0
 18 19  2  0
 19 20  1  0
 20 21  2  0
 21 22  1  0
 22 23  1  0
 22 24  1  0
 21 25  1  0
 25 26  2  0
  7  2  2  0
 26 12  1  0
 26 18  1  0
  1 27  1  0
  1 28  1  0
  1 29  1  0
  8 30  1  0
  8 31  1  0
 15 32  1  0
 17 33  1  0
 19 34  1  0
 20 35  1  0
 23 36  1  0
 23 37  1  0
 23 38  1  0
 24 39  1  0
 24 40  1  0
 24 41  1  0
 25 42  1  0
M  CHG  1  15  -1
M  END
>  <UniqueID>  (86) 
85

>  <SMILES>  (86) 
Cc1oc(=O)oc1COC(=O)n1c(C([NH-])=O)cc2ccc(N(C)C)cc21

>  <Energy>  (86) 
113.40045699553332

>  <Genealogy>  (86) 
Cc1oc(=O)oc1COC(=O)n1c(C([NH-])=O)cc2ccc(N(C)C)cc21 (protonated)
Cc1oc(=O)oc1COC(=O)n1c(C([NH-])=O)cc2ccc(N(C)C)cc21 (3D coordinates assigned)
Cc1oc(=O)oc1COC(=O)n1c(C([NH-])=O)cc2ccc(N(C)C)cc21 (optimized conformer: 113.40045699553332 kcal/mol)

>  <smiles>  (86) 
Cc1oc(=O)oc1COC(=O)n1c(C(N)=O)cc2ccc(N(C)C)cc21

>  <score_type>  (86) 
oracle

>  <origin>  (86) 
adg

>  <m_score__min__energy>  (86) 
-10.859999999999999

>  <m_primary>  (86) 
energy

$$$$
89:0
     RDKit          3D

 39 40  0  0  0  0  0  0  0  0999 V2000
   -2.7300   23.7710  -27.1580 C   0  0  0  0  0  0  0  0  0  0  0  0
   -1.5790   23.6680  -28.0600 N   0  0  0  0  0  0  0  0  0  0  0  0
   -1.0770   22.3500  -28.4700 C   0  0  0  0  0  0  0  0  0  0  0  0
   -1.5960   21.9820  -29.8570 C   0  0  0  0  0  0  0  0  0  0  0  0
   -2.8720   22.5790  -30.0620 O   0  0  0  0  0  0  0  0  0  0  0  0
   -3.5650   22.5030  -31.2740 C   0  0  0  0  0  0  0  0  0  0  0  0
   -2.9340   22.3440  -32.3530 O   0  0  0  0  0  0  0  0  0  0  0  0
   -4.9990   22.6050  -31.2790 N   0  0  0  0  0  0  0  0  0  0  0  0
   -5.7460   23.6960  -30.9460 C   0  0  0  0  0  0  0  0  0  0  0  0
   -5.2340   24.9450  -30.3470 C   0  0  0  0  0  0  0  0  0  0  0  0
   -3.8360   25.1450  -30.1330 N   0  0  0  0  0  0  0  0  0  0  0  0
   -6.0490   25.8270  -29.9670 O   0  0  0  0  0  0  0  0  0  0  0  0
   -7.0930   23.4700  -31.2060 C   0  0  0  0  0  0  0  0  0  0  0  0
   -7.1570   22.1900  -31.7030 C   0  0  0  0  0  0  0  0  0  0  0  0
   -8.2570   21.4540  -32.1320 C   0  0  0  0  0  0  0  0  0  0  0  0
   -8.0310   20.1610  -32.6320 C   0  0  0  0  0  0  0  0  0  0  0  0
   -6.7150   19.6380  -32.7230 C   0  0  0  0  0  0  0  0  0  0  0  0
   -6.4890   18.2360  -33.2300 C   0  0  0  0  0  0  0  0  0  0  0  0
   -7.6430   17.4960  -33.0500 F   0  0  0  0  0  0  0  0  0  0  0  0
   -5.4530   17.6290  -32.5410 F   0  0  0  0  0  0  0  0  0  0  0  0
   -6.1660   18.2470  -34.5750 F   0  0  0  0  0  0  0  0  0  0  0  0
   -5.6260   20.4100  -32.2560 C   0  0  0  0  0  0  0  0  0  0  0  0
   -5.8810   21.6880  -31.7420 C   0  0  0  0  0  0  0  0  0  0  0  0
   -0.9510   24.8660  -28.5510 C   0  0  0  0  0  0  0  0  0  0  0  0
   -1.5770   25.6470  -29.3160 O   0  0  0  0  0  0  0  0  0  0  0  0
    0.3540   25.1800  -28.1870 O   0  0  0  0  0  0  0  0  0  0  0  0
   -2.3823   23.7399  -26.1149 H   0  0  0  0  0  0  0  0  0  0  0  0
   -3.2556   24.7198  -27.3412 H   0  0  0  0  0  0  0  0  0  0  0  0
   -3.4157   22.9306  -27.3412 H   0  0  0  0  0  0  0  0  0  0  0  0
    0.0226   22.3729  -28.4904 H   0  0  0  0  0  0  0  0  0  0  0  0
   -1.4301   21.5976  -27.7495 H   0  0  0  0  0  0  0  0  0  0  0  0
   -0.8934   22.3482  -30.6201 H   0  0  0  0  0  0  0  0  0  0  0  0
   -1.6868   20.8886  -29.9354 H   0  0  0  0  0  0  0  0  0  0  0  0
   -3.1520   24.3730  -30.2910 H   0  0  0  0  0  0  0  0  0  0  0  0
   -3.4890   26.0520  -29.7520 H   0  0  0  0  0  0  0  0  0  0  0  0
   -7.9292   24.1669  -31.0477 H   0  0  0  0  0  0  0  0  0  0  0  0
   -9.2732   21.8721  -32.0811 H   0  0  0  0  0  0  0  0  0  0  0  0
   -8.8838   19.5468  -32.9567 H   0  0  0  0  0  0  0  0  0  0  0  0
   -4.6001   20.0152  -32.2955 H   0  0  0  0  0  0  0  0  0  0  0  0
  1  2  1  0
  2  3  1  0
  3  4  1  0
  4  5  1  0
  5  6  1  0
  6  7  2  0
  6  8  1  0
  8  9  1  0
  9 10  1  0
 10 11  1  0
 10 12  2  0
  9 13  2  0
 13 14  1  0
 14 15  2  0
 15 16  1  0
 16 17  2  0
 17 18  1  0
 18 19  1  0
 18 20  1  0
 18 21  1  0
 17 22  1  0
 22 23  2  0
  2 24  1  0
 24 25  2  0
 24 26  1  0
 23  8  1  0
 23 14  1  0
  1 27  1  0
  1 28  1  0
  1 29  1  0
  3 30  1  0
  3 31  1  0
  4 32  1  0
  4 33  1  0
 11 34  1  0
 11 35  1  0
 13 36  1  0
 15 37  1  0
 16 38  1  0
 22 39  1  0
M  CHG  1  26  -1
M  END
>  <UniqueID>  (87) 
86

>  <SMILES>  (87) 
CN(CCOC(=O)n1c(C(N)=O)cc2ccc(C(F)(F)F)cc21)C(=O)[O-]

>  <Energy>  (87) 
71.01324569942447

>  <Genealogy>  (87) 
CN(CCOC(=O)n1c(C(N)=O)cc2ccc(C(F)(F)F)cc21)C(=O)[O-] (protonated)
CN(CCOC(=O)n1c(C(N)=O)cc2ccc(C(F)(F)F)cc21)C(=O)[O-] (3D coordinates assigned)
CN(CCOC(=O)n1c(C(N)=O)cc2ccc(C(F)(F)F)cc21)C(=O)[O-] (optimized conformer: 71.01324569942447 kcal/mol)

>  <smiles>  (87) 
CN(CCOC(=O)n1c(C(N)=O)cc2ccc(C(F)(F)F)cc21)C(=O)O

>  <score_type>  (87) 
oracle

>  <origin>  (87) 
adg

>  <m_score__min__energy>  (87) 
-9.9199999999999999

>  <m_primary>  (87) 
energy

$$$$
90:0
     RDKit          3D

 35 36  0  0  0  0  0  0  0  0999 V2000
   -0.8840   25.4390  -28.2100 C   0  0  0  0  0  0  0  0  0  0  0  0
   -2.0990   25.2190  -28.8910 O   0  0  0  0  0  0  0  0  0  0  0  0
   -3.0150   24.5210  -28.0640 C   0  0  0  0  0  0  0  0  0  0  0  0
   -3.3740   23.1810  -28.7000 C   0  0  0  0  0  0  0  0  0  0  0  0
   -2.8730   23.1330  -30.0670 N   0  0  0  0  0  0  0  0  0  0  0  0
   -3.6700   22.7160  -31.1780 C   0  0  0  0  0  0  0  0  0  0  0  0
   -3.1200   22.2080  -32.1930 O   0  0  0  0  0  0  0  0  0  0  0  0
   -5.0990   22.8590  -31.1270 N   0  0  0  0  0  0  0  0  0  0  0  0
   -5.8190   23.9900  -30.8750 C   0  0  0  0  0  0  0  0  0  0  0  0
   -5.2660   25.2990  -30.4640 C   0  0  0  0  0  0  0  0  0  0  0  0
   -3.9480   25.6680  -30.8660 N   0  0  0  0  0  0  0  0  0  0  0  0
   -5.9560   26.1100  -29.7940 O   0  0  0  0  0  0  0  0  0  0  0  0
   -7.1840   23.7330  -30.9720 C   0  0  0  0  0  0  0  0  0  0  0  0
   -7.2840   22.3970  -31.2850 C   0  0  0  0  0  0  0  0  0  0  0  0
   -8.4110   21.6130  -31.5100 C   0  0  0  0  0  0  0  0  0  0  0  0
   -8.2180   20.2620  -31.8430 C   0  0  0  0  0  0  0  0  0  0  0  0
   -6.9110   19.7240  -31.9440 C   0  0  0  0  0  0  0  0  0  0  0  0
   -6.7150   18.2920  -32.3470 C   0  0  0  0  0  0  0  0  0  0  0  0
   -5.7250   18.2010  -34.2370 I   0  0  0  0  0  0  0  0  0  0  0  0
   -5.7900   20.5540  -31.7240 C   0  0  0  0  0  0  0  0  0  0  0  0
   -6.0120   21.8910  -31.3730 C   0  0  0  0  0  0  0  0  0  0  0  0
   -1.0609   25.4070  -27.1248 H   0  0  0  0  0  0  0  0  0  0  0  0
   -0.1616   24.6571  -28.4870 H   0  0  0  0  0  0  0  0  0  0  0  0
   -0.4817   26.4246  -28.4870 H   0  0  0  0  0  0  0  0  0  0  0  0
   -2.5569   24.3461  -27.0793 H   0  0  0  0  0  0  0  0  0  0  0  0
   -3.9286   25.1226  -27.9482 H   0  0  0  0  0  0  0  0  0  0  0  0
   -2.9204   22.3666  -28.1161 H   0  0  0  0  0  0  0  0  0  0  0  0
   -4.4679   23.0655  -28.7101 H   0  0  0  0  0  0  0  0  0  0  0  0
   -3.1100   25.2630  -30.3940 H   0  0  0  0  0  0  0  0  0  0  0  0
   -8.0082   24.4472  -30.8287 H   0  0  0  0  0  0  0  0  0  0  0  0
   -9.4224   22.0380  -31.4296 H   0  0  0  0  0  0  0  0  0  0  0  0
   -9.0891   19.6160  -32.0270 H   0  0  0  0  0  0  0  0  0  0  0  0
   -6.1035   17.7799  -31.5895 H   0  0  0  0  0  0  0  0  0  0  0  0
   -7.6955   17.7998  -32.4267 H   0  0  0  0  0  0  0  0  0  0  0  0
   -4.7680   20.1600  -31.8258 H   0  0  0  0  0  0  0  0  0  0  0  0
  1  2  1  0
  2  3  1  0
  3  4  1  0
  4  5  1  0
  5  6  1  0
  6  7  2  0
  6  8  1  0
  8  9  1  0
  9 10  1  0
 10 11  1  0
 10 12  2  0
  9 13  2  0
 13 14  1  0
 14 15  2  0
 15 16  1  0
 16 17  2  0
 17 18  1  0
 18 19  1  0
 17 20  1  0
 20 21  2  0
 21  8  1  0
 21 14  1  0
  1 22  1  0
  1 23  1  0
  1 24  1  0
  3 25  1  0
  3 26  1  0
  4 27  1  0
  4 28  1  0
 11 29  1  0
 13 30  1  0
 15 31  1  0
 16 32  1  0
 18 33  1  0
 18 34  1  0
 20 35  1  0
M  CHG  2   5  -1  11  -1
M  END
>  <UniqueID>  (88) 
87

>  <SMILES>  (88) 
COCC[N-]C(=O)n1c(C([NH-])=O)cc2ccc(CI)cc21

>  <Energy>  (88) 
70.21793796123642

>  <Genealogy>  (88) 
COCC[N-]C(=O)n1c(C([NH-])=O)cc2ccc(CI)cc21 (protonated)
COCC[N-]C(=O)n1c(C([NH-])=O)cc2ccc(CI)cc21 (3D coordinates assigned)
COCC[N-]C(=O)n1c(C([NH-])=O)cc2ccc(CI)cc21 (optimized conformer: 70.21793796123642 kcal/mol)

>  <smiles>  (88) 
COCCNC(=O)n1c(C(N)=O)cc2ccc(CI)cc21

>  <score_type>  (88) 
oracle

>  <origin>  (88) 
adg

>  <m_score__min__energy>  (88) 
-11.050000000000001

>  <m_primary>  (88) 
energy

$$$$
91:0
     RDKit          3D

 51 53  0  0  0  0  0  0  0  0999 V2000
   -3.3450   21.0580  -29.2210 C   0  0  0  0  0  0  0  0  0  0  0  0
   -2.8850   22.1870  -30.0370 N   0  0  0  0  0  0  0  0  0  0  0  0
   -1.8050   23.0600  -29.5460 C   0  0  0  0  0  0  0  0  0  0  0  0
   -2.2660   24.0290  -28.4380 C   0  0  1  0  0  0  0  0  0  0  0  0
   -2.4950   25.3070  -28.9720 O   0  0  0  0  0  0  0  0  0  0  0  0
   -3.5060   23.5300  -27.6750 C   0  0  0  0  0  0  0  0  0  0  0  0
   -4.2220   24.5960  -27.1120 O   0  0  0  0  0  0  0  0  0  0  0  0
   -3.5230   22.4560  -31.3020 C   0  0  0  0  0  0  0  0  0  0  0  0
   -2.8300   22.5740  -32.3490 O   0  0  0  0  0  0  0  0  0  0  0  0
   -4.9450   22.6360  -31.3810 N   0  0  0  0  0  0  0  0  0  0  0  0
   -5.6930   23.6580  -30.8800 C   0  0  0  0  0  0  0  0  0  0  0  0
   -5.1680   24.8860  -30.2460 C   0  0  0  0  0  0  0  0  0  0  0  0
   -4.1110   25.6280  -30.8440 N   0  0  0  0  0  0  0  0  0  0  0  0
   -5.6760   25.2980  -29.1680 O   0  0  0  0  0  0  0  0  0  0  0  0
   -7.0510   23.4090  -31.0780 C   0  0  0  0  0  0  0  0  0  0  0  0
   -7.1090   22.1880  -31.7120 C   0  0  0  0  0  0  0  0  0  0  0  0
   -8.2080   21.4410  -32.1260 C   0  0  0  0  0  0  0  0  0  0  0  0
   -7.9680   20.1930  -32.7250 C   0  0  0  0  0  0  0  0  0  0  0  0
   -6.6440   19.7130  -32.9000 C   0  0  0  0  0  0  0  0  0  0  0  0
   -6.4080   18.4250  -33.5010 N   0  0  0  0  0  0  0  0  0  0  0  0
   -6.8400   17.2010  -32.8160 C   0  0  0  0  0  0  0  0  0  0  0  0
   -6.1240   15.9770  -33.3960 C   0  0  0  0  0  0  0  0  0  0  0  0
   -4.7250   16.3190  -33.6700 N   0  0  0  0  0  0  0  0  0  0  0  0
   -4.5990   17.3000  -34.7660 C   0  0  0  0  0  0  0  0  0  0  0  0
   -5.7620   18.3110  -34.8160 C   0  0  0  0  0  0  0  0  0  0  0  0
   -5.5560   20.4970  -32.4530 C   0  0  0  0  0  0  0  0  0  0  0  0
   -5.8260   21.7430  -31.8770 C   0  0  0  0  0  0  0  0  0  0  0  0
   -3.2423   21.3100  -28.1552 H   0  0  0  0  0  0  0  0  0  0  0  0
   -4.4006   20.8476  -29.4480 H   0  0  0  0  0  0  0  0  0  0  0  0
   -2.7371   20.1698  -29.4480 H   0  0  0  0  0  0  0  0  0  0  0  0
   -0.9990   22.4279  -29.1450 H   0  0  0  0  0  0  0  0  0  0  0  0
   -1.4657   23.6710  -30.3954 H   0  0  0  0  0  0  0  0  0  0  0  0
   -1.4493   24.0803  -27.7029 H   0  0  0  0  0  0  0  0  0  0  0  0
   -3.4770   25.4520  -28.9610 H   0  0  0  0  0  0  0  0  0  0  0  0
   -4.1611   22.9872  -28.3723 H   0  0  0  0  0  0  0  0  0  0  0  0
   -3.1703   22.8698  -26.8617 H   0  0  0  0  0  0  0  0  0  0  0  0
   -4.3310   25.2790  -27.8240 H   0  0  0  0  0  0  0  0  0  0  0  0
   -3.1240   25.2940  -30.7950 H   0  0  0  0  0  0  0  0  0  0  0  0
   -7.8959   24.0514  -30.7891 H   0  0  0  0  0  0  0  0  0  0  0  0
   -9.2329   21.8162  -31.9885 H   0  0  0  0  0  0  0  0  0  0  0  0
   -8.8169   19.5803  -33.0625 H   0  0  0  0  0  0  0  0  0  0  0  0
   -6.6042   17.2838  -31.7448 H   0  0  0  0  0  0  0  0  0  0  0  0
   -7.9238   17.0785  -32.9587 H   0  0  0  0  0  0  0  0  0  0  0  0
   -6.1651   15.1499  -32.6720 H   0  0  0  0  0  0  0  0  0  0  0  0
   -6.6178   15.6691  -34.3295 H   0  0  0  0  0  0  0  0  0  0  0  0
   -4.2230   15.4450  -33.9520 H   0  0  0  0  0  0  0  0  0  0  0  0
   -3.6591   17.8554  -34.6312 H   0  0  0  0  0  0  0  0  0  0  0  0
   -4.6158   16.7370  -35.7108 H   0  0  0  0  0  0  0  0  0  0  0  0
   -5.3720   19.2956  -35.1133 H   0  0  0  0  0  0  0  0  0  0  0  0
   -6.5057   17.9588  -35.5460 H   0  0  0  0  0  0  0  0  0  0  0  0
   -4.5220   20.1361  -32.5556 H   0  0  0  0  0  0  0  0  0  0  0  0
  1  2  1  0
  2  3  1  0
  3  4  1  0
  4  5  1  0
  4  6  1  0
  6  7  1  0
  2  8  1  0
  8  9  2  0
  8 10  1  0
 10 11  1  0
 11 12  1  0
 12 13  1  0
 12 14  2  0
 11 15  2  0
 15 16  1  0
 16 17  2  0
 17 18  1  0
 18 19  2  0
 19 20  1  0
 20 21  1  0
 21 22  1  0
 22 23  1  0
 23 24  1  0
 24 25  1  0
 19 26  1  0
 26 27  2  0
 27 10  1  0
 27 16  1  0
 25 20  1  0
  1 28  1  0
  1 29  1  0
  1 30  1  0
  3 31  1  0
  3 32  1  0
  4 33  1  1
  5 34  1  0
  6 35  1  0
  6 36  1  0
  7 37  1  0
 13 38  1  0
 15 39  1  0
 17 40  1  0
 18 41  1  0
 21 42  1  0
 21 43  1  0
 22 44  1  0
 22 45  1  0
 23 46  1  0
 24 47  1  0
 24 48  1  0
 25 49  1  0
 25 50  1  0
 26 51  1  0
M  CHG  1  13  -1
M  END
>  <UniqueID>  (89) 
88

>  <SMILES>  (89) 
CN(C[C@@H](O)CO)C(=O)n1c(C([NH-])=O)cc2ccc(N3CCNCC3)cc21

>  <Energy>  (89) 
95.79034271866634

>  <Genealogy>  (89) 
CN(CC(O)CO)C(=O)n1c(C([NH-])=O)cc2ccc(N3CCNCC3)cc21 (protonated)
CN(C[C@@H](O)CO)C(=O)n1c(C([NH-])=O)cc2ccc(N3CCNCC3)cc21 (chirality)
CN(C[C@@H](O)CO)C(=O)n1c(C([NH-])=O)cc2ccc(N3CCNCC3)cc21 (3D coordinates assigned)
CN(C[C@@H](O)CO)C(=O)n1c(C([NH-])=O)cc2ccc(N3CCNCC3)cc21 (nonaromatic ring conformer: 95.79034271866634 kcal/mol)

>  <smiles>  (89) 
CN(CC(O)CO)C(=O)n1c(C(N)=O)cc2ccc(N3CCNCC3)cc21

>  <score_type>  (89) 
oracle

>  <origin>  (89) 
adg

>  <m_score__min__energy>  (89) 
-10.57

>  <m_primary>  (89) 
energy

$$$$
92:0
     RDKit          3D

 53 54  0  0  0  0  0  0  0  0999 V2000
   -0.5270   26.5960  -27.2280 C   0  0  0  0  0  0  0  0  0  0  0  0
   -1.0620   25.5070  -26.2820 C   0  0  0  0  0  0  0  0  0  0  0  0
   -1.9980   26.1510  -25.2440 C   0  0  0  0  0  0  0  0  0  0  0  0
    0.1130   24.8260  -25.5610 C   0  0  0  0  0  0  0  0  0  0  0  0
   -2.0410   24.2310  -27.2960 Si  0  0  0  0  0  4  0  0  0  0  0  0
   -3.8810   24.5110  -27.0960 C   0  0  0  0  0  0  0  0  0  0  0  0
   -1.6390   22.4960  -26.7000 C   0  0  0  0  0  0  0  0  0  0  0  0
   -1.6140   24.4510  -28.9650 O   0  0  0  0  0  0  0  0  0  0  0  0
   -0.8310   23.3730  -29.4200 C   0  0  0  0  0  0  0  0  0  0  0  0
   -1.6290   22.5820  -30.4470 C   0  0  0  0  0  0  0  0  0  0  0  0
   -2.9150   23.1720  -30.6100 O   0  0  0  0  0  0  0  0  0  0  0  0
   -3.8230   22.7460  -31.5820 C   0  0  0  0  0  0  0  0  0  0  0  0
   -3.4080   22.2010  -32.6420 O   0  0  0  0  0  0  0  0  0  0  0  0
   -5.2310   22.9540  -31.3860 N   0  0  0  0  0  0  0  0  0  0  0  0
   -5.8440   24.0280  -30.8120 C   0  0  0  0  0  0  0  0  0  0  0  0
   -5.1940   25.2940  -30.4170 C   0  0  0  0  0  0  0  0  0  0  0  0
   -3.8760   25.6120  -30.8590 N   0  0  0  0  0  0  0  0  0  0  0  0
   -5.8280   26.1300  -29.7180 O   0  0  0  0  0  0  0  0  0  0  0  0
   -7.2170   23.8110  -30.7100 C   0  0  0  0  0  0  0  0  0  0  0  0
   -7.4300   22.5670  -31.2540 C   0  0  0  0  0  0  0  0  0  0  0  0
   -8.6140   21.8490  -31.4030 C   0  0  0  0  0  0  0  0  0  0  0  0
   -8.5390   20.5690  -31.9760 C   0  0  0  0  0  0  0  0  0  0  0  0
   -7.2920   20.0260  -32.3690 C   0  0  0  0  0  0  0  0  0  0  0  0
   -7.2340   18.6650  -32.9960 C   0  0  0  0  0  0  0  0  0  0  0  0
   -6.5020   17.5100  -31.8570 Cl  0  0  0  0  0  0  0  0  0  0  0  0
   -6.1110   20.7880  -32.2140 C   0  0  0  0  0  0  0  0  0  0  0  0
   -6.2170   22.0690  -31.6560 C   0  0  0  0  0  0  0  0  0  0  0  0
   -0.1183   27.4279  -26.6356 H   0  0  0  0  0  0  0  0  0  0  0  0
    0.2660   26.1733  -27.8624 H   0  0  0  0  0  0  0  0  0  0  0  0
   -1.3462   26.9654  -27.8624 H   0  0  0  0  0  0  0  0  0  0  0  0
   -1.6447   25.9079  -24.2310 H   0  0  0  0  0  0  0  0  0  0  0  0
   -2.0001   27.2426  -25.3795 H   0  0  0  0  0  0  0  0  0  0  0  0
   -3.0183   25.7628  -25.3795 H   0  0  0  0  0  0  0  0  0  0  0  0
   -0.0276   24.9075  -24.4731 H   0  0  0  0  0  0  0  0  0  0  0  0
    0.1532   23.7646  -25.8471 H   0  0  0  0  0  0  0  0  0  0  0  0
    1.0539   25.3187  -25.8471 H   0  0  0  0  0  0  0  0  0  0  0  0
   -4.1319   24.5492  -26.0257 H   0  0  0  0  0  0  0  0  0  0  0  0
   -4.1611   25.4621  -27.5724 H   0  0  0  0  0  0  0  0  0  0  0  0
   -4.4313   23.6863  -27.5724 H   0  0  0  0  0  0  0  0  0  0  0  0
   -1.6348   22.4779  -25.6002 H   0  0  0  0  0  0  0  0  0  0  0  0
   -2.3983   21.7942  -27.0754 H   0  0  0  0  0  0  0  0  0  0  0  0
   -0.6484   22.1997  -27.0754 H   0  0  0  0  0  0  0  0  0  0  0  0
    0.0903   23.7557  -29.8835 H   0  0  0  0  0  0  0  0  0  0  0  0
   -0.5651   22.7226  -28.5737 H   0  0  0  0  0  0  0  0  0  0  0  0
   -1.0973   22.5912  -31.4099 H   0  0  0  0  0  0  0  0  0  0  0  0
   -1.7443   21.5446  -30.1000 H   0  0  0  0  0  0  0  0  0  0  0  0
   -3.0380   25.2930  -30.3240 H   0  0  0  0  0  0  0  0  0  0  0  0
   -7.9699   24.4908  -30.2846 H   0  0  0  0  0  0  0  0  0  0  0  0
   -9.5777   22.2712  -31.0820 H   0  0  0  0  0  0  0  0  0  0  0  0
   -9.4583   19.9825  -32.1209 H   0  0  0  0  0  0  0  0  0  0  0  0
   -8.2526   18.3347  -33.2475 H   0  0  0  0  0  0  0  0  0  0  0  0
   -6.6240   18.7110  -33.9102 H   0  0  0  0  0  0  0  0  0  0  0  0
   -5.1350   20.3859  -32.5232 H   0  0  0  0  0  0  0  0  0  0  0  0
  1  2  1  0
  2  3  1  0
  2  4  1  0
  2  5  1  0
  5  6  1  0
  5  7  1  0
  5  8  1  0
  8  9  1  0
  9 10  1  0
 10 11  1  0
 11 12  1  0
 12 13  2  0
 12 14  1  0
 14 15  1  0
 15 16  1  0
 16 17  1  0
 16 18  2  0
 15 19  2  0
 19 20  1  0
 20 21  2  0
 21 22  1  0
 22 23  2  0
 23 24  1  0
 24 25  1  0
 23 26  1  0
 26 27  2  0
 27 14  1  0
 27 20  1  0
  1 28  1  0
  1 29  1  0
  1 30  1  0
  3 31  1  0
  3 32  1  0
  3 33  1  0
  4 34  1  0
  4 35  1  0
  4 36  1  0
  6 37  1  0
  6 38  1  0
  6 39  1  0
  7 40  1  0
  7 41  1  0
  7 42  1  0
  9 43  1  0
  9 44  1  0
 10 45  1  0
 10 46  1  0
 17 47  1  0
 19 48  1  0
 21 49  1  0
 22 50  1  0
 24 51  1  0
 24 52  1  0
 26 53  1  0
M  CHG  1  17  -1
M  END
>  <UniqueID>  (90) 
89

>  <SMILES>  (90) 
CC(C)(C)[Si](C)(C)OCCOC(=O)n1c(C([NH-])=O)cc2ccc(CCl)cc21

>  <Energy>  (90) 
66.39731358886749

>  <Genealogy>  (90) 
CC(C)(C)[Si](C)(C)OCCOC(=O)n1c(C([NH-])=O)cc2ccc(CCl)cc21 (protonated)
CC(C)(C)[Si](C)(C)OCCOC(=O)n1c(C([NH-])=O)cc2ccc(CCl)cc21 (3D coordinates assigned)
CC(C)(C)[Si](C)(C)OCCOC(=O)n1c(C([NH-])=O)cc2ccc(CCl)cc21 (optimized conformer: 66.39731358886749 kcal/mol)

>  <smiles>  (90) 
CC(C)(C)[Si](C)(C)OCCOC(=O)n1c(C(N)=O)cc2ccc(CCl)cc21

>  <score_type>  (90) 
oracle

>  <origin>  (90) 
adg

>  <m_score__min__energy>  (90) 
-11.630000000000001

>  <m_primary>  (90) 
energy

$$$$
93:0
     RDKit          3D

 34 36  0  0  0  0  0  0  0  0999 V2000
   -1.6170   25.7160  -28.9710 N   0  0  0  0  0  0  0  0  0  0  0  0
   -0.9830   24.4510  -29.1360 C   0  0  0  0  0  0  0  0  0  0  0  0
    0.1380   24.2460  -28.5970 O   0  0  0  0  0  0  0  0  0  0  0  0
   -1.5920   23.3990  -29.9770 C   0  0  0  0  0  0  0  0  0  0  0  0
   -0.9020   22.2670  -30.4060 C   0  0  0  0  0  0  0  0  0  0  0  0
   -1.7780   21.5980  -31.2300 C   0  0  0  0  0  0  0  0  0  0  0  0
   -1.6200   20.4000  -31.9170 C   0  0  0  0  0  0  0  0  0  0  0  0
   -2.7060   19.9260  -32.6710 C   0  0  0  0  0  0  0  0  0  0  0  0
   -3.9250   20.6480  -32.7330 C   0  0  0  0  0  0  0  0  0  0  0  0
   -5.0150   20.0910  -33.5010 N   0  0  0  0  0  0  0  0  0  0  0  0
   -6.2210   19.4010  -33.0080 C   0  0  0  0  0  0  0  0  0  0  0  0
   -7.5340   20.0500  -33.3270 C   0  0  0  0  0  0  0  0  0  0  0  0
   -7.8650   20.3990  -31.9320 N   0  0  0  0  0  0  0  0  0  0  0  0
   -8.9140   21.0630  -31.2350 C   0  0  0  0  0  0  0  0  0  0  0  0
   -9.8950   21.5320  -31.8670 O   0  0  0  0  0  0  0  0  0  0  0  0
   -6.5870   19.7390  -31.5980 C   0  0  0  0  0  0  0  0  0  0  0  0
   -4.0490   21.8540  -31.9990 C   0  0  0  0  0  0  0  0  0  0  0  0
   -2.9440   22.3150  -31.2750 C   0  0  0  0  0  0  0  0  0  0  0  0
   -2.8480   23.4240  -30.5070 N   0  0  0  0  0  0  0  0  0  0  0  0
   -3.8950   24.3700  -30.2400 C   0  0  0  0  0  0  0  0  0  0  0  0
   -4.8350   24.0750  -29.4560 O   0  0  0  0  0  0  0  0  0  0  0  0
   -3.8670   25.6310  -30.8230 O   0  0  0  0  0  0  0  0  0  0  0  0
   -2.6550   25.8060  -29.0250 H   0  0  0  0  0  0  0  0  0  0  0  0
    0.1241   21.9712  -30.1423 H   0  0  0  0  0  0  0  0  0  0  0  0
   -0.6739   19.8406  -31.8715 H   0  0  0  0  0  0  0  0  0  0  0  0
   -2.6094   18.9792  -33.2225 H   0  0  0  0  0  0  0  0  0  0  0  0
   -5.0590   20.3660  -34.5080 H   0  0  0  0  0  0  0  0  0  0  0  0
   -5.9508   18.3949  -33.3612 H   0  0  0  0  0  0  0  0  0  0  0  0
   -7.4272   20.9333  -33.9739 H   0  0  0  0  0  0  0  0  0  0  0  0
   -8.2696   19.4541  -33.8872 H   0  0  0  0  0  0  0  0  0  0  0  0
   -8.8663   21.1661  -30.1409 H   0  0  0  0  0  0  0  0  0  0  0  0
   -5.8667   20.4210  -31.1226 H   0  0  0  0  0  0  0  0  0  0  0  0
   -6.6205   18.9121  -30.8734 H   0  0  0  0  0  0  0  0  0  0  0  0
   -4.9946   22.4161  -31.9985 H   0  0  0  0  0  0  0  0  0  0  0  0
  1  2  1  0
  2  3  2  0
  2  4  1  0
  4  5  2  0
  5  6  1  0
  6  7  2  0
  7  8  1  0
  8  9  2  0
  9 10  1  0
 10 11  1  0
 11 12  1  0
 12 13  1  0
 13 14  1  0
 14 15  2  0
 13 16  1  0
  9 17  1  0
 17 18  2  0
 18 19  1  0
 19 20  1  0
 20 21  2  0
 20 22  1  0
 19  4  1  0
 18  6  1  0
 16 11  1  0
  1 23  1  0
  5 24  1  0
  7 25  1  0
  8 26  1  0
 10 27  1  0
 11 28  1  0
 12 29  1  0
 12 30  1  0
 14 31  1  0
 16 32  1  0
 16 33  1  0
 17 34  1  0
M  CHG  2   1  -1  22  -1
M  END
>  <UniqueID>  (91) 
90

>  <SMILES>  (91) 
[NH-]C(=O)c1cc2ccc(NC3CN(C=O)C3)cc2n1C(=O)[O-]

>  <Energy>  (91) 
126.80307648001659

>  <Genealogy>  (91) 
[NH-]C(=O)c1cc2ccc(NC3CN(C=O)C3)cc2n1C(=O)[O-] (protonated)
[NH-]C(=O)c1cc2ccc(NC3CN(C=O)C3)cc2n1C(=O)[O-] (3D coordinates assigned)
[NH-]C(=O)c1cc2ccc(NC3CN(C=O)C3)cc2n1C(=O)[O-] (nonaromatic ring conformer: 126.80307648001659 kcal/mol)

>  <smiles>  (91) 
NC(=O)c1cc2ccc(NC3CN(C=O)C3)cc2n1C(=O)O

>  <score_type>  (91) 
oracle

>  <origin>  (91) 
adg

>  <m_score__min__energy>  (91) 
-10.970000000000001

>  <m_primary>  (91) 
energy

$$$$
94:0
     RDKit          3D

 38 39  0  0  0  0  0  0  0  0999 V2000
   -5.7150   25.0400  -28.9700 N   0  0  0  0  0  0  0  0  0  0  0  0
   -6.0860   24.7590  -30.3210 C   0  0  0  0  0  0  0  0  0  0  0  0
   -6.0880   25.6950  -31.1630 O   0  0  0  0  0  0  0  0  0  0  0  0
   -6.4400   23.3860  -30.7410 C   0  0  0  0  0  0  0  0  0  0  0  0
   -7.7460   22.9070  -30.8320 C   0  0  0  0  0  0  0  0  0  0  0  0
   -7.6250   21.5730  -31.1560 C   0  0  0  0  0  0  0  0  0  0  0  0
   -8.6050   20.6110  -31.3790 C   0  0  0  0  0  0  0  0  0  0  0  0
   -8.1870   19.3130  -31.7200 C   0  0  0  0  0  0  0  0  0  0  0  0
   -6.8090   19.0040  -31.8330 C   0  0  0  0  0  0  0  0  0  0  0  0
   -6.3710   17.6190  -32.2330 C   0  0  0  0  0  0  0  0  0  0  0  0
   -6.5110   17.3740  -33.7450 C   0  0  0  0  0  0  0  0  0  0  0  0
   -5.7190   18.3780  -34.5960 C   0  0  0  0  0  0  0  0  0  0  0  0
   -6.3330   19.6390  -34.5940 O   0  0  0  0  0  0  0  0  0  0  0  0
   -5.8420   20.0070  -31.5980 C   0  0  0  0  0  0  0  0  0  0  0  0
   -6.2890   21.2870  -31.2490 C   0  0  0  0  0  0  0  0  0  0  0  0
   -5.5490   22.3880  -31.0010 N   0  0  0  0  0  0  0  0  0  0  0  0
   -4.1160   22.4740  -31.0760 C   0  0  0  0  0  0  0  0  0  0  0  0
   -3.5660   22.6660  -32.1940 O   0  0  0  0  0  0  0  0  0  0  0  0
   -3.2960   22.5140  -29.8170 C   0  0  0  0  0  0  0  0  0  0  0  0
   -2.8980   24.2200  -29.3100 P   0  0  0  0  0  0  0  0  0  0  0  0
   -3.5330   24.5280  -27.9740 O   0  0  0  0  0  0  0  0  0  0  0  0
   -3.4910   25.2960  -30.4720 O   0  0  0  0  0  0  0  0  0  0  0  0
   -1.2210   24.4030  -29.1900 O   0  0  0  0  0  0  0  0  0  0  0  0
   -5.4320   26.0070  -28.6960 H   0  0  0  0  0  0  0  0  0  0  0  0
   -5.7590   24.3060  -28.2300 H   0  0  0  0  0  0  0  0  0  0  0  0
   -8.6761   23.4738  -30.6778 H   0  0  0  0  0  0  0  0  0  0  0  0
   -9.6732   20.8583  -31.2912 H   0  0  0  0  0  0  0  0  0  0  0  0
   -8.9374   18.5293  -31.9009 H   0  0  0  0  0  0  0  0  0  0  0  0
   -5.3164   17.4863  -31.9497 H   0  0  0  0  0  0  0  0  0  0  0  0
   -7.0211   16.8987  -31.7147 H   0  0  0  0  0  0  0  0  0  0  0  0
   -6.1469   16.3608  -33.9703 H   0  0  0  0  0  0  0  0  0  0  0  0
   -7.5742   17.4967  -33.9992 H   0  0  0  0  0  0  0  0  0  0  0  0
   -4.7027   18.4730  -34.1860 H   0  0  0  0  0  0  0  0  0  0  0  0
   -5.6861   18.0079  -35.6313 H   0  0  0  0  0  0  0  0  0  0  0  0
   -7.0100   19.6270  -35.3200 H   0  0  0  0  0  0  0  0  0  0  0  0
   -4.7676   19.7882  -31.6868 H   0  0  0  0  0  0  0  0  0  0  0  0
   -3.8624   22.0272  -29.0094 H   0  0  0  0  0  0  0  0  0  0  0  0
   -2.3491   21.9898  -30.0132 H   0  0  0  0  0  0  0  0  0  0  0  0
  1  2  1  0
  2  3  2  0
  2  4  1  0
  4  5  2  0
  5  6  1  0
  6  7  2  0
  7  8  1  0
  8  9  2  0
  9 10  1  0
 10 11  1  0
 11 12  1  0
 12 13  1  0
  9 14  1  0
 14 15  2  0
 15 16  1  0
 16 17  1  0
 17 18  2  0
 17 19  1  0
 19 20  1  0
 20 21  2  0
 20 22  1  0
 20 23  1  0
 16  4  1  0
 15  6  1  0
  1 24  1  0
  1 25  1  0
  5 26  1  0
  7 27  1  0
  8 28  1  0
 10 29  1  0
 10 30  1  0
 11 31  1  0
 11 32  1  0
 12 33  1  0
 12 34  1  0
 13 35  1  0
 14 36  1  0
 19 37  1  0
 19 38  1  0
M  CHG  2  22  -1  23  -1
M  END
>  <UniqueID>  (92) 
91

>  <SMILES>  (92) 
NC(=O)c1cc2ccc(CCCO)cc2n1C(=O)CP(=O)([O-])[O-]

>  <Energy>  (92) 
70.12626372453676

>  <Genealogy>  (92) 
NC(=O)c1cc2ccc(CCCO)cc2n1C(=O)CP(=O)([O-])[O-] (protonated)
NC(=O)c1cc2ccc(CCCO)cc2n1C(=O)CP(=O)([O-])[O-] (3D coordinates assigned)
NC(=O)c1cc2ccc(CCCO)cc2n1C(=O)CP(=O)([O-])[O-] (optimized conformer: 70.12626372453676 kcal/mol)

>  <smiles>  (92) 
NC(=O)c1cc2ccc(CCCO)cc2n1C(=O)CP(=O)(O)O

>  <score_type>  (92) 
oracle

>  <origin>  (92) 
adg

>  <m_score__min__energy>  (92) 
-12.35

>  <m_primary>  (92) 
energy

$$$$
95:0
     RDKit          3D

 36 37  0  0  0  0  0  0  0  0999 V2000
   -2.9090   24.5760  -27.1610 C   0  0  0  0  0  0  0  0  0  0  0  0
   -2.2410   24.5750  -28.4930 C   0  0  0  0  0  0  0  0  0  0  0  0
   -1.7760   25.6520  -28.9580 O   0  0  0  0  0  0  0  0  0  0  0  0
   -2.0900   23.3680  -29.1860 O   0  0  0  0  0  0  0  0  0  0  0  0
   -2.6790   22.1410  -28.7610 C   0  0  0  0  0  0  0  0  0  0  0  0
   -3.4440   21.4850  -29.9160 C   0  0  0  0  0  0  0  0  0  0  0  0
   -3.8670   22.4970  -30.9440 C   0  0  0  0  0  0  0  0  0  0  0  0
   -3.0020   23.0270  -31.6920 O   0  0  0  0  0  0  0  0  0  0  0  0
   -5.2570   22.8030  -31.1370 N   0  0  0  0  0  0  0  0  0  0  0  0
   -5.8840   23.9900  -30.9020 C   0  0  0  0  0  0  0  0  0  0  0  0
   -5.2270   25.2460  -30.4840 C   0  0  0  0  0  0  0  0  0  0  0  0
   -3.8680   25.4880  -30.8400 N   0  0  0  0  0  0  0  0  0  0  0  0
   -5.8460   26.1010  -29.7960 O   0  0  0  0  0  0  0  0  0  0  0  0
   -7.2480   23.8830  -31.1680 C   0  0  0  0  0  0  0  0  0  0  0  0
   -7.4390   22.5830  -31.5760 C   0  0  0  0  0  0  0  0  0  0  0  0
   -8.6070   21.9220  -31.9470 C   0  0  0  0  0  0  0  0  0  0  0  0
   -8.5140   20.5640  -32.2950 C   0  0  0  0  0  0  0  0  0  0  0  0
   -7.2640   19.8980  -32.2690 C   0  0  0  0  0  0  0  0  0  0  0  0
   -7.1840   18.4360  -32.5940 C   0  0  0  0  0  0  0  0  0  0  0  0
   -6.1050   20.5950  -31.8690 C   0  0  0  0  0  0  0  0  0  0  0  0
   -6.2220   21.9510  -31.5470 C   0  0  0  0  0  0  0  0  0  0  0  0
   -2.1463   24.5749  -26.3683 H   0  0  0  0  0  0  0  0  0  0  0  0
   -3.5356   25.4751  -27.0657 H   0  0  0  0  0  0  0  0  0  0  0  0
   -3.5382   23.6788  -27.0657 H   0  0  0  0  0  0  0  0  0  0  0  0
   -1.8872   21.4591  -28.4176 H   0  0  0  0  0  0  0  0  0  0  0  0
   -3.3820   22.3488  -27.9409 H   0  0  0  0  0  0  0  0  0  0  0  0
   -2.7944   20.7383  -30.3961 H   0  0  0  0  0  0  0  0  0  0  0  0
   -4.3485   21.0123  -29.5055 H   0  0  0  0  0  0  0  0  0  0  0  0
   -3.1040   24.8610  -30.5010 H   0  0  0  0  0  0  0  0  0  0  0  0
   -8.0099   24.6706  -31.0721 H   0  0  0  0  0  0  0  0  0  0  0  0
   -9.5733   22.4472  -31.9670 H   0  0  0  0  0  0  0  0  0  0  0  0
   -9.4194   20.0133  -32.5901 H   0  0  0  0  0  0  0  0  0  0  0  0
   -7.1522   17.8542  -31.6610 H   0  0  0  0  0  0  0  0  0  0  0  0
   -8.0674   18.1417  -33.1797 H   0  0  0  0  0  0  0  0  0  0  0  0
   -6.2738   18.2398  -33.1797 H   0  0  0  0  0  0  0  0  0  0  0  0
   -5.1324   20.0844  -31.8116 H   0  0  0  0  0  0  0  0  0  0  0  0
  1  2  1  0
  2  3  2  0
  2  4  1  0
  4  5  1  0
  5  6  1  0
  6  7  1  0
  7  8  2  0
  7  9  1  0
  9 10  1  0
 10 11  1  0
 11 12  1  0
 11 13  2  0
 10 14  2  0
 14 15  1  0
 15 16  2  0
 16 17  1  0
 17 18  2  0
 18 19  1  0
 18 20  1  0
 20 21  2  0
 21  9  1  0
 21 15  1  0
  1 22  1  0
  1 23  1  0
  1 24  1  0
  5 25  1  0
  5 26  1  0
  6 27  1  0
  6 28  1  0
 12 29  1  0
 14 30  1  0
 16 31  1  0
 17 32  1  0
 19 33  1  0
 19 34  1  0
 19 35  1  0
 20 36  1  0
M  CHG  1  12  -1
M  END
>  <UniqueID>  (93) 
92

>  <SMILES>  (93) 
CC(=O)OCCC(=O)n1c(C([NH-])=O)cc2ccc(C)cc21

>  <Energy>  (93) 
68.91891160788137

>  <Genealogy>  (93) 
CC(=O)OCCC(=O)n1c(C([NH-])=O)cc2ccc(C)cc21 (protonated)
CC(=O)OCCC(=O)n1c(C([NH-])=O)cc2ccc(C)cc21 (3D coordinates assigned)
CC(=O)OCCC(=O)n1c(C([NH-])=O)cc2ccc(C)cc21 (optimized conformer: 68.91891160788137 kcal/mol)

>  <smiles>  (93) 
CC(=O)OCCC(=O)n1c(C(N)=O)cc2ccc(C)cc21

>  <score_type>  (93) 
oracle

>  <origin>  (93) 
adg

>  <m_score__min__energy>  (93) 
-9.9399999999999995

>  <m_primary>  (93) 
energy

$$$$
96:0
     RDKit          3D

 44 45  0  0  0  0  0  0  0  0999 V2000
   -9.1940   19.5220  -33.0170 N   0  0  0  0  0  0  0  0  0  0  0  0
   -8.1940   18.8550  -32.2440 C   0  0  0  0  0  0  0  0  0  0  0  0
   -8.5470   18.1420  -31.2680 O   0  0  0  0  0  0  0  0  0  0  0  0
   -6.7580   19.0260  -32.5580 C   0  0  0  0  0  0  0  0  0  0  0  0
   -5.8730   17.9650  -32.7410 C   0  0  0  0  0  0  0  0  0  0  0  0
   -4.6820   18.5440  -33.1140 C   0  0  0  0  0  0  0  0  0  0  0  0
   -3.4590   17.9550  -33.4200 C   0  0  0  0  0  0  0  0  0  0  0  0
   -2.3880   18.7990  -33.7560 C   0  0  0  0  0  0  0  0  0  0  0  0
   -2.5470   20.2080  -33.7720 C   0  0  0  0  0  0  0  0  0  0  0  0
   -1.4170   21.0330  -34.1140 N   0  0  0  0  0  0  0  0  0  0  0  0
   -0.0230   20.6760  -33.8550 C   0  0  0  0  0  0  0  0  0  0  0  0
    0.9000   21.5710  -34.6200 C   0  0  0  0  0  0  0  0  0  0  0  0
    2.1320   21.3220  -34.6640 O   0  0  0  0  0  0  0  0  0  0  0  0
    0.3940   22.6630  -35.3150 O   0  0  0  0  0  0  0  0  0  0  0  0
   -3.8080   20.7670  -33.4500 C   0  0  0  0  0  0  0  0  0  0  0  0
   -4.8650   19.9010  -33.1430 C   0  0  0  0  0  0  0  0  0  0  0  0
   -6.1360   20.2140  -32.8040 N   0  0  0  0  0  0  0  0  0  0  0  0
   -6.6870   21.5370  -32.6880 C   0  0  0  0  0  0  0  0  0  0  0  0
   -7.9360   21.6940  -32.5990 O   0  0  0  0  0  0  0  0  0  0  0  0
   -5.8350   22.6440  -32.6620 O   0  0  0  0  0  0  0  0  0  0  0  0
   -6.0140   23.7350  -31.7660 C   0  0  0  0  0  0  0  0  0  0  0  0
   -5.2840   23.4950  -30.5680 O   0  0  0  0  0  0  0  0  0  0  0  0
   -4.2320   24.3120  -30.1430 C   0  0  0  0  0  0  0  0  0  0  0  0
   -3.8890   25.3230  -30.8160 O   0  0  0  0  0  0  0  0  0  0  0  0
   -3.5350   24.0080  -28.8530 C   0  0  0  0  0  0  0  0  0  0  0  0
   -2.0840   23.5750  -29.0860 C   0  0  0  0  0  0  0  0  0  0  0  0
   -1.1340   24.7240  -28.9310 C   0  0  0  0  0  0  0  0  0  0  0  0
    0.0890   24.5080  -28.7240 O   0  0  0  0  0  0  0  0  0  0  0  0
   -1.6070   26.0290  -28.9700 O   0  0  0  0  0  0  0  0  0  0  0  0
   -8.9450   20.0750  -33.8650 H   0  0  0  0  0  0  0  0  0  0  0  0
  -10.2030   19.4250  -32.7620 H   0  0  0  0  0  0  0  0  0  0  0  0
   -6.0823   16.8926  -32.6142 H   0  0  0  0  0  0  0  0  0  0  0  0
   -3.3349   16.8622  -33.3994 H   0  0  0  0  0  0  0  0  0  0  0  0
   -1.4117   18.3608  -34.0104 H   0  0  0  0  0  0  0  0  0  0  0  0
   -1.5950   21.9490  -34.5870 H   0  0  0  0  0  0  0  0  0  0  0  0
    0.1828   20.7788  -32.7793 H   0  0  0  0  0  0  0  0  0  0  0  0
    0.1429   19.6371  -34.1763 H   0  0  0  0  0  0  0  0  0  0  0  0
   -3.9539   21.8572  -33.4413 H   0  0  0  0  0  0  0  0  0  0  0  0
   -5.6494   24.6594  -32.2377 H   0  0  0  0  0  0  0  0  0  0  0  0
   -7.0827   23.8395  -31.5273 H   0  0  0  0  0  0  0  0  0  0  0  0
   -3.5420   24.9091  -28.2222 H   0  0  0  0  0  0  0  0  0  0  0  0
   -4.0668   23.1805  -28.3606 H   0  0  0  0  0  0  0  0  0  0  0  0
   -1.8227   22.7947  -28.3561 H   0  0  0  0  0  0  0  0  0  0  0  0
   -1.9992   23.1947  -30.1147 H   0  0  0  0  0  0  0  0  0  0  0  0
  1  2  1  0
  2  3  2  0
  2  4  1  0
  4  5  2  0
  5  6  1  0
  6  7  2  0
  7  8  1  0
  8  9  2  0
  9 10  1  0
 10 11  1  0
 11 12  1  0
 12 13  2  0
 12 14  1  0
  9 15  1  0
 15 16  2  0
 16 17  1  0
 17 18  1  0
 18 19  2  0
 18 20  1  0
 20 21  1  0
 21 22  1  0
 22 23  1  0
 23 24  2  0
 23 25  1  0
 25 26  1  0
 26 27  1  0
 27 28  2  0
 27 29  1  0
 17  4  1  0
 16  6  1  0
  1 30  1  0
  1 31  1  0
  5 32  1  0
  7 33  1  0
  8 34  1  0
 10 35  1  0
 11 36  1  0
 11 37  1  0
 15 38  1  0
 21 39  1  0
 21 40  1  0
 25 41  1  0
 25 42  1  0
 26 43  1  0
 26 44  1  0
M  CHG  2  14  -1  29  -1
M  END
>  <UniqueID>  (94) 
93

>  <SMILES>  (94) 
NC(=O)c1cc2ccc(NCC(=O)[O-])cc2n1C(=O)OCOC(=O)CCC(=O)[O-]

>  <Energy>  (94) 
72.75547212367296

>  <Genealogy>  (94) 
NC(=O)c1cc2ccc(NCC(=O)[O-])cc2n1C(=O)OCOC(=O)CCC(=O)[O-] (protonated)
NC(=O)c1cc2ccc(NCC(=O)[O-])cc2n1C(=O)OCOC(=O)CCC(=O)[O-] (3D coordinates assigned)
NC(=O)c1cc2ccc(NCC(=O)[O-])cc2n1C(=O)OCOC(=O)CCC(=O)[O-] (optimized conformer: 72.75547212367296 kcal/mol)

>  <smiles>  (94) 
NC(=O)c1cc2ccc(NCC(=O)O)cc2n1C(=O)OCOC(=O)CCC(=O)O

>  <score_type>  (94) 
oracle

>  <origin>  (94) 
adg

>  <m_score__min__energy>  (94) 
-10.94

>  <m_primary>  (94) 
energy

$$$$
97:0
     RDKit          3D

 41 42  0  0  0  0  0  0  0  0999 V2000
   -1.5400   20.6730  -31.1560 C   0  0  0  0  0  0  0  0  0  0  0  0
   -2.0070   21.4790  -29.9520 C   0  0  1  0  0  0  0  0  0  0  0  0
   -1.3320   22.7350  -29.9530 O   0  0  0  0  0  0  0  0  0  0  0  0
   -1.2320   23.5620  -28.8300 C   0  0  0  0  0  0  0  0  0  0  0  0
   -2.2340   23.7660  -28.0910 O   0  0  0  0  0  0  0  0  0  0  0  0
    0.0000   24.1570  -28.5380 O   0  0  0  0  0  0  0  0  0  0  0  0
    0.1830   25.0900  -27.4750 C   0  0  0  0  0  0  0  0  0  0  0  0
   -0.5170   26.3740  -27.7840 C   0  0  0  0  0  0  0  0  0  0  0  0
   -0.4580   27.3390  -26.9770 O   0  0  0  0  0  0  0  0  0  0  0  0
   -1.2580   26.4980  -28.9520 O   0  0  0  0  0  0  0  0  0  0  0  0
   -3.4160   21.6900  -30.0630 O   0  0  0  0  0  0  0  0  0  0  0  0
   -4.0460   22.2440  -31.1850 C   0  0  0  0  0  0  0  0  0  0  0  0
   -3.4240   22.3610  -32.2760 O   0  0  0  0  0  0  0  0  0  0  0  0
   -5.4030   22.7060  -31.0780 N   0  0  0  0  0  0  0  0  0  0  0  0
   -5.8170   23.9760  -30.8060 C   0  0  0  0  0  0  0  0  0  0  0  0
   -4.9500   25.0890  -30.3770 C   0  0  0  0  0  0  0  0  0  0  0  0
   -3.5720   24.8720  -30.0710 N   0  0  0  0  0  0  0  0  0  0  0  0
   -5.4430   26.2390  -30.2280 O   0  0  0  0  0  0  0  0  0  0  0  0
   -7.1990   24.0830  -30.9320 C   0  0  0  0  0  0  0  0  0  0  0  0
   -7.6280   22.8230  -31.2810 C   0  0  0  0  0  0  0  0  0  0  0  0
   -8.9110   22.3630  -31.5610 C   0  0  0  0  0  0  0  0  0  0  0  0
   -9.0620   21.0190  -31.9420 C   0  0  0  0  0  0  0  0  0  0  0  0
   -7.9370   20.1580  -32.0290 C   0  0  0  0  0  0  0  0  0  0  0  0
   -8.1050   18.7340  -32.4940 C   0  0  0  0  0  0  0  0  0  0  0  0
   -9.3700   18.5780  -33.0330 F   0  0  0  0  0  0  0  0  0  0  0  0
   -7.9550   17.8540  -31.4350 F   0  0  0  0  0  0  0  0  0  0  0  0
   -7.1610   18.4200  -33.4560 F   0  0  0  0  0  0  0  0  0  0  0  0
   -6.6460   20.6700  -31.7640 C   0  0  0  0  0  0  0  0  0  0  0  0
   -6.5260   22.0090  -31.3640 C   0  0  0  0  0  0  0  0  0  0  0  0
   -1.0163   19.7691  -30.8114 H   0  0  0  0  0  0  0  0  0  0  0  0
   -2.4102   20.3835  -31.7633 H   0  0  0  0  0  0  0  0  0  0  0  0
   -0.8560   21.2840  -31.7633 H   0  0  0  0  0  0  0  0  0  0  0  0
   -1.7857   20.9425  -29.0175 H   0  0  0  0  0  0  0  0  0  0  0  0
   -0.2281   24.6671  -26.5465 H   0  0  0  0  0  0  0  0  0  0  0  0
    1.2582   25.2890  -27.3554 H   0  0  0  0  0  0  0  0  0  0  0  0
   -3.1860   23.9040  -30.0090 H   0  0  0  0  0  0  0  0  0  0  0  0
   -2.9560   25.6740  -29.8160 H   0  0  0  0  0  0  0  0  0  0  0  0
   -7.8158   24.9818  -30.7843 H   0  0  0  0  0  0  0  0  0  0  0  0
   -9.7812   23.0317  -31.4863 H   0  0  0  0  0  0  0  0  0  0  0  0
  -10.0639   20.6295  -32.1756 H   0  0  0  0  0  0  0  0  0  0  0  0
   -5.7557   20.0326  -31.8692 H   0  0  0  0  0  0  0  0  0  0  0  0
  1  2  1  0
  2  3  1  0
  3  4  1  0
  4  5  2  0
  4  6  1  0
  6  7  1  0
  7  8  1  0
  8  9  2  0
  8 10  1  0
  2 11  1  0
 11 12  1  0
 12 13  2  0
 12 14  1  0
 14 15  1  0
 15 16  1  0
 16 17  1  0
 16 18  2  0
 15 19  2  0
 19 20  1  0
 20 21  2  0
 21 22  1  0
 22 23  2  0
 23 24  1  0
 24 25  1  0
 24 26  1  0
 24 27  1  0
 23 28  1  0
 28 29  2  0
 29 14  1  0
 29 20  1  0
  1 30  1  0
  1 31  1  0
  1 32  1  0
  2 33  1  1
  7 34  1  0
  7 35  1  0
 17 36  1  0
 17 37  1  0
 19 38  1  0
 21 39  1  0
 22 40  1  0
 28 41  1  0
M  CHG  1  10  -1
M  END
>  <UniqueID>  (95) 
94

>  <SMILES>  (95) 
C[C@@H](OC(=O)OCC(=O)[O-])OC(=O)n1c(C(N)=O)cc2ccc(C(F)(F)F)cc21

>  <Energy>  (95) 
74.03603633737428

>  <Genealogy>  (95) 
CC(OC(=O)OCC(=O)[O-])OC(=O)n1c(C(N)=O)cc2ccc(C(F)(F)F)cc21 (protonated)
C[C@@H](OC(=O)OCC(=O)[O-])OC(=O)n1c(C(N)=O)cc2ccc(C(F)(F)F)cc21 (chirality)
C[C@@H](OC(=O)OCC(=O)[O-])OC(=O)n1c(C(N)=O)cc2ccc(C(F)(F)F)cc21 (3D coordinates assigned)
C[C@@H](OC(=O)OCC(=O)[O-])OC(=O)n1c(C(N)=O)cc2ccc(C(F)(F)F)cc21 (optimized conformer: 74.03603633737428 kcal/mol)

>  <smiles>  (95) 
CC(OC(=O)OCC(=O)O)OC(=O)n1c(C(N)=O)cc2ccc(C(F)(F)F)cc21

>  <score_type>  (95) 
oracle

>  <origin>  (95) 
adg

>  <m_score__min__energy>  (95) 
-9.8399999999999999

>  <m_primary>  (95) 
energy

$$$$
98:0
     RDKit          3D

 54 55  0  0  0  0  0  0  0  0999 V2000
   -3.4310   18.8910  -34.2150 C   0  0  0  0  0  0  0  0  0  0  0  0
   -4.4160   17.7970  -34.2570 N   0  0  0  0  0  0  0  0  0  0  0  0
   -3.9240   16.7220  -35.1350 C   0  0  0  0  0  0  0  0  0  0  0  0
   -4.6940   17.2760  -32.9010 C   0  0  0  0  0  0  0  0  0  0  0  0
   -6.0150   16.4860  -32.8610 C   0  0  0  0  0  0  0  0  0  0  0  0
   -7.2170   17.3090  -33.3530 C   0  0  0  0  0  0  0  0  0  0  0  0
   -6.8090   18.6330  -33.8340 N   0  0  0  0  0  0  0  0  0  0  0  0
   -7.0380   19.8430  -33.0900 C   0  0  0  0  0  0  0  0  0  0  0  0
   -8.3440   20.2360  -32.6950 C   0  0  0  0  0  0  0  0  0  0  0  0
   -8.5440   21.4120  -31.9510 C   0  0  0  0  0  0  0  0  0  0  0  0
   -7.4310   22.1780  -31.6260 C   0  0  0  0  0  0  0  0  0  0  0  0
   -7.3390   23.3440  -30.9020 C   0  0  0  0  0  0  0  0  0  0  0  0
   -5.9840   23.6630  -30.8860 C   0  0  0  0  0  0  0  0  0  0  0  0
   -5.4350   24.8990  -30.2840 C   0  0  0  0  0  0  0  0  0  0  0  0
   -5.8410   25.3150  -28.9790 N   0  0  0  0  0  0  0  0  0  0  0  0
   -4.6240   25.6130  -30.9310 O   0  0  0  0  0  0  0  0  0  0  0  0
   -5.2640   22.7310  -31.5740 N   0  0  0  0  0  0  0  0  0  0  0  0
   -3.8380   22.6770  -31.7390 C   0  0  0  0  0  0  0  0  0  0  0  0
   -3.3390   21.9220  -32.6160 O   0  0  0  0  0  0  0  0  0  0  0  0
   -3.0170   23.4600  -30.9120 O   0  0  0  0  0  0  0  0  0  0  0  0
   -2.3920   23.0410  -29.6900 C   0  0  0  0  0  0  0  0  0  0  0  0
   -1.8660   24.2570  -28.9020 C   0  0  0  0  0  0  0  0  0  0  0  0
   -1.2500   22.0470  -29.9790 C   0  0  0  0  0  0  0  0  0  0  0  0
   -3.4680   22.3340  -28.8520 C   0  0  0  0  0  0  0  0  0  0  0  0
   -6.1650   21.8260  -32.0170 C   0  0  0  0  0  0  0  0  0  0  0  0
   -5.9330   20.6470  -32.7350 C   0  0  0  0  0  0  0  0  0  0  0  0
   -3.2056   19.1414  -33.1679 H   0  0  0  0  0  0  0  0  0  0  0  0
   -2.5084   18.5734  -34.7229 H   0  0  0  0  0  0  0  0  0  0  0  0
   -3.8433   19.7753  -34.7229 H   0  0  0  0  0  0  0  0  0  0  0  0
   -3.5442   15.8921  -34.5210 H   0  0  0  0  0  0  0  0  0  0  0  0
   -4.7468   16.3617  -35.7699 H   0  0  0  0  0  0  0  0  0  0  0  0
   -3.1135   17.1092  -35.7699 H   0  0  0  0  0  0  0  0  0  0  0  0
   -3.8711   16.6123  -32.5972 H   0  0  0  0  0  0  0  0  0  0  0  0
   -4.7814   18.1304  -32.2137 H   0  0  0  0  0  0  0  0  0  0  0  0
   -5.9123   15.5971  -33.5007 H   0  0  0  0  0  0  0  0  0  0  0  0
   -6.2067   16.2144  -31.8124 H   0  0  0  0  0  0  0  0  0  0  0  0
   -7.7074   16.7669  -34.1750 H   0  0  0  0  0  0  0  0  0  0  0  0
   -7.9053   17.4494  -32.5065 H   0  0  0  0  0  0  0  0  0  0  0  0
   -6.3640   18.7160  -34.7760 H   0  0  0  0  0  0  0  0  0  0  0  0
   -9.2076   19.6143  -32.9738 H   0  0  0  0  0  0  0  0  0  0  0  0
   -9.5526   21.7170  -31.6352 H   0  0  0  0  0  0  0  0  0  0  0  0
   -8.1616   23.9053  -30.4348 H   0  0  0  0  0  0  0  0  0  0  0  0
   -6.4690   24.7210  -28.3930 H   0  0  0  0  0  0  0  0  0  0  0  0
   -5.4730   26.2030  -28.5740 H   0  0  0  0  0  0  0  0  0  0  0  0
   -1.9514   24.0597  -27.8232 H   0  0  0  0  0  0  0  0  0  0  0  0
   -0.8113   24.4330  -29.1602 H   0  0  0  0  0  0  0  0  0  0  0  0
   -2.4600   25.1461  -29.1602 H   0  0  0  0  0  0  0  0  0  0  0  0
   -0.8317   21.6829  -29.0291 H   0  0  0  0  0  0  0  0  0  0  0  0
   -1.6413   21.1969  -30.5571 H   0  0  0  0  0  0  0  0  0  0  0  0
   -0.4620   22.5518  -30.5571 H   0  0  0  0  0  0  0  0  0  0  0  0
   -3.2520   22.4759  -27.7828 H   0  0  0  0  0  0  0  0  0  0  0  0
   -4.4544   22.7605  -29.0866 H   0  0  0  0  0  0  0  0  0  0  0  0
   -3.4680   21.2593  -29.0866 H   0  0  0  0  0  0  0  0  0  0  0  0
   -4.9111   20.3530  -33.0168 H   0  0  0  0  0  0  0  0  0  0  0  0
  1  2  1  0
  2  3  1  0
  2  4  1  0
  4  5  1  0
  5  6  1  0
  6  7  1  0
  7  8  1  0
  8  9  2  0
  9 10  1  0
 10 11  2  0
 11 12  1  0
 12 13  2  0
 13 14  1  0
 14 15  1  0
 14 16  2  0
 13 17  1  0
 17 18  1  0
 18 19  2  0
 18 20  1  0
 20 21  1  0
 21 22  1  0
 21 23  1  0
 21 24  1  0
 17 25  1  0
 25 26  2  0
 26  8  1  0
 25 11  1  0
  1 27  1  0
  1 28  1  0
  1 29  1  0
  3 30  1  0
  3 31  1  0
  3 32  1  0
  4 33  1  0
  4 34  1  0
  5 35  1  0
  5 36  1  0
  6 37  1  0
  6 38  1  0
  7 39  1  0
  9 40  1  0
 10 41  1  0
 12 42  1  0
 15 43  1  0
 15 44  1  0
 22 45  1  0
 22 46  1  0
 22 47  1  0
 23 48  1  0
 23 49  1  0
 23 50  1  0
 24 51  1  0
 24 52  1  0
 24 53  1  0
 26 54  1  0
M  END
>  <UniqueID>  (96) 
95

>  <SMILES>  (96) 
CN(C)CCCNc1ccc2cc(C(N)=O)n(C(=O)OC(C)(C)C)c2c1

>  <Energy>  (96) 
84.09580763964169

>  <Genealogy>  (96) 
CN(C)CCCNc1ccc2cc(C(N)=O)n(C(=O)OC(C)(C)C)c2c1 (3D coordinates assigned)
CN(C)CCCNc1ccc2cc(C(N)=O)n(C(=O)OC(C)(C)C)c2c1 (optimized conformer: 84.09580763964169 kcal/mol)

>  <smiles>  (96) 
CN(C)CCCNc1ccc2cc(C(N)=O)n(C(=O)OC(C)(C)C)c2c1

>  <score_type>  (96) 
oracle

>  <origin>  (96) 
adg

>  <m_score__min__energy>  (96) 
-8.8300000000000001

>  <m_primary>  (96) 
energy

$$$$
