0:0
     RDKit          3D

 43 44  0  0  0  0  0  0  0  0999 V2000
   -8.0050   18.6170  -32.7260 C   0  0  0  0  0  0  0  0  0  0  0  0
   -7.9110   20.0410  -32.2620 C   0  0  0  0  0  0  0  0  0  0  0  0
   -9.0700   20.7130  -31.8020 C   0  0  0  0  0  0  0  0  0  0  0  0
   -8.9900   22.0340  -31.3250 C   0  0  0  0  0  0  0  0  0  0  0  0
   -7.7400   22.6440  -31.3020 C   0  0  0  0  0  0  0  0  0  0  0  0
   -7.3740   23.9020  -30.8810 C   0  0  0  0  0  0  0  0  0  0  0  0
   -5.9930   23.9640  -31.0600 C   0  0  0  0  0  0  0  0  0  0  0  0
   -5.1660   25.1150  -30.6470 C   0  0  0  0  0  0  0  0  0  0  0  0
   -3.7520   25.1130  -30.8350 N   0  0  0  0  0  0  0  0  0  0  0  0
   -5.7130   26.1070  -30.0950 O   0  0  0  0  0  0  0  0  0  0  0  0
   -5.5270   22.7900  -31.5740 N   0  0  0  0  0  0  0  0  0  0  0  0
   -4.1760   22.4540  -31.9250 C   0  0  0  0  0  0  0  0  0  0  0  0
   -3.7900   22.6190  -33.1140 O   0  0  0  0  0  0  0  0  0  0  0  0
   -3.2780   21.8920  -30.9490 N   0  0  0  0  0  0  0  0  0  0  0  0
   -2.7080   20.5610  -31.1750 C   0  0  0  0  0  0  0  0  0  0  0  0
   -2.7820   22.6990  -29.8620 C   0  0  0  0  0  0  0  0  0  0  0  0
   -3.3720   22.6850  -28.7480 O   0  0  0  0  0  0  0  0  0  0  0  0
   -1.6310   23.4800  -30.0370 O   0  0  0  0  0  0  0  0  0  0  0  0
   -0.6610   23.7180  -29.0210 C   0  0  0  0  0  0  0  0  0  0  0  0
   -0.9160   25.0660  -28.3230 C   0  0  1  0  0  0  0  0  0  0  0  0
   -1.2480   26.0380  -29.2800 O   0  0  0  0  0  0  0  0  0  0  0  0
   -2.0140   24.9820  -27.2430 C   0  0  0  0  0  0  0  0  0  0  0  0
   -3.2790   24.9350  -27.8410 O   0  0  0  0  0  0  0  0  0  0  0  0
   -6.6070   21.9940  -31.7170 C   0  0  0  0  0  0  0  0  0  0  0  0
   -6.6570   20.6870  -32.2110 C   0  0  0  0  0  0  0  0  0  0  0  0
   -8.0491   17.9491  -31.8531 H   0  0  0  0  0  0  0  0  0  0  0  0
   -8.9136   18.4882  -33.3325 H   0  0  0  0  0  0  0  0  0  0  0  0
   -7.1212   18.3699  -33.3325 H   0  0  0  0  0  0  0  0  0  0  0  0
  -10.0414   20.1972  -31.8179 H   0  0  0  0  0  0  0  0  0  0  0  0
   -9.8880   22.5680  -30.9809 H   0  0  0  0  0  0  0  0  0  0  0  0
   -8.0315   24.6910  -30.4870 H   0  0  0  0  0  0  0  0  0  0  0  0
   -3.1000   25.1330  -30.0180 H   0  0  0  0  0  0  0  0  0  0  0  0
   -2.5024   20.0810  -30.2069 H   0  0  0  0  0  0  0  0  0  0  0  0
   -3.4225   19.9479  -31.7439 H   0  0  0  0  0  0  0  0  0  0  0  0
   -1.7712   20.6551  -31.7439 H   0  0  0  0  0  0  0  0  0  0  0  0
   -0.7146   22.9107  -28.2757 H   0  0  0  0  0  0  0  0  0  0  0  0
    0.3354   23.7460  -29.4861 H   0  0  0  0  0  0  0  0  0  0  0  0
    0.0133   25.3484  -27.8066 H   0  0  0  0  0  0  0  0  0  0  0  0
   -2.0140   25.6770  -29.8100 H   0  0  0  0  0  0  0  0  0  0  0  0
   -1.8628   24.0737  -26.6412 H   0  0  0  0  0  0  0  0  0  0  0  0
   -1.9540   25.8729  -26.6006 H   0  0  0  0  0  0  0  0  0  0  0  0
   -3.1180   24.8370  -28.8190 H   0  0  0  0  0  0  0  0  0  0  0  0
   -5.7440   20.1761  -32.5507 H   0  0  0  0  0  0  0  0  0  0  0  0
  1  2  1  0
  2  3  2  0
  3  4  1  0
  4  5  2  0
  5  6  1  0
  6  7  2  0
  7  8  1  0
  8  9  1  0
  8 10  2  0
  7 11  1  0
 11 12  1  0
 12 13  2  0
 12 14  1  0
 14 15  1  0
 14 16  1  0
 16 17  2  0
 16 18  1  0
 18 19  1  0
 19 20  1  0
 20 21  1  0
 20 22  1  0
 22 23  1  0
 11 24  1  0
 24 25  2  0
 25  2  1  0
 24  5  1  0
  1 26  1  0
  1 27  1  0
  1 28  1  0
  3 29  1  0
  4 30  1  0
  6 31  1  0
  9 32  1  0
 15 33  1  0
 15 34  1  0
 15 35  1  0
 19 36  1  0
 19 37  1  0
 20 38  1  1
 21 39  1  0
 22 40  1  0
 22 41  1  0
 23 42  1  0
 25 43  1  0
M  CHG  1   9  -1
M  END
>  <UniqueID>  (1) 
1

>  <SMILES>  (1) 
Cc1ccc2cc(C([NH-])=O)n(C(=O)N(C)C(=O)OC[C@@H](O)CO)c2c1

>  <Energy>  (1) 
78.98726211409222

>  <Genealogy>  (1) 
Cc1ccc2cc(C([NH-])=O)n(C(=O)N(C)C(=O)OC[C@@H](O)CO)c2c1 (protonated)
Cc1ccc2cc(C([NH-])=O)n(C(=O)N(C)C(=O)OC[C@@H](O)CO)c2c1 (3D coordinates assigned)
Cc1ccc2cc(C([NH-])=O)n(C(=O)N(C)C(=O)OC[C@@H](O)CO)c2c1 (optimized conformer: 78.98726211409222 kcal/mol)

>  <smiles>  (1) 
Cc1ccc2cc(C(N)=O)n(C(=O)N(C)C(=O)OC[C@@H](O)CO)c2c1

>  <score_type>  (1) 
oracle

>  <origin>  (1) 
adg

>  <m_score__min__energy>  (1) 
-10.24

>  <m_primary>  (1) 
energy

$$$$
1:0
     RDKit          3D

 41 42  0  0  0  0  0  0  0  0999 V2000
   -3.0390   24.5500  -27.6370 C   0  0  0  0  0  0  0  0  0  0  0  0
   -1.7970   24.7830  -28.3950 N   0  0  0  0  0  0  0  0  0  0  0  0
   -1.2340   26.0910  -28.0230 C   0  0  0  0  0  0  0  0  0  0  0  0
   -0.8150   23.6990  -28.1630 C   0  0  0  0  0  0  0  0  0  0  0  0
   -0.7560   22.7690  -29.3730 C   0  0  0  0  0  0  0  0  0  0  0  0
   -1.8090   23.0710  -30.2820 O   0  0  0  0  0  0  0  0  0  0  0  0
   -3.0470   22.4240  -30.2470 C   0  0  0  0  0  0  0  0  0  0  0  0
   -3.4000   21.7710  -29.2270 O   0  0  0  0  0  0  0  0  0  0  0  0
   -3.9320   22.4940  -31.4170 C   0  0  0  0  0  0  0  0  0  0  0  0
   -3.4580   22.2880  -32.5660 O   0  0  0  0  0  0  0  0  0  0  0  0
   -5.3300   22.7870  -31.2670 N   0  0  0  0  0  0  0  0  0  0  0  0
   -5.8920   23.9580  -30.8540 C   0  0  0  0  0  0  0  0  0  0  0  0
   -5.1620   25.2100  -30.5660 C   0  0  0  0  0  0  0  0  0  0  0  0
   -3.7640   25.2970  -30.8330 N   0  0  0  0  0  0  0  0  0  0  0  0
   -5.7580   26.2020  -30.0660 O   0  0  0  0  0  0  0  0  0  0  0  0
   -7.2790   23.8330  -30.7830 C   0  0  0  0  0  0  0  0  0  0  0  0
   -7.5480   22.5370  -31.1630 C   0  0  0  0  0  0  0  0  0  0  0  0
   -8.7630   21.8670  -31.2670 C   0  0  0  0  0  0  0  0  0  0  0  0
   -8.7400   20.5200  -31.6630 C   0  0  0  0  0  0  0  0  0  0  0  0
   -7.5110   19.8590  -31.9210 C   0  0  0  0  0  0  0  0  0  0  0  0
   -7.5030   18.4230  -32.3820 C   0  0  0  0  0  0  0  0  0  0  0  0
   -8.7850   17.9130  -32.3010 F   0  0  0  0  0  0  0  0  0  0  0  0
   -6.6630   17.6600  -31.5890 F   0  0  0  0  0  0  0  0  0  0  0  0
   -7.0640   18.3320  -33.6920 F   0  0  0  0  0  0  0  0  0  0  0  0
   -6.2990   20.5810  -31.8240 C   0  0  0  0  0  0  0  0  0  0  0  0
   -6.3550   21.9270  -31.4460 C   0  0  0  0  0  0  0  0  0  0  0  0
   -2.8237   24.5904  -26.5590 H   0  0  0  0  0  0  0  0  0  0  0  0
   -3.7758   25.3256  -27.8931 H   0  0  0  0  0  0  0  0  0  0  0  0
   -3.4446   23.5601  -27.8931 H   0  0  0  0  0  0  0  0  0  0  0  0
   -1.1974   26.1761  -26.9269 H   0  0  0  0  0  0  0  0  0  0  0  0
   -0.2170   26.1822  -28.4320 H   0  0  0  0  0  0  0  0  0  0  0  0
   -1.8669   26.8923  -28.4320 H   0  0  0  0  0  0  0  0  0  0  0  0
    0.1789   24.1396  -27.9952 H   0  0  0  0  0  0  0  0  0  0  0  0
   -1.1241   23.1191  -27.2809 H   0  0  0  0  0  0  0  0  0  0  0  0
    0.2105   22.8974  -29.8822 H   0  0  0  0  0  0  0  0  0  0  0  0
   -0.8672   21.7297  -29.0303 H   0  0  0  0  0  0  0  0  0  0  0  0
   -3.0660   24.8850  -30.1740 H   0  0  0  0  0  0  0  0  0  0  0  0
   -8.0040   24.6053  -30.4865 H   0  0  0  0  0  0  0  0  0  0  0  0
   -9.7123   22.3768  -31.0458 H   0  0  0  0  0  0  0  0  0  0  0  0
   -9.6863   19.9704  -31.7746 H   0  0  0  0  0  0  0  0  0  0  0  0
   -5.3356   20.0962  -32.0405 H   0  0  0  0  0  0  0  0  0  0  0  0
  1  2  1  0
  2  3  1  0
  2  4  1  0
  4  5  1  0
  5  6  1  0
  6  7  1  0
  7  8  2  0
  7  9  1  0
  9 10  2  0
  9 11  1  0
 11 12  1  0
 12 13  1  0
 13 14  1  0
 13 15  2  0
 12 16  2  0
 16 17  1  0
 17 18  2  0
 18 19  1  0
 19 20  2  0
 20 21  1  0
 21 22  1  0
 21 23  1  0
 21 24  1  0
 20 25  1  0
 25 26  2  0
 26 11  1  0
 26 17  1  0
  1 27  1  0
  1 28  1  0
  1 29  1  0
  3 30  1  0
  3 31  1  0
  3 32  1  0
  4 33  1  0
  4 34  1  0
  5 35  1  0
  5 36  1  0
 14 37  1  0
 16 38  1  0
 18 39  1  0
 19 40  1  0
 25 41  1  0
M  CHG  1  14  -1
M  END
>  <UniqueID>  (2) 
2

>  <SMILES>  (2) 
CN(C)CCOC(=O)C(=O)n1c(C([NH-])=O)cc2ccc(C(F)(F)F)cc21

>  <Energy>  (2) 
77.79365350291441

>  <Genealogy>  (2) 
CN(C)CCOC(=O)C(=O)n1c(C([NH-])=O)cc2ccc(C(F)(F)F)cc21 (protonated)
CN(C)CCOC(=O)C(=O)n1c(C([NH-])=O)cc2ccc(C(F)(F)F)cc21 (3D coordinates assigned)
CN(C)CCOC(=O)C(=O)n1c(C([NH-])=O)cc2ccc(C(F)(F)F)cc21 (optimized conformer: 77.79365350291441 kcal/mol)

>  <smiles>  (2) 
CN(C)CCOC(=O)C(=O)n1c(C(N)=O)cc2ccc(C(F)(F)F)cc21

>  <score_type>  (2) 
oracle

>  <origin>  (2) 
adg

>  <m_score__min__energy>  (2) 
-9.5299999999999994

>  <m_primary>  (2) 
energy

$$$$
2:0
     RDKit          3D

 40 41  0  0  0  0  0  0  0  0999 V2000
   -1.7400   24.4170  -27.0600 C   0  0  0  0  0  0  0  0  0  0  0  0
   -2.7580   23.4240  -27.6490 C   0  0  0  0  0  0  0  0  0  0  0  0
   -2.4050   21.9980  -27.1800 C   0  0  0  0  0  0  0  0  0  0  0  0
   -4.1730   23.7770  -27.1480 C   0  0  0  0  0  0  0  0  0  0  0  0
   -2.7080   23.5130  -29.1620 C   0  0  0  0  0  0  0  0  0  0  0  0
   -2.1470   24.5020  -29.7110 O   0  0  0  0  0  0  0  0  0  0  0  0
   -3.2270   22.4670  -29.9390 O   0  0  0  0  0  0  0  0  0  0  0  0
   -3.9050   22.6180  -31.1550 C   0  0  0  0  0  0  0  0  0  0  0  0
   -3.2720   22.6740  -32.2440 O   0  0  0  0  0  0  0  0  0  0  0  0
   -5.3390   22.7200  -31.1550 N   0  0  0  0  0  0  0  0  0  0  0  0
   -6.0880   23.8350  -30.9250 C   0  0  0  0  0  0  0  0  0  0  0  0
   -5.5640   25.1410  -30.4630 C   0  0  0  0  0  0  0  0  0  0  0  0
   -4.2300   25.5420  -30.7760 N   0  0  0  0  0  0  0  0  0  0  0  0
   -6.3050   25.9260  -29.8150 O   0  0  0  0  0  0  0  0  0  0  0  0
   -7.4410   23.5610  -31.0990 C   0  0  0  0  0  0  0  0  0  0  0  0
   -7.5030   22.2310  -31.4430 C   0  0  0  0  0  0  0  0  0  0  0  0
   -8.6030   21.4380  -31.7550 C   0  0  0  0  0  0  0  0  0  0  0  0
   -8.3710   20.1000  -32.1140 C   0  0  0  0  0  0  0  0  0  0  0  0
   -7.0530   19.5750  -32.1450 C   0  0  0  0  0  0  0  0  0  0  0  0
   -6.8130   18.1550  -32.5930 C   0  0  0  0  0  0  0  0  0  0  0  0
   -7.9700   17.4200  -32.4110 F   0  0  0  0  0  0  0  0  0  0  0  0
   -6.4620   18.1190  -33.9310 F   0  0  0  0  0  0  0  0  0  0  0  0
   -5.7910   17.5770  -31.8610 F   0  0  0  0  0  0  0  0  0  0  0  0
   -5.9590   20.4200  -31.8450 C   0  0  0  0  0  0  0  0  0  0  0  0
   -6.2210   21.7440  -31.4710 C   0  0  0  0  0  0  0  0  0  0  0  0
   -1.7816   24.3764  -25.9615 H   0  0  0  0  0  0  0  0  0  0  0  0
   -0.7283   24.1492  -27.3988 H   0  0  0  0  0  0  0  0  0  0  0  0
   -1.9826   25.4350  -27.3988 H   0  0  0  0  0  0  0  0  0  0  0  0
   -2.3969   21.9651  -26.0805 H   0  0  0  0  0  0  0  0  0  0  0  0
   -3.1550   21.2900  -27.5625 H   0  0  0  0  0  0  0  0  0  0  0  0
   -1.4113   21.7217  -27.5625 H   0  0  0  0  0  0  0  0  0  0  0  0
   -4.1825   23.7794  -26.0480 H   0  0  0  0  0  0  0  0  0  0  0  0
   -4.4555   24.7732  -27.5193 H   0  0  0  0  0  0  0  0  0  0  0  0
   -4.8903   23.0303  -27.5193 H   0  0  0  0  0  0  0  0  0  0  0  0
   -3.5710   24.8980  -31.2680 H   0  0  0  0  0  0  0  0  0  0  0  0
   -3.8810   26.4790  -30.4750 H   0  0  0  0  0  0  0  0  0  0  0  0
   -8.2827   24.2601  -30.9855 H   0  0  0  0  0  0  0  0  0  0  0  0
   -9.6237   21.8467  -31.7215 H   0  0  0  0  0  0  0  0  0  0  0  0
   -9.2207   19.4517  -32.3741 H   0  0  0  0  0  0  0  0  0  0  0  0
   -4.9263   20.0458  -31.9041 H   0  0  0  0  0  0  0  0  0  0  0  0
  1  2  1  0
  2  3  1  0
  2  4  1  0
  2  5  1  0
  5  6  2  0
  5  7  1  0
  7  8  1  0
  8  9  2  0
  8 10  1  0
 10 11  1  0
 11 12  1  0
 12 13  1  0
 12 14  2  0
 11 15  2  0
 15 16  1  0
 16 17  2  0
 17 18  1  0
 18 19  2  0
 19 20  1  0
 20 21  1  0
 20 22  1  0
 20 23  1  0
 19 24  1  0
 24 25  2  0
 25 10  1  0
 25 16  1  0
  1 26  1  0
  1 27  1  0
  1 28  1  0
  3 29  1  0
  3 30  1  0
  3 31  1  0
  4 32  1  0
  4 33  1  0
  4 34  1  0
 13 35  1  0
 13 36  1  0
 15 37  1  0
 17 38  1  0
 18 39  1  0
 24 40  1  0
M  END
>  <UniqueID>  (3) 
3

>  <SMILES>  (3) 
CC(C)(C)C(=O)OC(=O)n1c(C(N)=O)cc2ccc(C(F)(F)F)cc21

>  <Energy>  (3) 
75.29798106970908

>  <Genealogy>  (3) 
CC(C)(C)C(=O)OC(=O)n1c(C(N)=O)cc2ccc(C(F)(F)F)cc21 (3D coordinates assigned)
CC(C)(C)C(=O)OC(=O)n1c(C(N)=O)cc2ccc(C(F)(F)F)cc21 (optimized conformer: 75.29798106970908 kcal/mol)

>  <smiles>  (3) 
CC(C)(C)C(=O)OC(=O)n1c(C(N)=O)cc2ccc(C(F)(F)F)cc21

>  <score_type>  (3) 
oracle

>  <origin>  (3) 
adg

>  <m_score__min__energy>  (3) 
-8.9000000000000004

>  <m_primary>  (3) 
energy

$$$$
3:0
     RDKit          3D

 37 39  0  0  0  0  0  0  0  0999 V2000
   -4.2530   24.9290  -26.3650 C   0  0  0  0  0  0  0  0  0  0  0  0
   -3.0760   24.5910  -27.2200 C   0  0  0  0  0  0  0  0  0  0  0  0
   -2.0300   25.3660  -27.3900 O   0  0  0  0  0  0  0  0  0  0  0  0
   -1.2300   24.7160  -28.2040 C   0  0  0  0  0  0  0  0  0  0  0  0
   -0.1190   25.1610  -28.5920 O   0  0  0  0  0  0  0  0  0  0  0  0
   -1.7160   23.5520  -28.5680 O   0  0  0  0  0  0  0  0  0  0  0  0
   -2.8770   23.4430  -27.9670 C   0  0  0  0  0  0  0  0  0  0  0  0
   -3.7920   22.2650  -28.1020 C   0  0  0  0  0  0  0  0  0  0  0  0
   -3.6620   21.6870  -29.3980 O   0  0  0  0  0  0  0  0  0  0  0  0
   -3.8790   22.4010  -30.5820 C   0  0  0  0  0  0  0  0  0  0  0  0
   -2.9130   22.6810  -31.3440 O   0  0  0  0  0  0  0  0  0  0  0  0
   -5.2060   22.8350  -30.9190 N   0  0  0  0  0  0  0  0  0  0  0  0
   -5.7240   24.0930  -30.8290 C   0  0  0  0  0  0  0  0  0  0  0  0
   -4.9720   25.3180  -30.4840 C   0  0  0  0  0  0  0  0  0  0  0  0
   -3.5460   25.2990  -30.4870 N   0  0  0  0  0  0  0  0  0  0  0  0
   -5.5740   26.3720  -30.1510 O   0  0  0  0  0  0  0  0  0  0  0  0
   -7.0690   24.0940  -31.1940 C   0  0  0  0  0  0  0  0  0  0  0  0
   -7.3590   22.7890  -31.5210 C   0  0  0  0  0  0  0  0  0  0  0  0
   -8.5550   22.2180  -31.9460 C   0  0  0  0  0  0  0  0  0  0  0  0
   -8.5730   20.8340  -32.1900 C   0  0  0  0  0  0  0  0  0  0  0  0
   -7.4070   20.0520  -32.0020 C   0  0  0  0  0  0  0  0  0  0  0  0
   -7.4540   18.5720  -32.2530 C   0  0  0  0  0  0  0  0  0  0  0  0
   -8.7410   18.1060  -32.0540 F   0  0  0  0  0  0  0  0  0  0  0  0
   -7.0680   18.3060  -33.5540 F   0  0  0  0  0  0  0  0  0  0  0  0
   -6.2110   20.6660  -31.5670 C   0  0  0  0  0  0  0  0  0  0  0  0
   -6.2180   22.0490  -31.3480 C   0  0  0  0  0  0  0  0  0  0  0  0
   -3.9713   24.8481  -25.3048 H   0  0  0  0  0  0  0  0  0  0  0  0
   -4.5794   25.9572  -26.5803 H   0  0  0  0  0  0  0  0  0  0  0  0
   -5.0752   24.2307  -26.5803 H   0  0  0  0  0  0  0  0  0  0  0  0
   -3.5321   21.5140  -27.3415 H   0  0  0  0  0  0  0  0  0  0  0  0
   -4.8305   22.5990  -27.9604 H   0  0  0  0  0  0  0  0  0  0  0  0
   -3.0200   24.4850  -30.1000 H   0  0  0  0  0  0  0  0  0  0  0  0
   -7.7534   24.9549  -31.2160 H   0  0  0  0  0  0  0  0  0  0  0  0
   -9.4577   22.8306  -32.0865 H   0  0  0  0  0  0  0  0  0  0  0  0
   -9.5020   20.3532  -32.5304 H   0  0  0  0  0  0  0  0  0  0  0  0
   -6.7682   18.0675  -31.5565 H   0  0  0  0  0  0  0  0  0  0  0  0
   -5.2987   20.0733  -31.4047 H   0  0  0  0  0  0  0  0  0  0  0  0
  1  2  1  0
  2  3  1  0
  3  4  1  0
  4  5  2  0
  4  6  1  0
  6  7  1  0
  7  8  1  0
  8  9  1  0
  9 10  1  0
 10 11  2  0
 10 12  1  0
 12 13  1  0
 13 14  1  0
 14 15  1  0
 14 16  2  0
 13 17  2  0
 17 18  1  0
 18 19  2  0
 19 20  1  0
 20 21  2  0
 21 22  1  0
 22 23  1  0
 22 24  1  0
 21 25  1  0
 25 26  2  0
  7  2  2  0
 26 12  1  0
 26 18  1  0
  1 27  1  0
  1 28  1  0
  1 29  1  0
  8 30  1  0
  8 31  1  0
 15 32  1  0
 17 33  1  0
 19 34  1  0
 20 35  1  0
 22 36  1  0
 25 37  1  0
M  CHG  1  15  -1
M  END
>  <UniqueID>  (4) 
4

>  <SMILES>  (4) 
Cc1oc(=O)oc1COC(=O)n1c(C([NH-])=O)cc2ccc(C(F)F)cc21

>  <Energy>  (4) 
107.24827322867979

>  <Genealogy>  (4) 
Cc1oc(=O)oc1COC(=O)n1c(C([NH-])=O)cc2ccc(C(F)F)cc21 (protonated)
Cc1oc(=O)oc1COC(=O)n1c(C([NH-])=O)cc2ccc(C(F)F)cc21 (3D coordinates assigned)
Cc1oc(=O)oc1COC(=O)n1c(C([NH-])=O)cc2ccc(C(F)F)cc21 (optimized conformer: 107.24827322867979 kcal/mol)

>  <smiles>  (4) 
Cc1oc(=O)oc1COC(=O)n1c(C(N)=O)cc2ccc(C(F)F)cc21

>  <score_type>  (4) 
oracle

>  <origin>  (4) 
adg

>  <m_score__min__energy>  (4) 
-10.32

>  <m_primary>  (4) 
energy

$$$$
4:0
     RDKit          3D

 42 44  0  0  0  0  0  0  0  0999 V2000
   -1.2760   25.8300  -28.8220 N   0  0  0  0  0  0  0  0  0  0  0  0
   -0.7560   24.5080  -28.9400 C   0  0  0  0  0  0  0  0  0  0  0  0
    0.2940   24.1990  -28.3180 O   0  0  0  0  0  0  0  0  0  0  0  0
   -1.3990   23.5200  -29.8310 C   0  0  0  0  0  0  0  0  0  0  0  0
   -0.7470   22.3890  -30.3160 C   0  0  0  0  0  0  0  0  0  0  0  0
   -1.6400   21.7990  -31.1810 C   0  0  0  0  0  0  0  0  0  0  0  0
   -1.5140   20.6400  -31.9410 C   0  0  0  0  0  0  0  0  0  0  0  0
   -2.6080   20.2480  -32.7290 C   0  0  0  0  0  0  0  0  0  0  0  0
   -3.8050   21.0100  -32.7400 C   0  0  0  0  0  0  0  0  0  0  0  0
   -4.9350   20.5810  -33.5280 N   0  0  0  0  0  0  0  0  0  0  0  0
   -4.9200   19.1250  -33.7550 C   0  0  0  0  0  0  0  0  0  0  0  0
   -6.2260   18.4500  -33.2930 C   0  0  0  0  0  0  0  0  0  0  0  0
   -6.9180   19.2960  -32.2930 N   0  0  0  0  0  0  0  0  0  0  0  0
   -7.7180   18.4830  -31.3660 C   0  0  0  0  0  0  0  0  0  0  0  0
   -9.1120   18.3700  -31.9450 C   0  0  0  0  0  0  0  0  0  0  0  0
   -9.2860   19.6320  -32.7650 C   0  0  1  0  0  0  0  0  0  0  0  0
  -10.1050   20.5290  -32.0980 F   0  0  0  0  0  0  0  0  0  0  0  0
   -7.8830   20.2130  -32.9300 C   0  0  0  0  0  0  0  0  0  0  0  0
   -3.8940   22.1810  -31.9510 C   0  0  0  0  0  0  0  0  0  0  0  0
   -2.7800   22.5590  -31.1920 C   0  0  0  0  0  0  0  0  0  0  0  0
   -2.6490   23.6200  -30.3640 N   0  0  0  0  0  0  0  0  0  0  0  0
   -3.6620   24.5870  -30.0430 C   0  0  0  0  0  0  0  0  0  0  0  0
   -4.3240   24.4870  -28.9770 O   0  0  0  0  0  0  0  0  0  0  0  0
   -3.9050   25.6550  -30.8970 O   0  0  0  0  0  0  0  0  0  0  0  0
   -2.2950   26.0200  -28.9510 H   0  0  0  0  0  0  0  0  0  0  0  0
    0.2653   22.0416  -30.0620 H   0  0  0  0  0  0  0  0  0  0  0  0
   -0.5862   20.0494  -31.9249 H   0  0  0  0  0  0  0  0  0  0  0  0
   -2.5363   19.3395  -33.3451 H   0  0  0  0  0  0  0  0  0  0  0  0
   -4.9610   21.0870  -34.4450 H   0  0  0  0  0  0  0  0  0  0  0  0
   -5.8150   20.8290  -33.0180 H   0  0  0  0  0  0  0  0  0  0  0  0
   -4.7845   18.9355  -34.8300 H   0  0  0  0  0  0  0  0  0  0  0  0
   -4.0938   18.7001  -33.1661 H   0  0  0  0  0  0  0  0  0  0  0  0
   -6.8849   18.3027  -34.1614 H   0  0  0  0  0  0  0  0  0  0  0  0
   -5.9837   17.4802  -32.8339 H   0  0  0  0  0  0  0  0  0  0  0  0
   -7.2720   17.4827  -31.2632 H   0  0  0  0  0  0  0  0  0  0  0  0
   -7.7492   18.9494  -30.3703 H   0  0  0  0  0  0  0  0  0  0  0  0
   -9.1971   17.4775  -32.5823 H   0  0  0  0  0  0  0  0  0  0  0  0
   -9.8815   18.2684  -31.1656 H   0  0  0  0  0  0  0  0  0  0  0  0
   -9.7564   19.4250  -33.7376 H   0  0  0  0  0  0  0  0  0  0  0  0
   -7.6472   20.3151  -33.9996 H   0  0  0  0  0  0  0  0  0  0  0  0
   -7.8281   21.2050  -32.4578 H   0  0  0  0  0  0  0  0  0  0  0  0
   -4.8164   22.7801  -31.9343 H   0  0  0  0  0  0  0  0  0  0  0  0
  1  2  1  0
  2  3  2  0
  2  4  1  0
  4  5  2  0
  5  6  1  0
  6  7  2  0
  7  8  1  0
  8  9  2  0
  9 10  1  0
 10 11  1  0
 11 12  1  0
 12 13  1  0
 13 14  1  0
 14 15  1  0
 15 16  1  0
 16 17  1  0
 16 18  1  0
  9 19  1  0
 19 20  2  0
 20 21  1  0
 21 22  1  0
 22 23  2  0
 22 24  1  0
 21  4  1  0
 20  6  1  0
 18 13  1  0
  1 25  1  0
  5 26  1  0
  7 27  1  0
  8 28  1  0
 10 29  1  0
 10 30  1  0
 11 31  1  0
 11 32  1  0
 12 33  1  0
 12 34  1  0
 14 35  1  0
 14 36  1  0
 15 37  1  0
 15 38  1  0
 16 39  1  6
 18 40  1  0
 18 41  1  0
 19 42  1  0
M  CHG  3   1  -1  10   1  24  -1
M  END
>  <UniqueID>  (5) 
5

>  <SMILES>  (5) 
[NH-]C(=O)c1cc2ccc([NH2+]CCN3CC[C@@H](F)C3)cc2n1C(=O)[O-]

>  <Energy>  (5) 
86.93538446931144

>  <Genealogy>  (5) 
[NH-]C(=O)c1cc2ccc([NH2+]CCN3CCC(F)C3)cc2n1C(=O)[O-] (protonated)
[NH-]C(=O)c1cc2ccc([NH2+]CCN3CC[C@@H](F)C3)cc2n1C(=O)[O-] (chirality)
[NH-]C(=O)c1cc2ccc([NH2+]CCN3CC[C@@H](F)C3)cc2n1C(=O)[O-] (3D coordinates assigned)
[NH-]C(=O)c1cc2ccc([NH2+]CCN3CC[C@@H](F)C3)cc2n1C(=O)[O-] (nonaromatic ring conformer: 86.93538446931144 kcal/mol)

>  <smiles>  (5) 
NC(=O)c1cc2ccc(NCCN3CCC(F)C3)cc2n1C(=O)O

>  <score_type>  (5) 
oracle

>  <origin>  (5) 
adg

>  <m_score__min__energy>  (5) 
-10.69

>  <m_primary>  (5) 
energy

$$$$
5:0
     RDKit          3D

 34 35  0  0  0  0  0  0  0  0999 V2000
   -5.2360   24.4770  -29.1090 N   0  0  0  0  0  0  0  0  0  0  0  0
   -6.3960   24.3060  -29.9240 C   0  0  0  0  0  0  0  0  0  0  0  0
   -7.1800   25.2770  -30.0940 O   0  0  0  0  0  0  0  0  0  0  0  0
   -6.6550   23.0340  -30.6260 C   0  0  0  0  0  0  0  0  0  0  0  0
   -7.9340   22.5410  -30.8640 C   0  0  0  0  0  0  0  0  0  0  0  0
   -7.7500   21.3870  -31.5900 C   0  0  0  0  0  0  0  0  0  0  0  0
   -8.6870   20.4890  -32.0900 C   0  0  0  0  0  0  0  0  0  0  0  0
   -8.2150   19.3590  -32.7780 C   0  0  0  0  0  0  0  0  0  0  0  0
   -6.8220   19.1300  -32.9260 C   0  0  0  0  0  0  0  0  0  0  0  0
   -6.3180   17.9300  -33.6870 C   0  0  0  0  0  0  0  0  0  0  0  0
   -7.2420   16.8990  -33.6550 F   0  0  0  0  0  0  0  0  0  0  0  0
   -6.0880   18.2880  -35.0010 F   0  0  0  0  0  0  0  0  0  0  0  0
   -5.1370   17.4690  -33.1310 F   0  0  0  0  0  0  0  0  0  0  0  0
   -5.9020   20.0790  -32.4200 C   0  0  0  0  0  0  0  0  0  0  0  0
   -6.4010   21.2080  -31.7600 C   0  0  0  0  0  0  0  0  0  0  0  0
   -5.7130   22.2140  -31.1720 N   0  0  0  0  0  0  0  0  0  0  0  0
   -4.2840   22.3210  -31.0350 C   0  0  0  0  0  0  0  0  0  0  0  0
   -3.6000   22.8270  -31.9650 O   0  0  0  0  0  0  0  0  0  0  0  0
   -3.6680   21.8810  -29.8550 O   0  0  0  0  0  0  0  0  0  0  0  0
   -2.5550   22.4840  -29.2590 C   0  0  0  0  0  0  0  0  0  0  0  0
   -1.4220   22.4510  -29.8160 O   0  0  0  0  0  0  0  0  0  0  0  0
   -2.7190   23.1260  -28.0280 O   0  0  0  0  0  0  0  0  0  0  0  0
   -2.0330   24.3230  -27.6700 C   0  0  0  0  0  0  0  0  0  0  0  0
   -2.0250   25.2750  -28.8210 C   0  0  0  0  0  0  0  0  0  0  0  0
   -1.0830   26.1000  -28.9590 O   0  0  0  0  0  0  0  0  0  0  0  0
   -3.0820   25.2780  -29.7250 O   0  0  0  0  0  0  0  0  0  0  0  0
   -5.0890   25.3680  -28.5860 H   0  0  0  0  0  0  0  0  0  0  0  0
   -4.4800   23.7560  -29.0890 H   0  0  0  0  0  0  0  0  0  0  0  0
   -8.8891   22.9804  -30.5405 H   0  0  0  0  0  0  0  0  0  0  0  0
   -9.7649   20.6585  -31.9509 H   0  0  0  0  0  0  0  0  0  0  0  0
   -8.9326   18.6439  -33.2067 H   0  0  0  0  0  0  0  0  0  0  0  0
   -4.8187   19.9326  -32.5427 H   0  0  0  0  0  0  0  0  0  0  0  0
   -2.5413   24.7913  -26.8142 H   0  0  0  0  0  0  0  0  0  0  0  0
   -0.9955   24.0760  -27.4004 H   0  0  0  0  0  0  0  0  0  0  0  0
  1  2  1  0
  2  3  2  0
  2  4  1  0
  4  5  2  0
  5  6  1  0
  6  7  2  0
  7  8  1  0
  8  9  2  0
  9 10  1  0
 10 11  1  0
 10 12  1  0
 10 13  1  0
  9 14  1  0
 14 15  2  0
 15 16  1  0
 16 17  1  0
 17 18  2  0
 17 19  1  0
 19 20  1  0
 20 21  2  0
 20 22  1  0
 22 23  1  0
 23 24  1  0
 24 25  2  0
 24 26  1  0
 16  4  1  0
 15  6  1  0
  1 27  1  0
  1 28  1  0
  5 29  1  0
  7 30  1  0
  8 31  1  0
 14 32  1  0
 23 33  1  0
 23 34  1  0
M  CHG  1  26  -1
M  END
>  <UniqueID>  (6) 
6

>  <SMILES>  (6) 
NC(=O)c1cc2ccc(C(F)(F)F)cc2n1C(=O)OC(=O)OCC(=O)[O-]

>  <Energy>  (6) 
73.62969381726856

>  <Genealogy>  (6) 
NC(=O)c1cc2ccc(C(F)(F)F)cc2n1C(=O)OC(=O)OCC(=O)[O-] (protonated)
NC(=O)c1cc2ccc(C(F)(F)F)cc2n1C(=O)OC(=O)OCC(=O)[O-] (3D coordinates assigned)
NC(=O)c1cc2ccc(C(F)(F)F)cc2n1C(=O)OC(=O)OCC(=O)[O-] (optimized conformer: 73.62969381726856 kcal/mol)

>  <smiles>  (6) 
NC(=O)c1cc2ccc(C(F)(F)F)cc2n1C(=O)OC(=O)OCC(=O)O

>  <score_type>  (6) 
oracle

>  <origin>  (6) 
adg

>  <m_score__min__energy>  (6) 
-9.5500000000000007

>  <m_primary>  (6) 
energy

$$$$
6:0
     RDKit          3D

 41 42  0  0  0  0  0  0  0  0999 V2000
   -0.1950   22.2990  -26.5780 C   0  0  0  0  0  0  0  0  0  0  0  0
   -0.0770   22.5880  -28.0670 C   0  0  0  0  0  0  0  0  0  0  0  0
   -0.1600   23.9910  -28.2820 O   0  0  0  0  0  0  0  0  0  0  0  0
   -1.3620   24.6480  -28.5640 C   0  0  0  0  0  0  0  0  0  0  0  0
   -1.3680   25.6750  -29.2980 O   0  0  0  0  0  0  0  0  0  0  0  0
   -2.6320   24.1310  -28.0230 C   0  0  0  0  0  0  0  0  0  0  0  0
   -2.9320   24.3700  -26.8220 O   0  0  0  0  0  0  0  0  0  0  0  0
   -3.5630   23.2840  -28.8500 C   0  0  0  0  0  0  0  0  0  0  0  0
   -2.9560   22.8830  -30.0760 O   0  0  0  0  0  0  0  0  0  0  0  0
   -3.6630   22.7420  -31.2760 C   0  0  0  0  0  0  0  0  0  0  0  0
   -3.0580   22.4460  -32.3420 O   0  0  0  0  0  0  0  0  0  0  0  0
   -5.0860   22.9220  -31.2810 N   0  0  0  0  0  0  0  0  0  0  0  0
   -5.7930   24.0260  -30.9050 C   0  0  0  0  0  0  0  0  0  0  0  0
   -5.2190   25.3270  -30.5020 C   0  0  0  0  0  0  0  0  0  0  0  0
   -3.8690   25.6410  -30.8380 N   0  0  0  0  0  0  0  0  0  0  0  0
   -5.8950   26.1520  -29.8320 O   0  0  0  0  0  0  0  0  0  0  0  0
   -7.1600   23.8030  -31.0530 C   0  0  0  0  0  0  0  0  0  0  0  0
   -7.2700   22.5260  -31.5530 C   0  0  0  0  0  0  0  0  0  0  0  0
   -8.4020   21.7910  -31.8930 C   0  0  0  0  0  0  0  0  0  0  0  0
   -8.2180   20.4850  -32.3790 C   0  0  0  0  0  0  0  0  0  0  0  0
   -6.9150   19.9440  -32.5200 C   0  0  0  0  0  0  0  0  0  0  0  0
   -6.7340   18.5320  -33.0010 C   0  0  0  0  0  0  0  0  0  0  0  0
   -5.6180   18.4670  -33.9940 C   0  0  0  0  0  0  0  0  0  0  0  0
   -4.4350   18.2780  -33.6060 O   0  0  0  0  0  0  0  0  0  0  0  0
   -5.8890   18.5660  -35.3530 O   0  0  0  0  0  0  0  0  0  0  0  0
   -5.7910   20.7160  -32.1530 C   0  0  0  0  0  0  0  0  0  0  0  0
   -6.0040   22.0170  -31.6850 C   0  0  0  0  0  0  0  0  0  0  0  0
    0.1603   23.1691  -26.0063 H   0  0  0  0  0  0  0  0  0  0  0  0
   -1.2468   22.0990  -26.3255 H   0  0  0  0  0  0  0  0  0  0  0  0
    0.4162   21.4200  -26.3255 H   0  0  0  0  0  0  0  0  0  0  0  0
    0.8895   22.2161  -28.4379 H   0  0  0  0  0  0  0  0  0  0  0  0
   -0.8930   22.0840  -28.6057 H   0  0  0  0  0  0  0  0  0  0  0  0
   -3.8345   22.3862  -28.2754 H   0  0  0  0  0  0  0  0  0  0  0  0
   -4.4549   23.8827  -29.0867 H   0  0  0  0  0  0  0  0  0  0  0  0
   -3.0770   25.0730  -30.4650 H   0  0  0  0  0  0  0  0  0  0  0  0
   -7.9782   24.5002  -30.8196 H   0  0  0  0  0  0  0  0  0  0  0  0
   -9.4095   22.2190  -31.7847 H   0  0  0  0  0  0  0  0  0  0  0  0
   -9.0930   19.8770  -32.6525 H   0  0  0  0  0  0  0  0  0  0  0  0
   -6.4974   17.8834  -32.1447 H   0  0  0  0  0  0  0  0  0  0  0  0
   -7.6638   18.1931  -33.4813 H   0  0  0  0  0  0  0  0  0  0  0  0
   -4.7739   20.3049  -32.2331 H   0  0  0  0  0  0  0  0  0  0  0  0
  1  2  1  0
  2  3  1  0
  3  4  1  0
  4  5  2  0
  4  6  1  0
  6  7  2  0
  6  8  1  0
  8  9  1  0
  9 10  1  0
 10 11  2  0
 10 12  1  0
 12 13  1  0
 13 14  1  0
 14 15  1  0
 14 16  2  0
 13 17  2  0
 17 18  1  0
 18 19  2  0
 19 20  1  0
 20 21  2  0
 21 22  1  0
 22 23  1  0
 23 24  2  0
 23 25  1  0
 21 26  1  0
 26 27  2  0
 27 12  1  0
 27 18  1  0
  1 28  1  0
  1 29  1  0
  1 30  1  0
  2 31  1  0
  2 32  1  0
  8 33  1  0
  8 34  1  0
 15 35  1  0
 17 36  1  0
 19 37  1  0
 20 38  1  0
 22 39  1  0
 22 40  1  0
 26 41  1  0
M  CHG  2  15  -1  25  -1
M  END
>  <UniqueID>  (7) 
7

>  <SMILES>  (7) 
CCOC(=O)C(=O)COC(=O)n1c(C([NH-])=O)cc2ccc(CC(=O)[O-])cc21

>  <Energy>  (7) 
68.38724408676208

>  <Genealogy>  (7) 
CCOC(=O)C(=O)COC(=O)n1c(C([NH-])=O)cc2ccc(CC(=O)[O-])cc21 (protonated)
CCOC(=O)C(=O)COC(=O)n1c(C([NH-])=O)cc2ccc(CC(=O)[O-])cc21 (3D coordinates assigned)
CCOC(=O)C(=O)COC(=O)n1c(C([NH-])=O)cc2ccc(CC(=O)[O-])cc21 (optimized conformer: 68.38724408676208 kcal/mol)

>  <smiles>  (7) 
CCOC(=O)C(=O)COC(=O)n1c(C(N)=O)cc2ccc(CC(=O)O)cc21

>  <score_type>  (7) 
oracle

>  <origin>  (7) 
adg

>  <m_score__min__energy>  (7) 
-10.32

>  <m_primary>  (7) 
energy

$$$$
7:0
     RDKit          3D

 45 46  0  0  0  0  0  0  0  0999 V2000
   -2.7150   20.7850  -28.0040 C   0  0  0  0  0  0  0  0  0  0  0  0
   -2.6240   22.3170  -28.0730 C   0  0  0  0  0  0  0  0  0  0  0  0
   -2.6500   22.9260  -29.5180 C   0  0  0  0  0  0  0  0  0  0  0  0
   -1.1950   22.9670  -30.0760 C   0  0  0  0  0  0  0  0  0  0  0  0
   -0.0980   23.0860  -29.0120 C   0  0  0  0  0  0  0  0  0  0  0  0
   -3.5510   22.1490  -30.5110 C   0  0  0  0  0  0  0  0  0  0  0  0
   -4.9020   22.5640  -30.7160 C   0  0  0  0  0  0  0  0  0  0  0  0
   -5.7340   21.9260  -31.6460 C   0  0  0  0  0  0  0  0  0  0  0  0
   -5.2030   20.8790  -32.3860 C   0  0  0  0  0  0  0  0  0  0  0  0
   -5.7740   20.1220  -33.3830 C   0  0  0  0  0  0  0  0  0  0  0  0
   -4.7720   19.2490  -33.8020 C   0  0  0  0  0  0  0  0  0  0  0  0
   -4.9820   18.1930  -34.8140 C   0  0  0  0  0  0  0  0  0  0  0  0
   -3.9310   17.2970  -35.1660 N   0  0  0  0  0  0  0  0  0  0  0  0
   -6.1180   18.0470  -35.3390 O   0  0  0  0  0  0  0  0  0  0  0  0
   -3.6260   19.4640  -33.0960 N   0  0  0  0  0  0  0  0  0  0  0  0
   -2.3500   18.8350  -33.2860 C   0  0  0  0  0  0  0  0  0  0  0  0
   -1.8790   18.0910  -32.3830 O   0  0  0  0  0  0  0  0  0  0  0  0
   -1.6370   19.0680  -34.4700 O   0  0  0  0  0  0  0  0  0  0  0  0
   -0.4600   19.8220  -34.5660 C   0  0  0  0  0  0  0  0  0  0  0  0
    0.4740   19.4790  -35.3390 O   0  0  0  0  0  0  0  0  0  0  0  0
   -0.3340   21.0680  -33.7490 C   0  0  0  0  0  0  0  0  0  0  0  0
   -1.5340   21.7550  -33.7750 F   0  0  0  0  0  0  0  0  0  0  0  0
    0.6660   21.8820  -34.2540 F   0  0  0  0  0  0  0  0  0  0  0  0
   -0.0280   20.7360  -32.4430 F   0  0  0  0  0  0  0  0  0  0  0  0
   -3.9090   20.4650  -32.2320 C   0  0  0  0  0  0  0  0  0  0  0  0
   -3.0480   21.0980  -31.3290 C   0  0  0  0  0  0  0  0  0  0  0  0
   -3.2310   24.6820  -29.3720 P   0  0  0  0  0  0  0  0  0  0  0  0
   -4.3290   24.8130  -28.3410 O   0  0  0  0  0  0  0  0  0  0  0  0
   -3.8410   25.2080  -30.8600 O   0  0  0  0  0  0  0  0  0  0  0  0
   -1.9370   25.6760  -28.9260 O   0  0  0  0  0  0  0  0  0  0  0  0
   -2.7340   20.4659  -26.9515 H   0  0  0  0  0  0  0  0  0  0  0  0
   -3.6347   20.4494  -28.5056 H   0  0  0  0  0  0  0  0  0  0  0  0
   -1.8415   20.3428  -28.5056 H   0  0  0  0  0  0  0  0  0  0  0  0
   -3.4746   22.7334  -27.5135 H   0  0  0  0  0  0  0  0  0  0  0  0
   -1.6445   22.5827  -27.6487 H   0  0  0  0  0  0  0  0  0  0  0  0
   -1.0208   22.0413  -30.6441 H   0  0  0  0  0  0  0  0  0  0  0  0
   -1.1267   23.8758  -30.6920 H   0  0  0  0  0  0  0  0  0  0  0  0
   -0.5513   23.0368  -28.0109 H   0  0  0  0  0  0  0  0  0  0  0  0
    0.6191   22.2604  -29.1308 H   0  0  0  0  0  0  0  0  0  0  0  0
    0.4254   24.0462  -29.1308 H   0  0  0  0  0  0  0  0  0  0  0  0
   -5.2995   23.4053  -30.1294 H   0  0  0  0  0  0  0  0  0  0  0  0
   -6.7772   22.2458  -31.7853 H   0  0  0  0  0  0  0  0  0  0  0  0
   -6.8023   20.1912  -33.7674 H   0  0  0  0  0  0  0  0  0  0  0  0
   -2.9840   17.3830  -34.7370 H   0  0  0  0  0  0  0  0  0  0  0  0
   -1.9955   20.7875  -31.2520 H   0  0  0  0  0  0  0  0  0  0  0  0
  1  2  1  0
  2  3  1  0
  3  4  1  0
  4  5  1  0
  3  6  1  0
  6  7  2  0
  7  8  1  0
  8  9  2  0
  9 10  1  0
 10 11  2  0
 11 12  1  0
 12 13  1  0
 12 14  2  0
 11 15  1  0
 15 16  1  0
 16 17  2  0
 16 18  1  0
 18 19  1  0
 19 20  2  0
 19 21  1  0
 21 22  1  0
 21 23  1  0
 21 24  1  0
 15 25  1  0
 25 26  2  0
  3 27  1  0
 27 28  2  0
 27 29  1  0
 27 30  1  0
 26  6  1  0
 25  9  1  0
  1 31  1  0
  1 32  1  0
  1 33  1  0
  2 34  1  0
  2 35  1  0
  4 36  1  0
  4 37  1  0
  5 38  1  0
  5 39  1  0
  5 40  1  0
  7 41  1  0
  8 42  1  0
 10 43  1  0
 13 44  1  0
 26 45  1  0
M  CHG  3  13  -1  29  -1  30  -1
M  END
>  <UniqueID>  (8) 
8

>  <SMILES>  (8) 
CCC(CC)(c1ccc2cc(C([NH-])=O)n(C(=O)OC(=O)C(F)(F)F)c2c1)P(=O)([O-])[O-]

>  <Energy>  (8) 
85.9513806519531

>  <Genealogy>  (8) 
CCC(CC)(c1ccc2cc(C([NH-])=O)n(C(=O)OC(=O)C(F)(F)F)c2c1)P(=O)([O-])[O-] (protonated)
CCC(CC)(c1ccc2cc(C([NH-])=O)n(C(=O)OC(=O)C(F)(F)F)c2c1)P(=O)([O-])[O-] (3D coordinates assigned)
CCC(CC)(c1ccc2cc(C([NH-])=O)n(C(=O)OC(=O)C(F)(F)F)c2c1)P(=O)([O-])[O-] (optimized conformer: 85.9513806519531 kcal/mol)

>  <smiles>  (8) 
CCC(CC)(c1ccc2cc(C(N)=O)n(C(=O)OC(=O)C(F)(F)F)c2c1)P(=O)(O)O

>  <score_type>  (8) 
oracle

>  <origin>  (8) 
adg

>  <m_score__min__energy>  (8) 
-10.81

>  <m_primary>  (8) 
energy

$$$$
8:0
     RDKit          3D

 50 52  0  0  0  0  0  0  0  0999 V2000
   -3.5340   25.2590  -30.6560 N   0  0  0  0  0  0  0  0  0  0  0  0
   -4.9570   25.3100  -30.7050 C   0  0  0  0  0  0  0  0  0  0  0  0
   -5.5430   26.3970  -30.4570 O   0  0  0  0  0  0  0  0  0  0  0  0
   -5.7530   24.0960  -30.9830 C   0  0  0  0  0  0  0  0  0  0  0  0
   -7.1000   23.9740  -30.6480 C   0  0  0  0  0  0  0  0  0  0  0  0
   -7.4420   22.6810  -30.9740 C   0  0  0  0  0  0  0  0  0  0  0  0
   -8.6570   22.0170  -30.8430 C   0  0  0  0  0  0  0  0  0  0  0  0
   -8.7290   20.6820  -31.2740 C   0  0  0  0  0  0  0  0  0  0  0  0
   -7.6000   20.0450  -31.8500 C   0  0  0  0  0  0  0  0  0  0  0  0
   -7.6740   18.5980  -32.2710 C   0  0  0  0  0  0  0  0  0  0  0  0
   -6.9990   17.7920  -31.3700 F   0  0  0  0  0  0  0  0  0  0  0  0
   -8.9980   18.2060  -32.3200 F   0  0  0  0  0  0  0  0  0  0  0  0
   -7.1040   18.4220  -33.5200 F   0  0  0  0  0  0  0  0  0  0  0  0
   -6.3770   20.7480  -31.9480 C   0  0  0  0  0  0  0  0  0  0  0  0
   -6.3290   22.0720  -31.4890 C   0  0  0  0  0  0  0  0  0  0  0  0
   -5.2820   22.9270  -31.5050 N   0  0  0  0  0  0  0  0  0  0  0  0
   -3.9750   22.6610  -32.0380 C   0  0  0  0  0  0  0  0  0  0  0  0
   -3.8500   22.2850  -33.2350 O   0  0  0  0  0  0  0  0  0  0  0  0
   -2.8560   22.7840  -31.2040 O   0  0  0  0  0  0  0  0  0  0  0  0
   -2.6650   22.0980  -30.0000 C   0  0  0  0  0  0  0  0  0  0  0  0
   -1.5220   21.6900  -29.6540 O   0  0  0  0  0  0  0  0  0  0  0  0
   -3.7760   21.8620  -29.1880 O   0  0  0  0  0  0  0  0  0  0  0  0
   -3.8610   22.3060  -27.8390 C   0  0  0  0  0  0  0  0  0  0  0  0
   -3.6430   23.8170  -27.7670 C   0  0  0  0  0  0  0  0  0  0  0  0
   -2.6590   24.1450  -26.7080 N   0  0  0  0  0  0  0  0  0  0  0  0
   -2.4110   25.6060  -26.5600 C   0  0  0  0  0  0  0  0  0  0  0  0
   -0.9920   26.0510  -26.9680 C   0  0  0  0  0  0  0  0  0  0  0  0
   -0.5130   25.3080  -28.2240 C   0  0  0  0  0  0  0  0  0  0  0  0
   -1.3020   25.6720  -29.3290 O   0  0  0  0  0  0  0  0  0  0  0  0
   -0.5650   23.7760  -28.0300 C   0  0  0  0  0  0  0  0  0  0  0  0
   -1.4190   23.3490  -26.8210 C   0  0  0  0  0  0  0  0  0  0  0  0
   -3.0420   24.5890  -30.0240 H   0  0  0  0  0  0  0  0  0  0  0  0
   -7.7519   24.7470  -30.2149 H   0  0  0  0  0  0  0  0  0  0  0  0
   -9.5353   22.5221  -30.4147 H   0  0  0  0  0  0  0  0  0  0  0  0
   -9.6709   20.1246  -31.1637 H   0  0  0  0  0  0  0  0  0  0  0  0
   -5.4841   20.2674  -32.3744 H   0  0  0  0  0  0  0  0  0  0  0  0
   -4.8561   22.0628  -27.4382 H   0  0  0  0  0  0  0  0  0  0  0  0
   -3.0841   21.8021  -27.2452 H   0  0  0  0  0  0  0  0  0  0  0  0
   -3.2662   24.1758  -28.7362 H   0  0  0  0  0  0  0  0  0  0  0  0
   -4.5997   24.3056  -27.5302 H   0  0  0  0  0  0  0  0  0  0  0  0
   -3.1355   26.1443  -27.1888 H   0  0  0  0  0  0  0  0  0  0  0  0
   -2.5197   25.8382  -25.4903 H   0  0  0  0  0  0  0  0  0  0  0  0
   -1.0005   27.1318  -27.1725 H   0  0  0  0  0  0  0  0  0  0  0  0
   -0.3040   25.8162  -26.1425 H   0  0  0  0  0  0  0  0  0  0  0  0
    0.5333   25.5951  -28.4054 H   0  0  0  0  0  0  0  0  0  0  0  0
   -1.6180   24.8300  -29.7480 H   0  0  0  0  0  0  0  0  0  0  0  0
   -0.9908   23.3224  -28.9372 H   0  0  0  0  0  0  0  0  0  0  0  0
    0.4635   23.4338  -27.8425 H   0  0  0  0  0  0  0  0  0  0  0  0
   -1.6874   22.2882  -26.9332 H   0  0  0  0  0  0  0  0  0  0  0  0
   -0.8249   23.5160  -25.9104 H   0  0  0  0  0  0  0  0  0  0  0  0
  1  2  1  0
  2  3  2  0
  2  4  1  0
  4  5  2  0
  5  6  1  0
  6  7  2  0
  7  8  1  0
  8  9  2  0
  9 10  1  0
 10 11  1  0
 10 12  1  0
 10 13  1  0
  9 14  1  0
 14 15  2  0
 15 16  1  0
 16 17  1  0
 17 18  2  0
 17 19  1  0
 19 20  1  0
 20 21  2  0
 20 22  1  0
 22 23  1  0
 23 24  1  0
 24 25  1  0
 25 26  1  0
 26 27  1  0
 27 28  1  0
 28 29  1  0
 28 30  1  0
 30 31  1  0
 16  4  1  0
 31 25  1  0
 15  6  1  0
  1 32  1  0
  5 33  1  0
  7 34  1  0
  8 35  1  0
 14 36  1  0
 23 37  1  0
 23 38  1  0
 24 39  1  0
 24 40  1  0
 26 41  1  0
 26 42  1  0
 27 43  1  0
 27 44  1  0
 28 45  1  0
 29 46  1  0
 30 47  1  0
 30 48  1  0
 31 49  1  0
 31 50  1  0
M  CHG  1   1  -1
M  END
>  <UniqueID>  (9) 
9

>  <SMILES>  (9) 
[NH-]C(=O)c1cc2ccc(C(F)(F)F)cc2n1C(=O)OC(=O)OCCN1CCC(O)CC1

>  <Energy>  (9) 
98.44769062976796

>  <Genealogy>  (9) 
[NH-]C(=O)c1cc2ccc(C(F)(F)F)cc2n1C(=O)OC(=O)OCCN1CCC(O)CC1 (protonated)
[NH-]C(=O)c1cc2ccc(C(F)(F)F)cc2n1C(=O)OC(=O)OCCN1CCC(O)CC1 (3D coordinates assigned)
[NH-]C(=O)c1cc2ccc(C(F)(F)F)cc2n1C(=O)OC(=O)OCCN1CCC(O)CC1 (nonaromatic ring conformer: 98.44769062976796 kcal/mol)

>  <smiles>  (9) 
NC(=O)c1cc2ccc(C(F)(F)F)cc2n1C(=O)OC(=O)OCCN1CCC(O)CC1

>  <score_type>  (9) 
oracle

>  <origin>  (9) 
adg

>  <m_score__min__energy>  (9) 
-10.75

>  <m_primary>  (9) 
energy

$$$$
9:0
     RDKit          3D

 41 42  0  0  0  0  0  0  0  0999 V2000
   -1.0720   17.8770  -34.4860 C   0  0  0  0  0  0  0  0  0  0  0  0
   -1.5260   19.3140  -34.2380 C   0  0  0  0  0  0  0  0  0  0  0  0
   -2.7190   19.3460  -33.3790 N   0  0  0  0  0  0  0  0  0  0  0  0
   -3.4830   18.0950  -33.5100 C   0  0  0  0  0  0  0  0  0  0  0  0
   -4.6910   18.2680  -34.4460 C   0  0  0  0  0  0  0  0  0  0  0  0
   -5.9430   18.4480  -33.6940 N   0  0  0  0  0  0  0  0  0  0  0  0
   -6.8210   17.2940  -33.4900 C   0  0  0  0  0  0  0  0  0  0  0  0
   -6.2360   19.7020  -33.0430 C   0  0  0  0  0  0  0  0  0  0  0  0
   -7.5770   20.1500  -32.9160 C   0  0  0  0  0  0  0  0  0  0  0  0
   -7.8690   21.3730  -32.2910 C   0  0  0  0  0  0  0  0  0  0  0  0
   -6.8070   22.1320  -31.8110 C   0  0  0  0  0  0  0  0  0  0  0  0
   -6.8100   23.3390  -31.1520 C   0  0  0  0  0  0  0  0  0  0  0  0
   -5.4700   23.6300  -30.9060 C   0  0  0  0  0  0  0  0  0  0  0  0
   -5.0120   24.8900  -30.2850 C   0  0  0  0  0  0  0  0  0  0  0  0
   -3.9020   25.5920  -30.8420 N   0  0  0  0  0  0  0  0  0  0  0  0
   -5.5640   25.3380  -29.2450 O   0  0  0  0  0  0  0  0  0  0  0  0
   -4.6690   22.6360  -31.3880 N   0  0  0  0  0  0  0  0  0  0  0  0
   -3.2400   22.5250  -31.2860 C   0  0  0  0  0  0  0  0  0  0  0  0
   -2.6050   23.2160  -30.4480 O   0  0  0  0  0  0  0  0  0  0  0  0
   -2.5460   21.6360  -32.0980 O   0  0  0  0  0  0  0  0  0  0  0  0
   -5.5040   21.7280  -31.9410 C   0  0  0  0  0  0  0  0  0  0  0  0
   -5.1840   20.5040  -32.5400 C   0  0  0  0  0  0  0  0  0  0  0  0
   -0.9123   17.3714  -33.5222 H   0  0  0  0  0  0  0  0  0  0  0  0
   -1.8448   17.3417  -35.0572 H   0  0  0  0  0  0  0  0  0  0  0  0
   -0.1320   17.8829  -35.0572 H   0  0  0  0  0  0  0  0  0  0  0  0
   -0.7132   19.8688  -33.7465 H   0  0  0  0  0  0  0  0  0  0  0  0
   -1.7762   19.7755  -35.2046 H   0  0  0  0  0  0  0  0  0  0  0  0
   -2.4220   19.4690  -32.3810 H   0  0  0  0  0  0  0  0  0  0  0  0
   -3.3200   20.1530  -33.6650 H   0  0  0  0  0  0  0  0  0  0  0  0
   -2.8237   17.3145  -33.9177 H   0  0  0  0  0  0  0  0  0  0  0  0
   -3.8554   17.8120  -32.5144 H   0  0  0  0  0  0  0  0  0  0  0  0
   -4.5264   19.1515  -35.0803 H   0  0  0  0  0  0  0  0  0  0  0  0
   -4.7855   17.3566  -35.0547 H   0  0  0  0  0  0  0  0  0  0  0  0
   -6.9534   17.1200  -32.4119 H   0  0  0  0  0  0  0  0  0  0  0  0
   -7.7994   17.4914  -33.9524 H   0  0  0  0  0  0  0  0  0  0  0  0
   -6.3698   16.4037  -33.9524 H   0  0  0  0  0  0  0  0  0  0  0  0
   -8.3966   19.5321  -33.3116 H   0  0  0  0  0  0  0  0  0  0  0  0
   -8.9072   21.7206  -32.1842 H   0  0  0  0  0  0  0  0  0  0  0  0
   -7.6852   23.9461  -30.8773 H   0  0  0  0  0  0  0  0  0  0  0  0
   -2.9220   25.3000  -30.6300 H   0  0  0  0  0  0  0  0  0  0  0  0
   -4.1380   20.1728  -32.6180 H   0  0  0  0  0  0  0  0  0  0  0  0
  1  2  1  0
  2  3  1  0
  3  4  1  0
  4  5  1  0
  5  6  1  0
  6  7  1  0
  6  8  1  0
  8  9  2  0
  9 10  1  0
 10 11  2  0
 11 12  1  0
 12 13  2  0
 13 14  1  0
 14 15  1  0
 14 16  2  0
 13 17  1  0
 17 18  1  0
 18 19  2  0
 18 20  1  0
 17 21  1  0
 21 22  2  0
 22  8  1  0
 21 11  1  0
  1 23  1  0
  1 24  1  0
  1 25  1  0
  2 26  1  0
  2 27  1  0
  3 28  1  0
  3 29  1  0
  4 30  1  0
  4 31  1  0
  5 32  1  0
  5 33  1  0
  7 34  1  0
  7 35  1  0
  7 36  1  0
  9 37  1  0
 10 38  1  0
 12 39  1  0
 15 40  1  0
 22 41  1  0
M  CHG  3   3   1  15  -1  20  -1
M  END
>  <UniqueID>  (10) 
10

>  <SMILES>  (10) 
CC[NH2+]CCN(C)c1ccc2cc(C([NH-])=O)n(C(=O)[O-])c2c1

>  <Energy>  (10) 
76.24942917536183

>  <Genealogy>  (10) 
CC[NH2+]CCN(C)c1ccc2cc(C([NH-])=O)n(C(=O)[O-])c2c1 (protonated)
CC[NH2+]CCN(C)c1ccc2cc(C([NH-])=O)n(C(=O)[O-])c2c1 (3D coordinates assigned)
CC[NH2+]CCN(C)c1ccc2cc(C([NH-])=O)n(C(=O)[O-])c2c1 (optimized conformer: 76.24942917536183 kcal/mol)

>  <smiles>  (10) 
CCNCCN(C)c1ccc2cc(C(N)=O)n(C(=O)O)c2c1

>  <score_type>  (10) 
oracle

>  <origin>  (10) 
adg

>  <m_score__min__energy>  (10) 
-10.220000000000001

>  <m_primary>  (10) 
energy

$$$$
10:0
     RDKit          3D

 53 54  0  0  0  0  0  0  0  0999 V2000
    0.9630   24.9460  -36.2230 C   0  0  0  0  0  0  0  0  0  0  0  0
    1.3660   23.7890  -36.9260 O   0  0  0  0  0  0  0  0  0  0  0  0
    1.8590   22.8060  -36.0340 C   0  0  0  0  0  0  0  0  0  0  0  0
    0.7670   21.7850  -35.7240 C   0  0  0  0  0  0  0  0  0  0  0  0
   -0.0250   22.2660  -34.6610 O   0  0  0  0  0  0  0  0  0  0  0  0
   -0.9000   21.2530  -34.2140 C   0  0  0  0  0  0  0  0  0  0  0  0
   -0.1750   20.3810  -33.2400 C   0  0  0  0  0  0  0  0  0  0  0  0
    0.1440   19.2030  -33.5610 O   0  0  0  0  0  0  0  0  0  0  0  0
    0.1810   20.9050  -31.9940 O   0  0  0  0  0  0  0  0  0  0  0  0
   -0.6710   21.7340  -31.2170 C   0  0  0  0  0  0  0  0  0  0  0  0
   -1.4170   20.8970  -30.3460 O   0  0  0  0  0  0  0  0  0  0  0  0
   -2.5130   21.3360  -29.5990 C   0  0  0  0  0  0  0  0  0  0  0  0
   -2.8270   20.7390  -28.5340 O   0  0  0  0  0  0  0  0  0  0  0  0
   -3.2600   22.4900  -30.0380 N   0  0  0  0  0  0  0  0  0  0  0  0
   -3.2820   23.6940  -29.2370 C   0  0  0  0  0  0  0  0  0  0  0  0
   -2.6790   24.8960  -29.7160 N   0  0  0  0  0  0  0  0  0  0  0  0
   -3.8680   23.7120  -28.1180 O   0  0  0  0  0  0  0  0  0  0  0  0
   -3.9350   22.4540  -31.3170 C   0  0  0  0  0  0  0  0  0  0  0  0
   -3.2710   22.3170  -32.3810 O   0  0  0  0  0  0  0  0  0  0  0  0
   -5.3650   22.5520  -31.4050 N   0  0  0  0  0  0  0  0  0  0  0  0
   -6.1510   23.6010  -31.0310 C   0  0  0  0  0  0  0  0  0  0  0  0
   -5.6530   24.8810  -30.4680 C   0  0  0  0  0  0  0  0  0  0  0  0
   -5.8200   25.2010  -29.0860 N   0  0  0  0  0  0  0  0  0  0  0  0
   -5.0630   25.7070  -31.2140 O   0  0  0  0  0  0  0  0  0  0  0  0
   -7.4960   23.2880  -31.2420 C   0  0  0  0  0  0  0  0  0  0  0  0
   -7.5020   22.0070  -31.7470 C   0  0  0  0  0  0  0  0  0  0  0  0
   -8.5700   21.1750  -32.0680 C   0  0  0  0  0  0  0  0  0  0  0  0
   -8.2780   19.8690  -32.4980 C   0  0  0  0  0  0  0  0  0  0  0  0
   -6.9360   19.4280  -32.6120 C   0  0  0  0  0  0  0  0  0  0  0  0
   -6.6390   18.0140  -33.0110 C   0  0  0  0  0  0  0  0  0  0  0  0
   -5.8790   20.2990  -32.2690 C   0  0  0  0  0  0  0  0  0  0  0  0
   -6.2010   21.5920  -31.8460 C   0  0  0  0  0  0  0  0  0  0  0  0
    1.0282   24.7589  -35.1410 H   0  0  0  0  0  0  0  0  0  0  0  0
    1.6217   25.7855  -36.4903 H   0  0  0  0  0  0  0  0  0  0  0  0
   -0.0747   25.1946  -36.4903 H   0  0  0  0  0  0  0  0  0  0  0  0
    2.7163   22.2935  -36.4949 H   0  0  0  0  0  0  0  0  0  0  0  0
    2.1730   23.2929  -35.0990 H   0  0  0  0  0  0  0  0  0  0  0  0
    0.1381   21.6363  -36.6142 H   0  0  0  0  0  0  0  0  0  0  0  0
    1.2254   20.8261  -35.4406 H   0  0  0  0  0  0  0  0  0  0  0  0
   -1.7724   21.7090  -33.7230 H   0  0  0  0  0  0  0  0  0  0  0  0
   -1.2416   20.6518  -35.0695 H   0  0  0  0  0  0  0  0  0  0  0  0
   -0.0689   22.4428  -30.6296 H   0  0  0  0  0  0  0  0  0  0  0  0
   -1.3461   22.3081  -31.8687 H   0  0  0  0  0  0  0  0  0  0  0  0
   -3.0560   25.3920  -30.5540 H   0  0  0  0  0  0  0  0  0  0  0  0
   -6.2670   24.5390  -28.4140 H   0  0  0  0  0  0  0  0  0  0  0  0
   -5.4380   26.0990  -28.7100 H   0  0  0  0  0  0  0  0  0  0  0  0
   -8.3674   23.9301  -31.0459 H   0  0  0  0  0  0  0  0  0  0  0  0
   -9.6088   21.5277  -31.9879 H   0  0  0  0  0  0  0  0  0  0  0  0
   -9.0998   19.1821  -32.7487 H   0  0  0  0  0  0  0  0  0  0  0  0
   -6.5096   17.3979  -32.1089 H   0  0  0  0  0  0  0  0  0  0  0  0
   -7.4737   17.6186  -33.6084 H   0  0  0  0  0  0  0  0  0  0  0  0
   -5.7158   17.9878  -33.6084 H   0  0  0  0  0  0  0  0  0  0  0  0
   -4.8315   19.9694  -32.3328 H   0  0  0  0  0  0  0  0  0  0  0  0
  1  2  1  0
  2  3  1  0
  3  4  1  0
  4  5  1  0
  5  6  1  0
  6  7  1  0
  7  8  2  0
  7  9  1  0
  9 10  1  0
 10 11  1  0
 11 12  1  0
 12 13  2  0
 12 14  1  0
 14 15  1  0
 15 16  1  0
 15 17  2  0
 14 18  1  0
 18 19  2  0
 18 20  1  0
 20 21  1  0
 21 22  1  0
 22 23  1  0
 22 24  2  0
 21 25  2  0
 25 26  1  0
 26 27  2  0
 27 28  1  0
 28 29  2  0
 29 30  1  0
 29 31  1  0
 31 32  2  0
 32 20  1  0
 32 26  1  0
  1 33  1  0
  1 34  1  0
  1 35  1  0
  3 36  1  0
  3 37  1  0
  4 38  1  0
  4 39  1  0
  6 40  1  0
  6 41  1  0
 10 42  1  0
 10 43  1  0
 16 44  1  0
 23 45  1  0
 23 46  1  0
 25 47  1  0
 27 48  1  0
 28 49  1  0
 30 50  1  0
 30 51  1  0
 30 52  1  0
 31 53  1  0
M  CHG  1  16  -1
M  END
>  <UniqueID>  (11) 
11

>  <SMILES>  (11) 
COCCOCC(=O)OCOC(=O)N(C([NH-])=O)C(=O)n1c(C(N)=O)cc2ccc(C)cc21

>  <Energy>  (11) 
89.76437911386913

>  <Genealogy>  (11) 
COCCOCC(=O)OCOC(=O)N(C([NH-])=O)C(=O)n1c(C(N)=O)cc2ccc(C)cc21 (protonated)
COCCOCC(=O)OCOC(=O)N(C([NH-])=O)C(=O)n1c(C(N)=O)cc2ccc(C)cc21 (3D coordinates assigned)
COCCOCC(=O)OCOC(=O)N(C([NH-])=O)C(=O)n1c(C(N)=O)cc2ccc(C)cc21 (optimized conformer: 89.76437911386913 kcal/mol)

>  <smiles>  (11) 
COCCOCC(=O)OCOC(=O)N(C(N)=O)C(=O)n1c(C(N)=O)cc2ccc(C)cc21

>  <score_type>  (11) 
oracle

>  <origin>  (11) 
adg

>  <m_score__min__energy>  (11) 
-9.3800000000000008

>  <m_primary>  (11) 
energy

$$$$
11:0
     RDKit          3D

 39 40  0  0  0  0  0  0  0  0999 V2000
    0.3500   25.7830  -27.4060 C   0  0  0  0  0  0  0  0  0  0  0  0
   -0.1530   24.4970  -27.9000 N   0  0  0  0  0  0  0  0  0  0  0  0
    0.5340   23.2520  -27.5380 C   0  0  0  0  0  0  0  0  0  0  0  0
   -1.3320   24.4820  -28.7360 C   0  0  0  0  0  0  0  0  0  0  0  0
   -1.9460   25.5600  -28.9680 O   0  0  0  0  0  0  0  0  0  0  0  0
   -1.8470   23.2180  -29.3710 C   0  0  0  0  0  0  0  0  0  0  0  0
   -3.2150   23.4020  -29.8500 N   0  0  0  0  0  0  0  0  0  0  0  0
   -3.9030   22.4120  -30.6260 C   0  0  0  0  0  0  0  0  0  0  0  0
   -3.3290   21.3300  -30.9290 O   0  0  0  0  0  0  0  0  0  0  0  0
   -5.2640   22.6270  -31.0240 N   0  0  0  0  0  0  0  0  0  0  0  0
   -6.0150   23.7530  -30.8670 C   0  0  0  0  0  0  0  0  0  0  0  0
   -5.5250   25.0540  -30.3660 C   0  0  0  0  0  0  0  0  0  0  0  0
   -4.2920   25.5820  -30.8470 N   0  0  0  0  0  0  0  0  0  0  0  0
   -6.1730   25.6940  -29.4950 O   0  0  0  0  0  0  0  0  0  0  0  0
   -7.3150   23.5380  -31.3230 C   0  0  0  0  0  0  0  0  0  0  0  0
   -7.3340   22.2370  -31.7710 C   0  0  0  0  0  0  0  0  0  0  0  0
   -8.3690   21.4950  -32.3300 C   0  0  0  0  0  0  0  0  0  0  0  0
   -8.1060   20.1610  -32.6870 C   0  0  0  0  0  0  0  0  0  0  0  0
   -6.8280   19.5870  -32.4600 C   0  0  0  0  0  0  0  0  0  0  0  0
   -6.5460   18.1670  -32.8830 C   0  0  0  0  0  0  0  0  0  0  0  0
   -6.2140   18.1150  -34.2270 F   0  0  0  0  0  0  0  0  0  0  0  0
   -5.4930   17.6410  -32.1570 F   0  0  0  0  0  0  0  0  0  0  0  0
   -7.6730   17.3960  -32.6670 F   0  0  0  0  0  0  0  0  0  0  0  0
   -5.7940   20.3830  -31.9120 C   0  0  0  0  0  0  0  0  0  0  0  0
   -6.0830   21.7100  -31.5800 C   0  0  0  0  0  0  0  0  0  0  0  0
    0.3485   25.7792  -26.3060 H   0  0  0  0  0  0  0  0  0  0  0  0
    1.3758   25.9400  -27.7707 H   0  0  0  0  0  0  0  0  0  0  0  0
   -0.2971   26.5943  -27.7707 H   0  0  0  0  0  0  0  0  0  0  0  0
    0.5821   23.1649  -26.4425 H   0  0  0  0  0  0  0  0  0  0  0  0
   -0.0189   22.3950  -27.9501 H   0  0  0  0  0  0  0  0  0  0  0  0
    1.5538   23.2628  -27.9501 H   0  0  0  0  0  0  0  0  0  0  0  0
   -1.2001   22.9504  -30.2195 H   0  0  0  0  0  0  0  0  0  0  0  0
   -1.8403   22.4156  -28.6186 H   0  0  0  0  0  0  0  0  0  0  0  0
   -3.7120   24.2900  -29.6120 H   0  0  0  0  0  0  0  0  0  0  0  0
   -3.4660   25.6770  -30.2150 H   0  0  0  0  0  0  0  0  0  0  0  0
   -8.1484   24.2559  -31.3243 H   0  0  0  0  0  0  0  0  0  0  0  0
   -9.3632   21.9385  -32.4880 H   0  0  0  0  0  0  0  0  0  0  0  0
   -8.9000   19.5549  -33.1477 H   0  0  0  0  0  0  0  0  0  0  0  0
   -4.7881   19.9680  -31.7513 H   0  0  0  0  0  0  0  0  0  0  0  0
  1  2  1  0
  2  3  1  0
  2  4  1  0
  4  5  2  0
  4  6  1  0
  6  7  1  0
  7  8  1  0
  8  9  2  0
  8 10  1  0
 10 11  1  0
 11 12  1  0
 12 13  1  0
 12 14  2  0
 11 15  2  0
 15 16  1  0
 16 17  2  0
 17 18  1  0
 18 19  2  0
 19 20  1  0
 20 21  1  0
 20 22  1  0
 20 23  1  0
 19 24  1  0
 24 25  2  0
 25 10  1  0
 25 16  1  0
  1 26  1  0
  1 27  1  0
  1 28  1  0
  3 29  1  0
  3 30  1  0
  3 31  1  0
  6 32  1  0
  6 33  1  0
  7 34  1  0
 13 35  1  0
 15 36  1  0
 17 37  1  0
 18 38  1  0
 24 39  1  0
M  CHG  1  13  -1
M  END
>  <UniqueID>  (12) 
12

>  <SMILES>  (12) 
CN(C)C(=O)CNC(=O)n1c(C([NH-])=O)cc2ccc(C(F)(F)F)cc21

>  <Energy>  (12) 
73.13897362451084

>  <Genealogy>  (12) 
CN(C)C(=O)CNC(=O)n1c(C([NH-])=O)cc2ccc(C(F)(F)F)cc21 (protonated)
CN(C)C(=O)CNC(=O)n1c(C([NH-])=O)cc2ccc(C(F)(F)F)cc21 (3D coordinates assigned)
CN(C)C(=O)CNC(=O)n1c(C([NH-])=O)cc2ccc(C(F)(F)F)cc21 (optimized conformer: 73.13897362451084 kcal/mol)

>  <smiles>  (12) 
CN(C)C(=O)CNC(=O)n1c(C(N)=O)cc2ccc(C(F)(F)F)cc21

>  <score_type>  (12) 
oracle

>  <origin>  (12) 
adg

>  <m_score__min__energy>  (12) 
-9.9600000000000009

>  <m_primary>  (12) 
energy

$$$$
12:0
     RDKit          3D

 42 43  0  0  0  0  0  0  0  0999 V2000
   -2.5680   19.2700  -33.4900 C   0  0  0  0  0  0  0  0  0  0  0  0
   -1.3170   20.0920  -33.1800 C   0  0  1  0  0  0  0  0  0  0  0  0
   -0.5990   20.5210  -34.4700 C   0  0  0  0  0  0  0  0  0  0  0  0
   -0.5110   21.9200  -34.5480 O   0  0  0  0  0  0  0  0  0  0  0  0
   -1.7050   21.2450  -32.4320 O   0  0  0  0  0  0  0  0  0  0  0  0
   -2.9120   21.9260  -32.6300 C   0  0  0  0  0  0  0  0  0  0  0  0
   -3.4670   21.9350  -33.7620 O   0  0  0  0  0  0  0  0  0  0  0  0
   -3.5350   22.6330  -31.5020 C   0  0  0  0  0  0  0  0  0  0  0  0
   -2.8060   23.1370  -30.6060 O   0  0  0  0  0  0  0  0  0  0  0  0
   -4.9630   22.7550  -31.4090 N   0  0  0  0  0  0  0  0  0  0  0  0
   -5.6800   23.8300  -30.9780 C   0  0  0  0  0  0  0  0  0  0  0  0
   -5.1210   25.0690  -30.3970 C   0  0  0  0  0  0  0  0  0  0  0  0
   -3.8670   25.5860  -30.8350 N   0  0  0  0  0  0  0  0  0  0  0  0
   -5.7460   25.6650  -29.4790 O   0  0  0  0  0  0  0  0  0  0  0  0
   -7.0460   23.5870  -31.1120 C   0  0  0  0  0  0  0  0  0  0  0  0
   -7.1410   22.3200  -31.6450 C   0  0  0  0  0  0  0  0  0  0  0  0
   -8.2620   21.5800  -32.0010 C   0  0  0  0  0  0  0  0  0  0  0  0
   -8.0620   20.3070  -32.5590 C   0  0  0  0  0  0  0  0  0  0  0  0
   -6.7500   19.7900  -32.7650 C   0  0  0  0  0  0  0  0  0  0  0  0
   -6.5540   18.4760  -33.3490 N   0  0  0  0  0  0  0  0  0  0  0  0
   -7.1590   17.2880  -32.7360 C   0  0  0  0  0  0  0  0  0  0  0  0
   -5.7450   18.3140  -34.5640 C   0  0  0  0  0  0  0  0  0  0  0  0
   -5.6380   20.5880  -32.3890 C   0  0  0  0  0  0  0  0  0  0  0  0
   -5.8700   21.8420  -31.8170 C   0  0  0  0  0  0  0  0  0  0  0  0
   -3.0438   18.9573  -32.5488 H   0  0  0  0  0  0  0  0  0  0  0  0
   -3.2734   19.8812  -34.0721 H   0  0  0  0  0  0  0  0  0  0  0  0
   -2.2870   18.3800  -34.0721 H   0  0  0  0  0  0  0  0  0  0  0  0
   -0.6167   19.4752  -32.5976 H   0  0  0  0  0  0  0  0  0  0  0  0
    0.4150   20.0946  -34.4776 H   0  0  0  0  0  0  0  0  0  0  0  0
   -1.1741   20.1545  -35.3331 H   0  0  0  0  0  0  0  0  0  0  0  0
   -1.4140   22.2770  -34.3450 H   0  0  0  0  0  0  0  0  0  0  0  0
   -2.9730   25.2780  -30.3910 H   0  0  0  0  0  0  0  0  0  0  0  0
   -7.8726   24.2632  -30.8482 H   0  0  0  0  0  0  0  0  0  0  0  0
   -9.2757   21.9795  -31.8502 H   0  0  0  0  0  0  0  0  0  0  0  0
   -8.9333   19.6981  -32.8421 H   0  0  0  0  0  0  0  0  0  0  0  0
   -7.1136   17.3772  -31.6406 H   0  0  0  0  0  0  0  0  0  0  0  0
   -8.2088   17.2057  -33.0540 H   0  0  0  0  0  0  0  0  0  0  0  0
   -6.6081   16.3905  -33.0540 H   0  0  0  0  0  0  0  0  0  0  0  0
   -4.7018   18.1051  -34.2847 H   0  0  0  0  0  0  0  0  0  0  0  0
   -6.1400   17.4771  -35.1586 H   0  0  0  0  0  0  0  0  0  0  0  0
   -5.7873   19.2384  -35.1586 H   0  0  0  0  0  0  0  0  0  0  0  0
   -4.6112   20.2257  -32.5451 H   0  0  0  0  0  0  0  0  0  0  0  0
  1  2  1  0
  2  3  1  0
  3  4  1  0
  2  5  1  0
  5  6  1  0
  6  7  2  0
  6  8  1  0
  8  9  2  0
  8 10  1  0
 10 11  1  0
 11 12  1  0
 12 13  1  0
 12 14  2  0
 11 15  2  0
 15 16  1  0
 16 17  2  0
 17 18  1  0
 18 19  2  0
 19 20  1  0
 20 21  1  0
 20 22  1  0
 19 23  1  0
 23 24  2  0
 24 10  1  0
 24 16  1  0
  1 25  1  0
  1 26  1  0
  1 27  1  0
  2 28  1  1
  3 29  1  0
  3 30  1  0
  4 31  1  0
 13 32  1  0
 15 33  1  0
 17 34  1  0
 18 35  1  0
 21 36  1  0
 21 37  1  0
 21 38  1  0
 22 39  1  0
 22 40  1  0
 22 41  1  0
 23 42  1  0
M  CHG  1  13  -1
M  END
>  <UniqueID>  (13) 
13

>  <SMILES>  (13) 
C[C@@H](CO)OC(=O)C(=O)n1c(C([NH-])=O)cc2ccc(N(C)C)cc21

>  <Energy>  (13) 
77.23791864090784

>  <Genealogy>  (13) 
CC(CO)OC(=O)C(=O)n1c(C([NH-])=O)cc2ccc(N(C)C)cc21 (protonated)
C[C@@H](CO)OC(=O)C(=O)n1c(C([NH-])=O)cc2ccc(N(C)C)cc21 (chirality)
C[C@@H](CO)OC(=O)C(=O)n1c(C([NH-])=O)cc2ccc(N(C)C)cc21 (3D coordinates assigned)
C[C@@H](CO)OC(=O)C(=O)n1c(C([NH-])=O)cc2ccc(N(C)C)cc21 (optimized conformer: 77.23791864090784 kcal/mol)

>  <smiles>  (13) 
CC(CO)OC(=O)C(=O)n1c(C(N)=O)cc2ccc(N(C)C)cc21

>  <score_type>  (13) 
oracle

>  <origin>  (13) 
adg

>  <m_score__min__energy>  (13) 
-10.49

>  <m_primary>  (13) 
energy

$$$$
13:0
     RDKit          3D

 31 32  0  0  0  0  0  0  0  0999 V2000
   -3.7840   22.9780  -28.1210 C   0  0  0  0  0  0  0  0  0  0  0  0
   -2.9900   23.1630  -29.3380 N   0  0  0  0  0  0  0  0  0  0  0  0
   -1.8530   24.0500  -29.3180 C   0  0  0  0  0  0  0  0  0  0  0  0
   -2.0180   25.2990  -29.2900 O   0  0  0  0  0  0  0  0  0  0  0  0
   -0.5590   23.5440  -29.3520 O   0  0  0  0  0  0  0  0  0  0  0  0
   -3.4580   22.5990  -30.5790 C   0  0  0  0  0  0  0  0  0  0  0  0
   -2.6360   22.0760  -31.3790 O   0  0  0  0  0  0  0  0  0  0  0  0
   -4.8480   22.6640  -30.9390 N   0  0  0  0  0  0  0  0  0  0  0  0
   -5.6990   23.7200  -30.7990 C   0  0  0  0  0  0  0  0  0  0  0  0
   -5.3230   25.0780  -30.3540 C   0  0  0  0  0  0  0  0  0  0  0  0
   -4.1230   25.6780  -30.8360 N   0  0  0  0  0  0  0  0  0  0  0  0
   -6.0380   25.7070  -29.5290 O   0  0  0  0  0  0  0  0  0  0  0  0
   -6.9850   23.3660  -31.1990 C   0  0  0  0  0  0  0  0  0  0  0  0
   -6.8960   22.0490  -31.5920 C   0  0  0  0  0  0  0  0  0  0  0  0
   -7.8800   21.1850  -32.0630 C   0  0  0  0  0  0  0  0  0  0  0  0
   -7.5070   19.8640  -32.3660 C   0  0  0  0  0  0  0  0  0  0  0  0
   -6.1670   19.4360  -32.1940 C   0  0  0  0  0  0  0  0  0  0  0  0
   -5.7920   18.0110  -32.4740 C   0  0  0  0  0  0  0  0  0  0  0  0
   -6.9380   17.2580  -32.6440 F   0  0  0  0  0  0  0  0  0  0  0  0
   -5.2000   20.3360  -31.6970 C   0  0  0  0  0  0  0  0  0  0  0  0
   -5.5960   21.6490  -31.4230 C   0  0  0  0  0  0  0  0  0  0  0  0
   -3.1436   23.1272  -27.2392 H   0  0  0  0  0  0  0  0  0  0  0  0
   -4.6061   23.7086  -28.1050 H   0  0  0  0  0  0  0  0  0  0  0  0
   -4.1985   21.9592  -28.1050 H   0  0  0  0  0  0  0  0  0  0  0  0
   -3.1890   25.2900  -30.5800 H   0  0  0  0  0  0  0  0  0  0  0  0
   -7.8817   24.0031  -31.2007 H   0  0  0  0  0  0  0  0  0  0  0  0
   -8.9178   21.5253  -32.1942 H   0  0  0  0  0  0  0  0  0  0  0  0
   -8.2617   19.1564  -32.7398 H   0  0  0  0  0  0  0  0  0  0  0  0
   -5.1839   17.9650  -33.3895 H   0  0  0  0  0  0  0  0  0  0  0  0
   -5.2128   17.6114  -31.6285 H   0  0  0  0  0  0  0  0  0  0  0  0
   -4.1619   20.0131  -31.5295 H   0  0  0  0  0  0  0  0  0  0  0  0
  1  2  1  0
  2  3  1  0
  3  4  2  0
  3  5  1  0
  2  6  1  0
  6  7  2  0
  6  8  1  0
  8  9  1  0
  9 10  1  0
 10 11  1  0
 10 12  2  0
  9 13  2  0
 13 14  1  0
 14 15  2  0
 15 16  1  0
 16 17  2  0
 17 18  1  0
 18 19  1  0
 17 20  1  0
 20 21  2  0
 21  8  1  0
 21 14  1  0
  1 22  1  0
  1 23  1  0
  1 24  1  0
 11 25  1  0
 13 26  1  0
 15 27  1  0
 16 28  1  0
 18 29  1  0
 18 30  1  0
 20 31  1  0
M  CHG  2   5  -1  11  -1
M  END
>  <UniqueID>  (14) 
14

>  <SMILES>  (14) 
CN(C(=O)[O-])C(=O)n1c(C([NH-])=O)cc2ccc(CF)cc21

>  <Energy>  (14) 
71.13569362939414

>  <Genealogy>  (14) 
CN(C(=O)[O-])C(=O)n1c(C([NH-])=O)cc2ccc(CF)cc21 (protonated)
CN(C(=O)[O-])C(=O)n1c(C([NH-])=O)cc2ccc(CF)cc21 (3D coordinates assigned)
CN(C(=O)[O-])C(=O)n1c(C([NH-])=O)cc2ccc(CF)cc21 (optimized conformer: 71.13569362939414 kcal/mol)

>  <smiles>  (14) 
CN(C(=O)O)C(=O)n1c(C(N)=O)cc2ccc(CF)cc21

>  <score_type>  (14) 
oracle

>  <origin>  (14) 
adg

>  <m_score__min__energy>  (14) 
-10.949999999999999

>  <m_primary>  (14) 
energy

$$$$
14:0
     RDKit          3D

 42 43  0  0  0  0  0  0  0  0999 V2000
   -1.1330   20.6660  -30.3910 C   0  0  0  0  0  0  0  0  0  0  0  0
   -2.7450   20.4460  -29.5760 S   0  0  0  0  0  0  0  0  0  0  0  0
   -3.2080   22.1680  -29.6740 N   0  0  0  0  0  0  0  0  0  0  0  0
   -3.8020   22.5950  -30.9180 C   0  0  0  0  0  0  0  0  0  0  0  0
   -3.0820   22.6910  -31.9490 O   0  0  0  0  0  0  0  0  0  0  0  0
   -5.2120   22.8600  -31.0150 N   0  0  0  0  0  0  0  0  0  0  0  0
   -5.8460   24.0600  -30.8950 C   0  0  0  0  0  0  0  0  0  0  0  0
   -5.2300   25.3180  -30.4470 C   0  0  0  0  0  0  0  0  0  0  0  0
   -3.9150   25.6570  -30.8780 N   0  0  0  0  0  0  0  0  0  0  0  0
   -5.8790   26.1230  -29.7280 O   0  0  0  0  0  0  0  0  0  0  0  0
   -7.2100   23.9220  -31.1260 C   0  0  0  0  0  0  0  0  0  0  0  0
   -7.4020   22.5850  -31.3790 C   0  0  0  0  0  0  0  0  0  0  0  0
   -8.5750   21.8870  -31.6400 C   0  0  0  0  0  0  0  0  0  0  0  0
   -8.4810   20.5020  -31.8460 C   0  0  0  0  0  0  0  0  0  0  0  0
   -7.2240   19.8410  -31.8090 C   0  0  0  0  0  0  0  0  0  0  0  0
   -7.1420   18.3460  -31.9730 C   0  0  0  0  0  0  0  0  0  0  0  0
   -6.3890   17.8130  -30.9430 F   0  0  0  0  0  0  0  0  0  0  0  0
   -6.5460   18.0230  -33.1780 F   0  0  0  0  0  0  0  0  0  0  0  0
   -8.4030   17.7760  -31.9510 F   0  0  0  0  0  0  0  0  0  0  0  0
   -6.0550   20.5880  -31.5290 C   0  0  0  0  0  0  0  0  0  0  0  0
   -6.1800   21.9640  -31.3100 C   0  0  0  0  0  0  0  0  0  0  0  0
   -2.8590   23.1490  -28.6060 C   0  0  0  0  0  0  0  0  0  0  0  0
   -4.1510   23.8610  -28.1320 C   0  0  0  0  0  0  0  0  0  0  0  0
   -2.2350   22.4460  -27.3770 C   0  0  0  0  0  0  0  0  0  0  0  0
   -1.8350   24.1610  -29.1000 C   0  0  0  0  0  0  0  0  0  0  0  0
   -2.0030   25.5460  -28.7920 N   0  0  0  0  0  0  0  0  0  0  0  0
   -0.8640   23.8080  -29.8260 O   0  0  0  0  0  0  0  0  0  0  0  0
   -0.3479   20.7731  -29.6280 H   0  0  0  0  0  0  0  0  0  0  0  0
   -0.9168   19.7890  -31.0189 H   0  0  0  0  0  0  0  0  0  0  0  0
   -1.1597   21.5688  -31.0189 H   0  0  0  0  0  0  0  0  0  0  0  0
   -3.0750   25.2750  -30.3880 H   0  0  0  0  0  0  0  0  0  0  0  0
   -7.9730   24.7142  -31.1097 H   0  0  0  0  0  0  0  0  0  0  0  0
   -9.5454   22.4032  -31.6837 H   0  0  0  0  0  0  0  0  0  0  0  0
   -9.3940   19.9196  -32.0390 H   0  0  0  0  0  0  0  0  0  0  0  0
   -5.0711   20.0981  -31.4846 H   0  0  0  0  0  0  0  0  0  0  0  0
   -4.1789   23.8764  -27.0325 H   0  0  0  0  0  0  0  0  0  0  0  0
   -4.1622   24.8927  -28.5135 H   0  0  0  0  0  0  0  0  0  0  0  0
   -5.0292   23.3194  -28.5135 H   0  0  0  0  0  0  0  0  0  0  0  0
   -2.6340   22.8955  -26.4557 H   0  0  0  0  0  0  0  0  0  0  0  0
   -2.4854   21.3751  -27.4008 H   0  0  0  0  0  0  0  0  0  0  0  0
   -1.1420   22.5676  -27.4008 H   0  0  0  0  0  0  0  0  0  0  0  0
   -2.9110   26.0350  -28.9680 H   0  0  0  0  0  0  0  0  0  0  0  0
  1  2  1  0
  2  3  1  0
  3  4  1  0
  4  5  2  0
  4  6  1  0
  6  7  1  0
  7  8  1  0
  8  9  1  0
  8 10  2  0
  7 11  2  0
 11 12  1  0
 12 13  2  0
 13 14  1  0
 14 15  2  0
 15 16  1  0
 16 17  1  0
 16 18  1  0
 16 19  1  0
 15 20  1  0
 20 21  2  0
  3 22  1  0
 22 23  1  0
 22 24  1  0
 22 25  1  0
 25 26  1  0
 25 27  2  0
 21  6  1  0
 21 12  1  0
  1 28  1  0
  1 29  1  0
  1 30  1  0
  9 31  1  0
 11 32  1  0
 13 33  1  0
 14 34  1  0
 20 35  1  0
 23 36  1  0
 23 37  1  0
 23 38  1  0
 24 39  1  0
 24 40  1  0
 24 41  1  0
 26 42  1  0
M  CHG  2   9  -1  26  -1
M  END
>  <UniqueID>  (15) 
15

>  <SMILES>  (15) 
CSN(C(=O)n1c(C([NH-])=O)cc2ccc(C(F)(F)F)cc21)C(C)(C)C([NH-])=O

>  <Energy>  (15) 
86.96426530542644

>  <Genealogy>  (15) 
CSN(C(=O)n1c(C([NH-])=O)cc2ccc(C(F)(F)F)cc21)C(C)(C)C([NH-])=O (protonated)
CSN(C(=O)n1c(C([NH-])=O)cc2ccc(C(F)(F)F)cc21)C(C)(C)C([NH-])=O (3D coordinates assigned)
CSN(C(=O)n1c(C([NH-])=O)cc2ccc(C(F)(F)F)cc21)C(C)(C)C([NH-])=O (optimized conformer: 86.96426530542644 kcal/mol)

>  <smiles>  (15) 
CSN(C(=O)n1c(C(N)=O)cc2ccc(C(F)(F)F)cc21)C(C)(C)C(N)=O

>  <score_type>  (15) 
oracle

>  <origin>  (15) 
adg

>  <m_score__min__energy>  (15) 
-12.57

>  <m_primary>  (15) 
energy

$$$$
15:0
     RDKit          3D

 39 40  0  0  0  0  0  0  0  0999 V2000
   -7.6600   18.6850  -32.4090 C   0  0  0  0  0  0  0  0  0  0  0  0
   -7.6270   20.1310  -32.0180 C   0  0  0  0  0  0  0  0  0  0  0  0
   -8.8200   20.8950  -31.9770 C   0  0  0  0  0  0  0  0  0  0  0  0
   -8.7840   22.2600  -31.6450 C   0  0  0  0  0  0  0  0  0  0  0  0
   -7.5470   22.8290  -31.3580 C   0  0  0  0  0  0  0  0  0  0  0  0
   -7.2210   24.1270  -31.0350 C   0  0  0  0  0  0  0  0  0  0  0  0
   -5.8360   24.1310  -30.8760 C   0  0  0  0  0  0  0  0  0  0  0  0
   -5.0580   25.3230  -30.4740 C   0  0  0  0  0  0  0  0  0  0  0  0
   -3.6320   25.2730  -30.4770 N   0  0  0  0  0  0  0  0  0  0  0  0
   -5.6360   26.3910  -30.1450 O   0  0  0  0  0  0  0  0  0  0  0  0
   -5.3280   22.8850  -31.0910 N   0  0  0  0  0  0  0  0  0  0  0  0
   -3.9500   22.4810  -31.0500 C   0  0  0  0  0  0  0  0  0  0  0  0
   -3.2250   22.6570  -32.0690 O   0  0  0  0  0  0  0  0  0  0  0  0
   -3.3850   21.9460  -29.8330 N   0  0  2  0  0  0  0  0  0  0  0  0
   -4.0360   22.5450  -28.6600 C   0  0  0  0  0  0  0  0  0  0  0  0
   -1.9590   22.1610  -29.7890 C   0  0  0  0  0  0  0  0  0  0  0  0
   -1.1650   21.1790  -29.7320 O   0  0  0  0  0  0  0  0  0  0  0  0
   -1.4590   23.4690  -29.8350 O   0  0  0  0  0  0  0  0  0  0  0  0
   -0.5130   23.9870  -28.9020 C   0  0  0  0  0  0  0  0  0  0  0  0
   -1.1030   25.1560  -28.1140 C   0  0  0  0  0  0  0  0  0  0  0  0
   -0.2620   25.4760  -27.0650 F   0  0  0  0  0  0  0  0  0  0  0  0
   -2.3450   24.8190  -27.6060 F   0  0  0  0  0  0  0  0  0  0  0  0
   -1.2340   26.2590  -28.9380 F   0  0  0  0  0  0  0  0  0  0  0  0
   -6.3860   22.1010  -31.3850 C   0  0  0  0  0  0  0  0  0  0  0  0
   -6.3900   20.7460  -31.7300 C   0  0  0  0  0  0  0  0  0  0  0  0
   -7.6743   18.0606  -31.5035 H   0  0  0  0  0  0  0  0  0  0  0  0
   -8.5629   18.4869  -33.0053 H   0  0  0  0  0  0  0  0  0  0  0  0
   -6.7671   18.4459  -33.0053 H   0  0  0  0  0  0  0  0  0  0  0  0
   -9.7827   20.4152  -32.2071 H   0  0  0  0  0  0  0  0  0  0  0  0
   -9.7053   22.8602  -31.6130 H   0  0  0  0  0  0  0  0  0  0  0  0
   -7.9074   24.9796  -30.9256 H   0  0  0  0  0  0  0  0  0  0  0  0
   -3.1240   24.4500  -30.8720 H   0  0  0  0  0  0  0  0  0  0  0  0
   -3.5650   20.9150  -29.7980 H   0  0  0  0  0  0  0  0  0  0  0  0
   -3.5891   22.1338  -27.7428 H   0  0  0  0  0  0  0  0  0  0  0  0
   -3.8950   23.6358  -28.6795 H   0  0  0  0  0  0  0  0  0  0  0  0
   -5.1113   22.3139  -28.6795 H   0  0  0  0  0  0  0  0  0  0  0  0
   -0.2257   23.1895  -28.2010 H   0  0  0  0  0  0  0  0  0  0  0  0
    0.3653   24.3473  -29.4576 H   0  0  0  0  0  0  0  0  0  0  0  0
   -5.4519   20.1734  -31.7758 H   0  0  0  0  0  0  0  0  0  0  0  0
  1  2  1  0
  2  3  2  0
  3  4  1  0
  4  5  2  0
  5  6  1  0
  6  7  2  0
  7  8  1  0
  8  9  1  0
  8 10  2  0
  7 11  1  0
 11 12  1  0
 12 13  2  0
 12 14  1  0
 14 15  1  0
 14 16  1  0
 16 17  2  0
 16 18  1  0
 18 19  1  0
 19 20  1  0
 20 21  1  0
 20 22  1  0
 20 23  1  0
 11 24  1  0
 24 25  2  0
 25  2  1  0
 24  5  1  0
  1 26  1  0
  1 27  1  0
  1 28  1  0
  3 29  1  0
  4 30  1  0
  6 31  1  0
  9 32  1  0
 14 33  1  6
 15 34  1  0
 15 35  1  0
 15 36  1  0
 19 37  1  0
 19 38  1  0
 25 39  1  0
M  CHG  2   9  -1  14   1
M  END
>  <UniqueID>  (16) 
16

>  <SMILES>  (16) 
Cc1ccc2cc(C([NH-])=O)n(C(=O)[NH+](C)C(=O)OCC(F)(F)F)c2c1

>  <Energy>  (16) 
75.60538719783784

>  <Genealogy>  (16) 
Cc1ccc2cc(C([NH-])=O)n(C(=O)[NH+](C)C(=O)OCC(F)(F)F)c2c1 (protonated)
Cc1ccc2cc(C([NH-])=O)n(C(=O)[NH+](C)C(=O)OCC(F)(F)F)c2c1 (3D coordinates assigned)
Cc1ccc2cc(C([NH-])=O)n(C(=O)[NH+](C)C(=O)OCC(F)(F)F)c2c1 (optimized conformer: 75.60538719783784 kcal/mol)

>  <smiles>  (16) 
Cc1ccc2cc(C(N)=O)n(C(=O)N(C)C(=O)OCC(F)(F)F)c2c1

>  <score_type>  (16) 
oracle

>  <origin>  (16) 
adg

>  <m_score__min__energy>  (16) 
-8.5600000000000005

>  <m_primary>  (16) 
energy

$$$$
16:0
     RDKit          3D

 56 59  0  0  0  0  0  0  0  0999 V2000
   -1.0740   21.5360  -32.0640 C   0  0  0  0  0  0  0  0  0  0  0  0
   -2.5560   21.1230  -32.1720 C   0  0  0  0  0  0  0  0  0  0  0  0
   -3.1420   21.7130  -33.4630 C   0  0  0  0  0  0  0  0  0  0  0  0
   -2.6900   19.5890  -32.2160 C   0  0  0  0  0  0  0  0  0  0  0  0
   -3.3140   21.6620  -31.0800 O   0  0  0  0  0  0  0  0  0  0  0  0
   -4.0420   22.8610  -31.0820 C   0  0  0  0  0  0  0  0  0  0  0  0
   -3.4560   23.9710  -30.9590 O   0  0  0  0  0  0  0  0  0  0  0  0
   -5.4730   22.8230  -31.2250 N   0  0  0  0  0  0  0  0  0  0  0  0
   -6.3590   23.8200  -30.9490 C   0  0  0  0  0  0  0  0  0  0  0  0
   -6.0420   25.0990  -30.2810 C   0  0  0  0  0  0  0  0  0  0  0  0
   -5.0350   25.9700  -30.7970 N   0  0  0  0  0  0  0  0  0  0  0  0
   -6.6310   25.4000  -29.2090 O   0  0  0  0  0  0  0  0  0  0  0  0
   -7.6500   23.4470  -31.3110 C   0  0  0  0  0  0  0  0  0  0  0  0
   -7.5330   22.1680  -31.8070 C   0  0  0  0  0  0  0  0  0  0  0  0
   -8.5080   21.3080  -32.3030 C   0  0  0  0  0  0  0  0  0  0  0  0
   -8.1010   20.0440  -32.7590 C   0  0  0  0  0  0  0  0  0  0  0  0
   -6.7370   19.6720  -32.7200 C   0  0  0  0  0  0  0  0  0  0  0  0
   -6.3360   18.3770  -33.1710 N   0  0  0  0  0  0  0  0  0  0  0  0
   -6.1090   17.6960  -34.4610 C   0  0  0  0  0  0  0  0  0  0  0  0
   -5.7770   16.3500  -33.8770 C   0  0  0  0  0  0  0  0  0  0  0  0
   -4.3220   15.8970  -34.1010 C   0  0  0  0  0  0  0  0  0  0  0  0
   -4.0040   14.6090  -33.3050 C   0  0  0  0  0  0  0  0  0  0  0  0
   -5.2010   13.8510  -32.8910 N   0  0  0  0  0  0  0  0  0  0  0  0
   -6.2290   13.8330  -33.9400 C   0  0  0  0  0  0  0  0  0  0  0  0
   -6.8060   15.2400  -34.2040 C   0  0  0  0  0  0  0  0  0  0  0  0
   -6.0050   17.0710  -32.5710 C   0  0  0  0  0  0  0  0  0  0  0  0
   -5.7720   20.5700  -32.2220 C   0  0  0  0  0  0  0  0  0  0  0  0
   -6.2080   21.8140  -31.7470 C   0  0  0  0  0  0  0  0  0  0  0  0
   -0.7916   21.6147  -31.0038 H   0  0  0  0  0  0  0  0  0  0  0  0
   -0.4456   20.7788  -32.5556 H   0  0  0  0  0  0  0  0  0  0  0  0
   -0.9278   22.5091  -32.5556 H   0  0  0  0  0  0  0  0  0  0  0  0
   -3.8963   22.4725  -33.2097 H   0  0  0  0  0  0  0  0  0  0  0  0
   -2.3375   22.1775  -34.0521 H   0  0  0  0  0  0  0  0  0  0  0  0
   -3.6120   20.9117  -34.0521 H   0  0  0  0  0  0  0  0  0  0  0  0
   -2.7245   19.1944  -31.1898 H   0  0  0  0  0  0  0  0  0  0  0  0
   -3.6153   19.3168  -32.7448 H   0  0  0  0  0  0  0  0  0  0  0  0
   -1.8259   19.1605  -32.7448 H   0  0  0  0  0  0  0  0  0  0  0  0
   -4.4310   25.6810  -31.5990 H   0  0  0  0  0  0  0  0  0  0  0  0
   -4.8210   26.8690  -30.3130 H   0  0  0  0  0  0  0  0  0  0  0  0
   -8.5680   24.0462  -31.2202 H   0  0  0  0  0  0  0  0  0  0  0  0
   -9.5654   21.6093  -32.3368 H   0  0  0  0  0  0  0  0  0  0  0  0
   -8.8485   19.3378  -33.1495 H   0  0  0  0  0  0  0  0  0  0  0  0
   -7.0089   17.6739  -35.0932 H   0  0  0  0  0  0  0  0  0  0  0  0
   -5.3677   18.1436  -35.1393 H   0  0  0  0  0  0  0  0  0  0  0  0
   -4.1684   15.7027  -35.1728 H   0  0  0  0  0  0  0  0  0  0  0  0
   -3.6523   16.6958  -33.7498 H   0  0  0  0  0  0  0  0  0  0  0  0
   -3.3820   13.9568  -33.9356 H   0  0  0  0  0  0  0  0  0  0  0  0
   -3.4896   14.9215  -32.3842 H   0  0  0  0  0  0  0  0  0  0  0  0
   -5.6020   14.2820  -32.0250 H   0  0  0  0  0  0  0  0  0  0  0  0
   -5.7817   13.4518  -34.8698 H   0  0  0  0  0  0  0  0  0  0  0  0
   -7.0510   13.1854  -33.6010 H   0  0  0  0  0  0  0  0  0  0  0  0
   -7.0885   15.3166  -35.2644 H   0  0  0  0  0  0  0  0  0  0  0  0
   -7.6812   15.3802  -33.5526 H   0  0  0  0  0  0  0  0  0  0  0  0
   -6.8378   16.6465  -31.9911 H   0  0  0  0  0  0  0  0  0  0  0  0
   -5.1864   17.0494  -31.8366 H   0  0  0  0  0  0  0  0  0  0  0  0
   -4.7053   20.3017  -32.2066 H   0  0  0  0  0  0  0  0  0  0  0  0
  1  2  1  0
  2  3  1  0
  2  4  1  0
  2  5  1  0
  5  6  1  0
  6  7  2  0
  6  8  1  0
  8  9  1  0
  9 10  1  0
 10 11  1  0
 10 12  2  0
  9 13  2  0
 13 14  1  0
 14 15  2  0
 15 16  1  0
 16 17  2  0
 17 18  1  0
 18 19  1  0
 19 20  1  0
 20 21  1  0
 21 22  1  0
 22 23  1  0
 23 24  1  0
 24 25  1  0
 20 26  1  0
 17 27  1  0
 27 28  2  0
 28  8  1  0
 28 14  1  0
 26 18  1  0
 25 20  1  0
  1 29  1  0
  1 30  1  0
  1 31  1  0
  3 32  1  0
  3 33  1  0
  3 34  1  0
  4 35  1  0
  4 36  1  0
  4 37  1  0
 11 38  1  0
 11 39  1  0
 13 40  1  0
 15 41  1  0
 16 42  1  0
 19 43  1  0
 19 44  1  0
 21 45  1  0
 21 46  1  0
 22 47  1  0
 22 48  1  0
 23 49  1  0
 24 50  1  0
 24 51  1  0
 25 52  1  0
 25 53  1  0
 26 54  1  0
 26 55  1  0
 27 56  1  0
M  END
>  <UniqueID>  (17) 
17

>  <SMILES>  (17) 
CC(C)(C)OC(=O)n1c(C(N)=O)cc2ccc(N3CC4(CCNCC4)C3)cc21

>  <Energy>  (17) 
143.28672788965926

>  <Genealogy>  (17) 
CC(C)(C)OC(=O)n1c(C(N)=O)cc2ccc(N3CC4(CCNCC4)C3)cc21 (3D coordinates assigned)
CC(C)(C)OC(=O)n1c(C(N)=O)cc2ccc(N3CC4(CCNCC4)C3)cc21 (nonaromatic ring conformer: 143.28672788965926 kcal/mol)

>  <smiles>  (17) 
CC(C)(C)OC(=O)n1c(C(N)=O)cc2ccc(N3CC4(CCNCC4)C3)cc21

>  <score_type>  (17) 
oracle

>  <origin>  (17) 
adg

>  <m_score__min__energy>  (17) 
-9.7599999999999998

>  <m_primary>  (17) 
energy

$$$$
17:0
     RDKit          3D

 44 45  0  0  0  0  0  0  0  0999 V2000
   -0.8650   26.9420  -27.7370 C   0  0  0  0  0  0  0  0  0  0  0  0
   -1.2410   26.2470  -28.9180 O   0  0  0  0  0  0  0  0  0  0  0  0
   -1.2160   24.8520  -29.0190 C   0  0  0  0  0  0  0  0  0  0  0  0
   -0.1170   24.2310  -28.9680 O   0  0  0  0  0  0  0  0  0  0  0  0
   -2.5020   24.1140  -29.3140 C   0  0  0  0  0  0  0  0  0  0  0  0
   -3.2880   23.7890  -28.0260 C   0  0  0  0  0  0  0  0  0  0  0  0
   -2.1490   22.8000  -30.0250 C   0  0  0  0  0  0  0  0  0  0  0  0
   -3.3260   24.9080  -30.2300 N   0  0  0  0  0  0  0  0  0  0  0  0
   -4.5750   24.5150  -30.8110 C   0  0  0  0  0  0  0  0  0  0  0  0
   -5.3550   25.4090  -31.2300 O   0  0  0  0  0  0  0  0  0  0  0  0
   -4.9070   23.1570  -30.9260 O   0  0  0  0  0  0  0  0  0  0  0  0
   -5.1520   22.4960  -32.1370 C   0  0  0  0  0  0  0  0  0  0  0  0
   -4.3610   22.6190  -33.1120 O   0  0  0  0  0  0  0  0  0  0  0  0
   -6.3070   21.6490  -32.2570 N   0  0  0  0  0  0  0  0  0  0  0  0
   -7.6020   21.9750  -31.9950 C   0  0  0  0  0  0  0  0  0  0  0  0
   -8.1170   23.3330  -31.7300 C   0  0  0  0  0  0  0  0  0  0  0  0
   -7.4810   24.1910  -30.7830 N   0  0  0  0  0  0  0  0  0  0  0  0
   -9.0890   23.7700  -32.4020 O   0  0  0  0  0  0  0  0  0  0  0  0
   -8.4160   20.8470  -32.0570 C   0  0  0  0  0  0  0  0  0  0  0  0
   -7.5730   19.8080  -32.3750 C   0  0  0  0  0  0  0  0  0  0  0  0
   -7.8430   18.4500  -32.5230 C   0  0  0  0  0  0  0  0  0  0  0  0
   -6.7670   17.5910  -32.7930 C   0  0  0  0  0  0  0  0  0  0  0  0
   -5.4490   18.0980  -32.9120 C   0  0  0  0  0  0  0  0  0  0  0  0
   -4.3060   17.1580  -33.1500 C   0  0  0  0  0  0  0  0  0  0  0  0
   -5.2100   19.4780  -32.7400 C   0  0  0  0  0  0  0  0  0  0  0  0
   -6.3040   20.3170  -32.4950 C   0  0  0  0  0  0  0  0  0  0  0  0
   -1.1781   26.3632  -26.8555 H   0  0  0  0  0  0  0  0  0  0  0  0
    0.2270   27.0730  -27.7206 H   0  0  0  0  0  0  0  0  0  0  0  0
   -1.3529   27.9278  -27.7206 H   0  0  0  0  0  0  0  0  0  0  0  0
   -2.6750   24.0425  -27.1485 H   0  0  0  0  0  0  0  0  0  0  0  0
   -4.2178   24.3764  -28.0058 H   0  0  0  0  0  0  0  0  0  0  0  0
   -3.5314   22.7165  -28.0058 H   0  0  0  0  0  0  0  0  0  0  0  0
   -1.9401   22.0223  -29.2757 H   0  0  0  0  0  0  0  0  0  0  0  0
   -2.9944   22.4851  -30.6544 H   0  0  0  0  0  0  0  0  0  0  0  0
   -1.2596   22.9511  -30.6544 H   0  0  0  0  0  0  0  0  0  0  0  0
   -6.6050   23.9000  -30.2960 H   0  0  0  0  0  0  0  0  0  0  0  0
   -7.8120   25.1740  -30.6660 H   0  0  0  0  0  0  0  0  0  0  0  0
   -9.5018   20.7975  -31.8877 H   0  0  0  0  0  0  0  0  0  0  0  0
   -8.8684   18.0626  -32.4311 H   0  0  0  0  0  0  0  0  0  0  0  0
   -6.9483   16.5128  -32.9136 H   0  0  0  0  0  0  0  0  0  0  0  0
   -3.8992   16.8235  -32.1843 H   0  0  0  0  0  0  0  0  0  0  0  0
   -4.6605   16.2867  -33.7202 H   0  0  0  0  0  0  0  0  0  0  0  0
   -3.5195   17.6740  -33.7202 H   0  0  0  0  0  0  0  0  0  0  0  0
   -4.1895   19.8846  -32.7970 H   0  0  0  0  0  0  0  0  0  0  0  0
  1  2  1  0
  2  3  1  0
  3  4  2  0
  3  5  1  0
  5  6  1  0
  5  7  1  0
  5  8  1  0
  8  9  1  0
  9 10  2  0
  9 11  1  0
 11 12  1  0
 12 13  2  0
 12 14  1  0
 14 15  1  0
 15 16  1  0
 16 17  1  0
 16 18  2  0
 15 19  2  0
 19 20  1  0
 20 21  2  0
 21 22  1  0
 22 23  2  0
 23 24  1  0
 23 25  1  0
 25 26  2  0
 26 14  1  0
 26 20  1  0
  1 27  1  0
  1 28  1  0
  1 29  1  0
  6 30  1  0
  6 31  1  0
  6 32  1  0
  7 33  1  0
  7 34  1  0
  7 35  1  0
 17 36  1  0
 17 37  1  0
 19 38  1  0
 21 39  1  0
 22 40  1  0
 24 41  1  0
 24 42  1  0
 24 43  1  0
 25 44  1  0
M  CHG  1   8  -1
M  END
>  <UniqueID>  (18) 
18

>  <SMILES>  (18) 
COC(=O)C(C)(C)[N-]C(=O)OC(=O)n1c(C(N)=O)cc2ccc(C)cc21

>  <Energy>  (18) 
76.81624225597761

>  <Genealogy>  (18) 
COC(=O)C(C)(C)[N-]C(=O)OC(=O)n1c(C(N)=O)cc2ccc(C)cc21 (protonated)
COC(=O)C(C)(C)[N-]C(=O)OC(=O)n1c(C(N)=O)cc2ccc(C)cc21 (3D coordinates assigned)
COC(=O)C(C)(C)[N-]C(=O)OC(=O)n1c(C(N)=O)cc2ccc(C)cc21 (optimized conformer: 76.81624225597761 kcal/mol)

>  <smiles>  (18) 
COC(=O)C(C)(C)NC(=O)OC(=O)n1c(C(N)=O)cc2ccc(C)cc21

>  <score_type>  (18) 
oracle

>  <origin>  (18) 
adg

>  <m_score__min__energy>  (18) 
-10.09

>  <m_primary>  (18) 
energy

$$$$
18:0
     RDKit          3D

 44 46  0  0  0  0  0  0  0  0999 V2000
   -0.8320   21.6420  -26.7410 C   0  0  0  0  0  0  0  0  0  0  0  0
   -0.9840   22.6790  -27.8050 C   0  0  0  0  0  0  0  0  0  0  0  0
   -1.3270   23.9270  -27.5930 O   0  0  0  0  0  0  0  0  0  0  0  0
   -1.3410   24.5010  -28.7750 C   0  0  0  0  0  0  0  0  0  0  0  0
   -1.6290   25.7130  -28.9590 O   0  0  0  0  0  0  0  0  0  0  0  0
   -1.0210   23.6730  -29.7420 O   0  0  0  0  0  0  0  0  0  0  0  0
   -0.7950   22.5160  -29.1640 C   0  0  0  0  0  0  0  0  0  0  0  0
   -0.3740   21.2750  -29.8800 C   0  0  0  0  0  0  0  0  0  0  0  0
   -1.4430   20.8260  -30.7030 O   0  0  0  0  0  0  0  0  0  0  0  0
   -1.8890   21.5340  -31.8230 C   0  0  0  0  0  0  0  0  0  0  0  0
   -1.0690   21.8780  -32.7180 O   0  0  0  0  0  0  0  0  0  0  0  0
   -3.2880   21.8450  -31.9690 N   0  0  0  0  0  0  0  0  0  0  0  0
   -3.9810   21.5030  -33.2150 C   0  0  0  0  0  0  0  0  0  0  0  0
   -4.0290   22.4120  -30.8690 C   0  0  0  0  0  0  0  0  0  0  0  0
   -3.4810   22.5460  -29.7420 O   0  0  0  0  0  0  0  0  0  0  0  0
   -5.3790   22.8680  -31.0510 N   0  0  0  0  0  0  0  0  0  0  0  0
   -5.8590   24.1370  -30.9220 C   0  0  0  0  0  0  0  0  0  0  0  0
   -5.0460   25.3440  -30.6630 C   0  0  0  0  0  0  0  0  0  0  0  0
   -3.6320   25.2970  -30.8360 N   0  0  0  0  0  0  0  0  0  0  0  0
   -5.5850   26.4120  -30.2710 O   0  0  0  0  0  0  0  0  0  0  0  0
   -7.2340   24.1620  -31.1380 C   0  0  0  0  0  0  0  0  0  0  0  0
   -7.5840   22.8580  -31.4140 C   0  0  0  0  0  0  0  0  0  0  0  0
   -8.8250   22.3050  -31.7110 C   0  0  0  0  0  0  0  0  0  0  0  0
   -8.8910   20.9210  -31.9420 C   0  0  0  0  0  0  0  0  0  0  0  0
   -7.7270   20.1120  -31.8520 C   0  0  0  0  0  0  0  0  0  0  0  0
   -7.8000   18.6340  -32.1380 C   0  0  0  0  0  0  0  0  0  0  0  0
   -6.9830   17.9570  -31.2520 F   0  0  0  0  0  0  0  0  0  0  0  0
   -9.0980   18.1750  -31.9970 F   0  0  0  0  0  0  0  0  0  0  0  0
   -7.3850   18.3630  -33.4300 F   0  0  0  0  0  0  0  0  0  0  0  0
   -6.4800   20.7180  -31.5720 C   0  0  0  0  0  0  0  0  0  0  0  0
   -6.4450   22.0990  -31.3570 C   0  0  0  0  0  0  0  0  0  0  0  0
   -0.9018   22.1184  -25.7520 H   0  0  0  0  0  0  0  0  0  0  0  0
   -1.6298   20.8916  -26.8437 H   0  0  0  0  0  0  0  0  0  0  0  0
    0.1475   21.1521  -26.8437 H   0  0  0  0  0  0  0  0  0  0  0  0
    0.5057   21.4906  -30.5042 H   0  0  0  0  0  0  0  0  0  0  0  0
   -0.1172   20.4947  -29.1484 H   0  0  0  0  0  0  0  0  0  0  0  0
   -4.9446   21.0274  -32.9800 H   0  0  0  0  0  0  0  0  0  0  0  0
   -4.1566   22.4179  -33.7999 H   0  0  0  0  0  0  0  0  0  0  0  0
   -3.3617   20.8071  -33.7999 H   0  0  0  0  0  0  0  0  0  0  0  0
   -3.0410   24.6620  -30.2540 H   0  0  0  0  0  0  0  0  0  0  0  0
   -7.8997   25.0368  -31.0971 H   0  0  0  0  0  0  0  0  0  0  0  0
   -9.7272   22.9321  -31.7634 H   0  0  0  0  0  0  0  0  0  0  0  0
   -9.8560   20.4580  -32.1957 H   0  0  0  0  0  0  0  0  0  0  0  0
   -5.5598   20.1171  -31.5245 H   0  0  0  0  0  0  0  0  0  0  0  0
  1  2  1  0
  2  3  1  0
  3  4  1  0
  4  5  2  0
  4  6  1  0
  6  7  1  0
  7  8  1  0
  8  9  1  0
  9 10  1  0
 10 11  2  0
 10 12  1  0
 12 13  1  0
 12 14  1  0
 14 15  2  0
 14 16  1  0
 16 17  1  0
 17 18  1  0
 18 19  1  0
 18 20  2  0
 17 21  2  0
 21 22  1  0
 22 23  2  0
 23 24  1  0
 24 25  2  0
 25 26  1  0
 26 27  1  0
 26 28  1  0
 26 29  1  0
 25 30  1  0
 30 31  2  0
  7  2  2  0
 31 16  1  0
 31 22  1  0
  1 32  1  0
  1 33  1  0
  1 34  1  0
  8 35  1  0
  8 36  1  0
 13 37  1  0
 13 38  1  0
 13 39  1  0
 19 40  1  0
 21 41  1  0
 23 42  1  0
 24 43  1  0
 30 44  1  0
M  CHG  1  19  -1
M  END
>  <UniqueID>  (19) 
19

>  <SMILES>  (19) 
Cc1oc(=O)oc1COC(=O)N(C)C(=O)n1c(C([NH-])=O)cc2ccc(C(F)(F)F)cc21

>  <Energy>  (19) 
115.60277638434866

>  <Genealogy>  (19) 
Cc1oc(=O)oc1COC(=O)N(C)C(=O)n1c(C([NH-])=O)cc2ccc(C(F)(F)F)cc21 (protonated)
Cc1oc(=O)oc1COC(=O)N(C)C(=O)n1c(C([NH-])=O)cc2ccc(C(F)(F)F)cc21 (3D coordinates assigned)
Cc1oc(=O)oc1COC(=O)N(C)C(=O)n1c(C([NH-])=O)cc2ccc(C(F)(F)F)cc21 (optimized conformer: 115.60277638434866 kcal/mol)

>  <smiles>  (19) 
Cc1oc(=O)oc1COC(=O)N(C)C(=O)n1c(C(N)=O)cc2ccc(C(F)(F)F)cc21

>  <score_type>  (19) 
oracle

>  <origin>  (19) 
adg

>  <m_score__min__energy>  (19) 
-11.199999999999999

>  <m_primary>  (19) 
energy

$$$$
19:0
     RDKit          3D

 50 51  0  0  0  0  0  0  0  0999 V2000
   -3.5530   17.0550  -35.3070 C   0  0  0  0  0  0  0  0  0  0  0  0
   -4.6990   16.7890  -34.4310 N   0  0  0  0  0  0  0  0  0  0  0  0
   -4.7770   15.5260  -33.6890 C   0  0  0  0  0  0  0  0  0  0  0  0
   -5.7350   17.7890  -34.3110 C   0  0  0  0  0  0  0  0  0  0  0  0
   -5.6470   18.8610  -34.9700 O   0  0  0  0  0  0  0  0  0  0  0  0
   -6.9400   17.5930  -33.4260 C   0  0  0  0  0  0  0  0  0  0  0  0
   -6.6990   18.1230  -32.0740 N   0  0  0  0  0  0  0  0  0  0  0  0
   -6.0840   17.2680  -31.0520 C   0  0  0  0  0  0  0  0  0  0  0  0
   -6.9570   19.5080  -31.7630 C   0  0  0  0  0  0  0  0  0  0  0  0
   -8.2900   19.9830  -31.6350 C   0  0  0  0  0  0  0  0  0  0  0  0
   -8.5460   21.3300  -31.3280 C   0  0  0  0  0  0  0  0  0  0  0  0
   -7.4580   22.1820  -31.1670 C   0  0  0  0  0  0  0  0  0  0  0  0
   -7.4180   23.5160  -30.8320 C   0  0  0  0  0  0  0  0  0  0  0  0
   -6.0650   23.8440  -30.7860 C   0  0  0  0  0  0  0  0  0  0  0  0
   -5.5640   25.1980  -30.4670 C   0  0  0  0  0  0  0  0  0  0  0  0
   -4.2040   25.5650  -30.7050 N   0  0  0  0  0  0  0  0  0  0  0  0
   -6.3630   26.0620  -30.0190 O   0  0  0  0  0  0  0  0  0  0  0  0
   -5.2990   22.7570  -31.0790 N   0  0  0  0  0  0  0  0  0  0  0  0
   -3.8680   22.6440  -30.9860 C   0  0  0  0  0  0  0  0  0  0  0  0
   -3.1920   22.5220  -32.0440 O   0  0  0  0  0  0  0  0  0  0  0  0
   -3.1970   22.6940  -29.7110 N   0  0  0  0  0  0  0  0  0  0  0  0
   -4.0000   22.6710  -28.4860 C   0  0  0  0  0  0  0  0  0  0  0  0
   -1.7390   22.8520  -29.6180 C   0  0  0  0  0  0  0  0  0  0  0  0
   -1.3940   24.2430  -29.1870 C   0  0  0  0  0  0  0  0  0  0  0  0
   -0.2890   24.4750  -28.6300 O   0  0  0  0  0  0  0  0  0  0  0  0
   -2.2770   25.2870  -29.4280 O   0  0  0  0  0  0  0  0  0  0  0  0
   -6.1660   21.7450  -31.3010 C   0  0  0  0  0  0  0  0  0  0  0  0
   -5.8810   20.4040  -31.5770 C   0  0  0  0  0  0  0  0  0  0  0  0
   -2.6632   17.2615  -34.6942 H   0  0  0  0  0  0  0  0  0  0  0  0
   -3.3651   16.1766  -35.9419 H   0  0  0  0  0  0  0  0  0  0  0  0
   -3.7713   17.9264  -35.9419 H   0  0  0  0  0  0  0  0  0  0  0  0
   -4.7642   15.7339  -32.6089 H   0  0  0  0  0  0  0  0  0  0  0  0
   -5.7091   15.0039  -33.9508 H   0  0  0  0  0  0  0  0  0  0  0  0
   -3.9162   14.8931  -33.9508 H   0  0  0  0  0  0  0  0  0  0  0  0
   -7.7997   18.1172  -33.8690 H   0  0  0  0  0  0  0  0  0  0  0  0
   -7.1423   16.5147  -33.3466 H   0  0  0  0  0  0  0  0  0  0  0  0
   -6.3521   17.6407  -30.0524 H   0  0  0  0  0  0  0  0  0  0  0  0
   -6.4486   16.2368  -31.1688 H   0  0  0  0  0  0  0  0  0  0  0  0
   -4.9904   17.2857  -31.1688 H   0  0  0  0  0  0  0  0  0  0  0  0
   -9.1309   19.2884  -31.7778 H   0  0  0  0  0  0  0  0  0  0  0  0
   -9.5761   21.6999  -31.2182 H   0  0  0  0  0  0  0  0  0  0  0  0
   -8.2726   24.1817  -30.6411 H   0  0  0  0  0  0  0  0  0  0  0  0
   -3.5590   24.9390  -31.2360 H   0  0  0  0  0  0  0  0  0  0  0  0
   -3.8630   26.5130  -30.4340 H   0  0  0  0  0  0  0  0  0  0  0  0
   -3.3341   22.6901  -27.6107 H   0  0  0  0  0  0  0  0  0  0  0  0
   -4.6602   23.5506  -28.4637 H   0  0  0  0  0  0  0  0  0  0  0  0
   -4.6087   21.7551  -28.4637 H   0  0  0  0  0  0  0  0  0  0  0  0
   -1.3424   22.1356  -28.8835 H   0  0  0  0  0  0  0  0  0  0  0  0
   -1.2947   22.6630  -30.6064 H   0  0  0  0  0  0  0  0  0  0  0  0
   -4.8405   20.0542  -31.6478 H   0  0  0  0  0  0  0  0  0  0  0  0
  1  2  1  0
  2  3  1  0
  2  4  1  0
  4  5  2  0
  4  6  1  0
  6  7  1  0
  7  8  1  0
  7  9  1  0
  9 10  2  0
 10 11  1  0
 11 12  2  0
 12 13  1  0
 13 14  2  0
 14 15  1  0
 15 16  1  0
 15 17  2  0
 14 18  1  0
 18 19  1  0
 19 20  2  0
 19 21  1  0
 21 22  1  0
 21 23  1  0
 23 24  1  0
 24 25  2  0
 24 26  1  0
 18 27  1  0
 27 28  2  0
 28  9  1  0
 27 12  1  0
  1 29  1  0
  1 30  1  0
  1 31  1  0
  3 32  1  0
  3 33  1  0
  3 34  1  0
  6 35  1  0
  6 36  1  0
  8 37  1  0
  8 38  1  0
  8 39  1  0
 10 40  1  0
 11 41  1  0
 13 42  1  0
 16 43  1  0
 16 44  1  0
 22 45  1  0
 22 46  1  0
 22 47  1  0
 23 48  1  0
 23 49  1  0
 28 50  1  0
M  CHG  1  26  -1
M  END
>  <UniqueID>  (20) 
20

>  <SMILES>  (20) 
CN(C)C(=O)CN(C)c1ccc2cc(C(N)=O)n(C(=O)N(C)CC(=O)[O-])c2c1

>  <Energy>  (20) 
85.52554388768625

>  <Genealogy>  (20) 
CN(C)C(=O)CN(C)c1ccc2cc(C(N)=O)n(C(=O)N(C)CC(=O)[O-])c2c1 (protonated)
CN(C)C(=O)CN(C)c1ccc2cc(C(N)=O)n(C(=O)N(C)CC(=O)[O-])c2c1 (3D coordinates assigned)
CN(C)C(=O)CN(C)c1ccc2cc(C(N)=O)n(C(=O)N(C)CC(=O)[O-])c2c1 (optimized conformer: 85.52554388768625 kcal/mol)

>  <smiles>  (20) 
CN(C)C(=O)CN(C)c1ccc2cc(C(N)=O)n(C(=O)N(C)CC(=O)O)c2c1

>  <score_type>  (20) 
oracle

>  <origin>  (20) 
adg

>  <m_score__min__energy>  (20) 
-11.4

>  <m_primary>  (20) 
energy

$$$$
20:0
     RDKit          3D

 36 37  0  0  0  0  0  0  0  0999 V2000
   -1.3830   21.4350  -31.1530 C   0  0  0  0  0  0  0  0  0  0  0  0
   -2.6100   21.8440  -31.9130 C   0  0  0  0  0  0  0  0  0  0  0  0
   -2.6470   21.6190  -33.1540 O   0  0  0  0  0  0  0  0  0  0  0  0
   -3.7330   22.4830  -31.2630 N   0  0  0  0  0  0  0  0  0  0  0  0
   -3.6000   23.0900  -29.9280 C   0  0  0  0  0  0  0  0  0  0  0  0
   -3.4460   24.5760  -30.0240 C   0  0  0  0  0  0  0  0  0  0  0  0
   -2.5330   25.1660  -29.3900 O   0  0  0  0  0  0  0  0  0  0  0  0
   -4.2960   25.3090  -30.8430 O   0  0  0  0  0  0  0  0  0  0  0  0
   -5.0050   22.5540  -31.9410 C   0  0  0  0  0  0  0  0  0  0  0  0
   -5.2910   23.5590  -32.6460 O   0  0  0  0  0  0  0  0  0  0  0  0
   -5.9770   21.5100  -31.7890 N   0  0  0  0  0  0  0  0  0  0  0  0
   -7.1060   21.5200  -31.0280 C   0  0  0  0  0  0  0  0  0  0  0  0
   -7.5080   22.5880  -30.0890 C   0  0  0  0  0  0  0  0  0  0  0  0
   -6.9180   23.8880  -30.1370 N   0  0  0  0  0  0  0  0  0  0  0  0
   -8.3690   22.3380  -29.2030 O   0  0  0  0  0  0  0  0  0  0  0  0
   -7.8500   20.3610  -31.2450 C   0  0  0  0  0  0  0  0  0  0  0  0
   -7.1230   19.6290  -32.1570 C   0  0  0  0  0  0  0  0  0  0  0  0
   -7.3960   18.3930  -32.7400 C   0  0  0  0  0  0  0  0  0  0  0  0
   -6.4760   17.8910  -33.6760 C   0  0  0  0  0  0  0  0  0  0  0  0
   -5.3130   18.6270  -34.0120 C   0  0  0  0  0  0  0  0  0  0  0  0
   -4.3890   18.1080  -34.9710 N   0  0  0  0  0  0  0  0  0  0  0  0
   -5.0700   19.8760  -33.4030 C   0  0  0  0  0  0  0  0  0  0  0  0
   -5.9970   20.3450  -32.4670 C   0  0  0  0  0  0  0  0  0  0  0  0
   -1.5815   21.5012  -30.0731 H   0  0  0  0  0  0  0  0  0  0  0  0
   -1.1179   20.3999  -31.4143 H   0  0  0  0  0  0  0  0  0  0  0  0
   -0.5498   22.1040  -31.4143 H   0  0  0  0  0  0  0  0  0  0  0  0
   -4.4990   22.8595  -29.3375 H   0  0  0  0  0  0  0  0  0  0  0  0
   -2.7028   22.6765  -29.4442 H   0  0  0  0  0  0  0  0  0  0  0  0
   -7.2790   24.6480  -29.5200 H   0  0  0  0  0  0  0  0  0  0  0  0
   -6.0550   24.0710  -30.6940 H   0  0  0  0  0  0  0  0  0  0  0  0
   -8.8120   20.0894  -30.7859 H   0  0  0  0  0  0  0  0  0  0  0  0
   -8.3025   17.8286  -32.4760 H   0  0  0  0  0  0  0  0  0  0  0  0
   -6.6606   16.9169  -34.1526 H   0  0  0  0  0  0  0  0  0  0  0  0
   -3.3680   18.0620  -34.7590 H   0  0  0  0  0  0  0  0  0  0  0  0
   -4.7200   17.7640  -35.9010 H   0  0  0  0  0  0  0  0  0  0  0  0
   -4.1762   20.4646  -33.6573 H   0  0  0  0  0  0  0  0  0  0  0  0
  1  2  1  0
  2  3  2  0
  2  4  1  0
  4  5  1  0
  5  6  1  0
  6  7  2  0
  6  8  1  0
  4  9  1  0
  9 10  2  0
  9 11  1  0
 11 12  1  0
 12 13  1  0
 13 14  1  0
 13 15  2  0
 12 16  2  0
 16 17  1  0
 17 18  2  0
 18 19  1  0
 19 20  2  0
 20 21  1  0
 20 22  1  0
 22 23  2  0
 23 11  1  0
 23 17  1  0
  1 24  1  0
  1 25  1  0
  1 26  1  0
  5 27  1  0
  5 28  1  0
 14 29  1  0
 14 30  1  0
 16 31  1  0
 18 32  1  0
 19 33  1  0
 21 34  1  0
 21 35  1  0
 22 36  1  0
M  CHG  1   8  -1
M  END
>  <UniqueID>  (21) 
21

>  <SMILES>  (21) 
CC(=O)N(CC(=O)[O-])C(=O)n1c(C(N)=O)cc2ccc(N)cc21

>  <Energy>  (21) 
76.76850566552946

>  <Genealogy>  (21) 
CC(=O)N(CC(=O)[O-])C(=O)n1c(C(N)=O)cc2ccc(N)cc21 (protonated)
CC(=O)N(CC(=O)[O-])C(=O)n1c(C(N)=O)cc2ccc(N)cc21 (3D coordinates assigned)
CC(=O)N(CC(=O)[O-])C(=O)n1c(C(N)=O)cc2ccc(N)cc21 (optimized conformer: 76.76850566552946 kcal/mol)

>  <smiles>  (21) 
CC(=O)N(CC(=O)O)C(=O)n1c(C(N)=O)cc2ccc(N)cc21

>  <score_type>  (21) 
oracle

>  <origin>  (21) 
adg

>  <m_score__min__energy>  (21) 
-9.5899999999999999

>  <m_primary>  (21) 
energy

$$$$
21:0
     RDKit          3D

 37 38  0  0  0  0  0  0  0  0999 V2000
   -6.5050   17.3980  -33.2400 C   0  0  0  0  0  0  0  0  0  0  0  0
   -6.6640   18.5370  -32.8800 C   0  0  0  0  0  0  0  0  0  0  0  0
   -6.8560   19.8980  -32.4510 C   0  0  0  0  0  0  0  0  0  0  0  0
   -8.1610   20.4380  -32.3830 C   0  0  0  0  0  0  0  0  0  0  0  0
   -8.3610   21.7610  -31.9530 C   0  0  0  0  0  0  0  0  0  0  0  0
   -7.2410   22.5120  -31.6070 C   0  0  0  0  0  0  0  0  0  0  0  0
   -7.1510   23.8010  -31.1350 C   0  0  0  0  0  0  0  0  0  0  0  0
   -5.7900   24.0300  -30.9440 C   0  0  0  0  0  0  0  0  0  0  0  0
   -5.2370   25.3330  -30.5170 C   0  0  0  0  0  0  0  0  0  0  0  0
   -3.8900   25.6710  -30.8420 N   0  0  0  0  0  0  0  0  0  0  0  0
   -5.9270   26.1350  -29.8350 O   0  0  0  0  0  0  0  0  0  0  0  0
   -5.0660   22.9250  -31.2790 N   0  0  0  0  0  0  0  0  0  0  0  0
   -3.6490   22.7330  -31.1470 C   0  0  0  0  0  0  0  0  0  0  0  0
   -2.9710   22.3430  -32.1360 O   0  0  0  0  0  0  0  0  0  0  0  0
   -3.0320   22.9540  -29.9120 O   0  0  0  0  0  0  0  0  0  0  0  0
   -1.6530   23.2820  -29.7880 C   0  0  0  0  0  0  0  0  0  0  0  0
   -1.5000   24.4330  -28.8380 C   0  0  0  0  0  0  0  0  0  0  0  0
   -1.3980   25.5960  -29.3160 O   0  0  0  0  0  0  0  0  0  0  0  0
   -1.5010   24.2440  -27.4050 N   0  0  0  0  0  0  0  0  0  0  0  0
   -1.3880   25.4170  -26.5330 C   0  0  0  0  0  0  0  0  0  0  0  0
   -1.6160   22.9020  -26.8230 C   0  0  0  0  0  0  0  0  0  0  0  0
   -5.9690   22.0040  -31.6850 C   0  0  0  0  0  0  0  0  0  0  0  0
   -5.7420   20.6840  -32.0930 C   0  0  0  0  0  0  0  0  0  0  0  0
   -6.3599   16.3583  -33.5686 H   0  0  0  0  0  0  0  0  0  0  0  0
   -9.0245   19.8192  -32.6682 H   0  0  0  0  0  0  0  0  0  0  0  0
   -9.3720   22.1901  -31.8917 H   0  0  0  0  0  0  0  0  0  0  0  0
   -7.9779   24.5020  -30.9481 H   0  0  0  0  0  0  0  0  0  0  0  0
   -3.0930   25.0900  -30.4980 H   0  0  0  0  0  0  0  0  0  0  0  0
   -1.1016   22.4117  -29.4025 H   0  0  0  0  0  0  0  0  0  0  0  0
   -1.2510   23.5616  -30.7730 H   0  0  0  0  0  0  0  0  0  0  0  0
   -1.4189   25.0963  -25.4812 H   0  0  0  0  0  0  0  0  0  0  0  0
   -0.4362   25.9313  -26.7317 H   0  0  0  0  0  0  0  0  0  0  0  0
   -2.2242   26.1035  -26.7317 H   0  0  0  0  0  0  0  0  0  0  0  0
   -1.6096   22.9765  -25.7255 H   0  0  0  0  0  0  0  0  0  0  0  0
   -2.5572   22.4384  -27.1536 H   0  0  0  0  0  0  0  0  0  0  0  0
   -0.7674   22.2850  -27.1536 H   0  0  0  0  0  0  0  0  0  0  0  0
   -4.7229   20.2719  -32.1330 H   0  0  0  0  0  0  0  0  0  0  0  0
  1  2  3  0
  2  3  1  0
  3  4  2  0
  4  5  1  0
  5  6  2  0
  6  7  1  0
  7  8  2  0
  8  9  1  0
  9 10  1  0
  9 11  2  0
  8 12  1  0
 12 13  1  0
 13 14  2  0
 13 15  1  0
 15 16  1  0
 16 17  1  0
 17 18  2  0
 17 19  1  0
 19 20  1  0
 19 21  1  0
 12 22  1  0
 22 23  2  0
 23  3  1  0
 22  6  1  0
  1 24  1  0
  4 25  1  0
  5 26  1  0
  7 27  1  0
 10 28  1  0
 16 29  1  0
 16 30  1  0
 20 31  1  0
 20 32  1  0
 20 33  1  0
 21 34  1  0
 21 35  1  0
 21 36  1  0
 23 37  1  0
M  CHG  1  10  -1
M  END
>  <UniqueID>  (22) 
22

>  <SMILES>  (22) 
C#Cc1ccc2cc(C([NH-])=O)n(C(=O)OCC(=O)N(C)C)c2c1

>  <Energy>  (22) 
68.45646803462363

>  <Genealogy>  (22) 
C#Cc1ccc2cc(C([NH-])=O)n(C(=O)OCC(=O)N(C)C)c2c1 (protonated)
C#Cc1ccc2cc(C([NH-])=O)n(C(=O)OCC(=O)N(C)C)c2c1 (3D coordinates assigned)
C#Cc1ccc2cc(C([NH-])=O)n(C(=O)OCC(=O)N(C)C)c2c1 (optimized conformer: 68.45646803462363 kcal/mol)

>  <smiles>  (22) 
C#Cc1ccc2cc(C(N)=O)n(C(=O)OCC(=O)N(C)C)c2c1

>  <score_type>  (22) 
oracle

>  <origin>  (22) 
adg

>  <m_score__min__energy>  (22) 
-10.529999999999999

>  <m_primary>  (22) 
energy

$$$$
22:0
     RDKit          3D

 32 33  0  0  0  0  0  0  0  0999 V2000
   -1.6770   21.9280  -29.7860 C   0  0  0  0  0  0  0  0  0  0  0  0
   -3.0810   22.3450  -29.8310 N   0  0  0  0  0  0  0  0  0  0  0  0
   -3.7910   22.7060  -28.6000 C   0  0  0  0  0  0  0  0  0  0  0  0
   -3.7460   22.4590  -31.1040 C   0  0  0  0  0  0  0  0  0  0  0  0
   -3.0820   22.3830  -32.1740 O   0  0  0  0  0  0  0  0  0  0  0  0
   -5.1630   22.6620  -31.1750 N   0  0  0  0  0  0  0  0  0  0  0  0
   -5.8510   23.8140  -30.9460 C   0  0  0  0  0  0  0  0  0  0  0  0
   -5.2610   25.0890  -30.4910 C   0  0  0  0  0  0  0  0  0  0  0  0
   -3.8580   25.3100  -30.6230 N   0  0  0  0  0  0  0  0  0  0  0  0
   -5.9830   25.9920  -29.9940 O   0  0  0  0  0  0  0  0  0  0  0  0
   -7.2140   23.6180  -31.1700 C   0  0  0  0  0  0  0  0  0  0  0  0
   -7.3340   22.3000  -31.5550 C   0  0  0  0  0  0  0  0  0  0  0  0
   -8.4590   21.5720  -31.9280 C   0  0  0  0  0  0  0  0  0  0  0  0
   -8.2790   20.2300  -32.3070 C   0  0  0  0  0  0  0  0  0  0  0  0
   -6.9890   19.6380  -32.2960 C   0  0  0  0  0  0  0  0  0  0  0  0
   -6.8020   18.2160  -32.7580 C   0  0  0  0  0  0  0  0  0  0  0  0
   -7.9640   17.4860  -32.5750 F   0  0  0  0  0  0  0  0  0  0  0  0
   -5.7830   17.6310  -32.0310 F   0  0  0  0  0  0  0  0  0  0  0  0
   -6.4760   18.1790  -34.1030 F   0  0  0  0  0  0  0  0  0  0  0  0
   -5.8680   20.4210  -31.9370 C   0  0  0  0  0  0  0  0  0  0  0  0
   -6.0810   21.7480  -31.5520 C   0  0  0  0  0  0  0  0  0  0  0  0
   -1.3562   21.8327  -28.7381 H   0  0  0  0  0  0  0  0  0  0  0  0
   -1.5661   20.9581  -30.2930 H   0  0  0  0  0  0  0  0  0  0  0  0
   -1.0547   22.6801  -30.2930 H   0  0  0  0  0  0  0  0  0  0  0  0
   -3.1924   22.4016  -27.7288 H   0  0  0  0  0  0  0  0  0  0  0  0
   -3.9496   23.7942  -28.5738 H   0  0  0  0  0  0  0  0  0  0  0  0
   -4.7637   22.1930  -28.5738 H   0  0  0  0  0  0  0  0  0  0  0  0
   -3.4890   26.0510  -31.2600 H   0  0  0  0  0  0  0  0  0  0  0  0
   -8.0210   24.3577  -31.0623 H   0  0  0  0  0  0  0  0  0  0  0  0
   -9.4583   22.0318  -31.9265 H   0  0  0  0  0  0  0  0  0  0  0  0
   -9.1487   19.6315  -32.6159 H   0  0  0  0  0  0  0  0  0  0  0  0
   -4.8534   19.9967  -31.9600 H   0  0  0  0  0  0  0  0  0  0  0  0
  1  2  1  0
  2  3  1  0
  2  4  1  0
  4  5  2  0
  4  6  1  0
  6  7  1  0
  7  8  1  0
  8  9  1  0
  8 10  2  0
  7 11  2  0
 11 12  1  0
 12 13  2  0
 13 14  1  0
 14 15  2  0
 15 16  1  0
 16 17  1  0
 16 18  1  0
 16 19  1  0
 15 20  1  0
 20 21  2  0
 21  6  1  0
 21 12  1  0
  1 22  1  0
  1 23  1  0
  1 24  1  0
  3 25  1  0
  3 26  1  0
  3 27  1  0
  9 28  1  0
 11 29  1  0
 13 30  1  0
 14 31  1  0
 20 32  1  0
M  CHG  1   9  -1
M  END
>  <UniqueID>  (23) 
23

>  <SMILES>  (23) 
CN(C)C(=O)n1c(C([NH-])=O)cc2ccc(C(F)(F)F)cc21

>  <Energy>  (23) 
69.40713495119448

>  <Genealogy>  (23) 
CN(C)C(=O)n1c(C([NH-])=O)cc2ccc(C(F)(F)F)cc21 (protonated)
CN(C)C(=O)n1c(C([NH-])=O)cc2ccc(C(F)(F)F)cc21 (3D coordinates assigned)
CN(C)C(=O)n1c(C([NH-])=O)cc2ccc(C(F)(F)F)cc21 (optimized conformer: 69.40713495119448 kcal/mol)

>  <smiles>  (23) 
CN(C)C(=O)n1c(C(N)=O)cc2ccc(C(F)(F)F)cc21

>  <score_type>  (23) 
oracle

>  <origin>  (23) 
adg

>  <m_score__min__energy>  (23) 
-9.7899999999999991

>  <m_primary>  (23) 
energy

$$$$
23:0
     RDKit          3D

 37 39  0  0  0  0  0  0  0  0999 V2000
   -1.6510   25.4080  -28.9660 N   0  0  0  0  0  0  0  0  0  0  0  0
   -1.1710   24.0760  -29.1250 C   0  0  0  0  0  0  0  0  0  0  0  0
   -0.0890   23.7400  -28.5790 O   0  0  0  0  0  0  0  0  0  0  0  0
   -1.9300   23.1170  -29.9560 C   0  0  0  0  0  0  0  0  0  0  0  0
   -1.4020   22.4870  -31.0820 C   0  0  0  0  0  0  0  0  0  0  0  0
   -2.3870   21.6290  -31.5150 C   0  0  0  0  0  0  0  0  0  0  0  0
   -2.4050   20.7640  -32.6070 C   0  0  0  0  0  0  0  0  0  0  0  0
   -3.5720   20.0150  -32.8340 C   0  0  0  0  0  0  0  0  0  0  0  0
   -4.6910   20.1520  -31.9790 C   0  0  0  0  0  0  0  0  0  0  0  0
   -5.8780   19.3960  -32.2270 N   0  0  0  0  0  0  0  0  0  0  0  0
   -6.6540   18.9430  -33.3970 C   0  0  0  0  0  0  0  0  0  0  0  0
   -7.7120   18.2270  -32.6130 C   0  0  0  0  0  0  0  0  0  0  0  0
   -8.9890   18.8170  -32.7010 O   0  0  0  0  0  0  0  0  0  0  0  0
   -6.9060   18.6900  -31.4370 C   0  0  0  0  0  0  0  0  0  0  0  0
   -4.6390   21.0370  -30.8830 C   0  0  0  0  0  0  0  0  0  0  0  0
   -3.4570   21.7560  -30.6680 C   0  0  0  0  0  0  0  0  0  0  0  0
   -3.1940   22.6660  -29.7050 N   0  0  0  0  0  0  0  0  0  0  0  0
   -4.0980   23.1000  -28.6780 C   0  0  0  0  0  0  0  0  0  0  0  0
   -3.6850   23.2470  -27.4950 O   0  0  0  0  0  0  0  0  0  0  0  0
   -5.4630   23.3840  -29.0040 N   0  0  0  0  0  0  0  0  0  0  0  0
   -5.8900   24.5830  -29.7130 C   0  0  0  0  0  0  0  0  0  0  0  0
   -5.0130   24.8170  -30.9010 C   0  0  0  0  0  0  0  0  0  0  0  0
   -4.0540   25.6300  -30.8280 O   0  0  0  0  0  0  0  0  0  0  0  0
   -5.2740   24.1650  -32.0990 O   0  0  0  0  0  0  0  0  0  0  0  0
   -2.6090   25.6750  -29.2840 H   0  0  0  0  0  0  0  0  0  0  0  0
   -0.4092   22.6426  -31.5293 H   0  0  0  0  0  0  0  0  0  0  0  0
   -1.5329   20.6703  -33.2708 H   0  0  0  0  0  0  0  0  0  0  0  0
   -3.6160   19.3168  -33.6829 H   0  0  0  0  0  0  0  0  0  0  0  0
   -7.0558   19.7778  -33.9899 H   0  0  0  0  0  0  0  0  0  0  0  0
   -6.1171   18.3635  -34.1624 H   0  0  0  0  0  0  0  0  0  0  0  0
   -8.0050   17.1809  -32.7858 H   0  0  0  0  0  0  0  0  0  0  0  0
   -9.0930   19.2420  -33.5940 H   0  0  0  0  0  0  0  0  0  0  0  0
   -7.4692   19.3628  -30.7735 H   0  0  0  0  0  0  0  0  0  0  0  0
   -6.5581   17.9211  -30.7315 H   0  0  0  0  0  0  0  0  0  0  0  0
   -5.5040   21.1594  -30.2145 H   0  0  0  0  0  0  0  0  0  0  0  0
   -6.9301   24.4567  -30.0479 H   0  0  0  0  0  0  0  0  0  0  0  0
   -5.8171   25.4469  -29.0359 H   0  0  0  0  0  0  0  0  0  0  0  0
  1  2  1  0
  2  3  2  0
  2  4  1  0
  4  5  2  0
  5  6  1  0
  6  7  2  0
  7  8  1  0
  8  9  2  0
  9 10  1  0
 10 11  1  0
 11 12  1  0
 12 13  1  0
 12 14  1  0
  9 15  1  0
 15 16  2  0
 16 17  1  0
 17 18  1  0
 18 19  2  0
 18 20  1  0
 20 21  1  0
 21 22  1  0
 22 23  2  0
 22 24  1  0
 17  4  1  0
 16  6  1  0
 14 10  1  0
  1 25  1  0
  5 26  1  0
  7 27  1  0
  8 28  1  0
 11 29  1  0
 11 30  1  0
 12 31  1  0
 13 32  1  0
 14 33  1  0
 14 34  1  0
 15 35  1  0
 21 36  1  0
 21 37  1  0
M  CHG  3   1  -1  20  -1  24  -1
M  END
>  <UniqueID>  (24) 
24

>  <SMILES>  (24) 
[NH-]C(=O)c1cc2ccc(N3CC(O)C3)cc2n1C(=O)[N-]CC(=O)[O-]

>  <Energy>  (24) 
120.85367592781269

>  <Genealogy>  (24) 
[NH-]C(=O)c1cc2ccc(N3CC(O)C3)cc2n1C(=O)[N-]CC(=O)[O-] (protonated)
[NH-]C(=O)c1cc2ccc(N3CC(O)C3)cc2n1C(=O)[N-]CC(=O)[O-] (3D coordinates assigned)
[NH-]C(=O)c1cc2ccc(N3CC(O)C3)cc2n1C(=O)[N-]CC(=O)[O-] (nonaromatic ring conformer: 120.85367592781269 kcal/mol)

>  <smiles>  (24) 
NC(=O)c1cc2ccc(N3CC(O)C3)cc2n1C(=O)NCC(=O)O

>  <score_type>  (24) 
oracle

>  <origin>  (24) 
adg

>  <m_score__min__energy>  (24) 
-12.779999999999999

>  <m_primary>  (24) 
energy

$$$$
24:0
     RDKit          3D

 41 42  0  0  0  0  0  0  0  0999 V2000
   -4.2220   24.1900  -27.6270 C   0  0  0  0  0  0  0  0  0  0  0  0
   -3.1010   22.7600  -27.5750 S   0  0  0  0  0  0  0  0  0  0  0  0
   -2.7680   22.8170  -29.3310 C   0  0  0  0  0  0  0  0  0  0  0  0
   -1.8590   23.5760  -29.7630 O   0  0  0  0  0  0  0  0  0  0  0  0
   -3.5260   22.0190  -30.1950 O   0  0  0  0  0  0  0  0  0  0  0  0
   -4.1670   22.4720  -31.3560 C   0  0  0  0  0  0  0  0  0  0  0  0
   -3.5640   22.4830  -32.4640 O   0  0  0  0  0  0  0  0  0  0  0  0
   -5.5330   22.9070  -31.2850 N   0  0  0  0  0  0  0  0  0  0  0  0
   -6.0000   24.1310  -30.9080 C   0  0  0  0  0  0  0  0  0  0  0  0
   -5.1780   25.3340  -30.6620 C   0  0  0  0  0  0  0  0  0  0  0  0
   -3.7630   25.3010  -30.8220 N   0  0  0  0  0  0  0  0  0  0  0  0
   -5.7390   26.4210  -30.3540 O   0  0  0  0  0  0  0  0  0  0  0  0
   -7.3920   24.1300  -30.8570 C   0  0  0  0  0  0  0  0  0  0  0  0
   -7.7700   22.8590  -31.2250 C   0  0  0  0  0  0  0  0  0  0  0  0
   -9.0390   22.2960  -31.3240 C   0  0  0  0  0  0  0  0  0  0  0  0
   -9.1330   20.9440  -31.6890 C   0  0  0  0  0  0  0  0  0  0  0  0
   -7.9650   20.1830  -31.9480 C   0  0  0  0  0  0  0  0  0  0  0  0
   -8.0760   18.7210  -32.2870 C   0  0  0  0  0  0  0  0  0  0  0  0
   -6.7210   18.0290  -32.1530 C   0  0  0  0  0  0  0  0  0  0  0  0
   -6.4140   17.3850  -33.3640 O   0  0  0  0  0  0  0  0  0  0  0  0
   -5.6070   18.4780  -34.3790 S   0  0  0  0  0  0  0  0  0  0  0  0
   -4.0820   19.0280  -33.6380 C   0  0  0  0  0  0  0  0  0  0  0  0
   -5.3250   17.8500  -35.7160 O   0  0  0  0  0  0  0  0  0  0  0  0
   -6.4920   19.6750  -34.5860 O   0  0  0  0  0  0  0  0  0  0  0  0
   -6.6940   20.7850  -31.8260 C   0  0  0  0  0  0  0  0  0  0  0  0
   -6.6310   22.1400  -31.4780 C   0  0  0  0  0  0  0  0  0  0  0  0
   -4.4664   24.5018  -26.6008 H   0  0  0  0  0  0  0  0  0  0  0  0
   -3.7321   25.0209  -28.1558 H   0  0  0  0  0  0  0  0  0  0  0  0
   -5.1458   23.9127  -28.1558 H   0  0  0  0  0  0  0  0  0  0  0  0
   -3.2810   24.4370  -31.1560 H   0  0  0  0  0  0  0  0  0  0  0  0
   -8.0496   24.9675  -30.5811 H   0  0  0  0  0  0  0  0  0  0  0  0
   -9.9409   22.8925  -31.1223 H   0  0  0  0  0  0  0  0  0  0  0  0
  -10.1221   20.4703  -31.7749 H   0  0  0  0  0  0  0  0  0  0  0  0
   -8.7932   18.2453  -31.6019 H   0  0  0  0  0  0  0  0  0  0  0  0
   -8.4195   18.6253  -33.3276 H   0  0  0  0  0  0  0  0  0  0  0  0
   -5.9462   18.7761  -31.9259 H   0  0  0  0  0  0  0  0  0  0  0  0
   -6.7600   17.2903  -31.3389 H   0  0  0  0  0  0  0  0  0  0  0  0
   -4.1739   18.9949  -32.5423 H   0  0  0  0  0  0  0  0  0  0  0  0
   -3.2608   18.3694  -33.9572 H   0  0  0  0  0  0  0  0  0  0  0  0
   -3.8702   20.0592  -33.9572 H   0  0  0  0  0  0  0  0  0  0  0  0
   -5.7761   20.2043  -31.9999 H   0  0  0  0  0  0  0  0  0  0  0  0
  1  2  1  0
  2  3  1  0
  3  4  2  0
  3  5  1  0
  5  6  1  0
  6  7  2  0
  6  8  1  0
  8  9  1  0
  9 10  1  0
 10 11  1  0
 10 12  2  0
  9 13  2  0
 13 14  1  0
 14 15  2  0
 15 16  1  0
 16 17  2  0
 17 18  1  0
 18 19  1  0
 19 20  1  0
 20 21  1  0
 21 22  1  0
 21 23  2  0
 21 24  2  0
 17 25  1  0
 25 26  2  0
 26  8  1  0
 26 14  1  0
  1 27  1  0
  1 28  1  0
  1 29  1  0
 11 30  1  0
 13 31  1  0
 15 32  1  0
 16 33  1  0
 18 34  1  0
 18 35  1  0
 19 36  1  0
 19 37  1  0
 22 38  1  0
 22 39  1  0
 22 40  1  0
 25 41  1  0
M  CHG  1  11  -1
M  END
>  <UniqueID>  (25) 
25

>  <SMILES>  (25) 
CSC(=O)OC(=O)n1c(C([NH-])=O)cc2ccc(CCOS(C)(=O)=O)cc21

>  <Energy>  (25) 
71.50339333709593

>  <Genealogy>  (25) 
CSC(=O)OC(=O)n1c(C([NH-])=O)cc2ccc(CCOS(C)(=O)=O)cc21 (protonated)
CSC(=O)OC(=O)n1c(C([NH-])=O)cc2ccc(CCOS(C)(=O)=O)cc21 (3D coordinates assigned)
CSC(=O)OC(=O)n1c(C([NH-])=O)cc2ccc(CCOS(C)(=O)=O)cc21 (optimized conformer: 71.50339333709593 kcal/mol)

>  <smiles>  (25) 
CSC(=O)OC(=O)n1c(C(N)=O)cc2ccc(CCOS(C)(=O)=O)cc21

>  <score_type>  (25) 
oracle

>  <origin>  (25) 
adg

>  <m_score__min__energy>  (25) 
-10.74

>  <m_primary>  (25) 
energy

$$$$
25:0
     RDKit          3D

 33 34  0  0  0  0  0  0  0  0999 V2000
   -1.4750   23.9320  -28.9310 C   0  0  0  0  0  0  0  0  0  0  0  0
   -1.7540   23.4290  -30.2110 O   0  0  0  0  0  0  0  0  0  0  0  0
   -3.0190   22.9340  -30.1590 N   0  0  0  0  0  0  0  0  0  0  0  0
   -3.7810   22.7030  -31.3460 C   0  0  0  0  0  0  0  0  0  0  0  0
   -3.2010   22.2770  -32.3800 O   0  0  0  0  0  0  0  0  0  0  0  0
   -5.1960   22.9450  -31.3680 N   0  0  0  0  0  0  0  0  0  0  0  0
   -5.8580   24.0560  -30.9420 C   0  0  0  0  0  0  0  0  0  0  0  0
   -5.2340   25.3100  -30.4690 C   0  0  0  0  0  0  0  0  0  0  0  0
   -3.9020   25.6540  -30.8400 N   0  0  0  0  0  0  0  0  0  0  0  0
   -5.8970   26.1030  -29.7490 O   0  0  0  0  0  0  0  0  0  0  0  0
   -7.2360   23.8780  -31.0680 C   0  0  0  0  0  0  0  0  0  0  0  0
   -7.3940   22.6130  -31.5890 C   0  0  0  0  0  0  0  0  0  0  0  0
   -8.5530   21.9110  -31.9050 C   0  0  0  0  0  0  0  0  0  0  0  0
   -8.4160   20.6050  -32.4020 C   0  0  0  0  0  0  0  0  0  0  0  0
   -7.1360   20.0180  -32.5680 C   0  0  0  0  0  0  0  0  0  0  0  0
   -7.0450   18.6710  -33.0740 N   0  0  0  0  0  0  0  0  0  0  0  0
   -6.1870   17.6310  -32.5080 C   0  0  0  0  0  0  0  0  0  0  0  0
   -6.1590   16.4300  -33.4010 C   0  0  0  0  0  0  0  0  0  0  0  0
   -6.8590   16.4030  -34.4470 O   0  0  0  0  0  0  0  0  0  0  0  0
   -5.3440   15.3490  -33.0910 O   0  0  0  0  0  0  0  0  0  0  0  0
   -5.9800   20.7670  -32.2340 C   0  0  0  0  0  0  0  0  0  0  0  0
   -6.1470   22.0710  -31.7580 C   0  0  0  0  0  0  0  0  0  0  0  0
   -1.8609   23.2362  -28.1715 H   0  0  0  0  0  0  0  0  0  0  0  0
   -0.3873   24.0414  -28.8091 H   0  0  0  0  0  0  0  0  0  0  0  0
   -1.9581   24.9127  -28.8091 H   0  0  0  0  0  0  0  0  0  0  0  0
   -3.0860   25.1200  -30.4680 H   0  0  0  0  0  0  0  0  0  0  0  0
   -8.0278   24.5954  -30.8068 H   0  0  0  0  0  0  0  0  0  0  0  0
   -9.5457   22.3651  -31.7697 H   0  0  0  0  0  0  0  0  0  0  0  0
   -9.3149   20.0287  -32.6665 H   0  0  0  0  0  0  0  0  0  0  0  0
   -7.6240   18.4120  -33.9060 H   0  0  0  0  0  0  0  0  0  0  0  0
   -5.1656   18.0244  -32.3986 H   0  0  0  0  0  0  0  0  0  0  0  0
   -6.5870   17.3352  -31.5269 H   0  0  0  0  0  0  0  0  0  0  0  0
   -4.9756   20.3328  -32.3466 H   0  0  0  0  0  0  0  0  0  0  0  0
  1  2  1  0
  2  3  1  0
  3  4  1  0
  4  5  2  0
  4  6  1  0
  6  7  1  0
  7  8  1  0
  8  9  1  0
  8 10  2  0
  7 11  2  0
 11 12  1  0
 12 13  2  0
 13 14  1  0
 14 15  2  0
 15 16  1  0
 16 17  1  0
 17 18  1  0
 18 19  2  0
 18 20  1  0
 15 21  1  0
 21 22  2  0
 22  6  1  0
 22 12  1  0
  1 23  1  0
  1 24  1  0
  1 25  1  0
  9 26  1  0
 11 27  1  0
 13 28  1  0
 14 29  1  0
 16 30  1  0
 17 31  1  0
 17 32  1  0
 21 33  1  0
M  CHG  3   3  -1   9  -1  20  -1
M  END
>  <UniqueID>  (26) 
26

>  <SMILES>  (26) 
CO[N-]C(=O)n1c(C([NH-])=O)cc2ccc(NCC(=O)[O-])cc21

>  <Energy>  (26) 
69.41064358189155

>  <Genealogy>  (26) 
CO[N-]C(=O)n1c(C([NH-])=O)cc2ccc(NCC(=O)[O-])cc21 (protonated)
CO[N-]C(=O)n1c(C([NH-])=O)cc2ccc(NCC(=O)[O-])cc21 (3D coordinates assigned)
CO[N-]C(=O)n1c(C([NH-])=O)cc2ccc(NCC(=O)[O-])cc21 (optimized conformer: 69.41064358189155 kcal/mol)

>  <smiles>  (26) 
CONC(=O)n1c(C(N)=O)cc2ccc(NCC(=O)O)cc21

>  <score_type>  (26) 
oracle

>  <origin>  (26) 
adg

>  <m_score__min__energy>  (26) 
-9.4700000000000006

>  <m_primary>  (26) 
energy

$$$$
26:0
     RDKit          3D

 36 37  0  0  0  0  0  0  0  0999 V2000
   -1.6170   25.6830  -28.9680 N   0  0  0  0  0  0  0  0  0  0  0  0
   -0.9340   24.4460  -29.1570 C   0  0  0  0  0  0  0  0  0  0  0  0
    0.2160   24.2970  -28.6660 O   0  0  0  0  0  0  0  0  0  0  0  0
   -1.5310   23.3630  -29.9650 C   0  0  0  0  0  0  0  0  0  0  0  0
   -0.8260   22.2300  -30.3640 C   0  0  0  0  0  0  0  0  0  0  0  0
   -1.6930   21.5230  -31.1650 C   0  0  0  0  0  0  0  0  0  0  0  0
   -1.5130   20.3120  -31.8270 C   0  0  0  0  0  0  0  0  0  0  0  0
   -2.5900   19.8020  -32.5700 C   0  0  0  0  0  0  0  0  0  0  0  0
   -3.8230   20.5010  -32.6270 C   0  0  0  0  0  0  0  0  0  0  0  0
   -4.9620   19.9620  -33.4520 C   0  0  0  0  0  0  0  0  0  0  0  0
   -6.3270   20.2070  -32.7840 C   0  0  0  0  0  0  0  0  0  0  0  0
   -6.8170   21.5890  -32.9570 N   0  0  0  0  0  0  0  0  0  0  0  0
   -7.3020   22.1650  -31.6960 C   0  0  0  0  0  0  0  0  0  0  0  0
   -6.9120   23.6400  -31.6050 C   0  0  0  0  0  0  0  0  0  0  0  0
   -6.0260   23.9730  -32.6380 O   0  0  0  0  0  0  0  0  0  0  0  0
   -3.9680   21.7270  -31.9420 C   0  0  0  0  0  0  0  0  0  0  0  0
   -2.8710   22.2220  -31.2260 C   0  0  0  0  0  0  0  0  0  0  0  0
   -2.7890   23.3540  -30.4930 N   0  0  0  0  0  0  0  0  0  0  0  0
   -3.8510   24.2940  -30.2600 C   0  0  0  0  0  0  0  0  0  0  0  0
   -3.8550   25.4070  -30.8470 O   0  0  0  0  0  0  0  0  0  0  0  0
   -4.8700   23.9930  -29.3640 O   0  0  0  0  0  0  0  0  0  0  0  0
   -2.6490   25.7550  -29.1150 H   0  0  0  0  0  0  0  0  0  0  0  0
    0.2055   21.9580  -30.0956 H   0  0  0  0  0  0  0  0  0  0  0  0
   -0.5568   19.7712  -31.7700 H   0  0  0  0  0  0  0  0  0  0  0  0
   -2.4764   18.8519  -33.1127 H   0  0  0  0  0  0  0  0  0  0  0  0
   -4.9538   20.4570  -34.4343 H   0  0  0  0  0  0  0  0  0  0  0  0
   -4.8237   18.8753  -33.5517 H   0  0  0  0  0  0  0  0  0  0  0  0
   -7.0615   19.5173  -33.2254 H   0  0  0  0  0  0  0  0  0  0  0  0
   -6.1991   20.0371  -31.7047 H   0  0  0  0  0  0  0  0  0  0  0  0
   -6.0640   22.1990  -33.3510 H   0  0  0  0  0  0  0  0  0  0  0  0
   -8.3975   22.0755  -31.6533 H   0  0  0  0  0  0  0  0  0  0  0  0
   -6.8477   21.6210  -30.8547 H   0  0  0  0  0  0  0  0  0  0  0  0
   -7.8165   24.2604  -31.6886 H   0  0  0  0  0  0  0  0  0  0  0  0
   -6.4191   23.8210  -30.6384 H   0  0  0  0  0  0  0  0  0  0  0  0
   -6.4360   23.6480  -33.4810 H   0  0  0  0  0  0  0  0  0  0  0  0
   -4.9188   22.2795  -31.9700 H   0  0  0  0  0  0  0  0  0  0  0  0
  1  2  1  0
  2  3  2  0
  2  4  1  0
  4  5  2  0
  5  6  1  0
  6  7  2  0
  7  8  1  0
  8  9  2  0
  9 10  1  0
 10 11  1  0
 11 12  1  0
 12 13  1  0
 13 14  1  0
 14 15  1  0
  9 16  1  0
 16 17  2  0
 17 18  1  0
 18 19  1  0
 19 20  2  0
 19 21  1  0
 18  4  1  0
 17  6  1  0
  1 22  1  0
  5 23  1  0
  7 24  1  0
  8 25  1  0
 10 26  1  0
 10 27  1  0
 11 28  1  0
 11 29  1  0
 12 30  1  0
 13 31  1  0
 13 32  1  0
 14 33  1  0
 14 34  1  0
 15 35  1  0
 16 36  1  0
M  CHG  2   1  -1  21  -1
M  END
>  <UniqueID>  (27) 
27

>  <SMILES>  (27) 
[NH-]C(=O)c1cc2ccc(CCNCCO)cc2n1C(=O)[O-]

>  <Energy>  (27) 
72.1584705679763

>  <Genealogy>  (27) 
[NH-]C(=O)c1cc2ccc(CCNCCO)cc2n1C(=O)[O-] (protonated)
[NH-]C(=O)c1cc2ccc(CCNCCO)cc2n1C(=O)[O-] (3D coordinates assigned)
[NH-]C(=O)c1cc2ccc(CCNCCO)cc2n1C(=O)[O-] (optimized conformer: 72.1584705679763 kcal/mol)

>  <smiles>  (27) 
NC(=O)c1cc2ccc(CCNCCO)cc2n1C(=O)O

>  <score_type>  (27) 
oracle

>  <origin>  (27) 
adg

>  <m_score__min__energy>  (27) 
-10.84

>  <m_primary>  (27) 
energy

$$$$
27:0
     RDKit          3D

 47 48  0  0  0  0  0  0  0  0999 V2000
   -7.1570   17.6800  -32.3070 C   0  0  0  0  0  0  0  0  0  0  0  0
   -8.0010   18.7830  -32.7580 N   0  0  0  0  0  0  0  0  0  0  0  0
   -7.8950   20.1250  -32.2480 C   0  0  0  0  0  0  0  0  0  0  0  0
   -9.0450   20.8680  -31.8660 C   0  0  0  0  0  0  0  0  0  0  0  0
   -8.9220   22.1810  -31.3800 C   0  0  0  0  0  0  0  0  0  0  0  0
   -7.6460   22.7240  -31.2800 C   0  0  0  0  0  0  0  0  0  0  0  0
   -7.2470   23.9720  -30.8640 C   0  0  0  0  0  0  0  0  0  0  0  0
   -5.8580   23.9730  -30.9730 C   0  0  0  0  0  0  0  0  0  0  0  0
   -4.9970   25.0960  -30.5390 C   0  0  0  0  0  0  0  0  0  0  0  0
   -3.6770   24.8560  -30.0470 N   0  0  0  0  0  0  0  0  0  0  0  0
   -5.4110   26.2820  -30.6300 O   0  0  0  0  0  0  0  0  0  0  0  0
   -5.4160   22.7710  -31.4420 N   0  0  0  0  0  0  0  0  0  0  0  0
   -4.0630   22.3870  -31.7430 C   0  0  0  0  0  0  0  0  0  0  0  0
   -3.6400   22.4650  -32.9290 O   0  0  0  0  0  0  0  0  0  0  0  0
   -3.2360   21.9150  -30.7160 O   0  0  0  0  0  0  0  0  0  0  0  0
   -1.8780   22.2220  -30.5670 C   0  0  0  0  0  0  0  0  0  0  0  0
   -1.0180   21.7830  -31.3790 O   0  0  0  0  0  0  0  0  0  0  0  0
   -1.4890   23.0250  -29.4940 O   0  0  0  0  0  0  0  0  0  0  0  0
   -0.1860   22.9680  -28.9200 C   0  0  0  0  0  0  0  0  0  0  0  0
    0.2260   24.2760  -28.5380 O   0  0  0  0  0  0  0  0  0  0  0  0
   -0.6770   25.2790  -28.1760 C   0  0  0  0  0  0  0  0  0  0  0  0
   -1.5540   25.6760  -28.9930 O   0  0  0  0  0  0  0  0  0  0  0  0
   -0.5960   25.8310  -26.8940 O   0  0  0  0  0  0  0  0  0  0  0  0
   -1.3330   25.3380  -25.7750 C   0  0  0  0  0  0  0  0  0  0  0  0
   -2.8330   25.3460  -26.0830 C   0  0  0  0  0  0  0  0  0  0  0  0
   -1.0330   26.2120  -24.5590 C   0  0  0  0  0  0  0  0  0  0  0  0
   -6.5230   22.0170  -31.6240 C   0  0  0  0  0  0  0  0  0  0  0  0
   -6.6180   20.7150  -32.1290 C   0  0  0  0  0  0  0  0  0  0  0  0
   -7.1397   17.6574  -31.2074 H   0  0  0  0  0  0  0  0  0  0  0  0
   -7.5610   16.7301  -32.6869 H   0  0  0  0  0  0  0  0  0  0  0  0
   -6.1345   17.8216  -32.6869 H   0  0  0  0  0  0  0  0  0  0  0  0
   -8.7160   18.5760  -33.4910 H   0  0  0  0  0  0  0  0  0  0  0  0
  -10.0417   20.4105  -31.9517 H   0  0  0  0  0  0  0  0  0  0  0  0
   -9.8091   22.7619  -31.0874 H   0  0  0  0  0  0  0  0  0  0  0  0
   -7.8887   24.7958  -30.5182 H   0  0  0  0  0  0  0  0  0  0  0  0
   -3.0650   25.6580  -29.7810 H   0  0  0  0  0  0  0  0  0  0  0  0
   -3.3190   23.8870  -29.9060 H   0  0  0  0  0  0  0  0  0  0  0  0
   -0.2047   22.3168  -28.0337 H   0  0  0  0  0  0  0  0  0  0  0  0
    0.5212   22.5640  -29.6594 H   0  0  0  0  0  0  0  0  0  0  0  0
   -1.0331   24.3011  -25.5630 H   0  0  0  0  0  0  0  0  0  0  0  0
   -3.4008   25.3490  -25.1409 H   0  0  0  0  0  0  0  0  0  0  0  0
   -3.0831   26.2455  -26.6647 H   0  0  0  0  0  0  0  0  0  0  0  0
   -3.0927   24.4492  -26.6647 H   0  0  0  0  0  0  0  0  0  0  0  0
   -1.2291   25.6408  -23.6396 H   0  0  0  0  0  0  0  0  0  0  0  0
    0.0226   26.5207  -24.5808 H   0  0  0  0  0  0  0  0  0  0  0  0
   -1.6764   27.1039  -24.5808 H   0  0  0  0  0  0  0  0  0  0  0  0
   -5.7150   20.1622  -32.4274 H   0  0  0  0  0  0  0  0  0  0  0  0
  1  2  1  0
  2  3  1  0
  3  4  2  0
  4  5  1  0
  5  6  2  0
  6  7  1  0
  7  8  2  0
  8  9  1  0
  9 10  1  0
  9 11  2  0
  8 12  1  0
 12 13  1  0
 13 14  2  0
 13 15  1  0
 15 16  1  0
 16 17  2  0
 16 18  1  0
 18 19  1  0
 19 20  1  0
 20 21  1  0
 21 22  2  0
 21 23  1  0
 23 24  1  0
 24 25  1  0
 24 26  1  0
 12 27  1  0
 27 28  2  0
 28  3  1  0
 27  6  1  0
  1 29  1  0
  1 30  1  0
  1 31  1  0
  2 32  1  0
  4 33  1  0
  5 34  1  0
  7 35  1  0
 10 36  1  0
 10 37  1  0
 19 38  1  0
 19 39  1  0
 24 40  1  0
 25 41  1  0
 25 42  1  0
 25 43  1  0
 26 44  1  0
 26 45  1  0
 26 46  1  0
 28 47  1  0
M  END
>  <UniqueID>  (28) 
28

>  <SMILES>  (28) 
CNc1ccc2cc(C(N)=O)n(C(=O)OC(=O)OCOC(=O)OC(C)C)c2c1

>  <Energy>  (28) 
75.73287591160867

>  <Genealogy>  (28) 
CNc1ccc2cc(C(N)=O)n(C(=O)OC(=O)OCOC(=O)OC(C)C)c2c1 (3D coordinates assigned)
CNc1ccc2cc(C(N)=O)n(C(=O)OC(=O)OCOC(=O)OC(C)C)c2c1 (optimized conformer: 75.73287591160867 kcal/mol)

>  <smiles>  (28) 
CNc1ccc2cc(C(N)=O)n(C(=O)OC(=O)OCOC(=O)OC(C)C)c2c1

>  <score_type>  (28) 
oracle

>  <origin>  (28) 
adg

>  <m_score__min__energy>  (28) 
-7.8899999999999997

>  <m_primary>  (28) 
energy

$$$$
28:0
     RDKit          3D

 45 47  0  0  0  0  0  0  0  0999 V2000
   -1.8316   22.0762  -27.9017 H   0  0  0  0  0  0  0  0  0  0  0  0
   -2.2030   22.6370  -28.7720 C   0  0  0  0  0  0  0  0  0  0  0  0
   -1.6150   23.9650  -29.0160 C   0  0  0  0  0  0  0  0  0  0  0  0
   -2.3780   24.9260  -29.3070 O   0  0  0  0  0  0  0  0  0  0  0  0
   -0.2270   24.1430  -29.0120 O   0  0  0  0  0  0  0  0  0  0  0  0
    0.5890   23.8000  -27.8990 C   0  0  0  0  0  0  0  0  0  0  0  0
    0.0511   24.0261  -26.9665 H   0  0  0  0  0  0  0  0  0  0  0  0
    0.8255   22.7263  -27.9348 H   0  0  0  0  0  0  0  0  0  0  0  0
    1.5216   24.3823  -27.9348 H   0  0  0  0  0  0  0  0  0  0  0  0
   -3.1520   22.0510  -29.5180 C   0  0  0  0  0  0  0  0  0  0  0  0
   -3.6183   21.1423  -29.1095 H   0  0  0  0  0  0  0  0  0  0  0  0
   -3.6290   22.5150  -30.8400 C   0  0  0  0  0  0  0  0  0  0  0  0
   -2.8170   22.8100  -31.7570 O   0  0  0  0  0  0  0  0  0  0  0  0
   -5.0370   22.5730  -31.1090 N   0  0  0  0  0  0  0  0  0  0  0  0
   -5.8510   23.6590  -30.9990 C   0  0  0  0  0  0  0  0  0  0  0  0
   -5.4400   24.9840  -30.4780 C   0  0  0  0  0  0  0  0  0  0  0  0
   -6.2470   25.6740  -29.8030 O   0  0  0  0  0  0  0  0  0  0  0  0
   -4.1360   25.5060  -30.7430 N   0  0  0  0  0  0  0  0  0  0  0  0
   -3.4080   24.9390  -31.2300 H   0  0  0  0  0  0  0  0  0  0  0  0
   -3.8780   26.4620  -30.4110 H   0  0  0  0  0  0  0  0  0  0  0  0
   -7.1480   23.3330  -31.3980 C   0  0  0  0  0  0  0  0  0  0  0  0
   -8.0272   23.9938  -31.4143 H   0  0  0  0  0  0  0  0  0  0  0  0
   -7.0920   22.0070  -31.7670 C   0  0  0  0  0  0  0  0  0  0  0  0
   -8.0870   21.1740  -32.2580 C   0  0  0  0  0  0  0  0  0  0  0  0
   -9.1175   21.5376  -32.3837 H   0  0  0  0  0  0  0  0  0  0  0  0
   -7.7420   19.8540  -32.5900 C   0  0  0  0  0  0  0  0  0  0  0  0
   -8.5192   19.1737  -32.9684 H   0  0  0  0  0  0  0  0  0  0  0  0
   -6.4030   19.3750  -32.4470 C   0  0  0  0  0  0  0  0  0  0  0  0
   -6.0490   18.0050  -32.8100 N   0  0  0  0  0  0  0  0  0  0  0  0
   -6.1140   17.5920  -34.2280 C   0  0  0  0  0  0  0  0  0  0  0  0
   -7.1552   17.6871  -34.5699 H   0  0  0  0  0  0  0  0  0  0  0  0
   -5.4275   18.2466  -34.7849 H   0  0  0  0  0  0  0  0  0  0  0  0
   -5.6550   16.1520  -34.4720 C   0  0  0  0  0  0  0  0  0  0  0  0
   -6.0909   15.7911  -35.4153 H   0  0  0  0  0  0  0  0  0  0  0  0
   -4.5563   16.1400  -34.5237 H   0  0  0  0  0  0  0  0  0  0  0  0
   -6.0620   15.3050  -33.4240 O   0  0  0  0  0  0  0  0  0  0  0  0
   -5.3390   15.6520  -32.2680 C   0  0  0  0  0  0  0  0  0  0  0  0
   -5.5167   14.8938  -31.4911 H   0  0  0  0  0  0  0  0  0  0  0  0
   -4.2699   15.6980  -32.5230 H   0  0  0  0  0  0  0  0  0  0  0  0
   -5.7750   17.0210  -31.7410 C   0  0  0  0  0  0  0  0  0  0  0  0
   -6.6908   16.8894  -31.1460 H   0  0  0  0  0  0  0  0  0  0  0  0
   -4.9416   17.4175  -31.1424 H   0  0  0  0  0  0  0  0  0  0  0  0
   -5.4250   20.2750  -31.9350 C   0  0  0  0  0  0  0  0  0  0  0  0
   -4.3809   19.9514  -31.8119 H   0  0  0  0  0  0  0  0  0  0  0  0
   -5.8080   21.5740  -31.5910 C   0  0  0  0  0  0  0  0  0  0  0  0
  1  2  1  0
  2  3  1  0
  3  4  2  0
  3  5  1  0
  5  6  1  0
  6  7  1  0
  6  8  1  0
  6  9  1  0
  2 10  2  0
 10 11  1  0
 10 12  1  0
 12 13  2  0
 12 14  1  0
 14 15  1  0
 15 16  1  0
 16 17  2  0
 16 18  1  0
 18 19  1  0
 18 20  1  0
 15 21  2  0
 21 22  1  0
 21 23  1  0
 23 24  2  0
 24 25  1  0
 24 26  1  0
 26 27  1  0
 26 28  2  0
 28 29  1  0
 29 30  1  0
 30 31  1  0
 30 32  1  0
 30 33  1  0
 33 34  1  0
 33 35  1  0
 33 36  1  0
 36 37  1  0
 37 38  1  0
 37 39  1  0
 37 40  1  0
 40 41  1  0
 40 42  1  0
 28 43  1  0
 43 44  1  0
 43 45  2  0
 45 14  1  0
 45 23  1  0
 40 29  1  0
M  END
>  <UniqueID>  (29) 
29

>  <SMILES>  (29) 
COC(=O)/C=C\C(=O)n1c(C(N)=O)cc2ccc(N3CCOCC3)cc21

>  <Energy>  (29) 
96.60475274565907

>  <Genealogy>  (29) 
COC(=O)/C=C\C(=O)n1c(C(N)=O)cc2ccc(N3CCOCC3)cc21 (cis-trans isomerization)
COC(=O)/C=C\C(=O)n1c(C(N)=O)cc2ccc(N3CCOCC3)cc21 (3D coordinates assigned)
COC(=O)/C=C\C(=O)n1c(C(N)=O)cc2ccc(N3CCOCC3)cc21 (nonaromatic ring conformer: 96.60475274565907 kcal/mol)

>  <smiles>  (29) 
COC(=O)/C=C\C(=O)n1c(C(N)=O)cc2ccc(N3CCOCC3)cc21

>  <score_type>  (29) 
oracle

>  <origin>  (29) 
adg

>  <m_score__min__energy>  (29) 
-9.3499999999999996

>  <m_primary>  (29) 
energy

$$$$
29:0
     RDKit          3D

 42 44  0  0  0  0  0  0  0  0999 V2000
   -2.4190   21.6010  -27.8160 C   0  0  0  0  0  0  0  0  0  0  0  0
   -2.8890   22.5230  -28.8530 N   0  0  0  0  0  0  0  0  0  0  0  0
   -3.4360   23.8350  -28.4820 C   0  0  0  0  0  0  0  0  0  0  0  0
   -2.8400   24.9020  -29.3440 C   0  0  0  0  0  0  0  0  0  0  0  0
   -1.7680   25.4680  -29.0040 O   0  0  0  0  0  0  0  0  0  0  0  0
   -3.4900   25.2970  -30.5060 O   0  0  0  0  0  0  0  0  0  0  0  0
   -2.7670   22.1450  -30.2360 C   0  0  0  0  0  0  0  0  0  0  0  0
   -1.7080   22.4080  -30.8710 O   0  0  0  0  0  0  0  0  0  0  0  0
   -3.8330   21.4900  -30.8680 O   0  0  0  0  0  0  0  0  0  0  0  0
   -4.6900   22.0640  -31.8170 C   0  0  0  0  0  0  0  0  0  0  0  0
   -4.2250   22.6770  -32.8170 O   0  0  0  0  0  0  0  0  0  0  0  0
   -6.1130   21.9420  -31.6530 N   0  0  0  0  0  0  0  0  0  0  0  0
   -6.9930   22.9200  -31.2990 C   0  0  0  0  0  0  0  0  0  0  0  0
   -6.6410   24.2840  -30.8540 C   0  0  0  0  0  0  0  0  0  0  0  0
   -5.6170   25.0330  -31.5090 N   0  0  0  0  0  0  0  0  0  0  0  0
   -7.2150   24.7740  -29.8450 O   0  0  0  0  0  0  0  0  0  0  0  0
   -8.3020   22.4490  -31.3560 C   0  0  0  0  0  0  0  0  0  0  0  0
   -8.1970   21.1340  -31.7450 C   0  0  0  0  0  0  0  0  0  0  0  0
   -9.1890   20.1870  -31.9700 C   0  0  0  0  0  0  0  0  0  0  0  0
   -8.7980   18.9080  -32.3990 C   0  0  0  0  0  0  0  0  0  0  0  0
   -7.4230   18.5980  -32.6090 C   0  0  0  0  0  0  0  0  0  0  0  0
   -6.9310   17.2400  -33.0830 C   0  0  0  0  0  0  0  0  0  0  0  0
   -5.9710   17.2230  -34.2660 C   0  0  0  0  0  0  0  0  0  0  0  0
   -5.4590   16.9140  -32.8630 C   0  0  0  0  0  0  0  0  0  0  0  0
   -6.4500   19.5940  -32.3720 C   0  0  0  0  0  0  0  0  0  0  0  0
   -6.8670   20.8520  -31.9200 C   0  0  0  0  0  0  0  0  0  0  0  0
   -2.6348   22.0243  -26.8239 H   0  0  0  0  0  0  0  0  0  0  0  0
   -2.9349   20.6353  -27.9228 H   0  0  0  0  0  0  0  0  0  0  0  0
   -1.3345   21.4511  -27.9228 H   0  0  0  0  0  0  0  0  0  0  0  0
   -4.5276   23.8256  -28.6170 H   0  0  0  0  0  0  0  0  0  0  0  0
   -3.1911   24.0431  -27.4300 H   0  0  0  0  0  0  0  0  0  0  0  0
   -5.4110   26.0120  -31.2080 H   0  0  0  0  0  0  0  0  0  0  0  0
   -5.0050   24.5940  -32.2320 H   0  0  0  0  0  0  0  0  0  0  0  0
   -9.2231   23.0089  -31.1368 H   0  0  0  0  0  0  0  0  0  0  0  0
  -10.2503   20.4322  -31.8165 H   0  0  0  0  0  0  0  0  0  0  0  0
   -9.5621   18.1365  -32.5749 H   0  0  0  0  0  0  0  0  0  0  0  0
   -7.8816   16.7409  -32.8438 H   0  0  0  0  0  0  0  0  0  0  0  0
   -6.0369   16.4215  -35.0165 H   0  0  0  0  0  0  0  0  0  0  0  0
   -5.6955   17.9386  -35.0547 H   0  0  0  0  0  0  0  0  0  0  0  0
   -5.1556   15.8896  -32.6014 H   0  0  0  0  0  0  0  0  0  0  0  0
   -4.6611   17.3143  -32.2203 H   0  0  0  0  0  0  0  0  0  0  0  0
   -5.3831   19.3851  -32.5396 H   0  0  0  0  0  0  0  0  0  0  0  0
  1  2  1  0
  2  3  1  0
  3  4  1  0
  4  5  2  0
  4  6  1  0
  2  7  1  0
  7  8  2  0
  7  9  1  0
  9 10  1  0
 10 11  2  0
 10 12  1  0
 12 13  1  0
 13 14  1  0
 14 15  1  0
 14 16  2  0
 13 17  2  0
 17 18  1  0
 18 19  2  0
 19 20  1  0
 20 21  2  0
 21 22  1  0
 22 23  1  0
 23 24  1  0
 21 25  1  0
 25 26  2  0
 26 12  1  0
 26 18  1  0
 24 22  1  0
  1 27  1  0
  1 28  1  0
  1 29  1  0
  3 30  1  0
  3 31  1  0
 15 32  1  0
 15 33  1  0
 17 34  1  0
 19 35  1  0
 20 36  1  0
 22 37  1  0
 23 38  1  0
 23 39  1  0
 24 40  1  0
 24 41  1  0
 25 42  1  0
M  CHG  1   6  -1
M  END
>  <UniqueID>  (30) 
30

>  <SMILES>  (30) 
CN(CC(=O)[O-])C(=O)OC(=O)n1c(C(N)=O)cc2ccc(C3CC3)cc21

>  <Energy>  (30) 
347.0482563881568

>  <Genealogy>  (30) 
CN(CC(=O)[O-])C(=O)OC(=O)n1c(C(N)=O)cc2ccc(C3CC3)cc21 (protonated)
CN(CC(=O)[O-])C(=O)OC(=O)n1c(C(N)=O)cc2ccc(C3CC3)cc21 (3D coordinates assigned)
CN(CC(=O)[O-])C(=O)OC(=O)n1c(C(N)=O)cc2ccc(C3CC3)cc21 (nonaromatic ring conformer: 347.0482563881568 kcal/mol)

>  <smiles>  (30) 
CN(CC(=O)O)C(=O)OC(=O)n1c(C(N)=O)cc2ccc(C3CC3)cc21

>  <score_type>  (30) 
oracle

>  <origin>  (30) 
adg

>  <m_score__min__energy>  (30) 
-11.84

>  <m_primary>  (30) 
energy

$$$$
30:0
     RDKit          3D

 41 42  0  0  0  0  0  0  0  0999 V2000
   -5.7360   18.4380  -34.7150 C   0  0  0  0  0  0  0  0  0  0  0  0
   -6.5690   18.5440  -33.5120 N   0  0  0  0  0  0  0  0  0  0  0  0
   -7.1890   17.3280  -32.9690 C   0  0  0  0  0  0  0  0  0  0  0  0
   -6.7680   19.8280  -32.8610 C   0  0  0  0  0  0  0  0  0  0  0  0
   -8.0810   20.3050  -32.5820 C   0  0  0  0  0  0  0  0  0  0  0  0
   -8.2860   21.5490  -31.9660 C   0  0  0  0  0  0  0  0  0  0  0  0
   -7.1710   22.3080  -31.6390 C   0  0  0  0  0  0  0  0  0  0  0  0
   -7.0870   23.5370  -31.0280 C   0  0  0  0  0  0  0  0  0  0  0  0
   -5.7250   23.8200  -30.9510 C   0  0  0  0  0  0  0  0  0  0  0  0
   -5.1920   25.1020  -30.4470 C   0  0  0  0  0  0  0  0  0  0  0  0
   -3.9140   25.5790  -30.8610 N   0  0  0  0  0  0  0  0  0  0  0  0
   -5.9000   25.8150  -29.6840 O   0  0  0  0  0  0  0  0  0  0  0  0
   -4.9940   22.8000  -31.4870 N   0  0  0  0  0  0  0  0  0  0  0  0
   -3.5660   22.6630  -31.5230 C   0  0  0  0  0  0  0  0  0  0  0  0
   -3.0090   22.1410  -32.5270 O   0  0  0  0  0  0  0  0  0  0  0  0
   -2.7950   23.1430  -30.4580 O   0  0  0  0  0  0  0  0  0  0  0  0
   -1.9740   22.3010  -29.6540 C   0  0  0  0  0  0  0  0  0  0  0  0
   -2.4490   22.2810  -28.3100 O   0  0  0  0  0  0  0  0  0  0  0  0
   -1.8240   22.9770  -27.2720 C   0  0  0  0  0  0  0  0  0  0  0  0
   -1.1510   22.3660  -26.3980 O   0  0  0  0  0  0  0  0  0  0  0  0
   -1.9420   24.4670  -27.2110 C   0  0  0  0  0  0  0  0  0  0  0  0
   -1.1200   25.0950  -28.2890 C   0  0  0  0  0  0  0  0  0  0  0  0
   -1.5930   26.0380  -28.9750 O   0  0  0  0  0  0  0  0  0  0  0  0
    0.1680   24.6300  -28.5470 O   0  0  0  0  0  0  0  0  0  0  0  0
   -5.8970   21.8840  -31.9060 C   0  0  0  0  0  0  0  0  0  0  0  0
   -5.6590   20.6370  -32.4980 C   0  0  0  0  0  0  0  0  0  0  0  0
   -4.6842   18.3042  -34.4221 H   0  0  0  0  0  0  0  0  0  0  0  0
   -6.0630   17.5742  -35.3125 H   0  0  0  0  0  0  0  0  0  0  0  0
   -5.8362   19.3561  -35.3125 H   0  0  0  0  0  0  0  0  0  0  0  0
   -7.1696   17.3660  -31.8698 H   0  0  0  0  0  0  0  0  0  0  0  0
   -8.2310   17.2617  -33.3153 H   0  0  0  0  0  0  0  0  0  0  0  0
   -6.6307   16.4457  -33.3153 H   0  0  0  0  0  0  0  0  0  0  0  0
   -8.9495   19.6872  -32.8543 H   0  0  0  0  0  0  0  0  0  0  0  0
   -9.3013   21.9122  -31.7485 H   0  0  0  0  0  0  0  0  0  0  0  0
   -7.9190   24.1640  -30.6748 H   0  0  0  0  0  0  0  0  0  0  0  0
   -3.0460   25.2870  -30.3560 H   0  0  0  0  0  0  0  0  0  0  0  0
   -1.9944   21.2792  -30.0609 H   0  0  0  0  0  0  0  0  0  0  0  0
   -0.9455   22.6910  -29.6634 H   0  0  0  0  0  0  0  0  0  0  0  0
   -2.9956   24.7537  -27.3440 H   0  0  0  0  0  0  0  0  0  0  0  0
   -1.5781   24.8158  -26.2333 H   0  0  0  0  0  0  0  0  0  0  0  0
   -4.6307   20.2905  -32.6786 H   0  0  0  0  0  0  0  0  0  0  0  0
  1  2  1  0
  2  3  1  0
  2  4  1  0
  4  5  2  0
  5  6  1  0
  6  7  2  0
  7  8  1  0
  8  9  2  0
  9 10  1  0
 10 11  1  0
 10 12  2  0
  9 13  1  0
 13 14  1  0
 14 15  2  0
 14 16  1  0
 16 17  1  0
 17 18  1  0
 18 19  1  0
 19 20  2  0
 19 21  1  0
 21 22  1  0
 22 23  2  0
 22 24  1  0
 13 25  1  0
 25 26  2  0
 26  4  1  0
 25  7  1  0
  1 27  1  0
  1 28  1  0
  1 29  1  0
  3 30  1  0
  3 31  1  0
  3 32  1  0
  5 33  1  0
  6 34  1  0
  8 35  1  0
 11 36  1  0
 17 37  1  0
 17 38  1  0
 21 39  1  0
 21 40  1  0
 26 41  1  0
M  CHG  2  11  -1  24  -1
M  END
>  <UniqueID>  (31) 
31

>  <SMILES>  (31) 
CN(C)c1ccc2cc(C([NH-])=O)n(C(=O)OCOC(=O)CC(=O)[O-])c2c1

>  <Energy>  (31) 
75.33132204181442

>  <Genealogy>  (31) 
CN(C)c1ccc2cc(C([NH-])=O)n(C(=O)OCOC(=O)CC(=O)[O-])c2c1 (protonated)
CN(C)c1ccc2cc(C([NH-])=O)n(C(=O)OCOC(=O)CC(=O)[O-])c2c1 (3D coordinates assigned)
CN(C)c1ccc2cc(C([NH-])=O)n(C(=O)OCOC(=O)CC(=O)[O-])c2c1 (optimized conformer: 75.33132204181442 kcal/mol)

>  <smiles>  (31) 
CN(C)c1ccc2cc(C(N)=O)n(C(=O)OCOC(=O)CC(=O)O)c2c1

>  <score_type>  (31) 
oracle

>  <origin>  (31) 
adg

>  <m_score__min__energy>  (31) 
-12.119999999999999

>  <m_primary>  (31) 
energy

$$$$
31:0
     RDKit          3D

 53 55  0  0  0  0  0  0  0  0999 V2000
   -0.8540   26.8490  -27.8730 C   0  0  0  0  0  0  0  0  0  0  0  0
   -1.3730   25.9850  -28.9230 N   0  0  0  0  0  0  0  0  0  0  0  0
   -1.2930   24.5580  -28.8590 C   0  0  0  0  0  0  0  0  0  0  0  0
   -0.5200   23.9270  -29.6280 O   0  0  0  0  0  0  0  0  0  0  0  0
   -2.1530   23.8120  -27.8890 C   0  0  0  0  0  0  0  0  0  0  0  0
   -3.4280   23.5220  -28.4650 O   0  0  0  0  0  0  0  0  0  0  0  0
   -3.6100   22.7970  -29.6510 C   0  0  0  0  0  0  0  0  0  0  0  0
   -4.1350   23.4380  -30.8020 C   0  0  0  0  0  0  0  0  0  0  0  0
   -4.5380   24.7860  -30.8420 O   0  0  0  0  0  0  0  0  0  0  0  0
   -5.7100   25.3370  -30.2520 C   0  0  0  0  0  0  0  0  0  0  0  0
   -4.2620   22.7140  -31.9920 C   0  0  0  0  0  0  0  0  0  0  0  0
   -3.9110   21.3670  -32.0630 C   0  0  0  0  0  0  0  0  0  0  0  0
   -4.0380   20.7100  -33.2980 O   0  0  0  0  0  0  0  0  0  0  0  0
   -4.2260   19.3320  -33.4730 C   0  0  0  0  0  0  0  0  0  0  0  0
   -3.2680   18.5970  -33.8390 O   0  0  0  0  0  0  0  0  0  0  0  0
   -5.4960   18.7450  -33.1520 N   0  0  0  0  0  0  0  0  0  0  0  0
   -5.8670   17.4420  -33.2990 C   0  0  0  0  0  0  0  0  0  0  0  0
   -4.9730   16.3190  -33.6490 C   0  0  0  0  0  0  0  0  0  0  0  0
   -4.3290   16.2630  -34.9180 N   0  0  0  0  0  0  0  0  0  0  0  0
   -4.7330   15.4230  -32.7950 O   0  0  0  0  0  0  0  0  0  0  0  0
   -7.2140   17.2790  -32.9860 C   0  0  0  0  0  0  0  0  0  0  0  0
   -7.6600   18.5300  -32.6280 C   0  0  0  0  0  0  0  0  0  0  0  0
   -8.9280   18.9490  -32.2380 C   0  0  0  0  0  0  0  0  0  0  0  0
   -9.1120   20.3120  -31.9510 C   0  0  0  0  0  0  0  0  0  0  0  0
   -8.0320   21.2260  -32.0470 C   0  0  0  0  0  0  0  0  0  0  0  0
   -8.2620   22.6920  -31.7830 C   0  0  0  0  0  0  0  0  0  0  0  0
   -7.4710   23.4380  -32.6350 F   0  0  0  0  0  0  0  0  0  0  0  0
   -7.9440   23.0130  -30.4750 F   0  0  0  0  0  0  0  0  0  0  0  0
   -9.5900   23.0170  -31.9980 F   0  0  0  0  0  0  0  0  0  0  0  0
   -6.7650   20.7650  -32.4750 C   0  0  0  0  0  0  0  0  0  0  0  0
   -6.6050   19.3980  -32.7360 C   0  0  0  0  0  0  0  0  0  0  0  0
   -3.4080   20.7270  -30.9210 C   0  0  0  0  0  0  0  0  0  0  0  0
   -3.2810   21.4250  -29.7060 C   0  0  0  0  0  0  0  0  0  0  0  0
   -2.8540   20.7800  -28.5350 O   0  0  0  0  0  0  0  0  0  0  0  0
   -1.5260   20.3210  -28.2940 C   0  0  0  0  0  0  0  0  0  0  0  0
   -1.1085   26.4253  -26.8903 H   0  0  0  0  0  0  0  0  0  0  0  0
    0.2393   26.9249  -27.9676 H   0  0  0  0  0  0  0  0  0  0  0  0
   -1.3005   27.8498  -27.9676 H   0  0  0  0  0  0  0  0  0  0  0  0
   -1.6565   22.8688  -27.6171 H   0  0  0  0  0  0  0  0  0  0  0  0
   -2.3019   24.4358  -26.9953 H   0  0  0  0  0  0  0  0  0  0  0  0
   -5.6229   25.2960  -29.1562 H   0  0  0  0  0  0  0  0  0  0  0  0
   -5.8244   26.3832  -30.5719 H   0  0  0  0  0  0  0  0  0  0  0  0
   -6.5886   24.7576  -30.5719 H   0  0  0  0  0  0  0  0  0  0  0  0
   -4.6469   23.2182  -32.8906 H   0  0  0  0  0  0  0  0  0  0  0  0
   -3.7700   17.0700  -35.2750 H   0  0  0  0  0  0  0  0  0  0  0  0
   -7.7978   16.3472  -33.0182 H   0  0  0  0  0  0  0  0  0  0  0  0
   -9.7609   18.2351  -32.1568 H   0  0  0  0  0  0  0  0  0  0  0  0
  -10.1055   20.6744  -31.6483 H   0  0  0  0  0  0  0  0  0  0  0  0
   -5.9247   21.4638  -32.6000 H   0  0  0  0  0  0  0  0  0  0  0  0
   -3.1100   19.6695  -30.9757 H   0  0  0  0  0  0  0  0  0  0  0  0
   -1.3501   20.2602  -27.2099 H   0  0  0  0  0  0  0  0  0  0  0  0
   -1.3950   19.3254  -28.7431 H   0  0  0  0  0  0  0  0  0  0  0  0
   -0.8082   21.0232  -28.7431 H   0  0  0  0  0  0  0  0  0  0  0  0
  1  2  1  0
  2  3  1  0
  3  4  2  0
  3  5  1  0
  5  6  1  0
  6  7  1  0
  7  8  2  0
  8  9  1  0
  9 10  1  0
  8 11  1  0
 11 12  2  0
 12 13  1  0
 13 14  1  0
 14 15  2  0
 14 16  1  0
 16 17  1  0
 17 18  1  0
 18 19  1  0
 18 20  2  0
 17 21  2  0
 21 22  1  0
 22 23  2  0
 23 24  1  0
 24 25  2  0
 25 26  1  0
 26 27  1  0
 26 28  1  0
 26 29  1  0
 25 30  1  0
 30 31  2  0
 12 32  1  0
 32 33  2  0
 33 34  1  0
 34 35  1  0
 33  7  1  0
 31 16  1  0
 31 22  1  0
  1 36  1  0
  1 37  1  0
  1 38  1  0
  5 39  1  0
  5 40  1  0
 10 41  1  0
 10 42  1  0
 10 43  1  0
 11 44  1  0
 19 45  1  0
 21 46  1  0
 23 47  1  0
 24 48  1  0
 30 49  1  0
 32 50  1  0
 35 51  1  0
 35 52  1  0
 35 53  1  0
M  CHG  2   2  -1  19  -1
M  END
>  <UniqueID>  (32) 
32

>  <SMILES>  (32) 
C[N-]C(=O)COc1c(OC)cc(OC(=O)n2c(C([NH-])=O)cc3ccc(C(F)(F)F)cc32)cc1OC

>  <Energy>  (32) 
102.53644821043991

>  <Genealogy>  (32) 
C[N-]C(=O)COc1c(OC)cc(OC(=O)n2c(C([NH-])=O)cc3ccc(C(F)(F)F)cc32)cc1OC (protonated)
C[N-]C(=O)COc1c(OC)cc(OC(=O)n2c(C([NH-])=O)cc3ccc(C(F)(F)F)cc32)cc1OC (3D coordinates assigned)
C[N-]C(=O)COc1c(OC)cc(OC(=O)n2c(C([NH-])=O)cc3ccc(C(F)(F)F)cc32)cc1OC (optimized conformer: 102.53644821043991 kcal/mol)

>  <smiles>  (32) 
CNC(=O)COc1c(OC)cc(OC(=O)n2c(C(N)=O)cc3ccc(C(F)(F)F)cc32)cc1OC

>  <score_type>  (32) 
oracle

>  <origin>  (32) 
adg

>  <m_score__min__energy>  (32) 
-10.619999999999999

>  <m_primary>  (32) 
energy

$$$$
32:0
     RDKit          3D

 51 53  0  0  0  0  0  0  0  0999 V2000
   -0.0100   23.3550  -27.0340 C   0  0  0  0  0  0  0  0  0  0  0  0
   -0.7380   22.6870  -28.2100 C   0  0  1  0  0  0  0  0  0  0  0  0
   -1.9650   22.1720  -27.7660 O   0  0  0  0  0  0  0  0  0  0  0  0
   -0.9810   23.6550  -29.3950 C   0  0  1  0  0  0  0  0  0  0  0  0
   -1.8210   23.0430  -30.4280 N   0  0  0  0  0  0  0  0  0  0  0  0
   -3.2360   23.1850  -30.6310 C   0  0  0  0  0  0  0  0  0  0  0  0
   -3.6460   24.2260  -31.2080 O   0  0  0  0  0  0  0  0  0  0  0  0
   -4.2320   22.1710  -30.2120 C   0  0  0  0  0  0  0  0  0  0  0  0
   -3.9070   21.2150  -29.4580 O   0  0  0  0  0  0  0  0  0  0  0  0
   -5.5970   22.2750  -30.6470 N   0  0  0  0  0  0  0  0  0  0  0  0
   -6.4860   23.2750  -30.3910 C   0  0  0  0  0  0  0  0  0  0  0  0
   -6.1680   24.5380  -29.6860 C   0  0  0  0  0  0  0  0  0  0  0  0
   -4.9430   24.6900  -28.9650 N   0  0  0  0  0  0  0  0  0  0  0  0
   -6.9910   25.4930  -29.7010 O   0  0  0  0  0  0  0  0  0  0  0  0
   -7.7220   22.9810  -30.9680 C   0  0  0  0  0  0  0  0  0  0  0  0
   -7.5530   21.7660  -31.5960 C   0  0  0  0  0  0  0  0  0  0  0  0
   -8.4500   21.0040  -32.3360 C   0  0  0  0  0  0  0  0  0  0  0  0
   -7.9970   19.7830  -32.8670 C   0  0  0  0  0  0  0  0  0  0  0  0
   -6.6660   19.3420  -32.6450 C   0  0  0  0  0  0  0  0  0  0  0  0
   -6.2080   18.0920  -33.1980 N   0  0  0  0  0  0  0  0  0  0  0  0
   -6.1370   16.8910  -32.3540 C   0  0  0  0  0  0  0  0  0  0  0  0
   -5.2710   15.8100  -33.0190 C   0  0  0  0  0  0  0  0  0  0  0  0
   -4.0990   16.4170  -33.6660 N   0  0  0  0  0  0  0  0  0  0  0  0
   -4.4690   17.3180  -34.7790 C   0  0  0  0  0  0  0  0  0  0  0  0
   -5.8570   17.9700  -34.6190 C   0  0  0  0  0  0  0  0  0  0  0  0
   -5.7820   20.1560  -31.8980 C   0  0  0  0  0  0  0  0  0  0  0  0
   -6.2600   21.3660  -31.3890 C   0  0  0  0  0  0  0  0  0  0  0  0
   -1.6220   24.9290  -28.9170 C   0  0  0  0  0  0  0  0  0  0  0  0
   -1.2340   26.0490  -29.3510 O   0  0  0  0  0  0  0  0  0  0  0  0
   -2.6790   24.8750  -28.0170 O   0  0  0  0  0  0  0  0  0  0  0  0
   -0.4213   22.9776  -26.0861 H   0  0  0  0  0  0  0  0  0  0  0  0
    1.0635   23.1211  -27.0868 H   0  0  0  0  0  0  0  0  0  0  0  0
   -0.1509   24.4447  -27.0868 H   0  0  0  0  0  0  0  0  0  0  0  0
   -0.0883   21.8800  -28.5797 H   0  0  0  0  0  0  0  0  0  0  0  0
   -2.6770   22.6020  -28.3110 H   0  0  0  0  0  0  0  0  0  0  0  0
    0.0010   23.8828  -29.8352 H   0  0  0  0  0  0  0  0  0  0  0  0
   -4.7580   25.5660  -28.4280 H   0  0  0  0  0  0  0  0  0  0  0  0
   -4.2020   23.9560  -28.9900 H   0  0  0  0  0  0  0  0  0  0  0  0
   -8.6373   23.5900  -30.9297 H   0  0  0  0  0  0  0  0  0  0  0  0
   -9.4825   21.3456  -32.5011 H   0  0  0  0  0  0  0  0  0  0  0  0
   -8.6827   19.1618  -33.4619 H   0  0  0  0  0  0  0  0  0  0  0  0
   -5.6973   17.1584  -31.3818 H   0  0  0  0  0  0  0  0  0  0  0  0
   -7.1539   16.4946  -32.2170 H   0  0  0  0  0  0  0  0  0  0  0  0
   -4.9329   15.0954  -32.2541 H   0  0  0  0  0  0  0  0  0  0  0  0
   -5.8709   15.2923  -33.7819 H   0  0  0  0  0  0  0  0  0  0  0  0
   -3.5740   16.9680  -32.9470 H   0  0  0  0  0  0  0  0  0  0  0  0
   -3.7160   18.1173  -34.8427 H   0  0  0  0  0  0  0  0  0  0  0  0
   -4.5083   16.7019  -35.6894 H   0  0  0  0  0  0  0  0  0  0  0  0
   -5.8414   18.9709  -35.0751 H   0  0  0  0  0  0  0  0  0  0  0  0
   -6.6064   17.3375  -35.1172 H   0  0  0  0  0  0  0  0  0  0  0  0
   -4.7422   19.8432  -31.7221 H   0  0  0  0  0  0  0  0  0  0  0  0
  1  2  1  0
  2  3  1  0
  2  4  1  0
  4  5  1  0
  5  6  1  0
  6  7  2  0
  6  8  1  0
  8  9  2  0
  8 10  1  0
 10 11  1  0
 11 12  1  0
 12 13  1  0
 12 14  2  0
 11 15  2  0
 15 16  1  0
 16 17  2  0
 17 18  1  0
 18 19  2  0
 19 20  1  0
 20 21  1  0
 21 22  1  0
 22 23  1  0
 23 24  1  0
 24 25  1  0
 19 26  1  0
 26 27  2  0
  4 28  1  0
 28 29  2  0
 28 30  1  0
 27 10  1  0
 27 16  1  0
 25 20  1  0
  1 31  1  0
  1 32  1  0
  1 33  1  0
  2 34  1  6
  3 35  1  0
  4 36  1  6
 13 37  1  0
 13 38  1  0
 15 39  1  0
 17 40  1  0
 18 41  1  0
 21 42  1  0
 21 43  1  0
 22 44  1  0
 22 45  1  0
 23 46  1  0
 24 47  1  0
 24 48  1  0
 25 49  1  0
 25 50  1  0
 26 51  1  0
M  CHG  2   5  -1  30  -1
M  END
>  <UniqueID>  (33) 
33

>  <SMILES>  (33) 
C[C@@H](O)[C@@H]([N-]C(=O)C(=O)n1c(C(N)=O)cc2ccc(N3CCNCC3)cc21)C(=O)[O-]

>  <Energy>  (33) 
99.79616643308941

>  <Genealogy>  (33) 
CC(O)C([N-]C(=O)C(=O)n1c(C(N)=O)cc2ccc(N3CCNCC3)cc21)C(=O)[O-] (protonated)
C[C@@H](O)[C@@H]([N-]C(=O)C(=O)n1c(C(N)=O)cc2ccc(N3CCNCC3)cc21)C(=O)[O-] (chirality)
C[C@@H](O)[C@@H]([N-]C(=O)C(=O)n1c(C(N)=O)cc2ccc(N3CCNCC3)cc21)C(=O)[O-] (3D coordinates assigned)
C[C@@H](O)[C@@H]([N-]C(=O)C(=O)n1c(C(N)=O)cc2ccc(N3CCNCC3)cc21)C(=O)[O-] (nonaromatic ring conformer: 99.79616643308941 kcal/mol)

>  <smiles>  (33) 
CC(O)C(NC(=O)C(=O)n1c(C(N)=O)cc2ccc(N3CCNCC3)cc21)C(=O)O

>  <score_type>  (33) 
oracle

>  <origin>  (33) 
adg

>  <m_score__min__energy>  (33) 
-13.06

>  <m_primary>  (33) 
energy

$$$$
33:0
     RDKit          3D

 32 33  0  0  0  0  0  0  0  0999 V2000
   -2.9540   23.5360  -27.9590 C   0  0  0  0  0  0  0  0  0  0  0  0
   -2.3080   24.0510  -29.2590 C   0  0  1  0  0  0  0  0  0  0  0  0
   -3.3030   24.7390  -30.0960 N   0  0  0  0  0  0  0  0  0  0  0  0
   -4.6400   24.2540  -30.3380 C   0  0  0  0  0  0  0  0  0  0  0  0
   -5.7870   25.0250  -30.0180 C   0  0  0  0  0  0  0  0  0  0  0  0
   -7.0760   24.5440  -30.2950 C   0  0  0  0  0  0  0  0  0  0  0  0
   -7.1970   23.2920  -30.8840 C   0  0  0  0  0  0  0  0  0  0  0  0
   -8.3260   22.6050  -31.2600 C   0  0  0  0  0  0  0  0  0  0  0  0
   -7.8590   21.4190  -31.8160 C   0  0  0  0  0  0  0  0  0  0  0  0
   -8.7450   20.4240  -32.4370 C   0  0  0  0  0  0  0  0  0  0  0  0
   -8.2160   19.2770  -33.1080 N   0  0  0  0  0  0  0  0  0  0  0  0
   -9.9890   20.6020  -32.4050 O   0  0  0  0  0  0  0  0  0  0  0  0
   -6.4940   21.3560  -31.7670 N   0  0  0  0  0  0  0  0  0  0  0  0
   -5.6700   20.2240  -32.1160 C   0  0  0  0  0  0  0  0  0  0  0  0
   -4.7370   20.3460  -32.9510 O   0  0  0  0  0  0  0  0  0  0  0  0
   -5.9140   18.9700  -31.5720 O   0  0  0  0  0  0  0  0  0  0  0  0
   -6.1030   22.5230  -31.2000 C   0  0  0  0  0  0  0  0  0  0  0  0
   -4.8050   22.9730  -30.9140 C   0  0  0  0  0  0  0  0  0  0  0  0
   -1.1710   24.9860  -28.9410 C   0  0  0  0  0  0  0  0  0  0  0  0
   -1.2310   26.1890  -29.2910 O   0  0  0  0  0  0  0  0  0  0  0  0
   -0.0760   24.5450  -28.2110 O   0  0  0  0  0  0  0  0  0  0  0  0
   -2.4234   23.9590  -27.0933 H   0  0  0  0  0  0  0  0  0  0  0  0
   -4.0099   23.8429  -27.9277 H   0  0  0  0  0  0  0  0  0  0  0  0
   -2.8901   22.4383  -27.9277 H   0  0  0  0  0  0  0  0  0  0  0  0
   -1.9174   23.1867  -29.8161 H   0  0  0  0  0  0  0  0  0  0  0  0
   -3.0500   25.6720  -30.5030 H   0  0  0  0  0  0  0  0  0  0  0  0
   -5.6646   26.0116  -29.5472 H   0  0  0  0  0  0  0  0  0  0  0  0
   -7.9665   25.1424  -30.0522 H   0  0  0  0  0  0  0  0  0  0  0  0
   -9.3725   22.9240  -31.1459 H   0  0  0  0  0  0  0  0  0  0  0  0
   -8.8600   18.5150  -33.4270 H   0  0  0  0  0  0  0  0  0  0  0  0
   -7.1980   19.1970  -33.2960 H   0  0  0  0  0  0  0  0  0  0  0  0
   -3.9319   22.3410  -31.1338 H   0  0  0  0  0  0  0  0  0  0  0  0
  1  2  1  0
  2  3  1  0
  3  4  1  0
  4  5  2  0
  5  6  1  0
  6  7  2  0
  7  8  1  0
  8  9  2  0
  9 10  1  0
 10 11  1  0
 10 12  2  0
  9 13  1  0
 13 14  1  0
 14 15  2  0
 14 16  1  0
 13 17  1  0
 17 18  2  0
  2 19  1  0
 19 20  2  0
 19 21  1  0
 18  4  1  0
 17  7  1  0
  1 22  1  0
  1 23  1  0
  1 24  1  0
  2 25  1  6
  3 26  1  0
  5 27  1  0
  6 28  1  0
  8 29  1  0
 11 30  1  0
 11 31  1  0
 18 32  1  0
M  CHG  2  16  -1  21  -1
M  END
>  <UniqueID>  (34) 
34

>  <SMILES>  (34) 
C[C@@H](Nc1ccc2cc(C(N)=O)n(C(=O)[O-])c2c1)C(=O)[O-]

>  <Energy>  (34) 
72.3941765640589

>  <Genealogy>  (34) 
CC(Nc1ccc2cc(C(N)=O)n(C(=O)[O-])c2c1)C(=O)[O-] (protonated)
C[C@@H](Nc1ccc2cc(C(N)=O)n(C(=O)[O-])c2c1)C(=O)[O-] (chirality)
C[C@@H](Nc1ccc2cc(C(N)=O)n(C(=O)[O-])c2c1)C(=O)[O-] (3D coordinates assigned)
C[C@@H](Nc1ccc2cc(C(N)=O)n(C(=O)[O-])c2c1)C(=O)[O-] (optimized conformer: 72.3941765640589 kcal/mol)

>  <smiles>  (34) 
CC(Nc1ccc2cc(C(N)=O)n(C(=O)O)c2c1)C(=O)O

>  <score_type>  (34) 
oracle

>  <origin>  (34) 
adg

>  <m_score__min__energy>  (34) 
-9.6099999999999994

>  <m_primary>  (34) 
energy

$$$$
34:0
     RDKit          3D

 39 40  0  0  0  0  0  0  0  0999 V2000
   -0.0540   24.6690  -27.8270 C   0  0  0  0  0  0  0  0  0  0  0  0
   -1.0480   23.5910  -27.8750 N   0  0  0  0  0  0  0  0  0  0  0  0
   -0.8230   22.3470  -27.1300 C   0  0  0  0  0  0  0  0  0  0  0  0
   -2.2420   23.7740  -28.6670 C   0  0  0  0  0  0  0  0  0  0  0  0
   -2.3610   24.7980  -29.3950 O   0  0  0  0  0  0  0  0  0  0  0  0
   -3.3770   22.7940  -28.6210 C   0  0  0  0  0  0  0  0  0  0  0  0
   -3.4150   22.0680  -29.8440 O   0  0  0  0  0  0  0  0  0  0  0  0
   -3.9180   22.5980  -31.0330 C   0  0  0  0  0  0  0  0  0  0  0  0
   -3.1210   22.9070  -31.9590 O   0  0  0  0  0  0  0  0  0  0  0  0
   -5.3440   22.7520  -31.2140 N   0  0  0  0  0  0  0  0  0  0  0  0
   -6.0980   23.8440  -30.8920 C   0  0  0  0  0  0  0  0  0  0  0  0
   -5.5890   25.1460  -30.4280 C   0  0  0  0  0  0  0  0  0  0  0  0
   -4.2330   25.5260  -30.6660 N   0  0  0  0  0  0  0  0  0  0  0  0
   -6.3750   25.9570  -29.8710 O   0  0  0  0  0  0  0  0  0  0  0  0
   -7.4530   23.5830  -31.0480 C   0  0  0  0  0  0  0  0  0  0  0  0
   -7.5210   22.2910  -31.5090 C   0  0  0  0  0  0  0  0  0  0  0  0
   -8.6320   21.5290  -31.8540 C   0  0  0  0  0  0  0  0  0  0  0  0
   -8.4180   20.2230  -32.3200 C   0  0  0  0  0  0  0  0  0  0  0  0
   -7.1060   19.7060  -32.4360 C   0  0  0  0  0  0  0  0  0  0  0  0
   -6.8990   18.3130  -32.9590 C   0  0  0  0  0  0  0  0  0  0  0  0
   -6.4390   17.4970  -31.9420 F   0  0  0  0  0  0  0  0  0  0  0  0
   -5.9700   18.3300  -33.9840 F   0  0  0  0  0  0  0  0  0  0  0  0
   -5.9990   20.5090  -32.0800 C   0  0  0  0  0  0  0  0  0  0  0  0
   -6.2380   21.8080  -31.6060 C   0  0  0  0  0  0  0  0  0  0  0  0
    0.1714   24.9135  -26.7785 H   0  0  0  0  0  0  0  0  0  0  0  0
    0.8662   24.3421  -28.3333 H   0  0  0  0  0  0  0  0  0  0  0  0
   -0.4544   25.5597  -28.3333 H   0  0  0  0  0  0  0  0  0  0  0  0
   -0.8605   22.5543  -26.0504 H   0  0  0  0  0  0  0  0  0  0  0  0
   -1.6037   21.6172  -27.3906 H   0  0  0  0  0  0  0  0  0  0  0  0
    0.1639   21.9369  -27.3906 H   0  0  0  0  0  0  0  0  0  0  0  0
   -3.2280   22.0969  -27.7833 H   0  0  0  0  0  0  0  0  0  0  0  0
   -4.3259   23.3322  -28.4799 H   0  0  0  0  0  0  0  0  0  0  0  0
   -3.5970   24.9100  -31.2200 H   0  0  0  0  0  0  0  0  0  0  0  0
   -3.8690   26.4350  -30.3040 H   0  0  0  0  0  0  0  0  0  0  0  0
   -8.2921   24.2649  -30.8457 H   0  0  0  0  0  0  0  0  0  0  0  0
   -9.6491   21.9383  -31.7642 H   0  0  0  0  0  0  0  0  0  0  0  0
   -9.2778   19.5955  -32.5976 H   0  0  0  0  0  0  0  0  0  0  0  0
   -7.8567   17.9268  -33.3379 H   0  0  0  0  0  0  0  0  0  0  0  0
   -4.9726   20.1243  -32.1724 H   0  0  0  0  0  0  0  0  0  0  0  0
  1  2  1  0
  2  3  1  0
  2  4  1  0
  4  5  2  0
  4  6  1  0
  6  7  1  0
  7  8  1  0
  8  9  2  0
  8 10  1  0
 10 11  1  0
 11 12  1  0
 12 13  1  0
 12 14  2  0
 11 15  2  0
 15 16  1  0
 16 17  2  0
 17 18  1  0
 18 19  2  0
 19 20  1  0
 20 21  1  0
 20 22  1  0
 19 23  1  0
 23 24  2  0
 24 10  1  0
 24 16  1  0
  1 25  1  0
  1 26  1  0
  1 27  1  0
  3 28  1  0
  3 29  1  0
  3 30  1  0
  6 31  1  0
  6 32  1  0
 13 33  1  0
 13 34  1  0
 15 35  1  0
 17 36  1  0
 18 37  1  0
 20 38  1  0
 23 39  1  0
M  END
>  <UniqueID>  (35) 
35

>  <SMILES>  (35) 
CN(C)C(=O)COC(=O)n1c(C(N)=O)cc2ccc(C(F)F)cc21

>  <Energy>  (35) 
73.96150141232513

>  <Genealogy>  (35) 
CN(C)C(=O)COC(=O)n1c(C(N)=O)cc2ccc(C(F)F)cc21 (3D coordinates assigned)
CN(C)C(=O)COC(=O)n1c(C(N)=O)cc2ccc(C(F)F)cc21 (optimized conformer: 73.96150141232513 kcal/mol)

>  <smiles>  (35) 
CN(C)C(=O)COC(=O)n1c(C(N)=O)cc2ccc(C(F)F)cc21

>  <score_type>  (35) 
oracle

>  <origin>  (35) 
adg

>  <m_score__min__energy>  (35) 
-8.6600000000000001

>  <m_primary>  (35) 
energy

$$$$
35:0
     RDKit          3D

 47 48  0  0  0  0  0  0  0  0999 V2000
   -0.9950   21.1770  -32.0180 C   0  0  0  0  0  0  0  0  0  0  0  0
   -1.9340   21.3780  -33.0450 O   0  0  0  0  0  0  0  0  0  0  0  0
   -3.2090   20.2630  -32.8290 P   0  0  0  0  0  0  0  0  0  0  0  0
   -4.3340   20.5810  -33.7890 O   0  0  0  0  0  0  0  0  0  0  0  0
   -2.6660   18.6700  -33.1090 O   0  0  0  0  0  0  0  0  0  0  0  0
   -1.7540   18.7020  -34.1780 C   0  0  0  0  0  0  0  0  0  0  0  0
   -3.7990   20.4040  -31.2210 O   0  0  0  0  0  0  0  0  0  0  0  0
   -4.0380   21.6390  -30.6130 C   0  0  0  0  0  0  0  0  0  0  0  0
   -3.1920   22.1300  -29.8180 O   0  0  0  0  0  0  0  0  0  0  0  0
   -5.2540   22.3510  -30.8950 N   0  0  0  0  0  0  0  0  0  0  0  0
   -5.5400   23.6520  -30.6060 C   0  0  0  0  0  0  0  0  0  0  0  0
   -4.5900   24.6500  -30.0740 C   0  0  0  0  0  0  0  0  0  0  0  0
   -3.9340   24.4530  -28.8220 N   0  0  0  0  0  0  0  0  0  0  0  0
   -4.3120   25.6670  -30.7640 O   0  0  0  0  0  0  0  0  0  0  0  0
   -6.8620   23.9480  -30.9250 C   0  0  0  0  0  0  0  0  0  0  0  0
   -7.3810   22.7820  -31.4390 C   0  0  0  0  0  0  0  0  0  0  0  0
   -8.6620   22.5040  -31.9030 C   0  0  0  0  0  0  0  0  0  0  0  0
   -8.9330   21.1970  -32.3430 C   0  0  0  0  0  0  0  0  0  0  0  0
   -7.9330   20.1940  -32.3040 C   0  0  0  0  0  0  0  0  0  0  0  0
   -8.2590   18.8650  -32.7520 N   0  0  0  0  0  0  0  0  0  0  0  0
   -7.5850   17.6620  -32.2520 C   0  0  0  0  0  0  0  0  0  0  0  0
   -6.1960   17.4670  -32.8980 C   0  0  2  0  0  0  0  0  0  0  0  0
   -5.2200   18.0660  -32.0850 O   0  0  0  0  0  0  0  0  0  0  0  0
   -6.1160   18.1030  -34.2940 C   0  0  0  0  0  0  0  0  0  0  0  0
   -4.7860   18.2080  -34.7290 O   0  0  0  0  0  0  0  0  0  0  0  0
   -6.6420   20.5160  -31.8170 C   0  0  0  0  0  0  0  0  0  0  0  0
   -6.3920   21.8320  -31.4090 C   0  0  0  0  0  0  0  0  0  0  0  0
   -1.4909   21.2831  -31.0419 H   0  0  0  0  0  0  0  0  0  0  0  0
   -0.5677   20.1671  -32.1043 H   0  0  0  0  0  0  0  0  0  0  0  0
   -0.1917   21.9235  -32.1043 H   0  0  0  0  0  0  0  0  0  0  0  0
   -0.7278   18.7380  -33.7835 H   0  0  0  0  0  0  0  0  0  0  0  0
   -1.8787   17.7989  -34.7935 H   0  0  0  0  0  0  0  0  0  0  0  0
   -1.9417   19.5941  -34.7935 H   0  0  0  0  0  0  0  0  0  0  0  0
   -4.0090   23.5460  -28.3110 H   0  0  0  0  0  0  0  0  0  0  0  0
   -3.2970   25.1890  -28.4420 H   0  0  0  0  0  0  0  0  0  0  0  0
   -7.3811   24.9089  -30.7941 H   0  0  0  0  0  0  0  0  0  0  0  0
   -9.4388   23.2825  -31.9250 H   0  0  0  0  0  0  0  0  0  0  0  0
   -9.9352   20.9493  -32.7229 H   0  0  0  0  0  0  0  0  0  0  0  0
   -9.0210   18.7620  -33.4610 H   0  0  0  0  0  0  0  0  0  0  0  0
   -7.4608   17.7512  -31.1627 H   0  0  0  0  0  0  0  0  0  0  0  0
   -8.2058   16.7918  -32.5115 H   0  0  0  0  0  0  0  0  0  0  0  0
   -6.0254   16.3848  -32.9970 H   0  0  0  0  0  0  0  0  0  0  0  0
   -4.8010   18.7890  -32.6210 H   0  0  0  0  0  0  0  0  0  0  0  0
   -6.6778   17.4794  -35.0050 H   0  0  0  0  0  0  0  0  0  0  0  0
   -6.5457   19.1142  -34.2409 H   0  0  0  0  0  0  0  0  0  0  0  0
   -4.2380   18.4240  -33.9310 H   0  0  0  0  0  0  0  0  0  0  0  0
   -5.8545   19.7501  -31.7607 H   0  0  0  0  0  0  0  0  0  0  0  0
  1  2  1  0
  2  3  1  0
  3  4  2  0
  3  5  1  0
  5  6  1  0
  3  7  1  0
  7  8  1  0
  8  9  2  0
  8 10  1  0
 10 11  1  0
 11 12  1  0
 12 13  1  0
 12 14  2  0
 11 15  2  0
 15 16  1  0
 16 17  2  0
 17 18  1  0
 18 19  2  0
 19 20  1  0
 20 21  1  0
 21 22  1  0
 22 23  1  0
 22 24  1  0
 24 25  1  0
 19 26  1  0
 26 27  2  0
 27 10  1  0
 27 16  1  0
  1 28  1  0
  1 29  1  0
  1 30  1  0
  6 31  1  0
  6 32  1  0
  6 33  1  0
 13 34  1  0
 13 35  1  0
 15 36  1  0
 17 37  1  0
 18 38  1  0
 20 39  1  0
 21 40  1  0
 21 41  1  0
 22 42  1  6
 23 43  1  0
 24 44  1  0
 24 45  1  0
 25 46  1  0
 26 47  1  0
M  END
>  <UniqueID>  (36) 
36

>  <SMILES>  (36) 
COP(=O)(OC)OC(=O)n1c(C(N)=O)cc2ccc(NC[C@H](O)CO)cc21

>  <Energy>  (36) 
78.13482772352735

>  <Genealogy>  (36) 
COP(=O)(OC)OC(=O)n1c(C(N)=O)cc2ccc(NC[C@H](O)CO)cc21 (chirality)
COP(=O)(OC)OC(=O)n1c(C(N)=O)cc2ccc(NC[C@H](O)CO)cc21 (3D coordinates assigned)
COP(=O)(OC)OC(=O)n1c(C(N)=O)cc2ccc(NC[C@H](O)CO)cc21 (optimized conformer: 78.13482772352735 kcal/mol)

>  <smiles>  (36) 
COP(=O)(OC)OC(=O)n1c(C(N)=O)cc2ccc(NCC(O)CO)cc21

>  <score_type>  (36) 
oracle

>  <origin>  (36) 
adg

>  <m_score__min__energy>  (36) 
-7.9100000000000001

>  <m_primary>  (36) 
energy

$$$$
36:0
     RDKit          3D

 32 33  0  0  0  0  0  0  0  0999 V2000
   -3.3680   22.4650  -28.5980 C   0  0  0  0  0  0  0  0  0  0  0  0
   -3.2940   23.3240  -29.6170 C   0  0  0  0  0  0  0  0  0  0  0  0
   -2.5000   24.9240  -29.3430 S   0  0  0  0  0  0  0  0  0  0  0  0
   -3.8760   23.0050  -30.9390 C   0  0  0  0  0  0  0  0  0  0  0  0
   -3.1260   22.7040  -31.9080 O   0  0  0  0  0  0  0  0  0  0  0  0
   -5.2980   23.0180  -31.1350 N   0  0  0  0  0  0  0  0  0  0  0  0
   -6.1710   24.0070  -30.7980 C   0  0  0  0  0  0  0  0  0  0  0  0
   -5.7870   25.3340  -30.2630 C   0  0  0  0  0  0  0  0  0  0  0  0
   -6.4180   25.8690  -29.0970 N   0  0  0  0  0  0  0  0  0  0  0  0
   -4.9000   26.0150  -30.8430 O   0  0  0  0  0  0  0  0  0  0  0  0
   -7.4810   23.6130  -31.0760 C   0  0  0  0  0  0  0  0  0  0  0  0
   -7.3780   22.3380  -31.5870 C   0  0  0  0  0  0  0  0  0  0  0  0
   -8.3700   21.4570  -32.0090 C   0  0  0  0  0  0  0  0  0  0  0  0
   -7.9740   20.1860  -32.4580 C   0  0  0  0  0  0  0  0  0  0  0  0
   -6.6030   19.8220  -32.4810 C   0  0  0  0  0  0  0  0  0  0  0  0
   -6.1950   18.4440  -32.9250 C   0  0  0  0  0  0  0  0  0  0  0  0
   -5.7390   18.4590  -34.3800 C   0  0  0  0  0  0  0  0  0  0  0  0
   -5.6270   20.7380  -32.0320 C   0  0  0  0  0  0  0  0  0  0  0  0
   -6.0510   22.0010  -31.6060 C   0  0  0  0  0  0  0  0  0  0  0  0
   -3.8464   21.4845  -28.7388 H   0  0  0  0  0  0  0  0  0  0  0  0
   -2.9506   22.7376  -27.6174 H   0  0  0  0  0  0  0  0  0  0  0  0
   -6.1590   26.8210  -28.7550 H   0  0  0  0  0  0  0  0  0  0  0  0
   -7.1090   25.3160  -28.5450 H   0  0  0  0  0  0  0  0  0  0  0  0
   -8.4002   24.1967  -30.9201 H   0  0  0  0  0  0  0  0  0  0  0  0
   -9.4309   21.7471  -31.9914 H   0  0  0  0  0  0  0  0  0  0  0  0
   -8.7344   19.4661  -32.7950 H   0  0  0  0  0  0  0  0  0  0  0  0
   -5.3683   18.0905  -32.2912 H   0  0  0  0  0  0  0  0  0  0  0  0
   -7.0611   17.7721  -32.8329 H   0  0  0  0  0  0  0  0  0  0  0  0
   -4.6403   18.4951  -34.4196 H   0  0  0  0  0  0  0  0  0  0  0  0
   -6.0943   17.5487  -34.8850 H   0  0  0  0  0  0  0  0  0  0  0  0
   -6.1534   19.3440  -34.8850 H   0  0  0  0  0  0  0  0  0  0  0  0
   -4.5613   20.4656  -32.0176 H   0  0  0  0  0  0  0  0  0  0  0  0
  1  2  2  0
  2  3  1  0
  2  4  1  0
  4  5  2  0
  4  6  1  0
  6  7  1  0
  7  8  1  0
  8  9  1  0
  8 10  2  0
  7 11  2  0
 11 12  1  0
 12 13  2  0
 13 14  1  0
 14 15  2  0
 15 16  1  0
 16 17  1  0
 15 18  1  0
 18 19  2  0
 19  6  1  0
 19 12  1  0
  1 20  1  0
  1 21  1  0
  9 22  1  0
  9 23  1  0
 11 24  1  0
 13 25  1  0
 14 26  1  0
 16 27  1  0
 16 28  1  0
 17 29  1  0
 17 30  1  0
 17 31  1  0
 18 32  1  0
M  CHG  1   3  -1
M  END
>  <UniqueID>  (37) 
37

>  <SMILES>  (37) 
C=C([S-])C(=O)n1c(C(N)=O)cc2ccc(CC)cc21

>  <Energy>  (37) 
67.58115273130514

>  <Genealogy>  (37) 
C=C([S-])C(=O)n1c(C(N)=O)cc2ccc(CC)cc21 (protonated)
C=C([S-])C(=O)n1c(C(N)=O)cc2ccc(CC)cc21 (3D coordinates assigned)
C=C([S-])C(=O)n1c(C(N)=O)cc2ccc(CC)cc21 (optimized conformer: 67.58115273130514 kcal/mol)

>  <smiles>  (37) 
C=C(S)C(=O)n1c(C(N)=O)cc2ccc(CC)cc21

>  <score_type>  (37) 
oracle

>  <origin>  (37) 
adg

>  <m_score__min__energy>  (37) 
-9.5999999999999996

>  <m_primary>  (37) 
energy

$$$$
37:0
     RDKit          3D

 35 36  0  0  0  0  0  0  0  0999 V2000
   -3.8780   22.7410  -28.4100 C   0  0  0  0  0  0  0  0  0  0  0  0
   -3.1650   23.2650  -29.5870 N   0  0  1  0  0  0  0  0  0  0  0  0
   -1.6910   23.1000  -29.4930 C   0  0  0  0  0  0  0  0  0  0  0  0
   -0.9430   24.3740  -29.1910 C   0  0  0  0  0  0  0  0  0  0  0  0
    0.2620   24.3340  -28.8300 O   0  0  0  0  0  0  0  0  0  0  0  0
   -1.5740   25.6040  -29.3310 O   0  0  0  0  0  0  0  0  0  0  0  0
   -3.7300   22.7010  -30.7960 C   0  0  0  0  0  0  0  0  0  0  0  0
   -3.0370   21.9630  -31.5480 O   0  0  0  0  0  0  0  0  0  0  0  0
   -5.1360   22.8340  -31.0580 N   0  0  0  0  0  0  0  0  0  0  0  0
   -5.9420   23.9040  -30.8180 C   0  0  0  0  0  0  0  0  0  0  0  0
   -5.4980   25.2410  -30.3730 C   0  0  0  0  0  0  0  0  0  0  0  0
   -4.1440   25.6530  -30.5390 N   0  0  0  0  0  0  0  0  0  0  0  0
   -6.3300   26.0430  -29.8750 O   0  0  0  0  0  0  0  0  0  0  0  0
   -7.2680   23.5910  -31.1140 C   0  0  0  0  0  0  0  0  0  0  0  0
   -7.2450   22.2850  -31.5500 C   0  0  0  0  0  0  0  0  0  0  0  0
   -8.2850   21.4600  -31.9720 C   0  0  0  0  0  0  0  0  0  0  0  0
   -7.9670   20.1430  -32.3470 C   0  0  0  0  0  0  0  0  0  0  0  0
   -6.6320   19.6740  -32.2780 C   0  0  0  0  0  0  0  0  0  0  0  0
   -6.3030   18.2750  -32.7090 C   0  0  0  0  0  0  0  0  0  0  0  0
   -7.4550   17.5100  -32.7090 F   0  0  0  0  0  0  0  0  0  0  0  0
   -5.6020   20.5440  -31.8610 C   0  0  0  0  0  0  0  0  0  0  0  0
   -5.9460   21.8530  -31.5060 C   0  0  0  0  0  0  0  0  0  0  0  0
   -3.3876   23.1014  -27.4937 H   0  0  0  0  0  0  0  0  0  0  0  0
   -4.9214   23.0888  -28.4285 H   0  0  0  0  0  0  0  0  0  0  0  0
   -3.8577   21.6413  -28.4285 H   0  0  0  0  0  0  0  0  0  0  0  0
   -3.3440   24.2970  -29.6100 H   0  0  0  0  0  0  0  0  0  0  0  0
   -1.4755   22.3760  -28.6934 H   0  0  0  0  0  0  0  0  0  0  0  0
   -1.3480   22.7595  -30.4812 H   0  0  0  0  0  0  0  0  0  0  0  0
   -3.4860   25.6730  -29.7290 H   0  0  0  0  0  0  0  0  0  0  0  0
   -8.1456   24.2474  -31.0194 H   0  0  0  0  0  0  0  0  0  0  0  0
   -9.3212   21.8270  -32.0106 H   0  0  0  0  0  0  0  0  0  0  0  0
   -8.7630   19.4697  -32.6976 H   0  0  0  0  0  0  0  0  0  0  0  0
   -5.8757   18.2944  -33.7224 H   0  0  0  0  0  0  0  0  0  0  0  0
   -5.5728   17.8385  -32.0116 H   0  0  0  0  0  0  0  0  0  0  0  0
   -4.5573   20.2024  -31.8163 H   0  0  0  0  0  0  0  0  0  0  0  0
  1  2  1  0
  2  3  1  0
  3  4  1  0
  4  5  2  0
  4  6  1  0
  2  7  1  0
  7  8  2  0
  7  9  1  0
  9 10  1  0
 10 11  1  0
 11 12  1  0
 11 13  2  0
 10 14  2  0
 14 15  1  0
 15 16  2  0
 16 17  1  0
 17 18  2  0
 18 19  1  0
 19 20  1  0
 18 21  1  0
 21 22  2  0
 22  9  1  0
 22 15  1  0
  1 23  1  0
  1 24  1  0
  1 25  1  0
  2 26  1  6
  3 27  1  0
  3 28  1  0
 12 29  1  0
 14 30  1  0
 16 31  1  0
 17 32  1  0
 19 33  1  0
 19 34  1  0
 21 35  1  0
M  CHG  3   2   1   6  -1  12  -1
M  END
>  <UniqueID>  (38) 
38

>  <SMILES>  (38) 
C[N@@H+](CC(=O)[O-])C(=O)n1c(C([NH-])=O)cc2ccc(CF)cc21

>  <Energy>  (38) 
79.5150868680436

>  <Genealogy>  (38) 
C[NH+](CC(=O)[O-])C(=O)n1c(C([NH-])=O)cc2ccc(CF)cc21 (protonated)
C[N@@H+](CC(=O)[O-])C(=O)n1c(C([NH-])=O)cc2ccc(CF)cc21 (chirality)
C[N@@H+](CC(=O)[O-])C(=O)n1c(C([NH-])=O)cc2ccc(CF)cc21 (3D coordinates assigned)
C[N@@H+](CC(=O)[O-])C(=O)n1c(C([NH-])=O)cc2ccc(CF)cc21 (optimized conformer: 79.5150868680436 kcal/mol)

>  <smiles>  (38) 
CN(CC(=O)O)C(=O)n1c(C(N)=O)cc2ccc(CF)cc21

>  <score_type>  (38) 
oracle

>  <origin>  (38) 
adg

>  <m_score__min__energy>  (38) 
-10.470000000000001

>  <m_primary>  (38) 
energy

$$$$
38:0
     RDKit          3D

 35 36  0  0  0  0  0  0  0  0999 V2000
   -4.2380   25.5260  -30.6310 N   0  0  0  0  0  0  0  0  0  0  0  0
   -5.5870   25.1510  -30.3460 C   0  0  0  0  0  0  0  0  0  0  0  0
   -6.3200   25.9460  -29.7020 O   0  0  0  0  0  0  0  0  0  0  0  0
   -6.1170   23.8370  -30.7790 C   0  0  0  0  0  0  0  0  0  0  0  0
   -7.4590   23.5880  -31.0680 C   0  0  0  0  0  0  0  0  0  0  0  0
   -7.4990   22.2890  -31.5230 C   0  0  0  0  0  0  0  0  0  0  0  0
   -8.5750   21.5270  -31.9650 C   0  0  0  0  0  0  0  0  0  0  0  0
   -8.3220   20.2070  -32.3780 C   0  0  0  0  0  0  0  0  0  0  0  0
   -7.0100   19.6690  -32.3260 C   0  0  0  0  0  0  0  0  0  0  0  0
   -6.7450   18.2670  -32.8130 C   0  0  0  0  0  0  0  0  0  0  0  0
   -5.6780   17.7060  -32.1330 F   0  0  0  0  0  0  0  0  0  0  0  0
   -7.8710   17.4920  -32.6010 F   0  0  0  0  0  0  0  0  0  0  0  0
   -6.4460   18.2670  -34.1640 F   0  0  0  0  0  0  0  0  0  0  0  0
   -5.9400   20.4860  -31.8950 C   0  0  0  0  0  0  0  0  0  0  0  0
   -6.2210   21.7980  -31.4990 C   0  0  0  0  0  0  0  0  0  0  0  0
   -5.3640   22.7320  -31.0410 N   0  0  0  0  0  0  0  0  0  0  0  0
   -3.9510   22.5600  -30.8470 C   0  0  0  0  0  0  0  0  0  0  0  0
   -3.1420   23.0950  -31.6530 O   0  0  0  0  0  0  0  0  0  0  0  0
   -3.4320   21.7360  -29.7460 C   0  0  0  0  0  0  0  0  0  0  0  0
   -3.4110   20.4800  -29.8540 O   0  0  0  0  0  0  0  0  0  0  0  0
   -2.9520   22.3560  -28.5880 O   0  0  0  0  0  0  0  0  0  0  0  0
   -3.5960   23.4790  -27.9950 C   0  0  0  0  0  0  0  0  0  0  0  0
   -2.6930   24.7040  -28.0860 C   0  0  0  0  0  0  0  0  0  0  0  0
   -2.2930   24.9230  -29.4120 O   0  0  0  0  0  0  0  0  0  0  0  0
   -3.6160   24.9250  -31.2160 H   0  0  0  0  0  0  0  0  0  0  0  0
   -3.8660   26.4400  -30.2890 H   0  0  0  0  0  0  0  0  0  0  0  0
   -8.3052   24.2819  -30.9562 H   0  0  0  0  0  0  0  0  0  0  0  0
   -9.5926   21.9440  -31.9907 H   0  0  0  0  0  0  0  0  0  0  0  0
   -9.1508   19.5841  -32.7457 H   0  0  0  0  0  0  0  0  0  0  0  0
   -4.9105   20.0992  -31.8715 H   0  0  0  0  0  0  0  0  0  0  0  0
   -4.5385   23.6807  -28.5251 H   0  0  0  0  0  0  0  0  0  0  0  0
   -3.8033   23.2602  -26.9371 H   0  0  0  0  0  0  0  0  0  0  0  0
   -3.2417   25.5857  -27.7233 H   0  0  0  0  0  0  0  0  0  0  0  0
   -1.7987   24.5329  -27.4688 H   0  0  0  0  0  0  0  0  0  0  0  0
   -2.3260   24.0420  -29.8700 H   0  0  0  0  0  0  0  0  0  0  0  0
  1  2  1  0
  2  3  2  0
  2  4  1  0
  4  5  2  0
  5  6  1  0
  6  7  2  0
  7  8  1  0
  8  9  2  0
  9 10  1  0
 10 11  1  0
 10 12  1  0
 10 13  1  0
  9 14  1  0
 14 15  2  0
 15 16  1  0
 16 17  1  0
 17 18  2  0
 17 19  1  0
 19 20  2  0
 19 21  1  0
 21 22  1  0
 22 23  1  0
 23 24  1  0
 16  4  1  0
 15  6  1  0
  1 25  1  0
  1 26  1  0
  5 27  1  0
  7 28  1  0
  8 29  1  0
 14 30  1  0
 22 31  1  0
 22 32  1  0
 23 33  1  0
 23 34  1  0
 24 35  1  0
M  END
>  <UniqueID>  (39) 
39

>  <SMILES>  (39) 
NC(=O)c1cc2ccc(C(F)(F)F)cc2n1C(=O)C(=O)OCCO

>  <Energy>  (39) 
70.25058381168266

>  <Genealogy>  (39) 
NC(=O)c1cc2ccc(C(F)(F)F)cc2n1C(=O)C(=O)OCCO (3D coordinates assigned)
NC(=O)c1cc2ccc(C(F)(F)F)cc2n1C(=O)C(=O)OCCO (optimized conformer: 70.25058381168266 kcal/mol)

>  <smiles>  (39) 
NC(=O)c1cc2ccc(C(F)(F)F)cc2n1C(=O)C(=O)OCCO

>  <score_type>  (39) 
oracle

>  <origin>  (39) 
adg

>  <m_score__min__energy>  (39) 
-8.1600000000000001

>  <m_primary>  (39) 
energy

$$$$
39:0
     RDKit          3D

 30 31  0  0  0  0  0  0  0  0999 V2000
   -6.4640   18.3110  -33.8420 C   0  0  0  0  0  0  0  0  0  0  0  0
   -5.6790   19.4700  -33.3060 C   0  0  0  0  0  0  0  0  0  0  0  0
   -4.2720   19.5110  -33.4710 C   0  0  0  0  0  0  0  0  0  0  0  0
   -3.5190   20.5710  -32.9340 C   0  0  0  0  0  0  0  0  0  0  0  0
   -4.1970   21.5630  -32.2330 C   0  0  0  0  0  0  0  0  0  0  0  0
   -3.7180   22.6860  -31.5950 C   0  0  0  0  0  0  0  0  0  0  0  0
   -4.8410   23.3090  -31.0490 C   0  0  0  0  0  0  0  0  0  0  0  0
   -4.8150   24.6080  -30.3390 C   0  0  0  0  0  0  0  0  0  0  0  0
   -5.4290   24.7560  -29.0580 N   0  0  0  0  0  0  0  0  0  0  0  0
   -4.2310   25.5960  -30.8560 O   0  0  0  0  0  0  0  0  0  0  0  0
   -5.9650   22.5940  -31.3370 N   0  0  0  0  0  0  0  0  0  0  0  0
   -7.3110   22.8610  -30.9190 C   0  0  0  0  0  0  0  0  0  0  0  0
   -7.5550   23.0820  -29.7030 O   0  0  0  0  0  0  0  0  0  0  0  0
   -8.4140   22.9840  -31.9280 C   0  0  0  0  0  0  0  0  0  0  0  0
   -9.4470   21.9260  -31.6930 C   0  0  0  0  0  0  0  0  0  0  0  0
   -9.4410   20.8980  -32.3520 O   0  0  0  0  0  0  0  0  0  0  0  0
   -5.5570   21.5330  -32.0640 C   0  0  0  0  0  0  0  0  0  0  0  0
   -6.3310   20.4880  -32.5760 C   0  0  0  0  0  0  0  0  0  0  0  0
   -6.8640   17.7204  -33.0046 H   0  0  0  0  0  0  0  0  0  0  0  0
   -7.2957   18.6847  -34.4574 H   0  0  0  0  0  0  0  0  0  0  0  0
   -5.8084   17.6773  -34.4574 H   0  0  0  0  0  0  0  0  0  0  0  0
   -3.7643   18.7069  -34.0238 H   0  0  0  0  0  0  0  0  0  0  0  0
   -2.4276   20.6141  -33.0644 H   0  0  0  0  0  0  0  0  0  0  0  0
   -2.6722   23.0207  -31.5298 H   0  0  0  0  0  0  0  0  0  0  0  0
   -5.3720   25.6690  -28.5540 H   0  0  0  0  0  0  0  0  0  0  0  0
   -5.9780   23.9820  -28.6230 H   0  0  0  0  0  0  0  0  0  0  0  0
   -8.8815   23.9755  -31.8368 H   0  0  0  0  0  0  0  0  0  0  0  0
   -7.9942   22.8593  -32.9371 H   0  0  0  0  0  0  0  0  0  0  0  0
  -10.2166   22.0758  -30.9214 H   0  0  0  0  0  0  0  0  0  0  0  0
   -7.4187   20.4592  -32.4147 H   0  0  0  0  0  0  0  0  0  0  0  0
  1  2  1  0
  2  3  2  0
  3  4  1  0
  4  5  2  0
  5  6  1  0
  6  7  2  0
  7  8  1  0
  8  9  1  0
  8 10  2  0
  7 11  1  0
 11 12  1  0
 12 13  2  0
 12 14  1  0
 14 15  1  0
 15 16  2  0
 11 17  1  0
 17 18  2  0
 18  2  1  0
 17  5  1  0
  1 19  1  0
  1 20  1  0
  1 21  1  0
  3 22  1  0
  4 23  1  0
  6 24  1  0
  9 25  1  0
  9 26  1  0
 14 27  1  0
 14 28  1  0
 15 29  1  0
 18 30  1  0
M  END
>  <UniqueID>  (40) 
40

>  <SMILES>  (40) 
Cc1ccc2cc(C(N)=O)n(C(=O)CC=O)c2c1

>  <Energy>  (40) 
66.54170385027616

>  <Genealogy>  (40) 
Cc1ccc2cc(C(N)=O)n(C(=O)CC=O)c2c1 (3D coordinates assigned)
Cc1ccc2cc(C(N)=O)n(C(=O)CC=O)c2c1 (optimized conformer: 66.54170385027616 kcal/mol)

>  <smiles>  (40) 
Cc1ccc2cc(C(N)=O)n(C(=O)CC=O)c2c1

>  <score_type>  (40) 
oracle

>  <origin>  (40) 
adg

>  <m_score__min__energy>  (40) 
-7.6699999999999999

>  <m_primary>  (40) 
energy

$$$$
40:0
     RDKit          3D

 58 60  0  0  0  0  0  0  0  0999 V2000
   -3.3520   24.9670  -26.4210 C   0  0  0  0  0  0  0  0  0  0  0  0
   -3.8810   23.9570  -27.4280 C   0  0  0  0  0  0  0  0  0  0  0  0
   -4.3230   24.6380  -28.5970 O   0  0  0  0  0  0  0  0  0  0  0  0
   -3.8120   24.3640  -29.8690 C   0  0  0  0  0  0  0  0  0  0  0  0
   -4.2850   24.9460  -30.8840 O   0  0  0  0  0  0  0  0  0  0  0  0
   -2.7320   23.4300  -30.0170 N   0  0  0  0  0  0  0  0  0  0  0  0
   -1.4180   23.6240  -29.7050 C   0  0  0  0  0  0  0  0  0  0  0  0
   -0.8590   24.7860  -28.9830 C   0  0  0  0  0  0  0  0  0  0  0  0
   -1.5640   26.0230  -28.9260 N   0  0  0  0  0  0  0  0  0  0  0  0
    0.2330   24.6690  -28.3670 O   0  0  0  0  0  0  0  0  0  0  0  0
   -0.6590   22.5210  -30.0890 C   0  0  0  0  0  0  0  0  0  0  0  0
   -1.5560   21.6370  -30.6430 C   0  0  0  0  0  0  0  0  0  0  0  0
   -1.3440   20.3820  -31.1970 C   0  0  0  0  0  0  0  0  0  0  0  0
   -2.4490   19.6970  -31.7250 C   0  0  0  0  0  0  0  0  0  0  0  0
   -3.7580   20.2700  -31.7090 C   0  0  0  0  0  0  0  0  0  0  0  0
   -4.9010   19.5510  -32.2700 N   0  0  0  0  0  0  0  0  0  0  0  0
   -5.7590   18.7650  -31.3610 C   0  0  0  0  0  0  0  0  0  0  0  0
   -6.8160   17.9270  -32.0790 C   0  0  0  0  0  0  0  0  0  0  0  0
   -7.4660   18.6720  -33.1630 N   0  0  0  0  0  0  0  0  0  0  0  0
   -8.2030   19.8140  -32.6650 C   0  0  0  0  0  0  0  0  0  0  0  0
   -9.3620   19.6740  -32.1860 O   0  0  0  0  0  0  0  0  0  0  0  0
   -7.6270   21.0890  -32.7830 O   0  0  0  0  0  0  0  0  0  0  0  0
   -7.8630   22.2100  -31.9190 C   0  0  0  0  0  0  0  0  0  0  0  0
   -9.3470   22.6230  -31.9580 C   0  0  0  0  0  0  0  0  0  0  0  0
   -7.5100   21.7660  -30.4920 C   0  0  0  0  0  0  0  0  0  0  0  0
   -6.9580   23.3940  -32.3100 C   0  0  0  0  0  0  0  0  0  0  0  0
   -6.4860   18.9970  -34.2110 C   0  0  0  0  0  0  0  0  0  0  0  0
   -5.2300   19.7380  -33.7020 C   0  0  0  0  0  0  0  0  0  0  0  0
   -3.9160   21.5590  -31.1260 C   0  0  0  0  0  0  0  0  0  0  0  0
   -2.7980   22.2070  -30.5900 C   0  0  0  0  0  0  0  0  0  0  0  0
   -3.5430   24.6023  -25.4010 H   0  0  0  0  0  0  0  0  0  0  0  0
   -2.2696   25.0978  -26.5669 H   0  0  0  0  0  0  0  0  0  0  0  0
   -3.8608   25.9313  -26.5669 H   0  0  0  0  0  0  0  0  0  0  0  0
   -3.0800   23.2521  -27.6953 H   0  0  0  0  0  0  0  0  0  0  0  0
   -4.7232   23.4051  -26.9852 H   0  0  0  0  0  0  0  0  0  0  0  0
   -2.6060   26.0500  -28.9730 H   0  0  0  0  0  0  0  0  0  0  0  0
    0.4265   22.3855  -29.9738 H   0  0  0  0  0  0  0  0  0  0  0  0
   -0.3383   19.9371  -31.2214 H   0  0  0  0  0  0  0  0  0  0  0  0
   -2.3045   18.6973  -32.1606 H   0  0  0  0  0  0  0  0  0  0  0  0
   -5.1174   18.0880  -30.7779 H   0  0  0  0  0  0  0  0  0  0  0  0
   -6.2979   19.4851  -30.7277 H   0  0  0  0  0  0  0  0  0  0  0  0
   -6.3335   17.0335  -32.5019 H   0  0  0  0  0  0  0  0  0  0  0  0
   -7.5881   17.6530  -31.3450 H   0  0  0  0  0  0  0  0  0  0  0  0
   -8.1710   18.0290  -33.5970 H   0  0  0  0  0  0  0  0  0  0  0  0
   -9.7254   22.7283  -30.9305 H   0  0  0  0  0  0  0  0  0  0  0  0
   -9.4467   23.5830  -32.4857 H   0  0  0  0  0  0  0  0  0  0  0  0
   -9.9283   21.8525  -32.4857 H   0  0  0  0  0  0  0  0  0  0  0  0
   -8.0255   22.4144  -29.7682 H   0  0  0  0  0  0  0  0  0  0  0  0
   -7.8289   20.7239  -30.3428 H   0  0  0  0  0  0  0  0  0  0  0  0
   -6.4228   21.8417  -30.3428 H   0  0  0  0  0  0  0  0  0  0  0  0
   -6.5828   23.8849  -31.3999 H   0  0  0  0  0  0  0  0  0  0  0  0
   -6.1090   23.0258  -32.9046 H   0  0  0  0  0  0  0  0  0  0  0  0
   -7.5361   24.1166  -32.9046 H   0  0  0  0  0  0  0  0  0  0  0  0
   -6.1634   18.0576  -34.6837 H   0  0  0  0  0  0  0  0  0  0  0  0
   -6.9902   19.6785  -34.9120 H   0  0  0  0  0  0  0  0  0  0  0  0
   -4.3706   19.3886  -34.2931 H   0  0  0  0  0  0  0  0  0  0  0  0
   -5.4507   20.8094  -33.8179 H   0  0  0  0  0  0  0  0  0  0  0  0
   -4.9050   22.0396  -31.0973 H   0  0  0  0  0  0  0  0  0  0  0  0
  1  2  1  0
  2  3  1  0
  3  4  1  0
  4  5  2  0
  4  6  1  0
  6  7  1  0
  7  8  1  0
  8  9  1  0
  8 10  2  0
  7 11  2  0
 11 12  1  0
 12 13  2  0
 13 14  1  0
 14 15  2  0
 15 16  1  0
 16 17  1  0
 17 18  1  0
 18 19  1  0
 19 20  1  0
 20 21  2  0
 20 22  1  0
 22 23  1  0
 23 24  1  0
 23 25  1  0
 23 26  1  0
 19 27  1  0
 27 28  1  0
 15 29  1  0
 29 30  2  0
 30  6  1  0
 30 12  1  0
 28 16  1  0
  1 31  1  0
  1 32  1  0
  1 33  1  0
  2 34  1  0
  2 35  1  0
  9 36  1  0
 11 37  1  0
 13 38  1  0
 14 39  1  0
 17 40  1  0
 17 41  1  0
 18 42  1  0
 18 43  1  0
 19 44  1  0
 24 45  1  0
 24 46  1  0
 24 47  1  0
 25 48  1  0
 25 49  1  0
 25 50  1  0
 26 51  1  0
 26 52  1  0
 26 53  1  0
 27 54  1  0
 27 55  1  0
 28 56  1  0
 28 57  1  0
 29 58  1  0
M  CHG  2   9  -1  19   1
M  END
>  <UniqueID>  (41) 
41

>  <SMILES>  (41) 
CCOC(=O)n1c(C([NH-])=O)cc2ccc(N3CC[NH+](C(=O)OC(C)(C)C)CC3)cc21

>  <Energy>  (41) 
101.42834463301739

>  <Genealogy>  (41) 
CCOC(=O)n1c(C([NH-])=O)cc2ccc(N3CC[NH+](C(=O)OC(C)(C)C)CC3)cc21 (protonated)
CCOC(=O)n1c(C([NH-])=O)cc2ccc(N3CC[NH+](C(=O)OC(C)(C)C)CC3)cc21 (3D coordinates assigned)
CCOC(=O)n1c(C([NH-])=O)cc2ccc(N3CC[NH+](C(=O)OC(C)(C)C)CC3)cc21 (nonaromatic ring conformer: 101.42834463301739 kcal/mol)

>  <smiles>  (41) 
CCOC(=O)n1c(C(N)=O)cc2ccc(N3CCN(C(=O)OC(C)(C)C)CC3)cc21

>  <score_type>  (41) 
oracle

>  <origin>  (41) 
adg

>  <m_score__min__energy>  (41) 
-11.15

>  <m_primary>  (41) 
energy

$$$$
41:0
     RDKit          3D

 42 43  0  0  0  0  0  0  0  0999 V2000
   -5.6630   17.6260  -34.7200 C   0  0  0  0  0  0  0  0  0  0  0  0
   -6.0610   18.5320  -34.0320 C   0  0  0  0  0  0  0  0  0  0  0  0
   -6.5370   19.6120  -33.2090 C   0  0  0  0  0  0  0  0  0  0  0  0
   -7.9270   19.8180  -33.0480 C   0  0  0  0  0  0  0  0  0  0  0  0
   -8.4030   20.8700  -32.2450 C   0  0  0  0  0  0  0  0  0  0  0  0
   -7.4650   21.6840  -31.6150 C   0  0  0  0  0  0  0  0  0  0  0  0
   -7.6420   22.8080  -30.8400 C   0  0  0  0  0  0  0  0  0  0  0  0
   -6.3580   23.2520  -30.5330 C   0  0  0  0  0  0  0  0  0  0  0  0
   -6.0780   24.4790  -29.7560 C   0  0  0  0  0  0  0  0  0  0  0  0
   -4.7850   24.7430  -29.2080 N   0  0  0  0  0  0  0  0  0  0  0  0
   -7.0110   25.2980  -29.5430 O   0  0  0  0  0  0  0  0  0  0  0  0
   -5.4260   22.4280  -31.0860 N   0  0  0  0  0  0  0  0  0  0  0  0
   -4.0070   22.6280  -31.1490 C   0  0  0  0  0  0  0  0  0  0  0  0
   -3.5590   23.7960  -31.3040 O   0  0  0  0  0  0  0  0  0  0  0  0
   -3.1000   21.5150  -31.0350 N   0  0  0  0  0  0  0  0  0  0  0  0
   -2.7000   20.7900  -32.2430 C   0  0  0  0  0  0  0  0  0  0  0  0
   -2.5270   21.1410  -29.7350 C   0  0  0  0  0  0  0  0  0  0  0  0
   -1.9250   22.3280  -29.0520 C   0  0  0  0  0  0  0  0  0  0  0  0
   -0.7370   22.6660  -29.3090 O   0  0  0  0  0  0  0  0  0  0  0  0
   -2.7020   23.0740  -28.1620 O   0  0  0  0  0  0  0  0  0  0  0  0
   -2.1440   24.0430  -27.2810 C   0  0  0  0  0  0  0  0  0  0  0  0
   -1.7380   25.2830  -28.0700 C   0  0  0  0  0  0  0  0  0  0  0  0
   -2.3280   25.2730  -29.3400 O   0  0  0  0  0  0  0  0  0  0  0  0
   -6.1170   21.4830  -31.7550 C   0  0  0  0  0  0  0  0  0  0  0  0
   -5.6140   20.4610  -32.5670 C   0  0  0  0  0  0  0  0  0  0  0  0
   -5.2998   16.7991  -35.3479 H   0  0  0  0  0  0  0  0  0  0  0  0
   -8.6404   19.1511  -33.5541 H   0  0  0  0  0  0  0  0  0  0  0  0
   -9.4817   21.0442  -32.1186 H   0  0  0  0  0  0  0  0  0  0  0  0
   -8.5955   23.2598  -30.5291 H   0  0  0  0  0  0  0  0  0  0  0  0
   -4.6000   25.6500  -28.7240 H   0  0  0  0  0  0  0  0  0  0  0  0
   -4.0440   24.0120  -29.1800 H   0  0  0  0  0  0  0  0  0  0  0  0
   -2.1866   19.8595  -31.9591 H   0  0  0  0  0  0  0  0  0  0  0  0
   -3.5929   20.5491  -32.8386 H   0  0  0  0  0  0  0  0  0  0  0  0
   -2.0201   21.4169  -32.8386 H   0  0  0  0  0  0  0  0  0  0  0  0
   -3.3215   20.7245  -29.0983 H   0  0  0  0  0  0  0  0  0  0  0  0
   -1.7360   20.3951  -29.9026 H   0  0  0  0  0  0  0  0  0  0  0  0
   -2.8910   24.3206  -26.5227 H   0  0  0  0  0  0  0  0  0  0  0  0
   -1.2568   23.6186  -26.7882 H   0  0  0  0  0  0  0  0  0  0  0  0
   -2.0657   26.1812  -27.5260 H   0  0  0  0  0  0  0  0  0  0  0  0
   -0.6442   25.2873  -28.1866 H   0  0  0  0  0  0  0  0  0  0  0  0
   -2.0960   24.4010  -29.7520 H   0  0  0  0  0  0  0  0  0  0  0  0
   -4.5307   20.3244  -32.7002 H   0  0  0  0  0  0  0  0  0  0  0  0
  1  2  3  0
  2  3  1  0
  3  4  2  0
  4  5  1  0
  5  6  2  0
  6  7  1  0
  7  8  2  0
  8  9  1  0
  9 10  1  0
  9 11  2  0
  8 12  1  0
 12 13  1  0
 13 14  2  0
 13 15  1  0
 15 16  1  0
 15 17  1  0
 17 18  1  0
 18 19  2  0
 18 20  1  0
 20 21  1  0
 21 22  1  0
 22 23  1  0
 12 24  1  0
 24 25  2  0
 25  3  1  0
 24  6  1  0
  1 26  1  0
  4 27  1  0
  5 28  1  0
  7 29  1  0
 10 30  1  0
 10 31  1  0
 16 32  1  0
 16 33  1  0
 16 34  1  0
 17 35  1  0
 17 36  1  0
 21 37  1  0
 21 38  1  0
 22 39  1  0
 22 40  1  0
 23 41  1  0
 25 42  1  0
M  END
>  <UniqueID>  (42) 
42

>  <SMILES>  (42) 
C#Cc1ccc2cc(C(N)=O)n(C(=O)N(C)CC(=O)OCCO)c2c1

>  <Energy>  (42) 
70.30143009590051

>  <Genealogy>  (42) 
C#Cc1ccc2cc(C(N)=O)n(C(=O)N(C)CC(=O)OCCO)c2c1 (3D coordinates assigned)
C#Cc1ccc2cc(C(N)=O)n(C(=O)N(C)CC(=O)OCCO)c2c1 (optimized conformer: 70.30143009590051 kcal/mol)

>  <smiles>  (42) 
C#Cc1ccc2cc(C(N)=O)n(C(=O)N(C)CC(=O)OCCO)c2c1

>  <score_type>  (42) 
oracle

>  <origin>  (42) 
adg

>  <m_score__min__energy>  (42) 
-8.8499999999999996

>  <m_primary>  (42) 
energy

$$$$
42:0
     RDKit          3D

 38 40  0  0  0  0  0  0  0  0999 V2000
   -8.8490   23.4210  -32.2820 C   0  0  0  0  0  0  0  0  0  0  0  0
   -8.4070   22.5180  -31.4090 C   0  0  0  0  0  0  0  0  0  0  0  0
   -7.2320   22.7550  -30.5490 C   0  0  0  0  0  0  0  0  0  0  0  0
   -7.3810   23.1550  -29.3620 O   0  0  0  0  0  0  0  0  0  0  0  0
   -5.9070   22.5450  -31.0640 N   0  0  0  0  0  0  0  0  0  0  0  0
   -4.8270   23.3630  -30.9190 C   0  0  0  0  0  0  0  0  0  0  0  0
   -4.8480   24.7030  -30.2890 C   0  0  0  0  0  0  0  0  0  0  0  0
   -5.5130   24.9170  -29.0410 N   0  0  0  0  0  0  0  0  0  0  0  0
   -4.2610   25.6710  -30.8410 O   0  0  0  0  0  0  0  0  0  0  0  0
   -3.7030   22.7910  -31.5140 C   0  0  0  0  0  0  0  0  0  0  0  0
   -4.1340   21.5870  -32.0220 C   0  0  0  0  0  0  0  0  0  0  0  0
   -3.4310   20.6020  -32.7020 C   0  0  0  0  0  0  0  0  0  0  0  0
   -4.1210   19.4420  -33.0880 C   0  0  0  0  0  0  0  0  0  0  0  0
   -5.5070   19.2640  -32.7830 C   0  0  0  0  0  0  0  0  0  0  0  0
   -6.2780   17.9930  -33.1850 C   0  0  0  0  0  0  0  0  0  0  0  0
   -7.6910   17.7590  -32.5760 C   0  0  0  0  0  0  0  0  0  0  0  0
   -8.6210   18.8680  -32.7980 N   0  0  0  0  0  0  0  0  0  0  0  0
   -6.1120   17.5440  -34.6400 C   0  0  0  0  0  0  0  0  0  0  0  0
   -5.4480   16.7490  -33.5160 C   0  0  0  0  0  0  0  0  0  0  0  0
   -6.1750   20.3060  -32.0840 C   0  0  0  0  0  0  0  0  0  0  0  0
   -5.4640   21.4600  -31.7360 C   0  0  0  0  0  0  0  0  0  0  0  0
   -9.7298   23.2005  -32.9030 H   0  0  0  0  0  0  0  0  0  0  0  0
   -8.3334   24.3875  -32.3823 H   0  0  0  0  0  0  0  0  0  0  0  0
   -8.9384   21.5584  -31.3258 H   0  0  0  0  0  0  0  0  0  0  0  0
   -6.0660   24.1610  -28.5820 H   0  0  0  0  0  0  0  0  0  0  0  0
   -5.4880   25.8590  -28.5910 H   0  0  0  0  0  0  0  0  0  0  0  0
   -2.6883   23.2124  -31.5661 H   0  0  0  0  0  0  0  0  0  0  0  0
   -2.3626   20.7270  -32.9321 H   0  0  0  0  0  0  0  0  0  0  0  0
   -3.5846   18.6536  -33.6364 H   0  0  0  0  0  0  0  0  0  0  0  0
   -8.1181   16.8522  -33.0290 H   0  0  0  0  0  0  0  0  0  0  0  0
   -7.5594   17.6640  -31.4880 H   0  0  0  0  0  0  0  0  0  0  0  0
   -8.3970   19.2940  -33.7270 H   0  0  0  0  0  0  0  0  0  0  0  0
   -8.4240   19.6120  -32.0900 H   0  0  0  0  0  0  0  0  0  0  0  0
   -6.9670   17.1170  -35.1846 H   0  0  0  0  0  0  0  0  0  0  0  0
   -5.7609   18.0227  -35.5661 H   0  0  0  0  0  0  0  0  0  0  0  0
   -5.8253   15.7500  -33.2520 H   0  0  0  0  0  0  0  0  0  0  0  0
   -4.4214   16.4190  -33.2987 H   0  0  0  0  0  0  0  0  0  0  0  0
   -7.2381   20.2064  -31.8198 H   0  0  0  0  0  0  0  0  0  0  0  0
  1  2  2  0
  2  3  1  0
  3  4  2  0
  3  5  1  0
  5  6  1  0
  6  7  1  0
  7  8  1  0
  7  9  2  0
  6 10  2  0
 10 11  1  0
 11 12  2  0
 12 13  1  0
 13 14  2  0
 14 15  1  0
 15 16  1  0
 16 17  1  0
 15 18  1  0
 18 19  1  0
 14 20  1  0
 20 21  2  0
 21  5  1  0
 21 11  1  0
 19 15  1  0
  1 22  1  0
  1 23  1  0
  2 24  1  0
  8 25  1  0
  8 26  1  0
 10 27  1  0
 12 28  1  0
 13 29  1  0
 16 30  1  0
 16 31  1  0
 17 32  1  0
 17 33  1  0
 18 34  1  0
 18 35  1  0
 19 36  1  0
 19 37  1  0
 20 38  1  0
M  END
>  <UniqueID>  (43) 
43

>  <SMILES>  (43) 
C=CC(=O)n1c(C(N)=O)cc2ccc(C3(CN)CC3)cc21

>  <Energy>  (43) 
351.6168936073511

>  <Genealogy>  (43) 
C=CC(=O)n1c(C(N)=O)cc2ccc(C3(CN)CC3)cc21 (3D coordinates assigned)
C=CC(=O)n1c(C(N)=O)cc2ccc(C3(CN)CC3)cc21 (nonaromatic ring conformer: 351.6168936073511 kcal/mol)

>  <smiles>  (43) 
C=CC(=O)n1c(C(N)=O)cc2ccc(C3(CN)CC3)cc21

>  <score_type>  (43) 
oracle

>  <origin>  (43) 
adg

>  <m_score__min__energy>  (43) 
-9.2300000000000004

>  <m_primary>  (43) 
energy

$$$$
43:0
     RDKit          3D

 45 46  0  0  0  0  0  0  0  0999 V2000
   -1.0020   22.7060  -26.6280 C   0  0  0  0  0  0  0  0  0  0  0  0
   -0.8950   23.7260  -27.6770 N   0  0  0  0  0  0  0  0  0  0  0  0
    0.4220   24.1090  -28.1980 C   0  0  0  0  0  0  0  0  0  0  0  0
   -2.0720   24.3670  -28.2130 C   0  0  0  0  0  0  0  0  0  0  0  0
   -1.9480   25.3640  -28.9780 O   0  0  0  0  0  0  0  0  0  0  0  0
   -3.4620   23.8720  -27.9090 C   0  0  0  0  0  0  0  0  0  0  0  0
   -3.6130   22.4990  -28.2630 O   0  0  0  0  0  0  0  0  0  0  0  0
   -3.2070   21.9690  -29.4920 C   0  0  0  0  0  0  0  0  0  0  0  0
   -2.4640   20.9500  -29.5380 O   0  0  0  0  0  0  0  0  0  0  0  0
   -3.6460   22.6130  -30.7360 C   0  0  0  0  0  0  0  0  0  0  0  0
   -2.7890   22.9880  -31.5780 O   0  0  0  0  0  0  0  0  0  0  0  0
   -5.0440   22.7970  -31.0120 N   0  0  0  0  0  0  0  0  0  0  0  0
   -5.7510   23.9600  -31.0030 C   0  0  0  0  0  0  0  0  0  0  0  0
   -5.2420   25.2820  -30.5790 C   0  0  0  0  0  0  0  0  0  0  0  0
   -3.8940   25.6660  -30.8330 N   0  0  0  0  0  0  0  0  0  0  0  0
   -6.0010   26.0730  -29.9590 O   0  0  0  0  0  0  0  0  0  0  0  0
   -7.0650   23.7310  -31.4110 C   0  0  0  0  0  0  0  0  0  0  0  0
   -7.1350   22.3810  -31.6750 C   0  0  0  0  0  0  0  0  0  0  0  0
   -8.1970   21.6120  -32.1340 C   0  0  0  0  0  0  0  0  0  0  0  0
   -7.9740   20.2420  -32.3550 C   0  0  0  0  0  0  0  0  0  0  0  0
   -6.6950   19.6580  -32.1230 C   0  0  0  0  0  0  0  0  0  0  0  0
   -6.4690   18.2440  -32.3630 N   0  0  0  0  0  0  0  0  0  0  0  0
   -6.5120   17.7050  -33.7290 C   0  0  0  0  0  0  0  0  0  0  0  0
   -6.1920   17.3320  -31.2480 C   0  0  0  0  0  0  0  0  0  0  0  0
   -5.6420   20.4880  -31.6570 C   0  0  0  0  0  0  0  0  0  0  0  0
   -5.9030   21.8420  -31.4290 C   0  0  0  0  0  0  0  0  0  0  0  0
   -0.9514   23.1886  -25.6408 H   0  0  0  0  0  0  0  0  0  0  0  0
   -1.9607   22.1760  -26.7283 H   0  0  0  0  0  0  0  0  0  0  0  0
   -0.1742   21.9886  -26.7283 H   0  0  0  0  0  0  0  0  0  0  0  0
    1.1048   24.3076  -27.3587 H   0  0  0  0  0  0  0  0  0  0  0  0
    0.8251   23.2909  -28.8130 H   0  0  0  0  0  0  0  0  0  0  0  0
    0.3235   25.0157  -28.8130 H   0  0  0  0  0  0  0  0  0  0  0  0
   -3.6559   23.9877  -26.8324 H   0  0  0  0  0  0  0  0  0  0  0  0
   -4.1775   24.4631  -28.4995 H   0  0  0  0  0  0  0  0  0  0  0  0
   -3.1140   24.9740  -30.7580 H   0  0  0  0  0  0  0  0  0  0  0  0
   -7.8735   24.4712  -31.5025 H   0  0  0  0  0  0  0  0  0  0  0  0
   -9.1835   22.0621  -32.3191 H   0  0  0  0  0  0  0  0  0  0  0  0
   -8.8003   19.6102  -32.7129 H   0  0  0  0  0  0  0  0  0  0  0  0
   -6.5994   16.6092  -33.6882 H   0  0  0  0  0  0  0  0  0  0  0  0
   -7.3797   18.1225  -34.2608 H   0  0  0  0  0  0  0  0  0  0  0  0
   -5.5891   17.9797  -34.2608 H   0  0  0  0  0  0  0  0  0  0  0  0
   -6.3519   17.8583  -30.2954 H   0  0  0  0  0  0  0  0  0  0  0  0
   -6.8676   16.4659  -31.3062 H   0  0  0  0  0  0  0  0  0  0  0  0
   -5.1488   16.9879  -31.3062 H   0  0  0  0  0  0  0  0  0  0  0  0
   -4.6390   20.0732  -31.4786 H   0  0  0  0  0  0  0  0  0  0  0  0
  1  2  1  0
  2  3  1  0
  2  4  1  0
  4  5  2  0
  4  6  1  0
  6  7  1  0
  7  8  1  0
  8  9  2  0
  8 10  1  0
 10 11  2  0
 10 12  1  0
 12 13  1  0
 13 14  1  0
 14 15  1  0
 14 16  2  0
 13 17  2  0
 17 18  1  0
 18 19  2  0
 19 20  1  0
 20 21  2  0
 21 22  1  0
 22 23  1  0
 22 24  1  0
 21 25  1  0
 25 26  2  0
 26 12  1  0
 26 18  1  0
  1 27  1  0
  1 28  1  0
  1 29  1  0
  3 30  1  0
  3 31  1  0
  3 32  1  0
  6 33  1  0
  6 34  1  0
 15 35  1  0
 17 36  1  0
 19 37  1  0
 20 38  1  0
 23 39  1  0
 23 40  1  0
 23 41  1  0
 24 42  1  0
 24 43  1  0
 24 44  1  0
 25 45  1  0
M  CHG  1  15  -1
M  END
>  <UniqueID>  (44) 
44

>  <SMILES>  (44) 
CN(C)C(=O)COC(=O)C(=O)n1c(C([NH-])=O)cc2ccc(N(C)C)cc21

>  <Energy>  (44) 
79.01324860582261

>  <Genealogy>  (44) 
CN(C)C(=O)COC(=O)C(=O)n1c(C([NH-])=O)cc2ccc(N(C)C)cc21 (protonated)
CN(C)C(=O)COC(=O)C(=O)n1c(C([NH-])=O)cc2ccc(N(C)C)cc21 (3D coordinates assigned)
CN(C)C(=O)COC(=O)C(=O)n1c(C([NH-])=O)cc2ccc(N(C)C)cc21 (optimized conformer: 79.01324860582261 kcal/mol)

>  <smiles>  (44) 
CN(C)C(=O)COC(=O)C(=O)n1c(C(N)=O)cc2ccc(N(C)C)cc21

>  <score_type>  (44) 
oracle

>  <origin>  (44) 
adg

>  <m_score__min__energy>  (44) 
-10.41

>  <m_primary>  (44) 
energy

$$$$
44:0
     RDKit          3D

 26 27  0  0  0  0  0  0  0  0999 V2000
   -3.8680   25.3200  -30.6090 N   0  0  0  0  0  0  0  0  0  0  0  0
   -4.1510   23.9450  -30.8540 C   0  0  0  0  0  0  0  0  0  0  0  0
   -5.2930   23.6160  -31.2710 O   0  0  0  0  0  0  0  0  0  0  0  0
   -3.1380   22.8990  -30.5960 C   0  0  0  0  0  0  0  0  0  0  0  0
   -2.9500   21.7870  -31.4140 C   0  0  0  0  0  0  0  0  0  0  0  0
   -1.9580   21.0490  -30.8070 C   0  0  0  0  0  0  0  0  0  0  0  0
   -1.3590   19.8560  -31.2010 C   0  0  0  0  0  0  0  0  0  0  0  0
   -0.3310   19.3370  -30.3940 C   0  0  0  0  0  0  0  0  0  0  0  0
    0.0820   20.0210  -29.2230 C   0  0  0  0  0  0  0  0  0  0  0  0
    1.1930   19.4740  -28.3730 C   0  0  0  0  0  0  0  0  0  0  0  0
    1.7570   20.4940  -27.6290 F   0  0  0  0  0  0  0  0  0  0  0  0
    0.6950   18.5080  -27.5180 F   0  0  0  0  0  0  0  0  0  0  0  0
   -0.5460   21.2330  -28.8590 C   0  0  0  0  0  0  0  0  0  0  0  0
   -1.5800   21.7130  -29.6700 C   0  0  0  0  0  0  0  0  0  0  0  0
   -2.2970   22.8480  -29.5240 N   0  0  0  0  0  0  0  0  0  0  0  0
   -2.1270   23.8340  -28.4950 C   0  0  0  0  0  0  0  0  0  0  0  0
   -2.8320   23.7750  -27.4520 O   0  0  0  0  0  0  0  0  0  0  0  0
   -1.1380   24.9120  -28.6390 C   0  0  0  0  0  0  0  0  0  0  0  0
   -1.5030   26.0730  -28.9650 O   0  0  0  0  0  0  0  0  0  0  0  0
    0.2110   24.6510  -28.4310 O   0  0  0  0  0  0  0  0  0  0  0  0
   -3.4980   25.6350  -29.6860 H   0  0  0  0  0  0  0  0  0  0  0  0
   -3.4814   21.5488  -32.3472 H   0  0  0  0  0  0  0  0  0  0  0  0
   -1.6798   19.3353  -32.1153 H   0  0  0  0  0  0  0  0  0  0  0  0
    0.1571   18.3918  -30.6739 H   0  0  0  0  0  0  0  0  0  0  0  0
    1.9580   19.0282  -29.0258 H   0  0  0  0  0  0  0  0  0  0  0  0
   -0.2302   21.7849  -27.9614 H   0  0  0  0  0  0  0  0  0  0  0  0
  1  2  1  0
  2  3  2  0
  2  4  1  0
  4  5  2  0
  5  6  1  0
  6  7  2  0
  7  8  1  0
  8  9  2  0
  9 10  1  0
 10 11  1  0
 10 12  1  0
  9 13  1  0
 13 14  2  0
 14 15  1  0
 15 16  1  0
 16 17  2  0
 16 18  1  0
 18 19  2  0
 18 20  1  0
 15  4  1  0
 14  6  1  0
  1 21  1  0
  5 22  1  0
  7 23  1  0
  8 24  1  0
 10 25  1  0
 13 26  1  0
M  CHG  2   1  -1  20  -1
M  END
>  <UniqueID>  (45) 
45

>  <SMILES>  (45) 
[NH-]C(=O)c1cc2ccc(C(F)F)cc2n1C(=O)C(=O)[O-]

>  <Energy>  (45) 
65.6796230299768

>  <Genealogy>  (45) 
[NH-]C(=O)c1cc2ccc(C(F)F)cc2n1C(=O)C(=O)[O-] (protonated)
[NH-]C(=O)c1cc2ccc(C(F)F)cc2n1C(=O)C(=O)[O-] (3D coordinates assigned)
[NH-]C(=O)c1cc2ccc(C(F)F)cc2n1C(=O)C(=O)[O-] (optimized conformer: 65.6796230299768 kcal/mol)

>  <smiles>  (45) 
NC(=O)c1cc2ccc(C(F)F)cc2n1C(=O)C(=O)O

>  <score_type>  (45) 
oracle

>  <origin>  (45) 
adg

>  <m_score__min__energy>  (45) 
-9.5600000000000005

>  <m_primary>  (45) 
energy

$$$$
45:0
     RDKit          3D

 41 42  0  0  0  0  0  0  0  0999 V2000
   -4.0750   14.9720  -32.8030 C   0  0  0  0  0  0  0  0  0  0  0  0
   -5.4490   15.0200  -33.1700 O   0  0  0  0  0  0  0  0  0  0  0  0
   -6.0670   16.1910  -33.6170 C   0  0  0  0  0  0  0  0  0  0  0  0
   -6.8670   16.1630  -34.5930 O   0  0  0  0  0  0  0  0  0  0  0  0
   -5.7950   17.4850  -32.9040 C   0  0  2  0  0  0  0  0  0  0  0  0
   -6.1910   17.3580  -31.4310 C   0  0  0  0  0  0  0  0  0  0  0  0
   -6.5320   18.5830  -33.5450 N   0  0  0  0  0  0  0  0  0  0  0  0
   -6.7860   19.8590  -32.9230 C   0  0  0  0  0  0  0  0  0  0  0  0
   -8.1050   20.3660  -32.7620 C   0  0  0  0  0  0  0  0  0  0  0  0
   -8.3270   21.6060  -32.1400 C   0  0  0  0  0  0  0  0  0  0  0  0
   -7.2220   22.3240  -31.6980 C   0  0  0  0  0  0  0  0  0  0  0  0
   -7.1540   23.5340  -31.0470 C   0  0  0  0  0  0  0  0  0  0  0  0
   -5.7960   23.7660  -30.8390 C   0  0  0  0  0  0  0  0  0  0  0  0
   -5.2650   25.0090  -30.2390 C   0  0  0  0  0  0  0  0  0  0  0  0
   -4.1560   25.6700  -30.8450 N   0  0  0  0  0  0  0  0  0  0  0  0
   -5.7560   25.4740  -29.1780 O   0  0  0  0  0  0  0  0  0  0  0  0
   -5.0540   22.7360  -31.3350 N   0  0  0  0  0  0  0  0  0  0  0  0
   -3.6300   22.5630  -31.2730 C   0  0  0  0  0  0  0  0  0  0  0  0
   -3.0970   21.5370  -31.7770 O   0  0  0  0  0  0  0  0  0  0  0  0
   -2.8370   23.5480  -30.6730 O   0  0  0  0  0  0  0  0  0  0  0  0
   -2.1300   23.3480  -29.4510 C   0  0  0  0  0  0  0  0  0  0  0  0
   -1.1790   24.4750  -29.2110 C   0  0  0  0  0  0  0  0  0  0  0  0
   -1.5670   25.6690  -29.3230 O   0  0  0  0  0  0  0  0  0  0  0  0
    0.1450   24.2100  -28.8910 O   0  0  0  0  0  0  0  0  0  0  0  0
   -5.9420   21.8630  -31.8610 C   0  0  0  0  0  0  0  0  0  0  0  0
   -5.6920   20.6230  -32.4600 C   0  0  0  0  0  0  0  0  0  0  0  0
   -3.9883   14.9690  -31.7064 H   0  0  0  0  0  0  0  0  0  0  0  0
   -3.6187   14.0574  -33.2094 H   0  0  0  0  0  0  0  0  0  0  0  0
   -3.5559   15.8526  -33.2094 H   0  0  0  0  0  0  0  0  0  0  0  0
   -4.7199   17.7102  -32.9629 H   0  0  0  0  0  0  0  0  0  0  0  0
   -5.3355   17.6324  -30.7963 H   0  0  0  0  0  0  0  0  0  0  0  0
   -7.0353   18.0304  -31.2190 H   0  0  0  0  0  0  0  0  0  0  0  0
   -6.4868   16.3199  -31.2190 H   0  0  0  0  0  0  0  0  0  0  0  0
   -6.8890   18.4380  -34.5170 H   0  0  0  0  0  0  0  0  0  0  0  0
   -8.9611   19.7806  -33.1287 H   0  0  0  0  0  0  0  0  0  0  0  0
   -9.3463   21.9975  -32.0066 H   0  0  0  0  0  0  0  0  0  0  0  0
   -7.9936   24.1810  -30.7531 H   0  0  0  0  0  0  0  0  0  0  0  0
   -3.1840   25.3090  -30.7210 H   0  0  0  0  0  0  0  0  0  0  0  0
   -2.8490   23.2969  -28.6201 H   0  0  0  0  0  0  0  0  0  0  0  0
   -1.5617   22.4084  -29.5164 H   0  0  0  0  0  0  0  0  0  0  0  0
   -4.6627   20.2504  -32.5682 H   0  0  0  0  0  0  0  0  0  0  0  0
  1  2  1  0
  2  3  1  0
  3  4  2  0
  3  5  1  0
  5  6  1  0
  5  7  1  0
  7  8  1  0
  8  9  2  0
  9 10  1  0
 10 11  2  0
 11 12  1  0
 12 13  2  0
 13 14  1  0
 14 15  1  0
 14 16  2  0
 13 17  1  0
 17 18  1  0
 18 19  2  0
 18 20  1  0
 20 21  1  0
 21 22  1  0
 22 23  2  0
 22 24  1  0
 17 25  1  0
 25 26  2  0
 26  8  1  0
 25 11  1  0
  1 27  1  0
  1 28  1  0
  1 29  1  0
  5 30  1  1
  6 31  1  0
  6 32  1  0
  6 33  1  0
  7 34  1  0
  9 35  1  0
 10 36  1  0
 12 37  1  0
 15 38  1  0
 21 39  1  0
 21 40  1  0
 26 41  1  0
M  CHG  2  15  -1  24  -1
M  END
>  <UniqueID>  (46) 
46

>  <SMILES>  (46) 
COC(=O)[C@H](C)Nc1ccc2cc(C([NH-])=O)n(C(=O)OCC(=O)[O-])c2c1

>  <Energy>  (46) 
72.68608886586954

>  <Genealogy>  (46) 
COC(=O)C(C)Nc1ccc2cc(C([NH-])=O)n(C(=O)OCC(=O)[O-])c2c1 (protonated)
COC(=O)[C@H](C)Nc1ccc2cc(C([NH-])=O)n(C(=O)OCC(=O)[O-])c2c1 (chirality)
COC(=O)[C@H](C)Nc1ccc2cc(C([NH-])=O)n(C(=O)OCC(=O)[O-])c2c1 (3D coordinates assigned)
COC(=O)[C@H](C)Nc1ccc2cc(C([NH-])=O)n(C(=O)OCC(=O)[O-])c2c1 (optimized conformer: 72.68608886586954 kcal/mol)

>  <smiles>  (46) 
COC(=O)C(C)Nc1ccc2cc(C(N)=O)n(C(=O)OCC(=O)O)c2c1

>  <score_type>  (46) 
oracle

>  <origin>  (46) 
adg

>  <m_score__min__energy>  (46) 
-12.02

>  <m_primary>  (46) 
energy

$$$$
46:0
     RDKit          3D

 46 47  0  0  0  0  0  0  0  0999 V2000
   -3.7040   22.1700  -28.5320 C   0  0  0  0  0  0  0  0  0  0  0  0
   -3.2740   22.0160  -29.7890 C   0  0  0  0  0  0  0  0  0  0  0  0
   -2.1000   21.1710  -30.0340 C   0  0  0  0  0  0  0  0  0  0  0  0
   -2.2200   20.1320  -30.7360 O   0  0  0  0  0  0  0  0  0  0  0  0
   -0.8660   21.5140  -29.4760 O   0  0  0  0  0  0  0  0  0  0  0  0
   -0.5060   22.8670  -29.2150 C   0  0  0  0  0  0  0  0  0  0  0  0
   -0.0540   23.0080  -27.7900 C   0  0  0  0  0  0  0  0  0  0  0  0
    1.0170   22.4450  -27.4360 O   0  0  0  0  0  0  0  0  0  0  0  0
   -0.8230   23.7170  -26.8060 N   0  0  0  0  0  0  0  0  0  0  0  0
   -1.8640   24.7080  -27.0780 C   0  0  1  0  0  0  0  0  0  0  0  0
   -1.9630   25.6650  -25.8900 C   0  0  0  0  0  0  0  0  0  0  0  0
   -1.5420   25.4870  -28.3200 C   0  0  0  0  0  0  0  0  0  0  0  0
   -0.5890   26.3100  -28.3230 O   0  0  0  0  0  0  0  0  0  0  0  0
   -2.2560   25.2630  -29.4890 O   0  0  0  0  0  0  0  0  0  0  0  0
   -4.0090   22.6070  -30.9290 C   0  0  0  0  0  0  0  0  0  0  0  0
   -3.3930   22.9890  -31.9600 O   0  0  0  0  0  0  0  0  0  0  0  0
   -5.4290   22.7800  -30.8650 N   0  0  0  0  0  0  0  0  0  0  0  0
   -6.1040   23.9500  -30.7080 C   0  0  0  0  0  0  0  0  0  0  0  0
   -5.4990   25.2590  -30.3750 C   0  0  0  0  0  0  0  0  0  0  0  0
   -4.2020   25.6240  -30.8450 N   0  0  0  0  0  0  0  0  0  0  0  0
   -6.1340   26.0640  -29.6440 O   0  0  0  0  0  0  0  0  0  0  0  0
   -7.4550   23.7760  -31.0060 C   0  0  0  0  0  0  0  0  0  0  0  0
   -7.5800   22.4550  -31.3730 C   0  0  0  0  0  0  0  0  0  0  0  0
   -8.6810   21.7620  -31.8670 C   0  0  0  0  0  0  0  0  0  0  0  0
   -8.4970   20.4230  -32.2550 C   0  0  0  0  0  0  0  0  0  0  0  0
   -7.2280   19.7950  -32.1170 C   0  0  0  0  0  0  0  0  0  0  0  0
   -7.0200   18.3650  -32.5370 C   0  0  0  0  0  0  0  0  0  0  0  0
   -8.1960   17.6590  -32.3500 F   0  0  0  0  0  0  0  0  0  0  0  0
   -6.6680   18.3180  -33.8780 F   0  0  0  0  0  0  0  0  0  0  0  0
   -6.0110   17.7620  -31.7980 F   0  0  0  0  0  0  0  0  0  0  0  0
   -6.1270   20.5480  -31.6510 C   0  0  0  0  0  0  0  0  0  0  0  0
   -6.3410   21.8760  -31.2750 C   0  0  0  0  0  0  0  0  0  0  0  0
   -4.5823   22.7989  -28.3243 H   0  0  0  0  0  0  0  0  0  0  0  0
   -3.1794   21.6678  -27.7058 H   0  0  0  0  0  0  0  0  0  0  0  0
    0.3117   23.1636  -29.8884 H   0  0  0  0  0  0  0  0  0  0  0  0
   -1.3793   23.5140  -29.3844 H   0  0  0  0  0  0  0  0  0  0  0  0
   -2.8217   24.1882  -27.2288 H   0  0  0  0  0  0  0  0  0  0  0  0
   -1.9038   25.0929  -24.9524 H   0  0  0  0  0  0  0  0  0  0  0  0
   -1.1348   26.3878  -25.9314 H   0  0  0  0  0  0  0  0  0  0  0  0
   -2.9216   26.2030  -25.9314 H   0  0  0  0  0  0  0  0  0  0  0  0
   -3.5370   24.9160  -31.2230 H   0  0  0  0  0  0  0  0  0  0  0  0
   -3.8740   26.6130  -30.7580 H   0  0  0  0  0  0  0  0  0  0  0  0
   -8.2515   24.5332  -30.9581 H   0  0  0  0  0  0  0  0  0  0  0  0
   -9.6649   22.2467  -31.9514 H   0  0  0  0  0  0  0  0  0  0  0  0
   -9.3431   19.8553  -32.6695 H   0  0  0  0  0  0  0  0  0  0  0  0
   -5.1250   20.0989  -31.5859 H   0  0  0  0  0  0  0  0  0  0  0  0
  1  2  2  0
  2  3  1  0
  3  4  2  0
  3  5  1  0
  5  6  1  0
  6  7  1  0
  7  8  2  0
  7  9  1  0
  9 10  1  0
 10 11  1  0
 10 12  1  0
 12 13  2  0
 12 14  1  0
  2 15  1  0
 15 16  2  0
 15 17  1  0
 17 18  1  0
 18 19  1  0
 19 20  1  0
 19 21  2  0
 18 22  2  0
 22 23  1  0
 23 24  2  0
 24 25  1  0
 25 26  2  0
 26 27  1  0
 27 28  1  0
 27 29  1  0
 27 30  1  0
 26 31  1  0
 31 32  2  0
 32 17  1  0
 32 23  1  0
  1 33  1  0
  1 34  1  0
  6 35  1  0
  6 36  1  0
 10 37  1  6
 11 38  1  0
 11 39  1  0
 11 40  1  0
 20 41  1  0
 20 42  1  0
 22 43  1  0
 24 44  1  0
 25 45  1  0
 31 46  1  0
M  CHG  2   9  -1  14  -1
M  END
>  <UniqueID>  (47) 
47

>  <SMILES>  (47) 
C=C(C(=O)OCC(=O)[N-][C@@H](C)C(=O)[O-])C(=O)n1c(C(N)=O)cc2ccc(C(F)(F)F)cc21

>  <Energy>  (47) 
83.21106478774996

>  <Genealogy>  (47) 
C=C(C(=O)OCC(=O)[N-]C(C)C(=O)[O-])C(=O)n1c(C(N)=O)cc2ccc(C(F)(F)F)cc21 (protonated)
C=C(C(=O)OCC(=O)[N-][C@@H](C)C(=O)[O-])C(=O)n1c(C(N)=O)cc2ccc(C(F)(F)F)cc21 (chirality)
C=C(C(=O)OCC(=O)[N-][C@@H](C)C(=O)[O-])C(=O)n1c(C(N)=O)cc2ccc(C(F)(F)F)cc21 (3D coordinates assigned)
C=C(C(=O)OCC(=O)[N-][C@@H](C)C(=O)[O-])C(=O)n1c(C(N)=O)cc2ccc(C(F)(F)F)cc21 (optimized conformer: 83.21106478774996 kcal/mol)

>  <smiles>  (47) 
C=C(C(=O)OCC(=O)NC(C)C(=O)O)C(=O)n1c(C(N)=O)cc2ccc(C(F)(F)F)cc21

>  <score_type>  (47) 
oracle

>  <origin>  (47) 
adg

>  <m_score__min__energy>  (47) 
-12.17

>  <m_primary>  (47) 
energy

$$$$
47:0
     RDKit          3D

 41 42  0  0  0  0  0  0  0  0999 V2000
   -8.3320   18.5550  -32.0060 C   0  0  0  0  0  0  0  0  0  0  0  0
   -6.8990   18.3410  -32.2730 N   0  0  0  0  0  0  0  0  0  0  0  0
   -6.2550   17.7900  -31.0700 C   0  0  0  0  0  0  0  0  0  0  0  0
   -6.6980   17.4240  -33.4180 C   0  0  0  0  0  0  0  0  0  0  0  0
   -6.0370   18.1340  -34.6100 C   0  0  0  0  0  0  0  0  0  0  0  0
   -4.7740   18.9110  -34.1900 C   0  0  0  0  0  0  0  0  0  0  0  0
   -5.1000   20.1780  -33.5140 N   0  0  0  0  0  0  0  0  0  0  0  0
   -3.9920   20.6570  -32.7210 C   0  0  0  0  0  0  0  0  0  0  0  0
   -2.7770   19.9240  -32.6730 C   0  0  0  0  0  0  0  0  0  0  0  0
   -1.6900   20.3880  -31.9150 C   0  0  0  0  0  0  0  0  0  0  0  0
   -1.8390   21.5870  -31.2260 C   0  0  0  0  0  0  0  0  0  0  0  0
   -0.9570   22.2490  -30.4030 C   0  0  0  0  0  0  0  0  0  0  0  0
   -1.6320   23.3920  -29.9800 C   0  0  0  0  0  0  0  0  0  0  0  0
   -1.0100   24.4390  -29.1420 C   0  0  0  0  0  0  0  0  0  0  0  0
   -1.6540   25.6940  -28.9370 N   0  0  0  0  0  0  0  0  0  0  0  0
    0.1290   24.2410  -28.6420 O   0  0  0  0  0  0  0  0  0  0  0  0
   -2.8870   23.4300  -30.5130 N   0  0  0  0  0  0  0  0  0  0  0  0
   -3.9240   24.3930  -30.2610 C   0  0  0  0  0  0  0  0  0  0  0  0
   -4.9050   24.0950  -29.5310 O   0  0  0  0  0  0  0  0  0  0  0  0
   -3.8680   25.6530  -30.8430 O   0  0  0  0  0  0  0  0  0  0  0  0
   -2.9970   22.3190  -31.2750 C   0  0  0  0  0  0  0  0  0  0  0  0
   -4.1030   21.8710  -32.0040 C   0  0  0  0  0  0  0  0  0  0  0  0
   -8.5027   18.5805  -30.9196 H   0  0  0  0  0  0  0  0  0  0  0  0
   -8.6489   19.5104  -32.4495 H   0  0  0  0  0  0  0  0  0  0  0  0
   -8.9142   17.7338  -32.4495 H   0  0  0  0  0  0  0  0  0  0  0  0
   -6.7387   18.2039  -30.1730 H   0  0  0  0  0  0  0  0  0  0  0  0
   -6.3563   16.6947  -31.0689 H   0  0  0  0  0  0  0  0  0  0  0  0
   -5.1885   18.0596  -31.0689 H   0  0  0  0  0  0  0  0  0  0  0  0
   -6.0543   16.5913  -33.0983 H   0  0  0  0  0  0  0  0  0  0  0  0
   -7.6845   17.0603  -33.7414 H   0  0  0  0  0  0  0  0  0  0  0  0
   -5.7574   17.3810  -35.3616 H   0  0  0  0  0  0  0  0  0  0  0  0
   -6.7595   18.8552  -35.0197 H   0  0  0  0  0  0  0  0  0  0  0  0
   -4.1845   18.2849  -33.5041 H   0  0  0  0  0  0  0  0  0  0  0  0
   -4.2061   19.1505  -35.1011 H   0  0  0  0  0  0  0  0  0  0  0  0
   -5.9560   20.0580  -32.9250 H   0  0  0  0  0  0  0  0  0  0  0  0
   -5.3260   20.8960  -34.2430 H   0  0  0  0  0  0  0  0  0  0  0  0
   -2.6863   18.9830  -33.2354 H   0  0  0  0  0  0  0  0  0  0  0  0
   -0.7490   19.8204  -31.8675 H   0  0  0  0  0  0  0  0  0  0  0  0
    0.0646   21.9410  -30.1357 H   0  0  0  0  0  0  0  0  0  0  0  0
   -2.6900   25.7870  -29.0300 H   0  0  0  0  0  0  0  0  0  0  0  0
   -5.0383   22.4498  -32.0195 H   0  0  0  0  0  0  0  0  0  0  0  0
  1  2  1  0
  2  3  1  0
  2  4  1  0
  4  5  1  0
  5  6  1  0
  6  7  1  0
  7  8  1  0
  8  9  2  0
  9 10  1  0
 10 11  2  0
 11 12  1  0
 12 13  2  0
 13 14  1  0
 14 15  1  0
 14 16  2  0
 13 17  1  0
 17 18  1  0
 18 19  2  0
 18 20  1  0
 17 21  1  0
 21 22  2  0
 22  8  1  0
 21 11  1  0
  1 23  1  0
  1 24  1  0
  1 25  1  0
  3 26  1  0
  3 27  1  0
  3 28  1  0
  4 29  1  0
  4 30  1  0
  5 31  1  0
  5 32  1  0
  6 33  1  0
  6 34  1  0
  7 35  1  0
  7 36  1  0
  9 37  1  0
 10 38  1  0
 12 39  1  0
 15 40  1  0
 22 41  1  0
M  CHG  3   7   1  15  -1  20  -1
M  END
>  <UniqueID>  (48) 
48

>  <SMILES>  (48) 
CN(C)CCC[NH2+]c1ccc2cc(C([NH-])=O)n(C(=O)[O-])c2c1

>  <Energy>  (48) 
78.88051882869968

>  <Genealogy>  (48) 
CN(C)CCC[NH2+]c1ccc2cc(C([NH-])=O)n(C(=O)[O-])c2c1 (protonated)
CN(C)CCC[NH2+]c1ccc2cc(C([NH-])=O)n(C(=O)[O-])c2c1 (3D coordinates assigned)
CN(C)CCC[NH2+]c1ccc2cc(C([NH-])=O)n(C(=O)[O-])c2c1 (optimized conformer: 78.88051882869968 kcal/mol)

>  <smiles>  (48) 
CN(C)CCCNc1ccc2cc(C(N)=O)n(C(=O)O)c2c1

>  <score_type>  (48) 
oracle

>  <origin>  (48) 
adg

>  <m_score__min__energy>  (48) 
-10.300000000000001

>  <m_primary>  (48) 
energy

$$$$
48:0
     RDKit          3D

 38 39  0  0  0  0  0  0  0  0999 V2000
   -0.9040   22.1110  -30.1390 C   0  0  0  0  0  0  0  0  0  0  0  0
   -2.0170   22.9840  -29.7700 N   0  0  0  0  0  0  0  0  0  0  0  0
   -1.7240   24.2890  -29.3300 C   0  0  0  0  0  0  0  0  0  0  0  0
   -1.4820   25.3600  -28.9690 N   0  0  0  0  0  0  0  0  0  0  0  0
   -3.3760   22.5280  -29.9490 C   0  0  0  0  0  0  0  0  0  0  0  0
   -3.9600   21.9480  -28.9940 O   0  0  0  0  0  0  0  0  0  0  0  0
   -4.1210   22.6920  -31.2200 C   0  0  0  0  0  0  0  0  0  0  0  0
   -3.5270   22.6540  -32.3300 O   0  0  0  0  0  0  0  0  0  0  0  0
   -5.5350   22.9230  -31.1910 N   0  0  0  0  0  0  0  0  0  0  0  0
   -6.1890   24.0280  -30.7400 C   0  0  0  0  0  0  0  0  0  0  0  0
   -5.5530   25.2490  -30.1990 C   0  0  0  0  0  0  0  0  0  0  0  0
   -4.2010   25.5730  -30.5110 N   0  0  0  0  0  0  0  0  0  0  0  0
   -6.2210   26.0290  -29.4690 O   0  0  0  0  0  0  0  0  0  0  0  0
   -7.5640   23.8800  -30.9170 C   0  0  0  0  0  0  0  0  0  0  0  0
   -7.7270   22.6400  -31.4980 C   0  0  0  0  0  0  0  0  0  0  0  0
   -8.8820   21.9820  -31.9060 C   0  0  0  0  0  0  0  0  0  0  0  0
   -8.7450   20.7070  -32.4860 C   0  0  0  0  0  0  0  0  0  0  0  0
   -7.4610   20.1140  -32.6490 C   0  0  0  0  0  0  0  0  0  0  0  0
   -7.2920   18.8100  -33.2350 N   0  0  0  0  0  0  0  0  0  0  0  0
   -6.6560   17.6700  -32.5710 C   0  0  0  0  0  0  0  0  0  0  0  0
   -5.8700   16.8290  -33.5800 C   0  0  0  0  0  0  0  0  0  0  0  0
   -5.9240   17.4190  -34.8480 O   0  0  0  0  0  0  0  0  0  0  0  0
   -6.3160   20.8210  -32.2190 C   0  0  0  0  0  0  0  0  0  0  0  0
   -6.4860   22.0850  -31.6510 C   0  0  0  0  0  0  0  0  0  0  0  0
   -0.4189   21.7305  -29.2280 H   0  0  0  0  0  0  0  0  0  0  0  0
   -1.2821   21.2661  -30.7333 H   0  0  0  0  0  0  0  0  0  0  0  0
   -0.1735   22.6795  -30.7333 H   0  0  0  0  0  0  0  0  0  0  0  0
   -3.4840   25.6740  -29.7590 H   0  0  0  0  0  0  0  0  0  0  0  0
   -8.3518   24.5997  -30.6498 H   0  0  0  0  0  0  0  0  0  0  0  0
   -9.8723   22.4438  -31.7793 H   0  0  0  0  0  0  0  0  0  0  0  0
   -9.6411   20.1619  -32.8175 H   0  0  0  0  0  0  0  0  0  0  0  0
   -7.6410   18.6580  -34.2060 H   0  0  0  0  0  0  0  0  0  0  0  0
   -5.9689   18.0403  -31.7959 H   0  0  0  0  0  0  0  0  0  0  0  0
   -7.4374   17.0421  -32.1182 H   0  0  0  0  0  0  0  0  0  0  0  0
   -4.8211   16.7595  -33.2561 H   0  0  0  0  0  0  0  0  0  0  0  0
   -6.3144   15.8242  -33.6328 H   0  0  0  0  0  0  0  0  0  0  0  0
   -6.8710   17.6870  -34.9980 H   0  0  0  0  0  0  0  0  0  0  0  0
   -5.3121   20.3850  -32.3293 H   0  0  0  0  0  0  0  0  0  0  0  0
  1  2  1  0
  2  3  1  0
  3  4  3  0
  2  5  1  0
  5  6  2  0
  5  7  1  0
  7  8  2  0
  7  9  1  0
  9 10  1  0
 10 11  1  0
 11 12  1  0
 11 13  2  0
 10 14  2  0
 14 15  1  0
 15 16  2  0
 16 17  1  0
 17 18  2  0
 18 19  1  0
 19 20  1  0
 20 21  1  0
 21 22  1  0
 18 23  1  0
 23 24  2  0
 24  9  1  0
 24 15  1  0
  1 25  1  0
  1 26  1  0
  1 27  1  0
 12 28  1  0
 14 29  1  0
 16 30  1  0
 17 31  1  0
 19 32  1  0
 20 33  1  0
 20 34  1  0
 21 35  1  0
 21 36  1  0
 22 37  1  0
 23 38  1  0
M  CHG  1  12  -1
M  END
>  <UniqueID>  (49) 
49

>  <SMILES>  (49) 
CN(C#N)C(=O)C(=O)n1c(C([NH-])=O)cc2ccc(NCCO)cc21

>  <Energy>  (49) 
75.94170886773489

>  <Genealogy>  (49) 
CN(C#N)C(=O)C(=O)n1c(C([NH-])=O)cc2ccc(NCCO)cc21 (protonated)
CN(C#N)C(=O)C(=O)n1c(C([NH-])=O)cc2ccc(NCCO)cc21 (3D coordinates assigned)
CN(C#N)C(=O)C(=O)n1c(C([NH-])=O)cc2ccc(NCCO)cc21 (optimized conformer: 75.94170886773489 kcal/mol)

>  <smiles>  (49) 
CN(C#N)C(=O)C(=O)n1c(C(N)=O)cc2ccc(NCCO)cc21

>  <score_type>  (49) 
oracle

>  <origin>  (49) 
adg

>  <m_score__min__energy>  (49) 
-9.7799999999999994

>  <m_primary>  (49) 
energy

$$$$
49:0
     RDKit          3D

 45 46  0  0  0  0  0  0  0  0999 V2000
    2.5640   22.4190  -35.3860 C   0  0  0  0  0  0  0  0  0  0  0  0
    1.1840   22.3400  -34.8750 N   0  0  0  0  0  0  0  0  0  0  0  0
    0.2500   22.2060  -36.0030 C   0  0  0  0  0  0  0  0  0  0  0  0
    1.0300   21.1980  -33.9530 C   0  0  0  0  0  0  0  0  0  0  0  0
   -0.3920   20.9020  -33.7400 C   0  0  0  0  0  0  0  0  0  0  0  0
   -1.5610   20.6640  -33.5680 C   0  0  0  0  0  0  0  0  0  0  0  0
   -2.9560   20.3790  -33.3660 C   0  0  0  0  0  0  0  0  0  0  0  0
   -3.4580   19.0840  -33.6340 C   0  0  0  0  0  0  0  0  0  0  0  0
   -4.8200   18.7930  -33.4380 C   0  0  0  0  0  0  0  0  0  0  0  0
   -5.6450   19.8180  -32.9810 C   0  0  0  0  0  0  0  0  0  0  0  0
   -6.9920   19.8110  -32.6860 C   0  0  0  0  0  0  0  0  0  0  0  0
   -7.2830   21.1070  -32.2540 C   0  0  0  0  0  0  0  0  0  0  0  0
   -8.6300   21.5830  -31.8550 C   0  0  0  0  0  0  0  0  0  0  0  0
   -8.9830   22.9640  -31.9460 N   0  0  0  0  0  0  0  0  0  0  0  0
   -9.4840   20.7640  -31.4190 O   0  0  0  0  0  0  0  0  0  0  0  0
   -6.1630   21.8790  -32.2980 N   0  0  0  0  0  0  0  0  0  0  0  0
   -6.0260   23.2460  -31.8830 C   0  0  0  0  0  0  0  0  0  0  0  0
   -6.2470   24.1640  -32.7170 O   0  0  0  0  0  0  0  0  0  0  0  0
   -5.6340   23.5760  -30.5330 N   0  0  0  0  0  0  0  0  0  0  0  0
   -6.6300   24.1490  -29.6240 C   0  0  0  0  0  0  0  0  0  0  0  0
   -4.2410   23.4060  -30.0920 C   0  0  0  0  0  0  0  0  0  0  0  0
   -3.5250   24.7190  -30.1100 C   0  0  0  0  0  0  0  0  0  0  0  0
   -3.9580   25.6660  -30.8180 O   0  0  0  0  0  0  0  0  0  0  0  0
   -2.3780   24.8980  -29.3460 O   0  0  0  0  0  0  0  0  0  0  0  0
   -5.1700   21.0770  -32.7310 C   0  0  0  0  0  0  0  0  0  0  0  0
   -3.8190   21.3940  -32.9030 C   0  0  0  0  0  0  0  0  0  0  0  0
    3.2664   22.4592  -34.5404 H   0  0  0  0  0  0  0  0  0  0  0  0
    2.7792   21.5317  -35.9995 H   0  0  0  0  0  0  0  0  0  0  0  0
    2.6765   23.3251  -35.9995 H   0  0  0  0  0  0  0  0  0  0  0  0
   -0.7703   22.0596  -35.6188 H   0  0  0  0  0  0  0  0  0  0  0  0
    0.2833   23.1181  -36.6169 H   0  0  0  0  0  0  0  0  0  0  0  0
    0.5384   21.3400  -36.6169 H   0  0  0  0  0  0  0  0  0  0  0  0
    1.5237   20.3146  -34.3842 H   0  0  0  0  0  0  0  0  0  0  0  0
    1.4903   21.4538  -32.9873 H   0  0  0  0  0  0  0  0  0  0  0  0
   -2.7786   18.2993  -33.9981 H   0  0  0  0  0  0  0  0  0  0  0  0
   -5.2207   17.7885  -33.6391 H   0  0  0  0  0  0  0  0  0  0  0  0
   -7.6892   18.9646  -32.7725 H   0  0  0  0  0  0  0  0  0  0  0  0
   -8.3360   23.6720  -32.3550 H   0  0  0  0  0  0  0  0  0  0  0  0
   -9.9270   23.2820  -31.6330 H   0  0  0  0  0  0  0  0  0  0  0  0
   -6.3215   23.9715  -28.5832 H   0  0  0  0  0  0  0  0  0  0  0  0
   -6.7102   25.2313  -29.8032 H   0  0  0  0  0  0  0  0  0  0  0  0
   -7.6060   23.6743  -29.8032 H   0  0  0  0  0  0  0  0  0  0  0  0
   -4.2314   23.0018  -29.0690 H   0  0  0  0  0  0  0  0  0  0  0  0
   -3.7318   22.7122  -30.7771 H   0  0  0  0  0  0  0  0  0  0  0  0
   -3.4410   22.4035  -32.6840 H   0  0  0  0  0  0  0  0  0  0  0  0
  1  2  1  0
  2  3  1  0
  2  4  1  0
  4  5  1  0
  5  6  3  0
  6  7  1  0
  7  8  2  0
  8  9  1  0
  9 10  2  0
 10 11  1  0
 11 12  2  0
 12 13  1  0
 13 14  1  0
 13 15  2  0
 12 16  1  0
 16 17  1  0
 17 18  2  0
 17 19  1  0
 19 20  1  0
 19 21  1  0
 21 22  1  0
 22 23  2  0
 22 24  1  0
 16 25  1  0
 25 26  2  0
 26  7  1  0
 25 10  1  0
  1 27  1  0
  1 28  1  0
  1 29  1  0
  3 30  1  0
  3 31  1  0
  3 32  1  0
  4 33  1  0
  4 34  1  0
  8 35  1  0
  9 36  1  0
 11 37  1  0
 14 38  1  0
 14 39  1  0
 20 40  1  0
 20 41  1  0
 20 42  1  0
 21 43  1  0
 21 44  1  0
 26 45  1  0
M  CHG  1  24  -1
M  END
>  <UniqueID>  (50) 
50

>  <SMILES>  (50) 
CN(C)CC#Cc1ccc2cc(C(N)=O)n(C(=O)N(C)CC(=O)[O-])c2c1

>  <Energy>  (50) 
76.35190659662044

>  <Genealogy>  (50) 
CN(C)CC#Cc1ccc2cc(C(N)=O)n(C(=O)N(C)CC(=O)[O-])c2c1 (protonated)
CN(C)CC#Cc1ccc2cc(C(N)=O)n(C(=O)N(C)CC(=O)[O-])c2c1 (3D coordinates assigned)
CN(C)CC#Cc1ccc2cc(C(N)=O)n(C(=O)N(C)CC(=O)[O-])c2c1 (optimized conformer: 76.35190659662044 kcal/mol)

>  <smiles>  (50) 
CN(C)CC#Cc1ccc2cc(C(N)=O)n(C(=O)N(C)CC(=O)O)c2c1

>  <score_type>  (50) 
oracle

>  <origin>  (50) 
adg

>  <m_score__min__energy>  (50) 
-11.41

>  <m_primary>  (50) 
energy

$$$$
50:0
     RDKit          3D

 69 72  0  0  0  0  0  0  0  0999 V2000
   -0.0420   21.5480  -34.6260 C   0  0  0  0  0  0  0  0  0  0  0  0
   -1.1020   21.3060  -33.6310 N   0  0  0  0  0  0  0  0  0  0  0  0
   -0.4940   21.1680  -32.2960 C   0  0  0  0  0  0  0  0  0  0  0  0
   -1.8780   20.1000  -33.9930 C   0  0  0  0  0  0  0  0  0  0  0  0
   -1.3450   18.8660  -33.2470 C   0  0  0  0  0  0  0  0  0  0  0  0
   -1.1410   17.6660  -34.1840 C   0  0  0  0  0  0  0  0  0  0  0  0
   -2.1100   16.5840  -33.9200 N   0  0  0  0  0  0  0  0  0  0  0  0
   -3.2850   16.4640  -34.7590 C   0  0  0  0  0  0  0  0  0  0  0  0
   -3.1590   16.1370  -35.9700 O   0  0  0  0  0  0  0  0  0  0  0  0
   -4.6390   16.7400  -34.2320 C   0  0  0  0  0  0  0  0  0  0  0  0
   -5.6070   15.7250  -34.2180 C   0  0  0  0  0  0  0  0  0  0  0  0
   -6.8900   15.9810  -33.7340 C   0  0  0  0  0  0  0  0  0  0  0  0
   -7.2210   17.2480  -33.2540 C   0  0  0  0  0  0  0  0  0  0  0  0
   -6.2630   18.2730  -33.2400 C   0  0  0  0  0  0  0  0  0  0  0  0
   -6.6100   19.6100  -32.7020 C   0  0  0  0  0  0  0  0  0  0  0  0
   -7.9530   20.0710  -32.7380 C   0  0  0  0  0  0  0  0  0  0  0  0
   -8.2830   21.3600  -32.2850 C   0  0  0  0  0  0  0  0  0  0  0  0
   -7.2540   22.1650  -31.8010 C   0  0  0  0  0  0  0  0  0  0  0  0
   -7.2840   23.4620  -31.3400 C   0  0  0  0  0  0  0  0  0  0  0  0
   -5.9600   23.7700  -31.0080 C   0  0  0  0  0  0  0  0  0  0  0  0
   -5.5200   25.0620  -30.4200 C   0  0  0  0  0  0  0  0  0  0  0  0
   -4.1840   25.5420  -30.5950 N   0  0  0  0  0  0  0  0  0  0  0  0
   -6.3310   25.7660  -29.7590 O   0  0  0  0  0  0  0  0  0  0  0  0
   -5.1550   22.6990  -31.2550 N   0  0  0  0  0  0  0  0  0  0  0  0
   -3.7350   22.5960  -31.0650 C   0  0  0  0  0  0  0  0  0  0  0  0
   -2.9510   22.9570  -31.9850 O   0  0  0  0  0  0  0  0  0  0  0  0
   -3.2300   22.0930  -29.8570 O   0  0  0  0  0  0  0  0  0  0  0  0
   -2.7930   22.9250  -28.7850 C   0  0  0  0  0  0  0  0  0  0  0  0
   -1.8220   23.9540  -29.2830 C   0  0  0  0  0  0  0  0  0  0  0  0
   -0.6760   23.6070  -29.6750 O   0  0  0  0  0  0  0  0  0  0  0  0
   -2.1950   25.2940  -29.3450 O   0  0  0  0  0  0  0  0  0  0  0  0
   -5.9580   21.7280  -31.7370 C   0  0  0  0  0  0  0  0  0  0  0  0
   -5.5980   20.4540  -32.1880 C   0  0  0  0  0  0  0  0  0  0  0  0
   -4.9670   18.0080  -33.7200 C   0  0  0  0  0  0  0  0  0  0  0  0
   -1.8430   15.6540  -32.7980 C   0  0  0  0  0  0  0  0  0  0  0  0
   -0.6880   14.6890  -33.0430 C   0  0  0  0  0  0  0  0  0  0  0  0
   -1.6570   13.5160  -32.9420 C   0  0  0  0  0  0  0  0  0  0  0  0
   -2.8150   14.4780  -32.7080 C   0  0  0  0  0  0  0  0  0  0  0  0
    0.9043   21.7640  -34.1085 H   0  0  0  0  0  0  0  0  0  0  0  0
    0.0803   20.6547  -35.2561 H   0  0  0  0  0  0  0  0  0  0  0  0
   -0.3195   22.4059  -35.2561 H   0  0  0  0  0  0  0  0  0  0  0  0
   -1.2591   21.3416  -31.5249 H   0  0  0  0  0  0  0  0  0  0  0  0
   -0.0833   20.1538  -32.1832 H   0  0  0  0  0  0  0  0  0  0  0  0
    0.3143   21.9055  -32.1832 H   0  0  0  0  0  0  0  0  0  0  0  0
   -2.9334   20.2559  -33.7250 H   0  0  0  0  0  0  0  0  0  0  0  0
   -1.7801   19.9284  -35.0751 H   0  0  0  0  0  0  0  0  0  0  0  0
   -0.3809   19.1214  -32.7831 H   0  0  0  0  0  0  0  0  0  0  0  0
   -2.0901   18.5808  -32.4897 H   0  0  0  0  0  0  0  0  0  0  0  0
   -1.2611   18.0037  -35.2240 H   0  0  0  0  0  0  0  0  0  0  0  0
   -0.1313   17.2667  -34.0079 H   0  0  0  0  0  0  0  0  0  0  0  0
   -5.3530   14.7217  -34.5907 H   0  0  0  0  0  0  0  0  0  0  0  0
   -7.6440   15.1801  -33.7309 H   0  0  0  0  0  0  0  0  0  0  0  0
   -8.2383   17.4447  -32.8845 H   0  0  0  0  0  0  0  0  0  0  0  0
   -8.7439   19.4116  -33.1249 H   0  0  0  0  0  0  0  0  0  0  0  0
   -9.3214   21.7220  -32.3118 H   0  0  0  0  0  0  0  0  0  0  0  0
   -8.1629   24.1175  -31.2514 H   0  0  0  0  0  0  0  0  0  0  0  0
   -3.9040   26.4570  -30.1790 H   0  0  0  0  0  0  0  0  0  0  0  0
   -3.4780   25.0250  -31.1650 H   0  0  0  0  0  0  0  0  0  0  0  0
   -3.6629   23.4321  -28.3422 H   0  0  0  0  0  0  0  0  0  0  0  0
   -2.2941   22.3003  -28.0295 H   0  0  0  0  0  0  0  0  0  0  0  0
   -4.5521   20.1162  -32.1440 H   0  0  0  0  0  0  0  0  0  0  0  0
   -4.2038   18.7997  -33.6945 H   0  0  0  0  0  0  0  0  0  0  0  0
   -1.7872   16.3897  -31.9821 H   0  0  0  0  0  0  0  0  0  0  0  0
   -0.2127   14.7968  -34.0292 H   0  0  0  0  0  0  0  0  0  0  0  0
    0.2140   14.7251  -32.4144 H   0  0  0  0  0  0  0  0  0  0  0  0
   -1.7445   12.9271  -33.8669 H   0  0  0  0  0  0  0  0  0  0  0  0
   -1.4643   12.6993  -32.2308 H   0  0  0  0  0  0  0  0  0  0  0  0
   -3.5794   14.4637  -33.4989 H   0  0  0  0  0  0  0  0  0  0  0  0
   -3.4728   14.3607  -31.8342 H   0  0  0  0  0  0  0  0  0  0  0  0
  1  2  1  0
  2  3  1  0
  2  4  1  0
  4  5  1  0
  5  6  1  0
  6  7  1  0
  7  8  1  0
  8  9  2  0
  8 10  1  0
 10 11  2  0
 11 12  1  0
 12 13  2  0
 13 14  1  0
 14 15  1  0
 15 16  2  0
 16 17  1  0
 17 18  2  0
 18 19  1  0
 19 20  2  0
 20 21  1  0
 21 22  1  0
 21 23  2  0
 20 24  1  0
 24 25  1  0
 25 26  2  0
 25 27  1  0
 27 28  1  0
 28 29  1  0
 29 30  2  0
 29 31  1  0
 24 32  1  0
 32 33  2  0
 14 34  2  0
  7 35  1  0
 35 36  1  0
 36 37  1  0
 37 38  1  0
 34 10  1  0
 38 35  1  0
 33 15  1  0
 32 18  1  0
  1 39  1  0
  1 40  1  0
  1 41  1  0
  3 42  1  0
  3 43  1  0
  3 44  1  0
  4 45  1  0
  4 46  1  0
  5 47  1  0
  5 48  1  0
  6 49  1  0
  6 50  1  0
 11 51  1  0
 12 52  1  0
 13 53  1  0
 16 54  1  0
 17 55  1  0
 19 56  1  0
 22 57  1  0
 22 58  1  0
 28 59  1  0
 28 60  1  0
 33 61  1  0
 34 62  1  0
 35 63  1  0
 36 64  1  0
 36 65  1  0
 37 66  1  0
 37 67  1  0
 38 68  1  0
 38 69  1  0
M  CHG  1  31  -1
M  END
>  <UniqueID>  (51) 
51

>  <SMILES>  (51) 
CN(C)CCCN(C(=O)c1cccc(-c2ccc3cc(C(N)=O)n(C(=O)OCC(=O)[O-])c3c2)c1)C1CCC1

>  <Energy>  (51) 
177.36566928694447

>  <Genealogy>  (51) 
CN(C)CCCN(C(=O)c1cccc(-c2ccc3cc(C(N)=O)n(C(=O)OCC(=O)[O-])c3c2)c1)C1CCC1 (protonated)
CN(C)CCCN(C(=O)c1cccc(-c2ccc3cc(C(N)=O)n(C(=O)OCC(=O)[O-])c3c2)c1)C1CCC1 (3D coordinates assigned)
CN(C)CCCN(C(=O)c1cccc(-c2ccc3cc(C(N)=O)n(C(=O)OCC(=O)[O-])c3c2)c1)C1CCC1 (nonaromatic ring conformer: 177.36566928694447 kcal/mol)

>  <smiles>  (51) 
CN(C)CCCN(C(=O)c1cccc(-c2ccc3cc(C(N)=O)n(C(=O)OCC(=O)O)c3c2)c1)C1CCC1

>  <score_type>  (51) 
oracle

>  <origin>  (51) 
adg

>  <m_score__min__energy>  (51) 
-11.539999999999999

>  <m_primary>  (51) 
energy

$$$$
51:0
     RDKit          3D

 40 41  0  0  0  0  0  0  0  0999 V2000
   -6.7980   17.3640  -33.1070 C   0  0  0  0  0  0  0  0  0  0  0  0
   -6.9210   18.5090  -32.7500 C   0  0  0  0  0  0  0  0  0  0  0  0
   -7.0640   19.8760  -32.3250 C   0  0  0  0  0  0  0  0  0  0  0  0
   -8.3440   20.4770  -32.3040 C   0  0  0  0  0  0  0  0  0  0  0  0
   -8.4980   21.8100  -31.8860 C   0  0  0  0  0  0  0  0  0  0  0  0
   -7.3560   22.5090  -31.5020 C   0  0  0  0  0  0  0  0  0  0  0  0
   -7.2170   23.8020  -31.0510 C   0  0  0  0  0  0  0  0  0  0  0  0
   -5.8520   23.9690  -30.8240 C   0  0  0  0  0  0  0  0  0  0  0  0
   -5.2440   25.2530  -30.4150 C   0  0  0  0  0  0  0  0  0  0  0  0
   -3.9350   25.6170  -30.8430 N   0  0  0  0  0  0  0  0  0  0  0  0
   -5.9080   26.0590  -29.7080 O   0  0  0  0  0  0  0  0  0  0  0  0
   -5.1760   22.8220  -31.1180 N   0  0  0  0  0  0  0  0  0  0  0  0
   -3.7670   22.5690  -30.9830 C   0  0  0  0  0  0  0  0  0  0  0  0
   -3.0610   22.4260  -32.0180 O   0  0  0  0  0  0  0  0  0  0  0  0
   -3.1530   22.4870  -29.6820 N   0  0  0  0  0  0  0  0  0  0  0  0
   -2.8260   23.6300  -28.9710 O   0  0  0  0  0  0  0  0  0  0  0  0
   -1.5880   24.2750  -29.0740 C   0  0  0  0  0  0  0  0  0  0  0  0
   -0.5360   23.6160  -29.3040 O   0  0  0  0  0  0  0  0  0  0  0  0
   -1.5400   25.6660  -28.9610 O   0  0  0  0  0  0  0  0  0  0  0  0
   -0.9520   26.3250  -27.8470 C   0  0  0  0  0  0  0  0  0  0  0  0
   -2.6840   21.2280  -29.1760 C   0  0  0  0  0  0  0  0  0  0  0  0
   -2.0710   20.4370  -29.9440 O   0  0  0  0  0  0  0  0  0  0  0  0
   -2.9060   20.8780  -27.8400 O   0  0  0  0  0  0  0  0  0  0  0  0
   -1.9980   20.0910  -27.0810 C   0  0  0  0  0  0  0  0  0  0  0  0
   -2.7660   19.0950  -26.2730 C   0  0  0  0  0  0  0  0  0  0  0  0
   -3.7620   18.5640  -26.7380 O   0  0  0  0  0  0  0  0  0  0  0  0
   -6.1100   21.9390  -31.5310 C   0  0  0  0  0  0  0  0  0  0  0  0
   -5.9290   20.6100  -31.9300 C   0  0  0  0  0  0  0  0  0  0  0  0
   -6.6858   16.3193  -33.4327 H   0  0  0  0  0  0  0  0  0  0  0  0
   -9.2249   19.8973  -32.6169 H   0  0  0  0  0  0  0  0  0  0  0  0
   -9.4893   22.2863  -31.8628 H   0  0  0  0  0  0  0  0  0  0  0  0
   -8.0138   24.5455  -30.9015 H   0  0  0  0  0  0  0  0  0  0  0  0
   -3.0890   25.2900  -30.3260 H   0  0  0  0  0  0  0  0  0  0  0  0
   -1.3414   25.8886  -26.9154 H   0  0  0  0  0  0  0  0  0  0  0  0
    0.1403   26.2002  -27.8818 H   0  0  0  0  0  0  0  0  0  0  0  0
   -1.2000   27.3961  -27.8818 H   0  0  0  0  0  0  0  0  0  0  0  0
   -1.3122   19.5632  -27.7601 H   0  0  0  0  0  0  0  0  0  0  0  0
   -1.4171   20.7412  -26.4104 H   0  0  0  0  0  0  0  0  0  0  0  0
   -2.4326   18.8398  -25.2563 H   0  0  0  0  0  0  0  0  0  0  0  0
   -4.9290   20.1519  -31.9350 H   0  0  0  0  0  0  0  0  0  0  0  0
  1  2  3  0
  2  3  1  0
  3  4  2  0
  4  5  1  0
  5  6  2  0
  6  7  1  0
  7  8  2  0
  8  9  1  0
  9 10  1  0
  9 11  2  0
  8 12  1  0
 12 13  1  0
 13 14  2  0
 13 15  1  0
 15 16  1  0
 16 17  1  0
 17 18  2  0
 17 19  1  0
 19 20  1  0
 15 21  1  0
 21 22  2  0
 21 23  1  0
 23 24  1  0
 24 25  1  0
 25 26  2  0
 12 27  1  0
 27 28  2  0
 28  3  1  0
 27  6  1  0
  1 29  1  0
  4 30  1  0
  5 31  1  0
  7 32  1  0
 10 33  1  0
 20 34  1  0
 20 35  1  0
 20 36  1  0
 24 37  1  0
 24 38  1  0
 25 39  1  0
 28 40  1  0
M  CHG  1  10  -1
M  END
>  <UniqueID>  (52) 
52

>  <SMILES>  (52) 
C#Cc1ccc2cc(C([NH-])=O)n(C(=O)N(OC(=O)OC)C(=O)OCC=O)c2c1

>  <Energy>  (52) 
74.84913742666951

>  <Genealogy>  (52) 
C#Cc1ccc2cc(C([NH-])=O)n(C(=O)N(OC(=O)OC)C(=O)OCC=O)c2c1 (protonated)
C#Cc1ccc2cc(C([NH-])=O)n(C(=O)N(OC(=O)OC)C(=O)OCC=O)c2c1 (3D coordinates assigned)
C#Cc1ccc2cc(C([NH-])=O)n(C(=O)N(OC(=O)OC)C(=O)OCC=O)c2c1 (optimized conformer: 74.84913742666951 kcal/mol)

>  <smiles>  (52) 
C#Cc1ccc2cc(C(N)=O)n(C(=O)N(OC(=O)OC)C(=O)OCC=O)c2c1

>  <score_type>  (52) 
oracle

>  <origin>  (52) 
adg

>  <m_score__min__energy>  (52) 
-10.619999999999999

>  <m_primary>  (52) 
energy

$$$$
52:0
     RDKit          3D

 32 33  0  0  0  0  0  0  0  0999 V2000
   -3.2470   24.9420  -30.8430 H   0  0  0  0  0  0  0  0  0  0  0  0
   -3.9990   25.6670  -30.8320 N   0  0  0  0  0  0  0  0  0  0  0  0
   -5.3280   25.3370  -30.4370 C   0  0  0  0  0  0  0  0  0  0  0  0
   -5.9870   26.1580  -29.7450 O   0  0  0  0  0  0  0  0  0  0  0  0
   -5.9080   24.0340  -30.8210 C   0  0  0  0  0  0  0  0  0  0  0  0
   -7.2440   23.8530  -31.1760 C   0  0  0  0  0  0  0  0  0  0  0  0
   -8.0414   24.6107  -31.1784 H   0  0  0  0  0  0  0  0  0  0  0  0
   -7.3540   22.5250  -31.5230 C   0  0  0  0  0  0  0  0  0  0  0  0
   -8.4550   21.8010  -31.9690 C   0  0  0  0  0  0  0  0  0  0  0  0
   -9.4366   22.2813  -32.0946 H   0  0  0  0  0  0  0  0  0  0  0  0
   -8.2740   20.4370  -32.2540 C   0  0  0  0  0  0  0  0  0  0  0  0
   -9.1224   19.8418  -32.6227 H   0  0  0  0  0  0  0  0  0  0  0  0
   -7.0100   19.8180  -32.0720 C   0  0  0  0  0  0  0  0  0  0  0  0
   -6.8190   18.3640  -32.4230 C   0  0  0  0  0  0  0  0  0  0  0  0
   -5.9010   17.7720  -31.5740 F   0  0  0  0  0  0  0  0  0  0  0  0
   -8.0290   17.7050  -32.3080 F   0  0  0  0  0  0  0  0  0  0  0  0
   -6.3560   18.2320  -33.7210 F   0  0  0  0  0  0  0  0  0  0  0  0
   -5.9100   20.5950  -31.6410 C   0  0  0  0  0  0  0  0  0  0  0  0
   -4.9139   20.1441  -31.5211 H   0  0  0  0  0  0  0  0  0  0  0  0
   -6.1200   21.9510  -31.3710 C   0  0  0  0  0  0  0  0  0  0  0  0
   -5.2260   22.8580  -30.9270 N   0  0  0  0  0  0  0  0  0  0  0  0
   -3.8340   22.6160  -30.6730 C   0  0  0  0  0  0  0  0  0  0  0  0
   -2.9830   22.9840  -31.5260 O   0  0  0  0  0  0  0  0  0  0  0  0
   -3.3570   21.9820  -29.4260 C   0  0  0  0  0  0  0  0  0  0  0  0
   -4.0225   21.2466  -28.9503 H   0  0  0  0  0  0  0  0  0  0  0  0
   -2.1840   22.2250  -28.8240 C   0  0  0  0  0  0  0  0  0  0  0  0
   -1.9403   21.6403  -27.9247 H   0  0  0  0  0  0  0  0  0  0  0  0
   -1.1780   23.2400  -29.2910 C   0  0  0  0  0  0  0  0  0  0  0  0
   -0.3327   23.2645  -28.5875 H   0  0  0  0  0  0  0  0  0  0  0  0
   -0.8230   22.9596  -30.2937 H   0  0  0  0  0  0  0  0  0  0  0  0
   -1.7670   24.5100  -29.3520 O   0  0  0  0  0  0  0  0  0  0  0  0
   -2.2500   24.5590  -30.2190 H   0  0  0  0  0  0  0  0  0  0  0  0
  1  2  1  0
  2  3  1  0
  3  4  2  0
  3  5  1  0
  5  6  2  0
  6  7  1  0
  6  8  1  0
  8  9  2  0
  9 10  1  0
  9 11  1  0
 11 12  1  0
 11 13  2  0
 13 14  1  0
 14 15  1  0
 14 16  1  0
 14 17  1  0
 13 18  1  0
 18 19  1  0
 18 20  2  0
 20 21  1  0
 21 22  1  0
 22 23  2  0
 22 24  1  0
 24 25  1  0
 24 26  2  0
 26 27  1  0
 26 28  1  0
 28 29  1  0
 28 30  1  0
 28 31  1  0
 31 32  1  0
 21  5  1  0
 20  8  1  0
M  CHG  1   2  -1
M  END
>  <UniqueID>  (53) 
53

>  <SMILES>  (53) 
[NH-]C(=O)c1cc2ccc(C(F)(F)F)cc2n1C(=O)/C=C\CO

>  <Energy>  (53) 
73.07398670133479

>  <Genealogy>  (53) 
[NH-]C(=O)c1cc2ccc(C(F)(F)F)cc2n1C(=O)C=CCO (protonated)
[NH-]C(=O)c1cc2ccc(C(F)(F)F)cc2n1C(=O)/C=C\CO (cis-trans isomerization)
[NH-]C(=O)c1cc2ccc(C(F)(F)F)cc2n1C(=O)/C=C\CO (3D coordinates assigned)
[NH-]C(=O)c1cc2ccc(C(F)(F)F)cc2n1C(=O)/C=C\CO (optimized conformer: 73.07398670133479 kcal/mol)

>  <smiles>  (53) 
NC(=O)c1cc2ccc(C(F)(F)F)cc2n1C(=O)C=CCO

>  <score_type>  (53) 
oracle

>  <origin>  (53) 
adg

>  <m_score__min__energy>  (53) 
-9.0999999999999996

>  <m_primary>  (53) 
energy

$$$$
53:0
     RDKit          3D

 33 34  0  0  0  0  0  0  0  0999 V2000
   -5.5920   23.6450  -30.2890 N   0  0  0  0  0  0  0  0  0  0  0  0
   -6.7080   23.1160  -31.0070 C   0  0  0  0  0  0  0  0  0  0  0  0
   -7.6760   23.8750  -31.2800 O   0  0  0  0  0  0  0  0  0  0  0  0
   -6.7490   21.6900  -31.4000 C   0  0  0  0  0  0  0  0  0  0  0  0
   -7.9240   20.9860  -31.6590 C   0  0  0  0  0  0  0  0  0  0  0  0
   -7.5180   19.7360  -32.0680 C   0  0  0  0  0  0  0  0  0  0  0  0
   -8.2710   18.6250  -32.4350 C   0  0  0  0  0  0  0  0  0  0  0  0
   -7.5860   17.4480  -32.7820 C   0  0  0  0  0  0  0  0  0  0  0  0
   -6.1700   17.4020  -32.7480 C   0  0  0  0  0  0  0  0  0  0  0  0
   -5.4400   16.1360  -33.1000 C   0  0  0  0  0  0  0  0  0  0  0  0
   -6.2760   15.3030  -33.8200 F   0  0  0  0  0  0  0  0  0  0  0  0
   -5.0390   15.4930  -31.9440 F   0  0  0  0  0  0  0  0  0  0  0  0
   -5.4380   18.5490  -32.3700 C   0  0  0  0  0  0  0  0  0  0  0  0
   -6.1470   19.7130  -32.0490 C   0  0  0  0  0  0  0  0  0  0  0  0
   -5.6600   20.9070  -31.6420 N   0  0  0  0  0  0  0  0  0  0  0  0
   -4.2800   21.2370  -31.4230 C   0  0  0  0  0  0  0  0  0  0  0  0
   -3.5280   21.4800  -32.4050 O   0  0  0  0  0  0  0  0  0  0  0  0
   -3.7740   21.2590  -30.1170 O   0  0  0  0  0  0  0  0  0  0  0  0
   -2.7340   22.1360  -29.6800 C   0  0  0  0  0  0  0  0  0  0  0  0
   -2.6100   23.2320  -30.5560 O   0  0  0  0  0  0  0  0  0  0  0  0
   -3.0250   24.6700  -29.7320 P   0  0  0  0  0  0  0  0  0  0  0  0
   -3.9080   24.3500  -28.5460 O   0  0  0  0  0  0  0  0  0  0  0  0
   -1.6410   25.4880  -29.2030 O   0  0  0  0  0  0  0  0  0  0  0  0
   -3.8770   25.6750  -30.7910 O   0  0  0  0  0  0  0  0  0  0  0  0
   -4.7460   23.0650  -30.0940 H   0  0  0  0  0  0  0  0  0  0  0  0
   -5.5920   24.6440  -29.9840 H   0  0  0  0  0  0  0  0  0  0  0  0
   -8.9565   21.3518  -31.5580 H   0  0  0  0  0  0  0  0  0  0  0  0
   -9.3701   18.6667  -32.4530 H   0  0  0  0  0  0  0  0  0  0  0  0
   -8.1537   16.5550  -33.0825 H   0  0  0  0  0  0  0  0  0  0  0  0
   -4.5568   16.3849  -33.7066 H   0  0  0  0  0  0  0  0  0  0  0  0
   -4.3390   18.5285  -32.3288 H   0  0  0  0  0  0  0  0  0  0  0  0
   -2.9717   22.5044  -28.6712 H   0  0  0  0  0  0  0  0  0  0  0  0
   -1.7839   21.5818  -29.6682 H   0  0  0  0  0  0  0  0  0  0  0  0
  1  2  1  0
  2  3  2  0
  2  4  1  0
  4  5  2  0
  5  6  1  0
  6  7  2  0
  7  8  1  0
  8  9  2  0
  9 10  1  0
 10 11  1  0
 10 12  1  0
  9 13  1  0
 13 14  2  0
 14 15  1  0
 15 16  1  0
 16 17  2  0
 16 18  1  0
 18 19  1  0
 19 20  1  0
 20 21  1  0
 21 22  2  0
 21 23  1  0
 21 24  1  0
 15  4  1  0
 14  6  1  0
  1 25  1  0
  1 26  1  0
  5 27  1  0
  7 28  1  0
  8 29  1  0
 10 30  1  0
 13 31  1  0
 19 32  1  0
 19 33  1  0
M  CHG  2  23  -1  24  -1
M  END
>  <UniqueID>  (54) 
54

>  <SMILES>  (54) 
NC(=O)c1cc2ccc(C(F)F)cc2n1C(=O)OCOP(=O)([O-])[O-]

>  <Energy>  (54) 
72.09054762882552

>  <Genealogy>  (54) 
NC(=O)c1cc2ccc(C(F)F)cc2n1C(=O)OCOP(=O)([O-])[O-] (protonated)
NC(=O)c1cc2ccc(C(F)F)cc2n1C(=O)OCOP(=O)([O-])[O-] (3D coordinates assigned)
NC(=O)c1cc2ccc(C(F)F)cc2n1C(=O)OCOP(=O)([O-])[O-] (optimized conformer: 72.09054762882552 kcal/mol)

>  <smiles>  (54) 
NC(=O)c1cc2ccc(C(F)F)cc2n1C(=O)OCOP(=O)(O)O

>  <score_type>  (54) 
oracle

>  <origin>  (54) 
adg

>  <m_score__min__energy>  (54) 
-12.07

>  <m_primary>  (54) 
energy

$$$$
54:0
     RDKit          3D

 33 34  0  0  0  0  0  0  0  0999 V2000
   -1.4650   25.4120  -28.1620 C   0  0  0  0  0  0  0  0  0  0  0  0
   -2.2000   25.1370  -29.3330 O   0  0  0  0  0  0  0  0  0  0  0  0
   -2.2720   23.7390  -29.5310 C   0  0  0  0  0  0  0  0  0  0  0  0
   -3.1240   23.4360  -30.6350 O   0  0  0  0  0  0  0  0  0  0  0  0
   -4.0230   22.3650  -30.6310 C   0  0  0  0  0  0  0  0  0  0  0  0
   -3.6100   21.1920  -30.4270 O   0  0  0  0  0  0  0  0  0  0  0  0
   -5.4220   22.6070  -30.8520 N   0  0  0  0  0  0  0  0  0  0  0  0
   -6.0780   23.7970  -30.7520 C   0  0  0  0  0  0  0  0  0  0  0  0
   -5.5140   25.0550  -30.2230 C   0  0  0  0  0  0  0  0  0  0  0  0
   -4.2270   25.5180  -30.6320 N   0  0  0  0  0  0  0  0  0  0  0  0
   -6.1600   25.7070  -29.3580 O   0  0  0  0  0  0  0  0  0  0  0  0
   -7.3980   23.6700  -31.1750 C   0  0  0  0  0  0  0  0  0  0  0  0
   -7.5390   22.3480  -31.5290 C   0  0  0  0  0  0  0  0  0  0  0  0
   -8.6480   21.6710  -32.0270 C   0  0  0  0  0  0  0  0  0  0  0  0
   -8.5010   20.3110  -32.3430 C   0  0  0  0  0  0  0  0  0  0  0  0
   -7.2510   19.6610  -32.1880 C   0  0  0  0  0  0  0  0  0  0  0  0
   -7.1250   18.1950  -32.5130 C   0  0  0  0  0  0  0  0  0  0  0  0
   -6.1650   17.5940  -31.7200 F   0  0  0  0  0  0  0  0  0  0  0  0
   -8.3380   17.5740  -32.2980 F   0  0  0  0  0  0  0  0  0  0  0  0
   -6.7620   18.0260  -33.8360 F   0  0  0  0  0  0  0  0  0  0  0  0
   -6.1520   20.3780  -31.6600 C   0  0  0  0  0  0  0  0  0  0  0  0
   -6.3330   21.7270  -31.3300 C   0  0  0  0  0  0  0  0  0  0  0  0
   -2.0807   25.1816  -27.2801 H   0  0  0  0  0  0  0  0  0  0  0  0
   -0.5556   24.7933  -28.1461 H   0  0  0  0  0  0  0  0  0  0  0  0
   -1.1851   26.4757  -28.1461 H   0  0  0  0  0  0  0  0  0  0  0  0
   -1.2635   23.3493  -29.7338 H   0  0  0  0  0  0  0  0  0  0  0  0
   -2.6829   23.2710  -28.6243 H   0  0  0  0  0  0  0  0  0  0  0  0
   -3.6030   24.9230  -31.2200 H   0  0  0  0  0  0  0  0  0  0  0  0
   -3.8610   26.4290  -30.2770 H   0  0  0  0  0  0  0  0  0  0  0  0
   -8.1644   24.4580  -31.2172 H   0  0  0  0  0  0  0  0  0  0  0  0
   -9.6099   22.1854  -32.1687 H   0  0  0  0  0  0  0  0  0  0  0  0
   -9.3663   19.7430  -32.7154 H   0  0  0  0  0  0  0  0  0  0  0  0
   -5.1784   19.8878  -31.5121 H   0  0  0  0  0  0  0  0  0  0  0  0
  1  2  1  0
  2  3  1  0
  3  4  1  0
  4  5  1  0
  5  6  2  0
  5  7  1  0
  7  8  1  0
  8  9  1  0
  9 10  1  0
  9 11  2  0
  8 12  2  0
 12 13  1  0
 13 14  2  0
 14 15  1  0
 15 16  2  0
 16 17  1  0
 17 18  1  0
 17 19  1  0
 17 20  1  0
 16 21  1  0
 21 22  2  0
 22  7  1  0
 22 13  1  0
  1 23  1  0
  1 24  1  0
  1 25  1  0
  3 26  1  0
  3 27  1  0
 10 28  1  0
 10 29  1  0
 12 30  1  0
 14 31  1  0
 15 32  1  0
 21 33  1  0
M  END
>  <UniqueID>  (55) 
55

>  <SMILES>  (55) 
COCOC(=O)n1c(C(N)=O)cc2ccc(C(F)(F)F)cc21

>  <Energy>  (55) 
73.07520207110214

>  <Genealogy>  (55) 
COCOC(=O)n1c(C(N)=O)cc2ccc(C(F)(F)F)cc21 (3D coordinates assigned)
COCOC(=O)n1c(C(N)=O)cc2ccc(C(F)(F)F)cc21 (optimized conformer: 73.07520207110214 kcal/mol)

>  <smiles>  (55) 
COCOC(=O)n1c(C(N)=O)cc2ccc(C(F)(F)F)cc21

>  <score_type>  (55) 
oracle

>  <origin>  (55) 
adg

>  <m_score__min__energy>  (55) 
-7.5700000000000003

>  <m_primary>  (55) 
energy

$$$$
55:0
     RDKit          3D

 39 40  0  0  0  0  0  0  0  0999 V2000
   -0.0260   25.1570  -27.7250 C   0  0  0  0  0  0  0  0  0  0  0  0
   -1.4620   25.6050  -28.0080 C   0  0  0  0  0  0  0  0  0  0  0  0
   -2.4130   25.2000  -26.8770 C   0  0  0  0  0  0  0  0  0  0  0  0
   -1.9270   25.0990  -29.3000 N   0  0  0  0  0  0  0  0  0  0  0  0
   -2.0650   23.7220  -29.6720 C   0  0  0  0  0  0  0  0  0  0  0  0
   -1.0900   23.0830  -30.1490 O   0  0  0  0  0  0  0  0  0  0  0  0
   -3.3830   23.0380  -29.4800 C   0  0  0  0  0  0  0  0  0  0  0  0
   -3.9780   22.6130  -30.7920 C   0  0  0  0  0  0  0  0  0  0  0  0
   -3.2480   22.1060  -31.6870 O   0  0  0  0  0  0  0  0  0  0  0  0
   -5.3740   22.8030  -31.0430 N   0  0  0  0  0  0  0  0  0  0  0  0
   -6.1060   23.9400  -30.8770 C   0  0  0  0  0  0  0  0  0  0  0  0
   -5.5700   25.2550  -30.4750 C   0  0  0  0  0  0  0  0  0  0  0  0
   -4.2390   25.6230  -30.8350 N   0  0  0  0  0  0  0  0  0  0  0  0
   -6.2690   26.0510  -29.7940 O   0  0  0  0  0  0  0  0  0  0  0  0
   -7.4440   23.7050  -31.1940 C   0  0  0  0  0  0  0  0  0  0  0  0
   -7.5040   22.3810  -31.5660 C   0  0  0  0  0  0  0  0  0  0  0  0
   -8.5850   21.6130  -31.9850 C   0  0  0  0  0  0  0  0  0  0  0  0
   -8.3520   20.2610  -32.2890 C   0  0  0  0  0  0  0  0  0  0  0  0
   -7.0560   19.6960  -32.1540 C   0  0  0  0  0  0  0  0  0  0  0  0
   -6.8210   18.2500  -32.5090 C   0  0  0  0  0  0  0  0  0  0  0  0
   -5.8420   17.7050  -31.6960 F   0  0  0  0  0  0  0  0  0  0  0  0
   -7.9960   17.5420  -32.3370 F   0  0  0  0  0  0  0  0  0  0  0  0
   -6.4090   18.1250  -33.8250 F   0  0  0  0  0  0  0  0  0  0  0  0
   -5.9770   20.5200  -31.7560 C   0  0  0  0  0  0  0  0  0  0  0  0
   -6.2400   21.8610  -31.4640 C   0  0  0  0  0  0  0  0  0  0  0  0
    0.1349   25.1068  -26.6380 H   0  0  0  0  0  0  0  0  0  0  0  0
    0.1420   24.1637  -28.1668 H   0  0  0  0  0  0  0  0  0  0  0  0
    0.6770   25.8785  -28.1668 H   0  0  0  0  0  0  0  0  0  0  0  0
   -1.4617   26.7039  -28.0569 H   0  0  0  0  0  0  0  0  0  0  0  0
   -1.9363   25.4030  -25.9067 H   0  0  0  0  0  0  0  0  0  0  0  0
   -3.3447   25.7794  -26.9562 H   0  0  0  0  0  0  0  0  0  0  0  0
   -2.6408   24.1268  -26.9562 H   0  0  0  0  0  0  0  0  0  0  0  0
   -3.2359   22.1488  -28.8493 H   0  0  0  0  0  0  0  0  0  0  0  0
   -4.0739   23.7474  -29.0010 H   0  0  0  0  0  0  0  0  0  0  0  0
   -3.4840   25.6730  -30.1170 H   0  0  0  0  0  0  0  0  0  0  0  0
   -8.2748   24.4249  -31.1550 H   0  0  0  0  0  0  0  0  0  0  0  0
   -9.5904   22.0500  -32.0756 H   0  0  0  0  0  0  0  0  0  0  0  0
   -9.1847   19.6317  -32.6363 H   0  0  0  0  0  0  0  0  0  0  0  0
   -4.9571   20.1154  -31.6784 H   0  0  0  0  0  0  0  0  0  0  0  0
  1  2  1  0
  2  3  1  0
  2  4  1  0
  4  5  1  0
  5  6  2  0
  5  7  1  0
  7  8  1  0
  8  9  2  0
  8 10  1  0
 10 11  1  0
 11 12  1  0
 12 13  1  0
 12 14  2  0
 11 15  2  0
 15 16  1  0
 16 17  2  0
 17 18  1  0
 18 19  2  0
 19 20  1  0
 20 21  1  0
 20 22  1  0
 20 23  1  0
 19 24  1  0
 24 25  2  0
 25 10  1  0
 25 16  1  0
  1 26  1  0
  1 27  1  0
  1 28  1  0
  2 29  1  0
  3 30  1  0
  3 31  1  0
  3 32  1  0
  7 33  1  0
  7 34  1  0
 13 35  1  0
 15 36  1  0
 17 37  1  0
 18 38  1  0
 24 39  1  0
M  CHG  2   4  -1  13  -1
M  END
>  <UniqueID>  (56) 
56

>  <SMILES>  (56) 
CC(C)[N-]C(=O)CC(=O)n1c(C([NH-])=O)cc2ccc(C(F)(F)F)cc21

>  <Energy>  (56) 
73.6967506909806

>  <Genealogy>  (56) 
CC(C)[N-]C(=O)CC(=O)n1c(C([NH-])=O)cc2ccc(C(F)(F)F)cc21 (protonated)
CC(C)[N-]C(=O)CC(=O)n1c(C([NH-])=O)cc2ccc(C(F)(F)F)cc21 (3D coordinates assigned)
CC(C)[N-]C(=O)CC(=O)n1c(C([NH-])=O)cc2ccc(C(F)(F)F)cc21 (optimized conformer: 73.6967506909806 kcal/mol)

>  <smiles>  (56) 
CC(C)NC(=O)CC(=O)n1c(C(N)=O)cc2ccc(C(F)(F)F)cc21

>  <score_type>  (56) 
oracle

>  <origin>  (56) 
adg

>  <m_score__min__energy>  (56) 
-11.460000000000001

>  <m_primary>  (56) 
energy

$$$$
56:0
     RDKit          3D

 41 43  0  0  0  0  0  0  0  0999 V2000
   -3.9510   25.6380  -30.8190 N   0  0  0  0  0  0  0  0  0  0  0  0
   -5.3270   25.3520  -30.5840 C   0  0  0  0  0  0  0  0  0  0  0  0
   -6.0570   26.2290  -30.0510 O   0  0  0  0  0  0  0  0  0  0  0  0
   -5.8860   24.0450  -30.9860 C   0  0  0  0  0  0  0  0  0  0  0  0
   -7.2240   23.8410  -31.3220 C   0  0  0  0  0  0  0  0  0  0  0  0
   -7.3360   22.4930  -31.5780 C   0  0  0  0  0  0  0  0  0  0  0  0
   -8.4420   21.7410  -31.9630 C   0  0  0  0  0  0  0  0  0  0  0  0
   -8.2600   20.3630  -32.1740 C   0  0  0  0  0  0  0  0  0  0  0  0
   -6.9840   19.7670  -32.0000 C   0  0  0  0  0  0  0  0  0  0  0  0
   -6.8100   18.2940  -32.2360 C   0  0  0  0  0  0  0  0  0  0  0  0
   -6.1290   17.7300  -31.1730 F   0  0  0  0  0  0  0  0  0  0  0  0
   -8.0480   17.6910  -32.3570 F   0  0  0  0  0  0  0  0  0  0  0  0
   -5.8850   20.5640  -31.6100 C   0  0  0  0  0  0  0  0  0  0  0  0
   -6.1010   21.9290  -31.3970 C   0  0  0  0  0  0  0  0  0  0  0  0
   -5.2020   22.8670  -31.0290 N   0  0  0  0  0  0  0  0  0  0  0  0
   -3.7990   22.6560  -30.8100 C   0  0  0  0  0  0  0  0  0  0  0  0
   -2.9970   22.8150  -31.7710 O   0  0  0  0  0  0  0  0  0  0  0  0
   -3.3070   22.2540  -29.5140 N   0  0  0  0  0  0  0  0  0  0  0  0
   -2.1560   21.3520  -29.4130 C   0  0  0  0  0  0  0  0  0  0  0  0
   -0.9840   22.0410  -28.7010 C   0  0  0  0  0  0  0  0  0  0  0  0
   -0.6850   23.4280  -29.3010 C   0  0  0  0  0  0  0  0  0  0  0  0
   -1.7920   24.3970  -29.1830 N   0  0  0  0  0  0  0  0  0  0  0  0
   -2.7690   24.1860  -28.0970 C   0  0  0  0  0  0  0  0  0  0  0  0
   -3.7160   22.9960  -28.3150 C   0  0  0  0  0  0  0  0  0  0  0  0
   -3.2400   24.8740  -30.8410 H   0  0  0  0  0  0  0  0  0  0  0  0
   -8.0213   24.5972  -31.3719 H   0  0  0  0  0  0  0  0  0  0  0  0
   -9.4277   22.2101  -32.0980 H   0  0  0  0  0  0  0  0  0  0  0  0
   -9.1150   19.7408  -32.4769 H   0  0  0  0  0  0  0  0  0  0  0  0
   -6.2366   18.1430  -33.1625 H   0  0  0  0  0  0  0  0  0  0  0  0
   -4.8861   20.1228  -31.4774 H   0  0  0  0  0  0  0  0  0  0  0  0
   -2.4480   20.4572  -28.8437 H   0  0  0  0  0  0  0  0  0  0  0  0
   -1.8368   21.0730  -30.4280 H   0  0  0  0  0  0  0  0  0  0  0  0
   -1.2346   22.1601  -27.6366 H   0  0  0  0  0  0  0  0  0  0  0  0
   -0.0898   21.4133  -28.8291 H   0  0  0  0  0  0  0  0  0  0  0  0
    0.1924   23.8441  -28.7843 H   0  0  0  0  0  0  0  0  0  0  0  0
   -0.5172   23.2740  -30.3772 H   0  0  0  0  0  0  0  0  0  0  0  0
   -2.3160   24.4120  -30.0900 H   0  0  0  0  0  0  0  0  0  0  0  0
   -2.2133   24.0164  -27.1630 H   0  0  0  0  0  0  0  0  0  0  0  0
   -3.4000   25.0864  -28.0643 H   0  0  0  0  0  0  0  0  0  0  0  0
   -3.6743   22.3301  -27.4405 H   0  0  0  0  0  0  0  0  0  0  0  0
   -4.7433   23.3663  -28.4474 H   0  0  0  0  0  0  0  0  0  0  0  0
  1  2  1  0
  2  3  2  0
  2  4  1  0
  4  5  2  0
  5  6  1  0
  6  7  2  0
  7  8  1  0
  8  9  2  0
  9 10  1  0
 10 11  1  0
 10 12  1  0
  9 13  1  0
 13 14  2  0
 14 15  1  0
 15 16  1  0
 16 17  2  0
 16 18  1  0
 18 19  1  0
 19 20  1  0
 20 21  1  0
 21 22  1  0
 22 23  1  0
 23 24  1  0
 15  4  1  0
 24 18  1  0
 14  6  1  0
  1 25  1  0
  5 26  1  0
  7 27  1  0
  8 28  1  0
 10 29  1  0
 13 30  1  0
 19 31  1  0
 19 32  1  0
 20 33  1  0
 20 34  1  0
 21 35  1  0
 21 36  1  0
 22 37  1  0
 23 38  1  0
 23 39  1  0
 24 40  1  0
 24 41  1  0
M  CHG  1   1  -1
M  END
>  <UniqueID>  (57) 
57

>  <SMILES>  (57) 
[NH-]C(=O)c1cc2ccc(C(F)F)cc2n1C(=O)N1CCCNCC1

>  <Energy>  (57) 
87.98750327625545

>  <Genealogy>  (57) 
[NH-]C(=O)c1cc2ccc(C(F)F)cc2n1C(=O)N1CCCNCC1 (protonated)
[NH-]C(=O)c1cc2ccc(C(F)F)cc2n1C(=O)N1CCCNCC1 (3D coordinates assigned)
[NH-]C(=O)c1cc2ccc(C(F)F)cc2n1C(=O)N1CCCNCC1 (nonaromatic ring conformer: 87.98750327625545 kcal/mol)

>  <smiles>  (57) 
NC(=O)c1cc2ccc(C(F)F)cc2n1C(=O)N1CCCNCC1

>  <score_type>  (57) 
oracle

>  <origin>  (57) 
adg

>  <m_score__min__energy>  (57) 
-8.6400000000000006

>  <m_primary>  (57) 
energy

$$$$
57:0
     RDKit          3D

 33 34  0  0  0  0  0  0  0  0999 V2000
   -3.9100   25.5740  -30.8470 N   0  0  0  0  0  0  0  0  0  0  0  0
   -5.2780   25.2670  -30.5940 C   0  0  0  0  0  0  0  0  0  0  0  0
   -5.9630   26.0460  -29.8770 O   0  0  0  0  0  0  0  0  0  0  0  0
   -5.8870   24.0240  -31.1120 C   0  0  0  0  0  0  0  0  0  0  0  0
   -7.2640   23.8300  -31.2130 C   0  0  0  0  0  0  0  0  0  0  0  0
   -7.4190   22.5340  -31.6450 C   0  0  0  0  0  0  0  0  0  0  0  0
   -8.5780   21.8190  -31.9310 C   0  0  0  0  0  0  0  0  0  0  0  0
   -8.4410   20.5000  -32.3950 C   0  0  0  0  0  0  0  0  0  0  0  0
   -7.1570   19.9250  -32.5650 C   0  0  0  0  0  0  0  0  0  0  0  0
   -7.0230   18.5330  -33.1090 C   0  0  0  0  0  0  0  0  0  0  0  0
   -6.4950   17.4300  -31.8160 Cl  0  0  0  0  0  0  0  0  0  0  0  0
   -6.0030   20.6860  -32.2770 C   0  0  0  0  0  0  0  0  0  0  0  0
   -6.1700   21.9900  -31.7970 C   0  0  0  0  0  0  0  0  0  0  0  0
   -5.2170   22.8940  -31.4780 N   0  0  0  0  0  0  0  0  0  0  0  0
   -3.7980   22.7080  -31.5930 C   0  0  0  0  0  0  0  0  0  0  0  0
   -3.3320   22.0230  -32.5440 O   0  0  0  0  0  0  0  0  0  0  0  0
   -2.9490   23.2700  -30.6290 O   0  0  0  0  0  0  0  0  0  0  0  0
   -2.9550   22.9490  -29.2660 C   0  0  0  0  0  0  0  0  0  0  0  0
   -2.8460   21.7520  -28.8780 O   0  0  0  0  0  0  0  0  0  0  0  0
   -3.0850   23.9840  -28.3340 O   0  0  0  0  0  0  0  0  0  0  0  0
   -1.9850   24.5320  -27.6120 C   0  0  0  0  0  0  0  0  0  0  0  0
   -0.9620   25.0770  -28.5570 C   0  0  0  0  0  0  0  0  0  0  0  0
   -1.2510   26.0330  -29.3240 O   0  0  0  0  0  0  0  0  0  0  0  0
    0.3210   24.5470  -28.5710 O   0  0  0  0  0  0  0  0  0  0  0  0
   -3.1650   25.3130  -30.1620 H   0  0  0  0  0  0  0  0  0  0  0  0
   -8.0579   24.5591  -30.9936 H   0  0  0  0  0  0  0  0  0  0  0  0
   -9.5712   22.2727  -31.7978 H   0  0  0  0  0  0  0  0  0  0  0  0
   -9.3385   19.9083  -32.6284 H   0  0  0  0  0  0  0  0  0  0  0  0
   -7.9951   18.1985  -33.5003 H   0  0  0  0  0  0  0  0  0  0  0  0
   -6.2773   18.5288  -33.9176 H   0  0  0  0  0  0  0  0  0  0  0  0
   -4.9980   20.2645  -32.4262 H   0  0  0  0  0  0  0  0  0  0  0  0
   -2.3458   25.3423  -26.9614 H   0  0  0  0  0  0  0  0  0  0  0  0
   -1.5244   23.7380  -27.0059 H   0  0  0  0  0  0  0  0  0  0  0  0
  1  2  1  0
  2  3  2  0
  2  4  1  0
  4  5  2  0
  5  6  1  0
  6  7  2  0
  7  8  1  0
  8  9  2  0
  9 10  1  0
 10 11  1  0
  9 12  1  0
 12 13  2  0
 13 14  1  0
 14 15  1  0
 15 16  2  0
 15 17  1  0
 17 18  1  0
 18 19  2  0
 18 20  1  0
 20 21  1  0
 21 22  1  0
 22 23  2  0
 22 24  1  0
 14  4  1  0
 13  6  1  0
  1 25  1  0
  5 26  1  0
  7 27  1  0
  8 28  1  0
 10 29  1  0
 10 30  1  0
 12 31  1  0
 21 32  1  0
 21 33  1  0
M  CHG  2   1  -1  24  -1
M  END
>  <UniqueID>  (58) 
58

>  <SMILES>  (58) 
[NH-]C(=O)c1cc2ccc(CCl)cc2n1C(=O)OC(=O)OCC(=O)[O-]

>  <Energy>  (58) 
70.59678134419352

>  <Genealogy>  (58) 
[NH-]C(=O)c1cc2ccc(CCl)cc2n1C(=O)OC(=O)OCC(=O)[O-] (protonated)
[NH-]C(=O)c1cc2ccc(CCl)cc2n1C(=O)OC(=O)OCC(=O)[O-] (3D coordinates assigned)
[NH-]C(=O)c1cc2ccc(CCl)cc2n1C(=O)OC(=O)OCC(=O)[O-] (optimized conformer: 70.59678134419352 kcal/mol)

>  <smiles>  (58) 
NC(=O)c1cc2ccc(CCl)cc2n1C(=O)OC(=O)OCC(=O)O

>  <score_type>  (58) 
oracle

>  <origin>  (58) 
adg

>  <m_score__min__energy>  (58) 
-12.279999999999999

>  <m_primary>  (58) 
energy

$$$$
58:0
     RDKit          3D

 39 41  0  0  0  0  0  0  0  0999 V2000
   -5.9250   25.3140  -28.9770 N   0  0  0  0  0  0  0  0  0  0  0  0
   -5.4450   24.9260  -30.2660 C   0  0  0  0  0  0  0  0  0  0  0  0
   -4.5970   25.6510  -30.8500 O   0  0  0  0  0  0  0  0  0  0  0  0
   -5.8880   23.6700  -30.9050 C   0  0  0  0  0  0  0  0  0  0  0  0
   -7.2260   23.3180  -31.0710 C   0  0  0  0  0  0  0  0  0  0  0  0
   -7.2050   22.0950  -31.7020 C   0  0  0  0  0  0  0  0  0  0  0  0
   -8.2540   21.2600  -32.0710 C   0  0  0  0  0  0  0  0  0  0  0  0
   -7.9370   20.0190  -32.6510 C   0  0  0  0  0  0  0  0  0  0  0  0
   -6.5860   19.6370  -32.8540 C   0  0  0  0  0  0  0  0  0  0  0  0
   -6.2570   18.2760  -33.4130 C   0  0  0  0  0  0  0  0  0  0  0  0
   -7.3110   17.4170  -33.1690 F   0  0  0  0  0  0  0  0  0  0  0  0
   -6.0410   18.3500  -34.7790 F   0  0  0  0  0  0  0  0  0  0  0  0
   -5.1130   17.7690  -32.8210 F   0  0  0  0  0  0  0  0  0  0  0  0
   -5.5480   20.5030  -32.4360 C   0  0  0  0  0  0  0  0  0  0  0  0
   -5.8930   21.7420  -31.8890 C   0  0  0  0  0  0  0  0  0  0  0  0
   -5.0730   22.7030  -31.4100 N   0  0  0  0  0  0  0  0  0  0  0  0
   -3.6420   22.6310  -31.3060 C   0  0  0  0  0  0  0  0  0  0  0  0
   -2.9800   22.1990  -32.2860 O   0  0  0  0  0  0  0  0  0  0  0  0
   -2.9650   23.0280  -30.0480 C   0  0  0  0  0  0  0  0  0  0  0  0
   -2.6300   24.2370  -29.9080 O   0  0  0  0  0  0  0  0  0  0  0  0
   -2.6730   22.0960  -28.9860 N   0  0  0  0  0  0  0  0  0  0  0  0
   -1.8850   22.4750  -27.8240 C   0  0  0  0  0  0  0  0  0  0  0  0
   -1.6230   21.1830  -27.0620 C   0  0  0  0  0  0  0  0  0  0  0  0
   -2.6400   20.1760  -27.5870 C   0  0  0  0  0  0  0  0  0  0  0  0
   -3.0880   20.7030  -28.9450 C   0  0  0  0  0  0  0  0  0  0  0  0
   -6.4690   24.6540  -28.3800 H   0  0  0  0  0  0  0  0  0  0  0  0
   -5.6460   26.2360  -28.5720 H   0  0  0  0  0  0  0  0  0  0  0  0
   -8.1107   23.8948  -30.7633 H   0  0  0  0  0  0  0  0  0  0  0  0
   -9.3002   21.5613  -31.9139 H   0  0  0  0  0  0  0  0  0  0  0  0
   -8.7459   19.3365  -32.9508 H   0  0  0  0  0  0  0  0  0  0  0  0
   -4.4934   20.2078  -32.5392 H   0  0  0  0  0  0  0  0  0  0  0  0
   -0.9359   22.9340  -28.1378 H   0  0  0  0  0  0  0  0  0  0  0  0
   -2.4111   23.2133  -27.2010 H   0  0  0  0  0  0  0  0  0  0  0  0
   -0.5994   20.8276  -27.2516 H   0  0  0  0  0  0  0  0  0  0  0  0
   -1.7205   21.3273  -25.9759 H   0  0  0  0  0  0  0  0  0  0  0  0
   -2.1757   19.1847  -27.6956 H   0  0  0  0  0  0  0  0  0  0  0  0
   -3.4896   20.0636  -26.8974 H   0  0  0  0  0  0  0  0  0  0  0  0
   -2.6053   20.1355  -29.7543 H   0  0  0  0  0  0  0  0  0  0  0  0
   -4.1747   20.6002  -29.0807 H   0  0  0  0  0  0  0  0  0  0  0  0
  1  2  1  0
  2  3  2  0
  2  4  1  0
  4  5  2  0
  5  6  1  0
  6  7  2  0
  7  8  1  0
  8  9  2  0
  9 10  1  0
 10 11  1  0
 10 12  1  0
 10 13  1  0
  9 14  1  0
 14 15  2  0
 15 16  1  0
 16 17  1  0
 17 18  2  0
 17 19  1  0
 19 20  2  0
 19 21  1  0
 21 22  1  0
 22 23  1  0
 23 24  1  0
 24 25  1  0
 16  4  1  0
 25 21  1  0
 15  6  1  0
  1 26  1  0
  1 27  1  0
  5 28  1  0
  7 29  1  0
  8 30  1  0
 14 31  1  0
 22 32  1  0
 22 33  1  0
 23 34  1  0
 23 35  1  0
 24 36  1  0
 24 37  1  0
 25 38  1  0
 25 39  1  0
M  END
>  <UniqueID>  (59) 
59

>  <SMILES>  (59) 
NC(=O)c1cc2ccc(C(F)(F)F)cc2n1C(=O)C(=O)N1CCCC1

>  <Energy>  (59) 
81.89805184527347

>  <Genealogy>  (59) 
NC(=O)c1cc2ccc(C(F)(F)F)cc2n1C(=O)C(=O)N1CCCC1 (3D coordinates assigned)
NC(=O)c1cc2ccc(C(F)(F)F)cc2n1C(=O)C(=O)N1CCCC1 (nonaromatic ring conformer: 81.89805184527347 kcal/mol)

>  <smiles>  (59) 
NC(=O)c1cc2ccc(C(F)(F)F)cc2n1C(=O)C(=O)N1CCCC1

>  <score_type>  (59) 
oracle

>  <origin>  (59) 
adg

>  <m_score__min__energy>  (59) 
-9

>  <m_primary>  (59) 
energy

$$$$
59:0
     RDKit          3D

 39 40  0  0  0  0  0  0  0  0999 V2000
   -3.2770   21.4530  -28.6800 C   0  0  0  0  0  0  0  0  0  0  0  0
   -3.2350   22.6190  -29.3480 C   0  0  0  0  0  0  0  0  0  0  0  0
   -3.7700   22.6350  -30.7410 C   0  0  0  0  0  0  0  0  0  0  0  0
   -2.9740   22.5670  -31.7190 O   0  0  0  0  0  0  0  0  0  0  0  0
   -5.1760   22.7390  -31.0060 N   0  0  0  0  0  0  0  0  0  0  0  0
   -5.9830   23.8190  -30.8130 C   0  0  0  0  0  0  0  0  0  0  0  0
   -5.5450   25.1200  -30.2530 C   0  0  0  0  0  0  0  0  0  0  0  0
   -6.1570   25.6630  -29.0810 N   0  0  0  0  0  0  0  0  0  0  0  0
   -4.6120   25.7610  -30.8040 O   0  0  0  0  0  0  0  0  0  0  0  0
   -7.2970   23.5080  -31.1680 C   0  0  0  0  0  0  0  0  0  0  0  0
   -7.2640   22.1900  -31.5700 C   0  0  0  0  0  0  0  0  0  0  0  0
   -8.2910   21.3570  -32.0040 C   0  0  0  0  0  0  0  0  0  0  0  0
   -7.9660   20.0310  -32.3390 C   0  0  0  0  0  0  0  0  0  0  0  0
   -6.6290   19.5650  -32.2460 C   0  0  0  0  0  0  0  0  0  0  0  0
   -6.3090   18.1250  -32.5590 C   0  0  0  0  0  0  0  0  0  0  0  0
   -4.9390   17.9330  -32.5980 F   0  0  0  0  0  0  0  0  0  0  0  0
   -6.8450   17.7960  -33.7900 F   0  0  0  0  0  0  0  0  0  0  0  0
   -6.8370   17.2820  -31.5980 F   0  0  0  0  0  0  0  0  0  0  0  0
   -5.6200   20.4360  -31.7750 C   0  0  0  0  0  0  0  0  0  0  0  0
   -5.9730   21.7490  -31.4530 C   0  0  0  0  0  0  0  0  0  0  0  0
   -2.4740   23.8390  -28.7940 C   0  0  0  0  0  0  0  0  0  0  0  0
   -3.0170   24.3470  -27.4350 C   0  0  0  0  0  0  0  0  0  0  0  0
   -0.9990   23.4520  -28.6170 C   0  0  0  0  0  0  0  0  0  0  0  0
   -2.5270   24.9060  -29.7090 O   0  0  0  0  0  0  0  0  0  0  0  0
   -2.8936   21.3947  -27.6506 H   0  0  0  0  0  0  0  0  0  0  0  0
   -3.6947   20.5573  -29.1628 H   0  0  0  0  0  0  0  0  0  0  0  0
   -6.9530   25.1850  -28.6050 H   0  0  0  0  0  0  0  0  0  0  0  0
   -5.8220   26.5700  -28.6880 H   0  0  0  0  0  0  0  0  0  0  0  0
   -8.1724   24.1733  -31.1341 H   0  0  0  0  0  0  0  0  0  0  0  0
   -9.3247   21.7247  -32.0824 H   0  0  0  0  0  0  0  0  0  0  0  0
   -8.7577   19.3464  -32.6773 H   0  0  0  0  0  0  0  0  0  0  0  0
   -4.5822   20.0885  -31.6647 H   0  0  0  0  0  0  0  0  0  0  0  0
   -2.4811   23.8457  -26.6155 H   0  0  0  0  0  0  0  0  0  0  0  0
   -2.8641   25.4339  -27.3622 H   0  0  0  0  0  0  0  0  0  0  0  0
   -4.0913   24.1222  -27.3622 H   0  0  0  0  0  0  0  0  0  0  0  0
   -0.7624   23.3899  -27.5446 H   0  0  0  0  0  0  0  0  0  0  0  0
   -0.8168   22.4757  -29.0898 H   0  0  0  0  0  0  0  0  0  0  0  0
   -0.3609   24.2131  -29.0898 H   0  0  0  0  0  0  0  0  0  0  0  0
   -2.8040   24.5360  -30.5890 H   0  0  0  0  0  0  0  0  0  0  0  0
  1  2  2  0
  2  3  1  0
  3  4  2  0
  3  5  1  0
  5  6  1  0
  6  7  1  0
  7  8  1  0
  7  9  2  0
  6 10  2  0
 10 11  1  0
 11 12  2  0
 12 13  1  0
 13 14  2  0
 14 15  1  0
 15 16  1  0
 15 17  1  0
 15 18  1  0
 14 19  1  0
 19 20  2  0
  2 21  1  0
 21 22  1  0
 21 23  1  0
 21 24  1  0
 20  5  1  0
 20 11  1  0
  1 25  1  0
  1 26  1  0
  8 27  1  0
  8 28  1  0
 10 29  1  0
 12 30  1  0
 13 31  1  0
 19 32  1  0
 22 33  1  0
 22 34  1  0
 22 35  1  0
 23 36  1  0
 23 37  1  0
 23 38  1  0
 24 39  1  0
M  END
>  <UniqueID>  (60) 
60

>  <SMILES>  (60) 
C=C(C(=O)n1c(C(N)=O)cc2ccc(C(F)(F)F)cc21)C(C)(C)O

>  <Energy>  (60) 
82.752560388969

>  <Genealogy>  (60) 
C=C(C(=O)n1c(C(N)=O)cc2ccc(C(F)(F)F)cc21)C(C)(C)O (3D coordinates assigned)
C=C(C(=O)n1c(C(N)=O)cc2ccc(C(F)(F)F)cc21)C(C)(C)O (optimized conformer: 82.752560388969 kcal/mol)

>  <smiles>  (60) 
C=C(C(=O)n1c(C(N)=O)cc2ccc(C(F)(F)F)cc21)C(C)(C)O

>  <score_type>  (60) 
oracle

>  <origin>  (60) 
adg

>  <m_score__min__energy>  (60) 
-8.9399999999999995

>  <m_primary>  (60) 
energy

$$$$
60:0
     RDKit          3D

 52 55  0  0  0  0  0  0  0  0999 V2000
   -6.4730   15.5450  -34.5000 C   0  0  0  0  0  0  0  0  0  0  0  0
   -5.5820   16.6950  -34.2410 N   0  0  1  0  0  0  0  0  0  0  0  0
   -6.1110   17.9430  -34.8550 C   0  0  0  0  0  0  0  0  0  0  0  0
   -6.6420   18.9600  -33.8220 C   0  0  1  0  0  0  0  0  0  0  0  0
   -7.3990   18.2670  -32.6810 C   0  0  0  0  0  0  0  0  0  0  0  0
   -6.5240   17.2390  -31.9580 C   0  0  0  0  0  0  0  0  0  0  0  0
   -5.2860   16.8330  -32.7890 C   0  0  2  0  0  0  0  0  0  0  0  0
   -4.0970   17.7910  -32.5440 C   0  0  0  0  0  0  0  0  0  0  0  0
   -4.3920   19.2380  -32.6200 N   0  0  0  0  0  0  0  0  0  0  0  0
   -3.3910   20.1200  -32.0790 C   0  0  0  0  0  0  0  0  0  0  0  0
   -2.0690   20.0900  -32.5870 C   0  0  0  0  0  0  0  0  0  0  0  0
   -1.0810   20.9360  -32.0580 C   0  0  0  0  0  0  0  0  0  0  0  0
   -1.4430   21.8080  -31.0370 C   0  0  0  0  0  0  0  0  0  0  0  0
   -0.6860   22.7250  -30.3480 C   0  0  0  0  0  0  0  0  0  0  0  0
   -1.5640   23.3320  -29.4580 C   0  0  0  0  0  0  0  0  0  0  0  0
   -1.1870   24.4640  -28.5850 C   0  0  0  0  0  0  0  0  0  0  0  0
   -1.5760   25.7910  -28.9430 N   0  0  0  0  0  0  0  0  0  0  0  0
   -0.5640   24.2690  -27.5020 O   0  0  0  0  0  0  0  0  0  0  0  0
   -2.8160   22.8020  -29.5800 N   0  0  0  0  0  0  0  0  0  0  0  0
   -3.9890   23.1350  -28.8210 C   0  0  0  0  0  0  0  0  0  0  0  0
   -3.8840   23.4290  -27.5990 O   0  0  0  0  0  0  0  0  0  0  0  0
   -5.2450   23.1320  -29.4400 O   0  0  0  0  0  0  0  0  0  0  0  0
   -5.5250   23.8280  -30.6550 C   0  0  0  0  0  0  0  0  0  0  0  0
   -4.9040   25.1890  -30.6300 C   0  0  0  0  0  0  0  0  0  0  0  0
   -5.6320   26.2120  -30.5250 O   0  0  0  0  0  0  0  0  0  0  0  0
   -3.5310   25.3300  -30.7680 O   0  0  0  0  0  0  0  0  0  0  0  0
   -2.7240   21.8700  -30.5530 C   0  0  0  0  0  0  0  0  0  0  0  0
   -3.7230   21.0210  -31.0430 C   0  0  0  0  0  0  0  0  0  0  0  0
   -5.5360   19.8900  -33.2950 C   0  0  0  0  0  0  0  0  0  0  0  0
   -6.8054   15.1159  -33.5432 H   0  0  0  0  0  0  0  0  0  0  0  0
   -7.3484   15.8816  -35.0748 H   0  0  0  0  0  0  0  0  0  0  0  0
   -5.9284   14.7814  -35.0748 H   0  0  0  0  0  0  0  0  0  0  0  0
   -4.6820   16.4610  -34.7270 H   0  0  0  0  0  0  0  0  0  0  0  0
   -5.3019   18.4191  -35.4283 H   0  0  0  0  0  0  0  0  0  0  0  0
   -6.9603   17.6555  -35.4922 H   0  0  0  0  0  0  0  0  0  0  0  0
   -7.3636   19.6005  -34.3502 H   0  0  0  0  0  0  0  0  0  0  0  0
   -7.7258   19.0280  -31.9571 H   0  0  0  0  0  0  0  0  0  0  0  0
   -8.2600   17.7374  -33.1148 H   0  0  0  0  0  0  0  0  0  0  0  0
   -6.1841   17.6716  -31.0055 H   0  0  0  0  0  0  0  0  0  0  0  0
   -7.1308   16.3359  -31.7959 H   0  0  0  0  0  0  0  0  0  0  0  0
   -4.9933   15.8334  -32.4352 H   0  0  0  0  0  0  0  0  0  0  0  0
   -3.7008   17.5826  -31.5392 H   0  0  0  0  0  0  0  0  0  0  0  0
   -3.3893   17.5937  -33.3627 H   0  0  0  0  0  0  0  0  0  0  0  0
   -1.8142   19.3979  -33.4031 H   0  0  0  0  0  0  0  0  0  0  0  0
   -0.0499   20.9097  -32.4404 H   0  0  0  0  0  0  0  0  0  0  0  0
    0.3866   22.9340  -30.4741 H   0  0  0  0  0  0  0  0  0  0  0  0
   -2.5850   26.0610  -28.9680 H   0  0  0  0  0  0  0  0  0  0  0  0
   -5.1156   23.2581  -31.5021 H   0  0  0  0  0  0  0  0  0  0  0  0
   -6.6145   23.9343  -30.7630 H   0  0  0  0  0  0  0  0  0  0  0  0
   -4.7424   21.0546  -30.6311 H   0  0  0  0  0  0  0  0  0  0  0  0
   -5.9969   20.5839  -32.5766 H   0  0  0  0  0  0  0  0  0  0  0  0
   -5.1112   20.3725  -34.1876 H   0  0  0  0  0  0  0  0  0  0  0  0
  1  2  1  0
  2  3  1  0
  3  4  1  0
  4  5  1  0
  5  6  1  0
  6  7  1  0
  7  8  1  0
  8  9  1  0
  9 10  1  0
 10 11  2  0
 11 12  1  0
 12 13  2  0
 13 14  1  0
 14 15  2  0
 15 16  1  0
 16 17  1  0
 16 18  2  0
 15 19  1  0
 19 20  1  0
 20 21  2  0
 20 22  1  0
 22 23  1  0
 23 24  1  0
 24 25  2  0
 24 26  1  0
 19 27  1  0
 27 28  2  0
  9 29  1  0
  7  2  1  0
 28 10  1  0
 29  4  1  0
 27 13  1  0
  1 30  1  0
  1 31  1  0
  1 32  1  0
  2 33  1  6
  3 34  1  0
  3 35  1  0
  4 36  1  6
  5 37  1  0
  5 38  1  0
  6 39  1  0
  6 40  1  0
  7 41  1  1
  8 42  1  0
  8 43  1  0
 11 44  1  0
 12 45  1  0
 14 46  1  0
 17 47  1  0
 23 48  1  0
 23 49  1  0
 28 50  1  0
 29 51  1  0
 29 52  1  0
M  CHG  3   2   1  17  -1  26  -1
M  END
>  <UniqueID>  (61) 
61

>  <SMILES>  (61) 
C[N@H+]1C[C@H]2CCC1CN(c1ccc3cc(C([NH-])=O)n(C(=O)OCC(=O)[O-])c3c1)C2

>  <Energy>  (61) 
114.83352628792377

>  <Genealogy>  (61) 
C[NH+]1CC2CCC1CN(c1ccc3cc(C([NH-])=O)n(C(=O)OCC(=O)[O-])c3c1)C2 (protonated)
C[N@H+]1C[C@H]2CCC1CN(c1ccc3cc(C([NH-])=O)n(C(=O)OCC(=O)[O-])c3c1)C2 (chirality)
C[N@H+]1C[C@H]2CCC1CN(c1ccc3cc(C([NH-])=O)n(C(=O)OCC(=O)[O-])c3c1)C2 (3D coordinates assigned)
C[N@H+]1C[C@H]2CCC1CN(c1ccc3cc(C([NH-])=O)n(C(=O)OCC(=O)[O-])c3c1)C2 (nonaromatic ring conformer: 114.83352628792377 kcal/mol)

>  <smiles>  (61) 
CN1CC2CCC1CN(c1ccc3cc(C(N)=O)n(C(=O)OCC(=O)O)c3c1)C2

>  <score_type>  (61) 
oracle

>  <origin>  (61) 
adg

>  <m_score__min__energy>  (61) 
-11.359999999999999

>  <m_primary>  (61) 
energy

$$$$
61:0
     RDKit          3D

 42 43  0  0  0  0  0  0  0  0999 V2000
   -1.2720   26.3010  -26.9230 C   0  0  0  0  0  0  0  0  0  0  0  0
   -1.2160   24.8740  -27.2530 N   0  0  0  0  0  0  0  0  0  0  0  0
   -0.6470   23.9190  -26.2950 C   0  0  0  0  0  0  0  0  0  0  0  0
   -1.7240   24.4260  -28.5290 C   0  0  0  0  0  0  0  0  0  0  0  0
   -2.1940   25.2710  -29.3400 O   0  0  0  0  0  0  0  0  0  0  0  0
   -1.6920   22.9630  -28.9080 C   0  0  0  0  0  0  0  0  0  0  0  0
   -3.0080   22.2330  -28.6050 C   0  0  0  0  0  0  0  0  0  0  0  0
   -3.5890   21.7350  -29.8080 O   0  0  0  0  0  0  0  0  0  0  0  0
   -4.0450   22.5590  -30.8440 C   0  0  0  0  0  0  0  0  0  0  0  0
   -3.2230   23.1240  -31.6160 O   0  0  0  0  0  0  0  0  0  0  0  0
   -5.4570   22.7630  -31.0210 N   0  0  0  0  0  0  0  0  0  0  0  0
   -6.1720   23.8820  -30.7160 C   0  0  0  0  0  0  0  0  0  0  0  0
   -5.6100   25.1810  -30.2980 C   0  0  0  0  0  0  0  0  0  0  0  0
   -4.2560   25.5310  -30.5910 N   0  0  0  0  0  0  0  0  0  0  0  0
   -6.3520   26.0200  -29.7220 O   0  0  0  0  0  0  0  0  0  0  0  0
   -7.5340   23.6590  -30.8970 C   0  0  0  0  0  0  0  0  0  0  0  0
   -7.6350   22.3600  -31.3380 C   0  0  0  0  0  0  0  0  0  0  0  0
   -8.7610   21.6140  -31.6690 C   0  0  0  0  0  0  0  0  0  0  0  0
   -8.5740   20.2800  -32.0660 C   0  0  0  0  0  0  0  0  0  0  0  0
   -7.2760   19.7060  -32.0970 C   0  0  0  0  0  0  0  0  0  0  0  0
   -7.0860   18.2840  -32.5570 C   0  0  0  0  0  0  0  0  0  0  0  0
   -8.2630   17.5830  -32.3680 F   0  0  0  0  0  0  0  0  0  0  0  0
   -6.0750   17.6670  -31.8400 F   0  0  0  0  0  0  0  0  0  0  0  0
   -6.7490   18.2450  -33.8990 F   0  0  0  0  0  0  0  0  0  0  0  0
   -6.1550   20.5050  -31.7740 C   0  0  0  0  0  0  0  0  0  0  0  0
   -6.3680   21.8390  -31.4030 C   0  0  0  0  0  0  0  0  0  0  0  0
   -1.2769   26.4247  -25.8300 H   0  0  0  0  0  0  0  0  0  0  0  0
   -0.3931   26.8099  -27.3457 H   0  0  0  0  0  0  0  0  0  0  0  0
   -2.1880   26.7394  -27.3457 H   0  0  0  0  0  0  0  0  0  0  0  0
   -0.8514   24.2620  -25.2700 H   0  0  0  0  0  0  0  0  0  0  0  0
   -1.1031   22.9299  -26.4484 H   0  0  0  0  0  0  0  0  0  0  0  0
    0.4400   23.8493  -26.4484 H   0  0  0  0  0  0  0  0  0  0  0  0
   -1.4888   22.8852  -29.9863 H   0  0  0  0  0  0  0  0  0  0  0  0
   -0.9058   22.4853  -28.3049 H   0  0  0  0  0  0  0  0  0  0  0  0
   -2.8077   21.3924  -27.9243 H   0  0  0  0  0  0  0  0  0  0  0  0
   -3.7085   22.9402  -28.1368 H   0  0  0  0  0  0  0  0  0  0  0  0
   -3.6660   24.9320  -31.2100 H   0  0  0  0  0  0  0  0  0  0  0  0
   -3.8630   26.4360  -30.2510 H   0  0  0  0  0  0  0  0  0  0  0  0
   -8.3550   24.3704  -30.7241 H   0  0  0  0  0  0  0  0  0  0  0  0
   -9.7674   22.0554  -31.6213 H   0  0  0  0  0  0  0  0  0  0  0  0
   -9.4438   19.6725  -32.3565 H   0  0  0  0  0  0  0  0  0  0  0  0
   -5.1378   20.0882  -31.8132 H   0  0  0  0  0  0  0  0  0  0  0  0
  1  2  1  0
  2  3  1  0
  2  4  1  0
  4  5  2  0
  4  6  1  0
  6  7  1  0
  7  8  1  0
  8  9  1  0
  9 10  2  0
  9 11  1  0
 11 12  1  0
 12 13  1  0
 13 14  1  0
 13 15  2  0
 12 16  2  0
 16 17  1  0
 17 18  2  0
 18 19  1  0
 19 20  2  0
 20 21  1  0
 21 22  1  0
 21 23  1  0
 21 24  1  0
 20 25  1  0
 25 26  2  0
 26 11  1  0
 26 17  1  0
  1 27  1  0
  1 28  1  0
  1 29  1  0
  3 30  1  0
  3 31  1  0
  3 32  1  0
  6 33  1  0
  6 34  1  0
  7 35  1  0
  7 36  1  0
 14 37  1  0
 14 38  1  0
 16 39  1  0
 18 40  1  0
 19 41  1  0
 25 42  1  0
M  END
>  <UniqueID>  (62) 
62

>  <SMILES>  (62) 
CN(C)C(=O)CCOC(=O)n1c(C(N)=O)cc2ccc(C(F)(F)F)cc21

>  <Energy>  (62) 
76.60885679289463

>  <Genealogy>  (62) 
CN(C)C(=O)CCOC(=O)n1c(C(N)=O)cc2ccc(C(F)(F)F)cc21 (3D coordinates assigned)
CN(C)C(=O)CCOC(=O)n1c(C(N)=O)cc2ccc(C(F)(F)F)cc21 (optimized conformer: 76.60885679289463 kcal/mol)

>  <smiles>  (62) 
CN(C)C(=O)CCOC(=O)n1c(C(N)=O)cc2ccc(C(F)(F)F)cc21

>  <score_type>  (62) 
oracle

>  <origin>  (62) 
adg

>  <m_score__min__energy>  (62) 
-8.6600000000000001

>  <m_primary>  (62) 
energy

$$$$
62:0
     RDKit          3D

 50 51  0  0  0  0  0  0  0  0999 V2000
    1.6130   24.8970  -27.7280 C   0  0  0  0  0  0  0  0  0  0  0  0
    0.1710   24.6740  -27.5790 N   0  0  0  0  0  0  0  0  0  0  0  0
   -0.4010   24.6030  -26.2240 C   0  0  0  0  0  0  0  0  0  0  0  0
   -1.5060   23.5470  -26.1450 C   0  0  0  0  0  0  0  0  0  0  0  0
   -2.5990   23.9000  -26.9490 O   0  0  0  0  0  0  0  0  0  0  0  0
   -0.6840   24.5520  -28.7370 C   0  0  0  0  0  0  0  0  0  0  0  0
   -1.5990   25.4000  -28.9340 O   0  0  0  0  0  0  0  0  0  0  0  0
   -0.5450   23.4200  -29.7140 C   0  0  0  0  0  0  0  0  0  0  0  0
   -1.3000   22.2620  -29.2490 N   0  0  0  0  0  0  0  0  0  0  0  0
   -2.6840   21.9910  -29.5220 C   0  0  0  0  0  0  0  0  0  0  0  0
   -3.4590   21.7990  -28.5480 O   0  0  0  0  0  0  0  0  0  0  0  0
   -3.2340   21.9010  -30.8960 C   0  0  0  0  0  0  0  0  0  0  0  0
   -2.5360   21.4650  -31.8490 O   0  0  0  0  0  0  0  0  0  0  0  0
   -4.5870   22.2970  -31.1520 N   0  0  0  0  0  0  0  0  0  0  0  0
   -5.1870   23.4660  -30.7990 C   0  0  0  0  0  0  0  0  0  0  0  0
   -4.5070   24.6020  -30.1320 C   0  0  0  0  0  0  0  0  0  0  0  0
   -4.1640   24.5480  -28.7450 N   0  0  0  0  0  0  0  0  0  0  0  0
   -4.2160   25.6350  -30.7900 O   0  0  0  0  0  0  0  0  0  0  0  0
   -6.5330   23.4460  -31.1710 C   0  0  0  0  0  0  0  0  0  0  0  0
   -6.7330   22.2120  -31.7540 C   0  0  0  0  0  0  0  0  0  0  0  0
   -7.8810   21.6550  -32.3040 C   0  0  0  0  0  0  0  0  0  0  0  0
   -7.7950   20.3540  -32.8310 C   0  0  0  0  0  0  0  0  0  0  0  0
   -6.5720   19.6270  -32.7960 C   0  0  0  0  0  0  0  0  0  0  0  0
   -6.4960   18.2890  -33.3420 N   0  0  0  0  0  0  0  0  0  0  0  0
   -5.7250   18.0280  -34.5630 C   0  0  0  0  0  0  0  0  0  0  0  0
   -7.2020   17.1820  -32.6900 C   0  0  0  0  0  0  0  0  0  0  0  0
   -5.4290   20.2390  -32.2230 C   0  0  0  0  0  0  0  0  0  0  0  0
   -5.5430   21.5380  -31.7240 C   0  0  0  0  0  0  0  0  0  0  0  0
    2.0776   24.9688  -26.7335 H   0  0  0  0  0  0  0  0  0  0  0  0
    2.0587   24.0571  -28.2811 H   0  0  0  0  0  0  0  0  0  0  0  0
    1.7842   25.8323  -28.2811 H   0  0  0  0  0  0  0  0  0  0  0  0
    0.3956   24.3430  -25.5113 H   0  0  0  0  0  0  0  0  0  0  0  0
   -0.8367   25.5826  -25.9778 H   0  0  0  0  0  0  0  0  0  0  0  0
   -1.1054   22.5813  -26.4869 H   0  0  0  0  0  0  0  0  0  0  0  0
   -1.8478   23.4758  -25.1019 H   0  0  0  0  0  0  0  0  0  0  0  0
   -2.3970   23.5720  -27.8640 H   0  0  0  0  0  0  0  0  0  0  0  0
   -0.9306   23.7361  -30.6945 H   0  0  0  0  0  0  0  0  0  0  0  0
    0.5170   23.1468  -29.8002 H   0  0  0  0  0  0  0  0  0  0  0  0
   -3.6980   25.3650  -28.2950 H   0  0  0  0  0  0  0  0  0  0  0  0
   -4.3600   23.7080  -28.1580 H   0  0  0  0  0  0  0  0  0  0  0  0
   -7.2759   24.2447  -31.0292 H   0  0  0  0  0  0  0  0  0  0  0  0
   -8.8279   22.2144  -32.3265 H   0  0  0  0  0  0  0  0  0  0  0  0
   -8.6873   19.8909  -33.2774 H   0  0  0  0  0  0  0  0  0  0  0  0
   -4.7150   17.6861  -34.2928 H   0  0  0  0  0  0  0  0  0  0  0  0
   -6.2290   17.2504  -35.1557 H   0  0  0  0  0  0  0  0  0  0  0  0
   -5.6530   18.9519  -35.1557 H   0  0  0  0  0  0  0  0  0  0  0  0
   -7.1306   17.2940  -31.5981 H   0  0  0  0  0  0  0  0  0  0  0  0
   -8.2599   17.1936  -32.9914 H   0  0  0  0  0  0  0  0  0  0  0  0
   -6.7454   16.2277  -32.9914 H   0  0  0  0  0  0  0  0  0  0  0  0
   -4.4709   19.7010  -32.1725 H   0  0  0  0  0  0  0  0  0  0  0  0
  1  2  1  0
  2  3  1  0
  3  4  1  0
  4  5  1  0
  2  6  1  0
  6  7  2  0
  6  8  1  0
  8  9  1  0
  9 10  1  0
 10 11  2  0
 10 12  1  0
 12 13  2  0
 12 14  1  0
 14 15  1  0
 15 16  1  0
 16 17  1  0
 16 18  2  0
 15 19  2  0
 19 20  1  0
 20 21  2  0
 21 22  1  0
 22 23  2  0
 23 24  1  0
 24 25  1  0
 24 26  1  0
 23 27  1  0
 27 28  2  0
 28 14  1  0
 28 20  1  0
  1 29  1  0
  1 30  1  0
  1 31  1  0
  3 32  1  0
  3 33  1  0
  4 34  1  0
  4 35  1  0
  5 36  1  0
  8 37  1  0
  8 38  1  0
 17 39  1  0
 17 40  1  0
 19 41  1  0
 21 42  1  0
 22 43  1  0
 25 44  1  0
 25 45  1  0
 25 46  1  0
 26 47  1  0
 26 48  1  0
 26 49  1  0
 27 50  1  0
M  CHG  1   9  -1
M  END
>  <UniqueID>  (63) 
63

>  <SMILES>  (63) 
CN(CCO)C(=O)C[N-]C(=O)C(=O)n1c(C(N)=O)cc2ccc(N(C)C)cc21

>  <Energy>  (63) 
86.78228163136646

>  <Genealogy>  (63) 
CN(CCO)C(=O)C[N-]C(=O)C(=O)n1c(C(N)=O)cc2ccc(N(C)C)cc21 (protonated)
CN(CCO)C(=O)C[N-]C(=O)C(=O)n1c(C(N)=O)cc2ccc(N(C)C)cc21 (3D coordinates assigned)
CN(CCO)C(=O)C[N-]C(=O)C(=O)n1c(C(N)=O)cc2ccc(N(C)C)cc21 (optimized conformer: 86.78228163136646 kcal/mol)

>  <smiles>  (63) 
CN(CCO)C(=O)CNC(=O)C(=O)n1c(C(N)=O)cc2ccc(N(C)C)cc21

>  <score_type>  (63) 
oracle

>  <origin>  (63) 
adg

>  <m_score__min__energy>  (63) 
-9.4199999999999999

>  <m_primary>  (63) 
energy

$$$$
63:0
     RDKit          3D

 47 48  0  0  0  0  0  0  0  0999 V2000
    2.3580   24.9230  -27.7260 C   0  0  0  0  0  0  0  0  0  0  0  0
    1.0880   24.5540  -28.2150 O   0  0  0  0  0  0  0  0  0  0  0  0
    0.3440   23.8970  -27.2080 C   0  0  0  0  0  0  0  0  0  0  0  0
   -0.4230   24.9160  -26.3650 C   0  0  0  0  0  0  0  0  0  0  0  0
   -1.7860   24.9740  -26.7820 O   0  0  0  0  0  0  0  0  0  0  0  0
   -2.1790   24.9150  -28.1220 C   0  0  0  0  0  0  0  0  0  0  0  0
   -1.6170   25.6400  -28.9880 O   0  0  0  0  0  0  0  0  0  0  0  0
   -3.2140   24.0490  -28.4840 O   0  0  0  0  0  0  0  0  0  0  0  0
   -3.1370   22.6340  -28.3250 C   0  0  0  0  0  0  0  0  0  0  0  0
   -3.3130   21.9750  -29.5760 O   0  0  0  0  0  0  0  0  0  0  0  0
   -3.6670   22.6440  -30.7530 C   0  0  0  0  0  0  0  0  0  0  0  0
   -2.7780   23.0480  -31.5520 O   0  0  0  0  0  0  0  0  0  0  0  0
   -5.0530   22.8480  -31.0640 N   0  0  0  0  0  0  0  0  0  0  0  0
   -5.7790   23.9910  -30.9160 C   0  0  0  0  0  0  0  0  0  0  0  0
   -5.2450   25.3170  -30.5410 C   0  0  0  0  0  0  0  0  0  0  0  0
   -3.8870   25.6630  -30.8030 N   0  0  0  0  0  0  0  0  0  0  0  0
   -6.0090   26.1740  -30.0210 O   0  0  0  0  0  0  0  0  0  0  0  0
   -7.1140   23.7680  -31.2480 C   0  0  0  0  0  0  0  0  0  0  0  0
   -7.1810   22.4420  -31.6110 C   0  0  0  0  0  0  0  0  0  0  0  0
   -8.2700   21.6850  -32.0270 C   0  0  0  0  0  0  0  0  0  0  0  0
   -8.0570   20.3260  -32.3120 C   0  0  0  0  0  0  0  0  0  0  0  0
   -6.7690   19.7400  -32.1670 C   0  0  0  0  0  0  0  0  0  0  0  0
   -6.5680   18.3340  -32.4480 N   0  0  0  0  0  0  0  0  0  0  0  0
   -6.4970   17.8580  -33.8330 C   0  0  0  0  0  0  0  0  0  0  0  0
   -6.4820   17.3670  -31.3490 C   0  0  0  0  0  0  0  0  0  0  0  0
   -5.6890   20.5520  -31.7390 C   0  0  0  0  0  0  0  0  0  0  0  0
   -5.9270   21.9070  -31.4870 C   0  0  0  0  0  0  0  0  0  0  0  0
    2.3429   24.9186  -26.6261 H   0  0  0  0  0  0  0  0  0  0  0  0
    3.1115   24.2067  -28.0852 H   0  0  0  0  0  0  0  0  0  0  0  0
    2.6104   25.9316  -28.0852 H   0  0  0  0  0  0  0  0  0  0  0  0
   -0.3696   23.2041  -27.6778 H   0  0  0  0  0  0  0  0  0  0  0  0
    1.0353   23.3418  -26.5569 H   0  0  0  0  0  0  0  0  0  0  0  0
   -0.3791   24.6188  -25.3068 H   0  0  0  0  0  0  0  0  0  0  0  0
    0.0349   25.9075  -26.4959 H   0  0  0  0  0  0  0  0  0  0  0  0
   -2.1515   22.3702  -27.9137 H   0  0  0  0  0  0  0  0  0  0  0  0
   -3.9356   22.3116  -27.6407 H   0  0  0  0  0  0  0  0  0  0  0  0
   -3.1040   25.0550  -30.4730 H   0  0  0  0  0  0  0  0  0  0  0  0
   -7.9382   24.4962  -31.2249 H   0  0  0  0  0  0  0  0  0  0  0  0
   -9.2679   22.1362  -32.1299 H   0  0  0  0  0  0  0  0  0  0  0  0
   -8.8991   19.7056  -32.6525 H   0  0  0  0  0  0  0  0  0  0  0  0
   -6.3347   16.7701  -33.8389 H   0  0  0  0  0  0  0  0  0  0  0  0
   -7.4398   18.0909  -34.3496 H   0  0  0  0  0  0  0  0  0  0  0  0
   -5.6632   18.3559  -34.3496 H   0  0  0  0  0  0  0  0  0  0  0  0
   -6.5293   17.8994  -30.3876 H   0  0  0  0  0  0  0  0  0  0  0  0
   -7.3207   16.6585  -31.4175 H   0  0  0  0  0  0  0  0  0  0  0  0
   -5.5315   16.8177  -31.4175 H   0  0  0  0  0  0  0  0  0  0  0  0
   -4.6838   20.1251  -31.6077 H   0  0  0  0  0  0  0  0  0  0  0  0
  1  2  1  0
  2  3  1  0
  3  4  1  0
  4  5  1  0
  5  6  1  0
  6  7  2  0
  6  8  1  0
  8  9  1  0
  9 10  1  0
 10 11  1  0
 11 12  2  0
 11 13  1  0
 13 14  1  0
 14 15  1  0
 15 16  1  0
 15 17  2  0
 14 18  2  0
 18 19  1  0
 19 20  2  0
 20 21  1  0
 21 22  2  0
 22 23  1  0
 23 24  1  0
 23 25  1  0
 22 26  1  0
 26 27  2  0
 27 13  1  0
 27 19  1  0
  1 28  1  0
  1 29  1  0
  1 30  1  0
  3 31  1  0
  3 32  1  0
  4 33  1  0
  4 34  1  0
  9 35  1  0
  9 36  1  0
 16 37  1  0
 18 38  1  0
 20 39  1  0
 21 40  1  0
 24 41  1  0
 24 42  1  0
 24 43  1  0
 25 44  1  0
 25 45  1  0
 25 46  1  0
 26 47  1  0
M  CHG  1  16  -1
M  END
>  <UniqueID>  (64) 
64

>  <SMILES>  (64) 
COCCOC(=O)OCOC(=O)n1c(C([NH-])=O)cc2ccc(N(C)C)cc21

>  <Energy>  (64) 
81.23770639743533

>  <Genealogy>  (64) 
COCCOC(=O)OCOC(=O)n1c(C([NH-])=O)cc2ccc(N(C)C)cc21 (protonated)
COCCOC(=O)OCOC(=O)n1c(C([NH-])=O)cc2ccc(N(C)C)cc21 (3D coordinates assigned)
COCCOC(=O)OCOC(=O)n1c(C([NH-])=O)cc2ccc(N(C)C)cc21 (optimized conformer: 81.23770639743533 kcal/mol)

>  <smiles>  (64) 
COCCOC(=O)OCOC(=O)n1c(C(N)=O)cc2ccc(N(C)C)cc21

>  <score_type>  (64) 
oracle

>  <origin>  (64) 
adg

>  <m_score__min__energy>  (64) 
-9.6400000000000006

>  <m_primary>  (64) 
energy

$$$$
64:0
     RDKit          3D

 60 61  0  0  0  0  0  0  0  0999 V2000
   -3.4010   19.5990  -33.4810 C   0  0  0  0  0  0  0  0  0  0  0  0
   -3.8490   18.7880  -34.5600 O   0  0  0  0  0  0  0  0  0  0  0  0
   -5.0990   18.1580  -34.5660 C   0  0  0  0  0  0  0  0  0  0  0  0
   -6.0110   18.5750  -35.3330 O   0  0  0  0  0  0  0  0  0  0  0  0
   -5.3470   17.0420  -33.6900 N   0  0  0  0  0  0  0  0  0  0  0  0
   -5.2010   15.6770  -34.2070 C   0  0  0  0  0  0  0  0  0  0  0  0
   -5.8040   17.2720  -32.3100 C   0  0  0  0  0  0  0  0  0  0  0  0
   -7.3000   17.6090  -32.2680 C   0  0  0  0  0  0  0  0  0  0  0  0
   -7.6060   18.7920  -33.0770 N   0  0  0  0  0  0  0  0  0  0  0  0
   -7.6720   20.1250  -32.5370 C   0  0  0  0  0  0  0  0  0  0  0  0
   -8.9130   20.7810  -32.3160 C   0  0  0  0  0  0  0  0  0  0  0  0
   -8.9520   22.0810  -31.7860 C   0  0  0  0  0  0  0  0  0  0  0  0
   -7.7440   22.6990  -31.4800 C   0  0  0  0  0  0  0  0  0  0  0  0
   -7.4970   23.9530  -30.9700 C   0  0  0  0  0  0  0  0  0  0  0  0
   -6.1110   24.0430  -30.8650 C   0  0  0  0  0  0  0  0  0  0  0  0
   -5.4050   25.1950  -30.2610 C   0  0  0  0  0  0  0  0  0  0  0  0
   -3.9790   25.2220  -30.1970 N   0  0  0  0  0  0  0  0  0  0  0  0
   -6.0580   26.1820  -29.8300 O   0  0  0  0  0  0  0  0  0  0  0  0
   -5.5220   22.8920  -31.3000 N   0  0  0  0  0  0  0  0  0  0  0  0
   -4.1150   22.6050  -31.4050 C   0  0  0  0  0  0  0  0  0  0  0  0
   -3.5650   22.5420  -32.5380 O   0  0  0  0  0  0  0  0  0  0  0  0
   -3.3680   22.3710  -30.2470 O   0  0  0  0  0  0  0  0  0  0  0  0
   -2.0080   21.9560  -30.2690 C   0  0  0  0  0  0  0  0  0  0  0  0
   -1.1860   23.0190  -29.7980 O   0  0  0  0  0  0  0  0  0  0  0  0
   -1.6650   24.0320  -28.9570 C   0  0  0  0  0  0  0  0  0  0  0  0
   -1.6350   25.2350  -29.3390 O   0  0  0  0  0  0  0  0  0  0  0  0
   -2.1390   23.6970  -27.5570 C   0  0  0  0  0  0  0  0  0  0  0  0
   -3.6690   23.4980  -27.5480 C   0  0  0  0  0  0  0  0  0  0  0  0
   -1.7650   24.8580  -26.6190 C   0  0  0  0  0  0  0  0  0  0  0  0
   -1.4670   22.4030  -27.0570 C   0  0  0  0  0  0  0  0  0  0  0  0
   -6.5380   22.0790  -31.6720 C   0  0  0  0  0  0  0  0  0  0  0  0
   -6.4700   20.7910  -32.2180 C   0  0  0  0  0  0  0  0  0  0  0  0
   -3.6660   19.1194  -32.5272 H   0  0  0  0  0  0  0  0  0  0  0  0
   -2.3091   19.7182  -33.5406 H   0  0  0  0  0  0  0  0  0  0  0  0
   -3.8814   20.5867  -33.5406 H   0  0  0  0  0  0  0  0  0  0  0  0
   -5.1256   14.9724  -33.3657 H   0  0  0  0  0  0  0  0  0  0  0  0
   -6.0770   15.4220  -34.8215 H   0  0  0  0  0  0  0  0  0  0  0  0
   -4.2909   15.6130  -34.8215 H   0  0  0  0  0  0  0  0  0  0  0  0
   -5.6245   16.3632  -31.7168 H   0  0  0  0  0  0  0  0  0  0  0  0
   -5.2442   18.1235  -31.8959 H   0  0  0  0  0  0  0  0  0  0  0  0
   -7.8705   16.7526  -32.6567 H   0  0  0  0  0  0  0  0  0  0  0  0
   -7.5770   17.8225  -31.2251 H   0  0  0  0  0  0  0  0  0  0  0  0
   -7.7770   18.6730  -34.1010 H   0  0  0  0  0  0  0  0  0  0  0  0
   -9.8528   20.2653  -32.5626 H   0  0  0  0  0  0  0  0  0  0  0  0
   -9.9097   22.5954  -31.6178 H   0  0  0  0  0  0  0  0  0  0  0  0
   -8.2371   24.7214  -30.7021 H   0  0  0  0  0  0  0  0  0  0  0  0
   -3.4070   24.4010  -30.4950 H   0  0  0  0  0  0  0  0  0  0  0  0
   -3.4880   26.0580  -29.8110 H   0  0  0  0  0  0  0  0  0  0  0  0
   -1.8810   21.0773  -29.6195 H   0  0  0  0  0  0  0  0  0  0  0  0
   -1.7186   21.6930  -31.2972 H   0  0  0  0  0  0  0  0  0  0  0  0
   -4.0266   23.4515  -26.5088 H   0  0  0  0  0  0  0  0  0  0  0  0
   -4.1514   24.3410  -28.0644 H   0  0  0  0  0  0  0  0  0  0  0  0
   -3.9198   22.5597  -28.0644 H   0  0  0  0  0  0  0  0  0  0  0  0
   -1.8697   24.5329  -25.5734 H   0  0  0  0  0  0  0  0  0  0  0  0
   -0.7241   25.1602  -26.8065 H   0  0  0  0  0  0  0  0  0  0  0  0
   -2.4338   25.7109  -26.8065 H   0  0  0  0  0  0  0  0  0  0  0  0
   -1.4622   22.3937  -25.9570 H   0  0  0  0  0  0  0  0  0  0  0  0
   -2.0267   21.5320  -27.4286 H   0  0  0  0  0  0  0  0  0  0  0  0
   -0.4326   22.3599  -27.4286 H   0  0  0  0  0  0  0  0  0  0  0  0
   -5.4977   20.3079  -32.3947 H   0  0  0  0  0  0  0  0  0  0  0  0
  1  2  1  0
  2  3  1  0
  3  4  2  0
  3  5  1  0
  5  6  1  0
  5  7  1  0
  7  8  1  0
  8  9  1  0
  9 10  1  0
 10 11  2  0
 11 12  1  0
 12 13  2  0
 13 14  1  0
 14 15  2  0
 15 16  1  0
 16 17  1  0
 16 18  2  0
 15 19  1  0
 19 20  1  0
 20 21  2  0
 20 22  1  0
 22 23  1  0
 23 24  1  0
 24 25  1  0
 25 26  2  0
 25 27  1  0
 27 28  1  0
 27 29  1  0
 27 30  1  0
 19 31  1  0
 31 32  2  0
 32 10  1  0
 31 13  1  0
  1 33  1  0
  1 34  1  0
  1 35  1  0
  6 36  1  0
  6 37  1  0
  6 38  1  0
  7 39  1  0
  7 40  1  0
  8 41  1  0
  8 42  1  0
  9 43  1  0
 11 44  1  0
 12 45  1  0
 14 46  1  0
 17 47  1  0
 17 48  1  0
 23 49  1  0
 23 50  1  0
 28 51  1  0
 28 52  1  0
 28 53  1  0
 29 54  1  0
 29 55  1  0
 29 56  1  0
 30 57  1  0
 30 58  1  0
 30 59  1  0
 32 60  1  0
M  END
>  <UniqueID>  (65) 
65

>  <SMILES>  (65) 
COC(=O)N(C)CCNc1ccc2cc(C(N)=O)n(C(=O)OCOC(=O)C(C)(C)C)c2c1

>  <Energy>  (65) 
79.8215346513739

>  <Genealogy>  (65) 
COC(=O)N(C)CCNc1ccc2cc(C(N)=O)n(C(=O)OCOC(=O)C(C)(C)C)c2c1 (3D coordinates assigned)
COC(=O)N(C)CCNc1ccc2cc(C(N)=O)n(C(=O)OCOC(=O)C(C)(C)C)c2c1 (optimized conformer: 79.8215346513739 kcal/mol)

>  <smiles>  (65) 
COC(=O)N(C)CCNc1ccc2cc(C(N)=O)n(C(=O)OCOC(=O)C(C)(C)C)c2c1

>  <score_type>  (65) 
oracle

>  <origin>  (65) 
adg

>  <m_score__min__energy>  (65) 
-9.4000000000000004

>  <m_primary>  (65) 
energy

$$$$
65:0
     RDKit          3D

 38 39  0  0  0  0  0  0  0  0999 V2000
   -7.4740   18.4360  -32.7040 C   0  0  0  0  0  0  0  0  0  0  0  0
   -7.5010   19.8780  -32.2950 C   0  0  0  0  0  0  0  0  0  0  0  0
   -8.7360   20.5600  -32.1720 C   0  0  0  0  0  0  0  0  0  0  0  0
   -8.7740   21.8990  -31.7470 C   0  0  0  0  0  0  0  0  0  0  0  0
   -7.5660   22.5230  -31.4470 C   0  0  0  0  0  0  0  0  0  0  0  0
   -7.3180   23.8010  -30.9990 C   0  0  0  0  0  0  0  0  0  0  0  0
   -5.9340   23.8820  -30.8610 C   0  0  0  0  0  0  0  0  0  0  0  0
   -5.2300   25.1290  -30.4960 C   0  0  0  0  0  0  0  0  0  0  0  0
   -3.8600   25.3260  -30.8380 N   0  0  0  0  0  0  0  0  0  0  0  0
   -5.8610   26.0580  -29.9250 O   0  0  0  0  0  0  0  0  0  0  0  0
   -5.3480   22.6960  -31.1970 N   0  0  0  0  0  0  0  0  0  0  0  0
   -3.9580   22.3430  -31.1040 C   0  0  0  0  0  0  0  0  0  0  0  0
   -3.1660   22.6400  -32.0390 O   0  0  0  0  0  0  0  0  0  0  0  0
   -3.4820   21.6910  -29.9630 O   0  0  0  0  0  0  0  0  0  0  0  0
   -3.4150   22.3190  -28.6880 C   0  0  0  0  0  0  0  0  0  0  0  0
   -2.4970   23.5040  -28.7700 C   0  0  0  0  0  0  0  0  0  0  0  0
   -1.6540   23.5430  -29.7080 O   0  0  0  0  0  0  0  0  0  0  0  0
   -2.5150   24.5520  -27.7770 N   0  0  0  0  0  0  0  0  0  0  0  0
   -3.5780   24.6150  -26.7670 C   0  0  0  0  0  0  0  0  0  0  0  0
   -1.4630   25.5750  -27.8020 C   0  0  0  0  0  0  0  0  0  0  0  0
   -6.3620   21.8770  -31.5600 C   0  0  0  0  0  0  0  0  0  0  0  0
   -6.2970   20.5400  -31.9670 C   0  0  0  0  0  0  0  0  0  0  0  0
   -7.4621   17.8004  -31.8063 H   0  0  0  0  0  0  0  0  0  0  0  0
   -8.3680   18.2079  -33.3029 H   0  0  0  0  0  0  0  0  0  0  0  0
   -6.5721   18.2416  -33.3029 H   0  0  0  0  0  0  0  0  0  0  0  0
   -9.6737   20.0371  -32.4112 H   0  0  0  0  0  0  0  0  0  0  0  0
   -9.7287   22.4375  -31.6542 H   0  0  0  0  0  0  0  0  0  0  0  0
   -8.0559   24.5905  -30.7936 H   0  0  0  0  0  0  0  0  0  0  0  0
   -3.2030   24.5180  -30.9170 H   0  0  0  0  0  0  0  0  0  0  0  0
   -4.4197   22.6518  -28.3884 H   0  0  0  0  0  0  0  0  0  0  0  0
   -3.0321   21.6052  -27.9437 H   0  0  0  0  0  0  0  0  0  0  0  0
   -3.1311   24.5885  -25.7622 H   0  0  0  0  0  0  0  0  0  0  0  0
   -4.1467   25.5484  -26.8909 H   0  0  0  0  0  0  0  0  0  0  0  0
   -4.2529   23.7553  -26.8909 H   0  0  0  0  0  0  0  0  0  0  0  0
   -1.1875   25.8429  -26.7713 H   0  0  0  0  0  0  0  0  0  0  0  0
   -0.5804   25.1805  -28.3267 H   0  0  0  0  0  0  0  0  0  0  0  0
   -1.8326   26.4683  -28.3267 H   0  0  0  0  0  0  0  0  0  0  0  0
   -5.3314   20.0168  -32.0301 H   0  0  0  0  0  0  0  0  0  0  0  0
  1  2  1  0
  2  3  2  0
  3  4  1  0
  4  5  2  0
  5  6  1  0
  6  7  2  0
  7  8  1  0
  8  9  1  0
  8 10  2  0
  7 11  1  0
 11 12  1  0
 12 13  2  0
 12 14  1  0
 14 15  1  0
 15 16  1  0
 16 17  2  0
 16 18  1  0
 18 19  1  0
 18 20  1  0
 11 21  1  0
 21 22  2  0
 22  2  1  0
 21  5  1  0
  1 23  1  0
  1 24  1  0
  1 25  1  0
  3 26  1  0
  4 27  1  0
  6 28  1  0
  9 29  1  0
 15 30  1  0
 15 31  1  0
 19 32  1  0
 19 33  1  0
 19 34  1  0
 20 35  1  0
 20 36  1  0
 20 37  1  0
 22 38  1  0
M  CHG  1   9  -1
M  END
>  <UniqueID>  (66) 
66

>  <SMILES>  (66) 
Cc1ccc2cc(C([NH-])=O)n(C(=O)OCC(=O)N(C)C)c2c1

>  <Energy>  (66) 
70.69758607948488

>  <Genealogy>  (66) 
Cc1ccc2cc(C([NH-])=O)n(C(=O)OCC(=O)N(C)C)c2c1 (protonated)
Cc1ccc2cc(C([NH-])=O)n(C(=O)OCC(=O)N(C)C)c2c1 (3D coordinates assigned)
Cc1ccc2cc(C([NH-])=O)n(C(=O)OCC(=O)N(C)C)c2c1 (optimized conformer: 70.69758607948488 kcal/mol)

>  <smiles>  (66) 
Cc1ccc2cc(C(N)=O)n(C(=O)OCC(=O)N(C)C)c2c1

>  <score_type>  (66) 
oracle

>  <origin>  (66) 
adg

>  <m_score__min__energy>  (66) 
-10.07

>  <m_primary>  (66) 
energy

$$$$
66:0
     RDKit          3D

 57 58  0  0  0  0  0  0  0  0999 V2000
   -2.2450   23.3380  -29.7000 C   0  0  0  0  0  0  0  0  0  0  0  0
   -3.5950   23.6430  -29.2140 N   0  0  0  0  0  0  0  0  0  0  0  0
   -4.1020   22.9880  -28.0030 C   0  0  0  0  0  0  0  0  0  0  0  0
   -4.3920   24.6100  -29.9300 C   0  0  0  0  0  0  0  0  0  0  0  0
   -3.8610   25.3030  -30.8410 O   0  0  0  0  0  0  0  0  0  0  0  0
   -5.8480   24.8420  -29.6170 C   0  0  0  0  0  0  0  0  0  0  0  0
   -6.6960   24.4940  -30.7570 N   0  0  0  0  0  0  0  0  0  0  0  0
   -6.7470   23.1950  -31.3810 C   0  0  0  0  0  0  0  0  0  0  0  0
   -7.9780   22.4950  -31.4030 C   0  0  0  0  0  0  0  0  0  0  0  0
   -8.0770   21.2270  -31.9980 C   0  0  0  0  0  0  0  0  0  0  0  0
   -6.9320   20.6840  -32.5710 C   0  0  0  0  0  0  0  0  0  0  0  0
   -6.7460   19.4670  -33.1830 C   0  0  0  0  0  0  0  0  0  0  0  0
   -5.4050   19.4440  -33.5520 C   0  0  0  0  0  0  0  0  0  0  0  0
   -4.7900   18.3310  -34.3020 C   0  0  0  0  0  0  0  0  0  0  0  0
   -3.4910   17.8410  -33.9640 N   0  0  0  0  0  0  0  0  0  0  0  0
   -5.3950   17.8420  -35.2930 O   0  0  0  0  0  0  0  0  0  0  0  0
   -4.7790   20.5950  -33.1720 N   0  0  0  0  0  0  0  0  0  0  0  0
   -3.3730   20.8880  -33.2490 C   0  0  0  0  0  0  0  0  0  0  0  0
   -2.8560   21.7100  -32.4410 O   0  0  0  0  0  0  0  0  0  0  0  0
   -2.5810   20.2730  -34.2240 O   0  0  0  0  0  0  0  0  0  0  0  0
   -1.2160   20.6110  -34.4420 C   0  0  0  0  0  0  0  0  0  0  0  0
   -0.3890   19.5060  -34.0910 O   0  0  0  0  0  0  0  0  0  0  0  0
   -0.8510   18.4230  -33.3400 C   0  0  0  0  0  0  0  0  0  0  0  0
   -1.0010   17.2930  -33.8770 O   0  0  0  0  0  0  0  0  0  0  0  0
   -1.1590   18.5760  -31.9500 N   0  0  0  0  0  0  0  0  0  0  0  0
   -0.3270   19.2310  -30.9330 C   0  0  0  0  0  0  0  0  0  0  0  0
    0.2270   18.1920  -29.9420 C   0  0  0  0  0  0  0  0  0  0  0  0
    0.8250   19.9990  -31.6050 C   0  0  0  0  0  0  0  0  0  0  0  0
   -1.2170   20.2250  -30.1700 C   0  0  0  0  0  0  0  0  0  0  0  0
   -5.7320   21.3470  -32.5760 C   0  0  0  0  0  0  0  0  0  0  0  0
   -5.6030   22.6060  -31.9750 C   0  0  0  0  0  0  0  0  0  0  0  0
   -1.5724   23.1860  -28.8430 H   0  0  0  0  0  0  0  0  0  0  0  0
   -2.2731   22.4236  -30.3107 H   0  0  0  0  0  0  0  0  0  0  0  0
   -1.8772   24.1757  -30.3107 H   0  0  0  0  0  0  0  0  0  0  0  0
   -3.7047   23.5012  -27.1149 H   0  0  0  0  0  0  0  0  0  0  0  0
   -5.2009   23.0356  -27.9931 H   0  0  0  0  0  0  0  0  0  0  0  0
   -3.7805   21.9361  -27.9931 H   0  0  0  0  0  0  0  0  0  0  0  0
   -6.1331   24.2210  -28.7550 H   0  0  0  0  0  0  0  0  0  0  0  0
   -5.9899   25.9090  -29.3902 H   0  0  0  0  0  0  0  0  0  0  0  0
   -7.2750   25.2610  -31.1690 H   0  0  0  0  0  0  0  0  0  0  0  0
   -8.8693   22.9512  -30.9475 H   0  0  0  0  0  0  0  0  0  0  0  0
   -9.0311   20.6798  -32.0105 H   0  0  0  0  0  0  0  0  0  0  0  0
   -7.4969   18.6799  -33.3460 H   0  0  0  0  0  0  0  0  0  0  0  0
   -3.0890   17.0250  -34.4760 H   0  0  0  0  0  0  0  0  0  0  0  0
   -2.8970   18.3310  -33.2600 H   0  0  0  0  0  0  0  0  0  0  0  0
   -1.0651   20.8589  -35.5030 H   0  0  0  0  0  0  0  0  0  0  0  0
   -0.9503   21.4786  -33.8201 H   0  0  0  0  0  0  0  0  0  0  0  0
    0.0448   18.5337  -28.9124 H   0  0  0  0  0  0  0  0  0  0  0  0
   -0.2764   17.2272  -30.1026 H   0  0  0  0  0  0  0  0  0  0  0  0
    1.3086   18.0724  -30.1026 H   0  0  0  0  0  0  0  0  0  0  0  0
    1.4763   20.4332  -30.8321 H   0  0  0  0  0  0  0  0  0  0  0  0
    1.4093   19.3091  -32.2316 H   0  0  0  0  0  0  0  0  0  0  0  0
    0.4129   20.8037  -32.2316 H   0  0  0  0  0  0  0  0  0  0  0  0
   -1.0859   20.0786  -29.0877 H   0  0  0  0  0  0  0  0  0  0  0  0
   -0.9319   21.2530  -30.4381 H   0  0  0  0  0  0  0  0  0  0  0  0
   -2.2702   20.0548  -30.4381 H   0  0  0  0  0  0  0  0  0  0  0  0
   -4.6340   23.1265  -31.9644 H   0  0  0  0  0  0  0  0  0  0  0  0
  1  2  1  0
  2  3  1  0
  2  4  1  0
  4  5  2  0
  4  6  1  0
  6  7  1  0
  7  8  1  0
  8  9  2  0
  9 10  1  0
 10 11  2  0
 11 12  1  0
 12 13  2  0
 13 14  1  0
 14 15  1  0
 14 16  2  0
 13 17  1  0
 17 18  1  0
 18 19  2  0
 18 20  1  0
 20 21  1  0
 21 22  1  0
 22 23  1  0
 23 24  2  0
 23 25  1  0
 25 26  1  0
 26 27  1  0
 26 28  1  0
 26 29  1  0
 17 30  1  0
 30 31  2  0
 31  8  1  0
 30 11  1  0
  1 32  1  0
  1 33  1  0
  1 34  1  0
  3 35  1  0
  3 36  1  0
  3 37  1  0
  6 38  1  0
  6 39  1  0
  7 40  1  0
  9 41  1  0
 10 42  1  0
 12 43  1  0
 15 44  1  0
 15 45  1  0
 21 46  1  0
 21 47  1  0
 27 48  1  0
 27 49  1  0
 27 50  1  0
 28 51  1  0
 28 52  1  0
 28 53  1  0
 29 54  1  0
 29 55  1  0
 29 56  1  0
 31 57  1  0
M  CHG  1  25  -1
M  END
>  <UniqueID>  (67) 
67

>  <SMILES>  (67) 
CN(C)C(=O)CNc1ccc2cc(C(N)=O)n(C(=O)OCOC(=O)[N-]C(C)(C)C)c2c1

>  <Energy>  (67) 
80.35765458003716

>  <Genealogy>  (67) 
CN(C)C(=O)CNc1ccc2cc(C(N)=O)n(C(=O)OCOC(=O)[N-]C(C)(C)C)c2c1 (protonated)
CN(C)C(=O)CNc1ccc2cc(C(N)=O)n(C(=O)OCOC(=O)[N-]C(C)(C)C)c2c1 (3D coordinates assigned)
CN(C)C(=O)CNc1ccc2cc(C(N)=O)n(C(=O)OCOC(=O)[N-]C(C)(C)C)c2c1 (optimized conformer: 80.35765458003716 kcal/mol)

>  <smiles>  (67) 
CN(C)C(=O)CNc1ccc2cc(C(N)=O)n(C(=O)OCOC(=O)NC(C)(C)C)c2c1

>  <score_type>  (67) 
oracle

>  <origin>  (67) 
adg

>  <m_score__min__energy>  (67) 
-10.23

>  <m_primary>  (67) 
energy

$$$$
67:0
     RDKit          3D

 46 47  0  0  0  0  0  0  0  0999 V2000
   -0.8570   26.6360  -28.2180 C   0  0  0  0  0  0  0  0  0  0  0  0
   -1.6410   25.6660  -28.9670 N   0  0  0  0  0  0  0  0  0  0  0  0
   -2.2650   24.5340  -28.3510 C   0  0  0  0  0  0  0  0  0  0  0  0
   -3.2100   24.6960  -27.5260 O   0  0  0  0  0  0  0  0  0  0  0  0
   -1.7830   23.1580  -28.6870 C   0  0  0  0  0  0  0  0  0  0  0  0
   -2.8910   22.2840  -28.8750 O   0  0  0  0  0  0  0  0  0  0  0  0
   -2.7500   20.9330  -29.2150 C   0  0  0  0  0  0  0  0  0  0  0  0
   -2.1290   20.1380  -28.4570 O   0  0  0  0  0  0  0  0  0  0  0  0
   -3.3530   20.4250  -30.4900 C   0  0  0  0  0  0  0  0  0  0  0  0
   -3.4670   21.4780  -31.4450 O   0  0  0  0  0  0  0  0  0  0  0  0
   -4.3380   22.5610  -31.2810 C   0  0  0  0  0  0  0  0  0  0  0  0
   -3.8900   23.7400  -31.2410 O   0  0  0  0  0  0  0  0  0  0  0  0
   -5.7410   22.3220  -31.1020 N   0  0  0  0  0  0  0  0  0  0  0  0
   -6.6560   23.1600  -30.5410 C   0  0  0  0  0  0  0  0  0  0  0  0
   -6.3520   24.4150  -29.8240 C   0  0  0  0  0  0  0  0  0  0  0  0
   -5.0820   24.6290  -29.2070 N   0  0  0  0  0  0  0  0  0  0  0  0
   -7.2430   25.3000  -29.7210 O   0  0  0  0  0  0  0  0  0  0  0  0
   -7.9460   22.6690  -30.7230 C   0  0  0  0  0  0  0  0  0  0  0  0
   -7.7910   21.4930  -31.4220 C   0  0  0  0  0  0  0  0  0  0  0  0
   -8.7470   20.6130  -31.9120 C   0  0  0  0  0  0  0  0  0  0  0  0
   -8.3080   19.5100  -32.6630 C   0  0  0  0  0  0  0  0  0  0  0  0
   -6.9220   19.3030  -32.9280 C   0  0  0  0  0  0  0  0  0  0  0  0
   -6.4790   18.1650  -33.7170 N   0  0  0  0  0  0  0  0  0  0  0  0
   -6.8220   16.7940  -33.3120 C   0  0  0  0  0  0  0  0  0  0  0  0
   -5.6950   18.3660  -34.9420 C   0  0  0  0  0  0  0  0  0  0  0  0
   -5.9850   20.2340  -32.4080 C   0  0  0  0  0  0  0  0  0  0  0  0
   -6.4530   21.3080  -31.6420 C   0  0  0  0  0  0  0  0  0  0  0  0
   -0.9950   26.4652  -27.1401 H   0  0  0  0  0  0  0  0  0  0  0  0
    0.2069   26.5235  -28.4738 H   0  0  0  0  0  0  0  0  0  0  0  0
   -1.1901   27.6527  -28.4738 H   0  0  0  0  0  0  0  0  0  0  0  0
   -1.1888   23.1964  -29.6119 H   0  0  0  0  0  0  0  0  0  0  0  0
   -1.1636   22.7814  -27.8597 H   0  0  0  0  0  0  0  0  0  0  0  0
   -2.7126   19.6311  -30.9018 H   0  0  0  0  0  0  0  0  0  0  0  0
   -4.3571   20.0304  -30.2752 H   0  0  0  0  0  0  0  0  0  0  0  0
   -4.8650   25.5460  -28.7580 H   0  0  0  0  0  0  0  0  0  0  0  0
   -4.3870   23.8550  -29.1250 H   0  0  0  0  0  0  0  0  0  0  0  0
   -8.8877   23.1234  -30.3814 H   0  0  0  0  0  0  0  0  0  0  0  0
   -9.8175   20.7750  -31.7176 H   0  0  0  0  0  0  0  0  0  0  0  0
   -9.0459   18.7937  -33.0534 H   0  0  0  0  0  0  0  0  0  0  0  0
   -6.8382   16.7292  -32.2140 H   0  0  0  0  0  0  0  0  0  0  0  0
   -7.8135   16.5315  -33.7095 H   0  0  0  0  0  0  0  0  0  0  0  0
   -6.0709   16.0955  -33.7095 H   0  0  0  0  0  0  0  0  0  0  0  0
   -4.6610   18.6311  -34.6762 H   0  0  0  0  0  0  0  0  0  0  0  0
   -5.6952   17.4387  -35.5338 H   0  0  0  0  0  0  0  0  0  0  0  0
   -6.1413   19.1788  -35.5338 H   0  0  0  0  0  0  0  0  0  0  0  0
   -4.9093   20.1134  -32.6037 H   0  0  0  0  0  0  0  0  0  0  0  0
  1  2  1  0
  2  3  1  0
  3  4  2  0
  3  5  1  0
  5  6  1  0
  6  7  1  0
  7  8  2  0
  7  9  1  0
  9 10  1  0
 10 11  1  0
 11 12  2  0
 11 13  1  0
 13 14  1  0
 14 15  1  0
 15 16  1  0
 15 17  2  0
 14 18  2  0
 18 19  1  0
 19 20  2  0
 20 21  1  0
 21 22  2  0
 22 23  1  0
 23 24  1  0
 23 25  1  0
 22 26  1  0
 26 27  2  0
 27 13  1  0
 27 19  1  0
  1 28  1  0
  1 29  1  0
  1 30  1  0
  5 31  1  0
  5 32  1  0
  9 33  1  0
  9 34  1  0
 16 35  1  0
 16 36  1  0
 18 37  1  0
 20 38  1  0
 21 39  1  0
 24 40  1  0
 24 41  1  0
 24 42  1  0
 25 43  1  0
 25 44  1  0
 25 45  1  0
 26 46  1  0
M  CHG  1   2  -1
M  END
>  <UniqueID>  (68) 
68

>  <SMILES>  (68) 
C[N-]C(=O)COC(=O)COC(=O)n1c(C(N)=O)cc2ccc(N(C)C)cc21

>  <Energy>  (68) 
76.56562931452908

>  <Genealogy>  (68) 
C[N-]C(=O)COC(=O)COC(=O)n1c(C(N)=O)cc2ccc(N(C)C)cc21 (protonated)
C[N-]C(=O)COC(=O)COC(=O)n1c(C(N)=O)cc2ccc(N(C)C)cc21 (3D coordinates assigned)
C[N-]C(=O)COC(=O)COC(=O)n1c(C(N)=O)cc2ccc(N(C)C)cc21 (optimized conformer: 76.56562931452908 kcal/mol)

>  <smiles>  (68) 
CNC(=O)COC(=O)COC(=O)n1c(C(N)=O)cc2ccc(N(C)C)cc21

>  <score_type>  (68) 
oracle

>  <origin>  (68) 
adg

>  <m_score__min__energy>  (68) 
-9.2300000000000004

>  <m_primary>  (68) 
energy

$$$$
68:0
     RDKit          3D

 37 38  0  0  0  0  0  0  0  0999 V2000
   -1.3330   21.7380  -27.1310 C   0  0  0  0  0  0  0  0  0  0  0  0
   -2.1390   22.8460  -27.6510 N   0  0  0  0  0  0  0  0  0  0  0  0
   -1.7110   24.2300  -27.4060 C   0  0  0  0  0  0  0  0  0  0  0  0
   -1.0370   24.7930  -28.6180 C   0  0  0  0  0  0  0  0  0  0  0  0
   -1.6230   25.6590  -29.3190 O   0  0  0  0  0  0  0  0  0  0  0  0
    0.2580   24.4070  -28.9460 O   0  0  0  0  0  0  0  0  0  0  0  0
   -3.3840   22.5690  -28.3190 C   0  0  0  0  0  0  0  0  0  0  0  0
   -4.4760   22.8400  -27.7480 O   0  0  0  0  0  0  0  0  0  0  0  0
   -3.3740   21.9900  -29.5980 O   0  0  0  0  0  0  0  0  0  0  0  0
   -3.7930   22.6240  -30.7760 C   0  0  0  0  0  0  0  0  0  0  0  0
   -2.9540   23.0200  -31.6300 O   0  0  0  0  0  0  0  0  0  0  0  0
   -5.1950   22.8420  -31.0000 N   0  0  0  0  0  0  0  0  0  0  0  0
   -5.8680   24.0280  -30.9650 C   0  0  0  0  0  0  0  0  0  0  0  0
   -5.3140   25.3210  -30.5150 C   0  0  0  0  0  0  0  0  0  0  0  0
   -3.9680   25.6660  -30.8360 N   0  0  0  0  0  0  0  0  0  0  0  0
   -6.0300   26.1430  -29.8870 O   0  0  0  0  0  0  0  0  0  0  0  0
   -7.1980   23.8480  -31.3360 C   0  0  0  0  0  0  0  0  0  0  0  0
   -7.3250   22.5030  -31.5960 C   0  0  0  0  0  0  0  0  0  0  0  0
   -8.4340   21.7750  -32.0190 C   0  0  0  0  0  0  0  0  0  0  0  0
   -8.2710   20.3980  -32.2410 C   0  0  0  0  0  0  0  0  0  0  0  0
   -7.0110   19.7780  -32.0460 C   0  0  0  0  0  0  0  0  0  0  0  0
   -6.8550   18.3070  -32.3070 C   0  0  0  0  0  0  0  0  0  0  0  0
   -6.2790   18.1140  -33.5500 F   0  0  0  0  0  0  0  0  0  0  0  0
   -8.0950   17.6940  -32.2790 F   0  0  0  0  0  0  0  0  0  0  0  0
   -5.9070   20.5500  -31.6190 C   0  0  0  0  0  0  0  0  0  0  0  0
   -6.1030   21.9180  -31.3870 C   0  0  0  0  0  0  0  0  0  0  0  0
   -1.3478   21.7584  -26.0313 H   0  0  0  0  0  0  0  0  0  0  0  0
   -1.7494   20.7836  -27.4857 H   0  0  0  0  0  0  0  0  0  0  0  0
   -0.2968   21.8403  -27.4857 H   0  0  0  0  0  0  0  0  0  0  0  0
   -2.5912   24.8435  -27.1636 H   0  0  0  0  0  0  0  0  0  0  0  0
   -0.9996   24.2390  -26.5671 H   0  0  0  0  0  0  0  0  0  0  0  0
   -3.1890   24.9900  -30.6770 H   0  0  0  0  0  0  0  0  0  0  0  0
   -7.9808   24.6176  -31.4063 H   0  0  0  0  0  0  0  0  0  0  0  0
   -9.4074   22.2633  -32.1744 H   0  0  0  0  0  0  0  0  0  0  0  0
   -9.1298   19.7942  -32.5696 H   0  0  0  0  0  0  0  0  0  0  0  0
   -6.2111   17.8694  -31.5299 H   0  0  0  0  0  0  0  0  0  0  0  0
   -4.9191   20.0889  -31.4725 H   0  0  0  0  0  0  0  0  0  0  0  0
  1  2  1  0
  2  3  1  0
  3  4  1  0
  4  5  2  0
  4  6  1  0
  2  7  1  0
  7  8  2  0
  7  9  1  0
  9 10  1  0
 10 11  2  0
 10 12  1  0
 12 13  1  0
 13 14  1  0
 14 15  1  0
 14 16  2  0
 13 17  2  0
 17 18  1  0
 18 19  2  0
 19 20  1  0
 20 21  2  0
 21 22  1  0
 22 23  1  0
 22 24  1  0
 21 25  1  0
 25 26  2  0
 26 12  1  0
 26 18  1  0
  1 27  1  0
  1 28  1  0
  1 29  1  0
  3 30  1  0
  3 31  1  0
 15 32  1  0
 17 33  1  0
 19 34  1  0
 20 35  1  0
 22 36  1  0
 25 37  1  0
M  CHG  2   6  -1  15  -1
M  END
>  <UniqueID>  (69) 
69

>  <SMILES>  (69) 
CN(CC(=O)[O-])C(=O)OC(=O)n1c(C([NH-])=O)cc2ccc(C(F)F)cc21

>  <Energy>  (69) 
73.1140289507912

>  <Genealogy>  (69) 
CN(CC(=O)[O-])C(=O)OC(=O)n1c(C([NH-])=O)cc2ccc(C(F)F)cc21 (protonated)
CN(CC(=O)[O-])C(=O)OC(=O)n1c(C([NH-])=O)cc2ccc(C(F)F)cc21 (3D coordinates assigned)
CN(CC(=O)[O-])C(=O)OC(=O)n1c(C([NH-])=O)cc2ccc(C(F)F)cc21 (optimized conformer: 73.1140289507912 kcal/mol)

>  <smiles>  (69) 
CN(CC(=O)O)C(=O)OC(=O)n1c(C(N)=O)cc2ccc(C(F)F)cc21

>  <score_type>  (69) 
oracle

>  <origin>  (69) 
adg

>  <m_score__min__energy>  (69) 
-12.1

>  <m_primary>  (69) 
energy

$$$$
69:0
     RDKit          3D

 36 37  0  0  0  0  0  0  0  0999 V2000
   -6.4810   18.2340  -32.1570 C   0  0  0  0  0  0  0  0  0  0  0  0
   -6.6990   19.7100  -32.0060 C   0  0  0  0  0  0  0  0  0  0  0  0
   -7.9850   20.2630  -32.2260 C   0  0  0  0  0  0  0  0  0  0  0  0
   -8.2150   21.6380  -32.0430 C   0  0  0  0  0  0  0  0  0  0  0  0
   -7.1430   22.4290  -31.6360 C   0  0  0  0  0  0  0  0  0  0  0  0
   -7.0910   23.7760  -31.3530 C   0  0  0  0  0  0  0  0  0  0  0  0
   -5.7750   24.0190  -30.9630 C   0  0  0  0  0  0  0  0  0  0  0  0
   -5.2580   25.3520  -30.5890 C   0  0  0  0  0  0  0  0  0  0  0  0
   -3.8890   25.6760  -30.8250 N   0  0  0  0  0  0  0  0  0  0  0  0
   -6.0090   26.2070  -30.0500 O   0  0  0  0  0  0  0  0  0  0  0  0
   -5.0450   22.8710  -31.0110 N   0  0  0  0  0  0  0  0  0  0  0  0
   -3.6700   22.6950  -30.6380 C   0  0  0  0  0  0  0  0  0  0  0  0
   -2.7800   22.8180  -31.5190 O   0  0  0  0  0  0  0  0  0  0  0  0
   -3.3110   22.3950  -29.2330 C   0  0  0  0  0  0  0  0  0  0  0  0
   -3.2400   21.1860  -28.8780 O   0  0  0  0  0  0  0  0  0  0  0  0
   -3.0490   23.4280  -28.2580 N   0  0  0  0  0  0  0  0  0  0  0  0
   -4.1820   24.1850  -27.7170 C   0  0  0  0  0  0  0  0  0  0  0  0
   -1.7040   23.6620  -27.7120 C   0  0  0  0  0  0  0  0  0  0  0  0
   -0.9320   24.6090  -28.5800 C   0  0  0  0  0  0  0  0  0  0  0  0
    0.3250   24.5470  -28.6170 O   0  0  0  0  0  0  0  0  0  0  0  0
   -1.5900   25.5960  -29.3020 O   0  0  0  0  0  0  0  0  0  0  0  0
   -5.8960   21.9060  -31.4180 C   0  0  0  0  0  0  0  0  0  0  0  0
   -5.6420   20.5410  -31.5760 C   0  0  0  0  0  0  0  0  0  0  0  0
   -6.4124   17.7698  -31.1621 H   0  0  0  0  0  0  0  0  0  0  0  0
   -7.3238   17.7935  -32.7098 H   0  0  0  0  0  0  0  0  0  0  0  0
   -5.5468   18.0560  -32.7098 H   0  0  0  0  0  0  0  0  0  0  0  0
   -8.8115   19.6101  -32.5431 H   0  0  0  0  0  0  0  0  0  0  0  0
   -9.2096   22.0751  -32.2157 H   0  0  0  0  0  0  0  0  0  0  0  0
   -7.9125   24.5044  -31.4204 H   0  0  0  0  0  0  0  0  0  0  0  0
   -3.1420   24.9530  -30.7270 H   0  0  0  0  0  0  0  0  0  0  0  0
   -4.1472   24.1617  -26.6178 H   0  0  0  0  0  0  0  0  0  0  0  0
   -4.1255   25.2274  -28.0636 H   0  0  0  0  0  0  0  0  0  0  0  0
   -5.1234   23.7338  -28.0636 H   0  0  0  0  0  0  0  0  0  0  0  0
   -1.7944   24.0905  -26.7030 H   0  0  0  0  0  0  0  0  0  0  0  0
   -1.1677   22.7023  -27.6751 H   0  0  0  0  0  0  0  0  0  0  0  0
   -4.6446   20.1250  -31.3707 H   0  0  0  0  0  0  0  0  0  0  0  0
  1  2  1  0
  2  3  2  0
  3  4  1  0
  4  5  2  0
  5  6  1  0
  6  7  2  0
  7  8  1  0
  8  9  1  0
  8 10  2  0
  7 11  1  0
 11 12  1  0
 12 13  2  0
 12 14  1  0
 14 15  2  0
 14 16  1  0
 16 17  1  0
 16 18  1  0
 18 19  1  0
 19 20  2  0
 19 21  1  0
 11 22  1  0
 22 23  2  0
 23  2  1  0
 22  5  1  0
  1 24  1  0
  1 25  1  0
  1 26  1  0
  3 27  1  0
  4 28  1  0
  6 29  1  0
  9 30  1  0
 17 31  1  0
 17 32  1  0
 17 33  1  0
 18 34  1  0
 18 35  1  0
 23 36  1  0
M  CHG  2   9  -1  21  -1
M  END
>  <UniqueID>  (70) 
70

>  <SMILES>  (70) 
Cc1ccc2cc(C([NH-])=O)n(C(=O)C(=O)N(C)CC(=O)[O-])c2c1

>  <Energy>  (70) 
75.72703635797903

>  <Genealogy>  (70) 
Cc1ccc2cc(C([NH-])=O)n(C(=O)C(=O)N(C)CC(=O)[O-])c2c1 (protonated)
Cc1ccc2cc(C([NH-])=O)n(C(=O)C(=O)N(C)CC(=O)[O-])c2c1 (3D coordinates assigned)
Cc1ccc2cc(C([NH-])=O)n(C(=O)C(=O)N(C)CC(=O)[O-])c2c1 (optimized conformer: 75.72703635797903 kcal/mol)

>  <smiles>  (70) 
Cc1ccc2cc(C(N)=O)n(C(=O)C(=O)N(C)CC(=O)O)c2c1

>  <score_type>  (70) 
oracle

>  <origin>  (70) 
adg

>  <m_score__min__energy>  (70) 
-12

>  <m_primary>  (70) 
energy

$$$$
70:0
     RDKit          3D

 44 45  0  0  0  0  0  0  0  0999 V2000
   -0.8970   21.1690  -33.8170 C   0  0  0  0  0  0  0  0  0  0  0  0
   -1.1980   19.7000  -33.5460 C   0  0  0  0  0  0  0  0  0  0  0  0
   -2.6830   19.4400  -33.5460 C   0  0  0  0  0  0  0  0  0  0  0  0
   -3.4530   20.3420  -33.8390 O   0  0  0  0  0  0  0  0  0  0  0  0
   -3.2310   18.0840  -33.1860 C   0  0  0  0  0  0  0  0  0  0  0  0
   -4.2880   17.7250  -34.0710 O   0  0  0  0  0  0  0  0  0  0  0  0
   -5.5690   18.2830  -34.0000 C   0  0  0  0  0  0  0  0  0  0  0  0
   -6.1060   18.7960  -35.0180 O   0  0  0  0  0  0  0  0  0  0  0  0
   -6.3180   18.2240  -32.7080 C   0  0  0  0  0  0  0  0  0  0  0  0
   -6.6050   19.6240  -32.2370 C   0  0  0  0  0  0  0  0  0  0  0  0
   -7.9090   20.1660  -32.3570 C   0  0  0  0  0  0  0  0  0  0  0  0
   -8.1610   21.5050  -32.0160 C   0  0  0  0  0  0  0  0  0  0  0  0
   -7.0940   22.2760  -31.5670 C   0  0  0  0  0  0  0  0  0  0  0  0
   -7.0460   23.6090  -31.2300 C   0  0  0  0  0  0  0  0  0  0  0  0
   -5.7170   23.8590  -30.8960 C   0  0  0  0  0  0  0  0  0  0  0  0
   -5.2330   25.1630  -30.4000 C   0  0  0  0  0  0  0  0  0  0  0  0
   -3.9780   25.6720  -30.8480 N   0  0  0  0  0  0  0  0  0  0  0  0
   -5.9320   25.8530  -29.6120 O   0  0  0  0  0  0  0  0  0  0  0  0
   -4.9690   22.7250  -31.0290 N   0  0  0  0  0  0  0  0  0  0  0  0
   -3.5500   22.5790  -30.8660 C   0  0  0  0  0  0  0  0  0  0  0  0
   -2.9260   21.7100  -31.5350 O   0  0  0  0  0  0  0  0  0  0  0  0
   -2.8720   23.3830  -29.9430 O   0  0  0  0  0  0  0  0  0  0  0  0
   -1.4670   23.3030  -29.7200 C   0  0  0  0  0  0  0  0  0  0  0  0
   -0.9630   24.5710  -29.1100 C   0  0  0  0  0  0  0  0  0  0  0  0
   -1.5880   25.6500  -29.2890 O   0  0  0  0  0  0  0  0  0  0  0  0
    0.2090   24.5710  -28.3650 O   0  0  0  0  0  0  0  0  0  0  0  0
   -5.8290   21.7640  -31.4330 C   0  0  0  0  0  0  0  0  0  0  0  0
   -5.5480   20.4350  -31.7700 C   0  0  0  0  0  0  0  0  0  0  0  0
   -0.7876   21.7032  -32.8617 H   0  0  0  0  0  0  0  0  0  0  0  0
    0.0368   21.2519  -34.3925 H   0  0  0  0  0  0  0  0  0  0  0  0
   -1.7229   21.6124  -34.3925 H   0  0  0  0  0  0  0  0  0  0  0  0
   -0.7261   19.0867  -34.3278 H   0  0  0  0  0  0  0  0  0  0  0  0
   -0.7982   19.4390  -32.5550 H   0  0  0  0  0  0  0  0  0  0  0  0
   -2.4270   17.3369  -33.2596 H   0  0  0  0  0  0  0  0  0  0  0  0
   -3.6219   18.1183  -32.1584 H   0  0  0  0  0  0  0  0  0  0  0  0
   -7.2651   17.6845  -32.8563 H   0  0  0  0  0  0  0  0  0  0  0  0
   -5.7136   17.6977  -31.9546 H   0  0  0  0  0  0  0  0  0  0  0  0
   -8.7313   19.5322  -32.7205 H   0  0  0  0  0  0  0  0  0  0  0  0
   -9.1716   21.9310  -32.1014 H   0  0  0  0  0  0  0  0  0  0  0  0
   -7.8805   24.3257  -31.2253 H   0  0  0  0  0  0  0  0  0  0  0  0
   -3.0800   25.2960  -30.4690 H   0  0  0  0  0  0  0  0  0  0  0  0
   -1.2551   22.4646  -29.0402 H   0  0  0  0  0  0  0  0  0  0  0  0
   -0.9612   23.1453  -30.6840 H   0  0  0  0  0  0  0  0  0  0  0  0
   -4.5289   20.0324  -31.6734 H   0  0  0  0  0  0  0  0  0  0  0  0
  1  2  1  0
  2  3  1  0
  3  4  2  0
  3  5  1  0
  5  6  1  0
  6  7  1  0
  7  8  2  0
  7  9  1  0
  9 10  1  0
 10 11  2  0
 11 12  1  0
 12 13  2  0
 13 14  1  0
 14 15  2  0
 15 16  1  0
 16 17  1  0
 16 18  2  0
 15 19  1  0
 19 20  1  0
 20 21  2  0
 20 22  1  0
 22 23  1  0
 23 24  1  0
 24 25  2  0
 24 26  1  0
 19 27  1  0
 27 28  2  0
 28 10  1  0
 27 13  1  0
  1 29  1  0
  1 30  1  0
  1 31  1  0
  2 32  1  0
  2 33  1  0
  5 34  1  0
  5 35  1  0
  9 36  1  0
  9 37  1  0
 11 38  1  0
 12 39  1  0
 14 40  1  0
 17 41  1  0
 23 42  1  0
 23 43  1  0
 28 44  1  0
M  CHG  2  17  -1  26  -1
M  END
>  <UniqueID>  (71) 
71

>  <SMILES>  (71) 
CCC(=O)COC(=O)Cc1ccc2cc(C([NH-])=O)n(C(=O)OCC(=O)[O-])c2c1

>  <Energy>  (71) 
69.73990640288915

>  <Genealogy>  (71) 
CCC(=O)COC(=O)Cc1ccc2cc(C([NH-])=O)n(C(=O)OCC(=O)[O-])c2c1 (protonated)
CCC(=O)COC(=O)Cc1ccc2cc(C([NH-])=O)n(C(=O)OCC(=O)[O-])c2c1 (3D coordinates assigned)
CCC(=O)COC(=O)Cc1ccc2cc(C([NH-])=O)n(C(=O)OCC(=O)[O-])c2c1 (optimized conformer: 69.73990640288915 kcal/mol)

>  <smiles>  (71) 
CCC(=O)COC(=O)Cc1ccc2cc(C(N)=O)n(C(=O)OCC(=O)O)c2c1

>  <score_type>  (71) 
oracle

>  <origin>  (71) 
adg

>  <m_score__min__energy>  (71) 
-12.210000000000001

>  <m_primary>  (71) 
energy

$$$$
71:0
     RDKit          3D

 56 58  0  0  0  0  0  0  0  0999 V2000
   -4.1860   22.4930  -28.2390 C   0  0  0  0  0  0  0  0  0  0  0  0
   -3.5310   23.6590  -28.8440 N   0  0  0  0  0  0  0  0  0  0  0  0
   -2.2720   24.1630  -28.2880 C   0  0  0  0  0  0  0  0  0  0  0  0
   -4.1230   24.3420  -29.9720 C   0  0  0  0  0  0  0  0  0  0  0  0
   -3.4920   25.2810  -30.5340 O   0  0  0  0  0  0  0  0  0  0  0  0
   -5.5260   24.0280  -30.4440 C   0  0  0  0  0  0  0  0  0  0  0  0
   -5.7840   22.7150  -31.1910 C   0  0  0  0  0  0  0  0  0  0  0  0
   -7.0740   22.1110  -31.2590 C   0  0  0  0  0  0  0  0  0  0  0  0
   -7.2770   20.9100  -31.9620 C   0  0  0  0  0  0  0  0  0  0  0  0
   -6.1880   20.3320  -32.6040 C   0  0  0  0  0  0  0  0  0  0  0  0
   -6.1000   19.1700  -33.3390 C   0  0  0  0  0  0  0  0  0  0  0  0
   -4.7650   19.0860  -33.7390 C   0  0  0  0  0  0  0  0  0  0  0  0
   -4.2170   18.0200  -34.6090 C   0  0  0  0  0  0  0  0  0  0  0  0
   -2.8330   17.6700  -34.5560 N   0  0  0  0  0  0  0  0  0  0  0  0
   -4.9760   17.3970  -35.3970 O   0  0  0  0  0  0  0  0  0  0  0  0
   -4.0650   20.1580  -33.2750 N   0  0  0  0  0  0  0  0  0  0  0  0
   -2.6620   20.4260  -33.4270 C   0  0  0  0  0  0  0  0  0  0  0  0
   -2.1160   20.2780  -34.5540 O   0  0  0  0  0  0  0  0  0  0  0  0
   -1.8540   20.8760  -32.2760 C   0  0  0  0  0  0  0  0  0  0  0  0
   -1.8970   22.0890  -31.9330 O   0  0  0  0  0  0  0  0  0  0  0  0
   -1.0100   19.9590  -31.5550 N   0  0  0  0  0  0  0  0  0  0  0  0
   -1.0040   20.0030  -30.0910 C   0  0  0  0  0  0  0  0  0  0  0  0
   -0.4000   18.8540  -32.2420 C   0  0  0  0  0  0  0  0  0  0  0  0
   -0.9720   17.7270  -32.2620 O   0  0  0  0  0  0  0  0  0  0  0  0
    0.8140   19.0390  -32.9150 O   0  0  0  0  0  0  0  0  0  0  0  0
    0.9770   19.9270  -34.0170 C   0  0  0  0  0  0  0  0  0  0  0  0
    0.6550   19.2110  -35.3290 C   0  0  0  0  0  0  0  0  0  0  0  0
   -0.3630   18.2680  -35.1330 O   0  0  0  0  0  0  0  0  0  0  0  0
   -4.9470   20.9030  -32.5720 C   0  0  0  0  0  0  0  0  0  0  0  0
   -4.7060   22.0750  -31.8520 C   0  0  0  0  0  0  0  0  0  0  0  0
   -6.6330   24.5240  -29.5080 C   0  0  0  0  0  0  0  0  0  0  0  0
   -6.3640   25.2510  -30.8200 C   0  0  0  0  0  0  0  0  0  0  0  0
   -4.1403   22.5744  -27.1430 H   0  0  0  0  0  0  0  0  0  0  0  0
   -5.2373   22.4553  -28.5603 H   0  0  0  0  0  0  0  0  0  0  0  0
   -3.6712   21.5755  -28.5603 H   0  0  0  0  0  0  0  0  0  0  0  0
   -2.3223   24.1429  -27.1893 H   0  0  0  0  0  0  0  0  0  0  0  0
   -1.4406   23.5284  -28.6287 H   0  0  0  0  0  0  0  0  0  0  0  0
   -2.1082   25.1960  -28.6287 H   0  0  0  0  0  0  0  0  0  0  0  0
   -7.9241   22.5923  -30.7534 H   0  0  0  0  0  0  0  0  0  0  0  0
   -8.2710   20.4406  -32.0027 H   0  0  0  0  0  0  0  0  0  0  0  0
   -6.9094   18.4596  -33.5630 H   0  0  0  0  0  0  0  0  0  0  0  0
   -2.4680   16.8930  -35.1530 H   0  0  0  0  0  0  0  0  0  0  0  0
   -2.1610   18.1880  -33.9470 H   0  0  0  0  0  0  0  0  0  0  0  0
   -1.1426   18.9869  -29.6931 H   0  0  0  0  0  0  0  0  0  0  0  0
   -0.0426   20.4062  -29.7402 H   0  0  0  0  0  0  0  0  0  0  0  0
   -1.8224   20.6489  -29.7402 H   0  0  0  0  0  0  0  0  0  0  0  0
    0.2983   20.7841  -33.8956 H   0  0  0  0  0  0  0  0  0  0  0  0
    2.0207   20.2732  -34.0456 H   0  0  0  0  0  0  0  0  0  0  0  0
    0.3259   19.9502  -36.0742 H   0  0  0  0  0  0  0  0  0  0  0  0
    1.5581   18.6930  -35.6842 H   0  0  0  0  0  0  0  0  0  0  0  0
   -0.8130   18.5100  -34.2840 H   0  0  0  0  0  0  0  0  0  0  0  0
   -3.6914   22.4965  -31.7985 H   0  0  0  0  0  0  0  0  0  0  0  0
   -7.5537   23.9348  -29.3846 H   0  0  0  0  0  0  0  0  0  0  0  0
   -6.6813   24.8214  -28.4501 H   0  0  0  0  0  0  0  0  0  0  0  0
   -7.0913   25.1867  -31.6428 H   0  0  0  0  0  0  0  0  0  0  0  0
   -6.1383   26.2907  -31.0994 H   0  0  0  0  0  0  0  0  0  0  0  0
  1  2  1  0
  2  3  1  0
  2  4  1  0
  4  5  2  0
  4  6  1  0
  6  7  1  0
  7  8  2  0
  8  9  1  0
  9 10  2  0
 10 11  1  0
 11 12  2  0
 12 13  1  0
 13 14  1  0
 13 15  2  0
 12 16  1  0
 16 17  1  0
 17 18  2  0
 17 19  1  0
 19 20  2  0
 19 21  1  0
 21 22  1  0
 21 23  1  0
 23 24  2  0
 23 25  1  0
 25 26  1  0
 26 27  1  0
 27 28  1  0
 16 29  1  0
 29 30  2  0
  6 31  1  0
 31 32  1  0
 32  6  1  0
 30  7  1  0
 29 10  1  0
  1 33  1  0
  1 34  1  0
  1 35  1  0
  3 36  1  0
  3 37  1  0
  3 38  1  0
  8 39  1  0
  9 40  1  0
 11 41  1  0
 14 42  1  0
 14 43  1  0
 22 44  1  0
 22 45  1  0
 22 46  1  0
 26 47  1  0
 26 48  1  0
 27 49  1  0
 27 50  1  0
 28 51  1  0
 30 52  1  0
 31 53  1  0
 31 54  1  0
 32 55  1  0
 32 56  1  0
M  END
>  <UniqueID>  (72) 
72

>  <SMILES>  (72) 
CN(C)C(=O)C1(c2ccc3cc(C(N)=O)n(C(=O)C(=O)N(C)C(=O)OCCO)c3c2)CC1

>  <Energy>  (72) 
361.20005017965764

>  <Genealogy>  (72) 
CN(C)C(=O)C1(c2ccc3cc(C(N)=O)n(C(=O)C(=O)N(C)C(=O)OCCO)c3c2)CC1 (3D coordinates assigned)
CN(C)C(=O)C1(c2ccc3cc(C(N)=O)n(C(=O)C(=O)N(C)C(=O)OCCO)c3c2)CC1 (nonaromatic ring conformer: 361.20005017965764 kcal/mol)

>  <smiles>  (72) 
CN(C)C(=O)C1(c2ccc3cc(C(N)=O)n(C(=O)C(=O)N(C)C(=O)OCCO)c3c2)CC1

>  <score_type>  (72) 
oracle

>  <origin>  (72) 
adg

>  <m_score__min__energy>  (72) 
-8.3300000000000001

>  <m_primary>  (72) 
energy

$$$$
72:0
     RDKit          3D

 33 35  0  0  0  0  0  0  0  0999 V2000
   -6.8440   18.3980  -33.1040 C   0  0  0  0  0  0  0  0  0  0  0  0
   -7.0760   19.7920  -32.6040 C   0  0  0  0  0  0  0  0  0  0  0  0
   -8.3970   20.2770  -32.4370 C   0  0  0  0  0  0  0  0  0  0  0  0
   -8.6280   21.5620  -31.9190 C   0  0  0  0  0  0  0  0  0  0  0  0
   -7.5230   22.3380  -31.5830 C   0  0  0  0  0  0  0  0  0  0  0  0
   -7.4600   23.5910  -31.0160 C   0  0  0  0  0  0  0  0  0  0  0  0
   -6.1010   23.8580  -30.8640 C   0  0  0  0  0  0  0  0  0  0  0  0
   -5.5750   25.1180  -30.2990 C   0  0  0  0  0  0  0  0  0  0  0  0
   -6.1330   25.6920  -29.1160 N   0  0  0  0  0  0  0  0  0  0  0  0
   -4.5860   25.6740  -30.8450 O   0  0  0  0  0  0  0  0  0  0  0  0
   -5.3540   22.8130  -31.3150 N   0  0  0  0  0  0  0  0  0  0  0  0
   -3.9290   22.6570  -31.2130 C   0  0  0  0  0  0  0  0  0  0  0  0
   -3.2820   22.1800  -32.1840 O   0  0  0  0  0  0  0  0  0  0  0  0
   -3.2220   23.0170  -29.9780 C   0  0  0  0  0  0  0  0  0  0  0  0
   -3.0860   22.1980  -28.9160 N   0  0  0  0  0  0  0  0  0  0  0  0
   -2.4000   22.8770  -28.0100 N   0  0  0  0  0  0  0  0  0  0  0  0
   -2.1500   24.0840  -28.5540 C   0  0  0  0  0  0  0  0  0  0  0  0
   -1.3700   25.1600  -27.8810 C   0  0  0  0  0  0  0  0  0  0  0  0
   -2.6500   24.1770  -29.7620 O   0  0  0  0  0  0  0  0  0  0  0  0
   -6.2380   21.8870  -31.7460 C   0  0  0  0  0  0  0  0  0  0  0  0
   -5.9800   20.6000  -32.2310 C   0  0  0  0  0  0  0  0  0  0  0  0
   -6.7305   17.7158  -32.2486 H   0  0  0  0  0  0  0  0  0  0  0  0
   -7.7016   18.0802  -33.7152 H   0  0  0  0  0  0  0  0  0  0  0  0
   -5.9297   18.3751  -33.7152 H   0  0  0  0  0  0  0  0  0  0  0  0
   -9.2500   19.6408  -32.7158 H   0  0  0  0  0  0  0  0  0  0  0  0
   -9.6509   21.9431  -31.7832 H   0  0  0  0  0  0  0  0  0  0  0  0
   -8.3028   24.2424  -30.7415 H   0  0  0  0  0  0  0  0  0  0  0  0
   -5.7820   26.6110  -28.7660 H   0  0  0  0  0  0  0  0  0  0  0  0
   -6.8160   25.1660  -28.5280 H   0  0  0  0  0  0  0  0  0  0  0  0
   -1.4530   25.0455  -26.7901 H   0  0  0  0  0  0  0  0  0  0  0  0
   -0.3133   25.0874  -28.1780 H   0  0  0  0  0  0  0  0  0  0  0  0
   -1.7677   26.1417  -28.1780 H   0  0  0  0  0  0  0  0  0  0  0  0
   -4.9489   20.2271  -32.3194 H   0  0  0  0  0  0  0  0  0  0  0  0
  1  2  1  0
  2  3  2  0
  3  4  1  0
  4  5  2  0
  5  6  1  0
  6  7  2  0
  7  8  1  0
  8  9  1  0
  8 10  2  0
  7 11  1  0
 11 12  1  0
 12 13  2  0
 12 14  1  0
 14 15  2  0
 15 16  1  0
 16 17  2  0
 17 18  1  0
 17 19  1  0
 11 20  1  0
 20 21  2  0
 21  2  1  0
 20  5  1  0
 19 14  1  0
  1 22  1  0
  1 23  1  0
  1 24  1  0
  3 25  1  0
  4 26  1  0
  6 27  1  0
  9 28  1  0
  9 29  1  0
 18 30  1  0
 18 31  1  0
 18 32  1  0
 21 33  1  0
M  END
>  <UniqueID>  (73) 
73

>  <SMILES>  (73) 
Cc1ccc2cc(C(N)=O)n(C(=O)c3nnc(C)o3)c2c1

>  <Energy>  (73) 
106.8527035609407

>  <Genealogy>  (73) 
Cc1ccc2cc(C(N)=O)n(C(=O)c3nnc(C)o3)c2c1 (3D coordinates assigned)
Cc1ccc2cc(C(N)=O)n(C(=O)c3nnc(C)o3)c2c1 (optimized conformer: 106.8527035609407 kcal/mol)

>  <smiles>  (73) 
Cc1ccc2cc(C(N)=O)n(C(=O)c3nnc(C)o3)c2c1

>  <score_type>  (73) 
oracle

>  <origin>  (73) 
adg

>  <m_score__min__energy>  (73) 
-8.6799999999999997

>  <m_primary>  (73) 
energy

$$$$
73:0
     RDKit          3D

 42 44  0  0  0  0  0  0  0  0999 V2000
   -2.3280   16.0370  -32.7850 C   0  0  0  0  0  0  0  0  0  0  0  0
   -3.2690   15.2390  -33.7020 C   0  0  0  0  0  0  0  0  0  0  0  0
   -3.5250   16.0280  -34.9960 C   0  0  0  0  0  0  0  0  0  0  0  0
   -2.6360   13.8800  -34.0370 C   0  0  0  0  0  0  0  0  0  0  0  0
   -4.8180   14.9630  -32.8390 S   0  0  0  0  0  0  0  0  0  0  0  0
   -4.6080   14.3970  -31.2700 O   0  0  0  0  0  0  0  0  0  0  0  0
   -5.8490   16.3500  -32.8620 N   0  0  0  0  0  0  0  0  0  0  0  0
   -5.5390   17.5750  -32.4140 C   0  0  0  0  0  0  0  0  0  0  0  0
   -6.6620   18.3530  -32.6300 C   0  0  0  0  0  0  0  0  0  0  0  0
   -6.8470   19.7870  -32.3080 C   0  0  0  0  0  0  0  0  0  0  0  0
   -8.1040   20.4220  -32.4940 C   0  0  0  0  0  0  0  0  0  0  0  0
   -8.2780   21.7790  -32.1760 C   0  0  0  0  0  0  0  0  0  0  0  0
   -7.1840   22.4800  -31.6810 C   0  0  0  0  0  0  0  0  0  0  0  0
   -7.0850   23.7890  -31.2690 C   0  0  0  0  0  0  0  0  0  0  0  0
   -5.7630   23.9480  -30.8600 C   0  0  0  0  0  0  0  0  0  0  0  0
   -5.2010   25.2420  -30.4180 C   0  0  0  0  0  0  0  0  0  0  0  0
   -3.9160   25.6730  -30.8570 N   0  0  0  0  0  0  0  0  0  0  0  0
   -5.8870   26.0000  -29.6800 O   0  0  0  0  0  0  0  0  0  0  0  0
   -5.0740   22.7800  -31.0030 N   0  0  0  0  0  0  0  0  0  0  0  0
   -3.7180   22.5030  -30.6170 C   0  0  0  0  0  0  0  0  0  0  0  0
   -2.7770   23.2320  -31.0300 O   0  0  0  0  0  0  0  0  0  0  0  0
   -3.4330   21.4440  -29.7650 O   0  0  0  0  0  0  0  0  0  0  0  0
   -5.9570   21.8920  -31.5100 C   0  0  0  0  0  0  0  0  0  0  0  0
   -5.7600   20.5370  -31.8010 C   0  0  0  0  0  0  0  0  0  0  0  0
   -7.6060   17.5730  -33.2020 N   0  0  0  0  0  0  0  0  0  0  0  0
   -7.0840   16.3620  -33.3310 N   0  0  0  0  0  0  0  0  0  0  0  0
   -2.5754   15.8272  -31.7339 H   0  0  0  0  0  0  0  0  0  0  0  0
   -1.2867   15.7424  -32.9825 H   0  0  0  0  0  0  0  0  0  0  0  0
   -2.4485   17.1124  -32.9825 H   0  0  0  0  0  0  0  0  0  0  0  0
   -3.8555   17.0467  -34.7450 H   0  0  0  0  0  0  0  0  0  0  0  0
   -2.5970   16.0782  -35.5845 H   0  0  0  0  0  0  0  0  0  0  0  0
   -4.3056   15.5238  -35.5845 H   0  0  0  0  0  0  0  0  0  0  0  0
   -2.3894   13.3506  -33.1048 H   0  0  0  0  0  0  0  0  0  0  0  0
   -3.3468   13.2789  -34.6230 H   0  0  0  0  0  0  0  0  0  0  0  0
   -1.7185   14.0373  -34.6230 H   0  0  0  0  0  0  0  0  0  0  0  0
   -5.3060   14.8550  -30.7390 H   0  0  0  0  0  0  0  0  0  0  0  0
   -4.5867   17.8956  -31.9664 H   0  0  0  0  0  0  0  0  0  0  0  0
   -8.9512   19.8441  -32.8918 H   0  0  0  0  0  0  0  0  0  0  0  0
   -9.2512   22.2727  -32.3145 H   0  0  0  0  0  0  0  0  0  0  0  0
   -7.8807   24.5485  -31.2637 H   0  0  0  0  0  0  0  0  0  0  0  0
   -3.0450   25.2940  -30.4230 H   0  0  0  0  0  0  0  0  0  0  0  0
   -4.7798   20.0650  -31.6387 H   0  0  0  0  0  0  0  0  0  0  0  0
  1  2  1  0
  2  3  1  0
  2  4  1  0
  2  5  1  0
  5  6  1  1
  5  7  1  0
  7  8  1  0
  8  9  2  0
  9 10  1  0
 10 11  2  0
 11 12  1  0
 12 13  2  0
 13 14  1  0
 14 15  2  0
 15 16  1  0
 16 17  1  0
 16 18  2  0
 15 19  1  0
 19 20  1  0
 20 21  2  0
 20 22  1  0
 19 23  1  0
 23 24  2  0
  9 25  1  0
 25 26  2  0
 26  7  1  0
 24 10  1  0
 23 13  1  0
  1 27  1  0
  1 28  1  0
  1 29  1  0
  3 30  1  0
  3 31  1  0
  3 32  1  0
  4 33  1  0
  4 34  1  0
  4 35  1  0
  6 36  1  0
  8 37  1  0
 11 38  1  0
 12 39  1  0
 14 40  1  0
 17 41  1  0
 24 42  1  0
M  CHG  3   5   1  17  -1  22  -1
M  END
>  <UniqueID>  (74) 
74

>  <SMILES>  (74) 
CC(C)(C)[S@@+](O)n1cc(-c2ccc3cc(C([NH-])=O)n(C(=O)[O-])c3c2)nn1

>  <Energy>  (74) 
110.41988358032415

>  <Genealogy>  (74) 
CC(C)(C)[S+](O)n1cc(-c2ccc3cc(C([NH-])=O)n(C(=O)[O-])c3c2)nn1 (protonated)
CC(C)(C)[S@@+](O)n1cc(-c2ccc3cc(C([NH-])=O)n(C(=O)[O-])c3c2)nn1 (chirality)
CC(C)(C)[S@@+](O)n1cc(-c2ccc3cc(C([NH-])=O)n(C(=O)[O-])c3c2)nn1 (3D coordinates assigned)
CC(C)(C)[S@@+](O)n1cc(-c2ccc3cc(C([NH-])=O)n(C(=O)[O-])c3c2)nn1 (optimized conformer: 110.41988358032415 kcal/mol)

>  <smiles>  (74) 
CC(C)(C)[S+]([O-])n1cc(-c2ccc3cc(C(N)=O)n(C(=O)O)c3c2)nn1

>  <score_type>  (74) 
oracle

>  <origin>  (74) 
adg

>  <m_score__min__energy>  (74) 
-11.369999999999999

>  <m_primary>  (74) 
energy

$$$$
74:0
     RDKit          3D

 40 41  0  0  0  0  0  0  0  0999 V2000
   -0.7640   21.9520  -30.6110 C   0  0  0  0  0  0  0  0  0  0  0  0
   -2.2400   22.0100  -30.2450 C   0  0  1  0  0  0  0  0  0  0  0  0
   -2.3570   22.4410  -28.8900 O   0  0  0  0  0  0  0  0  0  0  0  0
   -3.3930   23.2520  -28.4180 C   0  0  0  0  0  0  0  0  0  0  0  0
   -4.5990   22.9220  -28.5900 O   0  0  0  0  0  0  0  0  0  0  0  0
   -3.0710   24.4350  -27.7470 O   0  0  0  0  0  0  0  0  0  0  0  0
   -1.7790   24.7050  -27.2100 C   0  0  0  0  0  0  0  0  0  0  0  0
   -0.8310   25.0890  -28.3010 C   0  0  0  0  0  0  0  0  0  0  0  0
    0.3490   24.6490  -28.3010 O   0  0  0  0  0  0  0  0  0  0  0  0
   -1.2630   25.9030  -29.3400 O   0  0  0  0  0  0  0  0  0  0  0  0
   -2.8880   22.9470  -31.1080 O   0  0  0  0  0  0  0  0  0  0  0  0
   -3.9920   22.6430  -31.9130 C   0  0  0  0  0  0  0  0  0  0  0  0
   -3.8320   22.1800  -33.0740 O   0  0  0  0  0  0  0  0  0  0  0  0
   -5.3180   22.9050  -31.4250 N   0  0  0  0  0  0  0  0  0  0  0  0
   -5.8170   24.0900  -30.9730 C   0  0  0  0  0  0  0  0  0  0  0  0
   -5.0370   25.3190  -30.7150 C   0  0  0  0  0  0  0  0  0  0  0  0
   -3.6140   25.2870  -30.6830 N   0  0  0  0  0  0  0  0  0  0  0  0
   -5.6370   26.3980  -30.4670 O   0  0  0  0  0  0  0  0  0  0  0  0
   -7.1780   23.9750  -30.6960 C   0  0  0  0  0  0  0  0  0  0  0  0
   -7.4990   22.6700  -30.9880 C   0  0  0  0  0  0  0  0  0  0  0  0
   -8.7190   22.0070  -30.8960 C   0  0  0  0  0  0  0  0  0  0  0  0
   -8.7680   20.6590  -31.2850 C   0  0  0  0  0  0  0  0  0  0  0  0
   -7.6110   20.0050  -31.7810 C   0  0  0  0  0  0  0  0  0  0  0  0
   -7.6670   18.5460  -32.1600 C   0  0  0  0  0  0  0  0  0  0  0  0
   -7.2380   18.3610  -33.4620 F   0  0  0  0  0  0  0  0  0  0  0  0
   -6.8580   17.7930  -31.3270 F   0  0  0  0  0  0  0  0  0  0  0  0
   -8.9700   18.0970  -32.0460 F   0  0  0  0  0  0  0  0  0  0  0  0
   -6.3840   20.7070  -31.8390 C   0  0  0  0  0  0  0  0  0  0  0  0
   -6.3600   22.0440  -31.4270 C   0  0  0  0  0  0  0  0  0  0  0  0
   -0.1591   21.9282  -29.6925 H   0  0  0  0  0  0  0  0  0  0  0  0
   -0.5682   21.0455  -31.2025 H   0  0  0  0  0  0  0  0  0  0  0  0
   -0.4977   22.8404  -31.2025 H   0  0  0  0  0  0  0  0  0  0  0  0
   -2.7074   21.0207  -30.3584 H   0  0  0  0  0  0  0  0  0  0  0  0
   -1.8524   25.5303  -26.4865 H   0  0  0  0  0  0  0  0  0  0  0  0
   -1.4027   23.7988  -26.7128 H   0  0  0  0  0  0  0  0  0  0  0  0
   -3.1030   24.7820  -29.9250 H   0  0  0  0  0  0  0  0  0  0  0  0
   -7.8518   24.7605  -30.3233 H   0  0  0  0  0  0  0  0  0  0  0  0
   -9.6182   22.5237  -30.5294 H   0  0  0  0  0  0  0  0  0  0  0  0
   -9.7141   20.1037  -31.2043 H   0  0  0  0  0  0  0  0  0  0  0  0
   -5.4698   20.2130  -32.1997 H   0  0  0  0  0  0  0  0  0  0  0  0
  1  2  1  0
  2  3  1  0
  3  4  1  0
  4  5  2  0
  4  6  1  0
  6  7  1  0
  7  8  1  0
  8  9  2  0
  8 10  1  0
  2 11  1  0
 11 12  1  0
 12 13  2  0
 12 14  1  0
 14 15  1  0
 15 16  1  0
 16 17  1  0
 16 18  2  0
 15 19  2  0
 19 20  1  0
 20 21  2  0
 21 22  1  0
 22 23  2  0
 23 24  1  0
 24 25  1  0
 24 26  1  0
 24 27  1  0
 23 28  1  0
 28 29  2  0
 29 14  1  0
 29 20  1  0
  1 30  1  0
  1 31  1  0
  1 32  1  0
  2 33  1  1
  7 34  1  0
  7 35  1  0
 17 36  1  0
 19 37  1  0
 21 38  1  0
 22 39  1  0
 28 40  1  0
M  CHG  2  10  -1  17  -1
M  END
>  <UniqueID>  (75) 
75

>  <SMILES>  (75) 
C[C@@H](OC(=O)OCC(=O)[O-])OC(=O)n1c(C([NH-])=O)cc2ccc(C(F)(F)F)cc21

>  <Energy>  (75) 
73.84478050704925

>  <Genealogy>  (75) 
C[C@@H](OC(=O)OCC(=O)[O-])OC(=O)n1c(C([NH-])=O)cc2ccc(C(F)(F)F)cc21 (protonated)
C[C@@H](OC(=O)OCC(=O)[O-])OC(=O)n1c(C([NH-])=O)cc2ccc(C(F)(F)F)cc21 (3D coordinates assigned)
C[C@@H](OC(=O)OCC(=O)[O-])OC(=O)n1c(C([NH-])=O)cc2ccc(C(F)(F)F)cc21 (optimized conformer: 73.84478050704925 kcal/mol)

>  <smiles>  (75) 
C[C@@H](OC(=O)OCC(=O)O)OC(=O)n1c(C(N)=O)cc2ccc(C(F)(F)F)cc21

>  <score_type>  (75) 
oracle

>  <origin>  (75) 
adg

>  <m_score__min__energy>  (75) 
-11.84

>  <m_primary>  (75) 
energy

$$$$
75:0
     RDKit          3D

 32 34  0  0  0  0  0  0  0  0999 V2000
  -10.2330   21.1550  -32.0720 N   0  0  0  0  0  0  0  0  0  0  0  0
   -9.2210   20.6100  -32.2030 C   0  0  0  0  0  0  0  0  0  0  0  0
   -7.9650   19.9340  -32.3670 C   0  0  0  0  0  0  0  0  0  0  0  0
   -7.7320   18.5880  -32.1240 C   0  0  0  0  0  0  0  0  0  0  0  0
   -6.4520   18.1870  -32.3430 N   0  0  0  0  0  0  0  0  0  0  0  0
   -5.6740   19.2060  -32.7750 C   0  0  0  0  0  0  0  0  0  0  0  0
   -4.2670   19.0530  -33.0070 N   0  0  0  0  0  0  0  0  0  0  0  0
   -3.2530   19.8290  -32.3510 C   0  0  0  0  0  0  0  0  0  0  0  0
   -1.8950   19.4470  -32.4820 C   0  0  0  0  0  0  0  0  0  0  0  0
   -0.8760   20.1920  -31.8640 C   0  0  0  0  0  0  0  0  0  0  0  0
   -1.2420   21.3260  -31.1450 C   0  0  0  0  0  0  0  0  0  0  0  0
   -0.4670   22.2140  -30.4320 C   0  0  0  0  0  0  0  0  0  0  0  0
   -1.3610   23.1490  -29.9120 C   0  0  0  0  0  0  0  0  0  0  0  0
   -0.9470   24.3160  -29.1050 C   0  0  0  0  0  0  0  0  0  0  0  0
   -1.6060   25.5730  -29.2380 N   0  0  0  0  0  0  0  0  0  0  0  0
    0.0210   24.2110  -28.3050 O   0  0  0  0  0  0  0  0  0  0  0  0
   -2.6350   22.8530  -30.2940 N   0  0  0  0  0  0  0  0  0  0  0  0
   -3.8460   23.5200  -29.9040 C   0  0  0  0  0  0  0  0  0  0  0  0
   -4.3600   23.2710  -28.7820 O   0  0  0  0  0  0  0  0  0  0  0  0
   -4.4890   24.4940  -30.7970 C   0  0  0  0  0  0  0  0  0  0  0  0
   -4.0610   25.6760  -30.8650 O   0  0  0  0  0  0  0  0  0  0  0  0
   -5.5860   24.1180  -31.5610 O   0  0  0  0  0  0  0  0  0  0  0  0
   -2.5460   21.7310  -31.0420 C   0  0  0  0  0  0  0  0  0  0  0  0
   -3.5830   21.0010  -31.6310 C   0  0  0  0  0  0  0  0  0  0  0  0
   -6.5330   20.6560  -32.8670 S   0  0  0  0  0  0  0  0  0  0  0  0
   -8.5198   17.9008  -31.7817 H   0  0  0  0  0  0  0  0  0  0  0  0
   -3.9650   18.2780  -33.6390 H   0  0  0  0  0  0  0  0  0  0  0  0
   -1.6352   18.5571  -33.0742 H   0  0  0  0  0  0  0  0  0  0  0  0
    0.1780   19.8882  -31.9461 H   0  0  0  0  0  0  0  0  0  0  0  0
    0.6249   22.1904  -30.3008 H   0  0  0  0  0  0  0  0  0  0  0  0
   -2.6440   25.6260  -29.3430 H   0  0  0  0  0  0  0  0  0  0  0  0
   -4.6285   21.3297  -31.5369 H   0  0  0  0  0  0  0  0  0  0  0  0
  1  2  3  0
  2  3  1  0
  3  4  2  0
  4  5  1  0
  5  6  2  0
  6  7  1  0
  7  8  1  0
  8  9  2  0
  9 10  1  0
 10 11  2  0
 11 12  1  0
 12 13  2  0
 13 14  1  0
 14 15  1  0
 14 16  2  0
 13 17  1  0
 17 18  1  0
 18 19  2  0
 18 20  1  0
 20 21  2  0
 20 22  1  0
 17 23  1  0
 23 24  2  0
  6 25  1  0
 25  3  1  0
 24  8  1  0
 23 11  1  0
  4 26  1  0
  7 27  1  0
  9 28  1  0
 10 29  1  0
 12 30  1  0
 15 31  1  0
 24 32  1  0
M  CHG  2  15  -1  22  -1
M  END
>  <UniqueID>  (76) 
76

>  <SMILES>  (76) 
N#Cc1cnc(Nc2ccc3cc(C([NH-])=O)n(C(=O)C(=O)[O-])c3c2)s1

>  <Energy>  (76) 
107.69138812634982

>  <Genealogy>  (76) 
N#Cc1cnc(Nc2ccc3cc(C([NH-])=O)n(C(=O)C(=O)[O-])c3c2)s1 (protonated)
N#Cc1cnc(Nc2ccc3cc(C([NH-])=O)n(C(=O)C(=O)[O-])c3c2)s1 (3D coordinates assigned)
N#Cc1cnc(Nc2ccc3cc(C([NH-])=O)n(C(=O)C(=O)[O-])c3c2)s1 (optimized conformer: 107.69138812634982 kcal/mol)

>  <smiles>  (76) 
N#Cc1cnc(Nc2ccc3cc(C(N)=O)n(C(=O)C(=O)O)c3c2)s1

>  <score_type>  (76) 
oracle

>  <origin>  (76) 
adg

>  <m_score__min__energy>  (76) 
-11.84

>  <m_primary>  (76) 
energy

$$$$
76:0
     RDKit          3D

 37 38  0  0  0  0  0  0  0  0999 V2000
   -6.4540   17.7140  -31.6070 C   0  0  0  0  0  0  0  0  0  0  0  0
   -7.1480   18.5100  -32.7090 C   0  0  2  0  0  0  0  0  0  0  0  0
   -6.4510   18.3620  -33.8960 F   0  0  0  0  0  0  0  0  0  0  0  0
   -7.2310   19.9710  -32.3410 C   0  0  0  0  0  0  0  0  0  0  0  0
   -8.4860   20.6310  -32.3200 C   0  0  0  0  0  0  0  0  0  0  0  0
   -8.5760   21.9870  -31.9620 C   0  0  0  0  0  0  0  0  0  0  0  0
   -7.4030   22.6500  -31.6130 C   0  0  0  0  0  0  0  0  0  0  0  0
   -7.2030   23.9590  -31.2410 C   0  0  0  0  0  0  0  0  0  0  0  0
   -5.8350   24.0700  -30.9980 C   0  0  0  0  0  0  0  0  0  0  0  0
   -5.2000   25.2980  -30.4770 C   0  0  0  0  0  0  0  0  0  0  0  0
   -3.8640   25.6430  -30.8330 N   0  0  0  0  0  0  0  0  0  0  0  0
   -5.8290   26.0290  -29.6660 O   0  0  0  0  0  0  0  0  0  0  0  0
   -5.2120   22.8780  -31.2240 N   0  0  0  0  0  0  0  0  0  0  0  0
   -3.8090   22.5820  -31.1490 C   0  0  0  0  0  0  0  0  0  0  0  0
   -3.1640   22.3260  -32.2030 O   0  0  0  0  0  0  0  0  0  0  0  0
   -3.1810   22.5490  -29.8980 O   0  0  0  0  0  0  0  0  0  0  0  0
   -2.1850   23.4350  -29.4650 C   0  0  0  0  0  0  0  0  0  0  0  0
   -1.2340   23.7580  -30.2280 O   0  0  0  0  0  0  0  0  0  0  0  0
   -2.2070   23.9200  -28.0390 C   0  0  0  0  0  0  0  0  0  0  0  0
   -3.8880   24.2670  -27.5290 Cl  0  0  0  0  0  0  0  0  0  0  0  0
   -1.5650   22.6400  -26.9670 Cl  0  0  0  0  0  0  0  0  0  0  0  0
   -1.3420   25.1840  -27.9160 C   0  0  0  0  0  0  0  0  0  0  0  0
   -1.6020   26.0760  -28.9680 O   0  0  0  0  0  0  0  0  0  0  0  0
   -6.1860   22.0190  -31.5980 C   0  0  0  0  0  0  0  0  0  0  0  0
   -6.0630   20.6760  -31.9730 C   0  0  0  0  0  0  0  0  0  0  0  0
   -6.7794   18.0872  -30.6247 H   0  0  0  0  0  0  0  0  0  0  0  0
   -6.7182   16.6504  -31.7010 H   0  0  0  0  0  0  0  0  0  0  0  0
   -5.3643   17.8308  -31.7010 H   0  0  0  0  0  0  0  0  0  0  0  0
   -8.1711   18.1250  -32.8319 H   0  0  0  0  0  0  0  0  0  0  0  0
   -9.3977   20.0763  -32.5865 H   0  0  0  0  0  0  0  0  0  0  0  0
   -9.5444   22.5087  -31.9577 H   0  0  0  0  0  0  0  0  0  0  0  0
   -7.9619   24.7505  -31.1538 H   0  0  0  0  0  0  0  0  0  0  0  0
   -3.0490   25.1940  -30.3590 H   0  0  0  0  0  0  0  0  0  0  0  0
   -1.5646   25.6806  -26.9600 H   0  0  0  0  0  0  0  0  0  0  0  0
   -0.2831   24.8895  -27.9600 H   0  0  0  0  0  0  0  0  0  0  0  0
   -1.9830   25.5420  -29.7130 H   0  0  0  0  0  0  0  0  0  0  0  0
   -5.0806   20.1813  -31.9810 H   0  0  0  0  0  0  0  0  0  0  0  0
  1  2  1  0
  2  3  1  0
  2  4  1  0
  4  5  2  0
  5  6  1  0
  6  7  2  0
  7  8  1  0
  8  9  2  0
  9 10  1  0
 10 11  1  0
 10 12  2  0
  9 13  1  0
 13 14  1  0
 14 15  2  0
 14 16  1  0
 16 17  1  0
 17 18  2  0
 17 19  1  0
 19 20  1  0
 19 21  1  0
 19 22  1  0
 22 23  1  0
 13 24  1  0
 24 25  2  0
 25  4  1  0
 24  7  1  0
  1 26  1  0
  1 27  1  0
  1 28  1  0
  2 29  1  6
  5 30  1  0
  6 31  1  0
  8 32  1  0
 11 33  1  0
 22 34  1  0
 22 35  1  0
 23 36  1  0
 25 37  1  0
M  CHG  1  11  -1
M  END
>  <UniqueID>  (77) 
77

>  <SMILES>  (77) 
C[C@H](F)c1ccc2cc(C([NH-])=O)n(C(=O)OC(=O)C(Cl)(Cl)CO)c2c1

>  <Energy>  (77) 
72.57253941419049

>  <Genealogy>  (77) 
CC(F)c1ccc2cc(C([NH-])=O)n(C(=O)OC(=O)C(Cl)(Cl)CO)c2c1 (protonated)
C[C@H](F)c1ccc2cc(C([NH-])=O)n(C(=O)OC(=O)C(Cl)(Cl)CO)c2c1 (chirality)
C[C@H](F)c1ccc2cc(C([NH-])=O)n(C(=O)OC(=O)C(Cl)(Cl)CO)c2c1 (3D coordinates assigned)
C[C@H](F)c1ccc2cc(C([NH-])=O)n(C(=O)OC(=O)C(Cl)(Cl)CO)c2c1 (optimized conformer: 72.57253941419049 kcal/mol)

>  <smiles>  (77) 
CC(F)c1ccc2cc(C(N)=O)n(C(=O)OC(=O)C(Cl)(Cl)CO)c2c1

>  <score_type>  (77) 
oracle

>  <origin>  (77) 
adg

>  <m_score__min__energy>  (77) 
-11.15

>  <m_primary>  (77) 
energy

$$$$
77:0
     RDKit          3D

 52 53  0  0  0  0  0  0  0  0999 V2000
   -0.4210   23.0140  -29.4720 C   0  0  0  0  0  0  0  0  0  0  0  0
   -1.5530   23.7890  -28.9260 N   0  0  1  0  0  0  0  0  0  0  0  0
   -2.4820   22.9870  -28.0800 C   0  0  0  0  0  0  0  0  0  0  0  0
   -2.7350   21.5200  -28.5080 C   0  0  0  0  0  0  0  0  0  0  0  0
   -3.7730   21.4070  -29.4770 O   0  0  0  0  0  0  0  0  0  0  0  0
   -3.9510   22.3140  -30.5200 C   0  0  0  0  0  0  0  0  0  0  0  0
   -2.9720   22.7030  -31.2090 O   0  0  0  0  0  0  0  0  0  0  0  0
   -5.2650   22.8090  -30.7970 N   0  0  0  0  0  0  0  0  0  0  0  0
   -5.7190   24.0870  -30.7400 C   0  0  0  0  0  0  0  0  0  0  0  0
   -4.8910   25.2720  -30.4370 C   0  0  0  0  0  0  0  0  0  0  0  0
   -3.5110   25.1140  -30.1170 N   0  0  0  0  0  0  0  0  0  0  0  0
   -5.4060   26.4230  -30.4200 O   0  0  0  0  0  0  0  0  0  0  0  0
   -7.0530   24.1490  -31.1460 C   0  0  0  0  0  0  0  0  0  0  0  0
   -7.3960   22.8540  -31.4650 C   0  0  0  0  0  0  0  0  0  0  0  0
   -8.5880   22.3330  -31.9660 C   0  0  0  0  0  0  0  0  0  0  0  0
   -8.6420   20.9550  -32.2260 C   0  0  0  0  0  0  0  0  0  0  0  0
   -7.5170   20.1210  -31.9820 C   0  0  0  0  0  0  0  0  0  0  0  0
   -7.6360   18.6330  -32.2040 C   0  0  0  0  0  0  0  0  0  0  0  0
   -8.9620   18.2560  -32.0620 F   0  0  0  0  0  0  0  0  0  0  0  0
   -6.8710   17.9270  -31.2890 F   0  0  0  0  0  0  0  0  0  0  0  0
   -7.2030   18.3040  -33.4790 F   0  0  0  0  0  0  0  0  0  0  0  0
   -6.3360   20.6890  -31.4570 C   0  0  0  0  0  0  0  0  0  0  0  0
   -6.2990   22.0670  -31.2410 C   0  0  0  0  0  0  0  0  0  0  0  0
   -1.0900   25.0160  -28.3140 C   0  0  0  0  0  0  0  0  0  0  0  0
   -1.2090   26.1180  -28.9150 O   0  0  0  0  0  0  0  0  0  0  0  0
   -0.6250   24.9860  -26.9910 O   0  0  0  0  0  0  0  0  0  0  0  0
   -1.2430   25.6490  -25.8780 C   0  0  0  0  0  0  0  0  0  0  0  0
   -0.8550   27.1390  -25.8340 C   0  0  0  0  0  0  0  0  0  0  0  0
   -0.7400   24.9620  -24.6000 C   0  0  0  0  0  0  0  0  0  0  0  0
   -2.7760   25.5010  -25.9590 C   0  0  0  0  0  0  0  0  0  0  0  0
    0.1765   22.6049  -28.6440 H   0  0  0  0  0  0  0  0  0  0  0  0
   -0.8055   22.1888  -30.0894 H   0  0  0  0  0  0  0  0  0  0  0  0
    0.2093   23.6710  -30.0894 H   0  0  0  0  0  0  0  0  0  0  0  0
   -2.1270   24.0750  -29.7600 H   0  0  0  0  0  0  0  0  0  0  0  0
   -2.0697   22.9686  -27.0603 H   0  0  0  0  0  0  0  0  0  0  0  0
   -3.4580   23.4849  -28.1772 H   0  0  0  0  0  0  0  0  0  0  0  0
   -1.8072   21.1120  -28.9354 H   0  0  0  0  0  0  0  0  0  0  0  0
   -3.0485   20.9599  -27.6147 H   0  0  0  0  0  0  0  0  0  0  0  0
   -3.0740   25.6670  -29.3420 H   0  0  0  0  0  0  0  0  0  0  0  0
   -7.6935   25.0417  -31.1997 H   0  0  0  0  0  0  0  0  0  0  0  0
   -9.4576   22.9807  -32.1514 H   0  0  0  0  0  0  0  0  0  0  0  0
   -9.5678   20.5141  -32.6242 H   0  0  0  0  0  0  0  0  0  0  0  0
   -5.4647   20.0595  -31.2235 H   0  0  0  0  0  0  0  0  0  0  0  0
   -0.7701   27.4650  -24.7869 H   0  0  0  0  0  0  0  0  0  0  0  0
    0.1103   27.2817  -26.3419 H   0  0  0  0  0  0  0  0  0  0  0  0
   -1.6281   27.7344  -26.3419 H   0  0  0  0  0  0  0  0  0  0  0  0
   -1.1298   25.4943  -23.7198 H   0  0  0  0  0  0  0  0  0  0  0  0
   -1.0896   23.9192  -24.5824 H   0  0  0  0  0  0  0  0  0  0  0  0
    0.3597   24.9804  -24.5824 H   0  0  0  0  0  0  0  0  0  0  0  0
   -3.1947   25.4606  -24.9426 H   0  0  0  0  0  0  0  0  0  0  0  0
   -3.1997   26.3624  -26.4961 H   0  0  0  0  0  0  0  0  0  0  0  0
   -3.0271   24.5744  -26.4961 H   0  0  0  0  0  0  0  0  0  0  0  0
  1  2  1  0
  2  3  1  0
  3  4  1  0
  4  5  1  0
  5  6  1  0
  6  7  2  0
  6  8  1  0
  8  9  1  0
  9 10  1  0
 10 11  1  0
 10 12  2  0
  9 13  2  0
 13 14  1  0
 14 15  2  0
 15 16  1  0
 16 17  2  0
 17 18  1  0
 18 19  1  0
 18 20  1  0
 18 21  1  0
 17 22  1  0
 22 23  2  0
  2 24  1  0
 24 25  2  0
 24 26  1  0
 26 27  1  0
 27 28  1  0
 27 29  1  0
 27 30  1  0
 23  8  1  0
 23 14  1  0
  1 31  1  0
  1 32  1  0
  1 33  1  0
  2 34  1  6
  3 35  1  0
  3 36  1  0
  4 37  1  0
  4 38  1  0
 11 39  1  0
 13 40  1  0
 15 41  1  0
 16 42  1  0
 22 43  1  0
 28 44  1  0
 28 45  1  0
 28 46  1  0
 29 47  1  0
 29 48  1  0
 29 49  1  0
 30 50  1  0
 30 51  1  0
 30 52  1  0
M  CHG  2   2   1  11  -1
M  END
>  <UniqueID>  (78) 
78

>  <SMILES>  (78) 
C[N@@H+](CCOC(=O)n1c(C([NH-])=O)cc2ccc(C(F)(F)F)cc21)C(=O)OC(C)(C)C

>  <Energy>  (78) 
97.49079254697166

>  <Genealogy>  (78) 
C[NH+](CCOC(=O)n1c(C([NH-])=O)cc2ccc(C(F)(F)F)cc21)C(=O)OC(C)(C)C (protonated)
C[N@@H+](CCOC(=O)n1c(C([NH-])=O)cc2ccc(C(F)(F)F)cc21)C(=O)OC(C)(C)C (chirality)
C[N@@H+](CCOC(=O)n1c(C([NH-])=O)cc2ccc(C(F)(F)F)cc21)C(=O)OC(C)(C)C (3D coordinates assigned)
C[N@@H+](CCOC(=O)n1c(C([NH-])=O)cc2ccc(C(F)(F)F)cc21)C(=O)OC(C)(C)C (optimized conformer: 97.49079254697166 kcal/mol)

>  <smiles>  (78) 
CN(CCOC(=O)n1c(C(N)=O)cc2ccc(C(F)(F)F)cc21)C(=O)OC(C)(C)C

>  <score_type>  (78) 
oracle

>  <origin>  (78) 
adg

>  <m_score__min__energy>  (78) 
-9.1500000000000004

>  <m_primary>  (78) 
energy

$$$$
78:0
     RDKit          3D

 37 38  0  0  0  0  0  0  0  0999 V2000
   -3.8410   25.3080  -30.6780 N   0  0  0  0  0  0  0  0  0  0  0  0
   -5.2380   25.1890  -30.4200 C   0  0  0  0  0  0  0  0  0  0  0  0
   -5.8100   26.0570  -29.7090 O   0  0  0  0  0  0  0  0  0  0  0  0
   -6.0090   24.0340  -30.9260 C   0  0  0  0  0  0  0  0  0  0  0  0
   -7.3910   24.0570  -31.1020 C   0  0  0  0  0  0  0  0  0  0  0  0
   -7.7310   22.7810  -31.4900 C   0  0  0  0  0  0  0  0  0  0  0  0
   -8.9750   22.2430  -31.8060 C   0  0  0  0  0  0  0  0  0  0  0  0
   -9.0290   20.8960  -32.2020 C   0  0  0  0  0  0  0  0  0  0  0  0
   -7.8470   20.1210  -32.2800 C   0  0  0  0  0  0  0  0  0  0  0  0
   -7.9120   18.7550  -32.6940 N   0  0  0  0  0  0  0  0  0  0  0  0
   -6.6020   20.7000  -31.9530 C   0  0  0  0  0  0  0  0  0  0  0  0
   -6.5800   22.0390  -31.5430 C   0  0  0  0  0  0  0  0  0  0  0  0
   -5.5120   22.7960  -31.2040 N   0  0  0  0  0  0  0  0  0  0  0  0
   -4.1380   22.3780  -31.2220 C   0  0  0  0  0  0  0  0  0  0  0  0
   -3.3070   22.9730  -31.9620 O   0  0  0  0  0  0  0  0  0  0  0  0
   -3.7340   21.2920  -30.4420 O   0  0  0  0  0  0  0  0  0  0  0  0
   -2.5390   21.2980  -29.6700 C   0  0  0  0  0  0  0  0  0  0  0  0
   -2.3180   22.6680  -29.1240 C   0  0  0  0  0  0  0  0  0  0  0  0
   -3.2770   23.2990  -28.6020 O   0  0  0  0  0  0  0  0  0  0  0  0
   -1.0360   23.2270  -29.1810 O   0  0  0  0  0  0  0  0  0  0  0  0
   -0.4470   23.9510  -28.1030 C   0  0  0  0  0  0  0  0  0  0  0  0
   -0.8070   25.4340  -28.1900 C   0  0  0  0  0  0  0  0  0  0  0  0
   -1.6090   25.6740  -29.3150 O   0  0  0  0  0  0  0  0  0  0  0  0
   -3.1760   24.5550  -30.3900 H   0  0  0  0  0  0  0  0  0  0  0  0
   -8.0669   24.9133  -30.9608 H   0  0  0  0  0  0  0  0  0  0  0  0
   -9.8881   22.8537  -31.7475 H   0  0  0  0  0  0  0  0  0  0  0  0
   -9.9979   20.4399  -32.4535 H   0  0  0  0  0  0  0  0  0  0  0  0
   -7.3300   18.0250  -32.2250 H   0  0  0  0  0  0  0  0  0  0  0  0
   -8.5440   18.4620  -33.4730 H   0  0  0  0  0  0  0  0  0  0  0  0
   -5.6730   20.1147  -32.0185 H   0  0  0  0  0  0  0  0  0  0  0  0
   -2.6326   20.5815  -28.8406 H   0  0  0  0  0  0  0  0  0  0  0  0
   -1.6871   21.0094  -30.3033 H   0  0  0  0  0  0  0  0  0  0  0  0
   -0.8167   23.5446  -27.1500 H   0  0  0  0  0  0  0  0  0  0  0  0
    0.6465   23.8477  -28.1623 H   0  0  0  0  0  0  0  0  0  0  0  0
   -1.3560   25.7281  -27.2833 H   0  0  0  0  0  0  0  0  0  0  0  0
    0.1181   26.0227  -28.2774 H   0  0  0  0  0  0  0  0  0  0  0  0
   -2.0270   24.8070  -29.5550 H   0  0  0  0  0  0  0  0  0  0  0  0
  1  2  1  0
  2  3  2  0
  2  4  1  0
  4  5  2  0
  5  6  1  0
  6  7  2  0
  7  8  1  0
  8  9  2  0
  9 10  1  0
  9 11  1  0
 11 12  2  0
 12 13  1  0
 13 14  1  0
 14 15  2  0
 14 16  1  0
 16 17  1  0
 17 18  1  0
 18 19  2  0
 18 20  1  0
 20 21  1  0
 21 22  1  0
 22 23  1  0
 13  4  1  0
 12  6  1  0
  1 24  1  0
  5 25  1  0
  7 26  1  0
  8 27  1  0
 10 28  1  0
 10 29  1  0
 11 30  1  0
 17 31  1  0
 17 32  1  0
 21 33  1  0
 21 34  1  0
 22 35  1  0
 22 36  1  0
 23 37  1  0
M  CHG  1   1  -1
M  END
>  <UniqueID>  (79) 
79

>  <SMILES>  (79) 
[NH-]C(=O)c1cc2ccc(N)cc2n1C(=O)OCC(=O)OCCO

>  <Energy>  (79) 
68.43386855252682

>  <Genealogy>  (79) 
[NH-]C(=O)c1cc2ccc(N)cc2n1C(=O)OCC(=O)OCCO (protonated)
[NH-]C(=O)c1cc2ccc(N)cc2n1C(=O)OCC(=O)OCCO (3D coordinates assigned)
[NH-]C(=O)c1cc2ccc(N)cc2n1C(=O)OCC(=O)OCCO (optimized conformer: 68.43386855252682 kcal/mol)

>  <smiles>  (79) 
NC(=O)c1cc2ccc(N)cc2n1C(=O)OCC(=O)OCCO

>  <score_type>  (79) 
oracle

>  <origin>  (79) 
adg

>  <m_score__min__energy>  (79) 
-8.7799999999999994

>  <m_primary>  (79) 
energy

$$$$
79:0
     RDKit          3D

 49 52  0  0  0  0  0  0  0  0999 V2000
   -2.9417   20.3702  -30.4104 H   0  0  0  0  0  0  0  0  0  0  0  0
   -3.2720   21.2830  -29.8930 C   0  0  0  0  0  0  0  0  0  0  0  0
   -3.7920   22.4060  -30.6980 C   0  0  0  0  0  0  0  0  0  0  0  0
   -3.0010   23.2450  -31.2090 O   0  0  0  0  0  0  0  0  0  0  0  0
   -5.2090   22.5580  -30.8890 N   0  0  0  0  0  0  0  0  0  0  0  0
   -5.9470   23.6940  -30.7460 C   0  0  0  0  0  0  0  0  0  0  0  0
   -5.4510   24.9900  -30.2390 C   0  0  0  0  0  0  0  0  0  0  0  0
   -6.1260   25.6180  -29.3810 O   0  0  0  0  0  0  0  0  0  0  0  0
   -4.1940   25.5210  -30.6630 N   0  0  0  0  0  0  0  0  0  0  0  0
   -3.5240   24.9470  -31.2200 H   0  0  0  0  0  0  0  0  0  0  0  0
   -3.8870   26.4620  -30.3340 H   0  0  0  0  0  0  0  0  0  0  0  0
   -7.2730   23.4680  -31.1110 C   0  0  0  0  0  0  0  0  0  0  0  0
   -8.0999   24.1934  -31.1046 H   0  0  0  0  0  0  0  0  0  0  0  0
   -7.3270   22.1440  -31.4810 C   0  0  0  0  0  0  0  0  0  0  0  0
   -8.4020   21.3800  -31.9290 C   0  0  0  0  0  0  0  0  0  0  0  0
   -9.4076   21.8162  -32.0217 H   0  0  0  0  0  0  0  0  0  0  0  0
   -8.1630   20.0350  -32.2590 C   0  0  0  0  0  0  0  0  0  0  0  0
   -8.9966   19.4001  -32.5936 H   0  0  0  0  0  0  0  0  0  0  0  0
   -6.8580   19.4880  -32.1650 C   0  0  0  0  0  0  0  0  0  0  0  0
   -6.6270   18.1040  -32.4820 N   0  0  0  0  0  0  0  0  0  0  0  0
   -6.8380   17.5900  -33.8370 C   0  0  0  0  0  0  0  0  0  0  0  0
   -7.2420   18.3926  -34.4715 H   0  0  0  0  0  0  0  0  0  0  0  0
   -7.5480   16.7508  -33.7967 H   0  0  0  0  0  0  0  0  0  0  0  0
   -5.5050   17.0940  -34.4300 C   0  0  0  0  0  0  0  0  0  0  0  0
   -5.0227   17.9350  -34.9498 H   0  0  0  0  0  0  0  0  0  0  0  0
   -5.7465   16.2619  -35.1077 H   0  0  0  0  0  0  0  0  0  0  0  0
   -4.5560   16.5640  -33.4160 N   0  0  0  0  0  0  0  0  0  0  0  0
   -3.4740   17.5210  -33.1260 C   0  0  0  0  0  0  0  0  0  0  0  0
   -3.3576   17.6239  -32.0370 H   0  0  0  0  0  0  0  0  0  0  0  0
   -2.5332   17.1540  -33.5622 H   0  0  0  0  0  0  0  0  0  0  0  0
   -3.7233   18.4995  -33.5622 H   0  0  0  0  0  0  0  0  0  0  0  0
   -5.2230   16.0950  -32.1810 C   0  0  0  0  0  0  0  0  0  0  0  0
   -4.4589   15.7148  -31.4870 H   0  0  0  0  0  0  0  0  0  0  0  0
   -5.9362   15.3049  -32.4587 H   0  0  0  0  0  0  0  0  0  0  0  0
   -6.0080   17.2220  -31.4870 C   0  0  0  0  0  0  0  0  0  0  0  0
   -5.3207   17.8092  -30.8603 H   0  0  0  0  0  0  0  0  0  0  0  0
   -6.7987   16.7752  -30.8663 H   0  0  0  0  0  0  0  0  0  0  0  0
   -5.7930   20.2970  -31.7130 C   0  0  0  0  0  0  0  0  0  0  0  0
   -4.7707   19.8961  -31.6477 H   0  0  0  0  0  0  0  0  0  0  0  0
   -6.0670   21.6200  -31.3500 C   0  0  0  0  0  0  0  0  0  0  0  0
   -3.1870   21.3320  -28.5610 C   0  0  0  0  0  0  0  0  0  0  0  0
   -3.5597   22.2205  -28.0302 H   0  0  0  0  0  0  0  0  0  0  0  0
   -2.6060   20.2240  -27.7890 C   0  0  0  0  0  0  0  0  0  0  0  0
   -3.2730   19.5800  -26.8100 N   0  0  0  0  0  0  0  0  0  0  0  0
   -2.3810   18.6680  -26.3760 C   0  0  0  0  0  0  0  0  0  0  0  0
   -2.5554   17.9392  -25.5708 H   0  0  0  0  0  0  0  0  0  0  0  0
   -1.2170   18.7930  -27.1000 C   0  0  0  0  0  0  0  0  0  0  0  0
   -0.3071   18.1877  -26.9748 H   0  0  0  0  0  0  0  0  0  0  0  0
   -1.3870   19.7610  -27.9640 O   0  0  0  0  0  0  0  0  0  0  0  0
  1  2  1  0
  2  3  1  0
  3  4  2  0
  3  5  1  0
  5  6  1  0
  6  7  1  0
  7  8  2  0
  7  9  1  0
  9 10  1  0
  9 11  1  0
  6 12  2  0
 12 13  1  0
 12 14  1  0
 14 15  2  0
 15 16  1  0
 15 17  1  0
 17 18  1  0
 17 19  2  0
 19 20  1  0
 20 21  1  0
 21 22  1  0
 21 23  1  0
 21 24  1  0
 24 25  1  0
 24 26  1  0
 24 27  1  0
 27 28  1  0
 28 29  1  0
 28 30  1  0
 28 31  1  0
 27 32  1  0
 32 33  1  0
 32 34  1  0
 32 35  1  0
 35 36  1  0
 35 37  1  0
 19 38  1  0
 38 39  1  0
 38 40  2  0
  2 41  2  0
 41 42  1  0
 41 43  1  0
 43 44  2  0
 44 45  1  0
 45 46  1  0
 45 47  2  0
 47 48  1  0
 47 49  1  0
 40  5  1  0
 49 43  1  0
 40 14  1  0
 35 20  1  0
M  END
>  <UniqueID>  (80) 
80

>  <SMILES>  (80) 
CN1CCN(c2ccc3cc(C(N)=O)n(C(=O)/C=C/c4ncco4)c3c2)CC1

>  <Energy>  (80) 
129.80721480823465

>  <Genealogy>  (80) 
CN1CCN(c2ccc3cc(C(N)=O)n(C(=O)/C=C/c4ncco4)c3c2)CC1 (cis-trans isomerization)
CN1CCN(c2ccc3cc(C(N)=O)n(C(=O)/C=C/c4ncco4)c3c2)CC1 (3D coordinates assigned)
CN1CCN(c2ccc3cc(C(N)=O)n(C(=O)/C=C/c4ncco4)c3c2)CC1 (nonaromatic ring conformer: 129.80721480823465 kcal/mol)

>  <smiles>  (80) 
CN1CCN(c2ccc3cc(C(N)=O)n(C(=O)/C=C/c4ncco4)c3c2)CC1

>  <score_type>  (80) 
oracle

>  <origin>  (80) 
adg

>  <m_score__min__energy>  (80) 
-10.029999999999999

>  <m_primary>  (80) 
energy

$$$$
80:0
     RDKit          3D

 39 40  0  0  0  0  0  0  0  0999 V2000
   -2.6810   25.2280  -30.2800 H   0  0  0  0  0  0  0  0  0  0  0  0
   -2.2290   25.3050  -29.3420 N   0  0  0  0  0  0  0  0  0  0  0  0
   -2.3450   24.2560  -28.3840 C   0  0  0  0  0  0  0  0  0  0  0  0
   -3.0160   24.4480  -27.3350 O   0  0  0  0  0  0  0  0  0  0  0  0
   -1.7160   22.9450  -28.6490 C   0  0  0  0  0  0  0  0  0  0  0  0
   -0.7040   22.4050  -27.8590 C   0  0  0  0  0  0  0  0  0  0  0  0
   -0.2893   22.8230  -26.9299 H   0  0  0  0  0  0  0  0  0  0  0  0
   -0.3330   21.2390  -28.4860 C   0  0  0  0  0  0  0  0  0  0  0  0
    0.6210   20.2920  -28.1250 C   0  0  0  0  0  0  0  0  0  0  0  0
    1.2386   20.4242  -27.2244 H   0  0  0  0  0  0  0  0  0  0  0  0
    0.7710   19.1610  -28.9470 C   0  0  0  0  0  0  0  0  0  0  0  0
    1.5131   18.3921  -28.6861 H   0  0  0  0  0  0  0  0  0  0  0  0
   -0.0250   19.0030  -30.1080 C   0  0  0  0  0  0  0  0  0  0  0  0
    0.1110   17.7690  -30.9470 C   0  0  0  0  0  0  0  0  0  0  0  0
    0.2079   16.8898  -30.2930 H   0  0  0  0  0  0  0  0  0  0  0  0
   -0.7803   17.6572  -31.5819 H   0  0  0  0  0  0  0  0  0  0  0  0
    1.0052   17.8540  -31.5819 H   0  0  0  0  0  0  0  0  0  0  0  0
   -0.9940   19.9770  -30.4340 C   0  0  0  0  0  0  0  0  0  0  0  0
   -1.6406   19.8562  -31.3157 H   0  0  0  0  0  0  0  0  0  0  0  0
   -1.1110   21.1000  -29.6070 C   0  0  0  0  0  0  0  0  0  0  0  0
   -1.9690   22.1380  -29.7190 N   0  0  0  0  0  0  0  0  0  0  0  0
   -2.9820   22.2980  -30.7250 C   0  0  0  0  0  0  0  0  0  0  0  0
   -3.0460   23.3670  -31.3890 O   0  0  0  0  0  0  0  0  0  0  0  0
   -3.8960   21.2330  -30.9920 N   0  0  0  0  0  0  0  0  0  0  0  0
   -4.4370   20.8500  -32.5900 S   0  0  0  0  0  0  0  0  0  0  0  0
   -3.9740   19.4690  -32.9580 O   0  0  0  0  0  0  0  0  0  0  0  0
   -3.8890   21.8470  -33.5730 O   0  0  0  0  0  0  0  0  0  0  0  0
   -6.1860   20.9020  -32.6290 C   0  0  0  0  0  0  0  0  0  0  0  0
   -6.8050   20.2970  -33.5450 O   0  0  0  0  0  0  0  0  0  0  0  0
   -6.8770   21.6150  -31.6480 O   0  0  0  0  0  0  0  0  0  0  0  0
   -7.2440   22.9820  -31.8060 C   0  0  0  0  0  0  0  0  0  0  0  0
   -7.8733   23.0905  -32.7016 H   0  0  0  0  0  0  0  0  0  0  0  0
   -7.8035   23.3138  -30.9190 H   0  0  0  0  0  0  0  0  0  0  0  0
   -6.0140   23.8200  -31.9580 C   0  0  0  0  0  0  0  0  0  0  0  0
   -5.4753   23.8187  -32.9171 H   0  0  0  0  0  0  0  0  0  0  0  0
   -5.5580   24.5690  -30.9520 C   0  0  0  0  0  0  0  0  0  0  0  0
   -6.0960   24.5717  -29.9926 H   0  0  0  0  0  0  0  0  0  0  0  0
   -4.4110   25.3480  -31.0970 O   0  0  0  0  0  0  0  0  0  0  0  0
   -3.4990   24.9310  -31.2430 H   0  0  0  0  0  0  0  0  0  0  0  0
  1  2  1  0
  2  3  1  0
  3  4  2  0
  3  5  1  0
  5  6  2  0
  6  7  1  0
  6  8  1  0
  8  9  2  0
  9 10  1  0
  9 11  1  0
 11 12  1  0
 11 13  2  0
 13 14  1  0
 14 15  1  0
 14 16  1  0
 14 17  1  0
 13 18  1  0
 18 19  1  0
 18 20  2  0
 20 21  1  0
 21 22  1  0
 22 23  2  0
 22 24  1  0
 24 25  1  0
 25 26  2  0
 25 27  2  0
 25 28  1  0
 28 29  2  0
 28 30  1  0
 30 31  1  0
 31 32  1  0
 31 33  1  0
 31 34  1  0
 34 35  1  0
 34 36  2  0
 36 37  1  0
 36 38  1  0
 38 39  1  0
 21  5  1  0
 20  8  1  0
M  CHG  2   2  -1  24  -1
M  END
>  <UniqueID>  (81) 
81

>  <SMILES>  (81) 
Cc1ccc2cc(C([NH-])=O)n(C(=O)[N-]S(=O)(=O)C(=O)OC/C=C/O)c2c1

>  <Energy>  (81) 
74.43995400335706

>  <Genealogy>  (81) 
Cc1ccc2cc(C([NH-])=O)n(C(=O)[N-]S(=O)(=O)C(=O)OC/C=C/O)c2c1 (protonated)
Cc1ccc2cc(C([NH-])=O)n(C(=O)[N-]S(=O)(=O)C(=O)OC/C=C/O)c2c1 (cis-trans isomerization)
Cc1ccc2cc(C([NH-])=O)n(C(=O)[N-]S(=O)(=O)C(=O)OC/C=C/O)c2c1 (3D coordinates assigned)
Cc1ccc2cc(C([NH-])=O)n(C(=O)[N-]S(=O)(=O)C(=O)OC/C=C/O)c2c1 (optimized conformer: 74.43995400335706 kcal/mol)

>  <smiles>  (81) 
Cc1ccc2cc(C(N)=O)n(C(=O)NS(=O)(=O)C(=O)OC/C=C/O)c2c1

>  <score_type>  (81) 
oracle

>  <origin>  (81) 
adg

>  <m_score__min__energy>  (81) 
-11.130000000000001

>  <m_primary>  (81) 
energy

$$$$
81:0
     RDKit          3D

 44 46  0  0  0  0  0  0  0  0999 V2000
   -4.1600   23.0830  -28.0770 C   0  0  0  0  0  0  0  0  0  0  0  0
   -2.8430   22.6670  -28.7600 C   0  0  0  0  0  0  0  0  0  0  0  0
   -1.6680   23.2870  -27.9890 C   0  0  0  0  0  0  0  0  0  0  0  0
   -2.6880   21.1350  -28.7600 C   0  0  0  0  0  0  0  0  0  0  0  0
   -2.7810   23.1750  -30.1020 O   0  0  0  0  0  0  0  0  0  0  0  0
   -3.4310   22.6410  -31.2250 C   0  0  0  0  0  0  0  0  0  0  0  0
   -2.7750   22.0920  -32.1510 O   0  0  0  0  0  0  0  0  0  0  0  0
   -4.8600   22.7360  -31.3240 N   0  0  0  0  0  0  0  0  0  0  0  0
   -5.6400   23.8260  -31.0700 C   0  0  0  0  0  0  0  0  0  0  0  0
   -5.1870   25.1010  -30.4790 C   0  0  0  0  0  0  0  0  0  0  0  0
   -3.9330   25.6700  -30.8440 N   0  0  0  0  0  0  0  0  0  0  0  0
   -5.8950   25.6700  -29.6040 O   0  0  0  0  0  0  0  0  0  0  0  0
   -6.9710   23.5590  -31.3860 C   0  0  0  0  0  0  0  0  0  0  0  0
   -6.9830   22.2590  -31.8410 C   0  0  0  0  0  0  0  0  0  0  0  0
   -8.0420   21.4850  -32.3080 C   0  0  0  0  0  0  0  0  0  0  0  0
   -7.7580   20.1840  -32.7580 C   0  0  0  0  0  0  0  0  0  0  0  0
   -6.4280   19.6900  -32.7580 C   0  0  0  0  0  0  0  0  0  0  0  0
   -6.1310   18.3280  -33.2640 C   0  0  0  0  0  0  0  0  0  0  0  0
   -7.0780   17.3050  -33.0890 C   0  0  0  0  0  0  0  0  0  0  0  0
   -6.8220   16.0180  -33.5640 C   0  0  0  0  0  0  0  0  0  0  0  0
   -5.6160   15.7550  -34.2100 C   0  0  0  0  0  0  0  0  0  0  0  0
   -4.6970   16.7440  -34.3620 N   0  0  0  0  0  0  0  0  0  0  0  0
   -4.9130   18.0100  -33.9110 C   0  0  0  0  0  0  0  0  0  0  0  0
   -3.8570   18.9780  -34.0670 C   0  0  0  0  0  0  0  0  0  0  0  0
   -3.0100   19.7550  -34.1920 N   0  0  0  0  0  0  0  0  0  0  0  0
   -5.3830   20.5020  -32.2610 C   0  0  0  0  0  0  0  0  0  0  0  0
   -5.6980   21.7850  -31.7960 C   0  0  0  0  0  0  0  0  0  0  0  0
   -4.0350   23.0435  -26.9848 H   0  0  0  0  0  0  0  0  0  0  0  0
   -4.4221   24.1077  -28.3793 H   0  0  0  0  0  0  0  0  0  0  0  0
   -4.9631   22.3948  -28.3793 H   0  0  0  0  0  0  0  0  0  0  0  0
   -1.8479   23.1921  -26.9080 H   0  0  0  0  0  0  0  0  0  0  0  0
   -0.7382   22.7621  -28.2534 H   0  0  0  0  0  0  0  0  0  0  0  0
   -1.5765   24.3508  -28.2534 H   0  0  0  0  0  0  0  0  0  0  0  0
   -2.6511   20.7702  -27.7229 H   0  0  0  0  0  0  0  0  0  0  0  0
   -3.5447   20.6798  -29.2785 H   0  0  0  0  0  0  0  0  0  0  0  0
   -1.7575   20.8606  -29.2785 H   0  0  0  0  0  0  0  0  0  0  0  0
   -3.0380   25.2960  -30.4550 H   0  0  0  0  0  0  0  0  0  0  0  0
   -7.8289   24.2410  -31.2921 H   0  0  0  0  0  0  0  0  0  0  0  0
   -9.0688   21.8793  -32.3243 H   0  0  0  0  0  0  0  0  0  0  0  0
   -8.5765   19.5413  -33.1143 H   0  0  0  0  0  0  0  0  0  0  0  0
   -8.0264   17.5197  -32.5748 H   0  0  0  0  0  0  0  0  0  0  0  0
   -7.5656   15.2186  -33.4296 H   0  0  0  0  0  0  0  0  0  0  0  0
   -5.4079   14.7466  -34.5970 H   0  0  0  0  0  0  0  0  0  0  0  0
   -4.3464   20.1346  -32.2400 H   0  0  0  0  0  0  0  0  0  0  0  0
  1  2  1  0
  2  3  1  0
  2  4  1  0
  2  5  1  0
  5  6  1  0
  6  7  2  0
  6  8  1  0
  8  9  1  0
  9 10  1  0
 10 11  1  0
 10 12  2  0
  9 13  2  0
 13 14  1  0
 14 15  2  0
 15 16  1  0
 16 17  2  0
 17 18  1  0
 18 19  2  0
 19 20  1  0
 20 21  2  0
 21 22  1  0
 22 23  2  0
 23 24  1  0
 24 25  3  0
 17 26  1  0
 26 27  2  0
 27  8  1  0
 27 14  1  0
 23 18  1  0
  1 28  1  0
  1 29  1  0
  1 30  1  0
  3 31  1  0
  3 32  1  0
  3 33  1  0
  4 34  1  0
  4 35  1  0
  4 36  1  0
 11 37  1  0
 13 38  1  0
 15 39  1  0
 16 40  1  0
 19 41  1  0
 20 42  1  0
 21 43  1  0
 26 44  1  0
M  CHG  1  11  -1
M  END
>  <UniqueID>  (82) 
82

>  <SMILES>  (82) 
CC(C)(C)OC(=O)n1c(C([NH-])=O)cc2ccc(-c3cccnc3C#N)cc21

>  <Energy>  (82) 
87.94669271483562

>  <Genealogy>  (82) 
CC(C)(C)OC(=O)n1c(C([NH-])=O)cc2ccc(-c3cccnc3C#N)cc21 (protonated)
CC(C)(C)OC(=O)n1c(C([NH-])=O)cc2ccc(-c3cccnc3C#N)cc21 (3D coordinates assigned)
CC(C)(C)OC(=O)n1c(C([NH-])=O)cc2ccc(-c3cccnc3C#N)cc21 (optimized conformer: 87.94669271483562 kcal/mol)

>  <smiles>  (82) 
CC(C)(C)OC(=O)n1c(C(N)=O)cc2ccc(-c3cccnc3C#N)cc21

>  <score_type>  (82) 
oracle

>  <origin>  (82) 
adg

>  <m_score__min__energy>  (82) 
-11.289999999999999

>  <m_primary>  (82) 
energy

$$$$
82:0
     RDKit          3D

 29 30  0  0  0  0  0  0  0  0999 V2000
   -8.1080   19.1300  -33.0590 N   0  0  0  0  0  0  0  0  0  0  0  0
   -8.6830   20.3410  -32.5640 C   0  0  0  0  0  0  0  0  0  0  0  0
   -9.9310   20.4980  -32.6290 O   0  0  0  0  0  0  0  0  0  0  0  0
   -7.8330   21.3840  -31.9470 C   0  0  0  0  0  0  0  0  0  0  0  0
   -8.3290   22.5710  -31.4120 C   0  0  0  0  0  0  0  0  0  0  0  0
   -7.2190   23.2920  -31.0340 C   0  0  0  0  0  0  0  0  0  0  0  0
   -7.1300   24.5450  -30.4370 C   0  0  0  0  0  0  0  0  0  0  0  0
   -5.8510   25.0380  -30.1300 C   0  0  0  0  0  0  0  0  0  0  0  0
   -4.6890   24.2780  -30.4180 C   0  0  0  0  0  0  0  0  0  0  0  0
   -3.3990   24.8230  -30.0750 N   0  0  0  0  0  0  0  0  0  0  0  0
   -2.5130   24.2700  -29.0500 C   0  0  0  0  0  0  0  0  0  0  0  0
   -1.2490   25.0670  -28.9630 C   0  0  0  0  0  0  0  0  0  0  0  0
   -1.2290   26.2660  -29.3440 O   0  0  0  0  0  0  0  0  0  0  0  0
   -0.0960   24.4910  -28.4440 O   0  0  0  0  0  0  0  0  0  0  0  0
   -4.8250   23.0050  -31.0240 C   0  0  0  0  0  0  0  0  0  0  0  0
   -6.1100   22.5470  -31.3370 C   0  0  0  0  0  0  0  0  0  0  0  0
   -6.4700   21.3710  -31.8990 N   0  0  0  0  0  0  0  0  0  0  0  0
   -5.5880   20.3090  -32.2990 C   0  0  0  0  0  0  0  0  0  0  0  0
   -5.5070   19.2550  -31.6120 O   0  0  0  0  0  0  0  0  0  0  0  0
   -4.8060   20.4360  -33.4390 O   0  0  0  0  0  0  0  0  0  0  0  0
   -7.0740   18.9860  -33.0740 H   0  0  0  0  0  0  0  0  0  0  0  0
   -8.7200   18.3840  -33.4560 H   0  0  0  0  0  0  0  0  0  0  0  0
   -9.3833   22.8687  -31.3128 H   0  0  0  0  0  0  0  0  0  0  0  0
   -8.0330   25.1316  -30.2123 H   0  0  0  0  0  0  0  0  0  0  0  0
   -5.7494   26.0272  -29.6597 H   0  0  0  0  0  0  0  0  0  0  0  0
   -3.0620   25.6660  -30.5910 H   0  0  0  0  0  0  0  0  0  0  0  0
   -3.0250   24.2962  -28.0768 H   0  0  0  0  0  0  0  0  0  0  0  0
   -2.2617   23.2334  -29.3190 H   0  0  0  0  0  0  0  0  0  0  0  0
   -3.9400   22.3898  -31.2438 H   0  0  0  0  0  0  0  0  0  0  0  0
  1  2  1  0
  2  3  2  0
  2  4  1  0
  4  5  2  0
  5  6  1  0
  6  7  2  0
  7  8  1  0
  8  9  2  0
  9 10  1  0
 10 11  1  0
 11 12  1  0
 12 13  2  0
 12 14  1  0
  9 15  1  0
 15 16  2  0
 16 17  1  0
 17 18  1  0
 18 19  2  0
 18 20  1  0
 17  4  1  0
 16  6  1  0
  1 21  1  0
  1 22  1  0
  5 23  1  0
  7 24  1  0
  8 25  1  0
 10 26  1  0
 11 27  1  0
 11 28  1  0
 15 29  1  0
M  CHG  2  14  -1  20  -1
M  END
>  <UniqueID>  (83) 
83

>  <SMILES>  (83) 
NC(=O)c1cc2ccc(NCC(=O)[O-])cc2n1C(=O)[O-]

>  <Energy>  (83) 
67.47406024433725

>  <Genealogy>  (83) 
NC(=O)c1cc2ccc(NCC(=O)[O-])cc2n1C(=O)[O-] (protonated)
NC(=O)c1cc2ccc(NCC(=O)[O-])cc2n1C(=O)[O-] (3D coordinates assigned)
NC(=O)c1cc2ccc(NCC(=O)[O-])cc2n1C(=O)[O-] (optimized conformer: 67.47406024433725 kcal/mol)

>  <smiles>  (83) 
NC(=O)c1cc2ccc(NCC(=O)O)cc2n1C(=O)O

>  <score_type>  (83) 
oracle

>  <origin>  (83) 
adg

>  <m_score__min__energy>  (83) 
-9.1799999999999997

>  <m_primary>  (83) 
energy

$$$$
83:0
     RDKit          3D

 40 41  0  0  0  0  0  0  0  0999 V2000
   -6.7920   23.1860  -32.1110 C   0  0  0  0  0  0  0  0  0  0  0  0
   -6.4010   21.9280  -32.3330 C   0  0  0  0  0  0  0  0  0  0  0  0
   -7.3960   20.8300  -32.5610 C   0  0  0  0  0  0  0  0  0  0  0  0
   -6.7910   19.7830  -33.3120 O   0  0  0  0  0  0  0  0  0  0  0  0
   -6.9810   18.4320  -33.0110 C   0  0  0  0  0  0  0  0  0  0  0  0
   -8.0080   18.0590  -32.3780 O   0  0  0  0  0  0  0  0  0  0  0  0
   -6.0140   17.5090  -33.4280 O   0  0  0  0  0  0  0  0  0  0  0  0
   -4.9820   17.7790  -34.3380 C   0  0  0  0  0  0  0  0  0  0  0  0
   -5.2400   18.0670  -35.5390 O   0  0  0  0  0  0  0  0  0  0  0  0
   -3.6150   17.7290  -33.8950 N   0  0  0  0  0  0  0  0  0  0  0  0
   -2.6330   16.8880  -34.3260 C   0  0  0  0  0  0  0  0  0  0  0  0
   -2.8160   15.7350  -35.2300 C   0  0  0  0  0  0  0  0  0  0  0  0
   -3.4950   15.8750  -36.4800 N   0  0  0  0  0  0  0  0  0  0  0  0
   -2.4170   14.5960  -34.8690 O   0  0  0  0  0  0  0  0  0  0  0  0
   -1.4090   17.2250  -33.7550 C   0  0  0  0  0  0  0  0  0  0  0  0
   -1.6740   18.3010  -32.9400 C   0  0  0  0  0  0  0  0  0  0  0  0
   -0.8130   19.0490  -32.1410 C   0  0  0  0  0  0  0  0  0  0  0  0
   -1.3510   20.1360  -31.4310 C   0  0  0  0  0  0  0  0  0  0  0  0
   -2.7240   20.4550  -31.5450 C   0  0  0  0  0  0  0  0  0  0  0  0
   -3.2610   21.5780  -30.8240 C   0  0  0  0  0  0  0  0  0  0  0  0
   -3.7100   22.5200  -30.2190 C   0  0  0  0  0  0  0  0  0  0  0  0
   -4.2540   23.6640  -29.4830 C   0  0  0  0  0  0  0  0  0  0  0  0
   -3.5660   24.9160  -29.9150 C   0  0  0  0  0  0  0  0  0  0  0  0
   -4.0490   25.6180  -30.8420 O   0  0  0  0  0  0  0  0  0  0  0  0
   -2.3630   25.2860  -29.3280 O   0  0  0  0  0  0  0  0  0  0  0  0
   -3.5690   19.6800  -32.3650 C   0  0  0  0  0  0  0  0  0  0  0  0
   -3.0120   18.5890  -33.0430 C   0  0  0  0  0  0  0  0  0  0  0  0
   -6.0424   23.9740  -31.9465 H   0  0  0  0  0  0  0  0  0  0  0  0
   -7.8636   23.4338  -32.0928 H   0  0  0  0  0  0  0  0  0  0  0  0
   -5.3265   21.6929  -32.3488 H   0  0  0  0  0  0  0  0  0  0  0  0
   -7.7345   20.4361  -31.5913 H   0  0  0  0  0  0  0  0  0  0  0  0
   -8.2566   21.2281  -33.1186 H   0  0  0  0  0  0  0  0  0  0  0  0
   -3.5810   15.0580  -37.1230 H   0  0  0  0  0  0  0  0  0  0  0  0
   -3.9870   16.7610  -36.7300 H   0  0  0  0  0  0  0  0  0  0  0  0
   -0.4378   16.7356  -33.9202 H   0  0  0  0  0  0  0  0  0  0  0  0
    0.2552   18.7968  -32.0678 H   0  0  0  0  0  0  0  0  0  0  0  0
   -0.7006   20.7420  -30.7831 H   0  0  0  0  0  0  0  0  0  0  0  0
   -5.3315   23.7504  -29.6867 H   0  0  0  0  0  0  0  0  0  0  0  0
   -4.0916   23.5134  -28.4055 H   0  0  0  0  0  0  0  0  0  0  0  0
   -4.6362   19.9255  -32.4693 H   0  0  0  0  0  0  0  0  0  0  0  0
  1  2  2  0
  2  3  1  0
  3  4  1  0
  4  5  1  0
  5  6  2  0
  5  7  1  0
  7  8  1  0
  8  9  2  0
  8 10  1  0
 10 11  1  0
 11 12  1  0
 12 13  1  0
 12 14  2  0
 11 15  2  0
 15 16  1  0
 16 17  2  0
 17 18  1  0
 18 19  2  0
 19 20  1  0
 20 21  3  0
 21 22  1  0
 22 23  1  0
 23 24  2  0
 23 25  1  0
 19 26  1  0
 26 27  2  0
 27 10  1  0
 27 16  1  0
  1 28  1  0
  1 29  1  0
  2 30  1  0
  3 31  1  0
  3 32  1  0
 13 33  1  0
 13 34  1  0
 15 35  1  0
 17 36  1  0
 18 37  1  0
 22 38  1  0
 22 39  1  0
 26 40  1  0
M  CHG  1  25  -1
M  END
>  <UniqueID>  (84) 
84

>  <SMILES>  (84) 
C=CCOC(=O)OC(=O)n1c(C(N)=O)cc2ccc(C#CCC(=O)[O-])cc21

>  <Energy>  (84) 
69.80673096688803

>  <Genealogy>  (84) 
C=CCOC(=O)OC(=O)n1c(C(N)=O)cc2ccc(C#CCC(=O)[O-])cc21 (protonated)
C=CCOC(=O)OC(=O)n1c(C(N)=O)cc2ccc(C#CCC(=O)[O-])cc21 (3D coordinates assigned)
C=CCOC(=O)OC(=O)n1c(C(N)=O)cc2ccc(C#CCC(=O)[O-])cc21 (optimized conformer: 69.80673096688803 kcal/mol)

>  <smiles>  (84) 
C=CCOC(=O)OC(=O)n1c(C(N)=O)cc2ccc(C#CCC(=O)O)cc21

>  <score_type>  (84) 
oracle

>  <origin>  (84) 
adg

>  <m_score__min__energy>  (84) 
-8.9499999999999993

>  <m_primary>  (84) 
energy

$$$$
84:0
     RDKit          3D

 30 31  0  0  0  0  0  0  0  0999 V2000
   -1.9280   21.7340  -30.0190 C   0  0  0  0  0  0  0  0  0  0  0  0
   -3.1550   22.2570  -30.0310 C   0  0  0  0  0  0  0  0  0  0  0  0
   -3.9340   22.7910  -28.3640 Br  0  0  0  0  0  0  0  0  0  0  0  0
   -3.9020   22.4530  -31.2930 C   0  0  0  0  0  0  0  0  0  0  0  0
   -3.3030   22.4110  -32.4020 O   0  0  0  0  0  0  0  0  0  0  0  0
   -5.3150   22.6990  -31.2720 N   0  0  0  0  0  0  0  0  0  0  0  0
   -5.9540   23.8690  -30.9980 C   0  0  0  0  0  0  0  0  0  0  0  0
   -5.3100   25.1220  -30.5470 C   0  0  0  0  0  0  0  0  0  0  0  0
   -3.8990   25.2980  -30.6400 N   0  0  0  0  0  0  0  0  0  0  0  0
   -6.0140   26.0420  -30.0510 O   0  0  0  0  0  0  0  0  0  0  0  0
   -7.3320   23.7200  -31.1580 C   0  0  0  0  0  0  0  0  0  0  0  0
   -7.5140   22.4120  -31.5480 C   0  0  0  0  0  0  0  0  0  0  0  0
   -8.6830   21.7190  -31.8500 C   0  0  0  0  0  0  0  0  0  0  0  0
   -8.5690   20.3740  -32.2400 C   0  0  0  0  0  0  0  0  0  0  0  0
   -7.2960   19.7550  -32.3380 C   0  0  0  0  0  0  0  0  0  0  0  0
   -7.1870   18.3080  -32.7240 C   0  0  0  0  0  0  0  0  0  0  0  0
   -6.1520   18.1360  -33.7890 C   0  0  0  0  0  0  0  0  0  0  0  0
   -5.3980   17.1280  -33.7820 O   0  0  0  0  0  0  0  0  0  0  0  0
   -6.0540   19.0620  -34.8190 O   0  0  0  0  0  0  0  0  0  0  0  0
   -6.1330   20.4890  -32.0160 C   0  0  0  0  0  0  0  0  0  0  0  0
   -6.2810   21.8200  -31.6140 C   0  0  0  0  0  0  0  0  0  0  0  0
   -1.4554   21.4184  -30.9608 H   0  0  0  0  0  0  0  0  0  0  0  0
   -1.3887   21.6183  -29.0673 H   0  0  0  0  0  0  0  0  0  0  0  0
   -3.4900   26.0450  -31.2440 H   0  0  0  0  0  0  0  0  0  0  0  0
   -8.1079   24.4846  -31.0051 H   0  0  0  0  0  0  0  0  0  0  0  0
   -9.6656   22.2093  -31.7853 H   0  0  0  0  0  0  0  0  0  0  0  0
   -9.4754   19.7953  -32.4716 H   0  0  0  0  0  0  0  0  0  0  0  0
   -6.9023   17.7166  -31.8413 H   0  0  0  0  0  0  0  0  0  0  0  0
   -8.1587   17.9640  -33.1080 H   0  0  0  0  0  0  0  0  0  0  0  0
   -5.1373   20.0258  -32.0798 H   0  0  0  0  0  0  0  0  0  0  0  0
  1  2  2  0
  2  3  1  0
  2  4  1  0
  4  5  2  0
  4  6  1  0
  6  7  1  0
  7  8  1  0
  8  9  1  0
  8 10  2  0
  7 11  2  0
 11 12  1  0
 12 13  2  0
 13 14  1  0
 14 15  2  0
 15 16  1  0
 16 17  1  0
 17 18  2  0
 17 19  1  0
 15 20  1  0
 20 21  2  0
 21  6  1  0
 21 12  1  0
  1 22  1  0
  1 23  1  0
  9 24  1  0
 11 25  1  0
 13 26  1  0
 14 27  1  0
 16 28  1  0
 16 29  1  0
 20 30  1  0
M  CHG  2   9  -1  19  -1
M  END
>  <UniqueID>  (85) 
85

>  <SMILES>  (85) 
C=C(Br)C(=O)n1c(C([NH-])=O)cc2ccc(CC(=O)[O-])cc21

>  <Energy>  (85) 
67.64321902712841

>  <Genealogy>  (85) 
C=C(Br)C(=O)n1c(C([NH-])=O)cc2ccc(CC(=O)[O-])cc21 (protonated)
C=C(Br)C(=O)n1c(C([NH-])=O)cc2ccc(CC(=O)[O-])cc21 (3D coordinates assigned)
C=C(Br)C(=O)n1c(C([NH-])=O)cc2ccc(CC(=O)[O-])cc21 (optimized conformer: 67.64321902712841 kcal/mol)

>  <smiles>  (85) 
C=C(Br)C(=O)n1c(C(N)=O)cc2ccc(CC(=O)O)cc21

>  <score_type>  (85) 
oracle

>  <origin>  (85) 
adg

>  <m_score__min__energy>  (85) 
-10.5

>  <m_primary>  (85) 
energy

$$$$
85:0
     RDKit          3D

 32 33  0  0  0  0  0  0  0  0999 V2000
   -1.3070   25.2930  -28.1990 C   0  0  0  0  0  0  0  0  0  0  0  0
   -2.1510   25.2500  -29.3430 O   0  0  0  0  0  0  0  0  0  0  0  0
   -3.0800   24.2290  -29.5570 C   0  0  0  0  0  0  0  0  0  0  0  0
   -3.6450   23.6680  -28.5780 O   0  0  0  0  0  0  0  0  0  0  0  0
   -3.3640   23.8430  -30.8720 O   0  0  0  0  0  0  0  0  0  0  0  0
   -4.0390   22.6710  -31.2420 C   0  0  0  0  0  0  0  0  0  0  0  0
   -3.4050   21.5980  -31.4400 O   0  0  0  0  0  0  0  0  0  0  0  0
   -5.4680   22.6960  -31.3940 N   0  0  0  0  0  0  0  0  0  0  0  0
   -6.3250   23.6610  -30.9560 C   0  0  0  0  0  0  0  0  0  0  0  0
   -5.9400   24.9670  -30.3860 C   0  0  0  0  0  0  0  0  0  0  0  0
   -5.7440   25.1320  -28.9810 N   0  0  0  0  0  0  0  0  0  0  0  0
   -5.7250   25.9400  -31.1570 O   0  0  0  0  0  0  0  0  0  0  0  0
   -7.6470   23.2770  -31.1640 C   0  0  0  0  0  0  0  0  0  0  0  0
   -7.5760   22.0390  -31.7600 C   0  0  0  0  0  0  0  0  0  0  0  0
   -8.5960   21.1900  -32.1780 C   0  0  0  0  0  0  0  0  0  0  0  0
   -8.2350   19.9510  -32.7330 C   0  0  0  0  0  0  0  0  0  0  0  0
   -6.8720   19.5790  -32.8410 C   0  0  0  0  0  0  0  0  0  0  0  0
   -6.4990   18.2610  -33.4550 C   0  0  0  0  0  0  0  0  0  0  0  0
   -6.1220   17.0860  -32.1710 Cl  0  0  0  0  0  0  0  0  0  0  0  0
   -5.8640   20.4720  -32.4160 C   0  0  0  0  0  0  0  0  0  0  0  0
   -6.2500   21.7080  -31.8860 C   0  0  0  0  0  0  0  0  0  0  0  0
   -1.9225   25.2616  -27.2879 H   0  0  0  0  0  0  0  0  0  0  0  0
   -0.6272   24.4283  -28.2122 H   0  0  0  0  0  0  0  0  0  0  0  0
   -0.7186   26.2223  -28.2122 H   0  0  0  0  0  0  0  0  0  0  0  0
   -5.5120   26.0720  -28.5910 H   0  0  0  0  0  0  0  0  0  0  0  0
   -5.7510   24.3110  -28.3350 H   0  0  0  0  0  0  0  0  0  0  0  0
   -8.5546   23.8427  -30.9067 H   0  0  0  0  0  0  0  0  0  0  0  0
   -9.6523   21.4800  -32.0770 H   0  0  0  0  0  0  0  0  0  0  0  0
   -9.0174   19.2635  -33.0869 H   0  0  0  0  0  0  0  0  0  0  0  0
   -7.3401   17.8871  -34.0573 H   0  0  0  0  0  0  0  0  0  0  0  0
   -5.6158   18.3951  -34.0969 H   0  0  0  0  0  0  0  0  0  0  0  0
   -4.8008   20.2023  -32.4996 H   0  0  0  0  0  0  0  0  0  0  0  0
  1  2  1  0
  2  3  1  0
  3  4  2  0
  3  5  1  0
  5  6  1  0
  6  7  2  0
  6  8  1  0
  8  9  1  0
  9 10  1  0
 10 11  1  0
 10 12  2  0
  9 13  2  0
 13 14  1  0
 14 15  2  0
 15 16  1  0
 16 17  2  0
 17 18  1  0
 18 19  1  0
 17 20  1  0
 20 21  2  0
 21  8  1  0
 21 14  1  0
  1 22  1  0
  1 23  1  0
  1 24  1  0
 11 25  1  0
 11 26  1  0
 13 27  1  0
 15 28  1  0
 16 29  1  0
 18 30  1  0
 18 31  1  0
 20 32  1  0
M  END
>  <UniqueID>  (86) 
86

>  <SMILES>  (86) 
COC(=O)OC(=O)n1c(C(N)=O)cc2ccc(CCl)cc21

>  <Energy>  (86) 
69.55346224440291

>  <Genealogy>  (86) 
COC(=O)OC(=O)n1c(C(N)=O)cc2ccc(CCl)cc21 (3D coordinates assigned)
COC(=O)OC(=O)n1c(C(N)=O)cc2ccc(CCl)cc21 (optimized conformer: 69.55346224440291 kcal/mol)

>  <smiles>  (86) 
COC(=O)OC(=O)n1c(C(N)=O)cc2ccc(CCl)cc21

>  <score_type>  (86) 
oracle

>  <origin>  (86) 
adg

>  <m_score__min__energy>  (86) 
-8.2400000000000002

>  <m_primary>  (86) 
energy

$$$$
86:0
     RDKit          3D

 37 39  0  0  0  0  0  0  0  0999 V2000
   -3.9510   25.5780  -30.8300 N   0  0  0  0  0  0  0  0  0  0  0  0
   -5.2130   25.0820  -30.3910 C   0  0  0  0  0  0  0  0  0  0  0  0
   -5.9300   25.8000  -29.6420 O   0  0  0  0  0  0  0  0  0  0  0  0
   -5.7170   23.7700  -30.8470 C   0  0  0  0  0  0  0  0  0  0  0  0
   -6.9960   23.5800  -31.3650 C   0  0  0  0  0  0  0  0  0  0  0  0
   -7.0390   22.2630  -31.7600 C   0  0  0  0  0  0  0  0  0  0  0  0
   -8.0730   21.5360  -32.3400 C   0  0  0  0  0  0  0  0  0  0  0  0
   -7.8460   20.1780  -32.6230 C   0  0  0  0  0  0  0  0  0  0  0  0
   -6.6010   19.5700  -32.3180 C   0  0  0  0  0  0  0  0  0  0  0  0
   -6.3720   18.1320  -32.6140 C   0  0  0  0  0  0  0  0  0  0  0  0
   -5.3470   17.4190  -31.9730 C   0  0  0  0  0  0  0  0  0  0  0  0
   -5.1590   16.0710  -32.2720 C   0  0  0  0  0  0  0  0  0  0  0  0
   -5.9680   15.4650  -33.1760 N   0  0  0  0  0  0  0  0  0  0  0  0
   -6.9450   16.1320  -33.7910 N   0  0  0  0  0  0  0  0  0  0  0  0
   -7.1740   17.4480  -33.5410 C   0  0  0  0  0  0  0  0  0  0  0  0
   -5.5780   20.3450  -31.7240 C   0  0  0  0  0  0  0  0  0  0  0  0
   -5.8220   21.7000  -31.4730 C   0  0  0  0  0  0  0  0  0  0  0  0
   -5.0000   22.6110  -30.9080 N   0  0  0  0  0  0  0  0  0  0  0  0
   -3.6740   22.3630  -30.4140 C   0  0  0  0  0  0  0  0  0  0  0  0
   -3.4590   21.3880  -29.6430 O   0  0  0  0  0  0  0  0  0  0  0  0
   -2.6210   23.1870  -30.8200 O   0  0  0  0  0  0  0  0  0  0  0  0
   -1.4160   23.3210  -30.0770 C   0  0  0  0  0  0  0  0  0  0  0  0
   -1.6620   24.5500  -28.7650 P   0  0  1  0  0  0  0  0  0  0  0  0
   -0.8030   24.1930  -27.5730 O   0  0  0  0  0  0  0  0  0  0  0  0
   -1.2220   26.0800  -29.3350 O   0  0  0  0  0  0  0  0  0  0  0  0
   -3.2880   24.5650  -28.3000 O   0  0  0  0  0  0  0  0  0  0  0  0
   -3.0670   25.2980  -30.3490 H   0  0  0  0  0  0  0  0  0  0  0  0
   -7.8013   24.3254  -31.4419 H   0  0  0  0  0  0  0  0  0  0  0  0
   -9.0389   22.0092  -32.5702 H   0  0  0  0  0  0  0  0  0  0  0  0
   -8.6437   19.5792  -33.0868 H   0  0  0  0  0  0  0  0  0  0  0  0
   -4.6973   17.9203  -31.2405 H   0  0  0  0  0  0  0  0  0  0  0  0
   -4.3585   15.5014  -31.7773 H   0  0  0  0  0  0  0  0  0  0  0  0
   -7.9855   17.9757  -34.0636 H   0  0  0  0  0  0  0  0  0  0  0  0
   -4.6099   19.8918  -31.4645 H   0  0  0  0  0  0  0  0  0  0  0  0
   -1.1496   22.3523  -29.6292 H   0  0  0  0  0  0  0  0  0  0  0  0
   -0.6038   23.6473  -30.7433 H   0  0  0  0  0  0  0  0  0  0  0  0
   -3.7840   24.2820  -29.1090 H   0  0  0  0  0  0  0  0  0  0  0  0
  1  2  1  0
  2  3  2  0
  2  4  1  0
  4  5  2  0
  5  6  1  0
  6  7  2  0
  7  8  1  0
  8  9  2  0
  9 10  1  0
 10 11  2  0
 11 12  1  0
 12 13  2  0
 13 14  1  0
 14 15  2  0
  9 16  1  0
 16 17  2  0
 17 18  1  0
 18 19  1  0
 19 20  2  0
 19 21  1  0
 21 22  1  0
 22 23  1  0
 23 24  2  0
 23 25  1  6
 23 26  1  0
 18  4  1  0
 17  6  1  0
 15 10  1  0
  1 27  1  0
  5 28  1  0
  7 29  1  0
  8 30  1  0
 11 31  1  0
 12 32  1  0
 15 33  1  0
 16 34  1  0
 22 35  1  0
 22 36  1  0
 26 37  1  0
M  CHG  2   1  -1  25  -1
M  END
>  <UniqueID>  (87) 
87

>  <SMILES>  (87) 
[NH-]C(=O)c1cc2ccc(-c3ccnnc3)cc2n1C(=O)OC[P@@](=O)([O-])O

>  <Energy>  (87) 
77.77762978093132

>  <Genealogy>  (87) 
[NH-]C(=O)c1cc2ccc(-c3ccnnc3)cc2n1C(=O)OCP(=O)([O-])O (protonated)
[NH-]C(=O)c1cc2ccc(-c3ccnnc3)cc2n1C(=O)OC[P@@](=O)([O-])O (chirality)
[NH-]C(=O)c1cc2ccc(-c3ccnnc3)cc2n1C(=O)OC[P@@](=O)([O-])O (3D coordinates assigned)
[NH-]C(=O)c1cc2ccc(-c3ccnnc3)cc2n1C(=O)OC[P@@](=O)([O-])O (optimized conformer: 77.77762978093132 kcal/mol)

>  <smiles>  (87) 
NC(=O)c1cc2ccc(-c3ccnnc3)cc2n1C(=O)OCP(=O)(O)O

>  <score_type>  (87) 
oracle

>  <origin>  (87) 
adg

>  <m_score__min__energy>  (87) 
-13.130000000000001

>  <m_primary>  (87) 
energy

$$$$
87:0
     RDKit          3D

 41 42  0  0  0  0  0  0  0  0999 V2000
   -7.5090   23.4330  -32.3320 C   0  0  0  0  0  0  0  0  0  0  0  0
   -8.3460   22.6540  -31.3240 C   0  0  0  0  0  0  0  0  0  0  0  0
   -8.9540   21.4490  -31.9660 C   0  0  0  0  0  0  0  0  0  0  0  0
  -10.1790   21.2050  -31.7980 O   0  0  0  0  0  0  0  0  0  0  0  0
   -8.1360   20.5890  -32.7090 O   0  0  0  0  0  0  0  0  0  0  0  0
   -7.1950   19.7030  -32.1680 C   0  0  0  0  0  0  0  0  0  0  0  0
   -7.5540   18.7620  -31.4100 O   0  0  0  0  0  0  0  0  0  0  0  0
   -5.8080   19.8520  -32.5100 N   0  0  0  0  0  0  0  0  0  0  0  0
   -5.1010   19.1750  -33.4600 C   0  0  0  0  0  0  0  0  0  0  0  0
   -5.5830   18.0200  -34.2450 C   0  0  0  0  0  0  0  0  0  0  0  0
   -6.3940   17.0120  -33.6460 N   0  0  0  0  0  0  0  0  0  0  0  0
   -5.2340   17.8950  -35.4490 O   0  0  0  0  0  0  0  0  0  0  0  0
   -3.8010   19.6690  -33.5440 C   0  0  0  0  0  0  0  0  0  0  0  0
   -3.7290   20.6670  -32.6010 C   0  0  0  0  0  0  0  0  0  0  0  0
   -2.6710   21.5040  -32.2680 C   0  0  0  0  0  0  0  0  0  0  0  0
   -2.8840   22.4700  -31.2720 C   0  0  0  0  0  0  0  0  0  0  0  0
   -4.1430   22.5930  -30.6150 C   0  0  0  0  0  0  0  0  0  0  0  0
   -4.3350   23.7010  -29.5650 C   0  0  0  0  0  0  0  0  0  0  0  0
   -5.8360   24.0550  -29.5070 C   0  0  0  0  0  0  0  0  0  0  0  0
   -3.8800   23.2840  -28.1470 C   0  0  0  0  0  0  0  0  0  0  0  0
   -3.5140   24.9190  -29.9520 C   0  0  0  0  0  0  0  0  0  0  0  0
   -3.9080   25.6740  -30.8810 O   0  0  0  0  0  0  0  0  0  0  0  0
   -2.3000   25.1910  -29.3300 O   0  0  0  0  0  0  0  0  0  0  0  0
   -5.2000   21.7290  -31.0130 C   0  0  0  0  0  0  0  0  0  0  0  0
   -4.9500   20.7600  -31.9920 C   0  0  0  0  0  0  0  0  0  0  0  0
   -6.8056   24.0876  -31.7965 H   0  0  0  0  0  0  0  0  0  0  0  0
   -6.9468   22.7293  -32.9635 H   0  0  0  0  0  0  0  0  0  0  0  0
   -8.1706   24.0442  -32.9635 H   0  0  0  0  0  0  0  0  0  0  0  0
   -7.7033   22.3343  -30.4905 H   0  0  0  0  0  0  0  0  0  0  0  0
   -9.1525   23.3043  -30.9542 H   0  0  0  0  0  0  0  0  0  0  0  0
   -6.9450   17.2090  -32.7820 H   0  0  0  0  0  0  0  0  0  0  0  0
   -3.0020   19.3322  -34.2209 H   0  0  0  0  0  0  0  0  0  0  0  0
   -1.6963   21.4124  -32.7696 H   0  0  0  0  0  0  0  0  0  0  0  0
   -2.0624   23.1460  -30.9928 H   0  0  0  0  0  0  0  0  0  0  0  0
   -6.1547   24.1302  -28.4569 H   0  0  0  0  0  0  0  0  0  0  0  0
   -6.0054   25.0177  -30.0114 H   0  0  0  0  0  0  0  0  0  0  0  0
   -6.4178   23.2694  -30.0114 H   0  0  0  0  0  0  0  0  0  0  0  0
   -4.4732   23.8276  -27.3969 H   0  0  0  0  0  0  0  0  0  0  0  0
   -4.0284   22.2018  -28.0177 H   0  0  0  0  0  0  0  0  0  0  0  0
   -2.8148   23.5260  -28.0177 H   0  0  0  0  0  0  0  0  0  0  0  0
   -6.1978   21.8205  -30.5591 H   0  0  0  0  0  0  0  0  0  0  0  0
  1  2  1  0
  2  3  1  0
  3  4  2  0
  3  5  1  0
  5  6  1  0
  6  7  2  0
  6  8  1  0
  8  9  1  0
  9 10  1  0
 10 11  1  0
 10 12  2  0
  9 13  2  0
 13 14  1  0
 14 15  2  0
 15 16  1  0
 16 17  2  0
 17 18  1  0
 18 19  1  0
 18 20  1  0
 18 21  1  0
 21 22  2  0
 21 23  1  0
 17 24  1  0
 24 25  2  0
 25  8  1  0
 25 14  1  0
  1 26  1  0
  1 27  1  0
  1 28  1  0
  2 29  1  0
  2 30  1  0
 11 31  1  0
 13 32  1  0
 15 33  1  0
 16 34  1  0
 19 35  1  0
 19 36  1  0
 19 37  1  0
 20 38  1  0
 20 39  1  0
 20 40  1  0
 24 41  1  0
M  CHG  2  11  -1  23  -1
M  END
>  <UniqueID>  (88) 
88

>  <SMILES>  (88) 
CCC(=O)OC(=O)n1c(C([NH-])=O)cc2ccc(C(C)(C)C(=O)[O-])cc21

>  <Energy>  (88) 
80.00276276982402

>  <Genealogy>  (88) 
CCC(=O)OC(=O)n1c(C([NH-])=O)cc2ccc(C(C)(C)C(=O)[O-])cc21 (protonated)
CCC(=O)OC(=O)n1c(C([NH-])=O)cc2ccc(C(C)(C)C(=O)[O-])cc21 (3D coordinates assigned)
CCC(=O)OC(=O)n1c(C([NH-])=O)cc2ccc(C(C)(C)C(=O)[O-])cc21 (optimized conformer: 80.00276276982402 kcal/mol)

>  <smiles>  (88) 
CCC(=O)OC(=O)n1c(C(N)=O)cc2ccc(C(C)(C)C(=O)O)cc21

>  <score_type>  (88) 
oracle

>  <origin>  (88) 
adg

>  <m_score__min__energy>  (88) 
-10.43

>  <m_primary>  (88) 
energy

$$$$
88:0
     RDKit          3D

 33 34  0  0  0  0  0  0  0  0999 V2000
   -5.2550   24.3090  -29.1910 N   0  0  0  0  0  0  0  0  0  0  0  0
   -6.2960   24.1830  -30.1600 C   0  0  0  0  0  0  0  0  0  0  0  0
   -6.9620   25.2040  -30.4790 O   0  0  0  0  0  0  0  0  0  0  0  0
   -6.5710   22.8830  -30.8110 C   0  0  0  0  0  0  0  0  0  0  0  0
   -7.8410   22.4630  -31.2020 C   0  0  0  0  0  0  0  0  0  0  0  0
   -7.6720   21.1820  -31.6740 C   0  0  0  0  0  0  0  0  0  0  0  0
   -8.6060   20.2890  -32.1910 C   0  0  0  0  0  0  0  0  0  0  0  0
   -8.1470   19.0360  -32.6270 C   0  0  0  0  0  0  0  0  0  0  0  0
   -6.7690   18.7050  -32.5620 C   0  0  0  0  0  0  0  0  0  0  0  0
   -6.2950   17.3410  -33.0000 C   0  0  0  0  0  0  0  0  0  0  0  0
   -5.3530   17.4520  -34.0080 F   0  0  0  0  0  0  0  0  0  0  0  0
   -7.3520   16.5850  -33.4770 F   0  0  0  0  0  0  0  0  0  0  0  0
   -5.7250   16.6900  -31.9220 F   0  0  0  0  0  0  0  0  0  0  0  0
   -5.8550   19.6300  -32.0070 C   0  0  0  0  0  0  0  0  0  0  0  0
   -6.3440   20.8650  -31.5630 C   0  0  0  0  0  0  0  0  0  0  0  0
   -5.6550   21.9000  -31.0330 N   0  0  0  0  0  0  0  0  0  0  0  0
   -4.2330   21.9720  -30.8350 C   0  0  0  0  0  0  0  0  0  0  0  0
   -3.4490   21.6730  -31.7760 O   0  0  0  0  0  0  0  0  0  0  0  0
   -3.7260   22.3930  -29.6010 O   0  0  0  0  0  0  0  0  0  0  0  0
   -2.3450   22.3040  -29.2560 C   0  0  0  0  0  0  0  0  0  0  0  0
   -1.6210   23.3860  -29.7980 O   0  0  0  0  0  0  0  0  0  0  0  0
   -2.3750   24.8460  -29.3370 P   0  0  0  0  0  0  0  0  0  0  0  0
   -3.0770   24.6380  -28.0150 O   0  0  0  0  0  0  0  0  0  0  0  0
   -1.2240   26.0740  -29.1590 O   0  0  0  0  0  0  0  0  0  0  0  0
   -3.5160   25.3060  -30.4990 O   0  0  0  0  0  0  0  0  0  0  0  0
   -5.0430   25.2390  -28.7660 H   0  0  0  0  0  0  0  0  0  0  0  0
   -4.7180   23.4770  -28.8600 H   0  0  0  0  0  0  0  0  0  0  0  0
   -8.7792   23.0344  -31.1452 H   0  0  0  0  0  0  0  0  0  0  0  0
   -9.6709   20.5568  -32.2560 H   0  0  0  0  0  0  0  0  0  0  0  0
   -8.8642   18.3023  -33.0237 H   0  0  0  0  0  0  0  0  0  0  0  0
   -4.7856   19.3855  -31.9259 H   0  0  0  0  0  0  0  0  0  0  0  0
   -2.2457   22.3167  -28.1606 H   0  0  0  0  0  0  0  0  0  0  0  0
   -1.9392   21.3679  -29.6673 H   0  0  0  0  0  0  0  0  0  0  0  0
  1  2  1  0
  2  3  2  0
  2  4  1  0
  4  5  2  0
  5  6  1  0
  6  7  2  0
  7  8  1  0
  8  9  2  0
  9 10  1  0
 10 11  1  0
 10 12  1  0
 10 13  1  0
  9 14  1  0
 14 15  2  0
 15 16  1  0
 16 17  1  0
 17 18  2  0
 17 19  1  0
 19 20  1  0
 20 21  1  0
 21 22  1  0
 22 23  2  0
 22 24  1  0
 22 25  1  0
 16  4  1  0
 15  6  1  0
  1 26  1  0
  1 27  1  0
  5 28  1  0
  7 29  1  0
  8 30  1  0
 14 31  1  0
 20 32  1  0
 20 33  1  0
M  CHG  2  24  -1  25  -1
M  END
>  <UniqueID>  (89) 
89

>  <SMILES>  (89) 
NC(=O)c1cc2ccc(C(F)(F)F)cc2n1C(=O)OCOP(=O)([O-])[O-]

>  <Energy>  (89) 
70.3842223168176

>  <Genealogy>  (89) 
NC(=O)c1cc2ccc(C(F)(F)F)cc2n1C(=O)OCOP(=O)([O-])[O-] (protonated)
NC(=O)c1cc2ccc(C(F)(F)F)cc2n1C(=O)OCOP(=O)([O-])[O-] (3D coordinates assigned)
NC(=O)c1cc2ccc(C(F)(F)F)cc2n1C(=O)OCOP(=O)([O-])[O-] (optimized conformer: 70.3842223168176 kcal/mol)

>  <smiles>  (89) 
NC(=O)c1cc2ccc(C(F)(F)F)cc2n1C(=O)OCOP(=O)(O)O

>  <score_type>  (89) 
oracle

>  <origin>  (89) 
adg

>  <m_score__min__energy>  (89) 
-12.119999999999999

>  <m_primary>  (89) 
energy

$$$$
89:0
     RDKit          3D

 38 39  0  0  0  0  0  0  0  0999 V2000
   -3.4080   22.5260  -29.0680 C   0  0  0  0  0  0  0  0  0  0  0  0
   -4.3060   23.6280  -29.6410 C   0  0  1  0  0  0  0  0  0  0  0  0
   -3.5190   24.8700  -29.9810 C   0  0  0  0  0  0  0  0  0  0  0  0
   -3.9290   25.6750  -30.8590 O   0  0  0  0  0  0  0  0  0  0  0  0
   -2.3550   25.1620  -29.2790 O   0  0  0  0  0  0  0  0  0  0  0  0
   -5.0810   23.1290  -30.7950 N   0  0  0  0  0  0  0  0  0  0  0  0
   -6.2960   23.8330  -31.2130 C   0  0  0  0  0  0  0  0  0  0  0  0
   -4.6830   21.9670  -31.5450 C   0  0  0  0  0  0  0  0  0  0  0  0
   -5.6190   20.9310  -31.7820 C   0  0  0  0  0  0  0  0  0  0  0  0
   -5.2510   19.7870  -32.5100 C   0  0  0  0  0  0  0  0  0  0  0  0
   -3.9470   19.7120  -32.9890 C   0  0  0  0  0  0  0  0  0  0  0  0
   -3.3310   18.7150  -33.7090 C   0  0  0  0  0  0  0  0  0  0  0  0
   -2.0260   19.1560  -33.8980 C   0  0  0  0  0  0  0  0  0  0  0  0
   -1.0220   18.3800  -34.6440 C   0  0  0  0  0  0  0  0  0  0  0  0
   -0.1040   19.0320  -35.5210 N   0  0  0  0  0  0  0  0  0  0  0  0
   -0.9280   17.1390  -34.4530 O   0  0  0  0  0  0  0  0  0  0  0  0
   -1.8380   20.3880  -33.3440 N   0  0  0  0  0  0  0  0  0  0  0  0
   -0.6790   21.2360  -33.4790 C   0  0  0  0  0  0  0  0  0  0  0  0
    0.1460   21.3310  -32.5290 O   0  0  0  0  0  0  0  0  0  0  0  0
   -0.4880   21.9800  -34.6520 O   0  0  0  0  0  0  0  0  0  0  0  0
    0.7270   22.1130  -35.3340 C   0  0  0  0  0  0  0  0  0  0  0  0
    1.5710   22.9910  -35.0090 O   0  0  0  0  0  0  0  0  0  0  0  0
    1.0020   21.2660  -36.3980 O   0  0  0  0  0  0  0  0  0  0  0  0
   -3.0270   20.7100  -32.7770 C   0  0  0  0  0  0  0  0  0  0  0  0
   -3.3660   21.8500  -32.0370 C   0  0  0  0  0  0  0  0  0  0  0  0
   -3.4381   22.5629  -27.9690 H   0  0  0  0  0  0  0  0  0  0  0  0
   -3.7670   21.5447  -29.4119 H   0  0  0  0  0  0  0  0  0  0  0  0
   -2.3745   22.6794  -29.4119 H   0  0  0  0  0  0  0  0  0  0  0  0
   -5.0250   23.9166  -28.8601 H   0  0  0  0  0  0  0  0  0  0  0  0
   -6.8561   24.1575  -30.3236 H   0  0  0  0  0  0  0  0  0  0  0  0
   -6.0218   24.7121  -31.8146 H   0  0  0  0  0  0  0  0  0  0  0  0
   -6.9223   23.1579  -31.8146 H   0  0  0  0  0  0  0  0  0  0  0  0
   -6.6436   21.0228  -31.3925 H   0  0  0  0  0  0  0  0  0  0  0  0
   -5.9711   18.9764  -32.6953 H   0  0  0  0  0  0  0  0  0  0  0  0
   -3.7752   17.7718  -34.0598 H   0  0  0  0  0  0  0  0  0  0  0  0
    0.6060   18.4780  -36.0490 H   0  0  0  0  0  0  0  0  0  0  0  0
   -0.1030   20.0730  -35.6130 H   0  0  0  0  0  0  0  0  0  0  0  0
   -2.6218   22.6366  -31.8438 H   0  0  0  0  0  0  0  0  0  0  0  0
  1  2  1  0
  2  3  1  0
  3  4  2  0
  3  5  1  0
  2  6  1  0
  6  7  1  0
  6  8  1  0
  8  9  2  0
  9 10  1  0
 10 11  2  0
 11 12  1  0
 12 13  2  0
 13 14  1  0
 14 15  1  0
 14 16  2  0
 13 17  1  0
 17 18  1  0
 18 19  2  0
 18 20  1  0
 20 21  1  0
 21 22  2  0
 21 23  1  0
 17 24  1  0
 24 25  2  0
 25  8  1  0
 24 11  1  0
  1 26  1  0
  1 27  1  0
  1 28  1  0
  2 29  1  1
  7 30  1  0
  7 31  1  0
  7 32  1  0
  9 33  1  0
 10 34  1  0
 12 35  1  0
 15 36  1  0
 15 37  1  0
 25 38  1  0
M  CHG  2   5  -1  23  -1
M  END
>  <UniqueID>  (90) 
90

>  <SMILES>  (90) 
C[C@@H](C(=O)[O-])N(C)c1ccc2cc(C(N)=O)n(C(=O)OC(=O)[O-])c2c1

>  <Energy>  (90) 
85.34130435754419

>  <Genealogy>  (90) 
CC(C(=O)[O-])N(C)c1ccc2cc(C(N)=O)n(C(=O)OC(=O)[O-])c2c1 (protonated)
C[C@@H](C(=O)[O-])N(C)c1ccc2cc(C(N)=O)n(C(=O)OC(=O)[O-])c2c1 (chirality)
C[C@@H](C(=O)[O-])N(C)c1ccc2cc(C(N)=O)n(C(=O)OC(=O)[O-])c2c1 (3D coordinates assigned)
C[C@@H](C(=O)[O-])N(C)c1ccc2cc(C(N)=O)n(C(=O)OC(=O)[O-])c2c1 (optimized conformer: 85.34130435754419 kcal/mol)

>  <smiles>  (90) 
CC(C(=O)O)N(C)c1ccc2cc(C(N)=O)n(C(=O)OC(=O)O)c2c1

>  <score_type>  (90) 
oracle

>  <origin>  (90) 
adg

>  <m_score__min__energy>  (90) 
-9.75

>  <m_primary>  (90) 
energy

$$$$
90:0
     RDKit          3D

 38 39  0  0  0  0  0  0  0  0999 V2000
   -1.4940   22.6180  -27.2900 C   0  0  0  0  0  0  0  0  0  0  0  0
   -1.8750   23.5160  -28.2100 C   0  0  0  0  0  0  0  0  0  0  0  0
   -0.9630   24.6300  -28.5750 C   0  0  0  0  0  0  0  0  0  0  0  0
   -1.3590   25.6030  -29.2720 O   0  0  0  0  0  0  0  0  0  0  0  0
   -3.1720   23.3880  -28.8550 N   0  0  2  0  0  0  0  0  0  0  0  0
   -4.2360   23.2080  -27.8520 C   0  0  0  0  0  0  0  0  0  0  0  0
   -3.1410   22.3080  -29.8220 C   0  0  0  0  0  0  0  0  0  0  0  0
   -2.5010   21.2470  -29.5780 O   0  0  0  0  0  0  0  0  0  0  0  0
   -3.8050   22.4520  -31.1350 C   0  0  0  0  0  0  0  0  0  0  0  0
   -3.1280   22.3860  -32.1960 O   0  0  0  0  0  0  0  0  0  0  0  0
   -5.2230   22.6580  -31.2150 N   0  0  0  0  0  0  0  0  0  0  0  0
   -5.9100   23.8210  -31.0360 C   0  0  0  0  0  0  0  0  0  0  0  0
   -5.3310   25.1110  -30.6040 C   0  0  0  0  0  0  0  0  0  0  0  0
   -3.9200   25.3000  -30.5440 N   0  0  0  0  0  0  0  0  0  0  0  0
   -6.0940   26.0510  -30.2560 O   0  0  0  0  0  0  0  0  0  0  0  0
   -7.2690   23.6230  -31.2760 C   0  0  0  0  0  0  0  0  0  0  0  0
   -7.3920   22.2940  -31.6130 C   0  0  0  0  0  0  0  0  0  0  0  0
   -8.5160   21.5600  -31.9780 C   0  0  0  0  0  0  0  0  0  0  0  0
   -8.3400   20.2070  -32.3130 C   0  0  0  0  0  0  0  0  0  0  0  0
   -7.0520   19.6100  -32.2690 C   0  0  0  0  0  0  0  0  0  0  0  0
   -6.8660   18.1730  -32.6880 C   0  0  0  0  0  0  0  0  0  0  0  0
   -5.8460   17.5810  -31.9630 F   0  0  0  0  0  0  0  0  0  0  0  0
   -6.5440   18.0950  -34.0320 F   0  0  0  0  0  0  0  0  0  0  0  0
   -8.0400   17.4790  -32.4650 F   0  0  0  0  0  0  0  0  0  0  0  0
   -5.9330   20.3980  -31.9180 C   0  0  0  0  0  0  0  0  0  0  0  0
   -6.1430   21.7350  -31.5700 C   0  0  0  0  0  0  0  0  0  0  0  0
   -2.1664   21.7914  -27.0167 H   0  0  0  0  0  0  0  0  0  0  0  0
   -0.5091   22.7079  -26.8085 H   0  0  0  0  0  0  0  0  0  0  0  0
    0.0811   24.6055  -28.2295 H   0  0  0  0  0  0  0  0  0  0  0  0
   -3.4120   24.2680  -29.3730 H   0  0  0  0  0  0  0  0  0  0  0  0
   -3.8046   23.2810  -26.8427 H   0  0  0  0  0  0  0  0  0  0  0  0
   -4.9987   23.9899  -27.9822 H   0  0  0  0  0  0  0  0  0  0  0  0
   -4.6991   22.2188  -27.9822 H   0  0  0  0  0  0  0  0  0  0  0  0
   -3.4640   25.6730  -29.6820 H   0  0  0  0  0  0  0  0  0  0  0  0
   -8.0731   24.3708  -31.2100 H   0  0  0  0  0  0  0  0  0  0  0  0
   -9.5126   22.0250  -32.0035 H   0  0  0  0  0  0  0  0  0  0  0  0
   -9.2094   19.6033  -32.6127 H   0  0  0  0  0  0  0  0  0  0  0  0
   -4.9201   19.9690  -31.9187 H   0  0  0  0  0  0  0  0  0  0  0  0
  1  2  2  0
  2  3  1  0
  3  4  2  0
  2  5  1  0
  5  6  1  0
  5  7  1  0
  7  8  2  0
  7  9  1  0
  9 10  2  0
  9 11  1  0
 11 12  1  0
 12 13  1  0
 13 14  1  0
 13 15  2  0
 12 16  2  0
 16 17  1  0
 17 18  2  0
 18 19  1  0
 19 20  2  0
 20 21  1  0
 21 22  1  0
 21 23  1  0
 21 24  1  0
 20 25  1  0
 25 26  2  0
 26 11  1  0
 26 17  1  0
  1 27  1  0
  1 28  1  0
  3 29  1  0
  5 30  1  6
  6 31  1  0
  6 32  1  0
  6 33  1  0
 14 34  1  0
 16 35  1  0
 18 36  1  0
 19 37  1  0
 25 38  1  0
M  CHG  2   5   1  14  -1
M  END
>  <UniqueID>  (91) 
91

>  <SMILES>  (91) 
C=C(C=O)[N@H+](C)C(=O)C(=O)n1c(C([NH-])=O)cc2ccc(C(F)(F)F)cc21

>  <Energy>  (91) 
81.61434086961155

>  <Genealogy>  (91) 
C=C(C=O)[NH+](C)C(=O)C(=O)n1c(C([NH-])=O)cc2ccc(C(F)(F)F)cc21 (protonated)
C=C(C=O)[N@H+](C)C(=O)C(=O)n1c(C([NH-])=O)cc2ccc(C(F)(F)F)cc21 (chirality)
C=C(C=O)[N@H+](C)C(=O)C(=O)n1c(C([NH-])=O)cc2ccc(C(F)(F)F)cc21 (3D coordinates assigned)
C=C(C=O)[N@H+](C)C(=O)C(=O)n1c(C([NH-])=O)cc2ccc(C(F)(F)F)cc21 (optimized conformer: 81.61434086961155 kcal/mol)

>  <smiles>  (91) 
C=C(C=O)N(C)C(=O)C(=O)n1c(C(N)=O)cc2ccc(C(F)(F)F)cc21

>  <score_type>  (91) 
oracle

>  <origin>  (91) 
adg

>  <m_score__min__energy>  (91) 
-9.1899999999999995

>  <m_primary>  (91) 
energy

$$$$
91:0
     RDKit          3D

 37 39  0  0  0  0  0  0  0  0999 V2000
    0.1890   21.8550  -28.3810 C   0  0  0  0  0  0  0  0  0  0  0  0
   -0.6580   23.0730  -28.5440 C   0  0  0  0  0  0  0  0  0  0  0  0
   -0.1970   24.2910  -28.7050 O   0  0  0  0  0  0  0  0  0  0  0  0
   -1.2530   25.0670  -28.7890 C   0  0  0  0  0  0  0  0  0  0  0  0
   -1.1920   26.3130  -28.9490 O   0  0  0  0  0  0  0  0  0  0  0  0
   -2.3810   24.4000  -28.6870 O   0  0  0  0  0  0  0  0  0  0  0  0
   -2.0400   23.1410  -28.5310 C   0  0  0  0  0  0  0  0  0  0  0  0
   -3.0030   22.0130  -28.3620 C   0  0  0  0  0  0  0  0  0  0  0  0
   -3.4870   21.6130  -29.6380 O   0  0  0  0  0  0  0  0  0  0  0  0
   -3.7950   22.5240  -30.6520 C   0  0  0  0  0  0  0  0  0  0  0  0
   -2.8730   23.1190  -31.2750 O   0  0  0  0  0  0  0  0  0  0  0  0
   -5.1690   22.8030  -30.9620 N   0  0  0  0  0  0  0  0  0  0  0  0
   -5.8430   23.9790  -30.8030 C   0  0  0  0  0  0  0  0  0  0  0  0
   -5.2500   25.2760  -30.4180 C   0  0  0  0  0  0  0  0  0  0  0  0
   -3.9480   25.6490  -30.8620 N   0  0  0  0  0  0  0  0  0  0  0  0
   -5.9240   26.0900  -29.7300 O   0  0  0  0  0  0  0  0  0  0  0  0
   -7.1840   23.8230  -31.1470 C   0  0  0  0  0  0  0  0  0  0  0  0
   -7.3120   22.5100  -31.5360 C   0  0  0  0  0  0  0  0  0  0  0  0
   -8.4300   21.8140  -31.9860 C   0  0  0  0  0  0  0  0  0  0  0  0
   -8.2760   20.4550  -32.3070 C   0  0  0  0  0  0  0  0  0  0  0  0
   -7.0200   19.8170  -32.1560 C   0  0  0  0  0  0  0  0  0  0  0  0
   -6.8590   18.3720  -32.5240 C   0  0  0  0  0  0  0  0  0  0  0  0
   -6.1020   18.2420  -34.1300 Cl  0  0  0  0  0  0  0  0  0  0  0  0
   -5.9040   20.5580  -31.7070 C   0  0  0  0  0  0  0  0  0  0  0  0
   -6.0820   21.9160  -31.4150 C   0  0  0  0  0  0  0  0  0  0  0  0
    0.3324   21.6488  -27.3101 H   0  0  0  0  0  0  0  0  0  0  0  0
   -0.3080   20.9965  -28.8564 H   0  0  0  0  0  0  0  0  0  0  0  0
    1.1668   22.0220  -28.8564 H   0  0  0  0  0  0  0  0  0  0  0  0
   -2.4948   21.1651  -27.8795 H   0  0  0  0  0  0  0  0  0  0  0  0
   -3.8453   22.3386  -27.7339 H   0  0  0  0  0  0  0  0  0  0  0  0
   -3.0980   25.1670  -30.4940 H   0  0  0  0  0  0  0  0  0  0  0  0
   -7.9736   24.5882  -31.1144 H   0  0  0  0  0  0  0  0  0  0  0  0
   -9.4050   22.3130  -32.0873 H   0  0  0  0  0  0  0  0  0  0  0  0
   -9.1379   19.8814  -32.6787 H   0  0  0  0  0  0  0  0  0  0  0  0
   -6.2222   17.8736  -31.7783 H   0  0  0  0  0  0  0  0  0  0  0  0
   -7.8475   17.8899  -32.5473 H   0  0  0  0  0  0  0  0  0  0  0  0
   -4.9201   20.0803  -31.5897 H   0  0  0  0  0  0  0  0  0  0  0  0
  1  2  1  0
  2  3  1  0
  3  4  1  0
  4  5  2  0
  4  6  1  0
  6  7  1  0
  7  8  1  0
  8  9  1  0
  9 10  1  0
 10 11  2  0
 10 12  1  0
 12 13  1  0
 13 14  1  0
 14 15  1  0
 14 16  2  0
 13 17  2  0
 17 18  1  0
 18 19  2  0
 19 20  1  0
 20 21  2  0
 21 22  1  0
 22 23  1  0
 21 24  1  0
 24 25  2  0
  7  2  2  0
 25 12  1  0
 25 18  1  0
  1 26  1  0
  1 27  1  0
  1 28  1  0
  8 29  1  0
  8 30  1  0
 15 31  1  0
 17 32  1  0
 19 33  1  0
 20 34  1  0
 22 35  1  0
 22 36  1  0
 24 37  1  0
M  CHG  1  15  -1
M  END
>  <UniqueID>  (92) 
92

>  <SMILES>  (92) 
Cc1oc(=O)oc1COC(=O)n1c(C([NH-])=O)cc2ccc(CCl)cc21

>  <Energy>  (92) 
105.9465775439992

>  <Genealogy>  (92) 
Cc1oc(=O)oc1COC(=O)n1c(C([NH-])=O)cc2ccc(CCl)cc21 (protonated)
Cc1oc(=O)oc1COC(=O)n1c(C([NH-])=O)cc2ccc(CCl)cc21 (3D coordinates assigned)
Cc1oc(=O)oc1COC(=O)n1c(C([NH-])=O)cc2ccc(CCl)cc21 (optimized conformer: 105.9465775439992 kcal/mol)

>  <smiles>  (92) 
Cc1oc(=O)oc1COC(=O)n1c(C(N)=O)cc2ccc(CCl)cc21

>  <score_type>  (92) 
oracle

>  <origin>  (92) 
adg

>  <m_score__min__energy>  (92) 
-10.99

>  <m_primary>  (92) 
energy

$$$$
92:0
     RDKit          3D

 37 39  0  0  0  0  0  0  0  0999 V2000
    0.2960   21.7140  -28.2430 C   0  0  0  0  0  0  0  0  0  0  0  0
   -0.5830   22.8910  -28.5100 C   0  0  0  0  0  0  0  0  0  0  0  0
   -0.1630   24.1290  -28.6160 O   0  0  0  0  0  0  0  0  0  0  0  0
   -1.2360   24.8560  -28.8240 C   0  0  0  0  0  0  0  0  0  0  0  0
   -1.2140   26.1050  -28.9770 O   0  0  0  0  0  0  0  0  0  0  0  0
   -2.3360   24.1380  -28.8530 O   0  0  0  0  0  0  0  0  0  0  0  0
   -1.9600   22.8980  -28.6530 C   0  0  0  0  0  0  0  0  0  0  0  0
   -2.8900   21.7240  -28.6070 C   0  0  0  0  0  0  0  0  0  0  0  0
   -3.5010   21.5150  -29.8780 O   0  0  0  0  0  0  0  0  0  0  0  0
   -3.8490   22.5580  -30.7440 C   0  0  0  0  0  0  0  0  0  0  0  0
   -2.9530   23.2290  -31.3250 O   0  0  0  0  0  0  0  0  0  0  0  0
   -5.2330   22.8550  -30.9770 N   0  0  0  0  0  0  0  0  0  0  0  0
   -5.8550   24.0660  -30.8970 C   0  0  0  0  0  0  0  0  0  0  0  0
   -5.2430   25.3240  -30.4200 C   0  0  0  0  0  0  0  0  0  0  0  0
   -3.9250   25.6740  -30.8370 N   0  0  0  0  0  0  0  0  0  0  0  0
   -5.8830   26.1120  -29.6750 O   0  0  0  0  0  0  0  0  0  0  0  0
   -7.1980   23.9490  -31.2460 C   0  0  0  0  0  0  0  0  0  0  0  0
   -7.3850   22.6150  -31.5330 C   0  0  0  0  0  0  0  0  0  0  0  0
   -8.5290   21.9420  -31.9510 C   0  0  0  0  0  0  0  0  0  0  0  0
   -8.4260   20.5630  -32.2020 C   0  0  0  0  0  0  0  0  0  0  0  0
   -7.1950   19.8820  -32.0220 C   0  0  0  0  0  0  0  0  0  0  0  0
   -7.0830   18.4150  -32.3530 C   0  0  0  0  0  0  0  0  0  0  0  0
   -6.2860   17.7950  -31.4100 F   0  0  0  0  0  0  0  0  0  0  0  0
   -8.3320   17.8180  -32.3510 F   0  0  0  0  0  0  0  0  0  0  0  0
   -6.5220   18.2390  -33.6050 F   0  0  0  0  0  0  0  0  0  0  0  0
   -6.0490   20.6080  -31.6200 C   0  0  0  0  0  0  0  0  0  0  0  0
   -6.1850   21.9770  -31.3610 C   0  0  0  0  0  0  0  0  0  0  0  0
    0.4009   21.5736  -27.1571 H   0  0  0  0  0  0  0  0  0  0  0  0
   -0.1523   20.8132  -28.6876 H   0  0  0  0  0  0  0  0  0  0  0  0
    1.2870   21.8881  -28.6876 H   0  0  0  0  0  0  0  0  0  0  0  0
   -2.3223   20.8244  -28.3270 H   0  0  0  0  0  0  0  0  0  0  0  0
   -3.6769   21.9251  -27.8651 H   0  0  0  0  0  0  0  0  0  0  0  0
   -3.0870   25.2530  -30.3790 H   0  0  0  0  0  0  0  0  0  0  0  0
   -7.9496   24.7513  -31.2843 H   0  0  0  0  0  0  0  0  0  0  0  0
   -9.4838   22.4726  -32.0809 H   0  0  0  0  0  0  0  0  0  0  0  0
   -9.3109   20.0051  -32.5422 H   0  0  0  0  0  0  0  0  0  0  0  0
   -5.0746   20.1087  -31.5136 H   0  0  0  0  0  0  0  0  0  0  0  0
  1  2  1  0
  2  3  1  0
  3  4  1  0
  4  5  2  0
  4  6  1  0
  6  7  1  0
  7  8  1  0
  8  9  1  0
  9 10  1  0
 10 11  2  0
 10 12  1  0
 12 13  1  0
 13 14  1  0
 14 15  1  0
 14 16  2  0
 13 17  2  0
 17 18  1  0
 18 19  2  0
 19 20  1  0
 20 21  2  0
 21 22  1  0
 22 23  1  0
 22 24  1  0
 22 25  1  0
 21 26  1  0
 26 27  2  0
  7  2  2  0
 27 12  1  0
 27 18  1  0
  1 28  1  0
  1 29  1  0
  1 30  1  0
  8 31  1  0
  8 32  1  0
 15 33  1  0
 17 34  1  0
 19 35  1  0
 20 36  1  0
 26 37  1  0
M  CHG  1  15  -1
M  END
>  <UniqueID>  (93) 
93

>  <SMILES>  (93) 
Cc1oc(=O)oc1COC(=O)n1c(C([NH-])=O)cc2ccc(C(F)(F)F)cc21

>  <Energy>  (93) 
107.72282937629616

>  <Genealogy>  (93) 
Cc1oc(=O)oc1COC(=O)n1c(C([NH-])=O)cc2ccc(C(F)(F)F)cc21 (protonated)
Cc1oc(=O)oc1COC(=O)n1c(C([NH-])=O)cc2ccc(C(F)(F)F)cc21 (3D coordinates assigned)
Cc1oc(=O)oc1COC(=O)n1c(C([NH-])=O)cc2ccc(C(F)(F)F)cc21 (optimized conformer: 107.72282937629616 kcal/mol)

>  <smiles>  (93) 
Cc1oc(=O)oc1COC(=O)n1c(C(N)=O)cc2ccc(C(F)(F)F)cc21

>  <score_type>  (93) 
oracle

>  <origin>  (93) 
adg

>  <m_score__min__energy>  (93) 
-10.08

>  <m_primary>  (93) 
energy

$$$$
93:0
     RDKit          3D

 54 56  0  0  0  0  0  0  0  0999 V2000
   -3.2010   18.0640  -33.0980 C   0  0  0  0  0  0  0  0  0  0  0  0
   -3.9550   16.9100  -32.7970 O   0  0  0  0  0  0  0  0  0  0  0  0
   -4.6650   16.4570  -33.9430 C   0  0  0  0  0  0  0  0  0  0  0  0
   -6.0870   16.0260  -33.5340 C   0  0  0  0  0  0  0  0  0  0  0  0
   -6.8520   17.2000  -32.8990 C   0  0  0  0  0  0  0  0  0  0  0  0
   -6.5660   18.4620  -33.5970 N   0  0  0  0  0  0  0  0  0  0  0  0
   -6.7990   19.7180  -32.9300 C   0  0  0  0  0  0  0  0  0  0  0  0
   -8.1210   20.1300  -32.6250 C   0  0  0  0  0  0  0  0  0  0  0  0
   -8.3610   21.3520  -31.9770 C   0  0  0  0  0  0  0  0  0  0  0  0
   -7.2630   22.1330  -31.6300 C   0  0  0  0  0  0  0  0  0  0  0  0
   -7.2130   23.3700  -31.0260 C   0  0  0  0  0  0  0  0  0  0  0  0
   -5.8590   23.6770  -30.9330 C   0  0  0  0  0  0  0  0  0  0  0  0
   -5.3470   24.9050  -30.2900 C   0  0  0  0  0  0  0  0  0  0  0  0
   -4.1830   25.5650  -30.7840 N   0  0  0  0  0  0  0  0  0  0  0  0
   -5.9170   25.3450  -29.2570 O   0  0  0  0  0  0  0  0  0  0  0  0
   -5.0990   22.6800  -31.4670 N   0  0  0  0  0  0  0  0  0  0  0  0
   -3.6770   22.6890  -31.6700 C   0  0  0  0  0  0  0  0  0  0  0  0
   -3.1810   22.0810  -32.6570 O   0  0  0  0  0  0  0  0  0  0  0  0
   -2.8560   23.3810  -30.7660 O   0  0  0  0  0  0  0  0  0  0  0  0
   -2.3370   22.8750  -29.5280 C   0  0  0  0  0  0  0  0  0  0  0  0
   -3.4830   22.5250  -28.5590 C   0  0  0  0  0  0  0  0  0  0  0  0
   -1.4410   21.6470  -29.7770 C   0  0  0  0  0  0  0  0  0  0  0  0
   -1.4860   23.9920  -28.9050 C   0  0  0  0  0  0  0  0  0  0  0  0
   -5.9750   21.7410  -31.8900 C   0  0  0  0  0  0  0  0  0  0  0  0
   -5.7090   20.5380  -32.5560 C   0  0  0  0  0  0  0  0  0  0  0  0
   -6.0110   18.4180  -34.9560 C   0  0  0  0  0  0  0  0  0  0  0  0
   -4.7060   17.6030  -34.9840 C   0  0  0  0  0  0  0  0  0  0  0  0
   -2.8840   18.5491  -32.1630 H   0  0  0  0  0  0  0  0  0  0  0  0
   -2.3137   17.7800  -33.6828 H   0  0  0  0  0  0  0  0  0  0  0  0
   -3.8174   18.7625  -33.6828 H   0  0  0  0  0  0  0  0  0  0  0  0
   -4.1620   15.5864  -34.3891 H   0  0  0  0  0  0  0  0  0  0  0  0
   -6.6303   15.6820  -34.4265 H   0  0  0  0  0  0  0  0  0  0  0  0
   -6.0108   15.2141  -32.7957 H   0  0  0  0  0  0  0  0  0  0  0  0
   -7.9316   16.9963  -32.9542 H   0  0  0  0  0  0  0  0  0  0  0  0
   -6.5287   17.3004  -31.8524 H   0  0  0  0  0  0  0  0  0  0  0  0
   -8.9684   19.4846  -32.8993 H   0  0  0  0  0  0  0  0  0  0  0  0
   -9.3856   21.6819  -31.7505 H   0  0  0  0  0  0  0  0  0  0  0  0
   -8.0616   23.9836  -30.6893 H   0  0  0  0  0  0  0  0  0  0  0  0
   -3.8630   26.4600  -30.3510 H   0  0  0  0  0  0  0  0  0  0  0  0
   -3.5920   25.1320  -31.5280 H   0  0  0  0  0  0  0  0  0  0  0  0
   -3.1320   22.6322  -27.5220 H   0  0  0  0  0  0  0  0  0  0  0  0
   -4.3299   23.2055  -28.7316 H   0  0  0  0  0  0  0  0  0  0  0  0
   -3.8052   21.4875  -28.7316 H   0  0  0  0  0  0  0  0  0  0  0  0
   -1.1289   21.2193  -28.8128 H   0  0  0  0  0  0  0  0  0  0  0  0
   -2.0027   20.8930  -30.3480 H   0  0  0  0  0  0  0  0  0  0  0  0
   -0.5516   21.9518  -30.3480 H   0  0  0  0  0  0  0  0  0  0  0  0
   -1.5378   23.9241  -27.8083 H   0  0  0  0  0  0  0  0  0  0  0  0
   -0.4410   23.8816  -29.2303 H   0  0  0  0  0  0  0  0  0  0  0  0
   -1.8699   24.9702  -29.2303 H   0  0  0  0  0  0  0  0  0  0  0  0
   -4.6755   20.2376  -32.7831 H   0  0  0  0  0  0  0  0  0  0  0  0
   -6.7435   17.9502  -35.6303 H   0  0  0  0  0  0  0  0  0  0  0  0
   -5.7935   19.4456  -35.2828 H   0  0  0  0  0  0  0  0  0  0  0  0
   -4.5913   17.1655  -35.9867 H   0  0  0  0  0  0  0  0  0  0  0  0
   -3.8892   18.2954  -34.7321 H   0  0  0  0  0  0  0  0  0  0  0  0
  1  2  1  0
  2  3  1  0
  3  4  1  0
  4  5  1  0
  5  6  1  0
  6  7  1  0
  7  8  2  0
  8  9  1  0
  9 10  2  0
 10 11  1  0
 11 12  2  0
 12 13  1  0
 13 14  1  0
 13 15  2  0
 12 16  1  0
 16 17  1  0
 17 18  2  0
 17 19  1  0
 19 20  1  0
 20 21  1  0
 20 22  1  0
 20 23  1  0
 16 24  1  0
 24 25  2  0
  6 26  1  0
 26 27  1  0
 27  3  1  0
 25  7  1  0
 24 10  1  0
  1 28  1  0
  1 29  1  0
  1 30  1  0
  3 31  1  0
  4 32  1  0
  4 33  1  0
  5 34  1  0
  5 35  1  0
  8 36  1  0
  9 37  1  0
 11 38  1  0
 14 39  1  0
 14 40  1  0
 21 41  1  0
 21 42  1  0
 21 43  1  0
 22 44  1  0
 22 45  1  0
 22 46  1  0
 23 47  1  0
 23 48  1  0
 23 49  1  0
 25 50  1  0
 26 51  1  0
 26 52  1  0
 27 53  1  0
 27 54  1  0
M  END
>  <UniqueID>  (94) 
94

>  <SMILES>  (94) 
COC1CCN(c2ccc3cc(C(N)=O)n(C(=O)OC(C)(C)C)c3c2)CC1

>  <Energy>  (94) 
97.2021830935159

>  <Genealogy>  (94) 
COC1CCN(c2ccc3cc(C(N)=O)n(C(=O)OC(C)(C)C)c3c2)CC1 (3D coordinates assigned)
COC1CCN(c2ccc3cc(C(N)=O)n(C(=O)OC(C)(C)C)c3c2)CC1 (nonaromatic ring conformer: 97.2021830935159 kcal/mol)

>  <smiles>  (94) 
COC1CCN(c2ccc3cc(C(N)=O)n(C(=O)OC(C)(C)C)c3c2)CC1

>  <score_type>  (94) 
oracle

>  <origin>  (94) 
adg

>  <m_score__min__energy>  (94) 
-9.75

>  <m_primary>  (94) 
energy

$$$$
94:0
     RDKit          3D

 46 48  0  0  0  0  0  0  0  0999 V2000
   -5.7390   18.5230  -34.9380 C   0  0  0  0  0  0  0  0  0  0  0  0
   -6.4960   18.3720  -33.6910 N   0  0  0  0  0  0  0  0  0  0  0  0
   -6.8030   17.0200  -33.2060 C   0  0  0  0  0  0  0  0  0  0  0  0
   -6.9380   19.5390  -32.9490 C   0  0  0  0  0  0  0  0  0  0  0  0
   -8.3260   19.7890  -32.7480 C   0  0  0  0  0  0  0  0  0  0  0  0
   -8.7650   20.9210  -32.0450 C   0  0  0  0  0  0  0  0  0  0  0  0
   -7.8060   21.7890  -31.5390 C   0  0  0  0  0  0  0  0  0  0  0  0
   -7.9600   22.9720  -30.8540 C   0  0  0  0  0  0  0  0  0  0  0  0
   -6.6670   23.4260  -30.6110 C   0  0  0  0  0  0  0  0  0  0  0  0
   -6.3670   24.6440  -29.8340 C   0  0  0  0  0  0  0  0  0  0  0  0
   -5.1190   24.7980  -29.1550 N   0  0  0  0  0  0  0  0  0  0  0  0
   -7.2480   25.5360  -29.7160 O   0  0  0  0  0  0  0  0  0  0  0  0
   -5.7480   22.5660  -31.1340 N   0  0  0  0  0  0  0  0  0  0  0  0
   -4.3240   22.7540  -31.2040 C   0  0  0  0  0  0  0  0  0  0  0  0
   -3.8390   23.9180  -31.2070 O   0  0  0  0  0  0  0  0  0  0  0  0
   -3.4790   21.6400  -31.2550 O   0  0  0  0  0  0  0  0  0  0  0  0
   -3.1810   20.8520  -30.1070 C   0  0  0  0  0  0  0  0  0  0  0  0
   -2.4260   21.6230  -29.1790 O   0  0  0  0  0  0  0  0  0  0  0  0
   -3.0090   22.5380  -28.2950 C   0  0  0  0  0  0  0  0  0  0  0  0
   -4.1530   22.3120  -27.8150 O   0  0  0  0  0  0  0  0  0  0  0  0
   -2.2780   23.7680  -27.9200 C   0  0  0  0  0  0  0  0  0  0  0  0
   -2.6900   24.5500  -26.8290 C   0  0  0  0  0  0  0  0  0  0  0  0
   -1.9870   25.7090  -26.4920 C   0  0  0  0  0  0  0  0  0  0  0  0
   -0.8760   26.0800  -27.2500 C   0  0  0  0  0  0  0  0  0  0  0  0
   -0.4870   25.3160  -28.3040 N   0  0  0  0  0  0  0  0  0  0  0  0
   -1.1530   24.1830  -28.6530 C   0  0  0  0  0  0  0  0  0  0  0  0
   -6.4630   21.5660  -31.6990 C   0  0  0  0  0  0  0  0  0  0  0  0
   -5.9960   20.4570  -32.4150 C   0  0  0  0  0  0  0  0  0  0  0  0
   -4.6850   18.7333  -34.7039 H   0  0  0  0  0  0  0  0  0  0  0  0
   -5.8064   17.5937  -35.5227 H   0  0  0  0  0  0  0  0  0  0  0  0
   -6.1578   19.3553  -35.5227 H   0  0  0  0  0  0  0  0  0  0  0  0
   -6.8038   17.0164  -32.1060 H   0  0  0  0  0  0  0  0  0  0  0  0
   -7.7934   16.7144  -33.5744 H   0  0  0  0  0  0  0  0  0  0  0  0
   -6.0417   16.3166  -33.5744 H   0  0  0  0  0  0  0  0  0  0  0  0
   -9.0664   19.0823  -33.1510 H   0  0  0  0  0  0  0  0  0  0  0  0
   -9.8377   21.1155  -31.8988 H   0  0  0  0  0  0  0  0  0  0  0  0
   -8.9035   23.4557  -30.5609 H   0  0  0  0  0  0  0  0  0  0  0  0
   -4.9250   25.6690  -28.6140 H   0  0  0  0  0  0  0  0  0  0  0  0
   -4.4260   24.0200  -29.1150 H   0  0  0  0  0  0  0  0  0  0  0  0
   -4.1189   20.5259  -29.6338 H   0  0  0  0  0  0  0  0  0  0  0  0
   -2.5953   19.9719  -30.4111 H   0  0  0  0  0  0  0  0  0  0  0  0
   -3.5681   24.2493  -26.2386 H   0  0  0  0  0  0  0  0  0  0  0  0
   -2.3063   26.3233  -25.6372 H   0  0  0  0  0  0  0  0  0  0  0  0
   -0.3150   26.9910  -26.9943 H   0  0  0  0  0  0  0  0  0  0  0  0
   -0.8098   23.5888  -29.5127 H   0  0  0  0  0  0  0  0  0  0  0  0
   -4.9172   20.2997  -32.5613 H   0  0  0  0  0  0  0  0  0  0  0  0
  1  2  1  0
  2  3  1  0
  2  4  1  0
  4  5  2  0
  5  6  1  0
  6  7  2  0
  7  8  1  0
  8  9  2  0
  9 10  1  0
 10 11  1  0
 10 12  2  0
  9 13  1  0
 13 14  1  0
 14 15  2  0
 14 16  1  0
 16 17  1  0
 17 18  1  0
 18 19  1  0
 19 20  2  0
 19 21  1  0
 21 22  2  0
 22 23  1  0
 23 24  2  0
 24 25  1  0
 25 26  2  0
 13 27  1  0
 27 28  2  0
 28  4  1  0
 27  7  1  0
 26 21  1  0
  1 29  1  0
  1 30  1  0
  1 31  1  0
  3 32  1  0
  3 33  1  0
  3 34  1  0
  5 35  1  0
  6 36  1  0
  8 37  1  0
 11 38  1  0
 11 39  1  0
 17 40  1  0
 17 41  1  0
 22 42  1  0
 23 43  1  0
 24 44  1  0
 26 45  1  0
 28 46  1  0
M  END
>  <UniqueID>  (95) 
95

>  <SMILES>  (95) 
CN(C)c1ccc2cc(C(N)=O)n(C(=O)OCOC(=O)c3cccnc3)c2c1

>  <Energy>  (95) 
86.79167644733349

>  <Genealogy>  (95) 
CN(C)c1ccc2cc(C(N)=O)n(C(=O)OCOC(=O)c3cccnc3)c2c1 (3D coordinates assigned)
CN(C)c1ccc2cc(C(N)=O)n(C(=O)OCOC(=O)c3cccnc3)c2c1 (optimized conformer: 86.79167644733349 kcal/mol)

>  <smiles>  (95) 
CN(C)c1ccc2cc(C(N)=O)n(C(=O)OCOC(=O)c3cccnc3)c2c1

>  <score_type>  (95) 
oracle

>  <origin>  (95) 
adg

>  <m_score__min__energy>  (95) 
-9.8599999999999994

>  <m_primary>  (95) 
energy

$$$$
