0:0
     RDKit          3D

 32 34  0  0  0  0  0  0  0  0999 V2000
   -5.3800   26.4950  -30.4440 N   0  0  0  0  0  0  0  0  0  0  0  0
   -6.2610   25.4620  -29.9980 C   0  0  0  0  0  0  0  0  0  0  0  0
   -6.9750   25.6620  -28.9800 O   0  0  0  0  0  0  0  0  0  0  0  0
   -6.3640   24.1850  -30.7380 C   0  0  0  0  0  0  0  0  0  0  0  0
   -7.5730   23.6000  -31.1110 C   0  0  0  0  0  0  0  0  0  0  0  0
   -7.2330   22.3960  -31.6830 C   0  0  0  0  0  0  0  0  0  0  0  0
   -8.0450   21.4110  -32.2350 C   0  0  0  0  0  0  0  0  0  0  0  0
   -7.4250   20.2750  -32.7830 C   0  0  0  0  0  0  0  0  0  0  0  0
   -6.0120   20.1460  -32.7770 C   0  0  0  0  0  0  0  0  0  0  0  0
   -5.3670   18.9470  -33.3710 C   0  0  0  0  0  0  0  0  0  0  0  0
   -3.9930   18.9550  -33.6800 C   0  0  0  0  0  0  0  0  0  0  0  0
   -3.3880   17.8260  -34.2400 C   0  0  0  0  0  0  0  0  0  0  0  0
   -4.1440   16.6790  -34.4980 C   0  0  0  0  0  0  0  0  0  0  0  0
   -5.5070   16.6600  -34.1960 C   0  0  0  0  0  0  0  0  0  0  0  0
   -6.1180   17.7860  -33.6360 C   0  0  0  0  0  0  0  0  0  0  0  0
   -5.2230   21.1720  -32.2040 C   0  0  0  0  0  0  0  0  0  0  0  0
   -5.8680   22.2820  -31.6490 C   0  0  0  0  0  0  0  0  0  0  0  0
   -5.3190   23.3730  -31.0700 N   0  0  0  0  0  0  0  0  0  0  0  0
   -3.9150   23.6410  -30.9090 C   0  0  0  0  0  0  0  0  0  0  0  0
   -3.0640   22.7420  -31.1410 O   0  0  0  0  0  0  0  0  0  0  0  0
   -3.4830   24.8910  -30.4820 O   0  0  0  0  0  0  0  0  0  0  0  0
   -4.7320   26.3460  -31.2490 H   0  0  0  0  0  0  0  0  0  0  0  0
   -5.3440   27.4070  -29.9370 H   0  0  0  0  0  0  0  0  0  0  0  0
   -8.5836   24.0131  -30.9766 H   0  0  0  0  0  0  0  0  0  0  0  0
   -9.1398   21.5179  -32.2425 H   0  0  0  0  0  0  0  0  0  0  0  0
   -8.0421   19.4769  -33.2215 H   0  0  0  0  0  0  0  0  0  0  0  0
   -3.3925   19.8546  -33.4796 H   0  0  0  0  0  0  0  0  0  0  0  0
   -2.3142   17.8403  -34.4782 H   0  0  0  0  0  0  0  0  0  0  0  0
   -3.6655   15.7920  -34.9386 H   0  0  0  0  0  0  0  0  0  0  0  0
   -6.1015   15.7571  -34.3991 H   0  0  0  0  0  0  0  0  0  0  0  0
   -7.1924   17.7646  -33.4010 H   0  0  0  0  0  0  0  0  0  0  0  0
   -4.1255   21.0979  -32.1954 H   0  0  0  0  0  0  0  0  0  0  0  0
  1  2  1  0
  2  3  2  0
  2  4  1  0
  4  5  2  0
  5  6  1  0
  6  7  2  0
  7  8  1  0
  8  9  2  0
  9 10  1  0
 10 11  2  0
 11 12  1  0
 12 13  2  0
 13 14  1  0
 14 15  2  0
  9 16  1  0
 16 17  2  0
 17 18  1  0
 18 19  1  0
 19 20  2  0
 19 21  1  0
 18  4  1  0
 17  6  1  0
 15 10  1  0
  1 22  1  0
  1 23  1  0
  5 24  1  0
  7 25  1  0
  8 26  1  0
 11 27  1  0
 12 28  1  0
 13 29  1  0
 14 30  1  0
 15 31  1  0
 16 32  1  0
M  CHG  1  21  -1
M  END
>  <UniqueID>  (1) 
1

>  <SMILES>  (1) 
NC(=O)c1cc2ccc(-c3ccccc3)cc2n1C(=O)[O-]

>  <Energy>  (1) 
79.39431622309861

>  <Genealogy>  (1) 
NC(=O)c1cc2ccc(-c3ccccc3)cc2n1C(=O)[O-] (protonated)
NC(=O)c1cc2ccc(-c3ccccc3)cc2n1C(=O)[O-] (3D coordinates assigned)
NC(=O)c1cc2ccc(-c3ccccc3)cc2n1C(=O)[O-] (optimized conformer: 79.39431622309861 kcal/mol)

>  <smiles>  (1) 
NC(=O)c1cc2ccc(-c3ccccc3)cc2n1C(=O)O

>  <score_type>  (1) 
oracle

>  <origin>  (1) 
adg

>  <m_score__min__energy>  (1) 
-9.4600000000000009

>  <m_primary>  (1) 
energy

$$$$
1:0
     RDKit          3D

 38 40  0  0  0  0  0  0  0  0999 V2000
   -6.6720   13.4480  -34.5690 C   0  0  0  0  0  0  0  0  0  0  0  0
   -5.5600   14.4030  -34.4850 N   0  0  0  0  0  0  0  0  0  0  0  0
   -4.2130   13.9870  -34.8900 C   0  0  0  0  0  0  0  0  0  0  0  0
   -5.7630   15.7540  -34.0060 C   0  0  0  0  0  0  0  0  0  0  0  0
   -4.7360   16.7150  -34.0340 C   0  0  0  0  0  0  0  0  0  0  0  0
   -4.9800   18.0040  -33.5600 C   0  0  0  0  0  0  0  0  0  0  0  0
   -6.2430   18.3480  -33.0550 C   0  0  0  0  0  0  0  0  0  0  0  0
   -6.5150   19.7160  -32.5470 C   0  0  0  0  0  0  0  0  0  0  0  0
   -7.8510   20.1770  -32.4070 C   0  0  0  0  0  0  0  0  0  0  0  0
   -8.1210   21.4640  -31.9170 C   0  0  0  0  0  0  0  0  0  0  0  0
   -7.0420   22.2750  -31.5820 C   0  0  0  0  0  0  0  0  0  0  0  0
   -7.0200   23.5490  -31.0630 C   0  0  0  0  0  0  0  0  0  0  0  0
   -5.6710   23.8650  -30.9150 C   0  0  0  0  0  0  0  0  0  0  0  0
   -5.1930   25.1880  -30.4630 C   0  0  0  0  0  0  0  0  0  0  0  0
   -3.9060   25.6710  -30.8370 N   0  0  0  0  0  0  0  0  0  0  0  0
   -5.9510   25.9230  -29.7740 O   0  0  0  0  0  0  0  0  0  0  0  0
   -4.8890   22.8230  -31.3190 N   0  0  0  0  0  0  0  0  0  0  0  0
   -3.4580   22.7160  -31.2470 C   0  0  0  0  0  0  0  0  0  0  0  0
   -2.8070   22.2280  -32.2070 O   0  0  0  0  0  0  0  0  0  0  0  0
   -2.7760   23.1750  -30.1260 O   0  0  0  0  0  0  0  0  0  0  0  0
   -5.7440   21.8590  -31.7260 C   0  0  0  0  0  0  0  0  0  0  0  0
   -5.4450   20.5730  -32.1930 C   0  0  0  0  0  0  0  0  0  0  0  0
   -7.2430   17.3630  -33.0440 C   0  0  0  0  0  0  0  0  0  0  0  0
   -6.9820   16.1140  -33.5130 N   0  0  0  0  0  0  0  0  0  0  0  0
   -6.9947   13.1708  -33.5546 H   0  0  0  0  0  0  0  0  0  0  0  0
   -7.5124   13.9102  -35.1077 H   0  0  0  0  0  0  0  0  0  0  0  0
   -6.3420   12.5475  -35.1077 H   0  0  0  0  0  0  0  0  0  0  0  0
   -3.6027   13.7985  -33.9945 H   0  0  0  0  0  0  0  0  0  0  0  0
   -4.2781   13.0671  -35.4896 H   0  0  0  0  0  0  0  0  0  0  0  0
   -3.7481   14.7834  -35.4896 H   0  0  0  0  0  0  0  0  0  0  0  0
   -3.7437   16.4508  -34.4284 H   0  0  0  0  0  0  0  0  0  0  0  0
   -4.1771   18.7556  -33.5823 H   0  0  0  0  0  0  0  0  0  0  0  0
   -8.6851   19.5165  -32.6863 H   0  0  0  0  0  0  0  0  0  0  0  0
   -9.1551   21.8207  -31.8013 H   0  0  0  0  0  0  0  0  0  0  0  0
   -7.8842   24.1836  -30.8170 H   0  0  0  0  0  0  0  0  0  0  0  0
   -3.0410   25.2970  -30.3880 H   0  0  0  0  0  0  0  0  0  0  0  0
   -4.4017   20.2361  -32.2828 H   0  0  0  0  0  0  0  0  0  0  0  0
   -8.2431   17.6030  -32.6538 H   0  0  0  0  0  0  0  0  0  0  0  0
  1  2  1  0
  2  3  1  0
  2  4  1  0
  4  5  2  0
  5  6  1  0
  6  7  2  0
  7  8  1  0
  8  9  2  0
  9 10  1  0
 10 11  2  0
 11 12  1  0
 12 13  2  0
 13 14  1  0
 14 15  1  0
 14 16  2  0
 13 17  1  0
 17 18  1  0
 18 19  2  0
 18 20  1  0
 17 21  1  0
 21 22  2  0
  7 23  1  0
 23 24  2  0
 24  4  1  0
 22  8  1  0
 21 11  1  0
  1 25  1  0
  1 26  1  0
  1 27  1  0
  3 28  1  0
  3 29  1  0
  3 30  1  0
  5 31  1  0
  6 32  1  0
  9 33  1  0
 10 34  1  0
 12 35  1  0
 15 36  1  0
 22 37  1  0
 23 38  1  0
M  CHG  2  15  -1  20  -1
M  END
>  <UniqueID>  (2) 
2

>  <SMILES>  (2) 
CN(C)c1ccc(-c2ccc3cc(C([NH-])=O)n(C(=O)[O-])c3c2)cn1

>  <Energy>  (2) 
85.51457377864207

>  <Genealogy>  (2) 
CN(C)c1ccc(-c2ccc3cc(C([NH-])=O)n(C(=O)[O-])c3c2)cn1 (protonated)
CN(C)c1ccc(-c2ccc3cc(C([NH-])=O)n(C(=O)[O-])c3c2)cn1 (3D coordinates assigned)
CN(C)c1ccc(-c2ccc3cc(C([NH-])=O)n(C(=O)[O-])c3c2)cn1 (optimized conformer: 85.51457377864207 kcal/mol)

>  <smiles>  (2) 
CN(C)c1ccc(-c2ccc3cc(C(N)=O)n(C(=O)O)c3c2)cn1

>  <score_type>  (2) 
oracle

>  <origin>  (2) 
adg

>  <m_score__min__energy>  (2) 
-10.9

>  <m_primary>  (2) 
energy

$$$$
2:0
     RDKit          3D

 46 48  0  0  0  0  0  0  0  0999 V2000
   -3.8210   23.9100  -27.8070 C   0  0  0  0  0  0  0  0  0  0  0  0
   -3.3590   22.7080  -28.6160 C   0  0  0  0  0  0  0  0  0  0  0  0
   -2.9930   23.1300  -29.9260 O   0  0  0  0  0  0  0  0  0  0  0  0
   -3.6500   22.6820  -31.0750 C   0  0  0  0  0  0  0  0  0  0  0  0
   -3.0020   22.1210  -32.0020 O   0  0  0  0  0  0  0  0  0  0  0  0
   -5.0660   22.8870  -31.2120 N   0  0  0  0  0  0  0  0  0  0  0  0
   -5.7860   24.0010  -30.8980 C   0  0  0  0  0  0  0  0  0  0  0  0
   -5.2330   25.3100  -30.4920 C   0  0  0  0  0  0  0  0  0  0  0  0
   -3.8940   25.6740  -30.8180 N   0  0  0  0  0  0  0  0  0  0  0  0
   -5.9680   26.1390  -29.8920 O   0  0  0  0  0  0  0  0  0  0  0  0
   -7.1470   23.7730  -31.0920 C   0  0  0  0  0  0  0  0  0  0  0  0
   -7.2380   22.4780  -31.5490 C   0  0  0  0  0  0  0  0  0  0  0  0
   -8.3580   21.7280  -31.8920 C   0  0  0  0  0  0  0  0  0  0  0  0
   -8.1600   20.4000  -32.3070 C   0  0  0  0  0  0  0  0  0  0  0  0
   -6.8540   19.8420  -32.3640 C   0  0  0  0  0  0  0  0  0  0  0  0
   -6.6410   18.4050  -32.8000 C   0  0  0  0  0  0  0  0  0  0  0  0
   -5.7110   17.6590  -31.8310 C   0  0  0  0  0  0  0  0  0  0  0  0
   -5.5830   16.1770  -32.2350 C   0  0  0  0  0  0  0  0  0  0  0  0
   -5.4870   15.9510  -33.7010 N   0  0  0  0  0  0  0  0  0  0  0  0
   -6.6820   15.2810  -34.2450 C   0  0  0  0  0  0  0  0  0  0  0  0
   -5.1340   17.1600  -34.4750 C   0  0  0  0  0  0  0  0  0  0  0  0
   -6.1260   18.3200  -34.2580 C   0  0  0  0  0  0  0  0  0  0  0  0
   -5.7430   20.6400  -32.0010 C   0  0  0  0  0  0  0  0  0  0  0  0
   -5.9690   21.9650  -31.6120 C   0  0  0  0  0  0  0  0  0  0  0  0
   -3.7345   23.6848  -26.7338 H   0  0  0  0  0  0  0  0  0  0  0  0
   -3.1930   24.7795  -28.0510 H   0  0  0  0  0  0  0  0  0  0  0  0
   -4.8697   24.1351  -28.0510 H   0  0  0  0  0  0  0  0  0  0  0  0
   -2.4905   22.2463  -28.1234 H   0  0  0  0  0  0  0  0  0  0  0  0
   -4.1759   21.9743  -28.6819 H   0  0  0  0  0  0  0  0  0  0  0  0
   -3.0860   25.2710  -30.2940 H   0  0  0  0  0  0  0  0  0  0  0  0
   -7.9730   24.4781  -30.9171 H   0  0  0  0  0  0  0  0  0  0  0  0
   -9.3678   22.1611  -31.8400 H   0  0  0  0  0  0  0  0  0  0  0  0
   -9.0264   19.7848  -32.5912 H   0  0  0  0  0  0  0  0  0  0  0  0
   -7.6204   17.9051  -32.7714 H   0  0  0  0  0  0  0  0  0  0  0  0
   -4.7157   18.1269  -31.8527 H   0  0  0  0  0  0  0  0  0  0  0  0
   -6.1357   17.7151  -30.8178 H   0  0  0  0  0  0  0  0  0  0  0  0
   -4.6777   15.7677  -31.7629 H   0  0  0  0  0  0  0  0  0  0  0  0
   -6.5029   15.6769  -31.8977 H   0  0  0  0  0  0  0  0  0  0  0  0
   -7.3131   14.9272  -33.4164 H   0  0  0  0  0  0  0  0  0  0  0  0
   -7.2516   15.9913  -34.8623 H   0  0  0  0  0  0  0  0  0  0  0  0
   -6.3731   14.4245  -34.8623 H   0  0  0  0  0  0  0  0  0  0  0  0
   -4.1315   17.4931  -34.1684 H   0  0  0  0  0  0  0  0  0  0  0  0
   -5.1670   16.8916  -35.5412 H   0  0  0  0  0  0  0  0  0  0  0  0
   -5.6217   19.2650  -34.5082 H   0  0  0  0  0  0  0  0  0  0  0  0
   -6.9958   18.1373  -34.9061 H   0  0  0  0  0  0  0  0  0  0  0  0
   -4.7236   20.2275  -32.0242 H   0  0  0  0  0  0  0  0  0  0  0  0
  1  2  1  0
  2  3  1  0
  3  4  1  0
  4  5  2  0
  4  6  1  0
  6  7  1  0
  7  8  1  0
  8  9  1  0
  8 10  2  0
  7 11  2  0
 11 12  1  0
 12 13  2  0
 13 14  1  0
 14 15  2  0
 15 16  1  0
 16 17  1  0
 17 18  1  0
 18 19  1  0
 19 20  1  0
 19 21  1  0
 21 22  1  0
 15 23  1  0
 23 24  2  0
 24  6  1  0
 24 12  1  0
 22 16  1  0
  1 25  1  0
  1 26  1  0
  1 27  1  0
  2 28  1  0
  2 29  1  0
  9 30  1  0
 11 31  1  0
 13 32  1  0
 14 33  1  0
 16 34  1  0
 17 35  1  0
 17 36  1  0
 18 37  1  0
 18 38  1  0
 20 39  1  0
 20 40  1  0
 20 41  1  0
 21 42  1  0
 21 43  1  0
 22 44  1  0
 22 45  1  0
 23 46  1  0
M  CHG  1   9  -1
M  END
>  <UniqueID>  (3) 
3

>  <SMILES>  (3) 
CCOC(=O)n1c(C([NH-])=O)cc2ccc(C3CCN(C)CC3)cc21

>  <Energy>  (3) 
90.49442661762946

>  <Genealogy>  (3) 
CCOC(=O)n1c(C([NH-])=O)cc2ccc(C3CCN(C)CC3)cc21 (protonated)
CCOC(=O)n1c(C([NH-])=O)cc2ccc(C3CCN(C)CC3)cc21 (3D coordinates assigned)
CCOC(=O)n1c(C([NH-])=O)cc2ccc(C3CCN(C)CC3)cc21 (nonaromatic ring conformer: 90.49442661762946 kcal/mol)

>  <smiles>  (3) 
CCOC(=O)n1c(C(N)=O)cc2ccc(C3CCN(C)CC3)cc21

>  <score_type>  (3) 
oracle

>  <origin>  (3) 
adg

>  <m_score__min__energy>  (3) 
-11.050000000000001

>  <m_primary>  (3) 
energy

$$$$
3:0
     RDKit          3D

 41 44  0  0  0  0  0  0  0  0999 V2000
    0.2840   21.7430  -28.0230 C   0  0  0  0  0  0  0  0  0  0  0  0
   -0.5770   22.9050  -28.3910 C   0  0  0  0  0  0  0  0  0  0  0  0
   -0.1690   24.1510  -28.4530 O   0  0  0  0  0  0  0  0  0  0  0  0
   -1.2220   24.8570  -28.7960 C   0  0  0  0  0  0  0  0  0  0  0  0
   -1.2050   26.1060  -28.9530 O   0  0  0  0  0  0  0  0  0  0  0  0
   -2.2960   24.1170  -28.9570 O   0  0  0  0  0  0  0  0  0  0  0  0
   -1.9220   22.8840  -28.7100 C   0  0  0  0  0  0  0  0  0  0  0  0
   -2.8230   21.6940  -28.7570 C   0  0  0  0  0  0  0  0  0  0  0  0
   -3.2460   21.4780  -30.0980 O   0  0  0  0  0  0  0  0  0  0  0  0
   -3.6540   22.5160  -30.9380 C   0  0  0  0  0  0  0  0  0  0  0  0
   -2.7990   23.2330  -31.5260 O   0  0  0  0  0  0  0  0  0  0  0  0
   -5.0550   22.7530  -31.1480 N   0  0  0  0  0  0  0  0  0  0  0  0
   -5.7820   23.8400  -30.7620 C   0  0  0  0  0  0  0  0  0  0  0  0
   -5.2360   25.0920  -30.1980 C   0  0  0  0  0  0  0  0  0  0  0  0
   -4.0370   25.6660  -30.7080 N   0  0  0  0  0  0  0  0  0  0  0  0
   -5.8660   25.6900  -29.2850 O   0  0  0  0  0  0  0  0  0  0  0  0
   -7.1320   23.6510  -31.0440 C   0  0  0  0  0  0  0  0  0  0  0  0
   -7.2130   22.4060  -31.6260 C   0  0  0  0  0  0  0  0  0  0  0  0
   -8.3210   21.7080  -32.0900 C   0  0  0  0  0  0  0  0  0  0  0  0
   -8.1170   20.4210  -32.6150 C   0  0  0  0  0  0  0  0  0  0  0  0
   -6.8170   19.8490  -32.6600 C   0  0  0  0  0  0  0  0  0  0  0  0
   -6.6140   18.4830  -33.2040 C   0  0  0  0  0  0  0  0  0  0  0  0
   -5.7020   18.1800  -34.2330 C   0  0  0  0  0  0  0  0  0  0  0  0
   -5.6790   16.8380  -34.5850 C   0  0  0  0  0  0  0  0  0  0  0  0
   -6.7850   16.0250  -33.6200 S   0  0  0  0  0  0  0  0  0  0  0  0
   -7.3100   17.3620  -32.7490 C   0  0  0  0  0  0  0  0  0  0  0  0
   -5.7160   20.5970  -32.1770 C   0  0  0  0  0  0  0  0  0  0  0  0
   -5.9480   21.8850  -31.6780 C   0  0  0  0  0  0  0  0  0  0  0  0
    0.3433   21.6630  -26.9275 H   0  0  0  0  0  0  0  0  0  0  0  0
   -0.1500   20.8200  -28.4351 H   0  0  0  0  0  0  0  0  0  0  0  0
    1.2933   21.8895  -28.4351 H   0  0  0  0  0  0  0  0  0  0  0  0
   -2.2808   20.8079  -28.3954 H   0  0  0  0  0  0  0  0  0  0  0  0
   -3.7004   21.8703  -28.1174 H   0  0  0  0  0  0  0  0  0  0  0  0
   -3.1050   25.2510  -30.4850 H   0  0  0  0  0  0  0  0  0  0  0  0
   -7.9588   24.3485  -30.8442 H   0  0  0  0  0  0  0  0  0  0  0  0
   -9.3275   22.1497  -32.0476 H   0  0  0  0  0  0  0  0  0  0  0  0
   -8.9752   19.8483  -32.9964 H   0  0  0  0  0  0  0  0  0  0  0  0
   -5.0659   18.9378  -34.7139 H   0  0  0  0  0  0  0  0  0  0  0  0
   -5.0454   16.3855  -35.3621 H   0  0  0  0  0  0  0  0  0  0  0  0
   -8.0720   17.3552  -31.9557 H   0  0  0  0  0  0  0  0  0  0  0  0
   -4.7001   20.1755  -32.1933 H   0  0  0  0  0  0  0  0  0  0  0  0
  1  2  1  0
  2  3  1  0
  3  4  1  0
  4  5  2  0
  4  6  1  0
  6  7  1  0
  7  8  1  0
  8  9  1  0
  9 10  1  0
 10 11  2  0
 10 12  1  0
 12 13  1  0
 13 14  1  0
 14 15  1  0
 14 16  2  0
 13 17  2  0
 17 18  1  0
 18 19  2  0
 19 20  1  0
 20 21  2  0
 21 22  1  0
 22 23  1  0
 23 24  2  0
 24 25  1  0
 25 26  1  0
 21 27  1  0
 27 28  2  0
  7  2  2  0
 28 12  1  0
 28 18  1  0
 26 22  2  0
  1 29  1  0
  1 30  1  0
  1 31  1  0
  8 32  1  0
  8 33  1  0
 15 34  1  0
 17 35  1  0
 19 36  1  0
 20 37  1  0
 23 38  1  0
 24 39  1  0
 26 40  1  0
 27 41  1  0
M  CHG  1  15  -1
M  END
>  <UniqueID>  (4) 
4

>  <SMILES>  (4) 
Cc1oc(=O)oc1COC(=O)n1c(C([NH-])=O)cc2ccc(-c3ccsc3)cc21

>  <Energy>  (4) 
142.44398956945906

>  <Genealogy>  (4) 
Cc1oc(=O)oc1COC(=O)n1c(C([NH-])=O)cc2ccc(-c3ccsc3)cc21 (protonated)
Cc1oc(=O)oc1COC(=O)n1c(C([NH-])=O)cc2ccc(-c3ccsc3)cc21 (3D coordinates assigned)
Cc1oc(=O)oc1COC(=O)n1c(C([NH-])=O)cc2ccc(-c3ccsc3)cc21 (optimized conformer: 142.44398956945906 kcal/mol)

>  <smiles>  (4) 
Cc1oc(=O)oc1COC(=O)n1c(C(N)=O)cc2ccc(-c3ccsc3)cc21

>  <score_type>  (4) 
oracle

>  <origin>  (4) 
adg

>  <m_score__min__energy>  (4) 
-11.77

>  <m_primary>  (4) 
energy

$$$$
4:0
     RDKit          3D

 30 32  0  0  0  0  0  0  0  0999 V2000
   -3.8840   25.6520  -30.8430 N   0  0  0  0  0  0  0  0  0  0  0  0
   -5.1250   25.1000  -30.4150 C   0  0  0  0  0  0  0  0  0  0  0  0
   -5.8430   25.7510  -29.6090 O   0  0  0  0  0  0  0  0  0  0  0  0
   -5.6050   23.8050  -30.9410 C   0  0  0  0  0  0  0  0  0  0  0  0
   -6.9550   23.4900  -31.0880 C   0  0  0  0  0  0  0  0  0  0  0  0
   -6.9770   22.2480  -31.6760 C   0  0  0  0  0  0  0  0  0  0  0  0
   -8.0570   21.4460  -32.0300 C   0  0  0  0  0  0  0  0  0  0  0  0
   -7.7890   20.1850  -32.5890 C   0  0  0  0  0  0  0  0  0  0  0  0
   -6.4530   19.7450  -32.7850 C   0  0  0  0  0  0  0  0  0  0  0  0
   -6.2020   18.3970  -33.3590 C   0  0  0  0  0  0  0  0  0  0  0  0
   -7.1460   17.3610  -33.2530 C   0  0  0  0  0  0  0  0  0  0  0  0
   -6.8420   16.1190  -33.8120 C   0  0  0  0  0  0  0  0  0  0  0  0
   -5.6530   15.9280  -34.4370 N   0  0  0  0  0  0  0  0  0  0  0  0
   -4.7440   16.9320  -34.5260 C   0  0  0  0  0  0  0  0  0  0  0  0
   -3.2160   16.6600  -35.3320 Cl  0  0  0  0  0  0  0  0  0  0  0  0
   -5.0210   18.1490  -33.9900 N   0  0  0  0  0  0  0  0  0  0  0  0
   -5.3820   20.5880  -32.3990 C   0  0  0  0  0  0  0  0  0  0  0  0
   -5.6810   21.8470  -31.8630 C   0  0  0  0  0  0  0  0  0  0  0  0
   -4.8240   22.7920  -31.4150 N   0  0  0  0  0  0  0  0  0  0  0  0
   -3.3920   22.6930  -31.3740 C   0  0  0  0  0  0  0  0  0  0  0  0
   -2.6640   23.2430  -30.2790 N   0  0  0  0  0  0  0  0  0  0  0  0
   -2.7700   22.1270  -32.3130 O   0  0  0  0  0  0  0  0  0  0  0  0
   -2.9780   25.3010  -30.4570 H   0  0  0  0  0  0  0  0  0  0  0  0
   -7.8190   24.1048  -30.7955 H   0  0  0  0  0  0  0  0  0  0  0  0
   -9.0909   21.7890  -31.8768 H   0  0  0  0  0  0  0  0  0  0  0  0
   -8.6244   19.5305  -32.8784 H   0  0  0  0  0  0  0  0  0  0  0  0
   -8.1049   17.5259  -32.7398 H   0  0  0  0  0  0  0  0  0  0  0  0
   -7.5669   15.2943  -33.7459 H   0  0  0  0  0  0  0  0  0  0  0  0
   -4.3384   20.2610  -32.5176 H   0  0  0  0  0  0  0  0  0  0  0  0
   -2.3030   24.2220  -30.3130 H   0  0  0  0  0  0  0  0  0  0  0  0
  1  2  1  0
  2  3  2  0
  2  4  1  0
  4  5  2  0
  5  6  1  0
  6  7  2  0
  7  8  1  0
  8  9  2  0
  9 10  1  0
 10 11  2  0
 11 12  1  0
 12 13  2  0
 13 14  1  0
 14 15  1  0
 14 16  2  0
  9 17  1  0
 17 18  2  0
 18 19  1  0
 19 20  1  0
 20 21  1  0
 20 22  2  0
 19  4  1  0
 18  6  1  0
 16 10  1  0
  1 23  1  0
  5 24  1  0
  7 25  1  0
  8 26  1  0
 11 27  1  0
 12 28  1  0
 17 29  1  0
 21 30  1  0
M  CHG  2   1  -1  21  -1
M  END
>  <UniqueID>  (5) 
5

>  <SMILES>  (5) 
[NH-]C(=O)c1cc2ccc(-c3ccnc(Cl)n3)cc2n1C([NH-])=O

>  <Energy>  (5) 
77.1364188744291

>  <Genealogy>  (5) 
[NH-]C(=O)c1cc2ccc(-c3ccnc(Cl)n3)cc2n1C([NH-])=O (protonated)
[NH-]C(=O)c1cc2ccc(-c3ccnc(Cl)n3)cc2n1C([NH-])=O (3D coordinates assigned)
[NH-]C(=O)c1cc2ccc(-c3ccnc(Cl)n3)cc2n1C([NH-])=O (optimized conformer: 77.1364188744291 kcal/mol)

>  <smiles>  (5) 
NC(=O)c1cc2ccc(-c3ccnc(Cl)n3)cc2n1C(N)=O

>  <score_type>  (5) 
oracle

>  <origin>  (5) 
adg

>  <m_score__min__energy>  (5) 
-11.43

>  <m_primary>  (5) 
energy

$$$$
5:0
     RDKit          3D

 40 42  0  0  0  0  0  0  0  0999 V2000
   -3.2310   14.3330  -33.2470 C   0  0  0  0  0  0  0  0  0  0  0  0
   -4.3100   14.9690  -34.5090 S   0  0  0  0  0  0  0  0  0  0  0  0
   -5.3050   13.9120  -34.9010 O   0  0  0  0  0  0  0  0  0  0  0  0
   -3.5010   15.3420  -35.7200 O   0  0  0  0  0  0  0  0  0  0  0  0
   -5.1470   16.3620  -33.9020 N   0  0  0  0  0  0  0  0  0  0  0  0
   -5.2750   17.5160  -34.7510 C   0  0  0  0  0  0  0  0  0  0  0  0
   -5.9960   18.5760  -34.3750 C   0  0  0  0  0  0  0  0  0  0  0  0
   -6.7820   18.5790  -33.0860 C   0  0  2  0  0  0  0  0  0  0  0  0
   -6.8990   19.9810  -32.5240 C   0  0  0  0  0  0  0  0  0  0  0  0
   -8.1740   20.5620  -32.2890 C   0  0  0  0  0  0  0  0  0  0  0  0
   -8.2870   21.8750  -31.8000 C   0  0  0  0  0  0  0  0  0  0  0  0
   -7.1140   22.5810  -31.5540 C   0  0  0  0  0  0  0  0  0  0  0  0
   -6.9370   23.8710  -31.1110 C   0  0  0  0  0  0  0  0  0  0  0  0
   -5.5570   24.0590  -31.0630 C   0  0  0  0  0  0  0  0  0  0  0  0
   -4.9240   25.2940  -30.5540 C   0  0  0  0  0  0  0  0  0  0  0  0
   -3.5700   25.2960  -30.1130 N   0  0  0  0  0  0  0  0  0  0  0  0
   -5.6040   26.3510  -30.4620 O   0  0  0  0  0  0  0  0  0  0  0  0
   -4.9060   22.9330  -31.4710 N   0  0  0  0  0  0  0  0  0  0  0  0
   -3.4930   22.7450  -31.6470 C   0  0  0  0  0  0  0  0  0  0  0  0
   -3.0440   22.2610  -32.7190 O   0  0  0  0  0  0  0  0  0  0  0  0
   -2.6090   23.0710  -30.6260 O   0  0  0  0  0  0  0  0  0  0  0  0
   -5.8740   22.0350  -31.7650 C   0  0  0  0  0  0  0  0  0  0  0  0
   -5.7320   20.7380  -32.2690 C   0  0  0  0  0  0  0  0  0  0  0  0
   -6.1540   17.6330  -32.0470 C   0  0  0  0  0  0  0  0  0  0  0  0
   -5.9220   16.2520  -32.6620 C   0  0  0  0  0  0  0  0  0  0  0  0
   -3.6426   14.5756  -32.2562 H   0  0  0  0  0  0  0  0  0  0  0  0
   -3.1475   13.2412  -33.3520 H   0  0  0  0  0  0  0  0  0  0  0  0
   -2.2354   14.7887  -33.3520 H   0  0  0  0  0  0  0  0  0  0  0  0
   -4.7698   17.5259  -35.7281 H   0  0  0  0  0  0  0  0  0  0  0  0
   -6.0175   19.4672  -35.0195 H   0  0  0  0  0  0  0  0  0  0  0  0
   -7.7936   18.2121  -33.3144 H   0  0  0  0  0  0  0  0  0  0  0  0
   -9.0834   19.9775  -32.4921 H   0  0  0  0  0  0  0  0  0  0  0  0
   -9.2718   22.3298  -31.6176 H   0  0  0  0  0  0  0  0  0  0  0  0
   -7.7187   24.5996  -30.8500 H   0  0  0  0  0  0  0  0  0  0  0  0
   -2.7810   25.2710  -30.7970 H   0  0  0  0  0  0  0  0  0  0  0  0
   -4.7347   20.3162  -32.4627 H   0  0  0  0  0  0  0  0  0  0  0  0
   -5.1918   18.0481  -31.7125 H   0  0  0  0  0  0  0  0  0  0  0  0
   -6.8384   17.5345  -31.1915 H   0  0  0  0  0  0  0  0  0  0  0  0
   -5.3705   15.6254  -31.9456 H   0  0  0  0  0  0  0  0  0  0  0  0
   -6.8973   15.7985  -32.8928 H   0  0  0  0  0  0  0  0  0  0  0  0
  1  2  1  0
  2  3  2  0
  2  4  2  0
  2  5  1  0
  5  6  1  0
  6  7  2  0
  7  8  1  0
  8  9  1  0
  9 10  2  0
 10 11  1  0
 11 12  2  0
 12 13  1  0
 13 14  2  0
 14 15  1  0
 15 16  1  0
 15 17  2  0
 14 18  1  0
 18 19  1  0
 19 20  2  0
 19 21  1  0
 18 22  1  0
 22 23  2  0
  8 24  1  0
 24 25  1  0
 25  5  1  0
 23  9  1  0
 22 12  1  0
  1 26  1  0
  1 27  1  0
  1 28  1  0
  6 29  1  0
  7 30  1  0
  8 31  1  6
 10 32  1  0
 11 33  1  0
 13 34  1  0
 16 35  1  0
 23 36  1  0
 24 37  1  0
 24 38  1  0
 25 39  1  0
 25 40  1  0
M  CHG  2  16  -1  21  -1
M  END
>  <UniqueID>  (6) 
6

>  <SMILES>  (6) 
CS(=O)(=O)N1C=C[C@H](c2ccc3cc(C([NH-])=O)n(C(=O)[O-])c3c2)CC1

>  <Energy>  (6) 
77.02676007128512

>  <Genealogy>  (6) 
CS(=O)(=O)N1C=CC(c2ccc3cc(C([NH-])=O)n(C(=O)[O-])c3c2)CC1 (protonated)
CS(=O)(=O)N1C=C[C@H](c2ccc3cc(C([NH-])=O)n(C(=O)[O-])c3c2)CC1 (chirality)
CS(=O)(=O)N1C=C[C@H](c2ccc3cc(C([NH-])=O)n(C(=O)[O-])c3c2)CC1 (3D coordinates assigned)
CS(=O)(=O)N1C=C[C@H](c2ccc3cc(C([NH-])=O)n(C(=O)[O-])c3c2)CC1 (nonaromatic ring conformer: 77.02676007128512 kcal/mol)

>  <smiles>  (6) 
CS(=O)(=O)N1C=CC(c2ccc3cc(C(N)=O)n(C(=O)O)c3c2)CC1

>  <score_type>  (6) 
oracle

>  <origin>  (6) 
adg

>  <m_score__min__energy>  (6) 
-11.75

>  <m_primary>  (6) 
energy

$$$$
6:0
     RDKit          3D

 33 34  0  0  0  0  0  0  0  0999 V2000
   -3.4620   20.3230  -32.7110 C   0  0  0  0  0  0  0  0  0  0  0  0
   -4.4840   19.5300  -33.4610 C   0  0  0  0  0  0  0  0  0  0  0  0
   -4.1360   18.9070  -34.4990 O   0  0  0  0  0  0  0  0  0  0  0  0
   -5.8460   19.4560  -33.0060 N   0  0  0  0  0  0  0  0  0  0  0  0
   -6.6780   18.3790  -33.0780 C   0  0  0  0  0  0  0  0  0  0  0  0
   -6.2980   17.0220  -33.5190 C   0  0  0  0  0  0  0  0  0  0  0  0
   -4.9300   16.6110  -33.5670 N   0  0  0  0  0  0  0  0  0  0  0  0
   -7.2000   16.1920  -33.8120 O   0  0  0  0  0  0  0  0  0  0  0  0
   -7.9590   18.7190  -32.6520 C   0  0  0  0  0  0  0  0  0  0  0  0
   -7.8870   20.0490  -32.3090 C   0  0  0  0  0  0  0  0  0  0  0  0
   -8.8770   20.9040  -31.8320 C   0  0  0  0  0  0  0  0  0  0  0  0
   -8.5300   22.2450  -31.5970 C   0  0  0  0  0  0  0  0  0  0  0  0
   -7.2180   22.7090  -31.8630 C   0  0  0  0  0  0  0  0  0  0  0  0
   -6.8540   24.1450  -31.5850 C   0  0  0  0  0  0  0  0  0  0  0  0
   -5.9060   24.2630  -30.3810 C   0  0  2  0  0  0  0  0  0  0  0  0
   -6.3780   25.6620  -29.3760 Cl  0  0  0  0  0  0  0  0  0  0  0  0
   -4.4770   24.4190  -30.8130 C   0  0  0  0  0  0  0  0  0  0  0  0
   -3.8160   23.4230  -31.2080 O   0  0  0  0  0  0  0  0  0  0  0  0
   -3.8650   25.6650  -30.7470 O   0  0  0  0  0  0  0  0  0  0  0  0
   -6.2400   21.8110  -32.3440 C   0  0  0  0  0  0  0  0  0  0  0  0
   -6.6030   20.4740  -32.5380 C   0  0  0  0  0  0  0  0  0  0  0  0
   -3.6224   20.1986  -31.6299 H   0  0  0  0  0  0  0  0  0  0  0  0
   -2.4553   19.9673  -32.9757 H   0  0  0  0  0  0  0  0  0  0  0  0
   -3.5565   21.3865  -32.9757 H   0  0  0  0  0  0  0  0  0  0  0  0
   -4.1740   17.1990  -33.1530 H   0  0  0  0  0  0  0  0  0  0  0  0
   -4.6810   15.6660  -33.9320 H   0  0  0  0  0  0  0  0  0  0  0  0
   -8.8409   18.0636  -32.6007 H   0  0  0  0  0  0  0  0  0  0  0  0
   -9.8984   20.5411  -31.6451 H   0  0  0  0  0  0  0  0  0  0  0  0
   -9.2844   22.9416  -31.2026 H   0  0  0  0  0  0  0  0  0  0  0  0
   -6.3590   24.5664  -32.4723 H   0  0  0  0  0  0  0  0  0  0  0  0
   -7.7771   24.6962  -31.3527 H   0  0  0  0  0  0  0  0  0  0  0  0
   -5.9874   23.3338  -29.7980 H   0  0  0  0  0  0  0  0  0  0  0  0
   -5.2177   22.1544  -32.5608 H   0  0  0  0  0  0  0  0  0  0  0  0
  1  2  1  0
  2  3  2  0
  2  4  1  0
  4  5  1  0
  5  6  1  0
  6  7  1  0
  6  8  2  0
  5  9  2  0
  9 10  1  0
 10 11  2  0
 11 12  1  0
 12 13  2  0
 13 14  1  0
 14 15  1  0
 15 16  1  0
 15 17  1  0
 17 18  2  0
 17 19  1  0
 13 20  1  0
 20 21  2  0
 21  4  1  0
 21 10  1  0
  1 22  1  0
  1 23  1  0
  1 24  1  0
  7 25  1  0
  7 26  1  0
  9 27  1  0
 11 28  1  0
 12 29  1  0
 14 30  1  0
 14 31  1  0
 15 32  1  1
 20 33  1  0
M  CHG  1  19  -1
M  END
>  <UniqueID>  (7) 
7

>  <SMILES>  (7) 
CC(=O)n1c(C(N)=O)cc2ccc(C[C@H](Cl)C(=O)[O-])cc21

>  <Energy>  (7) 
69.12948768734772

>  <Genealogy>  (7) 
CC(=O)n1c(C(N)=O)cc2ccc(CC(Cl)C(=O)[O-])cc21 (protonated)
CC(=O)n1c(C(N)=O)cc2ccc(C[C@H](Cl)C(=O)[O-])cc21 (chirality)
CC(=O)n1c(C(N)=O)cc2ccc(C[C@H](Cl)C(=O)[O-])cc21 (3D coordinates assigned)
CC(=O)n1c(C(N)=O)cc2ccc(C[C@H](Cl)C(=O)[O-])cc21 (optimized conformer: 69.12948768734772 kcal/mol)

>  <smiles>  (7) 
CC(=O)n1c(C(N)=O)cc2ccc(CC(Cl)C(=O)O)cc21

>  <score_type>  (7) 
oracle

>  <origin>  (7) 
adg

>  <m_score__min__energy>  (7) 
-10.17

>  <m_primary>  (7) 
energy

$$$$
7:0
     RDKit          3D

 29 30  0  0  0  0  0  0  0  0999 V2000
   -2.4930   22.1870  -29.2840 C   0  0  0  0  0  0  0  0  0  0  0  0
   -2.9840   23.0920  -30.3120 N   0  0  0  0  0  0  0  0  0  0  0  0
   -3.7710   22.6490  -31.4220 C   0  0  0  0  0  0  0  0  0  0  0  0
   -3.2060   22.2280  -32.4670 O   0  0  0  0  0  0  0  0  0  0  0  0
   -5.2050   22.6940  -31.3470 N   0  0  0  0  0  0  0  0  0  0  0  0
   -5.9840   23.7560  -30.9950 C   0  0  0  0  0  0  0  0  0  0  0  0
   -5.5020   25.0390  -30.4460 C   0  0  0  0  0  0  0  0  0  0  0  0
   -4.1870   25.5180  -30.7310 N   0  0  0  0  0  0  0  0  0  0  0  0
   -6.2430   25.6970  -29.6680 O   0  0  0  0  0  0  0  0  0  0  0  0
   -7.3330   23.4570  -31.1690 C   0  0  0  0  0  0  0  0  0  0  0  0
   -7.3610   22.1610  -31.6290 C   0  0  0  0  0  0  0  0  0  0  0  0
   -8.4440   21.3580  -31.9690 C   0  0  0  0  0  0  0  0  0  0  0  0
   -8.1800   20.0630  -32.4460 C   0  0  0  0  0  0  0  0  0  0  0  0
   -6.8450   19.6040  -32.6000 C   0  0  0  0  0  0  0  0  0  0  0  0
   -6.5770   18.2000  -33.0780 C   0  0  0  0  0  0  0  0  0  0  0  0
   -6.3840   18.1770  -34.4480 F   0  0  0  0  0  0  0  0  0  0  0  0
   -7.6580   17.3980  -32.7620 F   0  0  0  0  0  0  0  0  0  0  0  0
   -5.4420   17.6860  -32.4730 F   0  0  0  0  0  0  0  0  0  0  0  0
   -5.7730   20.4440  -32.2220 C   0  0  0  0  0  0  0  0  0  0  0  0
   -6.0650   21.7230  -31.7300 C   0  0  0  0  0  0  0  0  0  0  0  0
   -2.7187   22.6030  -28.2910 H   0  0  0  0  0  0  0  0  0  0  0  0
   -2.9840   21.2086  -29.3919 H   0  0  0  0  0  0  0  0  0  0  0  0
   -1.4051   22.0652  -29.3919 H   0  0  0  0  0  0  0  0  0  0  0  0
   -3.8770   26.4460  -30.3660 H   0  0  0  0  0  0  0  0  0  0  0  0
   -3.4930   24.9220  -31.2330 H   0  0  0  0  0  0  0  0  0  0  0  0
   -8.1927   24.1165  -30.9791 H   0  0  0  0  0  0  0  0  0  0  0  0
   -9.4759   21.7253  -31.8677 H   0  0  0  0  0  0  0  0  0  0  0  0
   -9.0170   19.3971  -32.7031 H   0  0  0  0  0  0  0  0  0  0  0  0
   -4.7317   20.1010  -32.3121 H   0  0  0  0  0  0  0  0  0  0  0  0
  1  2  1  0
  2  3  1  0
  3  4  2  0
  3  5  1  0
  5  6  1  0
  6  7  1  0
  7  8  1  0
  7  9  2  0
  6 10  2  0
 10 11  1  0
 11 12  2  0
 12 13  1  0
 13 14  2  0
 14 15  1  0
 15 16  1  0
 15 17  1  0
 15 18  1  0
 14 19  1  0
 19 20  2  0
 20  5  1  0
 20 11  1  0
  1 21  1  0
  1 22  1  0
  1 23  1  0
  8 24  1  0
  8 25  1  0
 10 26  1  0
 12 27  1  0
 13 28  1  0
 19 29  1  0
M  CHG  1   2  -1
M  END
>  <UniqueID>  (8) 
8

>  <SMILES>  (8) 
C[N-]C(=O)n1c(C(N)=O)cc2ccc(C(F)(F)F)cc21

>  <Energy>  (8) 
67.22269674382962

>  <Genealogy>  (8) 
C[N-]C(=O)n1c(C(N)=O)cc2ccc(C(F)(F)F)cc21 (protonated)
C[N-]C(=O)n1c(C(N)=O)cc2ccc(C(F)(F)F)cc21 (3D coordinates assigned)
C[N-]C(=O)n1c(C(N)=O)cc2ccc(C(F)(F)F)cc21 (optimized conformer: 67.22269674382962 kcal/mol)

>  <smiles>  (8) 
CNC(=O)n1c(C(N)=O)cc2ccc(C(F)(F)F)cc21

>  <score_type>  (8) 
oracle

>  <origin>  (8) 
adg

>  <m_score__min__energy>  (8) 
-7.7199999999999998

>  <m_primary>  (8) 
energy

$$$$
8:0
     RDKit          3D

117123  0  0  0  0  0  0  0  0999 V2000
   -0.6890   25.3450  -25.5830 C   0  0  0  0  0  0  0  0  0  0  0  0
    0.4640   24.3310  -25.4360 C   0  0  0  0  0  0  0  0  0  0  0  0
    1.5770   24.8940  -24.5330 C   0  0  0  0  0  0  0  0  0  0  0  0
   -0.0870   23.0420  -24.8090 C   0  0  0  0  0  0  0  0  0  0  0  0
    0.9960   23.9730  -26.7200 O   0  0  0  0  0  0  0  0  0  0  0  0
    0.2650   23.6840  -27.8800 C   0  0  0  0  0  0  0  0  0  0  0  0
    0.6000   24.1990  -28.9840 O   0  0  0  0  0  0  0  0  0  0  0  0
   -0.8490   22.7700  -27.8080 N   0  0  0  0  0  0  0  0  0  0  0  0
   -2.1730   23.1090  -27.7910 C   0  0  0  0  0  0  0  0  0  0  0  0
   -2.7240   24.4370  -28.1020 C   0  0  0  0  0  0  0  0  0  0  0  0
   -2.1360   25.2220  -29.1330 N   0  0  0  0  0  0  0  0  0  0  0  0
   -3.7430   24.8570  -27.4970 O   0  0  0  0  0  0  0  0  0  0  0  0
   -2.9730   21.9930  -27.5870 C   0  0  0  0  0  0  0  0  0  0  0  0
   -2.1020   20.9340  -27.5120 C   0  0  0  0  0  0  0  0  0  0  0  0
   -2.3750   19.5740  -27.4050 C   0  0  0  0  0  0  0  0  0  0  0  0
   -1.2980   18.6790  -27.4560 C   0  0  0  0  0  0  0  0  0  0  0  0
    0.0310   19.1540  -27.5930 C   0  0  0  0  0  0  0  0  0  0  0  0
    1.1670   18.1810  -27.7720 C   0  0  0  0  0  0  0  0  0  0  0  0
    0.7020   16.9830  -28.5350 C   0  0  0  0  0  0  0  0  0  0  0  0
    0.8240   15.8370  -28.0180 O   0  0  0  0  0  0  0  0  0  0  0  0
    0.1570   17.1310  -29.8200 O   0  0  0  0  0  0  0  0  0  0  0  0
    0.6430   16.3890  -30.9410 C   0  0  2  0  0  0  0  0  0  0  0  0
    1.4920   17.2050  -31.7420 O   0  0  0  0  0  0  0  0  0  0  0  0
    0.8670   18.0630  -32.6950 C   0  0  2  0  0  0  0  0  0  0  0  0
    1.0640   19.5350  -32.3200 C   0  0  0  0  0  0  0  0  0  0  0  0
   -0.1480   20.2720  -32.4470 O   0  0  0  0  0  0  0  0  0  0  0  0
   -1.1370   20.2430  -31.4570 C   0  0  0  0  0  0  0  0  0  0  0  0
   -1.0050   19.4840  -30.4540 O   0  0  0  0  0  0  0  0  0  0  0  0
   -2.3350   21.0970  -31.5820 C   0  0  0  0  0  0  0  0  0  0  0  0
   -2.4720   22.2540  -30.7970 C   0  0  0  0  0  0  0  0  0  0  0  0
   -3.5920   23.0810  -30.9420 C   0  0  0  0  0  0  0  0  0  0  0  0
   -4.6030   22.7590  -31.8670 C   0  0  0  0  0  0  0  0  0  0  0  0
   -5.7530   23.6140  -32.0170 N   0  0  0  0  0  0  0  0  0  0  0  0
   -6.7880   23.1960  -32.5820 O   0  0  0  0  0  0  0  0  0  0  0  0
   -5.7270   24.9100  -31.5510 O   0  0  0  0  0  0  0  0  0  0  0  0
   -4.4750   21.5860  -32.6330 C   0  0  0  0  0  0  0  0  0  0  0  0
   -3.3540   20.7620  -32.4930 C   0  0  0  0  0  0  0  0  0  0  0  0
   -0.5920   17.7250  -33.0530 C   0  0  1  0  0  0  0  0  0  0  0  0
   -0.9210   18.3230  -34.3090 O   0  0  0  0  0  0  0  0  0  0  0  0
    0.0140   18.5620  -35.3250 C   0  0  0  0  0  0  0  0  0  0  0  0
    0.3820   17.6200  -36.0850 O   0  0  0  0  0  0  0  0  0  0  0  0
    0.5590   19.9220  -35.5060 C   0  0  0  0  0  0  0  0  0  0  0  0
    1.8980   20.1180  -35.8910 C   0  0  0  0  0  0  0  0  0  0  0  0
    2.3980   21.4110  -36.0800 C   0  0  0  0  0  0  0  0  0  0  0  0
    1.5710   22.5320  -35.8900 C   0  0  0  0  0  0  0  0  0  0  0  0
    2.0750   23.8620  -36.1130 N   0  0  0  0  0  0  0  0  0  0  0  0
    1.7270   24.5140  -37.1190 O   0  0  0  0  0  0  0  0  0  0  0  0
    2.9470   24.4400  -35.2160 O   0  0  0  0  0  0  0  0  0  0  0  0
    0.2400   22.3340  -35.4880 C   0  0  0  0  0  0  0  0  0  0  0  0
   -0.2630   21.0430  -35.2980 C   0  0  0  0  0  0  0  0  0  0  0  0
   -0.6850   16.2000  -33.1170 C   0  0  2  0  0  0  0  0  0  0  0  0
   -1.9260   15.7700  -33.6850 O   0  0  0  0  0  0  0  0  0  0  0  0
   -2.6670   16.5710  -34.5710 C   0  0  0  0  0  0  0  0  0  0  0  0
   -2.2950   16.7030  -35.7720 O   0  0  0  0  0  0  0  0  0  0  0  0
   -3.8920   17.2580  -34.1090 C   0  0  0  0  0  0  0  0  0  0  0  0
   -4.1900   17.3520  -32.7390 C   0  0  0  0  0  0  0  0  0  0  0  0
   -5.3610   17.9910  -32.3110 C   0  0  0  0  0  0  0  0  0  0  0  0
   -6.2540   18.5500  -33.2440 C   0  0  0  0  0  0  0  0  0  0  0  0
   -7.4640   19.1940  -32.8090 N   0  0  0  0  0  0  0  0  0  0  0  0
   -7.6420   20.4170  -33.0060 O   0  0  0  0  0  0  0  0  0  0  0  0
   -8.4610   18.4690  -32.1910 O   0  0  0  0  0  0  0  0  0  0  0  0
   -5.9520   18.4580  -34.6110 C   0  0  0  0  0  0  0  0  0  0  0  0
   -4.7850   17.8210  -35.0390 C   0  0  0  0  0  0  0  0  0  0  0  0
   -0.5320   15.6800  -31.6890 C   0  0  1  0  0  0  0  0  0  0  0  0
   -0.3070   14.2680  -31.7030 O   0  0  0  0  0  0  0  0  0  0  0  0
   -1.3200   13.3140  -31.5420 C   0  0  0  0  0  0  0  0  0  0  0  0
   -1.1350   12.3080  -30.8040 O   0  0  0  0  0  0  0  0  0  0  0  0
   -2.6010   13.4790  -32.2600 C   0  0  0  0  0  0  0  0  0  0  0  0
   -2.7160   13.1090  -33.6120 C   0  0  0  0  0  0  0  0  0  0  0  0
   -3.9210   13.3000  -34.2960 C   0  0  0  0  0  0  0  0  0  0  0  0
   -5.0340   13.8580  -33.6390 C   0  0  0  0  0  0  0  0  0  0  0  0
   -6.2740   14.0640  -34.3420 N   0  0  0  0  0  0  0  0  0  0  0  0
   -6.7810   13.1440  -35.0200 O   0  0  0  0  0  0  0  0  0  0  0  0
   -6.9040   15.2840  -34.3070 O   0  0  0  0  0  0  0  0  0  0  0  0
   -4.9190   14.2140  -32.2850 C   0  0  0  0  0  0  0  0  0  0  0  0
   -3.7120   14.0320  -31.6030 C   0  0  0  0  0  0  0  0  0  0  0  0
    0.2740   20.5440  -27.6850 C   0  0  0  0  0  0  0  0  0  0  0  0
   -0.8240   21.4210  -27.6490 C   0  0  0  0  0  0  0  0  0  0  0  0
   -1.0373   25.6513  -24.5856 H   0  0  0  0  0  0  0  0  0  0  0  0
   -0.3328   26.2278  -26.1341 H   0  0  0  0  0  0  0  0  0  0  0  0
   -1.5191   24.8790  -26.1341 H   0  0  0  0  0  0  0  0  0  0  0  0
    1.2993   24.7535  -23.4779 H   0  0  0  0  0  0  0  0  0  0  0  0
    2.5188   24.3639  -24.7380 H   0  0  0  0  0  0  0  0  0  0  0  0
    1.7080   25.9668  -24.7380 H   0  0  0  0  0  0  0  0  0  0  0  0
   -0.0521   23.1236  -23.7126 H   0  0  0  0  0  0  0  0  0  0  0  0
   -1.1276   22.8926  -25.1326 H   0  0  0  0  0  0  0  0  0  0  0  0
    0.5241   22.1865  -25.1326 H   0  0  0  0  0  0  0  0  0  0  0  0
   -2.5850   25.3040  -30.0710 H   0  0  0  0  0  0  0  0  0  0  0  0
   -4.0694   21.9633  -27.5034 H   0  0  0  0  0  0  0  0  0  0  0  0
   -3.4065   19.2117  -27.2839 H   0  0  0  0  0  0  0  0  0  0  0  0
   -1.4854   17.5971  -27.3891 H   0  0  0  0  0  0  0  0  0  0  0  0
    1.9818   18.6709  -28.3252 H   0  0  0  0  0  0  0  0  0  0  0  0
    1.5258   17.8607  -26.7827 H   0  0  0  0  0  0  0  0  0  0  0  0
    1.2859   15.5609  -30.6079 H   0  0  0  0  0  0  0  0  0  0  0  0
    1.3957   17.8685  -33.6398 H   0  0  0  0  0  0  0  0  0  0  0  0
    1.4115   19.5951  -31.2781 H   0  0  0  0  0  0  0  0  0  0  0  0
    1.8061   19.9698  -33.0057 H   0  0  0  0  0  0  0  0  0  0  0  0
   -1.6939   22.5118  -30.0635 H   0  0  0  0  0  0  0  0  0  0  0  0
   -3.6828   23.9894  -30.3284 H   0  0  0  0  0  0  0  0  0  0  0  0
   -5.2645   21.3144  -33.3491 H   0  0  0  0  0  0  0  0  0  0  0  0
   -3.2682   19.8473  -33.0980 H   0  0  0  0  0  0  0  0  0  0  0  0
   -1.3024   18.1139  -32.3086 H   0  0  0  0  0  0  0  0  0  0  0  0
    2.5556   19.2496  -36.0443 H   0  0  0  0  0  0  0  0  0  0  0  0
    3.4470   21.5517  -36.3798 H   0  0  0  0  0  0  0  0  0  0  0  0
   -0.4134   23.2030  -35.3209 H   0  0  0  0  0  0  0  0  0  0  0  0
   -1.3080   20.9040  -34.9839 H   0  0  0  0  0  0  0  0  0  0  0  0
    0.1071   15.8004  -33.7673 H   0  0  0  0  0  0  0  0  0  0  0  0
   -3.5000   16.9214  -31.9984 H   0  0  0  0  0  0  0  0  0  0  0  0
   -5.5844   18.0564  -31.2359 H   0  0  0  0  0  0  0  0  0  0  0  0
   -6.6401   18.8912  -35.3519 H   0  0  0  0  0  0  0  0  0  0  0  0
   -4.5618   17.7589  -36.1143 H   0  0  0  0  0  0  0  0  0  0  0  0
   -1.4653   15.9031  -31.1512 H   0  0  0  0  0  0  0  0  0  0  0  0
   -1.8543   12.6674  -34.1339 H   0  0  0  0  0  0  0  0  0  0  0  0
   -3.9995   13.0122  -35.3548 H   0  0  0  0  0  0  0  0  0  0  0  0
   -5.7853   14.6393  -31.7571 H   0  0  0  0  0  0  0  0  0  0  0  0
   -3.6323   14.3238  -30.5454 H   0  0  0  0  0  0  0  0  0  0  0  0
    1.2993   20.9304  -27.7826 H   0  0  0  0  0  0  0  0  0  0  0  0
  1  2  1  0
  2  3  1  0
  2  4  1  0
  2  5  1  0
  5  6  1  0
  6  7  2  0
  6  8  1  0
  8  9  1  0
  9 10  1  0
 10 11  1  0
 10 12  2  0
  9 13  2  0
 13 14  1  0
 14 15  2  0
 15 16  1  0
 16 17  2  0
 17 18  1  0
 18 19  1  0
 19 20  2  0
 19 21  1  0
 21 22  1  0
 22 23  1  0
 23 24  1  0
 24 25  1  0
 25 26  1  0
 26 27  1  0
 27 28  2  0
 27 29  1  0
 29 30  2  0
 30 31  1  0
 31 32  2  0
 32 33  1  0
 33 34  2  0
 33 35  1  0
 32 36  1  0
 36 37  2  0
 24 38  1  0
 38 39  1  0
 39 40  1  0
 40 41  2  0
 40 42  1  0
 42 43  2  0
 43 44  1  0
 44 45  2  0
 45 46  1  0
 46 47  2  0
 46 48  1  0
 45 49  1  0
 49 50  2  0
 38 51  1  0
 51 52  1  0
 52 53  1  0
 53 54  2  0
 53 55  1  0
 55 56  2  0
 56 57  1  0
 57 58  2  0
 58 59  1  0
 59 60  2  0
 59 61  1  0
 58 62  1  0
 62 63  2  0
 51 64  1  0
 64 65  1  0
 65 66  1  0
 66 67  2  0
 66 68  1  0
 68 69  2  0
 69 70  1  0
 70 71  2  0
 71 72  1  0
 72 73  2  0
 72 74  1  0
 71 75  1  0
 75 76  2  0
 17 77  1  0
 77 78  2  0
 78  8  1  0
 78 14  1  0
 64 22  1  0
 76 68  1  0
 37 29  1  0
 50 42  1  0
 63 55  1  0
  1 79  1  0
  1 80  1  0
  1 81  1  0
  3 82  1  0
  3 83  1  0
  3 84  1  0
  4 85  1  0
  4 86  1  0
  4 87  1  0
 11 88  1  0
 13 89  1  0
 15 90  1  0
 16 91  1  0
 18 92  1  0
 18 93  1  0
 22 94  1  1
 24 95  1  6
 25 96  1  0
 25 97  1  0
 30 98  1  0
 31 99  1  0
 36100  1  0
 37101  1  0
 38102  1  1
 43103  1  0
 44104  1  0
 49105  1  0
 50106  1  0
 51107  1  6
 56108  1  0
 57109  1  0
 62110  1  0
 63111  1  0
 64112  1  1
 69113  1  0
 70114  1  0
 75115  1  0
 76116  1  0
 77117  1  0
M  CHG  8  11  -1  33   1  35  -1  46   1  48  -1  59   1  61  -1  72   1
M  CHG  1  74  -1
M  END
>  <UniqueID>  (9) 
9

>  <SMILES>  (9) 
CC(C)(C)OC(=O)n1c(C([NH-])=O)cc2ccc(CC(=O)O[C@@H]3O[C@H](COC(=O)c4ccc([N+](=O)[O-])cc4)[C@@H](OC(=O)c4ccc([N+](=O)[O-])cc4)[C@H](OC(=O)c4ccc([N+](=O)[O-])cc4)[C@H]3OC(=O)c3ccc([N+](=O)[O-])cc3)cc21

>  <Energy>  (9) 
173.4540958246488

>  <Genealogy>  (9) 
CC(C)(C)OC(=O)n1c(C([NH-])=O)cc2ccc(CC(=O)O[C@@H]3O[C@H](COC(=O)c4ccc([N+](=O)[O-])cc4)[C@@H](OC(=O)c4ccc([N+](=O)[O-])cc4)[C@H](OC(=O)c4ccc([N+](=O)[O-])cc4)[C@H]3OC(=O)c3ccc([N+](=O)[O-])cc3)cc21 (protonated)
CC(C)(C)OC(=O)n1c(C([NH-])=O)cc2ccc(CC(=O)O[C@@H]3O[C@H](COC(=O)c4ccc([N+](=O)[O-])cc4)[C@@H](OC(=O)c4ccc([N+](=O)[O-])cc4)[C@H](OC(=O)c4ccc([N+](=O)[O-])cc4)[C@H]3OC(=O)c3ccc([N+](=O)[O-])cc3)cc21 (3D coordinates assigned)
CC(C)(C)OC(=O)n1c(C([NH-])=O)cc2ccc(CC(=O)O[C@@H]3O[C@H](COC(=O)c4ccc([N+](=O)[O-])cc4)[C@@H](OC(=O)c4ccc([N+](=O)[O-])cc4)[C@H](OC(=O)c4ccc([N+](=O)[O-])cc4)[C@H]3OC(=O)c3ccc([N+](=O)[O-])cc3)cc21 (nonaromatic ring conformer: 173.4540958246488 kcal/mol)

>  <smiles>  (9) 
CC(C)(C)OC(=O)n1c(C(N)=O)cc2ccc(CC(=O)O[C@@H]3O[C@H](COC(=O)c4ccc([N+](=O)[O-])cc4)[C@@H](OC(=O)c4ccc([N+](=O)[O-])cc4)[C@H](OC(=O)c4ccc([N+](=O)[O-])cc4)[C@H]3OC(=O)c3ccc([N+](=O)[O-])cc3)cc21

>  <score_type>  (9) 
oracle

>  <origin>  (9) 
adg

>  <m_score__min__energy>  (9) 
-14.01

>  <m_primary>  (9) 
energy

$$$$
9:0
     RDKit          3D

 47 49  0  0  0  0  0  0  0  0999 V2000
   -1.7380   18.6340  -33.7730 C   0  0  0  0  0  0  0  0  0  0  0  0
   -3.1470   18.2720  -33.9360 N   0  0  0  0  0  0  0  0  0  0  0  0
   -4.1630   19.3310  -33.8290 C   0  0  0  0  0  0  0  0  0  0  0  0
   -5.5370   18.8810  -34.3370 C   0  0  0  0  0  0  0  0  0  0  0  0
   -5.9390   17.5030  -33.7750 C   0  0  2  0  0  0  0  0  0  0  0  0
   -6.0610   17.4610  -32.2300 C   0  0  0  0  0  0  0  0  0  0  0  0
   -7.4610   17.8490  -31.7230 C   0  0  0  0  0  0  0  0  0  0  0  0
   -8.1880   18.7950  -32.6900 C   0  0  0  0  0  0  0  0  0  0  0  0
   -8.0860   20.2330  -32.2480 C   0  0  0  0  0  0  0  0  0  0  0  0
   -9.2570   20.9720  -31.9480 C   0  0  0  0  0  0  0  0  0  0  0  0
   -9.1700   22.2980  -31.4940 C   0  0  0  0  0  0  0  0  0  0  0  0
   -7.9030   22.8510  -31.3350 C   0  0  0  0  0  0  0  0  0  0  0  0
   -7.5330   24.1100  -30.9230 C   0  0  0  0  0  0  0  0  0  0  0  0
   -6.1400   24.1130  -30.9470 C   0  0  0  0  0  0  0  0  0  0  0  0
   -5.3240   25.2570  -30.4880 C   0  0  0  0  0  0  0  0  0  0  0  0
   -3.9170   25.2930  -30.7130 N   0  0  0  0  0  0  0  0  0  0  0  0
   -5.8700   26.1920  -29.8440 O   0  0  0  0  0  0  0  0  0  0  0  0
   -5.6660   22.9040  -31.3650 N   0  0  0  0  0  0  0  0  0  0  0  0
   -4.3010   22.5240  -31.5990 C   0  0  0  0  0  0  0  0  0  0  0  0
   -3.4900   22.4430  -30.6390 O   0  0  0  0  0  0  0  0  0  0  0  0
   -3.8550   22.2680  -32.8900 O   0  0  0  0  0  0  0  0  0  0  0  0
   -6.7590   22.1420  -31.5970 C   0  0  0  0  0  0  0  0  0  0  0  0
   -6.8160   20.8280  -32.0740 C   0  0  0  0  0  0  0  0  0  0  0  0
   -4.9290   16.4540  -34.2680 C   0  0  0  0  0  0  0  0  0  0  0  0
   -3.5110   16.8760  -34.0040 C   0  0  0  0  0  0  0  0  0  0  0  0
   -2.6230   15.9850  -33.9090 O   0  0  0  0  0  0  0  0  0  0  0  0
   -1.4969   18.6959  -32.7015 H   0  0  0  0  0  0  0  0  0  0  0  0
   -1.1057   17.8691  -34.2475 H   0  0  0  0  0  0  0  0  0  0  0  0
   -1.5526   19.6089  -34.2475 H   0  0  0  0  0  0  0  0  0  0  0  0
   -4.2564   19.6246  -32.7730 H   0  0  0  0  0  0  0  0  0  0  0  0
   -3.8347   20.1731  -34.4560 H   0  0  0  0  0  0  0  0  0  0  0  0
   -6.2892   19.6226  -34.0301 H   0  0  0  0  0  0  0  0  0  0  0  0
   -5.4831   18.7979  -35.4325 H   0  0  0  0  0  0  0  0  0  0  0  0
   -6.9491   17.2809  -34.1497 H   0  0  0  0  0  0  0  0  0  0  0  0
   -5.8360   16.4397  -31.8889 H   0  0  0  0  0  0  0  0  0  0  0  0
   -5.3506   18.1969  -31.8253 H   0  0  0  0  0  0  0  0  0  0  0  0
   -8.0607   16.9345  -31.6046 H   0  0  0  0  0  0  0  0  0  0  0  0
   -7.3387   18.3752  -30.7648 H   0  0  0  0  0  0  0  0  0  0  0  0
   -7.7389   18.6968  -33.6894 H   0  0  0  0  0  0  0  0  0  0  0  0
   -9.2520   18.5165  -32.7060 H   0  0  0  0  0  0  0  0  0  0  0  0
  -10.2440   20.5024  -32.0719 H   0  0  0  0  0  0  0  0  0  0  0  0
  -10.0754   22.8815  -31.2710 H   0  0  0  0  0  0  0  0  0  0  0  0
   -8.1964   24.9390  -30.6354 H   0  0  0  0  0  0  0  0  0  0  0  0
   -3.4860   26.0480  -31.2890 H   0  0  0  0  0  0  0  0  0  0  0  0
   -5.8959   20.2723  -32.3076 H   0  0  0  0  0  0  0  0  0  0  0  0
   -5.1202   15.5038  -33.7478 H   0  0  0  0  0  0  0  0  0  0  0  0
   -5.0554   16.3426  -35.3550 H   0  0  0  0  0  0  0  0  0  0  0  0
  1  2  1  0
  2  3  1  0
  3  4  1  0
  4  5  1  0
  5  6  1  0
  6  7  1  0
  7  8  1  0
  8  9  1  0
  9 10  2  0
 10 11  1  0
 11 12  2  0
 12 13  1  0
 13 14  2  0
 14 15  1  0
 15 16  1  0
 15 17  2  0
 14 18  1  0
 18 19  1  0
 19 20  2  0
 19 21  1  0
 18 22  1  0
 22 23  2  0
  5 24  1  0
 24 25  1  0
 25 26  2  0
 25  2  1  0
 23  9  1  0
 22 12  1  0
  1 27  1  0
  1 28  1  0
  1 29  1  0
  3 30  1  0
  3 31  1  0
  4 32  1  0
  4 33  1  0
  5 34  1  6
  6 35  1  0
  6 36  1  0
  7 37  1  0
  7 38  1  0
  8 39  1  0
  8 40  1  0
 10 41  1  0
 11 42  1  0
 13 43  1  0
 16 44  1  0
 23 45  1  0
 24 46  1  0
 24 47  1  0
M  CHG  2  16  -1  21  -1
M  END
>  <UniqueID>  (10) 
10

>  <SMILES>  (10) 
CN1CC[C@H](CCCc2ccc3cc(C([NH-])=O)n(C(=O)[O-])c3c2)CC1=O

>  <Energy>  (10) 
80.07605057913715

>  <Genealogy>  (10) 
CN1CCC(CCCc2ccc3cc(C([NH-])=O)n(C(=O)[O-])c3c2)CC1=O (protonated)
CN1CC[C@H](CCCc2ccc3cc(C([NH-])=O)n(C(=O)[O-])c3c2)CC1=O (chirality)
CN1CC[C@H](CCCc2ccc3cc(C([NH-])=O)n(C(=O)[O-])c3c2)CC1=O (3D coordinates assigned)
CN1CC[C@H](CCCc2ccc3cc(C([NH-])=O)n(C(=O)[O-])c3c2)CC1=O (nonaromatic ring conformer: 80.07605057913715 kcal/mol)

>  <smiles>  (10) 
CN1CCC(CCCc2ccc3cc(C(N)=O)n(C(=O)O)c3c2)CC1=O

>  <score_type>  (10) 
oracle

>  <origin>  (10) 
adg

>  <m_score__min__energy>  (10) 
-12.44

>  <m_primary>  (10) 
energy

$$$$
10:0
     RDKit          3D

 40 42  0  0  0  0  0  0  0  0999 V2000
   -9.1150   18.2970  -31.5800 C   0  0  0  0  0  0  0  0  0  0  0  0
   -8.1680   18.6010  -32.6670 N   0  0  2  0  0  0  0  0  0  0  0  0
   -6.8230   18.0720  -32.3210 C   0  0  0  0  0  0  0  0  0  0  0  0
   -5.7250   18.6640  -33.2170 C   0  0  0  0  0  0  0  0  0  0  0  0
   -5.6770   20.2130  -33.1390 C   0  0  2  0  0  0  0  0  0  0  0  0
   -4.4310   20.7160  -32.4300 C   0  0  0  0  0  0  0  0  0  0  0  0
   -3.2320   19.9570  -32.4850 C   0  0  0  0  0  0  0  0  0  0  0  0
   -2.0620   20.4140  -31.8550 C   0  0  0  0  0  0  0  0  0  0  0  0
   -2.1170   21.6250  -31.1760 C   0  0  0  0  0  0  0  0  0  0  0  0
   -1.1280   22.3080  -30.5060 C   0  0  0  0  0  0  0  0  0  0  0  0
   -1.7370   23.4690  -30.0320 C   0  0  0  0  0  0  0  0  0  0  0  0
   -1.0480   24.4540  -29.1750 C   0  0  0  0  0  0  0  0  0  0  0  0
   -1.5970   25.7520  -28.9620 N   0  0  0  0  0  0  0  0  0  0  0  0
    0.0150   24.1300  -28.5800 O   0  0  0  0  0  0  0  0  0  0  0  0
   -3.0490   23.5060  -30.4020 N   0  0  0  0  0  0  0  0  0  0  0  0
   -3.9900   24.5720  -30.1930 C   0  0  0  0  0  0  0  0  0  0  0  0
   -3.8750   25.6550  -30.8250 O   0  0  0  0  0  0  0  0  0  0  0  0
   -5.0190   24.4280  -29.2710 O   0  0  0  0  0  0  0  0  0  0  0  0
   -3.2660   22.3680  -31.1000 C   0  0  0  0  0  0  0  0  0  0  0  0
   -4.4400   21.9480  -31.7330 C   0  0  0  0  0  0  0  0  0  0  0  0
   -6.9470   20.8070  -32.5000 C   0  0  0  0  0  0  0  0  0  0  0  0
   -8.1890   20.0560  -33.0000 C   0  0  0  0  0  0  0  0  0  0  0  0
   -8.6222   18.4552  -30.6094 H   0  0  0  0  0  0  0  0  0  0  0  0
   -9.9895   18.9596  -31.6595 H   0  0  0  0  0  0  0  0  0  0  0  0
   -9.4404   17.2493  -31.6595 H   0  0  0  0  0  0  0  0  0  0  0  0
   -8.5000   18.0780  -33.5120 H   0  0  0  0  0  0  0  0  0  0  0  0
   -6.6009   18.3237  -31.2735 H   0  0  0  0  0  0  0  0  0  0  0  0
   -6.8362   16.9827  -32.4738 H   0  0  0  0  0  0  0  0  0  0  0  0
   -4.7520   18.2628  -32.8970 H   0  0  0  0  0  0  0  0  0  0  0  0
   -5.9506   18.3850  -34.2568 H   0  0  0  0  0  0  0  0  0  0  0  0
   -5.6331   20.5658  -34.1800 H   0  0  0  0  0  0  0  0  0  0  0  0
   -3.2190   19.0000  -33.0272 H   0  0  0  0  0  0  0  0  0  0  0  0
   -1.1305   19.8305  -31.8981 H   0  0  0  0  0  0  0  0  0  0  0  0
   -0.0796   22.0028  -30.3727 H   0  0  0  0  0  0  0  0  0  0  0  0
   -2.6290   25.9080  -28.9790 H   0  0  0  0  0  0  0  0  0  0  0  0
   -5.3515   22.5622  -31.6902 H   0  0  0  0  0  0  0  0  0  0  0  0
   -6.8815   20.7141  -31.4059 H   0  0  0  0  0  0  0  0  0  0  0  0
   -7.0296   21.8673  -32.7810 H   0  0  0  0  0  0  0  0  0  0  0  0
   -9.0800   20.5076  -32.5394 H   0  0  0  0  0  0  0  0  0  0  0  0
   -8.2039   20.1410  -34.0966 H   0  0  0  0  0  0  0  0  0  0  0  0
  1  2  1  0
  2  3  1  0
  3  4  1  0
  4  5  1  0
  5  6  1  0
  6  7  2  0
  7  8  1  0
  8  9  2  0
  9 10  1  0
 10 11  2  0
 11 12  1  0
 12 13  1  0
 12 14  2  0
 11 15  1  0
 15 16  1  0
 16 17  2  0
 16 18  1  0
 15 19  1  0
 19 20  2  0
  5 21  1  0
 21 22  1  0
 22  2  1  0
 20  6  1  0
 19  9  1  0
  1 23  1  0
  1 24  1  0
  1 25  1  0
  2 26  1  6
  3 27  1  0
  3 28  1  0
  4 29  1  0
  4 30  1  0
  5 31  1  6
  7 32  1  0
  8 33  1  0
 10 34  1  0
 13 35  1  0
 20 36  1  0
 21 37  1  0
 21 38  1  0
 22 39  1  0
 22 40  1  0
M  CHG  3   2   1  13  -1  18  -1
M  END
>  <UniqueID>  (11) 
11

>  <SMILES>  (11) 
C[NH+]1CCC(c2ccc3cc(C([NH-])=O)n(C(=O)[O-])c3c2)CC1

>  <Energy>  (11) 
89.92706980458189

>  <Genealogy>  (11) 
C[NH+]1CCC(c2ccc3cc(C([NH-])=O)n(C(=O)[O-])c3c2)CC1 (protonated)
C[NH+]1CCC(c2ccc3cc(C([NH-])=O)n(C(=O)[O-])c3c2)CC1 (3D coordinates assigned)
C[NH+]1CCC(c2ccc3cc(C([NH-])=O)n(C(=O)[O-])c3c2)CC1 (nonaromatic ring conformer: 89.92706980458189 kcal/mol)

>  <smiles>  (11) 
CN1CCC(c2ccc3cc(C(N)=O)n(C(=O)O)c3c2)CC1

>  <score_type>  (11) 
oracle

>  <origin>  (11) 
adg

>  <m_score__min__energy>  (11) 
-11.75

>  <m_primary>  (11) 
energy

$$$$
11:0
     RDKit          3D

 54 56  0  0  0  0  0  0  0  0999 V2000
   -3.5050   14.9740  -34.6100 C   0  0  0  0  0  0  0  0  0  0  0  0
   -3.4660   16.0920  -35.6440 C   0  0  0  0  0  0  0  0  0  0  0  0
   -3.4310   17.3660  -35.0040 O   0  0  0  0  0  0  0  0  0  0  0  0
   -3.8280   17.5780  -33.6770 C   0  0  0  0  0  0  0  0  0  0  0  0
   -2.9750   17.5330  -32.7460 O   0  0  0  0  0  0  0  0  0  0  0  0
   -5.3020   17.7570  -33.3410 C   0  0  0  0  0  0  0  0  0  0  0  0
   -5.7110   16.7760  -32.2230 C   0  0  0  0  0  0  0  0  0  0  0  0
   -6.1190   17.4150  -34.6100 C   0  0  0  0  0  0  0  0  0  0  0  0
   -5.5550   19.1880  -32.8400 C   0  0  0  0  0  0  0  0  0  0  0  0
   -6.8680   19.7390  -32.7590 C   0  0  0  0  0  0  0  0  0  0  0  0
   -7.0900   21.0170  -32.2140 C   0  0  0  0  0  0  0  0  0  0  0  0
   -5.9950   21.7160  -31.7210 C   0  0  0  0  0  0  0  0  0  0  0  0
   -5.9250   22.9600  -31.1350 C   0  0  0  0  0  0  0  0  0  0  0  0
   -4.5800   23.1440  -30.8160 C   0  0  0  0  0  0  0  0  0  0  0  0
   -4.0640   24.3310  -30.1040 C   0  0  0  0  0  0  0  0  0  0  0  0
   -4.2220   25.6400  -30.6460 N   0  0  0  0  0  0  0  0  0  0  0  0
   -3.4430   24.1870  -29.0160 O   0  0  0  0  0  0  0  0  0  0  0  0
   -3.8490   22.0570  -31.1900 N   0  0  0  0  0  0  0  0  0  0  0  0
   -2.4230   21.8820  -31.1170 C   0  0  0  0  0  0  0  0  0  0  0  0
   -1.7630   22.5460  -30.2710 O   0  0  0  0  0  0  0  0  0  0  0  0
   -1.7170   20.9720  -32.0480 C   0  0  0  0  0  0  0  0  0  0  0  0
   -1.7610   21.1990  -33.4340 C   0  0  0  0  0  0  0  0  0  0  0  0
   -1.1590   20.3000  -34.3180 C   0  0  0  0  0  0  0  0  0  0  0  0
   -0.4860   19.1690  -33.8300 C   0  0  0  0  0  0  0  0  0  0  0  0
    0.1150   18.1700  -34.7840 C   0  0  0  0  0  0  0  0  0  0  0  0
   -0.8080   17.0650  -35.0360 N   0  0  0  0  0  0  0  0  0  0  0  0
   -0.4320   18.9450  -32.4460 C   0  0  0  0  0  0  0  0  0  0  0  0
   -1.0340   19.8430  -31.5610 C   0  0  0  0  0  0  0  0  0  0  0  0
   -4.7310   21.1980  -31.7490 C   0  0  0  0  0  0  0  0  0  0  0  0
   -4.4750   19.9450  -32.3120 C   0  0  0  0  0  0  0  0  0  0  0  0
   -3.4898   15.4084  -33.5995 H   0  0  0  0  0  0  0  0  0  0  0  0
   -4.4243   14.3845  -34.7419 H   0  0  0  0  0  0  0  0  0  0  0  0
   -2.6291   14.3218  -34.7419 H   0  0  0  0  0  0  0  0  0  0  0  0
   -2.5677   15.9761  -36.2682 H   0  0  0  0  0  0  0  0  0  0  0  0
   -4.3714   16.0320  -36.2658 H   0  0  0  0  0  0  0  0  0  0  0  0
   -5.5190   17.2366  -31.2427 H   0  0  0  0  0  0  0  0  0  0  0  0
   -6.7818   16.5416  -32.3145 H   0  0  0  0  0  0  0  0  0  0  0  0
   -5.1239   15.8503  -32.3145 H   0  0  0  0  0  0  0  0  0  0  0  0
   -7.0971   17.0056  -34.3171 H   0  0  0  0  0  0  0  0  0  0  0  0
   -6.2671   18.3266  -35.2075 H   0  0  0  0  0  0  0  0  0  0  0  0
   -5.5735   16.6697  -35.2075 H   0  0  0  0  0  0  0  0  0  0  0  0
   -7.7228   19.1541  -33.1294 H   0  0  0  0  0  0  0  0  0  0  0  0
   -8.1006   21.4500  -32.1792 H   0  0  0  0  0  0  0  0  0  0  0  0
   -6.7543   23.6603  -30.9563 H   0  0  0  0  0  0  0  0  0  0  0  0
   -3.5000   26.0490  -31.2830 H   0  0  0  0  0  0  0  0  0  0  0  0
   -2.2728   22.0904  -33.8256 H   0  0  0  0  0  0  0  0  0  0  0  0
   -1.2127   20.4795  -35.4019 H   0  0  0  0  0  0  0  0  0  0  0  0
    0.3422   18.6730  -35.7355 H   0  0  0  0  0  0  0  0  0  0  0  0
    1.0329   17.7640  -34.3338 H   0  0  0  0  0  0  0  0  0  0  0  0
   -1.4540   16.9720  -34.2180 H   0  0  0  0  0  0  0  0  0  0  0  0
   -1.3890   17.2960  -35.8750 H   0  0  0  0  0  0  0  0  0  0  0  0
    0.0872   18.0574  -32.0555 H   0  0  0  0  0  0  0  0  0  0  0  0
   -0.9735   19.6660  -30.4770 H   0  0  0  0  0  0  0  0  0  0  0  0
   -3.4492   19.5494  -32.3460 H   0  0  0  0  0  0  0  0  0  0  0  0
  1  2  1  0
  2  3  1  0
  3  4  1  0
  4  5  2  0
  4  6  1  0
  6  7  1  0
  6  8  1  0
  6  9  1  0
  9 10  2  0
 10 11  1  0
 11 12  2  0
 12 13  1  0
 13 14  2  0
 14 15  1  0
 15 16  1  0
 15 17  2  0
 14 18  1  0
 18 19  1  0
 19 20  2  0
 19 21  1  0
 21 22  2  0
 22 23  1  0
 23 24  2  0
 24 25  1  0
 25 26  1  0
 24 27  1  0
 27 28  2  0
 18 29  1  0
 29 30  2  0
 30  9  1  0
 29 12  1  0
 28 21  1  0
  1 31  1  0
  1 32  1  0
  1 33  1  0
  2 34  1  0
  2 35  1  0
  7 36  1  0
  7 37  1  0
  7 38  1  0
  8 39  1  0
  8 40  1  0
  8 41  1  0
 10 42  1  0
 11 43  1  0
 13 44  1  0
 16 45  1  0
 22 46  1  0
 23 47  1  0
 25 48  1  0
 25 49  1  0
 26 50  1  0
 26 51  1  0
 27 52  1  0
 28 53  1  0
 30 54  1  0
M  CHG  1  16  -1
M  END
>  <UniqueID>  (12) 
12

>  <SMILES>  (12) 
CCOC(=O)C(C)(C)c1ccc2cc(C([NH-])=O)n(C(=O)c3ccc(CN)cc3)c2c1

>  <Energy>  (12) 
92.2698807349481

>  <Genealogy>  (12) 
CCOC(=O)C(C)(C)c1ccc2cc(C([NH-])=O)n(C(=O)c3ccc(CN)cc3)c2c1 (protonated)
CCOC(=O)C(C)(C)c1ccc2cc(C([NH-])=O)n(C(=O)c3ccc(CN)cc3)c2c1 (3D coordinates assigned)
CCOC(=O)C(C)(C)c1ccc2cc(C([NH-])=O)n(C(=O)c3ccc(CN)cc3)c2c1 (optimized conformer: 92.2698807349481 kcal/mol)

>  <smiles>  (12) 
CCOC(=O)C(C)(C)c1ccc2cc(C(N)=O)n(C(=O)c3ccc(CN)cc3)c2c1

>  <score_type>  (12) 
oracle

>  <origin>  (12) 
adg

>  <m_score__min__energy>  (12) 
-10.390000000000001

>  <m_primary>  (12) 
energy

$$$$
12:0
     RDKit          3D

 26 27  0  0  0  0  0  0  0  0999 V2000
   -1.6270   25.6830  -28.9690 N   0  0  0  0  0  0  0  0  0  0  0  0
   -1.0380   24.4100  -29.2180 C   0  0  0  0  0  0  0  0  0  0  0  0
    0.0550   24.1170  -28.6630 O   0  0  0  0  0  0  0  0  0  0  0  0
   -1.7190   23.4100  -30.0660 C   0  0  0  0  0  0  0  0  0  0  0  0
   -1.0890   22.2690  -30.5580 C   0  0  0  0  0  0  0  0  0  0  0  0
   -2.0730   21.5610  -31.2090 C   0  0  0  0  0  0  0  0  0  0  0  0
   -2.0020   20.3490  -31.8880 C   0  0  0  0  0  0  0  0  0  0  0  0
   -3.1740   19.8610  -32.4910 C   0  0  0  0  0  0  0  0  0  0  0  0
   -4.3830   20.5980  -32.4170 C   0  0  0  0  0  0  0  0  0  0  0  0
   -5.6350   20.0560  -33.0480 C   0  0  0  0  0  0  0  0  0  0  0  0
   -5.3760   18.6990  -33.6180 C   0  0  0  0  0  0  0  0  0  0  0  0
   -5.0770   18.5690  -34.8340 O   0  0  0  0  0  0  0  0  0  0  0  0
   -5.4160   17.5810  -32.7950 O   0  0  0  0  0  0  0  0  0  0  0  0
   -4.4190   21.8200  -31.7100 C   0  0  0  0  0  0  0  0  0  0  0  0
   -3.2410   22.2720  -31.1040 C   0  0  0  0  0  0  0  0  0  0  0  0
   -3.0390   23.4130  -30.4060 N   0  0  0  0  0  0  0  0  0  0  0  0
   -4.0040   24.4520  -30.1700 C   0  0  0  0  0  0  0  0  0  0  0  0
   -4.9730   24.2560  -29.3900 O   0  0  0  0  0  0  0  0  0  0  0  0
   -3.8920   25.6730  -30.8240 O   0  0  0  0  0  0  0  0  0  0  0  0
   -2.6590   25.8200  -29.0380 H   0  0  0  0  0  0  0  0  0  0  0  0
   -0.0298   21.9927  -30.4492 H   0  0  0  0  0  0  0  0  0  0  0  0
   -1.0571   19.7894  -31.9511 H   0  0  0  0  0  0  0  0  0  0  0  0
   -3.1531   18.8994  -33.0247 H   0  0  0  0  0  0  0  0  0  0  0  0
   -6.4255   19.9860  -32.2863 H   0  0  0  0  0  0  0  0  0  0  0  0
   -5.9529   20.7315  -33.8559 H   0  0  0  0  0  0  0  0  0  0  0  0
   -5.3496   22.4021  -31.6374 H   0  0  0  0  0  0  0  0  0  0  0  0
  1  2  1  0
  2  3  2  0
  2  4  1  0
  4  5  2  0
  5  6  1  0
  6  7  2  0
  7  8  1  0
  8  9  2  0
  9 10  1  0
 10 11  1  0
 11 12  2  0
 11 13  1  0
  9 14  1  0
 14 15  2  0
 15 16  1  0
 16 17  1  0
 17 18  2  0
 17 19  1  0
 16  4  1  0
 15  6  1  0
  1 20  1  0
  5 21  1  0
  7 22  1  0
  8 23  1  0
 10 24  1  0
 10 25  1  0
 14 26  1  0
M  CHG  3   1  -1  13  -1  19  -1
M  END
>  <UniqueID>  (13) 
13

>  <SMILES>  (13) 
[NH-]C(=O)c1cc2ccc(CC(=O)[O-])cc2n1C(=O)[O-]

>  <Energy>  (13) 
64.8556655832916

>  <Genealogy>  (13) 
[NH-]C(=O)c1cc2ccc(CC(=O)[O-])cc2n1C(=O)[O-] (protonated)
[NH-]C(=O)c1cc2ccc(CC(=O)[O-])cc2n1C(=O)[O-] (3D coordinates assigned)
[NH-]C(=O)c1cc2ccc(CC(=O)[O-])cc2n1C(=O)[O-] (optimized conformer: 64.8556655832916 kcal/mol)

>  <smiles>  (13) 
NC(=O)c1cc2ccc(CC(=O)O)cc2n1C(=O)O

>  <score_type>  (13) 
oracle

>  <origin>  (13) 
adg

>  <m_score__min__energy>  (13) 
-10.039999999999999

>  <m_primary>  (13) 
energy

$$$$
13:0
     RDKit          3D

 50 52  0  0  0  0  0  0  0  0999 V2000
   -1.6970   26.0390  -26.0430 C   0  0  0  0  0  0  0  0  0  0  0  0
   -2.4740   25.0620  -26.9220 C   0  0  0  0  0  0  0  0  0  0  0  0
   -1.9090   24.9700  -28.3080 C   0  0  0  0  0  0  0  0  0  0  0  0
   -1.5170   26.0230  -28.8830 O   0  0  0  0  0  0  0  0  0  0  0  0
   -1.8800   23.7430  -28.9810 O   0  0  0  0  0  0  0  0  0  0  0  0
   -3.0290   22.9170  -29.1340 C   0  0  0  0  0  0  0  0  0  0  0  0
   -2.9060   22.1690  -30.3380 O   0  0  0  0  0  0  0  0  0  0  0  0
   -3.6180   22.4530  -31.5050 C   0  0  0  0  0  0  0  0  0  0  0  0
   -3.0240   22.4950  -32.6160 O   0  0  0  0  0  0  0  0  0  0  0  0
   -5.0430   22.6450  -31.4350 N   0  0  0  0  0  0  0  0  0  0  0  0
   -5.7270   23.7520  -31.0220 C   0  0  0  0  0  0  0  0  0  0  0  0
   -5.1400   24.9640  -30.4140 C   0  0  0  0  0  0  0  0  0  0  0  0
   -3.8470   25.4040  -30.8200 N   0  0  0  0  0  0  0  0  0  0  0  0
   -5.7850   25.6400  -29.5700 O   0  0  0  0  0  0  0  0  0  0  0  0
   -7.1000   23.5570  -31.1590 C   0  0  0  0  0  0  0  0  0  0  0  0
   -7.2420   22.2820  -31.6560 C   0  0  0  0  0  0  0  0  0  0  0  0
   -8.3930   21.5650  -31.9650 C   0  0  0  0  0  0  0  0  0  0  0  0
   -8.2450   20.2590  -32.4610 C   0  0  0  0  0  0  0  0  0  0  0  0
   -6.9550   19.6990  -32.6550 C   0  0  0  0  0  0  0  0  0  0  0  0
   -6.8100   18.2740  -33.1600 C   0  0  0  0  0  0  0  0  0  0  0  0
   -6.1110   18.2050  -34.5450 C   0  0  0  0  0  0  0  0  0  0  0  0
   -4.7100   17.5790  -34.4610 C   0  0  0  0  0  0  0  0  0  0  0  0
   -4.7490   16.2230  -33.8780 N   0  0  0  0  0  0  0  0  0  0  0  0
   -5.6680   16.0630  -32.7250 C   0  0  0  0  0  0  0  0  0  0  0  0
   -6.1020   17.3990  -32.1060 C   0  0  0  0  0  0  0  0  0  0  0  0
   -5.8110   20.4650  -32.3340 C   0  0  0  0  0  0  0  0  0  0  0  0
   -5.9880   21.7540  -31.8160 C   0  0  0  0  0  0  0  0  0  0  0  0
   -1.8821   25.8063  -24.9839 H   0  0  0  0  0  0  0  0  0  0  0  0
   -0.6216   25.9483  -26.2559 H   0  0  0  0  0  0  0  0  0  0  0  0
   -2.0275   27.0664  -26.2559 H   0  0  0  0  0  0  0  0  0  0  0  0
   -2.4391   24.0648  -26.4589 H   0  0  0  0  0  0  0  0  0  0  0  0
   -3.5070   25.4312  -27.0036 H   0  0  0  0  0  0  0  0  0  0  0  0
   -3.1050   22.2292  -28.2789 H   0  0  0  0  0  0  0  0  0  0  0  0
   -3.9328   23.5425  -29.1763 H   0  0  0  0  0  0  0  0  0  0  0  0
   -3.0060   25.2220  -30.2280 H   0  0  0  0  0  0  0  0  0  0  0  0
   -7.9013   24.2718  -30.9201 H   0  0  0  0  0  0  0  0  0  0  0  0
   -9.3902   22.0077  -31.8251 H   0  0  0  0  0  0  0  0  0  0  0  0
   -9.1383   19.6639  -32.7016 H   0  0  0  0  0  0  0  0  0  0  0  0
   -7.8209   17.8686  -33.3142 H   0  0  0  0  0  0  0  0  0  0  0  0
   -6.7292   17.5987  -35.2234 H   0  0  0  0  0  0  0  0  0  0  0  0
   -5.9979   19.2342  -34.9164 H   0  0  0  0  0  0  0  0  0  0  0  0
   -4.2856   17.5189  -35.4741 H   0  0  0  0  0  0  0  0  0  0  0  0
   -4.0907   18.2133  -33.8097 H   0  0  0  0  0  0  0  0  0  0  0  0
   -3.7770   15.9700  -33.5780 H   0  0  0  0  0  0  0  0  0  0  0  0
   -5.0270   15.5460  -34.6270 H   0  0  0  0  0  0  0  0  0  0  0  0
   -6.5664   15.5277  -33.0660 H   0  0  0  0  0  0  0  0  0  0  0  0
   -5.1236   15.5053  -31.9488 H   0  0  0  0  0  0  0  0  0  0  0  0
   -6.7930   17.2049  -31.2724 H   0  0  0  0  0  0  0  0  0  0  0  0
   -5.2104   17.9301  -31.7414 H   0  0  0  0  0  0  0  0  0  0  0  0
   -4.8014   20.0565  -32.4881 H   0  0  0  0  0  0  0  0  0  0  0  0
  1  2  1  0
  2  3  1  0
  3  4  2  0
  3  5  1  0
  5  6  1  0
  6  7  1  0
  7  8  1  0
  8  9  2  0
  8 10  1  0
 10 11  1  0
 11 12  1  0
 12 13  1  0
 12 14  2  0
 11 15  2  0
 15 16  1  0
 16 17  2  0
 17 18  1  0
 18 19  2  0
 19 20  1  0
 20 21  1  0
 21 22  1  0
 22 23  1  0
 23 24  1  0
 24 25  1  0
 19 26  1  0
 26 27  2  0
 27 10  1  0
 27 16  1  0
 25 20  1  0
  1 28  1  0
  1 29  1  0
  1 30  1  0
  2 31  1  0
  2 32  1  0
  6 33  1  0
  6 34  1  0
 13 35  1  0
 15 36  1  0
 17 37  1  0
 18 38  1  0
 20 39  1  0
 21 40  1  0
 21 41  1  0
 22 42  1  0
 22 43  1  0
 23 44  1  0
 23 45  1  0
 24 46  1  0
 24 47  1  0
 25 48  1  0
 25 49  1  0
 26 50  1  0
M  CHG  2  13  -1  23   1
M  END
>  <UniqueID>  (14) 
14

>  <SMILES>  (14) 
CCC(=O)OCOC(=O)n1c(C([NH-])=O)cc2ccc(C3CC[NH2+]CC3)cc21

>  <Energy>  (14) 
87.81673376370804

>  <Genealogy>  (14) 
CCC(=O)OCOC(=O)n1c(C([NH-])=O)cc2ccc(C3CC[NH2+]CC3)cc21 (protonated)
CCC(=O)OCOC(=O)n1c(C([NH-])=O)cc2ccc(C3CC[NH2+]CC3)cc21 (3D coordinates assigned)
CCC(=O)OCOC(=O)n1c(C([NH-])=O)cc2ccc(C3CC[NH2+]CC3)cc21 (nonaromatic ring conformer: 87.81673376370804 kcal/mol)

>  <smiles>  (14) 
CCC(=O)OCOC(=O)n1c(C(N)=O)cc2ccc(C3CCNCC3)cc21

>  <score_type>  (14) 
oracle

>  <origin>  (14) 
adg

>  <m_score__min__energy>  (14) 
-11.09

>  <m_primary>  (14) 
energy

$$$$
14:0
     RDKit          3D

 41 42  0  0  0  0  0  0  0  0999 V2000
   -3.4960   20.7270  -32.9840 C   0  0  0  0  0  0  0  0  0  0  0  0
   -3.6970   22.0240  -32.7560 C   0  0  0  0  0  0  0  0  0  0  0  0
   -4.2500   22.5360  -31.4880 C   0  0  0  0  0  0  0  0  0  0  0  0
   -3.4990   22.5990  -30.4790 O   0  0  0  0  0  0  0  0  0  0  0  0
   -5.6200   22.9530  -31.3760 N   0  0  0  0  0  0  0  0  0  0  0  0
   -6.0900   24.1380  -30.8950 C   0  0  0  0  0  0  0  0  0  0  0  0
   -5.2610   25.2920  -30.4910 C   0  0  0  0  0  0  0  0  0  0  0  0
   -3.8640   25.2980  -30.7780 N   0  0  0  0  0  0  0  0  0  0  0  0
   -5.7690   26.2690  -29.8800 O   0  0  0  0  0  0  0  0  0  0  0  0
   -7.4840   24.1350  -30.8750 C   0  0  0  0  0  0  0  0  0  0  0  0
   -7.8530   22.8970  -31.3540 C   0  0  0  0  0  0  0  0  0  0  0  0
   -9.1170   22.3450  -31.5340 C   0  0  0  0  0  0  0  0  0  0  0  0
   -9.1990   21.0290  -32.0240 C   0  0  0  0  0  0  0  0  0  0  0  0
   -8.0200   20.2890  -32.3180 C   0  0  0  0  0  0  0  0  0  0  0  0
   -8.0800   18.9370  -32.8100 N   0  0  0  0  0  0  0  0  0  0  0  0
   -7.6580   17.7750  -32.0230 C   0  0  0  0  0  0  0  0  0  0  0  0
   -6.2450   17.2850  -32.4220 C   0  0  0  0  0  0  0  0  0  0  0  0
   -6.0160   17.1550  -33.8800 N   0  0  0  0  0  0  0  0  0  0  0  0
   -5.6550   18.4260  -34.5250 C   0  0  0  0  0  0  0  0  0  0  0  0
   -5.0680   16.0890  -34.2330 C   0  0  0  0  0  0  0  0  0  0  0  0
   -6.7570   20.8890  -32.1190 C   0  0  0  0  0  0  0  0  0  0  0  0
   -6.7090   22.2040  -31.6440 C   0  0  0  0  0  0  0  0  0  0  0  0
   -3.0808   20.3958  -33.9473 H   0  0  0  0  0  0  0  0  0  0  0  0
   -3.7453   19.9872  -32.2090 H   0  0  0  0  0  0  0  0  0  0  0  0
   -3.4396   22.7438  -33.5470 H   0  0  0  0  0  0  0  0  0  0  0  0
   -3.4410   26.0440  -31.3720 H   0  0  0  0  0  0  0  0  0  0  0  0
   -8.1481   24.9481  -30.5466 H   0  0  0  0  0  0  0  0  0  0  0  0
  -10.0250   22.9202  -31.3002 H   0  0  0  0  0  0  0  0  0  0  0  0
  -10.1849   20.5673  -32.1815 H   0  0  0  0  0  0  0  0  0  0  0  0
   -8.4280   18.7910  -33.7850 H   0  0  0  0  0  0  0  0  0  0  0  0
   -7.6503   18.0513  -30.9583 H   0  0  0  0  0  0  0  0  0  0  0  0
   -8.3680   16.9576  -32.2175 H   0  0  0  0  0  0  0  0  0  0  0  0
   -5.5106   18.0005  -32.0237 H   0  0  0  0  0  0  0  0  0  0  0  0
   -6.1407   16.2733  -32.0030 H   0  0  0  0  0  0  0  0  0  0  0  0
   -5.4407   19.1806  -33.7539 H   0  0  0  0  0  0  0  0  0  0  0  0
   -4.7632   18.2788  -35.1518 H   0  0  0  0  0  0  0  0  0  0  0  0
   -6.4911   18.7695  -35.1518 H   0  0  0  0  0  0  0  0  0  0  0  0
   -4.6659   15.6369  -33.3143 H   0  0  0  0  0  0  0  0  0  0  0  0
   -5.5854   15.3193  -34.8244 H   0  0  0  0  0  0  0  0  0  0  0  0
   -4.2431   16.5130  -34.8244 H   0  0  0  0  0  0  0  0  0  0  0  0
   -5.8314   20.3345  -32.3328 H   0  0  0  0  0  0  0  0  0  0  0  0
  1  2  2  0
  2  3  1  0
  3  4  2  0
  3  5  1  0
  5  6  1  0
  6  7  1  0
  7  8  1  0
  7  9  2  0
  6 10  2  0
 10 11  1  0
 11 12  2  0
 12 13  1  0
 13 14  2  0
 14 15  1  0
 15 16  1  0
 16 17  1  0
 17 18  1  0
 18 19  1  0
 18 20  1  0
 14 21  1  0
 21 22  2  0
 22  5  1  0
 22 11  1  0
  1 23  1  0
  1 24  1  0
  2 25  1  0
  8 26  1  0
 10 27  1  0
 12 28  1  0
 13 29  1  0
 15 30  1  0
 16 31  1  0
 16 32  1  0
 17 33  1  0
 17 34  1  0
 19 35  1  0
 19 36  1  0
 19 37  1  0
 20 38  1  0
 20 39  1  0
 20 40  1  0
 21 41  1  0
M  CHG  1   8  -1
M  END
>  <UniqueID>  (15) 
15

>  <SMILES>  (15) 
C=CC(=O)n1c(C([NH-])=O)cc2ccc(NCCN(C)C)cc21

>  <Energy>  (15) 
81.69395497825775

>  <Genealogy>  (15) 
C=CC(=O)n1c(C([NH-])=O)cc2ccc(NCCN(C)C)cc21 (protonated)
C=CC(=O)n1c(C([NH-])=O)cc2ccc(NCCN(C)C)cc21 (3D coordinates assigned)
C=CC(=O)n1c(C([NH-])=O)cc2ccc(NCCN(C)C)cc21 (optimized conformer: 81.69395497825775 kcal/mol)

>  <smiles>  (15) 
C=CC(=O)n1c(C(N)=O)cc2ccc(NCCN(C)C)cc21

>  <score_type>  (15) 
oracle

>  <origin>  (15) 
adg

>  <m_score__min__energy>  (15) 
-10.42

>  <m_primary>  (15) 
energy

$$$$
15:0
     RDKit          3D

 49 51  0  0  0  0  0  0  0  0999 V2000
   -6.5240   23.2150  -31.7150 C   0  0  0  0  0  0  0  0  0  0  0  0
   -6.3610   23.8040  -30.3220 C   0  0  0  0  0  0  0  0  0  0  0  0
   -5.0760   23.4650  -29.8130 O   0  0  0  0  0  0  0  0  0  0  0  0
   -3.8880   23.9650  -30.3550 C   0  0  0  0  0  0  0  0  0  0  0  0
   -3.8520   25.1300  -30.8390 O   0  0  0  0  0  0  0  0  0  0  0  0
   -2.7160   23.1340  -30.3880 N   0  0  0  0  0  0  0  0  0  0  0  0
   -1.4920   23.3830  -29.8390 C   0  0  0  0  0  0  0  0  0  0  0  0
   -1.1480   24.5190  -28.9590 C   0  0  0  0  0  0  0  0  0  0  0  0
   -1.9610   25.6900  -28.9610 N   0  0  0  0  0  0  0  0  0  0  0  0
   -0.1220   24.4830  -28.2290 O   0  0  0  0  0  0  0  0  0  0  0  0
   -0.6010   22.3580  -30.1500 C   0  0  0  0  0  0  0  0  0  0  0  0
   -1.3240   21.4610  -30.9030 C   0  0  0  0  0  0  0  0  0  0  0  0
   -0.9300   20.2630  -31.4900 C   0  0  0  0  0  0  0  0  0  0  0  0
   -1.8820   19.5510  -32.2380 C   0  0  0  0  0  0  0  0  0  0  0  0
   -3.2030   20.0440  -32.3870 C   0  0  0  0  0  0  0  0  0  0  0  0
   -4.1680   19.3170  -33.1700 N   0  0  0  0  0  0  0  0  0  0  0  0
   -3.9000   17.9500  -33.6240 C   0  0  0  0  0  0  0  0  0  0  0  0
   -5.0080   16.9950  -33.1400 C   0  0  0  0  0  0  0  0  0  0  0  0
   -6.3510   17.6330  -33.0310 N   0  0  0  0  0  0  0  0  0  0  0  0
   -6.7180   17.9070  -31.6590 C   0  0  0  0  0  0  0  0  0  0  0  0
   -6.1380   17.3120  -30.7060 O   0  0  0  0  0  0  0  0  0  0  0  0
   -7.6980   18.8690  -31.3900 O   0  0  0  0  0  0  0  0  0  0  0  0
   -9.0830   18.6350  -31.6160 C   0  0  0  0  0  0  0  0  0  0  0  0
   -6.4960   18.8480  -33.8640 C   0  0  0  0  0  0  0  0  0  0  0  0
   -5.4600   19.9270  -33.4990 C   0  0  0  0  0  0  0  0  0  0  0  0
   -3.5590   21.2720  -31.7860 C   0  0  0  0  0  0  0  0  0  0  0  0
   -2.5970   21.9520  -31.0300 C   0  0  0  0  0  0  0  0  0  0  0  0
   -6.8166   22.1577  -31.6341 H   0  0  0  0  0  0  0  0  0  0  0  0
   -7.3022   23.7702  -32.2591 H   0  0  0  0  0  0  0  0  0  0  0  0
   -5.5710   23.2911  -32.2591 H   0  0  0  0  0  0  0  0  0  0  0  0
   -6.4587   24.8985  -30.3726 H   0  0  0  0  0  0  0  0  0  0  0  0
   -7.1382   23.3977  -29.6580 H   0  0  0  0  0  0  0  0  0  0  0  0
   -2.9380   25.6650  -29.3270 H   0  0  0  0  0  0  0  0  0  0  0  0
    0.4562   22.2818  -29.8560 H   0  0  0  0  0  0  0  0  0  0  0  0
    0.0961   19.8847  -31.3719 H   0  0  0  0  0  0  0  0  0  0  0  0
   -1.5995   18.6002  -32.7136 H   0  0  0  0  0  0  0  0  0  0  0  0
   -3.8628   17.9341  -34.7233 H   0  0  0  0  0  0  0  0  0  0  0  0
   -2.9372   17.6187  -33.2078 H   0  0  0  0  0  0  0  0  0  0  0  0
   -5.0788   16.1583  -33.8506 H   0  0  0  0  0  0  0  0  0  0  0  0
   -4.7273   16.6674  -32.1281 H   0  0  0  0  0  0  0  0  0  0  0  0
   -7.0490   16.9390  -33.3910 H   0  0  0  0  0  0  0  0  0  0  0  0
   -9.6024   18.5472  -30.6503 H   0  0  0  0  0  0  0  0  0  0  0  0
   -9.5084   19.4740  -32.1862 H   0  0  0  0  0  0  0  0  0  0  0  0
   -9.2091   17.7028  -32.1862 H   0  0  0  0  0  0  0  0  0  0  0  0
   -6.3634   18.5718  -34.9205 H   0  0  0  0  0  0  0  0  0  0  0  0
   -7.4977   19.2651  -33.6835 H   0  0  0  0  0  0  0  0  0  0  0  0
   -5.3307   20.6069  -34.3540 H   0  0  0  0  0  0  0  0  0  0  0  0
   -5.8224   20.4815  -32.6208 H   0  0  0  0  0  0  0  0  0  0  0  0
   -4.5710   21.6851  -31.9096 H   0  0  0  0  0  0  0  0  0  0  0  0
  1  2  1  0
  2  3  1  0
  3  4  1  0
  4  5  2  0
  4  6  1  0
  6  7  1  0
  7  8  1  0
  8  9  1  0
  8 10  2  0
  7 11  2  0
 11 12  1  0
 12 13  2  0
 13 14  1  0
 14 15  2  0
 15 16  1  0
 16 17  1  0
 17 18  1  0
 18 19  1  0
 19 20  1  0
 20 21  2  0
 20 22  1  0
 22 23  1  0
 19 24  1  0
 24 25  1  0
 15 26  1  0
 26 27  2  0
 27  6  1  0
 27 12  1  0
 25 16  1  0
  1 28  1  0
  1 29  1  0
  1 30  1  0
  2 31  1  0
  2 32  1  0
  9 33  1  0
 11 34  1  0
 13 35  1  0
 14 36  1  0
 17 37  1  0
 17 38  1  0
 18 39  1  0
 18 40  1  0
 19 41  1  0
 23 42  1  0
 23 43  1  0
 23 44  1  0
 24 45  1  0
 24 46  1  0
 25 47  1  0
 25 48  1  0
 26 49  1  0
M  CHG  2   9  -1  19   1
M  END
>  <UniqueID>  (16) 
16

>  <SMILES>  (16) 
CCOC(=O)n1c(C([NH-])=O)cc2ccc(N3CC[NH+](C(=O)OC)CC3)cc21

>  <Energy>  (16) 
94.21344830412914

>  <Genealogy>  (16) 
CCOC(=O)n1c(C([NH-])=O)cc2ccc(N3CC[NH+](C(=O)OC)CC3)cc21 (protonated)
CCOC(=O)n1c(C([NH-])=O)cc2ccc(N3CC[NH+](C(=O)OC)CC3)cc21 (3D coordinates assigned)
CCOC(=O)n1c(C([NH-])=O)cc2ccc(N3CC[NH+](C(=O)OC)CC3)cc21 (nonaromatic ring conformer: 94.21344830412914 kcal/mol)

>  <smiles>  (16) 
CCOC(=O)n1c(C(N)=O)cc2ccc(N3CCN(C(=O)OC)CC3)cc21

>  <score_type>  (16) 
oracle

>  <origin>  (16) 
adg

>  <m_score__min__energy>  (16) 
-9.5700000000000003

>  <m_primary>  (16) 
energy

$$$$
16:0
     RDKit          3D

 45 47  0  0  0  0  0  0  0  0999 V2000
   -3.2770   21.7060  -29.5970 C   0  0  0  0  0  0  0  0  0  0  0  0
   -3.7580   22.5270  -30.7520 C   0  0  0  0  0  0  0  0  0  0  0  0
   -2.9110   23.0710  -31.5120 O   0  0  0  0  0  0  0  0  0  0  0  0
   -5.1610   22.6750  -31.0240 N   0  0  0  0  0  0  0  0  0  0  0  0
   -5.9610   23.7440  -30.7520 C   0  0  0  0  0  0  0  0  0  0  0  0
   -5.5070   25.0650  -30.2750 C   0  0  0  0  0  0  0  0  0  0  0  0
   -4.1820   25.5300  -30.5350 N   0  0  0  0  0  0  0  0  0  0  0  0
   -6.3180   25.8180  -29.6720 O   0  0  0  0  0  0  0  0  0  0  0  0
   -7.2910   23.4500  -31.0420 C   0  0  0  0  0  0  0  0  0  0  0  0
   -7.2810   22.1600  -31.5210 C   0  0  0  0  0  0  0  0  0  0  0  0
   -8.3320   21.3510  -31.9410 C   0  0  0  0  0  0  0  0  0  0  0  0
   -8.0330   20.0390  -32.3480 C   0  0  0  0  0  0  0  0  0  0  0  0
   -6.6970   19.5620  -32.3280 C   0  0  0  0  0  0  0  0  0  0  0  0
   -6.4090   18.2050  -32.7150 N   0  0  0  0  0  0  0  0  0  0  0  0
   -6.4700   17.7810  -34.1160 C   0  0  0  0  0  0  0  0  0  0  0  0
   -5.1090   17.2210  -34.5690 C   0  0  0  0  0  0  0  0  0  0  0  0
   -4.2860   16.6710  -33.4640 N   0  0  0  0  0  0  0  0  0  0  0  0
   -3.1550   17.8690  -32.8800 S   0  0  0  0  0  0  0  0  0  0  0  0
   -3.2520   19.3530  -33.8530 C   0  0  0  0  0  0  0  0  0  0  0  0
   -1.5830   17.2770  -32.9380 O   0  0  0  0  0  0  0  0  0  0  0  0
   -5.1060   16.1350  -32.3580 C   0  0  0  0  0  0  0  0  0  0  0  0
   -5.9840   17.2230  -31.7120 C   0  0  0  0  0  0  0  0  0  0  0  0
   -5.6580   20.4110  -31.8850 C   0  0  0  0  0  0  0  0  0  0  0  0
   -5.9840   21.7150  -31.5010 C   0  0  0  0  0  0  0  0  0  0  0  0
   -3.5638   22.1955  -28.6546 H   0  0  0  0  0  0  0  0  0  0  0  0
   -3.7318   20.7055  -29.6437 H   0  0  0  0  0  0  0  0  0  0  0  0
   -2.1819   21.6135  -29.6437 H   0  0  0  0  0  0  0  0  0  0  0  0
   -3.8650   26.4490  -30.1520 H   0  0  0  0  0  0  0  0  0  0  0  0
   -3.5430   25.0080  -31.1730 H   0  0  0  0  0  0  0  0  0  0  0  0
   -8.1631   24.1083  -30.9153 H   0  0  0  0  0  0  0  0  0  0  0  0
   -9.3658   21.7266  -31.9542 H   0  0  0  0  0  0  0  0  0  0  0  0
   -8.8430   19.3756  -32.6853 H   0  0  0  0  0  0  0  0  0  0  0  0
   -7.2372   17.0003  -34.2250 H   0  0  0  0  0  0  0  0  0  0  0  0
   -6.7229   18.6505  -34.7405 H   0  0  0  0  0  0  0  0  0  0  0  0
   -5.2907   16.4177  -35.2982 H   0  0  0  0  0  0  0  0  0  0  0  0
   -4.5451   18.0623  -34.9982 H   0  0  0  0  0  0  0  0  0  0  0  0
   -3.3090   20.2258  -33.1859 H   0  0  0  0  0  0  0  0  0  0  0  0
   -2.3573   19.4345  -34.4877 H   0  0  0  0  0  0  0  0  0  0  0  0
   -4.1497   19.3173  -34.4877 H   0  0  0  0  0  0  0  0  0  0  0  0
   -1.6830   16.3380  -33.2320 H   0  0  0  0  0  0  0  0  0  0  0  0
   -5.7570   15.3402  -32.7512 H   0  0  0  0  0  0  0  0  0  0  0  0
   -4.4246   15.7457  -31.5872 H   0  0  0  0  0  0  0  0  0  0  0  0
   -6.8732   16.7529  -31.2666 H   0  0  0  0  0  0  0  0  0  0  0  0
   -5.3979   17.7382  -30.9368 H   0  0  0  0  0  0  0  0  0  0  0  0
   -4.6182   20.0546  -31.8433 H   0  0  0  0  0  0  0  0  0  0  0  0
  1  2  1  0
  2  3  2  0
  2  4  1  0
  4  5  1  0
  5  6  1  0
  6  7  1  0
  6  8  2  0
  5  9  2  0
  9 10  1  0
 10 11  2  0
 11 12  1  0
 12 13  2  0
 13 14  1  0
 14 15  1  0
 15 16  1  0
 16 17  1  0
 17 18  1  0
 18 19  1  0
 18 20  1  6
 17 21  1  0
 21 22  1  0
 13 23  1  0
 23 24  2  0
 24  4  1  0
 24 10  1  0
 22 14  1  0
  1 25  1  0
  1 26  1  0
  1 27  1  0
  7 28  1  0
  7 29  1  0
  9 30  1  0
 11 31  1  0
 12 32  1  0
 15 33  1  0
 15 34  1  0
 16 35  1  0
 16 36  1  0
 19 37  1  0
 19 38  1  0
 19 39  1  0
 20 40  1  0
 21 41  1  0
 21 42  1  0
 22 43  1  0
 22 44  1  0
 23 45  1  0
M  CHG  1  18   1
M  END
>  <UniqueID>  (17) 
17

>  <SMILES>  (17) 
CC(=O)n1c(C(N)=O)cc2ccc(N3CCN([S@+](C)O)CC3)cc21

>  <Energy>  (17) 
91.04208830963212

>  <Genealogy>  (17) 
CC(=O)n1c(C(N)=O)cc2ccc(N3CCN([S+](C)O)CC3)cc21 (protonated)
CC(=O)n1c(C(N)=O)cc2ccc(N3CCN([S@+](C)O)CC3)cc21 (chirality)
CC(=O)n1c(C(N)=O)cc2ccc(N3CCN([S@+](C)O)CC3)cc21 (3D coordinates assigned)
CC(=O)n1c(C(N)=O)cc2ccc(N3CCN([S@+](C)O)CC3)cc21 (nonaromatic ring conformer: 91.04208830963212 kcal/mol)

>  <smiles>  (17) 
CC(=O)n1c(C(N)=O)cc2ccc(N3CCN([S+](C)[O-])CC3)cc21

>  <score_type>  (17) 
oracle

>  <origin>  (17) 
adg

>  <m_score__min__energy>  (17) 
-8.3900000000000006

>  <m_primary>  (17) 
energy

$$$$
17:0
     RDKit          3D

 37 39  0  0  0  0  0  0  0  0999 V2000
   -3.4520   21.6850  -30.2960 C   0  0  0  0  0  0  0  0  0  0  0  0
   -4.2630   22.0050  -31.5120 C   0  0  0  0  0  0  0  0  0  0  0  0
   -3.7040   21.9980  -32.6410 O   0  0  0  0  0  0  0  0  0  0  0  0
   -5.6670   22.2990  -31.4120 N   0  0  0  0  0  0  0  0  0  0  0  0
   -6.2340   23.4270  -30.9010 C   0  0  0  0  0  0  0  0  0  0  0  0
   -5.5110   24.6440  -30.4800 C   0  0  0  0  0  0  0  0  0  0  0  0
   -5.8590   25.3370  -29.2810 N   0  0  0  0  0  0  0  0  0  0  0  0
   -4.5370   25.0530  -31.1670 O   0  0  0  0  0  0  0  0  0  0  0  0
   -7.6190   23.2970  -30.8400 C   0  0  0  0  0  0  0  0  0  0  0  0
   -7.8890   22.0430  -31.3390 C   0  0  0  0  0  0  0  0  0  0  0  0
   -9.1040   21.3790  -31.4770 C   0  0  0  0  0  0  0  0  0  0  0  0
   -9.0820   20.0630  -31.9670 C   0  0  0  0  0  0  0  0  0  0  0  0
   -7.8560   19.4380  -32.3060 C   0  0  0  0  0  0  0  0  0  0  0  0
   -7.8400   18.0100  -32.7730 C   0  0  0  0  0  0  0  0  0  0  0  0
   -6.4740   17.6480  -33.2760 C   0  0  0  0  0  0  0  0  0  0  0  0
   -5.5860   16.9130  -32.4760 C   0  0  0  0  0  0  0  0  0  0  0  0
   -4.3070   16.6270  -32.9580 C   0  0  0  0  0  0  0  0  0  0  0  0
   -3.9240   17.0780  -34.2210 C   0  0  0  0  0  0  0  0  0  0  0  0
   -4.8290   17.8160  -34.9870 C   0  0  0  0  0  0  0  0  0  0  0  0
   -6.0700   18.0870  -34.5010 N   0  0  0  0  0  0  0  0  0  0  0  0
   -6.6420   20.1390  -32.1390 C   0  0  0  0  0  0  0  0  0  0  0  0
   -6.6930   21.4580  -31.6730 C   0  0  0  0  0  0  0  0  0  0  0  0
   -4.0373   21.9159  -29.3937 H   0  0  0  0  0  0  0  0  0  0  0  0
   -3.1909   20.6164  -30.3002 H   0  0  0  0  0  0  0  0  0  0  0  0
   -2.5316   22.2874  -30.3002 H   0  0  0  0  0  0  0  0  0  0  0  0
   -5.3700   26.2250  -29.0290 H   0  0  0  0  0  0  0  0  0  0  0  0
   -6.5270   24.9270  -28.5930 H   0  0  0  0  0  0  0  0  0  0  0  0
   -8.3431   24.0385  -30.4715 H   0  0  0  0  0  0  0  0  0  0  0  0
  -10.0519   21.8694  -31.2107 H   0  0  0  0  0  0  0  0  0  0  0  0
  -10.0260   19.5117  -32.0889 H   0  0  0  0  0  0  0  0  0  0  0  0
   -8.1057   17.3498  -31.9342 H   0  0  0  0  0  0  0  0  0  0  0  0
   -8.5679   17.8896  -33.5889 H   0  0  0  0  0  0  0  0  0  0  0  0
   -5.8943   16.5655  -31.4789 H   0  0  0  0  0  0  0  0  0  0  0  0
   -3.6031   16.0473  -32.3429 H   0  0  0  0  0  0  0  0  0  0  0  0
   -2.9195   16.8547  -34.6098 H   0  0  0  0  0  0  0  0  0  0  0  0
   -4.5379   18.1783  -35.9840 H   0  0  0  0  0  0  0  0  0  0  0  0
   -5.6789   19.6601  -32.3696 H   0  0  0  0  0  0  0  0  0  0  0  0
  1  2  1  0
  2  3  2  0
  2  4  1  0
  4  5  1  0
  5  6  1  0
  6  7  1  0
  6  8  2  0
  5  9  2  0
  9 10  1  0
 10 11  2  0
 11 12  1  0
 12 13  2  0
 13 14  1  0
 14 15  1  0
 15 16  2  0
 16 17  1  0
 17 18  2  0
 18 19  1  0
 19 20  2  0
 13 21  1  0
 21 22  2  0
 22  4  1  0
 22 10  1  0
 20 15  1  0
  1 23  1  0
  1 24  1  0
  1 25  1  0
  7 26  1  0
  7 27  1  0
  9 28  1  0
 11 29  1  0
 12 30  1  0
 14 31  1  0
 14 32  1  0
 16 33  1  0
 17 34  1  0
 18 35  1  0
 19 36  1  0
 21 37  1  0
M  END
>  <UniqueID>  (18) 
18

>  <SMILES>  (18) 
CC(=O)n1c(C(N)=O)cc2ccc(Cc3ccccn3)cc21

>  <Energy>  (18) 
77.62646958974314

>  <Genealogy>  (18) 
CC(=O)n1c(C(N)=O)cc2ccc(Cc3ccccn3)cc21 (3D coordinates assigned)
CC(=O)n1c(C(N)=O)cc2ccc(Cc3ccccn3)cc21 (optimized conformer: 77.62646958974314 kcal/mol)

>  <smiles>  (18) 
CC(=O)n1c(C(N)=O)cc2ccc(Cc3ccccn3)cc21

>  <score_type>  (18) 
oracle

>  <origin>  (18) 
adg

>  <m_score__min__energy>  (18) 
-9.4000000000000004

>  <m_primary>  (18) 
energy

$$$$
18:0
     RDKit          3D

 28 29  0  0  0  0  0  0  0  0999 V2000
   -3.3810   22.9030  -28.7990 C   0  0  0  0  0  0  0  0  0  0  0  0
   -2.9170   23.1370  -30.1230 O   0  0  0  0  0  0  0  0  0  0  0  0
   -3.6420   22.7520  -31.2540 C   0  0  0  0  0  0  0  0  0  0  0  0
   -3.0520   22.2290  -32.2390 O   0  0  0  0  0  0  0  0  0  0  0  0
   -5.0670   22.9330  -31.2860 N   0  0  0  0  0  0  0  0  0  0  0  0
   -5.7770   24.0230  -30.8760 C   0  0  0  0  0  0  0  0  0  0  0  0
   -5.2080   25.3190  -30.4520 C   0  0  0  0  0  0  0  0  0  0  0  0
   -3.8800   25.6710  -30.8380 N   0  0  0  0  0  0  0  0  0  0  0  0
   -5.8650   26.1040  -29.7190 O   0  0  0  0  0  0  0  0  0  0  0  0
   -7.1440   23.7860  -30.9910 C   0  0  0  0  0  0  0  0  0  0  0  0
   -7.2530   22.5100  -31.4930 C   0  0  0  0  0  0  0  0  0  0  0  0
   -8.3860   21.7640  -31.8040 C   0  0  0  0  0  0  0  0  0  0  0  0
   -8.2030   20.4600  -32.2910 C   0  0  0  0  0  0  0  0  0  0  0  0
   -6.9010   19.9150  -32.4350 C   0  0  0  0  0  0  0  0  0  0  0  0
   -6.7160   18.5270  -32.9950 C   0  0  0  0  0  0  0  0  0  0  0  0
   -7.9140   17.8330  -32.9870 F   0  0  0  0  0  0  0  0  0  0  0  0
   -5.7950   17.8440  -32.2240 F   0  0  0  0  0  0  0  0  0  0  0  0
   -6.2590   18.5840  -34.3010 F   0  0  0  0  0  0  0  0  0  0  0  0
   -5.7730   20.7130  -32.1290 C   0  0  0  0  0  0  0  0  0  0  0  0
   -5.9860   22.0160  -31.6620 C   0  0  0  0  0  0  0  0  0  0  0  0
   -2.6386   23.2774  -28.0788 H   0  0  0  0  0  0  0  0  0  0  0  0
   -4.3360   23.4273  -28.6471 H   0  0  0  0  0  0  0  0  0  0  0  0
   -3.5272   21.8234  -28.6471 H   0  0  0  0  0  0  0  0  0  0  0  0
   -3.0540   25.2870  -30.3290 H   0  0  0  0  0  0  0  0  0  0  0  0
   -7.9635   24.4736  -30.7347 H   0  0  0  0  0  0  0  0  0  0  0  0
   -9.3943   22.1834  -31.6722 H   0  0  0  0  0  0  0  0  0  0  0  0
   -9.0793   19.8538  -32.5641 H   0  0  0  0  0  0  0  0  0  0  0  0
   -4.7536   20.3193  -32.2549 H   0  0  0  0  0  0  0  0  0  0  0  0
  1  2  1  0
  2  3  1  0
  3  4  2  0
  3  5  1  0
  5  6  1  0
  6  7  1  0
  7  8  1  0
  7  9  2  0
  6 10  2  0
 10 11  1  0
 11 12  2  0
 12 13  1  0
 13 14  2  0
 14 15  1  0
 15 16  1  0
 15 17  1  0
 15 18  1  0
 14 19  1  0
 19 20  2  0
 20  5  1  0
 20 11  1  0
  1 21  1  0
  1 22  1  0
  1 23  1  0
  8 24  1  0
 10 25  1  0
 12 26  1  0
 13 27  1  0
 19 28  1  0
M  CHG  1   8  -1
M  END
>  <UniqueID>  (19) 
19

>  <SMILES>  (19) 
COC(=O)n1c(C([NH-])=O)cc2ccc(C(F)(F)F)cc21

>  <Energy>  (19) 
65.867958298149

>  <Genealogy>  (19) 
COC(=O)n1c(C([NH-])=O)cc2ccc(C(F)(F)F)cc21 (protonated)
COC(=O)n1c(C([NH-])=O)cc2ccc(C(F)(F)F)cc21 (3D coordinates assigned)
COC(=O)n1c(C([NH-])=O)cc2ccc(C(F)(F)F)cc21 (optimized conformer: 65.867958298149 kcal/mol)

>  <smiles>  (19) 
COC(=O)n1c(C(N)=O)cc2ccc(C(F)(F)F)cc21

>  <score_type>  (19) 
oracle

>  <origin>  (19) 
adg

>  <m_score__min__energy>  (19) 
-8.7599999999999998

>  <m_primary>  (19) 
energy

$$$$
19:0
     RDKit          3D

 58 61  0  0  0  0  0  0  0  0999 V2000
   -1.5960   15.8890  -34.6550 C   0  0  0  0  0  0  0  0  0  0  0  0
   -1.3210   16.8930  -33.5410 C   0  0  0  0  0  0  0  0  0  0  0  0
   -1.0390   18.2560  -34.1070 C   0  0  0  0  0  0  0  0  0  0  0  0
    0.4960   18.7830  -34.5530 S   0  0  0  0  0  0  0  0  0  0  0  0
    0.0700   20.3790  -34.8760 C   0  0  0  0  0  0  0  0  0  0  0  0
    0.9850   21.4670  -35.2790 C   0  0  0  0  0  0  0  0  0  0  0  0
    0.5330   22.6430  -35.3360 O   0  0  0  0  0  0  0  0  0  0  0  0
    2.3670   21.2230  -35.6120 N   0  0  0  0  0  0  0  0  0  0  0  0
    2.7640   20.0230  -36.3620 C   0  0  0  0  0  0  0  0  0  0  0  0
    4.0450   20.2960  -37.1560 C   0  0  0  0  0  0  0  0  0  0  0  0
    4.0200   21.6190  -37.6520 O   0  0  0  0  0  0  0  0  0  0  0  0
    4.2200   22.5460  -36.5960 C   0  0  0  0  0  0  0  0  0  0  0  0
    3.3890   22.2380  -35.3290 C   0  0  0  0  0  0  0  0  0  0  0  0
   -1.2840   20.5320  -34.5960 C   0  0  0  0  0  0  0  0  0  0  0  0
   -1.9120   19.3480  -34.1730 C   0  0  0  0  0  0  0  0  0  0  0  0
   -3.3390   19.3060  -33.7990 C   0  0  0  0  0  0  0  0  0  0  0  0
   -4.0750   18.1080  -33.9620 C   0  0  0  0  0  0  0  0  0  0  0  0
   -5.4290   18.0430  -33.5930 C   0  0  0  0  0  0  0  0  0  0  0  0
   -6.0170   19.1900  -33.0680 C   0  0  0  0  0  0  0  0  0  0  0  0
   -7.2930   19.3910  -32.5930 C   0  0  0  0  0  0  0  0  0  0  0  0
   -7.3210   20.7140  -32.1620 C   0  0  0  0  0  0  0  0  0  0  0  0
   -8.5310   21.3680  -31.6250 C   0  0  0  0  0  0  0  0  0  0  0  0
   -8.5560   21.9070  -30.3030 N   0  0  0  0  0  0  0  0  0  0  0  0
   -9.5410   21.5030  -32.3660 O   0  0  0  0  0  0  0  0  0  0  0  0
   -6.1080   21.3070  -32.3480 N   0  0  0  0  0  0  0  0  0  0  0  0
   -5.7060   22.6190  -31.9220 C   0  0  0  0  0  0  0  0  0  0  0  0
   -4.9930   23.3360  -32.6760 O   0  0  0  0  0  0  0  0  0  0  0  0
   -6.1100   23.0950  -30.6690 O   0  0  0  0  0  0  0  0  0  0  0  0
   -6.6200   24.4090  -30.4530 C   0  0  0  0  0  0  0  0  0  0  0  0
   -5.5100   25.3560  -30.0040 C   0  0  0  0  0  0  0  0  0  0  0  0
   -4.4030   25.2250  -30.8520 O   0  0  0  0  0  0  0  0  0  0  0  0
   -5.3200   20.3610  -32.9070 C   0  0  0  0  0  0  0  0  0  0  0  0
   -3.9640   20.4450  -33.2440 C   0  0  0  0  0  0  0  0  0  0  0  0
   -1.8623   14.9167  -34.2148 H   0  0  0  0  0  0  0  0  0  0  0  0
   -2.4283   16.2502  -35.2769 H   0  0  0  0  0  0  0  0  0  0  0  0
   -0.6958   15.7757  -35.2769 H   0  0  0  0  0  0  0  0  0  0  0  0
   -2.2005   16.9510  -32.8829 H   0  0  0  0  0  0  0  0  0  0  0  0
   -0.4396   16.5578  -32.9747 H   0  0  0  0  0  0  0  0  0  0  0  0
    2.9419   19.1967  -35.6580 H   0  0  0  0  0  0  0  0  0  0  0  0
    1.9586   19.7536  -37.0611 H   0  0  0  0  0  0  0  0  0  0  0  0
    4.9178   20.1674  -36.4990 H   0  0  0  0  0  0  0  0  0  0  0  0
    4.1117   19.5906  -37.9974 H   0  0  0  0  0  0  0  0  0  0  0  0
    5.2855   22.5358  -36.3228 H   0  0  0  0  0  0  0  0  0  0  0  0
    3.8892   23.5280  -36.9650 H   0  0  0  0  0  0  0  0  0  0  0  0
    4.0587   21.8657  -34.5398 H   0  0  0  0  0  0  0  0  0  0  0  0
    2.8888   23.1613  -35.0014 H   0  0  0  0  0  0  0  0  0  0  0  0
   -1.8139   21.4907  -34.6964 H   0  0  0  0  0  0  0  0  0  0  0  0
   -3.5818   17.2189  -34.3818 H   0  0  0  0  0  0  0  0  0  0  0  0
   -6.0063   17.1147  -33.7152 H   0  0  0  0  0  0  0  0  0  0  0  0
   -8.1155   18.6613  -32.5609 H   0  0  0  0  0  0  0  0  0  0  0  0
   -9.4330   22.3290  -29.9260 H   0  0  0  0  0  0  0  0  0  0  0  0
   -7.6870   21.9620  -29.7260 H   0  0  0  0  0  0  0  0  0  0  0  0
   -7.0569   24.7845  -31.3901 H   0  0  0  0  0  0  0  0  0  0  0  0
   -7.3850   24.3642  -29.6639 H   0  0  0  0  0  0  0  0  0  0  0  0
   -5.8772   26.3923  -30.0402 H   0  0  0  0  0  0  0  0  0  0  0  0
   -5.2116   25.1043  -28.9756 H   0  0  0  0  0  0  0  0  0  0  0  0
   -4.6520   24.5400  -31.5260 H   0  0  0  0  0  0  0  0  0  0  0  0
   -3.3991   21.3747  -33.0808 H   0  0  0  0  0  0  0  0  0  0  0  0
  1  2  1  0
  2  3  1  0
  3  4  1  0
  4  5  1  0
  5  6  1  0
  6  7  2  0
  6  8  1  0
  8  9  1  0
  9 10  1  0
 10 11  1  0
 11 12  1  0
 12 13  1  0
  5 14  2  0
 14 15  1  0
 15 16  1  0
 16 17  2  0
 17 18  1  0
 18 19  2  0
 19 20  1  0
 20 21  2  0
 21 22  1  0
 22 23  1  0
 22 24  2  0
 21 25  1  0
 25 26  1  0
 26 27  2  0
 26 28  1  0
 28 29  1  0
 29 30  1  0
 30 31  1  0
 25 32  1  0
 32 33  2  0
 15  3  2  0
 33 16  1  0
 13  8  1  0
 32 19  1  0
  1 34  1  0
  1 35  1  0
  1 36  1  0
  2 37  1  0
  2 38  1  0
  9 39  1  0
  9 40  1  0
 10 41  1  0
 10 42  1  0
 12 43  1  0
 12 44  1  0
 13 45  1  0
 13 46  1  0
 14 47  1  0
 17 48  1  0
 18 49  1  0
 20 50  1  0
 23 51  1  0
 23 52  1  0
 29 53  1  0
 29 54  1  0
 30 55  1  0
 30 56  1  0
 31 57  1  0
 33 58  1  0
M  END
>  <UniqueID>  (20) 
20

>  <SMILES>  (20) 
CCc1sc(C(=O)N2CCOCC2)cc1-c1ccc2cc(C(N)=O)n(C(=O)OCCO)c2c1

>  <Energy>  (20) 
134.10492094296058

>  <Genealogy>  (20) 
CCc1sc(C(=O)N2CCOCC2)cc1-c1ccc2cc(C(N)=O)n(C(=O)OCCO)c2c1 (3D coordinates assigned)
CCc1sc(C(=O)N2CCOCC2)cc1-c1ccc2cc(C(N)=O)n(C(=O)OCCO)c2c1 (nonaromatic ring conformer: 134.10492094296058 kcal/mol)

>  <smiles>  (20) 
CCc1sc(C(=O)N2CCOCC2)cc1-c1ccc2cc(C(N)=O)n(C(=O)OCCO)c2c1

>  <score_type>  (20) 
oracle

>  <origin>  (20) 
adg

>  <m_score__min__energy>  (20) 
-9.5899999999999999

>  <m_primary>  (20) 
energy

$$$$
20:0
     RDKit          3D

 29 31  0  0  0  0  0  0  0  0999 V2000
   -5.3720   26.4250  -30.4640 N   0  0  0  0  0  0  0  0  0  0  0  0
   -6.3060   25.4310  -30.0400 C   0  0  0  0  0  0  0  0  0  0  0  0
   -7.0030   25.6390  -29.0120 O   0  0  0  0  0  0  0  0  0  0  0  0
   -6.4210   24.1380  -30.7450 C   0  0  0  0  0  0  0  0  0  0  0  0
   -7.6350   23.5980  -31.1590 C   0  0  0  0  0  0  0  0  0  0  0  0
   -7.3180   22.3770  -31.7090 C   0  0  0  0  0  0  0  0  0  0  0  0
   -8.1430   21.4220  -32.2910 C   0  0  0  0  0  0  0  0  0  0  0  0
   -7.5440   20.2650  -32.8160 C   0  0  0  0  0  0  0  0  0  0  0  0
   -6.1360   20.0850  -32.7660 C   0  0  0  0  0  0  0  0  0  0  0  0
   -5.5030   18.8670  -33.3350 C   0  0  0  0  0  0  0  0  0  0  0  0
   -4.2020   18.7500  -33.8270 C   0  0  0  0  0  0  0  0  0  0  0  0
   -3.8930   17.4670  -34.2980 C   0  0  0  0  0  0  0  0  0  0  0  0
   -4.9380   16.5620  -34.1850 C   0  0  0  0  0  0  0  0  0  0  0  0
   -6.2430   17.3600  -33.4960 S   0  0  0  0  0  0  0  0  0  0  0  0
   -5.3340   21.0850  -32.1630 C   0  0  0  0  0  0  0  0  0  0  0  0
   -5.9600   22.2160  -31.6270 C   0  0  0  0  0  0  0  0  0  0  0  0
   -5.3910   23.2940  -31.0370 N   0  0  0  0  0  0  0  0  0  0  0  0
   -3.9840   23.5400  -30.8710 C   0  0  0  0  0  0  0  0  0  0  0  0
   -3.1700   22.5790  -30.8390 O   0  0  0  0  0  0  0  0  0  0  0  0
   -3.5060   24.8380  -30.7450 O   0  0  0  0  0  0  0  0  0  0  0  0
   -4.6640   26.2170  -31.2020 H   0  0  0  0  0  0  0  0  0  0  0  0
   -5.3310   27.3470  -29.9770 H   0  0  0  0  0  0  0  0  0  0  0  0
   -8.6335   24.0501  -31.0665 H   0  0  0  0  0  0  0  0  0  0  0  0
   -9.2322   21.5678  -32.3391 H   0  0  0  0  0  0  0  0  0  0  0  0
   -8.1742   19.4874  -33.2723 H   0  0  0  0  0  0  0  0  0  0  0  0
   -3.4870   19.5858  -33.8434 H   0  0  0  0  0  0  0  0  0  0  0  0
   -2.9118   17.2019  -34.7187 H   0  0  0  0  0  0  0  0  0  0  0  0
   -4.9151   15.5063  -34.4931 H   0  0  0  0  0  0  0  0  0  0  0  0
   -4.2405   20.9746  -32.1170 H   0  0  0  0  0  0  0  0  0  0  0  0
  1  2  1  0
  2  3  2  0
  2  4  1  0
  4  5  2  0
  5  6  1  0
  6  7  2  0
  7  8  1  0
  8  9  2  0
  9 10  1  0
 10 11  2  0
 11 12  1  0
 12 13  2  0
 13 14  1  0
  9 15  1  0
 15 16  2  0
 16 17  1  0
 17 18  1  0
 18 19  2  0
 18 20  1  0
 17  4  1  0
 16  6  1  0
 14 10  1  0
  1 21  1  0
  1 22  1  0
  5 23  1  0
  7 24  1  0
  8 25  1  0
 11 26  1  0
 12 27  1  0
 13 28  1  0
 15 29  1  0
M  CHG  1  20  -1
M  END
>  <UniqueID>  (21) 
21

>  <SMILES>  (21) 
NC(=O)c1cc2ccc(-c3cccs3)cc2n1C(=O)[O-]

>  <Energy>  (21) 
100.14731471235619

>  <Genealogy>  (21) 
NC(=O)c1cc2ccc(-c3cccs3)cc2n1C(=O)[O-] (protonated)
NC(=O)c1cc2ccc(-c3cccs3)cc2n1C(=O)[O-] (3D coordinates assigned)
NC(=O)c1cc2ccc(-c3cccs3)cc2n1C(=O)[O-] (optimized conformer: 100.14731471235619 kcal/mol)

>  <smiles>  (21) 
NC(=O)c1cc2ccc(-c3cccs3)cc2n1C(=O)O

>  <score_type>  (21) 
oracle

>  <origin>  (21) 
adg

>  <m_score__min__energy>  (21) 
-9.0999999999999996

>  <m_primary>  (21) 
energy

$$$$
21:0
     RDKit          3D

 37 39  0  0  0  0  0  0  0  0999 V2000
   -4.2870   24.3410  -27.6360 C   0  0  0  0  0  0  0  0  0  0  0  0
   -4.3550   24.3020  -29.1300 C   0  0  0  0  0  0  0  0  0  0  0  0
   -5.0910   25.1250  -29.7360 O   0  0  0  0  0  0  0  0  0  0  0  0
   -3.5290   23.3980  -29.8800 N   0  0  0  0  0  0  0  0  0  0  0  0
   -2.1750   23.4200  -30.0300 C   0  0  0  0  0  0  0  0  0  0  0  0
   -1.2380   24.3120  -29.3130 C   0  0  0  0  0  0  0  0  0  0  0  0
   -1.5700   25.6740  -29.0650 N   0  0  0  0  0  0  0  0  0  0  0  0
   -0.1480   23.8530  -28.8800 O   0  0  0  0  0  0  0  0  0  0  0  0
   -1.7650   22.4190  -30.9080 C   0  0  0  0  0  0  0  0  0  0  0  0
   -2.9180   21.7690  -31.2850 C   0  0  0  0  0  0  0  0  0  0  0  0
   -3.1030   20.6960  -32.1530 C   0  0  0  0  0  0  0  0  0  0  0  0
   -4.4160   20.2450  -32.3710 C   0  0  0  0  0  0  0  0  0  0  0  0
   -5.5100   20.8660  -31.7180 C   0  0  0  0  0  0  0  0  0  0  0  0
   -6.8880   20.3970  -31.9670 C   0  0  0  0  0  0  0  0  0  0  0  0
   -7.1030   19.0150  -32.0930 C   0  0  0  0  0  0  0  0  0  0  0  0
   -8.3880   18.5110  -32.2890 C   0  0  0  0  0  0  0  0  0  0  0  0
   -9.4750   19.3790  -32.3600 C   0  0  0  0  0  0  0  0  0  0  0  0
   -9.2790   20.7590  -32.2520 C   0  0  0  0  0  0  0  0  0  0  0  0
   -7.9870   21.2930  -32.0820 C   0  0  0  0  0  0  0  0  0  0  0  0
   -7.8100   22.7970  -31.9860 C   0  0  0  0  0  0  0  0  0  0  0  0
   -8.9450   23.4520  -32.4320 F   0  0  0  0  0  0  0  0  0  0  0  0
   -7.5840   23.1940  -30.6790 F   0  0  0  0  0  0  0  0  0  0  0  0
   -6.7290   23.1850  -32.7550 F   0  0  0  0  0  0  0  0  0  0  0  0
   -5.2860   21.9600  -30.8550 C   0  0  0  0  0  0  0  0  0  0  0  0
   -3.9680   22.3790  -30.6480 C   0  0  0  0  0  0  0  0  0  0  0  0
   -5.1687   23.8353  -27.2155 H   0  0  0  0  0  0  0  0  0  0  0  0
   -3.3743   23.8291  -27.2970 H   0  0  0  0  0  0  0  0  0  0  0  0
   -4.2680   25.3873  -27.2970 H   0  0  0  0  0  0  0  0  0  0  0  0
   -1.2390   26.4330  -29.7030 H   0  0  0  0  0  0  0  0  0  0  0  0
   -0.7376   22.1956  -31.2313 H   0  0  0  0  0  0  0  0  0  0  0  0
   -2.2482   20.2164  -32.6524 H   0  0  0  0  0  0  0  0  0  0  0  0
   -4.5963   19.4023  -33.0547 H   0  0  0  0  0  0  0  0  0  0  0  0
   -6.2494   18.3235  -32.0365 H   0  0  0  0  0  0  0  0  0  0  0  0
   -8.5436   17.4265  -32.3877 H   0  0  0  0  0  0  0  0  0  0  0  0
  -10.4895   18.9780  -32.5013 H   0  0  0  0  0  0  0  0  0  0  0  0
  -10.1446   21.4361  -32.3004 H   0  0  0  0  0  0  0  0  0  0  0  0
   -6.1253   22.4692  -30.3587 H   0  0  0  0  0  0  0  0  0  0  0  0
  1  2  1  0
  2  3  2  0
  2  4  1  0
  4  5  1  0
  5  6  1  0
  6  7  1  0
  6  8  2  0
  5  9  2  0
  9 10  1  0
 10 11  2  0
 11 12  1  0
 12 13  2  0
 13 14  1  0
 14 15  2  0
 15 16  1  0
 16 17  2  0
 17 18  1  0
 18 19  2  0
 19 20  1  0
 20 21  1  0
 20 22  1  0
 20 23  1  0
 13 24  1  0
 24 25  2  0
 25  4  1  0
 25 10  1  0
 19 14  1  0
  1 26  1  0
  1 27  1  0
  1 28  1  0
  7 29  1  0
  9 30  1  0
 11 31  1  0
 12 32  1  0
 15 33  1  0
 16 34  1  0
 17 35  1  0
 18 36  1  0
 24 37  1  0
M  CHG  1   7  -1
M  END
>  <UniqueID>  (22) 
22

>  <SMILES>  (22) 
CC(=O)n1c(C([NH-])=O)cc2ccc(-c3ccccc3C(F)(F)F)cc21

>  <Energy>  (22) 
88.57494785869568

>  <Genealogy>  (22) 
CC(=O)n1c(C([NH-])=O)cc2ccc(-c3ccccc3C(F)(F)F)cc21 (protonated)
CC(=O)n1c(C([NH-])=O)cc2ccc(-c3ccccc3C(F)(F)F)cc21 (3D coordinates assigned)
CC(=O)n1c(C([NH-])=O)cc2ccc(-c3ccccc3C(F)(F)F)cc21 (optimized conformer: 88.57494785869568 kcal/mol)

>  <smiles>  (22) 
CC(=O)n1c(C(N)=O)cc2ccc(-c3ccccc3C(F)(F)F)cc21

>  <score_type>  (22) 
oracle

>  <origin>  (22) 
adg

>  <m_score__min__energy>  (22) 
-10.76

>  <m_primary>  (22) 
energy

$$$$
22:0
     RDKit          3D

 38 39  0  0  0  0  0  0  0  0999 V2000
   -3.4290   19.1290  -33.8490 C   0  0  0  0  0  0  0  0  0  0  0  0
   -4.4910   18.1860  -33.7760 O   0  0  0  0  0  0  0  0  0  0  0  0
   -5.8040   18.5000  -34.1400 C   0  0  0  0  0  0  0  0  0  0  0  0
   -6.0700   18.9130  -35.3010 O   0  0  0  0  0  0  0  0  0  0  0  0
   -6.8920   18.3980  -33.1200 C   0  0  0  0  0  0  0  0  0  0  0  0
   -7.1190   19.7380  -32.4770 C   0  0  0  0  0  0  0  0  0  0  0  0
   -8.4350   20.1870  -32.2030 C   0  0  0  0  0  0  0  0  0  0  0  0
   -8.6560   21.4600  -31.6500 C   0  0  0  0  0  0  0  0  0  0  0  0
   -7.5470   22.2590  -31.3870 C   0  0  0  0  0  0  0  0  0  0  0  0
   -7.4760   23.5470  -30.9070 C   0  0  0  0  0  0  0  0  0  0  0  0
   -6.1180   23.8640  -30.8930 C   0  0  0  0  0  0  0  0  0  0  0  0
   -5.5660   25.1420  -30.3910 C   0  0  0  0  0  0  0  0  0  0  0  0
   -4.2300   25.5390  -30.7090 N   0  0  0  0  0  0  0  0  0  0  0  0
   -6.2810   25.9080  -29.6940 O   0  0  0  0  0  0  0  0  0  0  0  0
   -5.3800   22.8090  -31.3400 N   0  0  0  0  0  0  0  0  0  0  0  0
   -3.9650   22.7680  -31.5770 C   0  0  0  0  0  0  0  0  0  0  0  0
   -3.5200   22.2310  -32.6290 O   0  0  0  0  0  0  0  0  0  0  0  0
   -3.0910   23.3450  -30.6490 O   0  0  0  0  0  0  0  0  0  0  0  0
   -2.4000   22.6050  -29.6410 C   0  0  0  0  0  0  0  0  0  0  0  0
   -2.3260   23.3920  -28.3270 C   0  0  0  0  0  0  0  0  0  0  0  0
   -3.9530   23.7440  -27.6850 Cl  0  0  0  0  0  0  0  0  0  0  0  0
   -1.4110   22.4710  -27.1040 Cl  0  0  0  0  0  0  0  0  0  0  0  0
   -1.4900   24.9400  -28.6100 Cl  0  0  0  0  0  0  0  0  0  0  0  0
   -6.2680   21.8360  -31.6390 C   0  0  0  0  0  0  0  0  0  0  0  0
   -6.0190   20.5790  -32.2000 C   0  0  0  0  0  0  0  0  0  0  0  0
   -3.1154   19.4075  -32.8321 H   0  0  0  0  0  0  0  0  0  0  0  0
   -2.5787   18.6829  -34.3857 H   0  0  0  0  0  0  0  0  0  0  0  0
   -3.7714   20.0261  -34.3857 H   0  0  0  0  0  0  0  0  0  0  0  0
   -7.8200   18.0662  -33.6087 H   0  0  0  0  0  0  0  0  0  0  0  0
   -6.5975   17.6716  -32.3482 H   0  0  0  0  0  0  0  0  0  0  0  0
   -9.2912   19.5332  -32.4252 H   0  0  0  0  0  0  0  0  0  0  0  0
   -9.6743   21.8141  -31.4317 H   0  0  0  0  0  0  0  0  0  0  0  0
   -8.3135   24.1904  -30.5994 H   0  0  0  0  0  0  0  0  0  0  0  0
   -3.5870   24.9110  -31.2400 H   0  0  0  0  0  0  0  0  0  0  0  0
   -3.8630   26.4550  -30.3700 H   0  0  0  0  0  0  0  0  0  0  0  0
   -2.9317   21.6587  -29.4628 H   0  0  0  0  0  0  0  0  0  0  0  0
   -1.3746   22.4143  -29.9907 H   0  0  0  0  0  0  0  0  0  0  0  0
   -4.9915   20.2536  -32.4200 H   0  0  0  0  0  0  0  0  0  0  0  0
  1  2  1  0
  2  3  1  0
  3  4  2  0
  3  5  1  0
  5  6  1  0
  6  7  2  0
  7  8  1  0
  8  9  2  0
  9 10  1  0
 10 11  2  0
 11 12  1  0
 12 13  1  0
 12 14  2  0
 11 15  1  0
 15 16  1  0
 16 17  2  0
 16 18  1  0
 18 19  1  0
 19 20  1  0
 20 21  1  0
 20 22  1  0
 20 23  1  0
 15 24  1  0
 24 25  2  0
 25  6  1  0
 24  9  1  0
  1 26  1  0
  1 27  1  0
  1 28  1  0
  5 29  1  0
  5 30  1  0
  7 31  1  0
  8 32  1  0
 10 33  1  0
 13 34  1  0
 13 35  1  0
 19 36  1  0
 19 37  1  0
 25 38  1  0
M  END
>  <UniqueID>  (23) 
23

>  <SMILES>  (23) 
COC(=O)Cc1ccc2cc(C(N)=O)n(C(=O)OCC(Cl)(Cl)Cl)c2c1

>  <Energy>  (23) 
69.49640984491958

>  <Genealogy>  (23) 
COC(=O)Cc1ccc2cc(C(N)=O)n(C(=O)OCC(Cl)(Cl)Cl)c2c1 (3D coordinates assigned)
COC(=O)Cc1ccc2cc(C(N)=O)n(C(=O)OCC(Cl)(Cl)Cl)c2c1 (optimized conformer: 69.49640984491958 kcal/mol)

>  <smiles>  (23) 
COC(=O)Cc1ccc2cc(C(N)=O)n(C(=O)OCC(Cl)(Cl)Cl)c2c1

>  <score_type>  (23) 
oracle

>  <origin>  (23) 
adg

>  <m_score__min__energy>  (23) 
-8.8900000000000006

>  <m_primary>  (23) 
energy

$$$$
23:0
     RDKit          3D

 34 36  0  0  0  0  0  0  0  0999 V2000
   -1.6780   25.6630  -29.0140 N   0  0  0  0  0  0  0  0  0  0  0  0
   -1.4430   24.2630  -28.8810 C   0  0  0  0  0  0  0  0  0  0  0  0
   -0.8580   23.8310  -27.8520 O   0  0  0  0  0  0  0  0  0  0  0  0
   -1.9280   23.3100  -29.9010 C   0  0  0  0  0  0  0  0  0  0  0  0
   -1.1990   22.1990  -30.3180 C   0  0  0  0  0  0  0  0  0  0  0  0
   -2.0240   21.5270  -31.1900 C   0  0  0  0  0  0  0  0  0  0  0  0
   -1.8030   20.3530  -31.9050 C   0  0  0  0  0  0  0  0  0  0  0  0
   -2.8260   19.8980  -32.7530 C   0  0  0  0  0  0  0  0  0  0  0  0
   -4.0370   20.6260  -32.8820 C   0  0  0  0  0  0  0  0  0  0  0  0
   -5.1360   20.1160  -33.7720 C   0  0  0  0  0  0  0  0  0  0  0  0
   -6.3650   19.8040  -32.9580 C   0  0  0  0  0  0  0  0  0  0  0  0
   -6.6940   18.4680  -32.6720 C   0  0  0  0  0  0  0  0  0  0  0  0
   -7.8510   18.1640  -31.9500 C   0  0  0  0  0  0  0  0  0  0  0  0
   -8.6930   19.1890  -31.5130 C   0  0  0  0  0  0  0  0  0  0  0  0
   -8.3830   20.5220  -31.8000 C   0  0  0  0  0  0  0  0  0  0  0  0
   -9.4550   21.8000  -31.2530 Cl  0  0  0  0  0  0  0  0  0  0  0  0
   -7.2230   20.8330  -32.5250 C   0  0  0  0  0  0  0  0  0  0  0  0
   -6.9350   22.1300  -32.8050 F   0  0  0  0  0  0  0  0  0  0  0  0
   -4.2250   21.8100  -32.1350 C   0  0  0  0  0  0  0  0  0  0  0  0
   -3.1970   22.2290  -31.2830 C   0  0  0  0  0  0  0  0  0  0  0  0
   -3.1540   23.3300  -30.4980 N   0  0  0  0  0  0  0  0  0  0  0  0
   -4.1600   24.3520  -30.4040 C   0  0  0  0  0  0  0  0  0  0  0  0
   -5.3250   24.0640  -30.0240 O   0  0  0  0  0  0  0  0  0  0  0  0
   -3.8640   25.6620  -30.7590 O   0  0  0  0  0  0  0  0  0  0  0  0
   -2.6460   26.0510  -28.9750 H   0  0  0  0  0  0  0  0  0  0  0  0
   -0.1796   21.9183  -30.0145 H   0  0  0  0  0  0  0  0  0  0  0  0
   -0.8573   19.7994  -31.8088 H   0  0  0  0  0  0  0  0  0  0  0  0
   -2.6869   18.9676  -33.3231 H   0  0  0  0  0  0  0  0  0  0  0  0
   -5.3819   20.8831  -34.5211 H   0  0  0  0  0  0  0  0  0  0  0  0
   -4.7948   19.1974  -34.2717 H   0  0  0  0  0  0  0  0  0  0  0  0
   -6.0368   17.6568  -33.0186 H   0  0  0  0  0  0  0  0  0  0  0  0
   -8.0990   17.1161  -31.7255 H   0  0  0  0  0  0  0  0  0  0  0  0
   -9.6016   18.9473  -30.9420 H   0  0  0  0  0  0  0  0  0  0  0  0
   -5.1566   22.3885  -32.2209 H   0  0  0  0  0  0  0  0  0  0  0  0
  1  2  1  0
  2  3  2  0
  2  4  1  0
  4  5  2  0
  5  6  1  0
  6  7  2  0
  7  8  1  0
  8  9  2  0
  9 10  1  0
 10 11  1  0
 11 12  2  0
 12 13  1  0
 13 14  2  0
 14 15  1  0
 15 16  1  0
 15 17  2  0
 17 18  1  0
  9 19  1  0
 19 20  2  0
 20 21  1  0
 21 22  1  0
 22 23  2  0
 22 24  1  0
 21  4  1  0
 20  6  1  0
 17 11  1  0
  1 25  1  0
  5 26  1  0
  7 27  1  0
  8 28  1  0
 10 29  1  0
 10 30  1  0
 12 31  1  0
 13 32  1  0
 14 33  1  0
 19 34  1  0
M  CHG  2   1  -1  24  -1
M  END
>  <UniqueID>  (24) 
24

>  <SMILES>  (24) 
[NH-]C(=O)c1cc2ccc(Cc3cccc(Cl)c3F)cc2n1C(=O)[O-]

>  <Energy>  (24) 
75.85096369691256

>  <Genealogy>  (24) 
[NH-]C(=O)c1cc2ccc(Cc3cccc(Cl)c3F)cc2n1C(=O)[O-] (protonated)
[NH-]C(=O)c1cc2ccc(Cc3cccc(Cl)c3F)cc2n1C(=O)[O-] (3D coordinates assigned)
[NH-]C(=O)c1cc2ccc(Cc3cccc(Cl)c3F)cc2n1C(=O)[O-] (optimized conformer: 75.85096369691256 kcal/mol)

>  <smiles>  (24) 
NC(=O)c1cc2ccc(Cc3cccc(Cl)c3F)cc2n1C(=O)O

>  <score_type>  (24) 
oracle

>  <origin>  (24) 
adg

>  <m_score__min__energy>  (24) 
-12.94

>  <m_primary>  (24) 
energy

$$$$
24:0
     RDKit          3D

 51 52  0  0  0  0  0  0  0  0999 V2000
   -5.4360   25.6800  -30.8190 C   0  0  0  0  0  0  0  0  0  0  0  0
   -4.0850   25.2800  -30.6270 O   0  0  0  0  0  0  0  0  0  0  0  0
   -3.7250   24.2190  -29.7890 C   0  0  0  0  0  0  0  0  0  0  0  0
   -4.4170   23.9530  -28.7680 O   0  0  0  0  0  0  0  0  0  0  0  0
   -2.5560   23.4380  -30.0890 N   0  0  0  0  0  0  0  0  0  0  0  0
   -1.3290   23.5270  -29.5040 C   0  0  0  0  0  0  0  0  0  0  0  0
   -0.9110   24.5670  -28.5360 C   0  0  0  0  0  0  0  0  0  0  0  0
   -1.8770   25.4240  -27.9250 N   0  0  0  0  0  0  0  0  0  0  0  0
    0.3020   24.6830  -28.2190 O   0  0  0  0  0  0  0  0  0  0  0  0
   -0.4730   22.5520  -30.0120 C   0  0  0  0  0  0  0  0  0  0  0  0
   -1.2190   21.8570  -30.9350 C   0  0  0  0  0  0  0  0  0  0  0  0
   -0.8690   20.7740  -31.7350 C   0  0  0  0  0  0  0  0  0  0  0  0
   -1.8510   20.2350  -32.5820 C   0  0  0  0  0  0  0  0  0  0  0  0
   -3.1640   20.7770  -32.6100 C   0  0  0  0  0  0  0  0  0  0  0  0
   -4.1910   20.2300  -33.4590 N   0  0  0  0  0  0  0  0  0  0  0  0
   -5.6210   20.4710  -33.2460 C   0  0  0  0  0  0  0  0  0  0  0  0
   -6.4810   19.3960  -33.9420 C   0  0  2  0  0  0  0  0  0  0  0  0
   -7.2740   18.5170  -32.9310 C   0  0  0  0  0  0  0  0  0  0  0  0
   -8.6230   18.9910  -32.5370 N   0  0  0  0  0  0  0  0  0  0  0  0
   -8.8240   20.4400  -32.6620 C   0  0  0  0  0  0  0  0  0  0  0  0
   -9.0970   18.4750  -31.2420 C   0  0  0  0  0  0  0  0  0  0  0  0
   -5.6620   18.5970  -34.7990 O   0  0  0  0  0  0  0  0  0  0  0  0
   -5.3630   17.2460  -34.5770 C   0  0  0  0  0  0  0  0  0  0  0  0
   -6.2700   16.3700  -34.5910 O   0  0  0  0  0  0  0  0  0  0  0  0
   -3.9460   16.8300  -34.3470 C   0  0  0  0  0  0  0  0  0  0  0  0
   -3.1010   17.8970  -34.5930 F   0  0  0  0  0  0  0  0  0  0  0  0
   -3.7960   16.4210  -33.0350 F   0  0  0  0  0  0  0  0  0  0  0  0
   -3.6120   15.7850  -35.1880 F   0  0  0  0  0  0  0  0  0  0  0  0
   -3.4770   21.8780  -31.7810 C   0  0  0  0  0  0  0  0  0  0  0  0
   -2.4730   22.4090  -30.9630 C   0  0  0  0  0  0  0  0  0  0  0  0
   -5.9186   25.8229  -29.8409 H   0  0  0  0  0  0  0  0  0  0  0  0
   -5.4622   26.6245  -31.3823 H   0  0  0  0  0  0  0  0  0  0  0  0
   -5.9722   24.9021  -31.3823 H   0  0  0  0  0  0  0  0  0  0  0  0
   -2.8820   25.3890  -28.1990 H   0  0  0  0  0  0  0  0  0  0  0  0
   -1.5760   26.1300  -27.2170 H   0  0  0  0  0  0  0  0  0  0  0  0
    0.5765   22.3756  -29.7339 H   0  0  0  0  0  0  0  0  0  0  0  0
    0.1466   20.3525  -31.7050 H   0  0  0  0  0  0  0  0  0  0  0  0
   -1.6006   19.3832  -33.2314 H   0  0  0  0  0  0  0  0  0  0  0  0
   -3.8910   19.6260  -34.2570 H   0  0  0  0  0  0  0  0  0  0  0  0
   -5.8303   20.4534  -32.1662 H   0  0  0  0  0  0  0  0  0  0  0  0
   -5.8755   21.4509  -33.6761 H   0  0  0  0  0  0  0  0  0  0  0  0
   -7.2359   19.9147  -34.5512 H   0  0  0  0  0  0  0  0  0  0  0  0
   -7.3912   17.5196  -33.3798 H   0  0  0  0  0  0  0  0  0  0  0  0
   -6.6812   18.5434  -32.0048 H   0  0  0  0  0  0  0  0  0  0  0  0
   -8.8863   20.8893  -31.6599 H   0  0  0  0  0  0  0  0  0  0  0  0
   -7.9785   20.8815  -33.2099 H   0  0  0  0  0  0  0  0  0  0  0  0
   -9.7578   20.6347  -33.2099 H   0  0  0  0  0  0  0  0  0  0  0  0
   -8.5980   19.0182  -30.4260 H   0  0  0  0  0  0  0  0  0  0  0  0
  -10.1850   18.6182  -31.1663 H   0  0  0  0  0  0  0  0  0  0  0  0
   -8.8621   17.4030  -31.1663 H   0  0  0  0  0  0  0  0  0  0  0  0
   -4.4891   22.3089  -31.7787 H   0  0  0  0  0  0  0  0  0  0  0  0
  1  2  1  0
  2  3  1  0
  3  4  2  0
  3  5  1  0
  5  6  1  0
  6  7  1  0
  7  8  1  0
  7  9  2  0
  6 10  2  0
 10 11  1  0
 11 12  2  0
 12 13  1  0
 13 14  2  0
 14 15  1  0
 15 16  1  0
 16 17  1  0
 17 18  1  0
 18 19  1  0
 19 20  1  0
 19 21  1  0
 17 22  1  0
 22 23  1  0
 23 24  2  0
 23 25  1  0
 25 26  1  0
 25 27  1  0
 25 28  1  0
 14 29  1  0
 29 30  2  0
 30  5  1  0
 30 11  1  0
  1 31  1  0
  1 32  1  0
  1 33  1  0
  8 34  1  0
  8 35  1  0
 10 36  1  0
 12 37  1  0
 13 38  1  0
 15 39  1  0
 16 40  1  0
 16 41  1  0
 17 42  1  6
 18 43  1  0
 18 44  1  0
 20 45  1  0
 20 46  1  0
 20 47  1  0
 21 48  1  0
 21 49  1  0
 21 50  1  0
 29 51  1  0
M  END
>  <UniqueID>  (25) 
25

>  <SMILES>  (25) 
COC(=O)n1c(C(N)=O)cc2ccc(NC[C@H](CN(C)C)OC(=O)C(F)(F)F)cc21

>  <Energy>  (25) 
91.98389238779744

>  <Genealogy>  (25) 
COC(=O)n1c(C(N)=O)cc2ccc(NC[C@H](CN(C)C)OC(=O)C(F)(F)F)cc21 (3D coordinates assigned)
COC(=O)n1c(C(N)=O)cc2ccc(NC[C@H](CN(C)C)OC(=O)C(F)(F)F)cc21 (optimized conformer: 91.98389238779744 kcal/mol)

>  <smiles>  (25) 
COC(=O)n1c(C(N)=O)cc2ccc(NC[C@H](CN(C)C)OC(=O)C(F)(F)F)cc21

>  <score_type>  (25) 
oracle

>  <origin>  (25) 
adg

>  <m_score__min__energy>  (25) 
-7.8200000000000003

>  <m_primary>  (25) 
energy

$$$$
25:0
     RDKit          3D

 50 52  0  0  0  0  0  0  0  0999 V2000
   -3.6080   18.0810  -34.3720 C   0  0  0  0  0  0  0  0  0  0  0  0
   -4.7750   18.2650  -33.4970 N   0  0  0  0  0  0  0  0  0  0  0  0
   -6.0290   18.2340  -34.2860 C   0  0  0  0  0  0  0  0  0  0  0  0
   -7.2740   17.8890  -33.4400 C   0  0  0  0  0  0  0  0  0  0  0  0
   -7.1110   18.2600  -31.9540 C   0  0  0  0  0  0  0  0  0  0  0  0
   -7.2440   19.7650  -31.7490 C   0  0  0  0  0  0  0  0  0  0  0  0
   -8.5020   20.4300  -31.7830 C   0  0  0  0  0  0  0  0  0  0  0  0
   -8.5960   21.8090  -31.5330 C   0  0  0  0  0  0  0  0  0  0  0  0
   -7.4240   22.5030  -31.2500 C   0  0  0  0  0  0  0  0  0  0  0  0
   -7.2360   23.8300  -30.9390 C   0  0  0  0  0  0  0  0  0  0  0  0
   -5.8660   23.9680  -30.7270 C   0  0  0  0  0  0  0  0  0  0  0  0
   -5.2130   25.2570  -30.4110 C   0  0  0  0  0  0  0  0  0  0  0  0
   -3.8820   25.5320  -30.8430 N   0  0  0  0  0  0  0  0  0  0  0  0
   -5.8520   26.1410  -29.7810 O   0  0  0  0  0  0  0  0  0  0  0  0
   -5.2330   22.7720  -30.9000 N   0  0  0  0  0  0  0  0  0  0  0  0
   -3.8410   22.4820  -30.6920 C   0  0  0  0  0  0  0  0  0  0  0  0
   -2.9900   22.8850  -31.5310 O   0  0  0  0  0  0  0  0  0  0  0  0
   -3.4010   21.6350  -29.5320 C   0  0  0  0  0  0  0  0  0  0  0  0
   -2.1590   22.2200  -28.8460 C   0  0  0  0  0  0  0  0  0  0  0  0
   -2.4120   23.6610  -28.3930 C   0  0  0  0  0  0  0  0  0  0  0  0
   -1.2820   24.5470  -28.8140 C   0  0  0  0  0  0  0  0  0  0  0  0
   -1.5170   25.6740  -29.3260 O   0  0  0  0  0  0  0  0  0  0  0  0
    0.0310   24.1520  -28.5930 O   0  0  0  0  0  0  0  0  0  0  0  0
   -6.2030   21.8850  -31.2170 C   0  0  0  0  0  0  0  0  0  0  0  0
   -6.0820   20.5110  -31.4400 C   0  0  0  0  0  0  0  0  0  0  0  0
   -5.8220   17.6410  -31.3490 C   0  0  0  0  0  0  0  0  0  0  0  0
   -4.7770   17.2660  -32.4140 C   0  0  0  0  0  0  0  0  0  0  0  0
   -2.7072   17.9390  -33.7568 H   0  0  0  0  0  0  0  0  0  0  0  0
   -3.7617   17.1960  -35.0069 H   0  0  0  0  0  0  0  0  0  0  0  0
   -3.4819   18.9704  -35.0069 H   0  0  0  0  0  0  0  0  0  0  0  0
   -6.1796   19.2239  -34.7414 H   0  0  0  0  0  0  0  0  0  0  0  0
   -5.9190   17.4426  -35.0420 H   0  0  0  0  0  0  0  0  0  0  0  0
   -8.1370   18.4372  -33.8459 H   0  0  0  0  0  0  0  0  0  0  0  0
   -7.4183   16.7998  -33.4942 H   0  0  0  0  0  0  0  0  0  0  0  0
   -7.9364   17.8098  -31.3831 H   0  0  0  0  0  0  0  0  0  0  0  0
   -9.4130   19.8562  -32.0081 H   0  0  0  0  0  0  0  0  0  0  0  0
   -9.5672   22.3247  -31.5602 H   0  0  0  0  0  0  0  0  0  0  0  0
   -8.0039   24.6148  -30.8720 H   0  0  0  0  0  0  0  0  0  0  0  0
   -3.0940   24.8950  -30.5900 H   0  0  0  0  0  0  0  0  0  0  0  0
   -4.2201   21.5785  -28.8000 H   0  0  0  0  0  0  0  0  0  0  0  0
   -3.1456   20.6351  -29.9127 H   0  0  0  0  0  0  0  0  0  0  0  0
   -1.9092   21.6054  -27.9686 H   0  0  0  0  0  0  0  0  0  0  0  0
   -1.3270   22.2190  -29.5656 H   0  0  0  0  0  0  0  0  0  0  0  0
   -3.3459   24.0247  -28.8465 H   0  0  0  0  0  0  0  0  0  0  0  0
   -2.4911   23.6811  -27.2960 H   0  0  0  0  0  0  0  0  0  0  0  0
   -5.1008   20.0179  -31.3765 H   0  0  0  0  0  0  0  0  0  0  0  0
   -5.3731   18.3710  -30.6594 H   0  0  0  0  0  0  0  0  0  0  0  0
   -6.1133   16.7139  -30.8336 H   0  0  0  0  0  0  0  0  0  0  0  0
   -3.7806   17.2315  -31.9493 H   0  0  0  0  0  0  0  0  0  0  0  0
   -5.0292   16.2811  -32.8339 H   0  0  0  0  0  0  0  0  0  0  0  0
  1  2  1  0
  2  3  1  0
  3  4  1  0
  4  5  1  0
  5  6  1  0
  6  7  2  0
  7  8  1  0
  8  9  2  0
  9 10  1  0
 10 11  2  0
 11 12  1  0
 12 13  1  0
 12 14  2  0
 11 15  1  0
 15 16  1  0
 16 17  2  0
 16 18  1  0
 18 19  1  0
 19 20  1  0
 20 21  1  0
 21 22  2  0
 21 23  1  0
 15 24  1  0
 24 25  2  0
  5 26  1  0
 26 27  1  0
 27  2  1  0
 25  6  1  0
 24  9  1  0
  1 28  1  0
  1 29  1  0
  1 30  1  0
  3 31  1  0
  3 32  1  0
  4 33  1  0
  4 34  1  0
  5 35  1  0
  7 36  1  0
  8 37  1  0
 10 38  1  0
 13 39  1  0
 18 40  1  0
 18 41  1  0
 19 42  1  0
 19 43  1  0
 20 44  1  0
 20 45  1  0
 25 46  1  0
 26 47  1  0
 26 48  1  0
 27 49  1  0
 27 50  1  0
M  CHG  2  13  -1  23  -1
M  END
>  <UniqueID>  (26) 
26

>  <SMILES>  (26) 
CN1CCC(c2ccc3cc(C([NH-])=O)n(C(=O)CCCC(=O)[O-])c3c2)CC1

>  <Energy>  (26) 
93.33067557072704

>  <Genealogy>  (26) 
CN1CCC(c2ccc3cc(C([NH-])=O)n(C(=O)CCCC(=O)[O-])c3c2)CC1 (protonated)
CN1CCC(c2ccc3cc(C([NH-])=O)n(C(=O)CCCC(=O)[O-])c3c2)CC1 (3D coordinates assigned)
CN1CCC(c2ccc3cc(C([NH-])=O)n(C(=O)CCCC(=O)[O-])c3c2)CC1 (nonaromatic ring conformer: 93.33067557072704 kcal/mol)

>  <smiles>  (26) 
CN1CCC(c2ccc3cc(C(N)=O)n(C(=O)CCCC(=O)O)c3c2)CC1

>  <score_type>  (26) 
oracle

>  <origin>  (26) 
adg

>  <m_score__min__energy>  (26) 
-14.43

>  <m_primary>  (26) 
energy

$$$$
26:0
     RDKit          3D

 29 30  0  0  0  0  0  0  0  0999 V2000
   -3.0550   20.9800  -33.3460 C   0  0  0  0  0  0  0  0  0  0  0  0
   -3.5790   22.2700  -33.0570 O   0  0  0  0  0  0  0  0  0  0  0  0
   -3.9480   22.6630  -31.7670 C   0  0  0  0  0  0  0  0  0  0  0  0
   -3.0710   22.8010  -30.8700 O   0  0  0  0  0  0  0  0  0  0  0  0
   -5.3260   22.9320  -31.4690 N   0  0  0  0  0  0  0  0  0  0  0  0
   -5.8490   24.0440  -30.8770 C   0  0  0  0  0  0  0  0  0  0  0  0
   -5.1160   25.2920  -30.5770 C   0  0  0  0  0  0  0  0  0  0  0  0
   -3.6990   25.2930  -30.4310 N   0  0  0  0  0  0  0  0  0  0  0  0
   -5.7450   26.3810  -30.5010 O   0  0  0  0  0  0  0  0  0  0  0  0
   -7.2150   23.8860  -30.6570 C   0  0  0  0  0  0  0  0  0  0  0  0
   -7.5200   22.6350  -31.1440 C   0  0  0  0  0  0  0  0  0  0  0  0
   -8.7350   21.9560  -31.1660 C   0  0  0  0  0  0  0  0  0  0  0  0
   -8.7530   20.6570  -31.6990 C   0  0  0  0  0  0  0  0  0  0  0  0
   -7.5660   20.0640  -32.1980 C   0  0  0  0  0  0  0  0  0  0  0  0
   -7.5910   18.6580  -32.7260 C   0  0  0  0  0  0  0  0  0  0  0  0
   -6.4660   18.4470  -33.6420 C   0  0  0  0  0  0  0  0  0  0  0  0
   -5.5790   18.2810  -34.3660 N   0  0  0  0  0  0  0  0  0  0  0  0
   -6.3490   20.7810  -32.1490 C   0  0  0  0  0  0  0  0  0  0  0  0
   -6.3640   22.0800  -31.6280 C   0  0  0  0  0  0  0  0  0  0  0  0
   -2.8406   20.4521  -32.4051 H   0  0  0  0  0  0  0  0  0  0  0  0
   -3.7917   20.4070  -33.9282 H   0  0  0  0  0  0  0  0  0  0  0  0
   -2.1274   21.0830  -33.9282 H   0  0  0  0  0  0  0  0  0  0  0  0
   -3.0800   24.9330  -31.1910 H   0  0  0  0  0  0  0  0  0  0  0  0
   -7.9037   24.6073  -30.1929 H   0  0  0  0  0  0  0  0  0  0  0  0
   -9.6525   22.4225  -30.7779 H   0  0  0  0  0  0  0  0  0  0  0  0
   -9.6975   20.0940  -31.7296 H   0  0  0  0  0  0  0  0  0  0  0  0
   -7.5144   17.9519  -31.8860 H   0  0  0  0  0  0  0  0  0  0  0  0
   -8.5340   18.4921  -33.2676 H   0  0  0  0  0  0  0  0  0  0  0  0
   -5.4136   20.3295  -32.5112 H   0  0  0  0  0  0  0  0  0  0  0  0
  1  2  1  0
  2  3  1  0
  3  4  2  0
  3  5  1  0
  5  6  1  0
  6  7  1  0
  7  8  1  0
  7  9  2  0
  6 10  2  0
 10 11  1  0
 11 12  2  0
 12 13  1  0
 13 14  2  0
 14 15  1  0
 15 16  1  0
 16 17  3  0
 14 18  1  0
 18 19  2  0
 19  5  1  0
 19 11  1  0
  1 20  1  0
  1 21  1  0
  1 22  1  0
  8 23  1  0
 10 24  1  0
 12 25  1  0
 13 26  1  0
 15 27  1  0
 15 28  1  0
 18 29  1  0
M  CHG  1   8  -1
M  END
>  <UniqueID>  (27) 
27

>  <SMILES>  (27) 
COC(=O)n1c(C([NH-])=O)cc2ccc(CC#N)cc21

>  <Energy>  (27) 
64.6818142378425

>  <Genealogy>  (27) 
COC(=O)n1c(C([NH-])=O)cc2ccc(CC#N)cc21 (protonated)
COC(=O)n1c(C([NH-])=O)cc2ccc(CC#N)cc21 (3D coordinates assigned)
COC(=O)n1c(C([NH-])=O)cc2ccc(CC#N)cc21 (optimized conformer: 64.6818142378425 kcal/mol)

>  <smiles>  (27) 
COC(=O)n1c(C(N)=O)cc2ccc(CC#N)cc21

>  <score_type>  (27) 
oracle

>  <origin>  (27) 
adg

>  <m_score__min__energy>  (27) 
-9.5800000000000001

>  <m_primary>  (27) 
energy

$$$$
27:0
     RDKit          3D

 38 41  0  0  0  0  0  0  0  0999 V2000
   -7.6440   18.2110  -32.0910 C   0  0  0  0  0  0  0  0  0  0  0  0
   -6.6380   17.9500  -33.1150 N   0  0  0  0  0  0  0  0  0  0  0  0
   -6.8290   17.1930  -34.1900 N   0  0  0  0  0  0  0  0  0  0  0  0
   -5.6910   17.1590  -34.9220 C   0  0  0  0  0  0  0  0  0  0  0  0
   -4.7520   17.9310  -34.2670 C   0  0  0  0  0  0  0  0  0  0  0  0
   -3.4310   18.2380  -34.5680 C   0  0  0  0  0  0  0  0  0  0  0  0
   -2.7330   19.0690  -33.6710 C   0  0  0  0  0  0  0  0  0  0  0  0
   -3.3650   19.5730  -32.5000 C   0  0  0  0  0  0  0  0  0  0  0  0
   -2.6160   20.4490  -31.5630 C   0  0  0  0  0  0  0  0  0  0  0  0
   -1.3780   20.0200  -31.0160 C   0  0  0  0  0  0  0  0  0  0  0  0
   -0.6690   20.8350  -30.1180 C   0  0  0  0  0  0  0  0  0  0  0  0
   -1.2120   22.0730  -29.7910 C   0  0  0  0  0  0  0  0  0  0  0  0
   -0.7480   23.0420  -28.9320 C   0  0  0  0  0  0  0  0  0  0  0  0
   -1.6930   24.0630  -28.9810 C   0  0  0  0  0  0  0  0  0  0  0  0
   -1.5400   25.3470  -28.2640 C   0  0  0  0  0  0  0  0  0  0  0  0
   -1.1720   26.5360  -28.9580 N   0  0  0  0  0  0  0  0  0  0  0  0
   -1.6890   25.3830  -27.0140 O   0  0  0  0  0  0  0  0  0  0  0  0
   -2.7070   23.7350  -29.8310 N   0  0  0  0  0  0  0  0  0  0  0  0
   -3.9120   24.4740  -30.0960 C   0  0  0  0  0  0  0  0  0  0  0  0
   -5.0210   24.0540  -29.6710 O   0  0  0  0  0  0  0  0  0  0  0  0
   -3.8680   25.6430  -30.8430 O   0  0  0  0  0  0  0  0  0  0  0  0
   -2.3950   22.5140  -30.3200 C   0  0  0  0  0  0  0  0  0  0  0  0
   -3.1340   21.7160  -31.2020 C   0  0  0  0  0  0  0  0  0  0  0  0
   -4.7140   19.2330  -32.2350 C   0  0  0  0  0  0  0  0  0  0  0  0
   -5.3730   18.4090  -33.1470 C   0  0  0  0  0  0  0  0  0  0  0  0
   -7.1923   18.0938  -31.0949 H   0  0  0  0  0  0  0  0  0  0  0  0
   -8.0235   19.2374  -32.2030 H   0  0  0  0  0  0  0  0  0  0  0  0
   -8.4746   17.4986  -32.2030 H   0  0  0  0  0  0  0  0  0  0  0  0
   -7.7210   16.7020  -34.4240 H   0  0  0  0  0  0  0  0  0  0  0  0
   -5.5414   16.6154  -35.8665 H   0  0  0  0  0  0  0  0  0  0  0  0
   -2.9475   17.8458  -35.4749 H   0  0  0  0  0  0  0  0  0  0  0  0
   -1.6852   19.3321  -33.8782 H   0  0  0  0  0  0  0  0  0  0  0  0
   -0.9695   19.0385  -31.2985 H   0  0  0  0  0  0  0  0  0  0  0  0
    0.2871   20.5040  -29.6863 H   0  0  0  0  0  0  0  0  0  0  0  0
    0.1744   23.0157  -28.3332 H   0  0  0  0  0  0  0  0  0  0  0  0
   -0.8650   26.5030  -29.9550 H   0  0  0  0  0  0  0  0  0  0  0  0
   -4.0957   22.0659  -31.6054 H   0  0  0  0  0  0  0  0  0  0  0  0
   -5.2267   19.6076  -31.3368 H   0  0  0  0  0  0  0  0  0  0  0  0
  1  2  1  0
  2  3  1  0
  3  4  2  0
  4  5  1  0
  5  6  2  0
  6  7  1  0
  7  8  2  0
  8  9  1  0
  9 10  2  0
 10 11  1  0
 11 12  2  0
 12 13  1  0
 13 14  2  0
 14 15  1  0
 15 16  1  0
 15 17  2  0
 14 18  1  0
 18 19  1  0
 19 20  2  0
 19 21  1  0
 18 22  1  0
 22 23  2  0
  8 24  1  0
 24 25  2  0
 25  2  1  0
 25  5  1  0
 23  9  1  0
 22 12  1  0
  1 26  1  0
  1 27  1  0
  1 28  1  0
  3 29  1  0
  4 30  1  0
  6 31  1  0
  7 32  1  0
 10 33  1  0
 11 34  1  0
 13 35  1  0
 16 36  1  0
 23 37  1  0
 24 38  1  0
M  CHG  3   3   1  16  -1  21  -1
M  END
>  <UniqueID>  (28) 
28

>  <SMILES>  (28) 
Cn1[nH+]cc2ccc(-c3ccc4cc(C([NH-])=O)n(C(=O)[O-])c4c3)cc21

>  <Energy>  (28) 
126.23407638511208

>  <Genealogy>  (28) 
Cn1[nH+]cc2ccc(-c3ccc4cc(C([NH-])=O)n(C(=O)[O-])c4c3)cc21 (protonated)
Cn1[nH+]cc2ccc(-c3ccc4cc(C([NH-])=O)n(C(=O)[O-])c4c3)cc21 (3D coordinates assigned)
Cn1[nH+]cc2ccc(-c3ccc4cc(C([NH-])=O)n(C(=O)[O-])c4c3)cc21 (optimized conformer: 126.23407638511208 kcal/mol)

>  <smiles>  (28) 
Cn1ncc2ccc(-c3ccc4cc(C(N)=O)n(C(=O)O)c4c3)cc21

>  <score_type>  (28) 
oracle

>  <origin>  (28) 
adg

>  <m_score__min__energy>  (28) 
-10.960000000000001

>  <m_primary>  (28) 
energy

$$$$
28:0
     RDKit          3D

 41 43  0  0  0  0  0  0  0  0999 V2000
   -8.1760   20.2590  -31.9670 C   0  0  0  0  0  0  0  0  0  0  0  0
   -7.8580   19.3790  -33.0990 N   0  0  0  0  0  0  0  0  0  0  0  0
   -6.4400   19.4090  -33.5170 C   0  0  2  0  0  0  0  0  0  0  0  0
   -6.1190   18.2760  -34.5230 C   0  0  0  0  0  0  0  0  0  0  0  0
   -4.6770   17.7530  -34.4110 C   0  0  0  0  0  0  0  0  0  0  0  0
   -3.6860   18.8740  -34.0740 C   0  0  0  0  0  0  0  0  0  0  0  0
   -4.0710   19.5740  -32.8360 N   0  0  0  0  0  0  0  0  0  0  0  0
   -3.0760   20.3010  -32.0820 C   0  0  0  0  0  0  0  0  0  0  0  0
   -1.7730   19.7640  -31.9090 C   0  0  0  0  0  0  0  0  0  0  0  0
   -0.8020   20.4550  -31.1650 C   0  0  0  0  0  0  0  0  0  0  0  0
   -1.1550   21.6790  -30.6100 C   0  0  0  0  0  0  0  0  0  0  0  0
   -0.4200   22.5400  -29.8260 C   0  0  0  0  0  0  0  0  0  0  0  0
   -1.2740   23.6040  -29.5440 C   0  0  0  0  0  0  0  0  0  0  0  0
   -0.8550   24.8030  -28.7890 C   0  0  0  0  0  0  0  0  0  0  0  0
   -1.5670   26.0280  -28.9510 N   0  0  0  0  0  0  0  0  0  0  0  0
    0.1030   24.7510  -27.9750 O   0  0  0  0  0  0  0  0  0  0  0  0
   -2.4930   23.4050  -30.1240 N   0  0  0  0  0  0  0  0  0  0  0  0
   -3.6630   24.2330  -30.0260 C   0  0  0  0  0  0  0  0  0  0  0  0
   -3.7390   25.3080  -30.6780 O   0  0  0  0  0  0  0  0  0  0  0  0
   -4.7120   23.8710  -29.1900 O   0  0  0  0  0  0  0  0  0  0  0  0
   -2.4010   22.2250  -30.7750 C   0  0  0  0  0  0  0  0  0  0  0  0
   -3.3940   21.5500  -31.4960 C   0  0  0  0  0  0  0  0  0  0  0  0
   -5.4490   19.4580  -32.3320 C   0  0  0  0  0  0  0  0  0  0  0  0
   -7.9837   19.7269  -31.0236 H   0  0  0  0  0  0  0  0  0  0  0  0
   -7.5465   21.1598  -32.0148 H   0  0  0  0  0  0  0  0  0  0  0  0
   -9.2359   20.5494  -32.0148 H   0  0  0  0  0  0  0  0  0  0  0  0
   -8.4500   19.6760  -33.9100 H   0  0  0  0  0  0  0  0  0  0  0  0
   -6.2937   20.3621  -34.0463 H   0  0  0  0  0  0  0  0  0  0  0  0
   -6.8090   17.4395  -34.3385 H   0  0  0  0  0  0  0  0  0  0  0  0
   -6.2359   18.6949  -35.5334 H   0  0  0  0  0  0  0  0  0  0  0  0
   -4.6355   16.9916  -33.6182 H   0  0  0  0  0  0  0  0  0  0  0  0
   -4.3922   17.3279  -35.3847 H   0  0  0  0  0  0  0  0  0  0  0  0
   -2.6841   18.4393  -33.9432 H   0  0  0  0  0  0  0  0  0  0  0  0
   -3.6898   19.6009  -34.8996 H   0  0  0  0  0  0  0  0  0  0  0  0
   -1.5206   18.7945  -32.3633 H   0  0  0  0  0  0  0  0  0  0  0  0
    0.2071   20.0397  -31.0261 H   0  0  0  0  0  0  0  0  0  0  0  0
    0.6208   22.4143  -29.4930 H   0  0  0  0  0  0  0  0  0  0  0  0
   -2.6110   26.0430  -28.9750 H   0  0  0  0  0  0  0  0  0  0  0  0
   -4.4001   21.9813  -31.6047 H   0  0  0  0  0  0  0  0  0  0  0  0
   -5.5440   18.5366  -31.7387 H   0  0  0  0  0  0  0  0  0  0  0  0
   -5.6793   20.3306  -31.7031 H   0  0  0  0  0  0  0  0  0  0  0  0
  1  2  1  0
  2  3  1  0
  3  4  1  0
  4  5  1  0
  5  6  1  0
  6  7  1  0
  7  8  1  0
  8  9  2  0
  9 10  1  0
 10 11  2  0
 11 12  1  0
 12 13  2  0
 13 14  1  0
 14 15  1  0
 14 16  2  0
 13 17  1  0
 17 18  1  0
 18 19  2  0
 18 20  1  0
 17 21  1  0
 21 22  2  0
  7 23  1  0
 23  3  1  0
 22  8  1  0
 21 11  1  0
  1 24  1  0
  1 25  1  0
  1 26  1  0
  2 27  1  0
  3 28  1  6
  4 29  1  0
  4 30  1  0
  5 31  1  0
  5 32  1  0
  6 33  1  0
  6 34  1  0
  9 35  1  0
 10 36  1  0
 12 37  1  0
 15 38  1  0
 22 39  1  0
 23 40  1  0
 23 41  1  0
M  CHG  2  15  -1  20  -1
M  END
>  <UniqueID>  (29) 
29

>  <SMILES>  (29) 
CN[C@@H]1CCCN(c2ccc3cc(C([NH-])=O)n(C(=O)[O-])c3c2)C1

>  <Energy>  (29) 
89.55045705085753

>  <Genealogy>  (29) 
CNC1CCCN(c2ccc3cc(C([NH-])=O)n(C(=O)[O-])c3c2)C1 (protonated)
CN[C@@H]1CCCN(c2ccc3cc(C([NH-])=O)n(C(=O)[O-])c3c2)C1 (chirality)
CN[C@@H]1CCCN(c2ccc3cc(C([NH-])=O)n(C(=O)[O-])c3c2)C1 (3D coordinates assigned)
CN[C@@H]1CCCN(c2ccc3cc(C([NH-])=O)n(C(=O)[O-])c3c2)C1 (nonaromatic ring conformer: 89.55045705085753 kcal/mol)

>  <smiles>  (29) 
CNC1CCCN(c2ccc3cc(C(N)=O)n(C(=O)O)c3c2)C1

>  <score_type>  (29) 
oracle

>  <origin>  (29) 
adg

>  <m_score__min__energy>  (29) 
-11.970000000000001

>  <m_primary>  (29) 
energy

$$$$
29:0
     RDKit          3D

 47 49  0  0  0  0  0  0  0  0999 V2000
   -2.5640   20.1170  -33.0200 C   0  0  0  0  0  0  0  0  0  0  0  0
   -3.8270   20.6420  -33.3570 O   0  0  0  0  0  0  0  0  0  0  0  0
   -3.7770   22.0530  -33.3010 C   0  0  0  0  0  0  0  0  0  0  0  0
   -4.1470   22.5260  -31.9280 C   0  0  0  0  0  0  0  0  0  0  0  0
   -3.2700   22.5200  -31.0240 O   0  0  0  0  0  0  0  0  0  0  0  0
   -5.4810   22.9620  -31.6180 N   0  0  0  0  0  0  0  0  0  0  0  0
   -5.8470   24.1300  -31.0200 C   0  0  0  0  0  0  0  0  0  0  0  0
   -4.9380   25.2420  -30.6660 C   0  0  0  0  0  0  0  0  0  0  0  0
   -3.5470   24.9960  -30.4510 N   0  0  0  0  0  0  0  0  0  0  0  0
   -5.3850   26.4110  -30.5220 O   0  0  0  0  0  0  0  0  0  0  0  0
   -7.2280   24.1730  -30.8470 C   0  0  0  0  0  0  0  0  0  0  0  0
   -7.7010   22.9870  -31.3600 C   0  0  0  0  0  0  0  0  0  0  0  0
   -9.0010   22.4990  -31.4370 C   0  0  0  0  0  0  0  0  0  0  0  0
   -9.1950   21.2280  -32.0040 C   0  0  0  0  0  0  0  0  0  0  0  0
   -8.0940   20.4750  -32.4850 C   0  0  0  0  0  0  0  0  0  0  0  0
   -8.2970   19.1640  -33.0490 N   0  0  0  0  0  0  0  0  0  0  0  0
   -8.2580   18.1420  -31.9920 C   0  0  0  0  0  0  0  0  0  0  0  0
   -6.8090   17.7970  -31.6210 C   0  0  0  0  0  0  0  0  0  0  0  0
   -6.0950   17.0260  -32.7500 C   0  0  0  0  0  0  0  0  0  0  0  0
   -5.2040   17.9570  -33.5880 C   0  0  0  0  0  0  0  0  0  0  0  0
   -4.6090   17.3290  -34.8380 C   0  0  0  0  0  0  0  0  0  0  0  0
   -5.7370   18.3440  -34.9530 C   0  0  0  0  0  0  0  0  0  0  0  0
   -6.7870   21.0010  -32.3720 C   0  0  0  0  0  0  0  0  0  0  0  0
   -6.6250   22.2730  -31.8180 C   0  0  0  0  0  0  0  0  0  0  0  0
   -2.4644   20.0756  -31.9253 H   0  0  0  0  0  0  0  0  0  0  0  0
   -2.4654   19.1034  -33.4358 H   0  0  0  0  0  0  0  0  0  0  0  0
   -1.7760   20.7621  -33.4358 H   0  0  0  0  0  0  0  0  0  0  0  0
   -2.7579   22.3910  -33.5402 H   0  0  0  0  0  0  0  0  0  0  0  0
   -4.4889   22.4682  -34.0295 H   0  0  0  0  0  0  0  0  0  0  0  0
   -2.9380   24.6510  -31.2260 H   0  0  0  0  0  0  0  0  0  0  0  0
   -7.8171   24.9846  -30.3951 H   0  0  0  0  0  0  0  0  0  0  0  0
   -9.8512   23.0898  -31.0655 H   0  0  0  0  0  0  0  0  0  0  0  0
  -10.2112   20.8130  -32.0754 H   0  0  0  0  0  0  0  0  0  0  0  0
   -7.5540   18.9720  -33.7600 H   0  0  0  0  0  0  0  0  0  0  0  0
   -9.2230   19.1270  -33.5380 H   0  0  0  0  0  0  0  0  0  0  0  0
   -8.7771   18.5247  -31.1009 H   0  0  0  0  0  0  0  0  0  0  0  0
   -8.7534   17.2324  -32.3624 H   0  0  0  0  0  0  0  0  0  0  0  0
   -6.2602   18.7299  -31.4250 H   0  0  0  0  0  0  0  0  0  0  0  0
   -6.8291   17.1542  -30.7286 H   0  0  0  0  0  0  0  0  0  0  0  0
   -5.4703   16.2373  -32.3053 H   0  0  0  0  0  0  0  0  0  0  0  0
   -6.8600   16.5918  -33.4105 H   0  0  0  0  0  0  0  0  0  0  0  0
   -4.8091   18.5154  -32.7265 H   0  0  0  0  0  0  0  0  0  0  0  0
   -3.5916   17.5978  -35.1584 H   0  0  0  0  0  0  0  0  0  0  0  0
   -4.4476   16.3000  -35.1918 H   0  0  0  0  0  0  0  0  0  0  0  0
   -5.5353   19.3466  -35.3580 H   0  0  0  0  0  0  0  0  0  0  0  0
   -6.7300   18.3524  -35.4261 H   0  0  0  0  0  0  0  0  0  0  0  0
   -5.9165   20.4214  -32.7129 H   0  0  0  0  0  0  0  0  0  0  0  0
  1  2  1  0
  2  3  1  0
  3  4  1  0
  4  5  2  0
  4  6  1  0
  6  7  1  0
  7  8  1  0
  8  9  1  0
  8 10  2  0
  7 11  2  0
 11 12  1  0
 12 13  2  0
 13 14  1  0
 14 15  2  0
 15 16  1  0
 16 17  1  0
 17 18  1  0
 18 19  1  0
 19 20  1  0
 20 21  1  0
 21 22  1  0
 15 23  1  0
 23 24  2  0
 24  6  1  0
 24 12  1  0
 22 20  1  0
  1 25  1  0
  1 26  1  0
  1 27  1  0
  3 28  1  0
  3 29  1  0
  9 30  1  0
 11 31  1  0
 13 32  1  0
 14 33  1  0
 16 34  1  0
 16 35  1  0
 17 36  1  0
 17 37  1  0
 18 38  1  0
 18 39  1  0
 19 40  1  0
 19 41  1  0
 20 42  1  0
 21 43  1  0
 21 44  1  0
 22 45  1  0
 22 46  1  0
 23 47  1  0
M  CHG  2   9  -1  16   1
M  END
>  <UniqueID>  (30) 
30

>  <SMILES>  (30) 
COCC(=O)n1c(C([NH-])=O)cc2ccc([NH2+]CCCC3CC3)cc21

>  <Energy>  (30) 
349.16453127749764

>  <Genealogy>  (30) 
COCC(=O)n1c(C([NH-])=O)cc2ccc([NH2+]CCCC3CC3)cc21 (protonated)
COCC(=O)n1c(C([NH-])=O)cc2ccc([NH2+]CCCC3CC3)cc21 (3D coordinates assigned)
COCC(=O)n1c(C([NH-])=O)cc2ccc([NH2+]CCCC3CC3)cc21 (nonaromatic ring conformer: 349.16453127749764 kcal/mol)

>  <smiles>  (30) 
COCC(=O)n1c(C(N)=O)cc2ccc(NCCCC3CC3)cc21

>  <score_type>  (30) 
oracle

>  <origin>  (30) 
adg

>  <m_score__min__energy>  (30) 
-10.23

>  <m_primary>  (30) 
energy

$$$$
30:0
     RDKit          3D

 37 39  0  0  0  0  0  0  0  0999 V2000
   -1.5830   25.6730  -28.9700 N   0  0  0  0  0  0  0  0  0  0  0  0
   -1.0260   24.3890  -29.2450 C   0  0  0  0  0  0  0  0  0  0  0  0
    0.1610   24.1470  -28.9030 O   0  0  0  0  0  0  0  0  0  0  0  0
   -1.8020   23.3660  -29.9750 C   0  0  0  0  0  0  0  0  0  0  0  0
   -1.2760   22.1320  -30.3510 C   0  0  0  0  0  0  0  0  0  0  0  0
   -2.2690   21.5190  -31.0790 C   0  0  0  0  0  0  0  0  0  0  0  0
   -2.2910   20.2660  -31.6840 C   0  0  0  0  0  0  0  0  0  0  0  0
   -3.4650   19.8740  -32.3460 C   0  0  0  0  0  0  0  0  0  0  0  0
   -4.5960   20.7330  -32.3910 C   0  0  0  0  0  0  0  0  0  0  0  0
   -5.8750   20.2980  -33.0860 C   0  0  0  0  0  0  0  0  0  0  0  0
   -5.9410   18.7610  -33.2950 C   0  0  0  0  0  0  0  0  0  0  0  0
   -7.0130   18.0990  -32.4170 C   0  0  0  0  0  0  0  0  0  0  0  0
   -8.3540   18.6740  -32.6490 N   0  0  0  0  0  0  0  0  0  0  0  0
   -8.3800   20.1430  -32.8500 C   0  0  0  0  0  0  0  0  0  0  0  0
   -7.1120   20.8420  -32.3430 C   0  0  0  0  0  0  0  0  0  0  0  0
   -4.5340   21.9960  -31.7570 C   0  0  0  0  0  0  0  0  0  0  0  0
   -3.3440   22.3680  -31.1210 C   0  0  0  0  0  0  0  0  0  0  0  0
   -3.0750   23.5060  -30.4440 N   0  0  0  0  0  0  0  0  0  0  0  0
   -3.9880   24.5870  -30.1920 C   0  0  0  0  0  0  0  0  0  0  0  0
   -3.8710   25.6770  -30.8110 O   0  0  0  0  0  0  0  0  0  0  0  0
   -5.0280   24.4280  -29.2830 O   0  0  0  0  0  0  0  0  0  0  0  0
   -2.6120   25.8370  -29.0300 H   0  0  0  0  0  0  0  0  0  0  0  0
   -0.2784   21.7327  -30.1157 H   0  0  0  0  0  0  0  0  0  0  0  0
   -1.4145   19.6025  -31.6446 H   0  0  0  0  0  0  0  0  0  0  0  0
   -3.5100   18.8901  -32.8358 H   0  0  0  0  0  0  0  0  0  0  0  0
   -5.8715   20.7377  -34.0943 H   0  0  0  0  0  0  0  0  0  0  0  0
   -6.1731   18.5572  -34.3507 H   0  0  0  0  0  0  0  0  0  0  0  0
   -4.9655   18.3404  -33.0097 H   0  0  0  0  0  0  0  0  0  0  0  0
   -7.0439   17.0234  -32.6453 H   0  0  0  0  0  0  0  0  0  0  0  0
   -6.7459   18.2761  -31.3647 H   0  0  0  0  0  0  0  0  0  0  0  0
   -8.7740   18.2140  -33.4900 H   0  0  0  0  0  0  0  0  0  0  0  0
   -8.9580   18.4320  -31.8290 H   0  0  0  0  0  0  0  0  0  0  0  0
   -8.4862   20.3474  -33.9256 H   0  0  0  0  0  0  0  0  0  0  0  0
   -9.2269   20.5386  -32.2701 H   0  0  0  0  0  0  0  0  0  0  0  0
   -7.1969   21.9241  -32.5212 H   0  0  0  0  0  0  0  0  0  0  0  0
   -6.9997   20.6482  -31.2661 H   0  0  0  0  0  0  0  0  0  0  0  0
   -5.4023   22.6712  -31.7637 H   0  0  0  0  0  0  0  0  0  0  0  0
  1  2  1  0
  2  3  2  0
  2  4  1  0
  4  5  2  0
  5  6  1  0
  6  7  2  0
  7  8  1  0
  8  9  2  0
  9 10  1  0
 10 11  1  0
 11 12  1  0
 12 13  1  0
 13 14  1  0
 14 15  1  0
  9 16  1  0
 16 17  2  0
 17 18  1  0
 18 19  1  0
 19 20  2  0
 19 21  1  0
 18  4  1  0
 17  6  1  0
 15 10  1  0
  1 22  1  0
  5 23  1  0
  7 24  1  0
  8 25  1  0
 10 26  1  0
 11 27  1  0
 11 28  1  0
 12 29  1  0
 12 30  1  0
 13 31  1  0
 13 32  1  0
 14 33  1  0
 14 34  1  0
 15 35  1  0
 15 36  1  0
 16 37  1  0
M  CHG  3   1  -1  13   1  21  -1
M  END
>  <UniqueID>  (31) 
31

>  <SMILES>  (31) 
[NH-]C(=O)c1cc2ccc(C3CC[NH2+]CC3)cc2n1C(=O)[O-]

>  <Energy>  (31) 
85.32747349800529

>  <Genealogy>  (31) 
[NH-]C(=O)c1cc2ccc(C3CC[NH2+]CC3)cc2n1C(=O)[O-] (protonated)
[NH-]C(=O)c1cc2ccc(C3CC[NH2+]CC3)cc2n1C(=O)[O-] (3D coordinates assigned)
[NH-]C(=O)c1cc2ccc(C3CC[NH2+]CC3)cc2n1C(=O)[O-] (nonaromatic ring conformer: 85.32747349800529 kcal/mol)

>  <smiles>  (31) 
NC(=O)c1cc2ccc(C3CCNCC3)cc2n1C(=O)O

>  <score_type>  (31) 
oracle

>  <origin>  (31) 
adg

>  <m_score__min__energy>  (31) 
-11.369999999999999

>  <m_primary>  (31) 
energy

$$$$
31:0
     RDKit          3D

 40 42  0  0  0  0  0  0  0  0999 V2000
   -0.6430   22.9570  -28.4350 C   0  0  0  0  0  0  0  0  0  0  0  0
   -2.0650   23.2210  -28.0660 C   0  0  0  0  0  0  0  0  0  0  0  0
   -2.4850   24.2870  -27.4270 O   0  0  0  0  0  0  0  0  0  0  0  0
   -3.7820   24.1400  -27.2940 C   0  0  0  0  0  0  0  0  0  0  0  0
   -4.5260   24.9800  -26.7230 O   0  0  0  0  0  0  0  0  0  0  0  0
   -4.2210   23.0190  -27.8200 O   0  0  0  0  0  0  0  0  0  0  0  0
   -3.1640   22.4160  -28.3140 C   0  0  0  0  0  0  0  0  0  0  0  0
   -3.1950   21.0860  -29.0040 C   0  0  0  0  0  0  0  0  0  0  0  0
   -3.3500   21.2670  -30.4080 O   0  0  0  0  0  0  0  0  0  0  0  0
   -3.8780   22.4330  -30.9750 C   0  0  0  0  0  0  0  0  0  0  0  0
   -3.1200   23.3960  -31.2730 O   0  0  0  0  0  0  0  0  0  0  0  0
   -5.2870   22.5280  -31.2300 N   0  0  0  0  0  0  0  0  0  0  0  0
   -6.1210   23.5540  -30.8990 C   0  0  0  0  0  0  0  0  0  0  0  0
   -5.7080   24.8580  -30.3430 C   0  0  0  0  0  0  0  0  0  0  0  0
   -5.7360   25.1060  -28.9370 N   0  0  0  0  0  0  0  0  0  0  0  0
   -5.2720   25.7500  -31.1180 O   0  0  0  0  0  0  0  0  0  0  0  0
   -7.4410   23.2320  -31.2040 C   0  0  0  0  0  0  0  0  0  0  0  0
   -7.3890   21.9710  -31.7540 C   0  0  0  0  0  0  0  0  0  0  0  0
   -8.4160   21.1560  -32.2230 C   0  0  0  0  0  0  0  0  0  0  0  0
   -8.0780   19.8810  -32.7030 C   0  0  0  0  0  0  0  0  0  0  0  0
   -6.7300   19.4450  -32.7080 C   0  0  0  0  0  0  0  0  0  0  0  0
   -6.3840   18.0600  -33.1830 C   0  0  0  0  0  0  0  0  0  0  0  0
   -6.0090   17.1880  -32.0230 C   0  0  0  0  0  0  0  0  0  0  0  0
   -6.4640   17.4070  -30.9110 O   0  0  0  0  0  0  0  0  0  0  0  0
   -5.7140   20.2950  -32.2130 C   0  0  0  0  0  0  0  0  0  0  0  0
   -6.0780   21.5680  -31.7590 C   0  0  0  0  0  0  0  0  0  0  0  0
   -0.0416   22.8454  -27.5207 H   0  0  0  0  0  0  0  0  0  0  0  0
   -0.5837   22.0325  -29.0281 H   0  0  0  0  0  0  0  0  0  0  0  0
   -0.2558   23.7986  -29.0281 H   0  0  0  0  0  0  0  0  0  0  0  0
   -2.2535   20.5522  -28.8077 H   0  0  0  0  0  0  0  0  0  0  0  0
   -4.0438   20.5009  -28.6204 H   0  0  0  0  0  0  0  0  0  0  0  0
   -5.4830   26.0490  -28.5660 H   0  0  0  0  0  0  0  0  0  0  0  0
   -5.9210   24.3370  -28.2550 H   0  0  0  0  0  0  0  0  0  0  0  0
   -8.3344   23.8526  -31.0404 H   0  0  0  0  0  0  0  0  0  0  0  0
   -9.4605   21.5009  -32.2175 H   0  0  0  0  0  0  0  0  0  0  0  0
   -8.8675   19.2137  -33.0790 H   0  0  0  0  0  0  0  0  0  0  0  0
   -7.2540   17.6252  -33.6969 H   0  0  0  0  0  0  0  0  0  0  0  0
   -5.5297   18.1226  -33.8730 H   0  0  0  0  0  0  0  0  0  0  0  0
   -5.3190   16.3448  -32.1743 H   0  0  0  0  0  0  0  0  0  0  0  0
   -4.6652   19.9644  -32.1855 H   0  0  0  0  0  0  0  0  0  0  0  0
  1  2  1  0
  2  3  1  0
  3  4  1  0
  4  5  2  0
  4  6  1  0
  6  7  1  0
  7  8  1  0
  8  9  1  0
  9 10  1  0
 10 11  2  0
 10 12  1  0
 12 13  1  0
 13 14  1  0
 14 15  1  0
 14 16  2  0
 13 17  2  0
 17 18  1  0
 18 19  2  0
 19 20  1  0
 20 21  2  0
 21 22  1  0
 22 23  1  0
 23 24  2  0
 21 25  1  0
 25 26  2  0
  7  2  2  0
 26 12  1  0
 26 18  1  0
  1 27  1  0
  1 28  1  0
  1 29  1  0
  8 30  1  0
  8 31  1  0
 15 32  1  0
 15 33  1  0
 17 34  1  0
 19 35  1  0
 20 36  1  0
 22 37  1  0
 22 38  1  0
 23 39  1  0
 25 40  1  0
M  END
>  <UniqueID>  (32) 
32

>  <SMILES>  (32) 
Cc1oc(=O)oc1COC(=O)n1c(C(N)=O)cc2ccc(CC=O)cc21

>  <Energy>  (32) 
108.74596671109072

>  <Genealogy>  (32) 
Cc1oc(=O)oc1COC(=O)n1c(C(N)=O)cc2ccc(CC=O)cc21 (3D coordinates assigned)
Cc1oc(=O)oc1COC(=O)n1c(C(N)=O)cc2ccc(CC=O)cc21 (optimized conformer: 108.74596671109072 kcal/mol)

>  <smiles>  (32) 
Cc1oc(=O)oc1COC(=O)n1c(C(N)=O)cc2ccc(CC=O)cc21

>  <score_type>  (32) 
oracle

>  <origin>  (32) 
adg

>  <m_score__min__energy>  (32) 
-9.4499999999999993

>  <m_primary>  (32) 
energy

$$$$
32:0
     RDKit          3D

 53 56  0  0  0  0  0  0  0  0999 V2000
   -4.1140   22.9100  -28.3180 C   0  0  0  0  0  0  0  0  0  0  0  0
   -3.5970   21.9570  -29.3880 C   0  0  0  0  0  0  0  0  0  0  0  0
   -3.3780   22.6480  -30.6150 O   0  0  0  0  0  0  0  0  0  0  0  0
   -4.2760   22.6160  -31.6890 C   0  0  0  0  0  0  0  0  0  0  0  0
   -3.8800   22.2950  -32.8430 O   0  0  0  0  0  0  0  0  0  0  0  0
   -5.6500   22.9820  -31.4790 N   0  0  0  0  0  0  0  0  0  0  0  0
   -6.1360   24.1130  -30.8920 C   0  0  0  0  0  0  0  0  0  0  0  0
   -5.3380   25.2800  -30.4620 C   0  0  0  0  0  0  0  0  0  0  0  0
   -3.9310   25.3010  -30.6960 N   0  0  0  0  0  0  0  0  0  0  0  0
   -5.8760   26.2440  -29.8590 O   0  0  0  0  0  0  0  0  0  0  0  0
   -7.5260   24.0650  -30.8180 C   0  0  0  0  0  0  0  0  0  0  0  0
   -7.8810   22.8650  -31.3910 C   0  0  0  0  0  0  0  0  0  0  0  0
   -9.1390   22.2960  -31.5660 C   0  0  0  0  0  0  0  0  0  0  0  0
   -9.2090   21.0250  -32.1610 C   0  0  0  0  0  0  0  0  0  0  0  0
   -8.0290   20.3500  -32.5690 C   0  0  0  0  0  0  0  0  0  0  0  0
   -8.1120   19.0270  -33.1370 N   0  0  0  0  0  0  0  0  0  0  0  0
   -7.2880   18.0920  -32.3530 C   0  0  0  0  0  0  0  0  0  0  0  0
   -6.2850   17.3330  -33.2530 C   0  0  2  0  0  0  0  0  0  0  0  0
   -5.0940   16.7280  -32.4490 C   0  0  0  0  0  0  0  0  0  0  0  0
   -3.7710   17.1250  -33.1300 C   0  0  0  0  0  0  0  0  0  0  0  0
   -3.8210   16.6690  -34.6020 C   0  0  0  0  0  0  0  0  0  0  0  0
   -5.0190   17.3560  -35.3120 C   0  0  0  0  0  0  0  0  0  0  0  0
   -5.7880   18.1990  -34.3620 N   0  0  0  0  0  0  0  0  0  0  0  0
   -4.8870   19.2640  -33.8470 C   0  0  0  0  0  0  0  0  0  0  0  0
   -3.6710   18.6610  -33.1020 C   0  0  0  0  0  0  0  0  0  0  0  0
   -6.7700   20.9570  -32.3610 C   0  0  0  0  0  0  0  0  0  0  0  0
   -6.7310   22.2310  -31.7820 C   0  0  0  0  0  0  0  0  0  0  0  0
   -3.8911   22.4991  -27.3223 H   0  0  0  0  0  0  0  0  0  0  0  0
   -3.6227   23.8878  -28.4295 H   0  0  0  0  0  0  0  0  0  0  0  0
   -5.2016   23.0313  -28.4295 H   0  0  0  0  0  0  0  0  0  0  0  0
   -2.6490   21.5137  -29.0491 H   0  0  0  0  0  0  0  0  0  0  0  0
   -4.3482   21.1709  -29.5542 H   0  0  0  0  0  0  0  0  0  0  0  0
   -3.4970   26.0370  -31.2960 H   0  0  0  0  0  0  0  0  0  0  0  0
   -8.1976   24.8249  -30.3920 H   0  0  0  0  0  0  0  0  0  0  0  0
  -10.0499   22.8247  -31.2485 H   0  0  0  0  0  0  0  0  0  0  0  0
  -10.1886   20.5481  -32.3122 H   0  0  0  0  0  0  0  0  0  0  0  0
   -9.1100   18.7110  -33.1430 H   0  0  0  0  0  0  0  0  0  0  0  0
   -7.7750   19.0510  -34.1280 H   0  0  0  0  0  0  0  0  0  0  0  0
   -6.7296   18.6579  -31.5928 H   0  0  0  0  0  0  0  0  0  0  0  0
   -7.9546   17.3559  -31.8800 H   0  0  0  0  0  0  0  0  0  0  0  0
   -6.8388   16.4894  -33.6907 H   0  0  0  0  0  0  0  0  0  0  0  0
   -5.1094   17.1165  -31.4200 H   0  0  0  0  0  0  0  0  0  0  0  0
   -5.1831   15.6319  -32.4244 H   0  0  0  0  0  0  0  0  0  0  0  0
   -2.9137   16.6643  -32.6173 H   0  0  0  0  0  0  0  0  0  0  0  0
   -2.8846   16.9507  -35.1059 H   0  0  0  0  0  0  0  0  0  0  0  0
   -3.9442   15.5768  -34.6453 H   0  0  0  0  0  0  0  0  0  0  0  0
   -4.6391   17.9884  -36.1279 H   0  0  0  0  0  0  0  0  0  0  0  0
   -5.6861   16.5760  -35.7078 H   0  0  0  0  0  0  0  0  0  0  0  0
   -4.5257   19.8675  -34.6927 H   0  0  0  0  0  0  0  0  0  0  0  0
   -5.4542   19.8860  -33.1390 H   0  0  0  0  0  0  0  0  0  0  0  0
   -2.7416   18.9783  -33.5975 H   0  0  0  0  0  0  0  0  0  0  0  0
   -3.6650   19.0120  -32.0595 H   0  0  0  0  0  0  0  0  0  0  0  0
   -5.8420   20.4404  -32.6474 H   0  0  0  0  0  0  0  0  0  0  0  0
  1  2  1  0
  2  3  1  0
  3  4  1  0
  4  5  2  0
  4  6  1  0
  6  7  1  0
  7  8  1  0
  8  9  1  0
  8 10  2  0
  7 11  2  0
 11 12  1  0
 12 13  2  0
 13 14  1  0
 14 15  2  0
 15 16  1  0
 16 17  1  0
 17 18  1  0
 18 19  1  0
 19 20  1  0
 20 21  1  0
 21 22  1  0
 22 23  1  0
 23 24  1  0
 24 25  1  0
 15 26  1  0
 26 27  2  0
 27  6  1  0
 27 12  1  0
 23 18  1  0
 25 20  1  0
  1 28  1  0
  1 29  1  0
  1 30  1  0
  2 31  1  0
  2 32  1  0
  9 33  1  0
 11 34  1  0
 13 35  1  0
 14 36  1  0
 16 37  1  0
 16 38  1  0
 17 39  1  0
 17 40  1  0
 18 41  1  6
 19 42  1  0
 19 43  1  0
 20 44  1  0
 21 45  1  0
 21 46  1  0
 22 47  1  0
 22 48  1  0
 24 49  1  0
 24 50  1  0
 25 51  1  0
 25 52  1  0
 26 53  1  0
M  CHG  2   9  -1  16   1
M  END
>  <UniqueID>  (33) 
33

>  <SMILES>  (33) 
CCOC(=O)n1c(C([NH-])=O)cc2ccc([NH2+]C[C@@H]3CC4CCN3CC4)cc21

>  <Energy>  (33) 
104.4759529663786

>  <Genealogy>  (33) 
CCOC(=O)n1c(C([NH-])=O)cc2ccc([NH2+]CC3CC4CCN3CC4)cc21 (protonated)
CCOC(=O)n1c(C([NH-])=O)cc2ccc([NH2+]C[C@@H]3CC4CCN3CC4)cc21 (chirality)
CCOC(=O)n1c(C([NH-])=O)cc2ccc([NH2+]C[C@@H]3CC4CCN3CC4)cc21 (3D coordinates assigned)
CCOC(=O)n1c(C([NH-])=O)cc2ccc([NH2+]C[C@@H]3CC4CCN3CC4)cc21 (nonaromatic ring conformer: 104.4759529663786 kcal/mol)

>  <smiles>  (33) 
CCOC(=O)n1c(C(N)=O)cc2ccc(NCC3CC4CCN3CC4)cc21

>  <score_type>  (33) 
oracle

>  <origin>  (33) 
adg

>  <m_score__min__energy>  (33) 
-11.15

>  <m_primary>  (33) 
energy

$$$$
33:0
     RDKit          3D

 51 52  0  0  0  0  0  0  0  0999 V2000
   -4.8940   17.7240  -35.0290 C   0  0  0  0  0  0  0  0  0  0  0  0
   -4.3840   18.2280  -33.6880 C   0  0  0  0  0  0  0  0  0  0  0  0
   -4.9220   17.4240  -32.6450 O   0  0  0  0  0  0  0  0  0  0  0  0
   -6.1180   17.7350  -31.9910 C   0  0  0  0  0  0  0  0  0  0  0  0
   -6.2570   17.5080  -30.7580 O   0  0  0  0  0  0  0  0  0  0  0  0
   -7.2190   18.3950  -32.7570 C   0  0  0  0  0  0  0  0  0  0  0  0
   -7.3880   19.8170  -32.2980 C   0  0  0  0  0  0  0  0  0  0  0  0
   -8.6810   20.3870  -32.1890 C   0  0  0  0  0  0  0  0  0  0  0  0
   -8.8430   21.7080  -31.7370 C   0  0  0  0  0  0  0  0  0  0  0  0
   -7.7000   22.4290  -31.4030 C   0  0  0  0  0  0  0  0  0  0  0  0
   -7.5760   23.7070  -30.9100 C   0  0  0  0  0  0  0  0  0  0  0  0
   -6.2090   23.9030  -30.7390 C   0  0  0  0  0  0  0  0  0  0  0  0
   -5.6250   25.1830  -30.2910 C   0  0  0  0  0  0  0  0  0  0  0  0
   -4.2750   25.5280  -30.6030 N   0  0  0  0  0  0  0  0  0  0  0  0
   -6.3480   26.0100  -29.6740 O   0  0  0  0  0  0  0  0  0  0  0  0
   -5.5110   22.7870  -31.0920 N   0  0  0  0  0  0  0  0  0  0  0  0
   -4.1000   22.5530  -30.9360 C   0  0  0  0  0  0  0  0  0  0  0  0
   -3.2810   23.0900  -31.7320 O   0  0  0  0  0  0  0  0  0  0  0  0
   -3.6330   21.7380  -29.9000 O   0  0  0  0  0  0  0  0  0  0  0  0
   -3.5060   22.1990  -28.5550 C   0  0  0  0  0  0  0  0  0  0  0  0
   -2.1070   22.8150  -28.3080 C   0  0  0  0  0  0  0  0  0  0  0  0
   -1.5340   22.3110  -26.9660 C   0  0  0  0  0  0  0  0  0  0  0  0
   -1.1490   22.4100  -29.4490 C   0  0  0  0  0  0  0  0  0  0  0  0
   -2.2120   24.3620  -28.2780 C   0  0  0  0  0  0  0  0  0  0  0  0
   -2.2510   24.9000  -29.5750 O   0  0  0  0  0  0  0  0  0  0  0  0
   -6.4410   21.8940  -31.5040 C   0  0  0  0  0  0  0  0  0  0  0  0
   -6.2550   20.5770  -31.9380 C   0  0  0  0  0  0  0  0  0  0  0  0
   -5.6675   16.9596  -34.8633 H   0  0  0  0  0  0  0  0  0  0  0  0
   -5.3230   18.5627  -35.5969 H   0  0  0  0  0  0  0  0  0  0  0  0
   -4.0604   17.2851  -35.5969 H   0  0  0  0  0  0  0  0  0  0  0  0
   -3.2858   18.1690  -33.6674 H   0  0  0  0  0  0  0  0  0  0  0  0
   -4.6972   19.2728  -33.5451 H   0  0  0  0  0  0  0  0  0  0  0  0
   -6.9727   18.3856  -33.8290 H   0  0  0  0  0  0  0  0  0  0  0  0
   -8.1568   17.8470  -32.5835 H   0  0  0  0  0  0  0  0  0  0  0  0
   -9.5648   19.7909  -32.4603 H   0  0  0  0  0  0  0  0  0  0  0  0
   -9.8427   22.1585  -31.6498 H   0  0  0  0  0  0  0  0  0  0  0  0
   -8.3846   24.4215  -30.6965 H   0  0  0  0  0  0  0  0  0  0  0  0
   -3.7020   24.9380  -31.2440 H   0  0  0  0  0  0  0  0  0  0  0  0
   -3.8660   26.4200  -30.2460 H   0  0  0  0  0  0  0  0  0  0  0  0
   -4.2741   22.9626  -28.3627 H   0  0  0  0  0  0  0  0  0  0  0  0
   -3.6356   21.3420  -27.8776 H   0  0  0  0  0  0  0  0  0  0  0  0
   -2.0748   22.7867  -26.1346 H   0  0  0  0  0  0  0  0  0  0  0  0
   -1.6526   21.2192  -26.9036 H   0  0  0  0  0  0  0  0  0  0  0  0
   -0.4663   22.5680  -26.9036 H   0  0  0  0  0  0  0  0  0  0  0  0
   -0.2155   22.0154  -29.0213 H   0  0  0  0  0  0  0  0  0  0  0  0
   -1.6242   21.6358  -30.0693 H   0  0  0  0  0  0  0  0  0  0  0  0
   -0.9247   23.2903  -30.0693 H   0  0  0  0  0  0  0  0  0  0  0  0
   -3.1306   24.6477  -27.7446 H   0  0  0  0  0  0  0  0  0  0  0  0
   -1.3228   24.7587  -27.7661 H   0  0  0  0  0  0  0  0  0  0  0  0
   -2.4390   24.1480  -30.1950 H   0  0  0  0  0  0  0  0  0  0  0  0
   -5.2460   20.1429  -31.9974 H   0  0  0  0  0  0  0  0  0  0  0  0
  1  2  1  0
  2  3  1  0
  3  4  1  0
  4  5  2  0
  4  6  1  0
  6  7  1  0
  7  8  2  0
  8  9  1  0
  9 10  2  0
 10 11  1  0
 11 12  2  0
 12 13  1  0
 13 14  1  0
 13 15  2  0
 12 16  1  0
 16 17  1  0
 17 18  2  0
 17 19  1  0
 19 20  1  0
 20 21  1  0
 21 22  1  0
 21 23  1  0
 21 24  1  0
 24 25  1  0
 16 26  1  0
 26 27  2  0
 27  7  1  0
 26 10  1  0
  1 28  1  0
  1 29  1  0
  1 30  1  0
  2 31  1  0
  2 32  1  0
  6 33  1  0
  6 34  1  0
  8 35  1  0
  9 36  1  0
 11 37  1  0
 14 38  1  0
 14 39  1  0
 20 40  1  0
 20 41  1  0
 22 42  1  0
 22 43  1  0
 22 44  1  0
 23 45  1  0
 23 46  1  0
 23 47  1  0
 24 48  1  0
 24 49  1  0
 25 50  1  0
 27 51  1  0
M  END
>  <UniqueID>  (34) 
34

>  <SMILES>  (34) 
CCOC(=O)Cc1ccc2cc(C(N)=O)n(C(=O)OCC(C)(C)CO)c2c1

>  <Energy>  (34) 
74.51749635082652

>  <Genealogy>  (34) 
CCOC(=O)Cc1ccc2cc(C(N)=O)n(C(=O)OCC(C)(C)CO)c2c1 (3D coordinates assigned)
CCOC(=O)Cc1ccc2cc(C(N)=O)n(C(=O)OCC(C)(C)CO)c2c1 (optimized conformer: 74.51749635082652 kcal/mol)

>  <smiles>  (34) 
CCOC(=O)Cc1ccc2cc(C(N)=O)n(C(=O)OCC(C)(C)CO)c2c1

>  <score_type>  (34) 
oracle

>  <origin>  (34) 
adg

>  <m_score__min__energy>  (34) 
-9.0099999999999998

>  <m_primary>  (34) 
energy

$$$$
34:0
     RDKit          3D

 32 33  0  0  0  0  0  0  0  0999 V2000
   -5.6250   26.5500  -30.1180 N   0  0  0  0  0  0  0  0  0  0  0  0
   -6.4120   25.3790  -29.8990 C   0  0  0  0  0  0  0  0  0  0  0  0
   -7.2650   25.3730  -28.9710 O   0  0  0  0  0  0  0  0  0  0  0  0
   -6.1980   24.1550  -30.6960 C   0  0  0  0  0  0  0  0  0  0  0  0
   -7.2360   23.4310  -31.2770 C   0  0  0  0  0  0  0  0  0  0  0  0
   -6.6330   22.3430  -31.8660 C   0  0  0  0  0  0  0  0  0  0  0  0
   -7.1930   21.2980  -32.5930 C   0  0  0  0  0  0  0  0  0  0  0  0
   -6.3280   20.3230  -33.1190 C   0  0  0  0  0  0  0  0  0  0  0  0
   -4.9290   20.4220  -32.9260 C   0  0  0  0  0  0  0  0  0  0  0  0
   -4.0130   19.3620  -33.4790 C   0  0  0  0  0  0  0  0  0  0  0  0
   -4.6090   17.9630  -33.3040 C   0  0  0  0  0  0  0  0  0  0  0  0
   -5.5590   17.6980  -34.3230 O   0  0  0  0  0  0  0  0  0  0  0  0
   -6.6880   17.0290  -33.8040 C   0  0  0  0  0  0  0  0  0  0  0  0
   -6.7270   15.7160  -34.2440 F   0  0  0  0  0  0  0  0  0  0  0  0
   -4.3960   21.4950  -32.1760 C   0  0  0  0  0  0  0  0  0  0  0  0
   -5.2820   22.4390  -31.6440 C   0  0  0  0  0  0  0  0  0  0  0  0
   -4.9980   23.5500  -30.9270 N   0  0  0  0  0  0  0  0  0  0  0  0
   -3.6910   24.0460  -30.5900 C   0  0  0  0  0  0  0  0  0  0  0  0
   -3.4930   25.2830  -30.4670 O   0  0  0  0  0  0  0  0  0  0  0  0
   -2.6330   23.1670  -30.4000 O   0  0  0  0  0  0  0  0  0  0  0  0
   -5.8160   27.4200  -29.5710 H   0  0  0  0  0  0  0  0  0  0  0  0
   -4.8000   26.5340  -30.7580 H   0  0  0  0  0  0  0  0  0  0  0  0
   -8.3083   23.6762  -31.2673 H   0  0  0  0  0  0  0  0  0  0  0  0
   -8.2798   21.2364  -32.7515 H   0  0  0  0  0  0  0  0  0  0  0  0
   -6.7416   19.4757  -33.6855 H   0  0  0  0  0  0  0  0  0  0  0  0
   -3.8523   19.5512  -34.5506 H   0  0  0  0  0  0  0  0  0  0  0  0
   -3.0616   19.4046  -32.9285 H   0  0  0  0  0  0  0  0  0  0  0  0
   -3.8028   17.2166  -33.3574 H   0  0  0  0  0  0  0  0  0  0  0  0
   -5.1107   17.9092  -32.3265 H   0  0  0  0  0  0  0  0  0  0  0  0
   -6.6401   17.0398  -32.7051 H   0  0  0  0  0  0  0  0  0  0  0  0
   -7.5948   17.5449  -34.1528 H   0  0  0  0  0  0  0  0  0  0  0  0
   -3.3117   21.5859  -32.0144 H   0  0  0  0  0  0  0  0  0  0  0  0
  1  2  1  0
  2  3  2  0
  2  4  1  0
  4  5  2  0
  5  6  1  0
  6  7  2  0
  7  8  1  0
  8  9  2  0
  9 10  1  0
 10 11  1  0
 11 12  1  0
 12 13  1  0
 13 14  1  0
  9 15  1  0
 15 16  2  0
 16 17  1  0
 17 18  1  0
 18 19  2  0
 18 20  1  0
 17  4  1  0
 16  6  1  0
  1 21  1  0
  1 22  1  0
  5 23  1  0
  7 24  1  0
  8 25  1  0
 10 26  1  0
 10 27  1  0
 11 28  1  0
 11 29  1  0
 13 30  1  0
 13 31  1  0
 15 32  1  0
M  CHG  1  20  -1
M  END
>  <UniqueID>  (35) 
35

>  <SMILES>  (35) 
NC(=O)c1cc2ccc(CCOCF)cc2n1C(=O)[O-]

>  <Energy>  (35) 
72.77358039584631

>  <Genealogy>  (35) 
NC(=O)c1cc2ccc(CCOCF)cc2n1C(=O)[O-] (protonated)
NC(=O)c1cc2ccc(CCOCF)cc2n1C(=O)[O-] (3D coordinates assigned)
NC(=O)c1cc2ccc(CCOCF)cc2n1C(=O)[O-] (optimized conformer: 72.77358039584631 kcal/mol)

>  <smiles>  (35) 
NC(=O)c1cc2ccc(CCOCF)cc2n1C(=O)O

>  <score_type>  (35) 
oracle

>  <origin>  (35) 
adg

>  <m_score__min__energy>  (35) 
-7.7800000000000002

>  <m_primary>  (35) 
energy

$$$$
35:0
     RDKit          3D

 24 25  0  0  0  0  0  0  0  0999 V2000
   -5.4820   20.3100  -33.3660 C   0  0  0  0  0  0  0  0  0  0  0  0
   -4.2970   20.7530  -32.5610 C   0  0  0  0  0  0  0  0  0  0  0  0
   -3.1300   19.9520  -32.5160 C   0  0  0  0  0  0  0  0  0  0  0  0
   -2.0050   20.3690  -31.7850 C   0  0  0  0  0  0  0  0  0  0  0  0
   -2.0700   21.5950  -31.1290 C   0  0  0  0  0  0  0  0  0  0  0  0
   -1.1380   22.2240  -30.3370 C   0  0  0  0  0  0  0  0  0  0  0  0
   -1.7340   23.4200  -29.9430 C   0  0  0  0  0  0  0  0  0  0  0  0
   -1.0370   24.4480  -29.1430 C   0  0  0  0  0  0  0  0  0  0  0  0
   -1.6080   25.7400  -28.9500 N   0  0  0  0  0  0  0  0  0  0  0  0
    0.1020   24.2000  -28.6650 O   0  0  0  0  0  0  0  0  0  0  0  0
   -2.9910   23.5230  -30.4640 N   0  0  0  0  0  0  0  0  0  0  0  0
   -3.9610   24.5550  -30.2300 C   0  0  0  0  0  0  0  0  0  0  0  0
   -3.8610   25.6660  -30.8150 O   0  0  0  0  0  0  0  0  0  0  0  0
   -5.0030   24.3480  -29.3360 O   0  0  0  0  0  0  0  0  0  0  0  0
   -3.1800   22.3970  -31.1900 C   0  0  0  0  0  0  0  0  0  0  0  0
   -4.3220   21.9990  -31.8960 C   0  0  0  0  0  0  0  0  0  0  0  0
   -6.2933   20.0067  -32.6879 H   0  0  0  0  0  0  0  0  0  0  0  0
   -5.8255   21.1404  -34.0003 H   0  0  0  0  0  0  0  0  0  0  0  0
   -5.1965   19.4579  -34.0003 H   0  0  0  0  0  0  0  0  0  0  0  0
   -3.1041   18.9952  -33.0580 H   0  0  0  0  0  0  0  0  0  0  0  0
   -1.1002   19.7456  -31.7326 H   0  0  0  0  0  0  0  0  0  0  0  0
   -0.1347   21.8599  -30.0710 H   0  0  0  0  0  0  0  0  0  0  0  0
   -2.6410   25.8820  -28.9960 H   0  0  0  0  0  0  0  0  0  0  0  0
   -5.2153   22.6400  -31.9318 H   0  0  0  0  0  0  0  0  0  0  0  0
  1  2  1  0
  2  3  2  0
  3  4  1  0
  4  5  2  0
  5  6  1  0
  6  7  2  0
  7  8  1  0
  8  9  1  0
  8 10  2  0
  7 11  1  0
 11 12  1  0
 12 13  2  0
 12 14  1  0
 11 15  1  0
 15 16  2  0
 16  2  1  0
 15  5  1  0
  1 17  1  0
  1 18  1  0
  1 19  1  0
  3 20  1  0
  4 21  1  0
  6 22  1  0
  9 23  1  0
 16 24  1  0
M  CHG  2   9  -1  14  -1
M  END
>  <UniqueID>  (36) 
36

>  <SMILES>  (36) 
Cc1ccc2cc(C([NH-])=O)n(C(=O)[O-])c2c1

>  <Energy>  (36) 
63.82124957044166

>  <Genealogy>  (36) 
Cc1ccc2cc(C([NH-])=O)n(C(=O)[O-])c2c1 (protonated)
Cc1ccc2cc(C([NH-])=O)n(C(=O)[O-])c2c1 (3D coordinates assigned)
Cc1ccc2cc(C([NH-])=O)n(C(=O)[O-])c2c1 (optimized conformer: 63.82124957044166 kcal/mol)

>  <smiles>  (36) 
Cc1ccc2cc(C(N)=O)n(C(=O)O)c2c1

>  <score_type>  (36) 
oracle

>  <origin>  (36) 
adg

>  <m_score__min__energy>  (36) 
-10.039999999999999

>  <m_primary>  (36) 
energy

$$$$
36:0
     RDKit          3D

 36 37  0  0  0  0  0  0  0  0999 V2000
   -2.0570   22.7320  -27.5040 C   0  0  0  0  0  0  0  0  0  0  0  0
   -2.7950   23.1970  -28.7620 C   0  0  1  0  0  0  0  0  0  0  0  0
   -1.9440   24.0420  -29.4910 O   0  0  0  0  0  0  0  0  0  0  0  0
   -3.2170   22.0080  -29.6440 C   0  0  0  0  0  0  0  0  0  0  0  0
   -3.7780   22.4580  -30.9650 C   0  0  0  0  0  0  0  0  0  0  0  0
   -2.9940   22.6750  -31.9290 O   0  0  0  0  0  0  0  0  0  0  0  0
   -5.1830   22.7130  -31.1220 N   0  0  0  0  0  0  0  0  0  0  0  0
   -5.8340   23.9090  -31.0590 C   0  0  0  0  0  0  0  0  0  0  0  0
   -5.2460   25.1930  -30.6270 C   0  0  0  0  0  0  0  0  0  0  0  0
   -3.8670   25.4760  -30.8430 N   0  0  0  0  0  0  0  0  0  0  0  0
   -5.9610   26.0350  -30.0210 O   0  0  0  0  0  0  0  0  0  0  0  0
   -7.1840   23.7460  -31.3690 C   0  0  0  0  0  0  0  0  0  0  0  0
   -7.3430   22.4000  -31.6090 C   0  0  0  0  0  0  0  0  0  0  0  0
   -8.4780   21.6810  -31.9710 C   0  0  0  0  0  0  0  0  0  0  0  0
   -8.3430   20.2980  -32.1800 C   0  0  0  0  0  0  0  0  0  0  0  0
   -7.0870   19.6610  -32.0150 C   0  0  0  0  0  0  0  0  0  0  0  0
   -6.9430   18.1910  -32.2870 C   0  0  0  0  0  0  0  0  0  0  0  0
   -6.4470   17.9740  -33.6810 C   0  0  0  0  0  0  0  0  0  0  0  0
   -6.0740   18.9540  -34.3800 O   0  0  0  0  0  0  0  0  0  0  0  0
   -6.4440   16.6970  -34.2280 O   0  0  0  0  0  0  0  0  0  0  0  0
   -5.9550   20.4260  -31.6520 C   0  0  0  0  0  0  0  0  0  0  0  0
   -6.1220   21.7990  -31.4480 C   0  0  0  0  0  0  0  0  0  0  0  0
   -2.6013   23.0750  -26.6117 H   0  0  0  0  0  0  0  0  0  0  0  0
   -1.9985   21.6336  -27.4982 H   0  0  0  0  0  0  0  0  0  0  0  0
   -1.0409   23.1533  -27.4982 H   0  0  0  0  0  0  0  0  0  0  0  0
   -3.7087   23.7289  -28.4584 H   0  0  0  0  0  0  0  0  0  0  0  0
   -2.2980   24.0770  -30.4180 H   0  0  0  0  0  0  0  0  0  0  0  0
   -2.3378   21.3734  -29.8291 H   0  0  0  0  0  0  0  0  0  0  0  0
   -4.0035   21.4525  -29.1122 H   0  0  0  0  0  0  0  0  0  0  0  0
   -3.1990   24.7190  -31.1110 H   0  0  0  0  0  0  0  0  0  0  0  0
   -7.9573   24.5271  -31.4125 H   0  0  0  0  0  0  0  0  0  0  0  0
   -9.4511   22.1799  -32.0899 H   0  0  0  0  0  0  0  0  0  0  0  0
   -9.2205   19.7036  -32.4746 H   0  0  0  0  0  0  0  0  0  0  0  0
   -6.2265   17.7573  -31.5739 H   0  0  0  0  0  0  0  0  0  0  0  0
   -7.9235   17.7054  -32.1734 H   0  0  0  0  0  0  0  0  0  0  0  0
   -4.9688   19.9535  -31.5332 H   0  0  0  0  0  0  0  0  0  0  0  0
  1  2  1  0
  2  3  1  0
  2  4  1  0
  4  5  1  0
  5  6  2  0
  5  7  1  0
  7  8  1  0
  8  9  1  0
  9 10  1  0
  9 11  2  0
  8 12  2  0
 12 13  1  0
 13 14  2  0
 14 15  1  0
 15 16  2  0
 16 17  1  0
 17 18  1  0
 18 19  2  0
 18 20  1  0
 16 21  1  0
 21 22  2  0
 22  7  1  0
 22 13  1  0
  1 23  1  0
  1 24  1  0
  1 25  1  0
  2 26  1  1
  3 27  1  0
  4 28  1  0
  4 29  1  0
 10 30  1  0
 12 31  1  0
 14 32  1  0
 15 33  1  0
 17 34  1  0
 17 35  1  0
 21 36  1  0
M  CHG  2  10  -1  20  -1
M  END
>  <UniqueID>  (37) 
37

>  <SMILES>  (37) 
C[C@@H](O)CC(=O)n1c(C([NH-])=O)cc2ccc(CC(=O)[O-])cc21

>  <Energy>  (37) 
69.17343564793923

>  <Genealogy>  (37) 
C[C@@H](O)CC(=O)n1c(C([NH-])=O)cc2ccc(CC(=O)[O-])cc21 (protonated)
C[C@@H](O)CC(=O)n1c(C([NH-])=O)cc2ccc(CC(=O)[O-])cc21 (3D coordinates assigned)
C[C@@H](O)CC(=O)n1c(C([NH-])=O)cc2ccc(CC(=O)[O-])cc21 (optimized conformer: 69.17343564793923 kcal/mol)

>  <smiles>  (37) 
C[C@@H](O)CC(=O)n1c(C(N)=O)cc2ccc(CC(=O)O)cc21

>  <score_type>  (37) 
oracle

>  <origin>  (37) 
adg

>  <m_score__min__energy>  (37) 
-9.5299999999999994

>  <m_primary>  (37) 
energy

$$$$
37:0
     RDKit          3D

 32 34  0  0  0  0  0  0  0  0999 V2000
   -5.3350   26.4190  -30.4620 N   0  0  0  0  0  0  0  0  0  0  0  0
   -6.2550   25.4370  -29.9850 C   0  0  0  0  0  0  0  0  0  0  0  0
   -7.0100   25.7170  -29.0150 O   0  0  0  0  0  0  0  0  0  0  0  0
   -6.3850   24.1240  -30.6480 C   0  0  0  0  0  0  0  0  0  0  0  0
   -7.6100   23.5340  -30.9420 C   0  0  0  0  0  0  0  0  0  0  0  0
   -7.3020   22.3690  -31.6040 C   0  0  0  0  0  0  0  0  0  0  0  0
   -8.1410   21.3820  -32.1130 C   0  0  0  0  0  0  0  0  0  0  0  0
   -7.5500   20.2610  -32.7160 C   0  0  0  0  0  0  0  0  0  0  0  0
   -6.1380   20.1350  -32.7910 C   0  0  0  0  0  0  0  0  0  0  0  0
   -5.5240   18.9360  -33.4170 C   0  0  0  0  0  0  0  0  0  0  0  0
   -4.1830   18.9620  -33.8460 C   0  0  0  0  0  0  0  0  0  0  0  0
   -3.6070   17.8320  -34.4350 C   0  0  0  0  0  0  0  0  0  0  0  0
   -4.3600   16.6670  -34.6020 C   0  0  0  0  0  0  0  0  0  0  0  0
   -5.6910   16.6290  -34.1810 C   0  0  0  0  0  0  0  0  0  0  0  0
   -6.4180   15.4960  -34.3400 F   0  0  0  0  0  0  0  0  0  0  0  0
   -6.2720   17.7570  -33.5920 C   0  0  0  0  0  0  0  0  0  0  0  0
   -5.3190   21.1600  -32.2590 C   0  0  0  0  0  0  0  0  0  0  0  0
   -5.9360   22.2790  -31.6850 C   0  0  0  0  0  0  0  0  0  0  0  0
   -5.3560   23.3500  -31.0970 N   0  0  0  0  0  0  0  0  0  0  0  0
   -3.9490   23.5600  -30.8900 C   0  0  0  0  0  0  0  0  0  0  0  0
   -3.4920   24.7280  -30.7660 O   0  0  0  0  0  0  0  0  0  0  0  0
   -3.0780   22.4810  -30.8190 O   0  0  0  0  0  0  0  0  0  0  0  0
   -5.2290   27.3270  -29.9570 H   0  0  0  0  0  0  0  0  0  0  0  0
   -4.8210   26.2850  -31.3600 H   0  0  0  0  0  0  0  0  0  0  0  0
   -8.6114   23.9177  -30.6971 H   0  0  0  0  0  0  0  0  0  0  0  0
   -9.2347   21.4777  -32.0447 H   0  0  0  0  0  0  0  0  0  0  0  0
   -8.1889   19.4701  -33.1358 H   0  0  0  0  0  0  0  0  0  0  0  0
   -3.5852   19.8763  -33.7171 H   0  0  0  0  0  0  0  0  0  0  0  0
   -2.5589   17.8604  -34.7675 H   0  0  0  0  0  0  0  0  0  0  0  0
   -3.9043   15.7795  -35.0652 H   0  0  0  0  0  0  0  0  0  0  0  0
   -7.3212   17.7221  -33.2633 H   0  0  0  0  0  0  0  0  0  0  0  0
   -4.2226   21.0795  -32.2956 H   0  0  0  0  0  0  0  0  0  0  0  0
  1  2  1  0
  2  3  2  0
  2  4  1  0
  4  5  2  0
  5  6  1  0
  6  7  2  0
  7  8  1  0
  8  9  2  0
  9 10  1  0
 10 11  2  0
 11 12  1  0
 12 13  2  0
 13 14  1  0
 14 15  1  0
 14 16  2  0
  9 17  1  0
 17 18  2  0
 18 19  1  0
 19 20  1  0
 20 21  2  0
 20 22  1  0
 19  4  1  0
 18  6  1  0
 16 10  1  0
  1 23  1  0
  1 24  1  0
  5 25  1  0
  7 26  1  0
  8 27  1  0
 11 28  1  0
 12 29  1  0
 13 30  1  0
 16 31  1  0
 17 32  1  0
M  CHG  1  22  -1
M  END
>  <UniqueID>  (38) 
38

>  <SMILES>  (38) 
NC(=O)c1cc2ccc(-c3cccc(F)c3)cc2n1C(=O)[O-]

>  <Energy>  (38) 
80.34815187820709

>  <Genealogy>  (38) 
NC(=O)c1cc2ccc(-c3cccc(F)c3)cc2n1C(=O)[O-] (protonated)
NC(=O)c1cc2ccc(-c3cccc(F)c3)cc2n1C(=O)[O-] (3D coordinates assigned)
NC(=O)c1cc2ccc(-c3cccc(F)c3)cc2n1C(=O)[O-] (optimized conformer: 80.34815187820709 kcal/mol)

>  <smiles>  (38) 
NC(=O)c1cc2ccc(-c3cccc(F)c3)cc2n1C(=O)O

>  <score_type>  (38) 
oracle

>  <origin>  (38) 
adg

>  <m_score__min__energy>  (38) 
-9.9399999999999995

>  <m_primary>  (38) 
energy

$$$$
38:0
     RDKit          3D

 34 35  0  0  0  0  0  0  0  0999 V2000
   -6.4100   17.1050  -33.8850 C   0  0  0  0  0  0  0  0  0  0  0  0
   -5.6240   18.3020  -34.4210 C   0  0  0  0  0  0  0  0  0  0  0  0
   -4.8220   19.0180  -33.3130 C   0  0  1  0  0  0  0  0  0  0  0  0
   -3.4520   19.4660  -33.8370 C   0  0  0  0  0  0  0  0  0  0  0  0
   -5.5830   20.1990  -32.7320 C   0  0  0  0  0  0  0  0  0  0  0  0
   -6.9960   20.2500  -32.8480 C   0  0  0  0  0  0  0  0  0  0  0  0
   -7.7200   21.3420  -32.3430 C   0  0  0  0  0  0  0  0  0  0  0  0
   -7.0110   22.3620  -31.7180 C   0  0  0  0  0  0  0  0  0  0  0  0
   -7.4600   23.5440  -31.1770 C   0  0  0  0  0  0  0  0  0  0  0  0
   -6.3190   24.1890  -30.7070 C   0  0  0  0  0  0  0  0  0  0  0  0
   -6.3530   25.4800  -29.9910 C   0  0  0  0  0  0  0  0  0  0  0  0
   -5.5030   26.5610  -30.3750 N   0  0  0  0  0  0  0  0  0  0  0  0
   -7.1050   25.6120  -28.9890 O   0  0  0  0  0  0  0  0  0  0  0  0
   -5.2050   23.4440  -30.9590 N   0  0  0  0  0  0  0  0  0  0  0  0
   -3.8350   23.8170  -30.7310 C   0  0  0  0  0  0  0  0  0  0  0  0
   -2.9300   22.9420  -30.7310 O   0  0  0  0  0  0  0  0  0  0  0  0
   -3.4940   25.1440  -30.5050 O   0  0  0  0  0  0  0  0  0  0  0  0
   -5.6470   22.3260  -31.5780 C   0  0  0  0  0  0  0  0  0  0  0  0
   -4.8990   21.2600  -32.0920 C   0  0  0  0  0  0  0  0  0  0  0  0
   -6.3989   17.1219  -32.7852 H   0  0  0  0  0  0  0  0  0  0  0  0
   -7.4490   17.1590  -34.2421 H   0  0  0  0  0  0  0  0  0  0  0  0
   -5.9475   16.1730  -34.2421 H   0  0  0  0  0  0  0  0  0  0  0  0
   -4.9242   17.9491  -35.1928 H   0  0  0  0  0  0  0  0  0  0  0  0
   -6.3460   19.0221  -34.8335 H   0  0  0  0  0  0  0  0  0  0  0  0
   -4.6700   18.2921  -32.5006 H   0  0  0  0  0  0  0  0  0  0  0  0
   -2.7877   19.6832  -32.9876 H   0  0  0  0  0  0  0  0  0  0  0  0
   -3.0137   18.6644  -34.4496 H   0  0  0  0  0  0  0  0  0  0  0  0
   -3.5720   20.3717  -34.4496 H   0  0  0  0  0  0  0  0  0  0  0  0
   -7.5309   19.4240  -33.3395 H   0  0  0  0  0  0  0  0  0  0  0  0
   -8.8148   21.3892  -32.4389 H   0  0  0  0  0  0  0  0  0  0  0  0
   -8.4985   23.9031  -31.1264 H   0  0  0  0  0  0  0  0  0  0  0  0
   -5.5680   27.4790  -29.8810 H   0  0  0  0  0  0  0  0  0  0  0  0
   -4.7510   26.4280  -31.0870 H   0  0  0  0  0  0  0  0  0  0  0  0
   -3.8029   21.2473  -32.0004 H   0  0  0  0  0  0  0  0  0  0  0  0
  1  2  1  0
  2  3  1  0
  3  4  1  0
  3  5  1  0
  5  6  2  0
  6  7  1  0
  7  8  2  0
  8  9  1  0
  9 10  2  0
 10 11  1  0
 11 12  1  0
 11 13  2  0
 10 14  1  0
 14 15  1  0
 15 16  2  0
 15 17  1  0
 14 18  1  0
 18 19  2  0
 19  5  1  0
 18  8  1  0
  1 20  1  0
  1 21  1  0
  1 22  1  0
  2 23  1  0
  2 24  1  0
  3 25  1  1
  4 26  1  0
  4 27  1  0
  4 28  1  0
  6 29  1  0
  7 30  1  0
  9 31  1  0
 12 32  1  0
 12 33  1  0
 19 34  1  0
M  CHG  1  17  -1
M  END
>  <UniqueID>  (39) 
39

>  <SMILES>  (39) 
CC[C@@H](C)c1ccc2cc(C(N)=O)n(C(=O)[O-])c2c1

>  <Energy>  (39) 
68.74781813775054

>  <Genealogy>  (39) 
CCC(C)c1ccc2cc(C(N)=O)n(C(=O)[O-])c2c1 (protonated)
CC[C@@H](C)c1ccc2cc(C(N)=O)n(C(=O)[O-])c2c1 (chirality)
CC[C@@H](C)c1ccc2cc(C(N)=O)n(C(=O)[O-])c2c1 (3D coordinates assigned)
CC[C@@H](C)c1ccc2cc(C(N)=O)n(C(=O)[O-])c2c1 (optimized conformer: 68.74781813775054 kcal/mol)

>  <smiles>  (39) 
CCC(C)c1ccc2cc(C(N)=O)n(C(=O)O)c2c1

>  <score_type>  (39) 
oracle

>  <origin>  (39) 
adg

>  <m_score__min__energy>  (39) 
-8.9199999999999999

>  <m_primary>  (39) 
energy

$$$$
39:0
     RDKit          3D

 44 47  0  0  0  0  0  0  0  0999 V2000
   -3.6590   11.6880  -34.8300 C   0  0  0  0  0  0  0  0  0  0  0  0
   -3.7530   12.7950  -35.7900 N   0  0  0  0  0  0  0  0  0  0  0  0
   -3.5500   12.5150  -37.2170 C   0  0  0  0  0  0  0  0  0  0  0  0
   -4.0410   14.1440  -35.3360 C   0  0  0  0  0  0  0  0  0  0  0  0
   -3.1570   15.2070  -35.6220 C   0  0  0  0  0  0  0  0  0  0  0  0
   -3.4310   16.5060  -35.1860 C   0  0  0  0  0  0  0  0  0  0  0  0
   -4.5940   16.7720  -34.4560 C   0  0  0  0  0  0  0  0  0  0  0  0
   -4.8910   18.0640  -34.0060 C   0  0  0  0  0  0  0  0  0  0  0  0
   -6.0620   18.3060  -33.2690 C   0  0  0  0  0  0  0  0  0  0  0  0
   -6.3600   19.6800  -32.7910 C   0  0  0  0  0  0  0  0  0  0  0  0
   -7.6950   20.1590  -32.7670 C   0  0  0  0  0  0  0  0  0  0  0  0
   -7.9830   21.4580  -32.3180 C   0  0  0  0  0  0  0  0  0  0  0  0
   -6.9230   22.2500  -31.8870 C   0  0  0  0  0  0  0  0  0  0  0  0
   -6.9180   23.5470  -31.4280 C   0  0  0  0  0  0  0  0  0  0  0  0
   -5.5840   23.8340  -31.1470 C   0  0  0  0  0  0  0  0  0  0  0  0
   -5.1380   25.1080  -30.5460 C   0  0  0  0  0  0  0  0  0  0  0  0
   -3.8660   25.6650  -30.8650 N   0  0  0  0  0  0  0  0  0  0  0  0
   -5.8700   25.6880  -29.6990 O   0  0  0  0  0  0  0  0  0  0  0  0
   -4.7930   22.7590  -31.4300 N   0  0  0  0  0  0  0  0  0  0  0  0
   -3.3610   22.6730  -31.3580 C   0  0  0  0  0  0  0  0  0  0  0  0
   -2.7450   23.1310  -30.3600 O   0  0  0  0  0  0  0  0  0  0  0  0
   -2.6390   22.1070  -32.4020 O   0  0  0  0  0  0  0  0  0  0  0  0
   -5.6290   21.7960  -31.8780 C   0  0  0  0  0  0  0  0  0  0  0  0
   -5.3110   20.5130  -32.3390 C   0  0  0  0  0  0  0  0  0  0  0  0
   -6.9300   17.2250  -33.0100 C   0  0  0  0  0  0  0  0  0  0  0  0
   -8.0090   17.4000  -32.3830 O   0  0  0  0  0  0  0  0  0  0  0  0
   -6.6200   15.9790  -33.4560 N   0  0  0  0  0  0  0  0  0  0  0  0
   -5.4870   15.7240  -34.1610 C   0  0  0  0  0  0  0  0  0  0  0  0
   -5.2110   14.4240  -34.5990 C   0  0  0  0  0  0  0  0  0  0  0  0
   -3.6929   12.0872  -33.8056 H   0  0  0  0  0  0  0  0  0  0  0  0
   -4.5018   10.9977  -34.9826 H   0  0  0  0  0  0  0  0  0  0  0  0
   -2.7119   11.1497  -34.9826 H   0  0  0  0  0  0  0  0  0  0  0  0
   -2.9077   11.6291  -37.3291 H   0  0  0  0  0  0  0  0  0  0  0  0
   -4.5223   12.3259  -37.6955 H   0  0  0  0  0  0  0  0  0  0  0  0
   -3.0680   13.3803  -37.6955 H   0  0  0  0  0  0  0  0  0  0  0  0
   -2.2397   15.0099  -36.1961 H   0  0  0  0  0  0  0  0  0  0  0  0
   -2.7301   17.3216  -35.4175 H   0  0  0  0  0  0  0  0  0  0  0  0
   -4.2042   18.8934  -34.2306 H   0  0  0  0  0  0  0  0  0  0  0  0
   -8.5135   19.5058  -33.1038 H   0  0  0  0  0  0  0  0  0  0  0  0
   -9.0152   21.8380  -32.3073 H   0  0  0  0  0  0  0  0  0  0  0  0
   -7.7834   24.2154  -31.3083 H   0  0  0  0  0  0  0  0  0  0  0  0
   -2.9890   25.2710  -30.4570 H   0  0  0  0  0  0  0  0  0  0  0  0
   -4.2689   20.1611  -32.3493 H   0  0  0  0  0  0  0  0  0  0  0  0
   -5.9144   13.6110  -34.3660 H   0  0  0  0  0  0  0  0  0  0  0  0
  1  2  1  0
  2  3  1  0
  2  4  1  0
  4  5  2  0
  5  6  1  0
  6  7  2  0
  7  8  1  0
  8  9  2  0
  9 10  1  0
 10 11  2  0
 11 12  1  0
 12 13  2  0
 13 14  1  0
 14 15  2  0
 15 16  1  0
 16 17  1  0
 16 18  2  0
 15 19  1  0
 19 20  1  0
 20 21  2  0
 20 22  1  0
 19 23  1  0
 23 24  2  0
  9 25  1  0
 25 26  2  0
 25 27  1  0
 27 28  1  0
 28 29  2  0
 29  4  1  0
 28  7  1  0
 24 10  1  0
 23 13  1  0
  1 30  1  0
  1 31  1  0
  1 32  1  0
  3 33  1  0
  3 34  1  0
  3 35  1  0
  5 36  1  0
  6 37  1  0
  8 38  1  0
 11 39  1  0
 12 40  1  0
 14 41  1  0
 17 42  1  0
 24 43  1  0
 29 44  1  0
M  CHG  3  17  -1  22  -1  27  -1
M  END
>  <UniqueID>  (40) 
40

>  <SMILES>  (40) 
CN(C)c1ccc2cc(-c3ccc4cc(C([NH-])=O)n(C(=O)[O-])c4c3)c(=O)[n-]c2c1

>  <Energy>  (40) 
100.20791454736502

>  <Genealogy>  (40) 
CN(C)c1ccc2cc(-c3ccc4cc(C([NH-])=O)n(C(=O)[O-])c4c3)c(=O)[n-]c2c1 (protonated)
CN(C)c1ccc2cc(-c3ccc4cc(C([NH-])=O)n(C(=O)[O-])c4c3)c(=O)[n-]c2c1 (3D coordinates assigned)
CN(C)c1ccc2cc(-c3ccc4cc(C([NH-])=O)n(C(=O)[O-])c4c3)c(=O)[n-]c2c1 (optimized conformer: 100.20791454736502 kcal/mol)

>  <smiles>  (40) 
CN(C)c1ccc2cc(-c3ccc4cc(C(N)=O)n(C(=O)O)c4c3)c(=O)[nH]c2c1

>  <score_type>  (40) 
oracle

>  <origin>  (40) 
adg

>  <m_score__min__energy>  (40) 
-11.140000000000001

>  <m_primary>  (40) 
energy

$$$$
40:0
     RDKit          3D

 34 35  0  0  0  0  0  0  0  0999 V2000
   -3.8640   23.2030  -28.1220 C   0  0  0  0  0  0  0  0  0  0  0  0
   -2.9500   22.4710  -29.0910 C   0  0  0  0  0  0  0  0  0  0  0  0
   -2.9880   23.1160  -30.3590 O   0  0  0  0  0  0  0  0  0  0  0  0
   -3.8350   22.7050  -31.3920 C   0  0  0  0  0  0  0  0  0  0  0  0
   -3.3630   22.1380  -32.4160 O   0  0  0  0  0  0  0  0  0  0  0  0
   -5.2460   22.9550  -31.2980 N   0  0  0  0  0  0  0  0  0  0  0  0
   -5.8710   24.0640  -30.8090 C   0  0  0  0  0  0  0  0  0  0  0  0
   -5.2150   25.3270  -30.4110 C   0  0  0  0  0  0  0  0  0  0  0  0
   -3.8920   25.6350  -30.8380 N   0  0  0  0  0  0  0  0  0  0  0  0
   -5.8520   26.1700  -29.7230 O   0  0  0  0  0  0  0  0  0  0  0  0
   -7.2530   23.8870  -30.8110 C   0  0  0  0  0  0  0  0  0  0  0  0
   -7.4590   22.6280  -31.3290 C   0  0  0  0  0  0  0  0  0  0  0  0
   -8.6450   21.9370  -31.5560 C   0  0  0  0  0  0  0  0  0  0  0  0
   -8.5600   20.6370  -32.0820 C   0  0  0  0  0  0  0  0  0  0  0  0
   -7.3000   20.0510  -32.3560 C   0  0  0  0  0  0  0  0  0  0  0  0
   -7.2180   18.6640  -32.9370 C   0  0  0  0  0  0  0  0  0  0  0  0
   -5.9780   18.5110  -33.8170 C   0  0  0  0  0  0  0  0  0  0  0  0
   -5.8320   17.1860  -34.1820 F   0  0  0  0  0  0  0  0  0  0  0  0
   -6.1030   19.2820  -34.9580 F   0  0  0  0  0  0  0  0  0  0  0  0
   -6.1160   20.7860  -32.1210 C   0  0  0  0  0  0  0  0  0  0  0  0
   -6.2320   22.0870  -31.6150 C   0  0  0  0  0  0  0  0  0  0  0  0
   -3.5684   22.9663  -27.0892 H   0  0  0  0  0  0  0  0  0  0  0  0
   -3.7811   24.2873  -28.2877 H   0  0  0  0  0  0  0  0  0  0  0  0
   -4.9040   22.8852  -28.2877 H   0  0  0  0  0  0  0  0  0  0  0  0
   -1.9203   22.4834  -28.7041 H   0  0  0  0  0  0  0  0  0  0  0  0
   -3.2889   21.4301  -29.1991 H   0  0  0  0  0  0  0  0  0  0  0  0
   -3.0620   25.2860  -30.3100 H   0  0  0  0  0  0  0  0  0  0  0  0
   -8.0172   24.6014  -30.4710 H   0  0  0  0  0  0  0  0  0  0  0  0
   -9.6196   22.3946  -31.3305 H   0  0  0  0  0  0  0  0  0  0  0  0
   -9.4804   20.0691  -32.2829 H   0  0  0  0  0  0  0  0  0  0  0  0
   -7.1693   17.9327  -32.1167 H   0  0  0  0  0  0  0  0  0  0  0  0
   -8.1105   18.4901  -33.5560 H   0  0  0  0  0  0  0  0  0  0  0  0
   -5.0969   18.8441  -33.2488 H   0  0  0  0  0  0  0  0  0  0  0  0
   -5.1289   20.3478  -32.3300 H   0  0  0  0  0  0  0  0  0  0  0  0
  1  2  1  0
  2  3  1  0
  3  4  1  0
  4  5  2  0
  4  6  1  0
  6  7  1  0
  7  8  1  0
  8  9  1  0
  8 10  2  0
  7 11  2  0
 11 12  1  0
 12 13  2  0
 13 14  1  0
 14 15  2  0
 15 16  1  0
 16 17  1  0
 17 18  1  0
 17 19  1  0
 15 20  1  0
 20 21  2  0
 21  6  1  0
 21 12  1  0
  1 22  1  0
  1 23  1  0
  1 24  1  0
  2 25  1  0
  2 26  1  0
  9 27  1  0
 11 28  1  0
 13 29  1  0
 14 30  1  0
 16 31  1  0
 16 32  1  0
 17 33  1  0
 20 34  1  0
M  CHG  1   9  -1
M  END
>  <UniqueID>  (41) 
41

>  <SMILES>  (41) 
CCOC(=O)n1c(C([NH-])=O)cc2ccc(CC(F)F)cc21

>  <Energy>  (41) 
65.21103745566676

>  <Genealogy>  (41) 
CCOC(=O)n1c(C([NH-])=O)cc2ccc(CC(F)F)cc21 (protonated)
CCOC(=O)n1c(C([NH-])=O)cc2ccc(CC(F)F)cc21 (3D coordinates assigned)
CCOC(=O)n1c(C([NH-])=O)cc2ccc(CC(F)F)cc21 (optimized conformer: 65.21103745566676 kcal/mol)

>  <smiles>  (41) 
CCOC(=O)n1c(C(N)=O)cc2ccc(CC(F)F)cc21

>  <score_type>  (41) 
oracle

>  <origin>  (41) 
adg

>  <m_score__min__energy>  (41) 
-9.1099999999999994

>  <m_primary>  (41) 
energy

$$$$
41:0
     RDKit          3D

 34 36  0  0  0  0  0  0  0  0999 V2000
   -6.1400   17.2000  -30.8460 C   0  0  0  0  0  0  0  0  0  0  0  0
   -5.7420   17.0680  -32.2930 C   0  0  0  0  0  0  0  0  0  0  0  0
   -5.4290   15.7930  -32.7970 C   0  0  0  0  0  0  0  0  0  0  0  0
   -5.0340   15.6310  -34.1250 C   0  0  0  0  0  0  0  0  0  0  0  0
   -4.9510   16.7370  -34.9700 C   0  0  0  0  0  0  0  0  0  0  0  0
   -5.2750   18.0080  -34.4930 C   0  0  0  0  0  0  0  0  0  0  0  0
   -5.6880   18.1880  -33.1620 C   0  0  0  0  0  0  0  0  0  0  0  0
   -6.0510   19.5510  -32.7110 C   0  0  0  0  0  0  0  0  0  0  0  0
   -7.4070   19.9590  -32.7180 C   0  0  0  0  0  0  0  0  0  0  0  0
   -7.7680   21.2500  -32.2970 C   0  0  0  0  0  0  0  0  0  0  0  0
   -6.7560   22.1010  -31.8610 C   0  0  0  0  0  0  0  0  0  0  0  0
   -6.8230   23.4040  -31.4260 C   0  0  0  0  0  0  0  0  0  0  0  0
   -5.5100   23.7600  -31.1240 C   0  0  0  0  0  0  0  0  0  0  0  0
   -5.1390   25.0620  -30.5340 C   0  0  0  0  0  0  0  0  0  0  0  0
   -3.8900   25.6770  -30.8420 N   0  0  0  0  0  0  0  0  0  0  0  0
   -5.9110   25.6170  -29.7070 O   0  0  0  0  0  0  0  0  0  0  0  0
   -4.6630   22.7220  -31.3730 N   0  0  0  0  0  0  0  0  0  0  0  0
   -3.2280   22.7200  -31.2860 C   0  0  0  0  0  0  0  0  0  0  0  0
   -2.5340   22.2610  -32.2320 O   0  0  0  0  0  0  0  0  0  0  0  0
   -2.5920   23.2500  -30.1710 O   0  0  0  0  0  0  0  0  0  0  0  0
   -5.4420   21.7110  -31.8210 C   0  0  0  0  0  0  0  0  0  0  0  0
   -5.0520   20.4380  -32.2510 C   0  0  0  0  0  0  0  0  0  0  0  0
   -5.2914   16.9186  -30.2052 H   0  0  0  0  0  0  0  0  0  0  0  0
   -6.4269   18.2414  -30.6381 H   0  0  0  0  0  0  0  0  0  0  0  0
   -6.9923   16.5364  -30.6381 H   0  0  0  0  0  0  0  0  0  0  0  0
   -5.4963   14.9150  -32.1377 H   0  0  0  0  0  0  0  0  0  0  0  0
   -4.7876   14.6290  -34.5062 H   0  0  0  0  0  0  0  0  0  0  0  0
   -4.6297   16.6076  -36.0140 H   0  0  0  0  0  0  0  0  0  0  0  0
   -5.2065   18.8763  -35.1648 H   0  0  0  0  0  0  0  0  0  0  0  0
   -8.1850   19.2587  -33.0562 H   0  0  0  0  0  0  0  0  0  0  0  0
   -8.8178   21.5782  -32.3114 H   0  0  0  0  0  0  0  0  0  0  0  0
   -7.7218   24.0316  -31.3357 H   0  0  0  0  0  0  0  0  0  0  0  0
   -2.9930   25.2770  -30.4900 H   0  0  0  0  0  0  0  0  0  0  0  0
   -3.9946   20.1354  -32.2314 H   0  0  0  0  0  0  0  0  0  0  0  0
  1  2  1  0
  2  3  2  0
  3  4  1  0
  4  5  2  0
  5  6  1  0
  6  7  2  0
  7  8  1  0
  8  9  2  0
  9 10  1  0
 10 11  2  0
 11 12  1  0
 12 13  2  0
 13 14  1  0
 14 15  1  0
 14 16  2  0
 13 17  1  0
 17 18  1  0
 18 19  2  0
 18 20  1  0
 17 21  1  0
 21 22  2  0
  7  2  1  0
 22  8  1  0
 21 11  1  0
  1 23  1  0
  1 24  1  0
  1 25  1  0
  3 26  1  0
  4 27  1  0
  5 28  1  0
  6 29  1  0
  9 30  1  0
 10 31  1  0
 12 32  1  0
 15 33  1  0
 22 34  1  0
M  CHG  2  15  -1  20  -1
M  END
>  <UniqueID>  (42) 
42

>  <SMILES>  (42) 
Cc1ccccc1-c1ccc2cc(C([NH-])=O)n(C(=O)[O-])c2c1

>  <Energy>  (42) 
83.80155135638672

>  <Genealogy>  (42) 
Cc1ccccc1-c1ccc2cc(C([NH-])=O)n(C(=O)[O-])c2c1 (protonated)
Cc1ccccc1-c1ccc2cc(C([NH-])=O)n(C(=O)[O-])c2c1 (3D coordinates assigned)
Cc1ccccc1-c1ccc2cc(C([NH-])=O)n(C(=O)[O-])c2c1 (optimized conformer: 83.80155135638672 kcal/mol)

>  <smiles>  (42) 
Cc1ccccc1-c1ccc2cc(C(N)=O)n(C(=O)O)c2c1

>  <score_type>  (42) 
oracle

>  <origin>  (42) 
adg

>  <m_score__min__energy>  (42) 
-11.710000000000001

>  <m_primary>  (42) 
energy

$$$$
42:0
     RDKit          3D

 35 37  0  0  0  0  0  0  0  0999 V2000
   -6.3290   25.7240  -28.9390 N   0  0  0  0  0  0  0  0  0  0  0  0
   -5.8500   25.3040  -30.2180 C   0  0  0  0  0  0  0  0  0  0  0  0
   -5.0340   26.0340  -30.8420 O   0  0  0  0  0  0  0  0  0  0  0  0
   -6.2400   24.0000  -30.7900 C   0  0  0  0  0  0  0  0  0  0  0  0
   -7.5650   23.6000  -30.9460 C   0  0  0  0  0  0  0  0  0  0  0  0
   -7.5020   22.3760  -31.5700 C   0  0  0  0  0  0  0  0  0  0  0  0
   -8.5260   21.5190  -31.9570 C   0  0  0  0  0  0  0  0  0  0  0  0
   -8.1730   20.2960  -32.5520 C   0  0  0  0  0  0  0  0  0  0  0  0
   -6.8100   19.9470  -32.7370 C   0  0  0  0  0  0  0  0  0  0  0  0
   -6.4550   18.6890  -33.3400 N   0  0  0  0  0  0  0  0  0  0  0  0
   -5.8020   18.6540  -34.6520 C   0  0  0  0  0  0  0  0  0  0  0  0
   -4.9400   17.3930  -34.7650 C   0  0  0  0  0  0  0  0  0  0  0  0
   -5.6960   16.2360  -34.4540 O   0  0  0  0  0  0  0  0  0  0  0  0
   -6.0960   16.2760  -33.0980 C   0  0  0  0  0  0  0  0  0  0  0  0
   -7.0550   17.4450  -32.8480 C   0  0  0  0  0  0  0  0  0  0  0  0
   -5.7990   20.8470  -32.3330 C   0  0  0  0  0  0  0  0  0  0  0  0
   -6.1790   22.0680  -31.7610 C   0  0  0  0  0  0  0  0  0  0  0  0
   -5.3890   23.0580  -31.2840 N   0  0  0  0  0  0  0  0  0  0  0  0
   -3.9530   23.0520  -31.1970 C   0  0  0  0  0  0  0  0  0  0  0  0
   -3.3030   22.0050  -31.4510 O   0  0  0  0  0  0  0  0  0  0  0  0
   -3.2690   24.2010  -30.8230 O   0  0  0  0  0  0  0  0  0  0  0  0
   -6.8700   25.0740  -28.3280 H   0  0  0  0  0  0  0  0  0  0  0  0
   -6.0710   26.6650  -28.5670 H   0  0  0  0  0  0  0  0  0  0  0  0
   -8.4683   24.1461  -30.6364 H   0  0  0  0  0  0  0  0  0  0  0  0
   -9.5807   21.7902  -31.8021 H   0  0  0  0  0  0  0  0  0  0  0  0
   -8.9616   19.6017  -32.8778 H   0  0  0  0  0  0  0  0  0  0  0  0
   -6.5678   18.6456  -35.4417 H   0  0  0  0  0  0  0  0  0  0  0  0
   -5.1644   19.5431  -34.7659 H   0  0  0  0  0  0  0  0  0  0  0  0
   -4.5581   17.3084  -35.7931 H   0  0  0  0  0  0  0  0  0  0  0  0
   -4.1064   17.4712  -34.0515 H   0  0  0  0  0  0  0  0  0  0  0  0
   -6.6024   15.3333  -32.8434 H   0  0  0  0  0  0  0  0  0  0  0  0
   -5.2028   16.4122  -32.4707 H   0  0  0  0  0  0  0  0  0  0  0  0
   -8.0017   17.2612  -33.3772 H   0  0  0  0  0  0  0  0  0  0  0  0
   -7.2471   17.5347  -31.7686 H   0  0  0  0  0  0  0  0  0  0  0  0
   -4.7365   20.5946  -32.4647 H   0  0  0  0  0  0  0  0  0  0  0  0
  1  2  1  0
  2  3  2  0
  2  4  1  0
  4  5  2  0
  5  6  1  0
  6  7  2  0
  7  8  1  0
  8  9  2  0
  9 10  1  0
 10 11  1  0
 11 12  1  0
 12 13  1  0
 13 14  1  0
 14 15  1  0
  9 16  1  0
 16 17  2  0
 17 18  1  0
 18 19  1  0
 19 20  2  0
 19 21  1  0
 18  4  1  0
 17  6  1  0
 15 10  1  0
  1 22  1  0
  1 23  1  0
  5 24  1  0
  7 25  1  0
  8 26  1  0
 11 27  1  0
 11 28  1  0
 12 29  1  0
 12 30  1  0
 14 31  1  0
 14 32  1  0
 15 33  1  0
 15 34  1  0
 16 35  1  0
M  CHG  1  21  -1
M  END
>  <UniqueID>  (43) 
43

>  <SMILES>  (43) 
NC(=O)c1cc2ccc(N3CCOCC3)cc2n1C(=O)[O-]

>  <Energy>  (43) 
81.83780001122697

>  <Genealogy>  (43) 
NC(=O)c1cc2ccc(N3CCOCC3)cc2n1C(=O)[O-] (protonated)
NC(=O)c1cc2ccc(N3CCOCC3)cc2n1C(=O)[O-] (3D coordinates assigned)
NC(=O)c1cc2ccc(N3CCOCC3)cc2n1C(=O)[O-] (nonaromatic ring conformer: 81.83780001122697 kcal/mol)

>  <smiles>  (43) 
NC(=O)c1cc2ccc(N3CCOCC3)cc2n1C(=O)O

>  <score_type>  (43) 
oracle

>  <origin>  (43) 
adg

>  <m_score__min__energy>  (43) 
-9.3399999999999999

>  <m_primary>  (43) 
energy

$$$$
43:0
     RDKit          3D

 33 35  0  0  0  0  0  0  0  0999 V2000
   -1.5710   26.0370  -28.9070 N   0  0  0  0  0  0  0  0  0  0  0  0
   -0.8560   24.8050  -28.8580 C   0  0  0  0  0  0  0  0  0  0  0  0
    0.2320   24.7480  -28.2260 O   0  0  0  0  0  0  0  0  0  0  0  0
   -1.3420   23.6140  -29.5860 C   0  0  0  0  0  0  0  0  0  0  0  0
   -0.5300   22.5280  -29.9050 C   0  0  0  0  0  0  0  0  0  0  0  0
   -1.3220   21.6870  -30.6520 C   0  0  0  0  0  0  0  0  0  0  0  0
   -1.0270   20.4530  -31.2210 C   0  0  0  0  0  0  0  0  0  0  0  0
   -2.0490   19.7870  -31.9170 C   0  0  0  0  0  0  0  0  0  0  0  0
   -3.3440   20.3570  -32.0270 C   0  0  0  0  0  0  0  0  0  0  0  0
   -4.4210   19.6380  -32.7560 C   0  0  0  0  0  0  0  0  0  0  0  0
   -4.1200   18.8670  -33.8920 C   0  0  0  0  0  0  0  0  0  0  0  0
   -5.1320   18.1900  -34.5750 C   0  0  0  0  0  0  0  0  0  0  0  0
   -6.4550   18.2740  -34.1360 C   0  0  0  0  0  0  0  0  0  0  0  0
   -6.7810   19.0390  -33.0020 C   0  0  0  0  0  0  0  0  0  0  0  0
   -8.1810   19.1330  -32.5350 C   0  0  0  0  0  0  0  0  0  0  0  0
   -8.7220   18.1690  -31.9310 O   0  0  0  0  0  0  0  0  0  0  0  0
   -8.9220   20.2900  -32.7560 O   0  0  0  0  0  0  0  0  0  0  0  0
   -5.7570   19.7180  -32.3180 C   0  0  0  0  0  0  0  0  0  0  0  0
   -3.6030   21.6150  -31.4330 C   0  0  0  0  0  0  0  0  0  0  0  0
   -2.5600   22.2640  -30.7620 C   0  0  0  0  0  0  0  0  0  0  0  0
   -2.5900   23.4480  -30.1080 N   0  0  0  0  0  0  0  0  0  0  0  0
   -3.7370   24.2930  -29.9270 C   0  0  0  0  0  0  0  0  0  0  0  0
   -4.6240   23.9920  -29.0850 O   0  0  0  0  0  0  0  0  0  0  0  0
   -3.8660   25.4680  -30.6590 O   0  0  0  0  0  0  0  0  0  0  0  0
   -2.6140   26.0510  -28.9510 H   0  0  0  0  0  0  0  0  0  0  0  0
    0.5214   22.3753  -29.6201 H   0  0  0  0  0  0  0  0  0  0  0  0
   -0.0236   20.0118  -31.1288 H   0  0  0  0  0  0  0  0  0  0  0  0
   -1.8432   18.8118  -32.3825 H   0  0  0  0  0  0  0  0  0  0  0  0
   -3.0806   18.7966  -34.2451 H   0  0  0  0  0  0  0  0  0  0  0  0
   -4.8863   17.5881  -35.4623 H   0  0  0  0  0  0  0  0  0  0  0  0
   -7.2468   17.7386  -34.6805 H   0  0  0  0  0  0  0  0  0  0  0  0
   -6.0026   20.3190  -31.4300 H   0  0  0  0  0  0  0  0  0  0  0  0
   -4.6013   22.0725  -31.4971 H   0  0  0  0  0  0  0  0  0  0  0  0
  1  2  1  0
  2  3  2  0
  2  4  1  0
  4  5  2  0
  5  6  1  0
  6  7  2  0
  7  8  1  0
  8  9  2  0
  9 10  1  0
 10 11  2  0
 11 12  1  0
 12 13  2  0
 13 14  1  0
 14 15  1  0
 15 16  2  0
 15 17  1  0
 14 18  2  0
  9 19  1  0
 19 20  2  0
 20 21  1  0
 21 22  1  0
 22 23  2  0
 22 24  1  0
 21  4  1  0
 20  6  1  0
 18 10  1  0
  1 25  1  0
  5 26  1  0
  7 27  1  0
  8 28  1  0
 11 29  1  0
 12 30  1  0
 13 31  1  0
 18 32  1  0
 19 33  1  0
M  CHG  3   1  -1  17  -1  24  -1
M  END
>  <UniqueID>  (44) 
44

>  <SMILES>  (44) 
[NH-]C(=O)c1cc2ccc(-c3cccc(C(=O)[O-])c3)cc2n1C(=O)[O-]

>  <Energy>  (44) 
81.86773347667861

>  <Genealogy>  (44) 
[NH-]C(=O)c1cc2ccc(-c3cccc(C(=O)[O-])c3)cc2n1C(=O)[O-] (protonated)
[NH-]C(=O)c1cc2ccc(-c3cccc(C(=O)[O-])c3)cc2n1C(=O)[O-] (3D coordinates assigned)
[NH-]C(=O)c1cc2ccc(-c3cccc(C(=O)[O-])c3)cc2n1C(=O)[O-] (optimized conformer: 81.86773347667861 kcal/mol)

>  <smiles>  (44) 
NC(=O)c1cc2ccc(-c3cccc(C(=O)O)c3)cc2n1C(=O)O

>  <score_type>  (44) 
oracle

>  <origin>  (44) 
adg

>  <m_score__min__energy>  (44) 
-11.949999999999999

>  <m_primary>  (44) 
energy

$$$$
44:0
     RDKit          3D

 39 41  0  0  0  0  0  0  0  0999 V2000
   -1.4060   21.4940  -31.7590 C   0  0  0  0  0  0  0  0  0  0  0  0
   -2.7120   22.0010  -32.0040 O   0  0  0  0  0  0  0  0  0  0  0  0
   -3.4530   22.6780  -31.0310 C   0  0  0  0  0  0  0  0  0  0  0  0
   -2.8800   23.1560  -30.0130 O   0  0  0  0  0  0  0  0  0  0  0  0
   -4.8750   22.8060  -31.1790 N   0  0  0  0  0  0  0  0  0  0  0  0
   -5.6550   23.8870  -30.8900 C   0  0  0  0  0  0  0  0  0  0  0  0
   -5.1720   25.2290  -30.5030 C   0  0  0  0  0  0  0  0  0  0  0  0
   -3.8600   25.6650  -30.8470 N   0  0  0  0  0  0  0  0  0  0  0  0
   -5.9470   26.0210  -29.9020 O   0  0  0  0  0  0  0  0  0  0  0  0
   -7.0010   23.5850  -31.0880 C   0  0  0  0  0  0  0  0  0  0  0  0
   -7.0220   22.2790  -31.5210 C   0  0  0  0  0  0  0  0  0  0  0  0
   -8.1000   21.4660  -31.8570 C   0  0  0  0  0  0  0  0  0  0  0  0
   -7.8300   20.1430  -32.2440 C   0  0  0  0  0  0  0  0  0  0  0  0
   -6.4980   19.6520  -32.2820 C   0  0  0  0  0  0  0  0  0  0  0  0
   -6.2250   18.2470  -32.6800 C   0  0  0  0  0  0  0  0  0  0  0  0
   -6.4410   17.8190  -33.9980 C   0  0  0  0  0  0  0  0  0  0  0  0
   -6.1810   16.4970  -34.3610 C   0  0  0  0  0  0  0  0  0  0  0  0
   -5.7020   15.5950  -33.3970 C   0  0  0  0  0  0  0  0  0  0  0  0
   -5.4230   14.2530  -33.7030 O   0  0  0  0  0  0  0  0  0  0  0  0
   -6.2410   13.4290  -34.5260 C   0  0  0  0  0  0  0  0  0  0  0  0
   -5.4980   16.0280  -32.1220 N   0  0  0  0  0  0  0  0  0  0  0  0
   -5.7450   17.3130  -31.7480 C   0  0  0  0  0  0  0  0  0  0  0  0
   -5.4310   20.5130  -31.9310 C   0  0  0  0  0  0  0  0  0  0  0  0
   -5.7280   21.8320  -31.5680 C   0  0  0  0  0  0  0  0  0  0  0  0
   -1.2358   21.4279  -30.6742 H   0  0  0  0  0  0  0  0  0  0  0  0
   -1.3111   20.4937  -32.2066 H   0  0  0  0  0  0  0  0  0  0  0  0
   -0.6610   22.1682  -32.2066 H   0  0  0  0  0  0  0  0  0  0  0  0
   -3.0220   25.2840  -30.3550 H   0  0  0  0  0  0  0  0  0  0  0  0
   -7.8635   24.2495  -30.9314 H   0  0  0  0  0  0  0  0  0  0  0  0
   -9.1312   21.8473  -31.8207 H   0  0  0  0  0  0  0  0  0  0  0  0
   -8.6614   19.4783  -32.5213 H   0  0  0  0  0  0  0  0  0  0  0  0
   -6.8172   18.5290  -34.7493 H   0  0  0  0  0  0  0  0  0  0  0  0
   -6.3501   16.1635  -35.3955 H   0  0  0  0  0  0  0  0  0  0  0  0
   -6.8743   12.7911  -33.8919 H   0  0  0  0  0  0  0  0  0  0  0  0
   -6.8779   14.0623  -35.1611 H   0  0  0  0  0  0  0  0  0  0  0  0
   -5.6031   12.7968  -35.1611 H   0  0  0  0  0  0  0  0  0  0  0  0
   -5.1370   15.3570  -31.4070 H   0  0  0  0  0  0  0  0  0  0  0  0
   -5.5672   17.6223  -30.7075 H   0  0  0  0  0  0  0  0  0  0  0  0
   -4.3914   20.1537  -31.9432 H   0  0  0  0  0  0  0  0  0  0  0  0
  1  2  1  0
  2  3  1  0
  3  4  2  0
  3  5  1  0
  5  6  1  0
  6  7  1  0
  7  8  1  0
  7  9  2  0
  6 10  2  0
 10 11  1  0
 11 12  2  0
 12 13  1  0
 13 14  2  0
 14 15  1  0
 15 16  2  0
 16 17  1  0
 17 18  2  0
 18 19  1  0
 19 20  1  0
 18 21  1  0
 21 22  2  0
 14 23  1  0
 23 24  2  0
 24  5  1  0
 24 11  1  0
 22 15  1  0
  1 25  1  0
  1 26  1  0
  1 27  1  0
  8 28  1  0
 10 29  1  0
 12 30  1  0
 13 31  1  0
 16 32  1  0
 17 33  1  0
 20 34  1  0
 20 35  1  0
 20 36  1  0
 21 37  1  0
 22 38  1  0
 23 39  1  0
M  CHG  2   8  -1  21   1
M  END
>  <UniqueID>  (45) 
45

>  <SMILES>  (45) 
COC(=O)n1c(C([NH-])=O)cc2ccc(-c3ccc(OC)[nH+]c3)cc21

>  <Energy>  (45) 
83.3989379921889

>  <Genealogy>  (45) 
COC(=O)n1c(C([NH-])=O)cc2ccc(-c3ccc(OC)[nH+]c3)cc21 (protonated)
COC(=O)n1c(C([NH-])=O)cc2ccc(-c3ccc(OC)[nH+]c3)cc21 (3D coordinates assigned)
COC(=O)n1c(C([NH-])=O)cc2ccc(-c3ccc(OC)[nH+]c3)cc21 (optimized conformer: 83.3989379921889 kcal/mol)

>  <smiles>  (45) 
COC(=O)n1c(C(N)=O)cc2ccc(-c3ccc(OC)nc3)cc21

>  <score_type>  (45) 
oracle

>  <origin>  (45) 
adg

>  <m_score__min__energy>  (45) 
-9.3800000000000008

>  <m_primary>  (45) 
energy

$$$$
45:0
     RDKit          3D

 53 56  0  0  0  0  0  0  0  0999 V2000
    1.7240   19.4460  -34.5550 N   0  0  0  0  0  0  0  0  0  0  0  0
    1.3030   19.1680  -33.2190 C   0  0  0  0  0  0  0  0  0  0  0  0
    1.7450   18.1440  -32.6320 O   0  0  0  0  0  0  0  0  0  0  0  0
    0.3110   20.0230  -32.5380 C   0  0  0  0  0  0  0  0  0  0  0  0
    0.4940   20.5420  -31.2600 C   0  0  0  0  0  0  0  0  0  0  0  0
   -0.6720   21.2120  -30.9690 C   0  0  0  0  0  0  0  0  0  0  0  0
   -1.0340   21.9230  -29.8290 C   0  0  0  0  0  0  0  0  0  0  0  0
   -2.2940   22.5430  -29.8120 C   0  0  0  0  0  0  0  0  0  0  0  0
   -3.1590   22.4570  -30.9320 C   0  0  0  0  0  0  0  0  0  0  0  0
   -4.4880   23.1160  -30.9090 C   0  0  0  0  0  0  0  0  0  0  0  0
   -5.6450   22.3530  -31.1510 C   0  0  0  0  0  0  0  0  0  0  0  0
   -6.9140   22.9480  -31.1310 C   0  0  0  0  0  0  0  0  0  0  0  0
   -8.1410   22.1280  -31.4270 C   0  0  0  0  0  0  0  0  0  0  0  0
   -7.7970   20.9510  -32.3400 C   0  0  0  0  0  0  0  0  0  0  0  0
   -8.9630   20.4200  -32.9080 O   0  0  0  0  0  0  0  0  0  0  0  0
   -7.0250   24.3250  -30.8880 C   0  0  0  0  0  0  0  0  0  0  0  0
   -5.8830   25.0930  -30.6530 C   0  0  0  0  0  0  0  0  0  0  0  0
   -6.0060   26.4250  -30.4250 F   0  0  0  0  0  0  0  0  0  0  0  0
   -4.6160   24.4980  -30.6660 C   0  0  0  0  0  0  0  0  0  0  0  0
   -3.4930   25.2930  -30.4640 O   0  0  0  0  0  0  0  0  0  0  0  0
   -2.7560   21.7230  -32.0700 C   0  0  0  0  0  0  0  0  0  0  0  0
   -1.5050   21.0940  -32.0520 C   0  0  0  0  0  0  0  0  0  0  0  0
   -0.9140   20.3680  -33.0270 N   0  0  0  0  0  0  0  0  0  0  0  0
   -1.4340   20.1110  -34.3410 C   0  0  0  0  0  0  0  0  0  0  0  0
   -0.8510   20.5910  -35.3510 O   0  0  0  0  0  0  0  0  0  0  0  0
   -2.5960   19.3440  -34.4910 O   0  0  0  0  0  0  0  0  0  0  0  0
   -3.2870   18.7180  -33.4130 C   0  0  0  0  0  0  0  0  0  0  0  0
   -4.7480   19.1920  -33.3710 C   0  0  0  0  0  0  0  0  0  0  0  0
   -5.6200   18.4950  -32.3260 C   0  0  0  0  0  0  0  0  0  0  0  0
   -6.4880   17.9180  -33.4360 C   0  0  0  0  0  0  0  0  0  0  0  0
   -5.6110   18.5960  -34.4800 C   0  0  0  0  0  0  0  0  0  0  0  0
    2.4620   18.8580  -35.0050 H   0  0  0  0  0  0  0  0  0  0  0  0
    1.2460   20.1740  -35.1290 H   0  0  0  0  0  0  0  0  0  0  0  0
    1.3818   20.4387  -30.6188 H   0  0  0  0  0  0  0  0  0  0  0  0
   -0.3541   21.9972  -28.9675 H   0  0  0  0  0  0  0  0  0  0  0  0
   -2.6133   23.1016  -28.9198 H   0  0  0  0  0  0  0  0  0  0  0  0
   -5.5527   21.2767  -31.3584 H   0  0  0  0  0  0  0  0  0  0  0  0
   -8.5549   21.7438  -30.4830 H   0  0  0  0  0  0  0  0  0  0  0  0
   -8.8787   22.7662  -31.9355 H   0  0  0  0  0  0  0  0  0  0  0  0
   -7.1277   21.2968  -33.1415 H   0  0  0  0  0  0  0  0  0  0  0  0
   -7.3003   20.1699  -31.7457 H   0  0  0  0  0  0  0  0  0  0  0  0
   -8.7040   20.0500  -33.7930 H   0  0  0  0  0  0  0  0  0  0  0  0
   -8.0162   24.8019  -30.8826 H   0  0  0  0  0  0  0  0  0  0  0  0
   -3.4106   21.6473  -32.9508 H   0  0  0  0  0  0  0  0  0  0  0  0
   -3.2630   17.6270  -33.5511 H   0  0  0  0  0  0  0  0  0  0  0  0
   -2.7952   18.9883  -32.4669 H   0  0  0  0  0  0  0  0  0  0  0  0
   -4.5745   20.2762  -33.3048 H   0  0  0  0  0  0  0  0  0  0  0  0
   -5.0891   17.7372  -31.7311 H   0  0  0  0  0  0  0  0  0  0  0  0
   -6.0742   19.0707  -31.5061 H   0  0  0  0  0  0  0  0  0  0  0  0
   -6.4785   16.8192  -33.4875 H   0  0  0  0  0  0  0  0  0  0  0  0
   -7.5756   18.0825  -33.4328 H   0  0  0  0  0  0  0  0  0  0  0  0
   -5.0753   17.8966  -35.1387 H   0  0  0  0  0  0  0  0  0  0  0  0
   -6.0595   19.2461  -35.2456 H   0  0  0  0  0  0  0  0  0  0  0  0
  1  2  1  0
  2  3  2  0
  2  4  1  0
  4  5  2  0
  5  6  1  0
  6  7  2  0
  7  8  1  0
  8  9  2  0
  9 10  1  0
 10 11  2  0
 11 12  1  0
 12 13  1  0
 13 14  1  0
 14 15  1  0
 12 16  2  0
 16 17  1  0
 17 18  1  0
 17 19  2  0
 19 20  1  0
  9 21  1  0
 21 22  2  0
 22 23  1  0
 23 24  1  0
 24 25  2  0
 24 26  1  0
 26 27  1  0
 27 28  1  0
 28 29  1  0
 29 30  1  0
 30 31  1  0
 23  4  1  0
 31 28  1  0
 22  6  1  0
 19 10  1  0
  1 32  1  0
  1 33  1  0
  5 34  1  0
  7 35  1  0
  8 36  1  0
 11 37  1  0
 13 38  1  0
 13 39  1  0
 14 40  1  0
 14 41  1  0
 15 42  1  0
 16 43  1  0
 21 44  1  0
 27 45  1  0
 27 46  1  0
 28 47  1  0
 29 48  1  0
 29 49  1  0
 30 50  1  0
 30 51  1  0
 31 52  1  0
 31 53  1  0
M  CHG  1  20  -1
M  END
>  <UniqueID>  (46) 
46

>  <SMILES>  (46) 
NC(=O)c1cc2ccc(-c3cc(CCO)cc(F)c3[O-])cc2n1C(=O)OCC1CCC1

>  <Energy>  (46) 
156.30261436482272

>  <Genealogy>  (46) 
NC(=O)c1cc2ccc(-c3cc(CCO)cc(F)c3[O-])cc2n1C(=O)OCC1CCC1 (protonated)
NC(=O)c1cc2ccc(-c3cc(CCO)cc(F)c3[O-])cc2n1C(=O)OCC1CCC1 (3D coordinates assigned)
NC(=O)c1cc2ccc(-c3cc(CCO)cc(F)c3[O-])cc2n1C(=O)OCC1CCC1 (nonaromatic ring conformer: 156.30261436482272 kcal/mol)

>  <smiles>  (46) 
NC(=O)c1cc2ccc(-c3cc(CCO)cc(F)c3O)cc2n1C(=O)OCC1CCC1

>  <score_type>  (46) 
oracle

>  <origin>  (46) 
adg

>  <m_score__min__energy>  (46) 
-10.82

>  <m_primary>  (46) 
energy

$$$$
46:0
     RDKit          3D

 34 35  0  0  0  0  0  0  0  0999 V2000
   -8.8050   20.8720  -31.5800 C   0  0  0  0  0  0  0  0  0  0  0  0
   -8.9570   19.4170  -32.0060 C   0  0  0  0  0  0  0  0  0  0  0  0
   -7.6870   18.7690  -32.0330 O   0  0  0  0  0  0  0  0  0  0  0  0
   -6.8480   18.7660  -33.1520 C   0  0  0  0  0  0  0  0  0  0  0  0
   -6.5980   17.6950  -33.7700 O   0  0  0  0  0  0  0  0  0  0  0  0
   -6.2860   20.0580  -33.6490 C   0  0  0  0  0  0  0  0  0  0  0  0
   -5.0830   20.4350  -32.8310 C   0  0  0  0  0  0  0  0  0  0  0  0
   -3.9240   19.6190  -32.8530 C   0  0  0  0  0  0  0  0  0  0  0  0
   -2.7750   19.9900  -32.1370 C   0  0  0  0  0  0  0  0  0  0  0  0
   -2.8120   21.1780  -31.4120 C   0  0  0  0  0  0  0  0  0  0  0  0
   -1.8310   21.7900  -30.6660 C   0  0  0  0  0  0  0  0  0  0  0  0
   -2.4080   22.9650  -30.1890 C   0  0  0  0  0  0  0  0  0  0  0  0
   -1.7170   23.8950  -29.2720 C   0  0  0  0  0  0  0  0  0  0  0  0
   -1.9810   25.2960  -29.3100 N   0  0  0  0  0  0  0  0  0  0  0  0
   -0.9180   23.4430  -28.4100 O   0  0  0  0  0  0  0  0  0  0  0  0
   -3.6940   23.0790  -30.6290 N   0  0  0  0  0  0  0  0  0  0  0  0
   -4.5970   24.1790  -30.4340 C   0  0  0  0  0  0  0  0  0  0  0  0
   -4.2290   25.4920  -30.8510 N   0  0  0  0  0  0  0  0  0  0  0  0
   -5.7140   23.9920  -29.8830 O   0  0  0  0  0  0  0  0  0  0  0  0
   -3.9260   21.9760  -31.3750 C   0  0  0  0  0  0  0  0  0  0  0  0
   -5.0790   21.6390  -32.0940 C   0  0  0  0  0  0  0  0  0  0  0  0
   -8.7985   20.9337  -30.4818 H   0  0  0  0  0  0  0  0  0  0  0  0
   -7.8601   21.2730  -31.9754 H   0  0  0  0  0  0  0  0  0  0  0  0
   -9.6466   21.4597  -31.9754 H   0  0  0  0  0  0  0  0  0  0  0  0
   -9.6133   18.8975  -31.2922 H   0  0  0  0  0  0  0  0  0  0  0  0
   -9.3938   19.3856  -33.0151 H   0  0  0  0  0  0  0  0  0  0  0  0
   -5.9914   19.9472  -34.7030 H   0  0  0  0  0  0  0  0  0  0  0  0
   -7.0488   20.8455  -33.5595 H   0  0  0  0  0  0  0  0  0  0  0  0
   -3.9251   18.6865  -33.4365 H   0  0  0  0  0  0  0  0  0  0  0  0
   -1.8726   19.3611  -32.1484 H   0  0  0  0  0  0  0  0  0  0  0  0
   -0.8081   21.4283  -30.4847 H   0  0  0  0  0  0  0  0  0  0  0  0
   -2.9590   25.6590  -29.3260 H   0  0  0  0  0  0  0  0  0  0  0  0
   -3.2310   25.7350  -31.0390 H   0  0  0  0  0  0  0  0  0  0  0  0
   -5.9607   22.2966  -32.0849 H   0  0  0  0  0  0  0  0  0  0  0  0
  1  2  1  0
  2  3  1  0
  3  4  1  0
  4  5  2  0
  4  6  1  0
  6  7  1  0
  7  8  2  0
  8  9  1  0
  9 10  2  0
 10 11  1  0
 11 12  2  0
 12 13  1  0
 13 14  1  0
 13 15  2  0
 12 16  1  0
 16 17  1  0
 17 18  1  0
 17 19  2  0
 16 20  1  0
 20 21  2  0
 21  7  1  0
 20 10  1  0
  1 22  1  0
  1 23  1  0
  1 24  1  0
  2 25  1  0
  2 26  1  0
  6 27  1  0
  6 28  1  0
  8 29  1  0
  9 30  1  0
 11 31  1  0
 14 32  1  0
 18 33  1  0
 21 34  1  0
M  CHG  2  14  -1  18  -1
M  END
>  <UniqueID>  (47) 
47

>  <SMILES>  (47) 
CCOC(=O)Cc1ccc2cc(C([NH-])=O)n(C([NH-])=O)c2c1

>  <Energy>  (47) 
67.14222456428776

>  <Genealogy>  (47) 
CCOC(=O)Cc1ccc2cc(C([NH-])=O)n(C([NH-])=O)c2c1 (protonated)
CCOC(=O)Cc1ccc2cc(C([NH-])=O)n(C([NH-])=O)c2c1 (3D coordinates assigned)
CCOC(=O)Cc1ccc2cc(C([NH-])=O)n(C([NH-])=O)c2c1 (optimized conformer: 67.14222456428776 kcal/mol)

>  <smiles>  (47) 
CCOC(=O)Cc1ccc2cc(C(N)=O)n(C(N)=O)c2c1

>  <score_type>  (47) 
oracle

>  <origin>  (47) 
adg

>  <m_score__min__energy>  (47) 
-10.17

>  <m_primary>  (47) 
energy

$$$$
47:0
     RDKit          3D

 33 34  0  0  0  0  0  0  0  0999 V2000
   -8.4880   20.5470  -32.4820 C   0  0  0  0  0  0  0  0  0  0  0  0
   -7.4290   19.6130  -31.9930 C   0  0  0  0  0  0  0  0  0  0  0  0
   -7.7510   18.6610  -31.2320 O   0  0  0  0  0  0  0  0  0  0  0  0
   -6.0570   19.7800  -32.3860 N   0  0  0  0  0  0  0  0  0  0  0  0
   -5.3800   19.0900  -33.3470 C   0  0  0  0  0  0  0  0  0  0  0  0
   -5.9020   17.9410  -34.1170 C   0  0  0  0  0  0  0  0  0  0  0  0
   -6.6280   16.9110  -33.4490 N   0  0  0  0  0  0  0  0  0  0  0  0
   -5.7350   17.8680  -35.3620 O   0  0  0  0  0  0  0  0  0  0  0  0
   -4.0810   19.5790  -33.4740 C   0  0  0  0  0  0  0  0  0  0  0  0
   -3.9830   20.5980  -32.5550 C   0  0  0  0  0  0  0  0  0  0  0  0
   -2.9180   21.4450  -32.2690 C   0  0  0  0  0  0  0  0  0  0  0  0
   -3.1080   22.4360  -31.2920 C   0  0  0  0  0  0  0  0  0  0  0  0
   -4.3500   22.5660  -30.6180 C   0  0  0  0  0  0  0  0  0  0  0  0
   -4.5370   23.6740  -29.5990 C   0  0  1  0  0  0  0  0  0  0  0  0
   -4.1920   23.1950  -28.1760 C   0  0  0  0  0  0  0  0  0  0  0  0
   -4.2010   24.2630  -27.2670 O   0  0  0  0  0  0  0  0  0  0  0  0
   -3.7890   24.9230  -29.9940 C   0  0  0  0  0  0  0  0  0  0  0  0
   -4.2210   25.6830  -30.9010 O   0  0  0  0  0  0  0  0  0  0  0  0
   -2.6320   25.2730  -29.3080 O   0  0  0  0  0  0  0  0  0  0  0  0
   -5.4140   21.6920  -30.9510 C   0  0  0  0  0  0  0  0  0  0  0  0
   -5.1890   20.7010  -31.9140 C   0  0  0  0  0  0  0  0  0  0  0  0
   -9.0024   21.0007  -31.6220 H   0  0  0  0  0  0  0  0  0  0  0  0
   -8.0265   21.3375  -33.0920 H   0  0  0  0  0  0  0  0  0  0  0  0
   -9.2147   19.9903  -33.0920 H   0  0  0  0  0  0  0  0  0  0  0  0
   -7.2100   17.1220  -32.6090 H   0  0  0  0  0  0  0  0  0  0  0  0
   -3.2999   19.2252  -34.1629 H   0  0  0  0  0  0  0  0  0  0  0  0
   -1.9558   21.3420  -32.7921 H   0  0  0  0  0  0  0  0  0  0  0  0
   -2.2829   23.1206  -31.0460 H   0  0  0  0  0  0  0  0  0  0  0  0
   -5.6033   23.9439  -29.5864 H   0  0  0  0  0  0  0  0  0  0  0  0
   -4.9339   22.4473  -27.8590 H   0  0  0  0  0  0  0  0  0  0  0  0
   -3.1830   22.7571  -28.1901 H   0  0  0  0  0  0  0  0  0  0  0  0
   -4.1820   25.0900  -27.8140 H   0  0  0  0  0  0  0  0  0  0  0  0
   -6.3953   21.7898  -30.4637 H   0  0  0  0  0  0  0  0  0  0  0  0
  1  2  1  0
  2  3  2  0
  2  4  1  0
  4  5  1  0
  5  6  1  0
  6  7  1  0
  6  8  2  0
  5  9  2  0
  9 10  1  0
 10 11  2  0
 11 12  1  0
 12 13  2  0
 13 14  1  0
 14 15  1  0
 15 16  1  0
 14 17  1  0
 17 18  2  0
 17 19  1  0
 13 20  1  0
 20 21  2  0
 21  4  1  0
 21 10  1  0
  1 22  1  0
  1 23  1  0
  1 24  1  0
  7 25  1  0
  9 26  1  0
 11 27  1  0
 12 28  1  0
 14 29  1  1
 15 30  1  0
 15 31  1  0
 16 32  1  0
 20 33  1  0
M  CHG  2   7  -1  19  -1
M  END
>  <UniqueID>  (48) 
48

>  <SMILES>  (48) 
CC(=O)n1c(C([NH-])=O)cc2ccc([C@@H](CO)C(=O)[O-])cc21

>  <Energy>  (48) 
71.36197639900075

>  <Genealogy>  (48) 
CC(=O)n1c(C([NH-])=O)cc2ccc(C(CO)C(=O)[O-])cc21 (protonated)
CC(=O)n1c(C([NH-])=O)cc2ccc([C@@H](CO)C(=O)[O-])cc21 (chirality)
CC(=O)n1c(C([NH-])=O)cc2ccc([C@@H](CO)C(=O)[O-])cc21 (3D coordinates assigned)
CC(=O)n1c(C([NH-])=O)cc2ccc([C@@H](CO)C(=O)[O-])cc21 (optimized conformer: 71.36197639900075 kcal/mol)

>  <smiles>  (48) 
CC(=O)n1c(C(N)=O)cc2ccc(C(CO)C(=O)O)cc21

>  <score_type>  (48) 
oracle

>  <origin>  (48) 
adg

>  <m_score__min__energy>  (48) 
-9.5700000000000003

>  <m_primary>  (48) 
energy

$$$$
48:0
     RDKit          3D

 66 68  0  0  0  0  0  0  0  0999 V2000
   -6.4750   24.8580  -30.1220 C   0  0  0  0  0  0  0  0  0  0  0  0
   -5.3830   25.8450  -30.5010 C   0  0  0  0  0  0  0  0  0  0  0  0
   -4.1100   25.2770  -30.2180 O   0  0  0  0  0  0  0  0  0  0  0  0
   -3.8070   23.9340  -30.4650 C   0  0  0  0  0  0  0  0  0  0  0  0
   -4.3700   23.3220  -31.4130 O   0  0  0  0  0  0  0  0  0  0  0  0
   -2.8480   23.2560  -29.6360 N   0  0  0  0  0  0  0  0  0  0  0  0
   -2.6150   23.4640  -28.3100 C   0  0  0  0  0  0  0  0  0  0  0  0
   -3.2060   24.5370  -27.4860 C   0  0  0  0  0  0  0  0  0  0  0  0
   -4.5800   24.9030  -27.6220 N   0  0  0  0  0  0  0  0  0  0  0  0
   -2.4720   25.1800  -26.6880 O   0  0  0  0  0  0  0  0  0  0  0  0
   -1.6890   22.5470  -27.8220 C   0  0  0  0  0  0  0  0  0  0  0  0
   -1.3450   21.7700  -28.9030 C   0  0  0  0  0  0  0  0  0  0  0  0
   -0.4660   20.6970  -28.9850 C   0  0  0  0  0  0  0  0  0  0  0  0
   -0.3270   20.0490  -30.2230 C   0  0  0  0  0  0  0  0  0  0  0  0
   -1.0680   20.4780  -31.3580 C   0  0  0  0  0  0  0  0  0  0  0  0
   -0.9710   19.7550  -32.6960 C   0  0  0  0  0  0  0  0  0  0  0  0
   -1.4850   18.2880  -32.6410 C   0  0  0  0  0  0  0  0  0  0  0  0
   -2.7500   18.0660  -33.4810 C   0  0  0  0  0  0  0  0  0  0  0  0
   -3.6730   19.1950  -33.2830 N   0  0  0  0  0  0  0  0  0  0  0  0
   -5.0800   18.9060  -33.6360 C   0  0  0  0  0  0  0  0  0  0  0  0
   -5.9930   20.1570  -33.6880 C   0  0  0  0  0  0  0  0  0  0  0  0
   -6.4370   20.6770  -32.2790 C   0  0  0  0  0  0  0  0  0  0  0  0
   -5.2940   20.7830  -31.4560 O   0  0  0  0  0  0  0  0  0  0  0  0
   -7.0440   22.1130  -32.3350 C   0  0  0  0  0  0  0  0  0  0  0  0
   -8.3710   22.3200  -31.6010 C   0  0  0  0  0  0  0  0  0  0  0  0
   -7.4280   19.6830  -31.5760 C   0  0  0  0  0  0  0  0  0  0  0  0
   -8.4490   18.9800  -32.4810 C   0  0  0  0  0  0  0  0  0  0  0  0
   -3.1720   20.4750  -33.8330 C   0  0  0  0  0  0  0  0  0  0  0  0
   -1.6330   20.5740  -33.8240 C   0  0  0  0  0  0  0  0  0  0  0  0
   -1.9610   21.5710  -31.2260 C   0  0  0  0  0  0  0  0  0  0  0  0
   -2.0590   22.2130  -29.9860 C   0  0  0  0  0  0  0  0  0  0  0  0
   -6.5466   24.7933  -29.0262 H   0  0  0  0  0  0  0  0  0  0  0  0
   -7.4366   25.1995  -30.5327 H   0  0  0  0  0  0  0  0  0  0  0  0
   -6.2321   23.8669  -30.5327 H   0  0  0  0  0  0  0  0  0  0  0  0
   -5.4519   26.0732  -31.5749 H   0  0  0  0  0  0  0  0  0  0  0  0
   -5.5083   26.7706  -29.9201 H   0  0  0  0  0  0  0  0  0  0  0  0
   -5.1700   24.5030  -28.3850 H   0  0  0  0  0  0  0  0  0  0  0  0
   -4.9860   25.6500  -27.0180 H   0  0  0  0  0  0  0  0  0  0  0  0
   -1.3127   22.4619  -26.7919 H   0  0  0  0  0  0  0  0  0  0  0  0
    0.1047   20.3647  -28.1053 H   0  0  0  0  0  0  0  0  0  0  0  0
    0.3642   19.1984  -30.3158 H   0  0  0  0  0  0  0  0  0  0  0  0
    0.1001   19.6743  -32.9333 H   0  0  0  0  0  0  0  0  0  0  0  0
   -0.6928   17.6243  -33.0176 H   0  0  0  0  0  0  0  0  0  0  0  0
   -1.7411   18.0672  -31.5943 H   0  0  0  0  0  0  0  0  0  0  0  0
   -2.4770   17.9974  -34.5444 H   0  0  0  0  0  0  0  0  0  0  0  0
   -3.2396   17.1321  -33.1679 H   0  0  0  0  0  0  0  0  0  0  0  0
   -5.0956   18.4265  -34.6259 H   0  0  0  0  0  0  0  0  0  0  0  0
   -5.4779   18.2578  -32.8414 H   0  0  0  0  0  0  0  0  0  0  0  0
   -5.4466   20.9637  -34.1986 H   0  0  0  0  0  0  0  0  0  0  0  0
   -6.9080   19.8627  -34.2229 H   0  0  0  0  0  0  0  0  0  0  0  0
   -4.5670   21.2140  -31.9780 H   0  0  0  0  0  0  0  0  0  0  0  0
   -6.3085   22.8045  -31.8981 H   0  0  0  0  0  0  0  0  0  0  0  0
   -7.2659   22.2952  -33.3969 H   0  0  0  0  0  0  0  0  0  0  0  0
   -8.1975   22.2929  -30.5151 H   0  0  0  0  0  0  0  0  0  0  0  0
   -8.7962   23.2953  -31.8802 H   0  0  0  0  0  0  0  0  0  0  0  0
   -9.0730   21.5205  -31.8802 H   0  0  0  0  0  0  0  0  0  0  0  0
   -6.8271   18.9049  -31.0826 H   0  0  0  0  0  0  0  0  0  0  0  0
   -8.0245   20.3026  -30.8903 H   0  0  0  0  0  0  0  0  0  0  0  0
   -9.1966   18.4653  -31.8596 H   0  0  0  0  0  0  0  0  0  0  0  0
   -8.9504   19.7252  -33.1160 H   0  0  0  0  0  0  0  0  0  0  0  0
   -7.9317   18.2457  -33.1160 H   0  0  0  0  0  0  0  0  0  0  0  0
   -3.5233   20.5719  -34.8709 H   0  0  0  0  0  0  0  0  0  0  0  0
   -3.5572   21.2816  -33.1919 H   0  0  0  0  0  0  0  0  0  0  0  0
   -1.2547   20.2066  -34.7893 H   0  0  0  0  0  0  0  0  0  0  0  0
   -1.3773   21.6297  -33.6507 H   0  0  0  0  0  0  0  0  0  0  0  0
   -2.5651   21.9080  -32.0813 H   0  0  0  0  0  0  0  0  0  0  0  0
  1  2  1  0
  2  3  1  0
  3  4  1  0
  4  5  2  0
  4  6  1  0
  6  7  1  0
  7  8  1  0
  8  9  1  0
  8 10  2  0
  7 11  2  0
 11 12  1  0
 12 13  2  0
 13 14  1  0
 14 15  2  0
 15 16  1  0
 16 17  1  0
 17 18  1  0
 18 19  1  0
 19 20  1  0
 20 21  1  0
 21 22  1  0
 22 23  1  0
 22 24  1  0
 24 25  1  0
 22 26  1  0
 26 27  1  0
 19 28  1  0
 28 29  1  0
 15 30  1  0
 30 31  2  0
 31  6  1  0
 31 12  1  0
 29 16  1  0
  1 32  1  0
  1 33  1  0
  1 34  1  0
  2 35  1  0
  2 36  1  0
  9 37  1  0
  9 38  1  0
 11 39  1  0
 13 40  1  0
 14 41  1  0
 16 42  1  0
 17 43  1  0
 17 44  1  0
 18 45  1  0
 18 46  1  0
 20 47  1  0
 20 48  1  0
 21 49  1  0
 21 50  1  0
 23 51  1  0
 24 52  1  0
 24 53  1  0
 25 54  1  0
 25 55  1  0
 25 56  1  0
 26 57  1  0
 26 58  1  0
 27 59  1  0
 27 60  1  0
 27 61  1  0
 28 62  1  0
 28 63  1  0
 29 64  1  0
 29 65  1  0
 30 66  1  0
M  END
>  <UniqueID>  (49) 
49

>  <SMILES>  (49) 
CCOC(=O)n1c(C(N)=O)cc2ccc(C3CCN(CCC(O)(CC)CC)CC3)cc21

>  <Energy>  (49) 
114.54948000671574

>  <Genealogy>  (49) 
CCOC(=O)n1c(C(N)=O)cc2ccc(C3CCN(CCC(O)(CC)CC)CC3)cc21 (3D coordinates assigned)
CCOC(=O)n1c(C(N)=O)cc2ccc(C3CCN(CCC(O)(CC)CC)CC3)cc21 (nonaromatic ring conformer: 114.54948000671574 kcal/mol)

>  <smiles>  (49) 
CCOC(=O)n1c(C(N)=O)cc2ccc(C3CCN(CCC(O)(CC)CC)CC3)cc21

>  <score_type>  (49) 
oracle

>  <origin>  (49) 
adg

>  <m_score__min__energy>  (49) 
-9.8100000000000005

>  <m_primary>  (49) 
energy

$$$$
49:0
     RDKit          3D

 31 33  0  0  0  0  0  0  0  0999 V2000
   -3.8700   25.6760  -30.8530 N   0  0  0  0  0  0  0  0  0  0  0  0
   -5.1800   25.2520  -30.4840 C   0  0  0  0  0  0  0  0  0  0  0  0
   -5.8930   26.0050  -29.7710 O   0  0  0  0  0  0  0  0  0  0  0  0
   -5.6670   23.9220  -30.9030 C   0  0  0  0  0  0  0  0  0  0  0  0
   -7.0110   23.6330  -31.1290 C   0  0  0  0  0  0  0  0  0  0  0  0
   -7.0340   22.3350  -31.5860 C   0  0  0  0  0  0  0  0  0  0  0  0
   -8.1120   21.5370  -31.9540 C   0  0  0  0  0  0  0  0  0  0  0  0
   -7.8470   20.2190  -32.3630 C   0  0  0  0  0  0  0  0  0  0  0  0
   -6.5170   19.7210  -32.3880 C   0  0  0  0  0  0  0  0  0  0  0  0
   -6.2450   18.3240  -32.8120 C   0  0  0  0  0  0  0  0  0  0  0  0
   -5.7320   17.3890  -31.8970 C   0  0  0  0  0  0  0  0  0  0  0  0
   -5.4740   16.0830  -32.3160 C   0  0  0  0  0  0  0  0  0  0  0  0
   -5.7260   15.7150  -33.6360 C   0  0  0  0  0  0  0  0  0  0  0  0
   -5.3790   13.9310  -34.2240 Br  0  0  0  0  0  0  0  0  0  0  0  0
   -6.2360   16.6650  -34.5240 C   0  0  0  0  0  0  0  0  0  0  0  0
   -6.4810   17.9350  -34.1020 N   0  0  0  0  0  0  0  0  0  0  0  0
   -5.4500   20.5660  -32.0060 C   0  0  0  0  0  0  0  0  0  0  0  0
   -5.7420   21.8800  -31.6210 C   0  0  0  0  0  0  0  0  0  0  0  0
   -4.8890   22.8410  -31.2000 N   0  0  0  0  0  0  0  0  0  0  0  0
   -3.4680   22.7100  -31.0360 C   0  0  0  0  0  0  0  0  0  0  0  0
   -2.9010   23.1710  -30.0100 O   0  0  0  0  0  0  0  0  0  0  0  0
   -2.7010   22.0970  -32.0200 O   0  0  0  0  0  0  0  0  0  0  0  0
   -3.0260   25.2820  -30.3810 H   0  0  0  0  0  0  0  0  0  0  0  0
   -7.8714   24.3007  -30.9749 H   0  0  0  0  0  0  0  0  0  0  0  0
   -9.1406   21.9257  -31.9258 H   0  0  0  0  0  0  0  0  0  0  0  0
   -8.6784   19.5660  -32.6670 H   0  0  0  0  0  0  0  0  0  0  0  0
   -5.5348   17.6849  -30.8560 H   0  0  0  0  0  0  0  0  0  0  0  0
   -5.0724   15.3455  -31.6054 H   0  0  0  0  0  0  0  0  0  0  0  0
   -6.4402   16.3853  -35.5681 H   0  0  0  0  0  0  0  0  0  0  0  0
   -6.8830   18.6120  -34.7900 H   0  0  0  0  0  0  0  0  0  0  0  0
   -4.4130   20.1991  -32.0111 H   0  0  0  0  0  0  0  0  0  0  0  0
  1  2  1  0
  2  3  2  0
  2  4  1  0
  4  5  2  0
  5  6  1  0
  6  7  2  0
  7  8  1  0
  8  9  2  0
  9 10  1  0
 10 11  2  0
 11 12  1  0
 12 13  2  0
 13 14  1  0
 13 15  1  0
 15 16  2  0
  9 17  1  0
 17 18  2  0
 18 19  1  0
 19 20  1  0
 20 21  2  0
 20 22  1  0
 19  4  1  0
 18  6  1  0
 16 10  1  0
  1 23  1  0
  5 24  1  0
  7 25  1  0
  8 26  1  0
 11 27  1  0
 12 28  1  0
 15 29  1  0
 16 30  1  0
 17 31  1  0
M  CHG  3   1  -1  16   1  22  -1
M  END
>  <UniqueID>  (50) 
50

>  <SMILES>  (50) 
[NH-]C(=O)c1cc2ccc(-c3ccc(Br)c[nH+]3)cc2n1C(=O)[O-]

>  <Energy>  (50) 
78.22483498538725

>  <Genealogy>  (50) 
[NH-]C(=O)c1cc2ccc(-c3ccc(Br)c[nH+]3)cc2n1C(=O)[O-] (protonated)
[NH-]C(=O)c1cc2ccc(-c3ccc(Br)c[nH+]3)cc2n1C(=O)[O-] (3D coordinates assigned)
[NH-]C(=O)c1cc2ccc(-c3ccc(Br)c[nH+]3)cc2n1C(=O)[O-] (optimized conformer: 78.22483498538725 kcal/mol)

>  <smiles>  (50) 
NC(=O)c1cc2ccc(-c3ccc(Br)cn3)cc2n1C(=O)O

>  <score_type>  (50) 
oracle

>  <origin>  (50) 
adg

>  <m_score__min__energy>  (50) 
-10.640000000000001

>  <m_primary>  (50) 
energy

$$$$
50:0
     RDKit          3D

 42 44  0  0  0  0  0  0  0  0999 V2000
   -1.8330   25.6010  -28.9320 N   0  0  0  0  0  0  0  0  0  0  0  0
   -1.0650   24.4180  -29.1490 C   0  0  0  0  0  0  0  0  0  0  0  0
    0.0440   24.2880  -28.5680 O   0  0  0  0  0  0  0  0  0  0  0  0
   -1.5970   23.3450  -30.0140 C   0  0  0  0  0  0  0  0  0  0  0  0
   -0.8440   22.2460  -30.4220 C   0  0  0  0  0  0  0  0  0  0  0  0
   -1.6590   21.5410  -31.2760 C   0  0  0  0  0  0  0  0  0  0  0  0
   -1.4220   20.3570  -31.9650 C   0  0  0  0  0  0  0  0  0  0  0  0
   -2.4560   19.8370  -32.7600 C   0  0  0  0  0  0  0  0  0  0  0  0
   -3.7100   20.5020  -32.8470 C   0  0  0  0  0  0  0  0  0  0  0  0
   -4.7880   19.9790  -33.6470 N   0  0  0  0  0  0  0  0  0  0  0  0
   -6.2010   20.2030  -33.3330 C   0  0  0  0  0  0  0  0  0  0  0  0
   -6.5530   19.6890  -31.9280 C   0  0  0  0  0  0  0  0  0  0  0  0
   -7.5450   20.5560  -31.2530 N   0  0  0  0  0  0  0  0  0  0  0  0
   -6.9580   21.8660  -30.8820 C   0  0  0  0  0  0  0  0  0  0  0  0
   -7.3490   22.9730  -31.8790 C   0  0  0  0  0  0  0  0  0  0  0  0
   -8.7520   23.1740  -31.9870 O   0  0  0  0  0  0  0  0  0  0  0  0
   -9.5190   22.0090  -31.7180 C   0  0  0  0  0  0  0  0  0  0  0  0
   -8.7860   20.6990  -32.0530 C   0  0  0  0  0  0  0  0  0  0  0  0
   -3.9080   21.7030  -32.1320 C   0  0  0  0  0  0  0  0  0  0  0  0
   -2.8540   22.2070  -31.3610 C   0  0  0  0  0  0  0  0  0  0  0  0
   -2.8330   23.3170  -30.5880 N   0  0  0  0  0  0  0  0  0  0  0  0
   -3.9250   24.2250  -30.3680 C   0  0  0  0  0  0  0  0  0  0  0  0
   -4.9410   23.8540  -29.7220 O   0  0  0  0  0  0  0  0  0  0  0  0
   -3.8600   25.5300  -30.8420 O   0  0  0  0  0  0  0  0  0  0  0  0
   -2.8150   25.6730  -29.2780 H   0  0  0  0  0  0  0  0  0  0  0  0
    0.1848   21.9954  -30.1240 H   0  0  0  0  0  0  0  0  0  0  0  0
   -0.4527   19.8425  -31.8896 H   0  0  0  0  0  0  0  0  0  0  0  0
   -2.2943   18.9051  -33.3216 H   0  0  0  0  0  0  0  0  0  0  0  0
   -4.5420   19.4170  -34.4950 H   0  0  0  0  0  0  0  0  0  0  0  0
   -6.4117   21.2815  -33.3825 H   0  0  0  0  0  0  0  0  0  0  0  0
   -6.8093   19.6517  -34.0651 H   0  0  0  0  0  0  0  0  0  0  0  0
   -6.9689   18.6744  -32.0149 H   0  0  0  0  0  0  0  0  0  0  0  0
   -5.6331   19.6916  -31.3248 H   0  0  0  0  0  0  0  0  0  0  0  0
   -7.3172   22.1460  -29.8807 H   0  0  0  0  0  0  0  0  0  0  0  0
   -5.8627   21.7654  -30.8963 H   0  0  0  0  0  0  0  0  0  0  0  0
   -6.8872   23.9157  -31.5502 H   0  0  0  0  0  0  0  0  0  0  0  0
   -6.9923   22.6546  -32.8696 H   0  0  0  0  0  0  0  0  0  0  0  0
   -9.7752   22.0005  -30.6483 H   0  0  0  0  0  0  0  0  0  0  0  0
  -10.4104   22.0537  -32.3610 H   0  0  0  0  0  0  0  0  0  0  0  0
   -9.4517   19.8505  -31.8365 H   0  0  0  0  0  0  0  0  0  0  0  0
   -8.5123   20.7169  -33.1182 H   0  0  0  0  0  0  0  0  0  0  0  0
   -4.8712   22.2321  -32.1798 H   0  0  0  0  0  0  0  0  0  0  0  0
  1  2  1  0
  2  3  2  0
  2  4  1  0
  4  5  2  0
  5  6  1  0
  6  7  2  0
  7  8  1  0
  8  9  2  0
  9 10  1  0
 10 11  1  0
 11 12  1  0
 12 13  1  0
 13 14  1  0
 14 15  1  0
 15 16  1  0
 16 17  1  0
 17 18  1  0
  9 19  1  0
 19 20  2  0
 20 21  1  0
 21 22  1  0
 22 23  2  0
 22 24  1  0
 21  4  1  0
 20  6  1  0
 18 13  1  0
  1 25  1  0
  5 26  1  0
  7 27  1  0
  8 28  1  0
 10 29  1  0
 11 30  1  0
 11 31  1  0
 12 32  1  0
 12 33  1  0
 14 34  1  0
 14 35  1  0
 15 36  1  0
 15 37  1  0
 17 38  1  0
 17 39  1  0
 18 40  1  0
 18 41  1  0
 19 42  1  0
M  CHG  2   1  -1  24  -1
M  END
>  <UniqueID>  (51) 
51

>  <SMILES>  (51) 
[NH-]C(=O)c1cc2ccc(NCCN3CCOCC3)cc2n1C(=O)[O-]

>  <Energy>  (51) 
95.38947792025448

>  <Genealogy>  (51) 
[NH-]C(=O)c1cc2ccc(NCCN3CCOCC3)cc2n1C(=O)[O-] (protonated)
[NH-]C(=O)c1cc2ccc(NCCN3CCOCC3)cc2n1C(=O)[O-] (3D coordinates assigned)
[NH-]C(=O)c1cc2ccc(NCCN3CCOCC3)cc2n1C(=O)[O-] (nonaromatic ring conformer: 95.38947792025448 kcal/mol)

>  <smiles>  (51) 
NC(=O)c1cc2ccc(NCCN3CCOCC3)cc2n1C(=O)O

>  <score_type>  (51) 
oracle

>  <origin>  (51) 
adg

>  <m_score__min__energy>  (51) 
-11.51

>  <m_primary>  (51) 
energy

$$$$
51:0
     RDKit          3D

 54 56  0  0  0  0  0  0  0  0999 V2000
   -7.1610   17.2270  -33.0060 C   0  0  0  0  0  0  0  0  0  0  0  0
   -6.7860   16.3970  -34.2300 C   0  0  0  0  0  0  0  0  0  0  0  0
   -6.4820   15.0020  -33.8320 N   0  0  0  0  0  0  0  0  0  0  0  0
   -6.9360   14.0350  -34.8590 C   0  0  0  0  0  0  0  0  0  0  0  0
   -7.6470   12.8570  -34.2000 C   0  0  0  0  0  0  0  0  0  0  0  0
   -5.0410   14.8340  -33.5270 C   0  0  0  0  0  0  0  0  0  0  0  0
   -4.3320   14.1210  -34.6840 C   0  0  0  0  0  0  0  0  0  0  0  0
   -3.4360   15.0370  -35.3900 N   0  0  0  0  0  0  0  0  0  0  0  0
   -3.6060   16.4590  -35.4720 C   0  0  0  0  0  0  0  0  0  0  0  0
   -4.2010   16.9420  -36.4710 O   0  0  0  0  0  0  0  0  0  0  0  0
   -3.1310   17.3670  -34.4100 C   0  0  0  0  0  0  0  0  0  0  0  0
   -1.7560   17.5160  -34.1740 C   0  0  0  0  0  0  0  0  0  0  0  0
   -1.3020   18.4040  -33.1950 C   0  0  0  0  0  0  0  0  0  0  0  0
   -2.2180   19.1420  -32.4310 C   0  0  0  0  0  0  0  0  0  0  0  0
   -1.7180   20.1240  -31.4550 C   0  0  0  0  0  0  0  0  0  0  0  0
   -0.5650   19.8400  -30.6870 C   0  0  0  0  0  0  0  0  0  0  0  0
   -0.1050   20.7600  -29.7280 C   0  0  0  0  0  0  0  0  0  0  0  0
   -0.8170   21.9470  -29.5680 C   0  0  0  0  0  0  0  0  0  0  0  0
   -0.6100   22.9940  -28.7000 C   0  0  0  0  0  0  0  0  0  0  0  0
   -1.6210   23.9120  -28.9780 C   0  0  0  0  0  0  0  0  0  0  0  0
   -1.7260   25.2290  -28.3190 C   0  0  0  0  0  0  0  0  0  0  0  0
   -1.2110   26.4040  -28.9390 N   0  0  0  0  0  0  0  0  0  0  0  0
   -2.2320   25.3110  -27.1680 O   0  0  0  0  0  0  0  0  0  0  0  0
   -2.4260   23.4480  -29.9770 N   0  0  0  0  0  0  0  0  0  0  0  0
   -3.6110   24.0610  -30.5120 C   0  0  0  0  0  0  0  0  0  0  0  0
   -4.6240   23.3610  -30.7810 O   0  0  0  0  0  0  0  0  0  0  0  0
   -3.6440   25.4300  -30.7570 O   0  0  0  0  0  0  0  0  0  0  0  0
   -1.9240   22.2430  -30.3250 C   0  0  0  0  0  0  0  0  0  0  0  0
   -2.4140   21.3380  -31.2730 C   0  0  0  0  0  0  0  0  0  0  0  0
   -3.5990   18.9620  -32.6320 C   0  0  0  0  0  0  0  0  0  0  0  0
   -4.7870   19.8480  -31.6820 Cl  0  0  0  0  0  0  0  0  0  0  0  0
   -4.0470   18.0680  -33.6100 C   0  0  0  0  0  0  0  0  0  0  0  0
   -6.9086   16.6682  -32.0927 H   0  0  0  0  0  0  0  0  0  0  0  0
   -6.6039   18.1754  -33.0214 H   0  0  0  0  0  0  0  0  0  0  0  0
   -8.2409   17.4358  -33.0214 H   0  0  0  0  0  0  0  0  0  0  0  0
   -7.6264   16.3969  -34.9398 H   0  0  0  0  0  0  0  0  0  0  0  0
   -5.8948   16.8370  -34.7013 H   0  0  0  0  0  0  0  0  0  0  0  0
   -7.6297   14.5376  -35.5490 H   0  0  0  0  0  0  0  0  0  0  0  0
   -6.0605   13.6614  -35.4103 H   0  0  0  0  0  0  0  0  0  0  0  0
   -7.5864   12.9574  -33.1063 H   0  0  0  0  0  0  0  0  0  0  0  0
   -8.7026   12.8462  -34.5093 H   0  0  0  0  0  0  0  0  0  0  0  0
   -7.1647   11.9180  -34.5093 H   0  0  0  0  0  0  0  0  0  0  0  0
   -4.5843   15.8233  -33.3760 H   0  0  0  0  0  0  0  0  0  0  0  0
   -4.9365   14.2276  -32.6152 H   0  0  0  0  0  0  0  0  0  0  0  0
   -3.7459   13.2804  -34.2842 H   0  0  0  0  0  0  0  0  0  0  0  0
   -5.0917   13.7570  -35.3914 H   0  0  0  0  0  0  0  0  0  0  0  0
   -1.0327   16.9317  -34.7617 H   0  0  0  0  0  0  0  0  0  0  0  0
   -0.2223   18.5246  -33.0229 H   0  0  0  0  0  0  0  0  0  0  0  0
   -0.0249   18.8941  -30.8406 H   0  0  0  0  0  0  0  0  0  0  0  0
    0.7891   20.5491  -29.1230 H   0  0  0  0  0  0  0  0  0  0  0  0
    0.1854   23.0869  -27.9459 H   0  0  0  0  0  0  0  0  0  0  0  0
   -0.9090   26.3890  -29.9370 H   0  0  0  0  0  0  0  0  0  0  0  0
   -3.3160   21.5663  -31.8597 H   0  0  0  0  0  0  0  0  0  0  0  0
   -5.1265   17.9129  -33.7535 H   0  0  0  0  0  0  0  0  0  0  0  0
  1  2  1  0
  2  3  1  0
  3  4  1  0
  4  5  1  0
  3  6  1  0
  6  7  1  0
  7  8  1  0
  8  9  1  0
  9 10  2  0
  9 11  1  0
 11 12  2  0
 12 13  1  0
 13 14  2  0
 14 15  1  0
 15 16  2  0
 16 17  1  0
 17 18  2  0
 18 19  1  0
 19 20  2  0
 20 21  1  0
 21 22  1  0
 21 23  2  0
 20 24  1  0
 24 25  1  0
 25 26  2  0
 25 27  1  0
 24 28  1  0
 28 29  2  0
 14 30  1  0
 30 31  1  0
 30 32  2  0
 32 11  1  0
 29 15  1  0
 28 18  1  0
  1 33  1  0
  1 34  1  0
  1 35  1  0
  2 36  1  0
  2 37  1  0
  4 38  1  0
  4 39  1  0
  5 40  1  0
  5 41  1  0
  5 42  1  0
  6 43  1  0
  6 44  1  0
  7 45  1  0
  7 46  1  0
 12 47  1  0
 13 48  1  0
 16 49  1  0
 17 50  1  0
 19 51  1  0
 22 52  1  0
 29 53  1  0
 32 54  1  0
M  CHG  3   8  -1  22  -1  27  -1
M  END
>  <UniqueID>  (52) 
52

>  <SMILES>  (52) 
CCN(CC)CC[N-]C(=O)c1ccc(-c2ccc3cc(C([NH-])=O)n(C(=O)[O-])c3c2)c(Cl)c1

>  <Energy>  (52) 
105.0276007814801

>  <Genealogy>  (52) 
CCN(CC)CC[N-]C(=O)c1ccc(-c2ccc3cc(C([NH-])=O)n(C(=O)[O-])c3c2)c(Cl)c1 (protonated)
CCN(CC)CC[N-]C(=O)c1ccc(-c2ccc3cc(C([NH-])=O)n(C(=O)[O-])c3c2)c(Cl)c1 (3D coordinates assigned)
CCN(CC)CC[N-]C(=O)c1ccc(-c2ccc3cc(C([NH-])=O)n(C(=O)[O-])c3c2)c(Cl)c1 (optimized conformer: 105.0276007814801 kcal/mol)

>  <smiles>  (52) 
CCN(CC)CCNC(=O)c1ccc(-c2ccc3cc(C(N)=O)n(C(=O)O)c3c2)c(Cl)c1

>  <score_type>  (52) 
oracle

>  <origin>  (52) 
adg

>  <m_score__min__energy>  (52) 
-9.9600000000000009

>  <m_primary>  (52) 
energy

$$$$
52:0
     RDKit          3D

 34 36  0  0  0  0  0  0  0  0999 V2000
   -1.8380   25.6750  -28.9220 N   0  0  0  0  0  0  0  0  0  0  0  0
   -1.1950   24.4300  -29.1860 C   0  0  0  0  0  0  0  0  0  0  0  0
   -0.1160   24.1560  -28.5970 O   0  0  0  0  0  0  0  0  0  0  0  0
   -1.8050   23.4370  -30.0950 C   0  0  0  0  0  0  0  0  0  0  0  0
   -1.1400   22.2950  -30.5350 C   0  0  0  0  0  0  0  0  0  0  0  0
   -2.0650   21.5970  -31.2760 C   0  0  0  0  0  0  0  0  0  0  0  0
   -1.9410   20.3860  -31.9520 C   0  0  0  0  0  0  0  0  0  0  0  0
   -3.0570   19.9080  -32.6580 C   0  0  0  0  0  0  0  0  0  0  0  0
   -4.2620   20.6520  -32.6900 C   0  0  0  0  0  0  0  0  0  0  0  0
   -5.4610   20.1170  -33.4260 C   0  0  0  0  0  0  0  0  0  0  0  0
   -6.7100   20.3510  -32.6210 C   0  0  0  0  0  0  0  0  0  0  0  0
   -7.2280   21.6490  -32.4760 C   0  0  0  0  0  0  0  0  0  0  0  0
   -8.4090   21.8600  -31.7590 C   0  0  0  0  0  0  0  0  0  0  0  0
   -9.0850   20.7770  -31.1900 C   0  0  0  0  0  0  0  0  0  0  0  0
   -8.5840   19.4820  -31.3400 C   0  0  0  0  0  0  0  0  0  0  0  0
   -7.4030   19.2660  -32.0560 C   0  0  0  0  0  0  0  0  0  0  0  0
   -4.3550   21.8730  -31.9850 C   0  0  0  0  0  0  0  0  0  0  0  0
   -3.2330   22.3150  -31.2730 C   0  0  0  0  0  0  0  0  0  0  0  0
   -3.0900   23.4490  -30.5540 N   0  0  0  0  0  0  0  0  0  0  0  0
   -4.0730   24.4840  -30.3930 C   0  0  0  0  0  0  0  0  0  0  0  0
   -3.8590   25.6420  -30.8370 O   0  0  0  0  0  0  0  0  0  0  0  0
   -5.2840   24.2100  -29.7680 O   0  0  0  0  0  0  0  0  0  0  0  0
   -2.8690   25.7830  -29.0450 H   0  0  0  0  0  0  0  0  0  0  0  0
   -0.0966   22.0115  -30.3328 H   0  0  0  0  0  0  0  0  0  0  0  0
   -0.9975   19.8208  -31.9336 H   0  0  0  0  0  0  0  0  0  0  0  0
   -2.9948   18.9476  -33.1907 H   0  0  0  0  0  0  0  0  0  0  0  0
   -5.5515   20.6298  -34.3949 H   0  0  0  0  0  0  0  0  0  0  0  0
   -5.3327   19.0361  -33.5845 H   0  0  0  0  0  0  0  0  0  0  0  0
   -6.7020   22.5025  -32.9286 H   0  0  0  0  0  0  0  0  0  0  0  0
   -8.8067   22.8789  -31.6424 H   0  0  0  0  0  0  0  0  0  0  0  0
  -10.0128   20.9449  -30.6234 H   0  0  0  0  0  0  0  0  0  0  0  0
   -9.1195   18.6308  -30.8941 H   0  0  0  0  0  0  0  0  0  0  0  0
   -7.0147   18.2440  -32.1777 H   0  0  0  0  0  0  0  0  0  0  0  0
   -5.2845   22.4611  -31.9952 H   0  0  0  0  0  0  0  0  0  0  0  0
  1  2  1  0
  2  3  2  0
  2  4  1  0
  4  5  2  0
  5  6  1  0
  6  7  2  0
  7  8  1  0
  8  9  2  0
  9 10  1  0
 10 11  1  0
 11 12  2  0
 12 13  1  0
 13 14  2  0
 14 15  1  0
 15 16  2  0
  9 17  1  0
 17 18  2  0
 18 19  1  0
 19 20  1  0
 20 21  2  0
 20 22  1  0
 19  4  1  0
 18  6  1  0
 16 11  1  0
  1 23  1  0
  5 24  1  0
  7 25  1  0
  8 26  1  0
 10 27  1  0
 10 28  1  0
 12 29  1  0
 13 30  1  0
 14 31  1  0
 15 32  1  0
 16 33  1  0
 17 34  1  0
M  CHG  2   1  -1  22  -1
M  END
>  <UniqueID>  (53) 
53

>  <SMILES>  (53) 
[NH-]C(=O)c1cc2ccc(Cc3ccccc3)cc2n1C(=O)[O-]

>  <Energy>  (53) 
75.10020273173687

>  <Genealogy>  (53) 
[NH-]C(=O)c1cc2ccc(Cc3ccccc3)cc2n1C(=O)[O-] (protonated)
[NH-]C(=O)c1cc2ccc(Cc3ccccc3)cc2n1C(=O)[O-] (3D coordinates assigned)
[NH-]C(=O)c1cc2ccc(Cc3ccccc3)cc2n1C(=O)[O-] (optimized conformer: 75.10020273173687 kcal/mol)

>  <smiles>  (53) 
NC(=O)c1cc2ccc(Cc3ccccc3)cc2n1C(=O)O

>  <score_type>  (53) 
oracle

>  <origin>  (53) 
adg

>  <m_score__min__energy>  (53) 
-12.15

>  <m_primary>  (53) 
energy

$$$$
53:0
     RDKit          3D

 30 32  0  0  0  0  0  0  0  0999 V2000
   -2.3640   20.9360  -32.4110 C   0  0  0  0  0  0  0  0  0  0  0  0
   -3.0010   22.2090  -32.4250 O   0  0  0  0  0  0  0  0  0  0  0  0
   -3.6270   22.7490  -31.2970 C   0  0  0  0  0  0  0  0  0  0  0  0
   -2.9430   23.1140  -30.3030 O   0  0  0  0  0  0  0  0  0  0  0  0
   -5.0590   22.8660  -31.2640 N   0  0  0  0  0  0  0  0  0  0  0  0
   -5.7990   23.9770  -30.9850 C   0  0  0  0  0  0  0  0  0  0  0  0
   -5.2710   25.2710  -30.5000 C   0  0  0  0  0  0  0  0  0  0  0  0
   -3.9410   25.6620  -30.8300 N   0  0  0  0  0  0  0  0  0  0  0  0
   -5.9960   26.0520  -29.8300 O   0  0  0  0  0  0  0  0  0  0  0  0
   -7.1570   23.7110  -31.1340 C   0  0  0  0  0  0  0  0  0  0  0  0
   -7.2310   22.3900  -31.5120 C   0  0  0  0  0  0  0  0  0  0  0  0
   -8.3410   21.6050  -31.8070 C   0  0  0  0  0  0  0  0  0  0  0  0
   -8.1210   20.2720  -32.1980 C   0  0  0  0  0  0  0  0  0  0  0  0
   -6.8040   19.7550  -32.2940 C   0  0  0  0  0  0  0  0  0  0  0  0
   -6.5780   18.3600  -32.7180 C   0  0  0  0  0  0  0  0  0  0  0  0
   -6.1120   17.3840  -31.9140 N   0  0  0  0  0  0  0  0  0  0  0  0
   -6.0480   16.2910  -32.6560 N   0  0  0  0  0  0  0  0  0  0  0  0
   -6.4760   16.6360  -33.8850 C   0  0  0  0  0  0  0  0  0  0  0  0
   -6.8020   17.9050  -33.9280 O   0  0  0  0  0  0  0  0  0  0  0  0
   -5.7020   20.5850  -31.9870 C   0  0  0  0  0  0  0  0  0  0  0  0
   -5.9520   21.9020  -31.5830 C   0  0  0  0  0  0  0  0  0  0  0  0
   -2.2045   20.6172  -31.3704 H   0  0  0  0  0  0  0  0  0  0  0  0
   -3.0008   20.2016  -32.9259 H   0  0  0  0  0  0  0  0  0  0  0  0
   -1.3944   21.0055  -32.9259 H   0  0  0  0  0  0  0  0  0  0  0  0
   -3.1220   25.2670  -30.3160 H   0  0  0  0  0  0  0  0  0  0  0  0
   -7.9936   24.4088  -30.9819 H   0  0  0  0  0  0  0  0  0  0  0  0
   -9.3596   22.0143  -31.7366 H   0  0  0  0  0  0  0  0  0  0  0  0
   -8.9788   19.6242  -32.4316 H   0  0  0  0  0  0  0  0  0  0  0  0
   -6.5431   15.9455  -34.7387 H   0  0  0  0  0  0  0  0  0  0  0  0
   -4.6725   20.2053  -32.0636 H   0  0  0  0  0  0  0  0  0  0  0  0
  1  2  1  0
  2  3  1  0
  3  4  2  0
  3  5  1  0
  5  6  1  0
  6  7  1  0
  7  8  1  0
  7  9  2  0
  6 10  2  0
 10 11  1  0
 11 12  2  0
 12 13  1  0
 13 14  2  0
 14 15  1  0
 15 16  2  0
 16 17  1  0
 17 18  2  0
 18 19  1  0
 14 20  1  0
 20 21  2  0
 21  5  1  0
 21 11  1  0
 19 15  1  0
  1 22  1  0
  1 23  1  0
  1 24  1  0
  8 25  1  0
 10 26  1  0
 12 27  1  0
 13 28  1  0
 18 29  1  0
 20 30  1  0
M  CHG  1   8  -1
M  END
>  <UniqueID>  (54) 
54

>  <SMILES>  (54) 
COC(=O)n1c(C([NH-])=O)cc2ccc(-c3nnco3)cc21

>  <Energy>  (54) 
103.92190395371054

>  <Genealogy>  (54) 
COC(=O)n1c(C([NH-])=O)cc2ccc(-c3nnco3)cc21 (protonated)
COC(=O)n1c(C([NH-])=O)cc2ccc(-c3nnco3)cc21 (3D coordinates assigned)
COC(=O)n1c(C([NH-])=O)cc2ccc(-c3nnco3)cc21 (optimized conformer: 103.92190395371054 kcal/mol)

>  <smiles>  (54) 
COC(=O)n1c(C(N)=O)cc2ccc(-c3nnco3)cc21

>  <score_type>  (54) 
oracle

>  <origin>  (54) 
adg

>  <m_score__min__energy>  (54) 
-9.7100000000000009

>  <m_primary>  (54) 
energy

$$$$
54:0
     RDKit          3D

 31 32  0  0  0  0  0  0  0  0999 V2000
   -3.8190   23.6850  -27.8910 C   0  0  0  0  0  0  0  0  0  0  0  0
   -3.1530   22.6260  -28.7630 C   0  0  0  0  0  0  0  0  0  0  0  0
   -2.9560   23.1170  -30.0870 O   0  0  0  0  0  0  0  0  0  0  0  0
   -3.6730   22.6530  -31.1960 C   0  0  0  0  0  0  0  0  0  0  0  0
   -3.0770   22.0710  -32.1430 O   0  0  0  0  0  0  0  0  0  0  0  0
   -5.0910   22.8710  -31.2680 N   0  0  0  0  0  0  0  0  0  0  0  0
   -5.7870   23.9860  -30.9050 C   0  0  0  0  0  0  0  0  0  0  0  0
   -5.2030   25.2750  -30.4780 C   0  0  0  0  0  0  0  0  0  0  0  0
   -3.8680   25.6070  -30.8510 N   0  0  0  0  0  0  0  0  0  0  0  0
   -5.8580   26.0710  -29.7550 O   0  0  0  0  0  0  0  0  0  0  0  0
   -7.1550   23.7800  -31.0680 C   0  0  0  0  0  0  0  0  0  0  0  0
   -7.2780   22.4990  -31.5540 C   0  0  0  0  0  0  0  0  0  0  0  0
   -8.4180   21.7700  -31.8760 C   0  0  0  0  0  0  0  0  0  0  0  0
   -8.2500   20.4500  -32.3270 C   0  0  0  0  0  0  0  0  0  0  0  0
   -6.9540   19.8860  -32.4570 C   0  0  0  0  0  0  0  0  0  0  0  0
   -6.7910   18.4490  -32.8820 C   0  0  0  0  0  0  0  0  0  0  0  0
   -7.9710   17.7490  -32.7010 F   0  0  0  0  0  0  0  0  0  0  0  0
   -5.7960   17.8610  -32.1220 F   0  0  0  0  0  0  0  0  0  0  0  0
   -6.4420   18.3710  -34.2190 F   0  0  0  0  0  0  0  0  0  0  0  0
   -5.8220   20.6530  -32.0960 C   0  0  0  0  0  0  0  0  0  0  0  0
   -6.0180   21.9720  -31.6680 C   0  0  0  0  0  0  0  0  0  0  0  0
   -3.6634   23.4376  -26.8305 H   0  0  0  0  0  0  0  0  0  0  0  0
   -3.3767   24.6688  -28.1067 H   0  0  0  0  0  0  0  0  0  0  0  0
   -4.8973   23.7125  -28.1067 H   0  0  0  0  0  0  0  0  0  0  0  0
   -2.1786   22.3598  -28.3275 H   0  0  0  0  0  0  0  0  0  0  0  0
   -3.8051   21.7412  -28.8064 H   0  0  0  0  0  0  0  0  0  0  0  0
   -3.0550   25.2860  -30.2790 H   0  0  0  0  0  0  0  0  0  0  0  0
   -7.9659   24.4916  -30.8534 H   0  0  0  0  0  0  0  0  0  0  0  0
   -9.4202   22.2133  -31.7805 H   0  0  0  0  0  0  0  0  0  0  0  0
   -9.1334   19.8464  -32.5824 H   0  0  0  0  0  0  0  0  0  0  0  0
   -4.8108   20.2234  -32.1501 H   0  0  0  0  0  0  0  0  0  0  0  0
  1  2  1  0
  2  3  1  0
  3  4  1  0
  4  5  2  0
  4  6  1  0
  6  7  1  0
  7  8  1  0
  8  9  1  0
  8 10  2  0
  7 11  2  0
 11 12  1  0
 12 13  2  0
 13 14  1  0
 14 15  2  0
 15 16  1  0
 16 17  1  0
 16 18  1  0
 16 19  1  0
 15 20  1  0
 20 21  2  0
 21  6  1  0
 21 12  1  0
  1 22  1  0
  1 23  1  0
  1 24  1  0
  2 25  1  0
  2 26  1  0
  9 27  1  0
 11 28  1  0
 13 29  1  0
 14 30  1  0
 20 31  1  0
M  CHG  1   9  -1
M  END
>  <UniqueID>  (55) 
55

>  <SMILES>  (55) 
CCOC(=O)n1c(C([NH-])=O)cc2ccc(C(F)(F)F)cc21

>  <Energy>  (55) 
66.67968368103627

>  <Genealogy>  (55) 
CCOC(=O)n1c(C([NH-])=O)cc2ccc(C(F)(F)F)cc21 (protonated)
CCOC(=O)n1c(C([NH-])=O)cc2ccc(C(F)(F)F)cc21 (3D coordinates assigned)
CCOC(=O)n1c(C([NH-])=O)cc2ccc(C(F)(F)F)cc21 (optimized conformer: 66.67968368103627 kcal/mol)

>  <smiles>  (55) 
CCOC(=O)n1c(C(N)=O)cc2ccc(C(F)(F)F)cc21

>  <score_type>  (55) 
oracle

>  <origin>  (55) 
adg

>  <m_score__min__energy>  (55) 
-8.9399999999999995

>  <m_primary>  (55) 
energy

$$$$
55:0
     RDKit          3D

 42 44  0  0  0  0  0  0  0  0999 V2000
   -5.2200   23.7810  -29.3830 C   0  0  0  0  0  0  0  0  0  0  0  0
   -4.0860   24.1330  -30.2930 C   0  0  0  0  0  0  0  0  0  0  0  0
   -4.0650   25.2660  -30.8420 O   0  0  0  0  0  0  0  0  0  0  0  0
   -2.9910   23.2240  -30.4900 N   0  0  0  0  0  0  0  0  0  0  0  0
   -1.7010   23.3560  -30.0710 C   0  0  0  0  0  0  0  0  0  0  0  0
   -1.1820   24.4260  -29.1950 C   0  0  0  0  0  0  0  0  0  0  0  0
   -1.9660   25.5930  -28.9580 N   0  0  0  0  0  0  0  0  0  0  0  0
   -0.0370   24.3350  -28.6780 O   0  0  0  0  0  0  0  0  0  0  0  0
   -0.9330   22.2800  -30.5140 C   0  0  0  0  0  0  0  0  0  0  0  0
   -1.8020   21.4740  -31.2150 C   0  0  0  0  0  0  0  0  0  0  0  0
   -1.5790   20.2660  -31.8690 C   0  0  0  0  0  0  0  0  0  0  0  0
   -2.6660   19.6570  -32.5170 C   0  0  0  0  0  0  0  0  0  0  0  0
   -3.9470   20.2670  -32.5080 C   0  0  0  0  0  0  0  0  0  0  0  0
   -5.1150   19.5850  -33.1680 C   0  0  0  0  0  0  0  0  0  0  0  0
   -6.3730   20.4640  -33.1730 C   0  0  0  0  0  0  0  0  0  0  0  0
   -7.1130   20.3260  -31.8920 N   0  0  0  0  0  0  0  0  0  0  0  0
   -7.6670   18.9760  -31.7200 C   0  0  0  0  0  0  0  0  0  0  0  0
   -9.0490   18.9680  -32.3480 C   0  0  0  0  0  0  0  0  0  0  0  0
   -9.4990   20.4160  -32.3190 C   0  0  0  0  0  0  0  0  0  0  0  0
   -8.2890   21.2100  -31.8430 C   0  0  0  0  0  0  0  0  0  0  0  0
   -4.1360   21.4910  -31.8300 C   0  0  0  0  0  0  0  0  0  0  0  0
   -3.0380   22.0660  -31.1830 C   0  0  0  0  0  0  0  0  0  0  0  0
   -4.8954   23.8817  -28.3368 H   0  0  0  0  0  0  0  0  0  0  0  0
   -6.0655   24.4590  -29.5715 H   0  0  0  0  0  0  0  0  0  0  0  0
   -5.5329   22.7434  -29.5715 H   0  0  0  0  0  0  0  0  0  0  0  0
   -2.9340   25.6750  -29.3420 H   0  0  0  0  0  0  0  0  0  0  0  0
    0.1399   22.1108  -30.3403 H   0  0  0  0  0  0  0  0  0  0  0  0
   -0.5816   19.8022  -31.8781 H   0  0  0  0  0  0  0  0  0  0  0  0
   -2.5229   18.6980  -33.0364 H   0  0  0  0  0  0  0  0  0  0  0  0
   -4.8450   19.3471  -34.2075 H   0  0  0  0  0  0  0  0  0  0  0  0
   -5.3420   18.6741  -32.5946 H   0  0  0  0  0  0  0  0  0  0  0  0
   -6.0789   21.5152  -33.3091 H   0  0  0  0  0  0  0  0  0  0  0  0
   -7.0271   20.1420  -33.9967 H   0  0  0  0  0  0  0  0  0  0  0  0
   -7.0224   18.2386  -32.2208 H   0  0  0  0  0  0  0  0  0  0  0  0
   -7.7240   18.7130  -30.6534 H   0  0  0  0  0  0  0  0  0  0  0  0
   -9.0017   18.5980  -33.3828 H   0  0  0  0  0  0  0  0  0  0  0  0
   -9.7446   18.3073  -31.8099 H   0  0  0  0  0  0  0  0  0  0  0  0
   -9.8028   20.7442  -33.3240 H   0  0  0  0  0  0  0  0  0  0  0  0
  -10.3667   20.5601  -31.6584 H   0  0  0  0  0  0  0  0  0  0  0  0
   -8.1306   22.0778  -32.5002 H   0  0  0  0  0  0  0  0  0  0  0  0
   -8.4507   21.5721  -30.8170 H   0  0  0  0  0  0  0  0  0  0  0  0
   -5.1214   21.9795  -31.8113 H   0  0  0  0  0  0  0  0  0  0  0  0
  1  2  1  0
  2  3  2  0
  2  4  1  0
  4  5  1  0
  5  6  1  0
  6  7  1  0
  6  8  2  0
  5  9  2  0
  9 10  1  0
 10 11  2  0
 11 12  1  0
 12 13  2  0
 13 14  1  0
 14 15  1  0
 15 16  1  0
 16 17  1  0
 17 18  1  0
 18 19  1  0
 19 20  1  0
 13 21  1  0
 21 22  2  0
 22  4  1  0
 22 10  1  0
 20 16  1  0
  1 23  1  0
  1 24  1  0
  1 25  1  0
  7 26  1  0
  9 27  1  0
 11 28  1  0
 12 29  1  0
 14 30  1  0
 14 31  1  0
 15 32  1  0
 15 33  1  0
 17 34  1  0
 17 35  1  0
 18 36  1  0
 18 37  1  0
 19 38  1  0
 19 39  1  0
 20 40  1  0
 20 41  1  0
 21 42  1  0
M  CHG  1   7  -1
M  END
>  <UniqueID>  (56) 
56

>  <SMILES>  (56) 
CC(=O)n1c(C([NH-])=O)cc2ccc(CCN3CCCC3)cc21

>  <Energy>  (56) 
83.45245507098387

>  <Genealogy>  (56) 
CC(=O)n1c(C([NH-])=O)cc2ccc(CCN3CCCC3)cc21 (protonated)
CC(=O)n1c(C([NH-])=O)cc2ccc(CCN3CCCC3)cc21 (3D coordinates assigned)
CC(=O)n1c(C([NH-])=O)cc2ccc(CCN3CCCC3)cc21 (nonaromatic ring conformer: 83.45245507098387 kcal/mol)

>  <smiles>  (56) 
CC(=O)n1c(C(N)=O)cc2ccc(CCN3CCCC3)cc21

>  <score_type>  (56) 
oracle

>  <origin>  (56) 
adg

>  <m_score__min__energy>  (56) 
-11.039999999999999

>  <m_primary>  (56) 
energy

$$$$
56:0
     RDKit          3D

 31 32  0  0  0  0  0  0  0  0999 V2000
   -6.6510   17.2720  -33.1650 C   0  0  0  0  0  0  0  0  0  0  0  0
   -6.8510   18.5720  -33.7980 N   0  0  0  0  0  0  0  0  0  0  0  0
   -7.0030   19.8000  -33.0600 C   0  0  0  0  0  0  0  0  0  0  0  0
   -8.3000   20.2050  -32.6590 C   0  0  0  0  0  0  0  0  0  0  0  0
   -8.4940   21.4000  -31.9490 C   0  0  0  0  0  0  0  0  0  0  0  0
   -7.3760   22.1680  -31.6460 C   0  0  0  0  0  0  0  0  0  0  0  0
   -7.2840   23.3760  -30.9920 C   0  0  0  0  0  0  0  0  0  0  0  0
   -5.9240   23.6860  -30.9810 C   0  0  0  0  0  0  0  0  0  0  0  0
   -5.3540   24.8670  -30.2940 C   0  0  0  0  0  0  0  0  0  0  0  0
   -5.8040   25.2420  -28.9920 N   0  0  0  0  0  0  0  0  0  0  0  0
   -4.4390   25.5370  -30.8430 O   0  0  0  0  0  0  0  0  0  0  0  0
   -5.2060   22.7090  -31.6050 N   0  0  0  0  0  0  0  0  0  0  0  0
   -3.7910   22.6810  -31.8510 C   0  0  0  0  0  0  0  0  0  0  0  0
   -3.0070   23.3180  -31.0940 O   0  0  0  0  0  0  0  0  0  0  0  0
   -3.2870   21.9590  -32.9360 O   0  0  0  0  0  0  0  0  0  0  0  0
   -2.3940   20.8630  -32.7810 C   0  0  0  0  0  0  0  0  0  0  0  0
   -6.1100   21.7870  -32.0070 C   0  0  0  0  0  0  0  0  0  0  0  0
   -5.8880   20.6110  -32.7330 C   0  0  0  0  0  0  0  0  0  0  0  0
   -6.6691   17.3900  -32.0715 H   0  0  0  0  0  0  0  0  0  0  0  0
   -7.4543   16.5866  -33.4732 H   0  0  0  0  0  0  0  0  0  0  0  0
   -5.6789   16.8598  -33.4732 H   0  0  0  0  0  0  0  0  0  0  0  0
   -6.8870   18.6030  -34.8420 H   0  0  0  0  0  0  0  0  0  0  0  0
   -9.1665   19.5745  -32.9074 H   0  0  0  0  0  0  0  0  0  0  0  0
   -9.5008   21.7192  -31.6415 H   0  0  0  0  0  0  0  0  0  0  0  0
   -8.1073   23.9700  -30.5685 H   0  0  0  0  0  0  0  0  0  0  0  0
   -5.3670   26.0530  -28.5010 H   0  0  0  0  0  0  0  0  0  0  0  0
   -6.5970   24.7480  -28.5280 H   0  0  0  0  0  0  0  0  0  0  0  0
   -2.2352   20.6681  -31.7101 H   0  0  0  0  0  0  0  0  0  0  0  0
   -2.8244   19.9693  -33.2565 H   0  0  0  0  0  0  0  0  0  0  0  0
   -1.4318   21.1039  -33.2565 H   0  0  0  0  0  0  0  0  0  0  0  0
   -4.8723   20.3233  -33.0423 H   0  0  0  0  0  0  0  0  0  0  0  0
  1  2  1  0
  2  3  1  0
  3  4  2  0
  4  5  1  0
  5  6  2  0
  6  7  1  0
  7  8  2  0
  8  9  1  0
  9 10  1  0
  9 11  2  0
  8 12  1  0
 12 13  1  0
 13 14  2  0
 13 15  1  0
 15 16  1  0
 12 17  1  0
 17 18  2  0
 18  3  1  0
 17  6  1  0
  1 19  1  0
  1 20  1  0
  1 21  1  0
  2 22  1  0
  4 23  1  0
  5 24  1  0
  7 25  1  0
 10 26  1  0
 10 27  1  0
 16 28  1  0
 16 29  1  0
 16 30  1  0
 18 31  1  0
M  END
>  <UniqueID>  (57) 
57

>  <SMILES>  (57) 
CNc1ccc2cc(C(N)=O)n(C(=O)OC)c2c1

>  <Energy>  (57) 
66.33140621764416

>  <Genealogy>  (57) 
CNc1ccc2cc(C(N)=O)n(C(=O)OC)c2c1 (3D coordinates assigned)
CNc1ccc2cc(C(N)=O)n(C(=O)OC)c2c1 (optimized conformer: 66.33140621764416 kcal/mol)

>  <smiles>  (57) 
CNc1ccc2cc(C(N)=O)n(C(=O)OC)c2c1

>  <score_type>  (57) 
oracle

>  <origin>  (57) 
adg

>  <m_score__min__energy>  (57) 
-7.7800000000000002

>  <m_primary>  (57) 
energy

$$$$
57:0
     RDKit          3D

 55 58  0  0  0  0  0  0  0  0999 V2000
   -3.9440   22.5950  -28.1270 C   0  0  0  0  0  0  0  0  0  0  0  0
   -2.6480   22.4820  -28.9190 C   0  0  0  0  0  0  0  0  0  0  0  0
   -2.7330   23.2220  -30.1340 O   0  0  0  0  0  0  0  0  0  0  0  0
   -3.4200   22.7690  -31.2670 C   0  0  0  0  0  0  0  0  0  0  0  0
   -2.7850   22.3220  -32.2610 O   0  0  0  0  0  0  0  0  0  0  0  0
   -4.8550   22.7990  -31.2900 N   0  0  0  0  0  0  0  0  0  0  0  0
   -5.6750   23.8080  -30.8770 C   0  0  0  0  0  0  0  0  0  0  0  0
   -5.2450   25.1570  -30.4570 C   0  0  0  0  0  0  0  0  0  0  0  0
   -3.9580   25.6420  -30.8380 N   0  0  0  0  0  0  0  0  0  0  0  0
   -5.9850   25.8730  -29.7320 O   0  0  0  0  0  0  0  0  0  0  0  0
   -7.0100   23.4240  -30.9820 C   0  0  0  0  0  0  0  0  0  0  0  0
   -6.9840   22.1410  -31.4790 C   0  0  0  0  0  0  0  0  0  0  0  0
   -8.0310   21.2720  -31.7650 C   0  0  0  0  0  0  0  0  0  0  0  0
   -7.7110   19.9890  -32.2410 C   0  0  0  0  0  0  0  0  0  0  0  0
   -6.3580   19.5940  -32.4180 C   0  0  0  0  0  0  0  0  0  0  0  0
   -6.0420   18.2670  -32.8900 N   0  0  0  0  0  0  0  0  0  0  0  0
   -6.1200   17.9750  -34.3320 C   0  0  0  0  0  0  0  0  0  0  0  0
   -6.1710   16.4670  -34.5960 C   0  0  0  0  0  0  0  0  0  0  0  0
   -4.9730   15.7560  -33.9330 C   0  0  0  0  0  0  0  0  0  0  0  0
   -5.0930   14.2840  -34.0910 N   0  0  0  0  0  0  0  0  0  0  0  0
   -4.4350   13.5200  -33.0170 C   0  0  0  0  0  0  0  0  0  0  0  0
   -5.4640   12.5750  -32.4190 C   0  0  0  0  0  0  0  0  0  0  0  0
   -6.5410   12.4640  -33.4720 C   0  0  0  0  0  0  0  0  0  0  0  0
   -6.4670   13.7760  -34.2290 C   0  0  0  0  0  0  0  0  0  0  0  0
   -4.7270   16.2170  -32.4600 C   0  0  0  0  0  0  0  0  0  0  0  0
   -5.8010   17.1770  -31.9330 C   0  0  0  0  0  0  0  0  0  0  0  0
   -5.3240   20.5110  -32.1110 C   0  0  0  0  0  0  0  0  0  0  0  0
   -5.6720   21.7880  -31.6570 C   0  0  0  0  0  0  0  0  0  0  0  0
   -3.7187   22.5754  -27.0505 H   0  0  0  0  0  0  0  0  0  0  0  0
   -4.4466   23.5404  -28.3792 H   0  0  0  0  0  0  0  0  0  0  0  0
   -4.6027   21.7509  -28.3792 H   0  0  0  0  0  0  0  0  0  0  0  0
   -1.8192   22.8769  -28.3131 H   0  0  0  0  0  0  0  0  0  0  0  0
   -2.4734   21.4234  -29.1616 H   0  0  0  0  0  0  0  0  0  0  0  0
   -3.0920   25.2760  -30.3850 H   0  0  0  0  0  0  0  0  0  0  0  0
   -7.8972   24.0202  -30.7225 H   0  0  0  0  0  0  0  0  0  0  0  0
   -9.0776   21.5793  -31.6231 H   0  0  0  0  0  0  0  0  0  0  0  0
   -8.5187   19.2814  -32.4796 H   0  0  0  0  0  0  0  0  0  0  0  0
   -7.0279   18.4409  -34.7427 H   0  0  0  0  0  0  0  0  0  0  0  0
   -5.2193   18.3805  -34.8161 H   0  0  0  0  0  0  0  0  0  0  0  0
   -7.1059   16.0597  -34.1836 H   0  0  0  0  0  0  0  0  0  0  0  0
   -6.1264   16.2966  -35.6818 H   0  0  0  0  0  0  0  0  0  0  0  0
   -4.0595   16.0630  -34.4634 H   0  0  0  0  0  0  0  0  0  0  0  0
   -3.5936   12.9440  -33.4295 H   0  0  0  0  0  0  0  0  0  0  0  0
   -4.0454   14.2006  -32.2456 H   0  0  0  0  0  0  0  0  0  0  0  0
   -5.0158   11.5909  -32.2174 H   0  0  0  0  0  0  0  0  0  0  0  0
   -5.8569   12.9413  -31.4591 H   0  0  0  0  0  0  0  0  0  0  0  0
   -6.3425   11.6157  -34.1435 H   0  0  0  0  0  0  0  0  0  0  0  0
   -7.5356   12.2873  -33.0367 H   0  0  0  0  0  0  0  0  0  0  0  0
   -6.7027   13.6117  -35.2908 H   0  0  0  0  0  0  0  0  0  0  0  0
   -7.1917   14.4991  -33.8267 H   0  0  0  0  0  0  0  0  0  0  0  0
   -4.7089   15.3264  -31.8147 H   0  0  0  0  0  0  0  0  0  0  0  0
   -3.7711   16.7611  -32.4461 H   0  0  0  0  0  0  0  0  0  0  0  0
   -6.7369   16.6205  -31.7770 H   0  0  0  0  0  0  0  0  0  0  0  0
   -5.4512   17.6112  -30.9848 H   0  0  0  0  0  0  0  0  0  0  0  0
   -4.2681   20.2253  -32.2271 H   0  0  0  0  0  0  0  0  0  0  0  0
  1  2  1  0
  2  3  1  0
  3  4  1  0
  4  5  2  0
  4  6  1  0
  6  7  1  0
  7  8  1  0
  8  9  1  0
  8 10  2  0
  7 11  2  0
 11 12  1  0
 12 13  2  0
 13 14  1  0
 14 15  2  0
 15 16  1  0
 16 17  1  0
 17 18  1  0
 18 19  1  0
 19 20  1  0
 20 21  1  0
 21 22  1  0
 22 23  1  0
 23 24  1  0
 19 25  1  0
 25 26  1  0
 15 27  1  0
 27 28  2  0
 28  6  1  0
 28 12  1  0
 26 16  1  0
 24 20  1  0
  1 29  1  0
  1 30  1  0
  1 31  1  0
  2 32  1  0
  2 33  1  0
  9 34  1  0
 11 35  1  0
 13 36  1  0
 14 37  1  0
 17 38  1  0
 17 39  1  0
 18 40  1  0
 18 41  1  0
 19 42  1  0
 21 43  1  0
 21 44  1  0
 22 45  1  0
 22 46  1  0
 23 47  1  0
 23 48  1  0
 24 49  1  0
 24 50  1  0
 25 51  1  0
 25 52  1  0
 26 53  1  0
 26 54  1  0
 27 55  1  0
M  CHG  1   9  -1
M  END
>  <UniqueID>  (58) 
58

>  <SMILES>  (58) 
CCOC(=O)n1c(C([NH-])=O)cc2ccc(N3CCC(N4CCCC4)CC3)cc21

>  <Energy>  (58) 
103.3855420533175

>  <Genealogy>  (58) 
CCOC(=O)n1c(C([NH-])=O)cc2ccc(N3CCC(N4CCCC4)CC3)cc21 (protonated)
CCOC(=O)n1c(C([NH-])=O)cc2ccc(N3CCC(N4CCCC4)CC3)cc21 (3D coordinates assigned)
CCOC(=O)n1c(C([NH-])=O)cc2ccc(N3CCC(N4CCCC4)CC3)cc21 (nonaromatic ring conformer: 103.3855420533175 kcal/mol)

>  <smiles>  (58) 
CCOC(=O)n1c(C(N)=O)cc2ccc(N3CCC(N4CCCC4)CC3)cc21

>  <score_type>  (58) 
oracle

>  <origin>  (58) 
adg

>  <m_score__min__energy>  (58) 
-10.789999999999999

>  <m_primary>  (58) 
energy

$$$$
58:0
     RDKit          3D

 46 47  0  0  0  0  0  0  0  0999 V2000
   -9.0220   22.5100  -31.9370 C   0  0  0  0  0  0  0  0  0  0  0  0
   -7.5420   22.7390  -31.6560 C   0  0  0  0  0  0  0  0  0  0  0  0
   -6.7380   21.9560  -32.5350 O   0  0  0  0  0  0  0  0  0  0  0  0
   -6.6530   20.5620  -32.4620 C   0  0  0  0  0  0  0  0  0  0  0  0
   -7.5550   19.8940  -31.8850 O   0  0  0  0  0  0  0  0  0  0  0  0
   -5.4610   19.8680  -33.0680 C   0  0  2  0  0  0  0  0  0  0  0  0
   -5.5910   18.3260  -33.0250 C   0  0  0  0  0  0  0  0  0  0  0  0
   -5.8440   17.6700  -34.4070 C   0  0  0  0  0  0  0  0  0  0  0  0
   -6.5570   16.3240  -34.2210 C   0  0  0  0  0  0  0  0  0  0  0  0
   -4.5430   17.4650  -35.1990 C   0  0  0  0  0  0  0  0  0  0  0  0
   -4.1830   20.3300  -32.3900 C   0  0  0  0  0  0  0  0  0  0  0  0
   -3.0070   19.5340  -32.4280 C   0  0  0  0  0  0  0  0  0  0  0  0
   -1.8300   19.9580  -31.7910 C   0  0  0  0  0  0  0  0  0  0  0  0
   -1.8500   21.1810  -31.1280 C   0  0  0  0  0  0  0  0  0  0  0  0
   -0.8610   21.8150  -30.4140 C   0  0  0  0  0  0  0  0  0  0  0  0
   -1.4330   23.0020  -29.9620 C   0  0  0  0  0  0  0  0  0  0  0  0
   -0.6900   24.0460  -29.2220 C   0  0  0  0  0  0  0  0  0  0  0  0
   -1.1700   25.3900  -29.1780 N   0  0  0  0  0  0  0  0  0  0  0  0
    0.3610   23.7490  -28.5940 O   0  0  0  0  0  0  0  0  0  0  0  0
   -2.7280   23.0980  -30.3810 N   0  0  0  0  0  0  0  0  0  0  0  0
   -3.6730   24.1350  -30.0660 C   0  0  0  0  0  0  0  0  0  0  0  0
   -3.5600   25.2780  -30.5810 O   0  0  0  0  0  0  0  0  0  0  0  0
   -4.7320   23.8810  -29.2040 O   0  0  0  0  0  0  0  0  0  0  0  0
   -2.9680   21.9740  -31.0940 C   0  0  0  0  0  0  0  0  0  0  0  0
   -4.1610   21.5680  -31.7050 C   0  0  0  0  0  0  0  0  0  0  0  0
   -9.5671   22.4257  -30.9853 H   0  0  0  0  0  0  0  0  0  0  0  0
   -9.4210   23.3571  -32.5143 H   0  0  0  0  0  0  0  0  0  0  0  0
   -9.1463   21.5819  -32.5143 H   0  0  0  0  0  0  0  0  0  0  0  0
   -7.3066   23.8035  -31.8024 H   0  0  0  0  0  0  0  0  0  0  0  0
   -7.3274   22.4413  -30.6190 H   0  0  0  0  0  0  0  0  0  0  0  0
   -5.4202   20.1484  -34.1309 H   0  0  0  0  0  0  0  0  0  0  0  0
   -4.6587   17.9127  -32.6126 H   0  0  0  0  0  0  0  0  0  0  0  0
   -6.4696   18.1004  -32.4028 H   0  0  0  0  0  0  0  0  0  0  0  0
   -6.4798   18.3552  -34.9869 H   0  0  0  0  0  0  0  0  0  0  0  0
   -6.6685   16.1135  -33.1471 H   0  0  0  0  0  0  0  0  0  0  0  0
   -7.5505   16.3672  -34.6913 H   0  0  0  0  0  0  0  0  0  0  0  0
   -5.9631   15.5264  -34.6913 H   0  0  0  0  0  0  0  0  0  0  0  0
   -3.7047   17.3329  -34.4992 H   0  0  0  0  0  0  0  0  0  0  0  0
   -4.6364   16.5705  -35.8323 H   0  0  0  0  0  0  0  0  0  0  0  0
   -4.3568   18.3449  -35.8323 H   0  0  0  0  0  0  0  0  0  0  0  0
   -3.0188   18.5731  -32.9634 H   0  0  0  0  0  0  0  0  0  0  0  0
   -0.9192   19.3417  -31.8153 H   0  0  0  0  0  0  0  0  0  0  0  0
    0.1650   21.4601  -30.2370 H   0  0  0  0  0  0  0  0  0  0  0  0
   -2.0060   25.6860  -29.7270 H   0  0  0  0  0  0  0  0  0  0  0  0
   -0.6600   26.1100  -28.6190 H   0  0  0  0  0  0  0  0  0  0  0  0
   -5.0614   22.1978  -31.6535 H   0  0  0  0  0  0  0  0  0  0  0  0
  1  2  1  0
  2  3  1  0
  3  4  1  0
  4  5  2  0
  4  6  1  0
  6  7  1  0
  7  8  1  0
  8  9  1  0
  8 10  1  0
  6 11  1  0
 11 12  2  0
 12 13  1  0
 13 14  2  0
 14 15  1  0
 15 16  2  0
 16 17  1  0
 17 18  1  0
 17 19  2  0
 16 20  1  0
 20 21  1  0
 21 22  2  0
 21 23  1  0
 20 24  1  0
 24 25  2  0
 25 11  1  0
 24 14  1  0
  1 26  1  0
  1 27  1  0
  1 28  1  0
  2 29  1  0
  2 30  1  0
  6 31  1  6
  7 32  1  0
  7 33  1  0
  8 34  1  0
  9 35  1  0
  9 36  1  0
  9 37  1  0
 10 38  1  0
 10 39  1  0
 10 40  1  0
 12 41  1  0
 13 42  1  0
 15 43  1  0
 18 44  1  0
 18 45  1  0
 25 46  1  0
M  CHG  1  23  -1
M  END
>  <UniqueID>  (59) 
59

>  <SMILES>  (59) 
CCOC(=O)[C@H](CC(C)C)c1ccc2cc(C(N)=O)n(C(=O)[O-])c2c1

>  <Energy>  (59) 
75.26116041343803

>  <Genealogy>  (59) 
CCOC(=O)C(CC(C)C)c1ccc2cc(C(N)=O)n(C(=O)[O-])c2c1 (protonated)
CCOC(=O)[C@H](CC(C)C)c1ccc2cc(C(N)=O)n(C(=O)[O-])c2c1 (chirality)
CCOC(=O)[C@H](CC(C)C)c1ccc2cc(C(N)=O)n(C(=O)[O-])c2c1 (3D coordinates assigned)
CCOC(=O)[C@H](CC(C)C)c1ccc2cc(C(N)=O)n(C(=O)[O-])c2c1 (optimized conformer: 75.26116041343803 kcal/mol)

>  <smiles>  (59) 
CCOC(=O)C(CC(C)C)c1ccc2cc(C(N)=O)n(C(=O)O)c2c1

>  <score_type>  (59) 
oracle

>  <origin>  (59) 
adg

>  <m_score__min__energy>  (59) 
-9.3200000000000003

>  <m_primary>  (59) 
energy

$$$$
59:0
     RDKit          3D

 29 31  0  0  0  0  0  0  0  0999 V2000
   -5.3120   26.2970  -30.4760 N   0  0  0  0  0  0  0  0  0  0  0  0
   -6.2510   25.3420  -29.9820 C   0  0  0  0  0  0  0  0  0  0  0  0
   -6.9770   25.6440  -28.9970 O   0  0  0  0  0  0  0  0  0  0  0  0
   -6.4340   24.0350  -30.6440 C   0  0  0  0  0  0  0  0  0  0  0  0
   -7.6830   23.4760  -30.9010 C   0  0  0  0  0  0  0  0  0  0  0  0
   -7.4240   22.3060  -31.5750 C   0  0  0  0  0  0  0  0  0  0  0  0
   -8.3020   21.3430  -32.0600 C   0  0  0  0  0  0  0  0  0  0  0  0
   -7.7580   20.2080  -32.6840 C   0  0  0  0  0  0  0  0  0  0  0  0
   -6.3540   20.0480  -32.8040 C   0  0  0  0  0  0  0  0  0  0  0  0
   -5.8170   18.8300  -33.4550 C   0  0  0  0  0  0  0  0  0  0  0  0
   -5.7560   17.5530  -32.9210 C   0  0  0  0  0  0  0  0  0  0  0  0
   -5.1800   16.7660  -33.8920 C   0  0  0  0  0  0  0  0  0  0  0  0
   -4.9230   17.6000  -34.9600 C   0  0  0  0  0  0  0  0  0  0  0  0
   -5.3120   18.8190  -34.6700 O   0  0  0  0  0  0  0  0  0  0  0  0
   -5.4930   21.0500  -32.2950 C   0  0  0  0  0  0  0  0  0  0  0  0
   -6.0640   22.1820  -31.6980 C   0  0  0  0  0  0  0  0  0  0  0  0
   -5.4390   23.2380  -31.1270 N   0  0  0  0  0  0  0  0  0  0  0  0
   -4.0220   23.4120  -30.9620 C   0  0  0  0  0  0  0  0  0  0  0  0
   -3.2520   22.4160  -30.9930 O   0  0  0  0  0  0  0  0  0  0  0  0
   -3.4840   24.6780  -30.7670 O   0  0  0  0  0  0  0  0  0  0  0  0
   -5.1670   27.2000  -29.9720 H   0  0  0  0  0  0  0  0  0  0  0  0
   -4.8200   26.1490  -31.3850 H   0  0  0  0  0  0  0  0  0  0  0  0
   -8.6666   23.8833  -30.6240 H   0  0  0  0  0  0  0  0  0  0  0  0
   -9.3903   21.4663  -31.9581 H   0  0  0  0  0  0  0  0  0  0  0  0
   -8.4292   19.4340  -33.0844 H   0  0  0  0  0  0  0  0  0  0  0  0
   -6.0978   17.2337  -31.9254 H   0  0  0  0  0  0  0  0  0  0  0  0
   -4.9674   15.6886  -33.8290 H   0  0  0  0  0  0  0  0  0  0  0  0
   -4.4623   17.2905  -35.9097 H   0  0  0  0  0  0  0  0  0  0  0  0
   -4.4006   20.9424  -32.3665 H   0  0  0  0  0  0  0  0  0  0  0  0
  1  2  1  0
  2  3  2  0
  2  4  1  0
  4  5  2  0
  5  6  1  0
  6  7  2  0
  7  8  1  0
  8  9  2  0
  9 10  1  0
 10 11  2  0
 11 12  1  0
 12 13  2  0
 13 14  1  0
  9 15  1  0
 15 16  2  0
 16 17  1  0
 17 18  1  0
 18 19  2  0
 18 20  1  0
 17  4  1  0
 16  6  1  0
 14 10  1  0
  1 21  1  0
  1 22  1  0
  5 23  1  0
  7 24  1  0
  8 25  1  0
 11 26  1  0
 12 27  1  0
 13 28  1  0
 15 29  1  0
M  CHG  1  20  -1
M  END
>  <UniqueID>  (60) 
60

>  <SMILES>  (60) 
NC(=O)c1cc2ccc(-c3ccco3)cc2n1C(=O)[O-]

>  <Energy>  (60) 
98.90565844526579

>  <Genealogy>  (60) 
NC(=O)c1cc2ccc(-c3ccco3)cc2n1C(=O)[O-] (protonated)
NC(=O)c1cc2ccc(-c3ccco3)cc2n1C(=O)[O-] (3D coordinates assigned)
NC(=O)c1cc2ccc(-c3ccco3)cc2n1C(=O)[O-] (optimized conformer: 98.90565844526579 kcal/mol)

>  <smiles>  (60) 
NC(=O)c1cc2ccc(-c3ccco3)cc2n1C(=O)O

>  <score_type>  (60) 
oracle

>  <origin>  (60) 
adg

>  <m_score__min__energy>  (60) 
-8.8800000000000008

>  <m_primary>  (60) 
energy

$$$$
60:0
     RDKit          3D

 41 43  0  0  0  0  0  0  0  0999 V2000
   -1.8480   20.8210  -31.4230 C   0  0  0  0  0  0  0  0  0  0  0  0
   -2.6540   21.9410  -32.0740 C   0  0  0  0  0  0  0  0  0  0  0  0
   -3.4620   22.6770  -31.0470 C   0  0  0  0  0  0  0  0  0  0  0  0
   -2.8910   23.1540  -30.0300 O   0  0  0  0  0  0  0  0  0  0  0  0
   -4.8900   22.7590  -31.1640 N   0  0  0  0  0  0  0  0  0  0  0  0
   -5.6840   23.8550  -31.0110 C   0  0  0  0  0  0  0  0  0  0  0  0
   -5.2440   25.1820  -30.5340 C   0  0  0  0  0  0  0  0  0  0  0  0
   -3.9400   25.6720  -30.8390 N   0  0  0  0  0  0  0  0  0  0  0  0
   -6.0160   25.8800  -29.8240 O   0  0  0  0  0  0  0  0  0  0  0  0
   -7.0110   23.5400  -31.3020 C   0  0  0  0  0  0  0  0  0  0  0  0
   -7.0030   22.2020  -31.6320 C   0  0  0  0  0  0  0  0  0  0  0  0
   -8.0470   21.3640  -32.0110 C   0  0  0  0  0  0  0  0  0  0  0  0
   -7.7420   20.0250  -32.3090 C   0  0  0  0  0  0  0  0  0  0  0  0
   -6.4070   19.5450  -32.2300 C   0  0  0  0  0  0  0  0  0  0  0  0
   -6.0940   18.1260  -32.5460 C   0  0  0  0  0  0  0  0  0  0  0  0
   -6.0890   17.6680  -33.8720 C   0  0  0  0  0  0  0  0  0  0  0  0
   -5.7760   16.3380  -34.1580 C   0  0  0  0  0  0  0  0  0  0  0  0
   -5.4640   15.4580  -33.1080 C   0  0  0  0  0  0  0  0  0  0  0  0
   -5.1360   14.1120  -33.3340 O   0  0  0  0  0  0  0  0  0  0  0  0
   -4.6610   13.5950  -34.5730 C   0  0  0  0  0  0  0  0  0  0  0  0
   -5.4790   15.9200  -31.8260 N   0  0  0  0  0  0  0  0  0  0  0  0
   -5.7830   17.2130  -31.5260 C   0  0  0  0  0  0  0  0  0  0  0  0
   -5.3750   20.4340  -31.8420 C   0  0  0  0  0  0  0  0  0  0  0  0
   -5.7110   21.7570  -31.5410 C   0  0  0  0  0  0  0  0  0  0  0  0
   -1.9128   20.9110  -30.3286 H   0  0  0  0  0  0  0  0  0  0  0  0
   -2.2541   19.8476  -31.7355 H   0  0  0  0  0  0  0  0  0  0  0  0
   -0.7961   20.8969  -31.7355 H   0  0  0  0  0  0  0  0  0  0  0  0
   -1.9647   22.6447  -32.5636 H   0  0  0  0  0  0  0  0  0  0  0  0
   -3.3384   21.5008  -32.8141 H   0  0  0  0  0  0  0  0  0  0  0  0
   -3.0960   25.2840  -30.3630 H   0  0  0  0  0  0  0  0  0  0  0  0
   -7.8788   24.2153  -31.2741 H   0  0  0  0  0  0  0  0  0  0  0  0
   -9.0794   21.7381  -32.0754 H   0  0  0  0  0  0  0  0  0  0  0  0
   -8.5482   19.3388  -32.6076 H   0  0  0  0  0  0  0  0  0  0  0  0
   -6.3331   18.3607  -34.6909 H   0  0  0  0  0  0  0  0  0  0  0  0
   -5.7736   15.9812  -35.1985 H   0  0  0  0  0  0  0  0  0  0  0  0
   -3.9282   12.7974  -34.3807 H   0  0  0  0  0  0  0  0  0  0  0  0
   -5.5053   13.1865  -35.1477 H   0  0  0  0  0  0  0  0  0  0  0  0
   -4.1825   14.4018  -35.1477 H   0  0  0  0  0  0  0  0  0  0  0  0
   -5.2490   15.2640  -31.0470 H   0  0  0  0  0  0  0  0  0  0  0  0
   -5.7849   17.5444  -30.4771 H   0  0  0  0  0  0  0  0  0  0  0  0
   -4.3318   20.0908  -31.7789 H   0  0  0  0  0  0  0  0  0  0  0  0
  1  2  1  0
  2  3  1  0
  3  4  2  0
  3  5  1  0
  5  6  1  0
  6  7  1  0
  7  8  1  0
  7  9  2  0
  6 10  2  0
 10 11  1  0
 11 12  2  0
 12 13  1  0
 13 14  2  0
 14 15  1  0
 15 16  2  0
 16 17  1  0
 17 18  2  0
 18 19  1  0
 19 20  1  0
 18 21  1  0
 21 22  2  0
 14 23  1  0
 23 24  2  0
 24  5  1  0
 24 11  1  0
 22 15  1  0
  1 25  1  0
  1 26  1  0
  1 27  1  0
  2 28  1  0
  2 29  1  0
  8 30  1  0
 10 31  1  0
 12 32  1  0
 13 33  1  0
 16 34  1  0
 17 35  1  0
 20 36  1  0
 20 37  1  0
 20 38  1  0
 21 39  1  0
 22 40  1  0
 23 41  1  0
M  CHG  2   8  -1  21   1
M  END
>  <UniqueID>  (61) 
61

>  <SMILES>  (61) 
CCC(=O)n1c(C([NH-])=O)cc2ccc(-c3ccc(OC)[nH+]c3)cc21

>  <Energy>  (61) 
84.25430796583953

>  <Genealogy>  (61) 
CCC(=O)n1c(C([NH-])=O)cc2ccc(-c3ccc(OC)[nH+]c3)cc21 (protonated)
CCC(=O)n1c(C([NH-])=O)cc2ccc(-c3ccc(OC)[nH+]c3)cc21 (3D coordinates assigned)
CCC(=O)n1c(C([NH-])=O)cc2ccc(-c3ccc(OC)[nH+]c3)cc21 (optimized conformer: 84.25430796583953 kcal/mol)

>  <smiles>  (61) 
CCC(=O)n1c(C(N)=O)cc2ccc(-c3ccc(OC)nc3)cc21

>  <score_type>  (61) 
oracle

>  <origin>  (61) 
adg

>  <m_score__min__energy>  (61) 
-9.6999999999999993

>  <m_primary>  (61) 
energy

$$$$
61:0
     RDKit          3D

 45 47  0  0  0  0  0  0  0  0999 V2000
   -2.7400   24.4220  -27.8070 C   0  0  0  0  0  0  0  0  0  0  0  0
   -4.2120   24.0720  -27.9780 C   0  0  0  0  0  0  0  0  0  0  0  0
   -4.4500   23.6560  -29.3180 O   0  0  0  0  0  0  0  0  0  0  0  0
   -4.7550   24.5540  -30.3430 C   0  0  0  0  0  0  0  0  0  0  0  0
   -3.8610   25.2960  -30.8380 O   0  0  0  0  0  0  0  0  0  0  0  0
   -6.1700   24.6850  -30.8070 C   0  0  0  0  0  0  0  0  0  0  0  0
   -6.6460   23.3750  -31.3720 C   0  0  0  0  0  0  0  0  0  0  0  0
   -8.0070   23.0060  -31.2600 C   0  0  0  0  0  0  0  0  0  0  0  0
   -8.4500   21.7660  -31.7410 C   0  0  0  0  0  0  0  0  0  0  0  0
   -7.5130   20.9130  -32.3150 C   0  0  0  0  0  0  0  0  0  0  0  0
   -7.6820   19.6550  -32.8370 C   0  0  0  0  0  0  0  0  0  0  0  0
   -6.4170   19.2520  -33.2410 C   0  0  0  0  0  0  0  0  0  0  0  0
   -6.1640   17.9290  -33.8390 C   0  0  0  0  0  0  0  0  0  0  0  0
   -5.5000   17.8060  -35.0970 N   0  0  0  0  0  0  0  0  0  0  0  0
   -6.4680   16.8930  -33.1880 O   0  0  0  0  0  0  0  0  0  0  0  0
   -5.4890   20.2290  -33.0070 N   0  0  0  0  0  0  0  0  0  0  0  0
   -4.0950   20.2140  -33.3930 C   0  0  0  0  0  0  0  0  0  0  0  0
   -3.6580   19.3210  -34.1660 O   0  0  0  0  0  0  0  0  0  0  0  0
   -3.2260   21.2070  -32.9250 O   0  0  0  0  0  0  0  0  0  0  0  0
   -2.6760   21.2590  -31.6360 C   0  0  0  0  0  0  0  0  0  0  0  0
   -1.4110   21.8370  -31.4650 C   0  0  0  0  0  0  0  0  0  0  0  0
   -0.8330   21.9150  -30.1910 C   0  0  0  0  0  0  0  0  0  0  0  0
   -1.5230   21.4320  -29.0760 C   0  0  0  0  0  0  0  0  0  0  0  0
   -2.7950   20.8750  -29.2350 C   0  0  0  0  0  0  0  0  0  0  0  0
   -3.3740   20.7900  -30.5080 C   0  0  0  0  0  0  0  0  0  0  0  0
   -6.1840   21.2440  -32.4270 C   0  0  0  0  0  0  0  0  0  0  0  0
   -5.7200   22.4840  -31.9610 C   0  0  0  0  0  0  0  0  0  0  0  0
   -2.4988   24.4793  -26.7353 H   0  0  0  0  0  0  0  0  0  0  0  0
   -2.1211   23.6460  -28.2811 H   0  0  0  0  0  0  0  0  0  0  0  0
   -2.5366   25.3935  -28.2811 H   0  0  0  0  0  0  0  0  0  0  0  0
   -4.4771   23.2567  -27.2888 H   0  0  0  0  0  0  0  0  0  0  0  0
   -4.8267   24.9565  -27.7549 H   0  0  0  0  0  0  0  0  0  0  0  0
   -6.8079   24.9691  -29.9571 H   0  0  0  0  0  0  0  0  0  0  0  0
   -6.2254   25.4580  -31.5877 H   0  0  0  0  0  0  0  0  0  0  0  0
   -8.7232   23.6973  -30.7919 H   0  0  0  0  0  0  0  0  0  0  0  0
   -9.5084   21.4758  -31.6666 H   0  0  0  0  0  0  0  0  0  0  0  0
   -8.6205   19.0870  -32.9179 H   0  0  0  0  0  0  0  0  0  0  0  0
   -5.3530   16.8650  -35.5230 H   0  0  0  0  0  0  0  0  0  0  0  0
   -5.1360   18.6520  -35.5940 H   0  0  0  0  0  0  0  0  0  0  0  0
   -0.8683   22.2320  -32.3365 H   0  0  0  0  0  0  0  0  0  0  0  0
    0.1665   22.3576  -30.0682 H   0  0  0  0  0  0  0  0  0  0  0  0
   -1.0667   21.4899  -28.0768 H   0  0  0  0  0  0  0  0  0  0  0  0
   -3.3435   20.5020  -28.3575 H   0  0  0  0  0  0  0  0  0  0  0  0
   -4.3775   20.3552  -30.6259 H   0  0  0  0  0  0  0  0  0  0  0  0
   -4.6582   22.7567  -32.0522 H   0  0  0  0  0  0  0  0  0  0  0  0
  1  2  1  0
  2  3  1  0
  3  4  1  0
  4  5  2  0
  4  6  1  0
  6  7  1  0
  7  8  2  0
  8  9  1  0
  9 10  2  0
 10 11  1  0
 11 12  2  0
 12 13  1  0
 13 14  1  0
 13 15  2  0
 12 16  1  0
 16 17  1  0
 17 18  2  0
 17 19  1  0
 19 20  1  0
 20 21  2  0
 21 22  1  0
 22 23  2  0
 23 24  1  0
 24 25  2  0
 16 26  1  0
 26 27  2  0
 27  7  1  0
 26 10  1  0
 25 20  1  0
  1 28  1  0
  1 29  1  0
  1 30  1  0
  2 31  1  0
  2 32  1  0
  6 33  1  0
  6 34  1  0
  8 35  1  0
  9 36  1  0
 11 37  1  0
 14 38  1  0
 14 39  1  0
 21 40  1  0
 22 41  1  0
 23 42  1  0
 24 43  1  0
 25 44  1  0
 27 45  1  0
M  END
>  <UniqueID>  (62) 
62

>  <SMILES>  (62) 
CCOC(=O)Cc1ccc2cc(C(N)=O)n(C(=O)Oc3ccccc3)c2c1

>  <Energy>  (62) 
86.54007422511958

>  <Genealogy>  (62) 
CCOC(=O)Cc1ccc2cc(C(N)=O)n(C(=O)Oc3ccccc3)c2c1 (3D coordinates assigned)
CCOC(=O)Cc1ccc2cc(C(N)=O)n(C(=O)Oc3ccccc3)c2c1 (optimized conformer: 86.54007422511958 kcal/mol)

>  <smiles>  (62) 
CCOC(=O)Cc1ccc2cc(C(N)=O)n(C(=O)Oc3ccccc3)c2c1

>  <score_type>  (62) 
oracle

>  <origin>  (62) 
adg

>  <m_score__min__energy>  (62) 
-9.0800000000000001

>  <m_primary>  (62) 
energy

$$$$
62:0
     RDKit          3D

 37 38  0  0  0  0  0  0  0  0999 V2000
   -4.1980   24.8910  -26.4470 C   0  0  0  0  0  0  0  0  0  0  0  0
   -3.3460   24.2000  -27.5110 C   0  0  0  0  0  0  0  0  0  0  0  0
   -3.9230   22.8450  -27.9470 C   0  0  0  0  0  0  0  0  0  0  0  0
   -2.9250   22.0140  -28.7630 C   0  0  0  0  0  0  0  0  0  0  0  0
   -3.5450   21.5140  -29.9460 O   0  0  0  0  0  0  0  0  0  0  0  0
   -4.0400   22.3360  -30.9650 C   0  0  0  0  0  0  0  0  0  0  0  0
   -3.2720   22.7570  -31.8740 O   0  0  0  0  0  0  0  0  0  0  0  0
   -5.4340   22.6760  -30.9910 N   0  0  0  0  0  0  0  0  0  0  0  0
   -5.9980   23.9080  -30.8350 C   0  0  0  0  0  0  0  0  0  0  0  0
   -5.2890   25.1460  -30.4450 C   0  0  0  0  0  0  0  0  0  0  0  0
   -3.8830   25.2780  -30.6380 N   0  0  0  0  0  0  0  0  0  0  0  0
   -5.9250   26.0800  -29.8900 O   0  0  0  0  0  0  0  0  0  0  0  0
   -7.3770   23.8390  -31.0130 C   0  0  0  0  0  0  0  0  0  0  0  0
   -7.6460   22.5140  -31.2740 C   0  0  0  0  0  0  0  0  0  0  0  0
   -8.8550   21.8840  -31.5510 C   0  0  0  0  0  0  0  0  0  0  0  0
   -8.8340   20.5060  -31.8200 C   0  0  0  0  0  0  0  0  0  0  0  0
   -7.6140   19.7820  -31.7980 C   0  0  0  0  0  0  0  0  0  0  0  0
   -7.5950   18.3150  -32.1490 C   0  0  0  0  0  0  0  0  0  0  0  0
   -8.8610   17.7880  -31.9650 F   0  0  0  0  0  0  0  0  0  0  0  0
   -7.2190   18.1320  -33.4680 F   0  0  0  0  0  0  0  0  0  0  0  0
   -6.7010   17.6310  -31.3440 F   0  0  0  0  0  0  0  0  0  0  0  0
   -6.4020   20.4640  -31.5370 C   0  0  0  0  0  0  0  0  0  0  0  0
   -6.4570   21.8330  -31.2540 C   0  0  0  0  0  0  0  0  0  0  0  0
   -3.8416   24.6020  -25.4473 H   0  0  0  0  0  0  0  0  0  0  0  0
   -4.1171   25.9818  -26.5639 H   0  0  0  0  0  0  0  0  0  0  0  0
   -5.2486   24.5866  -26.5639 H   0  0  0  0  0  0  0  0  0  0  0  0
   -3.2840   24.8556  -28.3921 H   0  0  0  0  0  0  0  0  0  0  0  0
   -2.3551   24.0124  -27.0718 H   0  0  0  0  0  0  0  0  0  0  0  0
   -4.2035   22.2760  -27.0484 H   0  0  0  0  0  0  0  0  0  0  0  0
   -4.7936   23.0447  -28.5890 H   0  0  0  0  0  0  0  0  0  0  0  0
   -2.0692   22.6464  -29.0418 H   0  0  0  0  0  0  0  0  0  0  0  0
   -2.5842   21.1649  -28.1524 H   0  0  0  0  0  0  0  0  0  0  0  0
   -3.4910   26.0530  -31.2150 H   0  0  0  0  0  0  0  0  0  0  0  0
   -8.0987   24.6673  -30.9570 H   0  0  0  0  0  0  0  0  0  0  0  0
   -9.7991   22.4484  -31.5591 H   0  0  0  0  0  0  0  0  0  0  0  0
   -9.7735   19.9822  -32.0503 H   0  0  0  0  0  0  0  0  0  0  0  0
   -5.4401   19.9308  -31.5561 H   0  0  0  0  0  0  0  0  0  0  0  0
  1  2  1  0
  2  3  1  0
  3  4  1  0
  4  5  1  0
  5  6  1  0
  6  7  2  0
  6  8  1  0
  8  9  1  0
  9 10  1  0
 10 11  1  0
 10 12  2  0
  9 13  2  0
 13 14  1  0
 14 15  2  0
 15 16  1  0
 16 17  2  0
 17 18  1  0
 18 19  1  0
 18 20  1  0
 18 21  1  0
 17 22  1  0
 22 23  2  0
 23  8  1  0
 23 14  1  0
  1 24  1  0
  1 25  1  0
  1 26  1  0
  2 27  1  0
  2 28  1  0
  3 29  1  0
  3 30  1  0
  4 31  1  0
  4 32  1  0
 11 33  1  0
 13 34  1  0
 15 35  1  0
 16 36  1  0
 22 37  1  0
M  CHG  1  11  -1
M  END
>  <UniqueID>  (63) 
63

>  <SMILES>  (63) 
CCCCOC(=O)n1c(C([NH-])=O)cc2ccc(C(F)(F)F)cc21

>  <Energy>  (63) 
69.7300445060693

>  <Genealogy>  (63) 
CCCCOC(=O)n1c(C([NH-])=O)cc2ccc(C(F)(F)F)cc21 (protonated)
CCCCOC(=O)n1c(C([NH-])=O)cc2ccc(C(F)(F)F)cc21 (3D coordinates assigned)
CCCCOC(=O)n1c(C([NH-])=O)cc2ccc(C(F)(F)F)cc21 (optimized conformer: 69.7300445060693 kcal/mol)

>  <smiles>  (63) 
CCCCOC(=O)n1c(C(N)=O)cc2ccc(C(F)(F)F)cc21

>  <score_type>  (63) 
oracle

>  <origin>  (63) 
adg

>  <m_score__min__energy>  (63) 
-9.6300000000000008

>  <m_primary>  (63) 
energy

$$$$
63:0
     RDKit          3D

 39 41  0  0  0  0  0  0  0  0999 V2000
   -3.3460   22.0080  -30.1530 C   0  0  0  0  0  0  0  0  0  0  0  0
   -4.1080   23.1940  -30.6510 C   0  0  0  0  0  0  0  0  0  0  0  0
   -3.5000   24.2820  -30.8380 O   0  0  0  0  0  0  0  0  0  0  0  0
   -5.5190   23.1110  -30.9140 N   0  0  0  0  0  0  0  0  0  0  0  0
   -6.4580   24.0720  -30.6830 C   0  0  0  0  0  0  0  0  0  0  0  0
   -6.2110   25.3600  -29.9940 C   0  0  0  0  0  0  0  0  0  0  0  0
   -5.2220   26.2730  -30.4760 N   0  0  0  0  0  0  0  0  0  0  0  0
   -6.8910   25.6740  -28.9810 O   0  0  0  0  0  0  0  0  0  0  0  0
   -7.7090   23.6440  -31.1230 C   0  0  0  0  0  0  0  0  0  0  0  0
   -7.5040   22.3860  -31.6410 C   0  0  0  0  0  0  0  0  0  0  0  0
   -8.4030   21.5040  -32.2300 C   0  0  0  0  0  0  0  0  0  0  0  0
   -7.9090   20.2780  -32.7070 C   0  0  0  0  0  0  0  0  0  0  0  0
   -6.5300   19.9590  -32.5990 C   0  0  0  0  0  0  0  0  0  0  0  0
   -6.0160   18.6670  -33.1200 C   0  0  0  0  0  0  0  0  0  0  0  0
   -5.5310   18.5690  -34.4370 C   0  0  0  0  0  0  0  0  0  0  0  0
   -5.0480   17.3520  -34.9250 C   0  0  0  0  0  0  0  0  0  0  0  0
   -5.0360   16.2120  -34.1140 C   0  0  0  0  0  0  0  0  0  0  0  0
   -4.5390   15.0160  -34.6540 O   0  0  0  0  0  0  0  0  0  0  0  0
   -3.2340   14.8530  -35.2020 C   0  0  0  0  0  0  0  0  0  0  0  0
   -2.2940   15.4080  -34.3540 F   0  0  0  0  0  0  0  0  0  0  0  0
   -3.1740   15.4970  -36.4230 F   0  0  0  0  0  0  0  0  0  0  0  0
   -5.5200   16.3050  -32.7960 C   0  0  0  0  0  0  0  0  0  0  0  0
   -6.0060   17.5210  -32.3060 C   0  0  0  0  0  0  0  0  0  0  0  0
   -5.6480   20.8860  -31.9930 C   0  0  0  0  0  0  0  0  0  0  0  0
   -6.1740   22.0880  -31.5070 C   0  0  0  0  0  0  0  0  0  0  0  0
   -3.3459   22.0078  -29.0530 H   0  0  0  0  0  0  0  0  0  0  0  0
   -3.8214   21.0863  -30.5198 H   0  0  0  0  0  0  0  0  0  0  0  0
   -2.3101   22.0573  -30.5198 H   0  0  0  0  0  0  0  0  0  0  0  0
   -5.0860   27.1930  -30.0020 H   0  0  0  0  0  0  0  0  0  0  0  0
   -4.5930   26.0260  -31.2710 H   0  0  0  0  0  0  0  0  0  0  0  0
   -8.6593   24.1953  -31.0679 H   0  0  0  0  0  0  0  0  0  0  0  0
   -9.4694   21.7584  -32.3199 H   0  0  0  0  0  0  0  0  0  0  0  0
   -8.5990   19.5570  -33.1696 H   0  0  0  0  0  0  0  0  0  0  0  0
   -5.5320   19.4564  -35.0870 H   0  0  0  0  0  0  0  0  0  0  0  0
   -4.6734   17.2896  -35.9574 H   0  0  0  0  0  0  0  0  0  0  0  0
   -3.0238   13.7805  -35.3270 H   0  0  0  0  0  0  0  0  0  0  0  0
   -5.5160   15.4163  -32.1477 H   0  0  0  0  0  0  0  0  0  0  0  0
   -6.3838   17.5814  -31.2747 H   0  0  0  0  0  0  0  0  0  0  0  0
   -4.5737   20.6662  -31.9062 H   0  0  0  0  0  0  0  0  0  0  0  0
  1  2  1  0
  2  3  2  0
  2  4  1  0
  4  5  1  0
  5  6  1  0
  6  7  1  0
  6  8  2  0
  5  9  2  0
  9 10  1  0
 10 11  2  0
 11 12  1  0
 12 13  2  0
 13 14  1  0
 14 15  2  0
 15 16  1  0
 16 17  2  0
 17 18  1  0
 18 19  1  0
 19 20  1  0
 19 21  1  0
 17 22  1  0
 22 23  2  0
 13 24  1  0
 24 25  2  0
 25  4  1  0
 25 10  1  0
 23 14  1  0
  1 26  1  0
  1 27  1  0
  1 28  1  0
  7 29  1  0
  7 30  1  0
  9 31  1  0
 11 32  1  0
 12 33  1  0
 15 34  1  0
 16 35  1  0
 19 36  1  0
 22 37  1  0
 23 38  1  0
 24 39  1  0
M  END
>  <UniqueID>  (64) 
64

>  <SMILES>  (64) 
CC(=O)n1c(C(N)=O)cc2ccc(-c3ccc(OC(F)F)cc3)cc21

>  <Energy>  (64) 
84.66717458183197

>  <Genealogy>  (64) 
CC(=O)n1c(C(N)=O)cc2ccc(-c3ccc(OC(F)F)cc3)cc21 (3D coordinates assigned)
CC(=O)n1c(C(N)=O)cc2ccc(-c3ccc(OC(F)F)cc3)cc21 (optimized conformer: 84.66717458183197 kcal/mol)

>  <smiles>  (64) 
CC(=O)n1c(C(N)=O)cc2ccc(-c3ccc(OC(F)F)cc3)cc21

>  <score_type>  (64) 
oracle

>  <origin>  (64) 
adg

>  <m_score__min__energy>  (64) 
-8.2200000000000006

>  <m_primary>  (64) 
energy

$$$$
64:0
     RDKit          3D

 40 42  0  0  0  0  0  0  0  0999 V2000
   -3.2710   20.4870  -33.1370 C   0  0  0  0  0  0  0  0  0  0  0  0
   -3.8200   20.8720  -31.8830 O   0  0  0  0  0  0  0  0  0  0  0  0
   -4.0590   22.2080  -31.5430 C   0  0  0  0  0  0  0  0  0  0  0  0
   -3.1170   23.0460  -31.5610 O   0  0  0  0  0  0  0  0  0  0  0  0
   -5.3770   22.6210  -31.1510 N   0  0  0  0  0  0  0  0  0  0  0  0
   -5.7280   23.7480  -30.4660 C   0  0  0  0  0  0  0  0  0  0  0  0
   -4.7960   24.7120  -29.8450 C   0  0  0  0  0  0  0  0  0  0  0  0
   -3.9070   25.4670  -30.6650 N   0  0  0  0  0  0  0  0  0  0  0  0
   -4.8020   24.9040  -28.6010 O   0  0  0  0  0  0  0  0  0  0  0  0
   -7.1140   23.8350  -30.3480 C   0  0  0  0  0  0  0  0  0  0  0  0
   -7.6070   22.7170  -30.9800 C   0  0  0  0  0  0  0  0  0  0  0  0
   -8.9210   22.2990  -31.1640 C   0  0  0  0  0  0  0  0  0  0  0  0
   -9.1400   21.1080  -31.8770 C   0  0  0  0  0  0  0  0  0  0  0  0
   -8.0500   20.3680  -32.4030 C   0  0  0  0  0  0  0  0  0  0  0  0
   -8.2860   19.1370  -33.1150 N   0  0  0  0  0  0  0  0  0  0  0  0
   -7.7160   18.0080  -32.3700 C   0  0  0  0  0  0  0  0  0  0  0  0
   -6.4120   17.5740  -32.9870 C   0  0  0  0  0  0  0  0  0  0  0  0
   -6.0040   18.0860  -34.2270 C   0  0  0  0  0  0  0  0  0  0  0  0
   -4.7760   17.7030  -34.7700 C   0  0  0  0  0  0  0  0  0  0  0  0
   -3.9610   16.8180  -34.0620 C   0  0  0  0  0  0  0  0  0  0  0  0
   -4.3620   16.3430  -32.8530 N   0  0  0  0  0  0  0  0  0  0  0  0
   -5.5530   16.7000  -32.3030 C   0  0  0  0  0  0  0  0  0  0  0  0
   -6.7270   20.8200  -32.1850 C   0  0  0  0  0  0  0  0  0  0  0  0
   -6.5390   22.0000  -31.4550 C   0  0  0  0  0  0  0  0  0  0  0  0
   -2.3807   19.8626  -32.9713 H   0  0  0  0  0  0  0  0  0  0  0  0
   -4.0195   19.9149  -33.7049 H   0  0  0  0  0  0  0  0  0  0  0  0
   -2.9881   21.3856  -33.7049 H   0  0  0  0  0  0  0  0  0  0  0  0
   -2.9330   25.1350  -30.8460 H   0  0  0  0  0  0  0  0  0  0  0  0
   -7.6918   24.6299  -29.8538 H   0  0  0  0  0  0  0  0  0  0  0  0
   -9.7629   22.8829  -30.7636 H   0  0  0  0  0  0  0  0  0  0  0  0
  -10.1675   20.7457  -32.0288 H   0  0  0  0  0  0  0  0  0  0  0  0
   -7.8490   19.1910  -34.0660 H   0  0  0  0  0  0  0  0  0  0  0  0
   -9.3170   18.9950  -33.2410 H   0  0  0  0  0  0  0  0  0  0  0  0
   -7.5396   18.3138  -31.3282 H   0  0  0  0  0  0  0  0  0  0  0  0
   -8.4232   17.1661  -32.4033 H   0  0  0  0  0  0  0  0  0  0  0  0
   -6.6512   18.7891  -34.7718 H   0  0  0  0  0  0  0  0  0  0  0  0
   -4.4539   18.0948  -35.7461 H   0  0  0  0  0  0  0  0  0  0  0  0
   -2.9940   16.5049  -34.4825 H   0  0  0  0  0  0  0  0  0  0  0  0
   -5.8441   16.3028  -31.3194 H   0  0  0  0  0  0  0  0  0  0  0  0
   -5.8674   20.2582  -32.5793 H   0  0  0  0  0  0  0  0  0  0  0  0
  1  2  1  0
  2  3  1  0
  3  4  2  0
  3  5  1  0
  5  6  1  0
  6  7  1  0
  7  8  1  0
  7  9  2  0
  6 10  2  0
 10 11  1  0
 11 12  2  0
 12 13  1  0
 13 14  2  0
 14 15  1  0
 15 16  1  0
 16 17  1  0
 17 18  2  0
 18 19  1  0
 19 20  2  0
 20 21  1  0
 21 22  2  0
 14 23  1  0
 23 24  2  0
 24  5  1  0
 24 11  1  0
 22 17  1  0
  1 25  1  0
  1 26  1  0
  1 27  1  0
  8 28  1  0
 10 29  1  0
 12 30  1  0
 13 31  1  0
 15 32  1  0
 15 33  1  0
 16 34  1  0
 16 35  1  0
 18 36  1  0
 19 37  1  0
 20 38  1  0
 22 39  1  0
 23 40  1  0
M  CHG  2   8  -1  15   1
M  END
>  <UniqueID>  (65) 
65

>  <SMILES>  (65) 
COC(=O)n1c(C([NH-])=O)cc2ccc([NH2+]Cc3cccnc3)cc21

>  <Energy>  (65) 
80.07209679561429

>  <Genealogy>  (65) 
COC(=O)n1c(C([NH-])=O)cc2ccc([NH2+]Cc3cccnc3)cc21 (protonated)
COC(=O)n1c(C([NH-])=O)cc2ccc([NH2+]Cc3cccnc3)cc21 (3D coordinates assigned)
COC(=O)n1c(C([NH-])=O)cc2ccc([NH2+]Cc3cccnc3)cc21 (optimized conformer: 80.07209679561429 kcal/mol)

>  <smiles>  (65) 
COC(=O)n1c(C(N)=O)cc2ccc(NCc3cccnc3)cc21

>  <score_type>  (65) 
oracle

>  <origin>  (65) 
adg

>  <m_score__min__energy>  (65) 
-10.44

>  <m_primary>  (65) 
energy

$$$$
65:0
     RDKit          3D

 32 34  0  0  0  0  0  0  0  0999 V2000
   -6.6620   15.0580  -34.1950 C   0  0  0  0  0  0  0  0  0  0  0  0
   -6.4330   16.4960  -34.1770 N   0  0  0  0  0  0  0  0  0  0  0  0
   -6.9840   17.3690  -33.3140 C   0  0  0  0  0  0  0  0  0  0  0  0
   -6.4590   18.6220  -33.5760 C   0  0  0  0  0  0  0  0  0  0  0  0
   -6.7660   19.8980  -32.8800 C   0  0  0  0  0  0  0  0  0  0  0  0
   -8.1050   20.2300  -32.5420 C   0  0  0  0  0  0  0  0  0  0  0  0
   -8.4040   21.4260  -31.8720 C   0  0  0  0  0  0  0  0  0  0  0  0
   -7.3530   22.2810  -31.5600 C   0  0  0  0  0  0  0  0  0  0  0  0
   -7.3610   23.4800  -30.8860 C   0  0  0  0  0  0  0  0  0  0  0  0
   -6.0310   23.8870  -30.8460 C   0  0  0  0  0  0  0  0  0  0  0  0
   -5.5920   25.1670  -30.2570 C   0  0  0  0  0  0  0  0  0  0  0  0
   -6.1460   25.6460  -29.0310 N   0  0  0  0  0  0  0  0  0  0  0  0
   -4.6710   25.8220  -30.8150 O   0  0  0  0  0  0  0  0  0  0  0  0
   -5.2280   22.9710  -31.4580 N   0  0  0  0  0  0  0  0  0  0  0  0
   -3.7910   22.9750  -31.5250 C   0  0  0  0  0  0  0  0  0  0  0  0
   -3.1250   23.7970  -30.8420 O   0  0  0  0  0  0  0  0  0  0  0  0
   -3.1210   22.0730  -32.3410 O   0  0  0  0  0  0  0  0  0  0  0  0
   -6.0550   21.9940  -31.8940 C   0  0  0  0  0  0  0  0  0  0  0  0
   -5.7250   20.7970  -32.5410 C   0  0  0  0  0  0  0  0  0  0  0  0
   -5.5710   18.4190  -34.6250 C   0  0  0  0  0  0  0  0  0  0  0  0
   -5.5700   17.1160  -34.9650 N   0  0  0  0  0  0  0  0  0  0  0  0
   -6.7217   14.6833  -33.1625 H   0  0  0  0  0  0  0  0  0  0  0  0
   -7.6056   14.8435  -34.7180 H   0  0  0  0  0  0  0  0  0  0  0  0
   -5.8317   14.5610  -34.7180 H   0  0  0  0  0  0  0  0  0  0  0  0
   -7.7232   17.1284  -32.5357 H   0  0  0  0  0  0  0  0  0  0  0  0
   -8.9189   19.5399  -32.8092 H   0  0  0  0  0  0  0  0  0  0  0  0
   -9.4396   21.6797  -31.6015 H   0  0  0  0  0  0  0  0  0  0  0  0
   -8.2326   24.0049  -30.4679 H   0  0  0  0  0  0  0  0  0  0  0  0
   -5.8500   26.5720  -28.6490 H   0  0  0  0  0  0  0  0  0  0  0  0
   -6.7820   25.0500  -28.4570 H   0  0  0  0  0  0  0  0  0  0  0  0
   -4.6782   20.5594  -32.7813 H   0  0  0  0  0  0  0  0  0  0  0  0
   -4.9632   19.2011  -35.1035 H   0  0  0  0  0  0  0  0  0  0  0  0
  1  2  1  0
  2  3  1  0
  3  4  2  0
  4  5  1  0
  5  6  2  0
  6  7  1  0
  7  8  2  0
  8  9  1  0
  9 10  2  0
 10 11  1  0
 11 12  1  0
 11 13  2  0
 10 14  1  0
 14 15  1  0
 15 16  2  0
 15 17  1  0
 14 18  1  0
 18 19  2  0
  4 20  1  0
 20 21  2  0
 21  2  1  0
 19  5  1  0
 18  8  1  0
  1 22  1  0
  1 23  1  0
  1 24  1  0
  3 25  1  0
  6 26  1  0
  7 27  1  0
  9 28  1  0
 12 29  1  0
 12 30  1  0
 19 31  1  0
 20 32  1  0
M  CHG  1  17  -1
M  END
>  <UniqueID>  (66) 
66

>  <SMILES>  (66) 
Cn1cc(-c2ccc3cc(C(N)=O)n(C(=O)[O-])c3c2)cn1

>  <Energy>  (66) 
105.65754235628452

>  <Genealogy>  (66) 
Cn1cc(-c2ccc3cc(C(N)=O)n(C(=O)[O-])c3c2)cn1 (protonated)
Cn1cc(-c2ccc3cc(C(N)=O)n(C(=O)[O-])c3c2)cn1 (3D coordinates assigned)
Cn1cc(-c2ccc3cc(C(N)=O)n(C(=O)[O-])c3c2)cn1 (optimized conformer: 105.65754235628452 kcal/mol)

>  <smiles>  (66) 
Cn1cc(-c2ccc3cc(C(N)=O)n(C(=O)O)c3c2)cn1

>  <score_type>  (66) 
oracle

>  <origin>  (66) 
adg

>  <m_score__min__energy>  (66) 
-9.5899999999999999

>  <m_primary>  (66) 
energy

$$$$
66:0
     RDKit          3D

 33 34  0  0  0  0  0  0  0  0999 V2000
   -2.9890   21.7120  -32.4630 C   0  0  0  0  0  0  0  0  0  0  0  0
   -3.7070   22.6560  -31.5520 C   0  0  0  0  0  0  0  0  0  0  0  0
   -3.0360   23.4360  -30.8230 O   0  0  0  0  0  0  0  0  0  0  0  0
   -5.1440   22.7010  -31.5120 N   0  0  0  0  0  0  0  0  0  0  0  0
   -5.9180   23.6390  -30.8980 C   0  0  0  0  0  0  0  0  0  0  0  0
   -5.4320   24.8830  -30.2650 C   0  0  0  0  0  0  0  0  0  0  0  0
   -5.8990   25.2930  -28.9790 N   0  0  0  0  0  0  0  0  0  0  0  0
   -4.5560   25.5720  -30.8510 O   0  0  0  0  0  0  0  0  0  0  0  0
   -7.2620   23.2810  -30.9560 C   0  0  0  0  0  0  0  0  0  0  0  0
   -7.2890   22.0850  -31.6370 C   0  0  0  0  0  0  0  0  0  0  0  0
   -8.3650   21.2660  -31.9580 C   0  0  0  0  0  0  0  0  0  0  0  0
   -8.1000   20.0580  -32.6220 C   0  0  0  0  0  0  0  0  0  0  0  0
   -6.7670   19.6730  -32.9450 C   0  0  0  0  0  0  0  0  0  0  0  0
   -6.5010   18.4150  -33.6190 N   0  0  0  0  0  0  0  0  0  0  0  0
   -5.7370   18.3870  -34.8730 C   0  0  0  0  0  0  0  0  0  0  0  0
   -6.9900   17.1490  -33.0590 C   0  0  0  0  0  0  0  0  0  0  0  0
   -5.7020   20.5420  -32.5910 C   0  0  0  0  0  0  0  0  0  0  0  0
   -6.0000   21.7520  -31.9570 C   0  0  0  0  0  0  0  0  0  0  0  0
   -2.4305   20.9777  -31.8639 H   0  0  0  0  0  0  0  0  0  0  0  0
   -3.7191   21.1882  -33.0976 H   0  0  0  0  0  0  0  0  0  0  0  0
   -2.2893   22.2757  -33.0976 H   0  0  0  0  0  0  0  0  0  0  0  0
   -6.4740   24.6570  -28.3840 H   0  0  0  0  0  0  0  0  0  0  0  0
   -5.5830   26.2020  -28.5740 H   0  0  0  0  0  0  0  0  0  0  0  0
   -8.1190   23.8352  -30.5455 H   0  0  0  0  0  0  0  0  0  0  0  0
   -9.3941   21.5559  -31.6993 H   0  0  0  0  0  0  0  0  0  0  0  0
   -8.9355   19.3977  -32.8975 H   0  0  0  0  0  0  0  0  0  0  0  0
   -4.6614   18.3476  -34.6462 H   0  0  0  0  0  0  0  0  0  0  0  0
   -6.0216   17.4987  -35.4560 H   0  0  0  0  0  0  0  0  0  0  0  0
   -5.9558   19.2938  -35.4560 H   0  0  0  0  0  0  0  0  0  0  0  0
   -6.9696   17.2018  -31.9605 H   0  0  0  0  0  0  0  0  0  0  0  0
   -8.0212   16.9719  -33.3985 H   0  0  0  0  0  0  0  0  0  0  0  0
   -6.3456   16.3247  -33.3985 H   0  0  0  0  0  0  0  0  0  0  0  0
   -4.6598   20.2681  -32.8117 H   0  0  0  0  0  0  0  0  0  0  0  0
  1  2  1  0
  2  3  2  0
  2  4  1  0
  4  5  1  0
  5  6  1  0
  6  7  1  0
  6  8  2  0
  5  9  2  0
  9 10  1  0
 10 11  2  0
 11 12  1  0
 12 13  2  0
 13 14  1  0
 14 15  1  0
 14 16  1  0
 13 17  1  0
 17 18  2  0
 18  4  1  0
 18 10  1  0
  1 19  1  0
  1 20  1  0
  1 21  1  0
  7 22  1  0
  7 23  1  0
  9 24  1  0
 11 25  1  0
 12 26  1  0
 15 27  1  0
 15 28  1  0
 15 29  1  0
 16 30  1  0
 16 31  1  0
 16 32  1  0
 17 33  1  0
M  END
>  <UniqueID>  (67) 
67

>  <SMILES>  (67) 
CC(=O)n1c(C(N)=O)cc2ccc(N(C)C)cc21

>  <Energy>  (67) 
73.60157143726947

>  <Genealogy>  (67) 
CC(=O)n1c(C(N)=O)cc2ccc(N(C)C)cc21 (3D coordinates assigned)
CC(=O)n1c(C(N)=O)cc2ccc(N(C)C)cc21 (optimized conformer: 73.60157143726947 kcal/mol)

>  <smiles>  (67) 
CC(=O)n1c(C(N)=O)cc2ccc(N(C)C)cc21

>  <score_type>  (67) 
oracle

>  <origin>  (67) 
adg

>  <m_score__min__energy>  (67) 
-8.3300000000000001

>  <m_primary>  (67) 
energy

$$$$
67:0
     RDKit          3D

 60 63  0  0  0  0  0  0  0  0999 V2000
   -1.5510   16.3400  -33.7650 C   0  0  0  0  0  0  0  0  0  0  0  0
   -1.2190   15.3530  -32.6540 C   0  0  0  0  0  0  0  0  0  0  0  0
   -1.5510   14.0240  -33.0480 O   0  0  0  0  0  0  0  0  0  0  0  0
   -0.8760   13.3240  -34.0570 C   0  0  0  0  0  0  0  0  0  0  0  0
    0.3710   13.4650  -34.2000 O   0  0  0  0  0  0  0  0  0  0  0  0
   -1.6100   12.4770  -34.9710 N   0  0  0  0  0  0  0  0  0  0  0  0
   -2.5690   11.5870  -34.2510 C   0  0  0  0  0  0  0  0  0  0  0  0
   -4.0530   11.8720  -34.5540 C   0  0  0  0  0  0  0  0  0  0  0  0
   -4.3010   13.3100  -34.6770 N   0  0  0  0  0  0  0  0  0  0  0  0
   -5.5890   13.8400  -34.3040 C   0  0  0  0  0  0  0  0  0  0  0  0
   -6.6130   13.1120  -34.4060 O   0  0  0  0  0  0  0  0  0  0  0  0
   -5.7380   15.2280  -33.8160 C   0  0  0  0  0  0  0  0  0  0  0  0
   -6.8150   16.0180  -34.2460 C   0  0  0  0  0  0  0  0  0  0  0  0
   -6.9510   17.3350  -33.7980 C   0  0  0  0  0  0  0  0  0  0  0  0
   -6.0160   17.8850  -32.9020 C   0  0  0  0  0  0  0  0  0  0  0  0
   -6.1450   19.2930  -32.4450 C   0  0  0  0  0  0  0  0  0  0  0  0
   -7.3790   19.9840  -32.5900 C   0  0  0  0  0  0  0  0  0  0  0  0
   -7.5100   21.3200  -32.1770 C   0  0  0  0  0  0  0  0  0  0  0  0
   -6.3970   21.9430  -31.6220 C   0  0  0  0  0  0  0  0  0  0  0  0
   -6.2400   23.2300  -31.1590 C   0  0  0  0  0  0  0  0  0  0  0  0
   -4.9190   23.3060  -30.7200 C   0  0  0  0  0  0  0  0  0  0  0  0
   -4.3460   24.4960  -30.0600 C   0  0  0  0  0  0  0  0  0  0  0  0
   -3.9000   25.6140  -30.8250 N   0  0  0  0  0  0  0  0  0  0  0  0
   -4.2070   24.5120  -28.8090 O   0  0  0  0  0  0  0  0  0  0  0  0
   -4.2830   22.1160  -30.9170 N   0  0  0  0  0  0  0  0  0  0  0  0
   -2.9040   21.7970  -30.6780 C   0  0  0  0  0  0  0  0  0  0  0  0
   -2.4920   21.0520  -29.4460 C   0  0  0  0  0  0  0  0  0  0  0  0
   -2.0190   22.1970  -31.4810 O   0  0  0  0  0  0  0  0  0  0  0  0
   -5.2030   21.2920  -31.4630 C   0  0  0  0  0  0  0  0  0  0  0  0
   -5.0390   19.9650  -31.8730 C   0  0  0  0  0  0  0  0  0  0  0  0
   -4.9550   17.0800  -32.4500 C   0  0  0  0  0  0  0  0  0  0  0  0
   -4.8240   15.7640  -32.8970 C   0  0  0  0  0  0  0  0  0  0  0  0
   -3.4110   14.1200  -35.5200 C   0  0  0  0  0  0  0  0  0  0  0  0
   -2.2290   13.2900  -36.0400 C   0  0  0  0  0  0  0  0  0  0  0  0
   -1.8722   17.2948  -33.3233 H   0  0  0  0  0  0  0  0  0  0  0  0
   -0.6590   16.5054  -34.3871 H   0  0  0  0  0  0  0  0  0  0  0  0
   -2.3616   15.9327  -34.3871 H   0  0  0  0  0  0  0  0  0  0  0  0
   -0.1428   15.4063  -32.4327 H   0  0  0  0  0  0  0  0  0  0  0  0
   -1.8046   15.6147  -31.7604 H   0  0  0  0  0  0  0  0  0  0  0  0
   -0.9080   11.8550  -35.4420 H   0  0  0  0  0  0  0  0  0  0  0  0
   -2.3533   10.5467  -34.5362 H   0  0  0  0  0  0  0  0  0  0  0  0
   -2.4262   11.7757  -33.1768 H   0  0  0  0  0  0  0  0  0  0  0  0
   -4.3279   11.3783  -35.4978 H   0  0  0  0  0  0  0  0  0  0  0  0
   -4.6594   11.4835  -33.7225 H   0  0  0  0  0  0  0  0  0  0  0  0
   -7.5574   15.5979  -34.9405 H   0  0  0  0  0  0  0  0  0  0  0  0
   -7.7956   17.9462  -34.1487 H   0  0  0  0  0  0  0  0  0  0  0  0
   -8.2427   19.4653  -33.0316 H   0  0  0  0  0  0  0  0  0  0  0  0
   -8.4634   21.8571  -32.2890 H   0  0  0  0  0  0  0  0  0  0  0  0
   -6.9962   24.0286  -31.1396 H   0  0  0  0  0  0  0  0  0  0  0  0
   -4.2300   26.5800  -30.6070 H   0  0  0  0  0  0  0  0  0  0  0  0
   -2.8040   21.6162  -28.5548 H   0  0  0  0  0  0  0  0  0  0  0  0
   -2.9706   20.0616  -29.4391 H   0  0  0  0  0  0  0  0  0  0  0  0
   -1.3987   20.9309  -29.4391 H   0  0  0  0  0  0  0  0  0  0  0  0
   -4.0717   19.4551  -31.7534 H   0  0  0  0  0  0  0  0  0  0  0  0
   -4.2229   17.4904  -31.7389 H   0  0  0  0  0  0  0  0  0  0  0  0
   -3.9966   15.1418  -32.5252 H   0  0  0  0  0  0  0  0  0  0  0  0
   -3.9824   14.5062  -36.3769 H   0  0  0  0  0  0  0  0  0  0  0  0
   -3.0145   14.9470  -34.9127 H   0  0  0  0  0  0  0  0  0  0  0  0
   -2.5885   12.6186  -36.8337 H   0  0  0  0  0  0  0  0  0  0  0  0
   -1.4673   13.9857  -36.4219 H   0  0  0  0  0  0  0  0  0  0  0  0
  1  2  1  0
  2  3  1  0
  3  4  1  0
  4  5  2  0
  4  6  1  0
  6  7  1  0
  7  8  1  0
  8  9  1  0
  9 10  1  0
 10 11  2  0
 10 12  1  0
 12 13  2  0
 13 14  1  0
 14 15  2  0
 15 16  1  0
 16 17  2  0
 17 18  1  0
 18 19  2  0
 19 20  1  0
 20 21  2  0
 21 22  1  0
 22 23  1  0
 22 24  2  0
 21 25  1  0
 25 26  1  0
 26 27  1  0
 26 28  2  0
 25 29  1  0
 29 30  2  0
 15 31  1  0
 31 32  2  0
  9 33  1  0
 33 34  1  0
 34  6  1  0
 32 12  1  0
 30 16  1  0
 29 19  1  0
  1 35  1  0
  1 36  1  0
  1 37  1  0
  2 38  1  0
  2 39  1  0
  6 40  1  0
  7 41  1  0
  7 42  1  0
  8 43  1  0
  8 44  1  0
 13 45  1  0
 14 46  1  0
 17 47  1  0
 18 48  1  0
 20 49  1  0
 23 50  1  0
 27 51  1  0
 27 52  1  0
 27 53  1  0
 30 54  1  0
 31 55  1  0
 32 56  1  0
 33 57  1  0
 33 58  1  0
 34 59  1  0
 34 60  1  0
M  CHG  2   6   1  23  -1
M  END
>  <UniqueID>  (68) 
68

>  <SMILES>  (68) 
CCOC(=O)[NH+]1CCN(C(=O)c2ccc(-c3ccc4cc(C([NH-])=O)n(C(C)=O)c4c3)cc2)CC1

>  <Energy>  (68) 
116.62881096204137

>  <Genealogy>  (68) 
CCOC(=O)[NH+]1CCN(C(=O)c2ccc(-c3ccc4cc(C([NH-])=O)n(C(C)=O)c4c3)cc2)CC1 (protonated)
CCOC(=O)[NH+]1CCN(C(=O)c2ccc(-c3ccc4cc(C([NH-])=O)n(C(C)=O)c4c3)cc2)CC1 (3D coordinates assigned)
CCOC(=O)[NH+]1CCN(C(=O)c2ccc(-c3ccc4cc(C([NH-])=O)n(C(C)=O)c4c3)cc2)CC1 (nonaromatic ring conformer: 116.62881096204137 kcal/mol)

>  <smiles>  (68) 
CCOC(=O)N1CCN(C(=O)c2ccc(-c3ccc4cc(C(N)=O)n(C(C)=O)c4c3)cc2)CC1

>  <score_type>  (68) 
oracle

>  <origin>  (68) 
adg

>  <m_score__min__energy>  (68) 
-10.32

>  <m_primary>  (68) 
energy

$$$$
68:0
     RDKit          3D

 36 37  0  0  0  0  0  0  0  0999 V2000
   -6.4720   16.9160  -34.3120 C   0  0  0  0  0  0  0  0  0  0  0  0
   -6.2390   18.2490  -33.5720 C   0  0  0  0  0  0  0  0  0  0  0  0
   -4.9650   18.1370  -32.7060 C   0  0  0  0  0  0  0  0  0  0  0  0
   -6.0890   19.2840  -34.5150 O   0  0  0  0  0  0  0  0  0  0  0  0
   -7.4770   18.5510  -32.6900 C   0  0  0  0  0  0  0  0  0  0  0  0
   -7.4770   19.9530  -32.1300 C   0  0  0  0  0  0  0  0  0  0  0  0
   -8.6900   20.5450  -31.6930 C   0  0  0  0  0  0  0  0  0  0  0  0
   -8.7070   21.8530  -31.1810 C   0  0  0  0  0  0  0  0  0  0  0  0
   -7.5000   22.5460  -31.1240 C   0  0  0  0  0  0  0  0  0  0  0  0
   -7.2280   23.8150  -30.6660 C   0  0  0  0  0  0  0  0  0  0  0  0
   -5.8570   23.9870  -30.8490 C   0  0  0  0  0  0  0  0  0  0  0  0
   -5.1480   25.2550  -30.5750 C   0  0  0  0  0  0  0  0  0  0  0  0
   -3.7270   25.2640  -30.4710 N   0  0  0  0  0  0  0  0  0  0  0  0
   -5.7870   26.3240  -30.4000 O   0  0  0  0  0  0  0  0  0  0  0  0
   -5.3030   22.8640  -31.3900 N   0  0  0  0  0  0  0  0  0  0  0  0
   -3.9190   22.6130  -31.6800 C   0  0  0  0  0  0  0  0  0  0  0  0
   -2.9110   22.9130  -30.7140 N   0  0  0  0  0  0  0  0  0  0  0  0
   -3.5910   22.0930  -32.7800 O   0  0  0  0  0  0  0  0  0  0  0  0
   -6.3230   21.9940  -31.5560 C   0  0  0  0  0  0  0  0  0  0  0  0
   -6.2730   20.6890  -32.0560 C   0  0  0  0  0  0  0  0  0  0  0  0
   -6.6131   16.1089  -33.5780 H   0  0  0  0  0  0  0  0  0  0  0  0
   -7.3693   16.9988  -34.9429 H   0  0  0  0  0  0  0  0  0  0  0  0
   -5.5998   16.6895  -34.9429 H   0  0  0  0  0  0  0  0  0  0  0  0
   -5.2418   18.1613  -31.6417 H   0  0  0  0  0  0  0  0  0  0  0  0
   -4.4516   17.1903  -32.9298 H   0  0  0  0  0  0  0  0  0  0  0  0
   -4.2943   18.9796  -32.9298 H   0  0  0  0  0  0  0  0  0  0  0  0
   -6.9450   19.3750  -35.0120 H   0  0  0  0  0  0  0  0  0  0  0  0
   -8.3825   18.4177  -33.3001 H   0  0  0  0  0  0  0  0  0  0  0  0
   -7.4494   17.8570  -31.8370 H   0  0  0  0  0  0  0  0  0  0  0  0
   -9.6277   19.9733  -31.7558 H   0  0  0  0  0  0  0  0  0  0  0  0
   -9.6436   22.3153  -30.8361 H   0  0  0  0  0  0  0  0  0  0  0  0
   -7.9409   24.5393  -30.2451 H   0  0  0  0  0  0  0  0  0  0  0  0
   -3.1360   25.7010  -31.2120 H   0  0  0  0  0  0  0  0  0  0  0  0
   -3.1720   23.2650  -29.7670 H   0  0  0  0  0  0  0  0  0  0  0  0
   -1.9050   22.7430  -30.9320 H   0  0  0  0  0  0  0  0  0  0  0  0
   -5.3206   20.2466  -32.3834 H   0  0  0  0  0  0  0  0  0  0  0  0
  1  2  1  0
  2  3  1  0
  2  4  1  0
  2  5  1  0
  5  6  1  0
  6  7  2  0
  7  8  1  0
  8  9  2  0
  9 10  1  0
 10 11  2  0
 11 12  1  0
 12 13  1  0
 12 14  2  0
 11 15  1  0
 15 16  1  0
 16 17  1  0
 16 18  2  0
 15 19  1  0
 19 20  2  0
 20  6  1  0
 19  9  1  0
  1 21  1  0
  1 22  1  0
  1 23  1  0
  3 24  1  0
  3 25  1  0
  3 26  1  0
  4 27  1  0
  5 28  1  0
  5 29  1  0
  7 30  1  0
  8 31  1  0
 10 32  1  0
 13 33  1  0
 17 34  1  0
 17 35  1  0
 20 36  1  0
M  CHG  1  13  -1
M  END
>  <UniqueID>  (69) 
69

>  <SMILES>  (69) 
CC(C)(O)Cc1ccc2cc(C([NH-])=O)n(C(N)=O)c2c1

>  <Energy>  (69) 
70.43988377603662

>  <Genealogy>  (69) 
CC(C)(O)Cc1ccc2cc(C([NH-])=O)n(C(N)=O)c2c1 (protonated)
CC(C)(O)Cc1ccc2cc(C([NH-])=O)n(C(N)=O)c2c1 (3D coordinates assigned)
CC(C)(O)Cc1ccc2cc(C([NH-])=O)n(C(N)=O)c2c1 (optimized conformer: 70.43988377603662 kcal/mol)

>  <smiles>  (69) 
CC(C)(O)Cc1ccc2cc(C(N)=O)n(C(N)=O)c2c1

>  <score_type>  (69) 
oracle

>  <origin>  (69) 
adg

>  <m_score__min__energy>  (69) 
-10.720000000000001

>  <m_primary>  (69) 
energy

$$$$
69:0
     RDKit          3D

 31 32  0  0  0  0  0  0  0  0999 V2000
   -1.5440   25.8020  -28.9670 N   0  0  0  0  0  0  0  0  0  0  0  0
   -1.0100   24.4870  -29.0920 C   0  0  0  0  0  0  0  0  0  0  0  0
    0.1050   24.2230  -28.5680 O   0  0  0  0  0  0  0  0  0  0  0  0
   -1.7160   23.4490  -29.8720 C   0  0  0  0  0  0  0  0  0  0  0  0
   -1.1190   22.2560  -30.2720 C   0  0  0  0  0  0  0  0  0  0  0  0
   -2.0610   21.6150  -31.0430 C   0  0  0  0  0  0  0  0  0  0  0  0
   -2.0020   20.3860  -31.6910 C   0  0  0  0  0  0  0  0  0  0  0  0
   -3.1380   19.9580  -32.3980 C   0  0  0  0  0  0  0  0  0  0  0  0
   -4.3090   20.7580  -32.4360 C   0  0  0  0  0  0  0  0  0  0  0  0
   -5.5210   20.2890  -33.2030 C   0  0  0  0  0  0  0  0  0  0  0  0
   -5.4340   18.8160  -33.6660 C   0  0  2  0  0  0  0  0  0  0  0  0
   -5.7580   18.6590  -35.0880 N   0  0  0  0  0  0  0  0  0  0  0  0
   -6.2840   17.9090  -32.8170 C   0  0  0  0  0  0  0  0  0  0  0  0
   -6.1130   17.8430  -31.5710 O   0  0  0  0  0  0  0  0  0  0  0  0
   -7.2350   17.0940  -33.4190 O   0  0  0  0  0  0  0  0  0  0  0  0
   -4.3320   21.9980  -31.7610 C   0  0  0  0  0  0  0  0  0  0  0  0
   -3.1790   22.4090  -31.0840 C   0  0  0  0  0  0  0  0  0  0  0  0
   -2.9840   23.5390  -30.3670 N   0  0  0  0  0  0  0  0  0  0  0  0
   -3.9570   24.5670  -30.1210 C   0  0  0  0  0  0  0  0  0  0  0  0
   -3.8670   25.6800  -30.7040 O   0  0  0  0  0  0  0  0  0  0  0  0
   -4.9900   24.3540  -29.2180 O   0  0  0  0  0  0  0  0  0  0  0  0
   -2.5750   25.9660  -28.9640 H   0  0  0  0  0  0  0  0  0  0  0  0
   -0.1078   21.9012  -30.0239 H   0  0  0  0  0  0  0  0  0  0  0  0
   -1.0932   19.7676  -31.6512 H   0  0  0  0  0  0  0  0  0  0  0  0
   -3.1194   18.9937  -32.9270 H   0  0  0  0  0  0  0  0  0  0  0  0
   -6.4043   20.3979  -32.5565 H   0  0  0  0  0  0  0  0  0  0  0  0
   -5.5853   20.9072  -34.1105 H   0  0  0  0  0  0  0  0  0  0  0  0
   -4.3848   18.5132  -33.5339 H   0  0  0  0  0  0  0  0  0  0  0  0
   -5.1440   17.9320  -35.5200 H   0  0  0  0  0  0  0  0  0  0  0  0
   -6.7460   18.3270  -35.1740 H   0  0  0  0  0  0  0  0  0  0  0  0
   -5.2352   22.6259  -31.7674 H   0  0  0  0  0  0  0  0  0  0  0  0
  1  2  1  0
  2  3  2  0
  2  4  1  0
  4  5  2  0
  5  6  1  0
  6  7  2  0
  7  8  1  0
  8  9  2  0
  9 10  1  0
 10 11  1  0
 11 12  1  0
 11 13  1  0
 13 14  2  0
 13 15  1  0
  9 16  1  0
 16 17  2  0
 17 18  1  0
 18 19  1  0
 19 20  2  0
 19 21  1  0
 18  4  1  0
 17  6  1  0
  1 22  1  0
  5 23  1  0
  7 24  1  0
  8 25  1  0
 10 26  1  0
 10 27  1  0
 11 28  1  6
 12 29  1  0
 12 30  1  0
 16 31  1  0
M  CHG  3   1  -1  15  -1  21  -1
M  END
>  <UniqueID>  (70) 
70

>  <SMILES>  (70) 
[NH-]C(=O)c1cc2ccc(C[C@H](N)C(=O)[O-])cc2n1C(=O)[O-]

>  <Energy>  (70) 
69.85367398727416

>  <Genealogy>  (70) 
[NH-]C(=O)c1cc2ccc(CC(N)C(=O)[O-])cc2n1C(=O)[O-] (protonated)
[NH-]C(=O)c1cc2ccc(C[C@H](N)C(=O)[O-])cc2n1C(=O)[O-] (chirality)
[NH-]C(=O)c1cc2ccc(C[C@H](N)C(=O)[O-])cc2n1C(=O)[O-] (3D coordinates assigned)
[NH-]C(=O)c1cc2ccc(C[C@H](N)C(=O)[O-])cc2n1C(=O)[O-] (optimized conformer: 69.85367398727416 kcal/mol)

>  <smiles>  (70) 
NC(=O)c1cc2ccc(CC(N)C(=O)O)cc2n1C(=O)O

>  <score_type>  (70) 
oracle

>  <origin>  (70) 
adg

>  <m_score__min__energy>  (70) 
-10.75

>  <m_primary>  (70) 
energy

$$$$
70:0
     RDKit          3D

 33 34  0  0  0  0  0  0  0  0999 V2000
   -2.5120   21.4010  -32.5580 C   0  0  0  0  0  0  0  0  0  0  0  0
   -3.3940   20.3340  -32.2330 O   0  0  0  0  0  0  0  0  0  0  0  0
   -4.3430   19.8380  -33.1310 C   0  0  0  0  0  0  0  0  0  0  0  0
   -3.9730   19.2900  -34.2060 O   0  0  0  0  0  0  0  0  0  0  0  0
   -5.7440   19.9580  -32.8310 N   0  0  0  0  0  0  0  0  0  0  0  0
   -6.7300   19.0580  -33.1050 C   0  0  0  0  0  0  0  0  0  0  0  0
   -6.5330   17.6890  -33.6240 C   0  0  0  0  0  0  0  0  0  0  0  0
   -5.8900   17.4600  -34.8790 N   0  0  0  0  0  0  0  0  0  0  0  0
   -6.8890   16.7040  -32.9240 O   0  0  0  0  0  0  0  0  0  0  0  0
   -7.9790   19.5800  -32.7800 C   0  0  0  0  0  0  0  0  0  0  0  0
   -7.7270   20.8370  -32.2810 C   0  0  0  0  0  0  0  0  0  0  0  0
   -8.6110   21.8110  -31.8250 C   0  0  0  0  0  0  0  0  0  0  0  0
   -8.0780   23.0410  -31.4080 C   0  0  0  0  0  0  0  0  0  0  0  0
   -6.6810   23.2760  -31.4550 C   0  0  0  0  0  0  0  0  0  0  0  0
   -6.1290   24.6170  -31.0500 C   0  0  0  0  0  0  0  0  0  0  0  0
   -4.8380   24.4700  -30.2410 C   0  0  0  0  0  0  0  0  0  0  0  0
   -3.8300   25.2980  -30.7570 O   0  0  0  0  0  0  0  0  0  0  0  0
   -5.8150   22.2670  -31.9340 C   0  0  0  0  0  0  0  0  0  0  0  0
   -6.3710   21.0430  -32.3230 C   0  0  0  0  0  0  0  0  0  0  0  0
   -2.1336   21.8588  -31.6322 H   0  0  0  0  0  0  0  0  0  0  0  0
   -1.6678   21.0126  -33.1466 H   0  0  0  0  0  0  0  0  0  0  0  0
   -3.0523   22.1570  -33.1466 H   0  0  0  0  0  0  0  0  0  0  0  0
   -5.7950   16.4880  -35.2490 H   0  0  0  0  0  0  0  0  0  0  0  0
   -5.4320   18.2390  -35.4020 H   0  0  0  0  0  0  0  0  0  0  0  0
   -8.9578   19.0919  -32.8971 H   0  0  0  0  0  0  0  0  0  0  0  0
   -9.6943   21.6226  -31.7924 H   0  0  0  0  0  0  0  0  0  0  0  0
   -8.7510   23.8300  -31.0412 H   0  0  0  0  0  0  0  0  0  0  0  0
   -5.9187   25.2054  -31.9553 H   0  0  0  0  0  0  0  0  0  0  0  0
   -6.8759   25.1222  -30.4200 H   0  0  0  0  0  0  0  0  0  0  0  0
   -5.0339   24.7492  -29.1952 H   0  0  0  0  0  0  0  0  0  0  0  0
   -4.5010   23.4246  -30.3014 H   0  0  0  0  0  0  0  0  0  0  0  0
   -4.1670   25.6570  -31.6190 H   0  0  0  0  0  0  0  0  0  0  0  0
   -4.7306   22.4395  -31.9995 H   0  0  0  0  0  0  0  0  0  0  0  0
  1  2  1  0
  2  3  1  0
  3  4  2  0
  3  5  1  0
  5  6  1  0
  6  7  1  0
  7  8  1  0
  7  9  2  0
  6 10  2  0
 10 11  1  0
 11 12  2  0
 12 13  1  0
 13 14  2  0
 14 15  1  0
 15 16  1  0
 16 17  1  0
 14 18  1  0
 18 19  2  0
 19  5  1  0
 19 11  1  0
  1 20  1  0
  1 21  1  0
  1 22  1  0
  8 23  1  0
  8 24  1  0
 10 25  1  0
 12 26  1  0
 13 27  1  0
 15 28  1  0
 15 29  1  0
 16 30  1  0
 16 31  1  0
 17 32  1  0
 18 33  1  0
M  END
>  <UniqueID>  (71) 
71

>  <SMILES>  (71) 
COC(=O)n1c(C(N)=O)cc2ccc(CCO)cc21

>  <Energy>  (71) 
67.80959730570652

>  <Genealogy>  (71) 
COC(=O)n1c(C(N)=O)cc2ccc(CCO)cc21 (3D coordinates assigned)
COC(=O)n1c(C(N)=O)cc2ccc(CCO)cc21 (optimized conformer: 67.80959730570652 kcal/mol)

>  <smiles>  (71) 
COC(=O)n1c(C(N)=O)cc2ccc(CCO)cc21

>  <score_type>  (71) 
oracle

>  <origin>  (71) 
adg

>  <m_score__min__energy>  (71) 
-8.0099999999999998

>  <m_primary>  (71) 
energy

$$$$
71:0
     RDKit          3D

 34 36  0  0  0  0  0  0  0  0999 V2000
   -5.4400   26.5090  -30.3840 N   0  0  0  0  0  0  0  0  0  0  0  0
   -6.3240   25.4640  -29.9750 C   0  0  0  0  0  0  0  0  0  0  0  0
   -7.0870   25.6560  -28.9920 O   0  0  0  0  0  0  0  0  0  0  0  0
   -6.3220   24.1570  -30.6710 C   0  0  0  0  0  0  0  0  0  0  0  0
   -7.4780   23.4860  -31.0650 C   0  0  0  0  0  0  0  0  0  0  0  0
   -7.0400   22.3780  -31.7510 C   0  0  0  0  0  0  0  0  0  0  0  0
   -7.7660   21.3580  -32.3560 C   0  0  0  0  0  0  0  0  0  0  0  0
   -7.0540   20.3170  -32.9730 C   0  0  0  0  0  0  0  0  0  0  0  0
   -5.6320   20.3030  -32.9750 C   0  0  0  0  0  0  0  0  0  0  0  0
   -4.9090   19.2180  -33.6040 N   0  0  0  0  0  0  0  0  0  0  0  0
   -3.4570   19.1090  -33.6160 C   0  0  0  0  0  0  0  0  0  0  0  0
   -3.1470   17.7510  -34.2290 C   0  0  0  0  0  0  0  0  0  0  0  0
   -4.4200   17.3190  -34.9470 C   0  0  0  0  0  0  0  0  0  0  0  0
   -5.5480   18.1110  -34.3000 C   0  0  0  0  0  0  0  0  0  0  0  0
   -4.9350   21.3650  -32.3460 C   0  0  0  0  0  0  0  0  0  0  0  0
   -5.6710   22.3990  -31.7550 C   0  0  0  0  0  0  0  0  0  0  0  0
   -5.2130   23.4860  -31.0960 N   0  0  0  0  0  0  0  0  0  0  0  0
   -3.8380   23.8180  -30.8430 C   0  0  0  0  0  0  0  0  0  0  0  0
   -3.4950   25.0170  -30.6620 O   0  0  0  0  0  0  0  0  0  0  0  0
   -2.8730   22.8200  -30.7820 O   0  0  0  0  0  0  0  0  0  0  0  0
   -4.8330   26.4090  -31.2270 H   0  0  0  0  0  0  0  0  0  0  0  0
   -5.4220   27.4130  -29.8620 H   0  0  0  0  0  0  0  0  0  0  0  0
   -8.5196   23.7803  -30.8688 H   0  0  0  0  0  0  0  0  0  0  0  0
   -8.8660   21.3664  -32.3513 H   0  0  0  0  0  0  0  0  0  0  0  0
   -7.6044   19.4999  -33.4622 H   0  0  0  0  0  0  0  0  0  0  0  0
   -3.0177   19.9131  -34.2247 H   0  0  0  0  0  0  0  0  0  0  0  0
   -3.0362   19.2014  -32.6039 H   0  0  0  0  0  0  0  0  0  0  0  0
   -2.3141   17.8341  -34.9427 H   0  0  0  0  0  0  0  0  0  0  0  0
   -2.8462   17.0205  -33.4636 H   0  0  0  0  0  0  0  0  0  0  0  0
   -4.3534   17.5532  -36.0197 H   0  0  0  0  0  0  0  0  0  0  0  0
   -4.5853   16.2348  -34.8626 H   0  0  0  0  0  0  0  0  0  0  0  0
   -6.2392   18.4893  -35.0675 H   0  0  0  0  0  0  0  0  0  0  0  0
   -6.1370   17.4869  -33.6118 H   0  0  0  0  0  0  0  0  0  0  0  0
   -3.8353   21.3765  -32.3226 H   0  0  0  0  0  0  0  0  0  0  0  0
  1  2  1  0
  2  3  2  0
  2  4  1  0
  4  5  2  0
  5  6  1  0
  6  7  2  0
  7  8  1  0
  8  9  2  0
  9 10  1  0
 10 11  1  0
 11 12  1  0
 12 13  1  0
 13 14  1  0
  9 15  1  0
 15 16  2  0
 16 17  1  0
 17 18  1  0
 18 19  2  0
 18 20  1  0
 17  4  1  0
 16  6  1  0
 14 10  1  0
  1 21  1  0
  1 22  1  0
  5 23  1  0
  7 24  1  0
  8 25  1  0
 11 26  1  0
 11 27  1  0
 12 28  1  0
 12 29  1  0
 13 30  1  0
 13 31  1  0
 14 32  1  0
 14 33  1  0
 15 34  1  0
M  CHG  1  20  -1
M  END
>  <UniqueID>  (72) 
72

>  <SMILES>  (72) 
NC(=O)c1cc2ccc(N3CCCC3)cc2n1C(=O)[O-]

>  <Energy>  (72) 
75.80634874344356

>  <Genealogy>  (72) 
NC(=O)c1cc2ccc(N3CCCC3)cc2n1C(=O)[O-] (protonated)
NC(=O)c1cc2ccc(N3CCCC3)cc2n1C(=O)[O-] (3D coordinates assigned)
NC(=O)c1cc2ccc(N3CCCC3)cc2n1C(=O)[O-] (nonaromatic ring conformer: 75.80634874344356 kcal/mol)

>  <smiles>  (72) 
NC(=O)c1cc2ccc(N3CCCC3)cc2n1C(=O)O

>  <score_type>  (72) 
oracle

>  <origin>  (72) 
adg

>  <m_score__min__energy>  (72) 
-9.0600000000000005

>  <m_primary>  (72) 
energy

$$$$
72:0
     RDKit          3D

 31 33  0  0  0  0  0  0  0  0999 V2000
   -3.8830   25.6620  -30.8430 N   0  0  0  0  0  0  0  0  0  0  0  0
   -5.1390   25.0750  -30.5130 C   0  0  0  0  0  0  0  0  0  0  0  0
   -5.8670   25.6260  -29.6460 O   0  0  0  0  0  0  0  0  0  0  0  0
   -5.5690   23.8020  -31.1290 C   0  0  0  0  0  0  0  0  0  0  0  0
   -6.9010   23.4960  -31.3990 C   0  0  0  0  0  0  0  0  0  0  0  0
   -6.8880   22.2040  -31.8740 C   0  0  0  0  0  0  0  0  0  0  0  0
   -7.9380   21.4020  -32.3100 C   0  0  0  0  0  0  0  0  0  0  0  0
   -7.6310   20.1150  -32.7830 C   0  0  0  0  0  0  0  0  0  0  0  0
   -6.2910   19.6560  -32.8140 C   0  0  0  0  0  0  0  0  0  0  0  0
   -5.9850   18.3020  -33.3370 C   0  0  0  0  0  0  0  0  0  0  0  0
   -4.8660   18.1030  -34.0980 N   0  0  0  0  0  0  0  0  0  0  0  0
   -4.5480   16.8780  -34.5990 C   0  0  0  0  0  0  0  0  0  0  0  0
   -5.3710   15.7810  -34.3470 C   0  0  0  0  0  0  0  0  0  0  0  0
   -6.5220   15.9530  -33.5800 C   0  0  0  0  0  0  0  0  0  0  0  0
   -6.8380   17.2140  -33.0710 C   0  0  0  0  0  0  0  0  0  0  0  0
   -7.9830   17.3750  -32.3610 F   0  0  0  0  0  0  0  0  0  0  0  0
   -5.2510   20.5040  -32.3690 C   0  0  0  0  0  0  0  0  0  0  0  0
   -5.5870   21.7740  -31.8860 C   0  0  0  0  0  0  0  0  0  0  0  0
   -4.7620   22.7470  -31.4340 N   0  0  0  0  0  0  0  0  0  0  0  0
   -3.3280   22.6960  -31.3890 C   0  0  0  0  0  0  0  0  0  0  0  0
   -2.6760   22.2370  -32.3630 O   0  0  0  0  0  0  0  0  0  0  0  0
   -2.6430   23.1800  -30.2800 O   0  0  0  0  0  0  0  0  0  0  0  0
   -2.9940   25.2910  -30.4410 H   0  0  0  0  0  0  0  0  0  0  0  0
   -7.7764   24.1478  -31.2619 H   0  0  0  0  0  0  0  0  0  0  0  0
   -8.9763   21.7643  -32.2852 H   0  0  0  0  0  0  0  0  0  0  0  0
   -8.4398   19.4567  -33.1330 H   0  0  0  0  0  0  0  0  0  0  0  0
   -4.2180   18.8990  -34.2950 H   0  0  0  0  0  0  0  0  0  0  0  0
   -3.6384   16.7530  -35.2049 H   0  0  0  0  0  0  0  0  0  0  0  0
   -5.1145   14.7899  -34.7494 H   0  0  0  0  0  0  0  0  0  0  0  0
   -7.1808   15.0960  -33.3759 H   0  0  0  0  0  0  0  0  0  0  0  0
   -4.2023   20.1735  -32.4016 H   0  0  0  0  0  0  0  0  0  0  0  0
  1  2  1  0
  2  3  2  0
  2  4  1  0
  4  5  2  0
  5  6  1  0
  6  7  2  0
  7  8  1  0
  8  9  2  0
  9 10  1  0
 10 11  2  0
 11 12  1  0
 12 13  2  0
 13 14  1  0
 14 15  2  0
 15 16  1  0
  9 17  1  0
 17 18  2  0
 18 19  1  0
 19 20  1  0
 20 21  2  0
 20 22  1  0
 19  4  1  0
 18  6  1  0
 15 10  1  0
  1 23  1  0
  5 24  1  0
  7 25  1  0
  8 26  1  0
 11 27  1  0
 12 28  1  0
 13 29  1  0
 14 30  1  0
 17 31  1  0
M  CHG  3   1  -1  11   1  22  -1
M  END
>  <UniqueID>  (73) 
73

>  <SMILES>  (73) 
[NH-]C(=O)c1cc2ccc(-c3[nH+]cccc3F)cc2n1C(=O)[O-]

>  <Energy>  (73) 
79.86803623284413

>  <Genealogy>  (73) 
[NH-]C(=O)c1cc2ccc(-c3[nH+]cccc3F)cc2n1C(=O)[O-] (protonated)
[NH-]C(=O)c1cc2ccc(-c3[nH+]cccc3F)cc2n1C(=O)[O-] (3D coordinates assigned)
[NH-]C(=O)c1cc2ccc(-c3[nH+]cccc3F)cc2n1C(=O)[O-] (optimized conformer: 79.86803623284413 kcal/mol)

>  <smiles>  (73) 
NC(=O)c1cc2ccc(-c3ncccc3F)cc2n1C(=O)O

>  <score_type>  (73) 
oracle

>  <origin>  (73) 
adg

>  <m_score__min__energy>  (73) 
-10.49

>  <m_primary>  (73) 
energy

$$$$
73:0
     RDKit          3D

 35 37  0  0  0  0  0  0  0  0999 V2000
   -0.4880   18.1650  -34.7490 C   0  0  0  0  0  0  0  0  0  0  0  0
   -1.0410   16.9570  -34.2400 O   0  0  0  0  0  0  0  0  0  0  0  0
   -2.3280   16.5200  -34.5690 C   0  0  0  0  0  0  0  0  0  0  0  0
   -2.5080   15.3750  -35.0640 O   0  0  0  0  0  0  0  0  0  0  0  0
   -3.4760   17.4040  -34.3370 C   0  0  0  0  0  0  0  0  0  0  0  0
   -4.7020   17.3340  -34.9850 C   0  0  0  0  0  0  0  0  0  0  0  0
   -5.6120   18.3110  -34.5600 C   0  0  0  0  0  0  0  0  0  0  0  0
   -5.1070   19.1580  -33.5700 C   0  0  0  0  0  0  0  0  0  0  0  0
   -5.8180   20.2880  -32.9180 C   0  0  0  0  0  0  0  0  0  0  0  0
   -7.2370   20.3230  -32.8660 C   0  0  0  0  0  0  0  0  0  0  0  0
   -7.9110   21.3830  -32.2380 C   0  0  0  0  0  0  0  0  0  0  0  0
   -7.1480   22.4000  -31.6770 C   0  0  0  0  0  0  0  0  0  0  0  0
   -7.5440   23.5210  -30.9840 C   0  0  0  0  0  0  0  0  0  0  0  0
   -6.3650   24.1760  -30.6410 C   0  0  0  0  0  0  0  0  0  0  0  0
   -6.3340   25.4720  -29.9350 C   0  0  0  0  0  0  0  0  0  0  0  0
   -5.4520   26.5170  -30.3480 N   0  0  0  0  0  0  0  0  0  0  0  0
   -7.1380   25.6800  -28.9880 O   0  0  0  0  0  0  0  0  0  0  0  0
   -5.2800   23.4850  -31.0910 N   0  0  0  0  0  0  0  0  0  0  0  0
   -3.8960   23.7740  -30.8320 C   0  0  0  0  0  0  0  0  0  0  0  0
   -3.0300   22.8620  -30.8860 O   0  0  0  0  0  0  0  0  0  0  0  0
   -3.4980   25.0680  -30.5130 O   0  0  0  0  0  0  0  0  0  0  0  0
   -5.7790   22.3980  -31.7270 C   0  0  0  0  0  0  0  0  0  0  0  0
   -5.0800   21.3430  -32.3280 C   0  0  0  0  0  0  0  0  0  0  0  0
   -3.5220   18.6770  -33.2400 S   0  0  0  0  0  0  0  0  0  0  0  0
   -0.1910   18.8137  -33.9117 H   0  0  0  0  0  0  0  0  0  0  0  0
    0.3939   17.9338  -35.3644 H   0  0  0  0  0  0  0  0  0  0  0  0
   -1.2393   18.6815  -35.3644 H   0  0  0  0  0  0  0  0  0  0  0  0
   -4.9359   16.5852  -35.7561 H   0  0  0  0  0  0  0  0  0  0  0  0
   -6.6295   18.4027  -34.9678 H   0  0  0  0  0  0  0  0  0  0  0  0
   -7.8164   19.5080  -33.3243 H   0  0  0  0  0  0  0  0  0  0  0  0
   -9.0097   21.4075  -32.1916 H   0  0  0  0  0  0  0  0  0  0  0  0
   -8.5728   23.8328  -30.7509 H   0  0  0  0  0  0  0  0  0  0  0  0
   -4.8950   26.4370  -31.2270 H   0  0  0  0  0  0  0  0  0  0  0  0
   -5.4180   27.4140  -29.8150 H   0  0  0  0  0  0  0  0  0  0  0  0
   -3.9801   21.3343  -32.3414 H   0  0  0  0  0  0  0  0  0  0  0  0
  1  2  1  0
  2  3  1  0
  3  4  2  0
  3  5  1  0
  5  6  2  0
  6  7  1  0
  7  8  2  0
  8  9  1  0
  9 10  2  0
 10 11  1  0
 11 12  2  0
 12 13  1  0
 13 14  2  0
 14 15  1  0
 15 16  1  0
 15 17  2  0
 14 18  1  0
 18 19  1  0
 19 20  2  0
 19 21  1  0
 18 22  1  0
 22 23  2  0
  8 24  1  0
 24  5  1  0
 23  9  1  0
 22 12  1  0
  1 25  1  0
  1 26  1  0
  1 27  1  0
  6 28  1  0
  7 29  1  0
 10 30  1  0
 11 31  1  0
 13 32  1  0
 16 33  1  0
 16 34  1  0
 23 35  1  0
M  CHG  1  21  -1
M  END
>  <UniqueID>  (74) 
74

>  <SMILES>  (74) 
COC(=O)c1ccc(-c2ccc3cc(C(N)=O)n(C(=O)[O-])c3c2)s1

>  <Energy>  (74) 
103.03023784352891

>  <Genealogy>  (74) 
COC(=O)c1ccc(-c2ccc3cc(C(N)=O)n(C(=O)[O-])c3c2)s1 (protonated)
COC(=O)c1ccc(-c2ccc3cc(C(N)=O)n(C(=O)[O-])c3c2)s1 (3D coordinates assigned)
COC(=O)c1ccc(-c2ccc3cc(C(N)=O)n(C(=O)[O-])c3c2)s1 (optimized conformer: 103.03023784352891 kcal/mol)

>  <smiles>  (74) 
COC(=O)c1ccc(-c2ccc3cc(C(N)=O)n(C(=O)O)c3c2)s1

>  <score_type>  (74) 
oracle

>  <origin>  (74) 
adg

>  <m_score__min__energy>  (74) 
-9.7899999999999991

>  <m_primary>  (74) 
energy

$$$$
74:0
     RDKit          3D

 44 45  0  0  0  0  0  0  0  0999 V2000
   -3.9610   22.9980  -28.0020 C   0  0  0  0  0  0  0  0  0  0  0  0
   -2.8630   22.4870  -28.9280 C   0  0  0  0  0  0  0  0  0  0  0  0
   -2.9240   23.1450  -30.1910 O   0  0  0  0  0  0  0  0  0  0  0  0
   -3.6280   22.6400  -31.2900 C   0  0  0  0  0  0  0  0  0  0  0  0
   -3.0080   22.1750  -32.2860 O   0  0  0  0  0  0  0  0  0  0  0  0
   -5.0650   22.6480  -31.2840 N   0  0  0  0  0  0  0  0  0  0  0  0
   -5.8850   23.6970  -31.0030 C   0  0  0  0  0  0  0  0  0  0  0  0
   -5.4600   25.0150  -30.4890 C   0  0  0  0  0  0  0  0  0  0  0  0
   -4.1510   25.5240  -30.7510 N   0  0  0  0  0  0  0  0  0  0  0  0
   -6.2450   25.6790  -29.7620 O   0  0  0  0  0  0  0  0  0  0  0  0
   -7.2170   23.3520  -31.2160 C   0  0  0  0  0  0  0  0  0  0  0  0
   -7.1880   22.0390  -31.6290 C   0  0  0  0  0  0  0  0  0  0  0  0
   -8.2310   21.1940  -31.9810 C   0  0  0  0  0  0  0  0  0  0  0  0
   -7.9120   19.8930  -32.4000 C   0  0  0  0  0  0  0  0  0  0  0  0
   -6.5600   19.4540  -32.4890 C   0  0  0  0  0  0  0  0  0  0  0  0
   -6.2700   18.0090  -32.9310 C   0  0  0  0  0  0  0  0  0  0  0  0
   -7.6160   17.2630  -33.0530 C   0  0  0  0  0  0  0  0  0  0  0  0
   -5.3750   17.2320  -31.9390 C   0  0  0  0  0  0  0  0  0  0  0  0
   -5.5440   18.0230  -34.2650 C   0  0  0  0  0  0  0  0  0  0  0  0
   -6.0960   18.5590  -35.2670 O   0  0  0  0  0  0  0  0  0  0  0  0
   -4.2590   17.4800  -34.3800 O   0  0  0  0  0  0  0  0  0  0  0  0
   -3.0800   18.2430  -34.1540 C   0  0  0  0  0  0  0  0  0  0  0  0
   -5.5280   20.3530  -32.1000 C   0  0  0  0  0  0  0  0  0  0  0  0
   -5.8800   21.6370  -31.6640 C   0  0  0  0  0  0  0  0  0  0  0  0
   -3.6540   22.8551  -26.9554 H   0  0  0  0  0  0  0  0  0  0  0  0
   -4.1317   24.0681  -28.1912 H   0  0  0  0  0  0  0  0  0  0  0  0
   -4.8896   22.4395  -28.1912 H   0  0  0  0  0  0  0  0  0  0  0  0
   -1.8830   22.6797  -28.4671 H   0  0  0  0  0  0  0  0  0  0  0  0
   -3.0051   21.4074  -29.0838 H   0  0  0  0  0  0  0  0  0  0  0  0
   -3.8830   26.4760  -30.4160 H   0  0  0  0  0  0  0  0  0  0  0  0
   -3.4190   24.9290  -31.1970 H   0  0  0  0  0  0  0  0  0  0  0  0
   -8.1023   23.9912  -31.0829 H   0  0  0  0  0  0  0  0  0  0  0  0
   -9.2762   21.5336  -31.9331 H   0  0  0  0  0  0  0  0  0  0  0  0
   -8.7226   19.1983  -32.6650 H   0  0  0  0  0  0  0  0  0  0  0  0
   -8.0074   17.0461  -32.0481 H   0  0  0  0  0  0  0  0  0  0  0  0
   -8.3352   17.8912  -33.5989 H   0  0  0  0  0  0  0  0  0  0  0  0
   -7.4645   16.3201  -33.5989 H   0  0  0  0  0  0  0  0  0  0  0  0
   -5.6653   17.4840  -30.9084 H   0  0  0  0  0  0  0  0  0  0  0  0
   -5.5002   16.1513  -32.1013 H   0  0  0  0  0  0  0  0  0  0  0  0
   -4.3226   17.5077  -32.1013 H   0  0  0  0  0  0  0  0  0  0  0  0
   -2.9144   18.3502  -33.0718 H   0  0  0  0  0  0  0  0  0  0  0  0
   -2.2189   17.7304  -34.6077 H   0  0  0  0  0  0  0  0  0  0  0  0
   -3.1949   19.2385  -34.6077 H   0  0  0  0  0  0  0  0  0  0  0  0
   -4.4727   20.0453  -32.1409 H   0  0  0  0  0  0  0  0  0  0  0  0
  1  2  1  0
  2  3  1  0
  3  4  1  0
  4  5  2  0
  4  6  1  0
  6  7  1  0
  7  8  1  0
  8  9  1  0
  8 10  2  0
  7 11  2  0
 11 12  1  0
 12 13  2  0
 13 14  1  0
 14 15  2  0
 15 16  1  0
 16 17  1  0
 16 18  1  0
 16 19  1  0
 19 20  2  0
 19 21  1  0
 21 22  1  0
 15 23  1  0
 23 24  2  0
 24  6  1  0
 24 12  1  0
  1 25  1  0
  1 26  1  0
  1 27  1  0
  2 28  1  0
  2 29  1  0
  9 30  1  0
  9 31  1  0
 11 32  1  0
 13 33  1  0
 14 34  1  0
 17 35  1  0
 17 36  1  0
 17 37  1  0
 18 38  1  0
 18 39  1  0
 18 40  1  0
 22 41  1  0
 22 42  1  0
 22 43  1  0
 23 44  1  0
M  END
>  <UniqueID>  (75) 
75

>  <SMILES>  (75) 
CCOC(=O)n1c(C(N)=O)cc2ccc(C(C)(C)C(=O)OC)cc21

>  <Energy>  (75) 
79.55517282938754

>  <Genealogy>  (75) 
CCOC(=O)n1c(C(N)=O)cc2ccc(C(C)(C)C(=O)OC)cc21 (3D coordinates assigned)
CCOC(=O)n1c(C(N)=O)cc2ccc(C(C)(C)C(=O)OC)cc21 (optimized conformer: 79.55517282938754 kcal/mol)

>  <smiles>  (75) 
CCOC(=O)n1c(C(N)=O)cc2ccc(C(C)(C)C(=O)OC)cc21

>  <score_type>  (75) 
oracle

>  <origin>  (75) 
adg

>  <m_score__min__energy>  (75) 
-8.3499999999999996

>  <m_primary>  (75) 
energy

$$$$
75:0
     RDKit          3D

 25 26  0  0  0  0  0  0  0  0999 V2000
   -5.6440   26.4790  -30.2090 N   0  0  0  0  0  0  0  0  0  0  0  0
   -6.4180   25.3080  -29.9500 C   0  0  0  0  0  0  0  0  0  0  0  0
   -7.2370   25.3080  -28.9910 O   0  0  0  0  0  0  0  0  0  0  0  0
   -6.2290   24.0760  -30.7400 C   0  0  0  0  0  0  0  0  0  0  0  0
   -7.2800   23.3670  -31.3140 C   0  0  0  0  0  0  0  0  0  0  0  0
   -6.6980   22.2650  -31.8970 C   0  0  0  0  0  0  0  0  0  0  0  0
   -7.2770   21.2330  -32.6290 C   0  0  0  0  0  0  0  0  0  0  0  0
   -6.4300   20.2440  -33.1560 C   0  0  0  0  0  0  0  0  0  0  0  0
   -5.0300   20.2960  -32.9370 C   0  0  0  0  0  0  0  0  0  0  0  0
   -4.1260   19.2630  -33.5630 C   0  0  0  0  0  0  0  0  0  0  0  0
   -4.8040   18.6250  -34.5860 F   0  0  0  0  0  0  0  0  0  0  0  0
   -2.9880   19.8580  -34.0790 F   0  0  0  0  0  0  0  0  0  0  0  0
   -3.7350   18.3220  -32.6260 F   0  0  0  0  0  0  0  0  0  0  0  0
   -4.4770   21.3760  -32.2100 C   0  0  0  0  0  0  0  0  0  0  0  0
   -5.3460   22.3370  -31.6770 C   0  0  0  0  0  0  0  0  0  0  0  0
   -5.0400   23.4490  -30.9690 N   0  0  0  0  0  0  0  0  0  0  0  0
   -3.7260   23.9310  -30.6450 C   0  0  0  0  0  0  0  0  0  0  0  0
   -2.7680   23.1270  -30.5010 O   0  0  0  0  0  0  0  0  0  0  0  0
   -3.4960   25.2930  -30.4930 O   0  0  0  0  0  0  0  0  0  0  0  0
   -5.8160   27.3530  -29.6630 H   0  0  0  0  0  0  0  0  0  0  0  0
   -4.8460   26.4600  -30.8820 H   0  0  0  0  0  0  0  0  0  0  0  0
   -8.3478   23.6312  -31.3038 H   0  0  0  0  0  0  0  0  0  0  0  0
   -8.3644   21.1928  -32.7900 H   0  0  0  0  0  0  0  0  0  0  0  0
   -6.8578   19.4196  -33.7454 H   0  0  0  0  0  0  0  0  0  0  0  0
   -3.3896   21.4594  -32.0664 H   0  0  0  0  0  0  0  0  0  0  0  0
  1  2  1  0
  2  3  2  0
  2  4  1  0
  4  5  2  0
  5  6  1  0
  6  7  2  0
  7  8  1  0
  8  9  2  0
  9 10  1  0
 10 11  1  0
 10 12  1  0
 10 13  1  0
  9 14  1  0
 14 15  2  0
 15 16  1  0
 16 17  1  0
 17 18  2  0
 17 19  1  0
 16  4  1  0
 15  6  1  0
  1 20  1  0
  1 21  1  0
  5 22  1  0
  7 23  1  0
  8 24  1  0
 14 25  1  0
M  CHG  1  19  -1
M  END
>  <UniqueID>  (76) 
76

>  <SMILES>  (76) 
NC(=O)c1cc2ccc(C(F)(F)F)cc2n1C(=O)[O-]

>  <Energy>  (76) 
66.26942013150006

>  <Genealogy>  (76) 
NC(=O)c1cc2ccc(C(F)(F)F)cc2n1C(=O)[O-] (protonated)
NC(=O)c1cc2ccc(C(F)(F)F)cc2n1C(=O)[O-] (3D coordinates assigned)
NC(=O)c1cc2ccc(C(F)(F)F)cc2n1C(=O)[O-] (optimized conformer: 66.26942013150006 kcal/mol)

>  <smiles>  (76) 
NC(=O)c1cc2ccc(C(F)(F)F)cc2n1C(=O)O

>  <score_type>  (76) 
oracle

>  <origin>  (76) 
adg

>  <m_score__min__energy>  (76) 
-7.8499999999999996

>  <m_primary>  (76) 
energy

$$$$
76:0
     RDKit          3D

 38 40  0  0  0  0  0  0  0  0999 V2000
    0.8810   22.1590  -27.6770 C   0  0  0  0  0  0  0  0  0  0  0  0
   -0.0950   23.1250  -28.2710 C   0  0  0  0  0  0  0  0  0  0  0  0
    0.0190   24.4320  -28.2190 O   0  0  0  0  0  0  0  0  0  0  0  0
   -1.0370   24.9090  -28.8400 C   0  0  0  0  0  0  0  0  0  0  0  0
   -1.2640   26.1410  -28.9880 O   0  0  0  0  0  0  0  0  0  0  0  0
   -1.8290   23.9640  -29.2940 O   0  0  0  0  0  0  0  0  0  0  0  0
   -1.2640   22.8300  -28.9550 C   0  0  0  0  0  0  0  0  0  0  0  0
   -1.8290   21.4760  -29.2640 C   0  0  0  0  0  0  0  0  0  0  0  0
   -3.1950   21.5910  -29.6520 O   0  0  0  0  0  0  0  0  0  0  0  0
   -3.6180   22.2890  -30.7890 C   0  0  0  0  0  0  0  0  0  0  0  0
   -2.7550   22.7510  -31.5860 O   0  0  0  0  0  0  0  0  0  0  0  0
   -5.0290   22.5140  -31.0320 N   0  0  0  0  0  0  0  0  0  0  0  0
   -5.7630   23.6040  -30.6550 C   0  0  0  0  0  0  0  0  0  0  0  0
   -5.2340   24.8490  -30.0690 C   0  0  0  0  0  0  0  0  0  0  0  0
   -3.8540   25.1910  -30.2060 N   0  0  0  0  0  0  0  0  0  0  0  0
   -6.0220   25.6510  -29.5000 O   0  0  0  0  0  0  0  0  0  0  0  0
   -7.1130   23.4140  -30.9110 C   0  0  0  0  0  0  0  0  0  0  0  0
   -7.2000   22.1730  -31.4900 C   0  0  0  0  0  0  0  0  0  0  0  0
   -8.3210   21.4890  -31.9500 C   0  0  0  0  0  0  0  0  0  0  0  0
   -8.1340   20.2170  -32.5130 C   0  0  0  0  0  0  0  0  0  0  0  0
   -6.8360   19.6610  -32.6300 C   0  0  0  0  0  0  0  0  0  0  0  0
   -6.6520   18.2770  -33.2060 C   0  0  0  0  0  0  0  0  0  0  0  0
   -6.4050   18.3420  -34.5650 F   0  0  0  0  0  0  0  0  0  0  0  0
   -7.8010   17.5380  -32.9900 F   0  0  0  0  0  0  0  0  0  0  0  0
   -5.5830   17.6340  -32.6040 F   0  0  0  0  0  0  0  0  0  0  0  0
   -5.7220   20.3760  -32.1270 C   0  0  0  0  0  0  0  0  0  0  0  0
   -5.9330   21.6450  -31.5590 C   0  0  0  0  0  0  0  0  0  0  0  0
    0.8275   22.2119  -26.5796 H   0  0  0  0  0  0  0  0  0  0  0  0
    0.6347   21.1391  -28.0074 H   0  0  0  0  0  0  0  0  0  0  0  0
    1.8983   22.4158  -28.0074 H   0  0  0  0  0  0  0  0  0  0  0  0
   -1.2550   21.0212  -30.0847 H   0  0  0  0  0  0  0  0  0  0  0  0
   -1.7625   20.8451  -28.3653 H   0  0  0  0  0  0  0  0  0  0  0  0
   -3.2090   24.6000  -30.7780 H   0  0  0  0  0  0  0  0  0  0  0  0
   -3.4780   26.0460  -29.7350 H   0  0  0  0  0  0  0  0  0  0  0  0
   -7.9376   24.1095  -30.6958 H   0  0  0  0  0  0  0  0  0  0  0  0
   -9.3248   21.9324  -31.8746 H   0  0  0  0  0  0  0  0  0  0  0  0
   -9.0046   19.6455  -32.8673 H   0  0  0  0  0  0  0  0  0  0  0  0
   -4.7106   19.9468  -32.1796 H   0  0  0  0  0  0  0  0  0  0  0  0
  1  2  1  0
  2  3  1  0
  3  4  1  0
  4  5  2  0
  4  6  1  0
  6  7  1  0
  7  8  1  0
  8  9  1  0
  9 10  1  0
 10 11  2  0
 10 12  1  0
 12 13  1  0
 13 14  1  0
 14 15  1  0
 14 16  2  0
 13 17  2  0
 17 18  1  0
 18 19  2  0
 19 20  1  0
 20 21  2  0
 21 22  1  0
 22 23  1  0
 22 24  1  0
 22 25  1  0
 21 26  1  0
 26 27  2  0
  7  2  2  0
 27 12  1  0
 27 18  1  0
  1 28  1  0
  1 29  1  0
  1 30  1  0
  8 31  1  0
  8 32  1  0
 15 33  1  0
 15 34  1  0
 17 35  1  0
 19 36  1  0
 20 37  1  0
 26 38  1  0
M  END
>  <UniqueID>  (77) 
77

>  <SMILES>  (77) 
Cc1oc(=O)oc1COC(=O)n1c(C(N)=O)cc2ccc(C(F)(F)F)cc21

>  <Energy>  (77) 
112.54684815851022

>  <Genealogy>  (77) 
Cc1oc(=O)oc1COC(=O)n1c(C(N)=O)cc2ccc(C(F)(F)F)cc21 (3D coordinates assigned)
Cc1oc(=O)oc1COC(=O)n1c(C(N)=O)cc2ccc(C(F)(F)F)cc21 (optimized conformer: 112.54684815851022 kcal/mol)

>  <smiles>  (77) 
Cc1oc(=O)oc1COC(=O)n1c(C(N)=O)cc2ccc(C(F)(F)F)cc21

>  <score_type>  (77) 
oracle

>  <origin>  (77) 
adg

>  <m_score__min__energy>  (77) 
-8.8800000000000008

>  <m_primary>  (77) 
energy

$$$$
77:0
     RDKit          3D

 41 43  0  0  0  0  0  0  0  0999 V2000
   -3.2730   20.6830  -33.4500 C   0  0  0  0  0  0  0  0  0  0  0  0
   -3.0780   20.0390  -32.0810 C   0  0  0  0  0  0  0  0  0  0  0  0
   -3.7500   20.7900  -31.0730 O   0  0  0  0  0  0  0  0  0  0  0  0
   -4.2070   22.1000  -31.2610 C   0  0  0  0  0  0  0  0  0  0  0  0
   -3.3860   23.0430  -31.4260 O   0  0  0  0  0  0  0  0  0  0  0  0
   -5.6180   22.3700  -31.2560 N   0  0  0  0  0  0  0  0  0  0  0  0
   -6.2340   23.5530  -30.9800 C   0  0  0  0  0  0  0  0  0  0  0  0
   -5.5660   24.7710  -30.4700 C   0  0  0  0  0  0  0  0  0  0  0  0
   -5.8690   25.2810  -29.1700 N   0  0  0  0  0  0  0  0  0  0  0  0
   -4.6940   25.3530  -31.1680 O   0  0  0  0  0  0  0  0  0  0  0  0
   -7.6110   23.4410  -31.1590 C   0  0  0  0  0  0  0  0  0  0  0  0
   -7.8230   22.1400  -31.5530 C   0  0  0  0  0  0  0  0  0  0  0  0
   -9.0070   21.4870  -31.8850 C   0  0  0  0  0  0  0  0  0  0  0  0
   -8.9260   20.1450  -32.2940 C   0  0  0  0  0  0  0  0  0  0  0  0
   -7.6740   19.4840  -32.3580 C   0  0  0  0  0  0  0  0  0  0  0  0
   -7.5980   18.0650  -32.8470 C   0  0  0  0  0  0  0  0  0  0  0  0
   -6.4730   17.9290  -33.8820 C   0  0  2  0  0  0  0  0  0  0  0  0
   -6.4070   16.6250  -34.4240 O   0  0  0  0  0  0  0  0  0  0  0  0
   -5.3420   17.0080  -33.5840 C   0  0  2  0  0  0  0  0  0  0  0  0
   -5.2840   16.1870  -32.2940 C   0  0  0  0  0  0  0  0  0  0  0  0
   -4.1040   17.2220  -34.3420 C   0  0  0  0  0  0  0  0  0  0  0  0
   -3.1270   17.3900  -34.9390 N   0  0  0  0  0  0  0  0  0  0  0  0
   -6.4930   20.1820  -32.0240 C   0  0  0  0  0  0  0  0  0  0  0  0
   -6.6040   21.5130  -31.6040 C   0  0  0  0  0  0  0  0  0  0  0  0
   -3.5896   21.7286  -33.3216 H   0  0  0  0  0  0  0  0  0  0  0  0
   -2.3254   20.6527  -34.0078 H   0  0  0  0  0  0  0  0  0  0  0  0
   -4.0446   20.1321  -34.0078 H   0  0  0  0  0  0  0  0  0  0  0  0
   -3.4839   19.0168  -32.1012 H   0  0  0  0  0  0  0  0  0  0  0  0
   -2.0029   20.0170  -31.8493 H   0  0  0  0  0  0  0  0  0  0  0  0
   -5.3640   26.1180  -28.8040 H   0  0  0  0  0  0  0  0  0  0  0  0
   -6.6230   24.8590  -28.5840 H   0  0  0  0  0  0  0  0  0  0  0  0
   -8.3680   24.2261  -31.0157 H   0  0  0  0  0  0  0  0  0  0  0  0
   -9.9756   22.0054  -31.8289 H   0  0  0  0  0  0  0  0  0  0  0  0
   -9.8431   19.6024  -32.5671 H   0  0  0  0  0  0  0  0  0  0  0  0
   -7.3946   17.3967  -31.9973 H   0  0  0  0  0  0  0  0  0  0  0  0
   -8.5553   17.7912  -33.3144 H   0  0  0  0  0  0  0  0  0  0  0  0
   -6.5256   18.9698  -34.2340 H   0  0  0  0  0  0  0  0  0  0  0  0
   -5.3317   16.8624  -31.4271 H   0  0  0  0  0  0  0  0  0  0  0  0
   -6.1352   15.4909  -32.2638 H   0  0  0  0  0  0  0  0  0  0  0  0
   -4.3434   15.6175  -32.2638 H   0  0  0  0  0  0  0  0  0  0  0  0
   -5.5103   19.6924  -32.0921 H   0  0  0  0  0  0  0  0  0  0  0  0
  1  2  1  0
  2  3  1  0
  3  4  1  0
  4  5  2  0
  4  6  1  0
  6  7  1  0
  7  8  1  0
  8  9  1  0
  8 10  2  0
  7 11  2  0
 11 12  1  0
 12 13  2  0
 13 14  1  0
 14 15  2  0
 15 16  1  0
 16 17  1  0
 17 18  1  0
 18 19  1  0
 19 20  1  0
 19 21  1  6
 21 22  3  0
 15 23  1  0
 23 24  2  0
 24  6  1  0
 24 12  1  0
 19 17  1  0
  1 25  1  0
  1 26  1  0
  1 27  1  0
  2 28  1  0
  2 29  1  0
  9 30  1  0
  9 31  1  0
 11 32  1  0
 13 33  1  0
 14 34  1  0
 16 35  1  0
 16 36  1  0
 17 37  1  6
 20 38  1  0
 20 39  1  0
 20 40  1  0
 23 41  1  0
M  END
>  <UniqueID>  (78) 
78

>  <SMILES>  (78) 
CCOC(=O)n1c(C(N)=O)cc2ccc(C[C@@H]3O[C@@]3(C)C#N)cc21

>  <Energy>  (78) 
409.8082980755639

>  <Genealogy>  (78) 
CCOC(=O)n1c(C(N)=O)cc2ccc(C[C@@H]3O[C@@]3(C)C#N)cc21 (chirality)
CCOC(=O)n1c(C(N)=O)cc2ccc(C[C@@H]3O[C@@]3(C)C#N)cc21 (3D coordinates assigned)
CCOC(=O)n1c(C(N)=O)cc2ccc(C[C@@H]3O[C@@]3(C)C#N)cc21 (nonaromatic ring conformer: 409.8082980755639 kcal/mol)

>  <smiles>  (78) 
CCOC(=O)n1c(C(N)=O)cc2ccc(CC3OC3(C)C#N)cc21

>  <score_type>  (78) 
oracle

>  <origin>  (78) 
adg

>  <m_score__min__energy>  (78) 
-9.0399999999999991

>  <m_primary>  (78) 
energy

$$$$
78:0
     RDKit          3D

 38 40  0  0  0  0  0  0  0  0999 V2000
   -3.8200   23.4530  -27.9750 C   0  0  0  0  0  0  0  0  0  0  0  0
   -3.0150   22.5450  -28.8960 C   0  0  0  0  0  0  0  0  0  0  0  0
   -2.8260   23.1590  -30.1690 O   0  0  0  0  0  0  0  0  0  0  0  0
   -3.4830   22.7400  -31.3330 C   0  0  0  0  0  0  0  0  0  0  0  0
   -2.8280   22.2570  -32.2970 O   0  0  0  0  0  0  0  0  0  0  0  0
   -4.9120   22.8460  -31.4200 N   0  0  0  0  0  0  0  0  0  0  0  0
   -5.7000   23.8730  -30.9920 C   0  0  0  0  0  0  0  0  0  0  0  0
   -5.2260   25.1820  -30.5000 C   0  0  0  0  0  0  0  0  0  0  0  0
   -3.9350   25.6740  -30.8500 N   0  0  0  0  0  0  0  0  0  0  0  0
   -5.9890   25.9000  -29.8000 O   0  0  0  0  0  0  0  0  0  0  0  0
   -7.0470   23.5570  -31.1550 C   0  0  0  0  0  0  0  0  0  0  0  0
   -7.0610   22.2970  -31.7070 C   0  0  0  0  0  0  0  0  0  0  0  0
   -8.1360   21.4890  -32.0650 C   0  0  0  0  0  0  0  0  0  0  0  0
   -7.8570   20.2140  -32.5860 C   0  0  0  0  0  0  0  0  0  0  0  0
   -6.5180   19.7640  -32.7320 C   0  0  0  0  0  0  0  0  0  0  0  0
   -6.2360   18.4100  -33.2710 C   0  0  0  0  0  0  0  0  0  0  0  0
   -7.1120   17.3390  -33.0100 C   0  0  0  0  0  0  0  0  0  0  0  0
   -6.8430   16.0650  -33.5190 C   0  0  0  0  0  0  0  0  0  0  0  0
   -5.7020   15.8440  -34.2920 C   0  0  0  0  0  0  0  0  0  0  0  0
   -4.8250   16.8990  -34.5590 C   0  0  0  0  0  0  0  0  0  0  0  0
   -5.0880   18.1740  -34.0520 C   0  0  0  0  0  0  0  0  0  0  0  0
   -5.4540   20.6180  -32.3550 C   0  0  0  0  0  0  0  0  0  0  0  0
   -5.7610   21.8890  -31.8590 C   0  0  0  0  0  0  0  0  0  0  0  0
   -3.5978   23.2024  -26.9272 H   0  0  0  0  0  0  0  0  0  0  0  0
   -3.5497   24.5020  -28.1664 H   0  0  0  0  0  0  0  0  0  0  0  0
   -4.8938   23.3103  -28.1664 H   0  0  0  0  0  0  0  0  0  0  0  0
   -2.0332   22.3477  -28.4408 H   0  0  0  0  0  0  0  0  0  0  0  0
   -3.5668   21.6037  -29.0356 H   0  0  0  0  0  0  0  0  0  0  0  0
   -3.0740   25.2980  -30.3940 H   0  0  0  0  0  0  0  0  0  0  0  0
   -7.9147   24.1820  -30.8972 H   0  0  0  0  0  0  0  0  0  0  0  0
   -9.1722   21.8376  -31.9439 H   0  0  0  0  0  0  0  0  0  0  0  0
   -8.6865   19.5561  -32.8846 H   0  0  0  0  0  0  0  0  0  0  0  0
   -8.0134   17.5057  -32.4020 H   0  0  0  0  0  0  0  0  0  0  0  0
   -7.5328   15.2341  -33.3096 H   0  0  0  0  0  0  0  0  0  0  0  0
   -5.4932   14.8403  -34.6907 H   0  0  0  0  0  0  0  0  0  0  0  0
   -3.9264   16.7252  -35.1692 H   0  0  0  0  0  0  0  0  0  0  0  0
   -4.3931   18.9999  -34.2644 H   0  0  0  0  0  0  0  0  0  0  0  0
   -4.4086   20.2892  -32.4501 H   0  0  0  0  0  0  0  0  0  0  0  0
  1  2  1  0
  2  3  1  0
  3  4  1  0
  4  5  2  0
  4  6  1  0
  6  7  1  0
  7  8  1  0
  8  9  1  0
  8 10  2  0
  7 11  2  0
 11 12  1  0
 12 13  2  0
 13 14  1  0
 14 15  2  0
 15 16  1  0
 16 17  2  0
 17 18  1  0
 18 19  2  0
 19 20  1  0
 20 21  2  0
 15 22  1  0
 22 23  2  0
 23  6  1  0
 23 12  1  0
 21 16  1  0
  1 24  1  0
  1 25  1  0
  1 26  1  0
  2 27  1  0
  2 28  1  0
  9 29  1  0
 11 30  1  0
 13 31  1  0
 14 32  1  0
 17 33  1  0
 18 34  1  0
 19 35  1  0
 20 36  1  0
 21 37  1  0
 22 38  1  0
M  CHG  1   9  -1
M  END
>  <UniqueID>  (79) 
79

>  <SMILES>  (79) 
CCOC(=O)n1c(C([NH-])=O)cc2ccc(-c3ccccc3)cc21

>  <Energy>  (79) 
81.06613791094824

>  <Genealogy>  (79) 
CCOC(=O)n1c(C([NH-])=O)cc2ccc(-c3ccccc3)cc21 (protonated)
CCOC(=O)n1c(C([NH-])=O)cc2ccc(-c3ccccc3)cc21 (3D coordinates assigned)
CCOC(=O)n1c(C([NH-])=O)cc2ccc(-c3ccccc3)cc21 (optimized conformer: 81.06613791094824 kcal/mol)

>  <smiles>  (79) 
CCOC(=O)n1c(C(N)=O)cc2ccc(-c3ccccc3)cc21

>  <score_type>  (79) 
oracle

>  <origin>  (79) 
adg

>  <m_score__min__energy>  (79) 
-10.550000000000001

>  <m_primary>  (79) 
energy

$$$$
79:0
     RDKit          3D

 44 45  0  0  0  0  0  0  0  0999 V2000
   -6.4130   16.1630  -33.8470 C   0  0  0  0  0  0  0  0  0  0  0  0
   -6.3280   17.6520  -34.1740 C   0  0  0  0  0  0  0  0  0  0  0  0
   -6.6290   18.4670  -32.9780 N   0  0  0  0  0  0  0  0  0  0  0  0
   -7.5760   17.8040  -32.0480 C   0  0  0  0  0  0  0  0  0  0  0  0
   -8.7990   18.6570  -31.6730 C   0  0  0  0  0  0  0  0  0  0  0  0
   -7.0170   19.8590  -33.3040 C   0  0  0  0  0  0  0  0  0  0  0  0
   -5.7890   20.7780  -33.3440 C   0  0  0  0  0  0  0  0  0  0  0  0
   -4.5790   20.0600  -32.9360 N   0  0  0  0  0  0  0  0  0  0  0  0
   -3.5250   20.6120  -32.1250 C   0  0  0  0  0  0  0  0  0  0  0  0
   -2.2730   19.9560  -31.9750 C   0  0  0  0  0  0  0  0  0  0  0  0
   -1.2490   20.5330  -31.2080 C   0  0  0  0  0  0  0  0  0  0  0  0
   -1.5020   21.7530  -30.5890 C   0  0  0  0  0  0  0  0  0  0  0  0
   -0.6800   22.5410  -29.8180 C   0  0  0  0  0  0  0  0  0  0  0  0
   -1.4490   23.6510  -29.4740 C   0  0  0  0  0  0  0  0  0  0  0  0
   -0.9870   24.7230  -28.5660 C   0  0  0  0  0  0  0  0  0  0  0  0
   -1.9040   25.6920  -28.0530 N   0  0  0  0  0  0  0  0  0  0  0  0
    0.2320   24.8110  -28.2600 O   0  0  0  0  0  0  0  0  0  0  0  0
   -2.6980   23.5530  -30.0130 N   0  0  0  0  0  0  0  0  0  0  0  0
   -3.7550   24.5240  -29.9500 C   0  0  0  0  0  0  0  0  0  0  0  0
   -3.8590   25.4130  -30.8360 O   0  0  0  0  0  0  0  0  0  0  0  0
   -4.6660   24.5040  -28.8990 O   0  0  0  0  0  0  0  0  0  0  0  0
   -2.7140   22.3840  -30.6930 C   0  0  0  0  0  0  0  0  0  0  0  0
   -3.7480   21.8400  -31.4630 C   0  0  0  0  0  0  0  0  0  0  0  0
   -6.4208   16.0272  -32.7554 H   0  0  0  0  0  0  0  0  0  0  0  0
   -7.3364   15.7457  -34.2750 H   0  0  0  0  0  0  0  0  0  0  0  0
   -5.5431   15.6434  -34.2750 H   0  0  0  0  0  0  0  0  0  0  0  0
   -5.3125   17.8873  -34.5252 H   0  0  0  0  0  0  0  0  0  0  0  0
   -7.0656   17.8853  -34.9560 H   0  0  0  0  0  0  0  0  0  0  0  0
   -7.9343   16.8789  -32.5233 H   0  0  0  0  0  0  0  0  0  0  0  0
   -7.0232   17.6201  -31.1150 H   0  0  0  0  0  0  0  0  0  0  0  0
   -8.8832   18.7157  -30.5778 H   0  0  0  0  0  0  0  0  0  0  0  0
   -8.6806   19.6694  -32.0865 H   0  0  0  0  0  0  0  0  0  0  0  0
   -9.7082   18.1961  -32.0865 H   0  0  0  0  0  0  0  0  0  0  0  0
   -7.5095   19.8740  -34.2875 H   0  0  0  0  0  0  0  0  0  0  0  0
   -7.7017   20.2234  -32.5240 H   0  0  0  0  0  0  0  0  0  0  0  0
   -5.6551   21.1541  -34.3690 H   0  0  0  0  0  0  0  0  0  0  0  0
   -5.9533   21.6110  -32.6447 H   0  0  0  0  0  0  0  0  0  0  0  0
   -4.5230   19.0470  -33.1930 H   0  0  0  0  0  0  0  0  0  0  0  0
   -2.1049   18.9858  -32.4653 H   0  0  0  0  0  0  0  0  0  0  0  0
   -0.2743   20.0349  -31.0994 H   0  0  0  0  0  0  0  0  0  0  0  0
    0.3630   22.3382  -29.5333 H   0  0  0  0  0  0  0  0  0  0  0  0
   -2.9280   25.6210  -28.2400 H   0  0  0  0  0  0  0  0  0  0  0  0
   -1.5600   26.4680  -27.4450 H   0  0  0  0  0  0  0  0  0  0  0  0
   -4.7145   22.3578  -31.5511 H   0  0  0  0  0  0  0  0  0  0  0  0
  1  2  1  0
  2  3  1  0
  3  4  1  0
  4  5  1  0
  3  6  1  0
  6  7  1  0
  7  8  1  0
  8  9  1  0
  9 10  2  0
 10 11  1  0
 11 12  2  0
 12 13  1  0
 13 14  2  0
 14 15  1  0
 15 16  1  0
 15 17  2  0
 14 18  1  0
 18 19  1  0
 19 20  2  0
 19 21  1  0
 18 22  1  0
 22 23  2  0
 23  9  1  0
 22 12  1  0
  1 24  1  0
  1 25  1  0
  1 26  1  0
  2 27  1  0
  2 28  1  0
  4 29  1  0
  4 30  1  0
  5 31  1  0
  5 32  1  0
  5 33  1  0
  6 34  1  0
  6 35  1  0
  7 36  1  0
  7 37  1  0
  8 38  1  0
 10 39  1  0
 11 40  1  0
 13 41  1  0
 16 42  1  0
 16 43  1  0
 23 44  1  0
M  CHG  1  21  -1
M  END
>  <UniqueID>  (80) 
80

>  <SMILES>  (80) 
CCN(CC)CCNc1ccc2cc(C(N)=O)n(C(=O)[O-])c2c1

>  <Energy>  (80) 
81.48061798014577

>  <Genealogy>  (80) 
CCN(CC)CCNc1ccc2cc(C(N)=O)n(C(=O)[O-])c2c1 (protonated)
CCN(CC)CCNc1ccc2cc(C(N)=O)n(C(=O)[O-])c2c1 (3D coordinates assigned)
CCN(CC)CCNc1ccc2cc(C(N)=O)n(C(=O)[O-])c2c1 (optimized conformer: 81.48061798014577 kcal/mol)

>  <smiles>  (80) 
CCN(CC)CCNc1ccc2cc(C(N)=O)n(C(=O)O)c2c1

>  <score_type>  (80) 
oracle

>  <origin>  (80) 
adg

>  <m_score__min__energy>  (80) 
-8.5199999999999996

>  <m_primary>  (80) 
energy

$$$$
80:0
     RDKit          3D

 41 43  0  0  0  0  0  0  0  0999 V2000
   -2.5640   21.9240  -32.2170 C   0  0  0  0  0  0  0  0  0  0  0  0
   -3.3930   22.6120  -31.1790 C   0  0  0  0  0  0  0  0  0  0  0  0
   -2.8230   23.1530  -30.1940 O   0  0  0  0  0  0  0  0  0  0  0  0
   -4.8170   22.7210  -31.3280 N   0  0  0  0  0  0  0  0  0  0  0  0
   -5.6240   23.7590  -30.9700 C   0  0  0  0  0  0  0  0  0  0  0  0
   -5.1700   25.0710  -30.4630 C   0  0  0  0  0  0  0  0  0  0  0  0
   -3.8880   25.5710  -30.8350 N   0  0  0  0  0  0  0  0  0  0  0  0
   -5.8910   25.7430  -29.6810 O   0  0  0  0  0  0  0  0  0  0  0  0
   -6.9590   23.4490  -31.2270 C   0  0  0  0  0  0  0  0  0  0  0  0
   -6.9410   22.1830  -31.7670 C   0  0  0  0  0  0  0  0  0  0  0  0
   -7.9900   21.3820  -32.2060 C   0  0  0  0  0  0  0  0  0  0  0  0
   -7.6790   20.1060  -32.7070 C   0  0  0  0  0  0  0  0  0  0  0  0
   -6.3340   19.6490  -32.7550 C   0  0  0  0  0  0  0  0  0  0  0  0
   -6.0280   18.3340  -33.2690 N   0  0  0  0  0  0  0  0  0  0  0  0
   -6.7060   17.1430  -32.7370 C   0  0  0  0  0  0  0  0  0  0  0  0
   -6.8360   16.0770  -33.8340 C   0  0  0  0  0  0  0  0  0  0  0  0
   -5.5530   15.7540  -34.5150 N   0  0  0  0  0  0  0  0  0  0  0  0
   -5.1110   14.3850  -34.2070 C   0  0  0  0  0  0  0  0  0  0  0  0
   -4.4580   16.7150  -34.2580 C   0  0  0  0  0  0  0  0  0  0  0  0
   -4.9650   18.1590  -34.2650 C   0  0  0  0  0  0  0  0  0  0  0  0
   -5.2970   20.5000  -32.3010 C   0  0  0  0  0  0  0  0  0  0  0  0
   -5.6380   21.7680  -31.8190 C   0  0  0  0  0  0  0  0  0  0  0  0
   -1.8071   21.2958  -31.7246 H   0  0  0  0  0  0  0  0  0  0  0  0
   -3.2113   21.2940  -32.8448 H   0  0  0  0  0  0  0  0  0  0  0  0
   -2.0641   22.6763  -32.8448 H   0  0  0  0  0  0  0  0  0  0  0  0
   -3.0310   25.2930  -30.3070 H   0  0  0  0  0  0  0  0  0  0  0  0
   -7.8390   24.0814  -31.0384 H   0  0  0  0  0  0  0  0  0  0  0  0
   -9.0306   21.7361  -32.1625 H   0  0  0  0  0  0  0  0  0  0  0  0
   -8.4874   19.4524  -33.0667 H   0  0  0  0  0  0  0  0  0  0  0  0
   -6.1208   16.7345  -31.9000 H   0  0  0  0  0  0  0  0  0  0  0  0
   -7.7102   17.4256  -32.3882 H   0  0  0  0  0  0  0  0  0  0  0  0
   -7.2274   15.1559  -33.3774 H   0  0  0  0  0  0  0  0  0  0  0  0
   -7.5100   16.4875  -34.6003 H   0  0  0  0  0  0  0  0  0  0  0  0
   -5.0675   14.2504  -33.1161 H   0  0  0  0  0  0  0  0  0  0  0  0
   -5.8222   13.6645  -34.6373 H   0  0  0  0  0  0  0  0  0  0  0  0
   -4.1128   14.2164  -34.6373 H   0  0  0  0  0  0  0  0  0  0  0  0
   -4.0144   16.4968  -33.2753 H   0  0  0  0  0  0  0  0  0  0  0  0
   -3.7105   16.6081  -35.0579 H   0  0  0  0  0  0  0  0  0  0  0  0
   -4.1315   18.8367  -34.0281 H   0  0  0  0  0  0  0  0  0  0  0  0
   -5.3691   18.3899  -35.2617 H   0  0  0  0  0  0  0  0  0  0  0  0
   -4.2476   20.1714  -32.3268 H   0  0  0  0  0  0  0  0  0  0  0  0
  1  2  1  0
  2  3  2  0
  2  4  1  0
  4  5  1  0
  5  6  1  0
  6  7  1  0
  6  8  2  0
  5  9  2  0
  9 10  1  0
 10 11  2  0
 11 12  1  0
 12 13  2  0
 13 14  1  0
 14 15  1  0
 15 16  1  0
 16 17  1  0
 17 18  1  0
 17 19  1  0
 19 20  1  0
 13 21  1  0
 21 22  2  0
 22  4  1  0
 22 10  1  0
 20 14  1  0
  1 23  1  0
  1 24  1  0
  1 25  1  0
  7 26  1  0
  9 27  1  0
 11 28  1  0
 12 29  1  0
 15 30  1  0
 15 31  1  0
 16 32  1  0
 16 33  1  0
 18 34  1  0
 18 35  1  0
 18 36  1  0
 19 37  1  0
 19 38  1  0
 20 39  1  0
 20 40  1  0
 21 41  1  0
M  CHG  1   7  -1
M  END
>  <UniqueID>  (81) 
81

>  <SMILES>  (81) 
CC(=O)n1c(C([NH-])=O)cc2ccc(N3CCN(C)CC3)cc21

>  <Energy>  (81) 
90.15003585168543

>  <Genealogy>  (81) 
CC(=O)n1c(C([NH-])=O)cc2ccc(N3CCN(C)CC3)cc21 (protonated)
CC(=O)n1c(C([NH-])=O)cc2ccc(N3CCN(C)CC3)cc21 (3D coordinates assigned)
CC(=O)n1c(C([NH-])=O)cc2ccc(N3CCN(C)CC3)cc21 (nonaromatic ring conformer: 90.15003585168543 kcal/mol)

>  <smiles>  (81) 
CC(=O)n1c(C(N)=O)cc2ccc(N3CCN(C)CC3)cc21

>  <score_type>  (81) 
oracle

>  <origin>  (81) 
adg

>  <m_score__min__energy>  (81) 
-10.550000000000001

>  <m_primary>  (81) 
energy

$$$$
81:0
     RDKit          3D

 39 41  0  0  0  0  0  0  0  0999 V2000
   -7.2140   17.2700  -33.0610 C   0  0  0  0  0  0  0  0  0  0  0  0
   -5.9250   18.0820  -32.8810 C   0  0  1  0  0  0  0  0  0  0  0  0
   -5.0600   18.0250  -34.1110 C   0  0  0  0  0  0  0  0  0  0  0  0
   -5.5750   17.7530  -35.2280 O   0  0  0  0  0  0  0  0  0  0  0  0
   -3.6850   18.2160  -34.0250 O   0  0  0  0  0  0  0  0  0  0  0  0
   -6.2310   19.5200  -32.5130 C   0  0  0  0  0  0  0  0  0  0  0  0
   -7.5460   20.0290  -32.6800 C   0  0  0  0  0  0  0  0  0  0  0  0
   -7.8520   21.3590  -32.3420 C   0  0  0  0  0  0  0  0  0  0  0  0
   -6.8300   22.1530  -31.8310 C   0  0  0  0  0  0  0  0  0  0  0  0
   -6.8430   23.4710  -31.4340 C   0  0  0  0  0  0  0  0  0  0  0  0
   -5.5420   23.7450  -31.0140 C   0  0  0  0  0  0  0  0  0  0  0  0
   -5.1170   25.0440  -30.4520 C   0  0  0  0  0  0  0  0  0  0  0  0
   -3.8880   25.6480  -30.8440 N   0  0  0  0  0  0  0  0  0  0  0  0
   -5.8390   25.6170  -29.5920 O   0  0  0  0  0  0  0  0  0  0  0  0
   -4.7590   22.6370  -31.1460 N   0  0  0  0  0  0  0  0  0  0  0  0
   -3.3480   22.5230  -30.8960 C   0  0  0  0  0  0  0  0  0  0  0  0
   -2.8320   23.2040  -29.9680 O   0  0  0  0  0  0  0  0  0  0  0  0
   -2.4950   21.6340  -31.7210 C   0  0  0  0  0  0  0  0  0  0  0  0
   -1.5280   20.8100  -31.1150 C   0  0  0  0  0  0  0  0  0  0  0  0
   -0.7150   19.9830  -31.8940 C   0  0  0  0  0  0  0  0  0  0  0  0
   -0.8590   19.9630  -33.2830 C   0  0  0  0  0  0  0  0  0  0  0  0
   -1.8210   20.7670  -33.8950 C   0  0  0  0  0  0  0  0  0  0  0  0
   -2.6380   21.5970  -33.1220 C   0  0  0  0  0  0  0  0  0  0  0  0
   -5.5590   21.6760  -31.6530 C   0  0  0  0  0  0  0  0  0  0  0  0
   -5.2190   20.3660  -32.0010 C   0  0  0  0  0  0  0  0  0  0  0  0
   -7.6251   17.0111  -32.0741 H   0  0  0  0  0  0  0  0  0  0  0  0
   -7.9493   17.8683  -33.6190 H   0  0  0  0  0  0  0  0  0  0  0  0
   -6.9919   16.3484  -33.6190 H   0  0  0  0  0  0  0  0  0  0  0  0
   -5.3650   17.6247  -32.0519 H   0  0  0  0  0  0  0  0  0  0  0  0
   -8.3351   19.3746  -33.0788 H   0  0  0  0  0  0  0  0  0  0  0  0
   -8.8676   21.7593  -32.4773 H   0  0  0  0  0  0  0  0  0  0  0  0
   -7.6988   24.1620  -31.4456 H   0  0  0  0  0  0  0  0  0  0  0  0
   -2.9750   25.2910  -30.4850 H   0  0  0  0  0  0  0  0  0  0  0  0
   -1.4117   20.8173  -30.0212 H   0  0  0  0  0  0  0  0  0  0  0  0
    0.0409   19.3456  -31.4119 H   0  0  0  0  0  0  0  0  0  0  0  0
   -0.2145   19.3139  -33.8940 H   0  0  0  0  0  0  0  0  0  0  0  0
   -1.9369   20.7477  -34.9887 H   0  0  0  0  0  0  0  0  0  0  0  0
   -3.3973   22.2252  -33.6107 H   0  0  0  0  0  0  0  0  0  0  0  0
   -4.1884   20.0010  -31.8797 H   0  0  0  0  0  0  0  0  0  0  0  0
  1  2  1  0
  2  3  1  0
  3  4  2  0
  3  5  1  0
  2  6  1  0
  6  7  2  0
  7  8  1  0
  8  9  2  0
  9 10  1  0
 10 11  2  0
 11 12  1  0
 12 13  1  0
 12 14  2  0
 11 15  1  0
 15 16  1  0
 16 17  2  0
 16 18  1  0
 18 19  2  0
 19 20  1  0
 20 21  2  0
 21 22  1  0
 22 23  2  0
 15 24  1  0
 24 25  2  0
 25  6  1  0
 24  9  1  0
 23 18  1  0
  1 26  1  0
  1 27  1  0
  1 28  1  0
  2 29  1  1
  7 30  1  0
  8 31  1  0
 10 32  1  0
 13 33  1  0
 19 34  1  0
 20 35  1  0
 21 36  1  0
 22 37  1  0
 23 38  1  0
 25 39  1  0
M  CHG  2   5  -1  13  -1
M  END
>  <UniqueID>  (82) 
82

>  <SMILES>  (82) 
C[C@@H](C(=O)[O-])c1ccc2cc(C([NH-])=O)n(C(=O)c3ccccc3)c2c1

>  <Energy>  (82) 
80.34815338955637

>  <Genealogy>  (82) 
CC(C(=O)[O-])c1ccc2cc(C([NH-])=O)n(C(=O)c3ccccc3)c2c1 (protonated)
C[C@@H](C(=O)[O-])c1ccc2cc(C([NH-])=O)n(C(=O)c3ccccc3)c2c1 (chirality)
C[C@@H](C(=O)[O-])c1ccc2cc(C([NH-])=O)n(C(=O)c3ccccc3)c2c1 (3D coordinates assigned)
C[C@@H](C(=O)[O-])c1ccc2cc(C([NH-])=O)n(C(=O)c3ccccc3)c2c1 (optimized conformer: 80.34815338955637 kcal/mol)

>  <smiles>  (82) 
CC(C(=O)O)c1ccc2cc(C(N)=O)n(C(=O)c3ccccc3)c2c1

>  <score_type>  (82) 
oracle

>  <origin>  (82) 
adg

>  <m_score__min__energy>  (82) 
-11.289999999999999

>  <m_primary>  (82) 
energy

$$$$
82:0
     RDKit          3D

 39 41  0  0  0  0  0  0  0  0999 V2000
   -9.0370   22.3590  -31.9430 C   0  0  0  0  0  0  0  0  0  0  0  0
   -9.7080   21.0120  -32.1600 C   0  0  0  0  0  0  0  0  0  0  0  0
   -8.8520   20.1690  -32.9210 O   0  0  0  0  0  0  0  0  0  0  0  0
   -8.4650   18.8990  -32.4880 C   0  0  0  0  0  0  0  0  0  0  0  0
   -9.2790   18.1480  -31.8850 O   0  0  0  0  0  0  0  0  0  0  0  0
   -7.0560   18.4450  -32.7030 C   0  0  0  0  0  0  0  0  0  0  0  0
   -5.9470   19.4350  -32.4800 C   0  0  0  0  0  0  0  0  0  0  0  0
   -4.7010   19.2630  -33.1330 C   0  0  0  0  0  0  0  0  0  0  0  0
   -3.6650   20.1940  -32.9520 C   0  0  0  0  0  0  0  0  0  0  0  0
   -3.9130   21.2950  -32.1370 C   0  0  0  0  0  0  0  0  0  0  0  0
   -3.0840   22.3320  -31.7710 C   0  0  0  0  0  0  0  0  0  0  0  0
   -3.8520   23.1420  -30.9350 C   0  0  0  0  0  0  0  0  0  0  0  0
   -3.3650   24.4140  -30.3600 C   0  0  0  0  0  0  0  0  0  0  0  0
   -3.9070   25.6640  -30.7750 N   0  0  0  0  0  0  0  0  0  0  0  0
   -2.4300   24.3980  -29.5160 O   0  0  0  0  0  0  0  0  0  0  0  0
   -5.1040   22.6240  -30.7900 N   0  0  0  0  0  0  0  0  0  0  0  0
   -6.1680   23.1140  -29.9590 C   0  0  0  0  0  0  0  0  0  0  0  0
   -6.1110   24.4330  -29.4160 N   0  0  0  0  0  0  0  0  0  0  0  0
   -7.1620   22.3810  -29.7110 O   0  0  0  0  0  0  0  0  0  0  0  0
   -5.1250   21.4940  -31.5290 C   0  0  0  0  0  0  0  0  0  0  0  0
   -6.1670   20.5720  -31.6720 C   0  0  0  0  0  0  0  0  0  0  0  0
   -6.8490   17.4340  -33.8250 C   0  0  0  0  0  0  0  0  0  0  0  0
   -6.7560   16.9870  -32.3750 C   0  0  0  0  0  0  0  0  0  0  0  0
   -8.9412   22.5513  -30.8642 H   0  0  0  0  0  0  0  0  0  0  0  0
   -8.0383   22.3496  -32.4039 H   0  0  0  0  0  0  0  0  0  0  0  0
   -9.6461   23.1506  -32.4039 H   0  0  0  0  0  0  0  0  0  0  0  0
   -9.9115   20.5434  -31.1859 H   0  0  0  0  0  0  0  0  0  0  0  0
  -10.6533   21.1584  -32.7032 H   0  0  0  0  0  0  0  0  0  0  0  0
   -4.5439   18.3928  -33.7873 H   0  0  0  0  0  0  0  0  0  0  0  0
   -2.6882   20.0574  -33.4390 H   0  0  0  0  0  0  0  0  0  0  0  0
   -2.0381   22.4882  -32.0738 H   0  0  0  0  0  0  0  0  0  0  0  0
   -4.2330   26.3670  -30.0760 H   0  0  0  0  0  0  0  0  0  0  0  0
   -6.8990   24.8000  -28.8370 H   0  0  0  0  0  0  0  0  0  0  0  0
   -5.2660   25.0290  -29.5590 H   0  0  0  0  0  0  0  0  0  0  0  0
   -7.1323   20.7285  -31.1684 H   0  0  0  0  0  0  0  0  0  0  0  0
   -7.7014   17.1177  -34.4442 H   0  0  0  0  0  0  0  0  0  0  0  0
   -6.1880   17.3705  -34.7019 H   0  0  0  0  0  0  0  0  0  0  0  0
   -7.5411   16.3474  -31.9455 H   0  0  0  0  0  0  0  0  0  0  0  0
   -5.9998   16.4663  -31.7691 H   0  0  0  0  0  0  0  0  0  0  0  0
  1  2  1  0
  2  3  1  0
  3  4  1  0
  4  5  2  0
  4  6  1  0
  6  7  1  0
  7  8  2  0
  8  9  1  0
  9 10  2  0
 10 11  1  0
 11 12  2  0
 12 13  1  0
 13 14  1  0
 13 15  2  0
 12 16  1  0
 16 17  1  0
 17 18  1  0
 17 19  2  0
 16 20  1  0
 20 21  2  0
  6 22  1  0
 22 23  1  0
 23  6  1  0
 21  7  1  0
 20 10  1  0
  1 24  1  0
  1 25  1  0
  1 26  1  0
  2 27  1  0
  2 28  1  0
  8 29  1  0
  9 30  1  0
 11 31  1  0
 14 32  1  0
 18 33  1  0
 18 34  1  0
 21 35  1  0
 22 36  1  0
 22 37  1  0
 23 38  1  0
 23 39  1  0
M  CHG  1  14  -1
M  END
>  <UniqueID>  (83) 
83

>  <SMILES>  (83) 
CCOC(=O)C1(c2ccc3cc(C([NH-])=O)n(C(N)=O)c3c2)CC1

>  <Energy>  (83) 
338.43361843548325

>  <Genealogy>  (83) 
CCOC(=O)C1(c2ccc3cc(C([NH-])=O)n(C(N)=O)c3c2)CC1 (protonated)
CCOC(=O)C1(c2ccc3cc(C([NH-])=O)n(C(N)=O)c3c2)CC1 (3D coordinates assigned)
CCOC(=O)C1(c2ccc3cc(C([NH-])=O)n(C(N)=O)c3c2)CC1 (nonaromatic ring conformer: 338.43361843548325 kcal/mol)

>  <smiles>  (83) 
CCOC(=O)C1(c2ccc3cc(C(N)=O)n(C(N)=O)c3c2)CC1

>  <score_type>  (83) 
oracle

>  <origin>  (83) 
adg

>  <m_score__min__energy>  (83) 
-10.109999999999999

>  <m_primary>  (83) 
energy

$$$$
83:0
     RDKit          3D

 30 31  0  0  0  0  0  0  0  0999 V2000
   -8.1870   21.4390  -32.0070 C   0  0  0  0  0  0  0  0  0  0  0  0
   -7.4380   20.1450  -32.0500 C   0  0  0  0  0  0  0  0  0  0  0  0
   -8.0520   19.0720  -31.8050 O   0  0  0  0  0  0  0  0  0  0  0  0
   -6.0320   20.1110  -32.3460 N   0  0  0  0  0  0  0  0  0  0  0  0
   -5.4160   19.3770  -33.3150 C   0  0  0  0  0  0  0  0  0  0  0  0
   -6.0590   18.3540  -34.1650 C   0  0  0  0  0  0  0  0  0  0  0  0
   -6.9730   17.4010  -33.6190 N   0  0  0  0  0  0  0  0  0  0  0  0
   -5.7610   18.2900  -35.3860 O   0  0  0  0  0  0  0  0  0  0  0  0
   -4.0650   19.7020  -33.3940 C   0  0  0  0  0  0  0  0  0  0  0  0
   -3.8660   20.6650  -32.4310 C   0  0  0  0  0  0  0  0  0  0  0  0
   -2.7100   21.3590  -32.0860 C   0  0  0  0  0  0  0  0  0  0  0  0
   -2.8030   22.3360  -31.0820 C   0  0  0  0  0  0  0  0  0  0  0  0
   -4.0460   22.6180  -30.4620 C   0  0  0  0  0  0  0  0  0  0  0  0
   -4.1310   23.6540  -29.3780 C   0  0  0  0  0  0  0  0  0  0  0  0
   -3.4800   24.9230  -29.8290 C   0  0  0  0  0  0  0  0  0  0  0  0
   -2.3970   25.2990  -29.3090 O   0  0  0  0  0  0  0  0  0  0  0  0
   -4.0450   25.6650  -30.8580 O   0  0  0  0  0  0  0  0  0  0  0  0
   -5.1970   21.8880  -30.8340 C   0  0  0  0  0  0  0  0  0  0  0  0
   -5.0700   20.9000  -31.8170 C   0  0  0  0  0  0  0  0  0  0  0  0
   -8.3557   21.7304  -30.9598 H   0  0  0  0  0  0  0  0  0  0  0  0
   -7.6008   22.2190  -32.5148 H   0  0  0  0  0  0  0  0  0  0  0  0
   -9.1554   21.3192  -32.5148 H   0  0  0  0  0  0  0  0  0  0  0  0
   -7.0980   17.3010  -32.5870 H   0  0  0  0  0  0  0  0  0  0  0  0
   -7.4570   16.7220  -34.2470 H   0  0  0  0  0  0  0  0  0  0  0  0
   -3.3160   19.2793  -34.0798 H   0  0  0  0  0  0  0  0  0  0  0  0
   -1.7525   21.1484  -32.5848 H   0  0  0  0  0  0  0  0  0  0  0  0
   -1.9027   22.8878  -30.7737 H   0  0  0  0  0  0  0  0  0  0  0  0
   -5.1878   23.8502  -29.1440 H   0  0  0  0  0  0  0  0  0  0  0  0
   -3.6127   23.2816  -28.4821 H   0  0  0  0  0  0  0  0  0  0  0  0
   -6.1697   22.0913  -30.3623 H   0  0  0  0  0  0  0  0  0  0  0  0
  1  2  1  0
  2  3  2  0
  2  4  1  0
  4  5  1  0
  5  6  1  0
  6  7  1  0
  6  8  2  0
  5  9  2  0
  9 10  1  0
 10 11  2  0
 11 12  1  0
 12 13  2  0
 13 14  1  0
 14 15  1  0
 15 16  2  0
 15 17  1  0
 13 18  1  0
 18 19  2  0
 19  4  1  0
 19 10  1  0
  1 20  1  0
  1 21  1  0
  1 22  1  0
  7 23  1  0
  7 24  1  0
  9 25  1  0
 11 26  1  0
 12 27  1  0
 14 28  1  0
 14 29  1  0
 18 30  1  0
M  CHG  1  17  -1
M  END
>  <UniqueID>  (84) 
84

>  <SMILES>  (84) 
CC(=O)n1c(C(N)=O)cc2ccc(CC(=O)[O-])cc21

>  <Energy>  (84) 
67.8332281889232

>  <Genealogy>  (84) 
CC(=O)n1c(C(N)=O)cc2ccc(CC(=O)[O-])cc21 (protonated)
CC(=O)n1c(C(N)=O)cc2ccc(CC(=O)[O-])cc21 (3D coordinates assigned)
CC(=O)n1c(C(N)=O)cc2ccc(CC(=O)[O-])cc21 (optimized conformer: 67.8332281889232 kcal/mol)

>  <smiles>  (84) 
CC(=O)n1c(C(N)=O)cc2ccc(CC(=O)O)cc21

>  <score_type>  (84) 
oracle

>  <origin>  (84) 
adg

>  <m_score__min__energy>  (84) 
-9.2100000000000009

>  <m_primary>  (84) 
energy

$$$$
84:0
     RDKit          3D

 49 51  0  0  0  0  0  0  0  0999 V2000
   -4.2370   25.5840  -30.8290 N   0  0  0  0  0  0  0  0  0  0  0  0
   -4.4950   24.2440  -30.4220 C   0  0  0  0  0  0  0  0  0  0  0  0
   -5.5930   23.9640  -29.8710 O   0  0  0  0  0  0  0  0  0  0  0  0
   -3.5170   23.2140  -30.6470 N   0  0  0  0  0  0  0  0  0  0  0  0
   -2.2240   23.1970  -30.2130 C   0  0  0  0  0  0  0  0  0  0  0  0
   -1.6120   24.1630  -29.2790 C   0  0  0  0  0  0  0  0  0  0  0  0
   -2.3700   25.2390  -28.7230 N   0  0  0  0  0  0  0  0  0  0  0  0
   -0.4130   24.0070  -28.9250 O   0  0  0  0  0  0  0  0  0  0  0  0
   -1.5420   22.1060  -30.7420 C   0  0  0  0  0  0  0  0  0  0  0  0
   -2.4650   21.4390  -31.5130 C   0  0  0  0  0  0  0  0  0  0  0  0
   -2.3190   20.2950  -32.2900 C   0  0  0  0  0  0  0  0  0  0  0  0
   -3.4290   19.8520  -33.0270 C   0  0  0  0  0  0  0  0  0  0  0  0
   -4.6560   20.5620  -32.9820 C   0  0  0  0  0  0  0  0  0  0  0  0
   -5.8400   20.0760  -33.7800 C   0  0  0  0  0  0  0  0  0  0  0  0
   -6.7530   19.1160  -32.9900 C   0  0  1  0  0  0  0  0  0  0  0  0
   -8.1080   19.7760  -32.6570 C   0  0  0  0  0  0  0  0  0  0  0  0
   -8.0840   20.5490  -31.3340 C   0  0  0  0  0  0  0  0  0  0  0  0
   -8.1930   22.6690  -31.6290 I   0  0  0  0  0  0  0  0  0  0  0  0
   -6.9720   17.9340  -33.7500 O   0  0  0  0  0  0  0  0  0  0  0  0
   -6.4140   16.7900  -33.1290 C   0  0  0  0  0  0  0  0  0  0  0  0
   -4.9940   16.5800  -33.5810 C   0  0  0  0  0  0  0  0  0  0  0  0
   -4.0770   15.9000  -32.7640 C   0  0  0  0  0  0  0  0  0  0  0  0
   -2.7460   15.7550  -33.1700 C   0  0  0  0  0  0  0  0  0  0  0  0
   -2.3240   16.2910  -34.3890 C   0  0  0  0  0  0  0  0  0  0  0  0
   -3.2310   16.9710  -35.2060 C   0  0  0  0  0  0  0  0  0  0  0  0
   -4.5620   17.1160  -34.8040 C   0  0  0  0  0  0  0  0  0  0  0  0
   -4.7670   21.7210  -32.1810 C   0  0  0  0  0  0  0  0  0  0  0  0
   -3.6500   22.1290  -31.4410 C   0  0  0  0  0  0  0  0  0  0  0  0
   -3.4940   25.7990  -31.5300 H   0  0  0  0  0  0  0  0  0  0  0  0
   -3.4040   25.2960  -28.8560 H   0  0  0  0  0  0  0  0  0  0  0  0
   -1.9080   25.9360  -28.0980 H   0  0  0  0  0  0  0  0  0  0  0  0
   -0.4886   21.8346  -30.5784 H   0  0  0  0  0  0  0  0  0  0  0  0
   -1.3624   19.7532  -32.3262 H   0  0  0  0  0  0  0  0  0  0  0  0
   -3.3462   18.9458  -33.6451 H   0  0  0  0  0  0  0  0  0  0  0  0
   -6.4345   20.9481  -34.0897 H   0  0  0  0  0  0  0  0  0  0  0  0
   -5.4460   19.5172  -34.6417 H   0  0  0  0  0  0  0  0  0  0  0  0
   -6.2516   18.8666  -32.0432 H   0  0  0  0  0  0  0  0  0  0  0  0
   -8.3673   20.4738  -33.4669 H   0  0  0  0  0  0  0  0  0  0  0  0
   -8.8518   18.9718  -32.5567 H   0  0  0  0  0  0  0  0  0  0  0  0
   -8.9424   20.2322  -30.7235 H   0  0  0  0  0  0  0  0  0  0  0  0
   -7.1306   20.3276  -30.8320 H   0  0  0  0  0  0  0  0  0  0  0  0
   -6.4292   16.9277  -32.0378 H   0  0  0  0  0  0  0  0  0  0  0  0
   -7.0091   15.9087  -33.4103 H   0  0  0  0  0  0  0  0  0  0  0  0
   -4.4059   15.4800  -31.8020 H   0  0  0  0  0  0  0  0  0  0  0  0
   -2.0312   15.2185  -32.5287 H   0  0  0  0  0  0  0  0  0  0  0  0
   -1.2768   16.1777  -34.7060 H   0  0  0  0  0  0  0  0  0  0  0  0
   -2.8975   17.3924  -36.1658 H   0  0  0  0  0  0  0  0  0  0  0  0
   -5.2736   17.6524  -35.4489 H   0  0  0  0  0  0  0  0  0  0  0  0
   -5.7081   22.2891  -32.1397 H   0  0  0  0  0  0  0  0  0  0  0  0
  1  2  1  0
  2  3  2  0
  2  4  1  0
  4  5  1  0
  5  6  1  0
  6  7  1  0
  6  8  2  0
  5  9  2  0
  9 10  1  0
 10 11  2  0
 11 12  1  0
 12 13  2  0
 13 14  1  0
 14 15  1  0
 15 16  1  0
 16 17  1  0
 17 18  1  0
 15 19  1  0
 19 20  1  0
 20 21  1  0
 21 22  2  0
 22 23  1  0
 23 24  2  0
 24 25  1  0
 25 26  2  0
 13 27  1  0
 27 28  2  0
 28  4  1  0
 28 10  1  0
 26 21  1  0
  1 29  1  0
  7 30  1  0
  7 31  1  0
  9 32  1  0
 11 33  1  0
 12 34  1  0
 14 35  1  0
 14 36  1  0
 15 37  1  1
 16 38  1  0
 16 39  1  0
 17 40  1  0
 17 41  1  0
 20 42  1  0
 20 43  1  0
 22 44  1  0
 23 45  1  0
 24 46  1  0
 25 47  1  0
 26 48  1  0
 27 49  1  0
M  CHG  1   1  -1
M  END
>  <UniqueID>  (85) 
85

>  <SMILES>  (85) 
[NH-]C(=O)n1c(C(N)=O)cc2ccc(C[C@@H](CCI)OCc3ccccc3)cc21

>  <Energy>  (85) 
87.07255821367698

>  <Genealogy>  (85) 
[NH-]C(=O)n1c(C(N)=O)cc2ccc(CC(CCI)OCc3ccccc3)cc21 (protonated)
[NH-]C(=O)n1c(C(N)=O)cc2ccc(C[C@@H](CCI)OCc3ccccc3)cc21 (chirality)
[NH-]C(=O)n1c(C(N)=O)cc2ccc(C[C@@H](CCI)OCc3ccccc3)cc21 (3D coordinates assigned)
[NH-]C(=O)n1c(C(N)=O)cc2ccc(C[C@@H](CCI)OCc3ccccc3)cc21 (optimized conformer: 87.07255821367698 kcal/mol)

>  <smiles>  (85) 
NC(=O)c1cc2ccc(CC(CCI)OCc3ccccc3)cc2n1C(N)=O

>  <score_type>  (85) 
oracle

>  <origin>  (85) 
adg

>  <m_score__min__energy>  (85) 
-10.550000000000001

>  <m_primary>  (85) 
energy

$$$$
85:0
     RDKit          3D

 44 45  0  0  0  0  0  0  0  0999 V2000
   -7.0170   23.1120  -29.9130 C   0  0  0  0  0  0  0  0  0  0  0  0
   -7.1400   23.6800  -31.3250 C   0  0  0  0  0  0  0  0  0  0  0  0
   -7.3240   22.5510  -32.3430 C   0  0  0  0  0  0  0  0  0  0  0  0
   -5.9640   24.4320  -31.6270 O   0  0  0  0  0  0  0  0  0  0  0  0
   -5.3010   25.2350  -30.6940 C   0  0  0  0  0  0  0  0  0  0  0  0
   -5.9500   25.8860  -29.8300 O   0  0  0  0  0  0  0  0  0  0  0  0
   -3.8730   25.3000  -30.7250 N   0  0  0  0  0  0  0  0  0  0  0  0
   -2.9990   24.3010  -30.1120 C   0  0  2  0  0  0  0  0  0  0  0  0
   -3.7630   22.9970  -29.8070 C   0  0  0  0  0  0  0  0  0  0  0  0
   -3.6920   21.9930  -30.9330 C   0  0  0  0  0  0  0  0  0  0  0  0
   -2.6280   22.0460  -31.8680 C   0  0  0  0  0  0  0  0  0  0  0  0
   -2.5420   21.1080  -32.9100 C   0  0  0  0  0  0  0  0  0  0  0  0
   -3.5270   20.1300  -32.9900 C   0  0  0  0  0  0  0  0  0  0  0  0
   -3.6920   19.1060  -33.8950 C   0  0  0  0  0  0  0  0  0  0  0  0
   -4.8560   18.4500  -33.5020 C   0  0  0  0  0  0  0  0  0  0  0  0
   -5.4280   17.2980  -34.2260 C   0  0  0  0  0  0  0  0  0  0  0  0
   -4.5960   16.2520  -34.7290 N   0  0  0  0  0  0  0  0  0  0  0  0
   -6.6780   17.2090  -34.3580 O   0  0  0  0  0  0  0  0  0  0  0  0
   -5.3710   19.0210  -32.3760 N   0  0  0  0  0  0  0  0  0  0  0  0
   -6.5340   18.5890  -31.6010 C   0  0  0  0  0  0  0  0  0  0  0  0
   -4.5590   20.0600  -32.0900 C   0  0  0  0  0  0  0  0  0  0  0  0
   -4.6750   20.9830  -31.0450 C   0  0  0  0  0  0  0  0  0  0  0  0
   -2.3680   24.8660  -28.8710 C   0  0  0  0  0  0  0  0  0  0  0  0
   -2.4830   24.2740  -27.7650 O   0  0  0  0  0  0  0  0  0  0  0  0
   -1.6050   26.0250  -28.9510 O   0  0  0  0  0  0  0  0  0  0  0  0
   -7.1904   23.9129  -29.1792 H   0  0  0  0  0  0  0  0  0  0  0  0
   -7.7638   22.3169  -29.7713 H   0  0  0  0  0  0  0  0  0  0  0  0
   -6.0082   22.6970  -29.7713 H   0  0  0  0  0  0  0  0  0  0  0  0
   -8.0217   24.3355  -31.3795 H   0  0  0  0  0  0  0  0  0  0  0  0
   -7.4790   21.6002  -31.8120 H   0  0  0  0  0  0  0  0  0  0  0  0
   -8.1991   22.7654  -32.9741 H   0  0  0  0  0  0  0  0  0  0  0  0
   -6.4262   22.4764  -32.9741 H   0  0  0  0  0  0  0  0  0  0  0  0
   -2.2024   24.0483  -30.8272 H   0  0  0  0  0  0  0  0  0  0  0  0
   -3.3315   22.5413  -28.9036 H   0  0  0  0  0  0  0  0  0  0  0  0
   -4.8218   23.2612  -29.6687 H   0  0  0  0  0  0  0  0  0  0  0  0
   -1.8617   22.8298  -31.7766 H   0  0  0  0  0  0  0  0  0  0  0  0
   -1.7204   21.1460  -33.6404 H   0  0  0  0  0  0  0  0  0  0  0  0
   -3.0425   18.8584  -34.7475 H   0  0  0  0  0  0  0  0  0  0  0  0
   -3.5870   16.1960  -34.4750 H   0  0  0  0  0  0  0  0  0  0  0  0
   -5.0150   15.4690  -35.2800 H   0  0  0  0  0  0  0  0  0  0  0  0
   -6.3104   18.6720  -30.5272 H   0  0  0  0  0  0  0  0  0  0  0  0
   -7.3958   19.2270  -31.8465 H   0  0  0  0  0  0  0  0  0  0  0  0
   -6.7703   17.5431  -31.8465 H   0  0  0  0  0  0  0  0  0  0  0  0
   -5.5086   20.9245  -30.3297 H   0  0  0  0  0  0  0  0  0  0  0  0
  1  2  1  0
  2  3  1  0
  2  4  1  0
  4  5  1  0
  5  6  2  0
  5  7  1  0
  7  8  1  0
  8  9  1  0
  9 10  1  0
 10 11  2  0
 11 12  1  0
 12 13  2  0
 13 14  1  0
 14 15  2  0
 15 16  1  0
 16 17  1  0
 16 18  2  0
 15 19  1  0
 19 20  1  0
 19 21  1  0
 21 22  2  0
  8 23  1  0
 23 24  2  0
 23 25  1  0
 22 10  1  0
 21 13  1  0
  1 26  1  0
  1 27  1  0
  1 28  1  0
  2 29  1  0
  3 30  1  0
  3 31  1  0
  3 32  1  0
  8 33  1  6
  9 34  1  0
  9 35  1  0
 11 36  1  0
 12 37  1  0
 14 38  1  0
 17 39  1  0
 17 40  1  0
 20 41  1  0
 20 42  1  0
 20 43  1  0
 22 44  1  0
M  CHG  2   7  -1  25  -1
M  END
>  <UniqueID>  (86) 
86

>  <SMILES>  (86) 
CC(C)OC(=O)[N-][C@H](Cc1ccc2cc(C(N)=O)n(C)c2c1)C(=O)[O-]

>  <Energy>  (86) 
68.6379202779911

>  <Genealogy>  (86) 
CC(C)OC(=O)[N-]C(Cc1ccc2cc(C(N)=O)n(C)c2c1)C(=O)[O-] (protonated)
CC(C)OC(=O)[N-][C@H](Cc1ccc2cc(C(N)=O)n(C)c2c1)C(=O)[O-] (chirality)
CC(C)OC(=O)[N-][C@H](Cc1ccc2cc(C(N)=O)n(C)c2c1)C(=O)[O-] (3D coordinates assigned)
CC(C)OC(=O)[N-][C@H](Cc1ccc2cc(C(N)=O)n(C)c2c1)C(=O)[O-] (optimized conformer: 68.6379202779911 kcal/mol)

>  <smiles>  (86) 
CC(C)OC(=O)NC(Cc1ccc2cc(C(N)=O)n(C)c2c1)C(=O)O

>  <score_type>  (86) 
oracle

>  <origin>  (86) 
adg

>  <m_score__min__energy>  (86) 
-10.25

>  <m_primary>  (86) 
energy

$$$$
86:0
     RDKit          3D

 41 42  0  0  0  0  0  0  0  0999 V2000
   -2.5710   19.3430  -32.7390 C   0  0  0  0  0  0  0  0  0  0  0  0
   -2.8530   19.1460  -34.2250 C   0  0  0  0  0  0  0  0  0  0  0  0
   -3.4040   17.8160  -34.4830 N   0  0  0  0  0  0  0  0  0  0  0  0
   -4.6850   17.4020  -33.9820 C   0  0  0  0  0  0  0  0  0  0  0  0
   -5.1610   15.8490  -34.2230 S   0  0  0  0  0  0  0  0  0  0  0  0
   -5.5480   18.3380  -33.3090 N   0  0  0  0  0  0  0  0  0  0  0  0
   -6.6460   17.9450  -32.4230 C   0  0  0  0  0  0  0  0  0  0  0  0
   -7.9180   18.7500  -32.7220 C   0  0  0  0  0  0  0  0  0  0  0  0
   -7.8050   20.1650  -32.2180 C   0  0  0  0  0  0  0  0  0  0  0  0
   -8.9390   20.8190  -31.6720 C   0  0  0  0  0  0  0  0  0  0  0  0
   -8.8370   22.1240  -31.1650 C   0  0  0  0  0  0  0  0  0  0  0  0
   -7.5910   22.7430  -31.2030 C   0  0  0  0  0  0  0  0  0  0  0  0
   -7.2160   24.0060  -30.8040 C   0  0  0  0  0  0  0  0  0  0  0  0
   -5.8530   24.0930  -31.0840 C   0  0  0  0  0  0  0  0  0  0  0  0
   -5.0250   25.2720  -30.7510 C   0  0  0  0  0  0  0  0  0  0  0  0
   -3.6340   25.1390  -30.4740 N   0  0  0  0  0  0  0  0  0  0  0  0
   -5.5640   26.4080  -30.6720 O   0  0  0  0  0  0  0  0  0  0  0  0
   -5.4050   22.9290  -31.6360 N   0  0  0  0  0  0  0  0  0  0  0  0
   -4.0870   22.6380  -32.1270 C   0  0  0  0  0  0  0  0  0  0  0  0
   -3.8900   22.2740  -33.4920 N   0  0  0  0  0  0  0  0  0  0  0  0
   -3.0970   22.7100  -31.3510 O   0  0  0  0  0  0  0  0  0  0  0  0
   -6.4800   22.1150  -31.7040 C   0  0  0  0  0  0  0  0  0  0  0  0
   -6.5560   20.8230  -32.2360 C   0  0  0  0  0  0  0  0  0  0  0  0
   -3.3315   18.8117  -32.1479 H   0  0  0  0  0  0  0  0  0  0  0  0
   -1.5747   18.9434  -32.4987 H   0  0  0  0  0  0  0  0  0  0  0  0
   -2.6034   20.4159  -32.4987 H   0  0  0  0  0  0  0  0  0  0  0  0
   -3.5760   19.9054  -34.5575 H   0  0  0  0  0  0  0  0  0  0  0  0
   -1.9069   19.2461  -34.7771 H   0  0  0  0  0  0  0  0  0  0  0  0
   -2.8280   17.1150  -35.0030 H   0  0  0  0  0  0  0  0  0  0  0  0
   -5.3780   19.3610  -33.4240 H   0  0  0  0  0  0  0  0  0  0  0  0
   -6.8569   16.8750  -32.5664 H   0  0  0  0  0  0  0  0  0  0  0  0
   -6.3436   18.1458  -31.3846 H   0  0  0  0  0  0  0  0  0  0  0  0
   -8.0816   18.7696  -33.8096 H   0  0  0  0  0  0  0  0  0  0  0  0
   -8.7621   18.2663  -32.2086 H   0  0  0  0  0  0  0  0  0  0  0  0
   -9.9077   20.2986  -31.6456 H   0  0  0  0  0  0  0  0  0  0  0  0
   -9.7147   22.6414  -30.7505 H   0  0  0  0  0  0  0  0  0  0  0  0
   -7.8560   24.7820  -30.3587 H   0  0  0  0  0  0  0  0  0  0  0  0
   -2.9600   24.8750  -31.2260 H   0  0  0  0  0  0  0  0  0  0  0  0
   -2.9280   22.0900  -33.8550 H   0  0  0  0  0  0  0  0  0  0  0  0
   -4.7050   22.1470  -34.1310 H   0  0  0  0  0  0  0  0  0  0  0  0
   -5.6659   20.3328  -32.6572 H   0  0  0  0  0  0  0  0  0  0  0  0
  1  2  1  0
  2  3  1  0
  3  4  1  0
  4  5  2  0
  4  6  1  0
  6  7  1  0
  7  8  1  0
  8  9  1  0
  9 10  2  0
 10 11  1  0
 11 12  2  0
 12 13  1  0
 13 14  2  0
 14 15  1  0
 15 16  1  0
 15 17  2  0
 14 18  1  0
 18 19  1  0
 19 20  1  0
 19 21  2  0
 18 22  1  0
 22 23  2  0
 23  9  1  0
 22 12  1  0
  1 24  1  0
  1 25  1  0
  1 26  1  0
  2 27  1  0
  2 28  1  0
  3 29  1  0
  6 30  1  0
  7 31  1  0
  7 32  1  0
  8 33  1  0
  8 34  1  0
 10 35  1  0
 11 36  1  0
 13 37  1  0
 16 38  1  0
 20 39  1  0
 20 40  1  0
 23 41  1  0
M  CHG  1  16  -1
M  END
>  <UniqueID>  (87) 
87

>  <SMILES>  (87) 
CCNC(=S)NCCc1ccc2cc(C([NH-])=O)n(C(N)=O)c2c1

>  <Energy>  (87) 
70.13039797099044

>  <Genealogy>  (87) 
CCNC(=S)NCCc1ccc2cc(C([NH-])=O)n(C(N)=O)c2c1 (protonated)
CCNC(=S)NCCc1ccc2cc(C([NH-])=O)n(C(N)=O)c2c1 (3D coordinates assigned)
CCNC(=S)NCCc1ccc2cc(C([NH-])=O)n(C(N)=O)c2c1 (optimized conformer: 70.13039797099044 kcal/mol)

>  <smiles>  (87) 
CCNC(=S)NCCc1ccc2cc(C(N)=O)n(C(N)=O)c2c1

>  <score_type>  (87) 
oracle

>  <origin>  (87) 
adg

>  <m_score__min__energy>  (87) 
-10.9

>  <m_primary>  (87) 
energy

$$$$
87:0
     RDKit          3D

 44 46  0  0  0  0  0  0  0  0999 V2000
   -2.8320   16.1480  -34.0500 C   0  0  0  0  0  0  0  0  0  0  0  0
   -3.9930   16.3280  -33.1280 C   0  0  0  0  0  0  0  0  0  0  0  0
   -4.3070   15.4640  -32.1440 N   0  0  0  0  0  0  0  0  0  0  0  0
   -5.3680   15.9290  -31.5520 O   0  0  0  0  0  0  0  0  0  0  0  0
   -5.7670   17.0550  -32.1010 C   0  0  0  0  0  0  0  0  0  0  0  0
   -6.9520   17.8310  -31.6250 C   0  0  0  0  0  0  0  0  0  0  0  0
   -4.8950   17.3780  -33.1290 C   0  0  0  0  0  0  0  0  0  0  0  0
   -4.9450   18.5410  -34.0980 C   0  0  1  0  0  0  0  0  0  0  0  0
   -6.0770   18.2960  -35.1110 C   0  0  0  0  0  0  0  0  0  0  0  0
   -5.0670   19.8270  -33.3760 N   0  0  0  0  0  0  0  0  0  0  0  0
   -6.3950   20.3970  -33.1210 C   0  0  0  0  0  0  0  0  0  0  0  0
   -3.9780   20.3860  -32.6230 C   0  0  0  0  0  0  0  0  0  0  0  0
   -2.7270   19.7280  -32.6000 C   0  0  0  0  0  0  0  0  0  0  0  0
   -1.6430   20.2780  -31.8960 C   0  0  0  0  0  0  0  0  0  0  0  0
   -1.8410   21.4840  -31.2310 C   0  0  0  0  0  0  0  0  0  0  0  0
   -0.9600   22.2460  -30.5000 C   0  0  0  0  0  0  0  0  0  0  0  0
   -1.6910   23.3570  -30.0810 C   0  0  0  0  0  0  0  0  0  0  0  0
   -1.1440   24.4000  -29.1880 C   0  0  0  0  0  0  0  0  0  0  0  0
   -1.9050   25.5770  -28.9230 N   0  0  0  0  0  0  0  0  0  0  0  0
    0.0030   24.2810  -28.6830 O   0  0  0  0  0  0  0  0  0  0  0  0
   -2.9730   23.2880  -30.5430 N   0  0  0  0  0  0  0  0  0  0  0  0
   -4.0230   24.2570  -30.3850 C   0  0  0  0  0  0  0  0  0  0  0  0
   -5.0800   23.9570  -29.7720 O   0  0  0  0  0  0  0  0  0  0  0  0
   -3.8700   25.5440  -30.8850 O   0  0  0  0  0  0  0  0  0  0  0  0
   -3.0490   22.1340  -31.2420 C   0  0  0  0  0  0  0  0  0  0  0  0
   -4.1380   21.6190  -31.9530 C   0  0  0  0  0  0  0  0  0  0  0  0
   -1.9143   16.0057  -33.4605 H   0  0  0  0  0  0  0  0  0  0  0  0
   -3.0009   15.2653  -34.6843 H   0  0  0  0  0  0  0  0  0  0  0  0
   -2.7257   17.0404  -34.6843 H   0  0  0  0  0  0  0  0  0  0  0  0
   -6.9664   17.8404  -30.5251 H   0  0  0  0  0  0  0  0  0  0  0  0
   -6.8889   18.8633  -31.9997 H   0  0  0  0  0  0  0  0  0  0  0  0
   -7.8730   17.3605  -31.9997 H   0  0  0  0  0  0  0  0  0  0  0  0
   -4.0027   18.6107  -34.6613 H   0  0  0  0  0  0  0  0  0  0  0  0
   -7.0141   18.0932  -34.5718 H   0  0  0  0  0  0  0  0  0  0  0  0
   -6.2031   19.1877  -35.7427 H   0  0  0  0  0  0  0  0  0  0  0  0
   -5.8231   17.4320  -35.7427 H   0  0  0  0  0  0  0  0  0  0  0  0
   -6.5612   20.4683  -32.0360 H   0  0  0  0  0  0  0  0  0  0  0  0
   -6.4554   21.4003  -33.5679 H   0  0  0  0  0  0  0  0  0  0  0  0
   -7.1639   19.7496  -33.5679 H   0  0  0  0  0  0  0  0  0  0  0  0
   -2.6013   18.7769  -33.1382 H   0  0  0  0  0  0  0  0  0  0  0  0
   -0.6673   19.7707  -31.8712 H   0  0  0  0  0  0  0  0  0  0  0  0
    0.0971   22.0258  -30.2903 H   0  0  0  0  0  0  0  0  0  0  0  0
   -2.8650   25.6950  -29.3160 H   0  0  0  0  0  0  0  0  0  0  0  0
   -5.0947   22.1606  -31.9894 H   0  0  0  0  0  0  0  0  0  0  0  0
  1  2  1  0
  2  3  2  0
  3  4  1  0
  4  5  1  0
  5  6  1  0
  5  7  2  0
  7  8  1  0
  8  9  1  0
  8 10  1  0
 10 11  1  0
 10 12  1  0
 12 13  2  0
 13 14  1  0
 14 15  2  0
 15 16  1  0
 16 17  2  0
 17 18  1  0
 18 19  1  0
 18 20  2  0
 17 21  1  0
 21 22  1  0
 22 23  2  0
 22 24  1  0
 21 25  1  0
 25 26  2  0
  7  2  1  0
 26 12  1  0
 25 15  1  0
  1 27  1  0
  1 28  1  0
  1 29  1  0
  6 30  1  0
  6 31  1  0
  6 32  1  0
  8 33  1  6
  9 34  1  0
  9 35  1  0
  9 36  1  0
 11 37  1  0
 11 38  1  0
 11 39  1  0
 13 40  1  0
 14 41  1  0
 16 42  1  0
 19 43  1  0
 26 44  1  0
M  CHG  2  19  -1  24  -1
M  END
>  <UniqueID>  (88) 
88

>  <SMILES>  (88) 
Cc1noc(C)c1[C@@H](C)N(C)c1ccc2cc(C([NH-])=O)n(C(=O)[O-])c2c1

>  <Energy>  (88) 
117.98633209160243

>  <Genealogy>  (88) 
Cc1noc(C)c1C(C)N(C)c1ccc2cc(C([NH-])=O)n(C(=O)[O-])c2c1 (protonated)
Cc1noc(C)c1[C@@H](C)N(C)c1ccc2cc(C([NH-])=O)n(C(=O)[O-])c2c1 (chirality)
Cc1noc(C)c1[C@@H](C)N(C)c1ccc2cc(C([NH-])=O)n(C(=O)[O-])c2c1 (3D coordinates assigned)
Cc1noc(C)c1[C@@H](C)N(C)c1ccc2cc(C([NH-])=O)n(C(=O)[O-])c2c1 (optimized conformer: 117.98633209160243 kcal/mol)

>  <smiles>  (88) 
Cc1noc(C)c1C(C)N(C)c1ccc2cc(C(N)=O)n(C(=O)O)c2c1

>  <score_type>  (88) 
oracle

>  <origin>  (88) 
adg

>  <m_score__min__energy>  (88) 
-12.26

>  <m_primary>  (88) 
energy

$$$$
88:0
     RDKit          3D

 47 49  0  0  0  0  0  0  0  0999 V2000
   -2.8120   23.0740  -28.8080 C   0  0  0  0  0  0  0  0  0  0  0  0
   -2.5940   23.3200  -30.1920 O   0  0  0  0  0  0  0  0  0  0  0  0
   -3.2430   22.5990  -31.1990 C   0  0  0  0  0  0  0  0  0  0  0  0
   -2.5810   21.8570  -31.9760 O   0  0  0  0  0  0  0  0  0  0  0  0
   -4.6700   22.6850  -31.3300 N   0  0  0  0  0  0  0  0  0  0  0  0
   -5.4800   23.7420  -31.0330 C   0  0  0  0  0  0  0  0  0  0  0  0
   -5.0610   25.0050  -30.3870 C   0  0  0  0  0  0  0  0  0  0  0  0
   -3.8680   25.6570  -30.8160 N   0  0  0  0  0  0  0  0  0  0  0  0
   -5.7640   25.5330  -29.4860 O   0  0  0  0  0  0  0  0  0  0  0  0
   -6.8050   23.4450  -31.3480 C   0  0  0  0  0  0  0  0  0  0  0  0
   -6.7850   22.1610  -31.8400 C   0  0  0  0  0  0  0  0  0  0  0  0
   -7.8250   21.3660  -32.3130 C   0  0  0  0  0  0  0  0  0  0  0  0
   -7.5100   20.0810  -32.7830 C   0  0  0  0  0  0  0  0  0  0  0  0
   -6.1710   19.6160  -32.7710 C   0  0  0  0  0  0  0  0  0  0  0  0
   -5.8570   18.2670  -33.2830 C   0  0  0  0  0  0  0  0  0  0  0  0
   -6.7470   17.2200  -32.9930 C   0  0  0  0  0  0  0  0  0  0  0  0
   -6.5010   15.9280  -33.4570 C   0  0  0  0  0  0  0  0  0  0  0  0
   -5.3600   15.6630  -34.2130 C   0  0  0  0  0  0  0  0  0  0  0  0
   -4.4570   16.6890  -34.5020 C   0  0  0  0  0  0  0  0  0  0  0  0
   -4.6880   18.0000  -34.0440 C   0  0  0  0  0  0  0  0  0  0  0  0
   -3.6430   19.0650  -34.3270 C   0  0  0  0  0  0  0  0  0  0  0  0
   -2.6170   19.1380  -33.2590 N   0  0  0  0  0  0  0  0  0  0  0  0
   -2.3180   17.8010  -32.7120 C   0  0  0  0  0  0  0  0  0  0  0  0
   -1.3840   19.7480  -33.7870 C   0  0  0  0  0  0  0  0  0  0  0  0
   -5.1390   20.4590  -32.3050 C   0  0  0  0  0  0  0  0  0  0  0  0
   -5.4840   21.7260  -31.8200 C   0  0  0  0  0  0  0  0  0  0  0  0
   -2.1990   23.7658  -28.2116 H   0  0  0  0  0  0  0  0  0  0  0  0
   -3.8750   23.2287  -28.5711 H   0  0  0  0  0  0  0  0  0  0  0  0
   -2.5306   22.0373  -28.5711 H   0  0  0  0  0  0  0  0  0  0  0  0
   -2.9280   25.2990  -30.5320 H   0  0  0  0  0  0  0  0  0  0  0  0
   -7.6812   24.0992  -31.2283 H   0  0  0  0  0  0  0  0  0  0  0  0
   -8.8619   21.7332  -32.3184 H   0  0  0  0  0  0  0  0  0  0  0  0
   -8.3098   19.4290  -33.1641 H   0  0  0  0  0  0  0  0  0  0  0  0
   -7.6473   17.4210  -32.3938 H   0  0  0  0  0  0  0  0  0  0  0  0
   -7.2078   15.1174  -33.2263 H   0  0  0  0  0  0  0  0  0  0  0  0
   -5.1705   14.6444  -34.5825 H   0  0  0  0  0  0  0  0  0  0  0  0
   -3.5559   16.4702  -35.0937 H   0  0  0  0  0  0  0  0  0  0  0  0
   -3.1466   18.8303  -35.2802 H   0  0  0  0  0  0  0  0  0  0  0  0
   -4.1546   20.0378  -34.3721 H   0  0  0  0  0  0  0  0  0  0  0  0
   -2.9590   19.7440  -32.4780 H   0  0  0  0  0  0  0  0  0  0  0  0
   -2.3276   17.8440  -31.6129 H   0  0  0  0  0  0  0  0  0  0  0  0
   -3.0782   17.0850  -33.0576 H   0  0  0  0  0  0  0  0  0  0  0  0
   -1.3252   17.4771  -33.0576 H   0  0  0  0  0  0  0  0  0  0  0  0
   -0.7441   20.0646  -32.9502 H   0  0  0  0  0  0  0  0  0  0  0  0
   -0.8455   19.0124  -34.4025 H   0  0  0  0  0  0  0  0  0  0  0  0
   -1.6420   20.6224  -34.4025 H   0  0  0  0  0  0  0  0  0  0  0  0
   -4.0900   20.1285  -32.3226 H   0  0  0  0  0  0  0  0  0  0  0  0
  1  2  1  0
  2  3  1  0
  3  4  2  0
  3  5  1  0
  5  6  1  0
  6  7  1  0
  7  8  1  0
  7  9  2  0
  6 10  2  0
 10 11  1  0
 11 12  2  0
 12 13  1  0
 13 14  2  0
 14 15  1  0
 15 16  2  0
 16 17  1  0
 17 18  2  0
 18 19  1  0
 19 20  2  0
 20 21  1  0
 21 22  1  0
 22 23  1  0
 22 24  1  0
 14 25  1  0
 25 26  2  0
 26  5  1  0
 26 11  1  0
 20 15  1  0
  1 27  1  0
  1 28  1  0
  1 29  1  0
  8 30  1  0
 10 31  1  0
 12 32  1  0
 13 33  1  0
 16 34  1  0
 17 35  1  0
 18 36  1  0
 19 37  1  0
 21 38  1  0
 21 39  1  0
 22 40  1  0
 23 41  1  0
 23 42  1  0
 23 43  1  0
 24 44  1  0
 24 45  1  0
 24 46  1  0
 25 47  1  0
M  CHG  2   8  -1  22   1
M  END
>  <UniqueID>  (89) 
89

>  <SMILES>  (89) 
COC(=O)n1c(C([NH-])=O)cc2ccc(-c3ccccc3C[NH+](C)C)cc21

>  <Energy>  (89) 
93.3931091968563

>  <Genealogy>  (89) 
COC(=O)n1c(C([NH-])=O)cc2ccc(-c3ccccc3C[NH+](C)C)cc21 (protonated)
COC(=O)n1c(C([NH-])=O)cc2ccc(-c3ccccc3C[NH+](C)C)cc21 (3D coordinates assigned)
COC(=O)n1c(C([NH-])=O)cc2ccc(-c3ccccc3C[NH+](C)C)cc21 (optimized conformer: 93.3931091968563 kcal/mol)

>  <smiles>  (89) 
COC(=O)n1c(C(N)=O)cc2ccc(-c3ccccc3CN(C)C)cc21

>  <score_type>  (89) 
oracle

>  <origin>  (89) 
adg

>  <m_score__min__energy>  (89) 
-10.210000000000001

>  <m_primary>  (89) 
energy

$$$$
89:0
     RDKit          3D

 42 44  0  0  0  0  0  0  0  0999 V2000
   -5.4130   12.5490  -30.7540 N   0  0  0  0  0  0  0  0  0  0  0  0
   -4.4730   12.9740  -31.2790 C   0  0  0  0  0  0  0  0  0  0  0  0
   -3.2800   13.5130  -31.9440 C   0  0  0  0  0  0  0  0  0  0  0  0
   -2.9290   12.7000  -33.1890 C   0  0  0  0  0  0  0  0  0  0  0  0
   -2.4840   13.5900  -34.2600 N   0  0  0  0  0  0  0  0  0  0  0  0
   -3.8560   14.1800  -35.1460 S   0  0  0  0  0  0  0  0  0  0  0  0
   -4.9860   13.1920  -35.0500 O   0  0  0  0  0  0  0  0  0  0  0  0
   -3.4800   14.3330  -36.5930 O   0  0  0  0  0  0  0  0  0  0  0  0
   -4.3640   15.7450  -34.5160 C   0  0  0  0  0  0  0  0  0  0  0  0
   -5.3430   15.8100  -33.5180 C   0  0  0  0  0  0  0  0  0  0  0  0
   -5.7650   17.0470  -33.0240 C   0  0  0  0  0  0  0  0  0  0  0  0
   -5.2180   18.2420  -33.5260 C   0  0  0  0  0  0  0  0  0  0  0  0
   -5.6670   19.5570  -33.0040 C   0  0  0  0  0  0  0  0  0  0  0  0
   -7.0420   19.9090  -33.0370 C   0  0  0  0  0  0  0  0  0  0  0  0
   -7.4790   21.1450  -32.5350 C   0  0  0  0  0  0  0  0  0  0  0  0
   -6.5260   22.0130  -32.0130 C   0  0  0  0  0  0  0  0  0  0  0  0
   -6.6790   23.2550  -31.4410 C   0  0  0  0  0  0  0  0  0  0  0  0
   -5.3950   23.6610  -31.0890 C   0  0  0  0  0  0  0  0  0  0  0  0
   -5.0930   24.9890  -30.5150 C   0  0  0  0  0  0  0  0  0  0  0  0
   -3.8770   25.6630  -30.8270 N   0  0  0  0  0  0  0  0  0  0  0  0
   -5.9410   25.5570  -29.7780 O   0  0  0  0  0  0  0  0  0  0  0  0
   -4.4830   22.7030  -31.4220 N   0  0  0  0  0  0  0  0  0  0  0  0
   -3.0710   22.6970  -31.1500 C   0  0  0  0  0  0  0  0  0  0  0  0
   -2.6250   23.2060  -30.0890 O   0  0  0  0  0  0  0  0  0  0  0  0
   -2.1870   22.1070  -32.0460 O   0  0  0  0  0  0  0  0  0  0  0  0
   -5.1910   21.7020  -31.9890 C   0  0  0  0  0  0  0  0  0  0  0  0
   -4.7290   20.4690  -32.4650 C   0  0  0  0  0  0  0  0  0  0  0  0
   -4.2390   18.1680  -34.5340 C   0  0  0  0  0  0  0  0  0  0  0  0
   -3.8160   16.9300  -35.0250 C   0  0  0  0  0  0  0  0  0  0  0  0
   -3.4728   14.5552  -32.2382 H   0  0  0  0  0  0  0  0  0  0  0  0
   -2.4347   13.4592  -31.2421 H   0  0  0  0  0  0  0  0  0  0  0  0
   -2.1233   11.9917  -32.9460 H   0  0  0  0  0  0  0  0  0  0  0  0
   -3.8211   12.1507  -33.5241 H   0  0  0  0  0  0  0  0  0  0  0  0
   -5.7822   14.8831  -33.1207 H   0  0  0  0  0  0  0  0  0  0  0  0
   -6.5314   17.0868  -32.2359 H   0  0  0  0  0  0  0  0  0  0  0  0
   -7.7734   19.2051  -33.4608 H   0  0  0  0  0  0  0  0  0  0  0  0
   -8.5442   21.4190  -32.5540 H   0  0  0  0  0  0  0  0  0  0  0  0
   -7.6174   23.8096  -31.2932 H   0  0  0  0  0  0  0  0  0  0  0  0
   -2.9570   25.2920  -30.4970 H   0  0  0  0  0  0  0  0  0  0  0  0
   -3.6597   20.2147  -32.4209 H   0  0  0  0  0  0  0  0  0  0  0  0
   -3.8028   19.0930  -34.9391 H   0  0  0  0  0  0  0  0  0  0  0  0
   -3.0504   16.8855  -35.8136 H   0  0  0  0  0  0  0  0  0  0  0  0
  1  2  3  0
  2  3  1  0
  3  4  1  0
  4  5  1  0
  5  6  1  0
  6  7  2  0
  6  8  2  0
  6  9  1  0
  9 10  2  0
 10 11  1  0
 11 12  2  0
 12 13  1  0
 13 14  2  0
 14 15  1  0
 15 16  2  0
 16 17  1  0
 17 18  2  0
 18 19  1  0
 19 20  1  0
 19 21  2  0
 18 22  1  0
 22 23  1  0
 23 24  2  0
 23 25  1  0
 22 26  1  0
 26 27  2  0
 12 28  1  0
 28 29  2  0
 29  9  1  0
 27 13  1  0
 26 16  1  0
  3 30  1  0
  3 31  1  0
  4 32  1  0
  4 33  1  0
 10 34  1  0
 11 35  1  0
 14 36  1  0
 15 37  1  0
 17 38  1  0
 20 39  1  0
 27 40  1  0
 28 41  1  0
 29 42  1  0
M  CHG  3   5  -1  20  -1  25  -1
M  END
>  <UniqueID>  (90) 
90

>  <SMILES>  (90) 
N#CCC[N-]S(=O)(=O)c1ccc(-c2ccc3cc(C([NH-])=O)n(C(=O)[O-])c3c2)cc1

>  <Energy>  (90) 
84.63208610103318

>  <Genealogy>  (90) 
N#CCC[N-]S(=O)(=O)c1ccc(-c2ccc3cc(C([NH-])=O)n(C(=O)[O-])c3c2)cc1 (protonated)
N#CCC[N-]S(=O)(=O)c1ccc(-c2ccc3cc(C([NH-])=O)n(C(=O)[O-])c3c2)cc1 (3D coordinates assigned)
N#CCC[N-]S(=O)(=O)c1ccc(-c2ccc3cc(C([NH-])=O)n(C(=O)[O-])c3c2)cc1 (optimized conformer: 84.63208610103318 kcal/mol)

>  <smiles>  (90) 
N#CCCNS(=O)(=O)c1ccc(-c2ccc3cc(C(N)=O)n(C(=O)O)c3c2)cc1

>  <score_type>  (90) 
oracle

>  <origin>  (90) 
adg

>  <m_score__min__energy>  (90) 
-10.82

>  <m_primary>  (90) 
energy

$$$$
90:0
     RDKit          3D

 36 37  0  0  0  0  0  0  0  0999 V2000
   -3.9480   17.8610  -33.0890 C   0  0  0  0  0  0  0  0  0  0  0  0
   -4.9390   18.3370  -34.1670 C   0  0  0  0  0  0  0  0  0  0  0  0
   -4.8670   17.4240  -35.4000 C   0  0  0  0  0  0  0  0  0  0  0  0
   -6.4050   18.5200  -33.6680 C   0  0  1  0  0  0  0  0  0  0  0  0
   -6.9550   17.3630  -32.8620 C   0  0  0  0  0  0  0  0  0  0  0  0
   -7.2180   16.2740  -33.4370 O   0  0  0  0  0  0  0  0  0  0  0  0
   -7.2300   17.4920  -31.5050 O   0  0  0  0  0  0  0  0  0  0  0  0
   -6.6100   19.8520  -32.9640 C   0  0  0  0  0  0  0  0  0  0  0  0
   -7.9300   20.3350  -32.7670 C   0  0  0  0  0  0  0  0  0  0  0  0
   -8.1590   21.5830  -32.1640 C   0  0  0  0  0  0  0  0  0  0  0  0
   -7.0550   22.3290  -31.7690 C   0  0  0  0  0  0  0  0  0  0  0  0
   -6.9920   23.5780  -31.1950 C   0  0  0  0  0  0  0  0  0  0  0  0
   -5.6330   23.8450  -31.0390 C   0  0  0  0  0  0  0  0  0  0  0  0
   -5.1120   25.0640  -30.3860 C   0  0  0  0  0  0  0  0  0  0  0  0
   -3.8920   25.6450  -30.8400 N   0  0  0  0  0  0  0  0  0  0  0  0
   -5.7490   25.6200  -29.4530 O   0  0  0  0  0  0  0  0  0  0  0  0
   -4.8850   22.8030  -31.5040 N   0  0  0  0  0  0  0  0  0  0  0  0
   -3.4530   22.7120  -31.5780 C   0  0  0  0  0  0  0  0  0  0  0  0
   -2.6470   23.1680  -30.4930 N   0  0  0  0  0  0  0  0  0  0  0  0
   -2.9010   22.2180  -32.5970 O   0  0  0  0  0  0  0  0  0  0  0  0
   -5.7720   21.8820  -31.9440 C   0  0  0  0  0  0  0  0  0  0  0  0
   -5.5130   20.6530  -32.5600 C   0  0  0  0  0  0  0  0  0  0  0  0
   -4.3665   18.0620  -32.0918 H   0  0  0  0  0  0  0  0  0  0  0  0
   -3.7736   16.7809  -33.2025 H   0  0  0  0  0  0  0  0  0  0  0  0
   -2.9959   18.4001  -33.2025 H   0  0  0  0  0  0  0  0  0  0  0  0
   -4.6171   19.3508  -34.4473 H   0  0  0  0  0  0  0  0  0  0  0  0
   -4.7844   16.3761  -35.0760 H   0  0  0  0  0  0  0  0  0  0  0  0
   -5.7779   17.5504  -36.0036 H   0  0  0  0  0  0  0  0  0  0  0  0
   -3.9872   17.6916  -36.0036 H   0  0  0  0  0  0  0  0  0  0  0  0
   -7.0072   18.5278  -34.5885 H   0  0  0  0  0  0  0  0  0  0  0  0
   -8.7853   19.7238  -33.0909 H   0  0  0  0  0  0  0  0  0  0  0  0
   -9.1813   21.9584  -32.0092 H   0  0  0  0  0  0  0  0  0  0  0  0
   -7.8352   24.2278  -30.9180 H   0  0  0  0  0  0  0  0  0  0  0  0
   -2.9700   25.2990  -30.4920 H   0  0  0  0  0  0  0  0  0  0  0  0
   -2.3480   24.1650  -30.4300 H   0  0  0  0  0  0  0  0  0  0  0  0
   -4.4795   20.3155  -32.7273 H   0  0  0  0  0  0  0  0  0  0  0  0
  1  2  1  0
  2  3  1  0
  2  4  1  0
  4  5  1  0
  5  6  2  0
  5  7  1  0
  4  8  1  0
  8  9  2  0
  9 10  1  0
 10 11  2  0
 11 12  1  0
 12 13  2  0
 13 14  1  0
 14 15  1  0
 14 16  2  0
 13 17  1  0
 17 18  1  0
 18 19  1  0
 18 20  2  0
 17 21  1  0
 21 22  2  0
 22  8  1  0
 21 11  1  0
  1 23  1  0
  1 24  1  0
  1 25  1  0
  2 26  1  0
  3 27  1  0
  3 28  1  0
  3 29  1  0
  4 30  1  6
  9 31  1  0
 10 32  1  0
 12 33  1  0
 15 34  1  0
 19 35  1  0
 22 36  1  0
M  CHG  3   7  -1  15  -1  19  -1
M  END
>  <UniqueID>  (91) 
91

>  <SMILES>  (91) 
CC(C)[C@@H](C(=O)[O-])c1ccc2cc(C([NH-])=O)n(C([NH-])=O)c2c1

>  <Energy>  (91) 
75.22133342843175

>  <Genealogy>  (91) 
CC(C)C(C(=O)[O-])c1ccc2cc(C([NH-])=O)n(C([NH-])=O)c2c1 (protonated)
CC(C)[C@@H](C(=O)[O-])c1ccc2cc(C([NH-])=O)n(C([NH-])=O)c2c1 (chirality)
CC(C)[C@@H](C(=O)[O-])c1ccc2cc(C([NH-])=O)n(C([NH-])=O)c2c1 (3D coordinates assigned)
CC(C)[C@@H](C(=O)[O-])c1ccc2cc(C([NH-])=O)n(C([NH-])=O)c2c1 (optimized conformer: 75.22133342843175 kcal/mol)

>  <smiles>  (91) 
CC(C)C(C(=O)O)c1ccc2cc(C(N)=O)n(C(N)=O)c2c1

>  <score_type>  (91) 
oracle

>  <origin>  (91) 
adg

>  <m_score__min__energy>  (91) 
-10.67

>  <m_primary>  (91) 
energy

$$$$
91:0
     RDKit          3D

 41 43  0  0  0  0  0  0  0  0999 V2000
   -6.1450   25.9270  -29.5850 C   0  0  0  0  0  0  0  0  0  0  0  0
   -5.3370   25.4040  -30.7750 C   0  0  1  0  0  0  0  0  0  0  0  0
   -3.9620   25.3970  -30.4830 O   0  0  0  0  0  0  0  0  0  0  0  0
   -5.7860   24.0550  -31.1550 C   0  0  0  0  0  0  0  0  0  0  0  0
   -6.1540   22.9490  -31.4630 C   0  0  0  0  0  0  0  0  0  0  0  0
   -6.5860   21.6280  -31.8310 C   0  0  0  0  0  0  0  0  0  0  0  0
   -7.9350   21.2480  -31.6400 C   0  0  0  0  0  0  0  0  0  0  0  0
   -8.3710   19.9640  -32.0080 C   0  0  0  0  0  0  0  0  0  0  0  0
   -7.4350   19.0890  -32.5550 C   0  0  0  0  0  0  0  0  0  0  0  0
   -7.5920   17.8020  -33.0160 C   0  0  0  0  0  0  0  0  0  0  0  0
   -6.3290   17.4120  -33.4610 C   0  0  0  0  0  0  0  0  0  0  0  0
   -6.0130   16.0560  -33.9620 C   0  0  0  0  0  0  0  0  0  0  0  0
   -4.6590   15.6560  -34.1790 N   0  0  0  0  0  0  0  0  0  0  0  0
   -6.9410   15.2490  -34.2350 O   0  0  0  0  0  0  0  0  0  0  0  0
   -5.4280   18.4200  -33.2810 N   0  0  0  0  0  0  0  0  0  0  0  0
   -4.0420   18.4390  -33.6590 C   0  0  0  0  0  0  0  0  0  0  0  0
   -3.7100   18.2190  -34.8560 O   0  0  0  0  0  0  0  0  0  0  0  0
   -3.0670   18.7260  -32.6990 O   0  0  0  0  0  0  0  0  0  0  0  0
   -2.1250   19.7850  -32.8490 C   0  0  0  0  0  0  0  0  0  0  0  0
   -2.7370   21.0250  -33.4720 C   0  0  0  0  0  0  0  0  0  0  0  0
   -2.6150   21.8020  -32.2390 N   0  0  0  0  0  0  0  0  0  0  0  0
   -2.0220   20.6280  -31.5950 C   0  0  0  0  0  0  0  0  0  0  0  0
   -6.1210   19.4390  -32.7260 C   0  0  0  0  0  0  0  0  0  0  0  0
   -5.6630   20.7190  -32.3860 C   0  0  0  0  0  0  0  0  0  0  0  0
   -5.6616   25.6141  -28.6477 H   0  0  0  0  0  0  0  0  0  0  0  0
   -6.1890   27.0254  -29.6260 H   0  0  0  0  0  0  0  0  0  0  0  0
   -7.1651   25.5174  -29.6260 H   0  0  0  0  0  0  0  0  0  0  0  0
   -5.5066   26.0817  -31.6247 H   0  0  0  0  0  0  0  0  0  0  0  0
   -3.4970   24.9260  -31.2230 H   0  0  0  0  0  0  0  0  0  0  0  0
   -8.6471   21.9621  -31.2007 H   0  0  0  0  0  0  0  0  0  0  0  0
   -9.4187   19.6592  -31.8686 H   0  0  0  0  0  0  0  0  0  0  0  0
   -8.5171   17.2071  -33.0305 H   0  0  0  0  0  0  0  0  0  0  0  0
   -4.4480   14.7110  -34.5700 H   0  0  0  0  0  0  0  0  0  0  0  0
   -3.8600   16.2740  -33.9130 H   0  0  0  0  0  0  0  0  0  0  0  0
   -1.2754   19.2468  -33.2945 H   0  0  0  0  0  0  0  0  0  0  0  0
   -2.1456   21.4324  -34.3052 H   0  0  0  0  0  0  0  0  0  0  0  0
   -3.7243   20.9440  -33.9503 H   0  0  0  0  0  0  0  0  0  0  0  0
   -1.8650   22.5210  -32.3730 H   0  0  0  0  0  0  0  0  0  0  0  0
   -0.9864   20.7895  -31.2613 H   0  0  0  0  0  0  0  0  0  0  0  0
   -2.4735   20.2504  -30.6657 H   0  0  0  0  0  0  0  0  0  0  0  0
   -4.6135   21.0060  -32.5476 H   0  0  0  0  0  0  0  0  0  0  0  0
  1  2  1  0
  2  3  1  0
  2  4  1  0
  4  5  3  0
  5  6  1  0
  6  7  2  0
  7  8  1  0
  8  9  2  0
  9 10  1  0
 10 11  2  0
 11 12  1  0
 12 13  1  0
 12 14  2  0
 11 15  1  0
 15 16  1  0
 16 17  2  0
 16 18  1  0
 18 19  1  0
 19 20  1  0
 20 21  1  0
 21 22  1  0
 15 23  1  0
 23 24  2  0
 24  6  1  0
 23  9  1  0
 22 19  1  0
  1 25  1  0
  1 26  1  0
  1 27  1  0
  2 28  1  6
  3 29  1  0
  7 30  1  0
  8 31  1  0
 10 32  1  0
 13 33  1  0
 13 34  1  0
 19 35  1  0
 20 36  1  0
 20 37  1  0
 21 38  1  0
 22 39  1  0
 22 40  1  0
 24 41  1  0
M  END
>  <UniqueID>  (92) 
92

>  <SMILES>  (92) 
C[C@@H](O)C#Cc1ccc2cc(C(N)=O)n(C(=O)OC3CNC3)c2c1

>  <Energy>  (92) 
138.6626779452745

>  <Genealogy>  (92) 
C[C@@H](O)C#Cc1ccc2cc(C(N)=O)n(C(=O)OC3CNC3)c2c1 (3D coordinates assigned)
C[C@@H](O)C#Cc1ccc2cc(C(N)=O)n(C(=O)OC3CNC3)c2c1 (nonaromatic ring conformer: 138.6626779452745 kcal/mol)

>  <smiles>  (92) 
C[C@@H](O)C#Cc1ccc2cc(C(N)=O)n(C(=O)OC3CNC3)c2c1

>  <score_type>  (92) 
oracle

>  <origin>  (92) 
adg

>  <m_score__min__energy>  (92) 
-8.7599999999999998

>  <m_primary>  (92) 
energy

$$$$
92:0
     RDKit          3D

 42 44  0  0  0  0  0  0  0  0999 V2000
   -4.6240   18.4510  -34.2350 C   0  0  0  0  0  0  0  0  0  0  0  0
   -6.0270   18.3390  -33.8630 N   0  0  0  0  0  0  0  0  0  0  0  0
   -6.5110   17.8910  -32.5900 C   0  0  0  0  0  0  0  0  0  0  0  0
   -5.8460   17.0280  -31.9580 O   0  0  0  0  0  0  0  0  0  0  0  0
   -7.8000   18.3930  -31.9960 C   0  0  0  0  0  0  0  0  0  0  0  0
   -7.7380   19.8840  -31.7990 C   0  0  0  0  0  0  0  0  0  0  0  0
   -8.8440   20.6980  -32.1540 C   0  0  0  0  0  0  0  0  0  0  0  0
   -8.7880   22.0930  -31.9930 C   0  0  0  0  0  0  0  0  0  0  0  0
   -7.6160   22.6440  -31.4820 C   0  0  0  0  0  0  0  0  0  0  0  0
   -7.2810   23.9580  -31.2450 C   0  0  0  0  0  0  0  0  0  0  0  0
   -5.9760   23.9260  -30.7550 C   0  0  0  0  0  0  0  0  0  0  0  0
   -5.2320   25.1270  -30.3200 C   0  0  0  0  0  0  0  0  0  0  0  0
   -3.8400   25.2690  -30.5920 N   0  0  0  0  0  0  0  0  0  0  0  0
   -5.8260   26.0280  -29.6710 O   0  0  0  0  0  0  0  0  0  0  0  0
   -5.5260   22.6410  -30.6890 N   0  0  0  0  0  0  0  0  0  0  0  0
   -4.2120   22.1860  -30.3300 C   0  0  0  0  0  0  0  0  0  0  0  0
   -3.9150   22.0750  -29.1090 O   0  0  0  0  0  0  0  0  0  0  0  0
   -3.2030   21.8630  -31.3690 C   0  0  0  0  0  0  0  0  0  0  0  0
   -3.6040   21.5880  -32.6880 C   0  0  0  0  0  0  0  0  0  0  0  0
   -2.6570   21.2850  -33.6700 C   0  0  0  0  0  0  0  0  0  0  0  0
   -1.2880   21.2540  -33.3570 C   0  0  0  0  0  0  0  0  0  0  0  0
   -0.3160   20.9470  -34.3720 N   0  0  0  0  0  0  0  0  0  0  0  0
   -0.2060   19.7860  -34.8180 O   0  0  0  0  0  0  0  0  0  0  0  0
    0.5230   21.9260  -34.8570 O   0  0  0  0  0  0  0  0  0  0  0  0
   -0.8860   21.5340  -32.0380 C   0  0  0  0  0  0  0  0  0  0  0  0
   -1.8340   21.8390  -31.0550 C   0  0  0  0  0  0  0  0  0  0  0  0
   -6.5380   21.8710  -31.1400 C   0  0  0  0  0  0  0  0  0  0  0  0
   -6.5620   20.4820  -31.2980 C   0  0  0  0  0  0  0  0  0  0  0  0
   -4.0065   18.5003  -33.3260 H   0  0  0  0  0  0  0  0  0  0  0  0
   -4.3312   17.5734  -34.8300 H   0  0  0  0  0  0  0  0  0  0  0  0
   -4.4742   19.3640  -34.8300 H   0  0  0  0  0  0  0  0  0  0  0  0
   -8.6310   18.1508  -32.6748 H   0  0  0  0  0  0  0  0  0  0  0  0
   -7.9572   17.9092  -31.0207 H   0  0  0  0  0  0  0  0  0  0  0  0
   -9.7546   20.2328  -32.5594 H   0  0  0  0  0  0  0  0  0  0  0  0
   -9.6436   22.7297  -32.2624 H   0  0  0  0  0  0  0  0  0  0  0  0
   -7.9099   24.8457  -31.4078 H   0  0  0  0  0  0  0  0  0  0  0  0
   -3.4920   26.0100  -31.2400 H   0  0  0  0  0  0  0  0  0  0  0  0
   -4.6722   21.6115  -32.9494 H   0  0  0  0  0  0  0  0  0  0  0  0
   -2.9865   21.0689  -34.6970 H   0  0  0  0  0  0  0  0  0  0  0  0
    0.1825   21.5130  -31.7774 H   0  0  0  0  0  0  0  0  0  0  0  0
   -1.5049   22.0615  -30.0292 H   0  0  0  0  0  0  0  0  0  0  0  0
   -5.6855   19.8702  -31.0381 H   0  0  0  0  0  0  0  0  0  0  0  0
  1  2  1  0
  2  3  1  0
  3  4  2  0
  3  5  1  0
  5  6  1  0
  6  7  2  0
  7  8  1  0
  8  9  2  0
  9 10  1  0
 10 11  2  0
 11 12  1  0
 12 13  1  0
 12 14  2  0
 11 15  1  0
 15 16  1  0
 16 17  2  0
 16 18  1  0
 18 19  2  0
 19 20  1  0
 20 21  2  0
 21 22  1  0
 22 23  2  0
 22 24  1  0
 21 25  1  0
 25 26  2  0
 15 27  1  0
 27 28  2  0
 28  6  1  0
 27  9  1  0
 26 18  1  0
  1 29  1  0
  1 30  1  0
  1 31  1  0
  5 32  1  0
  5 33  1  0
  7 34  1  0
  8 35  1  0
 10 36  1  0
 13 37  1  0
 19 38  1  0
 20 39  1  0
 25 40  1  0
 26 41  1  0
 28 42  1  0
M  CHG  4   2  -1  13  -1  22   1  24  -1
M  END
>  <UniqueID>  (93) 
93

>  <SMILES>  (93) 
C[N-]C(=O)Cc1ccc2cc(C([NH-])=O)n(C(=O)c3ccc([N+](=O)[O-])cc3)c2c1

>  <Energy>  (93) 
83.01773188570856

>  <Genealogy>  (93) 
C[N-]C(=O)Cc1ccc2cc(C([NH-])=O)n(C(=O)c3ccc([N+](=O)[O-])cc3)c2c1 (protonated)
C[N-]C(=O)Cc1ccc2cc(C([NH-])=O)n(C(=O)c3ccc([N+](=O)[O-])cc3)c2c1 (3D coordinates assigned)
C[N-]C(=O)Cc1ccc2cc(C([NH-])=O)n(C(=O)c3ccc([N+](=O)[O-])cc3)c2c1 (optimized conformer: 83.01773188570856 kcal/mol)

>  <smiles>  (93) 
CNC(=O)Cc1ccc2cc(C(N)=O)n(C(=O)c3ccc([N+](=O)[O-])cc3)c2c1

>  <score_type>  (93) 
oracle

>  <origin>  (93) 
adg

>  <m_score__min__energy>  (93) 
-11.48

>  <m_primary>  (93) 
energy

$$$$
93:0
     RDKit          3D

 41 43  0  0  0  0  0  0  0  0999 V2000
   -5.4780   25.7330  -30.6050 C   0  0  0  0  0  0  0  0  0  0  0  0
   -4.2200   25.0810  -30.7400 O   0  0  0  0  0  0  0  0  0  0  0  0
   -3.9140   23.8890  -30.0780 C   0  0  0  0  0  0  0  0  0  0  0  0
   -4.6580   23.4660  -29.1520 O   0  0  0  0  0  0  0  0  0  0  0  0
   -2.7330   23.1560  -30.4400 N   0  0  0  0  0  0  0  0  0  0  0  0
   -1.4700   23.3180  -29.9520 C   0  0  0  0  0  0  0  0  0  0  0  0
   -1.0130   24.4130  -29.0710 C   0  0  0  0  0  0  0  0  0  0  0  0
   -1.7500   25.6280  -28.9710 N   0  0  0  0  0  0  0  0  0  0  0  0
    0.0690   24.2930  -28.4370 O   0  0  0  0  0  0  0  0  0  0  0  0
   -0.6180   22.3430  -30.4670 C   0  0  0  0  0  0  0  0  0  0  0  0
   -1.4020   21.5760  -31.2980 C   0  0  0  0  0  0  0  0  0  0  0  0
   -1.0730   20.4550  -32.0550 C   0  0  0  0  0  0  0  0  0  0  0  0
   -2.0940   19.8380  -32.7960 C   0  0  0  0  0  0  0  0  0  0  0  0
   -3.4160   20.3500  -32.7690 C   0  0  0  0  0  0  0  0  0  0  0  0
   -4.5110   19.6500  -33.5260 C   0  0  0  0  0  0  0  0  0  0  0  0
   -5.3990   18.8490  -32.5700 C   0  0  0  0  0  0  0  0  0  0  0  0
   -6.7270   19.5350  -32.3790 C   0  0  0  0  0  0  0  0  0  0  0  0
   -6.7830   20.9340  -32.2520 C   0  0  0  0  0  0  0  0  0  0  0  0
   -8.0070   21.5750  -32.0440 C   0  0  0  0  0  0  0  0  0  0  0  0
   -9.1840   20.8260  -31.9510 C   0  0  0  0  0  0  0  0  0  0  0  0
   -9.1370   19.4340  -32.0610 C   0  0  0  0  0  0  0  0  0  0  0  0
   -7.9140   18.7860  -32.2690 C   0  0  0  0  0  0  0  0  0  0  0  0
   -7.8880   17.4320  -32.3600 F   0  0  0  0  0  0  0  0  0  0  0  0
   -3.7150   21.4820  -31.9790 C   0  0  0  0  0  0  0  0  0  0  0  0
   -2.6740   22.0870  -31.2650 C   0  0  0  0  0  0  0  0  0  0  0  0
   -5.7147   25.8557  -29.5378 H   0  0  0  0  0  0  0  0  0  0  0  0
   -5.4325   26.7210  -31.0864 H   0  0  0  0  0  0  0  0  0  0  0  0
   -6.2590   25.1262  -31.0864 H   0  0  0  0  0  0  0  0  0  0  0  0
   -2.7480   25.6780  -29.2750 H   0  0  0  0  0  0  0  0  0  0  0  0
    0.4535   22.2139  -30.2544 H   0  0  0  0  0  0  0  0  0  0  0  0
   -0.0448   20.0645  -32.0722 H   0  0  0  0  0  0  0  0  0  0  0  0
   -1.8661   18.9494  -33.4029 H   0  0  0  0  0  0  0  0  0  0  0  0
   -5.1250   20.3984  -34.0484 H   0  0  0  0  0  0  0  0  0  0  0  0
   -4.0558   18.9589  -34.2506 H   0  0  0  0  0  0  0  0  0  0  0  0
   -5.5673   17.8456  -32.9882 H   0  0  0  0  0  0  0  0  0  0  0  0
   -4.8945   18.7754  -31.5953 H   0  0  0  0  0  0  0  0  0  0  0  0
   -5.8587   21.5269  -32.3167 H   0  0  0  0  0  0  0  0  0  0  0  0
   -8.0447   22.6706  -31.9533 H   0  0  0  0  0  0  0  0  0  0  0  0
  -10.1471   21.3328  -31.7912 H   0  0  0  0  0  0  0  0  0  0  0  0
  -10.0634   18.8459  -31.9839 H   0  0  0  0  0  0  0  0  0  0  0  0
   -4.7398   21.8781  -31.9262 H   0  0  0  0  0  0  0  0  0  0  0  0
  1  2  1  0
  2  3  1  0
  3  4  2  0
  3  5  1  0
  5  6  1  0
  6  7  1  0
  7  8  1  0
  7  9  2  0
  6 10  2  0
 10 11  1  0
 11 12  2  0
 12 13  1  0
 13 14  2  0
 14 15  1  0
 15 16  1  0
 16 17  1  0
 17 18  2  0
 18 19  1  0
 19 20  2  0
 20 21  1  0
 21 22  2  0
 22 23  1  0
 14 24  1  0
 24 25  2  0
 25  5  1  0
 25 11  1  0
 22 17  1  0
  1 26  1  0
  1 27  1  0
  1 28  1  0
  8 29  1  0
 10 30  1  0
 12 31  1  0
 13 32  1  0
 15 33  1  0
 15 34  1  0
 16 35  1  0
 16 36  1  0
 18 37  1  0
 19 38  1  0
 20 39  1  0
 21 40  1  0
 24 41  1  0
M  CHG  1   8  -1
M  END
>  <UniqueID>  (94) 
94

>  <SMILES>  (94) 
COC(=O)n1c(C([NH-])=O)cc2ccc(CCc3ccccc3F)cc21

>  <Energy>  (94) 
77.69792816954238

>  <Genealogy>  (94) 
COC(=O)n1c(C([NH-])=O)cc2ccc(CCc3ccccc3F)cc21 (protonated)
COC(=O)n1c(C([NH-])=O)cc2ccc(CCc3ccccc3F)cc21 (3D coordinates assigned)
COC(=O)n1c(C([NH-])=O)cc2ccc(CCc3ccccc3F)cc21 (optimized conformer: 77.69792816954238 kcal/mol)

>  <smiles>  (94) 
COC(=O)n1c(C(N)=O)cc2ccc(CCc3ccccc3F)cc21

>  <score_type>  (94) 
oracle

>  <origin>  (94) 
adg

>  <m_score__min__energy>  (94) 
-11.09

>  <m_primary>  (94) 
energy

$$$$
