0:0
     RDKit          3D

 51 53  0  0  0  0  0  0  0  0999 V2000
   -1.0130   21.2280  -31.0040 C   0  0  0  0  0  0  0  0  0  0  0  0
   -1.8670   21.0550  -32.1840 N   0  0  0  0  0  0  0  0  0  0  0  0
   -1.5050   20.0630  -33.2010 C   0  0  0  0  0  0  0  0  0  0  0  0
   -3.0070   21.9120  -32.4210 C   0  0  0  0  0  0  0  0  0  0  0  0
   -3.4960   21.9820  -33.5830 O   0  0  0  0  0  0  0  0  0  0  0  0
   -3.6380   22.7160  -31.3510 C   0  0  0  0  0  0  0  0  0  0  0  0
   -2.9410   23.2010  -30.4220 O   0  0  0  0  0  0  0  0  0  0  0  0
   -5.0650   22.8820  -31.3170 N   0  0  0  0  0  0  0  0  0  0  0  0
   -5.7750   23.9940  -30.9730 C   0  0  0  0  0  0  0  0  0  0  0  0
   -5.2070   25.2510  -30.4410 C   0  0  0  0  0  0  0  0  0  0  0  0
   -3.9020   25.6650  -30.8370 N   0  0  0  0  0  0  0  0  0  0  0  0
   -5.8750   25.9800  -29.6610 O   0  0  0  0  0  0  0  0  0  0  0  0
   -7.1420   23.7640  -31.1190 C   0  0  0  0  0  0  0  0  0  0  0  0
   -7.2480   22.4630  -31.5560 C   0  0  0  0  0  0  0  0  0  0  0  0
   -8.3750   21.7090  -31.8720 C   0  0  0  0  0  0  0  0  0  0  0  0
   -8.1830   20.3910  -32.3160 C   0  0  0  0  0  0  0  0  0  0  0  0
   -6.8780   19.8490  -32.4360 C   0  0  0  0  0  0  0  0  0  0  0  0
   -6.6920   18.5030  -32.9110 N   0  0  0  0  0  0  0  0  0  0  0  0
   -6.1210   18.2860  -34.2490 C   0  0  0  0  0  0  0  0  0  0  0  0
   -5.8880   16.7940  -34.5400 C   0  0  0  0  0  0  0  0  0  0  0  0
   -5.2030   16.0340  -33.3700 C   0  0  0  0  0  0  0  0  0  0  0  0
   -3.6640   16.0020  -33.5130 C   0  0  0  0  0  0  0  0  0  0  0  0
   -3.1500   17.1970  -34.1790 N   0  0  0  0  0  0  0  0  0  0  0  0
   -5.6520   16.5140  -31.9610 C   0  0  0  0  0  0  0  0  0  0  0  0
   -6.9220   17.3600  -32.0210 C   0  0  0  0  0  0  0  0  0  0  0  0
   -5.7580   20.6480  -32.1120 C   0  0  0  0  0  0  0  0  0  0  0  0
   -5.9800   21.9520  -31.6620 C   0  0  0  0  0  0  0  0  0  0  0  0
   -1.6172   21.1056  -30.0930 H   0  0  0  0  0  0  0  0  0  0  0  0
   -0.2124   20.4738  -31.0171 H   0  0  0  0  0  0  0  0  0  0  0  0
   -0.5690   22.2343  -31.0171 H   0  0  0  0  0  0  0  0  0  0  0  0
   -1.1678   19.1391  -32.7084 H   0  0  0  0  0  0  0  0  0  0  0  0
   -2.3815   19.8449  -33.8288 H   0  0  0  0  0  0  0  0  0  0  0  0
   -0.6941   20.4607  -33.8288 H   0  0  0  0  0  0  0  0  0  0  0  0
   -3.0530   25.3010  -30.3490 H   0  0  0  0  0  0  0  0  0  0  0  0
   -7.9618   24.4717  -30.9260 H   0  0  0  0  0  0  0  0  0  0  0  0
   -9.3854   22.1332  -31.7767 H   0  0  0  0  0  0  0  0  0  0  0  0
   -9.0548   19.7717  -32.5737 H   0  0  0  0  0  0  0  0  0  0  0  0
   -6.8143   18.6906  -35.0011 H   0  0  0  0  0  0  0  0  0  0  0  0
   -5.1476   18.7966  -34.2903 H   0  0  0  0  0  0  0  0  0  0  0  0
   -6.8614   16.3219  -34.7393 H   0  0  0  0  0  0  0  0  0  0  0  0
   -5.2109   16.7348  -35.4049 H   0  0  0  0  0  0  0  0  0  0  0  0
   -5.5583   14.9961  -33.4514 H   0  0  0  0  0  0  0  0  0  0  0  0
   -3.2158   15.9337  -32.5108 H   0  0  0  0  0  0  0  0  0  0  0  0
   -3.3985   15.1298  -34.1285 H   0  0  0  0  0  0  0  0  0  0  0  0
   -2.2030   17.4160  -33.7970 H   0  0  0  0  0  0  0  0  0  0  0  0
   -3.0090   16.9630  -35.1880 H   0  0  0  0  0  0  0  0  0  0  0  0
   -5.8418   15.6333  -31.3299 H   0  0  0  0  0  0  0  0  0  0  0  0
   -4.8482   17.1381  -31.5433 H   0  0  0  0  0  0  0  0  0  0  0  0
   -7.7525   16.7518  -32.4088 H   0  0  0  0  0  0  0  0  0  0  0  0
   -7.1777   17.7189  -31.0132 H   0  0  0  0  0  0  0  0  0  0  0  0
   -4.7363   20.2528  -32.2117 H   0  0  0  0  0  0  0  0  0  0  0  0
  1  2  1  0
  2  3  1  0
  2  4  1  0
  4  5  2  0
  4  6  1  0
  6  7  2  0
  6  8  1  0
  8  9  1  0
  9 10  1  0
 10 11  1  0
 10 12  2  0
  9 13  2  0
 13 14  1  0
 14 15  2  0
 15 16  1  0
 16 17  2  0
 17 18  1  0
 18 19  1  0
 19 20  1  0
 20 21  1  0
 21 22  1  0
 22 23  1  0
 21 24  1  0
 24 25  1  0
 17 26  1  0
 26 27  2  0
 27  8  1  0
 27 14  1  0
 25 18  1  0
  1 28  1  0
  1 29  1  0
  1 30  1  0
  3 31  1  0
  3 32  1  0
  3 33  1  0
 11 34  1  0
 13 35  1  0
 15 36  1  0
 16 37  1  0
 19 38  1  0
 19 39  1  0
 20 40  1  0
 20 41  1  0
 21 42  1  0
 22 43  1  0
 22 44  1  0
 23 45  1  0
 23 46  1  0
 24 47  1  0
 24 48  1  0
 25 49  1  0
 25 50  1  0
 26 51  1  0
M  CHG  1  11  -1
M  END
>  <UniqueID>  (1) 
1

>  <SMILES>  (1) 
CN(C)C(=O)C(=O)n1c(C([NH-])=O)cc2ccc(N3CCC(CN)CC3)cc21

>  <Energy>  (1) 
97.00896440719964

>  <Genealogy>  (1) 
CN(C)C(=O)C(=O)n1c(C([NH-])=O)cc2ccc(N3CCC(CN)CC3)cc21 (protonated)
CN(C)C(=O)C(=O)n1c(C([NH-])=O)cc2ccc(N3CCC(CN)CC3)cc21 (3D coordinates assigned)
CN(C)C(=O)C(=O)n1c(C([NH-])=O)cc2ccc(N3CCC(CN)CC3)cc21 (nonaromatic ring conformer: 97.00896440719964 kcal/mol)

>  <smiles>  (1) 
CN(C)C(=O)C(=O)n1c(C(N)=O)cc2ccc(N3CCC(CN)CC3)cc21

>  <score_type>  (1) 
oracle

>  <origin>  (1) 
adg

>  <m_score__min__energy>  (1) 
-10.99

>  <m_primary>  (1) 
energy

$$$$
1:0
     RDKit          3D

 40 41  0  0  0  0  0  0  0  0999 V2000
   -3.8420   25.4130  -30.8740 N   0  0  0  0  0  0  0  0  0  0  0  0
   -5.1940   25.2060  -30.4700 C   0  0  0  0  0  0  0  0  0  0  0  0
   -5.7860   26.1020  -29.8140 O   0  0  0  0  0  0  0  0  0  0  0  0
   -5.8680   23.9290  -30.7900 C   0  0  0  0  0  0  0  0  0  0  0  0
   -7.2360   23.8240  -31.0340 C   0  0  0  0  0  0  0  0  0  0  0  0
   -7.4450   22.5100  -31.3840 C   0  0  0  0  0  0  0  0  0  0  0  0
   -8.6200   21.8520  -31.7350 C   0  0  0  0  0  0  0  0  0  0  0  0
   -8.5430   20.4820  -32.0370 C   0  0  0  0  0  0  0  0  0  0  0  0
   -7.3050   19.7970  -31.9680 C   0  0  0  0  0  0  0  0  0  0  0  0
   -7.2320   18.3330  -32.3200 C   0  0  0  0  0  0  0  0  0  0  0  0
   -5.8910   17.9730  -32.9740 C   0  0  0  0  0  0  0  0  0  0  0  0
   -6.0760   17.4570  -34.3680 C   0  0  0  0  0  0  0  0  0  0  0  0
   -5.6220   18.1040  -35.3480 O   0  0  0  0  0  0  0  0  0  0  0  0
   -6.7870   16.2830  -34.5870 O   0  0  0  0  0  0  0  0  0  0  0  0
   -6.1320   20.4980  -31.6130 C   0  0  0  0  0  0  0  0  0  0  0  0
   -6.2340   21.8670  -31.3390 C   0  0  0  0  0  0  0  0  0  0  0  0
   -5.2570   22.7250  -30.9740 N   0  0  0  0  0  0  0  0  0  0  0  0
   -3.8710   22.3990  -30.7850 C   0  0  0  0  0  0  0  0  0  0  0  0
   -3.1280   22.2060  -31.7870 O   0  0  0  0  0  0  0  0  0  0  0  0
   -3.3460   22.3250  -29.4900 O   0  0  0  0  0  0  0  0  0  0  0  0
   -3.7540   23.1810  -28.4260 C   0  0  0  0  0  0  0  0  0  0  0  0
   -2.5350   23.6830  -27.6480 C   0  0  0  0  0  0  0  0  0  0  0  0
   -1.3110   24.4330  -28.7680 P   0  0  2  0  0  0  0  0  0  0  0  0
    0.0730   24.3040  -28.1730 O   0  0  0  0  0  0  0  0  0  0  0  0
   -1.6800   26.0710  -28.9670 O   0  0  0  0  0  0  0  0  0  0  0  0
   -1.3590   23.6670  -30.2770 O   0  0  0  0  0  0  0  0  0  0  0  0
   -3.0490   25.0390  -30.3060 H   0  0  0  0  0  0  0  0  0  0  0  0
   -7.9891   24.6225  -30.9620 H   0  0  0  0  0  0  0  0  0  0  0  0
   -9.5797   22.3881  -31.7748 H   0  0  0  0  0  0  0  0  0  0  0  0
   -9.4522   19.9364  -32.3296 H   0  0  0  0  0  0  0  0  0  0  0  0
   -7.3517   17.7391  -31.4019 H   0  0  0  0  0  0  0  0  0  0  0  0
   -8.0346   18.1126  -33.0392 H   0  0  0  0  0  0  0  0  0  0  0  0
   -5.2579   18.8719  -33.0076 H   0  0  0  0  0  0  0  0  0  0  0  0
   -5.4186   17.1807  -32.3747 H   0  0  0  0  0  0  0  0  0  0  0  0
   -5.1626   19.9816  -31.5532 H   0  0  0  0  0  0  0  0  0  0  0  0
   -4.2984   24.0417  -28.8417 H   0  0  0  0  0  0  0  0  0  0  0  0
   -4.4054   22.6159  -27.7431 H   0  0  0  0  0  0  0  0  0  0  0  0
   -2.8609   24.4357  -26.9150 H   0  0  0  0  0  0  0  0  0  0  0  0
   -2.0670   22.8275  -27.1391 H   0  0  0  0  0  0  0  0  0  0  0  0
   -2.2710   23.8390  -30.6240 H   0  0  0  0  0  0  0  0  0  0  0  0
  1  2  1  0
  2  3  2  0
  2  4  1  0
  4  5  2  0
  5  6  1  0
  6  7  2  0
  7  8  1  0
  8  9  2  0
  9 10  1  0
 10 11  1  0
 11 12  1  0
 12 13  2  0
 12 14  1  0
  9 15  1  0
 15 16  2  0
 16 17  1  0
 17 18  1  0
 18 19  2  0
 18 20  1  0
 20 21  1  0
 21 22  1  0
 22 23  1  0
 23 24  2  0
 23 25  1  6
 23 26  1  0
 17  4  1  0
 16  6  1  0
  1 27  1  0
  5 28  1  0
  7 29  1  0
  8 30  1  0
 10 31  1  0
 10 32  1  0
 11 33  1  0
 11 34  1  0
 15 35  1  0
 21 36  1  0
 21 37  1  0
 22 38  1  0
 22 39  1  0
 26 40  1  0
M  CHG  3   1  -1  14  -1  25  -1
M  END
>  <UniqueID>  (2) 
2

>  <SMILES>  (2) 
[NH-]C(=O)c1cc2ccc(CCC(=O)[O-])cc2n1C(=O)OCC[P@](=O)([O-])O

>  <Energy>  (2) 
66.71401370532563

>  <Genealogy>  (2) 
[NH-]C(=O)c1cc2ccc(CCC(=O)[O-])cc2n1C(=O)OCCP(=O)([O-])O (protonated)
[NH-]C(=O)c1cc2ccc(CCC(=O)[O-])cc2n1C(=O)OCC[P@](=O)([O-])O (chirality)
[NH-]C(=O)c1cc2ccc(CCC(=O)[O-])cc2n1C(=O)OCC[P@](=O)([O-])O (3D coordinates assigned)
[NH-]C(=O)c1cc2ccc(CCC(=O)[O-])cc2n1C(=O)OCC[P@](=O)([O-])O (optimized conformer: 66.71401370532563 kcal/mol)

>  <smiles>  (2) 
NC(=O)c1cc2ccc(CCC(=O)O)cc2n1C(=O)OCCP(=O)(O)O

>  <score_type>  (2) 
oracle

>  <origin>  (2) 
adg

>  <m_score__min__energy>  (2) 
-12.75

>  <m_primary>  (2) 
energy

$$$$
2:0
     RDKit          3D

 37 38  0  0  0  0  0  0  0  0999 V2000
   -5.7400   18.2250  -35.0770 C   0  0  0  0  0  0  0  0  0  0  0  0
   -5.2280   17.9970  -33.6580 C   0  0  0  0  0  0  0  0  0  0  0  0
   -4.5510   19.1990  -33.1500 N   0  0  0  0  0  0  0  0  0  0  0  0
   -3.0940   19.2150  -32.9430 C   0  0  0  0  0  0  0  0  0  0  0  0
   -2.4370   20.3690  -33.7080 C   0  0  0  0  0  0  0  0  0  0  0  0
   -1.6920   21.1830  -32.8410 O   0  0  0  0  0  0  0  0  0  0  0  0
   -5.3460   20.2830  -32.6460 C   0  0  0  0  0  0  0  0  0  0  0  0
   -6.7560   20.2360  -32.7530 C   0  0  0  0  0  0  0  0  0  0  0  0
   -7.5440   21.2950  -32.2750 C   0  0  0  0  0  0  0  0  0  0  0  0
   -6.8940   22.3720  -31.6770 C   0  0  0  0  0  0  0  0  0  0  0  0
   -7.4110   23.5290  -31.1430 C   0  0  0  0  0  0  0  0  0  0  0  0
   -6.3100   24.2440  -30.6790 C   0  0  0  0  0  0  0  0  0  0  0  0
   -6.4270   25.5220  -29.9460 C   0  0  0  0  0  0  0  0  0  0  0  0
   -5.6070   26.6420  -30.2780 N   0  0  0  0  0  0  0  0  0  0  0  0
   -7.2190   25.6040  -28.9690 O   0  0  0  0  0  0  0  0  0  0  0  0
   -5.1540   23.5680  -30.9300 N   0  0  0  0  0  0  0  0  0  0  0  0
   -3.8080   24.0260  -30.7000 C   0  0  0  0  0  0  0  0  0  0  0  0
   -3.5770   25.2460  -30.4800 O   0  0  0  0  0  0  0  0  0  0  0  0
   -2.7490   23.1260  -30.7110 O   0  0  0  0  0  0  0  0  0  0  0  0
   -5.5290   22.4190  -31.5400 C   0  0  0  0  0  0  0  0  0  0  0  0
   -4.7200   21.3930  -32.0410 C   0  0  0  0  0  0  0  0  0  0  0  0
   -6.7442   18.6722  -35.0370 H   0  0  0  0  0  0  0  0  0  0  0  0
   -5.0571   18.9041  -35.6085 H   0  0  0  0  0  0  0  0  0  0  0  0
   -5.7878   17.2631  -35.6085 H   0  0  0  0  0  0  0  0  0  0  0  0
   -6.0776   17.7567  -33.0019 H   0  0  0  0  0  0  0  0  0  0  0  0
   -4.5085   17.1650  -33.6712 H   0  0  0  0  0  0  0  0  0  0  0  0
   -2.8856   19.3320  -31.8693 H   0  0  0  0  0  0  0  0  0  0  0  0
   -2.6789   18.2680  -33.3184 H   0  0  0  0  0  0  0  0  0  0  0  0
   -1.7688   19.9565  -34.4783 H   0  0  0  0  0  0  0  0  0  0  0  0
   -3.2265   20.9786  -34.1717 H   0  0  0  0  0  0  0  0  0  0  0  0
   -2.3480   21.6700  -32.2770 H   0  0  0  0  0  0  0  0  0  0  0  0
   -7.2390   19.3622  -33.2147 H   0  0  0  0  0  0  0  0  0  0  0  0
   -8.6397   21.2749  -32.3697 H   0  0  0  0  0  0  0  0  0  0  0  0
   -8.4689   23.8263  -31.0931 H   0  0  0  0  0  0  0  0  0  0  0  0
   -4.8390   26.5610  -30.9800 H   0  0  0  0  0  0  0  0  0  0  0  0
   -5.7110   27.5410  -29.7560 H   0  0  0  0  0  0  0  0  0  0  0  0
   -3.6241   21.4505  -31.9650 H   0  0  0  0  0  0  0  0  0  0  0  0
  1  2  1  0
  2  3  1  0
  3  4  1  0
  4  5  1  0
  5  6  1  0
  3  7  1  0
  7  8  2  0
  8  9  1  0
  9 10  2  0
 10 11  1  0
 11 12  2  0
 12 13  1  0
 13 14  1  0
 13 15  2  0
 12 16  1  0
 16 17  1  0
 17 18  2  0
 17 19  1  0
 16 20  1  0
 20 21  2  0
 21  7  1  0
 20 10  1  0
  1 22  1  0
  1 23  1  0
  1 24  1  0
  2 25  1  0
  2 26  1  0
  4 27  1  0
  4 28  1  0
  5 29  1  0
  5 30  1  0
  6 31  1  0
  8 32  1  0
  9 33  1  0
 11 34  1  0
 14 35  1  0
 14 36  1  0
 21 37  1  0
M  CHG  1  19  -1
M  END
>  <UniqueID>  (3) 
3

>  <SMILES>  (3) 
CCN(CCO)c1ccc2cc(C(N)=O)n(C(=O)[O-])c2c1

>  <Energy>  (3) 
76.82144789865261

>  <Genealogy>  (3) 
CCN(CCO)c1ccc2cc(C(N)=O)n(C(=O)[O-])c2c1 (protonated)
CCN(CCO)c1ccc2cc(C(N)=O)n(C(=O)[O-])c2c1 (3D coordinates assigned)
CCN(CCO)c1ccc2cc(C(N)=O)n(C(=O)[O-])c2c1 (optimized conformer: 76.82144789865261 kcal/mol)

>  <smiles>  (3) 
CCN(CCO)c1ccc2cc(C(N)=O)n(C(=O)O)c2c1

>  <score_type>  (3) 
oracle

>  <origin>  (3) 
adg

>  <m_score__min__energy>  (3) 
-8.4399999999999995

>  <m_primary>  (3) 
energy

$$$$
3:0
     RDKit          3D

 39 41  0  0  0  0  0  0  0  0999 V2000
   -3.4780   22.0090  -28.9590 C   0  0  0  0  0  0  0  0  0  0  0  0
   -2.9660   22.4390  -30.1110 C   0  0  0  0  0  0  0  0  0  0  0  0
   -3.7180   22.4090  -31.3790 C   0  0  0  0  0  0  0  0  0  0  0  0
   -3.0910   22.2100  -32.4540 O   0  0  0  0  0  0  0  0  0  0  0  0
   -5.1430   22.5880  -31.4170 N   0  0  0  0  0  0  0  0  0  0  0  0
   -5.8610   23.6080  -30.8700 C   0  0  0  0  0  0  0  0  0  0  0  0
   -5.2960   24.8290  -30.2610 C   0  0  0  0  0  0  0  0  0  0  0  0
   -5.7610   25.3160  -29.0010 N   0  0  0  0  0  0  0  0  0  0  0  0
   -4.3550   25.4320  -30.8430 O   0  0  0  0  0  0  0  0  0  0  0  0
   -7.2270   23.3480  -30.9560 C   0  0  0  0  0  0  0  0  0  0  0  0
   -7.3250   22.1240  -31.5790 C   0  0  0  0  0  0  0  0  0  0  0  0
   -8.4500   21.3650  -31.8940 C   0  0  0  0  0  0  0  0  0  0  0  0
   -8.2490   20.1080  -32.4900 C   0  0  0  0  0  0  0  0  0  0  0  0
   -6.9410   19.6330  -32.7430 C   0  0  0  0  0  0  0  0  0  0  0  0
   -6.7490   18.3490  -33.3380 N   0  0  0  0  0  0  0  0  0  0  0  0
   -6.0720   17.7840  -34.5190 C   0  0  0  0  0  0  0  0  0  0  0  0
   -6.4530   16.3620  -34.2580 C   0  0  0  0  0  0  0  0  0  0  0  0
   -5.3270   15.5800  -33.9170 O   0  0  0  0  0  0  0  0  0  0  0  0
   -4.9750   15.8410  -32.5770 C   0  0  0  0  0  0  0  0  0  0  0  0
   -7.1330   16.9530  -33.0630 C   0  0  0  0  0  0  0  0  0  0  0  0
   -5.8240   20.4250  -32.4050 C   0  0  0  0  0  0  0  0  0  0  0  0
   -6.0530   21.6820  -31.8370 C   0  0  0  0  0  0  0  0  0  0  0  0
   -2.8760   22.0524  -28.0393 H   0  0  0  0  0  0  0  0  0  0  0  0
   -4.5028   21.6105  -28.9273 H   0  0  0  0  0  0  0  0  0  0  0  0
   -1.9390   22.8330  -30.1167 H   0  0  0  0  0  0  0  0  0  0  0  0
   -6.3910   24.7430  -28.3980 H   0  0  0  0  0  0  0  0  0  0  0  0
   -5.3900   26.2140  -28.6190 H   0  0  0  0  0  0  0  0  0  0  0  0
   -8.0512   23.9846  -30.6018 H   0  0  0  0  0  0  0  0  0  0  0  0
   -9.4633   21.7376  -31.6830 H   0  0  0  0  0  0  0  0  0  0  0  0
   -9.1163   19.4885  -32.7620 H   0  0  0  0  0  0  0  0  0  0  0  0
   -6.4814   18.1659  -35.4658 H   0  0  0  0  0  0  0  0  0  0  0  0
   -4.9998   18.0017  -34.6326 H   0  0  0  0  0  0  0  0  0  0  0  0
   -6.9522   15.7000  -34.9809 H   0  0  0  0  0  0  0  0  0  0  0  0
   -5.6753   15.3218  -31.9061 H   0  0  0  0  0  0  0  0  0  0  0  0
   -3.9526   15.4810  -32.3897 H   0  0  0  0  0  0  0  0  0  0  0  0
   -5.0225   16.9239  -32.3897 H   0  0  0  0  0  0  0  0  0  0  0  0
   -8.2225   16.8019  -33.0767 H   0  0  0  0  0  0  0  0  0  0  0  0
   -6.8612   16.5436  -32.0789 H   0  0  0  0  0  0  0  0  0  0  0  0
   -4.8005   20.0636  -32.5834 H   0  0  0  0  0  0  0  0  0  0  0  0
  1  2  2  0
  2  3  1  0
  3  4  2  0
  3  5  1  0
  5  6  1  0
  6  7  1  0
  7  8  1  0
  7  9  2  0
  6 10  2  0
 10 11  1  0
 11 12  2  0
 12 13  1  0
 13 14  2  0
 14 15  1  0
 15 16  1  0
 16 17  1  0
 17 18  1  0
 18 19  1  0
 17 20  1  0
 14 21  1  0
 21 22  2  0
 22  5  1  0
 22 11  1  0
 20 15  1  0
  1 23  1  0
  1 24  1  0
  2 25  1  0
  8 26  1  0
  8 27  1  0
 10 28  1  0
 12 29  1  0
 13 30  1  0
 16 31  1  0
 16 32  1  0
 17 33  1  0
 19 34  1  0
 19 35  1  0
 19 36  1  0
 20 37  1  0
 20 38  1  0
 21 39  1  0
M  END
>  <UniqueID>  (4) 
4

>  <SMILES>  (4) 
C=CC(=O)n1c(C(N)=O)cc2ccc(N3CC(OC)C3)cc21

>  <Energy>  (4) 
123.9704275845564

>  <Genealogy>  (4) 
C=CC(=O)n1c(C(N)=O)cc2ccc(N3CC(OC)C3)cc21 (3D coordinates assigned)
C=CC(=O)n1c(C(N)=O)cc2ccc(N3CC(OC)C3)cc21 (nonaromatic ring conformer: 123.9704275845564 kcal/mol)

>  <smiles>  (4) 
C=CC(=O)n1c(C(N)=O)cc2ccc(N3CC(OC)C3)cc21

>  <score_type>  (4) 
oracle

>  <origin>  (4) 
adg

>  <m_score__min__energy>  (4) 
-9.0299999999999994

>  <m_primary>  (4) 
energy

$$$$
4:0
     RDKit          3D

 34 35  0  0  0  0  0  0  0  0999 V2000
   -9.0400   21.4840  -31.4120 C   0  0  0  0  0  0  0  0  0  0  0  0
   -8.6200   20.6480  -32.3600 C   0  0  0  0  0  0  0  0  0  0  0  0
   -7.6300   19.5840  -32.1000 C   0  0  0  0  0  0  0  0  0  0  0  0
   -7.9650   18.5440  -31.4690 O   0  0  0  0  0  0  0  0  0  0  0  0
   -6.2670   19.7460  -32.5250 N   0  0  0  0  0  0  0  0  0  0  0  0
   -5.5870   19.0160  -33.4530 C   0  0  0  0  0  0  0  0  0  0  0  0
   -6.0880   17.7910  -34.1150 C   0  0  0  0  0  0  0  0  0  0  0  0
   -6.8720   16.8390  -33.3930 N   0  0  0  0  0  0  0  0  0  0  0  0
   -5.8470   17.5880  -35.3340 O   0  0  0  0  0  0  0  0  0  0  0  0
   -4.3000   19.5270  -33.6240 C   0  0  0  0  0  0  0  0  0  0  0  0
   -4.2150   20.5960  -32.7610 C   0  0  0  0  0  0  0  0  0  0  0  0
   -3.1590   21.4690  -32.5210 C   0  0  0  0  0  0  0  0  0  0  0  0
   -3.3550   22.4970  -31.5830 C   0  0  0  0  0  0  0  0  0  0  0  0
   -4.5970   22.6360  -30.9050 C   0  0  0  0  0  0  0  0  0  0  0  0
   -4.8140   23.7520  -29.9030 C   0  0  2  0  0  0  0  0  0  0  0  0
   -6.2430   24.3040  -29.9850 C   0  0  0  0  0  0  0  0  0  0  0  0
   -3.7840   24.8350  -30.0810 C   0  0  0  0  0  0  0  0  0  0  0  0
   -3.8810   25.6730  -31.0170 O   0  0  0  0  0  0  0  0  0  0  0  0
   -2.6800   24.8800  -29.2380 O   0  0  0  0  0  0  0  0  0  0  0  0
   -5.6430   21.7250  -31.1800 C   0  0  0  0  0  0  0  0  0  0  0  0
   -5.4130   20.7050  -32.1080 C   0  0  0  0  0  0  0  0  0  0  0  0
   -9.7795   22.2619  -31.6529 H   0  0  0  0  0  0  0  0  0  0  0  0
   -8.6473   21.3966  -30.3882 H   0  0  0  0  0  0  0  0  0  0  0  0
   -9.0267   20.7545  -33.3765 H   0  0  0  0  0  0  0  0  0  0  0  0
   -7.0450   16.9410  -32.3690 H   0  0  0  0  0  0  0  0  0  0  0  0
   -7.2520   15.9970  -33.8800 H   0  0  0  0  0  0  0  0  0  0  0  0
   -3.5194   19.1548  -34.3038 H   0  0  0  0  0  0  0  0  0  0  0  0
   -2.2004   21.3582  -33.0489 H   0  0  0  0  0  0  0  0  0  0  0  0
   -2.5380   23.2023  -31.3709 H   0  0  0  0  0  0  0  0  0  0  0  0
   -4.6879   23.3360  -28.8925 H   0  0  0  0  0  0  0  0  0  0  0  0
   -6.6363   24.4559  -28.9690 H   0  0  0  0  0  0  0  0  0  0  0  0
   -6.2351   25.2638  -30.5224 H   0  0  0  0  0  0  0  0  0  0  0  0
   -6.8823   23.5881  -30.5224 H   0  0  0  0  0  0  0  0  0  0  0  0
   -6.6159   21.8169  -30.6750 H   0  0  0  0  0  0  0  0  0  0  0  0
  1  2  2  0
  2  3  1  0
  3  4  2  0
  3  5  1  0
  5  6  1  0
  6  7  1  0
  7  8  1  0
  7  9  2  0
  6 10  2  0
 10 11  1  0
 11 12  2  0
 12 13  1  0
 13 14  2  0
 14 15  1  0
 15 16  1  0
 15 17  1  0
 17 18  2  0
 17 19  1  0
 14 20  1  0
 20 21  2  0
 21  5  1  0
 21 11  1  0
  1 22  1  0
  1 23  1  0
  2 24  1  0
  8 25  1  0
  8 26  1  0
 10 27  1  0
 12 28  1  0
 13 29  1  0
 15 30  1  1
 16 31  1  0
 16 32  1  0
 16 33  1  0
 20 34  1  0
M  CHG  1  19  -1
M  END
>  <UniqueID>  (5) 
5

>  <SMILES>  (5) 
C=CC(=O)n1c(C(N)=O)cc2ccc([C@H](C)C(=O)[O-])cc21

>  <Energy>  (5) 
70.98565193602336

>  <Genealogy>  (5) 
C=CC(=O)n1c(C(N)=O)cc2ccc(C(C)C(=O)[O-])cc21 (protonated)
C=CC(=O)n1c(C(N)=O)cc2ccc([C@H](C)C(=O)[O-])cc21 (chirality)
C=CC(=O)n1c(C(N)=O)cc2ccc([C@H](C)C(=O)[O-])cc21 (3D coordinates assigned)
C=CC(=O)n1c(C(N)=O)cc2ccc([C@H](C)C(=O)[O-])cc21 (optimized conformer: 70.98565193602336 kcal/mol)

>  <smiles>  (5) 
C=CC(=O)n1c(C(N)=O)cc2ccc(C(C)C(=O)O)cc21

>  <score_type>  (5) 
oracle

>  <origin>  (5) 
adg

>  <m_score__min__energy>  (5) 
-10.029999999999999

>  <m_primary>  (5) 
energy

$$$$
5:0
     RDKit          3D

 45 47  0  0  0  0  0  0  0  0999 V2000
   -1.4010   18.1330  -34.1540 C   0  0  0  0  0  0  0  0  0  0  0  0
   -2.2940   18.8920  -33.2770 N   0  0  0  0  0  0  0  0  0  0  0  0
   -1.8340   19.3010  -31.9510 C   0  0  0  0  0  0  0  0  0  0  0  0
   -3.4840   19.4880  -33.8090 C   0  0  0  0  0  0  0  0  0  0  0  0
   -3.5090   20.7340  -33.9980 O   0  0  0  0  0  0  0  0  0  0  0  0
   -4.7290   18.6810  -34.1130 C   0  0  1  0  0  0  0  0  0  0  0  0
   -4.4990   17.1800  -34.3340 C   0  0  0  0  0  0  0  0  0  0  0  0
   -5.7470   16.5040  -33.7730 C   0  0  0  0  0  0  0  0  0  0  0  0
   -6.2790   17.4540  -32.7080 C   0  0  0  0  0  0  0  0  0  0  0  0
   -5.6810   18.7430  -33.0110 N   0  0  0  0  0  0  0  0  0  0  0  0
   -6.2070   19.9620  -32.4820 C   0  0  0  0  0  0  0  0  0  0  0  0
   -7.6040   20.1810  -32.4540 C   0  0  0  0  0  0  0  0  0  0  0  0
   -8.1230   21.3850  -31.9530 C   0  0  0  0  0  0  0  0  0  0  0  0
   -7.2250   22.3400  -31.4850 C   0  0  0  0  0  0  0  0  0  0  0  0
   -7.4650   23.5930  -30.9800 C   0  0  0  0  0  0  0  0  0  0  0  0
   -6.2090   24.1230  -30.7080 C   0  0  0  0  0  0  0  0  0  0  0  0
   -6.0220   25.4840  -30.1790 C   0  0  0  0  0  0  0  0  0  0  0  0
   -6.4870   25.8290  -28.8740 N   0  0  0  0  0  0  0  0  0  0  0  0
   -5.3670   26.3270  -30.8480 O   0  0  0  0  0  0  0  0  0  0  0  0
   -5.2200   23.2280  -31.0020 N   0  0  0  0  0  0  0  0  0  0  0  0
   -3.8100   23.3600  -30.7070 C   0  0  0  0  0  0  0  0  0  0  0  0
   -3.2360   24.6360  -30.4270 N   0  0  0  0  0  0  0  0  0  0  0  0
   -3.0540   22.3530  -30.7260 O   0  0  0  0  0  0  0  0  0  0  0  0
   -5.8640   22.1390  -31.4930 C   0  0  0  0  0  0  0  0  0  0  0  0
   -5.3250   20.9480  -32.0020 C   0  0  0  0  0  0  0  0  0  0  0  0
   -0.7039   17.5405  -33.5433 H   0  0  0  0  0  0  0  0  0  0  0  0
   -1.9957   17.4597  -34.7889 H   0  0  0  0  0  0  0  0  0  0  0  0
   -0.8324   18.8284  -34.7889 H   0  0  0  0  0  0  0  0  0  0  0  0
   -2.4216   18.7785  -31.1818 H   0  0  0  0  0  0  0  0  0  0  0  0
   -0.7703   19.0449  -31.8368 H   0  0  0  0  0  0  0  0  0  0  0  0
   -1.9639   20.3873  -31.8368 H   0  0  0  0  0  0  0  0  0  0  0  0
   -5.0937   19.1418  -35.0429 H   0  0  0  0  0  0  0  0  0  0  0  0
   -4.3882   16.9593  -35.4059 H   0  0  0  0  0  0  0  0  0  0  0  0
   -3.5804   16.8255  -33.8435 H   0  0  0  0  0  0  0  0  0  0  0  0
   -6.4949   16.3579  -34.5663 H   0  0  0  0  0  0  0  0  0  0  0  0
   -5.5220   15.5102  -33.3585 H   0  0  0  0  0  0  0  0  0  0  0  0
   -7.3760   17.5163  -32.7605 H   0  0  0  0  0  0  0  0  0  0  0  0
   -6.0278   17.1139  -31.6925 H   0  0  0  0  0  0  0  0  0  0  0  0
   -8.2873   19.4037  -32.8268 H   0  0  0  0  0  0  0  0  0  0  0  0
   -9.2074   21.5685  -31.9309 H   0  0  0  0  0  0  0  0  0  0  0  0
   -8.4415   24.0747  -30.8239 H   0  0  0  0  0  0  0  0  0  0  0  0
   -6.3650   26.8010  -28.5140 H   0  0  0  0  0  0  0  0  0  0  0  0
   -6.9170   25.1100  -28.2520 H   0  0  0  0  0  0  0  0  0  0  0  0
   -3.4030   25.4520  -31.0570 H   0  0  0  0  0  0  0  0  0  0  0  0
   -4.2369   20.7883  -32.0254 H   0  0  0  0  0  0  0  0  0  0  0  0
  1  2  1  0
  2  3  1  0
  2  4  1  0
  4  5  2  0
  4  6  1  0
  6  7  1  0
  7  8  1  0
  8  9  1  0
  9 10  1  0
 10 11  1  0
 11 12  2  0
 12 13  1  0
 13 14  2  0
 14 15  1  0
 15 16  2  0
 16 17  1  0
 17 18  1  0
 17 19  2  0
 16 20  1  0
 20 21  1  0
 21 22  1  0
 21 23  2  0
 20 24  1  0
 24 25  2  0
 10  6  1  0
 25 11  1  0
 24 14  1  0
  1 26  1  0
  1 27  1  0
  1 28  1  0
  3 29  1  0
  3 30  1  0
  3 31  1  0
  6 32  1  6
  7 33  1  0
  7 34  1  0
  8 35  1  0
  8 36  1  0
  9 37  1  0
  9 38  1  0
 12 39  1  0
 13 40  1  0
 15 41  1  0
 18 42  1  0
 18 43  1  0
 22 44  1  0
 25 45  1  0
M  CHG  1  22  -1
M  END
>  <UniqueID>  (6) 
6

>  <SMILES>  (6) 
CN(C)C(=O)[C@H]1CCCN1c1ccc2cc(C(N)=O)n(C([NH-])=O)c2c1

>  <Energy>  (6) 
100.08127890519144

>  <Genealogy>  (6) 
CN(C)C(=O)C1CCCN1c1ccc2cc(C(N)=O)n(C([NH-])=O)c2c1 (protonated)
CN(C)C(=O)[C@H]1CCCN1c1ccc2cc(C(N)=O)n(C([NH-])=O)c2c1 (chirality)
CN(C)C(=O)[C@H]1CCCN1c1ccc2cc(C(N)=O)n(C([NH-])=O)c2c1 (3D coordinates assigned)
CN(C)C(=O)[C@H]1CCCN1c1ccc2cc(C(N)=O)n(C([NH-])=O)c2c1 (nonaromatic ring conformer: 100.08127890519144 kcal/mol)

>  <smiles>  (6) 
CN(C)C(=O)C1CCCN1c1ccc2cc(C(N)=O)n(C(N)=O)c2c1

>  <score_type>  (6) 
oracle

>  <origin>  (6) 
adg

>  <m_score__min__energy>  (6) 
-9.9199999999999999

>  <m_primary>  (6) 
energy

$$$$
6:0
     RDKit          3D

 55 58  0  0  0  0  0  0  0  0999 V2000
    0.7060   21.5350  -35.2240 C   0  0  0  0  0  0  0  0  0  0  0  0
    1.2630   20.3090  -34.6240 N   0  0  0  0  0  0  0  0  0  0  0  0
    1.2640   19.1860  -35.5890 C   0  0  0  0  0  0  0  0  0  0  0  0
   -0.1040   18.5020  -35.6850 C   0  0  0  0  0  0  0  0  0  0  0  0
   -0.6080   17.9930  -34.3170 C   0  0  0  0  0  0  0  0  0  0  0  0
   -2.0290   18.3140  -34.1520 N   0  0  0  0  0  0  0  0  0  0  0  0
   -2.5220   19.4730  -33.6700 C   0  0  0  0  0  0  0  0  0  0  0  0
   -3.8970   19.3470  -33.5650 C   0  0  0  0  0  0  0  0  0  0  0  0
   -4.8640   20.3420  -33.0320 C   0  0  0  0  0  0  0  0  0  0  0  0
   -6.2610   20.1840  -33.2450 C   0  0  0  0  0  0  0  0  0  0  0  0
   -7.1780   21.1250  -32.7450 C   0  0  0  0  0  0  0  0  0  0  0  0
   -6.6800   22.2080  -32.0280 C   0  0  0  0  0  0  0  0  0  0  0  0
   -7.3370   23.2540  -31.4150 C   0  0  0  0  0  0  0  0  0  0  0  0
   -6.3330   24.0290  -30.8260 C   0  0  0  0  0  0  0  0  0  0  0  0
   -6.5540   25.3000  -30.0900 C   0  0  0  0  0  0  0  0  0  0  0  0
   -5.6950   26.4290  -30.2780 N   0  0  0  0  0  0  0  0  0  0  0  0
   -7.5050   25.3950  -29.2720 O   0  0  0  0  0  0  0  0  0  0  0  0
   -5.1150   23.4690  -31.0630 N   0  0  0  0  0  0  0  0  0  0  0  0
   -3.8300   23.9310  -30.6220 C   0  0  0  0  0  0  0  0  0  0  0  0
   -3.5060   25.1270  -30.8410 O   0  0  0  0  0  0  0  0  0  0  0  0
   -2.8650   23.0320  -29.8830 C   0  0  2  0  0  0  0  0  0  0  0  0
   -3.4290   22.8550  -27.8170 I   0  0  0  0  0  0  0  0  0  0  0  0
   -1.3720   23.3850  -30.0460 C   0  0  0  0  0  0  0  0  0  0  0  0
   -0.9300   24.6150  -29.3010 C   0  0  0  0  0  0  0  0  0  0  0  0
   -1.6100   25.6750  -29.3430 O   0  0  0  0  0  0  0  0  0  0  0  0
    0.2120   24.5660  -28.5080 O   0  0  0  0  0  0  0  0  0  0  0  0
   -5.3410   22.3720  -31.8110 C   0  0  0  0  0  0  0  0  0  0  0  0
   -4.4030   21.4620  -32.3000 C   0  0  0  0  0  0  0  0  0  0  0  0
   -4.1670   18.0560  -33.9970 C   0  0  0  0  0  0  0  0  0  0  0  0
   -3.0150   17.4480  -34.3380 N   0  0  0  0  0  0  0  0  0  0  0  0
    0.2230   18.5330  -33.1360 C   0  0  0  0  0  0  0  0  0  0  0  0
    0.6160   20.0100  -33.3180 C   0  0  0  0  0  0  0  0  0  0  0  0
    0.3929   22.2242  -34.4259 H   0  0  0  0  0  0  0  0  0  0  0  0
    1.4725   22.0193  -35.8469 H   0  0  0  0  0  0  0  0  0  0  0  0
   -0.1630   21.2763  -35.8469 H   0  0  0  0  0  0  0  0  0  0  0  0
    1.5368   19.5728  -36.5820 H   0  0  0  0  0  0  0  0  0  0  0  0
    1.9903   18.4390  -35.2361 H   0  0  0  0  0  0  0  0  0  0  0  0
   -0.8323   19.2240  -36.0828 H   0  0  0  0  0  0  0  0  0  0  0  0
    0.0040   17.6301  -36.3469 H   0  0  0  0  0  0  0  0  0  0  0  0
   -0.4818   16.9003  -34.3081 H   0  0  0  0  0  0  0  0  0  0  0  0
   -1.9337   20.3642  -33.4060 H   0  0  0  0  0  0  0  0  0  0  0  0
   -6.6291   19.3139  -33.8085 H   0  0  0  0  0  0  0  0  0  0  0  0
   -8.2584   21.0082  -32.9159 H   0  0  0  0  0  0  0  0  0  0  0  0
   -8.4210   23.4395  -31.3938 H   0  0  0  0  0  0  0  0  0  0  0  0
   -4.8830   26.4080  -30.9330 H   0  0  0  0  0  0  0  0  0  0  0  0
   -5.8970   27.3260  -29.7810 H   0  0  0  0  0  0  0  0  0  0  0  0
   -2.9538   22.0494  -30.3695 H   0  0  0  0  0  0  0  0  0  0  0  0
   -0.7774   22.5333  -29.6839 H   0  0  0  0  0  0  0  0  0  0  0  0
   -1.2188   23.5980  -31.1143 H   0  0  0  0  0  0  0  0  0  0  0  0
   -3.3282   21.6120  -32.1204 H   0  0  0  0  0  0  0  0  0  0  0  0
   -5.1667   17.6003  -34.0522 H   0  0  0  0  0  0  0  0  0  0  0  0
   -0.3698   18.4367  -32.2144 H   0  0  0  0  0  0  0  0  0  0  0  0
    1.1508   17.9444  -33.0836 H   0  0  0  0  0  0  0  0  0  0  0  0
   -0.2939   20.6225  -33.2348 H   0  0  0  0  0  0  0  0  0  0  0  0
    1.3556   20.2404  -32.5370 H   0  0  0  0  0  0  0  0  0  0  0  0
  1  2  1  0
  2  3  1  0
  3  4  1  0
  4  5  1  0
  5  6  1  0
  6  7  1  0
  7  8  2  0
  8  9  1  0
  9 10  2  0
 10 11  1  0
 11 12  2  0
 12 13  1  0
 13 14  2  0
 14 15  1  0
 15 16  1  0
 15 17  2  0
 14 18  1  0
 18 19  1  0
 19 20  2  0
 19 21  1  0
 21 22  1  0
 21 23  1  0
 23 24  1  0
 24 25  2  0
 24 26  1  0
 18 27  1  0
 27 28  2  0
  8 29  1  0
 29 30  2  0
  5 31  1  0
 31 32  1  0
 32  2  1  0
 30  6  1  0
 28  9  1  0
 27 12  1  0
  1 33  1  0
  1 34  1  0
  1 35  1  0
  3 36  1  0
  3 37  1  0
  4 38  1  0
  4 39  1  0
  5 40  1  0
  7 41  1  0
 10 42  1  0
 11 43  1  0
 13 44  1  0
 16 45  1  0
 16 46  1  0
 21 47  1  6
 23 48  1  0
 23 49  1  0
 28 50  1  0
 29 51  1  0
 31 52  1  0
 31 53  1  0
 32 54  1  0
 32 55  1  0
M  CHG  1  26  -1
M  END
>  <UniqueID>  (7) 
7

>  <SMILES>  (7) 
CN1CCC(n2cc(-c3ccc4cc(C(N)=O)n(C(=O)[C@H](I)CC(=O)[O-])c4c3)cn2)CC1

>  <Energy>  (7) 
138.89404158857465

>  <Genealogy>  (7) 
CN1CCC(n2cc(-c3ccc4cc(C(N)=O)n(C(=O)C(I)CC(=O)[O-])c4c3)cn2)CC1 (protonated)
CN1CCC(n2cc(-c3ccc4cc(C(N)=O)n(C(=O)[C@H](I)CC(=O)[O-])c4c3)cn2)CC1 (chirality)
CN1CCC(n2cc(-c3ccc4cc(C(N)=O)n(C(=O)[C@H](I)CC(=O)[O-])c4c3)cn2)CC1 (3D coordinates assigned)
CN1CCC(n2cc(-c3ccc4cc(C(N)=O)n(C(=O)[C@H](I)CC(=O)[O-])c4c3)cn2)CC1 (nonaromatic ring conformer: 138.89404158857465 kcal/mol)

>  <smiles>  (7) 
CN1CCC(n2cc(-c3ccc4cc(C(N)=O)n(C(=O)C(I)CC(=O)O)c4c3)cn2)CC1

>  <score_type>  (7) 
oracle

>  <origin>  (7) 
adg

>  <m_score__min__energy>  (7) 
-12.33

>  <m_primary>  (7) 
energy

$$$$
7:0
     RDKit          3D

 43 44  0  0  0  0  0  0  0  0999 V2000
   -4.1630   16.8400  -34.7700 C   0  0  0  0  0  0  0  0  0  0  0  0
   -5.1830   17.0140  -33.7310 N   0  0  0  0  0  0  0  0  0  0  0  0
   -5.1840   16.1440  -32.5490 C   0  0  0  0  0  0  0  0  0  0  0  0
   -6.1660   18.0620  -33.8820 C   0  0  0  0  0  0  0  0  0  0  0  0
   -6.0810   18.8550  -34.8620 O   0  0  0  0  0  0  0  0  0  0  0  0
   -7.2560   18.2740  -32.8550 C   0  0  0  0  0  0  0  0  0  0  0  0
   -7.4030   19.7270  -32.4840 C   0  0  0  0  0  0  0  0  0  0  0  0
   -8.6890   20.3160  -32.3850 C   0  0  0  0  0  0  0  0  0  0  0  0
   -8.8360   21.6510  -31.9690 C   0  0  0  0  0  0  0  0  0  0  0  0
   -7.6830   22.3650  -31.6510 C   0  0  0  0  0  0  0  0  0  0  0  0
   -7.5340   23.6440  -31.1600 C   0  0  0  0  0  0  0  0  0  0  0  0
   -6.1630   23.8090  -30.9680 C   0  0  0  0  0  0  0  0  0  0  0  0
   -5.5450   25.0550  -30.4660 C   0  0  0  0  0  0  0  0  0  0  0  0
   -4.2500   25.4590  -30.9040 N   0  0  0  0  0  0  0  0  0  0  0  0
   -6.1770   25.7830  -29.6550 O   0  0  0  0  0  0  0  0  0  0  0  0
   -5.4950   22.6800  -31.3300 N   0  0  0  0  0  0  0  0  0  0  0  0
   -4.0970   22.3970  -31.1940 C   0  0  0  0  0  0  0  0  0  0  0  0
   -3.2870   22.8140  -32.0650 O   0  0  0  0  0  0  0  0  0  0  0  0
   -3.6060   21.5150  -30.0850 C   0  0  0  0  0  0  0  0  0  0  0  0
   -2.5810   22.1740  -29.3670 O   0  0  0  0  0  0  0  0  0  0  0  0
   -2.8520   23.5580  -29.2730 C   0  0  0  0  0  0  0  0  0  0  0  0
   -1.5610   24.3020  -29.1600 C   0  0  0  0  0  0  0  0  0  0  0  0
   -0.4810   23.6770  -28.9950 O   0  0  0  0  0  0  0  0  0  0  0  0
   -1.5430   25.6850  -29.2970 O   0  0  0  0  0  0  0  0  0  0  0  0
   -6.4350   21.8080  -31.7470 C   0  0  0  0  0  0  0  0  0  0  0  0
   -6.2570   20.4840  -32.1580 C   0  0  0  0  0  0  0  0  0  0  0  0
   -3.1836   16.6729  -34.2980 H   0  0  0  0  0  0  0  0  0  0  0  0
   -4.4212   15.9729  -35.3957 H   0  0  0  0  0  0  0  0  0  0  0  0
   -4.1191   17.7436  -35.3957 H   0  0  0  0  0  0  0  0  0  0  0  0
   -5.1833   16.7619  -31.6389 H   0  0  0  0  0  0  0  0  0  0  0  0
   -6.0829   15.5101  -32.5611 H   0  0  0  0  0  0  0  0  0  0  0  0
   -4.2866   15.5080  -32.5611 H   0  0  0  0  0  0  0  0  0  0  0  0
   -8.2096   17.9144  -33.2690 H   0  0  0  0  0  0  0  0  0  0  0  0
   -6.9825   17.7162  -31.9472 H   0  0  0  0  0  0  0  0  0  0  0  0
   -9.5805   19.7226  -32.6361 H   0  0  0  0  0  0  0  0  0  0  0  0
   -9.8299   22.1168  -31.8970 H   0  0  0  0  0  0  0  0  0  0  0  0
   -8.3282   24.3788  -30.9617 H   0  0  0  0  0  0  0  0  0  0  0  0
   -3.4940   25.6760  -30.2170 H   0  0  0  0  0  0  0  0  0  0  0  0
   -4.4393   21.2858  -29.4045 H   0  0  0  0  0  0  0  0  0  0  0  0
   -3.2087   20.5822  -30.5116 H   0  0  0  0  0  0  0  0  0  0  0  0
   -3.3909   23.8898  -30.1727 H   0  0  0  0  0  0  0  0  0  0  0  0
   -3.4723   23.7550  -28.3862 H   0  0  0  0  0  0  0  0  0  0  0  0
   -5.2512   20.0438  -32.2256 H   0  0  0  0  0  0  0  0  0  0  0  0
  1  2  1  0
  2  3  1  0
  2  4  1  0
  4  5  2  0
  4  6  1  0
  6  7  1  0
  7  8  2  0
  8  9  1  0
  9 10  2  0
 10 11  1  0
 11 12  2  0
 12 13  1  0
 13 14  1  0
 13 15  2  0
 12 16  1  0
 16 17  1  0
 17 18  2  0
 17 19  1  0
 19 20  1  0
 20 21  1  0
 21 22  1  0
 22 23  2  0
 22 24  1  0
 16 25  1  0
 25 26  2  0
 26  7  1  0
 25 10  1  0
  1 27  1  0
  1 28  1  0
  1 29  1  0
  3 30  1  0
  3 31  1  0
  3 32  1  0
  6 33  1  0
  6 34  1  0
  8 35  1  0
  9 36  1  0
 11 37  1  0
 14 38  1  0
 19 39  1  0
 19 40  1  0
 21 41  1  0
 21 42  1  0
 26 43  1  0
M  CHG  2  14  -1  24  -1
M  END
>  <UniqueID>  (8) 
8

>  <SMILES>  (8) 
CN(C)C(=O)Cc1ccc2cc(C([NH-])=O)n(C(=O)COCC(=O)[O-])c2c1

>  <Energy>  (8) 
78.72254148231491

>  <Genealogy>  (8) 
CN(C)C(=O)Cc1ccc2cc(C([NH-])=O)n(C(=O)COCC(=O)[O-])c2c1 (protonated)
CN(C)C(=O)Cc1ccc2cc(C([NH-])=O)n(C(=O)COCC(=O)[O-])c2c1 (3D coordinates assigned)
CN(C)C(=O)Cc1ccc2cc(C([NH-])=O)n(C(=O)COCC(=O)[O-])c2c1 (optimized conformer: 78.72254148231491 kcal/mol)

>  <smiles>  (8) 
CN(C)C(=O)Cc1ccc2cc(C(N)=O)n(C(=O)COCC(=O)O)c2c1

>  <score_type>  (8) 
oracle

>  <origin>  (8) 
adg

>  <m_score__min__energy>  (8) 
-13.08

>  <m_primary>  (8) 
energy

$$$$
8:0
     RDKit          3D

 42 44  0  0  0  0  0  0  0  0999 V2000
   -3.0540   20.6870  -32.4380 C   0  0  0  0  0  0  0  0  0  0  0  0
   -3.4610   21.9500  -32.5490 C   0  0  0  0  0  0  0  0  0  0  0  0
   -3.9820   22.7230  -31.4080 C   0  0  0  0  0  0  0  0  0  0  0  0
   -3.1780   23.1370  -30.5310 O   0  0  0  0  0  0  0  0  0  0  0  0
   -5.3760   23.0460  -31.2900 N   0  0  0  0  0  0  0  0  0  0  0  0
   -5.9380   24.2040  -30.8400 C   0  0  0  0  0  0  0  0  0  0  0  0
   -5.2060   25.4260  -30.4470 C   0  0  0  0  0  0  0  0  0  0  0  0
   -3.8640   25.6490  -30.8730 N   0  0  0  0  0  0  0  0  0  0  0  0
   -5.7810   26.2980  -29.7410 O   0  0  0  0  0  0  0  0  0  0  0  0
   -7.3290   24.0980  -30.8380 C   0  0  0  0  0  0  0  0  0  0  0  0
   -7.6000   22.8330  -31.3130 C   0  0  0  0  0  0  0  0  0  0  0  0
   -8.8170   22.1880  -31.5090 C   0  0  0  0  0  0  0  0  0  0  0  0
   -8.7910   20.8680  -31.9930 C   0  0  0  0  0  0  0  0  0  0  0  0
   -7.5600   20.2240  -32.2730 C   0  0  0  0  0  0  0  0  0  0  0  0
   -7.5490   18.7930  -32.7480 C   0  0  0  0  0  0  0  0  0  0  0  0
   -6.1150   18.2900  -33.0220 C   0  0  0  0  0  0  0  0  0  0  0  0
   -5.9530   16.8070  -32.6080 C   0  0  0  0  0  0  0  0  0  0  0  0
   -6.0520   15.8800  -33.8300 C   0  0  0  0  0  0  0  0  0  0  0  0
   -5.0520   16.1180  -34.8150 O   0  0  0  0  0  0  0  0  0  0  0  0
   -4.6380   17.4780  -34.9120 C   0  0  0  0  0  0  0  0  0  0  0  0
   -5.7160   18.4930  -34.5030 C   0  0  0  0  0  0  0  0  0  0  0  0
   -6.3440   20.9120  -32.0580 C   0  0  0  0  0  0  0  0  0  0  0  0
   -6.4030   22.2230  -31.5810 C   0  0  0  0  0  0  0  0  0  0  0  0
   -2.6727   20.1524  -33.3205 H   0  0  0  0  0  0  0  0  0  0  0  0
   -3.0991   20.1782  -31.4638 H   0  0  0  0  0  0  0  0  0  0  0  0
   -3.4059   22.4367  -33.5339 H   0  0  0  0  0  0  0  0  0  0  0  0
   -3.0560   25.3000  -30.3110 H   0  0  0  0  0  0  0  0  0  0  0  0
   -8.0554   24.8620  -30.5239 H   0  0  0  0  0  0  0  0  0  0  0  0
   -9.7691   22.6944  -31.2923 H   0  0  0  0  0  0  0  0  0  0  0  0
   -9.7362   20.3295  -32.1560 H   0  0  0  0  0  0  0  0  0  0  0  0
   -8.0074   18.1580  -31.9755 H   0  0  0  0  0  0  0  0  0  0  0  0
   -8.1149   18.7413  -33.6898 H   0  0  0  0  0  0  0  0  0  0  0  0
   -5.4331   18.8934  -32.4048 H   0  0  0  0  0  0  0  0  0  0  0  0
   -4.9704   16.6716  -32.1324 H   0  0  0  0  0  0  0  0  0  0  0  0
   -6.7597   16.5490  -31.9061 H   0  0  0  0  0  0  0  0  0  0  0  0
   -5.9579   14.8399  -33.4847 H   0  0  0  0  0  0  0  0  0  0  0  0
   -7.0236   16.0798  -34.3055 H   0  0  0  0  0  0  0  0  0  0  0  0
   -3.7642   17.6204  -34.2592 H   0  0  0  0  0  0  0  0  0  0  0  0
   -4.4119   17.6656  -35.9720 H   0  0  0  0  0  0  0  0  0  0  0  0
   -5.3234   19.5119  -34.6360 H   0  0  0  0  0  0  0  0  0  0  0  0
   -6.6039   18.3441  -35.1350 H   0  0  0  0  0  0  0  0  0  0  0  0
   -5.3774   20.4277  -32.2610 H   0  0  0  0  0  0  0  0  0  0  0  0
  1  2  2  0
  2  3  1  0
  3  4  2  0
  3  5  1  0
  5  6  1  0
  6  7  1  0
  7  8  1  0
  7  9  2  0
  6 10  2  0
 10 11  1  0
 11 12  2  0
 12 13  1  0
 13 14  2  0
 14 15  1  0
 15 16  1  0
 16 17  1  0
 17 18  1  0
 18 19  1  0
 19 20  1  0
 20 21  1  0
 14 22  1  0
 22 23  2  0
 23  5  1  0
 23 11  1  0
 21 16  1  0
  1 24  1  0
  1 25  1  0
  2 26  1  0
  8 27  1  0
 10 28  1  0
 12 29  1  0
 13 30  1  0
 15 31  1  0
 15 32  1  0
 16 33  1  0
 17 34  1  0
 17 35  1  0
 18 36  1  0
 18 37  1  0
 20 38  1  0
 20 39  1  0
 21 40  1  0
 21 41  1  0
 22 42  1  0
M  CHG  1   8  -1
M  END
>  <UniqueID>  (9) 
9

>  <SMILES>  (9) 
C=CC(=O)n1c(C([NH-])=O)cc2ccc(CC3CCOCC3)cc21

>  <Energy>  (9) 
89.85669346889257

>  <Genealogy>  (9) 
C=CC(=O)n1c(C([NH-])=O)cc2ccc(CC3CCOCC3)cc21 (protonated)
C=CC(=O)n1c(C([NH-])=O)cc2ccc(CC3CCOCC3)cc21 (3D coordinates assigned)
C=CC(=O)n1c(C([NH-])=O)cc2ccc(CC3CCOCC3)cc21 (nonaromatic ring conformer: 89.85669346889257 kcal/mol)

>  <smiles>  (9) 
C=CC(=O)n1c(C(N)=O)cc2ccc(CC3CCOCC3)cc21

>  <score_type>  (9) 
oracle

>  <origin>  (9) 
adg

>  <m_score__min__energy>  (9) 
-11.41

>  <m_primary>  (9) 
energy

$$$$
9:0
     RDKit          3D

 46 48  0  0  0  0  0  0  0  0999 V2000
   -1.5840   25.6730  -29.3360 N   0  0  0  0  0  0  0  0  0  0  0  0
   -2.5440   24.8810  -28.6410 C   0  0  0  0  0  0  0  0  0  0  0  0
   -2.4590   24.7390  -27.3920 O   0  0  0  0  0  0  0  0  0  0  0  0
   -3.6400   24.2500  -29.3770 C   0  0  0  0  0  0  0  0  0  0  0  0
   -4.7720   24.9240  -29.8190 C   0  0  0  0  0  0  0  0  0  0  0  0
   -5.5440   23.9610  -30.4330 C   0  0  0  0  0  0  0  0  0  0  0  0
   -6.7700   24.0760  -31.0780 C   0  0  0  0  0  0  0  0  0  0  0  0
   -7.3240   22.9180  -31.6500 C   0  0  0  0  0  0  0  0  0  0  0  0
   -6.6370   21.6780  -31.5920 C   0  0  0  0  0  0  0  0  0  0  0  0
   -7.2190   20.5010  -32.1820 N   0  0  0  0  0  0  0  0  0  0  0  0
   -6.3420   19.4620  -32.7370 C   0  0  0  0  0  0  0  0  0  0  0  0
   -7.1440   18.2150  -33.1040 C   0  0  0  0  0  0  0  0  0  0  0  0
   -8.1380   17.9930  -32.1300 O   0  0  0  0  0  0  0  0  0  0  0  0
   -9.1770   18.9440  -32.2800 C   0  0  0  0  0  0  0  0  0  0  0  0
   -8.6780   20.4070  -32.3420 C   0  0  0  0  0  0  0  0  0  0  0  0
   -5.3870   21.6050  -30.9340 C   0  0  0  0  0  0  0  0  0  0  0  0
   -4.8780   22.7640  -30.3390 C   0  0  0  0  0  0  0  0  0  0  0  0
   -3.7090   22.9270  -29.6800 N   0  0  0  0  0  0  0  0  0  0  0  0
   -2.7370   21.9200  -29.3440 C   0  0  0  0  0  0  0  0  0  0  0  0
   -3.0790   20.7070  -29.3400 O   0  0  0  0  0  0  0  0  0  0  0  0
   -1.3320   22.2830  -29.0630 C   0  0  0  0  0  0  0  0  0  0  0  0
   -0.7040   23.0200  -29.8690 O   0  0  0  0  0  0  0  0  0  0  0  0
   -0.6060   21.7250  -27.8690 C   0  0  0  0  0  0  0  0  0  0  0  0
   -0.2690   22.8440  -26.8760 C   0  0  0  0  0  0  0  0  0  0  0  0
    0.9330   23.6770  -27.3360 C   0  0  0  0  0  0  0  0  0  0  0  0
    0.5270   24.6870  -28.2210 O   0  0  0  0  0  0  0  0  0  0  0  0
   -0.8020   25.2270  -29.8620 H   0  0  0  0  0  0  0  0  0  0  0  0
   -5.0021   25.9935  -29.7039 H   0  0  0  0  0  0  0  0  0  0  0  0
   -7.2903   25.0432  -31.1388 H   0  0  0  0  0  0  0  0  0  0  0  0
   -8.3027   22.9737  -32.1490 H   0  0  0  0  0  0  0  0  0  0  0  0
   -5.8476   19.8514  -33.6392 H   0  0  0  0  0  0  0  0  0  0  0  0
   -5.5938   19.1895  -31.9780 H   0  0  0  0  0  0  0  0  0  0  0  0
   -7.6184   18.3598  -34.0858 H   0  0  0  0  0  0  0  0  0  0  0  0
   -6.4715   17.3456  -33.1467 H   0  0  0  0  0  0  0  0  0  0  0  0
   -9.7187   18.7223  -33.2113 H   0  0  0  0  0  0  0  0  0  0  0  0
   -9.8190   18.8611  -31.3906 H   0  0  0  0  0  0  0  0  0  0  0  0
   -8.9564   20.8358  -33.3160 H   0  0  0  0  0  0  0  0  0  0  0  0
   -9.1459   20.9599  -31.5142 H   0  0  0  0  0  0  0  0  0  0  0  0
   -4.8281   20.6585  -30.8912 H   0  0  0  0  0  0  0  0  0  0  0  0
   -1.2449   20.9800  -27.3722 H   0  0  0  0  0  0  0  0  0  0  0  0
    0.3293   21.2557  -28.2079 H   0  0  0  0  0  0  0  0  0  0  0  0
   -1.1423   23.5054  -26.7765 H   0  0  0  0  0  0  0  0  0  0  0  0
   -0.0112   22.3780  -25.9135 H   0  0  0  0  0  0  0  0  0  0  0  0
    1.4109   24.1366  -26.4583 H   0  0  0  0  0  0  0  0  0  0  0  0
    1.6431   23.0165  -27.8551 H   0  0  0  0  0  0  0  0  0  0  0  0
   -0.4470   24.5640  -28.3700 H   0  0  0  0  0  0  0  0  0  0  0  0
  1  2  1  0
  2  3  2  0
  2  4  1  0
  4  5  2  0
  5  6  1  0
  6  7  2  0
  7  8  1  0
  8  9  2  0
  9 10  1  0
 10 11  1  0
 11 12  1  0
 12 13  1  0
 13 14  1  0
 14 15  1  0
  9 16  1  0
 16 17  2  0
 17 18  1  0
 18 19  1  0
 19 20  2  0
 19 21  1  0
 21 22  2  0
 21 23  1  0
 23 24  1  0
 24 25  1  0
 25 26  1  0
 18  4  1  0
 17  6  1  0
 15 10  1  0
  1 27  1  0
  5 28  1  0
  7 29  1  0
  8 30  1  0
 11 31  1  0
 11 32  1  0
 12 33  1  0
 12 34  1  0
 14 35  1  0
 14 36  1  0
 15 37  1  0
 15 38  1  0
 16 39  1  0
 23 40  1  0
 23 41  1  0
 24 42  1  0
 24 43  1  0
 25 44  1  0
 25 45  1  0
 26 46  1  0
M  CHG  1   1  -1
M  END
>  <UniqueID>  (10) 
10

>  <SMILES>  (10) 
[NH-]C(=O)c1cc2ccc(N3CCOCC3)cc2n1C(=O)C(=O)CCCO

>  <Energy>  (10) 
98.54373050640265

>  <Genealogy>  (10) 
[NH-]C(=O)c1cc2ccc(N3CCOCC3)cc2n1C(=O)C(=O)CCCO (protonated)
[NH-]C(=O)c1cc2ccc(N3CCOCC3)cc2n1C(=O)C(=O)CCCO (3D coordinates assigned)
[NH-]C(=O)c1cc2ccc(N3CCOCC3)cc2n1C(=O)C(=O)CCCO (nonaromatic ring conformer: 98.54373050640265 kcal/mol)

>  <smiles>  (10) 
NC(=O)c1cc2ccc(N3CCOCC3)cc2n1C(=O)C(=O)CCCO

>  <score_type>  (10) 
oracle

>  <origin>  (10) 
adg

>  <m_score__min__energy>  (10) 
-10.890000000000001

>  <m_primary>  (10) 
energy

$$$$
10:0
     RDKit          3D

 33 34  0  0  0  0  0  0  0  0999 V2000
   -5.7300   17.8380  -34.9920 N   0  0  0  0  0  0  0  0  0  0  0  0
   -6.0340   17.9860  -33.8850 C   0  0  0  0  0  0  0  0  0  0  0  0
   -6.4190   18.1730  -32.4830 C   0  0  0  0  0  0  0  0  0  0  0  0
   -6.6310   19.6340  -32.2010 C   0  0  0  0  0  0  0  0  0  0  0  0
   -7.8500   20.2580  -32.5670 C   0  0  0  0  0  0  0  0  0  0  0  0
   -8.0550   21.6270  -32.3230 C   0  0  0  0  0  0  0  0  0  0  0  0
   -7.0200   22.3450  -31.7310 C   0  0  0  0  0  0  0  0  0  0  0  0
   -6.9580   23.6720  -31.3680 C   0  0  0  0  0  0  0  0  0  0  0  0
   -5.6890   23.8460  -30.8190 C   0  0  0  0  0  0  0  0  0  0  0  0
   -5.1700   25.1560  -30.3760 C   0  0  0  0  0  0  0  0  0  0  0  0
   -3.9160   25.6450  -30.8460 N   0  0  0  0  0  0  0  0  0  0  0  0
   -5.8640   25.8760  -29.6100 O   0  0  0  0  0  0  0  0  0  0  0  0
   -4.9970   22.6720  -30.8340 N   0  0  0  0  0  0  0  0  0  0  0  0
   -3.6930   22.4100  -30.2940 C   0  0  0  0  0  0  0  0  0  0  0  0
   -3.4880   21.3570  -29.6290 O   0  0  0  0  0  0  0  0  0  0  0  0
   -2.6480   23.3090  -30.5360 O   0  0  0  0  0  0  0  0  0  0  0  0
   -1.3100   23.1010  -30.0940 C   0  0  0  0  0  0  0  0  0  0  0  0
   -0.9190   24.2060  -28.7030 P   0  0  2  0  0  0  0  0  0  0  0  0
    0.5810   24.3010  -28.5420 O   0  0  0  0  0  0  0  0  0  0  0  0
   -1.5970   23.5790  -27.2870 O   0  0  0  0  0  0  0  0  0  0  0  0
   -1.5540   25.7480  -28.9930 O   0  0  0  0  0  0  0  0  0  0  0  0
   -5.8230   21.7630  -31.3980 C   0  0  0  0  0  0  0  0  0  0  0  0
   -5.6000   20.3990  -31.6110 C   0  0  0  0  0  0  0  0  0  0  0  0
   -7.3514   17.6242  -32.2846 H   0  0  0  0  0  0  0  0  0  0  0  0
   -5.6174   17.7915  -31.8334 H   0  0  0  0  0  0  0  0  0  0  0  0
   -8.6430   19.6653  -33.0465 H   0  0  0  0  0  0  0  0  0  0  0  0
   -9.0034   22.1154  -32.5914 H   0  0  0  0  0  0  0  0  0  0  0  0
   -7.7434   24.4330  -31.4863 H   0  0  0  0  0  0  0  0  0  0  0  0
   -3.0170   25.2750  -30.4660 H   0  0  0  0  0  0  0  0  0  0  0  0
   -1.1942   22.0562  -29.7699 H   0  0  0  0  0  0  0  0  0  0  0  0
   -0.6231   23.3188  -30.9251 H   0  0  0  0  0  0  0  0  0  0  0  0
   -2.0170   25.6720  -29.8650 H   0  0  0  0  0  0  0  0  0  0  0  0
   -4.6452   19.9330  -31.3261 H   0  0  0  0  0  0  0  0  0  0  0  0
  1  2  3  0
  2  3  1  0
  3  4  1  0
  4  5  2  0
  5  6  1  0
  6  7  2  0
  7  8  1  0
  8  9  2  0
  9 10  1  0
 10 11  1  0
 10 12  2  0
  9 13  1  0
 13 14  1  0
 14 15  2  0
 14 16  1  0
 16 17  1  0
 17 18  1  0
 18 19  2  0
 18 20  1  1
 18 21  1  0
 13 22  1  0
 22 23  2  0
 23  4  1  0
 22  7  1  0
  3 24  1  0
  3 25  1  0
  5 26  1  0
  6 27  1  0
  8 28  1  0
 11 29  1  0
 17 30  1  0
 17 31  1  0
 21 32  1  0
 23 33  1  0
M  CHG  2  11  -1  20  -1
M  END
>  <UniqueID>  (11) 
11

>  <SMILES>  (11) 
N#CCc1ccc2cc(C([NH-])=O)n(C(=O)OC[P@](=O)([O-])O)c2c1

>  <Energy>  (11) 
64.5093522595569

>  <Genealogy>  (11) 
N#CCc1ccc2cc(C([NH-])=O)n(C(=O)OCP(=O)([O-])O)c2c1 (protonated)
N#CCc1ccc2cc(C([NH-])=O)n(C(=O)OC[P@](=O)([O-])O)c2c1 (chirality)
N#CCc1ccc2cc(C([NH-])=O)n(C(=O)OC[P@](=O)([O-])O)c2c1 (3D coordinates assigned)
N#CCc1ccc2cc(C([NH-])=O)n(C(=O)OC[P@](=O)([O-])O)c2c1 (optimized conformer: 64.5093522595569 kcal/mol)

>  <smiles>  (11) 
N#CCc1ccc2cc(C(N)=O)n(C(=O)OCP(=O)(O)O)c2c1

>  <score_type>  (11) 
oracle

>  <origin>  (11) 
adg

>  <m_score__min__energy>  (11) 
-12.32

>  <m_primary>  (11) 
energy

$$$$
11:0
     RDKit          3D

 33 34  0  0  0  0  0  0  0  0999 V2000
   -4.1990   25.5740  -30.7440 N   0  0  0  0  0  0  0  0  0  0  0  0
   -5.5510   25.1820  -30.5050 C   0  0  0  0  0  0  0  0  0  0  0  0
   -6.3180   25.9700  -29.8900 O   0  0  0  0  0  0  0  0  0  0  0  0
   -6.0620   23.8850  -31.0010 C   0  0  0  0  0  0  0  0  0  0  0  0
   -7.4110   23.6140  -31.2210 C   0  0  0  0  0  0  0  0  0  0  0  0
   -7.4630   22.2850  -31.5760 C   0  0  0  0  0  0  0  0  0  0  0  0
   -8.5560   21.4890  -31.9020 C   0  0  0  0  0  0  0  0  0  0  0  0
   -8.3160   20.1490  -32.2480 C   0  0  0  0  0  0  0  0  0  0  0  0
   -6.9930   19.6350  -32.2840 C   0  0  0  0  0  0  0  0  0  0  0  0
   -6.7500   18.1850  -32.6200 C   0  0  0  0  0  0  0  0  0  0  0  0
   -7.9070   17.4430  -32.4510 F   0  0  0  0  0  0  0  0  0  0  0  0
   -6.3380   18.0490  -33.9340 F   0  0  0  0  0  0  0  0  0  0  0  0
   -5.7680   17.6840  -31.7850 F   0  0  0  0  0  0  0  0  0  0  0  0
   -5.9110   20.4710  -31.9210 C   0  0  0  0  0  0  0  0  0  0  0  0
   -6.1830   21.7960  -31.5640 C   0  0  0  0  0  0  0  0  0  0  0  0
   -5.3110   22.7680  -31.2120 N   0  0  0  0  0  0  0  0  0  0  0  0
   -3.8800   22.6510  -31.1580 C   0  0  0  0  0  0  0  0  0  0  0  0
   -3.2120   22.5880  -32.2260 O   0  0  0  0  0  0  0  0  0  0  0  0
   -3.2120   22.6240  -29.8910 N   0  0  0  0  0  0  0  0  0  0  0  0
   -3.7050   23.3100  -28.7010 C   0  0  0  0  0  0  0  0  0  0  0  0
   -2.7340   24.4110  -28.2670 C   0  0  0  0  0  0  0  0  0  0  0  0
   -2.2740   25.1320  -29.3770 O   0  0  0  0  0  0  0  0  0  0  0  0
   -3.5200   24.9270  -31.2020 H   0  0  0  0  0  0  0  0  0  0  0  0
   -3.8590   26.5080  -30.4240 H   0  0  0  0  0  0  0  0  0  0  0  0
   -8.2551   24.3135  -31.1303 H   0  0  0  0  0  0  0  0  0  0  0  0
   -9.5776   21.8966  -31.8892 H   0  0  0  0  0  0  0  0  0  0  0  0
   -9.1623   19.4906  -32.4938 H   0  0  0  0  0  0  0  0  0  0  0  0
   -4.8798   20.0881  -31.9195 H   0  0  0  0  0  0  0  0  0  0  0  0
   -4.6840   23.7596  -28.9234 H   0  0  0  0  0  0  0  0  0  0  0  0
   -3.7964   22.5784  -27.8846 H   0  0  0  0  0  0  0  0  0  0  0  0
   -3.2502   25.0972  -27.5795 H   0  0  0  0  0  0  0  0  0  0  0  0
   -1.8724   23.9452  -27.7662 H   0  0  0  0  0  0  0  0  0  0  0  0
   -2.0950   24.4670  -30.0930 H   0  0  0  0  0  0  0  0  0  0  0  0
  1  2  1  0
  2  3  2  0
  2  4  1  0
  4  5  2  0
  5  6  1  0
  6  7  2  0
  7  8  1  0
  8  9  2  0
  9 10  1  0
 10 11  1  0
 10 12  1  0
 10 13  1  0
  9 14  1  0
 14 15  2  0
 15 16  1  0
 16 17  1  0
 17 18  2  0
 17 19  1  0
 19 20  1  0
 20 21  1  0
 21 22  1  0
 16  4  1  0
 15  6  1  0
  1 23  1  0
  1 24  1  0
  5 25  1  0
  7 26  1  0
  8 27  1  0
 14 28  1  0
 20 29  1  0
 20 30  1  0
 21 31  1  0
 21 32  1  0
 22 33  1  0
M  CHG  1  19  -1
M  END
>  <UniqueID>  (12) 
12

>  <SMILES>  (12) 
NC(=O)c1cc2ccc(C(F)(F)F)cc2n1C(=O)[N-]CCO

>  <Energy>  (12) 
68.78134364089662

>  <Genealogy>  (12) 
NC(=O)c1cc2ccc(C(F)(F)F)cc2n1C(=O)[N-]CCO (protonated)
NC(=O)c1cc2ccc(C(F)(F)F)cc2n1C(=O)[N-]CCO (3D coordinates assigned)
NC(=O)c1cc2ccc(C(F)(F)F)cc2n1C(=O)[N-]CCO (optimized conformer: 68.78134364089662 kcal/mol)

>  <smiles>  (12) 
NC(=O)c1cc2ccc(C(F)(F)F)cc2n1C(=O)NCCO

>  <score_type>  (12) 
oracle

>  <origin>  (12) 
adg

>  <m_score__min__energy>  (12) 
-8.5299999999999994

>  <m_primary>  (12) 
energy

$$$$
12:0
     RDKit          3D

 33 35  0  0  0  0  0  0  0  0999 V2000
   -4.1920   25.5610  -30.6140 N   0  0  0  0  0  0  0  0  0  0  0  0
   -5.5450   25.1380  -30.4390 C   0  0  0  0  0  0  0  0  0  0  0  0
   -6.3200   25.8290  -29.7260 O   0  0  0  0  0  0  0  0  0  0  0  0
   -6.0340   23.8740  -31.0250 C   0  0  0  0  0  0  0  0  0  0  0  0
   -7.3670   23.6450  -31.3510 C   0  0  0  0  0  0  0  0  0  0  0  0
   -7.4140   22.3450  -31.8000 C   0  0  0  0  0  0  0  0  0  0  0  0
   -8.4920   21.6000  -32.2680 C   0  0  0  0  0  0  0  0  0  0  0  0
   -8.2450   20.2870  -32.7040 C   0  0  0  0  0  0  0  0  0  0  0  0
   -6.9320   19.7500  -32.6760 C   0  0  0  0  0  0  0  0  0  0  0  0
   -6.6760   18.3760  -33.1500 C   0  0  0  0  0  0  0  0  0  0  0  0
   -7.3370   17.2850  -32.7190 N   0  0  0  0  0  0  0  0  0  0  0  0
   -6.8220   16.2560  -33.3750 N   0  0  0  0  0  0  0  0  0  0  0  0
   -5.8680   16.7550  -34.1820 C   0  0  0  0  0  0  0  0  0  0  0  0
   -5.7750   18.0560  -34.0480 O   0  0  0  0  0  0  0  0  0  0  0  0
   -5.8630   20.5400  -32.1970 C   0  0  0  0  0  0  0  0  0  0  0  0
   -6.1410   21.8360  -31.7470 C   0  0  0  0  0  0  0  0  0  0  0  0
   -5.2810   22.7670  -31.2750 N   0  0  0  0  0  0  0  0  0  0  0  0
   -3.8530   22.6390  -31.1740 C   0  0  0  0  0  0  0  0  0  0  0  0
   -3.1820   22.2750  -32.1790 O   0  0  0  0  0  0  0  0  0  0  0  0
   -3.2120   22.9180  -29.9620 O   0  0  0  0  0  0  0  0  0  0  0  0
   -1.7950   22.9690  -29.8180 C   0  0  0  0  0  0  0  0  0  0  0  0
   -1.3710   24.3170  -29.3260 C   0  0  0  0  0  0  0  0  0  0  0  0
   -2.1840   25.2780  -29.3420 O   0  0  0  0  0  0  0  0  0  0  0  0
   -0.0720   24.5210  -28.8800 O   0  0  0  0  0  0  0  0  0  0  0  0
   -3.8760   26.4780  -30.2280 H   0  0  0  0  0  0  0  0  0  0  0  0
   -3.4820   24.9330  -31.0490 H   0  0  0  0  0  0  0  0  0  0  0  0
   -8.2051   24.3526  -31.2676 H   0  0  0  0  0  0  0  0  0  0  0  0
   -9.5060   22.0255  -32.2959 H   0  0  0  0  0  0  0  0  0  0  0  0
   -9.0781   19.6693  -33.0707 H   0  0  0  0  0  0  0  0  0  0  0  0
   -5.2490   16.1523  -34.8629 H   0  0  0  0  0  0  0  0  0  0  0  0
   -4.8362   20.1458  -32.1781 H   0  0  0  0  0  0  0  0  0  0  0  0
   -1.4758   22.2025  -29.0965 H   0  0  0  0  0  0  0  0  0  0  0  0
   -1.3290   22.7826  -30.7968 H   0  0  0  0  0  0  0  0  0  0  0  0
  1  2  1  0
  2  3  2  0
  2  4  1  0
  4  5  2  0
  5  6  1  0
  6  7  2  0
  7  8  1  0
  8  9  2  0
  9 10  1  0
 10 11  2  0
 11 12  1  0
 12 13  2  0
 13 14  1  0
  9 15  1  0
 15 16  2  0
 16 17  1  0
 17 18  1  0
 18 19  2  0
 18 20  1  0
 20 21  1  0
 21 22  1  0
 22 23  2  0
 22 24  1  0
 17  4  1  0
 16  6  1  0
 14 10  1  0
  1 25  1  0
  1 26  1  0
  5 27  1  0
  7 28  1  0
  8 29  1  0
 13 30  1  0
 15 31  1  0
 21 32  1  0
 21 33  1  0
M  CHG  1  24  -1
M  END
>  <UniqueID>  (13) 
13

>  <SMILES>  (13) 
NC(=O)c1cc2ccc(-c3nnco3)cc2n1C(=O)OCC(=O)[O-]

>  <Energy>  (13) 
107.15570151700001

>  <Genealogy>  (13) 
NC(=O)c1cc2ccc(-c3nnco3)cc2n1C(=O)OCC(=O)[O-] (protonated)
NC(=O)c1cc2ccc(-c3nnco3)cc2n1C(=O)OCC(=O)[O-] (3D coordinates assigned)
NC(=O)c1cc2ccc(-c3nnco3)cc2n1C(=O)OCC(=O)[O-] (optimized conformer: 107.15570151700001 kcal/mol)

>  <smiles>  (13) 
NC(=O)c1cc2ccc(-c3nnco3)cc2n1C(=O)OCC(=O)O

>  <score_type>  (13) 
oracle

>  <origin>  (13) 
adg

>  <m_score__min__energy>  (13) 
-10.73

>  <m_primary>  (13) 
energy

$$$$
13:0
     RDKit          3D

 46 48  0  0  0  0  0  0  0  0999 V2000
   -9.1290   23.4380  -32.3010 N   0  0  0  0  0  0  0  0  0  0  0  0
   -8.8570   22.1170  -31.8320 C   0  0  0  0  0  0  0  0  0  0  0  0
   -9.6630   21.5710  -31.0320 O   0  0  0  0  0  0  0  0  0  0  0  0
   -7.6680   21.3770  -32.3030 C   0  0  0  0  0  0  0  0  0  0  0  0
   -7.7070   20.0820  -32.8190 C   0  0  0  0  0  0  0  0  0  0  0  0
   -6.3920   19.7350  -33.0340 C   0  0  0  0  0  0  0  0  0  0  0  0
   -5.8440   18.5630  -33.5450 C   0  0  0  0  0  0  0  0  0  0  0  0
   -4.4460   18.4900  -33.6760 C   0  0  0  0  0  0  0  0  0  0  0  0
   -3.6250   19.5820  -33.2980 C   0  0  0  0  0  0  0  0  0  0  0  0
   -2.1960   19.5060  -33.4570 N   0  0  0  0  0  0  0  0  0  0  0  0
   -1.6310   18.7230  -34.5660 C   0  0  0  0  0  0  0  0  0  0  0  0
   -0.1180   18.9400  -34.7040 C   0  0  0  0  0  0  0  0  0  0  0  0
    0.2140   20.3690  -34.5570 N   0  0  0  0  0  0  0  0  0  0  0  0
    1.2050   20.9750  -35.4170 C   0  0  0  0  0  0  0  0  0  0  0  0
    1.9150   20.2520  -36.1680 O   0  0  0  0  0  0  0  0  0  0  0  0
    1.3970   22.4630  -35.4700 C   0  0  0  0  0  0  0  0  0  0  0  0
    0.1620   23.0840  -35.6960 O   0  0  0  0  0  0  0  0  0  0  0  0
   -0.3760   21.1430  -33.4500 C   0  0  0  0  0  0  0  0  0  0  0  0
   -1.3030   20.2800  -32.5890 C   0  0  0  0  0  0  0  0  0  0  0  0
   -4.2210   20.7590  -32.7870 C   0  0  0  0  0  0  0  0  0  0  0  0
   -5.6130   20.7960  -32.6570 C   0  0  0  0  0  0  0  0  0  0  0  0
   -6.3800   21.8140  -32.2120 N   0  0  0  0  0  0  0  0  0  0  0  0
   -5.9070   23.1080  -31.8010 C   0  0  0  0  0  0  0  0  0  0  0  0
   -6.3970   24.1430  -32.3270 O   0  0  0  0  0  0  0  0  0  0  0  0
   -4.8550   23.2560  -30.7420 C   0  0  0  0  0  0  0  0  0  0  0  0
   -4.2390   24.5100  -30.8400 O   0  0  0  0  0  0  0  0  0  0  0  0
   -9.9930   23.9370  -31.9910 H   0  0  0  0  0  0  0  0  0  0  0  0
   -8.4600   23.9420  -32.9220 H   0  0  0  0  0  0  0  0  0  0  0  0
   -8.5989   19.4681  -33.0130 H   0  0  0  0  0  0  0  0  0  0  0  0
   -6.4852   17.7186  -33.8378 H   0  0  0  0  0  0  0  0  0  0  0  0
   -3.9842   17.5754  -34.0763 H   0  0  0  0  0  0  0  0  0  0  0  0
   -1.8223   17.6555  -34.3819 H   0  0  0  0  0  0  0  0  0  0  0  0
   -2.1106   19.0555  -35.4985 H   0  0  0  0  0  0  0  0  0  0  0  0
    0.4028   18.3652  -33.9240 H   0  0  0  0  0  0  0  0  0  0  0  0
    0.2006   18.6014  -35.7009 H   0  0  0  0  0  0  0  0  0  0  0  0
    1.8145   22.8134  -34.5145 H   0  0  0  0  0  0  0  0  0  0  0  0
    2.0897   22.7151  -36.2864 H   0  0  0  0  0  0  0  0  0  0  0  0
   -0.5080   22.3540  -35.7420 H   0  0  0  0  0  0  0  0  0  0  0  0
    0.4340   21.5364  -32.8183 H   0  0  0  0  0  0  0  0  0  0  0  0
   -0.9709   21.9614  -33.8816 H   0  0  0  0  0  0  0  0  0  0  0  0
   -0.7005   19.5929  -31.9768 H   0  0  0  0  0  0  0  0  0  0  0  0
   -1.9014   20.9279  -31.9316 H   0  0  0  0  0  0  0  0  0  0  0  0
   -3.6048   21.6235  -32.4991 H   0  0  0  0  0  0  0  0  0  0  0  0
   -5.3217   23.1575  -29.7508 H   0  0  0  0  0  0  0  0  0  0  0  0
   -4.0953   22.4726  -30.8806 H   0  0  0  0  0  0  0  0  0  0  0  0
   -4.6090   24.9350  -31.6570 H   0  0  0  0  0  0  0  0  0  0  0  0
  1  2  1  0
  2  3  2  0
  2  4  1  0
  4  5  2  0
  5  6  1  0
  6  7  2  0
  7  8  1  0
  8  9  2  0
  9 10  1  0
 10 11  1  0
 11 12  1  0
 12 13  1  0
 13 14  1  0
 14 15  2  0
 14 16  1  0
 16 17  1  0
 13 18  1  0
 18 19  1  0
  9 20  1  0
 20 21  2  0
 21 22  1  0
 22 23  1  0
 23 24  2  0
 23 25  1  0
 25 26  1  0
 22  4  1  0
 21  6  1  0
 19 10  1  0
  1 27  1  0
  1 28  1  0
  5 29  1  0
  7 30  1  0
  8 31  1  0
 11 32  1  0
 11 33  1  0
 12 34  1  0
 12 35  1  0
 16 36  1  0
 16 37  1  0
 17 38  1  0
 18 39  1  0
 18 40  1  0
 19 41  1  0
 19 42  1  0
 20 43  1  0
 25 44  1  0
 25 45  1  0
 26 46  1  0
M  END
>  <UniqueID>  (14) 
14

>  <SMILES>  (14) 
NC(=O)c1cc2ccc(N3CCN(C(=O)CO)CC3)cc2n1C(=O)CO

>  <Energy>  (14) 
89.65947678241832

>  <Genealogy>  (14) 
NC(=O)c1cc2ccc(N3CCN(C(=O)CO)CC3)cc2n1C(=O)CO (3D coordinates assigned)
NC(=O)c1cc2ccc(N3CCN(C(=O)CO)CC3)cc2n1C(=O)CO (nonaromatic ring conformer: 89.65947678241832 kcal/mol)

>  <smiles>  (14) 
NC(=O)c1cc2ccc(N3CCN(C(=O)CO)CC3)cc2n1C(=O)CO

>  <score_type>  (14) 
oracle

>  <origin>  (14) 
adg

>  <m_score__min__energy>  (14) 
-8.6600000000000001

>  <m_primary>  (14) 
energy

$$$$
14:0
     RDKit          3D

 47 48  0  0  0  0  0  0  0  0999 V2000
   -1.5550   25.7750  -28.1800 C   0  0  0  0  0  0  0  0  0  0  0  0
   -2.0800   25.0820  -29.3040 O   0  0  0  0  0  0  0  0  0  0  0  0
   -1.8870   23.7130  -29.5040 C   0  0  0  0  0  0  0  0  0  0  0  0
   -0.9320   23.2950  -30.2160 O   0  0  0  0  0  0  0  0  0  0  0  0
   -2.8100   22.7320  -28.8460 C   0  0  0  0  0  0  0  0  0  0  0  0
   -3.4440   21.7780  -29.8640 C   0  0  0  0  0  0  0  0  0  0  0  0
   -4.0710   22.5280  -31.0070 C   0  0  0  0  0  0  0  0  0  0  0  0
   -3.3300   23.0350  -31.8930 O   0  0  0  0  0  0  0  0  0  0  0  0
   -5.4880   22.7620  -31.0470 N   0  0  0  0  0  0  0  0  0  0  0  0
   -6.1550   23.9290  -30.8190 C   0  0  0  0  0  0  0  0  0  0  0  0
   -5.5710   25.1680  -30.2640 C   0  0  0  0  0  0  0  0  0  0  0  0
   -4.2360   25.5660  -30.5790 N   0  0  0  0  0  0  0  0  0  0  0  0
   -6.2500   25.8650  -29.4640 O   0  0  0  0  0  0  0  0  0  0  0  0
   -7.5070   23.7890  -31.1240 C   0  0  0  0  0  0  0  0  0  0  0  0
   -7.6530   22.4830  -31.5350 C   0  0  0  0  0  0  0  0  0  0  0  0
   -8.7850   21.8040  -31.9750 C   0  0  0  0  0  0  0  0  0  0  0  0
   -8.6360   20.4650  -32.3730 C   0  0  0  0  0  0  0  0  0  0  0  0
   -7.3660   19.8380  -32.3350 C   0  0  0  0  0  0  0  0  0  0  0  0
   -7.2270   18.3980  -32.7550 C   0  0  0  0  0  0  0  0  0  0  0  0
   -6.1430   18.2210  -33.7930 C   0  0  0  0  0  0  0  0  0  0  0  0
   -6.1170   18.9980  -34.7880 O   0  0  0  0  0  0  0  0  0  0  0  0
   -5.1840   17.1450  -33.7090 N   0  0  0  0  0  0  0  0  0  0  0  0
   -5.3050   16.1020  -32.6830 C   0  0  0  0  0  0  0  0  0  0  0  0
   -4.0880   17.0910  -34.6810 C   0  0  0  0  0  0  0  0  0  0  0  0
   -6.2410   20.5550  -31.8700 C   0  0  0  0  0  0  0  0  0  0  0  0
   -6.4220   21.8840  -31.4730 C   0  0  0  0  0  0  0  0  0  0  0  0
   -1.9149   25.2999  -27.2555 H   0  0  0  0  0  0  0  0  0  0  0  0
   -0.4559   25.7384  -28.2072 H   0  0  0  0  0  0  0  0  0  0  0  0
   -1.8878   26.8231  -28.2072 H   0  0  0  0  0  0  0  0  0  0  0  0
   -2.2397   22.1429  -28.1127 H   0  0  0  0  0  0  0  0  0  0  0  0
   -3.6174   23.2965  -28.3567 H   0  0  0  0  0  0  0  0  0  0  0  0
   -2.6656   21.1090  -30.2598 H   0  0  0  0  0  0  0  0  0  0  0  0
   -4.2320   21.2041  -29.3545 H   0  0  0  0  0  0  0  0  0  0  0  0
   -3.5920   24.9370  -31.1060 H   0  0  0  0  0  0  0  0  0  0  0  0
   -3.8580   26.4670  -30.2100 H   0  0  0  0  0  0  0  0  0  0  0  0
   -8.2906   24.5576  -31.0519 H   0  0  0  0  0  0  0  0  0  0  0  0
   -9.7661   22.3002  -32.0101 H   0  0  0  0  0  0  0  0  0  0  0  0
   -9.5135   19.8980  -32.7174 H   0  0  0  0  0  0  0  0  0  0  0  0
   -6.9774   17.7915  -31.8719 H   0  0  0  0  0  0  0  0  0  0  0  0
   -8.1813   18.0760  -33.1973 H   0  0  0  0  0  0  0  0  0  0  0  0
   -5.2517   16.5615  -31.6850 H   0  0  0  0  0  0  0  0  0  0  0  0
   -6.2691   15.5850  -32.7976 H   0  0  0  0  0  0  0  0  0  0  0  0
   -4.4848   15.3780  -32.7976 H   0  0  0  0  0  0  0  0  0  0  0  0
   -3.1270   17.0437  -34.1478 H   0  0  0  0  0  0  0  0  0  0  0  0
   -4.2015   16.1974  -35.3123 H   0  0  0  0  0  0  0  0  0  0  0  0
   -4.1131   17.9915  -35.3123 H   0  0  0  0  0  0  0  0  0  0  0  0
   -5.2496   20.0810  -31.8215 H   0  0  0  0  0  0  0  0  0  0  0  0
  1  2  1  0
  2  3  1  0
  3  4  2  0
  3  5  1  0
  5  6  1  0
  6  7  1  0
  7  8  2  0
  7  9  1  0
  9 10  1  0
 10 11  1  0
 11 12  1  0
 11 13  2  0
 10 14  2  0
 14 15  1  0
 15 16  2  0
 16 17  1  0
 17 18  2  0
 18 19  1  0
 19 20  1  0
 20 21  2  0
 20 22  1  0
 22 23  1  0
 22 24  1  0
 18 25  1  0
 25 26  2  0
 26  9  1  0
 26 15  1  0
  1 27  1  0
  1 28  1  0
  1 29  1  0
  5 30  1  0
  5 31  1  0
  6 32  1  0
  6 33  1  0
 12 34  1  0
 12 35  1  0
 14 36  1  0
 16 37  1  0
 17 38  1  0
 19 39  1  0
 19 40  1  0
 23 41  1  0
 23 42  1  0
 23 43  1  0
 24 44  1  0
 24 45  1  0
 24 46  1  0
 25 47  1  0
M  END
>  <UniqueID>  (15) 
15

>  <SMILES>  (15) 
COC(=O)CCC(=O)n1c(C(N)=O)cc2ccc(CC(=O)N(C)C)cc21

>  <Energy>  (15) 
75.66595986460656

>  <Genealogy>  (15) 
COC(=O)CCC(=O)n1c(C(N)=O)cc2ccc(CC(=O)N(C)C)cc21 (3D coordinates assigned)
COC(=O)CCC(=O)n1c(C(N)=O)cc2ccc(CC(=O)N(C)C)cc21 (optimized conformer: 75.66595986460656 kcal/mol)

>  <smiles>  (15) 
COC(=O)CCC(=O)n1c(C(N)=O)cc2ccc(CC(=O)N(C)C)cc21

>  <score_type>  (15) 
oracle

>  <origin>  (15) 
adg

>  <m_score__min__energy>  (15) 
-9.1999999999999993

>  <m_primary>  (15) 
energy

$$$$
15:0
     RDKit          3D

 24 25  0  0  0  0  0  0  0  0999 V2000
   -1.5320   25.9530  -28.8980 N   0  0  0  0  0  0  0  0  0  0  0  0
   -0.8720   24.6900  -28.9690 C   0  0  0  0  0  0  0  0  0  0  0  0
    0.2200   24.5300  -28.3650 O   0  0  0  0  0  0  0  0  0  0  0  0
   -1.4980   23.5760  -29.7100 C   0  0  0  0  0  0  0  0  0  0  0  0
   -0.8120   22.4230  -30.0850 C   0  0  0  0  0  0  0  0  0  0  0  0
   -1.7080   21.6880  -30.8250 C   0  0  0  0  0  0  0  0  0  0  0  0
   -1.5550   20.4530  -31.4470 C   0  0  0  0  0  0  0  0  0  0  0  0
   -2.6580   19.9180  -32.1320 C   0  0  0  0  0  0  0  0  0  0  0  0
   -3.8980   20.6090  -32.1630 C   0  0  0  0  0  0  0  0  0  0  0  0
   -5.0630   20.0410  -32.9330 C   0  0  0  0  0  0  0  0  0  0  0  0
   -4.5980   19.4670  -34.1010 F   0  0  0  0  0  0  0  0  0  0  0  0
   -5.9700   21.0370  -33.2510 F   0  0  0  0  0  0  0  0  0  0  0  0
   -5.7210   19.0790  -32.1880 F   0  0  0  0  0  0  0  0  0  0  0  0
   -4.0060   21.8730  -31.5380 C   0  0  0  0  0  0  0  0  0  0  0  0
   -2.8850   22.3890  -30.8770 C   0  0  0  0  0  0  0  0  0  0  0  0
   -2.7720   23.5520  -30.1950 N   0  0  0  0  0  0  0  0  0  0  0  0
   -3.8160   24.5160  -29.9710 C   0  0  0  0  0  0  0  0  0  0  0  0
   -4.6650   24.3330  -29.0600 O   0  0  0  0  0  0  0  0  0  0  0  0
   -3.8820   25.6700  -30.7410 O   0  0  0  0  0  0  0  0  0  0  0  0
   -2.5710   26.0210  -28.9740 H   0  0  0  0  0  0  0  0  0  0  0  0
    0.2270   22.1568  -29.8407 H   0  0  0  0  0  0  0  0  0  0  0  0
   -0.5984   19.9117  -31.4035 H   0  0  0  0  0  0  0  0  0  0  0  0
   -2.5602   18.9527  -32.6504 H   0  0  0  0  0  0  0  0  0  0  0  0
   -4.9493   22.4378  -31.5705 H   0  0  0  0  0  0  0  0  0  0  0  0
  1  2  1  0
  2  3  2  0
  2  4  1  0
  4  5  2  0
  5  6  1  0
  6  7  2  0
  7  8  1  0
  8  9  2  0
  9 10  1  0
 10 11  1  0
 10 12  1  0
 10 13  1  0
  9 14  1  0
 14 15  2  0
 15 16  1  0
 16 17  1  0
 17 18  2  0
 17 19  1  0
 16  4  1  0
 15  6  1  0
  1 20  1  0
  5 21  1  0
  7 22  1  0
  8 23  1  0
 14 24  1  0
M  CHG  2   1  -1  19  -1
M  END
>  <UniqueID>  (16) 
16

>  <SMILES>  (16) 
[NH-]C(=O)c1cc2ccc(C(F)(F)F)cc2n1C(=O)[O-]

>  <Energy>  (16) 
64.71251674997896

>  <Genealogy>  (16) 
[NH-]C(=O)c1cc2ccc(C(F)(F)F)cc2n1C(=O)[O-] (protonated)
[NH-]C(=O)c1cc2ccc(C(F)(F)F)cc2n1C(=O)[O-] (3D coordinates assigned)
[NH-]C(=O)c1cc2ccc(C(F)(F)F)cc2n1C(=O)[O-] (optimized conformer: 64.71251674997896 kcal/mol)

>  <smiles>  (16) 
NC(=O)c1cc2ccc(C(F)(F)F)cc2n1C(=O)O

>  <score_type>  (16) 
oracle

>  <origin>  (16) 
adg

>  <m_score__min__energy>  (16) 
-9.5500000000000007

>  <m_primary>  (16) 
energy

$$$$
16:0
     RDKit          3D

 52 54  0  0  0  0  0  0  0  0999 V2000
   -0.3855   18.2236  -34.0939 H   0  0  0  0  0  0  0  0  0  0  0  0
   -1.0490   18.9190  -33.5590 C   0  0  0  0  0  0  0  0  0  0  0  0
   -0.5560   20.0850  -33.0690 N   0  0  0  0  0  0  0  0  0  0  0  0
   -1.3410   20.9670  -32.3930 C   0  0  0  0  0  0  0  0  0  0  0  0
   -0.9086   21.9039  -32.0120 H   0  0  0  0  0  0  0  0  0  0  0  0
   -2.7020   20.6870  -32.1790 C   0  0  0  0  0  0  0  0  0  0  0  0
   -3.5790   21.6210  -31.4250 C   0  0  0  0  0  0  0  0  0  0  0  0
   -3.2640   21.8980  -30.1940 N   0  0  0  0  0  0  0  0  0  0  0  0
   -3.9760   22.7880  -29.4170 O   0  0  0  0  0  0  0  0  0  0  0  0
   -3.3160   23.7340  -28.5770 C   0  0  0  0  0  0  0  0  0  0  0  0
   -2.8570   24.9160  -29.4000 C   0  0  0  0  0  0  0  0  0  0  0  0
   -3.4970   25.2700  -30.4250 O   0  0  0  0  0  0  0  0  0  0  0  0
   -1.7660   25.6710  -28.9860 O   0  0  0  0  0  0  0  0  0  0  0  0
   -4.2800   24.1810  -27.4620 C   0  0  0  0  0  0  0  0  0  0  0  0
   -3.8284   23.9716  -26.4811 H   0  0  0  0  0  0  0  0  0  0  0  0
   -4.4722   25.2601  -27.5543 H   0  0  0  0  0  0  0  0  0  0  0  0
   -5.2279   23.6305  -27.5543 H   0  0  0  0  0  0  0  0  0  0  0  0
   -2.0910   23.0500  -27.9590 C   0  0  0  0  0  0  0  0  0  0  0  0
   -2.1630   23.0902  -26.8621 H   0  0  0  0  0  0  0  0  0  0  0  0
   -2.0534   22.0003  -28.2857 H   0  0  0  0  0  0  0  0  0  0  0  0
   -1.1777   23.5687  -28.2857 H   0  0  0  0  0  0  0  0  0  0  0  0
   -4.7560   22.2600  -32.0780 C   0  0  0  0  0  0  0  0  0  0  0  0
   -4.5850   23.0590  -33.0380 O   0  0  0  0  0  0  0  0  0  0  0  0
   -6.0960   21.9900  -31.6270 N   0  0  0  0  0  0  0  0  0  0  0  0
   -6.9450   22.8470  -30.9930 C   0  0  0  0  0  0  0  0  0  0  0  0
   -6.6320   24.2260  -30.5600 C   0  0  0  0  0  0  0  0  0  0  0  0
   -7.1920   24.6890  -29.5310 O   0  0  0  0  0  0  0  0  0  0  0  0
   -5.6720   25.0310  -31.2480 N   0  0  0  0  0  0  0  0  0  0  0  0
   -5.5110   26.0180  -30.9500 H   0  0  0  0  0  0  0  0  0  0  0  0
   -5.0560   24.6340  -31.9900 H   0  0  0  0  0  0  0  0  0  0  0  0
   -8.1880   22.2480  -30.7950 C   0  0  0  0  0  0  0  0  0  0  0  0
   -9.0723   22.6906  -30.3132 H   0  0  0  0  0  0  0  0  0  0  0  0
   -8.0740   20.9860  -31.3300 C   0  0  0  0  0  0  0  0  0  0  0  0
   -9.0130   19.9620  -31.4120 C   0  0  0  0  0  0  0  0  0  0  0  0
  -10.0219   20.0826  -30.9906 H   0  0  0  0  0  0  0  0  0  0  0  0
   -8.6320   18.7690  -32.0500 C   0  0  0  0  0  0  0  0  0  0  0  0
   -9.3430   17.9318  -32.1098 H   0  0  0  0  0  0  0  0  0  0  0  0
   -7.3400   18.6350  -32.6170 C   0  0  0  0  0  0  0  0  0  0  0  0
   -6.9310   17.3460  -33.2760 C   0  0  0  0  0  0  0  0  0  0  0  0
   -7.8038   16.9044  -33.7792 H   0  0  0  0  0  0  0  0  0  0  0  0
   -6.5483   16.6599  -32.5061 H   0  0  0  0  0  0  0  0  0  0  0  0
   -5.8320   17.5940  -34.3040 C   0  0  0  0  0  0  0  0  0  0  0  0
   -4.8859   17.8075  -33.7850 H   0  0  0  0  0  0  0  0  0  0  0  0
   -5.7110   16.7006  -34.9342 H   0  0  0  0  0  0  0  0  0  0  0  0
   -6.1064   18.4528  -34.9342 H   0  0  0  0  0  0  0  0  0  0  0  0
   -6.4170   19.6980  -32.5160 C   0  0  0  0  0  0  0  0  0  0  0  0
   -5.4135   19.6159  -32.9591 H   0  0  0  0  0  0  0  0  0  0  0  0
   -6.8080   20.8590  -31.8390 C   0  0  0  0  0  0  0  0  0  0  0  0
   -3.2240   19.4900  -32.6980 C   0  0  0  0  0  0  0  0  0  0  0  0
   -4.2894   19.2522  -32.5624 H   0  0  0  0  0  0  0  0  0  0  0  0
   -2.3950   18.6020  -33.3850 C   0  0  0  0  0  0  0  0  0  0  0  0
   -2.8930   17.4380  -33.8710 F   0  0  0  0  0  0  0  0  0  0  0  0
  1  2  1  0
  2  3  2  0
  3  4  1  0
  4  5  1  0
  4  6  2  0
  6  7  1  0
  7  8  2  0
  8  9  1  0
  9 10  1  0
 10 11  1  0
 11 12  2  0
 11 13  1  0
 10 14  1  0
 14 15  1  0
 14 16  1  0
 14 17  1  0
 10 18  1  0
 18 19  1  0
 18 20  1  0
 18 21  1  0
  7 22  1  0
 22 23  2  0
 22 24  1  0
 24 25  1  0
 25 26  1  0
 26 27  2  0
 26 28  1  0
 28 29  1  0
 28 30  1  0
 25 31  2  0
 31 32  1  0
 31 33  1  0
 33 34  2  0
 34 35  1  0
 34 36  1  0
 36 37  1  0
 36 38  2  0
 38 39  1  0
 39 40  1  0
 39 41  1  0
 39 42  1  0
 42 43  1  0
 42 44  1  0
 42 45  1  0
 38 46  1  0
 46 47  1  0
 46 48  2  0
  6 49  1  0
 49 50  1  0
 49 51  2  0
 51 52  1  0
 51  2  1  0
 48 24  1  0
 48 33  1  0
M  CHG  1  13  -1
M  END
>  <UniqueID>  (17) 
17

>  <SMILES>  (17) 
CCc1ccc2cc(C(N)=O)n(C(=O)/C(=N\OC(C)(C)C(=O)[O-])c3cncc(F)c3)c2c1

>  <Energy>  (17) 
88.82677376740438

>  <Genealogy>  (17) 
CCc1ccc2cc(C(N)=O)n(C(=O)/C(=N\OC(C)(C)C(=O)[O-])c3cncc(F)c3)c2c1 (protonated)
CCc1ccc2cc(C(N)=O)n(C(=O)/C(=N\OC(C)(C)C(=O)[O-])c3cncc(F)c3)c2c1 (cis-trans isomerization)
CCc1ccc2cc(C(N)=O)n(C(=O)/C(=N\OC(C)(C)C(=O)[O-])c3cncc(F)c3)c2c1 (3D coordinates assigned)
CCc1ccc2cc(C(N)=O)n(C(=O)/C(=N\OC(C)(C)C(=O)[O-])c3cncc(F)c3)c2c1 (optimized conformer: 88.82677376740438 kcal/mol)

>  <smiles>  (17) 
CCc1ccc2cc(C(N)=O)n(C(=O)/C(=N\OC(C)(C)C(=O)O)c3cncc(F)c3)c2c1

>  <score_type>  (17) 
oracle

>  <origin>  (17) 
adg

>  <m_score__min__energy>  (17) 
-12.23

>  <m_primary>  (17) 
energy

$$$$
17:0
     RDKit          3D

 42 43  0  0  0  0  0  0  0  0999 V2000
   -3.1410   20.8850  -33.4450 C   0  0  0  0  0  0  0  0  0  0  0  0
   -3.7860   22.0380  -33.2790 C   0  0  0  0  0  0  0  0  0  0  0  0
   -4.1080   22.5840  -31.9450 C   0  0  0  0  0  0  0  0  0  0  0  0
   -3.2070   22.7050  -31.0700 O   0  0  0  0  0  0  0  0  0  0  0  0
   -5.4510   22.9980  -31.6410 N   0  0  0  0  0  0  0  0  0  0  0  0
   -5.8490   24.1500  -31.0300 C   0  0  0  0  0  0  0  0  0  0  0  0
   -4.9690   25.2750  -30.6470 C   0  0  0  0  0  0  0  0  0  0  0  0
   -3.5810   25.0420  -30.4180 N   0  0  0  0  0  0  0  0  0  0  0  0
   -5.4340   26.4340  -30.4980 O   0  0  0  0  0  0  0  0  0  0  0  0
   -7.2330   24.1610  -30.8620 C   0  0  0  0  0  0  0  0  0  0  0  0
   -7.6740   22.9690  -31.3910 C   0  0  0  0  0  0  0  0  0  0  0  0
   -8.9630   22.4510  -31.4790 C   0  0  0  0  0  0  0  0  0  0  0  0
   -9.1230   21.1780  -32.0500 C   0  0  0  0  0  0  0  0  0  0  0  0
   -7.9990   20.4380  -32.4990 C   0  0  0  0  0  0  0  0  0  0  0  0
   -8.1780   19.1340  -33.0900 N   0  0  0  0  0  0  0  0  0  0  0  0
   -7.8790   18.0860  -32.1030 C   0  0  0  0  0  0  0  0  0  0  0  0
   -6.5190   17.4330  -32.3960 C   0  0  0  0  0  0  0  0  0  0  0  0
   -6.3030   17.3150  -33.8550 N   0  0  0  0  0  0  0  0  0  0  0  0
   -5.9640   15.9270  -34.2100 C   0  0  0  0  0  0  0  0  0  0  0  0
   -5.2230   18.2120  -34.3060 C   0  0  0  0  0  0  0  0  0  0  0  0
   -6.7050   21.0020  -32.4000 C   0  0  0  0  0  0  0  0  0  0  0  0
   -6.5790   22.2830  -31.8500 C   0  0  0  0  0  0  0  0  0  0  0  0
   -2.9229   20.5178  -34.4587 H   0  0  0  0  0  0  0  0  0  0  0  0
   -2.8263   20.2997  -32.5684 H   0  0  0  0  0  0  0  0  0  0  0  0
   -4.0909   22.6061  -34.1702 H   0  0  0  0  0  0  0  0  0  0  0  0
   -2.9310   24.8470  -31.2110 H   0  0  0  0  0  0  0  0  0  0  0  0
   -7.8429   24.9537  -30.4041 H   0  0  0  0  0  0  0  0  0  0  0  0
   -9.8295   23.0211  -31.1126 H   0  0  0  0  0  0  0  0  0  0  0  0
  -10.1313   20.7498  -32.1502 H   0  0  0  0  0  0  0  0  0  0  0  0
   -9.1660   19.0330  -33.4240 H   0  0  0  0  0  0  0  0  0  0  0  0
   -7.5450   19.0350  -33.9190 H   0  0  0  0  0  0  0  0  0  0  0  0
   -7.8555   18.5330  -31.0982 H   0  0  0  0  0  0  0  0  0  0  0  0
   -8.6606   17.3141  -32.1603 H   0  0  0  0  0  0  0  0  0  0  0  0
   -5.7198   18.0509  -31.9608 H   0  0  0  0  0  0  0  0  0  0  0  0
   -6.5053   16.4265  -31.9523 H   0  0  0  0  0  0  0  0  0  0  0  0
   -5.8202   15.3384  -33.2919 H   0  0  0  0  0  0  0  0  0  0  0  0
   -6.7817   15.4897  -34.8017 H   0  0  0  0  0  0  0  0  0  0  0  0
   -5.0367   15.9159  -34.8017 H   0  0  0  0  0  0  0  0  0  0  0  0
   -4.7104   18.6377  -33.4307 H   0  0  0  0  0  0  0  0  0  0  0  0
   -4.5026   17.6428  -34.9118 H   0  0  0  0  0  0  0  0  0  0  0  0
   -5.6503   19.0246  -34.9118 H   0  0  0  0  0  0  0  0  0  0  0  0
   -5.8203   20.4477  -32.7466 H   0  0  0  0  0  0  0  0  0  0  0  0
  1  2  2  0
  2  3  1  0
  3  4  2  0
  3  5  1  0
  5  6  1  0
  6  7  1  0
  7  8  1  0
  7  9  2  0
  6 10  2  0
 10 11  1  0
 11 12  2  0
 12 13  1  0
 13 14  2  0
 14 15  1  0
 15 16  1  0
 16 17  1  0
 17 18  1  0
 18 19  1  0
 18 20  1  0
 14 21  1  0
 21 22  2  0
 22  5  1  0
 22 11  1  0
  1 23  1  0
  1 24  1  0
  2 25  1  0
  8 26  1  0
 10 27  1  0
 12 28  1  0
 13 29  1  0
 15 30  1  0
 15 31  1  0
 16 32  1  0
 16 33  1  0
 17 34  1  0
 17 35  1  0
 19 36  1  0
 19 37  1  0
 19 38  1  0
 20 39  1  0
 20 40  1  0
 20 41  1  0
 21 42  1  0
M  CHG  2   8  -1  15   1
M  END
>  <UniqueID>  (18) 
18

>  <SMILES>  (18) 
C=CC(=O)n1c(C([NH-])=O)cc2ccc([NH2+]CCN(C)C)cc21

>  <Energy>  (18) 
79.04323839786937

>  <Genealogy>  (18) 
C=CC(=O)n1c(C([NH-])=O)cc2ccc([NH2+]CCN(C)C)cc21 (protonated)
C=CC(=O)n1c(C([NH-])=O)cc2ccc([NH2+]CCN(C)C)cc21 (3D coordinates assigned)
C=CC(=O)n1c(C([NH-])=O)cc2ccc([NH2+]CCN(C)C)cc21 (optimized conformer: 79.04323839786937 kcal/mol)

>  <smiles>  (18) 
C=CC(=O)n1c(C(N)=O)cc2ccc(NCCN(C)C)cc21

>  <score_type>  (18) 
oracle

>  <origin>  (18) 
adg

>  <m_score__min__energy>  (18) 
-9.8699999999999992

>  <m_primary>  (18) 
energy

$$$$
18:0
     RDKit          3D

 30 32  0  0  0  0  0  0  0  0999 V2000
   -1.6190   25.6660  -28.9950 N   0  0  0  0  0  0  0  0  0  0  0  0
   -1.1180   24.3410  -29.1520 C   0  0  0  0  0  0  0  0  0  0  0  0
    0.0010   24.0420  -28.6550 O   0  0  0  0  0  0  0  0  0  0  0  0
   -1.8620   23.3340  -29.9370 C   0  0  0  0  0  0  0  0  0  0  0  0
   -1.3220   22.1050  -30.3110 C   0  0  0  0  0  0  0  0  0  0  0  0
   -2.2820   21.5080  -31.0950 C   0  0  0  0  0  0  0  0  0  0  0  0
   -2.2720   20.2700  -31.7330 C   0  0  0  0  0  0  0  0  0  0  0  0
   -3.4150   19.8970  -32.4600 C   0  0  0  0  0  0  0  0  0  0  0  0
   -4.5420   20.7520  -32.5210 C   0  0  0  0  0  0  0  0  0  0  0  0
   -5.7470   20.3540  -33.3270 C   0  0  0  0  0  0  0  0  0  0  0  0
   -6.8620   20.0590  -32.4360 N   0  0  0  0  0  0  0  0  0  0  0  0
   -7.2800   18.8550  -32.0160 C   0  0  0  0  0  0  0  0  0  0  0  0
   -8.3900   19.0180  -31.2770 N   0  0  0  0  0  0  0  0  0  0  0  0
   -8.6470   20.3170  -31.2630 N   0  0  0  0  0  0  0  0  0  0  0  0
   -7.7240   20.9510  -31.9720 N   0  0  0  0  0  0  0  0  0  0  0  0
   -4.5100   22.0060  -31.8720 C   0  0  0  0  0  0  0  0  0  0  0  0
   -3.3520   22.3610  -31.1700 C   0  0  0  0  0  0  0  0  0  0  0  0
   -3.1110   23.4870  -30.4620 N   0  0  0  0  0  0  0  0  0  0  0  0
   -4.0330   24.5680  -30.2460 C   0  0  0  0  0  0  0  0  0  0  0  0
   -3.8630   25.6730  -30.8250 O   0  0  0  0  0  0  0  0  0  0  0  0
   -5.1040   24.4130  -29.3760 O   0  0  0  0  0  0  0  0  0  0  0  0
   -2.6460   25.8570  -29.0070 H   0  0  0  0  0  0  0  0  0  0  0  0
   -0.3372   21.6985  -30.0374 H   0  0  0  0  0  0  0  0  0  0  0  0
   -1.3975   19.6057  -31.6698 H   0  0  0  0  0  0  0  0  0  0  0  0
   -3.4345   18.9315  -32.9868 H   0  0  0  0  0  0  0  0  0  0  0  0
   -6.0253   21.1790  -33.9993 H   0  0  0  0  0  0  0  0  0  0  0  0
   -5.5082   19.4579  -33.9186 H   0  0  0  0  0  0  0  0  0  0  0  0
   -6.7942   17.8938  -32.2398 H   0  0  0  0  0  0  0  0  0  0  0  0
   -8.9600   18.2810  -30.8080 H   0  0  0  0  0  0  0  0  0  0  0  0
   -5.3731   22.6865  -31.9170 H   0  0  0  0  0  0  0  0  0  0  0  0
  1  2  1  0
  2  3  2  0
  2  4  1  0
  4  5  2  0
  5  6  1  0
  6  7  2  0
  7  8  1  0
  8  9  2  0
  9 10  1  0
 10 11  1  0
 11 12  1  0
 12 13  2  0
 13 14  1  0
 14 15  2  0
  9 16  1  0
 16 17  2  0
 17 18  1  0
 18 19  1  0
 19 20  2  0
 19 21  1  0
 18  4  1  0
 17  6  1  0
 15 11  1  0
  1 22  1  0
  5 23  1  0
  7 24  1  0
  8 25  1  0
 10 26  1  0
 10 27  1  0
 12 28  1  0
 13 29  1  0
 16 30  1  0
M  CHG  3   1  -1  13   1  21  -1
M  END
>  <UniqueID>  (19) 
19

>  <SMILES>  (19) 
[NH-]C(=O)c1cc2ccc(Cn3c[nH+]nn3)cc2n1C(=O)[O-]

>  <Energy>  (19) 
111.55846826311216

>  <Genealogy>  (19) 
[NH-]C(=O)c1cc2ccc(Cn3c[nH+]nn3)cc2n1C(=O)[O-] (protonated)
[NH-]C(=O)c1cc2ccc(Cn3c[nH+]nn3)cc2n1C(=O)[O-] (3D coordinates assigned)
[NH-]C(=O)c1cc2ccc(Cn3c[nH+]nn3)cc2n1C(=O)[O-] (optimized conformer: 111.55846826311216 kcal/mol)

>  <smiles>  (19) 
NC(=O)c1cc2ccc(Cn3cnnn3)cc2n1C(=O)O

>  <score_type>  (19) 
oracle

>  <origin>  (19) 
adg

>  <m_score__min__energy>  (19) 
-11.24

>  <m_primary>  (19) 
energy

$$$$
19:0
     RDKit          3D

 41 43  0  0  0  0  0  0  0  0999 V2000
   -4.6080   22.9920  -28.2070 C   0  0  0  0  0  0  0  0  0  0  0  0
   -4.8980   23.8230  -29.2060 C   0  0  0  0  0  0  0  0  0  0  0  0
   -3.9040   24.2190  -30.2220 C   0  0  0  0  0  0  0  0  0  0  0  0
   -4.0260   25.3100  -30.8420 O   0  0  0  0  0  0  0  0  0  0  0  0
   -2.8180   23.3380  -30.5500 N   0  0  0  0  0  0  0  0  0  0  0  0
   -1.5440   23.3550  -30.0630 C   0  0  0  0  0  0  0  0  0  0  0  0
   -0.9700   24.3920  -29.1810 C   0  0  0  0  0  0  0  0  0  0  0  0
   -1.6660   25.6200  -28.9820 N   0  0  0  0  0  0  0  0  0  0  0  0
    0.1170   24.1920  -28.5750 O   0  0  0  0  0  0  0  0  0  0  0  0
   -0.8090   22.2930  -30.5860 C   0  0  0  0  0  0  0  0  0  0  0  0
   -1.6760   21.6240  -31.4200 C   0  0  0  0  0  0  0  0  0  0  0  0
   -1.4740   20.4920  -32.2030 C   0  0  0  0  0  0  0  0  0  0  0  0
   -2.5560   20.0120  -32.9610 C   0  0  0  0  0  0  0  0  0  0  0  0
   -3.8180   20.6610  -32.9140 C   0  0  0  0  0  0  0  0  0  0  0  0
   -4.9130   20.1750  -33.7140 N   0  0  0  0  0  0  0  0  0  0  0  0
   -5.7720   19.2960  -32.9100 C   0  0  0  0  0  0  0  0  0  0  0  0
   -7.0580   19.9970  -32.5550 C   0  0  0  0  0  0  0  0  0  0  0  0
   -8.2860   19.3260  -32.6690 C   0  0  0  0  0  0  0  0  0  0  0  0
   -9.4820   19.9880  -32.3740 C   0  0  0  0  0  0  0  0  0  0  0  0
   -9.4600   21.3270  -31.9740 C   0  0  0  0  0  0  0  0  0  0  0  0
   -8.2430   22.0070  -31.8740 C   0  0  0  0  0  0  0  0  0  0  0  0
   -7.0450   21.3480  -32.1670 C   0  0  0  0  0  0  0  0  0  0  0  0
   -3.9790   21.8170  -32.1150 C   0  0  0  0  0  0  0  0  0  0  0  0
   -2.8800   22.2770  -31.3820 C   0  0  0  0  0  0  0  0  0  0  0  0
   -5.3814   22.7245  -27.4720 H   0  0  0  0  0  0  0  0  0  0  0  0
   -3.5950   22.5730  -28.1166 H   0  0  0  0  0  0  0  0  0  0  0  0
   -5.9175   24.2299  -29.2766 H   0  0  0  0  0  0  0  0  0  0  0  0
   -2.6840   25.7000  -29.1970 H   0  0  0  0  0  0  0  0  0  0  0  0
    0.2414   22.0424  -30.3768 H   0  0  0  0  0  0  0  0  0  0  0  0
   -0.4968   19.9877  -32.2282 H   0  0  0  0  0  0  0  0  0  0  0  0
   -2.4237   19.1244  -33.5972 H   0  0  0  0  0  0  0  0  0  0  0  0
   -4.5400   19.6470  -34.5380 H   0  0  0  0  0  0  0  0  0  0  0  0
   -5.4730   20.9830  -34.0750 H   0  0  0  0  0  0  0  0  0  0  0  0
   -6.0018   18.3879  -33.4867 H   0  0  0  0  0  0  0  0  0  0  0  0
   -5.2426   19.0319  -31.9826 H   0  0  0  0  0  0  0  0  0  0  0  0
   -8.3075   18.2747  -32.9919 H   0  0  0  0  0  0  0  0  0  0  0  0
  -10.4405   19.4546  -32.4568 H   0  0  0  0  0  0  0  0  0  0  0  0
  -10.4008   21.8458  -31.7378 H   0  0  0  0  0  0  0  0  0  0  0  0
   -8.2276   23.0624  -31.5643 H   0  0  0  0  0  0  0  0  0  0  0  0
   -6.0897   21.8884  -32.0937 H   0  0  0  0  0  0  0  0  0  0  0  0
   -4.9449   22.3415  -32.0711 H   0  0  0  0  0  0  0  0  0  0  0  0
  1  2  2  0
  2  3  1  0
  3  4  2  0
  3  5  1  0
  5  6  1  0
  6  7  1  0
  7  8  1  0
  7  9  2  0
  6 10  2  0
 10 11  1  0
 11 12  2  0
 12 13  1  0
 13 14  2  0
 14 15  1  0
 15 16  1  0
 16 17  1  0
 17 18  2  0
 18 19  1  0
 19 20  2  0
 20 21  1  0
 21 22  2  0
 14 23  1  0
 23 24  2  0
 24  5  1  0
 24 11  1  0
 22 17  1  0
  1 25  1  0
  1 26  1  0
  2 27  1  0
  8 28  1  0
 10 29  1  0
 12 30  1  0
 13 31  1  0
 15 32  1  0
 15 33  1  0
 16 34  1  0
 16 35  1  0
 18 36  1  0
 19 37  1  0
 20 38  1  0
 21 39  1  0
 22 40  1  0
 23 41  1  0
M  CHG  2   8  -1  15   1
M  END
>  <UniqueID>  (20) 
20

>  <SMILES>  (20) 
C=CC(=O)n1c(C([NH-])=O)cc2ccc([NH2+]Cc3ccccc3)cc21

>  <Energy>  (20) 
81.62340316223609

>  <Genealogy>  (20) 
C=CC(=O)n1c(C([NH-])=O)cc2ccc([NH2+]Cc3ccccc3)cc21 (protonated)
C=CC(=O)n1c(C([NH-])=O)cc2ccc([NH2+]Cc3ccccc3)cc21 (3D coordinates assigned)
C=CC(=O)n1c(C([NH-])=O)cc2ccc([NH2+]Cc3ccccc3)cc21 (optimized conformer: 81.62340316223609 kcal/mol)

>  <smiles>  (20) 
C=CC(=O)n1c(C(N)=O)cc2ccc(NCc3ccccc3)cc21

>  <score_type>  (20) 
oracle

>  <origin>  (20) 
adg

>  <m_score__min__energy>  (20) 
-11.119999999999999

>  <m_primary>  (20) 
energy

$$$$
20:0
     RDKit          3D

 45 47  0  0  0  0  0  0  0  0999 V2000
   -6.4800   15.9790  -33.6240 C   0  0  0  0  0  0  0  0  0  0  0  0
   -6.6450   17.3710  -33.2020 C   0  0  0  0  0  0  0  0  0  0  0  0
   -6.7830   18.5180  -32.8560 C   0  0  0  0  0  0  0  0  0  0  0  0
   -6.9500   19.8860  -32.4390 C   0  0  0  0  0  0  0  0  0  0  0  0
   -8.2410   20.4620  -32.4160 C   0  0  0  0  0  0  0  0  0  0  0  0
   -8.4160   21.7970  -32.0170 C   0  0  0  0  0  0  0  0  0  0  0  0
   -7.2860   22.5190  -31.6430 C   0  0  0  0  0  0  0  0  0  0  0  0
   -7.1680   23.8280  -31.2370 C   0  0  0  0  0  0  0  0  0  0  0  0
   -5.8080   24.0220  -31.0040 C   0  0  0  0  0  0  0  0  0  0  0  0
   -5.2450   25.2780  -30.4670 C   0  0  0  0  0  0  0  0  0  0  0  0
   -3.9210   25.6700  -30.8220 N   0  0  0  0  0  0  0  0  0  0  0  0
   -5.9340   26.0290  -29.7280 O   0  0  0  0  0  0  0  0  0  0  0  0
   -5.1100   22.8780  -31.2610 N   0  0  0  0  0  0  0  0  0  0  0  0
   -3.6870   22.6910  -31.2260 C   0  0  0  0  0  0  0  0  0  0  0  0
   -3.0770   22.3070  -32.2610 O   0  0  0  0  0  0  0  0  0  0  0  0
   -2.9780   22.9620  -30.0490 O   0  0  0  0  0  0  0  0  0  0  0  0
   -1.5890   23.2880  -30.0290 C   0  0  0  0  0  0  0  0  0  0  0  0
   -1.2850   24.3310  -28.9850 C   0  0  0  0  0  0  0  0  0  0  0  0
   -1.3160   25.5510  -29.3150 O   0  0  0  0  0  0  0  0  0  0  0  0
   -0.9860   23.9670  -27.6180 N   0  0  0  0  0  0  0  0  0  0  0  0
   -1.3880   22.6550  -27.0870 C   0  0  0  0  0  0  0  0  0  0  0  0
   -0.5400   22.2880  -25.8650 C   0  0  0  0  0  0  0  0  0  0  0  0
   -0.5320   23.3390  -24.9200 O   0  0  0  0  0  0  0  0  0  0  0  0
    0.1260   24.4610  -25.4720 C   0  0  0  0  0  0  0  0  0  0  0  0
   -0.6670   25.0280  -26.6530 C   0  0  0  0  0  0  0  0  0  0  0  0
   -6.0310   21.9660  -31.6490 C   0  0  0  0  0  0  0  0  0  0  0  0
   -5.8250   20.6430  -32.0590 C   0  0  0  0  0  0  0  0  0  0  0  0
   -6.4035   15.3335  -32.7366 H   0  0  0  0  0  0  0  0  0  0  0  0
   -7.3482   15.6731  -34.2262 H   0  0  0  0  0  0  0  0  0  0  0  0
   -5.5644   15.8845  -34.2262 H   0  0  0  0  0  0  0  0  0  0  0  0
   -9.1133   19.8610  -32.7123 H   0  0  0  0  0  0  0  0  0  0  0  0
   -9.4147   22.2578  -32.0005 H   0  0  0  0  0  0  0  0  0  0  0  0
   -7.9760   24.5653  -31.1209 H   0  0  0  0  0  0  0  0  0  0  0  0
   -3.0930   25.1410  -30.4690 H   0  0  0  0  0  0  0  0  0  0  0  0
   -1.0111   22.3790  -29.8059 H   0  0  0  0  0  0  0  0  0  0  0  0
   -1.3139   23.6931  -31.0140 H   0  0  0  0  0  0  0  0  0  0  0  0
   -2.4477   22.6922  -26.7943 H   0  0  0  0  0  0  0  0  0  0  0  0
   -1.2364   21.8940  -27.8667 H   0  0  0  0  0  0  0  0  0  0  0  0
   -0.9576   21.3852  -25.3954 H   0  0  0  0  0  0  0  0  0  0  0  0
    0.4931   22.1071  -26.1968 H   0  0  0  0  0  0  0  0  0  0  0  0
    0.2264   25.2370  -24.6989 H   0  0  0  0  0  0  0  0  0  0  0  0
    1.1178   24.1479  -25.8303 H   0  0  0  0  0  0  0  0  0  0  0  0
   -1.6023   25.4716  -26.2809 H   0  0  0  0  0  0  0  0  0  0  0  0
   -0.0569   25.7930  -27.1555 H   0  0  0  0  0  0  0  0  0  0  0  0
   -4.8149   20.2082  -32.0835 H   0  0  0  0  0  0  0  0  0  0  0  0
  1  2  1  0
  2  3  3  0
  3  4  1  0
  4  5  2  0
  5  6  1  0
  6  7  2  0
  7  8  1  0
  8  9  2  0
  9 10  1  0
 10 11  1  0
 10 12  2  0
  9 13  1  0
 13 14  1  0
 14 15  2  0
 14 16  1  0
 16 17  1  0
 17 18  1  0
 18 19  2  0
 18 20  1  0
 20 21  1  0
 21 22  1  0
 22 23  1  0
 23 24  1  0
 24 25  1  0
 13 26  1  0
 26 27  2  0
 27  4  1  0
 26  7  1  0
 25 20  1  0
  1 28  1  0
  1 29  1  0
  1 30  1  0
  5 31  1  0
  6 32  1  0
  8 33  1  0
 11 34  1  0
 17 35  1  0
 17 36  1  0
 21 37  1  0
 21 38  1  0
 22 39  1  0
 22 40  1  0
 24 41  1  0
 24 42  1  0
 25 43  1  0
 25 44  1  0
 27 45  1  0
M  CHG  1  11  -1
M  END
>  <UniqueID>  (21) 
21

>  <SMILES>  (21) 
CC#Cc1ccc2cc(C([NH-])=O)n(C(=O)OCC(=O)N3CCOCC3)c2c1

>  <Energy>  (21) 
80.83072976967065

>  <Genealogy>  (21) 
CC#Cc1ccc2cc(C([NH-])=O)n(C(=O)OCC(=O)N3CCOCC3)c2c1 (protonated)
CC#Cc1ccc2cc(C([NH-])=O)n(C(=O)OCC(=O)N3CCOCC3)c2c1 (3D coordinates assigned)
CC#Cc1ccc2cc(C([NH-])=O)n(C(=O)OCC(=O)N3CCOCC3)c2c1 (nonaromatic ring conformer: 80.83072976967065 kcal/mol)

>  <smiles>  (21) 
CC#Cc1ccc2cc(C(N)=O)n(C(=O)OCC(=O)N3CCOCC3)c2c1

>  <score_type>  (21) 
oracle

>  <origin>  (21) 
adg

>  <m_score__min__energy>  (21) 
-11.369999999999999

>  <m_primary>  (21) 
energy

$$$$
21:0
     RDKit          3D

 39 41  0  0  0  0  0  0  0  0999 V2000
   -0.8030   22.8450  -29.3780 C   0  0  0  0  0  0  0  0  0  0  0  0
   -0.7060   21.9630  -30.4890 O   0  0  0  0  0  0  0  0  0  0  0  0
   -1.6870   21.8910  -31.4820 C   0  0  0  0  0  0  0  0  0  0  0  0
   -1.3730   21.5780  -32.6640 O   0  0  0  0  0  0  0  0  0  0  0  0
   -3.0480   22.1860  -31.1390 N   0  0  0  0  0  0  0  0  0  0  0  0
   -4.1460   22.1190  -32.0620 C   0  0  0  0  0  0  0  0  0  0  0  0
   -3.9750   21.6810  -33.2330 O   0  0  0  0  0  0  0  0  0  0  0  0
   -5.4500   22.5590  -31.6560 N   0  0  0  0  0  0  0  0  0  0  0  0
   -5.7830   23.7240  -31.0290 C   0  0  0  0  0  0  0  0  0  0  0  0
   -4.8710   24.8550  -30.7600 C   0  0  0  0  0  0  0  0  0  0  0  0
   -3.5020   24.6350  -30.4330 N   0  0  0  0  0  0  0  0  0  0  0  0
   -5.2990   26.0370  -30.8560 O   0  0  0  0  0  0  0  0  0  0  0  0
   -7.1420   23.7400  -30.7210 C   0  0  0  0  0  0  0  0  0  0  0  0
   -7.6370   22.5410  -31.1850 C   0  0  0  0  0  0  0  0  0  0  0  0
   -8.9250   22.0170  -31.1210 C   0  0  0  0  0  0  0  0  0  0  0  0
   -9.1390   20.7320  -31.6450 C   0  0  0  0  0  0  0  0  0  0  0  0
   -8.0710   19.9990  -32.2210 C   0  0  0  0  0  0  0  0  0  0  0  0
   -8.3000   18.6030  -32.7250 C   0  0  0  0  0  0  0  0  0  0  0  0
   -7.2180   17.7330  -32.2800 N   0  0  0  0  0  0  0  0  0  0  0  0
   -6.2800   17.1540  -33.0540 C   0  0  0  0  0  0  0  0  0  0  0  0
   -5.4200   16.4930  -32.2030 C   0  0  0  0  0  0  0  0  0  0  0  0
   -5.8630   16.7060  -30.9480 N   0  0  0  0  0  0  0  0  0  0  0  0
   -6.9450   17.4640  -31.0140 N   0  0  0  0  0  0  0  0  0  0  0  0
   -6.7750   20.5580  -32.2540 C   0  0  0  0  0  0  0  0  0  0  0  0
   -6.5940   21.8470  -31.7430 C   0  0  0  0  0  0  0  0  0  0  0  0
   -0.7394   22.2669  -28.4443 H   0  0  0  0  0  0  0  0  0  0  0  0
    0.0205   23.5734  -29.4151 H   0  0  0  0  0  0  0  0  0  0  0  0
   -1.7651   23.3770  -29.4151 H   0  0  0  0  0  0  0  0  0  0  0  0
   -3.2500   22.4580  -30.1520 H   0  0  0  0  0  0  0  0  0  0  0  0
   -2.7620   25.3070  -30.7350 H   0  0  0  0  0  0  0  0  0  0  0  0
   -7.7011   24.5406  -30.2146 H   0  0  0  0  0  0  0  0  0  0  0  0
   -9.7495   22.5917  -30.6739 H   0  0  0  0  0  0  0  0  0  0  0  0
  -10.1455   20.2897  -31.6082 H   0  0  0  0  0  0  0  0  0  0  0  0
   -9.2563   18.2258  -32.3335 H   0  0  0  0  0  0  0  0  0  0  0  0
   -8.3279   18.6141  -33.8246 H   0  0  0  0  0  0  0  0  0  0  0  0
   -6.2132   17.1996  -34.1510 H   0  0  0  0  0  0  0  0  0  0  0  0
   -4.5383   15.9029  -32.4935 H   0  0  0  0  0  0  0  0  0  0  0  0
   -5.4340   16.3530  -30.0660 H   0  0  0  0  0  0  0  0  0  0  0  0
   -5.9283   19.9934  -32.6715 H   0  0  0  0  0  0  0  0  0  0  0  0
  1  2  1  0
  2  3  1  0
  3  4  2  0
  3  5  1  0
  5  6  1  0
  6  7  2  0
  6  8  1  0
  8  9  1  0
  9 10  1  0
 10 11  1  0
 10 12  2  0
  9 13  2  0
 13 14  1  0
 14 15  2  0
 15 16  1  0
 16 17  2  0
 17 18  1  0
 18 19  1  0
 19 20  1  0
 20 21  2  0
 21 22  1  0
 22 23  2  0
 17 24  1  0
 24 25  2  0
 25  8  1  0
 25 14  1  0
 23 19  1  0
  1 26  1  0
  1 27  1  0
  1 28  1  0
  5 29  1  0
 11 30  1  0
 13 31  1  0
 15 32  1  0
 16 33  1  0
 18 34  1  0
 18 35  1  0
 20 36  1  0
 21 37  1  0
 22 38  1  0
 24 39  1  0
M  CHG  2  11  -1  22   1
M  END
>  <UniqueID>  (22) 
22

>  <SMILES>  (22) 
COC(=O)NC(=O)n1c(C([NH-])=O)cc2ccc(Cn3cc[nH+]n3)cc21

>  <Energy>  (22) 
111.5421805471178

>  <Genealogy>  (22) 
COC(=O)NC(=O)n1c(C([NH-])=O)cc2ccc(Cn3cc[nH+]n3)cc21 (protonated)
COC(=O)NC(=O)n1c(C([NH-])=O)cc2ccc(Cn3cc[nH+]n3)cc21 (3D coordinates assigned)
COC(=O)NC(=O)n1c(C([NH-])=O)cc2ccc(Cn3cc[nH+]n3)cc21 (optimized conformer: 111.5421805471178 kcal/mol)

>  <smiles>  (22) 
COC(=O)NC(=O)n1c(C(N)=O)cc2ccc(Cn3ccnn3)cc21

>  <score_type>  (22) 
oracle

>  <origin>  (22) 
adg

>  <m_score__min__energy>  (22) 
-10.539999999999999

>  <m_primary>  (22) 
energy

$$$$
22:0
     RDKit          3D

 43 45  0  0  0  0  0  0  0  0999 V2000
   -3.9250   25.3390  -30.5340 N   0  0  0  0  0  0  0  0  0  0  0  0
   -5.3380   25.1500  -30.4980 C   0  0  0  0  0  0  0  0  0  0  0  0
   -6.0760   26.0840  -30.0890 O   0  0  0  0  0  0  0  0  0  0  0  0
   -5.9210   23.8720  -30.9570 C   0  0  0  0  0  0  0  0  0  0  0  0
   -7.2600   23.7080  -31.3090 C   0  0  0  0  0  0  0  0  0  0  0  0
   -7.3940   22.3710  -31.6190 C   0  0  0  0  0  0  0  0  0  0  0  0
   -8.5070   21.6560  -32.0470 C   0  0  0  0  0  0  0  0  0  0  0  0
   -8.3480   20.2840  -32.3090 C   0  0  0  0  0  0  0  0  0  0  0  0
   -7.0900   19.6510  -32.1290 C   0  0  0  0  0  0  0  0  0  0  0  0
   -6.9180   18.1920  -32.4630 C   0  0  0  0  0  0  0  0  0  0  0  0
   -8.1180   17.5150  -32.3230 F   0  0  0  0  0  0  0  0  0  0  0  0
   -6.4830   18.0360  -33.7680 F   0  0  0  0  0  0  0  0  0  0  0  0
   -5.9850   17.6350  -31.6080 F   0  0  0  0  0  0  0  0  0  0  0  0
   -5.9770   20.4200  -31.7170 C   0  0  0  0  0  0  0  0  0  0  0  0
   -6.1700   21.7800  -31.4530 C   0  0  0  0  0  0  0  0  0  0  0  0
   -5.2580   22.6860  -31.0450 N   0  0  0  0  0  0  0  0  0  0  0  0
   -3.8660   22.4410  -30.8030 C   0  0  0  0  0  0  0  0  0  0  0  0
   -3.0420   22.5960  -31.7470 O   0  0  0  0  0  0  0  0  0  0  0  0
   -3.3920   22.0190  -29.4630 C   0  0  0  0  0  0  0  0  0  0  0  0
   -2.9060   20.7920  -29.2510 C   0  0  0  0  0  0  0  0  0  0  0  0
   -2.4350   20.4300  -27.8760 C   0  0  0  0  0  0  0  0  0  0  0  0
   -1.5740   21.5690  -27.2910 C   0  0  0  0  0  0  0  0  0  0  0  0
   -2.0820   22.9510  -27.5870 N   0  0  1  0  0  0  0  0  0  0  0  0
   -1.0870   23.7490  -28.3480 C   0  0  0  0  0  0  0  0  0  0  0  0
   -1.3330   25.2260  -28.2130 C   0  0  0  0  0  0  0  0  0  0  0  0
   -1.6170   25.7200  -27.0900 O   0  0  0  0  0  0  0  0  0  0  0  0
   -1.2380   26.0540  -29.3240 O   0  0  0  0  0  0  0  0  0  0  0  0
   -3.3920   22.9690  -28.2880 C   0  0  0  0  0  0  0  0  0  0  0  0
   -3.4080   25.6780  -29.6920 H   0  0  0  0  0  0  0  0  0  0  0  0
   -8.0427   24.4805  -31.3341 H   0  0  0  0  0  0  0  0  0  0  0  0
   -9.4819   22.1487  -32.1766 H   0  0  0  0  0  0  0  0  0  0  0  0
   -9.2084   19.6939  -32.6576 H   0  0  0  0  0  0  0  0  0  0  0  0
   -4.9839   19.9600  -31.6068 H   0  0  0  0  0  0  0  0  0  0  0  0
   -2.8529   20.0613  -30.0715 H   0  0  0  0  0  0  0  0  0  0  0  0
   -3.3063   20.2624  -27.2258 H   0  0  0  0  0  0  0  0  0  0  0  0
   -1.8281   19.5144  -27.9338 H   0  0  0  0  0  0  0  0  0  0  0  0
   -1.5356   21.4440  -26.1988 H   0  0  0  0  0  0  0  0  0  0  0  0
   -0.5863   21.4906  -27.7688 H   0  0  0  0  0  0  0  0  0  0  0  0
   -2.2390   23.4390  -26.6710 H   0  0  0  0  0  0  0  0  0  0  0  0
   -0.0808   23.5196  -27.9673 H   0  0  0  0  0  0  0  0  0  0  0  0
   -1.1781   23.4836  -29.4116 H   0  0  0  0  0  0  0  0  0  0  0  0
   -4.1811   22.6687  -27.5830 H   0  0  0  0  0  0  0  0  0  0  0  0
   -3.5750   23.9874  -28.6614 H   0  0  0  0  0  0  0  0  0  0  0  0
  1  2  1  0
  2  3  2  0
  2  4  1  0
  4  5  2  0
  5  6  1  0
  6  7  2  0
  7  8  1  0
  8  9  2  0
  9 10  1  0
 10 11  1  0
 10 12  1  0
 10 13  1  0
  9 14  1  0
 14 15  2  0
 15 16  1  0
 16 17  1  0
 17 18  2  0
 17 19  1  0
 19 20  2  0
 20 21  1  0
 21 22  1  0
 22 23  1  0
 23 24  1  0
 24 25  1  0
 25 26  2  0
 25 27  1  0
 23 28  1  0
 16  4  1  0
 28 19  1  0
 15  6  1  0
  1 29  1  0
  5 30  1  0
  7 31  1  0
  8 32  1  0
 14 33  1  0
 20 34  1  0
 21 35  1  0
 21 36  1  0
 22 37  1  0
 22 38  1  0
 23 39  1  1
 24 40  1  0
 24 41  1  0
 28 42  1  0
 28 43  1  0
M  CHG  3   1  -1  23   1  27  -1
M  END
>  <UniqueID>  (23) 
23

>  <SMILES>  (23) 
[NH-]C(=O)c1cc2ccc(C(F)(F)F)cc2n1C(=O)C1=CCC[N@@H+](CC(=O)[O-])C1

>  <Energy>  (23) 
94.14247354711381

>  <Genealogy>  (23) 
[NH-]C(=O)c1cc2ccc(C(F)(F)F)cc2n1C(=O)C1=CCC[NH+](CC(=O)[O-])C1 (protonated)
[NH-]C(=O)c1cc2ccc(C(F)(F)F)cc2n1C(=O)C1=CCC[N@@H+](CC(=O)[O-])C1 (chirality)
[NH-]C(=O)c1cc2ccc(C(F)(F)F)cc2n1C(=O)C1=CCC[N@@H+](CC(=O)[O-])C1 (3D coordinates assigned)
[NH-]C(=O)c1cc2ccc(C(F)(F)F)cc2n1C(=O)C1=CCC[N@@H+](CC(=O)[O-])C1 (nonaromatic ring conformer: 94.14247354711381 kcal/mol)

>  <smiles>  (23) 
NC(=O)c1cc2ccc(C(F)(F)F)cc2n1C(=O)C1=CCCN(CC(=O)O)C1

>  <score_type>  (23) 
oracle

>  <origin>  (23) 
adg

>  <m_score__min__energy>  (23) 
-12.279999999999999

>  <m_primary>  (23) 
energy

$$$$
23:0
     RDKit          3D

 37 39  0  0  0  0  0  0  0  0999 V2000
   -2.4860   23.2950  -27.4960 C   0  0  0  0  0  0  0  0  0  0  0  0
   -2.6210   23.3950  -29.0130 C   0  0  1  0  0  0  0  0  0  0  0  0
   -3.8470   22.7830  -29.4140 O   0  0  0  0  0  0  0  0  0  0  0  0
   -4.3230   22.8010  -30.7290 C   0  0  0  0  0  0  0  0  0  0  0  0
   -3.5250   22.9530  -31.6940 O   0  0  0  0  0  0  0  0  0  0  0  0
   -5.7310   22.6490  -30.9800 N   0  0  0  0  0  0  0  0  0  0  0  0
   -6.7480   23.4250  -30.5100 C   0  0  0  0  0  0  0  0  0  0  0  0
   -6.5970   24.6900  -29.7650 C   0  0  0  0  0  0  0  0  0  0  0  0
   -5.4770   24.9160  -28.9060 N   0  0  0  0  0  0  0  0  0  0  0  0
   -7.4410   25.6110  -29.9310 O   0  0  0  0  0  0  0  0  0  0  0  0
   -7.9810   22.8870  -30.8670 C   0  0  0  0  0  0  0  0  0  0  0  0
   -7.6880   21.7540  -31.5900 C   0  0  0  0  0  0  0  0  0  0  0  0
   -8.5390   20.8230  -32.1760 C   0  0  0  0  0  0  0  0  0  0  0  0
   -7.9610   19.7220  -32.8290 C   0  0  0  0  0  0  0  0  0  0  0  0
   -6.5530   19.5620  -32.8780 C   0  0  0  0  0  0  0  0  0  0  0  0
   -5.9790   18.3820  -33.5620 C   0  0  0  0  0  0  0  0  0  0  0  0
   -6.0330   17.0600  -33.1660 C   0  0  0  0  0  0  0  0  0  0  0  0
   -5.3830   16.3070  -34.0740 N   0  0  0  0  0  0  0  0  0  0  0  0
   -4.9560   17.2030  -34.9870 C   0  0  0  0  0  0  0  0  0  0  0  0
   -5.3080   18.4330  -34.6870 O   0  0  0  0  0  0  0  0  0  0  0  0
   -5.7220   20.5300  -32.2660 C   0  0  0  0  0  0  0  0  0  0  0  0
   -6.3240   21.6300  -31.6430 C   0  0  0  0  0  0  0  0  0  0  0  0
   -2.5920   24.8340  -29.4380 C   0  0  0  0  0  0  0  0  0  0  0  0
   -1.7290   25.6210  -28.9660 O   0  0  0  0  0  0  0  0  0  0  0  0
   -3.4970   25.2960  -30.3860 O   0  0  0  0  0  0  0  0  0  0  0  0
   -3.2819   23.8845  -27.0174 H   0  0  0  0  0  0  0  0  0  0  0  0
   -2.5740   22.2425  -27.1886 H   0  0  0  0  0  0  0  0  0  0  0  0
   -1.5048   23.6859  -27.1886 H   0  0  0  0  0  0  0  0  0  0  0  0
   -1.7800   22.8745  -29.4944 H   0  0  0  0  0  0  0  0  0  0  0  0
   -4.6760   24.2480  -28.8800 H   0  0  0  0  0  0  0  0  0  0  0  0
   -5.4090   25.8000  -28.3560 H   0  0  0  0  0  0  0  0  0  0  0  0
   -8.9776   23.2834  -30.6229 H   0  0  0  0  0  0  0  0  0  0  0  0
   -9.6312   20.9452  -32.1295 H   0  0  0  0  0  0  0  0  0  0  0  0
   -8.6092   18.9739  -33.3088 H   0  0  0  0  0  0  0  0  0  0  0  0
   -6.5262   16.6836  -32.2576 H   0  0  0  0  0  0  0  0  0  0  0  0
   -4.3774   16.9341  -35.8831 H   0  0  0  0  0  0  0  0  0  0  0  0
   -4.6275   20.4208  -32.2794 H   0  0  0  0  0  0  0  0  0  0  0  0
  1  2  1  0
  2  3  1  0
  3  4  1  0
  4  5  2  0
  4  6  1  0
  6  7  1  0
  7  8  1  0
  8  9  1  0
  8 10  2  0
  7 11  2  0
 11 12  1  0
 12 13  2  0
 13 14  1  0
 14 15  2  0
 15 16  1  0
 16 17  2  0
 17 18  1  0
 18 19  2  0
 19 20  1  0
 15 21  1  0
 21 22  2  0
  2 23  1  0
 23 24  2  0
 23 25  1  0
 22  6  1  0
 22 12  1  0
 20 16  1  0
  1 26  1  0
  1 27  1  0
  1 28  1  0
  2 29  1  6
  9 30  1  0
  9 31  1  0
 11 32  1  0
 13 33  1  0
 14 34  1  0
 17 35  1  0
 19 36  1  0
 21 37  1  0
M  CHG  1  25  -1
M  END
>  <UniqueID>  (24) 
24

>  <SMILES>  (24) 
C[C@@H](OC(=O)n1c(C(N)=O)cc2ccc(-c3cnco3)cc21)C(=O)[O-]

>  <Energy>  (24) 
104.44759664855394

>  <Genealogy>  (24) 
CC(OC(=O)n1c(C(N)=O)cc2ccc(-c3cnco3)cc21)C(=O)[O-] (protonated)
C[C@@H](OC(=O)n1c(C(N)=O)cc2ccc(-c3cnco3)cc21)C(=O)[O-] (chirality)
C[C@@H](OC(=O)n1c(C(N)=O)cc2ccc(-c3cnco3)cc21)C(=O)[O-] (3D coordinates assigned)
C[C@@H](OC(=O)n1c(C(N)=O)cc2ccc(-c3cnco3)cc21)C(=O)[O-] (optimized conformer: 104.44759664855394 kcal/mol)

>  <smiles>  (24) 
CC(OC(=O)n1c(C(N)=O)cc2ccc(-c3cnco3)cc21)C(=O)O

>  <score_type>  (24) 
oracle

>  <origin>  (24) 
adg

>  <m_score__min__energy>  (24) 
-11.16

>  <m_primary>  (24) 
energy

$$$$
24:0
     RDKit          3D

 41 42  0  0  0  0  0  0  0  0999 V2000
   -5.7860   25.2260  -29.0330 N   0  0  0  0  0  0  0  0  0  0  0  0
   -5.1490   24.6870  -30.1930 C   0  0  0  0  0  0  0  0  0  0  0  0
   -4.0860   25.2170  -30.6110 O   0  0  0  0  0  0  0  0  0  0  0  0
   -5.7060   23.4970  -30.8770 C   0  0  0  0  0  0  0  0  0  0  0  0
   -7.0430   23.3720  -31.2500 C   0  0  0  0  0  0  0  0  0  0  0  0
   -7.1630   22.0990  -31.7580 C   0  0  0  0  0  0  0  0  0  0  0  0
   -8.2740   21.4450  -32.2830 C   0  0  0  0  0  0  0  0  0  0  0  0
   -8.1030   20.1350  -32.7600 C   0  0  0  0  0  0  0  0  0  0  0  0
   -6.8340   19.5140  -32.7080 C   0  0  0  0  0  0  0  0  0  0  0  0
   -6.6690   18.1760  -33.2110 C   0  0  0  0  0  0  0  0  0  0  0  0
   -6.5310   17.0550  -33.6330 C   0  0  0  0  0  0  0  0  0  0  0  0
   -6.3640   15.7210  -34.1340 C   0  0  0  0  0  0  0  0  0  0  0  0
   -7.3590   15.0820  -34.5660 O   0  0  0  0  0  0  0  0  0  0  0  0
   -5.1060   15.1350  -34.1440 O   0  0  0  0  0  0  0  0  0  0  0  0
   -5.7280   20.2020  -32.1690 C   0  0  0  0  0  0  0  0  0  0  0  0
   -5.9300   21.5000  -31.6840 C   0  0  0  0  0  0  0  0  0  0  0  0
   -5.0250   22.3470  -31.1460 N   0  0  0  0  0  0  0  0  0  0  0  0
   -3.6240   22.0910  -30.9580 C   0  0  0  0  0  0  0  0  0  0  0  0
   -2.7940   22.4620  -31.8320 O   0  0  0  0  0  0  0  0  0  0  0  0
   -3.1900   21.4200  -29.8080 O   0  0  0  0  0  0  0  0  0  0  0  0
   -2.3780   22.0150  -28.7940 C   0  0  0  0  0  0  0  0  0  0  0  0
   -2.7830   23.4850  -28.5550 C   0  0  0  0  0  0  0  0  0  0  0  0
   -1.5650   24.4280  -28.5590 C   0  0  0  0  0  0  0  0  0  0  0  0
   -1.9370   25.7170  -28.9670 O   0  0  0  0  0  0  0  0  0  0  0  0
   -3.5760   23.6350  -27.2420 C   0  0  0  0  0  0  0  0  0  0  0  0
   -4.1080   24.9280  -27.1300 O   0  0  0  0  0  0  0  0  0  0  0  0
   -5.3640   26.0410  -28.5360 H   0  0  0  0  0  0  0  0  0  0  0  0
   -6.6970   24.8490  -28.6900 H   0  0  0  0  0  0  0  0  0  0  0  0
   -7.8345   24.1303  -31.1578 H   0  0  0  0  0  0  0  0  0  0  0  0
   -9.2560   21.9391  -32.3231 H   0  0  0  0  0  0  0  0  0  0  0  0
   -8.9620   19.5887  -33.1767 H   0  0  0  0  0  0  0  0  0  0  0  0
   -4.7340   19.7324  -32.1305 H   0  0  0  0  0  0  0  0  0  0  0  0
   -2.5006   21.4510  -27.8576 H   0  0  0  0  0  0  0  0  0  0  0  0
   -1.3290   21.9891  -29.1241 H   0  0  0  0  0  0  0  0  0  0  0  0
   -3.4327   23.7781  -29.3928 H   0  0  0  0  0  0  0  0  0  0  0  0
   -1.1439   24.4781  -27.5440 H   0  0  0  0  0  0  0  0  0  0  0  0
   -0.8169   24.0362  -29.2639 H   0  0  0  0  0  0  0  0  0  0  0  0
   -2.0450   25.6730  -29.9530 H   0  0  0  0  0  0  0  0  0  0  0  0
   -4.3979   22.9040  -27.2308 H   0  0  0  0  0  0  0  0  0  0  0  0
   -2.8963   23.4573  -26.3956 H   0  0  0  0  0  0  0  0  0  0  0  0
   -3.8450   25.4240  -27.9490 H   0  0  0  0  0  0  0  0  0  0  0  0
  1  2  1  0
  2  3  2  0
  2  4  1  0
  4  5  2  0
  5  6  1  0
  6  7  2  0
  7  8  1  0
  8  9  2  0
  9 10  1  0
 10 11  3  0
 11 12  1  0
 12 13  2  0
 12 14  1  0
  9 15  1  0
 15 16  2  0
 16 17  1  0
 17 18  1  0
 18 19  2  0
 18 20  1  0
 20 21  1  0
 21 22  1  0
 22 23  1  0
 23 24  1  0
 22 25  1  0
 25 26  1  0
 17  4  1  0
 16  6  1  0
  1 27  1  0
  1 28  1  0
  5 29  1  0
  7 30  1  0
  8 31  1  0
 15 32  1  0
 21 33  1  0
 21 34  1  0
 22 35  1  0
 23 36  1  0
 23 37  1  0
 24 38  1  0
 25 39  1  0
 25 40  1  0
 26 41  1  0
M  CHG  1  14  -1
M  END
>  <UniqueID>  (25) 
25

>  <SMILES>  (25) 
NC(=O)c1cc2ccc(C#CC(=O)[O-])cc2n1C(=O)OCC(CO)CO

>  <Energy>  (25) 
71.16752198927288

>  <Genealogy>  (25) 
NC(=O)c1cc2ccc(C#CC(=O)[O-])cc2n1C(=O)OCC(CO)CO (protonated)
NC(=O)c1cc2ccc(C#CC(=O)[O-])cc2n1C(=O)OCC(CO)CO (3D coordinates assigned)
NC(=O)c1cc2ccc(C#CC(=O)[O-])cc2n1C(=O)OCC(CO)CO (optimized conformer: 71.16752198927288 kcal/mol)

>  <smiles>  (25) 
NC(=O)c1cc2ccc(C#CC(=O)O)cc2n1C(=O)OCC(CO)CO

>  <score_type>  (25) 
oracle

>  <origin>  (25) 
adg

>  <m_score__min__energy>  (25) 
-9.1899999999999995

>  <m_primary>  (25) 
energy

$$$$
25:0
     RDKit          3D

 41 43  0  0  0  0  0  0  0  0999 V2000
   -6.0880   25.4290  -28.9650 N   0  0  0  0  0  0  0  0  0  0  0  0
   -5.4320   24.9700  -30.1490 C   0  0  0  0  0  0  0  0  0  0  0  0
   -4.5080   25.6640  -30.6520 O   0  0  0  0  0  0  0  0  0  0  0  0
   -5.8600   23.7310  -30.8290 C   0  0  0  0  0  0  0  0  0  0  0  0
   -7.1750   23.4820  -31.2140 C   0  0  0  0  0  0  0  0  0  0  0  0
   -7.1620   22.2130  -31.7430 C   0  0  0  0  0  0  0  0  0  0  0  0
   -8.1990   21.4630  -32.2890 C   0  0  0  0  0  0  0  0  0  0  0  0
   -7.8950   20.1880  -32.7960 C   0  0  0  0  0  0  0  0  0  0  0  0
   -6.5680   19.6880  -32.7580 C   0  0  0  0  0  0  0  0  0  0  0  0
   -6.2570   18.3450  -33.3090 C   0  0  0  0  0  0  0  0  0  0  0  0
   -7.1000   17.2510  -33.0510 C   0  0  0  0  0  0  0  0  0  0  0  0
   -6.7880   15.9970  -33.5790 C   0  0  0  0  0  0  0  0  0  0  0  0
   -5.6760   15.8340  -34.3400 N   0  0  0  0  0  0  0  0  0  0  0  0
   -4.8370   16.8690  -34.6130 C   0  0  0  0  0  0  0  0  0  0  0  0
   -3.6810   16.6500  -35.4230 N   0  0  0  0  0  0  0  0  0  0  0  0
   -5.1130   18.1430  -34.1010 C   0  0  0  0  0  0  0  0  0  0  0  0
   -5.5420   20.4840  -32.1950 C   0  0  0  0  0  0  0  0  0  0  0  0
   -5.8760   21.7410  -31.6790 C   0  0  0  0  0  0  0  0  0  0  0  0
   -5.0630   22.6660  -31.1210 N   0  0  0  0  0  0  0  0  0  0  0  0
   -3.6360   22.5780  -30.9800 C   0  0  0  0  0  0  0  0  0  0  0  0
   -2.8920   22.7990  -31.9760 O   0  0  0  0  0  0  0  0  0  0  0  0
   -3.0770   22.2440  -29.7420 O   0  0  0  0  0  0  0  0  0  0  0  0
   -3.2870   23.0040  -28.5530 C   0  0  0  0  0  0  0  0  0  0  0  0
   -2.3030   24.1690  -28.4730 C   0  0  0  0  0  0  0  0  0  0  0  0
   -2.3610   24.9210  -29.6530 O   0  0  0  0  0  0  0  0  0  0  0  0
   -5.7430   26.2850  -28.4750 H   0  0  0  0  0  0  0  0  0  0  0  0
   -6.9630   24.9770  -28.6230 H   0  0  0  0  0  0  0  0  0  0  0  0
   -8.0388   24.1560  -31.1159 H   0  0  0  0  0  0  0  0  0  0  0  0
   -9.2258   21.8562  -32.3228 H   0  0  0  0  0  0  0  0  0  0  0  0
   -8.6961   19.5700  -33.2277 H   0  0  0  0  0  0  0  0  0  0  0  0
   -8.0022   17.3821  -32.4355 H   0  0  0  0  0  0  0  0  0  0  0  0
   -7.4454   15.1383  -33.3777 H   0  0  0  0  0  0  0  0  0  0  0  0
   -2.7440   16.5260  -34.9780 H   0  0  0  0  0  0  0  0  0  0  0  0
   -3.7540   16.6100  -36.4640 H   0  0  0  0  0  0  0  0  0  0  0  0
   -4.4368   18.9831  -34.3178 H   0  0  0  0  0  0  0  0  0  0  0  0
   -4.5037   20.1220  -32.1637 H   0  0  0  0  0  0  0  0  0  0  0  0
   -4.3138   23.3986  -28.5539 H   0  0  0  0  0  0  0  0  0  0  0  0
   -3.1292   22.3490  -27.6835 H   0  0  0  0  0  0  0  0  0  0  0  0
   -2.5647   24.8100  -27.6183 H   0  0  0  0  0  0  0  0  0  0  0  0
   -1.2841   23.7754  -28.3429 H   0  0  0  0  0  0  0  0  0  0  0  0
   -2.7760   24.3290  -30.3340 H   0  0  0  0  0  0  0  0  0  0  0  0
  1  2  1  0
  2  3  2  0
  2  4  1  0
  4  5  2  0
  5  6  1  0
  6  7  2  0
  7  8  1  0
  8  9  2  0
  9 10  1  0
 10 11  2  0
 11 12  1  0
 12 13  2  0
 13 14  1  0
 14 15  1  0
 14 16  2  0
  9 17  1  0
 17 18  2  0
 18 19  1  0
 19 20  1  0
 20 21  2  0
 20 22  1  0
 22 23  1  0
 23 24  1  0
 24 25  1  0
 19  4  1  0
 18  6  1  0
 16 10  1  0
  1 26  1  0
  1 27  1  0
  5 28  1  0
  7 29  1  0
  8 30  1  0
 11 31  1  0
 12 32  1  0
 15 33  1  0
 15 34  1  0
 16 35  1  0
 17 36  1  0
 23 37  1  0
 23 38  1  0
 24 39  1  0
 24 40  1  0
 25 41  1  0
M  END
>  <UniqueID>  (26) 
26

>  <SMILES>  (26) 
NC(=O)c1cc2ccc(-c3ccnc(N)c3)cc2n1C(=O)OCCO

>  <Energy>  (26) 
83.3962223752857

>  <Genealogy>  (26) 
NC(=O)c1cc2ccc(-c3ccnc(N)c3)cc2n1C(=O)OCCO (3D coordinates assigned)
NC(=O)c1cc2ccc(-c3ccnc(N)c3)cc2n1C(=O)OCCO (optimized conformer: 83.3962223752857 kcal/mol)

>  <smiles>  (26) 
NC(=O)c1cc2ccc(-c3ccnc(N)c3)cc2n1C(=O)OCCO

>  <score_type>  (26) 
oracle

>  <origin>  (26) 
adg

>  <m_score__min__energy>  (26) 
-9.6199999999999992

>  <m_primary>  (26) 
energy

$$$$
26:0
     RDKit          3D

 35 36  0  0  0  0  0  0  0  0999 V2000
   -3.9710   25.6710  -30.8530 N   0  0  0  0  0  0  0  0  0  0  0  0
   -5.2770   25.2450  -30.4740 C   0  0  0  0  0  0  0  0  0  0  0  0
   -5.9680   25.9740  -29.7130 O   0  0  0  0  0  0  0  0  0  0  0  0
   -5.8090   23.9390  -30.9150 C   0  0  0  0  0  0  0  0  0  0  0  0
   -7.1480   23.7230  -31.2300 C   0  0  0  0  0  0  0  0  0  0  0  0
   -7.2480   22.3770  -31.5010 C   0  0  0  0  0  0  0  0  0  0  0  0
   -8.3530   21.6190  -31.8760 C   0  0  0  0  0  0  0  0  0  0  0  0
   -8.1600   20.2490  -32.1170 C   0  0  0  0  0  0  0  0  0  0  0  0
   -6.8720   19.6690  -32.0000 C   0  0  0  0  0  0  0  0  0  0  0  0
   -6.6820   18.1960  -32.2400 C   0  0  0  0  0  0  0  0  0  0  0  0
   -5.4810   17.9530  -33.1570 C   0  0  0  0  0  0  0  0  0  0  0  0
   -5.9300   17.3780  -34.4640 C   0  0  0  0  0  0  0  0  0  0  0  0
   -6.7910   16.4600  -34.4890 O   0  0  0  0  0  0  0  0  0  0  0  0
   -5.3620   17.8210  -35.6510 O   0  0  0  0  0  0  0  0  0  0  0  0
   -5.7750   20.4690  -31.6050 C   0  0  0  0  0  0  0  0  0  0  0  0
   -6.0010   21.8260  -31.3530 C   0  0  0  0  0  0  0  0  0  0  0  0
   -5.1050   22.7730  -30.9940 N   0  0  0  0  0  0  0  0  0  0  0  0
   -3.6900   22.5920  -30.8400 C   0  0  0  0  0  0  0  0  0  0  0  0
   -3.0940   21.7010  -31.5060 O   0  0  0  0  0  0  0  0  0  0  0  0
   -2.9740   23.4210  -29.9680 O   0  0  0  0  0  0  0  0  0  0  0  0
   -1.5860   23.2550  -29.6930 C   0  0  0  0  0  0  0  0  0  0  0  0
   -1.0010   24.5330  -29.1820 C   0  0  0  0  0  0  0  0  0  0  0  0
   -1.6210   25.6180  -29.3260 O   0  0  0  0  0  0  0  0  0  0  0  0
    0.2200   24.5200  -28.5200 O   0  0  0  0  0  0  0  0  0  0  0  0
   -3.1220   25.2670  -30.4010 H   0  0  0  0  0  0  0  0  0  0  0  0
   -7.9551   24.4699  -31.2567 H   0  0  0  0  0  0  0  0  0  0  0  0
   -9.3469   22.0786  -31.9804 H   0  0  0  0  0  0  0  0  0  0  0  0
   -9.0169   19.6198  -32.3994 H   0  0  0  0  0  0  0  0  0  0  0  0
   -6.5106   17.6916  -31.2776 H   0  0  0  0  0  0  0  0  0  0  0  0
   -7.5853   17.7947  -32.7228 H   0  0  0  0  0  0  0  0  0  0  0  0
   -4.9651   18.9073  -33.3390 H   0  0  0  0  0  0  0  0  0  0  0  0
   -4.7985   17.2411  -32.6698 H   0  0  0  0  0  0  0  0  0  0  0  0
   -4.7698   20.0352  -31.4987 H   0  0  0  0  0  0  0  0  0  0  0  0
   -1.4580   22.4686  -28.9346 H   0  0  0  0  0  0  0  0  0  0  0  0
   -1.0690   22.9712  -30.6215 H   0  0  0  0  0  0  0  0  0  0  0  0
  1  2  1  0
  2  3  2  0
  2  4  1  0
  4  5  2  0
  5  6  1  0
  6  7  2  0
  7  8  1  0
  8  9  2  0
  9 10  1  0
 10 11  1  0
 11 12  1  0
 12 13  2  0
 12 14  1  0
  9 15  1  0
 15 16  2  0
 16 17  1  0
 17 18  1  0
 18 19  2  0
 18 20  1  0
 20 21  1  0
 21 22  1  0
 22 23  2  0
 22 24  1  0
 17  4  1  0
 16  6  1  0
  1 25  1  0
  5 26  1  0
  7 27  1  0
  8 28  1  0
 10 29  1  0
 10 30  1  0
 11 31  1  0
 11 32  1  0
 15 33  1  0
 21 34  1  0
 21 35  1  0
M  CHG  3   1  -1  14  -1  24  -1
M  END
>  <UniqueID>  (27) 
27

>  <SMILES>  (27) 
[NH-]C(=O)c1cc2ccc(CCC(=O)[O-])cc2n1C(=O)OCC(=O)[O-]

>  <Energy>  (27) 
68.38733094821764

>  <Genealogy>  (27) 
[NH-]C(=O)c1cc2ccc(CCC(=O)[O-])cc2n1C(=O)OCC(=O)[O-] (protonated)
[NH-]C(=O)c1cc2ccc(CCC(=O)[O-])cc2n1C(=O)OCC(=O)[O-] (3D coordinates assigned)
[NH-]C(=O)c1cc2ccc(CCC(=O)[O-])cc2n1C(=O)OCC(=O)[O-] (optimized conformer: 68.38733094821764 kcal/mol)

>  <smiles>  (27) 
NC(=O)c1cc2ccc(CCC(=O)O)cc2n1C(=O)OCC(=O)O

>  <score_type>  (27) 
oracle

>  <origin>  (27) 
adg

>  <m_score__min__energy>  (27) 
-12.16

>  <m_primary>  (27) 
energy

$$$$
27:0
     RDKit          3D

 52 54  0  0  0  0  0  0  0  0999 V2000
   -1.1480   20.1900  -29.1220 C   0  0  0  0  0  0  0  0  0  0  0  0
   -1.5410   19.9270  -30.4460 O   0  0  0  0  0  0  0  0  0  0  0  0
   -1.1640   21.2830  -31.4140 P   0  0  0  0  0  0  0  0  0  0  0  0
   -0.4520   22.3430  -30.6010 O   0  0  0  0  0  0  0  0  0  0  0  0
   -2.6780   21.9980  -32.1260 C   0  0  0  0  0  0  0  0  0  0  0  0
   -3.4850   22.6610  -31.0520 C   0  0  0  0  0  0  0  0  0  0  0  0
   -2.9120   23.0860  -30.0130 O   0  0  0  0  0  0  0  0  0  0  0  0
   -4.9090   22.7800  -31.1810 N   0  0  0  0  0  0  0  0  0  0  0  0
   -5.6830   23.8860  -30.9840 C   0  0  0  0  0  0  0  0  0  0  0  0
   -5.2100   25.2210  -30.5560 C   0  0  0  0  0  0  0  0  0  0  0  0
   -3.8900   25.6680  -30.8510 N   0  0  0  0  0  0  0  0  0  0  0  0
   -5.9850   25.9800  -29.9140 O   0  0  0  0  0  0  0  0  0  0  0  0
   -7.0240   23.5860  -31.2180 C   0  0  0  0  0  0  0  0  0  0  0  0
   -7.0460   22.2570  -31.5770 C   0  0  0  0  0  0  0  0  0  0  0  0
   -8.1140   21.4460  -31.9500 C   0  0  0  0  0  0  0  0  0  0  0  0
   -7.8350   20.1190  -32.3160 C   0  0  0  0  0  0  0  0  0  0  0  0
   -6.5030   19.6250  -32.3150 C   0  0  0  0  0  0  0  0  0  0  0  0
   -6.2230   18.2690  -32.7240 N   0  0  0  0  0  0  0  0  0  0  0  0
   -5.9770   17.9480  -34.1360 C   0  0  0  0  0  0  0  0  0  0  0  0
   -6.4890   16.5360  -34.4710 C   0  0  0  0  0  0  0  0  0  0  0  0
   -6.1490   15.5020  -33.4570 N   0  0  0  0  0  0  0  0  0  0  0  0
   -5.4940   14.3390  -34.0760 C   0  0  0  0  0  0  0  0  0  0  0  0
   -5.3440   15.9980  -32.3250 C   0  0  0  0  0  0  0  0  0  0  0  0
   -6.0030   17.2320  -31.7070 C   0  0  0  0  0  0  0  0  0  0  0  0
   -5.4480   20.4870  -31.9310 C   0  0  0  0  0  0  0  0  0  0  0  0
   -5.7570   21.7970  -31.5520 C   0  0  0  0  0  0  0  0  0  0  0  0
   -0.1640   20.8110  -32.7100 O   0  0  0  0  0  0  0  0  0  0  0  0
   -0.8460   21.0720  -33.9110 C   0  0  0  0  0  0  0  0  0  0  0  0
   -1.8572   19.7154  -28.4279 H   0  0  0  0  0  0  0  0  0  0  0  0
   -0.1401   19.7838  -28.9511 H   0  0  0  0  0  0  0  0  0  0  0  0
   -1.1392   21.2766  -28.9511 H   0  0  0  0  0  0  0  0  0  0  0  0
   -2.4057   22.7421  -32.8890 H   0  0  0  0  0  0  0  0  0  0  0  0
   -3.2756   21.1960  -32.5840 H   0  0  0  0  0  0  0  0  0  0  0  0
   -3.0590   25.2260  -30.4010 H   0  0  0  0  0  0  0  0  0  0  0  0
   -7.8834   24.2674  -31.1336 H   0  0  0  0  0  0  0  0  0  0  0  0
   -9.1440   21.8322  -31.9579 H   0  0  0  0  0  0  0  0  0  0  0  0
   -8.6600   19.4524  -32.6077 H   0  0  0  0  0  0  0  0  0  0  0  0
   -6.4989   18.6808  -34.7689 H   0  0  0  0  0  0  0  0  0  0  0  0
   -4.8936   17.9845  -34.3230 H   0  0  0  0  0  0  0  0  0  0  0  0
   -7.5842   16.5802  -34.5633 H   0  0  0  0  0  0  0  0  0  0  0  0
   -5.9915   16.2352  -35.4048 H   0  0  0  0  0  0  0  0  0  0  0  0
   -5.1167   13.6690  -33.2894 H   0  0  0  0  0  0  0  0  0  0  0  0
   -6.2204   13.7985  -34.7007 H   0  0  0  0  0  0  0  0  0  0  0  0
   -4.6553   14.6800  -34.7007 H   0  0  0  0  0  0  0  0  0  0  0  0
   -5.2643   15.2089  -31.5628 H   0  0  0  0  0  0  0  0  0  0  0  0
   -4.3429   16.2713  -32.6898 H   0  0  0  0  0  0  0  0  0  0  0  0
   -6.9706   16.9438  -31.2703 H   0  0  0  0  0  0  0  0  0  0  0  0
   -5.3377   17.6355  -30.9295 H   0  0  0  0  0  0  0  0  0  0  0  0
   -4.4063   20.1336  -31.9307 H   0  0  0  0  0  0  0  0  0  0  0  0
   -1.8515   21.4568  -33.6855 H   0  0  0  0  0  0  0  0  0  0  0  0
   -0.2891   21.8205  -34.4937 H   0  0  0  0  0  0  0  0  0  0  0  0
   -0.9311   20.1429  -34.4937 H   0  0  0  0  0  0  0  0  0  0  0  0
  1  2  1  0
  2  3  1  0
  3  4  2  0
  3  5  1  0
  5  6  1  0
  6  7  2  0
  6  8  1  0
  8  9  1  0
  9 10  1  0
 10 11  1  0
 10 12  2  0
  9 13  2  0
 13 14  1  0
 14 15  2  0
 15 16  1  0
 16 17  2  0
 17 18  1  0
 18 19  1  0
 19 20  1  0
 20 21  1  0
 21 22  1  0
 21 23  1  0
 23 24  1  0
 17 25  1  0
 25 26  2  0
  3 27  1  0
 27 28  1  0
 26  8  1  0
 26 14  1  0
 24 18  1  0
  1 29  1  0
  1 30  1  0
  1 31  1  0
  5 32  1  0
  5 33  1  0
 11 34  1  0
 13 35  1  0
 15 36  1  0
 16 37  1  0
 19 38  1  0
 19 39  1  0
 20 40  1  0
 20 41  1  0
 22 42  1  0
 22 43  1  0
 22 44  1  0
 23 45  1  0
 23 46  1  0
 24 47  1  0
 24 48  1  0
 25 49  1  0
 28 50  1  0
 28 51  1  0
 28 52  1  0
M  CHG  1  11  -1
M  END
>  <UniqueID>  (28) 
28

>  <SMILES>  (28) 
COP(=O)(CC(=O)n1c(C([NH-])=O)cc2ccc(N3CCN(C)CC3)cc21)OC

>  <Energy>  (28) 
94.37701093532226

>  <Genealogy>  (28) 
COP(=O)(CC(=O)n1c(C([NH-])=O)cc2ccc(N3CCN(C)CC3)cc21)OC (protonated)
COP(=O)(CC(=O)n1c(C([NH-])=O)cc2ccc(N3CCN(C)CC3)cc21)OC (3D coordinates assigned)
COP(=O)(CC(=O)n1c(C([NH-])=O)cc2ccc(N3CCN(C)CC3)cc21)OC (nonaromatic ring conformer: 94.37701093532226 kcal/mol)

>  <smiles>  (28) 
COP(=O)(CC(=O)n1c(C(N)=O)cc2ccc(N3CCN(C)CC3)cc21)OC

>  <score_type>  (28) 
oracle

>  <origin>  (28) 
adg

>  <m_score__min__energy>  (28) 
-10.56

>  <m_primary>  (28) 
energy

$$$$
28:0
     RDKit          3D

 31 33  0  0  0  0  0  0  0  0999 V2000
   -4.1570   25.6730  -30.8470 N   0  0  0  0  0  0  0  0  0  0  0  0
   -5.2100   24.9400  -30.2270 C   0  0  0  0  0  0  0  0  0  0  0  0
   -5.7690   25.4110  -29.2010 O   0  0  0  0  0  0  0  0  0  0  0  0
   -5.6580   23.6600  -30.8130 C   0  0  0  0  0  0  0  0  0  0  0  0
   -6.9180   23.4730  -31.3790 C   0  0  0  0  0  0  0  0  0  0  0  0
   -6.9670   22.1430  -31.7280 C   0  0  0  0  0  0  0  0  0  0  0  0
   -7.9840   21.4160  -32.3420 C   0  0  0  0  0  0  0  0  0  0  0  0
   -7.7500   20.0560  -32.6120 C   0  0  0  0  0  0  0  0  0  0  0  0
   -6.5140   19.4540  -32.2730 C   0  0  0  0  0  0  0  0  0  0  0  0
   -6.2790   18.0050  -32.5880 C   0  0  0  0  0  0  0  0  0  0  0  0
   -6.3650   17.2560  -31.4290 F   0  0  0  0  0  0  0  0  0  0  0  0
   -7.2310   17.5640  -33.4890 F   0  0  0  0  0  0  0  0  0  0  0  0
   -5.5040   20.2250  -31.6540 C   0  0  0  0  0  0  0  0  0  0  0  0
   -5.7710   21.5710  -31.3790 C   0  0  0  0  0  0  0  0  0  0  0  0
   -4.9550   22.4910  -30.8170 N   0  0  0  0  0  0  0  0  0  0  0  0
   -3.6050   22.2760  -30.3770 C   0  0  0  0  0  0  0  0  0  0  0  0
   -3.2740   21.1600  -29.8900 O   0  0  0  0  0  0  0  0  0  0  0  0
   -2.6450   23.3330  -30.4790 N   0  0  0  0  0  0  0  0  0  0  0  0
   -2.0570   24.0040  -29.3620 C   0  0  0  0  0  0  0  0  0  0  0  0
   -1.6820   23.3570  -28.2400 N   0  0  0  0  0  0  0  0  0  0  0  0
   -1.1890   24.3460  -27.4700 C   0  0  0  0  0  0  0  0  0  0  0  0
   -1.2840   25.5410  -28.1490 C   0  0  0  0  0  0  0  0  0  0  0  0
   -1.8260   25.2960  -29.3160 O   0  0  0  0  0  0  0  0  0  0  0  0
   -3.1810   25.3030  -30.8610 H   0  0  0  0  0  0  0  0  0  0  0  0
   -7.7057   24.2282  -31.5173 H   0  0  0  0  0  0  0  0  0  0  0  0
   -8.9401   21.8908  -32.6074 H   0  0  0  0  0  0  0  0  0  0  0  0
   -8.5354   19.4534  -33.0916 H   0  0  0  0  0  0  0  0  0  0  0  0
   -5.2767   17.8895  -33.0262 H   0  0  0  0  0  0  0  0  0  0  0  0
   -4.5327   19.7784  -31.3950 H   0  0  0  0  0  0  0  0  0  0  0  0
   -0.7757   24.2195  -26.4585 H   0  0  0  0  0  0  0  0  0  0  0  0
   -0.9622   26.5251  -27.7775 H   0  0  0  0  0  0  0  0  0  0  0  0
  1  2  1  0
  2  3  2  0
  2  4  1  0
  4  5  2  0
  5  6  1  0
  6  7  2  0
  7  8  1  0
  8  9  2  0
  9 10  1  0
 10 11  1  0
 10 12  1  0
  9 13  1  0
 13 14  2  0
 14 15  1  0
 15 16  1  0
 16 17  2  0
 16 18  1  0
 18 19  1  0
 19 20  2  0
 20 21  1  0
 21 22  2  0
 22 23  1  0
 15  4  1  0
 23 19  1  0
 14  6  1  0
  1 24  1  0
  5 25  1  0
  7 26  1  0
  8 27  1  0
 10 28  1  0
 13 29  1  0
 21 30  1  0
 22 31  1  0
M  CHG  2   1  -1  18  -1
M  END
>  <UniqueID>  (29) 
29

>  <SMILES>  (29) 
[NH-]C(=O)c1cc2ccc(C(F)F)cc2n1C(=O)[N-]c1ncco1

>  <Energy>  (29) 
101.50721813091205

>  <Genealogy>  (29) 
[NH-]C(=O)c1cc2ccc(C(F)F)cc2n1C(=O)[N-]c1ncco1 (protonated)
[NH-]C(=O)c1cc2ccc(C(F)F)cc2n1C(=O)[N-]c1ncco1 (3D coordinates assigned)
[NH-]C(=O)c1cc2ccc(C(F)F)cc2n1C(=O)[N-]c1ncco1 (optimized conformer: 101.50721813091205 kcal/mol)

>  <smiles>  (29) 
NC(=O)c1cc2ccc(C(F)F)cc2n1C(=O)Nc1ncco1

>  <score_type>  (29) 
oracle

>  <origin>  (29) 
adg

>  <m_score__min__energy>  (29) 
-10.140000000000001

>  <m_primary>  (29) 
energy

$$$$
29:0
     RDKit          3D

 39 41  0  0  0  0  0  0  0  0999 V2000
   -9.0570   18.5900  -31.6740 C   0  0  0  0  0  0  0  0  0  0  0  0
   -7.6750   19.0880  -31.7240 N   0  0  0  0  0  0  0  0  0  0  0  0
   -6.6990   18.0000  -31.5980 C   0  0  0  0  0  0  0  0  0  0  0  0
   -5.4370   18.4550  -32.3080 C   0  0  0  0  0  0  0  0  0  0  0  0
   -5.9380   19.4210  -33.3720 C   0  0  2  0  0  0  0  0  0  0  0  0
   -5.0710   20.6010  -33.5340 N   0  0  0  0  0  0  0  0  0  0  0  0
   -4.0020   21.0420  -32.6650 C   0  0  0  0  0  0  0  0  0  0  0  0
   -2.8040   20.2830  -32.6310 C   0  0  0  0  0  0  0  0  0  0  0  0
   -1.7230   20.6680  -31.8210 C   0  0  0  0  0  0  0  0  0  0  0  0
   -1.8670   21.8100  -31.0440 C   0  0  0  0  0  0  0  0  0  0  0  0
   -0.9700   22.4230  -30.1990 C   0  0  0  0  0  0  0  0  0  0  0  0
   -1.6390   23.5350  -29.6980 C   0  0  0  0  0  0  0  0  0  0  0  0
   -1.0530   24.4510  -28.6990 C   0  0  0  0  0  0  0  0  0  0  0  0
   -1.8660   25.3800  -27.9810 N   0  0  0  0  0  0  0  0  0  0  0  0
    0.1760   24.3750  -28.4350 O   0  0  0  0  0  0  0  0  0  0  0  0
   -2.8950   23.6190  -30.2200 N   0  0  0  0  0  0  0  0  0  0  0  0
   -3.8480   24.6800  -30.0380 C   0  0  0  0  0  0  0  0  0  0  0  0
   -3.8660   25.6590  -30.8290 O   0  0  0  0  0  0  0  0  0  0  0  0
   -4.7590   24.6380  -28.9900 O   0  0  0  0  0  0  0  0  0  0  0  0
   -3.0200   22.5500  -31.0410 C   0  0  0  0  0  0  0  0  0  0  0  0
   -4.1030   22.2030  -31.8580 C   0  0  0  0  0  0  0  0  0  0  0  0
   -7.3790   19.7740  -32.9910 C   0  0  0  0  0  0  0  0  0  0  0  0
   -9.3686   18.4777  -30.6250 H   0  0  0  0  0  0  0  0  0  0  0  0
   -9.7228   19.3047  -32.1798 H   0  0  0  0  0  0  0  0  0  0  0  0
   -9.1139   17.6148  -32.1798 H   0  0  0  0  0  0  0  0  0  0  0  0
   -6.4861   17.8039  -30.5368 H   0  0  0  0  0  0  0  0  0  0  0  0
   -7.0864   17.0705  -32.0407 H   0  0  0  0  0  0  0  0  0  0  0  0
   -4.7568   18.9629  -31.6085 H   0  0  0  0  0  0  0  0  0  0  0  0
   -4.8663   17.6166  -32.7338 H   0  0  0  0  0  0  0  0  0  0  0  0
   -5.9107   18.9504  -34.3659 H   0  0  0  0  0  0  0  0  0  0  0  0
   -5.2670   21.1860  -34.3780 H   0  0  0  0  0  0  0  0  0  0  0  0
   -2.7202   19.3773  -33.2497 H   0  0  0  0  0  0  0  0  0  0  0  0
   -0.7915   20.0832  -31.8027 H   0  0  0  0  0  0  0  0  0  0  0  0
    0.0567   22.1021  -29.9690 H   0  0  0  0  0  0  0  0  0  0  0  0
   -1.4300   26.0470  -27.3070 H   0  0  0  0  0  0  0  0  0  0  0  0
   -2.9060   25.3520  -28.0510 H   0  0  0  0  0  0  0  0  0  0  0  0
   -5.0141   22.8192  -31.8733 H   0  0  0  0  0  0  0  0  0  0  0  0
   -7.4791   20.8619  -32.8628 H   0  0  0  0  0  0  0  0  0  0  0  0
   -8.0793   19.4585  -33.7784 H   0  0  0  0  0  0  0  0  0  0  0  0
  1  2  1  0
  2  3  1  0
  3  4  1  0
  4  5  1  0
  5  6  1  0
  6  7  1  0
  7  8  2  0
  8  9  1  0
  9 10  2  0
 10 11  1  0
 11 12  2  0
 12 13  1  0
 13 14  1  0
 13 15  2  0
 12 16  1  0
 16 17  1  0
 17 18  2  0
 17 19  1  0
 16 20  1  0
 20 21  2  0
  5 22  1  0
 22  2  1  0
 21  7  1  0
 20 10  1  0
  1 23  1  0
  1 24  1  0
  1 25  1  0
  3 26  1  0
  3 27  1  0
  4 28  1  0
  4 29  1  0
  5 30  1  6
  6 31  1  0
  8 32  1  0
  9 33  1  0
 11 34  1  0
 14 35  1  0
 14 36  1  0
 21 37  1  0
 22 38  1  0
 22 39  1  0
M  CHG  1  19  -1
M  END
>  <UniqueID>  (30) 
30

>  <SMILES>  (30) 
CN1CC[C@H](Nc2ccc3cc(C(N)=O)n(C(=O)[O-])c3c2)C1

>  <Energy>  (30) 
85.556215547879

>  <Genealogy>  (30) 
CN1CCC(Nc2ccc3cc(C(N)=O)n(C(=O)[O-])c3c2)C1 (protonated)
CN1CC[C@H](Nc2ccc3cc(C(N)=O)n(C(=O)[O-])c3c2)C1 (chirality)
CN1CC[C@H](Nc2ccc3cc(C(N)=O)n(C(=O)[O-])c3c2)C1 (3D coordinates assigned)
CN1CC[C@H](Nc2ccc3cc(C(N)=O)n(C(=O)[O-])c3c2)C1 (nonaromatic ring conformer: 85.556215547879 kcal/mol)

>  <smiles>  (30) 
CN1CCC(Nc2ccc3cc(C(N)=O)n(C(=O)O)c3c2)C1

>  <score_type>  (30) 
oracle

>  <origin>  (30) 
adg

>  <m_score__min__energy>  (30) 
-9.1799999999999997

>  <m_primary>  (30) 
energy

$$$$
30:0
     RDKit          3D

 34 35  0  0  0  0  0  0  0  0999 V2000
   -6.4320   20.8020  -33.0470 C   0  0  0  0  0  0  0  0  0  0  0  0
   -5.2470   19.9720  -32.8030 N   0  0  0  0  0  0  0  0  0  0  0  0
   -5.2620   18.5530  -33.2020 C   0  0  0  0  0  0  0  0  0  0  0  0
   -5.9990   17.6940  -32.1720 C   0  0  0  0  0  0  0  0  0  0  0  0
   -7.3860   17.5140  -32.5740 N   0  0  0  0  0  0  0  0  0  0  0  0
   -8.2660   18.2550  -32.1370 N   0  0  0  0  0  0  0  0  0  0  0  0
   -9.1460   18.9960  -31.7000 N   0  0  0  0  0  0  0  0  0  0  0  0
   -4.0940   20.5520  -32.1480 C   0  0  0  0  0  0  0  0  0  0  0  0
   -2.8430   19.8790  -32.1750 C   0  0  0  0  0  0  0  0  0  0  0  0
   -1.7100   20.4360  -31.5600 C   0  0  0  0  0  0  0  0  0  0  0  0
   -1.8520   21.6610  -30.9180 C   0  0  0  0  0  0  0  0  0  0  0  0
   -0.9160   22.4310  -30.2670 C   0  0  0  0  0  0  0  0  0  0  0  0
   -1.6080   23.5570  -29.8260 C   0  0  0  0  0  0  0  0  0  0  0  0
   -0.9930   24.6150  -28.9960 C   0  0  0  0  0  0  0  0  0  0  0  0
   -1.5750   25.9150  -28.9610 N   0  0  0  0  0  0  0  0  0  0  0  0
    0.0630   24.3930  -28.3470 O   0  0  0  0  0  0  0  0  0  0  0  0
   -2.9180   23.4890  -30.1950 N   0  0  0  0  0  0  0  0  0  0  0  0
   -3.9390   24.4810  -29.9960 C   0  0  0  0  0  0  0  0  0  0  0  0
   -4.8790   24.2730  -29.1830 O   0  0  0  0  0  0  0  0  0  0  0  0
   -3.9150   25.6670  -30.7180 O   0  0  0  0  0  0  0  0  0  0  0  0
   -3.0520   22.3200  -30.8620 C   0  0  0  0  0  0  0  0  0  0  0  0
   -4.1940   21.7970  -31.4790 C   0  0  0  0  0  0  0  0  0  0  0  0
   -6.8694   21.1084  -32.0853 H   0  0  0  0  0  0  0  0  0  0  0  0
   -6.1423   21.6956  -33.6193 H   0  0  0  0  0  0  0  0  0  0  0  0
   -7.1728   20.2243  -33.6193 H   0  0  0  0  0  0  0  0  0  0  0  0
   -5.7677   18.4594  -34.1744 H   0  0  0  0  0  0  0  0  0  0  0  0
   -4.2224   18.1999  -33.2687 H   0  0  0  0  0  0  0  0  0  0  0  0
   -5.5101   16.7112  -32.1007 H   0  0  0  0  0  0  0  0  0  0  0  0
   -5.9692   18.1977  -31.1946 H   0  0  0  0  0  0  0  0  0  0  0  0
   -2.7607   18.9078  -32.6849 H   0  0  0  0  0  0  0  0  0  0  0  0
   -0.7395   19.9187  -31.5855 H   0  0  0  0  0  0  0  0  0  0  0  0
    0.1513   22.2057  -30.1249 H   0  0  0  0  0  0  0  0  0  0  0  0
   -2.6110   26.0410  -28.9790 H   0  0  0  0  0  0  0  0  0  0  0  0
   -5.1494   22.3411  -31.4453 H   0  0  0  0  0  0  0  0  0  0  0  0
  1  2  1  0
  2  3  1  0
  3  4  1  0
  4  5  1  0
  5  6  2  0
  6  7  2  0
  2  8  1  0
  8  9  2  0
  9 10  1  0
 10 11  2  0
 11 12  1  0
 12 13  2  0
 13 14  1  0
 14 15  1  0
 14 16  2  0
 13 17  1  0
 17 18  1  0
 18 19  2  0
 18 20  1  0
 17 21  1  0
 21 22  2  0
 22  8  1  0
 21 11  1  0
  1 23  1  0
  1 24  1  0
  1 25  1  0
  3 26  1  0
  3 27  1  0
  4 28  1  0
  4 29  1  0
  9 30  1  0
 10 31  1  0
 12 32  1  0
 15 33  1  0
 22 34  1  0
M  CHG  4   6   1   7  -1  15  -1  20  -1
M  END
>  <UniqueID>  (31) 
31

>  <SMILES>  (31) 
CN(CCN=[N+]=[N-])c1ccc2cc(C([NH-])=O)n(C(=O)[O-])c2c1

>  <Energy>  (31) 
71.58733383915647

>  <Genealogy>  (31) 
CN(CCN=[N+]=[N-])c1ccc2cc(C([NH-])=O)n(C(=O)[O-])c2c1 (protonated)
CN(CCN=[N+]=[N-])c1ccc2cc(C([NH-])=O)n(C(=O)[O-])c2c1 (3D coordinates assigned)
CN(CCN=[N+]=[N-])c1ccc2cc(C([NH-])=O)n(C(=O)[O-])c2c1 (optimized conformer: 71.58733383915647 kcal/mol)

>  <smiles>  (31) 
CN(CCN=[N+]=[N-])c1ccc2cc(C(N)=O)n(C(=O)O)c2c1

>  <score_type>  (31) 
oracle

>  <origin>  (31) 
adg

>  <m_score__min__energy>  (31) 
-11.289999999999999

>  <m_primary>  (31) 
energy

$$$$
31:0
     RDKit          3D

 43 44  0  0  0  0  0  0  0  0999 V2000
   -3.7910   22.3270  -28.9490 C   0  0  0  0  0  0  0  0  0  0  0  0
   -3.3180   22.2470  -30.1930 C   0  0  0  0  0  0  0  0  0  0  0  0
   -4.1580   22.4990  -31.3800 C   0  0  0  0  0  0  0  0  0  0  0  0
   -3.6830   22.2980  -32.5310 O   0  0  0  0  0  0  0  0  0  0  0  0
   -5.5190   22.9320  -31.2460 N   0  0  0  0  0  0  0  0  0  0  0  0
   -5.9740   24.1490  -30.8590 C   0  0  0  0  0  0  0  0  0  0  0  0
   -5.1340   25.3080  -30.4860 C   0  0  0  0  0  0  0  0  0  0  0  0
   -3.7120   25.2120  -30.4810 N   0  0  0  0  0  0  0  0  0  0  0  0
   -5.6800   26.4080  -30.1850 O   0  0  0  0  0  0  0  0  0  0  0  0
   -7.3690   24.1640  -30.8610 C   0  0  0  0  0  0  0  0  0  0  0  0
   -7.7500   22.9060  -31.2710 C   0  0  0  0  0  0  0  0  0  0  0  0
   -9.0170   22.3670  -31.4800 C   0  0  0  0  0  0  0  0  0  0  0  0
   -9.1030   21.0390  -31.9360 C   0  0  0  0  0  0  0  0  0  0  0  0
   -7.9280   20.2810  -32.1780 C   0  0  0  0  0  0  0  0  0  0  0  0
   -8.0270   18.8520  -32.6440 C   0  0  0  0  0  0  0  0  0  0  0  0
   -6.9270   17.9940  -32.0040 C   0  0  0  0  0  0  0  0  0  0  0  0
   -6.0340   17.2910  -33.0640 C   0  0  0  0  0  0  0  0  0  0  0  0
   -5.5440   18.1740  -34.1510 N   0  0  0  0  0  0  0  0  0  0  0  0
   -4.6670   19.2510  -33.6590 C   0  0  0  0  0  0  0  0  0  0  0  0
   -4.9030   17.4230  -35.2440 C   0  0  0  0  0  0  0  0  0  0  0  0
   -6.6630   20.8610  -31.9390 C   0  0  0  0  0  0  0  0  0  0  0  0
   -6.6120   22.1830  -31.4960 C   0  0  0  0  0  0  0  0  0  0  0  0
   -3.1269   22.1305  -28.0944 H   0  0  0  0  0  0  0  0  0  0  0  0
   -4.8453   22.5895  -28.7773 H   0  0  0  0  0  0  0  0  0  0  0  0
   -2.2604   21.9829  -30.3404 H   0  0  0  0  0  0  0  0  0  0  0  0
   -3.1420   25.6730  -31.2250 H   0  0  0  0  0  0  0  0  0  0  0  0
   -8.0262   25.0040  -30.5917 H   0  0  0  0  0  0  0  0  0  0  0  0
   -9.9234   22.9619  -31.2941 H   0  0  0  0  0  0  0  0  0  0  0  0
  -10.0899   20.5841  -32.1065 H   0  0  0  0  0  0  0  0  0  0  0  0
   -9.0102   18.4476  -32.3616 H   0  0  0  0  0  0  0  0  0  0  0  0
   -7.9031   18.8275  -33.7367 H   0  0  0  0  0  0  0  0  0  0  0  0
   -6.2925   18.6405  -31.3799 H   0  0  0  0  0  0  0  0  0  0  0  0
   -7.4166   17.2119  -31.4052 H   0  0  0  0  0  0  0  0  0  0  0  0
   -5.1601   16.8669  -32.5478 H   0  0  0  0  0  0  0  0  0  0  0  0
   -6.6662   16.5302  -33.5452 H   0  0  0  0  0  0  0  0  0  0  0  0
   -6.3870   18.6360  -34.5640 H   0  0  0  0  0  0  0  0  0  0  0  0
   -4.6674   19.2505  -32.5590 H   0  0  0  0  0  0  0  0  0  0  0  0
   -3.6430   19.0862  -34.0254 H   0  0  0  0  0  0  0  0  0  0  0  0
   -5.0359   20.2204  -34.0254 H   0  0  0  0  0  0  0  0  0  0  0  0
   -4.2438   16.6507  -34.8209 H   0  0  0  0  0  0  0  0  0  0  0  0
   -5.6764   16.9456  -35.8637 H   0  0  0  0  0  0  0  0  0  0  0  0
   -4.3101   18.1118  -35.8637 H   0  0  0  0  0  0  0  0  0  0  0  0
   -5.7399   20.2844  -32.0983 H   0  0  0  0  0  0  0  0  0  0  0  0
  1  2  2  0
  2  3  1  0
  3  4  2  0
  3  5  1  0
  5  6  1  0
  6  7  1  0
  7  8  1  0
  7  9  2  0
  6 10  2  0
 10 11  1  0
 11 12  2  0
 12 13  1  0
 13 14  2  0
 14 15  1  0
 15 16  1  0
 16 17  1  0
 17 18  1  0
 18 19  1  0
 18 20  1  0
 14 21  1  0
 21 22  2  0
 22  5  1  0
 22 11  1  0
  1 23  1  0
  1 24  1  0
  2 25  1  0
  8 26  1  0
 10 27  1  0
 12 28  1  0
 13 29  1  0
 15 30  1  0
 15 31  1  0
 16 32  1  0
 16 33  1  0
 17 34  1  0
 17 35  1  0
 18 36  1  0
 19 37  1  0
 19 38  1  0
 19 39  1  0
 20 40  1  0
 20 41  1  0
 20 42  1  0
 21 43  1  0
M  CHG  2   8  -1  18   1
M  END
>  <UniqueID>  (32) 
32

>  <SMILES>  (32) 
C=CC(=O)n1c(C([NH-])=O)cc2ccc(CCC[NH+](C)C)cc21

>  <Energy>  (32) 
83.49414452843888

>  <Genealogy>  (32) 
C=CC(=O)n1c(C([NH-])=O)cc2ccc(CCC[NH+](C)C)cc21 (protonated)
C=CC(=O)n1c(C([NH-])=O)cc2ccc(CCC[NH+](C)C)cc21 (3D coordinates assigned)
C=CC(=O)n1c(C([NH-])=O)cc2ccc(CCC[NH+](C)C)cc21 (optimized conformer: 83.49414452843888 kcal/mol)

>  <smiles>  (32) 
C=CC(=O)n1c(C(N)=O)cc2ccc(CCCN(C)C)cc21

>  <score_type>  (32) 
oracle

>  <origin>  (32) 
adg

>  <m_score__min__energy>  (32) 
-10.029999999999999

>  <m_primary>  (32) 
energy

$$$$
32:0
     RDKit          3D

 40 41  0  0  0  0  0  0  0  0999 V2000
   -1.6840   22.5680  -30.3980 C   0  0  0  0  0  0  0  0  0  0  0  0
   -3.1000   22.9080  -30.3570 N   0  0  0  0  0  0  0  0  0  0  0  0
   -3.9930   22.5520  -31.4190 C   0  0  0  0  0  0  0  0  0  0  0  0
   -3.5500   21.9890  -32.4570 O   0  0  0  0  0  0  0  0  0  0  0  0
   -5.3970   22.8250  -31.3020 N   0  0  0  0  0  0  0  0  0  0  0  0
   -5.9920   23.9830  -30.8970 C   0  0  0  0  0  0  0  0  0  0  0  0
   -5.3000   25.1720  -30.3560 C   0  0  0  0  0  0  0  0  0  0  0  0
   -3.8960   25.3490  -30.5320 N   0  0  0  0  0  0  0  0  0  0  0  0
   -5.9510   26.0270  -29.6990 O   0  0  0  0  0  0  0  0  0  0  0  0
   -7.3780   23.8800  -31.0020 C   0  0  0  0  0  0  0  0  0  0  0  0
   -7.6150   22.6130  -31.4850 C   0  0  0  0  0  0  0  0  0  0  0  0
   -8.8140   21.9810  -31.7950 C   0  0  0  0  0  0  0  0  0  0  0  0
   -8.7570   20.6770  -32.3130 C   0  0  0  0  0  0  0  0  0  0  0  0
   -7.5140   20.0320  -32.5270 C   0  0  0  0  0  0  0  0  0  0  0  0
   -7.5060   18.6970  -33.0710 N   0  0  0  0  0  0  0  0  0  0  0  0
   -7.0520   17.5050  -32.3530 C   0  0  0  0  0  0  0  0  0  0  0  0
   -5.9630   16.7580  -33.1300 C   0  0  0  0  0  0  0  0  0  0  0  0
   -5.1090   17.8130  -34.2980 S   0  0  0  0  0  0  0  0  0  0  0  0
   -3.8550   16.9050  -35.1790 C   0  0  0  0  0  0  0  0  0  0  0  0
   -6.0910   18.3860  -35.2810 O   0  0  0  0  0  0  0  0  0  0  0  0
   -4.4560   18.9370  -33.5470 O   0  0  0  0  0  0  0  0  0  0  0  0
   -6.3140   20.7080  -32.1930 C   0  0  0  0  0  0  0  0  0  0  0  0
   -6.4040   21.9980  -31.6600 C   0  0  0  0  0  0  0  0  0  0  0  0
   -1.2992   22.4756  -29.3716 H   0  0  0  0  0  0  0  0  0  0  0  0
   -1.5515   21.6125  -30.9267 H   0  0  0  0  0  0  0  0  0  0  0  0
   -1.1321   23.3592  -30.9267 H   0  0  0  0  0  0  0  0  0  0  0  0
   -3.4690   23.4380  -29.5350 H   0  0  0  0  0  0  0  0  0  0  0  0
   -3.5240   26.0300  -31.2290 H   0  0  0  0  0  0  0  0  0  0  0  0
   -8.1243   24.6484  -30.7519 H   0  0  0  0  0  0  0  0  0  0  0  0
   -9.7781   22.4872  -31.6392 H   0  0  0  0  0  0  0  0  0  0  0  0
   -9.6908   20.1489  -32.5561 H   0  0  0  0  0  0  0  0  0  0  0  0
   -7.8390   18.5600  -34.0530 H   0  0  0  0  0  0  0  0  0  0  0  0
   -6.6483   17.8091  -31.3760 H   0  0  0  0  0  0  0  0  0  0  0  0
   -7.9115   16.8295  -32.2305 H   0  0  0  0  0  0  0  0  0  0  0  0
   -5.2298   16.3582  -32.4140 H   0  0  0  0  0  0  0  0  0  0  0  0
   -6.4509   15.9538  -33.7003 H   0  0  0  0  0  0  0  0  0  0  0  0
   -3.1814   16.4173  -34.4590 H   0  0  0  0  0  0  0  0  0  0  0  0
   -4.3313   16.1410  -35.8110 H   0  0  0  0  0  0  0  0  0  0  0  0
   -3.2779   17.5960  -35.8110 H   0  0  0  0  0  0  0  0  0  0  0  0
   -5.3357   20.2298  -32.3491 H   0  0  0  0  0  0  0  0  0  0  0  0
  1  2  1  0
  2  3  1  0
  3  4  2  0
  3  5  1  0
  5  6  1  0
  6  7  1  0
  7  8  1  0
  7  9  2  0
  6 10  2  0
 10 11  1  0
 11 12  2  0
 12 13  1  0
 13 14  2  0
 14 15  1  0
 15 16  1  0
 16 17  1  0
 17 18  1  0
 18 19  1  0
 18 20  2  0
 18 21  2  0
 14 22  1  0
 22 23  2  0
 23  5  1  0
 23 11  1  0
  1 24  1  0
  1 25  1  0
  1 26  1  0
  2 27  1  0
  8 28  1  0
 10 29  1  0
 12 30  1  0
 13 31  1  0
 15 32  1  0
 16 33  1  0
 16 34  1  0
 17 35  1  0
 17 36  1  0
 19 37  1  0
 19 38  1  0
 19 39  1  0
 22 40  1  0
M  CHG  1   8  -1
M  END
>  <UniqueID>  (33) 
33

>  <SMILES>  (33) 
CNC(=O)n1c(C([NH-])=O)cc2ccc(NCCS(C)(=O)=O)cc21

>  <Energy>  (33) 
66.64498565246973

>  <Genealogy>  (33) 
CNC(=O)n1c(C([NH-])=O)cc2ccc(NCCS(C)(=O)=O)cc21 (protonated)
CNC(=O)n1c(C([NH-])=O)cc2ccc(NCCS(C)(=O)=O)cc21 (3D coordinates assigned)
CNC(=O)n1c(C([NH-])=O)cc2ccc(NCCS(C)(=O)=O)cc21 (optimized conformer: 66.64498565246973 kcal/mol)

>  <smiles>  (33) 
CNC(=O)n1c(C(N)=O)cc2ccc(NCCS(C)(=O)=O)cc21

>  <score_type>  (33) 
oracle

>  <origin>  (33) 
adg

>  <m_score__min__energy>  (33) 
-10.68

>  <m_primary>  (33) 
energy

$$$$
33:0
     RDKit          3D

 42 44  0  0  0  0  0  0  0  0999 V2000
   -6.9400   18.2530  -32.6040 C   0  0  0  0  0  0  0  0  0  0  0  0
   -7.1450   19.7050  -32.2890 C   0  0  0  0  0  0  0  0  0  0  0  0
   -8.4440   20.2720  -32.3290 C   0  0  0  0  0  0  0  0  0  0  0  0
   -8.6510   21.6140  -31.9750 C   0  0  0  0  0  0  0  0  0  0  0  0
   -7.5420   22.3630  -31.5790 C   0  0  0  0  0  0  0  0  0  0  0  0
   -7.4540   23.6720  -31.1480 C   0  0  0  0  0  0  0  0  0  0  0  0
   -6.1020   23.8740  -30.8510 C   0  0  0  0  0  0  0  0  0  0  0  0
   -5.5310   25.1290  -30.2920 C   0  0  0  0  0  0  0  0  0  0  0  0
   -6.1030   25.7490  -29.1420 N   0  0  0  0  0  0  0  0  0  0  0  0
   -4.5330   25.6660  -30.8420 O   0  0  0  0  0  0  0  0  0  0  0  0
   -5.3900   22.7370  -31.0830 N   0  0  0  0  0  0  0  0  0  0  0  0
   -3.9890   22.4980  -30.8630 C   0  0  0  0  0  0  0  0  0  0  0  0
   -3.1650   22.7630  -31.7810 O   0  0  0  0  0  0  0  0  0  0  0  0
   -3.5330   21.9110  -29.6300 N   0  0  0  0  0  0  0  0  0  0  0  0
   -2.7480   20.6740  -29.6760 C   0  0  0  0  0  0  0  0  0  0  0  0
   -3.6250   22.6670  -28.3760 C   0  0  0  0  0  0  0  0  0  0  0  0
   -2.2840   23.3840  -28.0930 C   0  0  0  0  0  0  0  0  0  0  0  0
   -1.5650   23.8790  -29.3410 C   0  0  0  0  0  0  0  0  0  0  0  0
   -1.7230   25.2870  -28.9720 N   0  0  0  0  0  0  0  0  0  0  0  0
   -2.4140   24.8670  -27.7540 C   0  0  0  0  0  0  0  0  0  0  0  0
   -6.2810   21.8260  -31.5320 C   0  0  0  0  0  0  0  0  0  0  0  0
   -6.0460   20.4950  -31.8790 C   0  0  0  0  0  0  0  0  0  0  0  0
   -6.8594   17.6824  -31.6670 H   0  0  0  0  0  0  0  0  0  0  0  0
   -7.7944   17.8803  -33.1880 H   0  0  0  0  0  0  0  0  0  0  0  0
   -6.0158   18.1314  -33.1880 H   0  0  0  0  0  0  0  0  0  0  0  0
   -9.2985   19.6534  -32.6408 H   0  0  0  0  0  0  0  0  0  0  0  0
   -9.6554   22.0614  -32.0086 H   0  0  0  0  0  0  0  0  0  0  0  0
   -8.2729   24.4009  -31.0575 H   0  0  0  0  0  0  0  0  0  0  0  0
   -5.7790   26.6940  -28.8570 H   0  0  0  0  0  0  0  0  0  0  0  0
   -6.8390   25.2850  -28.5740 H   0  0  0  0  0  0  0  0  0  0  0  0
   -2.5342   20.3371  -28.6509 H   0  0  0  0  0  0  0  0  0  0  0  0
   -3.3187   19.8971  -30.2058 H   0  0  0  0  0  0  0  0  0  0  0  0
   -1.8020   20.8595  -30.2058 H   0  0  0  0  0  0  0  0  0  0  0  0
   -4.4277   23.4145  -28.4590 H   0  0  0  0  0  0  0  0  0  0  0  0
   -3.8458   21.9738  -27.5510 H   0  0  0  0  0  0  0  0  0  0  0  0
   -1.8575   22.6441  -27.3997 H   0  0  0  0  0  0  0  0  0  0  0  0
   -0.5145   23.5574  -29.3961 H   0  0  0  0  0  0  0  0  0  0  0  0
   -1.9264   23.5471  -30.3255 H   0  0  0  0  0  0  0  0  0  0  0  0
   -0.7810   25.6670  -28.7090 H   0  0  0  0  0  0  0  0  0  0  0  0
   -1.8863   25.1522  -26.8319 H   0  0  0  0  0  0  0  0  0  0  0  0
   -3.4135   25.2762  -27.5450 H   0  0  0  0  0  0  0  0  0  0  0  0
   -5.0319   20.0711  -31.8348 H   0  0  0  0  0  0  0  0  0  0  0  0
  1  2  1  0
  2  3  2  0
  3  4  1  0
  4  5  2  0
  5  6  1  0
  6  7  2  0
  7  8  1  0
  8  9  1  0
  8 10  2  0
  7 11  1  0
 11 12  1  0
 12 13  2  0
 12 14  1  0
 14 15  1  0
 14 16  1  0
 16 17  1  0
 17 18  1  0
 18 19  1  0
 19 20  1  0
 11 21  1  0
 21 22  2  0
 22  2  1  0
 21  5  1  0
 20 17  1  0
  1 23  1  0
  1 24  1  0
  1 25  1  0
  3 26  1  0
  4 27  1  0
  6 28  1  0
  9 29  1  0
  9 30  1  0
 15 31  1  0
 15 32  1  0
 15 33  1  0
 16 34  1  0
 16 35  1  0
 17 36  1  0
 18 37  1  0
 18 38  1  0
 19 39  1  0
 20 40  1  0
 20 41  1  0
 22 42  1  0
M  END
>  <UniqueID>  (34) 
34

>  <SMILES>  (34) 
Cc1ccc2cc(C(N)=O)n(C(=O)N(C)CC3CNC3)c2c1

>  <Energy>  (34) 
145.9079784207624

>  <Genealogy>  (34) 
Cc1ccc2cc(C(N)=O)n(C(=O)N(C)CC3CNC3)c2c1 (3D coordinates assigned)
Cc1ccc2cc(C(N)=O)n(C(=O)N(C)CC3CNC3)c2c1 (nonaromatic ring conformer: 145.9079784207624 kcal/mol)

>  <smiles>  (34) 
Cc1ccc2cc(C(N)=O)n(C(=O)N(C)CC3CNC3)c2c1

>  <score_type>  (34) 
oracle

>  <origin>  (34) 
adg

>  <m_score__min__energy>  (34) 
-8.9000000000000004

>  <m_primary>  (34) 
energy

$$$$
34:0
     RDKit          3D

 44 46  0  0  0  0  0  0  0  0999 V2000
   -3.0130   20.8100  -29.9880 C   0  0  0  0  0  0  0  0  0  0  0  0
   -2.4080   21.1490  -31.3600 C   0  0  0  0  0  0  0  0  0  0  0  0
   -2.3450   19.8650  -32.2070 C   0  0  0  0  0  0  0  0  0  0  0  0
   -1.0000   21.7350  -31.1520 C   0  0  0  0  0  0  0  0  0  0  0  0
   -3.2720   22.1150  -31.9730 O   0  0  0  0  0  0  0  0  0  0  0  0
   -4.0370   23.0880  -31.3130 C   0  0  0  0  0  0  0  0  0  0  0  0
   -3.4860   24.0760  -30.7560 O   0  0  0  0  0  0  0  0  0  0  0  0
   -5.4660   22.9580  -31.2750 N   0  0  0  0  0  0  0  0  0  0  0  0
   -6.3780   23.9000  -30.9050 C   0  0  0  0  0  0  0  0  0  0  0  0
   -6.0680   25.2160  -30.3100 C   0  0  0  0  0  0  0  0  0  0  0  0
   -5.0160   26.0330  -30.8260 N   0  0  0  0  0  0  0  0  0  0  0  0
   -6.7070   25.6010  -29.2950 O   0  0  0  0  0  0  0  0  0  0  0  0
   -7.6740   23.4400  -31.1170 C   0  0  0  0  0  0  0  0  0  0  0  0
   -7.5290   22.1670  -31.6200 C   0  0  0  0  0  0  0  0  0  0  0  0
   -8.4940   21.2490  -32.0190 C   0  0  0  0  0  0  0  0  0  0  0  0
   -8.0590   20.0180  -32.5350 C   0  0  0  0  0  0  0  0  0  0  0  0
   -6.6740   19.7240  -32.6590 C   0  0  0  0  0  0  0  0  0  0  0  0
   -6.2360   18.4180  -33.2190 C   0  0  0  0  0  0  0  0  0  0  0  0
   -5.0300   18.1460  -33.8720 C   0  0  0  0  0  0  0  0  0  0  0  0
   -4.8990   16.8150  -34.2870 C   0  0  0  0  0  0  0  0  0  0  0  0
   -5.9980   16.0310  -33.9680 C   0  0  0  0  0  0  0  0  0  0  0  0
   -6.1450   14.6060  -34.2770 C   0  0  0  0  0  0  0  0  0  0  0  0
   -7.2730   14.0520  -34.2140 O   0  0  0  0  0  0  0  0  0  0  0  0
   -7.1280   16.9850  -33.1720 S   0  0  0  0  0  0  0  0  0  0  0  0
   -5.7260   20.6910  -32.2410 C   0  0  0  0  0  0  0  0  0  0  0  0
   -6.1880   21.8990  -31.7090 C   0  0  0  0  0  0  0  0  0  0  0  0
   -2.3498   21.1816  -29.1929 H   0  0  0  0  0  0  0  0  0  0  0  0
   -4.0001   21.2864  -29.8947 H   0  0  0  0  0  0  0  0  0  0  0  0
   -3.1220   19.7194  -29.8947 H   0  0  0  0  0  0  0  0  0  0  0  0
   -2.3020   18.9893  -31.5427 H   0  0  0  0  0  0  0  0  0  0  0  0
   -3.2410   19.8001  -32.8417 H   0  0  0  0  0  0  0  0  0  0  0  0
   -1.4469   19.8881  -32.8417 H   0  0  0  0  0  0  0  0  0  0  0  0
   -0.7940   21.8207  -30.0749 H   0  0  0  0  0  0  0  0  0  0  0  0
   -0.2548   21.0723  -31.6162 H   0  0  0  0  0  0  0  0  0  0  0  0
   -0.9450   22.7307  -31.6162 H   0  0  0  0  0  0  0  0  0  0  0  0
   -4.3570   25.6720  -31.5500 H   0  0  0  0  0  0  0  0  0  0  0  0
   -4.8420   26.9790  -30.4200 H   0  0  0  0  0  0  0  0  0  0  0  0
   -8.6135   23.9785  -30.9239 H   0  0  0  0  0  0  0  0  0  0  0  0
   -9.5660   21.4803  -31.9330 H   0  0  0  0  0  0  0  0  0  0  0  0
   -8.8016   19.2694  -32.8482 H   0  0  0  0  0  0  0  0  0  0  0  0
   -4.2552   18.9076  -34.0440 H   0  0  0  0  0  0  0  0  0  0  0  0
   -4.0132   16.4297  -34.8133 H   0  0  0  0  0  0  0  0  0  0  0  0
   -5.2626   14.0163  -34.5662 H   0  0  0  0  0  0  0  0  0  0  0  0
   -4.6475   20.4951  -32.3332 H   0  0  0  0  0  0  0  0  0  0  0  0
  1  2  1  0
  2  3  1  0
  2  4  1  0
  2  5  1  0
  5  6  1  0
  6  7  2  0
  6  8  1  0
  8  9  1  0
  9 10  1  0
 10 11  1  0
 10 12  2  0
  9 13  2  0
 13 14  1  0
 14 15  2  0
 15 16  1  0
 16 17  2  0
 17 18  1  0
 18 19  2  0
 19 20  1  0
 20 21  2  0
 21 22  1  0
 22 23  2  0
 21 24  1  0
 17 25  1  0
 25 26  2  0
 26  8  1  0
 26 14  1  0
 24 18  1  0
  1 27  1  0
  1 28  1  0
  1 29  1  0
  3 30  1  0
  3 31  1  0
  3 32  1  0
  4 33  1  0
  4 34  1  0
  4 35  1  0
 11 36  1  0
 11 37  1  0
 13 38  1  0
 15 39  1  0
 16 40  1  0
 19 41  1  0
 20 42  1  0
 22 43  1  0
 25 44  1  0
M  END
>  <UniqueID>  (35) 
35

>  <SMILES>  (35) 
CC(C)(C)OC(=O)n1c(C(N)=O)cc2ccc(-c3ccc(C=O)s3)cc21

>  <Energy>  (35) 
107.64380502852165

>  <Genealogy>  (35) 
CC(C)(C)OC(=O)n1c(C(N)=O)cc2ccc(-c3ccc(C=O)s3)cc21 (3D coordinates assigned)
CC(C)(C)OC(=O)n1c(C(N)=O)cc2ccc(-c3ccc(C=O)s3)cc21 (optimized conformer: 107.64380502852165 kcal/mol)

>  <smiles>  (35) 
CC(C)(C)OC(=O)n1c(C(N)=O)cc2ccc(-c3ccc(C=O)s3)cc21

>  <score_type>  (35) 
oracle

>  <origin>  (35) 
adg

>  <m_score__min__energy>  (35) 
-9.8699999999999992

>  <m_primary>  (35) 
energy

$$$$
35:0
     RDKit          3D

 39 41  0  0  0  0  0  0  0  0999 V2000
   -4.7630   15.7640  -34.3450 C   0  0  0  0  0  0  0  0  0  0  0  0
   -5.7090   16.6860  -33.7320 N   0  0  0  0  0  0  0  0  0  0  0  0
   -5.4990   17.9970  -33.5130 C   0  0  0  0  0  0  0  0  0  0  0  0
   -6.6010   18.5040  -32.8440 C   0  0  0  0  0  0  0  0  0  0  0  0
   -6.8230   19.9000  -32.3880 C   0  0  0  0  0  0  0  0  0  0  0  0
   -8.1300   20.4590  -32.3870 C   0  0  0  0  0  0  0  0  0  0  0  0
   -8.3510   21.7740  -31.9470 C   0  0  0  0  0  0  0  0  0  0  0  0
   -7.2540   22.5140  -31.5210 C   0  0  0  0  0  0  0  0  0  0  0  0
   -7.1900   23.7950  -31.0250 C   0  0  0  0  0  0  0  0  0  0  0  0
   -5.8420   24.0190  -30.7500 C   0  0  0  0  0  0  0  0  0  0  0  0
   -5.3130   25.3130  -30.2740 C   0  0  0  0  0  0  0  0  0  0  0  0
   -3.9500   25.6720  -30.4840 N   0  0  0  0  0  0  0  0  0  0  0  0
   -6.0880   26.1360  -29.7160 O   0  0  0  0  0  0  0  0  0  0  0  0
   -5.1040   22.9130  -31.0560 N   0  0  0  0  0  0  0  0  0  0  0  0
   -3.6990   22.7030  -30.8440 C   0  0  0  0  0  0  0  0  0  0  0  0
   -2.8820   22.9200  -31.7800 O   0  0  0  0  0  0  0  0  0  0  0  0
   -3.2440   22.2760  -29.5910 O   0  0  0  0  0  0  0  0  0  0  0  0
   -3.4280   23.0230  -28.3900 C   0  0  0  0  0  0  0  0  0  0  0  0
   -2.2360   23.9480  -28.1350 C   0  0  0  0  0  0  0  0  0  0  0  0
   -1.8490   24.5910  -29.3190 O   0  0  0  0  0  0  0  0  0  0  0  0
   -5.9830   22.0030  -31.5310 C   0  0  0  0  0  0  0  0  0  0  0  0
   -5.7340   20.6900  -31.9440 C   0  0  0  0  0  0  0  0  0  0  0  0
   -7.4440   17.4120  -32.6820 C   0  0  0  0  0  0  0  0  0  0  0  0
   -6.8740   16.3190  -33.2240 N   0  0  0  0  0  0  0  0  0  0  0  0
   -4.2122   15.2272  -33.5586 H   0  0  0  0  0  0  0  0  0  0  0  0
   -5.3080   15.0410  -34.9697 H   0  0  0  0  0  0  0  0  0  0  0  0
   -4.0543   16.3274  -34.9697 H   0  0  0  0  0  0  0  0  0  0  0  0
   -4.6073   18.5670  -33.8130 H   0  0  0  0  0  0  0  0  0  0  0  0
   -8.9795   19.8534  -32.7355 H   0  0  0  0  0  0  0  0  0  0  0  0
   -9.3626   22.2060  -31.9396 H   0  0  0  0  0  0  0  0  0  0  0  0
   -8.0257   24.4948  -30.8767 H   0  0  0  0  0  0  0  0  0  0  0  0
   -3.2590   24.9730  -30.8360 H   0  0  0  0  0  0  0  0  0  0  0  0
   -4.3417   23.6290  -28.4791 H   0  0  0  0  0  0  0  0  0  0  0  0
   -3.5141   22.3201  -27.5483 H   0  0  0  0  0  0  0  0  0  0  0  0
   -2.5187   24.7047  -27.3883 H   0  0  0  0  0  0  0  0  0  0  0  0
   -1.3924   23.3462  -27.7659 H   0  0  0  0  0  0  0  0  0  0  0  0
   -2.4150   24.2190  -30.0440 H   0  0  0  0  0  0  0  0  0  0  0  0
   -4.7137   20.2793  -31.9245 H   0  0  0  0  0  0  0  0  0  0  0  0
   -8.4261   17.4363  -32.1871 H   0  0  0  0  0  0  0  0  0  0  0  0
  1  2  1  0
  2  3  1  0
  3  4  2  0
  4  5  1  0
  5  6  2  0
  6  7  1  0
  7  8  2  0
  8  9  1  0
  9 10  2  0
 10 11  1  0
 11 12  1  0
 11 13  2  0
 10 14  1  0
 14 15  1  0
 15 16  2  0
 15 17  1  0
 17 18  1  0
 18 19  1  0
 19 20  1  0
 14 21  1  0
 21 22  2  0
  4 23  1  0
 23 24  2  0
 24  2  1  0
 22  5  1  0
 21  8  1  0
  1 25  1  0
  1 26  1  0
  1 27  1  0
  3 28  1  0
  6 29  1  0
  7 30  1  0
  9 31  1  0
 12 32  1  0
 18 33  1  0
 18 34  1  0
 19 35  1  0
 19 36  1  0
 20 37  1  0
 22 38  1  0
 23 39  1  0
M  CHG  1  12  -1
M  END
>  <UniqueID>  (36) 
36

>  <SMILES>  (36) 
Cn1cc(-c2ccc3cc(C([NH-])=O)n(C(=O)OCCO)c3c2)cn1

>  <Energy>  (36) 
107.36830473719553

>  <Genealogy>  (36) 
Cn1cc(-c2ccc3cc(C([NH-])=O)n(C(=O)OCCO)c3c2)cn1 (protonated)
Cn1cc(-c2ccc3cc(C([NH-])=O)n(C(=O)OCCO)c3c2)cn1 (3D coordinates assigned)
Cn1cc(-c2ccc3cc(C([NH-])=O)n(C(=O)OCCO)c3c2)cn1 (optimized conformer: 107.36830473719553 kcal/mol)

>  <smiles>  (36) 
Cn1cc(-c2ccc3cc(C(N)=O)n(C(=O)OCCO)c3c2)cn1

>  <score_type>  (36) 
oracle

>  <origin>  (36) 
adg

>  <m_score__min__energy>  (36) 
-11.039999999999999

>  <m_primary>  (36) 
energy

$$$$
36:0
     RDKit          3D

 33 34  0  0  0  0  0  0  0  0999 V2000
   -4.2000   25.5940  -30.8320 N   0  0  0  0  0  0  0  0  0  0  0  0
   -5.5440   25.1960  -30.5510 C   0  0  0  0  0  0  0  0  0  0  0  0
   -6.2850   25.9630  -29.8810 O   0  0  0  0  0  0  0  0  0  0  0  0
   -6.0570   23.8780  -30.9750 C   0  0  0  0  0  0  0  0  0  0  0  0
   -7.3900   23.6430  -31.2950 C   0  0  0  0  0  0  0  0  0  0  0  0
   -7.4650   22.2970  -31.5720 C   0  0  0  0  0  0  0  0  0  0  0  0
   -8.5540   21.5260  -31.9670 C   0  0  0  0  0  0  0  0  0  0  0  0
   -8.3360   20.1630  -32.2280 C   0  0  0  0  0  0  0  0  0  0  0  0
   -7.0420   19.6000  -32.0900 C   0  0  0  0  0  0  0  0  0  0  0  0
   -6.8130   18.1500  -32.4190 C   0  0  0  0  0  0  0  0  0  0  0  0
   -6.2810   18.0050  -33.8110 C   0  0  0  0  0  0  0  0  0  0  0  0
   -6.1160   18.9880  -34.5160 O   0  0  0  0  0  0  0  0  0  0  0  0
   -5.9580   20.4160  -31.6990 C   0  0  0  0  0  0  0  0  0  0  0  0
   -6.2080   21.7670  -31.4250 C   0  0  0  0  0  0  0  0  0  0  0  0
   -5.3290   22.7280  -31.0620 N   0  0  0  0  0  0  0  0  0  0  0  0
   -3.9060   22.5800  -30.9200 C   0  0  0  0  0  0  0  0  0  0  0  0
   -3.1450   22.8420  -31.8910 O   0  0  0  0  0  0  0  0  0  0  0  0
   -3.3710   22.1390  -29.7060 O   0  0  0  0  0  0  0  0  0  0  0  0
   -2.9410   23.0310  -28.6850 C   0  0  0  0  0  0  0  0  0  0  0  0
   -2.0160   24.0410  -29.2740 C   0  0  0  0  0  0  0  0  0  0  0  0
   -2.3600   25.2500  -29.3450 O   0  0  0  0  0  0  0  0  0  0  0  0
   -0.7480   23.6600  -29.6950 O   0  0  0  0  0  0  0  0  0  0  0  0
   -3.8670   26.5440  -30.5600 H   0  0  0  0  0  0  0  0  0  0  0  0
   -3.5120   24.9190  -31.2320 H   0  0  0  0  0  0  0  0  0  0  0  0
   -8.2094   24.3764  -31.3211 H   0  0  0  0  0  0  0  0  0  0  0  0
   -9.5549   21.9702  -32.0717 H   0  0  0  0  0  0  0  0  0  0  0  0
   -9.1766   19.5269  -32.5422 H   0  0  0  0  0  0  0  0  0  0  0  0
   -6.0871   17.7280  -31.7084 H   0  0  0  0  0  0  0  0  0  0  0  0
   -7.7707   17.6136  -32.3468 H   0  0  0  0  0  0  0  0  0  0  0  0
   -6.0371   17.0059  -34.2012 H   0  0  0  0  0  0  0  0  0  0  0  0
   -4.9429   20.0014  -31.6117 H   0  0  0  0  0  0  0  0  0  0  0  0
   -3.8135   23.5406  -28.2502 H   0  0  0  0  0  0  0  0  0  0  0  0
   -2.4196   22.4673  -27.8973 H   0  0  0  0  0  0  0  0  0  0  0  0
  1  2  1  0
  2  3  2  0
  2  4  1  0
  4  5  2  0
  5  6  1  0
  6  7  2  0
  7  8  1  0
  8  9  2  0
  9 10  1  0
 10 11  1  0
 11 12  2  0
  9 13  1  0
 13 14  2  0
 14 15  1  0
 15 16  1  0
 16 17  2  0
 16 18  1  0
 18 19  1  0
 19 20  1  0
 20 21  2  0
 20 22  1  0
 15  4  1  0
 14  6  1  0
  1 23  1  0
  1 24  1  0
  5 25  1  0
  7 26  1  0
  8 27  1  0
 10 28  1  0
 10 29  1  0
 11 30  1  0
 13 31  1  0
 19 32  1  0
 19 33  1  0
M  CHG  1  22  -1
M  END
>  <UniqueID>  (37) 
37

>  <SMILES>  (37) 
NC(=O)c1cc2ccc(CC=O)cc2n1C(=O)OCC(=O)[O-]

>  <Energy>  (37) 
67.42731494151175

>  <Genealogy>  (37) 
NC(=O)c1cc2ccc(CC=O)cc2n1C(=O)OCC(=O)[O-] (protonated)
NC(=O)c1cc2ccc(CC=O)cc2n1C(=O)OCC(=O)[O-] (3D coordinates assigned)
NC(=O)c1cc2ccc(CC=O)cc2n1C(=O)OCC(=O)[O-] (optimized conformer: 67.42731494151175 kcal/mol)

>  <smiles>  (37) 
NC(=O)c1cc2ccc(CC=O)cc2n1C(=O)OCC(=O)O

>  <score_type>  (37) 
oracle

>  <origin>  (37) 
adg

>  <m_score__min__energy>  (37) 
-10.06

>  <m_primary>  (37) 
energy

$$$$
37:0
     RDKit          3D

 31 32  0  0  0  0  0  0  0  0999 V2000
   -1.6740   22.7230  -27.4340 C   0  0  0  0  0  0  0  0  0  0  0  0
   -2.6850   23.4930  -28.6780 S   0  0  0  0  0  0  0  0  0  0  0  0
   -3.7360   24.3490  -28.0310 O   0  0  0  0  0  0  0  0  0  0  0  0
   -1.8200   24.3560  -29.5520 O   0  0  0  0  0  0  0  0  0  0  0  0
   -3.4410   22.2800  -29.6540 N   0  0  0  0  0  0  0  0  0  0  0  0
   -4.0030   22.5630  -30.9380 C   0  0  0  0  0  0  0  0  0  0  0  0
   -3.2590   22.6420  -31.9520 O   0  0  0  0  0  0  0  0  0  0  0  0
   -5.4140   22.7920  -31.0670 N   0  0  0  0  0  0  0  0  0  0  0  0
   -6.0870   23.9680  -30.9140 C   0  0  0  0  0  0  0  0  0  0  0  0
   -5.5190   25.2330  -30.4020 C   0  0  0  0  0  0  0  0  0  0  0  0
   -4.1410   25.5450  -30.5860 N   0  0  0  0  0  0  0  0  0  0  0  0
   -6.2500   26.0270  -29.7530 O   0  0  0  0  0  0  0  0  0  0  0  0
   -7.4350   23.8030  -31.2260 C   0  0  0  0  0  0  0  0  0  0  0  0
   -7.5700   22.4780  -31.5720 C   0  0  0  0  0  0  0  0  0  0  0  0
   -8.6980   21.7670  -31.9690 C   0  0  0  0  0  0  0  0  0  0  0  0
   -8.5420   20.4080  -32.2870 C   0  0  0  0  0  0  0  0  0  0  0  0
   -7.2650   19.7900  -32.2270 C   0  0  0  0  0  0  0  0  0  0  0  0
   -7.1170   18.3220  -32.5320 C   0  0  0  0  0  0  0  0  0  0  0  0
   -8.3120   17.6550  -32.3190 F   0  0  0  0  0  0  0  0  0  0  0  0
   -6.7470   18.1310  -33.8530 F   0  0  0  0  0  0  0  0  0  0  0  0
   -6.1470   17.7810  -31.7100 F   0  0  0  0  0  0  0  0  0  0  0  0
   -6.1480   20.5420  -31.7940 C   0  0  0  0  0  0  0  0  0  0  0  0
   -6.3370   21.8900  -31.4680 C   0  0  0  0  0  0  0  0  0  0  0  0
   -2.0427   23.0038  -26.4364 H   0  0  0  0  0  0  0  0  0  0  0  0
   -1.7212   21.6299  -27.5481 H   0  0  0  0  0  0  0  0  0  0  0  0
   -0.6328   23.0590  -27.5481 H   0  0  0  0  0  0  0  0  0  0  0  0
   -3.5060   25.6750  -29.7680 H   0  0  0  0  0  0  0  0  0  0  0  0
   -8.2238   24.5693  -31.2010 H   0  0  0  0  0  0  0  0  0  0  0  0
   -9.6821   22.2544  -32.0319 H   0  0  0  0  0  0  0  0  0  0  0  0
   -9.4192   19.8155  -32.5860 H   0  0  0  0  0  0  0  0  0  0  0  0
   -5.1537   20.0781  -31.7153 H   0  0  0  0  0  0  0  0  0  0  0  0
  1  2  1  0
  2  3  2  0
  2  4  2  0
  2  5  1  0
  5  6  1  0
  6  7  2  0
  6  8  1  0
  8  9  1  0
  9 10  1  0
 10 11  1  0
 10 12  2  0
  9 13  2  0
 13 14  1  0
 14 15  2  0
 15 16  1  0
 16 17  2  0
 17 18  1  0
 18 19  1  0
 18 20  1  0
 18 21  1  0
 17 22  1  0
 22 23  2  0
 23  8  1  0
 23 14  1  0
  1 24  1  0
  1 25  1  0
  1 26  1  0
 11 27  1  0
 13 28  1  0
 15 29  1  0
 16 30  1  0
 22 31  1  0
M  CHG  2   5  -1  11  -1
M  END
>  <UniqueID>  (38) 
38

>  <SMILES>  (38) 
CS(=O)(=O)[N-]C(=O)n1c(C([NH-])=O)cc2ccc(C(F)(F)F)cc21

>  <Energy>  (38) 
68.78123918818524

>  <Genealogy>  (38) 
CS(=O)(=O)[N-]C(=O)n1c(C([NH-])=O)cc2ccc(C(F)(F)F)cc21 (protonated)
CS(=O)(=O)[N-]C(=O)n1c(C([NH-])=O)cc2ccc(C(F)(F)F)cc21 (3D coordinates assigned)
CS(=O)(=O)[N-]C(=O)n1c(C([NH-])=O)cc2ccc(C(F)(F)F)cc21 (optimized conformer: 68.78123918818524 kcal/mol)

>  <smiles>  (38) 
CS(=O)(=O)NC(=O)n1c(C(N)=O)cc2ccc(C(F)(F)F)cc21

>  <score_type>  (38) 
oracle

>  <origin>  (38) 
adg

>  <m_score__min__energy>  (38) 
-10.380000000000001

>  <m_primary>  (38) 
energy

$$$$
38:0
     RDKit          3D

 39 40  0  0  0  0  0  0  0  0999 V2000
   -3.7780   18.2300  -34.5530 N   0  0  0  0  0  0  0  0  0  0  0  0
   -5.1820   18.4570  -34.3750 C   0  0  0  0  0  0  0  0  0  0  0  0
   -6.0110   17.7370  -34.9980 O   0  0  0  0  0  0  0  0  0  0  0  0
   -5.6740   19.5590  -33.5270 C   0  0  0  0  0  0  0  0  0  0  0  0
   -7.0270   19.7960  -33.2970 C   0  0  0  0  0  0  0  0  0  0  0  0
   -7.0680   20.9120  -32.4990 C   0  0  0  0  0  0  0  0  0  0  0  0
   -8.1690   21.5730  -31.9530 C   0  0  0  0  0  0  0  0  0  0  0  0
   -7.9280   22.6760  -31.1220 C   0  0  0  0  0  0  0  0  0  0  0  0
   -6.6000   23.0930  -30.8450 C   0  0  0  0  0  0  0  0  0  0  0  0
   -6.3630   24.2410  -29.8960 C   0  0  0  0  0  0  0  0  0  0  0  0
   -4.9870   24.1490  -29.2160 C   0  0  0  0  0  0  0  0  0  0  0  0
   -3.9550   24.9510  -29.9530 C   0  0  0  0  0  0  0  0  0  0  0  0
   -4.1620   25.3010  -31.1380 O   0  0  0  0  0  0  0  0  0  0  0  0
   -2.7320   25.2560  -29.3520 O   0  0  0  0  0  0  0  0  0  0  0  0
   -5.5040   22.3940  -31.4110 C   0  0  0  0  0  0  0  0  0  0  0  0
   -5.7710   21.3070  -32.2570 C   0  0  0  0  0  0  0  0  0  0  0  0
   -4.8960   20.4790  -32.8830 N   0  0  0  0  0  0  0  0  0  0  0  0
   -3.4570   20.4790  -32.7680 C   0  0  0  0  0  0  0  0  0  0  0  0
   -2.8980   20.0110  -31.7410 O   0  0  0  0  0  0  0  0  0  0  0  0
   -2.6760   20.9800  -33.8210 O   0  0  0  0  0  0  0  0  0  0  0  0
   -1.2610   21.1170  -33.7310 C   0  0  0  0  0  0  0  0  0  0  0  0
   -0.5870   20.1880  -34.7470 C   0  0  0  0  0  0  0  0  0  0  0  0
   -0.6580   18.7520  -34.3150 C   0  0  0  0  0  0  0  0  0  0  0  0
   -1.3110   17.9520  -34.9690 O   0  0  0  0  0  0  0  0  0  0  0  0
   -3.0640   18.8720  -34.1300 H   0  0  0  0  0  0  0  0  0  0  0  0
   -3.4480   17.4240  -35.1380 H   0  0  0  0  0  0  0  0  0  0  0  0
   -7.8804   19.2134  -33.6742 H   0  0  0  0  0  0  0  0  0  0  0  0
   -9.1947   21.2388  -32.1681 H   0  0  0  0  0  0  0  0  0  0  0  0
   -8.7748   23.2225  -30.6812 H   0  0  0  0  0  0  0  0  0  0  0  0
   -6.4192   25.1846  -30.4585 H   0  0  0  0  0  0  0  0  0  0  0  0
   -7.1337   24.1997  -29.1122 H   0  0  0  0  0  0  0  0  0  0  0  0
   -5.0700   24.5316  -28.1880 H   0  0  0  0  0  0  0  0  0  0  0  0
   -4.6710   23.0954  -29.2172 H   0  0  0  0  0  0  0  0  0  0  0  0
   -4.4693   22.6966  -31.1921 H   0  0  0  0  0  0  0  0  0  0  0  0
   -0.9800   22.1587  -33.9453 H   0  0  0  0  0  0  0  0  0  0  0  0
   -0.9324   20.8473  -32.7164 H   0  0  0  0  0  0  0  0  0  0  0  0
   -1.0928   20.2941  -35.7180 H   0  0  0  0  0  0  0  0  0  0  0  0
    0.4729   20.4724  -34.8229 H   0  0  0  0  0  0  0  0  0  0  0  0
   -0.1238   18.4206  -33.4123 H   0  0  0  0  0  0  0  0  0  0  0  0
  1  2  1  0
  2  3  2  0
  2  4  1  0
  4  5  2  0
  5  6  1  0
  6  7  2  0
  7  8  1  0
  8  9  2  0
  9 10  1  0
 10 11  1  0
 11 12  1  0
 12 13  2  0
 12 14  1  0
  9 15  1  0
 15 16  2  0
 16 17  1  0
 17 18  1  0
 18 19  2  0
 18 20  1  0
 20 21  1  0
 21 22  1  0
 22 23  1  0
 23 24  2  0
 17  4  1  0
 16  6  1  0
  1 25  1  0
  1 26  1  0
  5 27  1  0
  7 28  1  0
  8 29  1  0
 10 30  1  0
 10 31  1  0
 11 32  1  0
 11 33  1  0
 15 34  1  0
 21 35  1  0
 21 36  1  0
 22 37  1  0
 22 38  1  0
 23 39  1  0
M  CHG  1  14  -1
M  END
>  <UniqueID>  (39) 
39

>  <SMILES>  (39) 
NC(=O)c1cc2ccc(CCC(=O)[O-])cc2n1C(=O)OCCC=O

>  <Energy>  (39) 
69.81610672562874

>  <Genealogy>  (39) 
NC(=O)c1cc2ccc(CCC(=O)[O-])cc2n1C(=O)OCCC=O (protonated)
NC(=O)c1cc2ccc(CCC(=O)[O-])cc2n1C(=O)OCCC=O (3D coordinates assigned)
NC(=O)c1cc2ccc(CCC(=O)[O-])cc2n1C(=O)OCCC=O (optimized conformer: 69.81610672562874 kcal/mol)

>  <smiles>  (39) 
NC(=O)c1cc2ccc(CCC(=O)O)cc2n1C(=O)OCCC=O

>  <score_type>  (39) 
oracle

>  <origin>  (39) 
adg

>  <m_score__min__energy>  (39) 
-10.199999999999999

>  <m_primary>  (39) 
energy

$$$$
39:0
     RDKit          3D

 37 38  0  0  0  0  0  0  0  0999 V2000
   -4.1990   25.6480  -30.8610 N   0  0  0  0  0  0  0  0  0  0  0  0
   -5.1470   24.8670  -30.1370 C   0  0  0  0  0  0  0  0  0  0  0  0
   -5.5120   25.2470  -28.9920 O   0  0  0  0  0  0  0  0  0  0  0  0
   -5.7470   23.6550  -30.7310 C   0  0  0  0  0  0  0  0  0  0  0  0
   -7.0940   23.5580  -31.0760 C   0  0  0  0  0  0  0  0  0  0  0  0
   -7.2290   22.3270  -31.6740 C   0  0  0  0  0  0  0  0  0  0  0  0
   -8.3590   21.7070  -32.2010 C   0  0  0  0  0  0  0  0  0  0  0  0
   -8.2130   20.4160  -32.7330 C   0  0  0  0  0  0  0  0  0  0  0  0
   -6.9520   19.7660  -32.7200 C   0  0  0  0  0  0  0  0  0  0  0  0
   -6.8030   18.3850  -33.3040 C   0  0  0  0  0  0  0  0  0  0  0  0
   -5.5010   17.7000  -32.8610 C   0  0  0  0  0  0  0  0  0  0  0  0
   -5.7300   16.5530  -31.8690 C   0  0  0  0  0  0  0  0  0  0  0  0
   -6.1260   17.0580  -30.6240 O   0  0  0  0  0  0  0  0  0  0  0  0
   -5.8290   20.4270  -32.1770 C   0  0  0  0  0  0  0  0  0  0  0  0
   -5.9990   21.7210  -31.6710 C   0  0  0  0  0  0  0  0  0  0  0  0
   -5.0780   22.5240  -31.0940 N   0  0  0  0  0  0  0  0  0  0  0  0
   -3.7050   22.1970  -30.8270 C   0  0  0  0  0  0  0  0  0  0  0  0
   -3.3640   20.9920  -30.6710 O   0  0  0  0  0  0  0  0  0  0  0  0
   -2.7560   23.2170  -30.7200 O   0  0  0  0  0  0  0  0  0  0  0  0
   -1.5400   23.0640  -29.9980 C   0  0  0  0  0  0  0  0  0  0  0  0
   -1.1880   24.3610  -29.3510 C   0  0  0  0  0  0  0  0  0  0  0  0
   -2.0130   25.3110  -29.3470 O   0  0  0  0  0  0  0  0  0  0  0  0
    0.0320   24.5060  -28.7030 O   0  0  0  0  0  0  0  0  0  0  0  0
   -3.2260   25.3060  -31.0140 H   0  0  0  0  0  0  0  0  0  0  0  0
   -7.8816   24.3069  -30.9061 H   0  0  0  0  0  0  0  0  0  0  0  0
   -9.3357   22.2130  -32.2005 H   0  0  0  0  0  0  0  0  0  0  0  0
   -9.0853   19.9032  -33.1644 H   0  0  0  0  0  0  0  0  0  0  0  0
   -7.6546   17.7697  -32.9782 H   0  0  0  0  0  0  0  0  0  0  0  0
   -6.7741   18.4849  -34.3991 H   0  0  0  0  0  0  0  0  0  0  0  0
   -4.9974   17.2966  -33.7519 H   0  0  0  0  0  0  0  0  0  0  0  0
   -4.8901   18.4582  -32.3492 H   0  0  0  0  0  0  0  0  0  0  0  0
   -6.5159   15.8887  -32.2577 H   0  0  0  0  0  0  0  0  0  0  0  0
   -4.7907   15.9940  -31.7457 H   0  0  0  0  0  0  0  0  0  0  0  0
   -6.0740   16.2980  -29.9890 H   0  0  0  0  0  0  0  0  0  0  0  0
   -4.8444   19.9371  -32.1521 H   0  0  0  0  0  0  0  0  0  0  0  0
   -1.6649   22.2899  -29.2266 H   0  0  0  0  0  0  0  0  0  0  0  0
   -0.7363   22.7640  -30.6865 H   0  0  0  0  0  0  0  0  0  0  0  0
  1  2  1  0
  2  3  2  0
  2  4  1  0
  4  5  2  0
  5  6  1  0
  6  7  2  0
  7  8  1  0
  8  9  2  0
  9 10  1  0
 10 11  1  0
 11 12  1  0
 12 13  1  0
  9 14  1  0
 14 15  2  0
 15 16  1  0
 16 17  1  0
 17 18  2  0
 17 19  1  0
 19 20  1  0
 20 21  1  0
 21 22  2  0
 21 23  1  0
 16  4  1  0
 15  6  1  0
  1 24  1  0
  5 25  1  0
  7 26  1  0
  8 27  1  0
 10 28  1  0
 10 29  1  0
 11 30  1  0
 11 31  1  0
 12 32  1  0
 12 33  1  0
 13 34  1  0
 14 35  1  0
 20 36  1  0
 20 37  1  0
M  CHG  2   1  -1  23  -1
M  END
>  <UniqueID>  (40) 
40

>  <SMILES>  (40) 
[NH-]C(=O)c1cc2ccc(CCCO)cc2n1C(=O)OCC(=O)[O-]

>  <Energy>  (40) 
68.6661112602153

>  <Genealogy>  (40) 
[NH-]C(=O)c1cc2ccc(CCCO)cc2n1C(=O)OCC(=O)[O-] (protonated)
[NH-]C(=O)c1cc2ccc(CCCO)cc2n1C(=O)OCC(=O)[O-] (3D coordinates assigned)
[NH-]C(=O)c1cc2ccc(CCCO)cc2n1C(=O)OCC(=O)[O-] (optimized conformer: 68.6661112602153 kcal/mol)

>  <smiles>  (40) 
NC(=O)c1cc2ccc(CCCO)cc2n1C(=O)OCC(=O)O

>  <score_type>  (40) 
oracle

>  <origin>  (40) 
adg

>  <m_score__min__energy>  (40) 
-12.289999999999999

>  <m_primary>  (40) 
energy

$$$$
40:0
     RDKit          3D

 30 31  0  0  0  0  0  0  0  0999 V2000
   -3.5220   25.2870  -30.1090 N   0  0  0  0  0  0  0  0  0  0  0  0
   -4.8980   25.3790  -30.4680 C   0  0  0  0  0  0  0  0  0  0  0  0
   -5.4450   26.5120  -30.5330 O   0  0  0  0  0  0  0  0  0  0  0  0
   -5.6730   24.1710  -30.8150 C   0  0  0  0  0  0  0  0  0  0  0  0
   -7.0560   24.0720  -30.6620 C   0  0  0  0  0  0  0  0  0  0  0  0
   -7.3940   22.8460  -31.1880 C   0  0  0  0  0  0  0  0  0  0  0  0
   -8.6340   22.2270  -31.2940 C   0  0  0  0  0  0  0  0  0  0  0  0
   -8.6830   20.9460  -31.8670 C   0  0  0  0  0  0  0  0  0  0  0  0
   -7.5040   20.3020  -32.3210 C   0  0  0  0  0  0  0  0  0  0  0  0
   -7.6100   18.9820  -32.8920 N   0  0  0  0  0  0  0  0  0  0  0  0
   -7.1580   17.7440  -32.2540 C   0  0  0  0  0  0  0  0  0  0  0  0
   -6.5860   16.7680  -33.2870 C   0  0  0  0  0  0  0  0  0  0  0  0
   -6.8490   17.2030  -34.5930 O   0  0  0  0  0  0  0  0  0  0  0  0
   -6.2580   20.9650  -32.1870 C   0  0  0  0  0  0  0  0  0  0  0  0
   -6.2430   22.2470  -31.6280 C   0  0  0  0  0  0  0  0  0  0  0  0
   -5.1780   23.0450  -31.4020 N   0  0  0  0  0  0  0  0  0  0  0  0
   -3.8060   22.7100  -31.6520 C   0  0  0  0  0  0  0  0  0  0  0  0
   -2.9060   23.1040  -30.8650 O   0  0  0  0  0  0  0  0  0  0  0  0
   -3.3420   21.7980  -33.1380 S   0  0  0  0  0  0  0  0  0  0  0  0
   -2.7750   25.2920  -30.8380 H   0  0  0  0  0  0  0  0  0  0  0  0
   -7.7326   24.8157  -30.2158 H   0  0  0  0  0  0  0  0  0  0  0  0
   -9.5486   22.7252  -30.9400 H   0  0  0  0  0  0  0  0  0  0  0  0
   -9.6515   20.4338  -31.9653 H   0  0  0  0  0  0  0  0  0  0  0  0
   -8.0470   18.8890  -33.8380 H   0  0  0  0  0  0  0  0  0  0  0  0
   -6.3782   17.9840  -31.5163 H   0  0  0  0  0  0  0  0  0  0  0  0
   -8.0205   17.2684  -31.7642 H   0  0  0  0  0  0  0  0  0  0  0  0
   -5.4977   16.6928  -33.1459 H   0  0  0  0  0  0  0  0  0  0  0  0
   -7.0636   15.7877  -33.1428 H   0  0  0  0  0  0  0  0  0  0  0  0
   -6.8540   18.1950  -34.5690 H   0  0  0  0  0  0  0  0  0  0  0  0
   -5.3253   20.4827  -32.5148 H   0  0  0  0  0  0  0  0  0  0  0  0
  1  2  1  0
  2  3  2  0
  2  4  1  0
  4  5  2  0
  5  6  1  0
  6  7  2  0
  7  8  1  0
  8  9  2  0
  9 10  1  0
 10 11  1  0
 11 12  1  0
 12 13  1  0
  9 14  1  0
 14 15  2  0
 15 16  1  0
 16 17  1  0
 17 18  2  0
 17 19  1  0
 16  4  1  0
 15  6  1  0
  1 20  1  0
  5 21  1  0
  7 22  1  0
  8 23  1  0
 10 24  1  0
 11 25  1  0
 11 26  1  0
 12 27  1  0
 12 28  1  0
 13 29  1  0
 14 30  1  0
M  CHG  2   1  -1  19  -1
M  END
>  <UniqueID>  (41) 
41

>  <SMILES>  (41) 
[NH-]C(=O)c1cc2ccc(NCCO)cc2n1C(=O)[S-]

>  <Energy>  (41) 
69.56837288075052

>  <Genealogy>  (41) 
[NH-]C(=O)c1cc2ccc(NCCO)cc2n1C(=O)[S-] (protonated)
[NH-]C(=O)c1cc2ccc(NCCO)cc2n1C(=O)[S-] (3D coordinates assigned)
[NH-]C(=O)c1cc2ccc(NCCO)cc2n1C(=O)[S-] (optimized conformer: 69.56837288075052 kcal/mol)

>  <smiles>  (41) 
NC(=O)c1cc2ccc(NCCO)cc2n1C(=O)S

>  <score_type>  (41) 
oracle

>  <origin>  (41) 
adg

>  <m_score__min__energy>  (41) 
-9.6799999999999997

>  <m_primary>  (41) 
energy

$$$$
41:0
     RDKit          3D

 35 37  0  0  0  0  0  0  0  0999 V2000
   -6.1410   17.1420  -31.0370 C   0  0  0  0  0  0  0  0  0  0  0  0
   -6.0160   17.2840  -32.4840 N   0  0  0  0  0  0  0  0  0  0  0  0
   -5.7370   16.2640  -33.2810 N   0  0  0  0  0  0  0  0  0  0  0  0
   -5.7350   16.7210  -34.5490 C   0  0  0  0  0  0  0  0  0  0  0  0
   -6.0260   18.0710  -34.5580 C   0  0  0  0  0  0  0  0  0  0  0  0
   -6.1840   18.4030  -33.2260 C   0  0  0  0  0  0  0  0  0  0  0  0
   -6.5150   19.7520  -32.7170 C   0  0  0  0  0  0  0  0  0  0  0  0
   -7.8610   20.1970  -32.7290 C   0  0  0  0  0  0  0  0  0  0  0  0
   -8.2000   21.4740  -32.2510 C   0  0  0  0  0  0  0  0  0  0  0  0
   -7.1730   22.2880  -31.7830 C   0  0  0  0  0  0  0  0  0  0  0  0
   -7.2210   23.5530  -31.2430 C   0  0  0  0  0  0  0  0  0  0  0  0
   -5.8990   23.8770  -30.9430 C   0  0  0  0  0  0  0  0  0  0  0  0
   -5.4830   25.1820  -30.3840 C   0  0  0  0  0  0  0  0  0  0  0  0
   -4.1480   25.6560  -30.5380 N   0  0  0  0  0  0  0  0  0  0  0  0
   -6.3280   25.9040  -29.7900 O   0  0  0  0  0  0  0  0  0  0  0  0
   -5.0670   22.8520  -31.2850 N   0  0  0  0  0  0  0  0  0  0  0  0
   -3.6510   22.7640  -31.0630 C   0  0  0  0  0  0  0  0  0  0  0  0
   -2.8780   22.5460  -32.0340 O   0  0  0  0  0  0  0  0  0  0  0  0
   -3.0790   22.9120  -29.6880 C   0  0  0  0  0  0  0  0  0  0  0  0
   -2.2100   24.0080  -29.6570 O   0  0  0  0  0  0  0  0  0  0  0  0
   -5.8630   21.8860  -31.7940 C   0  0  0  0  0  0  0  0  0  0  0  0
   -5.5000   20.6140  -32.2480 C   0  0  0  0  0  0  0  0  0  0  0  0
   -5.4929   17.8782  -30.5390 H   0  0  0  0  0  0  0  0  0  0  0  0
   -7.1863   17.3138  -30.7406 H   0  0  0  0  0  0  0  0  0  0  0  0
   -5.8380   16.1269  -30.7406 H   0  0  0  0  0  0  0  0  0  0  0  0
   -5.5323   16.1110  -35.4416 H   0  0  0  0  0  0  0  0  0  0  0  0
   -6.1127   18.7344  -35.4312 H   0  0  0  0  0  0  0  0  0  0  0  0
   -8.6491   19.5349  -33.1170 H   0  0  0  0  0  0  0  0  0  0  0  0
   -9.2444   21.8194  -32.2469 H   0  0  0  0  0  0  0  0  0  0  0  0
   -8.1132   24.1760  -31.0823 H   0  0  0  0  0  0  0  0  0  0  0  0
   -3.4880   25.6730  -29.7280 H   0  0  0  0  0  0  0  0  0  0  0  0
   -3.8947   23.0710  -28.9673 H   0  0  0  0  0  0  0  0  0  0  0  0
   -2.5256   21.9992  -29.4222 H   0  0  0  0  0  0  0  0  0  0  0  0
   -2.3320   24.4810  -30.5210 H   0  0  0  0  0  0  0  0  0  0  0  0
   -4.4480   20.2926  -32.2399 H   0  0  0  0  0  0  0  0  0  0  0  0
  1  2  1  0
  2  3  1  0
  3  4  2  0
  4  5  1  0
  5  6  2  0
  6  7  1  0
  7  8  2  0
  8  9  1  0
  9 10  2  0
 10 11  1  0
 11 12  2  0
 12 13  1  0
 13 14  1  0
 13 15  2  0
 12 16  1  0
 16 17  1  0
 17 18  2  0
 17 19  1  0
 19 20  1  0
 16 21  1  0
 21 22  2  0
  6  2  1  0
 22  7  1  0
 21 10  1  0
  1 23  1  0
  1 24  1  0
  1 25  1  0
  4 26  1  0
  5 27  1  0
  8 28  1  0
  9 29  1  0
 11 30  1  0
 14 31  1  0
 19 32  1  0
 19 33  1  0
 20 34  1  0
 22 35  1  0
M  CHG  1  14  -1
M  END
>  <UniqueID>  (42) 
42

>  <SMILES>  (42) 
Cn1nccc1-c1ccc2cc(C([NH-])=O)n(C(=O)CO)c2c1

>  <Energy>  (42) 
109.8046376209364

>  <Genealogy>  (42) 
Cn1nccc1-c1ccc2cc(C([NH-])=O)n(C(=O)CO)c2c1 (protonated)
Cn1nccc1-c1ccc2cc(C([NH-])=O)n(C(=O)CO)c2c1 (3D coordinates assigned)
Cn1nccc1-c1ccc2cc(C([NH-])=O)n(C(=O)CO)c2c1 (optimized conformer: 109.8046376209364 kcal/mol)

>  <smiles>  (42) 
Cn1nccc1-c1ccc2cc(C(N)=O)n(C(=O)CO)c2c1

>  <score_type>  (42) 
oracle

>  <origin>  (42) 
adg

>  <m_score__min__energy>  (42) 
-9.9199999999999999

>  <m_primary>  (42) 
energy

$$$$
42:0
     RDKit          3D

 39 40  0  0  0  0  0  0  0  0999 V2000
   -0.4780   25.1560  -25.3610 N   0  0  0  0  0  0  0  0  0  0  0  0
   -0.1930   23.7910  -25.6670 C   0  0  0  0  0  0  0  0  0  0  0  0
    0.6050   23.1480  -24.9340 O   0  0  0  0  0  0  0  0  0  0  0  0
   -0.7610   23.1400  -26.8630 C   0  0  0  0  0  0  0  0  0  0  0  0
   -1.0350   21.7780  -26.9350 C   0  0  0  0  0  0  0  0  0  0  0  0
   -1.4810   21.5640  -28.2190 C   0  0  0  0  0  0  0  0  0  0  0  0
   -1.8990   20.3890  -28.8350 C   0  0  0  0  0  0  0  0  0  0  0  0
   -2.3390   20.4640  -30.1660 C   0  0  0  0  0  0  0  0  0  0  0  0
   -2.3710   21.7060  -30.8480 C   0  0  0  0  0  0  0  0  0  0  0  0
   -2.8190   21.7680  -32.2810 C   0  0  0  0  0  0  0  0  0  0  0  0
   -4.2550   22.1770  -32.3490 C   0  0  0  0  0  0  0  0  0  0  0  0
   -5.1310   21.3390  -32.6950 O   0  0  0  0  0  0  0  0  0  0  0  0
   -4.6290   23.5040  -31.9640 N   0  0  0  0  0  0  0  0  0  0  0  0
   -5.5530   23.8060  -30.8730 C   0  0  0  0  0  0  0  0  0  0  0  0
   -7.0000   23.8310  -31.3970 C   0  0  0  0  0  0  0  0  0  0  0  0
   -7.0490   23.4770  -32.7540 O   0  0  0  0  0  0  0  0  0  0  0  0
   -5.1550   25.1430  -30.2270 C   0  0  0  0  0  0  0  0  0  0  0  0
   -4.0030   25.6760  -30.8250 O   0  0  0  0  0  0  0  0  0  0  0  0
   -1.9280   22.8780  -30.1940 C   0  0  0  0  0  0  0  0  0  0  0  0
   -1.4760   22.7710  -28.8730 C   0  0  0  0  0  0  0  0  0  0  0  0
   -1.0370   23.7530  -28.0500 N   0  0  0  0  0  0  0  0  0  0  0  0
   -0.9990   25.1630  -28.3310 C   0  0  0  0  0  0  0  0  0  0  0  0
   -1.9340   25.7110  -28.9690 O   0  0  0  0  0  0  0  0  0  0  0  0
    0.0700   25.9350  -27.8950 O   0  0  0  0  0  0  0  0  0  0  0  0
   -0.0950   25.5900  -24.4910 H   0  0  0  0  0  0  0  0  0  0  0  0
   -0.9990   25.7610  -26.0330 H   0  0  0  0  0  0  0  0  0  0  0  0
   -0.9197   21.0312  -26.1357 H   0  0  0  0  0  0  0  0  0  0  0  0
   -1.8852   19.4304  -28.2957 H   0  0  0  0  0  0  0  0  0  0  0  0
   -2.6622   19.5495  -30.6849 H   0  0  0  0  0  0  0  0  0  0  0  0
   -2.2049   22.5019  -32.8235 H   0  0  0  0  0  0  0  0  0  0  0  0
   -2.7038   20.7747  -32.7392 H   0  0  0  0  0  0  0  0  0  0  0  0
   -5.4966   23.0221  -30.1034 H   0  0  0  0  0  0  0  0  0  0  0  0
   -7.6050   23.1185  -30.8172 H   0  0  0  0  0  0  0  0  0  0  0  0
   -7.3955   24.8514  -31.2862 H   0  0  0  0  0  0  0  0  0  0  0  0
   -6.1220   23.2410  -33.0190 H   0  0  0  0  0  0  0  0  0  0  0  0
   -5.9828   25.8579  -30.3441 H   0  0  0  0  0  0  0  0  0  0  0  0
   -4.9423   24.9643  -29.1627 H   0  0  0  0  0  0  0  0  0  0  0  0
   -3.5310   24.9210  -31.2630 H   0  0  0  0  0  0  0  0  0  0  0  0
   -1.9380   23.8496  -30.7096 H   0  0  0  0  0  0  0  0  0  0  0  0
  1  2  1  0
  2  3  2  0
  2  4  1  0
  4  5  2  0
  5  6  1  0
  6  7  2  0
  7  8  1  0
  8  9  2  0
  9 10  1  0
 10 11  1  0
 11 12  2  0
 11 13  1  0
 13 14  1  0
 14 15  1  0
 15 16  1  0
 14 17  1  0
 17 18  1  0
  9 19  1  0
 19 20  2  0
 20 21  1  0
 21 22  1  0
 22 23  2  0
 22 24  1  0
 21  4  1  0
 20  6  1  0
  1 25  1  0
  1 26  1  0
  5 27  1  0
  7 28  1  0
  8 29  1  0
 10 30  1  0
 10 31  1  0
 14 32  1  0
 15 33  1  0
 15 34  1  0
 16 35  1  0
 17 36  1  0
 17 37  1  0
 18 38  1  0
 19 39  1  0
M  CHG  2  13  -1  24  -1
M  END
>  <UniqueID>  (43) 
43

>  <SMILES>  (43) 
NC(=O)c1cc2ccc(CC(=O)[N-]C(CO)CO)cc2n1C(=O)[O-]

>  <Energy>  (43) 
72.28375131829073

>  <Genealogy>  (43) 
NC(=O)c1cc2ccc(CC(=O)[N-]C(CO)CO)cc2n1C(=O)[O-] (protonated)
NC(=O)c1cc2ccc(CC(=O)[N-]C(CO)CO)cc2n1C(=O)[O-] (3D coordinates assigned)
NC(=O)c1cc2ccc(CC(=O)[N-]C(CO)CO)cc2n1C(=O)[O-] (optimized conformer: 72.28375131829073 kcal/mol)

>  <smiles>  (43) 
NC(=O)c1cc2ccc(CC(=O)NC(CO)CO)cc2n1C(=O)O

>  <score_type>  (43) 
oracle

>  <origin>  (43) 
adg

>  <m_score__min__energy>  (43) 
-8.6400000000000006

>  <m_primary>  (43) 
energy

$$$$
43:0
     RDKit          3D

 39 41  0  0  0  0  0  0  0  0999 V2000
   -1.5270   25.8890  -28.9300 N   0  0  0  0  0  0  0  0  0  0  0  0
   -0.9340   24.5940  -28.9800 C   0  0  0  0  0  0  0  0  0  0  0  0
    0.1270   24.3770  -28.3360 O   0  0  0  0  0  0  0  0  0  0  0  0
   -1.5120   23.5240  -29.8190 C   0  0  0  0  0  0  0  0  0  0  0  0
   -0.7890   22.4120  -30.2440 C   0  0  0  0  0  0  0  0  0  0  0  0
   -1.6450   21.7120  -31.0640 C   0  0  0  0  0  0  0  0  0  0  0  0
   -1.4530   20.5160  -31.7450 C   0  0  0  0  0  0  0  0  0  0  0  0
   -2.5260   20.0030  -32.4910 C   0  0  0  0  0  0  0  0  0  0  0  0
   -3.7690   20.6830  -32.5470 C   0  0  0  0  0  0  0  0  0  0  0  0
   -4.8440   20.0970  -33.3130 N   0  0  0  0  0  0  0  0  0  0  0  0
   -6.0480   19.4400  -32.7800 C   0  0  2  0  0  0  0  0  0  0  0  0
   -6.4700   18.2710  -33.6920 C   0  0  0  0  0  0  0  0  0  0  0  0
   -6.0450   18.5100  -35.0060 O   0  0  0  0  0  0  0  0  0  0  0  0
   -7.1260   20.4630  -32.4420 C   0  0  0  0  0  0  0  0  0  0  0  0
   -8.4500   20.0170  -32.2940 C   0  0  0  0  0  0  0  0  0  0  0  0
   -9.4640   20.9280  -31.9920 C   0  0  0  0  0  0  0  0  0  0  0  0
   -9.1770   22.2470  -31.8460 N   0  0  0  0  0  0  0  0  0  0  0  0
   -7.9100   22.7170  -31.9930 C   0  0  0  0  0  0  0  0  0  0  0  0
   -6.8650   21.8420  -32.2970 C   0  0  0  0  0  0  0  0  0  0  0  0
   -3.9230   21.8970  -31.8320 C   0  0  0  0  0  0  0  0  0  0  0  0
   -2.8310   22.3940  -31.1120 C   0  0  0  0  0  0  0  0  0  0  0  0
   -2.7690   23.5090  -30.3490 N   0  0  0  0  0  0  0  0  0  0  0  0
   -3.8470   24.4220  -30.0880 C   0  0  0  0  0  0  0  0  0  0  0  0
   -4.7970   24.0870  -29.3350 O   0  0  0  0  0  0  0  0  0  0  0  0
   -3.8640   25.6760  -30.6870 O   0  0  0  0  0  0  0  0  0  0  0  0
   -2.5620   26.0090  -28.9780 H   0  0  0  0  0  0  0  0  0  0  0  0
    0.2461   22.1490  -29.9804 H   0  0  0  0  0  0  0  0  0  0  0  0
   -0.4894   19.9872  -31.7009 H   0  0  0  0  0  0  0  0  0  0  0  0
   -2.4004   19.0586  -33.0408 H   0  0  0  0  0  0  0  0  0  0  0  0
   -4.7850   20.1720  -34.3550 H   0  0  0  0  0  0  0  0  0  0  0  0
   -5.8326   18.9646  -31.8117 H   0  0  0  0  0  0  0  0  0  0  0  0
   -6.0135   17.3398  -33.3253 H   0  0  0  0  0  0  0  0  0  0  0  0
   -7.5661   18.1800  -33.6782 H   0  0  0  0  0  0  0  0  0  0  0  0
   -6.7870   18.9960  -35.4520 H   0  0  0  0  0  0  0  0  0  0  0  0
   -8.6878   18.9500  -32.4161 H   0  0  0  0  0  0  0  0  0  0  0  0
  -10.4992   20.5758  -31.8719 H   0  0  0  0  0  0  0  0  0  0  0  0
   -7.7070   23.7913  -31.8720 H   0  0  0  0  0  0  0  0  0  0  0  0
   -5.8421   22.2264  -32.4230 H   0  0  0  0  0  0  0  0  0  0  0  0
   -4.8811   22.4373  -31.8429 H   0  0  0  0  0  0  0  0  0  0  0  0
  1  2  1  0
  2  3  2  0
  2  4  1  0
  4  5  2  0
  5  6  1  0
  6  7  2  0
  7  8  1  0
  8  9  2  0
  9 10  1  0
 10 11  1  0
 11 12  1  0
 12 13  1  0
 11 14  1  0
 14 15  2  0
 15 16  1  0
 16 17  2  0
 17 18  1  0
 18 19  2  0
  9 20  1  0
 20 21  2  0
 21 22  1  0
 22 23  1  0
 23 24  2  0
 23 25  1  0
 22  4  1  0
 21  6  1  0
 19 14  1  0
  1 26  1  0
  5 27  1  0
  7 28  1  0
  8 29  1  0
 10 30  1  0
 11 31  1  1
 12 32  1  0
 12 33  1  0
 13 34  1  0
 15 35  1  0
 16 36  1  0
 18 37  1  0
 19 38  1  0
 20 39  1  0
M  CHG  2   1  -1  25  -1
M  END
>  <UniqueID>  (44) 
44

>  <SMILES>  (44) 
[NH-]C(=O)c1cc2ccc(N[C@H](CO)c3ccncc3)cc2n1C(=O)[O-]

>  <Energy>  (44) 
85.67685796073366

>  <Genealogy>  (44) 
[NH-]C(=O)c1cc2ccc(NC(CO)c3ccncc3)cc2n1C(=O)[O-] (protonated)
[NH-]C(=O)c1cc2ccc(N[C@H](CO)c3ccncc3)cc2n1C(=O)[O-] (chirality)
[NH-]C(=O)c1cc2ccc(N[C@H](CO)c3ccncc3)cc2n1C(=O)[O-] (3D coordinates assigned)
[NH-]C(=O)c1cc2ccc(N[C@H](CO)c3ccncc3)cc2n1C(=O)[O-] (optimized conformer: 85.67685796073366 kcal/mol)

>  <smiles>  (44) 
NC(=O)c1cc2ccc(NC(CO)c3ccncc3)cc2n1C(=O)O

>  <score_type>  (44) 
oracle

>  <origin>  (44) 
adg

>  <m_score__min__energy>  (44) 
-12.300000000000001

>  <m_primary>  (44) 
energy

$$$$
44:0
     RDKit          3D

 42 44  0  0  0  0  0  0  0  0999 V2000
   -6.4960   24.2310  -29.7950 C   0  0  0  0  0  0  0  0  0  0  0  0
   -5.2420   24.1720  -29.3450 C   0  0  0  0  0  0  0  0  0  0  0  0
   -4.0740   24.3770  -30.2240 C   0  0  0  0  0  0  0  0  0  0  0  0
   -3.9050   25.4780  -30.8140 O   0  0  0  0  0  0  0  0  0  0  0  0
   -3.0950   23.3380  -30.3700 N   0  0  0  0  0  0  0  0  0  0  0  0
   -1.7750   23.3700  -30.0300 C   0  0  0  0  0  0  0  0  0  0  0  0
   -1.0990   24.4490  -29.2790 C   0  0  0  0  0  0  0  0  0  0  0  0
   -1.7800   25.6610  -28.9670 N   0  0  0  0  0  0  0  0  0  0  0  0
    0.0820   24.2820  -28.8730 O   0  0  0  0  0  0  0  0  0  0  0  0
   -1.1430   22.1890  -30.4170 C   0  0  0  0  0  0  0  0  0  0  0  0
   -2.1270   21.4220  -30.9980 C   0  0  0  0  0  0  0  0  0  0  0  0
   -2.0580   20.1550  -31.5660 C   0  0  0  0  0  0  0  0  0  0  0  0
   -3.2330   19.6130  -32.1140 C   0  0  0  0  0  0  0  0  0  0  0  0
   -4.4530   20.3450  -32.0910 C   0  0  0  0  0  0  0  0  0  0  0  0
   -5.6690   19.8130  -32.6550 N   0  0  0  0  0  0  0  0  0  0  0  0
   -6.8410   19.4220  -31.8570 C   0  0  2  0  0  0  0  0  0  0  0  0
   -7.9360   18.8570  -32.7550 C   0  0  0  0  0  0  0  0  0  0  0  0
   -8.9530   19.9840  -32.9280 C   0  0  0  0  0  0  0  0  0  0  0  0
   -8.4460   21.1560  -32.2010 N   0  0  0  0  0  0  0  0  0  0  0  0
   -9.5280   21.9200  -31.5630 C   0  0  0  0  0  0  0  0  0  0  0  0
   -7.4960   20.6380  -31.2150 C   0  0  0  0  0  0  0  0  0  0  0  0
   -4.4760   21.6300  -31.5050 C   0  0  0  0  0  0  0  0  0  0  0  0
   -3.2950   22.1370  -30.9550 C   0  0  0  0  0  0  0  0  0  0  0  0
   -7.3365   24.0717  -29.1035 H   0  0  0  0  0  0  0  0  0  0  0  0
   -6.6898   24.4390  -30.8576 H   0  0  0  0  0  0  0  0  0  0  0  0
   -5.0716   23.9627  -28.2786 H   0  0  0  0  0  0  0  0  0  0  0  0
   -2.8210   25.7230  -29.0210 H   0  0  0  0  0  0  0  0  0  0  0  0
   -0.0830   21.9261  -30.2858 H   0  0  0  0  0  0  0  0  0  0  0  0
   -1.1122   19.5937  -31.5859 H   0  0  0  0  0  0  0  0  0  0  0  0
   -3.2094   18.6106  -32.5663 H   0  0  0  0  0  0  0  0  0  0  0  0
   -5.7180   19.7200  -33.6960 H   0  0  0  0  0  0  0  0  0  0  0  0
   -6.4739   18.6974  -31.1153 H   0  0  0  0  0  0  0  0  0  0  0  0
   -7.5191   18.5639  -33.7298 H   0  0  0  0  0  0  0  0  0  0  0  0
   -8.3964   17.9590  -32.3171 H   0  0  0  0  0  0  0  0  0  0  0  0
   -9.0675   20.2253  -33.9951 H   0  0  0  0  0  0  0  0  0  0  0  0
   -9.9351   19.6814  -32.5357 H   0  0  0  0  0  0  0  0  0  0  0  0
   -9.4302   21.8509  -30.4695 H   0  0  0  0  0  0  0  0  0  0  0  0
   -9.4636   22.9740  -31.8711 H   0  0  0  0  0  0  0  0  0  0  0  0
  -10.4997   21.5067  -31.8711 H   0  0  0  0  0  0  0  0  0  0  0  0
   -6.7382   21.3994  -30.9785 H   0  0  0  0  0  0  0  0  0  0  0  0
   -7.9990   20.3730  -30.2733 H   0  0  0  0  0  0  0  0  0  0  0  0
   -5.4043   22.2197  -31.4819 H   0  0  0  0  0  0  0  0  0  0  0  0
  1  2  2  0
  2  3  1  0
  3  4  2  0
  3  5  1  0
  5  6  1  0
  6  7  1  0
  7  8  1  0
  7  9  2  0
  6 10  2  0
 10 11  1  0
 11 12  2  0
 12 13  1  0
 13 14  2  0
 14 15  1  0
 15 16  1  0
 16 17  1  0
 17 18  1  0
 18 19  1  0
 19 20  1  0
 19 21  1  0
 14 22  1  0
 22 23  2  0
 23  5  1  0
 23 11  1  0
 21 16  1  0
  1 24  1  0
  1 25  1  0
  2 26  1  0
  8 27  1  0
 10 28  1  0
 12 29  1  0
 13 30  1  0
 15 31  1  0
 16 32  1  1
 17 33  1  0
 17 34  1  0
 18 35  1  0
 18 36  1  0
 20 37  1  0
 20 38  1  0
 20 39  1  0
 21 40  1  0
 21 41  1  0
 22 42  1  0
M  CHG  1   8  -1
M  END
>  <UniqueID>  (45) 
45

>  <SMILES>  (45) 
C=CC(=O)n1c(C([NH-])=O)cc2ccc(N[C@@H]3CCN(C)C3)cc21

>  <Energy>  (45) 
84.70537865145563

>  <Genealogy>  (45) 
C=CC(=O)n1c(C([NH-])=O)cc2ccc(NC3CCN(C)C3)cc21 (protonated)
C=CC(=O)n1c(C([NH-])=O)cc2ccc(N[C@@H]3CCN(C)C3)cc21 (chirality)
C=CC(=O)n1c(C([NH-])=O)cc2ccc(N[C@@H]3CCN(C)C3)cc21 (3D coordinates assigned)
C=CC(=O)n1c(C([NH-])=O)cc2ccc(N[C@@H]3CCN(C)C3)cc21 (nonaromatic ring conformer: 84.70537865145563 kcal/mol)

>  <smiles>  (45) 
C=CC(=O)n1c(C(N)=O)cc2ccc(NC3CCN(C)C3)cc21

>  <score_type>  (45) 
oracle

>  <origin>  (45) 
adg

>  <m_score__min__energy>  (45) 
-11.35

>  <m_primary>  (45) 
energy

$$$$
45:0
     RDKit          3D

 35 36  0  0  0  0  0  0  0  0999 V2000
   -3.1030   19.1240  -33.8720 C   0  0  0  0  0  0  0  0  0  0  0  0
   -4.0480   18.1110  -34.1910 O   0  0  0  0  0  0  0  0  0  0  0  0
   -5.4240   18.3540  -34.2410 C   0  0  0  0  0  0  0  0  0  0  0  0
   -5.9970   18.5900  -35.3400 O   0  0  0  0  0  0  0  0  0  0  0  0
   -6.2290   18.2840  -32.9850 C   0  0  0  0  0  0  0  0  0  0  0  0
   -6.5270   19.6700  -32.4880 C   0  0  0  0  0  0  0  0  0  0  0  0
   -7.8590   20.1530  -32.4800 C   0  0  0  0  0  0  0  0  0  0  0  0
   -8.1450   21.4560  -32.0400 C   0  0  0  0  0  0  0  0  0  0  0  0
   -7.0810   22.2560  -31.6330 C   0  0  0  0  0  0  0  0  0  0  0  0
   -7.0760   23.5440  -31.1490 C   0  0  0  0  0  0  0  0  0  0  0  0
   -5.7370   23.8430  -30.9060 C   0  0  0  0  0  0  0  0  0  0  0  0
   -5.2710   25.1720  -30.4590 C   0  0  0  0  0  0  0  0  0  0  0  0
   -3.9930   25.6700  -30.8450 N   0  0  0  0  0  0  0  0  0  0  0  0
   -6.0320   25.9000  -29.7670 O   0  0  0  0  0  0  0  0  0  0  0  0
   -4.9450   22.7770  -31.2170 N   0  0  0  0  0  0  0  0  0  0  0  0
   -3.5250   22.6510  -31.0450 C   0  0  0  0  0  0  0  0  0  0  0  0
   -2.8310   22.1010  -31.9440 O   0  0  0  0  0  0  0  0  0  0  0  0
   -2.9220   23.1710  -29.8910 O   0  0  0  0  0  0  0  0  0  0  0  0
   -1.5410   23.2590  -29.6730 C   0  0  0  0  0  0  0  0  0  0  0  0
   -0.7800   22.2810  -29.9020 O   0  0  0  0  0  0  0  0  0  0  0  0
   -0.9740   24.5120  -29.1680 C   0  0  0  0  0  0  0  0  0  0  0  0
   -1.6280   25.5840  -29.2620 O   0  0  0  0  0  0  0  0  0  0  0  0
    0.2870   24.5250  -28.5850 O   0  0  0  0  0  0  0  0  0  0  0  0
   -5.7820   21.8150  -31.6650 C   0  0  0  0  0  0  0  0  0  0  0  0
   -5.4710   20.5150  -32.0780 C   0  0  0  0  0  0  0  0  0  0  0  0
   -3.0180   19.2151  -32.7791 H   0  0  0  0  0  0  0  0  0  0  0  0
   -2.1231   18.8577  -34.2950 H   0  0  0  0  0  0  0  0  0  0  0  0
   -3.4366   20.0830  -34.2950 H   0  0  0  0  0  0  0  0  0  0  0  0
   -7.1740   17.7583  -33.1868 H   0  0  0  0  0  0  0  0  0  0  0  0
   -5.6563   17.7409  -32.2188 H   0  0  0  0  0  0  0  0  0  0  0  0
   -8.6768   19.5015  -32.8216 H   0  0  0  0  0  0  0  0  0  0  0  0
   -9.1782   21.8327  -32.0177 H   0  0  0  0  0  0  0  0  0  0  0  0
   -7.9450   24.1989  -30.9880 H   0  0  0  0  0  0  0  0  0  0  0  0
   -3.1160   25.2560  -30.4590 H   0  0  0  0  0  0  0  0  0  0  0  0
   -4.4301   20.1593  -32.0835 H   0  0  0  0  0  0  0  0  0  0  0  0
  1  2  1  0
  2  3  1  0
  3  4  2  0
  3  5  1  0
  5  6  1  0
  6  7  2  0
  7  8  1  0
  8  9  2  0
  9 10  1  0
 10 11  2  0
 11 12  1  0
 12 13  1  0
 12 14  2  0
 11 15  1  0
 15 16  1  0
 16 17  2  0
 16 18  1  0
 18 19  1  0
 19 20  2  0
 19 21  1  0
 21 22  2  0
 21 23  1  0
 15 24  1  0
 24 25  2  0
 25  6  1  0
 24  9  1  0
  1 26  1  0
  1 27  1  0
  1 28  1  0
  5 29  1  0
  5 30  1  0
  7 31  1  0
  8 32  1  0
 10 33  1  0
 13 34  1  0
 25 35  1  0
M  CHG  2  13  -1  23  -1
M  END
>  <UniqueID>  (46) 
46

>  <SMILES>  (46) 
COC(=O)Cc1ccc2cc(C([NH-])=O)n(C(=O)OC(=O)C(=O)[O-])c2c1

>  <Energy>  (46) 
69.8677538963241

>  <Genealogy>  (46) 
COC(=O)Cc1ccc2cc(C([NH-])=O)n(C(=O)OC(=O)C(=O)[O-])c2c1 (protonated)
COC(=O)Cc1ccc2cc(C([NH-])=O)n(C(=O)OC(=O)C(=O)[O-])c2c1 (3D coordinates assigned)
COC(=O)Cc1ccc2cc(C([NH-])=O)n(C(=O)OC(=O)C(=O)[O-])c2c1 (optimized conformer: 69.8677538963241 kcal/mol)

>  <smiles>  (46) 
COC(=O)Cc1ccc2cc(C(N)=O)n(C(=O)OC(=O)C(=O)O)c2c1

>  <score_type>  (46) 
oracle

>  <origin>  (46) 
adg

>  <m_score__min__energy>  (46) 
-12.08

>  <m_primary>  (46) 
energy

$$$$
46:0
     RDKit          3D

 40 41  0  0  0  0  0  0  0  0999 V2000
   -9.7100   21.3470  -31.9550 C   0  0  0  0  0  0  0  0  0  0  0  0
   -8.5340   20.8540  -31.1050 C   0  0  0  0  0  0  0  0  0  0  0  0
   -7.8450   22.0120  -30.3690 C   0  0  0  0  0  0  0  0  0  0  0  0
   -7.5720   20.0910  -31.9280 N   0  0  0  0  0  0  0  0  0  0  0  0
   -7.4480   18.6350  -31.7780 C   0  0  0  0  0  0  0  0  0  0  0  0
   -6.6420   20.7990  -32.7800 C   0  0  0  0  0  0  0  0  0  0  0  0
   -6.8510   22.0150  -33.0600 O   0  0  0  0  0  0  0  0  0  0  0  0
   -5.3950   20.1420  -33.3140 C   0  0  0  0  0  0  0  0  0  0  0  0
   -4.1760   20.6580  -32.5970 C   0  0  0  0  0  0  0  0  0  0  0  0
   -2.9840   19.8930  -32.5690 C   0  0  0  0  0  0  0  0  0  0  0  0
   -1.8590   20.3470  -31.8630 C   0  0  0  0  0  0  0  0  0  0  0  0
   -1.9550   21.5650  -31.1950 C   0  0  0  0  0  0  0  0  0  0  0  0
   -1.0320   22.2200  -30.4130 C   0  0  0  0  0  0  0  0  0  0  0  0
   -1.6680   23.3820  -29.9830 C   0  0  0  0  0  0  0  0  0  0  0  0
   -0.9980   24.4250  -29.1760 C   0  0  0  0  0  0  0  0  0  0  0  0
   -1.6380   25.6830  -28.9730 N   0  0  0  0  0  0  0  0  0  0  0  0
    0.1140   24.2040  -28.6300 O   0  0  0  0  0  0  0  0  0  0  0  0
   -2.9400   23.4410  -30.4740 N   0  0  0  0  0  0  0  0  0  0  0  0
   -3.9430   24.4370  -30.2140 C   0  0  0  0  0  0  0  0  0  0  0  0
   -4.8900   24.1950  -29.4200 O   0  0  0  0  0  0  0  0  0  0  0  0
   -3.8900   25.6690  -30.8520 O   0  0  0  0  0  0  0  0  0  0  0  0
   -3.0980   22.3220  -31.2170 C   0  0  0  0  0  0  0  0  0  0  0  0
   -4.2400   21.8850  -31.8990 C   0  0  0  0  0  0  0  0  0  0  0  0
  -10.5219   21.6873  -31.2954 H   0  0  0  0  0  0  0  0  0  0  0  0
   -9.3789   22.1821  -32.5898 H   0  0  0  0  0  0  0  0  0  0  0  0
  -10.0734   20.5255  -32.5898 H   0  0  0  0  0  0  0  0  0  0  0  0
   -8.9367   20.1754  -30.3387 H   0  0  0  0  0  0  0  0  0  0  0  0
   -7.9347   21.8613  -29.2831 H   0  0  0  0  0  0  0  0  0  0  0  0
   -6.7815   22.0429  -30.6483 H   0  0  0  0  0  0  0  0  0  0  0  0
   -8.3252   22.9614  -30.6483 H   0  0  0  0  0  0  0  0  0  0  0  0
   -7.4260   18.3771  -30.7089 H   0  0  0  0  0  0  0  0  0  0  0  0
   -8.3075   18.1426  -32.2564 H   0  0  0  0  0  0  0  0  0  0  0  0
   -6.5176   18.2950  -32.2564 H   0  0  0  0  0  0  0  0  0  0  0  0
   -5.4679   19.0544  -33.1665 H   0  0  0  0  0  0  0  0  0  0  0  0
   -5.3019   20.3753  -34.3849 H   0  0  0  0  0  0  0  0  0  0  0  0
   -2.9396   18.9339  -33.1058 H   0  0  0  0  0  0  0  0  0  0  0  0
   -0.9299   19.7586  -31.8382 H   0  0  0  0  0  0  0  0  0  0  0  0
   -0.0080   21.8947  -30.1772 H   0  0  0  0  0  0  0  0  0  0  0  0
   -2.6740   25.7800  -29.0710 H   0  0  0  0  0  0  0  0  0  0  0  0
   -5.1639   22.4819  -31.8917 H   0  0  0  0  0  0  0  0  0  0  0  0
  1  2  1  0
  2  3  1  0
  2  4  1  0
  4  5  1  0
  4  6  1  0
  6  7  2  0
  6  8  1  0
  8  9  1  0
  9 10  2  0
 10 11  1  0
 11 12  2  0
 12 13  1  0
 13 14  2  0
 14 15  1  0
 15 16  1  0
 15 17  2  0
 14 18  1  0
 18 19  1  0
 19 20  2  0
 19 21  1  0
 18 22  1  0
 22 23  2  0
 23  9  1  0
 22 12  1  0
  1 24  1  0
  1 25  1  0
  1 26  1  0
  2 27  1  0
  3 28  1  0
  3 29  1  0
  3 30  1  0
  5 31  1  0
  5 32  1  0
  5 33  1  0
  8 34  1  0
  8 35  1  0
 10 36  1  0
 11 37  1  0
 13 38  1  0
 16 39  1  0
 23 40  1  0
M  CHG  2  16  -1  21  -1
M  END
>  <UniqueID>  (47) 
47

>  <SMILES>  (47) 
CC(C)N(C)C(=O)Cc1ccc2cc(C([NH-])=O)n(C(=O)[O-])c2c1

>  <Energy>  (47) 
75.76117097217262

>  <Genealogy>  (47) 
CC(C)N(C)C(=O)Cc1ccc2cc(C([NH-])=O)n(C(=O)[O-])c2c1 (protonated)
CC(C)N(C)C(=O)Cc1ccc2cc(C([NH-])=O)n(C(=O)[O-])c2c1 (3D coordinates assigned)
CC(C)N(C)C(=O)Cc1ccc2cc(C([NH-])=O)n(C(=O)[O-])c2c1 (optimized conformer: 75.76117097217262 kcal/mol)

>  <smiles>  (47) 
CC(C)N(C)C(=O)Cc1ccc2cc(C(N)=O)n(C(=O)O)c2c1

>  <score_type>  (47) 
oracle

>  <origin>  (47) 
adg

>  <m_score__min__energy>  (47) 
-11.66

>  <m_primary>  (47) 
energy

$$$$
47:0
     RDKit          3D

 38 39  0  0  0  0  0  0  0  0999 V2000
   -9.4050   21.8550  -31.7560 C   0  0  0  0  0  0  0  0  0  0  0  0
   -8.1860   21.4930  -30.9160 C   0  0  0  0  0  0  0  0  0  0  0  0
   -7.6100   22.6620  -30.3390 O   0  0  0  0  0  0  0  0  0  0  0  0
   -6.9580   23.6500  -31.0870 C   0  0  0  0  0  0  0  0  0  0  0  0
   -6.7890   23.5130  -32.3290 O   0  0  0  0  0  0  0  0  0  0  0  0
   -6.4460   24.8740  -30.3980 C   0  0  0  0  0  0  0  0  0  0  0  0
   -4.9520   24.8120  -30.2680 C   0  0  0  0  0  0  0  0  0  0  0  0
   -4.2480   25.6840  -30.8450 O   0  0  0  0  0  0  0  0  0  0  0  0
   -4.2950   23.7280  -29.5130 C   0  0  0  0  0  0  0  0  0  0  0  0
   -4.6620   23.4650  -28.3370 O   0  0  0  0  0  0  0  0  0  0  0  0
   -3.2360   22.9630  -30.1090 N   0  0  0  0  0  0  0  0  0  0  0  0
   -1.8990   23.2170  -30.0660 C   0  0  0  0  0  0  0  0  0  0  0  0
   -1.2440   24.2780  -29.2720 C   0  0  0  0  0  0  0  0  0  0  0  0
   -1.9230   25.4940  -28.9700 N   0  0  0  0  0  0  0  0  0  0  0  0
   -0.0790   24.0960  -28.8270 O   0  0  0  0  0  0  0  0  0  0  0  0
   -1.2020   22.2920  -30.8430 C   0  0  0  0  0  0  0  0  0  0  0  0
   -2.1640   21.4600  -31.3700 C   0  0  0  0  0  0  0  0  0  0  0  0
   -2.0390   20.3820  -32.2400 C   0  0  0  0  0  0  0  0  0  0  0  0
   -3.2120   19.7270  -32.6530 C   0  0  0  0  0  0  0  0  0  0  0  0
   -4.4830   20.1520  -32.1850 C   0  0  0  0  0  0  0  0  0  0  0  0
   -5.7380   19.4810  -32.6810 C   0  0  0  0  0  0  0  0  0  0  0  0
   -6.5970   20.4070  -33.2470 F   0  0  0  0  0  0  0  0  0  0  0  0
   -6.4020   18.8550  -31.6390 F   0  0  0  0  0  0  0  0  0  0  0  0
   -5.4030   18.5360  -33.6330 F   0  0  0  0  0  0  0  0  0  0  0  0
   -4.5690   21.2690  -31.3220 C   0  0  0  0  0  0  0  0  0  0  0  0
   -3.3830   21.8880  -30.9140 C   0  0  0  0  0  0  0  0  0  0  0  0
  -10.2462   22.1048  -31.0928 H   0  0  0  0  0  0  0  0  0  0  0  0
   -9.1686   22.7217  -32.3908 H   0  0  0  0  0  0  0  0  0  0  0  0
   -9.6800   20.9997  -32.3908 H   0  0  0  0  0  0  0  0  0  0  0  0
   -8.4913   20.8061  -30.1129 H   0  0  0  0  0  0  0  0  0  0  0  0
   -7.4386   21.0119  -31.5641 H   0  0  0  0  0  0  0  0  0  0  0  0
   -6.7227   25.7628  -30.9840 H   0  0  0  0  0  0  0  0  0  0  0  0
   -6.8905   24.9316  -29.3935 H   0  0  0  0  0  0  0  0  0  0  0  0
   -2.8980   25.6610  -29.3020 H   0  0  0  0  0  0  0  0  0  0  0  0
   -0.1147   22.2386  -31.0011 H   0  0  0  0  0  0  0  0  0  0  0  0
   -1.0514   20.0518  -32.5943 H   0  0  0  0  0  0  0  0  0  0  0  0
   -3.1444   18.8758  -33.3464 H   0  0  0  0  0  0  0  0  0  0  0  0
   -5.5455   21.6422  -30.9797 H   0  0  0  0  0  0  0  0  0  0  0  0
  1  2  1  0
  2  3  1  0
  3  4  1  0
  4  5  2  0
  4  6  1  0
  6  7  1  0
  7  8  2  0
  7  9  1  0
  9 10  2  0
  9 11  1  0
 11 12  1  0
 12 13  1  0
 13 14  1  0
 13 15  2  0
 12 16  2  0
 16 17  1  0
 17 18  2  0
 18 19  1  0
 19 20  2  0
 20 21  1  0
 21 22  1  0
 21 23  1  0
 21 24  1  0
 20 25  1  0
 25 26  2  0
 26 11  1  0
 26 17  1  0
  1 27  1  0
  1 28  1  0
  1 29  1  0
  2 30  1  0
  2 31  1  0
  6 32  1  0
  6 33  1  0
 14 34  1  0
 16 35  1  0
 18 36  1  0
 19 37  1  0
 25 38  1  0
M  CHG  1  14  -1
M  END
>  <UniqueID>  (48) 
48

>  <SMILES>  (48) 
CCOC(=O)CC(=O)C(=O)n1c(C([NH-])=O)cc2ccc(C(F)(F)F)cc21

>  <Energy>  (48) 
70.99103689546224

>  <Genealogy>  (48) 
CCOC(=O)CC(=O)C(=O)n1c(C([NH-])=O)cc2ccc(C(F)(F)F)cc21 (protonated)
CCOC(=O)CC(=O)C(=O)n1c(C([NH-])=O)cc2ccc(C(F)(F)F)cc21 (3D coordinates assigned)
CCOC(=O)CC(=O)C(=O)n1c(C([NH-])=O)cc2ccc(C(F)(F)F)cc21 (optimized conformer: 70.99103689546224 kcal/mol)

>  <smiles>  (48) 
CCOC(=O)CC(=O)C(=O)n1c(C(N)=O)cc2ccc(C(F)(F)F)cc21

>  <score_type>  (48) 
oracle

>  <origin>  (48) 
adg

>  <m_score__min__energy>  (48) 
-10.26

>  <m_primary>  (48) 
energy

$$$$
48:0
     RDKit          3D

 28 29  0  0  0  0  0  0  0  0999 V2000
   -3.8630   25.6410  -30.8450 N   0  0  0  0  0  0  0  0  0  0  0  0
   -5.1970   25.3260  -30.4540 C   0  0  0  0  0  0  0  0  0  0  0  0
   -5.8290   26.1310  -29.7190 O   0  0  0  0  0  0  0  0  0  0  0  0
   -5.8350   24.0570  -30.8670 C   0  0  0  0  0  0  0  0  0  0  0  0
   -7.2070   23.9130  -31.0640 C   0  0  0  0  0  0  0  0  0  0  0  0
   -7.3920   22.5880  -31.3860 C   0  0  0  0  0  0  0  0  0  0  0  0
   -8.5570   21.9000  -31.7090 C   0  0  0  0  0  0  0  0  0  0  0  0
   -8.4480   20.5380  -32.0400 C   0  0  0  0  0  0  0  0  0  0  0  0
   -7.1860   19.8880  -32.0340 C   0  0  0  0  0  0  0  0  0  0  0  0
   -7.0750   18.4440  -32.4500 C   0  0  0  0  0  0  0  0  0  0  0  0
   -6.6580   18.3820  -33.7670 F   0  0  0  0  0  0  0  0  0  0  0  0
   -6.1590   17.7760  -31.6560 F   0  0  0  0  0  0  0  0  0  0  0  0
   -8.2970   17.8050  -32.3330 F   0  0  0  0  0  0  0  0  0  0  0  0
   -6.0230   20.6310  -31.7250 C   0  0  0  0  0  0  0  0  0  0  0  0
   -6.1640   21.9790  -31.3800 C   0  0  0  0  0  0  0  0  0  0  0  0
   -5.1970   22.8690  -31.0600 N   0  0  0  0  0  0  0  0  0  0  0  0
   -3.7840   22.6180  -31.0140 C   0  0  0  0  0  0  0  0  0  0  0  0
   -3.1680   22.3330  -32.0770 O   0  0  0  0  0  0  0  0  0  0  0  0
   -3.0270   22.6600  -29.7210 C   0  0  0  0  0  0  0  0  0  0  0  0
   -2.1010   23.7120  -29.7330 O   0  0  0  0  0  0  0  0  0  0  0  0
   -3.0460   25.2940  -30.2960 H   0  0  0  0  0  0  0  0  0  0  0  0
   -7.9782   24.6928  -30.9800 H   0  0  0  0  0  0  0  0  0  0  0  0
   -9.5337   22.4061  -31.7055 H   0  0  0  0  0  0  0  0  0  0  0  0
   -9.3511   19.9694  -32.3067 H   0  0  0  0  0  0  0  0  0  0  0  0
   -5.0298   20.1592  -31.7553 H   0  0  0  0  0  0  0  0  0  0  0  0
   -3.7339   22.8084  -28.8914 H   0  0  0  0  0  0  0  0  0  0  0  0
   -2.4875   21.7102  -29.5914 H   0  0  0  0  0  0  0  0  0  0  0  0
   -2.2630   24.2110  -30.5750 H   0  0  0  0  0  0  0  0  0  0  0  0
  1  2  1  0
  2  3  2  0
  2  4  1  0
  4  5  2  0
  5  6  1  0
  6  7  2  0
  7  8  1  0
  8  9  2  0
  9 10  1  0
 10 11  1  0
 10 12  1  0
 10 13  1  0
  9 14  1  0
 14 15  2  0
 15 16  1  0
 16 17  1  0
 17 18  2  0
 17 19  1  0
 19 20  1  0
 16  4  1  0
 15  6  1  0
  1 21  1  0
  5 22  1  0
  7 23  1  0
  8 24  1  0
 14 25  1  0
 19 26  1  0
 19 27  1  0
 20 28  1  0
M  CHG  1   1  -1
M  END
>  <UniqueID>  (49) 
49

>  <SMILES>  (49) 
[NH-]C(=O)c1cc2ccc(C(F)(F)F)cc2n1C(=O)CO

>  <Energy>  (49) 
68.09354620041042

>  <Genealogy>  (49) 
[NH-]C(=O)c1cc2ccc(C(F)(F)F)cc2n1C(=O)CO (protonated)
[NH-]C(=O)c1cc2ccc(C(F)(F)F)cc2n1C(=O)CO (3D coordinates assigned)
[NH-]C(=O)c1cc2ccc(C(F)(F)F)cc2n1C(=O)CO (optimized conformer: 68.09354620041042 kcal/mol)

>  <smiles>  (49) 
NC(=O)c1cc2ccc(C(F)(F)F)cc2n1C(=O)CO

>  <score_type>  (49) 
oracle

>  <origin>  (49) 
adg

>  <m_score__min__energy>  (49) 
-8.5

>  <m_primary>  (49) 
energy

$$$$
49:0
     RDKit          3D

 43 45  0  0  0  0  0  0  0  0999 V2000
   -3.1540   22.9020  -28.5210 C   0  0  0  0  0  0  0  0  0  0  0  0
   -2.1350   23.3520  -29.5630 C   0  0  1  0  0  0  0  0  0  0  0  0
   -2.8130   23.6340  -30.7870 O   0  0  0  0  0  0  0  0  0  0  0  0
   -3.5260   22.6730  -31.5120 C   0  0  0  0  0  0  0  0  0  0  0  0
   -2.9100   21.8000  -32.1810 O   0  0  0  0  0  0  0  0  0  0  0  0
   -4.9660   22.6800  -31.4820 N   0  0  0  0  0  0  0  0  0  0  0  0
   -5.7730   23.7060  -31.0880 C   0  0  0  0  0  0  0  0  0  0  0  0
   -5.3380   24.9280  -30.3830 C   0  0  0  0  0  0  0  0  0  0  0  0
   -4.1830   25.6530  -30.8090 N   0  0  0  0  0  0  0  0  0  0  0  0
   -5.9430   25.2890  -29.3380 O   0  0  0  0  0  0  0  0  0  0  0  0
   -7.1090   23.4040  -31.3310 C   0  0  0  0  0  0  0  0  0  0  0  0
   -7.1030   22.1370  -31.8670 C   0  0  0  0  0  0  0  0  0  0  0  0
   -8.1640   21.3360  -32.2720 C   0  0  0  0  0  0  0  0  0  0  0  0
   -7.8730   20.0580  -32.7750 C   0  0  0  0  0  0  0  0  0  0  0  0
   -6.5320   19.5980  -32.8720 C   0  0  0  0  0  0  0  0  0  0  0  0
   -6.2450   18.2640  -33.3580 N   0  0  0  0  0  0  0  0  0  0  0  0
   -5.0230   17.9010  -34.0640 C   0  0  0  0  0  0  0  0  0  0  0  0
   -5.2500   16.4920  -34.5970 C   0  0  0  0  0  0  0  0  0  0  0  0
   -6.4230   15.9320  -33.8000 C   0  0  0  0  0  0  0  0  0  0  0  0
   -7.1680   17.1430  -33.2520 C   0  0  0  0  0  0  0  0  0  0  0  0
   -5.4800   20.4580  -32.4670 C   0  0  0  0  0  0  0  0  0  0  0  0
   -5.7990   21.7200  -31.9490 C   0  0  0  0  0  0  0  0  0  0  0  0
   -1.4020   24.5720  -29.0820 C   0  0  0  0  0  0  0  0  0  0  0  0
   -1.9960   25.6820  -28.9990 O   0  0  0  0  0  0  0  0  0  0  0  0
   -0.0730   24.4720  -28.6770 O   0  0  0  0  0  0  0  0  0  0  0  0
   -2.7509   23.0800  -27.5131 H   0  0  0  0  0  0  0  0  0  0  0  0
   -4.0858   23.4723  -28.6492 H   0  0  0  0  0  0  0  0  0  0  0  0
   -3.3602   21.8291  -28.6492 H   0  0  0  0  0  0  0  0  0  0  0  0
   -1.3999   22.5502  -29.7266 H   0  0  0  0  0  0  0  0  0  0  0  0
   -3.8620   26.4900  -30.2760 H   0  0  0  0  0  0  0  0  0  0  0  0
   -3.5860   25.3060  -31.5910 H   0  0  0  0  0  0  0  0  0  0  0  0
   -7.9836   24.0421  -31.1362 H   0  0  0  0  0  0  0  0  0  0  0  0
   -9.2020   21.6931  -32.2005 H   0  0  0  0  0  0  0  0  0  0  0  0
   -8.6953   19.4030  -33.0988 H   0  0  0  0  0  0  0  0  0  0  0  0
   -4.8393   18.5989  -34.8942 H   0  0  0  0  0  0  0  0  0  0  0  0
   -4.1461   17.9451  -33.4014 H   0  0  0  0  0  0  0  0  0  0  0  0
   -5.4947   16.5225  -35.6690 H   0  0  0  0  0  0  0  0  0  0  0  0
   -4.3509   15.8676  -34.4882 H   0  0  0  0  0  0  0  0  0  0  0  0
   -7.0817   15.3400  -34.4525 H   0  0  0  0  0  0  0  0  0  0  0  0
   -6.0832   15.2662  -32.9930 H   0  0  0  0  0  0  0  0  0  0  0  0
   -8.0733   17.3359  -33.8463 H   0  0  0  0  0  0  0  0  0  0  0  0
   -7.4886   16.9821  -32.2121 H   0  0  0  0  0  0  0  0  0  0  0  0
   -4.4310   20.1397  -32.5580 H   0  0  0  0  0  0  0  0  0  0  0  0
  1  2  1  0
  2  3  1  0
  3  4  1  0
  4  5  2  0
  4  6  1  0
  6  7  1  0
  7  8  1  0
  8  9  1  0
  8 10  2  0
  7 11  2  0
 11 12  1  0
 12 13  2  0
 13 14  1  0
 14 15  2  0
 15 16  1  0
 16 17  1  0
 17 18  1  0
 18 19  1  0
 19 20  1  0
 15 21  1  0
 21 22  2  0
  2 23  1  0
 23 24  2  0
 23 25  1  0
 22  6  1  0
 22 12  1  0
 20 16  1  0
  1 26  1  0
  1 27  1  0
  1 28  1  0
  2 29  1  6
  9 30  1  0
  9 31  1  0
 11 32  1  0
 13 33  1  0
 14 34  1  0
 17 35  1  0
 17 36  1  0
 18 37  1  0
 18 38  1  0
 19 39  1  0
 19 40  1  0
 20 41  1  0
 20 42  1  0
 21 43  1  0
M  CHG  1  25  -1
M  END
>  <UniqueID>  (50) 
50

>  <SMILES>  (50) 
C[C@@H](OC(=O)n1c(C(N)=O)cc2ccc(N3CCCC3)cc21)C(=O)[O-]

>  <Energy>  (50) 
80.41390112575623

>  <Genealogy>  (50) 
CC(OC(=O)n1c(C(N)=O)cc2ccc(N3CCCC3)cc21)C(=O)[O-] (protonated)
C[C@@H](OC(=O)n1c(C(N)=O)cc2ccc(N3CCCC3)cc21)C(=O)[O-] (chirality)
C[C@@H](OC(=O)n1c(C(N)=O)cc2ccc(N3CCCC3)cc21)C(=O)[O-] (3D coordinates assigned)
C[C@@H](OC(=O)n1c(C(N)=O)cc2ccc(N3CCCC3)cc21)C(=O)[O-] (nonaromatic ring conformer: 80.41390112575623 kcal/mol)

>  <smiles>  (50) 
CC(OC(=O)n1c(C(N)=O)cc2ccc(N3CCCC3)cc21)C(=O)O

>  <score_type>  (50) 
oracle

>  <origin>  (50) 
adg

>  <m_score__min__energy>  (50) 
-11.44

>  <m_primary>  (50) 
energy

$$$$
50:0
     RDKit          3D

 41 42  0  0  0  0  0  0  0  0999 V2000
   -5.7230   16.9250  -34.0840 C   0  0  0  0  0  0  0  0  0  0  0  0
   -5.9940   18.0870  -33.1230 C   0  0  2  0  0  0  0  0  0  0  0  0
   -6.0920   17.5640  -31.7450 C   0  0  0  0  0  0  0  0  0  0  0  0
   -6.1700   17.1550  -30.6660 N   0  0  0  0  0  0  0  0  0  0  0  0
   -7.2290   18.8010  -33.5100 N   0  0  0  0  0  0  0  0  0  0  0  0
   -7.3090   20.0950  -32.8710 C   0  0  0  0  0  0  0  0  0  0  0  0
   -8.5680   20.6510  -32.5290 C   0  0  0  0  0  0  0  0  0  0  0  0
   -8.6530   21.9050  -31.9010 C   0  0  0  0  0  0  0  0  0  0  0  0
   -7.4660   22.5720  -31.6130 C   0  0  0  0  0  0  0  0  0  0  0  0
   -7.2610   23.8010  -31.0300 C   0  0  0  0  0  0  0  0  0  0  0  0
   -5.8770   23.9660  -30.9920 C   0  0  0  0  0  0  0  0  0  0  0  0
   -5.2150   25.1240  -30.3580 C   0  0  0  0  0  0  0  0  0  0  0  0
   -3.9740   25.6210  -30.8520 N   0  0  0  0  0  0  0  0  0  0  0  0
   -5.7280   25.6550  -29.3370 O   0  0  0  0  0  0  0  0  0  0  0  0
   -5.2530   22.8840  -31.5400 N   0  0  0  0  0  0  0  0  0  0  0  0
   -3.8480   22.6900  -31.7600 C   0  0  0  0  0  0  0  0  0  0  0  0
   -3.0110   23.1800  -30.9530 O   0  0  0  0  0  0  0  0  0  0  0  0
   -3.4170   21.9770  -32.8840 O   0  0  0  0  0  0  0  0  0  0  0  0
   -2.5950   20.8120  -32.8150 C   0  0  0  0  0  0  0  0  0  0  0  0
   -3.1330   19.7710  -33.7930 C   0  0  0  0  0  0  0  0  0  0  0  0
   -1.1450   21.1700  -33.1580 C   0  0  0  0  0  0  0  0  0  0  0  0
   -6.2390   22.0400  -31.9120 C   0  0  0  0  0  0  0  0  0  0  0  0
   -6.1260   20.8040  -32.5590 C   0  0  0  0  0  0  0  0  0  0  0  0
   -5.5104   16.0134  -33.5063 H   0  0  0  0  0  0  0  0  0  0  0  0
   -6.6067   16.7597  -34.7178 H   0  0  0  0  0  0  0  0  0  0  0  0
   -4.8573   17.1676  -34.7178 H   0  0  0  0  0  0  0  0  0  0  0  0
   -5.1643   18.8074  -33.1731 H   0  0  0  0  0  0  0  0  0  0  0  0
   -7.2400   18.9450  -34.5470 H   0  0  0  0  0  0  0  0  0  0  0  0
   -8.0700   18.2250  -33.2690 H   0  0  0  0  0  0  0  0  0  0  0  0
   -9.4886   20.0941  -32.7580 H   0  0  0  0  0  0  0  0  0  0  0  0
   -9.6277   22.3459  -31.6449 H   0  0  0  0  0  0  0  0  0  0  0  0
   -8.0264   24.5043  -30.6702 H   0  0  0  0  0  0  0  0  0  0  0  0
   -3.0660   25.2840  -30.4620 H   0  0  0  0  0  0  0  0  0  0  0  0
   -2.6150   20.4011  -31.7948 H   0  0  0  0  0  0  0  0  0  0  0  0
   -3.5673   18.9306  -33.2317 H   0  0  0  0  0  0  0  0  0  0  0  0
   -3.9076   20.2285  -34.4261 H   0  0  0  0  0  0  0  0  0  0  0  0
   -2.3118   19.4037  -34.4261 H   0  0  0  0  0  0  0  0  0  0  0  0
   -0.5727   21.3113  -32.2293 H   0  0  0  0  0  0  0  0  0  0  0  0
   -0.6955   20.3559  -33.7455 H   0  0  0  0  0  0  0  0  0  0  0  0
   -1.1260   22.0998  -33.7455 H   0  0  0  0  0  0  0  0  0  0  0  0
   -5.1392   20.3934  -32.8189 H   0  0  0  0  0  0  0  0  0  0  0  0
  1  2  1  0
  2  3  1  0
  3  4  3  0
  2  5  1  0
  5  6  1  0
  6  7  2  0
  7  8  1  0
  8  9  2  0
  9 10  1  0
 10 11  2  0
 11 12  1  0
 12 13  1  0
 12 14  2  0
 11 15  1  0
 15 16  1  0
 16 17  2  0
 16 18  1  0
 18 19  1  0
 19 20  1  0
 19 21  1  0
 15 22  1  0
 22 23  2  0
 23  6  1  0
 22  9  1  0
  1 24  1  0
  1 25  1  0
  1 26  1  0
  2 27  1  1
  5 28  1  0
  5 29  1  0
  7 30  1  0
  8 31  1  0
 10 32  1  0
 13 33  1  0
 19 34  1  0
 20 35  1  0
 20 36  1  0
 20 37  1  0
 21 38  1  0
 21 39  1  0
 21 40  1  0
 23 41  1  0
M  CHG  2   5   1  13  -1
M  END
>  <UniqueID>  (51) 
51

>  <SMILES>  (51) 
CC(C)OC(=O)n1c(C([NH-])=O)cc2ccc([NH2+][C@H](C)C#N)cc21

>  <Energy>  (51) 
72.63459108633704

>  <Genealogy>  (51) 
CC(C#N)[NH2+]c1ccc2cc(C([NH-])=O)n(C(=O)OC(C)C)c2c1 (protonated)
CC(C)OC(=O)n1c(C([NH-])=O)cc2ccc([NH2+][C@H](C)C#N)cc21 (chirality)
CC(C)OC(=O)n1c(C([NH-])=O)cc2ccc([NH2+][C@H](C)C#N)cc21 (3D coordinates assigned)
CC(C)OC(=O)n1c(C([NH-])=O)cc2ccc([NH2+][C@H](C)C#N)cc21 (optimized conformer: 72.63459108633704 kcal/mol)

>  <smiles>  (51) 
CC(C#N)Nc1ccc2cc(C(N)=O)n(C(=O)OC(C)C)c2c1

>  <score_type>  (51) 
oracle

>  <origin>  (51) 
adg

>  <m_score__min__energy>  (51) 
-9.8900000000000006

>  <m_primary>  (51) 
energy

$$$$
51:0
     RDKit          3D

 36 37  0  0  0  0  0  0  0  0999 V2000
   -6.4610   18.4750  -33.6390 C   0  0  0  0  0  0  0  0  0  0  0  0
   -6.6390   19.7990  -32.9570 C   0  0  0  0  0  0  0  0  0  0  0  0
   -7.9400   20.2720  -32.6540 C   0  0  0  0  0  0  0  0  0  0  0  0
   -8.1200   21.4990  -31.9940 C   0  0  0  0  0  0  0  0  0  0  0  0
   -6.9830   22.2170  -31.6330 C   0  0  0  0  0  0  0  0  0  0  0  0
   -6.8690   23.4390  -31.0090 C   0  0  0  0  0  0  0  0  0  0  0  0
   -5.4990   23.6750  -30.9070 C   0  0  0  0  0  0  0  0  0  0  0  0
   -4.9240   24.8520  -30.2240 C   0  0  0  0  0  0  0  0  0  0  0  0
   -3.8670   25.5850  -30.8410 N   0  0  0  0  0  0  0  0  0  0  0  0
   -5.3800   25.2410  -29.1170 O   0  0  0  0  0  0  0  0  0  0  0  0
   -4.7940   22.6420  -31.4490 N   0  0  0  0  0  0  0  0  0  0  0  0
   -3.3720   22.5400  -31.6120 C   0  0  0  0  0  0  0  0  0  0  0  0
   -2.8940   21.9920  -32.6430 O   0  0  0  0  0  0  0  0  0  0  0  0
   -2.5210   23.0690  -30.6340 O   0  0  0  0  0  0  0  0  0  0  0  0
   -1.8490   22.2740  -29.6590 C   0  0  0  0  0  0  0  0  0  0  0  0
   -0.9060   23.1230  -28.7960 C   0  0  0  0  0  0  0  0  0  0  0  0
   -1.6250   24.2490  -28.0290 C   0  0  0  0  0  0  0  0  0  0  0  0
   -2.1660   25.2760  -28.9190 N   0  0  0  0  0  0  0  0  0  0  0  0
   -5.7170   21.7570  -31.8890 C   0  0  0  0  0  0  0  0  0  0  0  0
   -5.5090   20.5470  -32.5610 C   0  0  0  0  0  0  0  0  0  0  0  0
   -6.3547   17.6840  -32.8820 H   0  0  0  0  0  0  0  0  0  0  0  0
   -7.3390   18.2653  -34.2676 H   0  0  0  0  0  0  0  0  0  0  0  0
   -5.5588   18.5047  -34.2676 H   0  0  0  0  0  0  0  0  0  0  0  0
   -8.8174   19.6726  -32.9383 H   0  0  0  0  0  0  0  0  0  0  0  0
   -9.1271   21.8803  -31.7696 H   0  0  0  0  0  0  0  0  0  0  0  0
   -7.6855   24.0905  -30.6642 H   0  0  0  0  0  0  0  0  0  0  0  0
   -2.8790   25.2520  -30.7830 H   0  0  0  0  0  0  0  0  0  0  0  0
   -2.5973   21.7975  -29.0086 H   0  0  0  0  0  0  0  0  0  0  0  0
   -1.2488   21.5166  -30.1845 H   0  0  0  0  0  0  0  0  0  0  0  0
   -0.4131   22.4638  -28.0663 H   0  0  0  0  0  0  0  0  0  0  0  0
   -0.1866   23.6020  -29.4764 H   0  0  0  0  0  0  0  0  0  0  0  0
   -2.4526   23.8103  -27.4523 H   0  0  0  0  0  0  0  0  0  0  0  0
   -0.8857   24.7312  -27.3725 H   0  0  0  0  0  0  0  0  0  0  0  0
   -3.2040   25.3270  -28.8010 H   0  0  0  0  0  0  0  0  0  0  0  0
   -1.9610   25.0150  -29.9090 H   0  0  0  0  0  0  0  0  0  0  0  0
   -4.4915   20.1881  -32.7751 H   0  0  0  0  0  0  0  0  0  0  0  0
  1  2  1  0
  2  3  2  0
  3  4  1  0
  4  5  2  0
  5  6  1  0
  6  7  2  0
  7  8  1  0
  8  9  1  0
  8 10  2  0
  7 11  1  0
 11 12  1  0
 12 13  2  0
 12 14  1  0
 14 15  1  0
 15 16  1  0
 16 17  1  0
 17 18  1  0
 11 19  1  0
 19 20  2  0
 20  2  1  0
 19  5  1  0
  1 21  1  0
  1 22  1  0
  1 23  1  0
  3 24  1  0
  4 25  1  0
  6 26  1  0
  9 27  1  0
 15 28  1  0
 15 29  1  0
 16 30  1  0
 16 31  1  0
 17 32  1  0
 17 33  1  0
 18 34  1  0
 18 35  1  0
 20 36  1  0
M  CHG  1   9  -1
M  END
>  <UniqueID>  (52) 
52

>  <SMILES>  (52) 
Cc1ccc2cc(C([NH-])=O)n(C(=O)OCCCN)c2c1

>  <Energy>  (52) 
68.85147598655969

>  <Genealogy>  (52) 
Cc1ccc2cc(C([NH-])=O)n(C(=O)OCCCN)c2c1 (protonated)
Cc1ccc2cc(C([NH-])=O)n(C(=O)OCCCN)c2c1 (3D coordinates assigned)
Cc1ccc2cc(C([NH-])=O)n(C(=O)OCCCN)c2c1 (optimized conformer: 68.85147598655969 kcal/mol)

>  <smiles>  (52) 
Cc1ccc2cc(C(N)=O)n(C(=O)OCCCN)c2c1

>  <score_type>  (52) 
oracle

>  <origin>  (52) 
adg

>  <m_score__min__energy>  (52) 
-9.6199999999999992

>  <m_primary>  (52) 
energy

$$$$
52:0
     RDKit          3D

 49 52  0  0  0  0  0  0  0  0999 V2000
   -7.2080   15.0140  -34.2570 C   0  0  0  0  0  0  0  0  0  0  0  0
   -6.0850   16.0520  -34.0620 C   0  0  1  0  0  0  0  0  0  0  0  0
   -6.7180   17.4040  -33.6840 C   0  0  0  0  0  0  0  0  0  0  0  0
   -5.7170   18.3350  -33.1460 N   0  0  0  0  0  0  0  0  0  0  0  0
   -6.1420   19.6370  -32.6990 C   0  0  0  0  0  0  0  0  0  0  0  0
   -7.5050   20.0230  -32.8050 C   0  0  0  0  0  0  0  0  0  0  0  0
   -7.9280   21.2920  -32.3750 C   0  0  0  0  0  0  0  0  0  0  0  0
   -6.9730   22.1520  -31.8430 C   0  0  0  0  0  0  0  0  0  0  0  0
   -7.1020   23.4390  -31.3690 C   0  0  0  0  0  0  0  0  0  0  0  0
   -5.8210   23.8140  -30.9680 C   0  0  0  0  0  0  0  0  0  0  0  0
   -5.5140   25.1040  -30.3150 C   0  0  0  0  0  0  0  0  0  0  0  0
   -4.2460   25.7310  -30.4880 N   0  0  0  0  0  0  0  0  0  0  0  0
   -6.3710   25.6430  -29.5630 O   0  0  0  0  0  0  0  0  0  0  0  0
   -4.9360   22.8030  -31.1960 N   0  0  0  0  0  0  0  0  0  0  0  0
   -3.5150   22.8060  -30.9940 C   0  0  0  0  0  0  0  0  0  0  0  0
   -2.7540   22.3690  -31.8990 O   0  0  0  0  0  0  0  0  0  0  0  0
   -2.9350   23.3620  -29.7640 C   0  0  0  0  0  0  0  0  0  0  0  0
   -3.0960   22.8200  -28.5420 N   0  0  0  0  0  0  0  0  0  0  0  0
   -2.3870   23.6750  -27.7750 C   0  0  0  0  0  0  0  0  0  0  0  0
   -1.8320   24.6690  -28.4950 N   0  0  0  0  0  0  0  0  0  0  0  0
   -2.1920   24.4390  -29.7200 O   0  0  0  0  0  0  0  0  0  0  0  0
   -5.6570   21.7920  -31.7240 C   0  0  0  0  0  0  0  0  0  0  0  0
   -5.2040   20.5420  -32.1540 C   0  0  0  0  0  0  0  0  0  0  0  0
   -4.2890   18.0610  -33.3470 C   0  0  0  0  0  0  0  0  0  0  0  0
   -3.9260   16.5930  -32.9910 C   0  0  2  0  0  0  0  0  0  0  0  0
   -2.7860   16.1140  -33.9190 C   0  0  0  0  0  0  0  0  0  0  0  0
   -5.1190   15.6960  -32.9950 N   0  0  0  0  0  0  0  0  0  0  0  0
   -4.7670   14.2630  -32.9210 C   0  0  0  0  0  0  0  0  0  0  0  0
   -7.5714   14.6781  -33.2746 H   0  0  0  0  0  0  0  0  0  0  0  0
   -8.0366   15.4712  -34.8178 H   0  0  0  0  0  0  0  0  0  0  0  0
   -6.8173   14.1521  -34.8178 H   0  0  0  0  0  0  0  0  0  0  0  0
   -5.5321   16.0922  -35.0121 H   0  0  0  0  0  0  0  0  0  0  0  0
   -7.1740   17.8485  -34.5809 H   0  0  0  0  0  0  0  0  0  0  0  0
   -7.4760   17.2252  -32.9072 H   0  0  0  0  0  0  0  0  0  0  0  0
   -8.2377   19.3203  -33.2286 H   0  0  0  0  0  0  0  0  0  0  0  0
   -8.9820   21.5960  -32.4566 H   0  0  0  0  0  0  0  0  0  0  0  0
   -8.0204   24.0422  -31.3179 H   0  0  0  0  0  0  0  0  0  0  0  0
   -3.5120   25.6710  -29.7490 H   0  0  0  0  0  0  0  0  0  0  0  0
   -2.2751   23.5718  -26.6856 H   0  0  0  0  0  0  0  0  0  0  0  0
   -4.1417   20.2690  -32.0701 H   0  0  0  0  0  0  0  0  0  0  0  0
   -4.0366   18.2441  -34.4019 H   0  0  0  0  0  0  0  0  0  0  0  0
   -3.7172   18.7249  -32.6819 H   0  0  0  0  0  0  0  0  0  0  0  0
   -3.5581   16.5505  -31.9552 H   0  0  0  0  0  0  0  0  0  0  0  0
   -1.9417   15.7593  -33.3096 H   0  0  0  0  0  0  0  0  0  0  0  0
   -3.1505   15.2929  -34.5538 H   0  0  0  0  0  0  0  0  0  0  0  0
   -2.4547   16.9490  -34.5538 H   0  0  0  0  0  0  0  0  0  0  0  0
   -4.6920   13.9578  -31.8668 H   0  0  0  0  0  0  0  0  0  0  0  0
   -5.5457   13.6679  -33.4205 H   0  0  0  0  0  0  0  0  0  0  0  0
   -3.8012   14.0964  -33.4205 H   0  0  0  0  0  0  0  0  0  0  0  0
  1  2  1  0
  2  3  1  0
  3  4  1  0
  4  5  1  0
  5  6  2  0
  6  7  1  0
  7  8  2  0
  8  9  1  0
  9 10  2  0
 10 11  1  0
 11 12  1  0
 11 13  2  0
 10 14  1  0
 14 15  1  0
 15 16  2  0
 15 17  1  0
 17 18  2  0
 18 19  1  0
 19 20  2  0
 20 21  1  0
 14 22  1  0
 22 23  2  0
  4 24  1  0
 24 25  1  0
 25 26  1  0
 25 27  1  0
 27 28  1  0
 27  2  1  0
 23  5  1  0
 22  8  1  0
 21 17  1  0
  1 29  1  0
  1 30  1  0
  1 31  1  0
  2 32  1  6
  3 33  1  0
  3 34  1  0
  6 35  1  0
  7 36  1  0
  9 37  1  0
 12 38  1  0
 19 39  1  0
 23 40  1  0
 24 41  1  0
 24 42  1  0
 25 43  1  1
 26 44  1  0
 26 45  1  0
 26 46  1  0
 28 47  1  0
 28 48  1  0
 28 49  1  0
M  CHG  1  12  -1
M  END
>  <UniqueID>  (53) 
53

>  <SMILES>  (53) 
C[C@H]1CN(c2ccc3cc(C([NH-])=O)n(C(=O)c4ncno4)c3c2)C[C@H](C)N1C

>  <Energy>  (53) 
139.03708761938546

>  <Genealogy>  (53) 
CC1CN(c2ccc3cc(C([NH-])=O)n(C(=O)c4ncno4)c3c2)CC(C)N1C (protonated)
C[C@H]1CN(c2ccc3cc(C([NH-])=O)n(C(=O)c4ncno4)c3c2)C[C@H](C)N1C (chirality)
C[C@H]1CN(c2ccc3cc(C([NH-])=O)n(C(=O)c4ncno4)c3c2)C[C@H](C)N1C (3D coordinates assigned)
C[C@H]1CN(c2ccc3cc(C([NH-])=O)n(C(=O)c4ncno4)c3c2)C[C@H](C)N1C (nonaromatic ring conformer: 139.03708761938546 kcal/mol)

>  <smiles>  (53) 
CC1CN(c2ccc3cc(C(N)=O)n(C(=O)c4ncno4)c3c2)CC(C)N1C

>  <score_type>  (53) 
oracle

>  <origin>  (53) 
adg

>  <m_score__min__energy>  (53) 
-11.17

>  <m_primary>  (53) 
energy

$$$$
53:0
     RDKit          3D

 45 47  0  0  0  0  0  0  0  0999 V2000
   -3.8890   25.6710  -30.8240 N   0  0  0  0  0  0  0  0  0  0  0  0
   -5.1690   25.1410  -30.4930 C   0  0  0  0  0  0  0  0  0  0  0  0
   -5.9550   25.8240  -29.7830 O   0  0  0  0  0  0  0  0  0  0  0  0
   -5.6080   23.8310  -31.0160 C   0  0  0  0  0  0  0  0  0  0  0  0
   -6.9470   23.4750  -31.1610 C   0  0  0  0  0  0  0  0  0  0  0  0
   -6.9310   22.2350  -31.7550 C   0  0  0  0  0  0  0  0  0  0  0  0
   -7.9840   21.4090  -32.1220 C   0  0  0  0  0  0  0  0  0  0  0  0
   -7.6810   20.1630  -32.6930 C   0  0  0  0  0  0  0  0  0  0  0  0
   -6.3290   19.7420  -32.8840 C   0  0  0  0  0  0  0  0  0  0  0  0
   -6.0220   18.4370  -33.4680 N   0  0  0  0  0  0  0  0  0  0  0  0
   -6.8790   17.2780  -33.1410 C   0  0  0  0  0  0  0  0  0  0  0  0
   -6.4840   15.9950  -33.8780 C   0  0  0  0  0  0  0  0  0  0  0  0
   -5.0850   15.8820  -33.9820 O   0  0  0  0  0  0  0  0  0  0  0  0
   -4.6240   16.8750  -34.8650 C   0  0  0  0  0  0  0  0  0  0  0  0
   -4.7790   18.2700  -34.2520 C   0  0  0  0  0  0  0  0  0  0  0  0
   -5.2890   20.6320  -32.4930 C   0  0  0  0  0  0  0  0  0  0  0  0
   -5.6260   21.8760  -31.9450 C   0  0  0  0  0  0  0  0  0  0  0  0
   -4.7970   22.8460  -31.4950 N   0  0  0  0  0  0  0  0  0  0  0  0
   -3.3630   22.7810  -31.4400 C   0  0  0  0  0  0  0  0  0  0  0  0
   -2.7200   22.2670  -32.3960 O   0  0  0  0  0  0  0  0  0  0  0  0
   -2.6700   23.2570  -30.2820 N   0  0  0  0  0  0  0  0  0  0  0  0
   -1.3350   22.8180  -29.8840 C   0  0  0  0  0  0  0  0  0  0  0  0
   -0.8300   23.5980  -28.6640 C   0  0  0  0  0  0  0  0  0  0  0  0
   -1.8020   24.6880  -28.2150 C   0  0  0  0  0  0  0  0  0  0  0  0
   -1.5860   25.8460  -28.9730 O   0  0  0  0  0  0  0  0  0  0  0  0
   -3.0210   25.2970  -30.3800 H   0  0  0  0  0  0  0  0  0  0  0  0
   -7.8291   24.0610  -30.8637 H   0  0  0  0  0  0  0  0  0  0  0  0
   -9.0274   21.7221  -31.9696 H   0  0  0  0  0  0  0  0  0  0  0  0
   -8.5011   19.4971  -32.9997 H   0  0  0  0  0  0  0  0  0  0  0  0
   -6.8134   17.0915  -32.0589 H   0  0  0  0  0  0  0  0  0  0  0  0
   -7.9003   17.5320  -33.4611 H   0  0  0  0  0  0  0  0  0  0  0  0
   -6.8746   15.1280  -33.3250 H   0  0  0  0  0  0  0  0  0  0  0  0
   -6.9086   16.0292  -34.8922 H   0  0  0  0  0  0  0  0  0  0  0  0
   -3.5614   16.6951  -35.0855 H   0  0  0  0  0  0  0  0  0  0  0  0
   -5.2222   16.8291  -35.7870 H   0  0  0  0  0  0  0  0  0  0  0  0
   -3.9216   18.4555  -33.5884 H   0  0  0  0  0  0  0  0  0  0  0  0
   -4.8248   18.9858  -35.0860 H   0  0  0  0  0  0  0  0  0  0  0  0
   -4.2343   20.3463  -32.6197 H   0  0  0  0  0  0  0  0  0  0  0  0
   -1.3699   21.7472  -29.6348 H   0  0  0  0  0  0  0  0  0  0  0  0
   -0.6461   23.0016  -30.7217 H   0  0  0  0  0  0  0  0  0  0  0  0
   -0.6834   22.8933  -27.8322 H   0  0  0  0  0  0  0  0  0  0  0  0
    0.1105   24.0906  -28.9516 H   0  0  0  0  0  0  0  0  0  0  0  0
   -2.8355   24.3410  -28.3616 H   0  0  0  0  0  0  0  0  0  0  0  0
   -1.6380   24.9103  -27.1503 H   0  0  0  0  0  0  0  0  0  0  0  0
   -1.9920   25.6740  -29.8610 H   0  0  0  0  0  0  0  0  0  0  0  0
  1  2  1  0
  2  3  2  0
  2  4  1  0
  4  5  2  0
  5  6  1  0
  6  7  2  0
  7  8  1  0
  8  9  2  0
  9 10  1  0
 10 11  1  0
 11 12  1  0
 12 13  1  0
 13 14  1  0
 14 15  1  0
  9 16  1  0
 16 17  2  0
 17 18  1  0
 18 19  1  0
 19 20  2  0
 19 21  1  0
 21 22  1  0
 22 23  1  0
 23 24  1  0
 24 25  1  0
 18  4  1  0
 17  6  1  0
 15 10  1  0
  1 26  1  0
  5 27  1  0
  7 28  1  0
  8 29  1  0
 11 30  1  0
 11 31  1  0
 12 32  1  0
 12 33  1  0
 14 34  1  0
 14 35  1  0
 15 36  1  0
 15 37  1  0
 16 38  1  0
 22 39  1  0
 22 40  1  0
 23 41  1  0
 23 42  1  0
 24 43  1  0
 24 44  1  0
 25 45  1  0
M  CHG  2   1  -1  21  -1
M  END
>  <UniqueID>  (54) 
54

>  <SMILES>  (54) 
[NH-]C(=O)c1cc2ccc(N3CCOCC3)cc2n1C(=O)[N-]CCCO

>  <Energy>  (54) 
87.92935432606997

>  <Genealogy>  (54) 
[NH-]C(=O)c1cc2ccc(N3CCOCC3)cc2n1C(=O)[N-]CCCO (protonated)
[NH-]C(=O)c1cc2ccc(N3CCOCC3)cc2n1C(=O)[N-]CCCO (3D coordinates assigned)
[NH-]C(=O)c1cc2ccc(N3CCOCC3)cc2n1C(=O)[N-]CCCO (nonaromatic ring conformer: 87.92935432606997 kcal/mol)

>  <smiles>  (54) 
NC(=O)c1cc2ccc(N3CCOCC3)cc2n1C(=O)NCCCO

>  <score_type>  (54) 
oracle

>  <origin>  (54) 
adg

>  <m_score__min__energy>  (54) 
-11.74

>  <m_primary>  (54) 
energy

$$$$
54:0
     RDKit          3D

 39 41  0  0  0  0  0  0  0  0999 V2000
    1.5300   22.4020  -35.9590 C   0  0  0  0  0  0  0  0  0  0  0  0
    0.6500   21.4530  -35.2090 C   0  0  0  0  0  0  0  0  0  0  0  0
    0.5530   20.1140  -35.6060 C   0  0  0  0  0  0  0  0  0  0  0  0
   -0.2950   19.2550  -34.9060 C   0  0  0  0  0  0  0  0  0  0  0  0
   -1.0310   19.7340  -33.8210 C   0  0  0  0  0  0  0  0  0  0  0  0
   -0.8980   21.0780  -33.4360 C   0  0  0  0  0  0  0  0  0  0  0  0
   -1.6590   21.6300  -32.3530 N   0  0  0  0  0  0  0  0  0  0  0  0
   -3.0390   22.0120  -32.3920 C   0  0  0  0  0  0  0  0  0  0  0  0
   -3.6850   21.8430  -33.4590 O   0  0  0  0  0  0  0  0  0  0  0  0
   -3.7000   22.6720  -31.2480 C   0  0  0  0  0  0  0  0  0  0  0  0
   -3.0120   23.0810  -30.2740 O   0  0  0  0  0  0  0  0  0  0  0  0
   -5.1200   22.8820  -31.2470 N   0  0  0  0  0  0  0  0  0  0  0  0
   -5.7980   23.9910  -30.8330 C   0  0  0  0  0  0  0  0  0  0  0  0
   -5.1920   25.2780  -30.4320 C   0  0  0  0  0  0  0  0  0  0  0  0
   -3.8720   25.6280  -30.8410 N   0  0  0  0  0  0  0  0  0  0  0  0
   -5.8600   26.0950  -29.7440 O   0  0  0  0  0  0  0  0  0  0  0  0
   -7.1720   23.7730  -30.8930 C   0  0  0  0  0  0  0  0  0  0  0  0
   -7.3180   22.4850  -31.3590 C   0  0  0  0  0  0  0  0  0  0  0  0
   -8.4710   21.7460  -31.6040 C   0  0  0  0  0  0  0  0  0  0  0  0
   -8.3220   20.4240  -32.0600 C   0  0  0  0  0  0  0  0  0  0  0  0
   -7.0330   19.8590  -32.2370 C   0  0  0  0  0  0  0  0  0  0  0  0
   -6.8850   18.4540  -32.7620 C   0  0  0  0  0  0  0  0  0  0  0  0
   -5.9570   17.7490  -32.0180 F   0  0  0  0  0  0  0  0  0  0  0  0
   -6.4620   18.4680  -34.0810 F   0  0  0  0  0  0  0  0  0  0  0  0
   -8.1060   17.8100  -32.6880 F   0  0  0  0  0  0  0  0  0  0  0  0
   -5.8870   20.6520  -31.9980 C   0  0  0  0  0  0  0  0  0  0  0  0
   -6.0650   21.9690  -31.5620 C   0  0  0  0  0  0  0  0  0  0  0  0
   -0.0800   21.8990  -34.1500 N   0  0  0  0  0  0  0  0  0  0  0  0
    2.0993   23.0159  -35.2455 H   0  0  0  0  0  0  0  0  0  0  0  0
    2.2275   21.8333  -36.5915 H   0  0  0  0  0  0  0  0  0  0  0  0
    0.9104   23.0547  -36.5915 H   0  0  0  0  0  0  0  0  0  0  0  0
    1.1387   19.7433  -36.4601 H   0  0  0  0  0  0  0  0  0  0  0  0
   -0.3834   18.2012  -35.2089 H   0  0  0  0  0  0  0  0  0  0  0  0
   -1.7095   19.0644  -33.2721 H   0  0  0  0  0  0  0  0  0  0  0  0
   -3.0370   25.2630  -30.3310 H   0  0  0  0  0  0  0  0  0  0  0  0
   -7.9714   24.4796  -30.6251 H   0  0  0  0  0  0  0  0  0  0  0  0
   -9.4683   22.1822  -31.4459 H   0  0  0  0  0  0  0  0  0  0  0  0
   -9.2151   19.8214  -32.2819 H   0  0  0  0  0  0  0  0  0  0  0  0
   -4.8778   20.2422  -32.1516 H   0  0  0  0  0  0  0  0  0  0  0  0
  1  2  1  0
  2  3  2  0
  3  4  1  0
  4  5  2  0
  5  6  1  0
  6  7  1  0
  7  8  1  0
  8  9  2  0
  8 10  1  0
 10 11  2  0
 10 12  1  0
 12 13  1  0
 13 14  1  0
 14 15  1  0
 14 16  2  0
 13 17  2  0
 17 18  1  0
 18 19  2  0
 19 20  1  0
 20 21  2  0
 21 22  1  0
 22 23  1  0
 22 24  1  0
 22 25  1  0
 21 26  1  0
 26 27  2  0
  6 28  2  0
 28  2  1  0
 27 12  1  0
 27 18  1  0
  1 29  1  0
  1 30  1  0
  1 31  1  0
  3 32  1  0
  4 33  1  0
  5 34  1  0
 15 35  1  0
 17 36  1  0
 19 37  1  0
 20 38  1  0
 26 39  1  0
M  CHG  2   7  -1  15  -1
M  END
>  <UniqueID>  (55) 
55

>  <SMILES>  (55) 
Cc1cccc([N-]C(=O)C(=O)n2c(C([NH-])=O)cc3ccc(C(F)(F)F)cc32)n1

>  <Energy>  (55) 
86.2842258520889

>  <Genealogy>  (55) 
Cc1cccc([N-]C(=O)C(=O)n2c(C([NH-])=O)cc3ccc(C(F)(F)F)cc32)n1 (protonated)
Cc1cccc([N-]C(=O)C(=O)n2c(C([NH-])=O)cc3ccc(C(F)(F)F)cc32)n1 (3D coordinates assigned)
Cc1cccc([N-]C(=O)C(=O)n2c(C([NH-])=O)cc3ccc(C(F)(F)F)cc32)n1 (optimized conformer: 86.2842258520889 kcal/mol)

>  <smiles>  (55) 
Cc1cccc(NC(=O)C(=O)n2c(C(N)=O)cc3ccc(C(F)(F)F)cc32)n1

>  <score_type>  (55) 
oracle

>  <origin>  (55) 
adg

>  <m_score__min__energy>  (55) 
-11.720000000000001

>  <m_primary>  (55) 
energy

$$$$
55:0
     RDKit          3D

 38 40  0  0  0  0  0  0  0  0999 V2000
   -9.4320   18.9730  -32.3540 C   0  0  0  0  0  0  0  0  0  0  0  0
   -7.9600   19.0060  -32.1030 C   0  0  0  0  0  0  0  0  0  0  0  0
   -7.1760   17.9110  -32.1030 N   0  0  0  0  0  0  0  0  0  0  0  0
   -5.9560   18.3150  -31.8990 O   0  0  0  0  0  0  0  0  0  0  0  0
   -5.8950   19.6220  -31.7660 C   0  0  0  0  0  0  0  0  0  0  0  0
   -4.6350   20.3560  -31.5220 C   0  0  0  0  0  0  0  0  0  0  0  0
   -3.4550   19.9460  -32.1930 C   0  0  0  0  0  0  0  0  0  0  0  0
   -2.2360   20.6080  -31.9750 C   0  0  0  0  0  0  0  0  0  0  0  0
   -2.2250   21.6750  -31.0800 C   0  0  0  0  0  0  0  0  0  0  0  0
   -1.1830   22.4720  -30.6600 C   0  0  0  0  0  0  0  0  0  0  0  0
   -1.7430   23.3560  -29.7390 C   0  0  0  0  0  0  0  0  0  0  0  0
   -0.9850   24.4310  -29.0640 C   0  0  0  0  0  0  0  0  0  0  0  0
   -1.5750   25.7190  -28.8990 N   0  0  0  0  0  0  0  0  0  0  0  0
    0.1730   24.2210  -28.6170 O   0  0  0  0  0  0  0  0  0  0  0  0
   -3.0760   23.1140  -29.5980 N   0  0  0  0  0  0  0  0  0  0  0  0
   -4.0000   23.7810  -28.7250 C   0  0  0  0  0  0  0  0  0  0  0  0
   -3.7510   23.8590  -27.4920 O   0  0  0  0  0  0  0  0  0  0  0  0
   -5.2390   24.4220  -29.2730 C   0  0  0  0  0  0  0  0  0  0  0  0
   -4.9410   25.0570  -30.5920 C   0  0  0  0  0  0  0  0  0  0  0  0
   -3.8610   25.6790  -30.7680 O   0  0  0  0  0  0  0  0  0  0  0  0
   -5.8370   24.9210  -31.6460 O   0  0  0  0  0  0  0  0  0  0  0  0
   -3.3540   22.0820  -30.4230 C   0  0  0  0  0  0  0  0  0  0  0  0
   -4.5760   21.4270  -30.6020 C   0  0  0  0  0  0  0  0  0  0  0  0
   -7.1790   20.1310  -31.9140 C   0  0  0  0  0  0  0  0  0  0  0  0
   -7.6350   21.5580  -31.9060 C   0  0  0  0  0  0  0  0  0  0  0  0
   -9.9676   18.9610  -31.3933 H   0  0  0  0  0  0  0  0  0  0  0  0
   -9.7264   19.8648  -32.9268 H   0  0  0  0  0  0  0  0  0  0  0  0
   -9.6861   18.0689  -32.9268 H   0  0  0  0  0  0  0  0  0  0  0  0
   -3.4951   19.0986  -32.8932 H   0  0  0  0  0  0  0  0  0  0  0  0
   -1.3188   20.2938  -32.4947 H   0  0  0  0  0  0  0  0  0  0  0  0
   -0.1326   22.4216  -30.9827 H   0  0  0  0  0  0  0  0  0  0  0  0
   -2.6080   25.8500  -28.9700 H   0  0  0  0  0  0  0  0  0  0  0  0
   -6.0183   23.6568  -29.4041 H   0  0  0  0  0  0  0  0  0  0  0  0
   -5.5896   25.1925  -28.5706 H   0  0  0  0  0  0  0  0  0  0  0  0
   -5.4695   21.7376  -30.0406 H   0  0  0  0  0  0  0  0  0  0  0  0
   -7.7449   21.9020  -30.8670 H   0  0  0  0  0  0  0  0  0  0  0  0
   -6.8919   22.1833  -32.4226 H   0  0  0  0  0  0  0  0  0  0  0  0
   -8.6030   21.6365  -32.4226 H   0  0  0  0  0  0  0  0  0  0  0  0
  1  2  1  0
  2  3  2  0
  3  4  1  0
  4  5  1  0
  5  6  1  0
  6  7  2  0
  7  8  1  0
  8  9  2  0
  9 10  1  0
 10 11  2  0
 11 12  1  0
 12 13  1  0
 12 14  2  0
 11 15  1  0
 15 16  1  0
 16 17  2  0
 16 18  1  0
 18 19  1  0
 19 20  2  0
 19 21  1  0
 15 22  1  0
 22 23  2  0
  5 24  2  0
 24 25  1  0
 24  2  1  0
 23  6  1  0
 22  9  1  0
  1 26  1  0
  1 27  1  0
  1 28  1  0
  7 29  1  0
  8 30  1  0
 10 31  1  0
 13 32  1  0
 18 33  1  0
 18 34  1  0
 23 35  1  0
 25 36  1  0
 25 37  1  0
 25 38  1  0
M  CHG  2  13  -1  21  -1
M  END
>  <UniqueID>  (56) 
56

>  <SMILES>  (56) 
Cc1noc(-c2ccc3cc(C([NH-])=O)n(C(=O)CC(=O)[O-])c3c2)c1C

>  <Energy>  (56) 
109.6799016569181

>  <Genealogy>  (56) 
Cc1noc(-c2ccc3cc(C([NH-])=O)n(C(=O)CC(=O)[O-])c3c2)c1C (protonated)
Cc1noc(-c2ccc3cc(C([NH-])=O)n(C(=O)CC(=O)[O-])c3c2)c1C (3D coordinates assigned)
Cc1noc(-c2ccc3cc(C([NH-])=O)n(C(=O)CC(=O)[O-])c3c2)c1C (optimized conformer: 109.6799016569181 kcal/mol)

>  <smiles>  (56) 
Cc1noc(-c2ccc3cc(C(N)=O)n(C(=O)CC(=O)O)c3c2)c1C

>  <score_type>  (56) 
oracle

>  <origin>  (56) 
adg

>  <m_score__min__energy>  (56) 
-12.73

>  <m_primary>  (56) 
energy

$$$$
56:0
     RDKit          3D

 36 38  0  0  0  0  0  0  0  0999 V2000
   -4.5580   15.6480  -34.5020 C   0  0  0  0  0  0  0  0  0  0  0  0
   -5.5760   16.5930  -33.9600 C   0  0  0  0  0  0  0  0  0  0  0  0
   -6.8330   16.2310  -33.6410 N   0  0  0  0  0  0  0  0  0  0  0  0
   -7.3740   17.3060  -33.1570 O   0  0  0  0  0  0  0  0  0  0  0  0
   -6.5000   18.2840  -33.1620 C   0  0  0  0  0  0  0  0  0  0  0  0
   -6.7790   19.6500  -32.6770 C   0  0  0  0  0  0  0  0  0  0  0  0
   -8.1060   20.1430  -32.6740 C   0  0  0  0  0  0  0  0  0  0  0  0
   -8.3880   21.4450  -32.2300 C   0  0  0  0  0  0  0  0  0  0  0  0
   -7.3260   22.2260  -31.7840 C   0  0  0  0  0  0  0  0  0  0  0  0
   -7.3140   23.5270  -31.3340 C   0  0  0  0  0  0  0  0  0  0  0  0
   -5.9810   23.8000  -31.0400 C   0  0  0  0  0  0  0  0  0  0  0  0
   -5.5230   25.0830  -30.4680 C   0  0  0  0  0  0  0  0  0  0  0  0
   -4.1750   25.5250  -30.6310 N   0  0  0  0  0  0  0  0  0  0  0  0
   -6.3200   25.7710  -29.7770 O   0  0  0  0  0  0  0  0  0  0  0  0
   -5.1960   22.7180  -31.3050 N   0  0  0  0  0  0  0  0  0  0  0  0
   -3.7620   22.6510  -31.2470 C   0  0  0  0  0  0  0  0  0  0  0  0
   -3.1020   22.3530  -32.2790 O   0  0  0  0  0  0  0  0  0  0  0  0
   -3.1030   22.9180  -30.0400 O   0  0  0  0  0  0  0  0  0  0  0  0
   -1.6860   23.0210  -29.9270 C   0  0  0  0  0  0  0  0  0  0  0  0
   -1.3060   24.3350  -29.3240 C   0  0  0  0  0  0  0  0  0  0  0  0
   -2.1180   25.2980  -29.3350 O   0  0  0  0  0  0  0  0  0  0  0  0
   -0.0630   24.4890  -28.7260 O   0  0  0  0  0  0  0  0  0  0  0  0
   -6.0360   21.7610  -31.7590 C   0  0  0  0  0  0  0  0  0  0  0  0
   -5.7250   20.4740  -32.2180 C   0  0  0  0  0  0  0  0  0  0  0  0
   -5.3140   17.8820  -33.6630 N   0  0  0  0  0  0  0  0  0  0  0  0
   -4.0314   15.1591  -33.6691 H   0  0  0  0  0  0  0  0  0  0  0  0
   -5.0568   14.8856  -35.1184 H   0  0  0  0  0  0  0  0  0  0  0  0
   -3.8348   16.2021  -35.1184 H   0  0  0  0  0  0  0  0  0  0  0  0
   -8.9260   19.4985  -33.0236 H   0  0  0  0  0  0  0  0  0  0  0  0
   -9.4164   21.8355  -32.2346 H   0  0  0  0  0  0  0  0  0  0  0  0
   -8.1735   24.2054  -31.2292 H   0  0  0  0  0  0  0  0  0  0  0  0
   -3.4490   24.9040  -31.0520 H   0  0  0  0  0  0  0  0  0  0  0  0
   -3.8800   26.4540  -30.2540 H   0  0  0  0  0  0  0  0  0  0  0  0
   -1.3132   22.2073  -29.2875 H   0  0  0  0  0  0  0  0  0  0  0  0
   -1.2415   22.9467  -30.9304 H   0  0  0  0  0  0  0  0  0  0  0  0
   -4.6859   20.1132  -32.2212 H   0  0  0  0  0  0  0  0  0  0  0  0
  1  2  1  0
  2  3  2  0
  3  4  1  0
  4  5  1  0
  5  6  1  0
  6  7  2  0
  7  8  1  0
  8  9  2  0
  9 10  1  0
 10 11  2  0
 11 12  1  0
 12 13  1  0
 12 14  2  0
 11 15  1  0
 15 16  1  0
 16 17  2  0
 16 18  1  0
 18 19  1  0
 19 20  1  0
 20 21  2  0
 20 22  1  0
 15 23  1  0
 23 24  2  0
  5 25  2  0
 25  2  1  0
 24  6  1  0
 23  9  1  0
  1 26  1  0
  1 27  1  0
  1 28  1  0
  7 29  1  0
  8 30  1  0
 10 31  1  0
 13 32  1  0
 13 33  1  0
 19 34  1  0
 19 35  1  0
 24 36  1  0
M  CHG  1  22  -1
M  END
>  <UniqueID>  (57) 
57

>  <SMILES>  (57) 
Cc1noc(-c2ccc3cc(C(N)=O)n(C(=O)OCC(=O)[O-])c3c2)n1

>  <Energy>  (57) 
106.96177487849752

>  <Genealogy>  (57) 
Cc1noc(-c2ccc3cc(C(N)=O)n(C(=O)OCC(=O)[O-])c3c2)n1 (protonated)
Cc1noc(-c2ccc3cc(C(N)=O)n(C(=O)OCC(=O)[O-])c3c2)n1 (3D coordinates assigned)
Cc1noc(-c2ccc3cc(C(N)=O)n(C(=O)OCC(=O)[O-])c3c2)n1 (optimized conformer: 106.96177487849752 kcal/mol)

>  <smiles>  (57) 
Cc1noc(-c2ccc3cc(C(N)=O)n(C(=O)OCC(=O)O)c3c2)n1

>  <score_type>  (57) 
oracle

>  <origin>  (57) 
adg

>  <m_score__min__energy>  (57) 
-11.710000000000001

>  <m_primary>  (57) 
energy

$$$$
57:0
     RDKit          3D

 42 43  0  0  0  0  0  0  0  0999 V2000
   -1.5280   25.0510  -26.0980 C   0  0  0  0  0  0  0  0  0  0  0  0
   -2.4340   24.5410  -27.1290 N   0  0  0  0  0  0  0  0  0  0  0  0
   -3.8750   24.5240  -26.8690 C   0  0  0  0  0  0  0  0  0  0  0  0
   -1.8830   24.0230  -28.3570 C   0  0  0  0  0  0  0  0  0  0  0  0
   -0.7070   24.3380  -28.6910 O   0  0  0  0  0  0  0  0  0  0  0  0
   -2.6530   23.1730  -29.2280 N   0  0  0  0  0  0  0  0  0  0  0  0
   -2.7840   21.7570  -28.8720 C   0  0  0  0  0  0  0  0  0  0  0  0
   -3.4390   23.6960  -30.3240 C   0  0  0  0  0  0  0  0  0  0  0  0
   -3.4860   24.9430  -30.5080 O   0  0  0  0  0  0  0  0  0  0  0  0
   -4.1610   22.8210  -31.2790 C   0  0  0  0  0  0  0  0  0  0  0  0
   -3.5220   22.1770  -32.1540 O   0  0  0  0  0  0  0  0  0  0  0  0
   -5.5970   22.7400  -31.2590 N   0  0  0  0  0  0  0  0  0  0  0  0
   -6.4720   23.7420  -30.9520 C   0  0  0  0  0  0  0  0  0  0  0  0
   -6.0970   25.0660  -30.4020 C   0  0  0  0  0  0  0  0  0  0  0  0
   -6.1190   25.3090  -28.9940 N   0  0  0  0  0  0  0  0  0  0  0  0
   -5.7330   25.9910  -31.1760 O   0  0  0  0  0  0  0  0  0  0  0  0
   -7.7860   23.3200  -31.1490 C   0  0  0  0  0  0  0  0  0  0  0  0
   -7.6900   22.0240  -31.5980 C   0  0  0  0  0  0  0  0  0  0  0  0
   -8.6890   21.1270  -31.9620 C   0  0  0  0  0  0  0  0  0  0  0  0
   -8.3030   19.8560  -32.4170 C   0  0  0  0  0  0  0  0  0  0  0  0
   -6.9300   19.5100  -32.5220 C   0  0  0  0  0  0  0  0  0  0  0  0
   -6.5170   18.1330  -32.9760 C   0  0  0  0  0  0  0  0  0  0  0  0
   -7.5760   17.2620  -32.8100 F   0  0  0  0  0  0  0  0  0  0  0  0
   -5.4410   17.6830  -32.2300 F   0  0  0  0  0  0  0  0  0  0  0  0
   -6.1440   18.1420  -34.3100 F   0  0  0  0  0  0  0  0  0  0  0  0
   -5.9470   20.4420  -32.1230 C   0  0  0  0  0  0  0  0  0  0  0  0
   -6.3600   21.6970  -31.6590 C   0  0  0  0  0  0  0  0  0  0  0  0
   -1.9375   24.8205  -25.1034 H   0  0  0  0  0  0  0  0  0  0  0  0
   -0.5424   24.5752  -26.2080 H   0  0  0  0  0  0  0  0  0  0  0  0
   -1.4235   26.1405  -26.2080 H   0  0  0  0  0  0  0  0  0  0  0  0
   -4.0517   24.5219  -25.7833 H   0  0  0  0  0  0  0  0  0  0  0  0
   -4.3385   25.4167  -27.3142 H   0  0  0  0  0  0  0  0  0  0  0  0
   -4.3173   23.6206  -27.3142 H   0  0  0  0  0  0  0  0  0  0  0  0
   -2.7936   21.6536  -27.7769 H   0  0  0  0  0  0  0  0  0  0  0  0
   -3.7227   21.3602  -29.2860 H   0  0  0  0  0  0  0  0  0  0  0  0
   -1.9340   21.1947  -29.2860 H   0  0  0  0  0  0  0  0  0  0  0  0
   -5.8130   26.2330  -28.6190 H   0  0  0  0  0  0  0  0  0  0  0  0
   -6.4740   24.5930  -28.3220 H   0  0  0  0  0  0  0  0  0  0  0  0
   -8.7049   23.9008  -30.9809 H   0  0  0  0  0  0  0  0  0  0  0  0
   -9.7511   21.4055  -31.8953 H   0  0  0  0  0  0  0  0  0  0  0  0
   -9.0724   19.1206  -32.6950 H   0  0  0  0  0  0  0  0  0  0  0  0
   -4.8782   20.1872  -32.1756 H   0  0  0  0  0  0  0  0  0  0  0  0
  1  2  1  0
  2  3  1  0
  2  4  1  0
  4  5  2  0
  4  6  1  0
  6  7  1  0
  6  8  1  0
  8  9  2  0
  8 10  1  0
 10 11  2  0
 10 12  1  0
 12 13  1  0
 13 14  1  0
 14 15  1  0
 14 16  2  0
 13 17  2  0
 17 18  1  0
 18 19  2  0
 19 20  1  0
 20 21  2  0
 21 22  1  0
 22 23  1  0
 22 24  1  0
 22 25  1  0
 21 26  1  0
 26 27  2  0
 27 12  1  0
 27 18  1  0
  1 28  1  0
  1 29  1  0
  1 30  1  0
  3 31  1  0
  3 32  1  0
  3 33  1  0
  7 34  1  0
  7 35  1  0
  7 36  1  0
 15 37  1  0
 15 38  1  0
 17 39  1  0
 19 40  1  0
 20 41  1  0
 26 42  1  0
M  END
>  <UniqueID>  (58) 
58

>  <SMILES>  (58) 
CN(C)C(=O)N(C)C(=O)C(=O)n1c(C(N)=O)cc2ccc(C(F)(F)F)cc21

>  <Energy>  (58) 
85.68007825134163

>  <Genealogy>  (58) 
CN(C)C(=O)N(C)C(=O)C(=O)n1c(C(N)=O)cc2ccc(C(F)(F)F)cc21 (3D coordinates assigned)
CN(C)C(=O)N(C)C(=O)C(=O)n1c(C(N)=O)cc2ccc(C(F)(F)F)cc21 (optimized conformer: 85.68007825134163 kcal/mol)

>  <smiles>  (58) 
CN(C)C(=O)N(C)C(=O)C(=O)n1c(C(N)=O)cc2ccc(C(F)(F)F)cc21

>  <score_type>  (58) 
oracle

>  <origin>  (58) 
adg

>  <m_score__min__energy>  (58) 
-9.0899999999999999

>  <m_primary>  (58) 
energy

$$$$
58:0
     RDKit          3D

 56 57  0  0  0  0  0  0  0  0999 V2000
   -3.4190   19.2910  -34.1340 C   0  0  0  0  0  0  0  0  0  0  0  0
   -4.4740   18.2710  -33.9940 N   0  0  0  0  0  0  0  0  0  0  0  0
   -4.6130   17.5330  -35.2630 C   0  0  0  0  0  0  0  0  0  0  0  0
   -4.1390   17.3580  -32.8740 C   0  0  0  0  0  0  0  0  0  0  0  0
   -5.2710   16.3470  -32.6100 C   0  0  0  0  0  0  0  0  0  0  0  0
   -6.4620   16.9810  -31.8690 C   0  0  0  0  0  0  0  0  0  0  0  0
   -7.5080   17.5690  -32.8260 C   0  0  0  0  0  0  0  0  0  0  0  0
   -7.0300   18.8310  -33.3910 N   0  0  0  0  0  0  0  0  0  0  0  0
   -7.1000   20.1120  -32.7300 C   0  0  0  0  0  0  0  0  0  0  0  0
   -8.3360   20.6730  -32.3110 C   0  0  0  0  0  0  0  0  0  0  0  0
   -8.3780   21.9280  -31.6840 C   0  0  0  0  0  0  0  0  0  0  0  0
   -7.1770   22.5910  -31.4670 C   0  0  0  0  0  0  0  0  0  0  0  0
   -6.9370   23.8150  -30.8990 C   0  0  0  0  0  0  0  0  0  0  0  0
   -5.5550   23.9990  -30.9590 C   0  0  0  0  0  0  0  0  0  0  0  0
   -4.8980   25.2190  -30.4420 C   0  0  0  0  0  0  0  0  0  0  0  0
   -3.4850   25.2900  -30.2360 N   0  0  0  0  0  0  0  0  0  0  0  0
   -5.5980   26.2530  -30.2270 O   0  0  0  0  0  0  0  0  0  0  0  0
   -4.9570   22.9120  -31.5390 N   0  0  0  0  0  0  0  0  0  0  0  0
   -3.5490   22.6650  -31.7540 C   0  0  0  0  0  0  0  0  0  0  0  0
   -3.1420   22.3070  -32.8910 O   0  0  0  0  0  0  0  0  0  0  0  0
   -2.5720   22.7170  -30.6090 C   0  0  0  0  0  0  0  0  0  0  0  0
   -2.6050   21.4860  -29.7290 C   0  0  0  0  0  0  0  0  0  0  0  0
   -2.0410   20.4470  -30.1580 O   0  0  0  0  0  0  0  0  0  0  0  0
   -3.1070   21.5220  -28.3660 N   0  0  0  0  0  0  0  0  0  0  0  0
   -3.7750   22.7080  -27.8230 C   0  0  0  0  0  0  0  0  0  0  0  0
   -2.9600   20.3280  -27.5250 C   0  0  0  0  0  0  0  0  0  0  0  0
   -5.9670   22.0620  -31.8450 C   0  0  0  0  0  0  0  0  0  0  0  0
   -5.9090   20.8370  -32.5160 C   0  0  0  0  0  0  0  0  0  0  0  0
   -3.0858   19.6132  -33.1364 H   0  0  0  0  0  0  0  0  0  0  0  0
   -2.5677   18.8648  -34.6850 H   0  0  0  0  0  0  0  0  0  0  0  0
   -3.8163   20.1562  -34.6850 H   0  0  0  0  0  0  0  0  0  0  0  0
   -4.8128   16.4724  -35.0504 H   0  0  0  0  0  0  0  0  0  0  0  0
   -5.4476   17.9543  -35.8426 H   0  0  0  0  0  0  0  0  0  0  0  0
   -3.6823   17.6218  -35.8426 H   0  0  0  0  0  0  0  0  0  0  0  0
   -3.2199   16.8078  -33.1243 H   0  0  0  0  0  0  0  0  0  0  0  0
   -3.9990   17.9632  -31.9662 H   0  0  0  0  0  0  0  0  0  0  0  0
   -5.6242   15.9522  -33.5741 H   0  0  0  0  0  0  0  0  0  0  0  0
   -4.8655   15.5480  -31.9719 H   0  0  0  0  0  0  0  0  0  0  0  0
   -6.9442   16.2088  -31.2516 H   0  0  0  0  0  0  0  0  0  0  0  0
   -6.0713   17.8060  -31.2553 H   0  0  0  0  0  0  0  0  0  0  0  0
   -7.6954   16.8548  -33.6413 H   0  0  0  0  0  0  0  0  0  0  0  0
   -8.4368   17.7572  -32.2675 H   0  0  0  0  0  0  0  0  0  0  0  0
   -6.6000   18.7920  -34.3430 H   0  0  0  0  0  0  0  0  0  0  0  0
   -9.2704   20.1177  -32.4798 H   0  0  0  0  0  0  0  0  0  0  0  0
   -9.3345   22.3736  -31.3734 H   0  0  0  0  0  0  0  0  0  0  0  0
   -7.6809   24.5096  -30.4816 H   0  0  0  0  0  0  0  0  0  0  0  0
   -3.0980   25.6820  -29.3460 H   0  0  0  0  0  0  0  0  0  0  0  0
   -1.5578   22.8226  -31.0216 H   0  0  0  0  0  0  0  0  0  0  0  0
   -2.8581   23.5721  -29.9790 H   0  0  0  0  0  0  0  0  0  0  0  0
   -3.7536   22.6699  -26.7239 H   0  0  0  0  0  0  0  0  0  0  0  0
   -3.2539   23.6129  -28.1688 H   0  0  0  0  0  0  0  0  0  0  0  0
   -4.8190   22.7314  -28.1688 H   0  0  0  0  0  0  0  0  0  0  0  0
   -2.9959   20.6195  -26.4649 H   0  0  0  0  0  0  0  0  0  0  0  0
   -3.7784   19.6251  -27.7399 H   0  0  0  0  0  0  0  0  0  0  0  0
   -1.9956   19.8446  -27.7399 H   0  0  0  0  0  0  0  0  0  0  0  0
   -4.9460   20.4431  -32.8729 H   0  0  0  0  0  0  0  0  0  0  0  0
  1  2  1  0
  2  3  1  0
  2  4  1  0
  4  5  1  0
  5  6  1  0
  6  7  1  0
  7  8  1  0
  8  9  1  0
  9 10  2  0
 10 11  1  0
 11 12  2  0
 12 13  1  0
 13 14  2  0
 14 15  1  0
 15 16  1  0
 15 17  2  0
 14 18  1  0
 18 19  1  0
 19 20  2  0
 19 21  1  0
 21 22  1  0
 22 23  2  0
 22 24  1  0
 24 25  1  0
 24 26  1  0
 18 27  1  0
 27 28  2  0
 28  9  1  0
 27 12  1  0
  1 29  1  0
  1 30  1  0
  1 31  1  0
  3 32  1  0
  3 33  1  0
  3 34  1  0
  4 35  1  0
  4 36  1  0
  5 37  1  0
  5 38  1  0
  6 39  1  0
  6 40  1  0
  7 41  1  0
  7 42  1  0
  8 43  1  0
 10 44  1  0
 11 45  1  0
 13 46  1  0
 16 47  1  0
 21 48  1  0
 21 49  1  0
 25 50  1  0
 25 51  1  0
 25 52  1  0
 26 53  1  0
 26 54  1  0
 26 55  1  0
 28 56  1  0
M  CHG  1  16  -1
M  END
>  <UniqueID>  (59) 
59

>  <SMILES>  (59) 
CN(C)CCCCNc1ccc2cc(C([NH-])=O)n(C(=O)CC(=O)N(C)C)c2c1

>  <Energy>  (59) 
91.79923352525991

>  <Genealogy>  (59) 
CN(C)CCCCNc1ccc2cc(C([NH-])=O)n(C(=O)CC(=O)N(C)C)c2c1 (protonated)
CN(C)CCCCNc1ccc2cc(C([NH-])=O)n(C(=O)CC(=O)N(C)C)c2c1 (3D coordinates assigned)
CN(C)CCCCNc1ccc2cc(C([NH-])=O)n(C(=O)CC(=O)N(C)C)c2c1 (optimized conformer: 91.79923352525991 kcal/mol)

>  <smiles>  (59) 
CN(C)CCCCNc1ccc2cc(C(N)=O)n(C(=O)CC(=O)N(C)C)c2c1

>  <score_type>  (59) 
oracle

>  <origin>  (59) 
adg

>  <m_score__min__energy>  (59) 
-10.890000000000001

>  <m_primary>  (59) 
energy

$$$$
59:0
     RDKit          3D

 42 43  0  0  0  0  0  0  0  0999 V2000
   -4.1850   22.9290  -27.8860 C   0  0  0  0  0  0  0  0  0  0  0  0
   -3.6060   24.2660  -27.6820 N   0  0  0  0  0  0  0  0  0  0  0  0
   -4.2980   24.9360  -26.5670 C   0  0  0  0  0  0  0  0  0  0  0  0
   -2.1590   24.1530  -27.4110 C   0  0  0  0  0  0  0  0  0  0  0  0
   -1.3780   24.2340  -28.6850 C   0  0  0  0  0  0  0  0  0  0  0  0
   -1.1640   25.3570  -29.2170 O   0  0  0  0  0  0  0  0  0  0  0  0
   -0.8680   23.0650  -29.2570 O   0  0  0  0  0  0  0  0  0  0  0  0
   -1.3410   22.5480  -30.4930 C   0  0  0  0  0  0  0  0  0  0  0  0
   -2.7570   22.4190  -30.4330 O   0  0  0  0  0  0  0  0  0  0  0  0
   -3.5700   22.4790  -31.5680 C   0  0  0  0  0  0  0  0  0  0  0  0
   -3.0690   22.3380  -32.7170 O   0  0  0  0  0  0  0  0  0  0  0  0
   -4.9840   22.6810  -31.4230 N   0  0  0  0  0  0  0  0  0  0  0  0
   -5.6240   23.7980  -30.9720 C   0  0  0  0  0  0  0  0  0  0  0  0
   -4.9920   25.1020  -30.6810 C   0  0  0  0  0  0  0  0  0  0  0  0
   -3.5810   25.1810  -30.4930 N   0  0  0  0  0  0  0  0  0  0  0  0
   -5.6900   26.1430  -30.5590 O   0  0  0  0  0  0  0  0  0  0  0  0
   -6.9970   23.5770  -30.8930 C   0  0  0  0  0  0  0  0  0  0  0  0
   -7.1830   22.2830  -31.3200 C   0  0  0  0  0  0  0  0  0  0  0  0
   -8.3530   21.5380  -31.4330 C   0  0  0  0  0  0  0  0  0  0  0  0
   -8.2470   20.2090  -31.8760 C   0  0  0  0  0  0  0  0  0  0  0  0
   -6.9840   19.6490  -32.1890 C   0  0  0  0  0  0  0  0  0  0  0  0
   -6.8910   18.2210  -32.6430 C   0  0  0  0  0  0  0  0  0  0  0  0
   -6.8320   18.1720  -34.0240 F   0  0  0  0  0  0  0  0  0  0  0  0
   -8.0040   17.5230  -32.2090 F   0  0  0  0  0  0  0  0  0  0  0  0
   -5.8160   20.4360  -32.0600 C   0  0  0  0  0  0  0  0  0  0  0  0
   -5.9540   21.7630  -31.6350 C   0  0  0  0  0  0  0  0  0  0  0  0
   -4.3865   22.4638  -26.9098 H   0  0  0  0  0  0  0  0  0  0  0  0
   -5.1249   23.0187  -28.4504 H   0  0  0  0  0  0  0  0  0  0  0  0
   -3.4766   22.3048  -28.4504 H   0  0  0  0  0  0  0  0  0  0  0  0
   -3.9064   24.5568  -25.6116 H   0  0  0  0  0  0  0  0  0  0  0  0
   -4.1274   26.0209  -26.6285 H   0  0  0  0  0  0  0  0  0  0  0  0
   -5.3769   24.7304  -26.6285 H   0  0  0  0  0  0  0  0  0  0  0  0
   -1.8506   24.9723  -26.7449 H   0  0  0  0  0  0  0  0  0  0  0  0
   -1.9617   23.1814  -26.9345 H   0  0  0  0  0  0  0  0  0  0  0  0
   -1.0680   23.2345  -31.3080 H   0  0  0  0  0  0  0  0  0  0  0  0
   -0.8871   21.5638  -30.6808 H   0  0  0  0  0  0  0  0  0  0  0  0
   -3.0890   24.5220  -29.8500 H   0  0  0  0  0  0  0  0  0  0  0  0
   -7.7686   24.2867  -30.5599 H   0  0  0  0  0  0  0  0  0  0  0  0
   -9.3306   21.9762  -31.1832 H   0  0  0  0  0  0  0  0  0  0  0  0
   -9.1547   19.5966  -31.9810 H   0  0  0  0  0  0  0  0  0  0  0  0
   -5.9821   17.7672  -32.2211 H   0  0  0  0  0  0  0  0  0  0  0  0
   -4.8249   20.0165  -32.2876 H   0  0  0  0  0  0  0  0  0  0  0  0
  1  2  1  0
  2  3  1  0
  2  4  1  0
  4  5  1  0
  5  6  2  0
  5  7  1  0
  7  8  1  0
  8  9  1  0
  9 10  1  0
 10 11  2  0
 10 12  1  0
 12 13  1  0
 13 14  1  0
 14 15  1  0
 14 16  2  0
 13 17  2  0
 17 18  1  0
 18 19  2  0
 19 20  1  0
 20 21  2  0
 21 22  1  0
 22 23  1  0
 22 24  1  0
 21 25  1  0
 25 26  2  0
 26 12  1  0
 26 18  1  0
  1 27  1  0
  1 28  1  0
  1 29  1  0
  3 30  1  0
  3 31  1  0
  3 32  1  0
  4 33  1  0
  4 34  1  0
  8 35  1  0
  8 36  1  0
 15 37  1  0
 17 38  1  0
 19 39  1  0
 20 40  1  0
 22 41  1  0
 25 42  1  0
M  CHG  1  15  -1
M  END
>  <UniqueID>  (60) 
60

>  <SMILES>  (60) 
CN(C)CC(=O)OCOC(=O)n1c(C([NH-])=O)cc2ccc(C(F)F)cc21

>  <Energy>  (60) 
75.6224044028184

>  <Genealogy>  (60) 
CN(C)CC(=O)OCOC(=O)n1c(C([NH-])=O)cc2ccc(C(F)F)cc21 (protonated)
CN(C)CC(=O)OCOC(=O)n1c(C([NH-])=O)cc2ccc(C(F)F)cc21 (3D coordinates assigned)
CN(C)CC(=O)OCOC(=O)n1c(C([NH-])=O)cc2ccc(C(F)F)cc21 (optimized conformer: 75.6224044028184 kcal/mol)

>  <smiles>  (60) 
CN(C)CC(=O)OCOC(=O)n1c(C(N)=O)cc2ccc(C(F)F)cc21

>  <score_type>  (60) 
oracle

>  <origin>  (60) 
adg

>  <m_score__min__energy>  (60) 
-9.8699999999999992

>  <m_primary>  (60) 
energy

$$$$
60:0
     RDKit          3D

 40 42  0  0  0  0  0  0  0  0999 V2000
   -2.6460   24.9610  -27.1130 C   0  0  0  0  0  0  0  0  0  0  0  0
   -1.8190   24.5440  -28.3390 C   0  0  2  0  0  0  0  0  0  0  0  0
   -1.6130   25.6440  -29.1880 O   0  0  0  0  0  0  0  0  0  0  0  0
   -2.3420   23.3320  -29.1570 C   0  0  0  0  0  0  0  0  0  0  0  0
   -2.8710   23.6870  -30.4500 O   0  0  0  0  0  0  0  0  0  0  0  0
   -3.5720   22.9080  -31.3880 C   0  0  0  0  0  0  0  0  0  0  0  0
   -2.9720   22.1870  -32.2290 O   0  0  0  0  0  0  0  0  0  0  0  0
   -5.0090   22.9210  -31.3690 N   0  0  0  0  0  0  0  0  0  0  0  0
   -5.8180   23.8440  -30.7750 C   0  0  0  0  0  0  0  0  0  0  0  0
   -5.3670   25.1140  -30.1640 C   0  0  0  0  0  0  0  0  0  0  0  0
   -6.0640   25.6760  -29.0520 N   0  0  0  0  0  0  0  0  0  0  0  0
   -4.3780   25.7300  -30.6430 O   0  0  0  0  0  0  0  0  0  0  0  0
   -7.1550   23.4720  -30.9000 C   0  0  0  0  0  0  0  0  0  0  0  0
   -7.1400   22.2850  -31.5960 C   0  0  0  0  0  0  0  0  0  0  0  0
   -8.1940   21.4610  -31.9780 C   0  0  0  0  0  0  0  0  0  0  0  0
   -7.8850   20.2700  -32.6570 C   0  0  0  0  0  0  0  0  0  0  0  0
   -6.5390   19.9290  -32.9510 C   0  0  0  0  0  0  0  0  0  0  0  0
   -6.2190   18.6180  -33.6240 C   0  0  0  0  0  0  0  0  0  0  0  0
   -6.0810   18.7910  -34.9900 F   0  0  0  0  0  0  0  0  0  0  0  0
   -7.2420   17.7220  -33.3830 F   0  0  0  0  0  0  0  0  0  0  0  0
   -5.0350   18.0950  -33.1320 F   0  0  0  0  0  0  0  0  0  0  0  0
   -5.4960   20.7830  -32.5240 C   0  0  0  0  0  0  0  0  0  0  0  0
   -5.8340   21.9720  -31.8660 C   0  0  0  0  0  0  0  0  0  0  0  0
   -1.7170   21.9480  -28.9890 C   0  0  0  0  0  0  0  0  0  0  0  0
   -3.0970   22.2490  -28.3930 C   0  0  0  0  0  0  0  0  0  0  0  0
   -2.1045   24.6879  -26.1953 H   0  0  0  0  0  0  0  0  0  0  0  0
   -2.8084   26.0488  -27.1330 H   0  0  0  0  0  0  0  0  0  0  0  0
   -3.6172   24.4448  -27.1330 H   0  0  0  0  0  0  0  0  0  0  0  0
   -0.8726   24.1880  -27.9060 H   0  0  0  0  0  0  0  0  0  0  0  0
   -2.3710   25.6740  -29.8280 H   0  0  0  0  0  0  0  0  0  0  0  0
   -6.8550   25.1710  -28.5940 H   0  0  0  0  0  0  0  0  0  0  0  0
   -5.7600   26.5920  -28.6520 H   0  0  0  0  0  0  0  0  0  0  0  0
   -8.0355   24.0125  -30.5225 H   0  0  0  0  0  0  0  0  0  0  0  0
   -9.2363   21.7332  -31.7556 H   0  0  0  0  0  0  0  0  0  0  0  0
   -8.6963   19.5937  -32.9644 H   0  0  0  0  0  0  0  0  0  0  0  0
   -4.4434   20.5194  -32.7045 H   0  0  0  0  0  0  0  0  0  0  0  0
   -1.6260   21.2761  -29.8552 H   0  0  0  0  0  0  0  0  0  0  0  0
   -0.7641   21.5662  -28.5938 H   0  0  0  0  0  0  0  0  0  0  0  0
   -3.9969   21.7925  -28.8310 H   0  0  0  0  0  0  0  0  0  0  0  0
   -3.5457   22.1723  -27.3916 H   0  0  0  0  0  0  0  0  0  0  0  0
  1  2  1  0
  2  3  1  0
  2  4  1  0
  4  5  1  0
  5  6  1  0
  6  7  2  0
  6  8  1  0
  8  9  1  0
  9 10  1  0
 10 11  1  0
 10 12  2  0
  9 13  2  0
 13 14  1  0
 14 15  2  0
 15 16  1  0
 16 17  2  0
 17 18  1  0
 18 19  1  0
 18 20  1  0
 18 21  1  0
 17 22  1  0
 22 23  2  0
  4 24  1  0
 24 25  1  0
 25  4  1  0
 23  8  1  0
 23 14  1  0
  1 26  1  0
  1 27  1  0
  1 28  1  0
  2 29  1  1
  3 30  1  0
 11 31  1  0
 11 32  1  0
 13 33  1  0
 15 34  1  0
 16 35  1  0
 22 36  1  0
 24 37  1  0
 24 38  1  0
 25 39  1  0
 25 40  1  0
M  END
>  <UniqueID>  (61) 
61

>  <SMILES>  (61) 
C[C@H](O)C1(OC(=O)n2c(C(N)=O)cc3ccc(C(F)(F)F)cc32)CC1

>  <Energy>  (61) 
357.26081027662116

>  <Genealogy>  (61) 
C[C@H](O)C1(OC(=O)n2c(C(N)=O)cc3ccc(C(F)(F)F)cc32)CC1 (3D coordinates assigned)
C[C@H](O)C1(OC(=O)n2c(C(N)=O)cc3ccc(C(F)(F)F)cc32)CC1 (nonaromatic ring conformer: 357.26081027662116 kcal/mol)

>  <smiles>  (61) 
C[C@H](O)C1(OC(=O)n2c(C(N)=O)cc3ccc(C(F)(F)F)cc32)CC1

>  <score_type>  (61) 
oracle

>  <origin>  (61) 
adg

>  <m_score__min__energy>  (61) 
-9.6400000000000006

>  <m_primary>  (61) 
energy

$$$$
61:0
     RDKit          3D

 38 39  0  0  0  0  0  0  0  0999 V2000
   -4.0900   25.6780  -30.5760 N   0  0  0  0  0  0  0  0  0  0  0  0
   -5.4370   25.2750  -30.3440 C   0  0  0  0  0  0  0  0  0  0  0  0
   -6.2260   26.0670  -29.7630 O   0  0  0  0  0  0  0  0  0  0  0  0
   -5.9340   23.9690  -30.8250 C   0  0  0  0  0  0  0  0  0  0  0  0
   -7.2720   23.7230  -31.1270 C   0  0  0  0  0  0  0  0  0  0  0  0
   -7.3050   22.4410  -31.6230 C   0  0  0  0  0  0  0  0  0  0  0  0
   -8.3830   21.6800  -32.0710 C   0  0  0  0  0  0  0  0  0  0  0  0
   -8.1270   20.3690  -32.5040 C   0  0  0  0  0  0  0  0  0  0  0  0
   -6.8130   19.8470  -32.4740 C   0  0  0  0  0  0  0  0  0  0  0  0
   -6.5680   18.4990  -32.9100 C   0  0  0  0  0  0  0  0  0  0  0  0
   -6.3640   17.3670  -33.2750 C   0  0  0  0  0  0  0  0  0  0  0  0
   -6.1140   15.9910  -33.7150 C   0  0  0  0  0  0  0  0  0  0  0  0
   -5.2780   15.2260  -32.6860 C   0  0  0  0  0  0  0  0  0  0  0  0
   -5.3170   15.8680  -31.4390 O   0  0  0  0  0  0  0  0  0  0  0  0
   -5.7440   20.6420  -32.0150 C   0  0  0  0  0  0  0  0  0  0  0  0
   -6.0230   21.9510  -31.6060 C   0  0  0  0  0  0  0  0  0  0  0  0
   -5.1700   22.8770  -31.1150 N   0  0  0  0  0  0  0  0  0  0  0  0
   -3.7660   22.6950  -30.8770 C   0  0  0  0  0  0  0  0  0  0  0  0
   -2.9400   22.8940  -31.8090 O   0  0  0  0  0  0  0  0  0  0  0  0
   -3.3210   22.3310  -29.6010 O   0  0  0  0  0  0  0  0  0  0  0  0
   -3.0200   23.2720  -28.5730 C   0  0  0  0  0  0  0  0  0  0  0  0
   -1.4000   24.0420  -28.8720 P   0  0  2  0  0  0  0  0  0  0  0  0
   -0.5820   24.0030  -27.6020 O   0  0  0  0  0  0  0  0  0  0  0  0
   -1.6280   25.6510  -29.3420 O   0  0  0  0  0  0  0  0  0  0  0  0
   -0.5800   23.2130  -30.0980 O   0  0  0  0  0  0  0  0  0  0  0  0
   -3.3220   24.9740  -30.6470 H   0  0  0  0  0  0  0  0  0  0  0  0
   -8.1218   24.4091  -30.9963 H   0  0  0  0  0  0  0  0  0  0  0  0
   -9.4023   22.0933  -32.0850 H   0  0  0  0  0  0  0  0  0  0  0  0
   -8.9547   19.7433  -32.8693 H   0  0  0  0  0  0  0  0  0  0  0  0
   -7.0769   15.4764  -33.8495 H   0  0  0  0  0  0  0  0  0  0  0  0
   -5.5568   16.0234  -34.6629 H   0  0  0  0  0  0  0  0  0  0  0  0
   -5.6792   14.2073  -32.5803 H   0  0  0  0  0  0  0  0  0  0  0  0
   -4.2349   15.1913  -33.0333 H   0  0  0  0  0  0  0  0  0  0  0  0
   -5.6400   15.1990  -30.7800 H   0  0  0  0  0  0  0  0  0  0  0  0
   -4.7188   20.2449  -31.9791 H   0  0  0  0  0  0  0  0  0  0  0  0
   -3.7949   24.0525  -28.5580 H   0  0  0  0  0  0  0  0  0  0  0  0
   -2.9926   22.7476  -27.6064 H   0  0  0  0  0  0  0  0  0  0  0  0
   -1.2580   22.6090  -30.4920 H   0  0  0  0  0  0  0  0  0  0  0  0
  1  2  1  0
  2  3  2  0
  2  4  1  0
  4  5  2  0
  5  6  1  0
  6  7  2  0
  7  8  1  0
  8  9  2  0
  9 10  1  0
 10 11  3  0
 11 12  1  0
 12 13  1  0
 13 14  1  0
  9 15  1  0
 15 16  2  0
 16 17  1  0
 17 18  1  0
 18 19  2  0
 18 20  1  0
 20 21  1  0
 21 22  1  0
 22 23  2  0
 22 24  1  6
 22 25  1  0
 17  4  1  0
 16  6  1  0
  1 26  1  0
  5 27  1  0
  7 28  1  0
  8 29  1  0
 12 30  1  0
 12 31  1  0
 13 32  1  0
 13 33  1  0
 14 34  1  0
 15 35  1  0
 21 36  1  0
 21 37  1  0
 25 38  1  0
M  CHG  2   1  -1  24  -1
M  END
>  <UniqueID>  (62) 
62

>  <SMILES>  (62) 
[NH-]C(=O)c1cc2ccc(C#CCCO)cc2n1C(=O)OC[P@](=O)([O-])O

>  <Energy>  (62) 
64.52813537835084

>  <Genealogy>  (62) 
[NH-]C(=O)c1cc2ccc(C#CCCO)cc2n1C(=O)OCP(=O)([O-])O (protonated)
[NH-]C(=O)c1cc2ccc(C#CCCO)cc2n1C(=O)OC[P@](=O)([O-])O (chirality)
[NH-]C(=O)c1cc2ccc(C#CCCO)cc2n1C(=O)OC[P@](=O)([O-])O (3D coordinates assigned)
[NH-]C(=O)c1cc2ccc(C#CCCO)cc2n1C(=O)OC[P@](=O)([O-])O (optimized conformer: 64.52813537835084 kcal/mol)

>  <smiles>  (62) 
NC(=O)c1cc2ccc(C#CCCO)cc2n1C(=O)OCP(=O)(O)O

>  <score_type>  (62) 
oracle

>  <origin>  (62) 
adg

>  <m_score__min__energy>  (62) 
-12.779999999999999

>  <m_primary>  (62) 
energy

$$$$
62:0
     RDKit          3D

 35 36  0  0  0  0  0  0  0  0999 V2000
   -3.5410   22.1950  -29.3640 C   0  0  0  0  0  0  0  0  0  0  0  0
   -3.1750   22.4720  -30.6140 C   0  0  0  0  0  0  0  0  0  0  0  0
   -4.1430   22.5670  -31.7230 C   0  0  0  0  0  0  0  0  0  0  0  0
   -3.7680   22.4030  -32.9160 O   0  0  0  0  0  0  0  0  0  0  0  0
   -5.5230   22.8530  -31.4480 N   0  0  0  0  0  0  0  0  0  0  0  0
   -6.0500   23.9970  -30.9270 C   0  0  0  0  0  0  0  0  0  0  0  0
   -5.2840   25.1530  -30.4180 C   0  0  0  0  0  0  0  0  0  0  0  0
   -3.8850   25.2740  -30.6660 N   0  0  0  0  0  0  0  0  0  0  0  0
   -5.8640   26.0300  -29.7240 O   0  0  0  0  0  0  0  0  0  0  0  0
   -7.4410   23.9120  -30.8750 C   0  0  0  0  0  0  0  0  0  0  0  0
   -7.7510   22.6710  -31.3840 C   0  0  0  0  0  0  0  0  0  0  0  0
   -8.9890   22.0620  -31.5710 C   0  0  0  0  0  0  0  0  0  0  0  0
   -9.0110   20.7770  -32.1390 C   0  0  0  0  0  0  0  0  0  0  0  0
   -7.8060   20.1320  -32.5210 C   0  0  0  0  0  0  0  0  0  0  0  0
   -7.8430   18.8070  -33.0940 N   0  0  0  0  0  0  0  0  0  0  0  0
   -6.6400   18.0320  -32.7440 C   0  0  0  0  0  0  0  0  0  0  0  0
   -5.6410   17.9520  -33.9050 C   0  0  0  0  0  0  0  0  0  0  0  0
   -5.9470   18.9370  -34.8510 O   0  0  0  0  0  0  0  0  0  0  0  0
   -6.5700   20.7860  -32.3170 C   0  0  0  0  0  0  0  0  0  0  0  0
   -6.5770   22.0530  -31.7250 C   0  0  0  0  0  0  0  0  0  0  0  0
   -2.7827   22.1345  -28.5695 H   0  0  0  0  0  0  0  0  0  0  0  0
   -4.6017   22.0267  -29.1260 H   0  0  0  0  0  0  0  0  0  0  0  0
   -2.1086   22.6365  -30.8281 H   0  0  0  0  0  0  0  0  0  0  0  0
   -3.5090   26.0530  -31.2510 H   0  0  0  0  0  0  0  0  0  0  0  0
   -8.1420   24.6749  -30.5055 H   0  0  0  0  0  0  0  0  0  0  0  0
   -9.9207   22.5709  -31.2831 H   0  0  0  0  0  0  0  0  0  0  0  0
   -9.9730   20.2652  -32.2893 H   0  0  0  0  0  0  0  0  0  0  0  0
   -8.6830   18.3030  -32.7260 H   0  0  0  0  0  0  0  0  0  0  0  0
   -7.9480   18.8570  -34.1360 H   0  0  0  0  0  0  0  0  0  0  0  0
   -6.1472   18.5121  -31.8857 H   0  0  0  0  0  0  0  0  0  0  0  0
   -6.9583   17.0071  -32.5027 H   0  0  0  0  0  0  0  0  0  0  0  0
   -4.6218   18.1134  -33.5238 H   0  0  0  0  0  0  0  0  0  0  0  0
   -5.7031   16.9595  -34.3751 H   0  0  0  0  0  0  0  0  0  0  0  0
   -6.5270   18.5000  -35.5270 H   0  0  0  0  0  0  0  0  0  0  0  0
   -5.6248   20.3098  -32.6167 H   0  0  0  0  0  0  0  0  0  0  0  0
  1  2  2  0
  2  3  1  0
  3  4  2  0
  3  5  1  0
  5  6  1  0
  6  7  1  0
  7  8  1  0
  7  9  2  0
  6 10  2  0
 10 11  1  0
 11 12  2  0
 12 13  1  0
 13 14  2  0
 14 15  1  0
 15 16  1  0
 16 17  1  0
 17 18  1  0
 14 19  1  0
 19 20  2  0
 20  5  1  0
 20 11  1  0
  1 21  1  0
  1 22  1  0
  2 23  1  0
  8 24  1  0
 10 25  1  0
 12 26  1  0
 13 27  1  0
 15 28  1  0
 15 29  1  0
 16 30  1  0
 16 31  1  0
 17 32  1  0
 17 33  1  0
 18 34  1  0
 19 35  1  0
M  CHG  2   8  -1  15   1
M  END
>  <UniqueID>  (63) 
63

>  <SMILES>  (63) 
C=CC(=O)n1c(C([NH-])=O)cc2ccc([NH2+]CCO)cc21

>  <Energy>  (63) 
72.0447992808214

>  <Genealogy>  (63) 
C=CC(=O)n1c(C([NH-])=O)cc2ccc([NH2+]CCO)cc21 (protonated)
C=CC(=O)n1c(C([NH-])=O)cc2ccc([NH2+]CCO)cc21 (3D coordinates assigned)
C=CC(=O)n1c(C([NH-])=O)cc2ccc([NH2+]CCO)cc21 (optimized conformer: 72.0447992808214 kcal/mol)

>  <smiles>  (63) 
C=CC(=O)n1c(C(N)=O)cc2ccc(NCCO)cc21

>  <score_type>  (63) 
oracle

>  <origin>  (63) 
adg

>  <m_score__min__energy>  (63) 
-9.4000000000000004

>  <m_primary>  (63) 
energy

$$$$
63:0
     RDKit          3D

 39 41  0  0  0  0  0  0  0  0999 V2000
   -8.7820   20.1990  -31.6450 C   0  0  0  0  0  0  0  0  0  0  0  0
   -8.6850   18.6830  -31.7610 C   0  0  0  0  0  0  0  0  0  0  0  0
   -8.3230   18.3020  -33.0860 O   0  0  0  0  0  0  0  0  0  0  0  0
   -7.1160   17.6690  -33.4070 C   0  0  0  0  0  0  0  0  0  0  0  0
   -7.1200   16.5140  -33.9140 O   0  0  0  0  0  0  0  0  0  0  0  0
   -5.8310   18.3390  -33.1470 C   0  0  0  0  0  0  0  0  0  0  0  0
   -5.4780   19.2070  -31.7490 S   0  0  0  0  0  0  0  0  0  0  0  0
   -3.9160   19.6040  -32.2380 C   0  0  0  0  0  0  0  0  0  0  0  0
   -2.9430   20.4080  -31.4630 C   0  0  0  0  0  0  0  0  0  0  0  0
   -1.6360   19.9160  -31.2050 C   0  0  0  0  0  0  0  0  0  0  0  0
   -0.7160   20.6730  -30.4610 C   0  0  0  0  0  0  0  0  0  0  0  0
   -1.1230   21.9190  -29.9940 C   0  0  0  0  0  0  0  0  0  0  0  0
   -0.4450   22.8410  -29.2290 C   0  0  0  0  0  0  0  0  0  0  0  0
   -1.3340   23.8970  -29.0510 C   0  0  0  0  0  0  0  0  0  0  0  0
   -0.9760   25.1490  -28.3510 C   0  0  0  0  0  0  0  0  0  0  0  0
   -1.1440   26.4170  -28.9810 N   0  0  0  0  0  0  0  0  0  0  0  0
   -0.4690   25.0960  -27.1990 O   0  0  0  0  0  0  0  0  0  0  0  0
   -2.5200   23.6360  -29.6720 N   0  0  0  0  0  0  0  0  0  0  0  0
   -3.7190   24.4270  -29.6550 C   0  0  0  0  0  0  0  0  0  0  0  0
   -3.8600   25.3840  -30.4610 O   0  0  0  0  0  0  0  0  0  0  0  0
   -4.7230   24.1600  -28.7330 O   0  0  0  0  0  0  0  0  0  0  0  0
   -2.3720   22.4210  -30.2480 C   0  0  0  0  0  0  0  0  0  0  0  0
   -3.3150   21.6800  -30.9700 C   0  0  0  0  0  0  0  0  0  0  0  0
   -3.6500   19.0850  -33.4580 N   0  0  0  0  0  0  0  0  0  0  0  0
   -4.6990   18.3840  -33.9710 C   0  0  0  0  0  0  0  0  0  0  0  0
   -4.6000   17.7290  -35.3140 C   0  0  0  0  0  0  0  0  0  0  0  0
   -8.8003   20.4850  -30.5830 H   0  0  0  0  0  0  0  0  0  0  0  0
   -7.9116   20.6606  -32.1341 H   0  0  0  0  0  0  0  0  0  0  0  0
   -9.7042   20.5459  -32.1341 H   0  0  0  0  0  0  0  0  0  0  0  0
   -7.9229   18.3150  -31.0583 H   0  0  0  0  0  0  0  0  0  0  0  0
   -9.6660   18.2462  -31.5226 H   0  0  0  0  0  0  0  0  0  0  0  0
   -1.3405   18.9299  -31.5926 H   0  0  0  0  0  0  0  0  0  0  0  0
    0.2951   20.2925  -30.2539 H   0  0  0  0  0  0  0  0  0  0  0  0
    0.5811   22.7603  -28.8409 H   0  0  0  0  0  0  0  0  0  0  0  0
   -0.8650   26.5630  -29.9750 H   0  0  0  0  0  0  0  0  0  0  0  0
   -4.3242   22.0789  -31.1500 H   0  0  0  0  0  0  0  0  0  0  0  0
   -4.4368   16.6490  -35.1841 H   0  0  0  0  0  0  0  0  0  0  0  0
   -5.5333   17.8942  -35.8722 H   0  0  0  0  0  0  0  0  0  0  0  0
   -3.7572   18.1627  -35.8722 H   0  0  0  0  0  0  0  0  0  0  0  0
  1  2  1  0
  2  3  1  0
  3  4  1  0
  4  5  2  0
  4  6  1  0
  6  7  1  0
  7  8  1  0
  8  9  1  0
  9 10  2  0
 10 11  1  0
 11 12  2  0
 12 13  1  0
 13 14  2  0
 14 15  1  0
 15 16  1  0
 15 17  2  0
 14 18  1  0
 18 19  1  0
 19 20  2  0
 19 21  1  0
 18 22  1  0
 22 23  2  0
  8 24  2  0
 24 25  1  0
 25 26  1  0
 25  6  2  0
 23  9  1  0
 22 12  1  0
  1 27  1  0
  1 28  1  0
  1 29  1  0
  2 30  1  0
  2 31  1  0
 10 32  1  0
 11 33  1  0
 13 34  1  0
 16 35  1  0
 23 36  1  0
 26 37  1  0
 26 38  1  0
 26 39  1  0
M  CHG  2  16  -1  21  -1
M  END
>  <UniqueID>  (64) 
64

>  <SMILES>  (64) 
CCOC(=O)c1sc(-c2ccc3cc(C([NH-])=O)n(C(=O)[O-])c3c2)nc1C

>  <Energy>  (64) 
106.922884783604

>  <Genealogy>  (64) 
CCOC(=O)c1sc(-c2ccc3cc(C([NH-])=O)n(C(=O)[O-])c3c2)nc1C (protonated)
CCOC(=O)c1sc(-c2ccc3cc(C([NH-])=O)n(C(=O)[O-])c3c2)nc1C (3D coordinates assigned)
CCOC(=O)c1sc(-c2ccc3cc(C([NH-])=O)n(C(=O)[O-])c3c2)nc1C (optimized conformer: 106.922884783604 kcal/mol)

>  <smiles>  (64) 
CCOC(=O)c1sc(-c2ccc3cc(C(N)=O)n(C(=O)O)c3c2)nc1C

>  <score_type>  (64) 
oracle

>  <origin>  (64) 
adg

>  <m_score__min__energy>  (64) 
-11.08

>  <m_primary>  (64) 
energy

$$$$
64:0
     RDKit          3D

 39 40  0  0  0  0  0  0  0  0999 V2000
   -6.5310   17.0710  -33.9350 C   0  0  0  0  0  0  0  0  0  0  0  0
   -6.6920   18.1430  -33.4090 C   0  0  0  0  0  0  0  0  0  0  0  0
   -6.8840   19.4240  -32.7810 C   0  0  0  0  0  0  0  0  0  0  0  0
   -8.1920   19.9260  -32.5900 C   0  0  0  0  0  0  0  0  0  0  0  0
   -8.3920   21.1830  -31.9950 C   0  0  0  0  0  0  0  0  0  0  0  0
   -7.2680   21.9000  -31.5930 C   0  0  0  0  0  0  0  0  0  0  0  0
   -7.1720   23.1560  -31.0360 C   0  0  0  0  0  0  0  0  0  0  0  0
   -5.8080   23.3800  -30.8670 C   0  0  0  0  0  0  0  0  0  0  0  0
   -5.2500   24.6080  -30.2670 C   0  0  0  0  0  0  0  0  0  0  0  0
   -5.8030   25.1700  -29.0750 N   0  0  0  0  0  0  0  0  0  0  0  0
   -4.2980   25.2000  -30.8420 O   0  0  0  0  0  0  0  0  0  0  0  0
   -5.0870   22.3090  -31.3070 N   0  0  0  0  0  0  0  0  0  0  0  0
   -3.6590   22.2040  -31.4140 C   0  0  0  0  0  0  0  0  0  0  0  0
   -3.1550   21.5170  -32.3430 O   0  0  0  0  0  0  0  0  0  0  0  0
   -2.8170   22.9000  -30.4820 N   0  0  0  0  0  0  0  0  0  0  0  0
   -1.3930   22.7470  -30.4130 C   0  0  0  0  0  0  0  0  0  0  0  0
   -0.7960   21.9310  -31.1690 O   0  0  0  0  0  0  0  0  0  0  0  0
   -0.6730   23.5110  -29.4910 O   0  0  0  0  0  0  0  0  0  0  0  0
   -0.9950   23.5470  -28.1040 C   0  0  0  0  0  0  0  0  0  0  0  0
   -1.7260   24.8450  -27.7760 C   0  0  0  0  0  0  0  0  0  0  0  0
   -3.0860   24.7430  -28.1590 O   0  0  0  0  0  0  0  0  0  0  0  0
   -3.8470   24.1440  -27.1340 C   0  0  0  0  0  0  0  0  0  0  0  0
   -5.9960   21.4140  -31.7520 C   0  0  0  0  0  0  0  0  0  0  0  0
   -5.7660   20.1770  -32.3670 C   0  0  0  0  0  0  0  0  0  0  0  0
   -6.3840   16.0923  -34.4152 H   0  0  0  0  0  0  0  0  0  0  0  0
   -9.0586   19.3285  -32.9093 H   0  0  0  0  0  0  0  0  0  0  0  0
   -9.4046   21.5880  -31.8513 H   0  0  0  0  0  0  0  0  0  0  0  0
   -7.9969   23.8370  -30.7794 H   0  0  0  0  0  0  0  0  0  0  0  0
   -6.7020   24.8180  -28.6780 H   0  0  0  0  0  0  0  0  0  0  0  0
   -5.3620   26.0100  -28.6400 H   0  0  0  0  0  0  0  0  0  0  0  0
   -3.2620   23.5760  -29.8220 H   0  0  0  0  0  0  0  0  0  0  0  0
   -1.6411   22.6917  -27.8569 H   0  0  0  0  0  0  0  0  0  0  0  0
   -0.0677   23.4939  -27.5147 H   0  0  0  0  0  0  0  0  0  0  0  0
   -1.6651   25.0345  -26.6942 H   0  0  0  0  0  0  0  0  0  0  0  0
   -1.2563   25.6738  -28.3259 H   0  0  0  0  0  0  0  0  0  0  0  0
   -3.4525   24.4545  -26.1552 H   0  0  0  0  0  0  0  0  0  0  0  0
   -4.8966   24.4609  -27.2236 H   0  0  0  0  0  0  0  0  0  0  0  0
   -3.7855   23.0494  -27.2236 H   0  0  0  0  0  0  0  0  0  0  0  0
   -4.7430   19.8037  -32.5226 H   0  0  0  0  0  0  0  0  0  0  0  0
  1  2  3  0
  2  3  1  0
  3  4  2  0
  4  5  1  0
  5  6  2  0
  6  7  1  0
  7  8  2  0
  8  9  1  0
  9 10  1  0
  9 11  2  0
  8 12  1  0
 12 13  1  0
 13 14  2  0
 13 15  1  0
 15 16  1  0
 16 17  2  0
 16 18  1  0
 18 19  1  0
 19 20  1  0
 20 21  1  0
 21 22  1  0
 12 23  1  0
 23 24  2  0
 24  3  1  0
 23  6  1  0
  1 25  1  0
  4 26  1  0
  5 27  1  0
  7 28  1  0
 10 29  1  0
 10 30  1  0
 15 31  1  0
 19 32  1  0
 19 33  1  0
 20 34  1  0
 20 35  1  0
 22 36  1  0
 22 37  1  0
 22 38  1  0
 24 39  1  0
M  END
>  <UniqueID>  (65) 
65

>  <SMILES>  (65) 
C#Cc1ccc2cc(C(N)=O)n(C(=O)NC(=O)OCCOC)c2c1

>  <Energy>  (65) 
75.09554128232195

>  <Genealogy>  (65) 
C#Cc1ccc2cc(C(N)=O)n(C(=O)NC(=O)OCCOC)c2c1 (3D coordinates assigned)
C#Cc1ccc2cc(C(N)=O)n(C(=O)NC(=O)OCCOC)c2c1 (optimized conformer: 75.09554128232195 kcal/mol)

>  <smiles>  (65) 
C#Cc1ccc2cc(C(N)=O)n(C(=O)NC(=O)OCCOC)c2c1

>  <score_type>  (65) 
oracle

>  <origin>  (65) 
adg

>  <m_score__min__energy>  (65) 
-8.4000000000000004

>  <m_primary>  (65) 
energy

$$$$
65:0
     RDKit          3D

 31 33  0  0  0  0  0  0  0  0999 V2000
   -5.3710   18.1610  -35.3370 N   0  0  0  0  0  0  0  0  0  0  0  0
   -5.8950   18.2890  -34.3130 C   0  0  0  0  0  0  0  0  0  0  0  0
   -6.5600   18.4530  -33.0140 C   0  0  0  0  0  0  0  0  0  0  0  0
   -6.7780   19.8450  -32.4880 C   0  0  0  0  0  0  0  0  0  0  0  0
   -8.0880   20.3810  -32.4220 C   0  0  0  0  0  0  0  0  0  0  0  0
   -8.3020   21.6910  -31.9580 C   0  0  0  0  0  0  0  0  0  0  0  0
   -7.1900   22.4410  -31.5880 C   0  0  0  0  0  0  0  0  0  0  0  0
   -7.1070   23.7260  -31.1010 C   0  0  0  0  0  0  0  0  0  0  0  0
   -5.7460   23.9630  -30.9110 C   0  0  0  0  0  0  0  0  0  0  0  0
   -5.1950   25.2620  -30.4720 C   0  0  0  0  0  0  0  0  0  0  0  0
   -3.8830   25.6680  -30.8520 N   0  0  0  0  0  0  0  0  0  0  0  0
   -5.9070   26.0410  -29.7830 O   0  0  0  0  0  0  0  0  0  0  0  0
   -5.0200   22.8630  -31.2560 N   0  0  0  0  0  0  0  0  0  0  0  0
   -3.6010   22.6660  -31.1550 C   0  0  0  0  0  0  0  0  0  0  0  0
   -2.9490   22.2970  -32.1680 O   0  0  0  0  0  0  0  0  0  0  0  0
   -2.9040   22.8370  -29.8740 C   0  0  0  0  0  0  0  0  0  0  0  0
   -1.9240   23.6220  -29.7770 O   0  0  0  0  0  0  0  0  0  0  0  0
   -5.9160   21.9440  -31.6740 C   0  0  0  0  0  0  0  0  0  0  0  0
   -5.6720   20.6420  -32.1210 C   0  0  0  0  0  0  0  0  0  0  0  0
   -7.6270   17.4170  -32.6820 C   0  0  0  0  0  0  0  0  0  0  0  0
   -6.2750   17.3670  -31.9840 C   0  0  0  0  0  0  0  0  0  0  0  0
   -8.9449   19.7671  -32.7364 H   0  0  0  0  0  0  0  0  0  0  0  0
   -9.3169   22.1098  -31.8897 H   0  0  0  0  0  0  0  0  0  0  0  0
   -7.9382   24.4190  -30.9036 H   0  0  0  0  0  0  0  0  0  0  0  0
   -3.0410   25.2910  -30.3610 H   0  0  0  0  0  0  0  0  0  0  0  0
   -3.2409   22.2743  -28.9909 H   0  0  0  0  0  0  0  0  0  0  0  0
   -4.6465   20.2494  -32.1850 H   0  0  0  0  0  0  0  0  0  0  0  0
   -8.5252   17.7132  -32.1204 H   0  0  0  0  0  0  0  0  0  0  0  0
   -8.2273   16.7042  -33.2664 H   0  0  0  0  0  0  0  0  0  0  0  0
   -6.1965   17.6271  -30.9181 H   0  0  0  0  0  0  0  0  0  0  0  0
   -5.4941   16.6030  -31.8553 H   0  0  0  0  0  0  0  0  0  0  0  0
  1  2  3  0
  2  3  1  0
  3  4  1  0
  4  5  2  0
  5  6  1  0
  6  7  2  0
  7  8  1  0
  8  9  2  0
  9 10  1  0
 10 11  1  0
 10 12  2  0
  9 13  1  0
 13 14  1  0
 14 15  2  0
 14 16  1  0
 16 17  2  0
 13 18  1  0
 18 19  2  0
  3 20  1  0
 20 21  1  0
 21  3  1  0
 19  4  1  0
 18  7  1  0
  5 22  1  0
  6 23  1  0
  8 24  1  0
 11 25  1  0
 16 26  1  0
 19 27  1  0
 20 28  1  0
 20 29  1  0
 21 30  1  0
 21 31  1  0
M  CHG  1  11  -1
M  END
>  <UniqueID>  (66) 
66

>  <SMILES>  (66) 
N#CC1(c2ccc3cc(C([NH-])=O)n(C(=O)C=O)c3c2)CC1

>  <Energy>  (66) 
337.59112762667763

>  <Genealogy>  (66) 
N#CC1(c2ccc3cc(C([NH-])=O)n(C(=O)C=O)c3c2)CC1 (protonated)
N#CC1(c2ccc3cc(C([NH-])=O)n(C(=O)C=O)c3c2)CC1 (3D coordinates assigned)
N#CC1(c2ccc3cc(C([NH-])=O)n(C(=O)C=O)c3c2)CC1 (nonaromatic ring conformer: 337.59112762667763 kcal/mol)

>  <smiles>  (66) 
N#CC1(c2ccc3cc(C(N)=O)n(C(=O)C=O)c3c2)CC1

>  <score_type>  (66) 
oracle

>  <origin>  (66) 
adg

>  <m_score__min__energy>  (66) 
-10.640000000000001

>  <m_primary>  (66) 
energy

$$$$
66:0
     RDKit          3D

 41 42  0  0  0  0  0  0  0  0999 V2000
   -9.2520   22.0700  -32.1870 N   0  0  0  0  0  0  0  0  0  0  0  0
   -8.5460   20.8990  -31.7720 C   0  0  0  0  0  0  0  0  0  0  0  0
   -9.0340   20.1740  -30.8650 O   0  0  0  0  0  0  0  0  0  0  0  0
   -7.2280   20.5570  -32.3440 C   0  0  0  0  0  0  0  0  0  0  0  0
   -6.9080   19.2940  -32.8310 C   0  0  0  0  0  0  0  0  0  0  0  0
   -5.5870   19.3730  -33.2060 C   0  0  0  0  0  0  0  0  0  0  0  0
   -4.7590   18.4070  -33.7700 C   0  0  0  0  0  0  0  0  0  0  0  0
   -3.4430   18.7760  -34.0930 C   0  0  0  0  0  0  0  0  0  0  0  0
   -2.9780   20.0950  -33.8610 C   0  0  0  0  0  0  0  0  0  0  0  0
   -1.6250   20.4330  -34.2200 N   0  0  0  0  0  0  0  0  0  0  0  0
   -0.4520   19.9050  -33.5180 C   0  0  0  0  0  0  0  0  0  0  0  0
    0.7500   20.8440  -33.6520 C   0  0  0  0  0  0  0  0  0  0  0  0
    0.4190   22.0050  -34.4740 N   0  0  0  0  0  0  0  0  0  0  0  0
    0.6390   22.0670  -35.8880 C   0  0  0  0  0  0  0  0  0  0  0  0
   -0.0920   21.4100  -36.6770 O   0  0  0  0  0  0  0  0  0  0  0  0
    1.7150   22.9060  -36.4230 C   0  0  0  0  0  0  0  0  0  0  0  0
    2.9190   22.5750  -36.2580 O   0  0  0  0  0  0  0  0  0  0  0  0
    1.4130   24.0710  -37.1160 O   0  0  0  0  0  0  0  0  0  0  0  0
   -3.8540   21.0500  -33.2880 C   0  0  0  0  0  0  0  0  0  0  0  0
   -5.1540   20.6490  -32.9540 C   0  0  0  0  0  0  0  0  0  0  0  0
   -6.1530   21.3910  -32.4270 N   0  0  0  0  0  0  0  0  0  0  0  0
   -6.1130   22.7960  -32.1280 C   0  0  0  0  0  0  0  0  0  0  0  0
   -7.1780   23.4710  -32.1390 O   0  0  0  0  0  0  0  0  0  0  0  0
   -4.8910   23.4080  -31.8260 O   0  0  0  0  0  0  0  0  0  0  0  0
   -4.2050   23.2220  -30.5900 C   0  0  0  0  0  0  0  0  0  0  0  0
   -3.6290   24.5190  -30.1180 C   0  0  0  0  0  0  0  0  0  0  0  0
   -2.9070   24.5550  -29.0870 O   0  0  0  0  0  0  0  0  0  0  0  0
   -3.8690   25.6850  -30.8330 O   0  0  0  0  0  0  0  0  0  0  0  0
   -8.8020   22.7800  -32.8050 H   0  0  0  0  0  0  0  0  0  0  0  0
  -10.2010   22.2720  -31.8030 H   0  0  0  0  0  0  0  0  0  0  0  0
   -7.5703   18.4185  -32.9013 H   0  0  0  0  0  0  0  0  0  0  0  0
   -5.1239   17.3863  -33.9570 H   0  0  0  0  0  0  0  0  0  0  0  0
   -2.7633   18.0309  -34.5323 H   0  0  0  0  0  0  0  0  0  0  0  0
   -1.4800   21.0860  -35.0240 H   0  0  0  0  0  0  0  0  0  0  0  0
   -0.6963   19.7866  -32.4520 H   0  0  0  0  0  0  0  0  0  0  0  0
   -0.1864   18.9370  -33.9680 H   0  0  0  0  0  0  0  0  0  0  0  0
    1.0522   21.1863  -32.6513 H   0  0  0  0  0  0  0  0  0  0  0  0
    1.5711   20.2949  -34.1361 H   0  0  0  0  0  0  0  0  0  0  0  0
   -3.5207   22.0830  -33.1095 H   0  0  0  0  0  0  0  0  0  0  0  0
   -4.9107   22.8423  -29.8365 H   0  0  0  0  0  0  0  0  0  0  0  0
   -3.3886   22.4998  -30.7380 H   0  0  0  0  0  0  0  0  0  0  0  0
  1  2  1  0
  2  3  2  0
  2  4  1  0
  4  5  2  0
  5  6  1  0
  6  7  2  0
  7  8  1  0
  8  9  2  0
  9 10  1  0
 10 11  1  0
 11 12  1  0
 12 13  1  0
 13 14  1  0
 14 15  2  0
 14 16  1  0
 16 17  2  0
 16 18  1  0
  9 19  1  0
 19 20  2  0
 20 21  1  0
 21 22  1  0
 22 23  2  0
 22 24  1  0
 24 25  1  0
 25 26  1  0
 26 27  2  0
 26 28  1  0
 21  4  1  0
 20  6  1  0
  1 29  1  0
  1 30  1  0
  5 31  1  0
  7 32  1  0
  8 33  1  0
 10 34  1  0
 11 35  1  0
 11 36  1  0
 12 37  1  0
 12 38  1  0
 19 39  1  0
 25 40  1  0
 25 41  1  0
M  CHG  3  13  -1  18  -1  28  -1
M  END
>  <UniqueID>  (67) 
67

>  <SMILES>  (67) 
NC(=O)c1cc2ccc(NCC[N-]C(=O)C(=O)[O-])cc2n1C(=O)OCC(=O)[O-]

>  <Energy>  (67) 
72.49686112257609

>  <Genealogy>  (67) 
NC(=O)c1cc2ccc(NCC[N-]C(=O)C(=O)[O-])cc2n1C(=O)OCC(=O)[O-] (protonated)
NC(=O)c1cc2ccc(NCC[N-]C(=O)C(=O)[O-])cc2n1C(=O)OCC(=O)[O-] (3D coordinates assigned)
NC(=O)c1cc2ccc(NCC[N-]C(=O)C(=O)[O-])cc2n1C(=O)OCC(=O)[O-] (optimized conformer: 72.49686112257609 kcal/mol)

>  <smiles>  (67) 
NC(=O)c1cc2ccc(NCCNC(=O)C(=O)O)cc2n1C(=O)OCC(=O)O

>  <score_type>  (67) 
oracle

>  <origin>  (67) 
adg

>  <m_score__min__energy>  (67) 
-11.48

>  <m_primary>  (67) 
energy

$$$$
67:0
     RDKit          3D

 50 52  0  0  0  0  0  0  0  0999 V2000
   -3.2810   24.5500  -27.2020 C   0  0  0  0  0  0  0  0  0  0  0  0
   -2.0320   25.3790  -27.4800 C   0  0  0  0  0  0  0  0  0  0  0  0
   -1.5730   25.1660  -28.8130 O   0  0  0  0  0  0  0  0  0  0  0  0
   -0.7620   24.0890  -29.1840 C   0  0  0  0  0  0  0  0  0  0  0  0
    0.4810   24.1070  -28.9630 O   0  0  0  0  0  0  0  0  0  0  0  0
   -1.3680   22.9220  -29.8870 C   0  0  0  0  0  0  0  0  0  0  0  0
   -2.7740   23.1940  -30.1460 N   0  0  0  0  0  0  0  0  0  0  0  0
   -3.4870   22.6130  -31.2400 C   0  0  0  0  0  0  0  0  0  0  0  0
   -2.8770   21.9190  -32.0970 O   0  0  0  0  0  0  0  0  0  0  0  0
   -4.9090   22.7930  -31.3440 N   0  0  0  0  0  0  0  0  0  0  0  0
   -5.6520   23.8450  -30.8980 C   0  0  0  0  0  0  0  0  0  0  0  0
   -5.1230   25.1180  -30.3660 C   0  0  0  0  0  0  0  0  0  0  0  0
   -3.8830   25.6470  -30.8290 N   0  0  0  0  0  0  0  0  0  0  0  0
   -5.7960   25.7700  -29.5240 O   0  0  0  0  0  0  0  0  0  0  0  0
   -7.0100   23.5990  -31.0880 C   0  0  0  0  0  0  0  0  0  0  0  0
   -7.0770   22.3580  -31.6770 C   0  0  0  0  0  0  0  0  0  0  0  0
   -8.1830   21.6160  -32.0800 C   0  0  0  0  0  0  0  0  0  0  0  0
   -7.9580   20.3470  -32.6390 C   0  0  0  0  0  0  0  0  0  0  0  0
   -6.6410   19.8360  -32.7710 C   0  0  0  0  0  0  0  0  0  0  0  0
   -6.4220   18.5310  -33.3430 N   0  0  0  0  0  0  0  0  0  0  0  0
   -6.8730   17.3180  -32.6470 C   0  0  0  0  0  0  0  0  0  0  0  0
   -5.6930   16.3610  -32.4100 C   0  0  0  0  0  0  0  0  0  0  0  0
   -4.6410   16.3860  -33.5500 C   0  0  0  0  0  0  0  0  0  0  0  0
   -4.1620   15.0900  -33.7960 O   0  0  0  0  0  0  0  0  0  0  0  0
   -5.2150   16.9670  -34.8510 C   0  0  0  0  0  0  0  0  0  0  0  0
   -5.7080   18.4030  -34.6230 C   0  0  0  0  0  0  0  0  0  0  0  0
   -5.5430   20.6240  -32.3540 C   0  0  0  0  0  0  0  0  0  0  0  0
   -5.7960   21.8910  -31.8190 C   0  0  0  0  0  0  0  0  0  0  0  0
   -3.4238   24.4552  -26.1154 H   0  0  0  0  0  0  0  0  0  0  0  0
   -4.1568   25.0467  -27.6450 H   0  0  0  0  0  0  0  0  0  0  0  0
   -3.1635   23.5500  -27.6450 H   0  0  0  0  0  0  0  0  0  0  0  0
   -2.2685   26.4448  -27.3454 H   0  0  0  0  0  0  0  0  0  0  0  0
   -1.2407   25.0726  -26.7800 H   0  0  0  0  0  0  0  0  0  0  0  0
   -0.8445   22.7546  -30.8398 H   0  0  0  0  0  0  0  0  0  0  0  0
   -1.2760   22.0243  -29.2580 H   0  0  0  0  0  0  0  0  0  0  0  0
   -2.9750   25.2940  -30.4540 H   0  0  0  0  0  0  0  0  0  0  0  0
   -7.8503   24.2576  -30.8231 H   0  0  0  0  0  0  0  0  0  0  0  0
   -9.2030   22.0113  -31.9643 H   0  0  0  0  0  0  0  0  0  0  0  0
   -8.8124   19.7428  -32.9781 H   0  0  0  0  0  0  0  0  0  0  0  0
   -7.3112   17.5988  -31.6779 H   0  0  0  0  0  0  0  0  0  0  0  0
   -7.6232   16.8092  -33.2702 H   0  0  0  0  0  0  0  0  0  0  0  0
   -5.1962   16.6458  -31.4708 H   0  0  0  0  0  0  0  0  0  0  0  0
   -6.1045   15.3417  -32.3701 H   0  0  0  0  0  0  0  0  0  0  0  0
   -3.8184   17.0360  -33.2172 H   0  0  0  0  0  0  0  0  0  0  0  0
   -4.5330   14.5090  -33.0810 H   0  0  0  0  0  0  0  0  0  0  0  0
   -4.4315   16.9709  -35.6231 H   0  0  0  0  0  0  0  0  0  0  0  0
   -6.0625   16.3458  -35.1763 H   0  0  0  0  0  0  0  0  0  0  0  0
   -4.8424   19.0817  -34.6189 H   0  0  0  0  0  0  0  0  0  0  0  0
   -6.4045   18.6617  -35.4341 H   0  0  0  0  0  0  0  0  0  0  0  0
   -4.5133   20.2487  -32.4484 H   0  0  0  0  0  0  0  0  0  0  0  0
  1  2  1  0
  2  3  1  0
  3  4  1  0
  4  5  2  0
  4  6  1  0
  6  7  1  0
  7  8  1  0
  8  9  2  0
  8 10  1  0
 10 11  1  0
 11 12  1  0
 12 13  1  0
 12 14  2  0
 11 15  2  0
 15 16  1  0
 16 17  2  0
 17 18  1  0
 18 19  2  0
 19 20  1  0
 20 21  1  0
 21 22  1  0
 22 23  1  0
 23 24  1  0
 23 25  1  0
 25 26  1  0
 19 27  1  0
 27 28  2  0
 28 10  1  0
 28 16  1  0
 26 20  1  0
  1 29  1  0
  1 30  1  0
  1 31  1  0
  2 32  1  0
  2 33  1  0
  6 34  1  0
  6 35  1  0
 13 36  1  0
 15 37  1  0
 17 38  1  0
 18 39  1  0
 21 40  1  0
 21 41  1  0
 22 42  1  0
 22 43  1  0
 23 44  1  0
 24 45  1  0
 25 46  1  0
 25 47  1  0
 26 48  1  0
 26 49  1  0
 27 50  1  0
M  CHG  2   7  -1  13  -1
M  END
>  <UniqueID>  (68) 
68

>  <SMILES>  (68) 
CCOC(=O)C[N-]C(=O)n1c(C([NH-])=O)cc2ccc(N3CCC(O)CC3)cc21

>  <Energy>  (68) 
88.21904643780783

>  <Genealogy>  (68) 
CCOC(=O)C[N-]C(=O)n1c(C([NH-])=O)cc2ccc(N3CCC(O)CC3)cc21 (protonated)
CCOC(=O)C[N-]C(=O)n1c(C([NH-])=O)cc2ccc(N3CCC(O)CC3)cc21 (3D coordinates assigned)
CCOC(=O)C[N-]C(=O)n1c(C([NH-])=O)cc2ccc(N3CCC(O)CC3)cc21 (nonaromatic ring conformer: 88.21904643780783 kcal/mol)

>  <smiles>  (68) 
CCOC(=O)CNC(=O)n1c(C(N)=O)cc2ccc(N3CCC(O)CC3)cc21

>  <score_type>  (68) 
oracle

>  <origin>  (68) 
adg

>  <m_score__min__energy>  (68) 
-11.779999999999999

>  <m_primary>  (68) 
energy

$$$$
68:0
     RDKit          3D

 39 40  0  0  0  0  0  0  0  0999 V2000
   -1.6290   25.1150  -28.1020 C   0  0  0  0  0  0  0  0  0  0  0  0
   -2.5820   24.0150  -28.2870 N   0  0  0  0  0  0  0  0  0  0  0  0
   -3.7980   23.9580  -27.4680 C   0  0  0  0  0  0  0  0  0  0  0  0
   -2.2870   22.9970  -29.2690 C   0  0  0  0  0  0  0  0  0  0  0  0
   -1.1220   22.9190  -29.7480 O   0  0  0  0  0  0  0  0  0  0  0  0
   -3.3200   22.0020  -29.7410 C   0  0  0  0  0  0  0  0  0  0  0  0
   -3.9050   22.4070  -31.0660 C   0  0  0  0  0  0  0  0  0  0  0  0
   -3.1700   22.4380  -32.0890 O   0  0  0  0  0  0  0  0  0  0  0  0
   -5.3040   22.7080  -31.1890 N   0  0  0  0  0  0  0  0  0  0  0  0
   -5.9290   23.8760  -30.8720 C   0  0  0  0  0  0  0  0  0  0  0  0
   -5.2660   25.1230  -30.4360 C   0  0  0  0  0  0  0  0  0  0  0  0
   -3.8620   25.3030  -30.5990 N   0  0  0  0  0  0  0  0  0  0  0  0
   -5.9540   26.0540  -29.9380 O   0  0  0  0  0  0  0  0  0  0  0  0
   -7.3060   23.7610  -31.0650 C   0  0  0  0  0  0  0  0  0  0  0  0
   -7.5030   22.4750  -31.5160 C   0  0  0  0  0  0  0  0  0  0  0  0
   -8.6820   21.8160  -31.8570 C   0  0  0  0  0  0  0  0  0  0  0  0
   -8.5910   20.4750  -32.2720 C   0  0  0  0  0  0  0  0  0  0  0  0
   -7.3340   19.8230  -32.3300 C   0  0  0  0  0  0  0  0  0  0  0  0
   -7.2440   18.3790  -32.7400 C   0  0  0  0  0  0  0  0  0  0  0  0
   -6.2310   18.2140  -33.8260 C   0  0  0  0  0  0  0  0  0  0  0  0
   -5.7460   17.0780  -34.0740 O   0  0  0  0  0  0  0  0  0  0  0  0
   -5.8550   19.3060  -34.5990 O   0  0  0  0  0  0  0  0  0  0  0  0
   -6.1640   20.5200  -31.9570 C   0  0  0  0  0  0  0  0  0  0  0  0
   -6.2800   21.8590  -31.5770 C   0  0  0  0  0  0  0  0  0  0  0  0
   -1.4765   25.2911  -27.0270 H   0  0  0  0  0  0  0  0  0  0  0  0
   -0.6692   24.8512  -28.5702 H   0  0  0  0  0  0  0  0  0  0  0  0
   -2.0268   26.0274  -28.5702 H   0  0  0  0  0  0  0  0  0  0  0  0
   -3.5236   23.9709  -26.4029 H   0  0  0  0  0  0  0  0  0  0  0  0
   -4.4331   24.8274  -27.6936 H   0  0  0  0  0  0  0  0  0  0  0  0
   -4.3490   23.0330  -27.6936 H   0  0  0  0  0  0  0  0  0  0  0  0
   -2.8452   21.0153  -29.8457 H   0  0  0  0  0  0  0  0  0  0  0  0
   -4.1319   21.9671  -28.9997 H   0  0  0  0  0  0  0  0  0  0  0  0
   -3.4870   26.0470  -31.2290 H   0  0  0  0  0  0  0  0  0  0  0  0
   -8.0708   24.5328  -30.8935 H   0  0  0  0  0  0  0  0  0  0  0  0
   -9.6539   22.3283  -31.8034 H   0  0  0  0  0  0  0  0  0  0  0  0
   -9.5028   19.9280  -32.5538 H   0  0  0  0  0  0  0  0  0  0  0  0
   -6.9480   17.7723  -31.8715 H   0  0  0  0  0  0  0  0  0  0  0  0
   -8.2255   18.0490  -33.1111 H   0  0  0  0  0  0  0  0  0  0  0  0
   -5.1842   20.0201  -31.9655 H   0  0  0  0  0  0  0  0  0  0  0  0
  1  2  1  0
  2  3  1  0
  2  4  1  0
  4  5  2  0
  4  6  1  0
  6  7  1  0
  7  8  2  0
  7  9  1  0
  9 10  1  0
 10 11  1  0
 11 12  1  0
 11 13  2  0
 10 14  2  0
 14 15  1  0
 15 16  2  0
 16 17  1  0
 17 18  2  0
 18 19  1  0
 19 20  1  0
 20 21  2  0
 20 22  1  0
 18 23  1  0
 23 24  2  0
 24  9  1  0
 24 15  1  0
  1 25  1  0
  1 26  1  0
  1 27  1  0
  3 28  1  0
  3 29  1  0
  3 30  1  0
  6 31  1  0
  6 32  1  0
 12 33  1  0
 14 34  1  0
 16 35  1  0
 17 36  1  0
 19 37  1  0
 19 38  1  0
 23 39  1  0
M  CHG  2  12  -1  22  -1
M  END
>  <UniqueID>  (69) 
69

>  <SMILES>  (69) 
CN(C)C(=O)CC(=O)n1c(C([NH-])=O)cc2ccc(CC(=O)[O-])cc21

>  <Energy>  (69) 
73.64506418467202

>  <Genealogy>  (69) 
CN(C)C(=O)CC(=O)n1c(C([NH-])=O)cc2ccc(CC(=O)[O-])cc21 (protonated)
CN(C)C(=O)CC(=O)n1c(C([NH-])=O)cc2ccc(CC(=O)[O-])cc21 (3D coordinates assigned)
CN(C)C(=O)CC(=O)n1c(C([NH-])=O)cc2ccc(CC(=O)[O-])cc21 (optimized conformer: 73.64506418467202 kcal/mol)

>  <smiles>  (69) 
CN(C)C(=O)CC(=O)n1c(C(N)=O)cc2ccc(CC(=O)O)cc21

>  <score_type>  (69) 
oracle

>  <origin>  (69) 
adg

>  <m_score__min__energy>  (69) 
-10.6

>  <m_primary>  (69) 
energy

$$$$
69:0
     RDKit          3D

 36 38  0  0  0  0  0  0  0  0999 V2000
   -4.2380   25.6520  -30.5710 N   0  0  0  0  0  0  0  0  0  0  0  0
   -5.5410   25.1290  -30.3300 C   0  0  0  0  0  0  0  0  0  0  0  0
   -6.3800   25.8270  -29.7010 O   0  0  0  0  0  0  0  0  0  0  0  0
   -5.9390   23.8060  -30.8560 C   0  0  0  0  0  0  0  0  0  0  0  0
   -7.2590   23.4550  -31.1290 C   0  0  0  0  0  0  0  0  0  0  0  0
   -7.1950   22.1940  -31.6770 C   0  0  0  0  0  0  0  0  0  0  0  0
   -8.2150   21.3580  -32.1200 C   0  0  0  0  0  0  0  0  0  0  0  0
   -7.8610   20.0920  -32.6120 C   0  0  0  0  0  0  0  0  0  0  0  0
   -6.5030   19.6760  -32.6470 C   0  0  0  0  0  0  0  0  0  0  0  0
   -6.1430   18.3290  -33.1570 C   0  0  0  0  0  0  0  0  0  0  0  0
   -6.0830   17.2230  -32.2920 C   0  0  0  0  0  0  0  0  0  0  0  0
   -5.7410   15.9640  -32.7870 C   0  0  0  0  0  0  0  0  0  0  0  0
   -5.4610   15.8150  -34.1460 C   0  0  0  0  0  0  0  0  0  0  0  0
   -5.5240   16.8890  -34.9750 N   0  0  0  0  0  0  0  0  0  0  0  0
   -5.8520   18.1270  -34.5190 C   0  0  0  0  0  0  0  0  0  0  0  0
   -5.4980   20.5580  -32.1860 C   0  0  0  0  0  0  0  0  0  0  0  0
   -5.8770   21.8210  -31.7200 C   0  0  0  0  0  0  0  0  0  0  0  0
   -5.0920   22.8000  -31.2160 N   0  0  0  0  0  0  0  0  0  0  0  0
   -3.6730   22.7330  -31.0110 C   0  0  0  0  0  0  0  0  0  0  0  0
   -2.8950   22.6970  -32.0040 O   0  0  0  0  0  0  0  0  0  0  0  0
   -3.1610   22.6860  -29.7080 O   0  0  0  0  0  0  0  0  0  0  0  0
   -1.9040   23.2480  -29.3400 C   0  0  0  0  0  0  0  0  0  0  0  0
   -2.0910   24.6290  -28.7980 C   0  0  0  0  0  0  0  0  0  0  0  0
   -2.9050   24.8390  -27.8610 O   0  0  0  0  0  0  0  0  0  0  0  0
   -1.3860   25.6910  -29.3480 O   0  0  0  0  0  0  0  0  0  0  0  0
   -3.5210   25.6770  -29.8110 H   0  0  0  0  0  0  0  0  0  0  0  0
   -8.1609   24.0575  -30.9456 H   0  0  0  0  0  0  0  0  0  0  0  0
   -9.2665   21.6793  -32.0857 H   0  0  0  0  0  0  0  0  0  0  0  0
   -8.6459   19.4125  -32.9755 H   0  0  0  0  0  0  0  0  0  0  0  0
   -6.3061   17.3501  -31.2224 H   0  0  0  0  0  0  0  0  0  0  0  0
   -5.6925   15.0967  -32.1121 H   0  0  0  0  0  0  0  0  0  0  0  0
   -5.1891   14.8271  -34.5461 H   0  0  0  0  0  0  0  0  0  0  0  0
   -5.8901   18.9753  -35.2183 H   0  0  0  0  0  0  0  0  0  0  0  0
   -4.4401   20.2568  -32.1938 H   0  0  0  0  0  0  0  0  0  0  0  0
   -1.4357   22.6166  -28.5705 H   0  0  0  0  0  0  0  0  0  0  0  0
   -1.2601   23.2975  -30.2304 H   0  0  0  0  0  0  0  0  0  0  0  0
  1  2  1  0
  2  3  2  0
  2  4  1  0
  4  5  2  0
  5  6  1  0
  6  7  2  0
  7  8  1  0
  8  9  2  0
  9 10  1  0
 10 11  2  0
 11 12  1  0
 12 13  2  0
 13 14  1  0
 14 15  2  0
  9 16  1  0
 16 17  2  0
 17 18  1  0
 18 19  1  0
 19 20  2  0
 19 21  1  0
 21 22  1  0
 22 23  1  0
 23 24  2  0
 23 25  1  0
 18  4  1  0
 17  6  1  0
 15 10  1  0
  1 26  1  0
  5 27  1  0
  7 28  1  0
  8 29  1  0
 11 30  1  0
 12 31  1  0
 13 32  1  0
 15 33  1  0
 16 34  1  0
 22 35  1  0
 22 36  1  0
M  CHG  2   1  -1  25  -1
M  END
>  <UniqueID>  (70) 
70

>  <SMILES>  (70) 
[NH-]C(=O)c1cc2ccc(-c3cccnc3)cc2n1C(=O)OCC(=O)[O-]

>  <Energy>  (70) 
81.83084073861059

>  <Genealogy>  (70) 
[NH-]C(=O)c1cc2ccc(-c3cccnc3)cc2n1C(=O)OCC(=O)[O-] (protonated)
[NH-]C(=O)c1cc2ccc(-c3cccnc3)cc2n1C(=O)OCC(=O)[O-] (3D coordinates assigned)
[NH-]C(=O)c1cc2ccc(-c3cccnc3)cc2n1C(=O)OCC(=O)[O-] (optimized conformer: 81.83084073861059 kcal/mol)

>  <smiles>  (70) 
NC(=O)c1cc2ccc(-c3cccnc3)cc2n1C(=O)OCC(=O)O

>  <score_type>  (70) 
oracle

>  <origin>  (70) 
adg

>  <m_score__min__energy>  (70) 
-13.16

>  <m_primary>  (70) 
energy

$$$$
70:0
     RDKit          3D

 42 43  0  0  0  0  0  0  0  0999 V2000
   -3.5910   25.0900  -30.4650 N   0  0  0  0  0  0  0  0  0  0  0  0
   -4.9750   25.2540  -30.7580 C   0  0  0  0  0  0  0  0  0  0  0  0
   -5.4540   26.4180  -30.8360 O   0  0  0  0  0  0  0  0  0  0  0  0
   -5.8470   24.0870  -31.0070 C   0  0  0  0  0  0  0  0  0  0  0  0
   -7.2130   24.0710  -30.7290 C   0  0  0  0  0  0  0  0  0  0  0  0
   -7.6590   22.8410  -31.1560 C   0  0  0  0  0  0  0  0  0  0  0  0
   -8.9370   22.2880  -31.1210 C   0  0  0  0  0  0  0  0  0  0  0  0
   -9.1040   20.9860  -31.6210 C   0  0  0  0  0  0  0  0  0  0  0  0
   -7.9970   20.2580  -32.1240 C   0  0  0  0  0  0  0  0  0  0  0  0
   -8.1990   18.8900  -32.7170 C   0  0  0  0  0  0  0  0  0  0  0  0
   -6.8810   18.3090  -33.1250 C   0  0  0  0  0  0  0  0  0  0  0  0
   -6.2090   18.8550  -34.0420 O   0  0  0  0  0  0  0  0  0  0  0  0
   -6.4210   17.1500  -32.4960 O   0  0  0  0  0  0  0  0  0  0  0  0
   -5.5330   16.2270  -33.1160 C   0  0  0  0  0  0  0  0  0  0  0  0
   -4.1400   16.8560  -33.2760 C   0  0  2  0  0  0  0  0  0  0  0  0
   -4.0200   18.0050  -32.4750 O   0  0  0  0  0  0  0  0  0  0  0  0
   -3.8130   17.1810  -34.7440 C   0  0  0  0  0  0  0  0  0  0  0  0
   -3.8500   18.5670  -34.9490 O   0  0  0  0  0  0  0  0  0  0  0  0
   -6.7160   20.8530  -32.1460 C   0  0  0  0  0  0  0  0  0  0  0  0
   -6.5830   22.1600  -31.6640 C   0  0  0  0  0  0  0  0  0  0  0  0
   -5.4650   22.9120  -31.5840 N   0  0  0  0  0  0  0  0  0  0  0  0
   -4.1380   22.5120  -31.9600 C   0  0  0  0  0  0  0  0  0  0  0  0
   -3.1720   22.7420  -31.1840 O   0  0  0  0  0  0  0  0  0  0  0  0
   -3.8880   21.8150  -33.2600 C   0  0  0  0  0  0  0  0  0  0  0  0
   -3.6600   20.4550  -33.0250 O   0  0  0  0  0  0  0  0  0  0  0  0
   -2.9000   24.8940  -31.2230 H   0  0  0  0  0  0  0  0  0  0  0  0
   -7.8083   24.8719  -30.2663 H   0  0  0  0  0  0  0  0  0  0  0  0
   -9.7887   22.8532  -30.7146 H   0  0  0  0  0  0  0  0  0  0  0  0
  -10.1037   20.5270  -31.6221 H   0  0  0  0  0  0  0  0  0  0  0  0
   -8.6701   18.2349  -31.9694 H   0  0  0  0  0  0  0  0  0  0  0  0
   -8.8468   18.9723  -33.6022 H   0  0  0  0  0  0  0  0  0  0  0  0
   -5.4544   15.3239  -32.4929 H   0  0  0  0  0  0  0  0  0  0  0  0
   -5.9246   15.9648  -34.1099 H   0  0  0  0  0  0  0  0  0  0  0  0
   -3.4062   16.1093  -32.9382 H   0  0  0  0  0  0  0  0  0  0  0  0
   -4.7480   18.6300  -32.7290 H   0  0  0  0  0  0  0  0  0  0  0  0
   -2.8082   16.8040  -34.9852 H   0  0  0  0  0  0  0  0  0  0  0  0
   -4.5586   16.7003  -35.3944 H   0  0  0  0  0  0  0  0  0  0  0  0
   -4.5070   18.9240  -34.2960 H   0  0  0  0  0  0  0  0  0  0  0  0
   -5.8452   20.3029  -32.5322 H   0  0  0  0  0  0  0  0  0  0  0  0
   -4.7653   21.9320  -33.9131 H   0  0  0  0  0  0  0  0  0  0  0  0
   -3.0057   22.2552  -33.7477 H   0  0  0  0  0  0  0  0  0  0  0  0
   -4.4390   19.9740  -33.4090 H   0  0  0  0  0  0  0  0  0  0  0  0
  1  2  1  0
  2  3  2  0
  2  4  1  0
  4  5  2  0
  5  6  1  0
  6  7  2  0
  7  8  1  0
  8  9  2  0
  9 10  1  0
 10 11  1  0
 11 12  2  0
 11 13  1  0
 13 14  1  0
 14 15  1  0
 15 16  1  0
 15 17  1  0
 17 18  1  0
  9 19  1  0
 19 20  2  0
 20 21  1  0
 21 22  1  0
 22 23  2  0
 22 24  1  0
 24 25  1  0
 21  4  1  0
 20  6  1  0
  1 26  1  0
  5 27  1  0
  7 28  1  0
  8 29  1  0
 10 30  1  0
 10 31  1  0
 14 32  1  0
 14 33  1  0
 15 34  1  1
 16 35  1  0
 17 36  1  0
 17 37  1  0
 18 38  1  0
 19 39  1  0
 24 40  1  0
 24 41  1  0
 25 42  1  0
M  CHG  1   1  -1
M  END
>  <UniqueID>  (71) 
71

>  <SMILES>  (71) 
[NH-]C(=O)c1cc2ccc(CC(=O)OC[C@H](O)CO)cc2n1C(=O)CO

>  <Energy>  (71) 
71.69204939762788

>  <Genealogy>  (71) 
[NH-]C(=O)c1cc2ccc(CC(=O)OCC(O)CO)cc2n1C(=O)CO (protonated)
[NH-]C(=O)c1cc2ccc(CC(=O)OC[C@H](O)CO)cc2n1C(=O)CO (chirality)
[NH-]C(=O)c1cc2ccc(CC(=O)OC[C@H](O)CO)cc2n1C(=O)CO (3D coordinates assigned)
[NH-]C(=O)c1cc2ccc(CC(=O)OC[C@H](O)CO)cc2n1C(=O)CO (optimized conformer: 71.69204939762788 kcal/mol)

>  <smiles>  (71) 
NC(=O)c1cc2ccc(CC(=O)OCC(O)CO)cc2n1C(=O)CO

>  <score_type>  (71) 
oracle

>  <origin>  (71) 
adg

>  <m_score__min__energy>  (71) 
-8.4600000000000009

>  <m_primary>  (71) 
energy

$$$$
71:0
     RDKit          3D

 40 42  0  0  0  0  0  0  0  0999 V2000
   -5.6270   24.9470  -29.2670 N   0  0  0  0  0  0  0  0  0  0  0  0
   -5.6460   24.5160  -30.6300 C   0  0  0  0  0  0  0  0  0  0  0  0
   -5.0820   25.2260  -31.5020 O   0  0  0  0  0  0  0  0  0  0  0  0
   -6.3030   23.2460  -31.0190 C   0  0  0  0  0  0  0  0  0  0  0  0
   -7.6520   22.9530  -30.8100 C   0  0  0  0  0  0  0  0  0  0  0  0
   -7.8270   21.6760  -31.2930 C   0  0  0  0  0  0  0  0  0  0  0  0
   -8.9770   20.8940  -31.3620 C   0  0  0  0  0  0  0  0  0  0  0  0
   -8.8720   19.6190  -31.9450 C   0  0  0  0  0  0  0  0  0  0  0  0
   -7.6310   19.1580  -32.4520 C   0  0  0  0  0  0  0  0  0  0  0  0
   -7.5330   17.7790  -33.0440 C   0  0  0  0  0  0  0  0  0  0  0  0
   -6.2140   17.5820  -33.6310 N   0  0  0  0  0  0  0  0  0  0  0  0
   -5.2090   16.8500  -33.1250 C   0  0  0  0  0  0  0  0  0  0  0  0
   -4.1480   16.8420  -33.9550 N   0  0  0  0  0  0  0  0  0  0  0  0
   -4.5790   17.6050  -34.9840 C   0  0  0  0  0  0  0  0  0  0  0  0
   -5.8350   18.0570  -34.8030 N   0  0  0  0  0  0  0  0  0  0  0  0
   -6.4840   19.9770  -32.3580 C   0  0  0  0  0  0  0  0  0  0  0  0
   -6.6180   21.2360  -31.7640 C   0  0  0  0  0  0  0  0  0  0  0  0
   -5.6730   22.1840  -31.5920 N   0  0  0  0  0  0  0  0  0  0  0  0
   -4.3140   22.1280  -32.0570 C   0  0  0  0  0  0  0  0  0  0  0  0
   -4.0710   21.6400  -33.1920 O   0  0  0  0  0  0  0  0  0  0  0  0
   -3.1920   22.6410  -31.2480 C   0  0  0  0  0  0  0  0  0  0  0  0
   -3.1490   22.5360  -29.9150 C   0  0  0  0  0  0  0  0  0  0  0  0
   -2.0190   23.1220  -29.1220 C   0  0  0  0  0  0  0  0  0  0  0  0
   -1.9800   24.6110  -29.2640 C   0  0  0  0  0  0  0  0  0  0  0  0
   -0.9220   25.2450  -29.0120 O   0  0  0  0  0  0  0  0  0  0  0  0
   -3.1020   25.2970  -29.7120 O   0  0  0  0  0  0  0  0  0  0  0  0
   -5.1300   25.8280  -29.0050 H   0  0  0  0  0  0  0  0  0  0  0  0
   -6.1390   24.4280  -28.5210 H   0  0  0  0  0  0  0  0  0  0  0  0
   -8.4133   23.6043  -30.3558 H   0  0  0  0  0  0  0  0  0  0  0  0
   -9.9376   21.2623  -30.9726 H   0  0  0  0  0  0  0  0  0  0  0  0
   -9.7605   18.9735  -32.0083 H   0  0  0  0  0  0  0  0  0  0  0  0
   -7.6958   17.0309  -32.2541 H   0  0  0  0  0  0  0  0  0  0  0  0
   -8.2974   17.6667  -33.8270 H   0  0  0  0  0  0  0  0  0  0  0  0
   -5.2469   16.3253  -32.1589 H   0  0  0  0  0  0  0  0  0  0  0  0
   -3.9708   17.8320  -35.8720 H   0  0  0  0  0  0  0  0  0  0  0  0
   -5.5118   19.6339  -32.7416 H   0  0  0  0  0  0  0  0  0  0  0  0
   -2.3534   23.1317  -31.7638 H   0  0  0  0  0  0  0  0  0  0  0  0
   -3.9592   22.0090  -29.3898 H   0  0  0  0  0  0  0  0  0  0  0  0
   -2.1531   22.8652  -28.0608 H   0  0  0  0  0  0  0  0  0  0  0  0
   -1.0730   22.7088  -29.5019 H   0  0  0  0  0  0  0  0  0  0  0  0
  1  2  1  0
  2  3  2  0
  2  4  1  0
  4  5  2  0
  5  6  1  0
  6  7  2  0
  7  8  1  0
  8  9  2  0
  9 10  1  0
 10 11  1  0
 11 12  1  0
 12 13  2  0
 13 14  1  0
 14 15  2  0
  9 16  1  0
 16 17  2  0
 17 18  1  0
 18 19  1  0
 19 20  2  0
 19 21  1  0
 21 22  2  3
 22 23  1  0
 23 24  1  0
 24 25  2  0
 24 26  1  0
 18  4  1  0
 17  6  1  0
 15 11  1  0
  1 27  1  0
  1 28  1  0
  5 29  1  0
  7 30  1  0
  8 31  1  0
 10 32  1  0
 10 33  1  0
 12 34  1  0
 14 35  1  0
 16 36  1  0
 21 37  1  0
 22 38  1  0
 23 39  1  0
 23 40  1  0
M  CHG  1  26  -1
M  END
>  <UniqueID>  (72) 
72

>  <SMILES>  (72) 
NC(=O)c1cc2ccc(Cn3cncn3)cc2n1C(=O)C=CCC(=O)[O-]

>  <Energy>  (72) 
108.44502876955026

>  <Genealogy>  (72) 
NC(=O)c1cc2ccc(Cn3cncn3)cc2n1C(=O)C=CCC(=O)[O-] (protonated)
NC(=O)c1cc2ccc(Cn3cncn3)cc2n1C(=O)C=CCC(=O)[O-] (3D coordinates assigned)
NC(=O)c1cc2ccc(Cn3cncn3)cc2n1C(=O)C=CCC(=O)[O-] (optimized conformer: 108.44502876955026 kcal/mol)

>  <smiles>  (72) 
NC(=O)c1cc2ccc(Cn3cncn3)cc2n1C(=O)C=CCC(=O)O

>  <score_type>  (72) 
oracle

>  <origin>  (72) 
adg

>  <m_score__min__energy>  (72) 
-12.09

>  <m_primary>  (72) 
energy

$$$$
72:0
     RDKit          3D

 58 60  0  0  0  0  0  0  0  0999 V2000
   -3.8880   15.5090  -33.1120 C   0  0  0  0  0  0  0  0  0  0  0  0
   -4.1680   15.8250  -34.4590 O   0  0  0  0  0  0  0  0  0  0  0  0
   -5.3890   16.5400  -34.5520 C   0  0  2  0  0  0  0  0  0  0  0  0
   -5.2360   17.9880  -34.0760 C   0  0  0  0  0  0  0  0  0  0  0  0
   -6.4330   18.2890  -33.3030 N   0  0  0  0  0  0  0  0  0  0  0  0
   -6.7710   19.6090  -32.8130 C   0  0  0  0  0  0  0  0  0  0  0  0
   -8.1290   20.0020  -32.6760 C   0  0  0  0  0  0  0  0  0  0  0  0
   -8.4660   21.2670  -32.1740 C   0  0  0  0  0  0  0  0  0  0  0  0
   -7.4350   22.1290  -31.8190 C   0  0  0  0  0  0  0  0  0  0  0  0
   -7.4990   23.3890  -31.2830 C   0  0  0  0  0  0  0  0  0  0  0  0
   -6.1770   23.7740  -31.0920 C   0  0  0  0  0  0  0  0  0  0  0  0
   -5.8070   25.0390  -30.4300 C   0  0  0  0  0  0  0  0  0  0  0  0
   -5.7300   25.1140  -29.0080 N   0  0  0  0  0  0  0  0  0  0  0  0
   -5.5070   26.0480  -31.1210 O   0  0  0  0  0  0  0  0  0  0  0  0
   -5.3160   22.8010  -31.5180 N   0  0  0  0  0  0  0  0  0  0  0  0
   -3.8740   22.8990  -31.6130 C   0  0  0  0  0  0  0  0  0  0  0  0
   -3.2390   22.2040  -32.4560 O   0  0  0  0  0  0  0  0  0  0  0  0
   -3.1730   23.7940  -30.7910 O   0  0  0  0  0  0  0  0  0  0  0  0
   -2.6320   23.4420  -29.5180 C   0  0  0  0  0  0  0  0  0  0  0  0
   -2.8370   24.5430  -28.5240 C   0  0  0  0  0  0  0  0  0  0  0  0
   -3.8190   24.4830  -27.7320 O   0  0  0  0  0  0  0  0  0  0  0  0
   -1.9160   25.6070  -28.4750 O   0  0  0  0  0  0  0  0  0  0  0  0
   -1.0000   25.8820  -27.4030 C   0  0  0  0  0  0  0  0  0  0  0  0
   -1.7720   25.6860  -26.0840 C   0  0  0  0  0  0  0  0  0  0  0  0
    0.1870   24.8890  -27.4420 C   0  0  0  0  0  0  0  0  0  0  0  0
   -0.4970   27.3410  -27.4750 C   0  0  0  0  0  0  0  0  0  0  0  0
   -6.1130   21.7880  -31.9490 C   0  0  0  0  0  0  0  0  0  0  0  0
   -5.7510   20.5230  -32.4470 C   0  0  0  0  0  0  0  0  0  0  0  0
   -7.2510   17.1030  -33.0720 C   0  0  0  0  0  0  0  0  0  0  0  0
   -6.4220   15.9290  -33.5960 C   0  0  1  0  0  0  0  0  0  0  0  0
   -7.2160   14.9480  -34.2190 O   0  0  0  0  0  0  0  0  0  0  0  0
   -4.4716   16.1676  -32.4519 H   0  0  0  0  0  0  0  0  0  0  0  0
   -4.1593   14.4609  -32.9172 H   0  0  0  0  0  0  0  0  0  0  0  0
   -2.8149   15.6522  -32.9172 H   0  0  0  0  0  0  0  0  0  0  0  0
   -5.6931   16.4948  -35.6082 H   0  0  0  0  0  0  0  0  0  0  0  0
   -4.3397   18.0900  -33.4466 H   0  0  0  0  0  0  0  0  0  0  0  0
   -5.1215   18.6792  -34.9240 H   0  0  0  0  0  0  0  0  0  0  0  0
   -8.9276   19.3041  -32.9679 H   0  0  0  0  0  0  0  0  0  0  0  0
   -9.5180   21.5691  -32.0641 H   0  0  0  0  0  0  0  0  0  0  0  0
   -8.4035   23.9712  -31.0531 H   0  0  0  0  0  0  0  0  0  0  0  0
   -5.4420   26.0030  -28.5420 H   0  0  0  0  0  0  0  0  0  0  0  0
   -5.9620   24.2850  -28.4160 H   0  0  0  0  0  0  0  0  0  0  0  0
   -3.1312   22.5317  -29.1544 H   0  0  0  0  0  0  0  0  0  0  0  0
   -1.5515   23.2700  -29.6321 H   0  0  0  0  0  0  0  0  0  0  0  0
   -1.0952   25.8578  -25.2340 H   0  0  0  0  0  0  0  0  0  0  0  0
   -2.6070   26.4007  -26.0382 H   0  0  0  0  0  0  0  0  0  0  0  0
   -2.1649   24.6596  -26.0382 H   0  0  0  0  0  0  0  0  0  0  0  0
    0.4882   24.6370  -26.4145 H   0  0  0  0  0  0  0  0  0  0  0  0
   -0.1182   23.9733  -27.9696 H   0  0  0  0  0  0  0  0  0  0  0  0
    1.0344   25.3511  -27.9696 H   0  0  0  0  0  0  0  0  0  0  0  0
   -0.3619   27.7330  -26.4561 H   0  0  0  0  0  0  0  0  0  0  0  0
    0.4636   27.3717  -28.0101 H   0  0  0  0  0  0  0  0  0  0  0  0
   -1.2346   27.9572  -28.0101 H   0  0  0  0  0  0  0  0  0  0  0  0
   -4.6913   20.2470  -32.5509 H   0  0  0  0  0  0  0  0  0  0  0  0
   -7.4562   16.9803  -31.9983 H   0  0  0  0  0  0  0  0  0  0  0  0
   -8.2254   17.1735  -33.5775 H   0  0  0  0  0  0  0  0  0  0  0  0
   -5.9283   15.3944  -32.7711 H   0  0  0  0  0  0  0  0  0  0  0  0
   -6.6300   14.4070  -34.8110 H   0  0  0  0  0  0  0  0  0  0  0  0
  1  2  1  0
  2  3  1  0
  3  4  1  0
  4  5  1  0
  5  6  1  0
  6  7  2  0
  7  8  1  0
  8  9  2  0
  9 10  1  0
 10 11  2  0
 11 12  1  0
 12 13  1  0
 12 14  2  0
 11 15  1  0
 15 16  1  0
 16 17  2  0
 16 18  1  0
 18 19  1  0
 19 20  1  0
 20 21  2  0
 20 22  1  0
 22 23  1  0
 23 24  1  0
 23 25  1  0
 23 26  1  0
 15 27  1  0
 27 28  2  0
  5 29  1  0
 29 30  1  0
 30 31  1  0
 30  3  1  0
 28  6  1  0
 27  9  1  0
  1 32  1  0
  1 33  1  0
  1 34  1  0
  3 35  1  6
  4 36  1  0
  4 37  1  0
  7 38  1  0
  8 39  1  0
 10 40  1  0
 13 41  1  0
 13 42  1  0
 19 43  1  0
 19 44  1  0
 24 45  1  0
 24 46  1  0
 24 47  1  0
 25 48  1  0
 25 49  1  0
 25 50  1  0
 26 51  1  0
 26 52  1  0
 26 53  1  0
 28 54  1  0
 29 55  1  0
 29 56  1  0
 30 57  1  1
 31 58  1  0
M  END
>  <UniqueID>  (73) 
73

>  <SMILES>  (73) 
CO[C@@H]1CN(c2ccc3cc(C(N)=O)n(C(=O)OCC(=O)OC(C)(C)C)c3c2)C[C@H]1O

>  <Energy>  (73) 
98.00975652206526

>  <Genealogy>  (73) 
CO[C@@H]1CN(c2ccc3cc(C(N)=O)n(C(=O)OCC(=O)OC(C)(C)C)c3c2)C[C@H]1O (3D coordinates assigned)
CO[C@@H]1CN(c2ccc3cc(C(N)=O)n(C(=O)OCC(=O)OC(C)(C)C)c3c2)C[C@H]1O (nonaromatic ring conformer: 98.00975652206526 kcal/mol)

>  <smiles>  (73) 
CO[C@@H]1CN(c2ccc3cc(C(N)=O)n(C(=O)OCC(=O)OC(C)(C)C)c3c2)C[C@H]1O

>  <score_type>  (73) 
oracle

>  <origin>  (73) 
adg

>  <m_score__min__energy>  (73) 
-9.6600000000000001

>  <m_primary>  (73) 
energy

$$$$
73:0
     RDKit          3D

 46 48  0  0  0  0  0  0  0  0999 V2000
   -1.4850   25.7830  -28.9400 N   0  0  0  0  0  0  0  0  0  0  0  0
   -0.9440   24.4670  -29.0480 C   0  0  0  0  0  0  0  0  0  0  0  0
    0.0600   24.1530  -28.3570 O   0  0  0  0  0  0  0  0  0  0  0  0
   -1.5980   23.4750  -29.9270 C   0  0  0  0  0  0  0  0  0  0  0  0
   -0.9530   22.3410  -30.4170 C   0  0  0  0  0  0  0  0  0  0  0  0
   -1.8640   21.7350  -31.2500 C   0  0  0  0  0  0  0  0  0  0  0  0
   -1.7540   20.5660  -31.9950 C   0  0  0  0  0  0  0  0  0  0  0  0
   -2.8650   20.1600  -32.7520 C   0  0  0  0  0  0  0  0  0  0  0  0
   -4.0640   20.9190  -32.7440 C   0  0  0  0  0  0  0  0  0  0  0  0
   -5.1960   20.5030  -33.5390 N   0  0  0  0  0  0  0  0  0  0  0  0
   -5.2580   19.0370  -33.6730 C   0  0  0  0  0  0  0  0  0  0  0  0
   -5.5850   18.3440  -32.3390 C   0  0  0  0  0  0  0  0  0  0  0  0
   -6.9900   18.7500  -31.8420 C   0  0  0  0  0  0  0  0  0  0  0  0
   -7.4220   20.0980  -32.2680 N   0  0  0  0  0  0  0  0  0  0  0  0
   -8.7320   20.1410  -32.9550 C   0  0  0  0  0  0  0  0  0  0  0  0
   -9.7980   20.8240  -32.0820 C   0  0  0  0  0  0  0  0  0  0  0  0
   -9.4650   22.1600  -31.7210 O   0  0  0  0  0  0  0  0  0  0  0  0
   -8.0670   22.3870  -31.5760 C   0  0  0  0  0  0  0  0  0  0  0  0
   -7.2610   21.1270  -31.2220 C   0  0  0  0  0  0  0  0  0  0  0  0
   -4.1370   22.1010  -31.9710 C   0  0  0  0  0  0  0  0  0  0  0  0
   -3.0070   22.4900  -31.2420 C   0  0  0  0  0  0  0  0  0  0  0  0
   -2.8610   23.5630  -30.4320 N   0  0  0  0  0  0  0  0  0  0  0  0
   -3.8710   24.5360  -30.1110 C   0  0  0  0  0  0  0  0  0  0  0  0
   -3.8800   25.6570  -30.6850 O   0  0  0  0  0  0  0  0  0  0  0  0
   -4.8510   24.2460  -29.1700 O   0  0  0  0  0  0  0  0  0  0  0  0
   -2.5150   25.9450  -28.9680 H   0  0  0  0  0  0  0  0  0  0  0  0
    0.0679   22.0026  -30.1864 H   0  0  0  0  0  0  0  0  0  0  0  0
   -0.8249   19.9771  -31.9915 H   0  0  0  0  0  0  0  0  0  0  0  0
   -2.8052   19.2437  -33.3577 H   0  0  0  0  0  0  0  0  0  0  0  0
   -6.0900   20.8630  -33.1280 H   0  0  0  0  0  0  0  0  0  0  0  0
   -5.1090   20.9220  -34.4940 H   0  0  0  0  0  0  0  0  0  0  0  0
   -6.0377   18.7810  -34.4055 H   0  0  0  0  0  0  0  0  0  0  0  0
   -4.2686   18.6862  -34.0018 H   0  0  0  0  0  0  0  0  0  0  0  0
   -5.5536   17.2537  -32.4814 H   0  0  0  0  0  0  0  0  0  0  0  0
   -4.8420   18.6528  -31.5890 H   0  0  0  0  0  0  0  0  0  0  0  0
   -7.7158   18.0184  -32.2267 H   0  0  0  0  0  0  0  0  0  0  0  0
   -6.9414   18.7683  -30.7432 H   0  0  0  0  0  0  0  0  0  0  0  0
   -8.6254   20.7020  -33.8952 H   0  0  0  0  0  0  0  0  0  0  0  0
   -9.0546   19.1082  -33.1529 H   0  0  0  0  0  0  0  0  0  0  0  0
  -10.7464   20.8399  -32.6390 H   0  0  0  0  0  0  0  0  0  0  0  0
   -9.8718   20.2455  -31.1493 H   0  0  0  0  0  0  0  0  0  0  0  0
   -7.6818   22.7884  -32.5249 H   0  0  0  0  0  0  0  0  0  0  0  0
   -7.9444   23.0884  -30.7376 H   0  0  0  0  0  0  0  0  0  0  0  0
   -6.1967   21.3910  -31.1350 H   0  0  0  0  0  0  0  0  0  0  0  0
   -7.6318   20.7246  -30.2678 H   0  0  0  0  0  0  0  0  0  0  0  0
   -5.0592   22.7001  -31.9433 H   0  0  0  0  0  0  0  0  0  0  0  0
  1  2  1  0
  2  3  2  0
  2  4  1  0
  4  5  2  0
  5  6  1  0
  6  7  2  0
  7  8  1  0
  8  9  2  0
  9 10  1  0
 10 11  1  0
 11 12  1  0
 12 13  1  0
 13 14  1  0
 14 15  1  0
 15 16  1  0
 16 17  1  0
 17 18  1  0
 18 19  1  0
  9 20  1  0
 20 21  2  0
 21 22  1  0
 22 23  1  0
 23 24  2  0
 23 25  1  0
 22  4  1  0
 21  6  1  0
 19 14  1  0
  1 26  1  0
  5 27  1  0
  7 28  1  0
  8 29  1  0
 10 30  1  0
 10 31  1  0
 11 32  1  0
 11 33  1  0
 12 34  1  0
 12 35  1  0
 13 36  1  0
 13 37  1  0
 15 38  1  0
 15 39  1  0
 16 40  1  0
 16 41  1  0
 18 42  1  0
 18 43  1  0
 19 44  1  0
 19 45  1  0
 20 46  1  0
M  CHG  3   1  -1  10   1  25  -1
M  END
>  <UniqueID>  (74) 
74

>  <SMILES>  (74) 
[NH-]C(=O)c1cc2ccc([NH2+]CCCN3CCOCC3)cc2n1C(=O)[O-]

>  <Energy>  (74) 
101.18263455798518

>  <Genealogy>  (74) 
[NH-]C(=O)c1cc2ccc([NH2+]CCCN3CCOCC3)cc2n1C(=O)[O-] (protonated)
[NH-]C(=O)c1cc2ccc([NH2+]CCCN3CCOCC3)cc2n1C(=O)[O-] (3D coordinates assigned)
[NH-]C(=O)c1cc2ccc([NH2+]CCCN3CCOCC3)cc2n1C(=O)[O-] (nonaromatic ring conformer: 101.18263455798518 kcal/mol)

>  <smiles>  (74) 
NC(=O)c1cc2ccc(NCCCN3CCOCC3)cc2n1C(=O)O

>  <score_type>  (74) 
oracle

>  <origin>  (74) 
adg

>  <m_score__min__energy>  (74) 
-11.01

>  <m_primary>  (74) 
energy

$$$$
74:0
     RDKit          3D

 45 47  0  0  0  0  0  0  0  0999 V2000
   -3.2750   24.5140  -27.2800 C   0  0  0  0  0  0  0  0  0  0  0  0
   -2.0160   25.3540  -27.4640 C   0  0  0  0  0  0  0  0  0  0  0  0
   -1.5160   25.2100  -28.7800 O   0  0  0  0  0  0  0  0  0  0  0  0
   -0.4860   24.2400  -28.8390 C   0  0  0  0  0  0  0  0  0  0  0  0
   -1.0170   22.9250  -29.4060 C   0  0  0  0  0  0  0  0  0  0  0  0
   -1.9730   23.2040  -30.4050 O   0  0  0  0  0  0  0  0  0  0  0  0
   -3.1370   22.4380  -30.1760 C   0  0  0  0  0  0  0  0  0  0  0  0
   -4.0300   22.4960  -31.3790 C   0  0  0  0  0  0  0  0  0  0  0  0
   -3.5360   22.2780  -32.5180 O   0  0  0  0  0  0  0  0  0  0  0  0
   -5.4250   22.8210  -31.2610 N   0  0  0  0  0  0  0  0  0  0  0  0
   -5.9690   23.9810  -30.7970 C   0  0  0  0  0  0  0  0  0  0  0  0
   -5.2210   25.2000  -30.4210 C   0  0  0  0  0  0  0  0  0  0  0  0
   -3.8740   25.3970  -30.8430 N   0  0  0  0  0  0  0  0  0  0  0  0
   -5.7910   26.0970  -29.7430 O   0  0  0  0  0  0  0  0  0  0  0  0
   -7.3590   23.8960  -30.7830 C   0  0  0  0  0  0  0  0  0  0  0  0
   -7.6530   22.6390  -31.2580 C   0  0  0  0  0  0  0  0  0  0  0  0
   -8.8830   22.0200  -31.4520 C   0  0  0  0  0  0  0  0  0  0  0  0
   -8.8910   20.7040  -31.9420 C   0  0  0  0  0  0  0  0  0  0  0  0
   -7.6710   20.0220  -32.2210 C   0  0  0  0  0  0  0  0  0  0  0  0
   -7.6060   18.5980  -32.7470 C   0  0  0  0  0  0  0  0  0  0  0  0
   -6.3370   18.1780  -33.4770 C   0  0  0  0  0  0  0  0  0  0  0  0
   -6.6190   17.6530  -32.0740 C   0  0  0  0  0  0  0  0  0  0  0  0
   -6.4460   20.6900  -32.0030 C   0  0  0  0  0  0  0  0  0  0  0  0
   -6.4710   22.0090  -31.5360 C   0  0  0  0  0  0  0  0  0  0  0  0
   -3.4737   24.3815  -26.2062 H   0  0  0  0  0  0  0  0  0  0  0  0
   -4.1283   25.0244  -27.7505 H   0  0  0  0  0  0  0  0  0  0  0  0
   -3.1314   23.5301  -27.7505 H   0  0  0  0  0  0  0  0  0  0  0  0
   -2.2559   26.4118  -27.2809 H   0  0  0  0  0  0  0  0  0  0  0  0
   -1.2509   25.0117  -26.7517 H   0  0  0  0  0  0  0  0  0  0  0  0
    0.3235   24.6113  -29.4847 H   0  0  0  0  0  0  0  0  0  0  0  0
   -0.1094   24.0606  -27.8212 H   0  0  0  0  0  0  0  0  0  0  0  0
   -0.1866   22.3500  -29.8416 H   0  0  0  0  0  0  0  0  0  0  0  0
   -1.4832   22.3368  -28.6018 H   0  0  0  0  0  0  0  0  0  0  0  0
   -2.8538   21.3930  -29.9819 H   0  0  0  0  0  0  0  0  0  0  0  0
   -3.6736   22.8451  -29.3063 H   0  0  0  0  0  0  0  0  0  0  0  0
   -3.0740   25.1030  -30.2400 H   0  0  0  0  0  0  0  0  0  0  0  0
   -8.0709   24.6700  -30.4604 H   0  0  0  0  0  0  0  0  0  0  0  0
   -9.8227   22.5461  -31.2281 H   0  0  0  0  0  0  0  0  0  0  0  0
   -9.8503   20.1934  -32.1125 H   0  0  0  0  0  0  0  0  0  0  0  0
   -8.6811   18.5673  -32.9777 H   0  0  0  0  0  0  0  0  0  0  0  0
   -6.3982   17.4997  -34.3408 H   0  0  0  0  0  0  0  0  0  0  0  0
   -5.5018   18.7110  -33.9549 H   0  0  0  0  0  0  0  0  0  0  0  0
   -6.8838   16.5958  -31.9252 H   0  0  0  0  0  0  0  0  0  0  0  0
   -6.0717   17.6501  -31.1198 H   0  0  0  0  0  0  0  0  0  0  0  0
   -5.4894   20.1827  -32.1968 H   0  0  0  0  0  0  0  0  0  0  0  0
  1  2  1  0
  2  3  1  0
  3  4  1  0
  4  5  1  0
  5  6  1  0
  6  7  1  0
  7  8  1  0
  8  9  2  0
  8 10  1  0
 10 11  1  0
 11 12  1  0
 12 13  1  0
 12 14  2  0
 11 15  2  0
 15 16  1  0
 16 17  2  0
 17 18  1  0
 18 19  2  0
 19 20  1  0
 20 21  1  0
 21 22  1  0
 19 23  1  0
 23 24  2  0
 24 10  1  0
 24 16  1  0
 22 20  1  0
  1 25  1  0
  1 26  1  0
  1 27  1  0
  2 28  1  0
  2 29  1  0
  4 30  1  0
  4 31  1  0
  5 32  1  0
  5 33  1  0
  7 34  1  0
  7 35  1  0
 13 36  1  0
 15 37  1  0
 17 38  1  0
 18 39  1  0
 20 40  1  0
 21 41  1  0
 21 42  1  0
 22 43  1  0
 22 44  1  0
 23 45  1  0
M  CHG  1  13  -1
M  END
>  <UniqueID>  (75) 
75

>  <SMILES>  (75) 
CCOCCOCC(=O)n1c(C([NH-])=O)cc2ccc(C3CC3)cc21

>  <Energy>  (75) 
351.54292234083937

>  <Genealogy>  (75) 
CCOCCOCC(=O)n1c(C([NH-])=O)cc2ccc(C3CC3)cc21 (protonated)
CCOCCOCC(=O)n1c(C([NH-])=O)cc2ccc(C3CC3)cc21 (3D coordinates assigned)
CCOCCOCC(=O)n1c(C([NH-])=O)cc2ccc(C3CC3)cc21 (nonaromatic ring conformer: 351.54292234083937 kcal/mol)

>  <smiles>  (75) 
CCOCCOCC(=O)n1c(C(N)=O)cc2ccc(C3CC3)cc21

>  <score_type>  (75) 
oracle

>  <origin>  (75) 
adg

>  <m_score__min__energy>  (75) 
-10.82

>  <m_primary>  (75) 
energy

$$$$
75:0
     RDKit          3D

 51 52  0  0  0  0  0  0  0  0999 V2000
   -0.1420   20.6550  -32.4120 C   0  0  0  0  0  0  0  0  0  0  0  0
   -1.4280   21.2350  -32.5960 O   0  0  0  0  0  0  0  0  0  0  0  0
   -2.4580   20.5840  -33.2790 C   0  0  0  0  0  0  0  0  0  0  0  0
   -3.4560   21.2330  -33.6960 O   0  0  0  0  0  0  0  0  0  0  0  0
   -2.3580   19.2070  -33.4990 O   0  0  0  0  0  0  0  0  0  0  0  0
   -3.3990   18.2800  -33.1980 C   0  0  0  0  0  0  0  0  0  0  0  0
   -4.5830   18.6370  -33.9060 O   0  0  0  0  0  0  0  0  0  0  0  0
   -5.7750   17.9080  -33.8370 C   0  0  0  0  0  0  0  0  0  0  0  0
   -6.1340   17.1630  -34.7900 O   0  0  0  0  0  0  0  0  0  0  0  0
   -6.6580   18.0670  -32.6430 C   0  0  0  0  0  0  0  0  0  0  0  0
   -6.8740   19.5300  -32.3790 C   0  0  0  0  0  0  0  0  0  0  0  0
   -8.1590   20.1030  -32.5410 C   0  0  0  0  0  0  0  0  0  0  0  0
   -8.3850   21.4540  -32.2290 C   0  0  0  0  0  0  0  0  0  0  0  0
   -7.3150   22.1980  -31.7390 C   0  0  0  0  0  0  0  0  0  0  0  0
   -7.2590   23.5190  -31.3570 C   0  0  0  0  0  0  0  0  0  0  0  0
   -5.9500   23.7200  -30.9280 C   0  0  0  0  0  0  0  0  0  0  0  0
   -5.4760   24.9880  -30.3430 C   0  0  0  0  0  0  0  0  0  0  0  0
   -4.1790   25.5020  -30.6500 N   0  0  0  0  0  0  0  0  0  0  0  0
   -6.2020   25.5990  -29.5140 O   0  0  0  0  0  0  0  0  0  0  0  0
   -5.2190   22.5770  -31.0530 N   0  0  0  0  0  0  0  0  0  0  0  0
   -3.8150   22.4140  -30.7980 C   0  0  0  0  0  0  0  0  0  0  0  0
   -2.9780   23.1350  -31.4080 O   0  0  0  0  0  0  0  0  0  0  0  0
   -3.3920   21.4510  -29.8690 O   0  0  0  0  0  0  0  0  0  0  0  0
   -2.9030   21.7030  -28.5430 C   0  0  0  0  0  0  0  0  0  0  0  0
   -3.8390   22.6700  -27.7920 C   0  0  0  0  0  0  0  0  0  0  0  0
   -1.5230   22.3620  -28.6870 C   0  0  0  0  0  0  0  0  0  0  0  0
   -2.7470   20.3830  -27.7640 C   0  0  0  0  0  0  0  0  0  0  0  0
   -6.0710   21.6520  -31.5510 C   0  0  0  0  0  0  0  0  0  0  0  0
   -5.8120   20.3160  -31.8800 C   0  0  0  0  0  0  0  0  0  0  0  0
    0.0672   20.5607  -31.3362 H   0  0  0  0  0  0  0  0  0  0  0  0
   -0.1187   19.6592  -32.8788 H   0  0  0  0  0  0  0  0  0  0  0  0
    0.6198   21.2967  -32.8788 H   0  0  0  0  0  0  0  0  0  0  0  0
   -3.0854   17.2690  -33.4972 H   0  0  0  0  0  0  0  0  0  0  0  0
   -3.6021   18.3004  -32.1171 H   0  0  0  0  0  0  0  0  0  0  0  0
   -7.6261   17.5809  -32.8341 H   0  0  0  0  0  0  0  0  0  0  0  0
   -6.1831   17.5999  -31.7676 H   0  0  0  0  0  0  0  0  0  0  0  0
   -8.9881   19.4842  -32.9147 H   0  0  0  0  0  0  0  0  0  0  0  0
   -9.3765   21.9099  -32.3675 H   0  0  0  0  0  0  0  0  0  0  0  0
   -8.0737   24.2575  -31.3847 H   0  0  0  0  0  0  0  0  0  0  0  0
   -3.4930   24.9380  -31.1990 H   0  0  0  0  0  0  0  0  0  0  0  0
   -3.8720   26.4210  -30.2590 H   0  0  0  0  0  0  0  0  0  0  0  0
   -3.7102   22.5369  -26.7077 H   0  0  0  0  0  0  0  0  0  0  0  0
   -3.5921   23.7063  -28.0661 H   0  0  0  0  0  0  0  0  0  0  0  0
   -4.8828   22.4570  -28.0661 H   0  0  0  0  0  0  0  0  0  0  0  0
   -1.1058   22.5612  -27.6889 H   0  0  0  0  0  0  0  0  0  0  0  0
   -0.8504   21.6879  -29.2376 H   0  0  0  0  0  0  0  0  0  0  0  0
   -1.6245   23.3088  -29.2376 H   0  0  0  0  0  0  0  0  0  0  0  0
   -2.7714   20.5896  -26.6839 H   0  0  0  0  0  0  0  0  0  0  0  0
   -3.5710   19.7031  -28.0260 H   0  0  0  0  0  0  0  0  0  0  0  0
   -1.7872   19.9139  -28.0260 H   0  0  0  0  0  0  0  0  0  0  0  0
   -4.8062   19.8891  -31.7530 H   0  0  0  0  0  0  0  0  0  0  0  0
  1  2  1  0
  2  3  1  0
  3  4  2  0
  3  5  1  0
  5  6  1  0
  6  7  1  0
  7  8  1  0
  8  9  2  0
  8 10  1  0
 10 11  1  0
 11 12  2  0
 12 13  1  0
 13 14  2  0
 14 15  1  0
 15 16  2  0
 16 17  1  0
 17 18  1  0
 17 19  2  0
 16 20  1  0
 20 21  1  0
 21 22  2  0
 21 23  1  0
 23 24  1  0
 24 25  1  0
 24 26  1  0
 24 27  1  0
 20 28  1  0
 28 29  2  0
 29 11  1  0
 28 14  1  0
  1 30  1  0
  1 31  1  0
  1 32  1  0
  6 33  1  0
  6 34  1  0
 10 35  1  0
 10 36  1  0
 12 37  1  0
 13 38  1  0
 15 39  1  0
 18 40  1  0
 18 41  1  0
 25 42  1  0
 25 43  1  0
 25 44  1  0
 26 45  1  0
 26 46  1  0
 26 47  1  0
 27 48  1  0
 27 49  1  0
 27 50  1  0
 29 51  1  0
M  END
>  <UniqueID>  (76) 
76

>  <SMILES>  (76) 
COC(=O)OCOC(=O)Cc1ccc2cc(C(N)=O)n(C(=O)OC(C)(C)C)c2c1

>  <Energy>  (76) 
76.873337959284

>  <Genealogy>  (76) 
COC(=O)OCOC(=O)Cc1ccc2cc(C(N)=O)n(C(=O)OC(C)(C)C)c2c1 (3D coordinates assigned)
COC(=O)OCOC(=O)Cc1ccc2cc(C(N)=O)n(C(=O)OC(C)(C)C)c2c1 (optimized conformer: 76.873337959284 kcal/mol)

>  <smiles>  (76) 
COC(=O)OCOC(=O)Cc1ccc2cc(C(N)=O)n(C(=O)OC(C)(C)C)c2c1

>  <score_type>  (76) 
oracle

>  <origin>  (76) 
adg

>  <m_score__min__energy>  (76) 
-8.0899999999999999

>  <m_primary>  (76) 
energy

$$$$
76:0
     RDKit          3D

 49 50  0  0  0  0  0  0  0  0999 V2000
   -3.1870   24.9760  -31.0430 H   0  0  0  0  0  0  0  0  0  0  0  0
   -3.9390   25.6760  -30.8520 N   0  0  0  0  0  0  0  0  0  0  0  0
   -5.2820   25.2610  -30.5990 C   0  0  0  0  0  0  0  0  0  0  0  0
   -6.0740   26.0550  -30.0260 O   0  0  0  0  0  0  0  0  0  0  0  0
   -5.7310   23.9250  -31.0370 C   0  0  0  0  0  0  0  0  0  0  0  0
   -7.0410   23.6380  -31.4220 C   0  0  0  0  0  0  0  0  0  0  0  0
   -7.8799   24.3441  -31.5096 H   0  0  0  0  0  0  0  0  0  0  0  0
   -7.0610   22.2840  -31.6690 C   0  0  0  0  0  0  0  0  0  0  0  0
   -8.0980   21.4630  -32.0890 C   0  0  0  0  0  0  0  0  0  0  0  0
   -9.1083   21.8666  -32.2516 H   0  0  0  0  0  0  0  0  0  0  0  0
   -7.8210   20.1000  -32.3010 C   0  0  0  0  0  0  0  0  0  0  0  0
   -8.6282   19.4306  -32.6331 H   0  0  0  0  0  0  0  0  0  0  0  0
   -6.5110   19.5690  -32.0930 C   0  0  0  0  0  0  0  0  0  0  0  0
   -6.2210   18.1640  -32.3580 N   0  0  0  0  0  0  0  0  0  0  0  0
   -6.1180   17.2070  -31.2460 C   0  0  0  0  0  0  0  0  0  0  0  0
   -6.1762   17.7480  -30.2900 H   0  0  0  0  0  0  0  0  0  0  0  0
   -6.9434   16.4825  -31.3081 H   0  0  0  0  0  0  0  0  0  0  0  0
   -5.1574   16.6747  -31.3081 H   0  0  0  0  0  0  0  0  0  0  0  0
   -6.0330   17.6640  -33.7340 C   0  0  0  0  0  0  0  0  0  0  0  0
   -5.7074   16.6140  -33.6962 H   0  0  0  0  0  0  0  0  0  0  0  0
   -6.9869   17.7462  -34.2756 H   0  0  0  0  0  0  0  0  0  0  0  0
   -4.9640   18.5020  -34.4740 C   0  0  0  0  0  0  0  0  0  0  0  0
   -4.7797   18.0359  -35.4532 H   0  0  0  0  0  0  0  0  0  0  0  0
   -5.3662   19.5229  -34.5516 H   0  0  0  0  0  0  0  0  0  0  0  0
   -3.6710   18.6130  -33.7650 N   0  0  0  0  0  0  0  0  0  0  0  0
   -3.0930   19.9630  -33.8250 C   0  0  0  0  0  0  0  0  0  0  0  0
   -2.9321   20.3387  -32.8037 H   0  0  0  0  0  0  0  0  0  0  0  0
   -2.1315   19.9268  -34.3581 H   0  0  0  0  0  0  0  0  0  0  0  0
   -3.7828   20.6338  -34.3581 H   0  0  0  0  0  0  0  0  0  0  0  0
   -2.6980   17.5940  -34.1900 C   0  0  0  0  0  0  0  0  0  0  0  0
   -2.2487   17.1235  -33.3030 H   0  0  0  0  0  0  0  0  0  0  0  0
   -3.2086   16.8282  -34.7923 H   0  0  0  0  0  0  0  0  0  0  0  0
   -1.9094   18.0687  -34.7923 H   0  0  0  0  0  0  0  0  0  0  0  0
   -5.4950   20.4520  -31.6390 C   0  0  0  0  0  0  0  0  0  0  0  0
   -4.4774   20.0800  -31.4491 H   0  0  0  0  0  0  0  0  0  0  0  0
   -5.8050   21.7980  -31.4370 C   0  0  0  0  0  0  0  0  0  0  0  0
   -4.9710   22.7910  -31.0630 N   0  0  0  0  0  0  0  0  0  0  0  0
   -3.5890   22.6280  -30.6980 C   0  0  0  0  0  0  0  0  0  0  0  0
   -2.7100   22.7040  -31.5980 O   0  0  0  0  0  0  0  0  0  0  0  0
   -3.1530   22.3330  -29.3140 C   0  0  0  0  0  0  0  0  0  0  0  0
   -3.5416   21.4113  -28.8563 H   0  0  0  0  0  0  0  0  0  0  0  0
   -2.3280   23.0830  -28.5630 C   0  0  0  0  0  0  0  0  0  0  0  0
   -1.4970   24.1730  -29.1150 C   0  0  0  0  0  0  0  0  0  0  0  0
   -1.9960   25.3160  -29.2880 O   0  0  0  0  0  0  0  0  0  0  0  0
   -0.1390   23.9810  -29.3420 O   0  0  0  0  0  0  0  0  0  0  0  0
   -2.0950   22.6790  -27.1310 C   0  0  0  0  0  0  0  0  0  0  0  0
   -2.5309   23.4349  -26.4612 H   0  0  0  0  0  0  0  0  0  0  0  0
   -2.5700   21.7048  -26.9429 H   0  0  0  0  0  0  0  0  0  0  0  0
   -1.0139   22.6022  -26.9429 H   0  0  0  0  0  0  0  0  0  0  0  0
  1  2  1  0
  2  3  1  0
  3  4  2  0
  3  5  1  0
  5  6  2  0
  6  7  1  0
  6  8  1  0
  8  9  2  0
  9 10  1  0
  9 11  1  0
 11 12  1  0
 11 13  2  0
 13 14  1  0
 14 15  1  0
 15 16  1  0
 15 17  1  0
 15 18  1  0
 14 19  1  0
 19 20  1  0
 19 21  1  0
 19 22  1  0
 22 23  1  0
 22 24  1  0
 22 25  1  0
 25 26  1  0
 26 27  1  0
 26 28  1  0
 26 29  1  0
 25 30  1  0
 30 31  1  0
 30 32  1  0
 30 33  1  0
 13 34  1  0
 34 35  1  0
 34 36  2  0
 36 37  1  0
 37 38  1  0
 38 39  2  0
 38 40  1  0
 40 41  1  0
 40 42  2  0
 42 43  1  0
 43 44  2  0
 43 45  1  0
 42 46  1  0
 46 47  1  0
 46 48  1  0
 46 49  1  0
 37  5  1  0
 36  8  1  0
M  CHG  2   2  -1  45  -1
M  END
>  <UniqueID>  (77) 
77

>  <SMILES>  (77) 
C/C(=C/C(=O)n1c(C([NH-])=O)cc2ccc(N(C)CCN(C)C)cc21)C(=O)[O-]

>  <Energy>  (77) 
97.45649722255096

>  <Genealogy>  (77) 
CC(=CC(=O)n1c(C([NH-])=O)cc2ccc(N(C)CCN(C)C)cc21)C(=O)[O-] (protonated)
C/C(=C/C(=O)n1c(C([NH-])=O)cc2ccc(N(C)CCN(C)C)cc21)C(=O)[O-] (cis-trans isomerization)
C/C(=C/C(=O)n1c(C([NH-])=O)cc2ccc(N(C)CCN(C)C)cc21)C(=O)[O-] (3D coordinates assigned)
C/C(=C/C(=O)n1c(C([NH-])=O)cc2ccc(N(C)CCN(C)C)cc21)C(=O)[O-] (optimized conformer: 97.45649722255096 kcal/mol)

>  <smiles>  (77) 
CC(=CC(=O)n1c(C(N)=O)cc2ccc(N(C)CCN(C)C)cc21)C(=O)O

>  <score_type>  (77) 
oracle

>  <origin>  (77) 
adg

>  <m_score__min__energy>  (77) 
-12.539999999999999

>  <m_primary>  (77) 
energy

$$$$
77:0
     RDKit          3D

 39 40  0  0  0  0  0  0  0  0999 V2000
   -0.9280   21.3230  -30.9550 C   0  0  0  0  0  0  0  0  0  0  0  0
   -1.7690   21.1580  -32.1460 N   0  0  0  0  0  0  0  0  0  0  0  0
   -1.3480   20.2290  -33.2010 C   0  0  0  0  0  0  0  0  0  0  0  0
   -2.9820   21.9250  -32.3460 C   0  0  0  0  0  0  0  0  0  0  0  0
   -3.4960   21.9620  -33.4980 O   0  0  0  0  0  0  0  0  0  0  0  0
   -3.6670   22.6710  -31.2590 C   0  0  0  0  0  0  0  0  0  0  0  0
   -3.0280   23.1190  -30.2720 O   0  0  0  0  0  0  0  0  0  0  0  0
   -5.0860   22.8870  -31.3210 N   0  0  0  0  0  0  0  0  0  0  0  0
   -5.7750   23.9910  -30.9200 C   0  0  0  0  0  0  0  0  0  0  0  0
   -5.1770   25.2440  -30.4130 C   0  0  0  0  0  0  0  0  0  0  0  0
   -3.8740   25.6340  -30.8420 N   0  0  0  0  0  0  0  0  0  0  0  0
   -5.7990   25.9680  -29.5910 O   0  0  0  0  0  0  0  0  0  0  0  0
   -7.1450   23.7970  -31.0920 C   0  0  0  0  0  0  0  0  0  0  0  0
   -7.2700   22.5260  -31.6090 C   0  0  0  0  0  0  0  0  0  0  0  0
   -8.4090   21.8080  -31.9530 C   0  0  0  0  0  0  0  0  0  0  0  0
   -8.2420   20.4990  -32.4370 C   0  0  0  0  0  0  0  0  0  0  0  0
   -6.9470   19.9200  -32.5640 C   0  0  0  0  0  0  0  0  0  0  0  0
   -6.7850   18.5660  -33.0580 N   0  0  0  0  0  0  0  0  0  0  0  0
   -7.3330   17.4270  -32.3110 C   0  0  0  0  0  0  0  0  0  0  0  0
   -6.0720   18.3120  -34.3160 C   0  0  0  0  0  0  0  0  0  0  0  0
   -5.8170   20.6930  -32.1940 C   0  0  0  0  0  0  0  0  0  0  0  0
   -6.0150   21.9990  -31.7350 C   0  0  0  0  0  0  0  0  0  0  0  0
   -1.5439   21.2022  -30.0516 H   0  0  0  0  0  0  0  0  0  0  0  0
   -0.1319   20.5639  -30.9603 H   0  0  0  0  0  0  0  0  0  0  0  0
   -0.4777   22.3266  -30.9603 H   0  0  0  0  0  0  0  0  0  0  0  0
   -0.9350   19.3177  -32.7438 H   0  0  0  0  0  0  0  0  0  0  0  0
   -2.2147   19.9657  -33.8250 H   0  0  0  0  0  0  0  0  0  0  0  0
   -0.5786   20.7072  -33.8250 H   0  0  0  0  0  0  0  0  0  0  0  0
   -3.0200   25.2730  -30.3590 H   0  0  0  0  0  0  0  0  0  0  0  0
   -7.9535   24.5071  -30.8637 H   0  0  0  0  0  0  0  0  0  0  0  0
   -9.4107   22.2506  -31.8497 H   0  0  0  0  0  0  0  0  0  0  0  0
   -9.1270   19.9115  -32.7227 H   0  0  0  0  0  0  0  0  0  0  0  0
   -7.2411   17.6180  -31.2316 H   0  0  0  0  0  0  0  0  0  0  0  0
   -8.3936   17.2942  -32.5709 H   0  0  0  0  0  0  0  0  0  0  0  0
   -6.7749   16.5154  -32.5709 H   0  0  0  0  0  0  0  0  0  0  0  0
   -5.0568   17.9504  -34.0955 H   0  0  0  0  0  0  0  0  0  0  0  0
   -6.6139   17.5516  -34.8975 H   0  0  0  0  0  0  0  0  0  0  0  0
   -6.0111   19.2437  -34.8975 H   0  0  0  0  0  0  0  0  0  0  0  0
   -4.8030   20.2728  -32.2668 H   0  0  0  0  0  0  0  0  0  0  0  0
  1  2  1  0
  2  3  1  0
  2  4  1  0
  4  5  2  0
  4  6  1  0
  6  7  2  0
  6  8  1  0
  8  9  1  0
  9 10  1  0
 10 11  1  0
 10 12  2  0
  9 13  2  0
 13 14  1  0
 14 15  2  0
 15 16  1  0
 16 17  2  0
 17 18  1  0
 18 19  1  0
 18 20  1  0
 17 21  1  0
 21 22  2  0
 22  8  1  0
 22 14  1  0
  1 23  1  0
  1 24  1  0
  1 25  1  0
  3 26  1  0
  3 27  1  0
  3 28  1  0
 11 29  1  0
 13 30  1  0
 15 31  1  0
 16 32  1  0
 19 33  1  0
 19 34  1  0
 19 35  1  0
 20 36  1  0
 20 37  1  0
 20 38  1  0
 21 39  1  0
M  CHG  1  11  -1
M  END
>  <UniqueID>  (78) 
78

>  <SMILES>  (78) 
CN(C)C(=O)C(=O)n1c(C([NH-])=O)cc2ccc(N(C)C)cc21

>  <Energy>  (78) 
79.93209869700692

>  <Genealogy>  (78) 
CN(C)C(=O)C(=O)n1c(C([NH-])=O)cc2ccc(N(C)C)cc21 (protonated)
CN(C)C(=O)C(=O)n1c(C([NH-])=O)cc2ccc(N(C)C)cc21 (3D coordinates assigned)
CN(C)C(=O)C(=O)n1c(C([NH-])=O)cc2ccc(N(C)C)cc21 (optimized conformer: 79.93209869700692 kcal/mol)

>  <smiles>  (78) 
CN(C)C(=O)C(=O)n1c(C(N)=O)cc2ccc(N(C)C)cc21

>  <score_type>  (78) 
oracle

>  <origin>  (78) 
adg

>  <m_score__min__energy>  (78) 
-9.9100000000000001

>  <m_primary>  (78) 
energy

$$$$
78:0
     RDKit          3D

 44 45  0  0  0  0  0  0  0  0999 V2000
   -1.6210   19.2890  -32.3330 C   0  0  0  0  0  0  0  0  0  0  0  0
   -2.5240   18.3910  -32.9700 O   0  0  0  0  0  0  0  0  0  0  0  0
   -3.6510   18.8280  -33.6740 C   0  0  0  0  0  0  0  0  0  0  0  0
   -3.8460   20.0650  -33.8530 O   0  0  0  0  0  0  0  0  0  0  0  0
   -4.5920   17.8690  -34.1900 N   0  0  0  0  0  0  0  0  0  0  0  0
   -4.1020   16.6550  -34.8550 C   0  0  0  0  0  0  0  0  0  0  0  0
   -6.0380   18.1170  -34.0770 C   0  0  0  0  0  0  0  0  0  0  0  0
   -6.4730   18.1790  -32.6070 C   0  0  0  0  0  0  0  0  0  0  0  0
   -6.7910   19.5910  -32.1910 C   0  0  0  0  0  0  0  0  0  0  0  0
   -8.1230   20.0750  -32.2630 C   0  0  0  0  0  0  0  0  0  0  0  0
   -8.4210   21.4050  -31.9190 C   0  0  0  0  0  0  0  0  0  0  0  0
   -7.3700   22.2250  -31.5130 C   0  0  0  0  0  0  0  0  0  0  0  0
   -7.3730   23.5440  -31.1140 C   0  0  0  0  0  0  0  0  0  0  0  0
   -6.0430   23.8440  -30.8190 C   0  0  0  0  0  0  0  0  0  0  0  0
   -5.5520   25.1850  -30.4250 C   0  0  0  0  0  0  0  0  0  0  0  0
   -4.2050   25.5810  -30.6870 N   0  0  0  0  0  0  0  0  0  0  0  0
   -6.3220   25.9880  -29.8370 O   0  0  0  0  0  0  0  0  0  0  0  0
   -5.2550   22.7540  -31.0310 N   0  0  0  0  0  0  0  0  0  0  0  0
   -3.8480   22.6240  -30.7860 C   0  0  0  0  0  0  0  0  0  0  0  0
   -3.0940   22.1840  -31.6930 O   0  0  0  0  0  0  0  0  0  0  0  0
   -3.2860   22.9040  -29.4250 C   0  0  0  0  0  0  0  0  0  0  0  0
   -2.1240   23.8340  -29.5410 C   0  0  0  0  0  0  0  0  0  0  0  0
   -0.9830   23.3870  -29.8270 O   0  0  0  0  0  0  0  0  0  0  0  0
   -2.3080   25.2010  -29.3750 O   0  0  0  0  0  0  0  0  0  0  0  0
   -6.0780   21.7750  -31.4560 C   0  0  0  0  0  0  0  0  0  0  0  0
   -5.7510   20.4560  -31.7850 C   0  0  0  0  0  0  0  0  0  0  0  0
   -1.7174   19.1931  -31.2414 H   0  0  0  0  0  0  0  0  0  0  0  0
   -0.5907   19.0470  -32.6327 H   0  0  0  0  0  0  0  0  0  0  0  0
   -1.8573   20.3207  -32.6327 H   0  0  0  0  0  0  0  0  0  0  0  0
   -3.8038   15.9163  -34.0964 H   0  0  0  0  0  0  0  0  0  0  0  0
   -4.9004   16.2335  -35.4834 H   0  0  0  0  0  0  0  0  0  0  0  0
   -3.2347   16.9058  -35.4834 H   0  0  0  0  0  0  0  0  0  0  0  0
   -6.2778   19.0740  -34.5636 H   0  0  0  0  0  0  0  0  0  0  0  0
   -6.5742   17.2904  -34.5661 H   0  0  0  0  0  0  0  0  0  0  0  0
   -7.3686   17.5549  -32.4715 H   0  0  0  0  0  0  0  0  0  0  0  0
   -5.6450   17.8108  -31.9834 H   0  0  0  0  0  0  0  0  0  0  0  0
   -8.9299   19.4032  -32.5911 H   0  0  0  0  0  0  0  0  0  0  0  0
   -9.4515   21.7865  -31.9687 H   0  0  0  0  0  0  0  0  0  0  0  0
   -8.2400   24.2173  -31.0432 H   0  0  0  0  0  0  0  0  0  0  0  0
   -3.5400   24.9590  -31.2010 H   0  0  0  0  0  0  0  0  0  0  0  0
   -3.8660   26.5200  -30.3770 H   0  0  0  0  0  0  0  0  0  0  0  0
   -4.0622   23.3655  -28.7969 H   0  0  0  0  0  0  0  0  0  0  0  0
   -2.9528   21.9606  -28.9678 H   0  0  0  0  0  0  0  0  0  0  0  0
   -4.7112   20.1014  -31.7291 H   0  0  0  0  0  0  0  0  0  0  0  0
  1  2  1  0
  2  3  1  0
  3  4  2  0
  3  5  1  0
  5  6  1  0
  5  7  1  0
  7  8  1  0
  8  9  1  0
  9 10  2  0
 10 11  1  0
 11 12  2  0
 12 13  1  0
 13 14  2  0
 14 15  1  0
 15 16  1  0
 15 17  2  0
 14 18  1  0
 18 19  1  0
 19 20  2  0
 19 21  1  0
 21 22  1  0
 22 23  2  0
 22 24  1  0
 18 25  1  0
 25 26  2  0
 26  9  1  0
 25 12  1  0
  1 27  1  0
  1 28  1  0
  1 29  1  0
  6 30  1  0
  6 31  1  0
  6 32  1  0
  7 33  1  0
  7 34  1  0
  8 35  1  0
  8 36  1  0
 10 37  1  0
 11 38  1  0
 13 39  1  0
 16 40  1  0
 16 41  1  0
 21 42  1  0
 21 43  1  0
 26 44  1  0
M  CHG  1  24  -1
M  END
>  <UniqueID>  (79) 
79

>  <SMILES>  (79) 
COC(=O)N(C)CCc1ccc2cc(C(N)=O)n(C(=O)CC(=O)[O-])c2c1

>  <Energy>  (79) 
72.36840004249899

>  <Genealogy>  (79) 
COC(=O)N(C)CCc1ccc2cc(C(N)=O)n(C(=O)CC(=O)[O-])c2c1 (protonated)
COC(=O)N(C)CCc1ccc2cc(C(N)=O)n(C(=O)CC(=O)[O-])c2c1 (3D coordinates assigned)
COC(=O)N(C)CCc1ccc2cc(C(N)=O)n(C(=O)CC(=O)[O-])c2c1 (optimized conformer: 72.36840004249899 kcal/mol)

>  <smiles>  (79) 
COC(=O)N(C)CCc1ccc2cc(C(N)=O)n(C(=O)CC(=O)O)c2c1

>  <score_type>  (79) 
oracle

>  <origin>  (79) 
adg

>  <m_score__min__energy>  (79) 
-10.43

>  <m_primary>  (79) 
energy

$$$$
79:0
     RDKit          3D

 36 38  0  0  0  0  0  0  0  0999 V2000
   -8.7890   18.5940  -31.6020 C   0  0  0  0  0  0  0  0  0  0  0  0
   -8.4780   19.3220  -32.8410 N   0  0  0  0  0  0  0  0  0  0  0  0
   -7.1060   19.1720  -33.3830 C   0  0  0  0  0  0  0  0  0  0  0  0
   -6.3260   20.4500  -33.4270 C   0  0  0  0  0  0  0  0  0  0  0  0
   -5.2830   20.0250  -32.4700 N   0  0  0  0  0  0  0  0  0  0  0  0
   -4.1110   20.5820  -31.8730 C   0  0  0  0  0  0  0  0  0  0  0  0
   -2.8800   19.8890  -31.9550 C   0  0  0  0  0  0  0  0  0  0  0  0
   -1.7170   20.4330  -31.3860 C   0  0  0  0  0  0  0  0  0  0  0  0
   -1.8190   21.6620  -30.7400 C   0  0  0  0  0  0  0  0  0  0  0  0
   -0.8510   22.4230  -30.1270 C   0  0  0  0  0  0  0  0  0  0  0  0
   -1.5110   23.5590  -29.6630 C   0  0  0  0  0  0  0  0  0  0  0  0
   -0.8610   24.6150  -28.8560 C   0  0  0  0  0  0  0  0  0  0  0  0
   -1.5970   25.7630  -28.4280 N   0  0  0  0  0  0  0  0  0  0  0  0
    0.3610   24.5280  -28.5650 O   0  0  0  0  0  0  0  0  0  0  0  0
   -2.8360   23.5030  -29.9780 N   0  0  0  0  0  0  0  0  0  0  0  0
   -3.8410   24.5020  -29.7290 C   0  0  0  0  0  0  0  0  0  0  0  0
   -4.6950   24.3330  -28.8190 O   0  0  0  0  0  0  0  0  0  0  0  0
   -3.8710   25.6710  -30.4790 O   0  0  0  0  0  0  0  0  0  0  0  0
   -3.0100   22.3360  -30.6380 C   0  0  0  0  0  0  0  0  0  0  0  0
   -4.1800   21.8240  -31.2120 C   0  0  0  0  0  0  0  0  0  0  0  0
   -6.0210   18.7460  -32.4340 C   0  0  0  0  0  0  0  0  0  0  0  0
   -8.5232   19.2161  -30.7346 H   0  0  0  0  0  0  0  0  0  0  0  0
   -9.8642   18.3635  -31.5722 H   0  0  0  0  0  0  0  0  0  0  0  0
   -8.2123   17.6578  -31.5722 H   0  0  0  0  0  0  0  0  0  0  0  0
   -9.1470   19.0010  -33.5780 H   0  0  0  0  0  0  0  0  0  0  0  0
   -7.3922   18.5667  -34.2558 H   0  0  0  0  0  0  0  0  0  0  0  0
   -5.9225   20.6678  -34.4269 H   0  0  0  0  0  0  0  0  0  0  0  0
   -6.8695   21.3786  -33.1984 H   0  0  0  0  0  0  0  0  0  0  0  0
   -2.8337   18.9171  -32.4682 H   0  0  0  0  0  0  0  0  0  0  0  0
   -0.7546   19.9040  -31.4488 H   0  0  0  0  0  0  0  0  0  0  0  0
    0.2181   22.1851  -30.0247 H   0  0  0  0  0  0  0  0  0  0  0  0
   -1.1190   26.5210  -27.8920 H   0  0  0  0  0  0  0  0  0  0  0  0
   -2.6230   25.8450  -28.6020 H   0  0  0  0  0  0  0  0  0  0  0  0
   -5.1286   22.3774  -31.1484 H   0  0  0  0  0  0  0  0  0  0  0  0
   -5.4286   17.9014  -32.8156 H   0  0  0  0  0  0  0  0  0  0  0  0
   -6.3321   18.3708  -31.4479 H   0  0  0  0  0  0  0  0  0  0  0  0
  1  2  1  0
  2  3  1  0
  3  4  1  0
  4  5  1  0
  5  6  1  0
  6  7  2  0
  7  8  1  0
  8  9  2  0
  9 10  1  0
 10 11  2  0
 11 12  1  0
 12 13  1  0
 12 14  2  0
 11 15  1  0
 15 16  1  0
 16 17  2  0
 16 18  1  0
 15 19  1  0
 19 20  2  0
  5 21  1  0
 21  3  1  0
 20  6  1  0
 19  9  1  0
  1 22  1  0
  1 23  1  0
  1 24  1  0
  2 25  1  0
  3 26  1  0
  4 27  1  0
  4 28  1  0
  7 29  1  0
  8 30  1  0
 10 31  1  0
 13 32  1  0
 13 33  1  0
 20 34  1  0
 21 35  1  0
 21 36  1  0
M  CHG  1  18  -1
M  END
>  <UniqueID>  (80) 
80

>  <SMILES>  (80) 
CNC1CN(c2ccc3cc(C(N)=O)n(C(=O)[O-])c3c2)C1

>  <Energy>  (80) 
127.97758581684529

>  <Genealogy>  (80) 
CNC1CN(c2ccc3cc(C(N)=O)n(C(=O)[O-])c3c2)C1 (protonated)
CNC1CN(c2ccc3cc(C(N)=O)n(C(=O)[O-])c3c2)C1 (3D coordinates assigned)
CNC1CN(c2ccc3cc(C(N)=O)n(C(=O)[O-])c3c2)C1 (nonaromatic ring conformer: 127.97758581684529 kcal/mol)

>  <smiles>  (80) 
CNC1CN(c2ccc3cc(C(N)=O)n(C(=O)O)c3c2)C1

>  <score_type>  (80) 
oracle

>  <origin>  (80) 
adg

>  <m_score__min__energy>  (80) 
-8.7599999999999998

>  <m_primary>  (80) 
energy

$$$$
80:0
     RDKit          3D

 43 45  0  0  0  0  0  0  0  0999 V2000
   -3.4280   22.3740  -28.7620 C   0  0  0  0  0  0  0  0  0  0  0  0
   -2.7850   22.6610  -29.8930 C   0  0  0  0  0  0  0  0  0  0  0  0
   -3.4180   22.5310  -31.2190 C   0  0  0  0  0  0  0  0  0  0  0  0
   -2.7160   22.3040  -32.2420 O   0  0  0  0  0  0  0  0  0  0  0  0
   -4.8460   22.6100  -31.3460 N   0  0  0  0  0  0  0  0  0  0  0  0
   -5.6660   23.6420  -31.0000 C   0  0  0  0  0  0  0  0  0  0  0  0
   -5.2280   24.9760  -30.5400 C   0  0  0  0  0  0  0  0  0  0  0  0
   -3.8440   25.3190  -30.5720 N   0  0  0  0  0  0  0  0  0  0  0  0
   -6.0590   25.8070  -30.0880 O   0  0  0  0  0  0  0  0  0  0  0  0
   -6.9990   23.3010  -31.2210 C   0  0  0  0  0  0  0  0  0  0  0  0
   -6.9690   22.0200  -31.7260 C   0  0  0  0  0  0  0  0  0  0  0  0
   -8.0110   21.1860  -32.1190 C   0  0  0  0  0  0  0  0  0  0  0  0
   -7.6850   19.9030  -32.5890 C   0  0  0  0  0  0  0  0  0  0  0  0
   -6.3340   19.4710  -32.6550 C   0  0  0  0  0  0  0  0  0  0  0  0
   -6.0110   18.1450  -33.1300 N   0  0  0  0  0  0  0  0  0  0  0  0
   -4.6820   17.8550  -33.6850 C   0  0  0  0  0  0  0  0  0  0  0  0
   -4.3660   16.3620  -33.5440 C   0  0  0  0  0  0  0  0  0  0  0  0
   -5.3780   15.5100  -34.2200 N   0  0  0  0  0  0  0  0  0  0  0  0
   -5.3210   14.1410  -33.6760 C   0  0  0  0  0  0  0  0  0  0  0  0
   -6.7690   16.0460  -34.1650 C   0  0  0  0  0  0  0  0  0  0  0  0
   -6.9870   17.0520  -33.0260 C   0  0  0  0  0  0  0  0  0  0  0  0
   -5.3050   20.3530  -32.2440 C   0  0  0  0  0  0  0  0  0  0  0  0
   -5.6590   21.6280  -31.7920 C   0  0  0  0  0  0  0  0  0  0  0  0
   -2.9161   22.4857  -27.7948 H   0  0  0  0  0  0  0  0  0  0  0  0
   -4.4708   22.0254  -28.7954 H   0  0  0  0  0  0  0  0  0  0  0  0
   -1.7427   23.0080  -29.8358 H   0  0  0  0  0  0  0  0  0  0  0  0
   -3.4840   26.0340  -31.2420 H   0  0  0  0  0  0  0  0  0  0  0  0
   -7.8865   23.9228  -31.0322 H   0  0  0  0  0  0  0  0  0  0  0  0
   -9.0573   21.5208  -32.0634 H   0  0  0  0  0  0  0  0  0  0  0  0
   -8.4878   19.2232  -32.9105 H   0  0  0  0  0  0  0  0  0  0  0  0
   -4.6641   18.1316  -34.7495 H   0  0  0  0  0  0  0  0  0  0  0  0
   -3.9276   18.4360  -33.1343 H   0  0  0  0  0  0  0  0  0  0  0  0
   -3.3805   16.1643  -33.9909 H   0  0  0  0  0  0  0  0  0  0  0  0
   -4.3756   16.1136  -32.4725 H   0  0  0  0  0  0  0  0  0  0  0  0
   -5.1060   15.4440  -35.2300 H   0  0  0  0  0  0  0  0  0  0  0  0
   -5.3227   14.1829  -32.5768 H   0  0  0  0  0  0  0  0  0  0  0  0
   -6.1962   13.5720  -34.0226 H   0  0  0  0  0  0  0  0  0  0  0  0
   -4.4015   13.6467  -34.0226 H   0  0  0  0  0  0  0  0  0  0  0  0
   -6.9884   16.5464  -35.1197 H   0  0  0  0  0  0  0  0  0  0  0  0
   -7.4397   15.1939  -33.9802 H   0  0  0  0  0  0  0  0  0  0  0  0
   -8.0046   17.4642  -33.0933 H   0  0  0  0  0  0  0  0  0  0  0  0
   -6.8559   16.5403  -32.0611 H   0  0  0  0  0  0  0  0  0  0  0  0
   -4.2505   20.0419  -32.2796 H   0  0  0  0  0  0  0  0  0  0  0  0
  1  2  2  0
  2  3  1  0
  3  4  2  0
  3  5  1  0
  5  6  1  0
  6  7  1  0
  7  8  1  0
  7  9  2  0
  6 10  2  0
 10 11  1  0
 11 12  2  0
 12 13  1  0
 13 14  2  0
 14 15  1  0
 15 16  1  0
 16 17  1  0
 17 18  1  0
 18 19  1  0
 18 20  1  0
 20 21  1  0
 14 22  1  0
 22 23  2  0
 23  5  1  0
 23 11  1  0
 21 15  1  0
  1 24  1  0
  1 25  1  0
  2 26  1  0
  8 27  1  0
 10 28  1  0
 12 29  1  0
 13 30  1  0
 16 31  1  0
 16 32  1  0
 17 33  1  0
 17 34  1  0
 18 35  1  0
 19 36  1  0
 19 37  1  0
 19 38  1  0
 20 39  1  0
 20 40  1  0
 21 41  1  0
 21 42  1  0
 22 43  1  0
M  CHG  2   8  -1  18   1
M  END
>  <UniqueID>  (81) 
81

>  <SMILES>  (81) 
C=CC(=O)n1c(C([NH-])=O)cc2ccc(N3CC[NH+](C)CC3)cc21

>  <Energy>  (81) 
92.0402226445336

>  <Genealogy>  (81) 
C=CC(=O)n1c(C([NH-])=O)cc2ccc(N3CC[NH+](C)CC3)cc21 (protonated)
C=CC(=O)n1c(C([NH-])=O)cc2ccc(N3CC[NH+](C)CC3)cc21 (3D coordinates assigned)
C=CC(=O)n1c(C([NH-])=O)cc2ccc(N3CC[NH+](C)CC3)cc21 (nonaromatic ring conformer: 92.0402226445336 kcal/mol)

>  <smiles>  (81) 
C=CC(=O)n1c(C(N)=O)cc2ccc(N3CCN(C)CC3)cc21

>  <score_type>  (81) 
oracle

>  <origin>  (81) 
adg

>  <m_score__min__energy>  (81) 
-9.9399999999999995

>  <m_primary>  (81) 
energy

$$$$
81:0
     RDKit          3D

 32 33  0  0  0  0  0  0  0  0999 V2000
   -3.8640   25.4970  -30.8390 N   0  0  0  0  0  0  0  0  0  0  0  0
   -5.2420   25.2530  -30.5640 C   0  0  0  0  0  0  0  0  0  0  0  0
   -5.9030   26.1090  -29.9160 O   0  0  0  0  0  0  0  0  0  0  0  0
   -5.8870   23.9880  -30.9750 C   0  0  0  0  0  0  0  0  0  0  0  0
   -7.2500   23.8760  -31.2380 C   0  0  0  0  0  0  0  0  0  0  0  0
   -7.4620   22.5400  -31.4960 C   0  0  0  0  0  0  0  0  0  0  0  0
   -8.6360   21.8670  -31.8180 C   0  0  0  0  0  0  0  0  0  0  0  0
   -8.5590   20.4860  -32.0580 C   0  0  0  0  0  0  0  0  0  0  0  0
   -7.3140   19.8070  -31.9980 C   0  0  0  0  0  0  0  0  0  0  0  0
   -7.2500   18.3170  -32.2200 C   0  0  0  0  0  0  0  0  0  0  0  0
   -6.3550   17.7300  -31.3420 F   0  0  0  0  0  0  0  0  0  0  0  0
   -8.5050   17.7730  -32.0160 F   0  0  0  0  0  0  0  0  0  0  0  0
   -6.8400   18.0320  -33.5110 F   0  0  0  0  0  0  0  0  0  0  0  0
   -6.1460   20.5240  -31.6430 C   0  0  0  0  0  0  0  0  0  0  0  0
   -6.2560   21.8970  -31.3920 C   0  0  0  0  0  0  0  0  0  0  0  0
   -5.2770   22.7730  -31.0720 N   0  0  0  0  0  0  0  0  0  0  0  0
   -3.8740   22.4880  -30.9720 C   0  0  0  0  0  0  0  0  0  0  0  0
   -3.1140   22.7030  -31.9560 O   0  0  0  0  0  0  0  0  0  0  0  0
   -3.3510   21.9910  -29.7750 O   0  0  0  0  0  0  0  0  0  0  0  0
   -3.6400   22.5720  -28.5080 C   0  0  0  0  0  0  0  0  0  0  0  0
   -2.8720   23.8810  -28.3530 C   0  0  0  0  0  0  0  0  0  0  0  0
   -1.9710   24.0510  -29.4130 O   0  0  0  0  0  0  0  0  0  0  0  0
   -3.2140   24.7120  -31.0630 H   0  0  0  0  0  0  0  0  0  0  0  0
   -7.9978   24.6827  -31.2394 H   0  0  0  0  0  0  0  0  0  0  0  0
   -9.5957   22.4007  -31.8826 H   0  0  0  0  0  0  0  0  0  0  0  0
   -9.4741   19.9236  -32.2953 H   0  0  0  0  0  0  0  0  0  0  0  0
   -5.1744   20.0141  -31.5661 H   0  0  0  0  0  0  0  0  0  0  0  0
   -4.7194   22.7710  -28.4351 H   0  0  0  0  0  0  0  0  0  0  0  0
   -3.3369   21.8764  -27.7116 H   0  0  0  0  0  0  0  0  0  0  0  0
   -3.5840   24.7195  -28.3453 H   0  0  0  0  0  0  0  0  0  0  0  0
   -2.3085   23.8527  -27.4087 H   0  0  0  0  0  0  0  0  0  0  0  0
   -2.4880   23.9190  -30.2500 H   0  0  0  0  0  0  0  0  0  0  0  0
  1  2  1  0
  2  3  2  0
  2  4  1  0
  4  5  2  0
  5  6  1  0
  6  7  2  0
  7  8  1  0
  8  9  2  0
  9 10  1  0
 10 11  1  0
 10 12  1  0
 10 13  1  0
  9 14  1  0
 14 15  2  0
 15 16  1  0
 16 17  1  0
 17 18  2  0
 17 19  1  0
 19 20  1  0
 20 21  1  0
 21 22  1  0
 16  4  1  0
 15  6  1  0
  1 23  1  0
  5 24  1  0
  7 25  1  0
  8 26  1  0
 14 27  1  0
 20 28  1  0
 20 29  1  0
 21 30  1  0
 21 31  1  0
 22 32  1  0
M  CHG  1   1  -1
M  END
>  <UniqueID>  (82) 
82

>  <SMILES>  (82) 
[NH-]C(=O)c1cc2ccc(C(F)(F)F)cc2n1C(=O)OCCO

>  <Energy>  (82) 
67.52795787257361

>  <Genealogy>  (82) 
[NH-]C(=O)c1cc2ccc(C(F)(F)F)cc2n1C(=O)OCCO (protonated)
[NH-]C(=O)c1cc2ccc(C(F)(F)F)cc2n1C(=O)OCCO (3D coordinates assigned)
[NH-]C(=O)c1cc2ccc(C(F)(F)F)cc2n1C(=O)OCCO (optimized conformer: 67.52795787257361 kcal/mol)

>  <smiles>  (82) 
NC(=O)c1cc2ccc(C(F)(F)F)cc2n1C(=O)OCCO

>  <score_type>  (82) 
oracle

>  <origin>  (82) 
adg

>  <m_score__min__energy>  (82) 
-9.5500000000000007

>  <m_primary>  (82) 
energy

$$$$
82:0
     RDKit          3D

 31 32  0  0  0  0  0  0  0  0999 V2000
   -4.2410   25.6560  -30.5160 N   0  0  0  0  0  0  0  0  0  0  0  0
   -5.4990   24.9980  -30.3930 C   0  0  0  0  0  0  0  0  0  0  0  0
   -6.4390   25.5690  -29.7800 O   0  0  0  0  0  0  0  0  0  0  0  0
   -5.6960   23.6680  -31.0040 C   0  0  0  0  0  0  0  0  0  0  0  0
   -6.8460   23.2910  -31.6960 C   0  0  0  0  0  0  0  0  0  0  0  0
   -6.6600   21.9650  -32.0200 C   0  0  0  0  0  0  0  0  0  0  0  0
   -7.4910   21.0790  -32.7000 C   0  0  0  0  0  0  0  0  0  0  0  0
   -7.0380   19.7610  -32.8830 C   0  0  0  0  0  0  0  0  0  0  0  0
   -5.7750   19.3570  -32.3870 C   0  0  0  0  0  0  0  0  0  0  0  0
   -5.3250   18.0140  -32.5790 N   0  0  0  0  0  0  0  0  0  0  0  0
   -4.9590   20.2810  -31.7010 C   0  0  0  0  0  0  0  0  0  0  0  0
   -5.4360   21.5840  -31.5330 C   0  0  0  0  0  0  0  0  0  0  0  0
   -4.8290   22.6200  -30.9200 N   0  0  0  0  0  0  0  0  0  0  0  0
   -3.5300   22.5970  -30.3120 C   0  0  0  0  0  0  0  0  0  0  0  0
   -2.5090   22.7650  -31.0310 O   0  0  0  0  0  0  0  0  0  0  0  0
   -3.3790   22.4630  -28.8220 C   0  0  0  0  0  0  0  0  0  0  0  0
   -4.5310   21.9360  -28.2670 F   0  0  0  0  0  0  0  0  0  0  0  0
   -2.3220   21.6160  -28.5380 F   0  0  0  0  0  0  0  0  0  0  0  0
   -3.0680   24.0590  -28.0810 S   0  0  0  0  0  0  0  0  0  0  0  0
   -4.5520   24.9010  -27.7910 N   0  0  0  0  0  0  0  0  0  0  0  0
   -2.3320   23.8810  -26.7830 O   0  0  0  0  0  0  0  0  0  0  0  0
   -2.2200   24.8750  -29.0170 O   0  0  0  0  0  0  0  0  0  0  0  0
   -3.5670   25.6780  -29.7180 H   0  0  0  0  0  0  0  0  0  0  0  0
   -7.7173   23.9192  -31.9331 H   0  0  0  0  0  0  0  0  0  0  0  0
   -8.4712   21.4002  -33.0821 H   0  0  0  0  0  0  0  0  0  0  0  0
   -7.6708   19.0366  -33.4166 H   0  0  0  0  0  0  0  0  0  0  0  0
   -4.3870   17.8190  -32.9960 H   0  0  0  0  0  0  0  0  0  0  0  0
   -5.9290   17.2040  -32.3110 H   0  0  0  0  0  0  0  0  0  0  0  0
   -3.9749   19.9843  -31.3093 H   0  0  0  0  0  0  0  0  0  0  0  0
   -5.3310   24.2220  -27.9420 H   0  0  0  0  0  0  0  0  0  0  0  0
   -4.6390   25.6370  -28.5260 H   0  0  0  0  0  0  0  0  0  0  0  0
  1  2  1  0
  2  3  2  0
  2  4  1  0
  4  5  2  0
  5  6  1  0
  6  7  2  0
  7  8  1  0
  8  9  2  0
  9 10  1  0
  9 11  1  0
 11 12  2  0
 12 13  1  0
 13 14  1  0
 14 15  2  0
 14 16  1  0
 16 17  1  0
 16 18  1  0
 16 19  1  0
 19 20  1  0
 19 21  2  0
 19 22  2  0
 13  4  1  0
 12  6  1  0
  1 23  1  0
  5 24  1  0
  7 25  1  0
  8 26  1  0
 10 27  1  0
 10 28  1  0
 11 29  1  0
 20 30  1  0
 20 31  1  0
M  CHG  1   1  -1
M  END
>  <UniqueID>  (83) 
83

>  <SMILES>  (83) 
[NH-]C(=O)c1cc2ccc(N)cc2n1C(=O)C(F)(F)S(N)(=O)=O

>  <Energy>  (83) 
63.74180793577211

>  <Genealogy>  (83) 
[NH-]C(=O)c1cc2ccc(N)cc2n1C(=O)C(F)(F)S(N)(=O)=O (protonated)
[NH-]C(=O)c1cc2ccc(N)cc2n1C(=O)C(F)(F)S(N)(=O)=O (3D coordinates assigned)
[NH-]C(=O)c1cc2ccc(N)cc2n1C(=O)C(F)(F)S(N)(=O)=O (optimized conformer: 63.74180793577211 kcal/mol)

>  <smiles>  (83) 
NC(=O)c1cc2ccc(N)cc2n1C(=O)C(F)(F)S(N)(=O)=O

>  <score_type>  (83) 
oracle

>  <origin>  (83) 
adg

>  <m_score__min__energy>  (83) 
-9.2699999999999996

>  <m_primary>  (83) 
energy

$$$$
83:0
     RDKit          3D

 41 42  0  0  0  0  0  0  0  0999 V2000
   -1.5280   25.4100  -26.8200 C   0  0  0  0  0  0  0  0  0  0  0  0
   -1.5740   24.0540  -27.3770 N   0  0  0  0  0  0  0  0  0  0  0  0
   -1.2620   22.8990  -26.5280 C   0  0  0  0  0  0  0  0  0  0  0  0
   -1.9490   23.8770  -28.7600 C   0  0  0  0  0  0  0  0  0  0  0  0
   -2.3080   24.8770  -29.4420 O   0  0  0  0  0  0  0  0  0  0  0  0
   -1.9850   22.5110  -29.3990 C   0  0  0  0  0  0  0  0  0  0  0  0
   -3.3130   22.1560  -29.7810 O   0  0  0  0  0  0  0  0  0  0  0  0
   -3.8940   22.5520  -30.9910 C   0  0  0  0  0  0  0  0  0  0  0  0
   -3.1710   22.7770  -31.9990 O   0  0  0  0  0  0  0  0  0  0  0  0
   -5.3210   22.7010  -31.0850 N   0  0  0  0  0  0  0  0  0  0  0  0
   -6.0480   23.8400  -30.9140 C   0  0  0  0  0  0  0  0  0  0  0  0
   -5.5270   25.1350  -30.4340 C   0  0  0  0  0  0  0  0  0  0  0  0
   -4.2030   25.5660  -30.7570 N   0  0  0  0  0  0  0  0  0  0  0  0
   -6.2410   25.8510  -29.6820 O   0  0  0  0  0  0  0  0  0  0  0  0
   -7.3910   23.6160  -31.2040 C   0  0  0  0  0  0  0  0  0  0  0  0
   -7.4700   22.2870  -31.5500 C   0  0  0  0  0  0  0  0  0  0  0  0
   -8.5710   21.5290  -31.9410 C   0  0  0  0  0  0  0  0  0  0  0  0
   -8.3570   20.1820  -32.2740 C   0  0  0  0  0  0  0  0  0  0  0  0
   -7.0550   19.6250  -32.2320 C   0  0  0  0  0  0  0  0  0  0  0  0
   -6.8400   18.1770  -32.5760 C   0  0  0  0  0  0  0  0  0  0  0  0
   -6.1000   18.0510  -33.8730 C   0  0  0  0  0  0  0  0  0  0  0  0
   -6.0660   18.9840  -34.6590 O   0  0  0  0  0  0  0  0  0  0  0  0
   -5.9630   20.4220  -31.8230 C   0  0  0  0  0  0  0  0  0  0  0  0
   -6.2080   21.7560  -31.4730 C   0  0  0  0  0  0  0  0  0  0  0  0
   -1.5299   25.3554  -25.7214 H   0  0  0  0  0  0  0  0  0  0  0  0
   -0.6122   25.9154  -27.1604 H   0  0  0  0  0  0  0  0  0  0  0  0
   -2.4075   25.9763  -27.1604 H   0  0  0  0  0  0  0  0  0  0  0  0
   -1.3405   23.1897  -25.4700 H   0  0  0  0  0  0  0  0  0  0  0  0
   -1.9728   22.0864  -26.7387 H   0  0  0  0  0  0  0  0  0  0  0  0
   -0.2387   22.5548  -26.7387 H   0  0  0  0  0  0  0  0  0  0  0  0
   -1.3435   22.5157  -30.2926 H   0  0  0  0  0  0  0  0  0  0  0  0
   -1.6239   21.7738  -28.6668 H   0  0  0  0  0  0  0  0  0  0  0  0
   -3.8670   26.5030  -30.4440 H   0  0  0  0  0  0  0  0  0  0  0  0
   -3.5280   24.9250  -31.2270 H   0  0  0  0  0  0  0  0  0  0  0  0
   -8.2132   24.3457  -31.1648 H   0  0  0  0  0  0  0  0  0  0  0  0
   -9.5768   21.9719  -31.9875 H   0  0  0  0  0  0  0  0  0  0  0  0
   -9.2090   19.5526  -32.5706 H   0  0  0  0  0  0  0  0  0  0  0  0
   -6.2549   17.6980  -31.7772 H   0  0  0  0  0  0  0  0  0  0  0  0
   -7.8190   17.6853  -32.6752 H   0  0  0  0  0  0  0  0  0  0  0  0
   -5.5839   17.1111  -34.1183 H   0  0  0  0  0  0  0  0  0  0  0  0
   -4.9458   20.0056  -31.7804 H   0  0  0  0  0  0  0  0  0  0  0  0
  1  2  1  0
  2  3  1  0
  2  4  1  0
  4  5  2  0
  4  6  1  0
  6  7  1  0
  7  8  1  0
  8  9  2  0
  8 10  1  0
 10 11  1  0
 11 12  1  0
 12 13  1  0
 12 14  2  0
 11 15  2  0
 15 16  1  0
 16 17  2  0
 17 18  1  0
 18 19  2  0
 19 20  1  0
 20 21  1  0
 21 22  2  0
 19 23  1  0
 23 24  2  0
 24 10  1  0
 24 16  1  0
  1 25  1  0
  1 26  1  0
  1 27  1  0
  3 28  1  0
  3 29  1  0
  3 30  1  0
  6 31  1  0
  6 32  1  0
 13 33  1  0
 13 34  1  0
 15 35  1  0
 17 36  1  0
 18 37  1  0
 20 38  1  0
 20 39  1  0
 21 40  1  0
 23 41  1  0
M  END
>  <UniqueID>  (84) 
84

>  <SMILES>  (84) 
CN(C)C(=O)COC(=O)n1c(C(N)=O)cc2ccc(CC=O)cc21

>  <Energy>  (84) 
74.1711734902308

>  <Genealogy>  (84) 
CN(C)C(=O)COC(=O)n1c(C(N)=O)cc2ccc(CC=O)cc21 (3D coordinates assigned)
CN(C)C(=O)COC(=O)n1c(C(N)=O)cc2ccc(CC=O)cc21 (optimized conformer: 74.1711734902308 kcal/mol)

>  <smiles>  (84) 
CN(C)C(=O)COC(=O)n1c(C(N)=O)cc2ccc(CC=O)cc21

>  <score_type>  (84) 
oracle

>  <origin>  (84) 
adg

>  <m_score__min__energy>  (84) 
-9.1699999999999999

>  <m_primary>  (84) 
energy

$$$$
84:0
     RDKit          3D

 25 26  0  0  0  0  0  0  0  0999 V2000
   -2.0060   25.5070  -28.9710 N   0  0  0  0  0  0  0  0  0  0  0  0
   -1.3040   24.3180  -29.3210 C   0  0  0  0  0  0  0  0  0  0  0  0
   -0.0920   24.2000  -28.9980 O   0  0  0  0  0  0  0  0  0  0  0  0
   -1.9610   23.2470  -30.1000 C   0  0  0  0  0  0  0  0  0  0  0  0
   -1.2940   22.1110  -30.5540 C   0  0  0  0  0  0  0  0  0  0  0  0
   -2.2200   21.4150  -31.2950 C   0  0  0  0  0  0  0  0  0  0  0  0
   -2.1030   20.1970  -31.9570 C   0  0  0  0  0  0  0  0  0  0  0  0
   -3.2380   19.6920  -32.6120 C   0  0  0  0  0  0  0  0  0  0  0  0
   -4.4620   20.4090  -32.6030 C   0  0  0  0  0  0  0  0  0  0  0  0
   -5.6890   19.8240  -33.2540 C   0  0  0  0  0  0  0  0  0  0  0  0
   -6.6230   20.8230  -33.4470 F   0  0  0  0  0  0  0  0  0  0  0  0
   -6.2420   18.8380  -32.4550 F   0  0  0  0  0  0  0  0  0  0  0  0
   -5.3710   19.2610  -34.4780 F   0  0  0  0  0  0  0  0  0  0  0  0
   -4.5470   21.6320  -31.8960 C   0  0  0  0  0  0  0  0  0  0  0  0
   -3.3940   22.1220  -31.2700 C   0  0  0  0  0  0  0  0  0  0  0  0
   -3.2520   23.2500  -30.5390 N   0  0  0  0  0  0  0  0  0  0  0  0
   -4.2870   24.1960  -30.2230 C   0  0  0  0  0  0  0  0  0  0  0  0
   -4.2030   25.5370  -30.6990 N   0  0  0  0  0  0  0  0  0  0  0  0
   -5.2800   23.8410  -29.5340 O   0  0  0  0  0  0  0  0  0  0  0  0
   -2.9810   25.6740  -29.3080 H   0  0  0  0  0  0  0  0  0  0  0  0
   -0.2481   21.8304  -30.3606 H   0  0  0  0  0  0  0  0  0  0  0  0
   -1.1508   19.6464  -31.9671 H   0  0  0  0  0  0  0  0  0  0  0  0
   -3.1771   18.7282  -33.1387 H   0  0  0  0  0  0  0  0  0  0  0  0
   -5.4964   22.1847  -31.8395 H   0  0  0  0  0  0  0  0  0  0  0  0
   -3.8820   26.3090  -30.0740 H   0  0  0  0  0  0  0  0  0  0  0  0
  1  2  1  0
  2  3  2  0
  2  4  1  0
  4  5  2  0
  5  6  1  0
  6  7  2  0
  7  8  1  0
  8  9  2  0
  9 10  1  0
 10 11  1  0
 10 12  1  0
 10 13  1  0
  9 14  1  0
 14 15  2  0
 15 16  1  0
 16 17  1  0
 17 18  1  0
 17 19  2  0
 16  4  1  0
 15  6  1  0
  1 20  1  0
  5 21  1  0
  7 22  1  0
  8 23  1  0
 14 24  1  0
 18 25  1  0
M  CHG  2   1  -1  18  -1
M  END
>  <UniqueID>  (85) 
85

>  <SMILES>  (85) 
[NH-]C(=O)c1cc2ccc(C(F)(F)F)cc2n1C([NH-])=O

>  <Energy>  (85) 
65.61076771563638

>  <Genealogy>  (85) 
[NH-]C(=O)c1cc2ccc(C(F)(F)F)cc2n1C([NH-])=O (protonated)
[NH-]C(=O)c1cc2ccc(C(F)(F)F)cc2n1C([NH-])=O (3D coordinates assigned)
[NH-]C(=O)c1cc2ccc(C(F)(F)F)cc2n1C([NH-])=O (optimized conformer: 65.61076771563638 kcal/mol)

>  <smiles>  (85) 
NC(=O)c1cc2ccc(C(F)(F)F)cc2n1C(N)=O

>  <score_type>  (85) 
oracle

>  <origin>  (85) 
adg

>  <m_score__min__energy>  (85) 
-9.3100000000000005

>  <m_primary>  (85) 
energy

$$$$
85:0
     RDKit          3D

 31 32  0  0  0  0  0  0  0  0999 V2000
   -2.2710   25.2360  -29.3410 N   0  0  0  0  0  0  0  0  0  0  0  0
   -2.0650   23.8470  -29.5850 C   0  0  0  0  0  0  0  0  0  0  0  0
   -0.9100   23.4210  -29.8530 O   0  0  0  0  0  0  0  0  0  0  0  0
   -3.2240   22.9020  -29.5580 C   0  0  0  0  0  0  0  0  0  0  0  0
   -3.7940   22.7210  -30.9360 C   0  0  0  0  0  0  0  0  0  0  0  0
   -3.0210   22.4550  -31.8970 O   0  0  0  0  0  0  0  0  0  0  0  0
   -5.2060   22.8440  -31.1750 N   0  0  0  0  0  0  0  0  0  0  0  0
   -6.0050   23.9010  -30.8550 C   0  0  0  0  0  0  0  0  0  0  0  0
   -5.5500   25.1970  -30.3090 C   0  0  0  0  0  0  0  0  0  0  0  0
   -6.1710   25.7790  -29.1620 N   0  0  0  0  0  0  0  0  0  0  0  0
   -4.5670   25.7800  -30.8390 O   0  0  0  0  0  0  0  0  0  0  0  0
   -7.3410   23.6020  -31.1070 C   0  0  0  0  0  0  0  0  0  0  0  0
   -7.3400   22.3160  -31.5980 C   0  0  0  0  0  0  0  0  0  0  0  0
   -8.4040   21.5040  -31.9770 C   0  0  0  0  0  0  0  0  0  0  0  0
   -8.1170   20.1910  -32.3840 C   0  0  0  0  0  0  0  0  0  0  0  0
   -6.7840   19.7120  -32.3900 C   0  0  0  0  0  0  0  0  0  0  0  0
   -6.5030   18.2940  -32.7990 C   0  0  0  0  0  0  0  0  0  0  0  0
   -6.2950   18.2330  -34.1650 F   0  0  0  0  0  0  0  0  0  0  0  0
   -7.5780   17.4920  -32.4650 F   0  0  0  0  0  0  0  0  0  0  0  0
   -5.7300   20.5630  -31.9900 C   0  0  0  0  0  0  0  0  0  0  0  0
   -6.0400   21.8780  -31.6210 C   0  0  0  0  0  0  0  0  0  0  0  0
   -3.2330   25.6440  -29.3490 H   0  0  0  0  0  0  0  0  0  0  0  0
   -2.8863   21.9273  -29.1761 H   0  0  0  0  0  0  0  0  0  0  0  0
   -4.0046   23.3185  -28.9044 H   0  0  0  0  0  0  0  0  0  0  0  0
   -5.8720   26.7230  -28.8290 H   0  0  0  0  0  0  0  0  0  0  0  0
   -6.8490   25.2390  -28.5830 H   0  0  0  0  0  0  0  0  0  0  0  0
   -8.2121   24.2545  -30.9477 H   0  0  0  0  0  0  0  0  0  0  0  0
   -9.4380   21.8788  -31.9585 H   0  0  0  0  0  0  0  0  0  0  0  0
   -8.9354   19.5280  -32.7013 H   0  0  0  0  0  0  0  0  0  0  0  0
   -5.6025   17.9407  -32.2752 H   0  0  0  0  0  0  0  0  0  0  0  0
   -4.6912   20.2018  -31.9688 H   0  0  0  0  0  0  0  0  0  0  0  0
  1  2  1  0
  2  3  2  0
  2  4  1  0
  4  5  1  0
  5  6  2  0
  5  7  1  0
  7  8  1  0
  8  9  1  0
  9 10  1  0
  9 11  2  0
  8 12  2  0
 12 13  1  0
 13 14  2  0
 14 15  1  0
 15 16  2  0
 16 17  1  0
 17 18  1  0
 17 19  1  0
 16 20  1  0
 20 21  2  0
 21  7  1  0
 21 13  1  0
  1 22  1  0
  4 23  1  0
  4 24  1  0
 10 25  1  0
 10 26  1  0
 12 27  1  0
 14 28  1  0
 15 29  1  0
 17 30  1  0
 20 31  1  0
M  CHG  1   1  -1
M  END
>  <UniqueID>  (86) 
86

>  <SMILES>  (86) 
[NH-]C(=O)CC(=O)n1c(C(N)=O)cc2ccc(C(F)F)cc21

>  <Energy>  (86) 
68.83936604313257

>  <Genealogy>  (86) 
[NH-]C(=O)CC(=O)n1c(C(N)=O)cc2ccc(C(F)F)cc21 (protonated)
[NH-]C(=O)CC(=O)n1c(C(N)=O)cc2ccc(C(F)F)cc21 (3D coordinates assigned)
[NH-]C(=O)CC(=O)n1c(C(N)=O)cc2ccc(C(F)F)cc21 (optimized conformer: 68.83936604313257 kcal/mol)

>  <smiles>  (86) 
NC(=O)CC(=O)n1c(C(N)=O)cc2ccc(C(F)F)cc21

>  <score_type>  (86) 
oracle

>  <origin>  (86) 
adg

>  <m_score__min__energy>  (86) 
-10.41

>  <m_primary>  (86) 
energy

$$$$
86:0
     RDKit          3D

 34 35  0  0  0  0  0  0  0  0999 V2000
   -2.0060   21.8120  -31.8550 C   0  0  0  0  0  0  0  0  0  0  0  0
   -2.6460   21.2970  -32.9030 C   0  0  0  0  0  0  0  0  0  0  0  0
   -3.5400   20.1290  -32.7980 C   0  0  0  0  0  0  0  0  0  0  0  0
   -3.0340   18.9900  -32.6170 O   0  0  0  0  0  0  0  0  0  0  0  0
   -4.9680   20.2570  -32.9080 N   0  0  0  0  0  0  0  0  0  0  0  0
   -5.8210   19.4230  -33.5650 C   0  0  0  0  0  0  0  0  0  0  0  0
   -5.4280   18.2950  -34.4330 C   0  0  0  0  0  0  0  0  0  0  0  0
   -4.6680   17.1960  -33.9290 N   0  0  0  0  0  0  0  0  0  0  0  0
   -5.7330   18.3200  -35.6550 O   0  0  0  0  0  0  0  0  0  0  0  0
   -7.1440   19.7780  -33.3110 C   0  0  0  0  0  0  0  0  0  0  0  0
   -7.0740   20.8640  -32.4680 C   0  0  0  0  0  0  0  0  0  0  0  0
   -8.0910   21.6110  -31.8810 C   0  0  0  0  0  0  0  0  0  0  0  0
   -7.7250   22.6570  -31.0160 C   0  0  0  0  0  0  0  0  0  0  0  0
   -6.3600   22.9210  -30.7400 C   0  0  0  0  0  0  0  0  0  0  0  0
   -5.9750   24.0590  -29.8310 C   0  0  0  0  0  0  0  0  0  0  0  0
   -4.5490   23.9000  -29.2920 C   0  0  0  0  0  0  0  0  0  0  0  0
   -3.6210   24.9220  -29.8730 C   0  0  0  0  0  0  0  0  0  0  0  0
   -3.9650   25.5860  -30.8860 O   0  0  0  0  0  0  0  0  0  0  0  0
   -2.3590   25.1090  -29.3230 O   0  0  0  0  0  0  0  0  0  0  0  0
   -5.3570   22.1400  -31.3540 C   0  0  0  0  0  0  0  0  0  0  0  0
   -5.7490   21.1260  -32.2320 C   0  0  0  0  0  0  0  0  0  0  0  0
   -1.3496   22.6849  -31.9860 H   0  0  0  0  0  0  0  0  0  0  0  0
   -2.1337   21.3645  -30.8583 H   0  0  0  0  0  0  0  0  0  0  0  0
   -2.5017   21.7627  -33.8891 H   0  0  0  0  0  0  0  0  0  0  0  0
   -4.2280   17.2300  -32.9830 H   0  0  0  0  0  0  0  0  0  0  0  0
   -4.4540   16.3810  -34.5450 H   0  0  0  0  0  0  0  0  0  0  0  0
   -8.0513   19.2936  -33.7010 H   0  0  0  0  0  0  0  0  0  0  0  0
   -9.1486   21.3898  -32.0875 H   0  0  0  0  0  0  0  0  0  0  0  0
   -8.5051   23.2763  -30.5491 H   0  0  0  0  0  0  0  0  0  0  0  0
   -6.0397   25.0018  -30.3939 H   0  0  0  0  0  0  0  0  0  0  0  0
   -6.6657   24.0613  -28.9749 H   0  0  0  0  0  0  0  0  0  0  0  0
   -4.5663   24.0149  -28.1982 H   0  0  0  0  0  0  0  0  0  0  0  0
   -4.1833   22.9026  -29.5774 H   0  0  0  0  0  0  0  0  0  0  0  0
   -4.2928   22.3251  -31.1463 H   0  0  0  0  0  0  0  0  0  0  0  0
  1  2  2  0
  2  3  1  0
  3  4  2  0
  3  5  1  0
  5  6  1  0
  6  7  1  0
  7  8  1  0
  7  9  2  0
  6 10  2  0
 10 11  1  0
 11 12  2  0
 12 13  1  0
 13 14  2  0
 14 15  1  0
 15 16  1  0
 16 17  1  0
 17 18  2  0
 17 19  1  0
 14 20  1  0
 20 21  2  0
 21  5  1  0
 21 11  1  0
  1 22  1  0
  1 23  1  0
  2 24  1  0
  8 25  1  0
  8 26  1  0
 10 27  1  0
 12 28  1  0
 13 29  1  0
 15 30  1  0
 15 31  1  0
 16 32  1  0
 16 33  1  0
 20 34  1  0
M  CHG  1  19  -1
M  END
>  <UniqueID>  (87) 
87

>  <SMILES>  (87) 
C=CC(=O)n1c(C(N)=O)cc2ccc(CCC(=O)[O-])cc21

>  <Energy>  (87) 
69.83144213394571

>  <Genealogy>  (87) 
C=CC(=O)n1c(C(N)=O)cc2ccc(CCC(=O)[O-])cc21 (protonated)
C=CC(=O)n1c(C(N)=O)cc2ccc(CCC(=O)[O-])cc21 (3D coordinates assigned)
C=CC(=O)n1c(C(N)=O)cc2ccc(CCC(=O)[O-])cc21 (optimized conformer: 69.83144213394571 kcal/mol)

>  <smiles>  (87) 
C=CC(=O)n1c(C(N)=O)cc2ccc(CCC(=O)O)cc21

>  <score_type>  (87) 
oracle

>  <origin>  (87) 
adg

>  <m_score__min__energy>  (87) 
-10.08

>  <m_primary>  (87) 
energy

$$$$
87:0
     RDKit          3D

 33 34  0  0  0  0  0  0  0  0999 V2000
   -3.9170   25.6710  -30.8470 N   0  0  0  0  0  0  0  0  0  0  0  0
   -5.2610   25.3290  -30.5180 C   0  0  0  0  0  0  0  0  0  0  0  0
   -5.9770   26.1630  -29.9020 O   0  0  0  0  0  0  0  0  0  0  0  0
   -5.8120   24.0240  -30.9380 C   0  0  0  0  0  0  0  0  0  0  0  0
   -7.1600   23.8210  -31.2290 C   0  0  0  0  0  0  0  0  0  0  0  0
   -7.2790   22.4760  -31.4890 C   0  0  0  0  0  0  0  0  0  0  0  0
   -8.4000   21.7280  -31.8330 C   0  0  0  0  0  0  0  0  0  0  0  0
   -8.2290   20.3540  -32.0650 C   0  0  0  0  0  0  0  0  0  0  0  0
   -6.9440   19.7560  -31.9780 C   0  0  0  0  0  0  0  0  0  0  0  0
   -6.7800   18.2740  -32.1940 C   0  0  0  0  0  0  0  0  0  0  0  0
   -7.9660   17.7490  -32.6730 F   0  0  0  0  0  0  0  0  0  0  0  0
   -5.7740   18.0210  -33.1110 F   0  0  0  0  0  0  0  0  0  0  0  0
   -6.4530   17.6400  -31.0070 F   0  0  0  0  0  0  0  0  0  0  0  0
   -5.8330   20.5480  -31.6030 C   0  0  0  0  0  0  0  0  0  0  0  0
   -6.0360   21.9120  -31.3580 C   0  0  0  0  0  0  0  0  0  0  0  0
   -5.1230   22.8510  -31.0200 N   0  0  0  0  0  0  0  0  0  0  0  0
   -3.7080   22.6510  -30.8690 C   0  0  0  0  0  0  0  0  0  0  0  0
   -2.9190   23.0340  -31.7770 O   0  0  0  0  0  0  0  0  0  0  0  0
   -3.2100   22.0680  -29.6980 O   0  0  0  0  0  0  0  0  0  0  0  0
   -1.9330   22.3760  -29.1360 C   0  0  0  0  0  0  0  0  0  0  0  0
   -2.0140   23.5940  -28.2120 C   0  0  0  0  0  0  0  0  0  0  0  0
   -1.1160   24.7010  -28.6670 C   0  0  0  0  0  0  0  0  0  0  0  0
   -1.5790   25.6610  -29.3360 O   0  0  0  0  0  0  0  0  0  0  0  0
    0.2310   24.6850  -28.3290 O   0  0  0  0  0  0  0  0  0  0  0  0
   -3.1420   24.9820  -30.7220 H   0  0  0  0  0  0  0  0  0  0  0  0
   -7.9592   24.5766  -31.2469 H   0  0  0  0  0  0  0  0  0  0  0  0
   -9.3904   22.1986  -31.9206 H   0  0  0  0  0  0  0  0  0  0  0  0
   -9.1012   19.7330  -32.3173 H   0  0  0  0  0  0  0  0  0  0  0  0
   -4.8320   20.1023  -31.5060 H   0  0  0  0  0  0  0  0  0  0  0  0
   -1.5770   21.5103  -28.5582 H   0  0  0  0  0  0  0  0  0  0  0  0
   -1.2378   22.6069  -29.9566 H   0  0  0  0  0  0  0  0  0  0  0  0
   -3.0510   23.9607  -28.1973 H   0  0  0  0  0  0  0  0  0  0  0  0
   -1.6889   23.2824  -27.2084 H   0  0  0  0  0  0  0  0  0  0  0  0
  1  2  1  0
  2  3  2  0
  2  4  1  0
  4  5  2  0
  5  6  1  0
  6  7  2  0
  7  8  1  0
  8  9  2  0
  9 10  1  0
 10 11  1  0
 10 12  1  0
 10 13  1  0
  9 14  1  0
 14 15  2  0
 15 16  1  0
 16 17  1  0
 17 18  2  0
 17 19  1  0
 19 20  1  0
 20 21  1  0
 21 22  1  0
 22 23  2  0
 22 24  1  0
 16  4  1  0
 15  6  1  0
  1 25  1  0
  5 26  1  0
  7 27  1  0
  8 28  1  0
 14 29  1  0
 20 30  1  0
 20 31  1  0
 21 32  1  0
 21 33  1  0
M  CHG  2   1  -1  24  -1
M  END
>  <UniqueID>  (88) 
88

>  <SMILES>  (88) 
[NH-]C(=O)c1cc2ccc(C(F)(F)F)cc2n1C(=O)OCCC(=O)[O-]

>  <Energy>  (88) 
69.18038218325485

>  <Genealogy>  (88) 
[NH-]C(=O)c1cc2ccc(C(F)(F)F)cc2n1C(=O)OCCC(=O)[O-] (protonated)
[NH-]C(=O)c1cc2ccc(C(F)(F)F)cc2n1C(=O)OCCC(=O)[O-] (3D coordinates assigned)
[NH-]C(=O)c1cc2ccc(C(F)(F)F)cc2n1C(=O)OCCC(=O)[O-] (optimized conformer: 69.18038218325485 kcal/mol)

>  <smiles>  (88) 
NC(=O)c1cc2ccc(C(F)(F)F)cc2n1C(=O)OCCC(=O)O

>  <score_type>  (88) 
oracle

>  <origin>  (88) 
adg

>  <m_score__min__energy>  (88) 
-12.050000000000001

>  <m_primary>  (88) 
energy

$$$$
88:0
     RDKit          3D

 41 43  0  0  0  0  0  0  0  0999 V2000
   -4.1240   25.4900  -30.4860 N   0  0  0  0  0  0  0  0  0  0  0  0
   -5.4840   25.0580  -30.4680 C   0  0  0  0  0  0  0  0  0  0  0  0
   -6.3850   25.8480  -30.0810 O   0  0  0  0  0  0  0  0  0  0  0  0
   -5.8530   23.7260  -30.9660 C   0  0  0  0  0  0  0  0  0  0  0  0
   -7.1720   23.3540  -31.1930 C   0  0  0  0  0  0  0  0  0  0  0  0
   -7.1030   22.0850  -31.7090 C   0  0  0  0  0  0  0  0  0  0  0  0
   -8.1280   21.2500  -32.1430 C   0  0  0  0  0  0  0  0  0  0  0  0
   -7.7850   19.9920  -32.6520 C   0  0  0  0  0  0  0  0  0  0  0  0
   -6.4290   19.5870  -32.7300 C   0  0  0  0  0  0  0  0  0  0  0  0
   -6.0910   18.3020  -33.2980 N   0  0  0  0  0  0  0  0  0  0  0  0
   -6.9100   17.1220  -32.9990 C   0  0  0  0  0  0  0  0  0  0  0  0
   -6.8450   16.1450  -34.1780 C   0  0  0  0  0  0  0  0  0  0  0  0
   -5.5020   15.8400  -34.5080 O   0  0  0  0  0  0  0  0  0  0  0  0
   -4.8430   17.0040  -34.9710 C   0  0  0  0  0  0  0  0  0  0  0  0
   -4.7590   18.0640  -33.8640 C   0  0  0  0  0  0  0  0  0  0  0  0
   -5.4120   20.4620  -32.2760 C   0  0  0  0  0  0  0  0  0  0  0  0
   -5.7810   21.7170  -31.7610 C   0  0  0  0  0  0  0  0  0  0  0  0
   -4.9900   22.7170  -31.2900 N   0  0  0  0  0  0  0  0  0  0  0  0
   -3.5530   22.6910  -31.0870 C   0  0  0  0  0  0  0  0  0  0  0  0
   -2.7790   22.3860  -32.0340 O   0  0  0  0  0  0  0  0  0  0  0  0
   -2.9950   22.9650  -29.7980 N   0  0  0  0  0  0  0  0  0  0  0  0
   -1.5660   22.9360  -29.5220 C   0  0  0  0  0  0  0  0  0  0  0  0
   -1.1140   24.3020  -29.1300 C   0  0  0  0  0  0  0  0  0  0  0  0
    0.0570   24.4820  -28.7070 O   0  0  0  0  0  0  0  0  0  0  0  0
   -1.9650   25.3880  -29.2900 O   0  0  0  0  0  0  0  0  0  0  0  0
   -3.8650   26.4300  -30.1100 H   0  0  0  0  0  0  0  0  0  0  0  0
   -3.3790   24.8810  -30.8920 H   0  0  0  0  0  0  0  0  0  0  0  0
   -8.0769   23.9490  -31.0004 H   0  0  0  0  0  0  0  0  0  0  0  0
   -9.1790   21.5698  -32.0876 H   0  0  0  0  0  0  0  0  0  0  0  0
   -8.5768   19.3100  -32.9954 H   0  0  0  0  0  0  0  0  0  0  0  0
   -6.5272   16.6296  -32.0929 H   0  0  0  0  0  0  0  0  0  0  0  0
   -7.9529   17.4307  -32.8348 H   0  0  0  0  0  0  0  0  0  0  0  0
   -7.3687   15.2168  -33.9058 H   0  0  0  0  0  0  0  0  0  0  0  0
   -7.3234   16.6144  -35.0503 H   0  0  0  0  0  0  0  0  0  0  0  0
   -3.8253   16.7377  -35.2924 H   0  0  0  0  0  0  0  0  0  0  0  0
   -5.4157   17.4202  -35.8129 H   0  0  0  0  0  0  0  0  0  0  0  0
   -4.0837   17.7103  -33.0710 H   0  0  0  0  0  0  0  0  0  0  0  0
   -4.3737   19.0022  -34.2898 H   0  0  0  0  0  0  0  0  0  0  0  0
   -4.3539   20.1653  -32.3254 H   0  0  0  0  0  0  0  0  0  0  0  0
   -1.3641   22.2321  -28.7012 H   0  0  0  0  0  0  0  0  0  0  0  0
   -1.0226   22.6111  -30.4215 H   0  0  0  0  0  0  0  0  0  0  0  0
  1  2  1  0
  2  3  2  0
  2  4  1  0
  4  5  2  0
  5  6  1  0
  6  7  2  0
  7  8  1  0
  8  9  2  0
  9 10  1  0
 10 11  1  0
 11 12  1  0
 12 13  1  0
 13 14  1  0
 14 15  1  0
  9 16  1  0
 16 17  2  0
 17 18  1  0
 18 19  1  0
 19 20  2  0
 19 21  1  0
 21 22  1  0
 22 23  1  0
 23 24  2  0
 23 25  1  0
 18  4  1  0
 17  6  1  0
 15 10  1  0
  1 26  1  0
  1 27  1  0
  5 28  1  0
  7 29  1  0
  8 30  1  0
 11 31  1  0
 11 32  1  0
 12 33  1  0
 12 34  1  0
 14 35  1  0
 14 36  1  0
 15 37  1  0
 15 38  1  0
 16 39  1  0
 22 40  1  0
 22 41  1  0
M  CHG  2  21  -1  25  -1
M  END
>  <UniqueID>  (89) 
89

>  <SMILES>  (89) 
NC(=O)c1cc2ccc(N3CCOCC3)cc2n1C(=O)[N-]CC(=O)[O-]

>  <Energy>  (89) 
86.55631866488217

>  <Genealogy>  (89) 
NC(=O)c1cc2ccc(N3CCOCC3)cc2n1C(=O)[N-]CC(=O)[O-] (protonated)
NC(=O)c1cc2ccc(N3CCOCC3)cc2n1C(=O)[N-]CC(=O)[O-] (3D coordinates assigned)
NC(=O)c1cc2ccc(N3CCOCC3)cc2n1C(=O)[N-]CC(=O)[O-] (nonaromatic ring conformer: 86.55631866488217 kcal/mol)

>  <smiles>  (89) 
NC(=O)c1cc2ccc(N3CCOCC3)cc2n1C(=O)NCC(=O)O

>  <score_type>  (89) 
oracle

>  <origin>  (89) 
adg

>  <m_score__min__energy>  (89) 
-12.19

>  <m_primary>  (89) 
energy

$$$$
89:0
     RDKit          3D

 39 40  0  0  0  0  0  0  0  0999 V2000
   -3.6240   25.2860  -30.4820 N   0  0  0  0  0  0  0  0  0  0  0  0
   -5.0480   25.3210  -30.4520 C   0  0  0  0  0  0  0  0  0  0  0  0
   -5.6330   26.3960  -30.1540 O   0  0  0  0  0  0  0  0  0  0  0  0
   -5.8450   24.1270  -30.8030 C   0  0  0  0  0  0  0  0  0  0  0  0
   -7.2360   24.1260  -30.8940 C   0  0  0  0  0  0  0  0  0  0  0  0
   -7.5740   22.8600  -31.3200 C   0  0  0  0  0  0  0  0  0  0  0  0
   -8.8230   22.3020  -31.5780 C   0  0  0  0  0  0  0  0  0  0  0  0
   -8.8700   20.9620  -31.9980 C   0  0  0  0  0  0  0  0  0  0  0  0
   -7.6780   20.2070  -32.1420 C   0  0  0  0  0  0  0  0  0  0  0  0
   -7.7370   18.7820  -32.6220 C   0  0  0  0  0  0  0  0  0  0  0  0
   -6.3400   18.1770  -32.8440 C   0  0  0  0  0  0  0  0  0  0  0  0
   -5.5770   18.8070  -34.0270 C   0  0  0  0  0  0  0  0  0  0  0  0
   -4.0900   19.0260  -33.7190 C   0  0  0  0  0  0  0  0  0  0  0  0
   -3.9310   19.5510  -32.3660 N   0  0  0  0  0  0  0  0  0  0  0  0
   -6.4290   20.8080  -31.8700 C   0  0  0  0  0  0  0  0  0  0  0  0
   -6.4140   22.1470  -31.4680 C   0  0  0  0  0  0  0  0  0  0  0  0
   -5.3460   22.9080  -31.1510 N   0  0  0  0  0  0  0  0  0  0  0  0
   -3.9800   22.4700  -31.1280 C   0  0  0  0  0  0  0  0  0  0  0  0
   -3.2380   22.6860  -32.1220 O   0  0  0  0  0  0  0  0  0  0  0  0
   -3.4590   21.6630  -29.9770 C   0  0  0  0  0  0  0  0  0  0  0  0
   -2.6740   20.6030  -30.4520 O   0  0  0  0  0  0  0  0  0  0  0  0
   -3.1150   24.6580  -31.1450 H   0  0  0  0  0  0  0  0  0  0  0  0
   -7.9191   24.9593  -30.6726 H   0  0  0  0  0  0  0  0  0  0  0  0
   -9.7438   22.8914  -31.4569 H   0  0  0  0  0  0  0  0  0  0  0  0
   -9.8409   20.4938  -32.2173 H   0  0  0  0  0  0  0  0  0  0  0  0
   -8.2676   18.1784  -31.8709 H   0  0  0  0  0  0  0  0  0  0  0  0
   -8.2613   18.7764  -33.5890 H   0  0  0  0  0  0  0  0  0  0  0  0
   -5.7473   18.3249  -31.9292 H   0  0  0  0  0  0  0  0  0  0  0  0
   -6.4827   17.1125  -33.0815 H   0  0  0  0  0  0  0  0  0  0  0  0
   -5.6622   18.1394  -34.8971 H   0  0  0  0  0  0  0  0  0  0  0  0
   -6.0250   19.7916  -34.2265 H   0  0  0  0  0  0  0  0  0  0  0  0
   -3.5560   18.0680  -33.8028 H   0  0  0  0  0  0  0  0  0  0  0  0
   -3.6758   19.7489  -34.4372 H   0  0  0  0  0  0  0  0  0  0  0  0
   -3.1380   19.0440  -31.9110 H   0  0  0  0  0  0  0  0  0  0  0  0
   -3.6360   20.5510  -32.4470 H   0  0  0  0  0  0  0  0  0  0  0  0
   -5.4937   20.2381  -31.9717 H   0  0  0  0  0  0  0  0  0  0  0  0
   -2.8475   22.3068  -29.3277 H   0  0  0  0  0  0  0  0  0  0  0  0
   -4.3076   21.2571  -29.4067 H   0  0  0  0  0  0  0  0  0  0  0  0
   -2.4770   20.8030  -31.4050 H   0  0  0  0  0  0  0  0  0  0  0  0
  1  2  1  0
  2  3  2  0
  2  4  1  0
  4  5  2  0
  5  6  1  0
  6  7  2  0
  7  8  1  0
  8  9  2  0
  9 10  1  0
 10 11  1  0
 11 12  1  0
 12 13  1  0
 13 14  1  0
  9 15  1  0
 15 16  2  0
 16 17  1  0
 17 18  1  0
 18 19  2  0
 18 20  1  0
 20 21  1  0
 17  4  1  0
 16  6  1  0
  1 22  1  0
  5 23  1  0
  7 24  1  0
  8 25  1  0
 10 26  1  0
 10 27  1  0
 11 28  1  0
 11 29  1  0
 12 30  1  0
 12 31  1  0
 13 32  1  0
 13 33  1  0
 14 34  1  0
 14 35  1  0
 15 36  1  0
 20 37  1  0
 20 38  1  0
 21 39  1  0
M  CHG  1   1  -1
M  END
>  <UniqueID>  (90) 
90

>  <SMILES>  (90) 
[NH-]C(=O)c1cc2ccc(CCCCN)cc2n1C(=O)CO

>  <Energy>  (90) 
71.7022460468783

>  <Genealogy>  (90) 
[NH-]C(=O)c1cc2ccc(CCCCN)cc2n1C(=O)CO (protonated)
[NH-]C(=O)c1cc2ccc(CCCCN)cc2n1C(=O)CO (3D coordinates assigned)
[NH-]C(=O)c1cc2ccc(CCCCN)cc2n1C(=O)CO (optimized conformer: 71.7022460468783 kcal/mol)

>  <smiles>  (90) 
NCCCCc1ccc2cc(C(N)=O)n(C(=O)CO)c2c1

>  <score_type>  (90) 
oracle

>  <origin>  (90) 
adg

>  <m_score__min__energy>  (90) 
-8.8399999999999999

>  <m_primary>  (90) 
energy

$$$$
90:0
     RDKit          3D

 34 35  0  0  0  0  0  0  0  0999 V2000
   -5.7310   18.3410  -34.5810 C   0  0  0  0  0  0  0  0  0  0  0  0
   -6.0690   17.3790  -33.7200 C   0  0  0  0  0  0  0  0  0  0  0  0
   -6.9650   17.6560  -32.5440 C   0  0  0  0  0  0  0  0  0  0  0  0
   -7.9220   18.7170  -32.8590 N   0  0  0  0  0  0  0  0  0  0  0  0
   -7.8400   20.0640  -32.3550 C   0  0  0  0  0  0  0  0  0  0  0  0
   -9.0380   20.7740  -32.0880 C   0  0  0  0  0  0  0  0  0  0  0  0
   -9.0050   22.0910  -31.5990 C   0  0  0  0  0  0  0  0  0  0  0  0
   -7.7610   22.6710  -31.3740 C   0  0  0  0  0  0  0  0  0  0  0  0
   -7.4390   23.9320  -30.9270 C   0  0  0  0  0  0  0  0  0  0  0  0
   -6.0450   23.9720  -30.9060 C   0  0  0  0  0  0  0  0  0  0  0  0
   -5.2660   25.1350  -30.4310 C   0  0  0  0  0  0  0  0  0  0  0  0
   -3.8740   25.2260  -30.7260 N   0  0  0  0  0  0  0  0  0  0  0  0
   -5.8200   26.0630  -29.7850 O   0  0  0  0  0  0  0  0  0  0  0  0
   -5.5280   22.7820  -31.3240 N   0  0  0  0  0  0  0  0  0  0  0  0
   -4.1440   22.4350  -31.4840 C   0  0  0  0  0  0  0  0  0  0  0  0
   -3.3670   22.5040  -30.4930 O   0  0  0  0  0  0  0  0  0  0  0  0
   -3.6400   21.9950  -32.7990 C   0  0  0  0  0  0  0  0  0  0  0  0
   -3.3730   20.7200  -33.0740 C   0  0  0  0  0  0  0  0  0  0  0  0
   -6.5910   21.9980  -31.6100 C   0  0  0  0  0  0  0  0  0  0  0  0
   -6.5930   20.6960  -32.1220 C   0  0  0  0  0  0  0  0  0  0  0  0
   -5.0740   18.1109  -35.4327 H   0  0  0  0  0  0  0  0  0  0  0  0
   -6.1094   19.3641  -34.4390 H   0  0  0  0  0  0  0  0  0  0  0  0
   -5.6836   16.3603  -33.8738 H   0  0  0  0  0  0  0  0  0  0  0  0
   -7.5151   16.7391  -32.2858 H   0  0  0  0  0  0  0  0  0  0  0  0
   -6.3440   17.9813  -31.6963 H   0  0  0  0  0  0  0  0  0  0  0  0
   -8.7190   18.4680  -33.4880 H   0  0  0  0  0  0  0  0  0  0  0  0
  -10.0078   20.2865  -32.2663 H   0  0  0  0  0  0  0  0  0  0  0  0
   -9.9338   22.6458  -31.4004 H   0  0  0  0  0  0  0  0  0  0  0  0
   -8.1335   24.7374  -30.6459 H   0  0  0  0  0  0  0  0  0  0  0  0
   -3.4880   26.0430  -31.2490 H   0  0  0  0  0  0  0  0  0  0  0  0
   -3.4786   22.7498  -33.5827 H   0  0  0  0  0  0  0  0  0  0  0  0
   -2.9986   20.4388  -34.0694 H   0  0  0  0  0  0  0  0  0  0  0  0
   -3.5268   19.9478  -32.3059 H   0  0  0  0  0  0  0  0  0  0  0  0
   -5.6488   20.1750  -32.3387 H   0  0  0  0  0  0  0  0  0  0  0  0
  1  2  2  0
  2  3  1  0
  3  4  1  0
  4  5  1  0
  5  6  2  0
  6  7  1  0
  7  8  2  0
  8  9  1  0
  9 10  2  0
 10 11  1  0
 11 12  1  0
 11 13  2  0
 10 14  1  0
 14 15  1  0
 15 16  2  0
 15 17  1  0
 17 18  2  0
 14 19  1  0
 19 20  2  0
 20  5  1  0
 19  8  1  0
  1 21  1  0
  1 22  1  0
  2 23  1  0
  3 24  1  0
  3 25  1  0
  4 26  1  0
  6 27  1  0
  7 28  1  0
  9 29  1  0
 12 30  1  0
 17 31  1  0
 18 32  1  0
 18 33  1  0
 20 34  1  0
M  CHG  1  12  -1
M  END
>  <UniqueID>  (91) 
91

>  <SMILES>  (91) 
C=CCNc1ccc2cc(C([NH-])=O)n(C(=O)C=C)c2c1

>  <Energy>  (91) 
68.42414650330137

>  <Genealogy>  (91) 
C=CCNc1ccc2cc(C([NH-])=O)n(C(=O)C=C)c2c1 (protonated)
C=CCNc1ccc2cc(C([NH-])=O)n(C(=O)C=C)c2c1 (3D coordinates assigned)
C=CCNc1ccc2cc(C([NH-])=O)n(C(=O)C=C)c2c1 (optimized conformer: 68.42414650330137 kcal/mol)

>  <smiles>  (91) 
C=CCNc1ccc2cc(C(N)=O)n(C(=O)C=C)c2c1

>  <score_type>  (91) 
oracle

>  <origin>  (91) 
adg

>  <m_score__min__energy>  (91) 
-10.449999999999999

>  <m_primary>  (91) 
energy

$$$$
91:0
     RDKit          3D

 33 35  0  0  0  0  0  0  0  0999 V2000
   -1.0010   25.8640  -28.9710 N   0  0  0  0  0  0  0  0  0  0  0  0
   -0.5680   24.5260  -28.7200 C   0  0  0  0  0  0  0  0  0  0  0  0
    0.3290   24.3190  -27.8590 O   0  0  0  0  0  0  0  0  0  0  0  0
   -1.1040   23.3900  -29.4940 C   0  0  0  0  0  0  0  0  0  0  0  0
   -0.3600   22.2540  -29.8000 C   0  0  0  0  0  0  0  0  0  0  0  0
   -1.1880   21.4760  -30.5760 C   0  0  0  0  0  0  0  0  0  0  0  0
   -0.9630   20.2260  -31.1460 C   0  0  0  0  0  0  0  0  0  0  0  0
   -2.0130   19.6340  -31.8680 C   0  0  0  0  0  0  0  0  0  0  0  0
   -3.2570   20.2920  -31.9960 C   0  0  0  0  0  0  0  0  0  0  0  0
   -4.3220   19.6720  -32.7190 N   0  0  0  0  0  0  0  0  0  0  0  0
   -5.7180   19.9800  -33.0790 C   0  0  0  0  0  0  0  0  0  0  0  0
   -5.9700   18.7120  -33.8310 C   0  0  0  0  0  0  0  0  0  0  0  0
   -6.1350   18.9350  -35.2640 N   0  0  0  0  0  0  0  0  0  0  0  0
   -4.5510   18.4160  -33.4580 C   0  0  0  0  0  0  0  0  0  0  0  0
   -3.4520   21.5570  -31.4040 C   0  0  0  0  0  0  0  0  0  0  0  0
   -2.3840   22.1360  -30.7080 C   0  0  0  0  0  0  0  0  0  0  0  0
   -2.3490   23.3140  -30.0450 N   0  0  0  0  0  0  0  0  0  0  0  0
   -3.4430   24.2300  -29.8630 C   0  0  0  0  0  0  0  0  0  0  0  0
   -3.4940   25.3000  -30.5280 O   0  0  0  0  0  0  0  0  0  0  0  0
   -4.4530   23.9500  -28.9520 O   0  0  0  0  0  0  0  0  0  0  0  0
   -0.6390   26.6500  -28.3880 H   0  0  0  0  0  0  0  0  0  0  0  0
   -1.6130   26.0880  -29.7880 H   0  0  0  0  0  0  0  0  0  0  0  0
    0.6701   22.0268  -29.4880 H   0  0  0  0  0  0  0  0  0  0  0  0
    0.0062   19.7178  -31.0347 H   0  0  0  0  0  0  0  0  0  0  0  0
   -1.8654   18.6502  -32.3375 H   0  0  0  0  0  0  0  0  0  0  0  0
   -6.3694   20.0888  -32.1993 H   0  0  0  0  0  0  0  0  0  0  0  0
   -5.9016   20.9243  -33.6124 H   0  0  0  0  0  0  0  0  0  0  0  0
   -6.8155   18.0355  -33.6374 H   0  0  0  0  0  0  0  0  0  0  0  0
   -6.8540   19.6850  -35.3840 H   0  0  0  0  0  0  0  0  0  0  0  0
   -6.5450   18.0640  -35.6730 H   0  0  0  0  0  0  0  0  0  0  0  0
   -4.4560   17.5244  -32.8208 H   0  0  0  0  0  0  0  0  0  0  0  0
   -3.8550   18.1809  -34.2767 H   0  0  0  0  0  0  0  0  0  0  0  0
   -4.4185   22.0756  -31.4869 H   0  0  0  0  0  0  0  0  0  0  0  0
  1  2  1  0
  2  3  2  0
  2  4  1  0
  4  5  2  0
  5  6  1  0
  6  7  2  0
  7  8  1  0
  8  9  2  0
  9 10  1  0
 10 11  1  0
 11 12  1  0
 12 13  1  0
 12 14  1  0
  9 15  1  0
 15 16  2  0
 16 17  1  0
 17 18  1  0
 18 19  2  0
 18 20  1  0
 17  4  1  0
 16  6  1  0
 14 10  1  0
  1 21  1  0
  1 22  1  0
  5 23  1  0
  7 24  1  0
  8 25  1  0
 11 26  1  0
 11 27  1  0
 12 28  1  0
 13 29  1  0
 13 30  1  0
 14 31  1  0
 14 32  1  0
 15 33  1  0
M  CHG  1  20  -1
M  END
>  <UniqueID>  (92) 
92

>  <SMILES>  (92) 
NC(=O)c1cc2ccc(N3CC(N)C3)cc2n1C(=O)[O-]

>  <Energy>  (92) 
117.5125681548707

>  <Genealogy>  (92) 
NC(=O)c1cc2ccc(N3CC(N)C3)cc2n1C(=O)[O-] (protonated)
NC(=O)c1cc2ccc(N3CC(N)C3)cc2n1C(=O)[O-] (3D coordinates assigned)
NC(=O)c1cc2ccc(N3CC(N)C3)cc2n1C(=O)[O-] (nonaromatic ring conformer: 117.5125681548707 kcal/mol)

>  <smiles>  (92) 
NC(=O)c1cc2ccc(N3CC(N)C3)cc2n1C(=O)O

>  <score_type>  (92) 
oracle

>  <origin>  (92) 
adg

>  <m_score__min__energy>  (92) 
-8.3200000000000003

>  <m_primary>  (92) 
energy

$$$$
92:0
     RDKit          3D

 36 37  0  0  0  0  0  0  0  0999 V2000
   -1.3160   22.2210  -28.4860 C   0  0  0  0  0  0  0  0  0  0  0  0
   -1.9300   23.5810  -28.8740 C   0  0  0  0  0  0  0  0  0  0  0  0
   -2.9910   23.9730  -27.8380 C   0  0  0  0  0  0  0  0  0  0  0  0
   -2.5930   23.4630  -30.1770 N   0  0  0  0  0  0  0  0  0  0  0  0
   -3.3540   22.3370  -30.6350 C   0  0  0  0  0  0  0  0  0  0  0  0
   -2.8200   21.1990  -30.7210 O   0  0  0  0  0  0  0  0  0  0  0  0
   -4.7260   22.5140  -31.0200 N   0  0  0  0  0  0  0  0  0  0  0  0
   -5.5090   23.6150  -30.8380 C   0  0  0  0  0  0  0  0  0  0  0  0
   -5.0620   24.9210  -30.3090 C   0  0  0  0  0  0  0  0  0  0  0  0
   -3.9030   25.5470  -30.8540 N   0  0  0  0  0  0  0  0  0  0  0  0
   -5.6740   25.4760  -29.3590 O   0  0  0  0  0  0  0  0  0  0  0  0
   -6.8030   23.3740  -31.2990 C   0  0  0  0  0  0  0  0  0  0  0  0
   -6.7860   22.0830  -31.7760 C   0  0  0  0  0  0  0  0  0  0  0  0
   -7.8030   21.3280  -32.3510 C   0  0  0  0  0  0  0  0  0  0  0  0
   -7.5090   20.0090  -32.7360 C   0  0  0  0  0  0  0  0  0  0  0  0
   -6.2170   19.4610  -32.5180 C   0  0  0  0  0  0  0  0  0  0  0  0
   -5.9020   18.0570  -32.9700 C   0  0  0  0  0  0  0  0  0  0  0  0
   -4.6780   18.0500  -33.6120 F   0  0  0  0  0  0  0  0  0  0  0  0
   -5.8490   17.1970  -31.8870 F   0  0  0  0  0  0  0  0  0  0  0  0
   -6.8720   17.5950  -33.8420 F   0  0  0  0  0  0  0  0  0  0  0  0
   -5.2040   20.2690  -31.9520 C   0  0  0  0  0  0  0  0  0  0  0  0
   -5.5220   21.5860  -31.5960 C   0  0  0  0  0  0  0  0  0  0  0  0
   -0.8800   24.6700  -28.9220 C   0  0  0  0  0  0  0  0  0  0  0  0
    0.3050   24.4380  -28.5630 O   0  0  0  0  0  0  0  0  0  0  0  0
   -1.2370   25.9640  -29.2840 O   0  0  0  0  0  0  0  0  0  0  0  0
   -1.2774   22.1354  -27.3900 H   0  0  0  0  0  0  0  0  0  0  0  0
   -1.9349   21.4091  -28.8956 H   0  0  0  0  0  0  0  0  0  0  0  0
   -0.2977   22.1482  -28.8956 H   0  0  0  0  0  0  0  0  0  0  0  0
   -2.5876   23.8239  -26.8256 H   0  0  0  0  0  0  0  0  0  0  0  0
   -3.2619   25.0306  -27.9727 H   0  0  0  0  0  0  0  0  0  0  0  0
   -3.8844   23.3456  -27.9727 H   0  0  0  0  0  0  0  0  0  0  0  0
   -2.9470   25.2930  -30.5200 H   0  0  0  0  0  0  0  0  0  0  0  0
   -7.6561   24.0683  -31.2845 H   0  0  0  0  0  0  0  0  0  0  0  0
   -8.8075   21.7509  -32.4999 H   0  0  0  0  0  0  0  0  0  0  0  0
   -8.2877   19.3944  -33.2112 H   0  0  0  0  0  0  0  0  0  0  0  0
   -4.1900   19.8727  -31.7949 H   0  0  0  0  0  0  0  0  0  0  0  0
  1  2  1  0
  2  3  1  0
  2  4  1  0
  4  5  1  0
  5  6  2  0
  5  7  1  0
  7  8  1  0
  8  9  1  0
  9 10  1  0
  9 11  2  0
  8 12  2  0
 12 13  1  0
 13 14  2  0
 14 15  1  0
 15 16  2  0
 16 17  1  0
 17 18  1  0
 17 19  1  0
 17 20  1  0
 16 21  1  0
 21 22  2  0
  2 23  1  0
 23 24  2  0
 23 25  1  0
 22  7  1  0
 22 13  1  0
  1 26  1  0
  1 27  1  0
  1 28  1  0
  3 29  1  0
  3 30  1  0
  3 31  1  0
 10 32  1  0
 12 33  1  0
 14 34  1  0
 15 35  1  0
 21 36  1  0
M  CHG  3   4  -1  10  -1  25  -1
M  END
>  <UniqueID>  (93) 
93

>  <SMILES>  (93) 
CC(C)([N-]C(=O)n1c(C([NH-])=O)cc2ccc(C(F)(F)F)cc21)C(=O)[O-]

>  <Energy>  (93) 
72.07530086087027

>  <Genealogy>  (93) 
CC(C)([N-]C(=O)n1c(C([NH-])=O)cc2ccc(C(F)(F)F)cc21)C(=O)[O-] (protonated)
CC(C)([N-]C(=O)n1c(C([NH-])=O)cc2ccc(C(F)(F)F)cc21)C(=O)[O-] (3D coordinates assigned)
CC(C)([N-]C(=O)n1c(C([NH-])=O)cc2ccc(C(F)(F)F)cc21)C(=O)[O-] (optimized conformer: 72.07530086087027 kcal/mol)

>  <smiles>  (93) 
CC(C)(NC(=O)n1c(C(N)=O)cc2ccc(C(F)(F)F)cc21)C(=O)O

>  <score_type>  (93) 
oracle

>  <origin>  (93) 
adg

>  <m_score__min__energy>  (93) 
-12.99

>  <m_primary>  (93) 
energy

$$$$
93:0
     RDKit          3D

 45 47  0  0  0  0  0  0  0  0999 V2000
   -4.2630   25.5420  -30.6310 N   0  0  0  0  0  0  0  0  0  0  0  0
   -5.6230   25.2010  -30.3540 C   0  0  0  0  0  0  0  0  0  0  0  0
   -6.3370   26.0060  -29.7000 O   0  0  0  0  0  0  0  0  0  0  0  0
   -6.1810   23.9030  -30.7940 C   0  0  0  0  0  0  0  0  0  0  0  0
   -7.5210   23.7030  -31.1190 C   0  0  0  0  0  0  0  0  0  0  0  0
   -7.5960   22.4040  -31.5680 C   0  0  0  0  0  0  0  0  0  0  0  0
   -8.6950   21.6750  -32.0110 C   0  0  0  0  0  0  0  0  0  0  0  0
   -8.4880   20.3390  -32.3930 C   0  0  0  0  0  0  0  0  0  0  0  0
   -7.1990   19.7570  -32.3180 C   0  0  0  0  0  0  0  0  0  0  0  0
   -7.0020   18.3230  -32.7210 C   0  0  0  0  0  0  0  0  0  0  0  0
   -6.4410   17.6170  -31.6720 F   0  0  0  0  0  0  0  0  0  0  0  0
   -6.1630   18.2580  -33.8190 F   0  0  0  0  0  0  0  0  0  0  0  0
   -6.1060   20.5280  -31.8600 C   0  0  0  0  0  0  0  0  0  0  0  0
   -6.3380   21.8630  -31.5050 C   0  0  0  0  0  0  0  0  0  0  0  0
   -5.4560   22.7720  -31.0300 N   0  0  0  0  0  0  0  0  0  0  0  0
   -4.0640   22.5550  -30.7500 C   0  0  0  0  0  0  0  0  0  0  0  0
   -3.1870   23.2400  -31.3440 O   0  0  0  0  0  0  0  0  0  0  0  0
   -3.6870   21.5670  -29.8320 O   0  0  0  0  0  0  0  0  0  0  0  0
   -2.5740   21.6960  -28.9510 C   0  0  0  0  0  0  0  0  0  0  0  0
   -2.8120   22.8300  -27.9500 C   0  0  0  0  0  0  0  0  0  0  0  0
   -1.5190   23.6000  -27.6710 C   0  0  0  0  0  0  0  0  0  0  0  0
   -1.4620   24.8440  -28.5020 C   0  0  0  0  0  0  0  0  0  0  0  0
   -2.3460   25.0530  -29.3770 O   0  0  0  0  0  0  0  0  0  0  0  0
   -0.4360   25.8080  -28.2620 N   0  0  0  0  0  0  0  0  0  0  0  0
   -0.4640   26.7070  -27.1170 C   0  0  0  0  0  0  0  0  0  0  0  0
   -1.5440   26.3690  -26.1070 C   0  0  0  0  0  0  0  0  0  0  0  0
   -0.0900   26.0200  -25.8170 C   0  0  0  0  0  0  0  0  0  0  0  0
   -3.8680   26.4440  -30.2840 H   0  0  0  0  0  0  0  0  0  0  0  0
   -3.6570   24.9220  -31.2130 H   0  0  0  0  0  0  0  0  0  0  0  0
   -8.3436   24.4285  -31.0347 H   0  0  0  0  0  0  0  0  0  0  0  0
   -9.6950   22.1305  -32.0606 H   0  0  0  0  0  0  0  0  0  0  0  0
   -9.3360   19.7386  -32.7542 H   0  0  0  0  0  0  0  0  0  0  0  0
   -7.9769   17.8836  -32.9787 H   0  0  0  0  0  0  0  0  0  0  0  0
   -5.0994   20.0908  -31.7844 H   0  0  0  0  0  0  0  0  0  0  0  0
   -2.4347   20.7525  -28.4029 H   0  0  0  0  0  0  0  0  0  0  0  0
   -1.6760   21.9263  -29.5431 H   0  0  0  0  0  0  0  0  0  0  0  0
   -3.5603   23.5224  -28.3630 H   0  0  0  0  0  0  0  0  0  0  0  0
   -3.1687   22.3929  -27.0057 H   0  0  0  0  0  0  0  0  0  0  0  0
   -1.4828   23.8736  -26.6062 H   0  0  0  0  0  0  0  0  0  0  0  0
   -0.6611   22.9608  -27.9267 H   0  0  0  0  0  0  0  0  0  0  0  0
   -0.1480   27.6226  -27.6384 H   0  0  0  0  0  0  0  0  0  0  0  0
   -2.0403   27.1721  -25.5425 H   0  0  0  0  0  0  0  0  0  0  0  0
   -2.4888   25.8064  -26.1363 H   0  0  0  0  0  0  0  0  0  0  0  0
    0.4645   26.5709  -25.0430 H   0  0  0  0  0  0  0  0  0  0  0  0
    0.4518   25.1007  -25.5499 H   0  0  0  0  0  0  0  0  0  0  0  0
  1  2  1  0
  2  3  2  0
  2  4  1  0
  4  5  2  0
  5  6  1  0
  6  7  2  0
  7  8  1  0
  8  9  2  0
  9 10  1  0
 10 11  1  0
 10 12  1  0
  9 13  1  0
 13 14  2  0
 14 15  1  0
 15 16  1  0
 16 17  2  0
 16 18  1  0
 18 19  1  0
 19 20  1  0
 20 21  1  0
 21 22  1  0
 22 23  2  0
 22 24  1  0
 24 25  1  0
 25 26  1  0
 26 27  1  0
 15  4  1  0
 27 25  1  0
 14  6  1  0
  1 28  1  0
  1 29  1  0
  5 30  1  0
  7 31  1  0
  8 32  1  0
 10 33  1  0
 13 34  1  0
 19 35  1  0
 19 36  1  0
 20 37  1  0
 20 38  1  0
 21 39  1  0
 21 40  1  0
 25 41  1  0
 26 42  1  0
 26 43  1  0
 27 44  1  0
 27 45  1  0
M  CHG  1  24  -1
M  END
>  <UniqueID>  (94) 
94

>  <SMILES>  (94) 
NC(=O)c1cc2ccc(C(F)F)cc2n1C(=O)OCCCC(=O)[N-]C1CC1

>  <Energy>  (94) 
339.7565266690298

>  <Genealogy>  (94) 
NC(=O)c1cc2ccc(C(F)F)cc2n1C(=O)OCCCC(=O)[N-]C1CC1 (protonated)
NC(=O)c1cc2ccc(C(F)F)cc2n1C(=O)OCCCC(=O)[N-]C1CC1 (3D coordinates assigned)
NC(=O)c1cc2ccc(C(F)F)cc2n1C(=O)OCCCC(=O)[N-]C1CC1 (nonaromatic ring conformer: 339.7565266690298 kcal/mol)

>  <smiles>  (94) 
NC(=O)c1cc2ccc(C(F)F)cc2n1C(=O)OCCCC(=O)NC1CC1

>  <score_type>  (94) 
oracle

>  <origin>  (94) 
adg

>  <m_score__min__energy>  (94) 
-9.7699999999999996

>  <m_primary>  (94) 
energy

$$$$
94:0
     RDKit          3D

 29 31  0  0  0  0  0  0  0  0999 V2000
   -1.2460   25.2400  -29.2760 N   0  0  0  0  0  0  0  0  0  0  0  0
   -0.9550   23.8450  -29.3880 C   0  0  0  0  0  0  0  0  0  0  0  0
    0.1180   23.3990  -28.9000 O   0  0  0  0  0  0  0  0  0  0  0  0
   -1.8530   22.9330  -30.1210 C   0  0  0  0  0  0  0  0  0  0  0  0
   -1.4570   21.6830  -30.5890 C   0  0  0  0  0  0  0  0  0  0  0  0
   -2.5500   21.1850  -31.2610 C   0  0  0  0  0  0  0  0  0  0  0  0
   -2.7190   19.9640  -31.9070 C   0  0  0  0  0  0  0  0  0  0  0  0
   -3.9720   19.6910  -32.4820 C   0  0  0  0  0  0  0  0  0  0  0  0
   -5.0210   20.6390  -32.4050 C   0  0  0  0  0  0  0  0  0  0  0  0
   -6.3720   20.3130  -32.9760 C   0  0  0  0  0  0  0  0  0  0  0  0
   -6.4670   19.9930  -34.3190 F   0  0  0  0  0  0  0  0  0  0  0  0
   -7.5630   21.0610  -32.4010 C   0  0  0  0  0  0  0  0  0  0  0  0
   -7.3520   19.5910  -32.0660 C   0  0  0  0  0  0  0  0  0  0  0  0
   -4.8200   21.8590  -31.7230 C   0  0  0  0  0  0  0  0  0  0  0  0
   -3.5550   22.1150  -31.1780 C   0  0  0  0  0  0  0  0  0  0  0  0
   -3.1430   23.1950  -30.4760 N   0  0  0  0  0  0  0  0  0  0  0  0
   -3.9450   24.3250  -30.0890 C   0  0  0  0  0  0  0  0  0  0  0  0
   -4.7130   24.2470  -29.0930 O   0  0  0  0  0  0  0  0  0  0  0  0
   -3.8860   25.5120  -30.8080 O   0  0  0  0  0  0  0  0  0  0  0  0
   -0.6200   25.8640  -28.7210 H   0  0  0  0  0  0  0  0  0  0  0  0
   -2.0340   25.6700  -29.8100 H   0  0  0  0  0  0  0  0  0  0  0  0
   -0.4797   21.1973  -30.4512 H   0  0  0  0  0  0  0  0  0  0  0  0
   -1.8973   19.2351  -31.9657 H   0  0  0  0  0  0  0  0  0  0  0  0
   -4.1392   18.7330  -32.9961 H   0  0  0  0  0  0  0  0  0  0  0  0
   -7.4096   21.8288  -31.6284 H   0  0  0  0  0  0  0  0  0  0  0  0
   -8.3888   21.6519  -32.8240 H   0  0  0  0  0  0  0  0  0  0  0  0
   -7.0460   19.2963  -31.0513 H   0  0  0  0  0  0  0  0  0  0  0  0
   -7.9619   18.6791  -32.1466 H   0  0  0  0  0  0  0  0  0  0  0  0
   -5.6359   22.5898  -31.6222 H   0  0  0  0  0  0  0  0  0  0  0  0
  1  2  1  0
  2  3  2  0
  2  4  1  0
  4  5  2  0
  5  6  1  0
  6  7  2  0
  7  8  1  0
  8  9  2  0
  9 10  1  0
 10 11  1  0
 10 12  1  0
 12 13  1  0
  9 14  1  0
 14 15  2  0
 15 16  1  0
 16 17  1  0
 17 18  2  0
 17 19  1  0
 16  4  1  0
 15  6  1  0
 13 10  1  0
  1 20  1  0
  1 21  1  0
  5 22  1  0
  7 23  1  0
  8 24  1  0
 12 25  1  0
 12 26  1  0
 13 27  1  0
 13 28  1  0
 14 29  1  0
M  CHG  1  19  -1
M  END
>  <UniqueID>  (95) 
95

>  <SMILES>  (95) 
NC(=O)c1cc2ccc(C3(F)CC3)cc2n1C(=O)[O-]

>  <Energy>  (95) 
336.92139441082713

>  <Genealogy>  (95) 
NC(=O)c1cc2ccc(C3(F)CC3)cc2n1C(=O)[O-] (protonated)
NC(=O)c1cc2ccc(C3(F)CC3)cc2n1C(=O)[O-] (3D coordinates assigned)
NC(=O)c1cc2ccc(C3(F)CC3)cc2n1C(=O)[O-] (nonaromatic ring conformer: 336.92139441082713 kcal/mol)

>  <smiles>  (95) 
NC(=O)c1cc2ccc(C3(F)CC3)cc2n1C(=O)O

>  <score_type>  (95) 
oracle

>  <origin>  (95) 
adg

>  <m_score__min__energy>  (95) 
-8.7200000000000006

>  <m_primary>  (95) 
energy

$$$$
95:0
     RDKit          3D

 38 39  0  0  0  0  0  0  0  0999 V2000
   -4.2170   23.5140  -27.4930 C   0  0  0  0  0  0  0  0  0  0  0  0
   -3.2880   24.4050  -28.2060 N   0  0  0  0  0  0  0  0  0  0  0  0
   -2.3560   25.0490  -27.2660 C   0  0  0  0  0  0  0  0  0  0  0  0
   -2.5520   23.6610  -29.2100 C   0  0  0  0  0  0  0  0  0  0  0  0
   -1.5010   24.1030  -29.6570 O   0  0  0  0  0  0  0  0  0  0  0  0
   -3.0710   22.3500  -29.7370 C   0  0  0  0  0  0  0  0  0  0  0  0
   -3.6960   22.5630  -31.0810 C   0  0  0  0  0  0  0  0  0  0  0  0
   -2.9970   22.4440  -32.1220 O   0  0  0  0  0  0  0  0  0  0  0  0
   -5.1100   22.7740  -31.1950 N   0  0  0  0  0  0  0  0  0  0  0  0
   -5.8280   23.8630  -30.8060 C   0  0  0  0  0  0  0  0  0  0  0  0
   -5.2630   25.1240  -30.2850 C   0  0  0  0  0  0  0  0  0  0  0  0
   -4.0460   25.6330  -30.8240 N   0  0  0  0  0  0  0  0  0  0  0  0
   -5.8340   25.7470  -29.3520 O   0  0  0  0  0  0  0  0  0  0  0  0
   -7.1890   23.6480  -31.0220 C   0  0  0  0  0  0  0  0  0  0  0  0
   -7.2780   22.3820  -31.5590 C   0  0  0  0  0  0  0  0  0  0  0  0
   -8.3930   21.6510  -31.9600 C   0  0  0  0  0  0  0  0  0  0  0  0
   -8.1830   20.3540  -32.4640 C   0  0  0  0  0  0  0  0  0  0  0  0
   -6.8760   19.8140  -32.5430 C   0  0  0  0  0  0  0  0  0  0  0  0
   -6.6620   18.4410  -33.1090 C   0  0  0  0  0  0  0  0  0  0  0  0
   -7.5340   17.5530  -32.5060 F   0  0  0  0  0  0  0  0  0  0  0  0
   -5.7680   20.5920  -32.1430 C   0  0  0  0  0  0  0  0  0  0  0  0
   -6.0080   21.8790  -31.6540 C   0  0  0  0  0  0  0  0  0  0  0  0
   -4.0858   23.6398  -26.4081 H   0  0  0  0  0  0  0  0  0  0  0  0
   -5.2515   23.7663  -27.7689 H   0  0  0  0  0  0  0  0  0  0  0  0
   -4.0081   22.4699  -27.7689 H   0  0  0  0  0  0  0  0  0  0  0  0
   -3.8520   25.1590  -28.6640 H   0  0  0  0  0  0  0  0  0  0  0  0
   -2.6687   24.8329  -26.2337 H   0  0  0  0  0  0  0  0  0  0  0  0
   -1.3409   24.6587  -27.4309 H   0  0  0  0  0  0  0  0  0  0  0  0
   -2.3620   26.1366  -27.4309 H   0  0  0  0  0  0  0  0  0  0  0  0
   -2.2387   21.6367  -29.8289 H   0  0  0  0  0  0  0  0  0  0  0  0
   -3.8238   21.9486  -29.0427 H   0  0  0  0  0  0  0  0  0  0  0  0
   -3.1220   25.2870  -30.4830 H   0  0  0  0  0  0  0  0  0  0  0  0
   -8.0157   24.3416  -30.8090 H   0  0  0  0  0  0  0  0  0  0  0  0
   -9.4058   22.0738  -31.8852 H   0  0  0  0  0  0  0  0  0  0  0  0
   -9.0417   19.7541  -32.7997 H   0  0  0  0  0  0  0  0  0  0  0  0
   -6.8476   18.4582  -34.1931 H   0  0  0  0  0  0  0  0  0  0  0  0
   -5.6260   18.1235  -32.9195 H   0  0  0  0  0  0  0  0  0  0  0  0
   -4.7442   20.1962  -32.2142 H   0  0  0  0  0  0  0  0  0  0  0  0
  1  2  1  0
  2  3  1  0
  2  4  1  0
  4  5  2  0
  4  6  1  0
  6  7  1  0
  7  8  2  0
  7  9  1  0
  9 10  1  0
 10 11  1  0
 11 12  1  0
 11 13  2  0
 10 14  2  0
 14 15  1  0
 15 16  2  0
 16 17  1  0
 17 18  2  0
 18 19  1  0
 19 20  1  0
 18 21  1  0
 21 22  2  0
 22  9  1  0
 22 15  1  0
  1 23  1  0
  1 24  1  0
  1 25  1  0
  2 26  1  0
  3 27  1  0
  3 28  1  0
  3 29  1  0
  6 30  1  0
  6 31  1  0
 12 32  1  0
 14 33  1  0
 16 34  1  0
 17 35  1  0
 19 36  1  0
 19 37  1  0
 21 38  1  0
M  CHG  2   2   1  12  -1
M  END
>  <UniqueID>  (96) 
96

>  <SMILES>  (96) 
C[NH+](C)C(=O)CC(=O)n1c(C([NH-])=O)cc2ccc(CF)cc21

>  <Energy>  (96) 
73.38747032432813

>  <Genealogy>  (96) 
C[NH+](C)C(=O)CC(=O)n1c(C([NH-])=O)cc2ccc(CF)cc21 (protonated)
C[NH+](C)C(=O)CC(=O)n1c(C([NH-])=O)cc2ccc(CF)cc21 (3D coordinates assigned)
C[NH+](C)C(=O)CC(=O)n1c(C([NH-])=O)cc2ccc(CF)cc21 (optimized conformer: 73.38747032432813 kcal/mol)

>  <smiles>  (96) 
CN(C)C(=O)CC(=O)n1c(C(N)=O)cc2ccc(CF)cc21

>  <score_type>  (96) 
oracle

>  <origin>  (96) 
adg

>  <m_score__min__energy>  (96) 
-8.7300000000000004

>  <m_primary>  (96) 
energy

$$$$
96:0
     RDKit          3D

 34 36  0  0  0  0  0  0  0  0999 V2000
   -4.2380   25.7750  -30.5250 N   0  0  0  0  0  0  0  0  0  0  0  0
   -5.5690   25.3180  -30.2890 C   0  0  0  0  0  0  0  0  0  0  0  0
   -6.3650   26.0460  -29.6400 O   0  0  0  0  0  0  0  0  0  0  0  0
   -5.9910   23.9930  -30.7840 C   0  0  0  0  0  0  0  0  0  0  0  0
   -7.3070   23.6640  -31.1090 C   0  0  0  0  0  0  0  0  0  0  0  0
   -7.2530   22.3720  -31.5850 C   0  0  0  0  0  0  0  0  0  0  0  0
   -8.2700   21.5380  -32.0360 C   0  0  0  0  0  0  0  0  0  0  0  0
   -7.9230   20.2390  -32.4480 C   0  0  0  0  0  0  0  0  0  0  0  0
   -6.5730   19.7950  -32.4040 C   0  0  0  0  0  0  0  0  0  0  0  0
   -6.1990   18.4200  -32.8210 C   0  0  0  0  0  0  0  0  0  0  0  0
   -5.7090   17.4750  -31.9030 C   0  0  0  0  0  0  0  0  0  0  0  0
   -5.3810   16.2000  -32.3630 C   0  0  0  0  0  0  0  0  0  0  0  0
   -5.5440   15.8880  -33.6740 N   0  0  0  0  0  0  0  0  0  0  0  0
   -6.0260   16.8050  -34.5520 C   0  0  0  0  0  0  0  0  0  0  0  0
   -6.3490   18.0520  -34.1250 N   0  0  0  0  0  0  0  0  0  0  0  0
   -5.5720   20.6750  -31.9280 C   0  0  0  0  0  0  0  0  0  0  0  0
   -5.9470   21.9630  -31.5360 C   0  0  0  0  0  0  0  0  0  0  0  0
   -5.1620   22.9430  -31.0450 N   0  0  0  0  0  0  0  0  0  0  0  0
   -3.7520   22.8510  -30.8030 C   0  0  0  0  0  0  0  0  0  0  0  0
   -2.9860   22.4610  -31.7240 O   0  0  0  0  0  0  0  0  0  0  0  0
   -3.2030   23.0970  -29.4320 C   0  0  0  0  0  0  0  0  0  0  0  0
   -1.9350   23.8830  -29.5330 C   0  0  0  0  0  0  0  0  0  0  0  0
   -0.8560   23.3060  -29.8330 O   0  0  0  0  0  0  0  0  0  0  0  0
   -1.9520   25.2590  -29.3450 O   0  0  0  0  0  0  0  0  0  0  0  0
   -3.5030   25.6890  -29.7880 H   0  0  0  0  0  0  0  0  0  0  0  0
   -8.1983   24.3005  -31.0070 H   0  0  0  0  0  0  0  0  0  0  0  0
   -9.3138   21.8836  -32.0695 H   0  0  0  0  0  0  0  0  0  0  0  0
   -8.7068   19.5570  -32.8093 H   0  0  0  0  0  0  0  0  0  0  0  0
   -5.5865   17.7363  -30.8415 H   0  0  0  0  0  0  0  0  0  0  0  0
   -4.9900   15.4468  -31.6631 H   0  0  0  0  0  0  0  0  0  0  0  0
   -6.1548   16.5366  -35.6109 H   0  0  0  0  0  0  0  0  0  0  0  0
   -4.5221   20.3524  -31.8679 H   0  0  0  0  0  0  0  0  0  0  0  0
   -3.9377   23.6619  -28.8394 H   0  0  0  0  0  0  0  0  0  0  0  0
   -2.9976   22.1336  -28.9425 H   0  0  0  0  0  0  0  0  0  0  0  0
  1  2  1  0
  2  3  2  0
  2  4  1  0
  4  5  2  0
  5  6  1  0
  6  7  2  0
  7  8  1  0
  8  9  2  0
  9 10  1  0
 10 11  2  0
 11 12  1  0
 12 13  2  0
 13 14  1  0
 14 15  2  0
  9 16  1  0
 16 17  2  0
 17 18  1  0
 18 19  1  0
 19 20  2  0
 19 21  1  0
 21 22  1  0
 22 23  2  0
 22 24  1  0
 18  4  1  0
 17  6  1  0
 15 10  1  0
  1 25  1  0
  5 26  1  0
  7 27  1  0
  8 28  1  0
 11 29  1  0
 12 30  1  0
 14 31  1  0
 16 32  1  0
 21 33  1  0
 21 34  1  0
M  CHG  2   1  -1  24  -1
M  END
>  <UniqueID>  (97) 
97

>  <SMILES>  (97) 
[NH-]C(=O)c1cc2ccc(-c3ccncn3)cc2n1C(=O)CC(=O)[O-]

>  <Energy>  (97) 
79.45563491776883

>  <Genealogy>  (97) 
[NH-]C(=O)c1cc2ccc(-c3ccncn3)cc2n1C(=O)CC(=O)[O-] (protonated)
[NH-]C(=O)c1cc2ccc(-c3ccncn3)cc2n1C(=O)CC(=O)[O-] (3D coordinates assigned)
[NH-]C(=O)c1cc2ccc(-c3ccncn3)cc2n1C(=O)CC(=O)[O-] (optimized conformer: 79.45563491776883 kcal/mol)

>  <smiles>  (97) 
NC(=O)c1cc2ccc(-c3ccncn3)cc2n1C(=O)CC(=O)O

>  <score_type>  (97) 
oracle

>  <origin>  (97) 
adg

>  <m_score__min__energy>  (97) 
-12.15

>  <m_primary>  (97) 
energy

$$$$
97:0
     RDKit          3D

 29 30  0  0  0  0  0  0  0  0999 V2000
   -4.4610   25.6760  -30.8270 N   0  0  0  0  0  0  0  0  0  0  0  0
   -5.7350   25.0960  -30.5520 C   0  0  0  0  0  0  0  0  0  0  0  0
   -6.5850   25.7550  -29.8960 O   0  0  0  0  0  0  0  0  0  0  0  0
   -6.0550   23.7460  -31.0590 C   0  0  0  0  0  0  0  0  0  0  0  0
   -7.3260   23.3510  -31.4770 C   0  0  0  0  0  0  0  0  0  0  0  0
   -7.2030   22.0180  -31.8030 C   0  0  0  0  0  0  0  0  0  0  0  0
   -8.1540   21.1170  -32.2730 C   0  0  0  0  0  0  0  0  0  0  0  0
   -7.7400   19.7990  -32.5330 C   0  0  0  0  0  0  0  0  0  0  0  0
   -6.3880   19.4100  -32.3440 C   0  0  0  0  0  0  0  0  0  0  0  0
   -5.9670   17.9840  -32.5870 C   0  0  0  0  0  0  0  0  0  0  0  0
   -6.7000   17.4300  -33.6220 F   0  0  0  0  0  0  0  0  0  0  0  0
   -4.6260   17.9180  -32.9230 F   0  0  0  0  0  0  0  0  0  0  0  0
   -6.1800   17.2440  -31.4380 F   0  0  0  0  0  0  0  0  0  0  0  0
   -5.4580   20.3510  -31.8420 C   0  0  0  0  0  0  0  0  0  0  0  0
   -5.9030   21.6500  -31.5830 C   0  0  0  0  0  0  0  0  0  0  0  0
   -5.1870   22.7000  -31.1300 N   0  0  0  0  0  0  0  0  0  0  0  0
   -3.7820   22.6970  -30.8390 C   0  0  0  0  0  0  0  0  0  0  0  0
   -2.9520   22.5440  -31.7740 O   0  0  0  0  0  0  0  0  0  0  0  0
   -3.2960   22.9910  -29.4540 C   0  0  0  0  0  0  0  0  0  0  0  0
   -2.1110   23.9000  -29.5190 C   0  0  0  0  0  0  0  0  0  0  0  0
   -0.9560   23.4260  -29.6840 O   0  0  0  0  0  0  0  0  0  0  0  0
   -2.2740   25.2690  -29.3440 O   0  0  0  0  0  0  0  0  0  0  0  0
   -3.8760   26.0710  -30.0590 H   0  0  0  0  0  0  0  0  0  0  0  0
   -8.2327   23.9713  -31.5341 H   0  0  0  0  0  0  0  0  0  0  0  0
   -9.1969   21.4265  -32.4359 H   0  0  0  0  0  0  0  0  0  0  0  0
   -8.4732   19.0596  -32.8875 H   0  0  0  0  0  0  0  0  0  0  0  0
   -4.4110   20.0670  -31.6602 H   0  0  0  0  0  0  0  0  0  0  0  0
   -4.0988   23.4770  -28.8801 H   0  0  0  0  0  0  0  0  0  0  0  0
   -3.0076   22.0506  -28.9615 H   0  0  0  0  0  0  0  0  0  0  0  0
  1  2  1  0
  2  3  2  0
  2  4  1  0
  4  5  2  0
  5  6  1  0
  6  7  2  0
  7  8  1  0
  8  9  2  0
  9 10  1  0
 10 11  1  0
 10 12  1  0
 10 13  1  0
  9 14  1  0
 14 15  2  0
 15 16  1  0
 16 17  1  0
 17 18  2  0
 17 19  1  0
 19 20  1  0
 20 21  2  0
 20 22  1  0
 16  4  1  0
 15  6  1  0
  1 23  1  0
  5 24  1  0
  7 25  1  0
  8 26  1  0
 14 27  1  0
 19 28  1  0
 19 29  1  0
M  CHG  2   1  -1  22  -1
M  END
>  <UniqueID>  (98) 
98

>  <SMILES>  (98) 
[NH-]C(=O)c1cc2ccc(C(F)(F)F)cc2n1C(=O)CC(=O)[O-]

>  <Energy>  (98) 
67.57329045229244

>  <Genealogy>  (98) 
[NH-]C(=O)c1cc2ccc(C(F)(F)F)cc2n1C(=O)CC(=O)[O-] (protonated)
[NH-]C(=O)c1cc2ccc(C(F)(F)F)cc2n1C(=O)CC(=O)[O-] (3D coordinates assigned)
[NH-]C(=O)c1cc2ccc(C(F)(F)F)cc2n1C(=O)CC(=O)[O-] (optimized conformer: 67.57329045229244 kcal/mol)

>  <smiles>  (98) 
NC(=O)c1cc2ccc(C(F)(F)F)cc2n1C(=O)CC(=O)O

>  <score_type>  (98) 
oracle

>  <origin>  (98) 
adg

>  <m_score__min__energy>  (98) 
-11

>  <m_primary>  (98) 
energy

$$$$
98:0
     RDKit          3D

 37 38  0  0  0  0  0  0  0  0999 V2000
   -4.2010   25.5670  -30.7840 N   0  0  0  0  0  0  0  0  0  0  0  0
   -5.5440   25.1490  -30.5340 C   0  0  0  0  0  0  0  0  0  0  0  0
   -6.3260   25.9310  -29.9310 O   0  0  0  0  0  0  0  0  0  0  0  0
   -6.0240   23.8270  -30.9940 C   0  0  0  0  0  0  0  0  0  0  0  0
   -7.3460   23.5580  -31.3500 C   0  0  0  0  0  0  0  0  0  0  0  0
   -7.3830   22.2100  -31.6240 C   0  0  0  0  0  0  0  0  0  0  0  0
   -8.4430   21.4110  -32.0410 C   0  0  0  0  0  0  0  0  0  0  0  0
   -8.1890   20.0480  -32.2750 C   0  0  0  0  0  0  0  0  0  0  0  0
   -6.8900   19.5080  -32.0770 C   0  0  0  0  0  0  0  0  0  0  0  0
   -6.6170   18.0590  -32.3890 C   0  0  0  0  0  0  0  0  0  0  0  0
   -5.3970   17.9540  -33.0300 F   0  0  0  0  0  0  0  0  0  0  0  0
   -6.5820   17.3070  -31.2280 F   0  0  0  0  0  0  0  0  0  0  0  0
   -7.6040   17.5400  -33.2090 F   0  0  0  0  0  0  0  0  0  0  0  0
   -5.8360   20.3600  -31.6740 C   0  0  0  0  0  0  0  0  0  0  0  0
   -6.1230   21.7090  -31.4350 C   0  0  0  0  0  0  0  0  0  0  0  0
   -5.2750   22.6890  -31.0520 N   0  0  0  0  0  0  0  0  0  0  0  0
   -3.8660   22.5390  -30.8050 C   0  0  0  0  0  0  0  0  0  0  0  0
   -3.0470   22.9890  -31.6470 O   0  0  0  0  0  0  0  0  0  0  0  0
   -3.3900   21.9600  -29.5290 C   0  0  0  0  0  0  0  0  0  0  0  0
   -3.2170   20.7130  -29.4740 O   0  0  0  0  0  0  0  0  0  0  0  0
   -3.1380   22.7240  -28.3360 N   0  0  0  0  0  0  0  0  0  0  0  0
   -1.9130   23.3590  -27.8370 C   0  0  1  0  0  0  0  0  0  0  0  0
   -0.8550   22.3180  -27.4230 C   0  0  0  0  0  0  0  0  0  0  0  0
   -1.4330   21.0670  -27.1790 O   0  0  0  0  0  0  0  0  0  0  0  0
   -1.4080   24.4250  -28.7700 C   0  0  0  0  0  0  0  0  0  0  0  0
   -0.1720   24.5960  -28.9420 O   0  0  0  0  0  0  0  0  0  0  0  0
   -2.3060   25.2950  -29.3800 O   0  0  0  0  0  0  0  0  0  0  0  0
   -3.5040   24.9270  -31.2220 H   0  0  0  0  0  0  0  0  0  0  0  0
   -3.8860   26.5180  -30.4870 H   0  0  0  0  0  0  0  0  0  0  0  0
   -8.1813   24.2719  -31.4008 H   0  0  0  0  0  0  0  0  0  0  0  0
   -9.4489   21.8327  -32.1833 H   0  0  0  0  0  0  0  0  0  0  0  0
   -9.0047   19.3929  -32.6150 H   0  0  0  0  0  0  0  0  0  0  0  0
   -4.8142   19.9717  -31.5511 H   0  0  0  0  0  0  0  0  0  0  0  0
   -2.1643   23.8946  -26.9097 H   0  0  0  0  0  0  0  0  0  0  0  0
   -0.1161   22.2185  -28.2318 H   0  0  0  0  0  0  0  0  0  0  0  0
   -0.3763   22.6635  -26.4948 H   0  0  0  0  0  0  0  0  0  0  0  0
   -2.3340   21.0940  -27.5970 H   0  0  0  0  0  0  0  0  0  0  0  0
  1  2  1  0
  2  3  2  0
  2  4  1  0
  4  5  2  0
  5  6  1  0
  6  7  2  0
  7  8  1  0
  8  9  2  0
  9 10  1  0
 10 11  1  0
 10 12  1  0
 10 13  1  0
  9 14  1  0
 14 15  2  0
 15 16  1  0
 16 17  1  0
 17 18  2  0
 17 19  1  0
 19 20  2  0
 19 21  1  0
 21 22  1  0
 22 23  1  0
 23 24  1  0
 22 25  1  0
 25 26  2  0
 25 27  1  0
 16  4  1  0
 15  6  1  0
  1 28  1  0
  1 29  1  0
  5 30  1  0
  7 31  1  0
  8 32  1  0
 14 33  1  0
 22 34  1  1
 23 35  1  0
 23 36  1  0
 24 37  1  0
M  CHG  2  21  -1  27  -1
M  END
>  <UniqueID>  (99) 
99

>  <SMILES>  (99) 
NC(=O)c1cc2ccc(C(F)(F)F)cc2n1C(=O)C(=O)[N-][C@@H](CO)C(=O)[O-]

>  <Energy>  (99) 
81.85669649464627

>  <Genealogy>  (99) 
NC(=O)c1cc2ccc(C(F)(F)F)cc2n1C(=O)C(=O)[N-]C(CO)C(=O)[O-] (protonated)
NC(=O)c1cc2ccc(C(F)(F)F)cc2n1C(=O)C(=O)[N-][C@@H](CO)C(=O)[O-] (chirality)
NC(=O)c1cc2ccc(C(F)(F)F)cc2n1C(=O)C(=O)[N-][C@@H](CO)C(=O)[O-] (3D coordinates assigned)
NC(=O)c1cc2ccc(C(F)(F)F)cc2n1C(=O)C(=O)[N-][C@@H](CO)C(=O)[O-] (optimized conformer: 81.85669649464627 kcal/mol)

>  <smiles>  (99) 
NC(=O)c1cc2ccc(C(F)(F)F)cc2n1C(=O)C(=O)NC(CO)C(=O)O

>  <score_type>  (99) 
oracle

>  <origin>  (99) 
adg

>  <m_score__min__energy>  (99) 
-10.74

>  <m_primary>  (99) 
energy

$$$$
99:0
     RDKit          3D

 27 28  0  0  0  0  0  0  0  0999 V2000
   -1.1270   22.8620  -29.9380 N   0  0  0  0  0  0  0  0  0  0  0  0
   -1.5360   22.0320  -31.0270 C   0  0  0  0  0  0  0  0  0  0  0  0
   -0.6590   21.4400  -31.7110 O   0  0  0  0  0  0  0  0  0  0  0  0
   -2.9650   21.8140  -31.3340 C   0  0  0  0  0  0  0  0  0  0  0  0
   -3.4150   20.9770  -32.3510 C   0  0  0  0  0  0  0  0  0  0  0  0
   -4.7880   21.0520  -32.3020 C   0  0  0  0  0  0  0  0  0  0  0  0
   -5.7470   20.4560  -33.1160 C   0  0  0  0  0  0  0  0  0  0  0  0
   -7.0970   20.7640  -32.8790 C   0  0  0  0  0  0  0  0  0  0  0  0
   -7.4670   21.6560  -31.8390 C   0  0  0  0  0  0  0  0  0  0  0  0
   -8.9130   22.0310  -31.6390 C   0  0  0  0  0  0  0  0  0  0  0  0
   -9.2600   21.9450  -30.3020 F   0  0  0  0  0  0  0  0  0  0  0  0
   -9.1090   23.3290  -32.0730 F   0  0  0  0  0  0  0  0  0  0  0  0
   -9.7410   21.1850  -32.3560 F   0  0  0  0  0  0  0  0  0  0  0  0
   -6.4600   22.2640  -31.0530 C   0  0  0  0  0  0  0  0  0  0  0  0
   -5.1260   21.9150  -31.2930 C   0  0  0  0  0  0  0  0  0  0  0  0
   -4.0160   22.3870  -30.6830 N   0  0  0  0  0  0  0  0  0  0  0  0
   -3.9600   23.4110  -29.6770 C   0  0  0  0  0  0  0  0  0  0  0  0
   -4.3430   23.1530  -28.5050 O   0  0  0  0  0  0  0  0  0  0  0  0
   -3.4930   24.7660  -30.0020 C   0  0  0  0  0  0  0  0  0  0  0  0
   -4.0960   25.4610  -30.8620 O   0  0  0  0  0  0  0  0  0  0  0  0
   -2.3920   25.2990  -29.3430 O   0  0  0  0  0  0  0  0  0  0  0  0
   -1.8140   23.2080  -29.2330 H   0  0  0  0  0  0  0  0  0  0  0  0
   -0.1130   23.0480  -29.7750 H   0  0  0  0  0  0  0  0  0  0  0  0
   -2.8035   20.3824  -33.0457 H   0  0  0  0  0  0  0  0  0  0  0  0
   -5.4565   19.7646  -33.9207 H   0  0  0  0  0  0  0  0  0  0  0  0
   -7.8767   20.3083  -33.5071 H   0  0  0  0  0  0  0  0  0  0  0  0
   -6.7193   22.9937  -30.2718 H   0  0  0  0  0  0  0  0  0  0  0  0
  1  2  1  0
  2  3  2  0
  2  4  1  0
  4  5  2  0
  5  6  1  0
  6  7  2  0
  7  8  1  0
  8  9  2  0
  9 10  1  0
 10 11  1  0
 10 12  1  0
 10 13  1  0
  9 14  1  0
 14 15  2  0
 15 16  1  0
 16 17  1  0
 17 18  2  0
 17 19  1  0
 19 20  2  0
 19 21  1  0
 16  4  1  0
 15  6  1  0
  1 22  1  0
  1 23  1  0
  5 24  1  0
  7 25  1  0
  8 26  1  0
 14 27  1  0
M  CHG  1  21  -1
M  END
>  <UniqueID>  (100) 
100

>  <SMILES>  (100) 
NC(=O)c1cc2ccc(C(F)(F)F)cc2n1C(=O)C(=O)[O-]

>  <Energy>  (100) 
68.31002333906551

>  <Genealogy>  (100) 
NC(=O)c1cc2ccc(C(F)(F)F)cc2n1C(=O)C(=O)[O-] (protonated)
NC(=O)c1cc2ccc(C(F)(F)F)cc2n1C(=O)C(=O)[O-] (3D coordinates assigned)
NC(=O)c1cc2ccc(C(F)(F)F)cc2n1C(=O)C(=O)[O-] (optimized conformer: 68.31002333906551 kcal/mol)

>  <smiles>  (100) 
NC(=O)c1cc2ccc(C(F)(F)F)cc2n1C(=O)C(=O)O

>  <score_type>  (100) 
oracle

>  <origin>  (100) 
adg

>  <m_score__min__energy>  (100) 
-8.7599999999999998

>  <m_primary>  (100) 
energy

$$$$
