0:0
     RDKit          3D

 37 38  0  0  0  0  0  0  0  0999 V2000
   -6.3160   14.7220  -34.2340 C   0  0  0  0  0  0  0  0  0  0  0  0
   -6.5330   15.8480  -33.8310 C   0  0  0  0  0  0  0  0  0  0  0  0
   -6.7660   17.1610  -33.3650 C   0  0  0  0  0  0  0  0  0  0  0  0
   -6.9550   18.2940  -32.9420 C   0  0  0  0  0  0  0  0  0  0  0  0
   -7.1790   19.6400  -32.4670 C   0  0  0  0  0  0  0  0  0  0  0  0
   -8.4720   20.0970  -32.3550 C   0  0  0  0  0  0  0  0  0  0  0  0
   -8.6510   21.3790  -31.9000 C   0  0  0  0  0  0  0  0  0  0  0  0
   -7.5720   22.1730  -31.5710 C   0  0  0  0  0  0  0  0  0  0  0  0
   -7.5260   23.4260  -31.0740 C   0  0  0  0  0  0  0  0  0  0  0  0
   -6.1790   23.7800  -30.8720 C   0  0  0  0  0  0  0  0  0  0  0  0
   -5.8440   25.0910  -30.3610 C   0  0  0  0  0  0  0  0  0  0  0  0
   -6.0790   25.4150  -28.9560 N   0  0  0  0  0  0  0  0  0  0  0  0
   -5.3480   26.0480  -30.9990 O   0  0  0  0  0  0  0  0  0  0  0  0
   -5.4020   22.7200  -31.2530 N   0  0  0  0  0  0  0  0  0  0  0  0
   -4.0280   22.6810  -31.0710 C   0  0  0  0  0  0  0  0  0  0  0  0
   -3.5150   23.8950  -30.8460 O   0  0  0  0  0  0  0  0  0  0  0  0
   -3.0150   21.7470  -31.0620 N   0  0  0  0  0  0  0  0  0  0  0  0
   -1.7050   22.3250  -30.5240 C   0  0  0  0  0  0  0  0  0  0  0  0
   -2.8320   20.4260  -31.5490 C   0  0  0  0  0  0  0  0  0  0  0  0
   -2.8480   20.4550  -33.0890 C   0  0  0  0  0  0  0  0  0  0  0  0
   -3.4110   19.5400  -33.7250 O   0  0  0  0  0  0  0  0  0  0  0  0
   -2.2240   21.5180  -33.7390 O   0  0  0  0  0  0  0  0  0  0  0  0
   -6.2580   21.7430  -31.6770 C   0  0  0  0  0  0  0  0  0  0  0  0
   -6.1180   20.4510  -32.1320 C   0  0  0  0  0  0  0  0  0  0  0  0
   -6.1196   13.7030  -34.5987 H   0  0  0  0  0  0  0  0  0  0  0  0
   -9.3285   19.4596  -32.6198 H   0  0  0  0  0  0  0  0  0  0  0  0
   -9.6702   21.7796  -31.7960 H   0  0  0  0  0  0  0  0  0  0  0  0
   -8.3961   24.0646  -30.8619 H   0  0  0  0  0  0  0  0  0  0  0  0
   -6.9840   25.0630  -28.5620 H   0  0  0  0  0  0  0  0  0  0  0  0
   -5.3820   25.9540  -28.4200 H   0  0  0  0  0  0  0  0  0  0  0  0
   -1.7247   22.3163  -29.4242 H   0  0  0  0  0  0  0  0  0  0  0  0
   -0.8615   21.7155  -30.8804 H   0  0  0  0  0  0  0  0  0  0  0  0
   -1.5867   23.3589  -30.8804 H   0  0  0  0  0  0  0  0  0  0  0  0
   -1.8666   20.0332  -31.1971 H   0  0  0  0  0  0  0  0  0  0  0  0
   -3.6404   19.7776  -31.1801 H   0  0  0  0  0  0  0  0  0  0  0  0
   -1.9950   21.4360  -34.7370 H   0  0  0  0  0  0  0  0  0  0  0  0
   -5.1012   20.0438  -32.2336 H   0  0  0  0  0  0  0  0  0  0  0  0
  1  2  3  0
  2  3  1  0
  3  4  3  0
  4  5  1  0
  5  6  2  0
  6  7  1  0
  7  8  2  0
  8  9  1  0
  9 10  2  0
 10 11  1  0
 11 12  1  0
 11 13  2  0
 10 14  1  0
 14 15  1  0
 15 16  2  0
 15 17  1  0
 17 18  1  0
 17 19  1  0
 19 20  1  0
 20 21  2  0
 20 22  1  0
 14 23  1  0
 23 24  2  0
 24  5  1  0
 23  8  1  0
  1 25  1  0
  6 26  1  0
  7 27  1  0
  9 28  1  0
 12 29  1  0
 12 30  1  0
 18 31  1  0
 18 32  1  0
 18 33  1  0
 19 34  1  0
 19 35  1  0
 22 36  1  0
 24 37  1  0
M  END
>  <smiles>  (1) 
C#CC#Cc1ccc2cc(C(N)=O)n(C(=O)N(C)CC(=O)O)c2c1

>  <score_type>  (1) 
oracle

>  <origin>  (1) 
adg

>  <m_score__min__energy>  (1) 
-9.4299999999999997

>  <m_primary>  (1) 
energy

$$$$
1:0
     RDKit          3D

 45 47  0  0  0  0  0  0  0  0999 V2000
   -1.5690   25.9710  -26.6820 C   0  0  0  0  0  0  0  0  0  0  0  0
   -0.9560   25.7300  -28.0330 C   0  0  0  0  0  0  0  0  0  0  0  0
   -1.9900   25.5410  -28.9650 O   0  0  0  0  0  0  0  0  0  0  0  0
   -2.8020   24.4130  -28.8310 C   0  0  0  0  0  0  0  0  0  0  0  0
   -3.7660   24.3820  -28.0210 O   0  0  0  0  0  0  0  0  0  0  0  0
   -2.4500   23.2530  -29.7080 C   0  0  0  0  0  0  0  0  0  0  0  0
   -3.2060   23.2030  -30.8780 O   0  0  0  0  0  0  0  0  0  0  0  0
   -4.2440   22.3620  -31.1630 C   0  0  0  0  0  0  0  0  0  0  0  0
   -3.9070   21.1700  -31.4910 O   0  0  0  0  0  0  0  0  0  0  0  0
   -5.6220   22.6880  -31.1250 N   0  0  0  0  0  0  0  0  0  0  0  0
   -6.1710   23.8520  -30.7540 C   0  0  0  0  0  0  0  0  0  0  0  0
   -5.5700   25.0860  -30.2960 C   0  0  0  0  0  0  0  0  0  0  0  0
   -6.0820   25.7290  -29.1110 N   0  0  0  0  0  0  0  0  0  0  0  0
   -4.6120   25.6830  -30.8400 O   0  0  0  0  0  0  0  0  0  0  0  0
   -7.5560   23.7060  -30.8800 C   0  0  0  0  0  0  0  0  0  0  0  0
   -7.8360   22.4410  -31.3310 C   0  0  0  0  0  0  0  0  0  0  0  0
   -9.0430   21.8220  -31.6100 C   0  0  0  0  0  0  0  0  0  0  0  0
   -9.0420   20.5210  -32.0580 C   0  0  0  0  0  0  0  0  0  0  0  0
   -7.8410   19.8650  -32.2190 C   0  0  0  0  0  0  0  0  0  0  0  0
   -7.8670   18.4600  -32.7040 C   0  0  0  0  0  0  0  0  0  0  0  0
   -6.5530   18.0350  -33.1890 N   0  0  0  0  0  0  0  0  0  0  0  0
   -5.6300   17.2930  -32.5490 C   0  0  0  0  0  0  0  0  0  0  0  0
   -4.5480   17.1610  -33.4260 C   0  0  0  0  0  0  0  0  0  0  0  0
   -4.8840   17.8370  -34.5510 N   0  0  0  0  0  0  0  0  0  0  0  0
   -6.1130   18.3770  -34.4130 C   0  0  0  0  0  0  0  0  0  0  0  0
   -6.6390   20.5140  -31.9290 C   0  0  0  0  0  0  0  0  0  0  0  0
   -6.6170   21.8210  -31.4780 C   0  0  0  0  0  0  0  0  0  0  0  0
   -0.8510   25.6887  -25.8979 H   0  0  0  0  0  0  0  0  0  0  0  0
   -1.8237   27.0362  -26.5797 H   0  0  0  0  0  0  0  0  0  0  0  0
   -2.4809   25.3645  -26.5797 H   0  0  0  0  0  0  0  0  0  0  0  0
   -0.3479   26.5989  -28.3248 H   0  0  0  0  0  0  0  0  0  0  0  0
   -0.3109   24.8396  -28.0005 H   0  0  0  0  0  0  0  0  0  0  0  0
   -1.3872   23.3303  -29.9809 H   0  0  0  0  0  0  0  0  0  0  0  0
   -2.6636   22.3356  -29.1399 H   0  0  0  0  0  0  0  0  0  0  0  0
   -5.6680   25.4120  -28.2160 H   0  0  0  0  0  0  0  0  0  0  0  0
   -6.8180   26.4610  -29.1600 H   0  0  0  0  0  0  0  0  0  0  0  0
   -8.3021   24.4819  -30.6536 H   0  0  0  0  0  0  0  0  0  0  0  0
   -9.9908   22.3637  -31.4751 H   0  0  0  0  0  0  0  0  0  0  0  0
   -9.9894   20.0103  -32.2851 H   0  0  0  0  0  0  0  0  0  0  0  0
   -8.1726   17.8021  -31.8771 H   0  0  0  0  0  0  0  0  0  0  0  0
   -8.5800   18.3966  -33.5392 H   0  0  0  0  0  0  0  0  0  0  0  0
   -5.7107   16.8730  -31.5356 H   0  0  0  0  0  0  0  0  0  0  0  0
   -3.6106   16.6165  -33.2392 H   0  0  0  0  0  0  0  0  0  0  0  0
   -6.6514   18.9808  -35.1583 H   0  0  0  0  0  0  0  0  0  0  0  0
   -5.6898   19.9742  -32.0621 H   0  0  0  0  0  0  0  0  0  0  0  0
  1  2  1  0
  2  3  1  0
  3  4  1  0
  4  5  2  0
  4  6  1  0
  6  7  1  0
  7  8  1  0
  8  9  2  0
  8 10  1  0
 10 11  1  0
 11 12  1  0
 12 13  1  0
 12 14  2  0
 11 15  2  0
 15 16  1  0
 16 17  2  0
 17 18  1  0
 18 19  2  0
 19 20  1  0
 20 21  1  0
 21 22  1  0
 22 23  2  0
 23 24  1  0
 24 25  2  0
 19 26  1  0
 26 27  2  0
 27 10  1  0
 27 16  1  0
 25 21  1  0
  1 28  1  0
  1 29  1  0
  1 30  1  0
  2 31  1  0
  2 32  1  0
  6 33  1  0
  6 34  1  0
 13 35  1  0
 13 36  1  0
 15 37  1  0
 17 38  1  0
 18 39  1  0
 20 40  1  0
 20 41  1  0
 22 42  1  0
 23 43  1  0
 25 44  1  0
 26 45  1  0
M  END
>  <smiles>  (2) 
CCOC(=O)COC(=O)n1c(C(N)=O)cc2ccc(Cn3ccnc3)cc21

>  <score_type>  (2) 
oracle

>  <origin>  (2) 
adg

>  <m_score__min__energy>  (2) 
-9.4100000000000001

>  <m_primary>  (2) 
energy

$$$$
2:0
     RDKit          3D

 43 44  0  0  0  0  0  0  0  0999 V2000
   -3.4060   20.4220  -31.2180 C   0  0  0  0  0  0  0  0  0  0  0  0
   -3.1240   20.8550  -32.6620 C   0  0  0  0  0  0  0  0  0  0  0  0
   -1.6380   21.2220  -32.7620 C   0  0  0  0  0  0  0  0  0  0  0  0
   -3.4160   19.6910  -33.5400 C   0  0  0  0  0  0  0  0  0  0  0  0
   -3.8810   22.0020  -32.8660 O   0  0  0  0  0  0  0  0  0  0  0  0
   -4.3480   22.7650  -31.8350 C   0  0  0  0  0  0  0  0  0  0  0  0
   -3.4360   23.3820  -31.1710 O   0  0  0  0  0  0  0  0  0  0  0  0
   -5.6940   22.9350  -31.4410 N   0  0  0  0  0  0  0  0  0  0  0  0
   -6.2250   23.9820  -30.7850 C   0  0  0  0  0  0  0  0  0  0  0  0
   -5.6530   25.2040  -30.2920 C   0  0  0  0  0  0  0  0  0  0  0  0
   -6.1140   26.0120  -29.2310 N   0  0  0  0  0  0  0  0  0  0  0  0
   -4.5880   25.6520  -30.8580 O   0  0  0  0  0  0  0  0  0  0  0  0
   -7.5890   23.6870  -30.6240 C   0  0  0  0  0  0  0  0  0  0  0  0
   -7.8610   22.4650  -31.1860 C   0  0  0  0  0  0  0  0  0  0  0  0
   -9.0290   21.7430  -31.2880 C   0  0  0  0  0  0  0  0  0  0  0  0
   -9.0340   20.5150  -31.9130 C   0  0  0  0  0  0  0  0  0  0  0  0
   -7.8620   20.0390  -32.4240 C   0  0  0  0  0  0  0  0  0  0  0  0
   -7.8370   18.7670  -33.0710 N   0  0  0  0  0  0  0  0  0  0  0  0
   -6.7070   17.8950  -33.0040 C   0  0  0  0  0  0  0  0  0  0  0  0
   -5.9530   17.7990  -34.2820 C   0  0  0  0  0  0  0  0  0  0  0  0
   -5.1950   16.8530  -34.5830 O   0  0  0  0  0  0  0  0  0  0  0  0
   -6.1140   18.8360  -35.1860 O   0  0  0  0  0  0  0  0  0  0  0  0
   -6.6930   20.7780  -32.3130 C   0  0  0  0  0  0  0  0  0  0  0  0
   -6.6570   22.0190  -31.6880 C   0  0  0  0  0  0  0  0  0  0  0  0
   -2.9405   21.1367  -30.5234 H   0  0  0  0  0  0  0  0  0  0  0  0
   -4.4925   20.3995  -31.0475 H   0  0  0  0  0  0  0  0  0  0  0  0
   -2.9873   19.4192  -31.0475 H   0  0  0  0  0  0  0  0  0  0  0  0
   -1.2171   21.3259  -31.7510 H   0  0  0  0  0  0  0  0  0  0  0  0
   -1.1003   20.4297  -33.3033 H   0  0  0  0  0  0  0  0  0  0  0  0
   -1.5310   22.1736  -33.3033 H   0  0  0  0  0  0  0  0  0  0  0  0
   -3.6370   18.8100  -32.9195 H   0  0  0  0  0  0  0  0  0  0  0  0
   -4.2847   19.9195  -34.1750 H   0  0  0  0  0  0  0  0  0  0  0  0
   -2.5424   19.4824  -34.1750 H   0  0  0  0  0  0  0  0  0  0  0  0
   -5.7580   25.8220  -28.2480 H   0  0  0  0  0  0  0  0  0  0  0  0
   -6.8000   26.8030  -29.4180 H   0  0  0  0  0  0  0  0  0  0  0  0
   -8.3247   24.3349  -30.1250 H   0  0  0  0  0  0  0  0  0  0  0  0
   -9.9618   22.1482  -30.8689 H   0  0  0  0  0  0  0  0  0  0  0  0
   -9.9625   19.9313  -31.9981 H   0  0  0  0  0  0  0  0  0  0  0  0
   -8.6750   18.4560  -33.6140 H   0  0  0  0  0  0  0  0  0  0  0  0
   -6.0255   18.2680  -32.2253 H   0  0  0  0  0  0  0  0  0  0  0  0
   -7.0890   16.8885  -32.7783 H   0  0  0  0  0  0  0  0  0  0  0  0
   -6.9630   19.3760  -35.1400 H   0  0  0  0  0  0  0  0  0  0  0  0
   -5.7631   20.3679  -32.7339 H   0  0  0  0  0  0  0  0  0  0  0  0
  1  2  1  0
  2  3  1  0
  2  4  1  0
  2  5  1  0
  5  6  1  0
  6  7  2  0
  6  8  1  0
  8  9  1  0
  9 10  1  0
 10 11  1  0
 10 12  2  0
  9 13  2  0
 13 14  1  0
 14 15  2  0
 15 16  1  0
 16 17  2  0
 17 18  1  0
 18 19  1  0
 19 20  1  0
 20 21  2  0
 20 22  1  0
 17 23  1  0
 23 24  2  0
 24  8  1  0
 24 14  1  0
  1 25  1  0
  1 26  1  0
  1 27  1  0
  3 28  1  0
  3 29  1  0
  3 30  1  0
  4 31  1  0
  4 32  1  0
  4 33  1  0
 11 34  1  0
 11 35  1  0
 13 36  1  0
 15 37  1  0
 16 38  1  0
 18 39  1  0
 19 40  1  0
 19 41  1  0
 22 42  1  0
 23 43  1  0
M  END
>  <smiles>  (3) 
CC(C)(C)OC(=O)n1c(C(N)=O)cc2ccc(NCC(=O)O)cc21

>  <score_type>  (3) 
oracle

>  <origin>  (3) 
adg

>  <m_score__min__energy>  (3) 
-9.2300000000000004

>  <m_primary>  (3) 
energy

$$$$
3:0
     RDKit          3D

 34 35  0  0  0  0  0  0  0  0999 V2000
   -6.1630   18.9070  -35.1380 N   0  0  0  0  0  0  0  0  0  0  0  0
   -6.0740   17.6150  -34.4370 C   0  0  0  0  0  0  0  0  0  0  0  0
   -6.6720   17.8300  -33.0880 C   0  0  0  0  0  0  0  0  0  0  0  0
   -7.7970   18.7160  -33.0410 N   0  0  0  0  0  0  0  0  0  0  0  0
   -7.8050   20.0010  -32.4380 C   0  0  0  0  0  0  0  0  0  0  0  0
   -8.9460   20.5840  -31.9330 C   0  0  0  0  0  0  0  0  0  0  0  0
   -8.9500   21.8290  -31.3320 C   0  0  0  0  0  0  0  0  0  0  0  0
   -7.7450   22.4850  -31.2540 C   0  0  0  0  0  0  0  0  0  0  0  0
   -7.4260   23.7110  -30.7270 C   0  0  0  0  0  0  0  0  0  0  0  0
   -6.0560   23.9470  -30.8830 C   0  0  0  0  0  0  0  0  0  0  0  0
   -5.4390   25.1750  -30.4140 C   0  0  0  0  0  0  0  0  0  0  0  0
   -6.0680   25.9360  -29.3710 N   0  0  0  0  0  0  0  0  0  0  0  0
   -4.3680   25.6590  -30.8430 O   0  0  0  0  0  0  0  0  0  0  0  0
   -5.5610   22.8750  -31.4960 N   0  0  0  0  0  0  0  0  0  0  0  0
   -4.2240   22.6640  -31.8620 C   0  0  0  0  0  0  0  0  0  0  0  0
   -3.1410   23.3370  -31.1940 N   0  0  0  0  0  0  0  0  0  0  0  0
   -3.8370   21.8870  -32.7880 O   0  0  0  0  0  0  0  0  0  0  0  0
   -6.5590   21.9710  -31.7350 C   0  0  0  0  0  0  0  0  0  0  0  0
   -6.6220   20.7260  -32.3220 C   0  0  0  0  0  0  0  0  0  0  0  0
   -6.7310   19.5630  -34.5930 H   0  0  0  0  0  0  0  0  0  0  0  0
   -6.4710   18.7690  -36.1220 H   0  0  0  0  0  0  0  0  0  0  0  0
   -6.6365   16.8447  -34.9848 H   0  0  0  0  0  0  0  0  0  0  0  0
   -5.0319   17.2709  -34.3626 H   0  0  0  0  0  0  0  0  0  0  0  0
   -6.9956   16.8521  -32.7021 H   0  0  0  0  0  0  0  0  0  0  0  0
   -5.8870   18.3100  -32.4852 H   0  0  0  0  0  0  0  0  0  0  0  0
   -8.7000   18.3840  -33.4950 H   0  0  0  0  0  0  0  0  0  0  0  0
   -9.8959   20.0349  -32.0113 H   0  0  0  0  0  0  0  0  0  0  0  0
   -9.8744   22.2737  -30.9349 H   0  0  0  0  0  0  0  0  0  0  0  0
   -8.1387   24.4027  -30.2541 H   0  0  0  0  0  0  0  0  0  0  0  0
   -5.7540   25.9020  -28.3810 H   0  0  0  0  0  0  0  0  0  0  0  0
   -6.8760   26.5320  -29.6900 H   0  0  0  0  0  0  0  0  0  0  0  0
   -2.8100   24.2530  -31.5670 H   0  0  0  0  0  0  0  0  0  0  0  0
   -2.7270   22.8750  -30.3550 H   0  0  0  0  0  0  0  0  0  0  0  0
   -5.6951   20.2846  -32.7171 H   0  0  0  0  0  0  0  0  0  0  0  0
  1  2  1  0
  2  3  1  0
  3  4  1  0
  4  5  1  0
  5  6  2  0
  6  7  1  0
  7  8  2  0
  8  9  1  0
  9 10  2  0
 10 11  1  0
 11 12  1  0
 11 13  2  0
 10 14  1  0
 14 15  1  0
 15 16  1  0
 15 17  2  0
 14 18  1  0
 18 19  2  0
 19  5  1  0
 18  8  1  0
  1 20  1  0
  1 21  1  0
  2 22  1  0
  2 23  1  0
  3 24  1  0
  3 25  1  0
  4 26  1  0
  6 27  1  0
  7 28  1  0
  9 29  1  0
 12 30  1  0
 12 31  1  0
 16 32  1  0
 16 33  1  0
 19 34  1  0
M  END
>  <smiles>  (4) 
NCCNc1ccc2cc(C(N)=O)n(C(N)=O)c2c1

>  <score_type>  (4) 
oracle

>  <origin>  (4) 
adg

>  <m_score__min__energy>  (4) 
-8.5999999999999996

>  <m_primary>  (4) 
energy

$$$$
5:0
     RDKit          3D

 55 56  0  0  0  0  0  0  0  0999 V2000
   -1.8480   23.0140  -30.0380 C   0  0  0  0  0  0  0  0  0  0  0  0
   -2.7270   21.8180  -29.6580 C   0  0  0  0  0  0  0  0  0  0  0  0
   -3.6650   22.3210  -28.5860 C   0  0  0  0  0  0  0  0  0  0  0  0
   -1.7880   20.7830  -29.0830 C   0  0  0  0  0  0  0  0  0  0  0  0
   -3.3740   21.4230  -30.8280 O   0  0  0  0  0  0  0  0  0  0  0  0
   -4.2080   22.1620  -31.6180 C   0  0  0  0  0  0  0  0  0  0  0  0
   -3.6990   22.5490  -32.7320 O   0  0  0  0  0  0  0  0  0  0  0  0
   -5.5450   22.5250  -31.3200 N   0  0  0  0  0  0  0  0  0  0  0  0
   -5.9630   23.6540  -30.7260 C   0  0  0  0  0  0  0  0  0  0  0  0
   -5.2210   24.7950  -30.2270 C   0  0  0  0  0  0  0  0  0  0  0  0
   -5.4890   25.2820  -28.8910 N   0  0  0  0  0  0  0  0  0  0  0  0
   -4.3420   25.4320  -30.8430 O   0  0  0  0  0  0  0  0  0  0  0  0
   -7.3430   23.5670  -30.6480 C   0  0  0  0  0  0  0  0  0  0  0  0
   -7.7610   22.3930  -31.1920 C   0  0  0  0  0  0  0  0  0  0  0  0
   -9.0290   21.8740  -31.3390 C   0  0  0  0  0  0  0  0  0  0  0  0
   -9.1380   20.6280  -31.9470 C   0  0  0  0  0  0  0  0  0  0  0  0
   -8.0530   19.9270  -32.3880 C   0  0  0  0  0  0  0  0  0  0  0  0
   -8.1440   18.6490  -32.9950 N   0  0  0  0  0  0  0  0  0  0  0  0
   -7.3690   17.5020  -32.6550 C   0  0  0  0  0  0  0  0  0  0  0  0
   -6.5540   16.9450  -33.7650 C   0  0  0  0  0  0  0  0  0  0  0  0
   -5.7340   17.9870  -34.4900 C   0  0  0  0  0  0  0  0  0  0  0  0
   -4.2600   17.7660  -34.4260 C   0  0  0  0  0  0  0  0  0  0  0  0
   -3.6460   19.0070  -33.8820 C   0  0  0  0  0  0  0  0  0  0  0  0
   -4.3690   20.0040  -33.7970 O   0  0  0  0  0  0  0  0  0  0  0  0
   -2.2070   19.0540  -33.4530 C   0  0  0  0  0  0  0  0  0  0  0  0
   -1.9290   20.3320  -32.9770 O   0  0  0  0  0  0  0  0  0  0  0  0
   -6.7980   20.5100  -32.2070 C   0  0  0  0  0  0  0  0  0  0  0  0
   -6.6240   21.7390  -31.6140 C   0  0  0  0  0  0  0  0  0  0  0  0
   -1.4853   23.5075  -29.1243 H   0  0  0  0  0  0  0  0  0  0  0  0
   -0.9901   22.6647  -30.6313 H   0  0  0  0  0  0  0  0  0  0  0  0
   -2.4375   23.7285  -30.6313 H   0  0  0  0  0  0  0  0  0  0  0  0
   -3.2441   22.0953  -27.5951 H   0  0  0  0  0  0  0  0  0  0  0  0
   -3.7925   23.4085  -28.6912 H   0  0  0  0  0  0  0  0  0  0  0  0
   -4.6414   21.8255  -28.6912 H   0  0  0  0  0  0  0  0  0  0  0  0
   -1.8253   20.8241  -27.9844 H   0  0  0  0  0  0  0  0  0  0  0  0
   -2.0928   19.7822  -29.4230 H   0  0  0  0  0  0  0  0  0  0  0  0
   -0.7624   20.9892  -29.4230 H   0  0  0  0  0  0  0  0  0  0  0  0
   -4.7190   25.5880  -28.2560 H   0  0  0  0  0  0  0  0  0  0  0  0
   -6.4990   25.2980  -28.6320 H   0  0  0  0  0  0  0  0  0  0  0  0
   -8.0017   24.3323  -30.2117 H   0  0  0  0  0  0  0  0  0  0  0  0
   -9.9169   22.4218  -30.9904 H   0  0  0  0  0  0  0  0  0  0  0  0
  -10.1385   20.1899  -32.0777 H   0  0  0  0  0  0  0  0  0  0  0  0
   -8.8530   18.5160  -33.7820 H   0  0  0  0  0  0  0  0  0  0  0  0
   -6.6877   17.7803  -31.8374 H   0  0  0  0  0  0  0  0  0  0  0  0
   -8.0871   16.7168  -32.3760 H   0  0  0  0  0  0  0  0  0  0  0  0
   -5.8701   16.1898  -33.3503 H   0  0  0  0  0  0  0  0  0  0  0  0
   -7.2536   16.5156  -34.4973 H   0  0  0  0  0  0  0  0  0  0  0  0
   -6.0361   17.9876  -35.5477 H   0  0  0  0  0  0  0  0  0  0  0  0
   -5.9296   18.9457  -33.9873 H   0  0  0  0  0  0  0  0  0  0  0  0
   -4.0359   16.9153  -33.7657 H   0  0  0  0  0  0  0  0  0  0  0  0
   -3.8580   17.5399  -35.4246 H   0  0  0  0  0  0  0  0  0  0  0  0
   -2.0331   18.3155  -32.6565 H   0  0  0  0  0  0  0  0  0  0  0  0
   -1.5521   18.8187  -34.3049 H   0  0  0  0  0  0  0  0  0  0  0  0
   -2.7770   20.8560  -32.8280 H   0  0  0  0  0  0  0  0  0  0  0  0
   -5.9090   19.9628  -32.5537 H   0  0  0  0  0  0  0  0  0  0  0  0
  1  2  1  0
  2  3  1  0
  2  4  1  0
  2  5  1  0
  5  6  1  0
  6  7  2  0
  6  8  1  0
  8  9  1  0
  9 10  1  0
 10 11  1  0
 10 12  2  0
  9 13  2  0
 13 14  1  0
 14 15  2  0
 15 16  1  0
 16 17  2  0
 17 18  1  0
 18 19  1  0
 19 20  1  0
 20 21  1  0
 21 22  1  0
 22 23  1  0
 23 24  2  0
 23 25  1  0
 25 26  1  0
 17 27  1  0
 27 28  2  0
 28  8  1  0
 28 14  1  0
  1 29  1  0
  1 30  1  0
  1 31  1  0
  3 32  1  0
  3 33  1  0
  3 34  1  0
  4 35  1  0
  4 36  1  0
  4 37  1  0
 11 38  1  0
 11 39  1  0
 13 40  1  0
 15 41  1  0
 16 42  1  0
 18 43  1  0
 19 44  1  0
 19 45  1  0
 20 46  1  0
 20 47  1  0
 21 48  1  0
 21 49  1  0
 22 50  1  0
 22 51  1  0
 25 52  1  0
 25 53  1  0
 26 54  1  0
 27 55  1  0
M  END
>  <smiles>  (5) 
CC(C)(C)OC(=O)n1c(C(N)=O)cc2ccc(NCCCCC(=O)CO)cc21

>  <score_type>  (5) 
oracle

>  <origin>  (5) 
adg

>  <m_score__min__energy>  (5) 
-8.5600000000000005

>  <m_primary>  (5) 
energy

$$$$
6:0
     RDKit          3D

 52 53  0  0  0  0  0  0  0  0999 V2000
   -4.3030   17.6790  -34.9460 C   0  0  0  0  0  0  0  0  0  0  0  0
   -4.4840   16.2120  -34.6190 C   0  0  0  0  0  0  0  0  0  0  0  0
   -5.5820   15.9410  -33.8040 O   0  0  0  0  0  0  0  0  0  0  0  0
   -5.7850   16.3960  -32.5190 C   0  0  0  0  0  0  0  0  0  0  0  0
   -5.0650   15.9280  -31.5840 O   0  0  0  0  0  0  0  0  0  0  0  0
   -6.8080   17.4170  -32.1550 C   0  0  1  0  0  0  0  0  0  0  0  0
   -6.4330   18.0560  -30.9120 N   0  0  0  0  0  0  0  0  0  0  0  0
   -6.9600   18.4760  -33.2200 C   0  0  0  0  0  0  0  0  0  0  0  0
   -7.1500   19.8270  -32.6300 C   0  0  0  0  0  0  0  0  0  0  0  0
   -8.4260   20.3190  -32.5070 C   0  0  0  0  0  0  0  0  0  0  0  0
   -8.5900   21.5590  -31.9640 C   0  0  0  0  0  0  0  0  0  0  0  0
   -7.5000   22.2930  -31.5520 C   0  0  0  0  0  0  0  0  0  0  0  0
   -7.3920   23.5510  -30.9800 C   0  0  0  0  0  0  0  0  0  0  0  0
   -6.0470   23.8350  -30.7490 C   0  0  0  0  0  0  0  0  0  0  0  0
   -5.6200   25.0810  -30.1580 C   0  0  0  0  0  0  0  0  0  0  0  0
   -6.1380   25.7510  -29.0550 N   0  0  0  0  0  0  0  0  0  0  0  0
   -4.6210   25.6550  -30.7310 O   0  0  0  0  0  0  0  0  0  0  0  0
   -5.3440   22.7680  -31.1730 N   0  0  0  0  0  0  0  0  0  0  0  0
   -3.9450   22.5710  -31.1540 C   0  0  0  0  0  0  0  0  0  0  0  0
   -3.1710   23.5720  -31.1670 O   0  0  0  0  0  0  0  0  0  0  0  0
   -3.3060   21.3450  -31.1250 O   0  0  0  0  0  0  0  0  0  0  0  0
   -2.6470   20.7950  -32.2550 C   0  0  0  0  0  0  0  0  0  0  0  0
   -3.1430   21.4660  -33.5380 C   0  0  0  0  0  0  0  0  0  0  0  0
   -1.1790   21.1530  -32.1300 C   0  0  0  0  0  0  0  0  0  0  0  0
   -2.7620   19.3060  -32.3500 C   0  0  0  0  0  0  0  0  0  0  0  0
   -6.2040   21.8410  -31.6550 C   0  0  0  0  0  0  0  0  0  0  0  0
   -6.0550   20.5710  -32.2120 C   0  0  0  0  0  0  0  0  0  0  0  0
   -4.2317   18.2566  -34.0126 H   0  0  0  0  0  0  0  0  0  0  0  0
   -3.3815   17.8132  -35.5315 H   0  0  0  0  0  0  0  0  0  0  0  0
   -5.1643   18.0331  -35.5315 H   0  0  0  0  0  0  0  0  0  0  0  0
   -4.6100   15.6609  -35.5626 H   0  0  0  0  0  0  0  0  0  0  0  0
   -3.5897   15.8993  -34.0600 H   0  0  0  0  0  0  0  0  0  0  0  0
   -7.7707   16.8950  -32.0516 H   0  0  0  0  0  0  0  0  0  0  0  0
   -5.5340   18.5650  -31.0820 H   0  0  0  0  0  0  0  0  0  0  0  0
   -6.1960   17.2560  -30.2540 H   0  0  0  0  0  0  0  0  0  0  0  0
   -6.0554   18.4845  -33.8457 H   0  0  0  0  0  0  0  0  0  0  0  0
   -7.8513   18.2350  -33.8180 H   0  0  0  0  0  0  0  0  0  0  0  0
   -9.2931   19.7284  -32.8378 H   0  0  0  0  0  0  0  0  0  0  0  0
   -9.6017   21.9766  -31.8541 H   0  0  0  0  0  0  0  0  0  0  0  0
   -8.2339   24.2190  -30.7456 H   0  0  0  0  0  0  0  0  0  0  0  0
   -6.9090   26.4660  -29.1850 H   0  0  0  0  0  0  0  0  0  0  0  0
   -5.7420   25.5350  -28.0960 H   0  0  0  0  0  0  0  0  0  0  0  0
   -3.7786   22.3259  -33.2799 H   0  0  0  0  0  0  0  0  0  0  0  0
   -2.2812   21.8111  -34.1281 H   0  0  0  0  0  0  0  0  0  0  0  0
   -3.7257   20.7433  -34.1281 H   0  0  0  0  0  0  0  0  0  0  0  0
   -0.9071   21.2193  -31.0662 H   0  0  0  0  0  0  0  0  0  0  0  0
   -0.5697   20.3771  -32.6166 H   0  0  0  0  0  0  0  0  0  0  0  0
   -0.9952   22.1223  -32.6166 H   0  0  0  0  0  0  0  0  0  0  0  0
   -2.7952   18.8755  -31.3383 H   0  0  0  0  0  0  0  0  0  0  0  0
   -3.6831   19.0431  -32.8908 H   0  0  0  0  0  0  0  0  0  0  0  0
   -1.8922   18.9048  -32.8908 H   0  0  0  0  0  0  0  0  0  0  0  0
   -5.0454   20.1487  -32.3228 H   0  0  0  0  0  0  0  0  0  0  0  0
  1  2  1  0
  2  3  1  0
  3  4  1  0
  4  5  2  0
  4  6  1  0
  6  7  1  0
  6  8  1  0
  8  9  1  0
  9 10  2  0
 10 11  1  0
 11 12  2  0
 12 13  1  0
 13 14  2  0
 14 15  1  0
 15 16  1  0
 15 17  2  0
 14 18  1  0
 18 19  1  0
 19 20  2  0
 19 21  1  0
 21 22  1  0
 22 23  1  0
 22 24  1  0
 22 25  1  0
 18 26  1  0
 26 27  2  0
 27  9  1  0
 26 12  1  0
  1 28  1  0
  1 29  1  0
  1 30  1  0
  2 31  1  0
  2 32  1  0
  6 33  1  1
  7 34  1  0
  7 35  1  0
  8 36  1  0
  8 37  1  0
 10 38  1  0
 11 39  1  0
 13 40  1  0
 16 41  1  0
 16 42  1  0
 23 43  1  0
 23 44  1  0
 23 45  1  0
 24 46  1  0
 24 47  1  0
 24 48  1  0
 25 49  1  0
 25 50  1  0
 25 51  1  0
 27 52  1  0
M  END
>  <smiles>  (6) 
CCOC(=O)[C@@H](N)Cc1ccc2cc(C(N)=O)n(C(=O)OC(C)(C)C)c2c1

>  <score_type>  (6) 
oracle

>  <origin>  (6) 
adg

>  <m_score__min__energy>  (6) 
-9.2300000000000004

>  <m_primary>  (6) 
energy

$$$$
7:0
     RDKit          3D

 34 35  0  0  0  0  0  0  0  0999 V2000
   -6.2340   17.3060  -33.4270 C   0  0  0  0  0  0  0  0  0  0  0  0
   -6.3960   18.3870  -33.0420 N   0  0  0  0  0  0  0  0  0  0  0  0
   -6.6080   19.6740  -32.5890 C   0  0  0  0  0  0  0  0  0  0  0  0
   -7.8560   20.2280  -32.7440 C   0  0  0  0  0  0  0  0  0  0  0  0
   -8.0720   21.5100  -32.2950 C   0  0  0  0  0  0  0  0  0  0  0  0
   -7.0350   22.1990  -31.7050 C   0  0  0  0  0  0  0  0  0  0  0  0
   -7.0170   23.4670  -31.1880 C   0  0  0  0  0  0  0  0  0  0  0  0
   -5.7120   23.7070  -30.6970 C   0  0  0  0  0  0  0  0  0  0  0  0
   -5.3960   24.9940  -30.1280 C   0  0  0  0  0  0  0  0  0  0  0  0
   -6.1540   25.7640  -29.2290 N   0  0  0  0  0  0  0  0  0  0  0  0
   -4.2730   25.5100  -30.4710 O   0  0  0  0  0  0  0  0  0  0  0  0
   -4.9640   22.6110  -30.9060 N   0  0  0  0  0  0  0  0  0  0  0  0
   -3.6710   22.2620  -30.4890 C   0  0  0  0  0  0  0  0  0  0  0  0
   -3.4230   21.0220  -30.2370 O   0  0  0  0  0  0  0  0  0  0  0  0
   -2.5690   23.1000  -30.2900 N   0  0  0  0  0  0  0  0  0  0  0  0
   -1.3180   22.4870  -29.8660 C   0  0  0  0  0  0  0  0  0  0  0  0
   -0.6090   23.3890  -28.8990 C   0  0  0  0  0  0  0  0  0  0  0  0
   -1.4780   24.5000  -28.4410 C   0  0  0  0  0  0  0  0  0  0  0  0
   -2.1230   24.4670  -27.3570 O   0  0  0  0  0  0  0  0  0  0  0  0
   -1.5890   25.6330  -29.2420 O   0  0  0  0  0  0  0  0  0  0  0  0
   -5.7750   21.6940  -31.5250 C   0  0  0  0  0  0  0  0  0  0  0  0
   -5.5700   20.3950  -31.9850 C   0  0  0  0  0  0  0  0  0  0  0  0
   -8.6674   19.6566  -33.2185 H   0  0  0  0  0  0  0  0  0  0  0  0
   -9.0606   21.9795  -32.4056 H   0  0  0  0  0  0  0  0  0  0  0  0
   -7.8624   24.1702  -31.1597 H   0  0  0  0  0  0  0  0  0  0  0  0
   -6.4890   25.2920  -28.3490 H   0  0  0  0  0  0  0  0  0  0  0  0
   -6.3950   26.7820  -29.4010 H   0  0  0  0  0  0  0  0  0  0  0  0
   -2.6080   24.1110  -30.3850 H   0  0  0  0  0  0  0  0  0  0  0  0
   -1.5306   21.5243  -29.3780 H   0  0  0  0  0  0  0  0  0  0  0  0
   -0.6779   22.3248  -30.7457 H   0  0  0  0  0  0  0  0  0  0  0  0
   -0.2965   22.7984  -28.0252 H   0  0  0  0  0  0  0  0  0  0  0  0
    0.2598   23.8253  -29.4136 H   0  0  0  0  0  0  0  0  0  0  0  0
   -2.1390   25.6740  -30.0840 H   0  0  0  0  0  0  0  0  0  0  0  0
   -4.5798   19.9294  -31.8724 H   0  0  0  0  0  0  0  0  0  0  0  0
  1  2  3  0
  2  3  1  0
  3  4  2  0
  4  5  1  0
  5  6  2  0
  6  7  1  0
  7  8  2  0
  8  9  1  0
  9 10  1  0
  9 11  2  0
  8 12  1  0
 12 13  1  0
 13 14  2  0
 13 15  1  0
 15 16  1  0
 16 17  1  0
 17 18  1  0
 18 19  2  0
 18 20  1  0
 12 21  1  0
 21 22  2  0
 22  3  1  0
 21  6  1  0
  4 23  1  0
  5 24  1  0
  7 25  1  0
 10 26  1  0
 10 27  1  0
 15 28  1  0
 16 29  1  0
 16 30  1  0
 17 31  1  0
 17 32  1  0
 20 33  1  0
 22 34  1  0
M  CHG  2   1  -1   2   1
M  END
>  <smiles>  (7) 
[C-]#[N+]c1ccc2cc(C(N)=O)n(C(=O)NCCC(=O)O)c2c1

>  <score_type>  (7) 
oracle

>  <origin>  (7) 
adg

>  <m_score__min__energy>  (7) 
-9.0899999999999999

>  <m_primary>  (7) 
energy

$$$$
8:0
     RDKit          3D

 36 37  0  0  0  0  0  0  0  0999 V2000
   -1.6170   25.7910  -27.5870 C   0  0  0  0  0  0  0  0  0  0  0  0
   -1.5640   25.3280  -28.9450 O   0  0  0  0  0  0  0  0  0  0  0  0
   -0.8940   24.1720  -29.2840 C   0  0  0  0  0  0  0  0  0  0  0  0
    0.3390   24.0470  -28.9870 O   0  0  0  0  0  0  0  0  0  0  0  0
   -1.4670   23.0990  -29.9440 O   0  0  0  0  0  0  0  0  0  0  0  0
   -2.3020   22.1840  -29.2360 C   0  0  0  0  0  0  0  0  0  0  0  0
   -3.1320   21.4850  -30.1140 O   0  0  0  0  0  0  0  0  0  0  0  0
   -3.6440   22.1950  -31.2200 C   0  0  0  0  0  0  0  0  0  0  0  0
   -2.7800   22.5250  -32.0660 O   0  0  0  0  0  0  0  0  0  0  0  0
   -5.0270   22.4810  -31.3120 N   0  0  0  0  0  0  0  0  0  0  0  0
   -5.6130   23.6580  -31.0700 C   0  0  0  0  0  0  0  0  0  0  0  0
   -5.0750   24.9330  -30.6650 C   0  0  0  0  0  0  0  0  0  0  0  0
   -3.8050   24.9650  -29.9660 N   0  0  0  0  0  0  0  0  0  0  0  0
   -5.5900   26.0490  -30.8490 O   0  0  0  0  0  0  0  0  0  0  0  0
   -6.9810   23.4550  -31.2910 C   0  0  0  0  0  0  0  0  0  0  0  0
   -7.2060   22.1520  -31.6650 C   0  0  0  0  0  0  0  0  0  0  0  0
   -8.3660   21.4710  -31.9870 C   0  0  0  0  0  0  0  0  0  0  0  0
   -8.2940   20.1380  -32.3340 C   0  0  0  0  0  0  0  0  0  0  0  0
   -7.0710   19.5070  -32.3540 C   0  0  0  0  0  0  0  0  0  0  0  0
   -6.9740   18.0710  -32.7250 C   0  0  0  0  0  0  0  0  0  0  0  0
   -6.0920   17.9470  -34.2630 Cl  0  0  0  0  0  0  0  0  0  0  0  0
   -5.9230   20.2230  -32.0230 C   0  0  0  0  0  0  0  0  0  0  0  0
   -5.9590   21.5570  -31.6720 C   0  0  0  0  0  0  0  0  0  0  0  0
   -1.5190   24.9347  -26.9036 H   0  0  0  0  0  0  0  0  0  0  0  0
   -0.7940   26.4987  -27.4085 H   0  0  0  0  0  0  0  0  0  0  0  0
   -2.5786   26.2944  -27.4085 H   0  0  0  0  0  0  0  0  0  0  0  0
   -1.6700   21.4676  -28.6907 H   0  0  0  0  0  0  0  0  0  0  0  0
   -2.9311   22.7525  -28.5353 H   0  0  0  0  0  0  0  0  0  0  0  0
   -3.7130   25.4030  -29.0240 H   0  0  0  0  0  0  0  0  0  0  0  0
   -2.9990   24.5320  -30.4520 H   0  0  0  0  0  0  0  0  0  0  0  0
   -7.7596   24.2243  -31.1815 H   0  0  0  0  0  0  0  0  0  0  0  0
   -9.3369   21.9877  -31.9665 H   0  0  0  0  0  0  0  0  0  0  0  0
   -9.2078   19.5830  -32.5930 H   0  0  0  0  0  0  0  0  0  0  0  0
   -6.4331   17.5206  -31.9412 H   0  0  0  0  0  0  0  0  0  0  0  0
   -7.9802   17.6392  -32.8306 H   0  0  0  0  0  0  0  0  0  0  0  0
   -4.9522   19.7061  -32.0421 H   0  0  0  0  0  0  0  0  0  0  0  0
  1  2  1  0
  2  3  1  0
  3  4  2  0
  3  5  1  0
  5  6  1  0
  6  7  1  0
  7  8  1  0
  8  9  2  0
  8 10  1  0
 10 11  1  0
 11 12  1  0
 12 13  1  0
 12 14  2  0
 11 15  2  0
 15 16  1  0
 16 17  2  0
 17 18  1  0
 18 19  2  0
 19 20  1  0
 20 21  1  0
 19 22  1  0
 22 23  2  0
 23 10  1  0
 23 16  1  0
  1 24  1  0
  1 25  1  0
  1 26  1  0
  6 27  1  0
  6 28  1  0
 13 29  1  0
 13 30  1  0
 15 31  1  0
 17 32  1  0
 18 33  1  0
 20 34  1  0
 20 35  1  0
 22 36  1  0
M  END
>  <smiles>  (8) 
COC(=O)OCOC(=O)n1c(C(N)=O)cc2ccc(CCl)cc21

>  <score_type>  (8) 
oracle

>  <origin>  (8) 
adg

>  <m_score__min__energy>  (8) 
-7.8300000000000001

>  <m_primary>  (8) 
energy

$$$$
9:0
     RDKit          3D

 43 44  0  0  0  0  0  0  0  0999 V2000
   -6.9940   17.2620  -33.0110 C   0  0  0  0  0  0  0  0  0  0  0  0
   -7.1010   18.4080  -32.6510 C   0  0  0  0  0  0  0  0  0  0  0  0
   -7.2180   19.7740  -32.1990 C   0  0  0  0  0  0  0  0  0  0  0  0
   -8.4830   20.2910  -32.0470 C   0  0  0  0  0  0  0  0  0  0  0  0
   -8.5860   21.5930  -31.6160 C   0  0  0  0  0  0  0  0  0  0  0  0
   -7.4440   22.3290  -31.3530 C   0  0  0  0  0  0  0  0  0  0  0  0
   -7.3320   23.6130  -30.9270 C   0  0  0  0  0  0  0  0  0  0  0  0
   -5.9550   23.8690  -30.8190 C   0  0  0  0  0  0  0  0  0  0  0  0
   -5.5360   25.1690  -30.2910 C   0  0  0  0  0  0  0  0  0  0  0  0
   -4.2090   25.6660  -30.5760 N   0  0  0  0  0  0  0  0  0  0  0  0
   -6.2390   25.9220  -29.5890 O   0  0  0  0  0  0  0  0  0  0  0  0
   -5.2370   22.8050  -31.1670 N   0  0  0  0  0  0  0  0  0  0  0  0
   -3.8740   22.5870  -31.4300 C   0  0  0  0  0  0  0  0  0  0  0  0
   -3.1340   23.6480  -31.2130 O   0  0  0  0  0  0  0  0  0  0  0  0
   -3.1340   21.4940  -31.8580 N   0  0  0  0  0  0  0  0  0  0  0  0
   -2.9570   20.9070  -33.1450 C   0  0  0  0  0  0  0  0  0  0  0  0
   -2.3670   20.7810  -30.7780 C   0  0  0  0  0  0  0  0  0  0  0  0
   -2.6170   21.4200  -29.4840 C   0  0  0  0  0  0  0  0  0  0  0  0
   -3.3400   20.8110  -28.6520 O   0  0  0  0  0  0  0  0  0  0  0  0
   -2.0550   22.6720  -29.2040 N   0  0  0  0  0  0  0  0  0  0  0  0
   -2.2450   23.3810  -27.9540 C   0  0  0  0  0  0  0  0  0  0  0  0
   -1.6580   24.7740  -28.0390 C   0  0  0  0  0  0  0  0  0  0  0  0
   -1.8840   25.2300  -29.3440 O   0  0  0  0  0  0  0  0  0  0  0  0
   -6.1730   21.8460  -31.4930 C   0  0  0  0  0  0  0  0  0  0  0  0
   -6.0770   20.5270  -31.9310 C   0  0  0  0  0  0  0  0  0  0  0  0
   -6.8964   16.2167  -33.3394 H   0  0  0  0  0  0  0  0  0  0  0  0
   -9.3771   19.6872  -32.2616 H   0  0  0  0  0  0  0  0  0  0  0  0
   -9.5774   22.0499  -31.4802 H   0  0  0  0  0  0  0  0  0  0  0  0
   -8.1534   24.3117  -30.7102 H   0  0  0  0  0  0  0  0  0  0  0  0
   -3.5890   26.0070  -29.8070 H   0  0  0  0  0  0  0  0  0  0  0  0
   -3.8570   25.6860  -31.5670 H   0  0  0  0  0  0  0  0  0  0  0  0
   -2.6412   19.8596  -33.0300 H   0  0  0  0  0  0  0  0  0  0  0  0
   -3.9065   20.9449  -33.6990 H   0  0  0  0  0  0  0  0  0  0  0  0
   -2.1867   21.4635  -33.6990 H   0  0  0  0  0  0  0  0  0  0  0  0
   -2.6898   19.7303  -30.7343 H   0  0  0  0  0  0  0  0  0  0  0  0
   -1.2917   20.8306  -31.0046 H   0  0  0  0  0  0  0  0  0  0  0  0
   -1.4520   23.1420  -29.9430 H   0  0  0  0  0  0  0  0  0  0  0  0
   -3.3214   23.4544  -27.7396 H   0  0  0  0  0  0  0  0  0  0  0  0
   -1.7348   22.8287  -27.1511 H   0  0  0  0  0  0  0  0  0  0  0  0
   -2.1526   25.4381  -27.3149 H   0  0  0  0  0  0  0  0  0  0  0  0
   -0.5832   24.7641  -27.8052 H   0  0  0  0  0  0  0  0  0  0  0  0
   -1.5830   24.5780  -30.0280 H   0  0  0  0  0  0  0  0  0  0  0  0
   -5.0844   20.0729  -32.0674 H   0  0  0  0  0  0  0  0  0  0  0  0
  1  2  3  0
  2  3  1  0
  3  4  2  0
  4  5  1  0
  5  6  2  0
  6  7  1  0
  7  8  2  0
  8  9  1  0
  9 10  1  0
  9 11  2  0
  8 12  1  0
 12 13  1  0
 13 14  2  0
 13 15  1  0
 15 16  1  0
 15 17  1  0
 17 18  1  0
 18 19  2  0
 18 20  1  0
 20 21  1  0
 21 22  1  0
 22 23  1  0
 12 24  1  0
 24 25  2  0
 25  3  1  0
 24  6  1  0
  1 26  1  0
  4 27  1  0
  5 28  1  0
  7 29  1  0
 10 30  1  0
 10 31  1  0
 16 32  1  0
 16 33  1  0
 16 34  1  0
 17 35  1  0
 17 36  1  0
 20 37  1  0
 21 38  1  0
 21 39  1  0
 22 40  1  0
 22 41  1  0
 23 42  1  0
 25 43  1  0
M  END
>  <smiles>  (9) 
C#Cc1ccc2cc(C(N)=O)n(C(=O)N(C)CC(=O)NCCO)c2c1

>  <score_type>  (9) 
oracle

>  <origin>  (9) 
adg

>  <m_score__min__energy>  (9) 
-9.1500000000000004

>  <m_primary>  (9) 
energy

$$$$
10:0
     RDKit          3D

 47 48  0  0  0  0  0  0  0  0999 V2000
   -1.6210   26.0300  -26.4190 C   0  0  0  0  0  0  0  0  0  0  0  0
   -0.8250   26.7980  -27.4570 C   0  0  0  0  0  0  0  0  0  0  0  0
   -1.0210   26.1820  -28.6950 O   0  0  0  0  0  0  0  0  0  0  0  0
   -0.9260   24.8280  -28.9100 C   0  0  0  0  0  0  0  0  0  0  0  0
    0.1730   24.2250  -28.7640 O   0  0  0  0  0  0  0  0  0  0  0  0
   -2.1580   24.1030  -29.3200 C   0  0  0  0  0  0  0  0  0  0  0  0
   -3.2650   25.0030  -29.5350 N   0  0  0  0  0  0  0  0  0  0  0  0
   -4.5150   24.5010  -29.9960 C   0  0  0  0  0  0  0  0  0  0  0  0
   -5.6230   25.3100  -29.9090 C   0  0  0  0  0  0  0  0  0  0  0  0
   -6.8120   24.7920  -30.3630 C   0  0  0  0  0  0  0  0  0  0  0  0
   -6.8780   23.5130  -30.8830 C   0  0  0  0  0  0  0  0  0  0  0  0
   -7.9420   22.8420  -31.3740 C   0  0  0  0  0  0  0  0  0  0  0  0
   -7.4760   21.5690  -31.7800 C   0  0  0  0  0  0  0  0  0  0  0  0
   -8.4530   20.6490  -32.3190 C   0  0  0  0  0  0  0  0  0  0  0  0
   -8.2550   19.3440  -32.7730 N   0  0  0  0  0  0  0  0  0  0  0  0
   -9.6660   21.0780  -32.3800 O   0  0  0  0  0  0  0  0  0  0  0  0
   -6.1570   21.4670  -31.5480 N   0  0  0  0  0  0  0  0  0  0  0  0
   -5.1930   20.5370  -31.8930 C   0  0  0  0  0  0  0  0  0  0  0  0
   -4.5480   20.0180  -30.8430 O   0  0  0  0  0  0  0  0  0  0  0  0
   -4.6500   19.9590  -33.0320 N   0  0  0  0  0  0  0  0  0  0  0  0
   -3.4050   20.7350  -33.4700 C   0  0  0  0  0  0  0  0  0  0  0  0
   -4.9020   18.8520  -33.8590 C   0  0  0  0  0  0  0  0  0  0  0  0
   -5.9140   17.8820  -33.3300 C   0  0  0  0  0  0  0  0  0  0  0  0
   -6.8800   17.4720  -34.0510 O   0  0  0  0  0  0  0  0  0  0  0  0
   -5.7610   17.4380  -32.0050 O   0  0  0  0  0  0  0  0  0  0  0  0
   -5.7970   22.6840  -30.9850 C   0  0  0  0  0  0  0  0  0  0  0  0
   -4.5950   23.2070  -30.5250 C   0  0  0  0  0  0  0  0  0  0  0  0
   -1.3027   26.3371  -25.4118 H   0  0  0  0  0  0  0  0  0  0  0  0
   -2.6924   26.2443  -26.5462 H   0  0  0  0  0  0  0  0  0  0  0  0
   -1.4452   24.9516  -26.5462 H   0  0  0  0  0  0  0  0  0  0  0  0
   -1.1745   27.8401  -27.4993 H   0  0  0  0  0  0  0  0  0  0  0  0
    0.2435   26.7980  -27.1955 H   0  0  0  0  0  0  0  0  0  0  0  0
   -1.9559   23.5582  -30.2540 H   0  0  0  0  0  0  0  0  0  0  0  0
   -2.4327   23.4119  -28.5095 H   0  0  0  0  0  0  0  0  0  0  0  0
   -3.1260   26.0100  -29.3480 H   0  0  0  0  0  0  0  0  0  0  0  0
   -5.5606   26.3269  -29.4943 H   0  0  0  0  0  0  0  0  0  0  0  0
   -7.7246   25.4041  -30.3119 H   0  0  0  0  0  0  0  0  0  0  0  0
   -8.9747   23.2142  -31.4449 H   0  0  0  0  0  0  0  0  0  0  0  0
   -7.4390   18.8030  -32.3630 H   0  0  0  0  0  0  0  0  0  0  0  0
   -8.8740   18.9010  -33.4850 H   0  0  0  0  0  0  0  0  0  0  0  0
   -2.8550   21.0778  -32.5812 H   0  0  0  0  0  0  0  0  0  0  0  0
   -2.7576   20.0802  -34.0718 H   0  0  0  0  0  0  0  0  0  0  0  0
   -3.7078   21.6046  -34.0718 H   0  0  0  0  0  0  0  0  0  0  0  0
   -5.2624   19.2259  -34.8287 H   0  0  0  0  0  0  0  0  0  0  0  0
   -3.9538   18.2987  -33.9284 H   0  0  0  0  0  0  0  0  0  0  0  0
   -5.3160   18.0430  -31.3130 H   0  0  0  0  0  0  0  0  0  0  0  0
   -3.6854   22.5906  -30.5775 H   0  0  0  0  0  0  0  0  0  0  0  0
  1  2  1  0
  2  3  1  0
  3  4  1  0
  4  5  2  0
  4  6  1  0
  6  7  1  0
  7  8  1  0
  8  9  2  0
  9 10  1  0
 10 11  2  0
 11 12  1  0
 12 13  2  0
 13 14  1  0
 14 15  1  0
 14 16  2  0
 13 17  1  0
 17 18  1  0
 18 19  2  0
 18 20  1  0
 20 21  1  0
 20 22  1  0
 22 23  1  0
 23 24  2  0
 23 25  1  0
 17 26  1  0
 26 27  2  0
 27  8  1  0
 26 11  1  0
  1 28  1  0
  1 29  1  0
  1 30  1  0
  2 31  1  0
  2 32  1  0
  6 33  1  0
  6 34  1  0
  7 35  1  0
  9 36  1  0
 10 37  1  0
 12 38  1  0
 15 39  1  0
 15 40  1  0
 21 41  1  0
 21 42  1  0
 21 43  1  0
 22 44  1  0
 22 45  1  0
 25 46  1  0
 27 47  1  0
M  END
>  <smiles>  (10) 
CCOC(=O)CNc1ccc2cc(C(N)=O)n(C(=O)N(C)CC(=O)O)c2c1

>  <score_type>  (10) 
oracle

>  <origin>  (10) 
adg

>  <m_score__min__energy>  (10) 
-9.3900000000000006

>  <m_primary>  (10) 
energy

$$$$
11:0
     RDKit          3D

 42 43  0  0  0  0  0  0  0  0999 V2000
   -9.8300   21.5830  -32.1840 C   0  0  0  0  0  0  0  0  0  0  0  0
   -8.7080   21.1370  -31.5930 C   0  0  0  0  0  0  0  0  0  0  0  0
   -8.1730   21.9480  -30.4900 C   0  0  0  0  0  0  0  0  0  0  0  0
   -8.1460   19.9450  -32.0770 N   0  0  0  0  0  0  0  0  0  0  0  0
   -8.9420   18.7330  -32.1250 C   0  0  0  0  0  0  0  0  0  0  0  0
   -6.8020   19.8530  -32.5370 C   0  0  0  0  0  0  0  0  0  0  0  0
   -6.4390   18.8120  -33.3630 C   0  0  0  0  0  0  0  0  0  0  0  0
   -5.1380   18.7220  -33.8070 C   0  0  0  0  0  0  0  0  0  0  0  0
   -4.2220   19.6810  -33.4160 C   0  0  0  0  0  0  0  0  0  0  0  0
   -2.8900   19.8320  -33.7050 C   0  0  0  0  0  0  0  0  0  0  0  0
   -2.3890   20.9740  -33.0630 C   0  0  0  0  0  0  0  0  0  0  0  0
   -1.0140   21.3970  -33.1770 C   0  0  0  0  0  0  0  0  0  0  0  0
   -0.2440   21.5870  -31.9660 N   0  0  0  0  0  0  0  0  0  0  0  0
   -0.3900   21.6250  -34.2300 O   0  0  0  0  0  0  0  0  0  0  0  0
   -3.4270   21.5020  -32.3920 N   0  0  0  0  0  0  0  0  0  0  0  0
   -3.4140   22.6700  -31.5900 C   0  0  0  0  0  0  0  0  0  0  0  0
   -2.4430   23.0460  -30.8890 O   0  0  0  0  0  0  0  0  0  0  0  0
   -4.5360   23.4970  -31.5390 O   0  0  0  0  0  0  0  0  0  0  0  0
   -5.2240   23.7680  -30.3360 C   0  0  0  0  0  0  0  0  0  0  0  0
   -5.0490   25.2530  -30.0990 C   0  0  0  0  0  0  0  0  0  0  0  0
   -3.8890   25.6600  -30.7460 O   0  0  0  0  0  0  0  0  0  0  0  0
   -4.5420   20.7390  -32.5910 C   0  0  0  0  0  0  0  0  0  0  0  0
   -5.8500   20.8080  -32.1590 C   0  0  0  0  0  0  0  0  0  0  0  0
  -10.2761   21.0171  -33.0152 H   0  0  0  0  0  0  0  0  0  0  0  0
  -10.3020   22.5138  -31.8364 H   0  0  0  0  0  0  0  0  0  0  0  0
   -8.4681   21.5007  -29.5294 H   0  0  0  0  0  0  0  0  0  0  0  0
   -7.0756   21.9805  -30.5576 H   0  0  0  0  0  0  0  0  0  0  0  0
   -8.5750   22.9697  -30.5576 H   0  0  0  0  0  0  0  0  0  0  0  0
   -9.1620   18.3980  -31.1006 H   0  0  0  0  0  0  0  0  0  0  0  0
   -9.8845   18.9341  -32.6554 H   0  0  0  0  0  0  0  0  0  0  0  0
   -8.3830   17.9480  -32.6554 H   0  0  0  0  0  0  0  0  0  0  0  0
   -7.1817   18.0590  -33.6655 H   0  0  0  0  0  0  0  0  0  0  0  0
   -4.8312   17.8960  -34.4655 H   0  0  0  0  0  0  0  0  0  0  0  0
   -2.3020   19.1578  -34.3451 H   0  0  0  0  0  0  0  0  0  0  0  0
    0.3150   20.7720  -31.6580 H   0  0  0  0  0  0  0  0  0  0  0  0
   -0.2600   22.4910  -31.4470 H   0  0  0  0  0  0  0  0  0  0  0  0
   -6.2903   23.5174  -30.4375 H   0  0  0  0  0  0  0  0  0  0  0  0
   -4.8342   23.1712  -29.4983 H   0  0  0  0  0  0  0  0  0  0  0  0
   -5.9133   25.7996  -30.5043 H   0  0  0  0  0  0  0  0  0  0  0  0
   -4.9769   25.4608  -29.0212 H   0  0  0  0  0  0  0  0  0  0  0  0
   -3.4820   24.9230  -31.2330 H   0  0  0  0  0  0  0  0  0  0  0  0
   -6.1534   21.6350  -31.5002 H   0  0  0  0  0  0  0  0  0  0  0  0
  1  2  2  0
  2  3  1  0
  2  4  1  0
  4  5  1  0
  4  6  1  0
  6  7  2  0
  7  8  1  0
  8  9  2  0
  9 10  1  0
 10 11  2  0
 11 12  1  0
 12 13  1  0
 12 14  2  0
 11 15  1  0
 15 16  1  0
 16 17  2  0
 16 18  1  0
 18 19  1  0
 19 20  1  0
 20 21  1  0
 15 22  1  0
 22 23  2  0
 23  6  1  0
 22  9  1  0
  1 24  1  0
  1 25  1  0
  3 26  1  0
  3 27  1  0
  3 28  1  0
  5 29  1  0
  5 30  1  0
  5 31  1  0
  7 32  1  0
  8 33  1  0
 10 34  1  0
 13 35  1  0
 13 36  1  0
 19 37  1  0
 19 38  1  0
 20 39  1  0
 20 40  1  0
 21 41  1  0
 23 42  1  0
M  END
>  <smiles>  (11) 
C=C(C)N(C)c1ccc2cc(C(N)=O)n(C(=O)OCCO)c2c1

>  <score_type>  (11) 
oracle

>  <origin>  (11) 
adg

>  <m_score__min__energy>  (11) 
-8.6899999999999995

>  <m_primary>  (11) 
energy

$$$$
12:0
     RDKit          3D

 37 38  0  0  0  0  0  0  0  0999 V2000
   -3.9720   24.5730  -27.7940 N   0  0  0  0  0  0  0  0  0  0  0  0
   -2.6500   24.9130  -27.2630 C   0  0  0  0  0  0  0  0  0  0  0  0
   -1.7090   24.9900  -28.3860 C   0  0  0  0  0  0  0  0  0  0  0  0
   -0.5100   25.3590  -28.1680 O   0  0  0  0  0  0  0  0  0  0  0  0
   -2.0730   24.6760  -29.6890 O   0  0  0  0  0  0  0  0  0  0  0  0
   -2.2850   23.3430  -30.0360 C   0  0  0  0  0  0  0  0  0  0  0  0
   -3.5420   22.8200  -29.6770 O   0  0  0  0  0  0  0  0  0  0  0  0
   -4.4200   22.2490  -30.5580 C   0  0  0  0  0  0  0  0  0  0  0  0
   -3.9720   21.2300  -31.1820 O   0  0  0  0  0  0  0  0  0  0  0  0
   -5.7400   22.6770  -30.8310 N   0  0  0  0  0  0  0  0  0  0  0  0
   -6.2630   23.9250  -30.6850 C   0  0  0  0  0  0  0  0  0  0  0  0
   -5.6730   25.1440  -30.2320 C   0  0  0  0  0  0  0  0  0  0  0  0
   -6.0910   25.9910  -29.1940 N   0  0  0  0  0  0  0  0  0  0  0  0
   -4.6090   25.5510  -30.8400 O   0  0  0  0  0  0  0  0  0  0  0  0
   -7.5950   23.8240  -31.0860 C   0  0  0  0  0  0  0  0  0  0  0  0
   -7.8770   22.5420  -31.4670 C   0  0  0  0  0  0  0  0  0  0  0  0
   -9.0430   21.9590  -31.9350 C   0  0  0  0  0  0  0  0  0  0  0  0
   -9.0670   20.6290  -32.2540 C   0  0  0  0  0  0  0  0  0  0  0  0
   -7.9230   19.9020  -32.1020 C   0  0  0  0  0  0  0  0  0  0  0  0
   -7.9490   18.4430  -32.4520 C   0  0  0  0  0  0  0  0  0  0  0  0
   -6.8710   18.2020  -33.2800 F   0  0  0  0  0  0  0  0  0  0  0  0
   -6.7490   20.4970  -31.6290 C   0  0  0  0  0  0  0  0  0  0  0  0
   -6.7070   21.8380  -31.3030 C   0  0  0  0  0  0  0  0  0  0  0  0
   -4.0490   24.8390  -28.8020 H   0  0  0  0  0  0  0  0  0  0  0  0
   -4.1500   23.5440  -27.7270 H   0  0  0  0  0  0  0  0  0  0  0  0
   -2.6945   25.8838  -26.7476 H   0  0  0  0  0  0  0  0  0  0  0  0
   -2.3214   24.1474  -26.5447 H   0  0  0  0  0  0  0  0  0  0  0  0
   -2.1796   23.2551  -31.1274 H   0  0  0  0  0  0  0  0  0  0  0  0
   -1.5412   22.7603  -29.4728 H   0  0  0  0  0  0  0  0  0  0  0  0
   -5.7150   25.8240  -28.2350 H   0  0  0  0  0  0  0  0  0  0  0  0
   -6.7620   26.7670  -29.4310 H   0  0  0  0  0  0  0  0  0  0  0  0
   -8.3146   24.6559  -31.0944 H   0  0  0  0  0  0  0  0  0  0  0  0
   -9.9523   22.5672  -32.0505 H   0  0  0  0  0  0  0  0  0  0  0  0
   -9.9884   20.1563  -32.6249 H   0  0  0  0  0  0  0  0  0  0  0  0
   -7.8662   17.8350  -31.5390 H   0  0  0  0  0  0  0  0  0  0  0  0
   -8.8922   18.1785  -32.9524 H   0  0  0  0  0  0  0  0  0  0  0  0
   -5.8421   19.8851  -31.5146 H   0  0  0  0  0  0  0  0  0  0  0  0
  1  2  1  0
  2  3  1  0
  3  4  2  0
  3  5  1  0
  5  6  1  0
  6  7  1  0
  7  8  1  0
  8  9  2  0
  8 10  1  0
 10 11  1  0
 11 12  1  0
 12 13  1  0
 12 14  2  0
 11 15  2  0
 15 16  1  0
 16 17  2  0
 17 18  1  0
 18 19  2  0
 19 20  1  0
 20 21  1  0
 19 22  1  0
 22 23  2  0
 23 10  1  0
 23 16  1  0
  1 24  1  0
  1 25  1  0
  2 26  1  0
  2 27  1  0
  6 28  1  0
  6 29  1  0
 13 30  1  0
 13 31  1  0
 15 32  1  0
 17 33  1  0
 18 34  1  0
 20 35  1  0
 20 36  1  0
 22 37  1  0
M  END
>  <smiles>  (12) 
NCC(=O)OCOC(=O)n1c(C(N)=O)cc2ccc(CF)cc21

>  <score_type>  (12) 
oracle

>  <origin>  (12) 
adg

>  <m_score__min__energy>  (12) 
-8.3300000000000001

>  <m_primary>  (12) 
energy

$$$$
13:0
     RDKit          3D

 35 36  0  0  0  0  0  0  0  0999 V2000
   -6.4410   18.0690  -33.8040 C   0  0  0  0  0  0  0  0  0  0  0  0
   -7.4550   18.4060  -32.8240 N   0  0  0  0  0  0  0  0  0  0  0  0
   -8.2860   17.4550  -32.3420 F   0  0  0  0  0  0  0  0  0  0  0  0
   -7.5610   19.7480  -32.3810 C   0  0  0  0  0  0  0  0  0  0  0  0
   -8.7800   20.3450  -32.3360 C   0  0  0  0  0  0  0  0  0  0  0  0
   -8.8880   21.6510  -31.9060 C   0  0  0  0  0  0  0  0  0  0  0  0
   -7.7450   22.3290  -31.5250 C   0  0  0  0  0  0  0  0  0  0  0  0
   -7.5570   23.6100  -31.0650 C   0  0  0  0  0  0  0  0  0  0  0  0
   -6.1910   23.8120  -30.8190 C   0  0  0  0  0  0  0  0  0  0  0  0
   -5.6830   25.0730  -30.3240 C   0  0  0  0  0  0  0  0  0  0  0  0
   -6.3130   25.6960  -29.1830 N   0  0  0  0  0  0  0  0  0  0  0  0
   -4.7150   25.7130  -30.7940 O   0  0  0  0  0  0  0  0  0  0  0  0
   -5.5610   22.6660  -31.1280 N   0  0  0  0  0  0  0  0  0  0  0  0
   -4.1780   22.4030  -31.0380 C   0  0  0  0  0  0  0  0  0  0  0  0
   -3.3140   22.7720  -31.8670 O   0  0  0  0  0  0  0  0  0  0  0  0
   -3.6840   21.6750  -29.9540 O   0  0  0  0  0  0  0  0  0  0  0  0
   -2.3990   22.0200  -29.4110 C   0  0  0  0  0  0  0  0  0  0  0  0
   -2.3490   23.4180  -28.9310 C   0  0  0  0  0  0  0  0  0  0  0  0
   -2.9440   24.5130  -29.6140 N   0  0  0  0  0  0  0  0  0  0  0  0
   -1.7480   23.6820  -27.8520 O   0  0  0  0  0  0  0  0  0  0  0  0
   -6.4870   21.7630  -31.5550 C   0  0  0  0  0  0  0  0  0  0  0  0
   -6.4240   20.4500  -31.9950 C   0  0  0  0  0  0  0  0  0  0  0  0
   -5.5194   17.7627  -33.2875 H   0  0  0  0  0  0  0  0  0  0  0  0
   -6.8004   17.2420  -34.4340 H   0  0  0  0  0  0  0  0  0  0  0  0
   -6.2339   18.9466  -34.4340 H   0  0  0  0  0  0  0  0  0  0  0  0
   -9.6784   19.7887  -32.6415 H   0  0  0  0  0  0  0  0  0  0  0  0
   -9.8695   22.1461  -31.8668 H   0  0  0  0  0  0  0  0  0  0  0  0
   -8.3502   24.3570  -30.9140 H   0  0  0  0  0  0  0  0  0  0  0  0
   -6.1080   25.2890  -28.2460 H   0  0  0  0  0  0  0  0  0  0  0  0
   -6.9380   26.5110  -29.3420 H   0  0  0  0  0  0  0  0  0  0  0  0
   -2.1795   21.3485  -28.5678 H   0  0  0  0  0  0  0  0  0  0  0  0
   -1.6549   21.9133  -30.2141 H   0  0  0  0  0  0  0  0  0  0  0  0
   -2.8870   24.5300  -30.6530 H   0  0  0  0  0  0  0  0  0  0  0  0
   -3.4240   25.2770  -29.0800 H   0  0  0  0  0  0  0  0  0  0  0  0
   -5.4460   19.9485  -32.0402 H   0  0  0  0  0  0  0  0  0  0  0  0
  1  2  1  0
  2  3  1  0
  2  4  1  0
  4  5  2  0
  5  6  1  0
  6  7  2  0
  7  8  1  0
  8  9  2  0
  9 10  1  0
 10 11  1  0
 10 12  2  0
  9 13  1  0
 13 14  1  0
 14 15  2  0
 14 16  1  0
 16 17  1  0
 17 18  1  0
 18 19  1  0
 18 20  2  0
 13 21  1  0
 21 22  2  0
 22  4  1  0
 21  7  1  0
  1 23  1  0
  1 24  1  0
  1 25  1  0
  5 26  1  0
  6 27  1  0
  8 28  1  0
 11 29  1  0
 11 30  1  0
 17 31  1  0
 17 32  1  0
 19 33  1  0
 19 34  1  0
 22 35  1  0
M  END
>  <smiles>  (13) 
CN(F)c1ccc2cc(C(N)=O)n(C(=O)OCC(N)=O)c2c1

>  <score_type>  (13) 
oracle

>  <origin>  (13) 
adg

>  <m_score__min__energy>  (13) 
-8.4800000000000004

>  <m_primary>  (13) 
energy

$$$$
14:0
     RDKit          3D

 48 50  0  0  0  0  0  0  0  0999 V2000
   -3.7140   24.7580  -30.0680 N   0  0  0  0  0  0  0  0  0  0  0  0
   -5.0260   24.9430  -30.6560 C   0  0  0  0  0  0  0  0  0  0  0  0
   -5.3560   26.1240  -30.8300 O   0  0  0  0  0  0  0  0  0  0  0  0
   -5.8110   23.7690  -30.9760 C   0  0  0  0  0  0  0  0  0  0  0  0
   -7.1370   23.6220  -30.6130 C   0  0  0  0  0  0  0  0  0  0  0  0
   -7.6190   22.4110  -31.0520 C   0  0  0  0  0  0  0  0  0  0  0  0
   -8.8560   21.8200  -30.9370 C   0  0  0  0  0  0  0  0  0  0  0  0
   -9.0840   20.5740  -31.4760 C   0  0  0  0  0  0  0  0  0  0  0  0
   -8.0440   19.9450  -32.1260 C   0  0  0  0  0  0  0  0  0  0  0  0
   -8.2820   18.5900  -32.7150 C   0  0  0  0  0  0  0  0  0  0  0  0
   -7.0120   17.9620  -33.0210 N   0  0  0  0  0  0  0  0  0  0  0  0
   -6.3150   17.2070  -32.1290 C   0  0  0  0  0  0  0  0  0  0  0  0
   -5.1440   16.7530  -32.7300 C   0  0  0  0  0  0  0  0  0  0  0  0
   -5.1550   17.2410  -33.9720 N   0  0  0  0  0  0  0  0  0  0  0  0
   -6.2890   17.9750  -34.1470 C   0  0  0  0  0  0  0  0  0  0  0  0
   -6.7920   20.5640  -32.2330 C   0  0  0  0  0  0  0  0  0  0  0  0
   -6.5480   21.8110  -31.6980 C   0  0  0  0  0  0  0  0  0  0  0  0
   -5.4800   22.6460  -31.6370 N   0  0  0  0  0  0  0  0  0  0  0  0
   -4.2240   22.3290  -32.2050 C   0  0  0  0  0  0  0  0  0  0  0  0
   -4.2250   21.5670  -33.2330 O   0  0  0  0  0  0  0  0  0  0  0  0
   -3.0010   22.7490  -31.7760 O   0  0  0  0  0  0  0  0  0  0  0  0
   -2.1590   22.1350  -30.8540 C   0  0  0  0  0  0  0  0  0  0  0  0
   -1.6300   23.0360  -29.8920 O   0  0  0  0  0  0  0  0  0  0  0  0
   -1.0360   22.6150  -28.7240 C   0  0  0  0  0  0  0  0  0  0  0  0
   -1.4380   21.5990  -28.0820 O   0  0  0  0  0  0  0  0  0  0  0  0
    0.1150   23.3930  -28.2120 C   0  0  0  0  0  0  0  0  0  0  0  0
   -0.3310   24.5660  -27.3620 C   0  0  0  0  0  0  0  0  0  0  0  0
   -1.5320   25.1960  -27.9780 C   0  0  0  0  0  0  0  0  0  0  0  0
   -2.5570   25.3080  -27.2220 O   0  0  0  0  0  0  0  0  0  0  0  0
   -1.5500   25.6420  -29.3000 O   0  0  0  0  0  0  0  0  0  0  0  0
   -3.5830   24.7560  -29.0270 H   0  0  0  0  0  0  0  0  0  0  0  0
   -2.8860   24.6240  -30.6970 H   0  0  0  0  0  0  0  0  0  0  0  0
   -7.7223   24.3666  -30.0535 H   0  0  0  0  0  0  0  0  0  0  0  0
   -9.6670   22.3457  -30.4117 H   0  0  0  0  0  0  0  0  0  0  0  0
  -10.0697   20.0933  -31.3903 H   0  0  0  0  0  0  0  0  0  0  0  0
   -8.8329   17.9689  -31.9933 H   0  0  0  0  0  0  0  0  0  0  0  0
   -8.8707   18.6918  -33.6386 H   0  0  0  0  0  0  0  0  0  0  0  0
   -6.6272   16.9898  -31.0968 H   0  0  0  0  0  0  0  0  0  0  0  0
   -4.3679   16.1208  -32.2739 H   0  0  0  0  0  0  0  0  0  0  0  0
   -6.5681   18.4988  -35.0731 H   0  0  0  0  0  0  0  0  0  0  0  0
   -5.9802   20.0402  -32.7590 H   0  0  0  0  0  0  0  0  0  0  0  0
   -2.7277   21.3549  -30.3267 H   0  0  0  0  0  0  0  0  0  0  0  0
   -1.3087   21.7193  -31.4145 H   0  0  0  0  0  0  0  0  0  0  0  0
    0.7484   22.7320  -27.6022 H   0  0  0  0  0  0  0  0  0  0  0  0
    0.6711   23.7883  -29.0749 H   0  0  0  0  0  0  0  0  0  0  0  0
   -0.5802   24.2124  -26.3506 H   0  0  0  0  0  0  0  0  0  0  0  0
    0.4812   25.3054  -27.3016 H   0  0  0  0  0  0  0  0  0  0  0  0
   -1.0340   25.1070  -29.9920 H   0  0  0  0  0  0  0  0  0  0  0  0
  1  2  1  0
  2  3  2  0
  2  4  1  0
  4  5  2  0
  5  6  1  0
  6  7  2  0
  7  8  1  0
  8  9  2  0
  9 10  1  0
 10 11  1  0
 11 12  1  0
 12 13  2  0
 13 14  1  0
 14 15  2  0
  9 16  1  0
 16 17  2  0
 17 18  1  0
 18 19  1  0
 19 20  2  0
 19 21  1  0
 21 22  1  0
 22 23  1  0
 23 24  1  0
 24 25  2  0
 24 26  1  0
 26 27  1  0
 27 28  1  0
 28 29  2  0
 28 30  1  0
 18  4  1  0
 17  6  1  0
 15 11  1  0
  1 31  1  0
  1 32  1  0
  5 33  1  0
  7 34  1  0
  8 35  1  0
 10 36  1  0
 10 37  1  0
 12 38  1  0
 13 39  1  0
 15 40  1  0
 16 41  1  0
 22 42  1  0
 22 43  1  0
 26 44  1  0
 26 45  1  0
 27 46  1  0
 27 47  1  0
 30 48  1  0
M  END
>  <smiles>  (14) 
NC(=O)c1cc2ccc(Cn3ccnc3)cc2n1C(=O)OCOC(=O)CCC(=O)O

>  <score_type>  (14) 
oracle

>  <origin>  (14) 
adg

>  <m_score__min__energy>  (14) 
-9.3100000000000005

>  <m_primary>  (14) 
energy

$$$$
15:0
     RDKit          3D

 40 41  0  0  0  0  0  0  0  0999 V2000
   -7.1620   18.0890  -33.0820 C   0  0  0  0  0  0  0  0  0  0  0  0
   -8.1130   18.7500  -32.2110 N   0  0  0  0  0  0  0  0  0  0  0  0
   -9.2380   18.0350  -31.6280 C   0  0  0  0  0  0  0  0  0  0  0  0
   -7.9320   20.1360  -31.9260 C   0  0  0  0  0  0  0  0  0  0  0  0
   -9.0360   20.9560  -31.9980 C   0  0  0  0  0  0  0  0  0  0  0  0
   -8.8510   22.2860  -31.7210 C   0  0  0  0  0  0  0  0  0  0  0  0
   -7.5940   22.7570  -31.3860 C   0  0  0  0  0  0  0  0  0  0  0  0
   -7.2070   24.0220  -31.0810 C   0  0  0  0  0  0  0  0  0  0  0  0
   -5.8220   23.9690  -30.8140 C   0  0  0  0  0  0  0  0  0  0  0  0
   -5.1440   25.1830  -30.3960 C   0  0  0  0  0  0  0  0  0  0  0  0
   -5.7930   26.0620  -29.4390 N   0  0  0  0  0  0  0  0  0  0  0  0
   -4.0240   25.5810  -30.7770 O   0  0  0  0  0  0  0  0  0  0  0  0
   -5.3780   22.7140  -30.9580 N   0  0  0  0  0  0  0  0  0  0  0  0
   -4.0840   22.1620  -30.9790 C   0  0  0  0  0  0  0  0  0  0  0  0
   -3.7750   21.5440  -32.0750 O   0  0  0  0  0  0  0  0  0  0  0  0
   -3.0440   22.1790  -29.9990 C   0  0  0  0  0  0  0  0  0  0  0  0
   -2.7200   21.2810  -29.1940 O   0  0  0  0  0  0  0  0  0  0  0  0
   -2.2190   23.3710  -29.8720 N   0  0  0  0  0  0  0  0  0  0  0  0
   -1.1640   23.3270  -28.8450 C   0  0  0  0  0  0  0  0  0  0  0  0
   -0.6890   24.7010  -28.5810 C   0  0  0  0  0  0  0  0  0  0  0  0
    0.3620   24.9350  -27.9300 O   0  0  0  0  0  0  0  0  0  0  0  0
   -1.4360   25.7620  -29.0740 O   0  0  0  0  0  0  0  0  0  0  0  0
   -6.4760   21.9710  -31.3060 C   0  0  0  0  0  0  0  0  0  0  0  0
   -6.6740   20.6210  -31.5880 C   0  0  0  0  0  0  0  0  0  0  0  0
   -6.4095   17.5660  -32.4735 H   0  0  0  0  0  0  0  0  0  0  0  0
   -7.6899   17.3621  -33.7168 H   0  0  0  0  0  0  0  0  0  0  0  0
   -6.6647   18.8371  -33.7168 H   0  0  0  0  0  0  0  0  0  0  0  0
   -9.1708   18.0777  -30.5309 H   0  0  0  0  0  0  0  0  0  0  0  0
  -10.1786   18.5014  -31.9562 H   0  0  0  0  0  0  0  0  0  0  0  0
   -9.2151   16.9853  -31.9562 H   0  0  0  0  0  0  0  0  0  0  0  0
  -10.0264   20.5599  -32.2669 H   0  0  0  0  0  0  0  0  0  0  0  0
   -9.7035   22.9798  -31.7652 H   0  0  0  0  0  0  0  0  0  0  0  0
   -7.8484   24.9151  -31.0483 H   0  0  0  0  0  0  0  0  0  0  0  0
   -6.3110   26.9130  -29.7510 H   0  0  0  0  0  0  0  0  0  0  0  0
   -5.6910   25.7640  -28.4430 H   0  0  0  0  0  0  0  0  0  0  0  0
   -2.3640   24.2060  -30.4730 H   0  0  0  0  0  0  0  0  0  0  0  0
   -1.5692   22.8930  -27.9190 H   0  0  0  0  0  0  0  0  0  0  0  0
   -0.3272   22.7072  -29.1995 H   0  0  0  0  0  0  0  0  0  0  0  0
   -2.0580   25.6720  -29.8830 H   0  0  0  0  0  0  0  0  0  0  0  0
   -5.8211   19.9279  -31.5424 H   0  0  0  0  0  0  0  0  0  0  0  0
  1  2  1  0
  2  3  1  0
  2  4  1  0
  4  5  2  0
  5  6  1  0
  6  7  2  0
  7  8  1  0
  8  9  2  0
  9 10  1  0
 10 11  1  0
 10 12  2  0
  9 13  1  0
 13 14  1  0
 14 15  2  0
 14 16  1  0
 16 17  2  0
 16 18  1  0
 18 19  1  0
 19 20  1  0
 20 21  2  0
 20 22  1  0
 13 23  1  0
 23 24  2  0
 24  4  1  0
 23  7  1  0
  1 25  1  0
  1 26  1  0
  1 27  1  0
  3 28  1  0
  3 29  1  0
  3 30  1  0
  5 31  1  0
  6 32  1  0
  8 33  1  0
 11 34  1  0
 11 35  1  0
 18 36  1  0
 19 37  1  0
 19 38  1  0
 22 39  1  0
 24 40  1  0
M  END
>  <smiles>  (15) 
CN(C)c1ccc2cc(C(N)=O)n(C(=O)C(=O)NCC(=O)O)c2c1

>  <score_type>  (15) 
oracle

>  <origin>  (15) 
adg

>  <m_score__min__energy>  (15) 
-9.2599999999999998

>  <m_primary>  (15) 
energy

$$$$
16:0
     RDKit          3D

 53 55  0  0  1  0  0  0  0  0999 V2000
   -6.3160   16.4340  -34.5870 C   0  0  0  0  0  0  0  0  0  0  0  0
   -6.1050   17.8280  -34.1730 C   0  0  2  0  0  0  0  0  0  0  0  0
   -4.6020   17.9440  -33.8950 C   0  0  0  0  0  0  0  0  0  0  0  0
   -3.9350   19.1160  -34.1780 C   0  0  0  0  0  0  0  0  0  0  0  0
   -2.5860   19.1900  -33.9160 C   0  0  0  0  0  0  0  0  0  0  0  0
   -1.8780   18.1280  -33.3790 C   0  0  0  0  0  0  0  0  0  0  0  0
   -2.5780   16.9540  -33.1030 C   0  0  0  0  0  0  0  0  0  0  0  0
   -3.9450   16.8580  -33.3610 C   0  0  0  0  0  0  0  0  0  0  0  0
   -6.8260   18.4210  -33.1050 N   0  0  0  0  0  0  0  0  0  0  0  0
   -7.6640   17.4320  -32.3420 C   0  0  0  0  0  0  0  0  0  0  0  0
   -6.8900   19.7340  -32.6190 C   0  0  0  0  0  0  0  0  0  0  0  0
   -8.1590   20.3290  -32.4300 C   0  0  0  0  0  0  0  0  0  0  0  0
   -8.3140   21.5960  -31.9560 C   0  0  0  0  0  0  0  0  0  0  0  0
   -7.2140   22.3450  -31.6400 C   0  0  0  0  0  0  0  0  0  0  0  0
   -7.0800   23.6120  -31.1570 C   0  0  0  0  0  0  0  0  0  0  0  0
   -5.7200   23.8960  -31.0110 C   0  0  0  0  0  0  0  0  0  0  0  0
   -5.2540   25.1700  -30.5150 C   0  0  0  0  0  0  0  0  0  0  0  0
   -3.8720   25.3090  -30.1010 N   0  0  0  0  0  0  0  0  0  0  0  0
   -5.9300   26.2160  -30.3940 O   0  0  0  0  0  0  0  0  0  0  0  0
   -5.0610   22.7960  -31.4080 N   0  0  0  0  0  0  0  0  0  0  0  0
   -3.6570   22.6240  -31.4330 C   0  0  0  0  0  0  0  0  0  0  0  0
   -3.1020   22.0400  -32.4260 O   0  0  0  0  0  0  0  0  0  0  0  0
   -2.7800   23.0370  -30.4550 O   0  0  0  0  0  0  0  0  0  0  0  0
   -2.6040   22.3380  -29.2310 C   0  0  0  0  0  0  0  0  0  0  0  0
   -1.5760   23.0130  -28.3560 C   0  0  0  0  0  0  0  0  0  0  0  0
   -1.9180   24.4550  -28.2850 C   0  0  0  0  0  0  0  0  0  0  0  0
   -2.5310   24.9800  -27.3250 O   0  0  0  0  0  0  0  0  0  0  0  0
   -1.5170   25.2480  -29.3760 O   0  0  0  0  0  0  0  0  0  0  0  0
   -5.9530   21.8350  -31.7970 C   0  0  0  0  0  0  0  0  0  0  0  0
   -5.8410   20.5480  -32.2810 C   0  0  0  0  0  0  0  0  0  0  0  0
   -6.4124   15.7972  -33.6952 H   0  0  0  0  0  0  0  0  0  0  0  0
   -7.2348   16.3650  -35.1878 H   0  0  0  0  0  0  0  0  0  0  0  0
   -5.4588   16.0962  -35.1878 H   0  0  0  0  0  0  0  0  0  0  0  0
   -6.5250   18.4095  -35.0070 H   0  0  0  0  0  0  0  0  0  0  0  0
   -4.4708   19.9764  -34.6054 H   0  0  0  0  0  0  0  0  0  0  0  0
   -2.0518   20.1249  -34.1409 H   0  0  0  0  0  0  0  0  0  0  0  0
   -0.7997   18.2078  -33.1769 H   0  0  0  0  0  0  0  0  0  0  0  0
   -2.0446   16.0919  -32.6760 H   0  0  0  0  0  0  0  0  0  0  0  0
   -4.4905   15.9284  -33.1412 H   0  0  0  0  0  0  0  0  0  0  0  0
   -7.5282   17.5923  -31.2622 H   0  0  0  0  0  0  0  0  0  0  0  0
   -8.7236   17.5708  -32.6029 H   0  0  0  0  0  0  0  0  0  0  0  0
   -7.3531   16.4096  -32.6029 H   0  0  0  0  0  0  0  0  0  0  0  0
   -9.0576   19.7443  -32.6760 H   0  0  0  0  0  0  0  0  0  0  0  0
   -9.3223   22.0165  -31.8274 H   0  0  0  0  0  0  0  0  0  0  0  0
   -7.9066   24.2983  -30.9209 H   0  0  0  0  0  0  0  0  0  0  0  0
   -3.6590   25.5520  -29.1050 H   0  0  0  0  0  0  0  0  0  0  0  0
   -3.1100   25.1580  -30.8240 H   0  0  0  0  0  0  0  0  0  0  0  0
   -3.5644   22.3058  -28.6956 H   0  0  0  0  0  0  0  0  0  0  0  0
   -2.2512   21.3215  -29.4597 H   0  0  0  0  0  0  0  0  0  0  0  0
   -1.5961   22.5735  -27.3478 H   0  0  0  0  0  0  0  0  0  0  0  0
   -0.5673   22.8773  -28.7733 H   0  0  0  0  0  0  0  0  0  0  0  0
   -1.5160   24.8710  -30.3330 H   0  0  0  0  0  0  0  0  0  0  0  0
   -4.8263   20.1420  -32.4058 H   0  0  0  0  0  0  0  0  0  0  0  0
  1  2  1  0
  2  3  1  0
  3  4  2  0
  4  5  1  0
  5  6  2  0
  6  7  1  0
  7  8  2  0
  2  9  1  0
  9 10  1  0
  9 11  1  0
 11 12  2  0
 12 13  1  0
 13 14  2  0
 14 15  1  0
 15 16  2  0
 16 17  1  0
 17 18  1  0
 17 19  2  0
 16 20  1  0
 20 21  1  0
 21 22  2  0
 21 23  1  0
 23 24  1  0
 24 25  1  0
 25 26  1  0
 26 27  2  0
 26 28  1  0
 20 29  1  0
 29 30  2  0
  8  3  1  0
 30 11  1  0
 29 14  1  0
  1 31  1  0
  1 32  1  0
  1 33  1  0
  2 34  1  6
  4 35  1  0
  5 36  1  0
  6 37  1  0
  7 38  1  0
  8 39  1  0
 10 40  1  0
 10 41  1  0
 10 42  1  0
 12 43  1  0
 13 44  1  0
 15 45  1  0
 18 46  1  0
 18 47  1  0
 24 48  1  0
 24 49  1  0
 25 50  1  0
 25 51  1  0
 28 52  1  0
 30 53  1  0
M  END
>  <smiles>  (16) 
CC(c1ccccc1)N(C)c1ccc2cc(C(N)=O)n(C(=O)OCCC(=O)O)c2c1

>  <score_type>  (16) 
oracle

>  <origin>  (16) 
adg

>  <m_score__min__energy>  (16) 
-10.69

>  <m_primary>  (16) 
energy

$$$$
18:0
     RDKit          3D

 43 44  0  0  0  0  0  0  0  0999 V2000
   -2.4790   25.3840  -26.0300 C   0  0  0  0  0  0  0  0  0  0  0  0
   -2.4460   24.3980  -26.9870 O   0  0  0  0  0  0  0  0  0  0  0  0
   -1.2830   23.6640  -27.0180 C   0  0  0  0  0  0  0  0  0  0  0  0
   -0.5420   23.7250  -28.3190 C   0  0  0  0  0  0  0  0  0  0  0  0
   -1.4650   23.7980  -29.3520 O   0  0  0  0  0  0  0  0  0  0  0  0
   -1.4070   22.6370  -30.1540 C   0  0  0  0  0  0  0  0  0  0  0  0
   -2.1260   21.5020  -29.5080 C   0  0  0  0  0  0  0  0  0  0  0  0
   -3.5140   21.5680  -29.5110 O   0  0  0  0  0  0  0  0  0  0  0  0
   -4.2240   21.5450  -30.7240 C   0  0  0  0  0  0  0  0  0  0  0  0
   -3.7120   20.8320  -31.6170 O   0  0  0  0  0  0  0  0  0  0  0  0
   -5.4120   22.2910  -30.8550 N   0  0  0  0  0  0  0  0  0  0  0  0
   -5.5720   23.6050  -30.6330 C   0  0  0  0  0  0  0  0  0  0  0  0
   -4.6370   24.6230  -30.2130 C   0  0  0  0  0  0  0  0  0  0  0  0
   -3.9370   24.4730  -28.9730 N   0  0  0  0  0  0  0  0  0  0  0  0
   -4.3620   25.6700  -30.8500 O   0  0  0  0  0  0  0  0  0  0  0  0
   -6.9170   23.8950  -30.8900 C   0  0  0  0  0  0  0  0  0  0  0  0
   -7.5700   22.7510  -31.2690 C   0  0  0  0  0  0  0  0  0  0  0  0
   -8.8840   22.5170  -31.6220 C   0  0  0  0  0  0  0  0  0  0  0  0
   -9.2740   21.2410  -31.9650 C   0  0  0  0  0  0  0  0  0  0  0  0
   -8.3500   20.2190  -31.9520 C   0  0  0  0  0  0  0  0  0  0  0  0
   -8.7680   18.8250  -32.3240 C   0  0  0  0  0  0  0  0  0  0  0  0
   -7.0330   20.4900  -31.5900 C   0  0  0  0  0  0  0  0  0  0  0  0
   -6.6080   21.7560  -31.2410 C   0  0  0  0  0  0  0  0  0  0  0  0
   -2.4636   24.9253  -25.0303 H   0  0  0  0  0  0  0  0  0  0  0  0
   -1.6022   26.0379  -26.1469 H   0  0  0  0  0  0  0  0  0  0  0  0
   -3.3975   25.9778  -26.1469 H   0  0  0  0  0  0  0  0  0  0  0  0
   -0.6183   24.0405  -26.2265 H   0  0  0  0  0  0  0  0  0  0  0  0
   -1.5735   22.6129  -26.8734 H   0  0  0  0  0  0  0  0  0  0  0  0
    0.1041   24.6151  -28.3359 H   0  0  0  0  0  0  0  0  0  0  0  0
    0.0835   22.8279  -28.4372 H   0  0  0  0  0  0  0  0  0  0  0  0
   -1.8724   22.8494  -31.1278 H   0  0  0  0  0  0  0  0  0  0  0  0
   -0.3519   22.3540  -30.2832 H   0  0  0  0  0  0  0  0  0  0  0  0
   -1.8337   20.5795  -30.0311 H   0  0  0  0  0  0  0  0  0  0  0  0
   -1.8341   21.5366  -28.4480 H   0  0  0  0  0  0  0  0  0  0  0  0
   -3.8530   25.2980  -28.3430 H   0  0  0  0  0  0  0  0  0  0  0  0
   -3.5110   23.5660  -28.6790 H   0  0  0  0  0  0  0  0  0  0  0  0
   -7.3794   24.8892  -30.8014 H   0  0  0  0  0  0  0  0  0  0  0  0
   -9.6124   23.3413  -31.6293 H   0  0  0  0  0  0  0  0  0  0  0  0
  -10.3177   21.0391  -32.2478 H   0  0  0  0  0  0  0  0  0  0  0  0
   -8.9438   18.2387  -31.4100 H   0  0  0  0  0  0  0  0  0  0  0  0
   -9.6935   18.8657  -32.9172 H   0  0  0  0  0  0  0  0  0  0  0  0
   -7.9728   18.3498  -32.9172 H   0  0  0  0  0  0  0  0  0  0  0  0
   -6.3050   19.6654  -31.5819 H   0  0  0  0  0  0  0  0  0  0  0  0
  1  2  1  0
  2  3  1  0
  3  4  1  0
  4  5  1  0
  5  6  1  0
  6  7  1  0
  7  8  1  0
  8  9  1  0
  9 10  2  0
  9 11  1  0
 11 12  1  0
 12 13  1  0
 13 14  1  0
 13 15  2  0
 12 16  2  0
 16 17  1  0
 17 18  2  0
 18 19  1  0
 19 20  2  0
 20 21  1  0
 20 22  1  0
 22 23  2  0
 23 11  1  0
 23 17  1  0
  1 24  1  0
  1 25  1  0
  1 26  1  0
  3 27  1  0
  3 28  1  0
  4 29  1  0
  4 30  1  0
  6 31  1  0
  6 32  1  0
  7 33  1  0
  7 34  1  0
 14 35  1  0
 14 36  1  0
 16 37  1  0
 18 38  1  0
 19 39  1  0
 21 40  1  0
 21 41  1  0
 21 42  1  0
 22 43  1  0
M  END
>  <smiles>  (17) 
COCCOCCOC(=O)n1c(C(N)=O)cc2ccc(C)cc21

>  <score_type>  (17) 
oracle

>  <origin>  (17) 
adg

>  <m_score__min__energy>  (17) 
-8.4100000000000001

>  <m_primary>  (17) 
energy

$$$$
19:0
     RDKit          3D

 36 37  0  0  0  0  0  0  0  0999 V2000
   -5.1720   25.7930  -30.0970 N   0  0  0  0  0  0  0  0  0  0  0  0
   -6.4220   25.0670  -30.0380 C   0  0  0  0  0  0  0  0  0  0  0  0
   -7.3160   25.6270  -29.3650 O   0  0  0  0  0  0  0  0  0  0  0  0
   -6.5380   23.8030  -30.7280 C   0  0  0  0  0  0  0  0  0  0  0  0
   -7.7680   23.2060  -30.9940 C   0  0  0  0  0  0  0  0  0  0  0  0
   -7.5770   22.0250  -31.6530 C   0  0  0  0  0  0  0  0  0  0  0  0
   -8.4670   21.0850  -32.1250 C   0  0  0  0  0  0  0  0  0  0  0  0
   -8.0080   19.9590  -32.7670 C   0  0  0  0  0  0  0  0  0  0  0  0
   -6.6480   19.7980  -32.9250 C   0  0  0  0  0  0  0  0  0  0  0  0
   -6.1070   18.5830  -33.6200 C   0  0  0  0  0  0  0  0  0  0  0  0
   -4.9450   18.9780  -34.2540 F   0  0  0  0  0  0  0  0  0  0  0  0
   -5.7680   20.7600  -32.4400 C   0  0  0  0  0  0  0  0  0  0  0  0
   -6.2020   21.8970  -31.7920 C   0  0  0  0  0  0  0  0  0  0  0  0
   -5.6030   22.9790  -31.2290 N   0  0  0  0  0  0  0  0  0  0  0  0
   -4.2160   23.1560  -31.2000 C   0  0  0  0  0  0  0  0  0  0  0  0
   -3.4860   22.2060  -31.6460 O   0  0  0  0  0  0  0  0  0  0  0  0
   -3.5270   24.2560  -30.7400 O   0  0  0  0  0  0  0  0  0  0  0  0
   -2.5740   23.9840  -29.7000 C   0  0  0  0  0  0  0  0  0  0  0  0
   -1.9420   25.1440  -29.2630 O   0  0  0  0  0  0  0  0  0  0  0  0
   -1.5250   25.4240  -27.9880 C   0  0  0  0  0  0  0  0  0  0  0  0
   -0.4120   25.9840  -27.8100 O   0  0  0  0  0  0  0  0  0  0  0  0
   -2.4270   25.0440  -26.8610 C   0  0  0  0  0  0  0  0  0  0  0  0
   -3.7360   24.8480  -27.3020 O   0  0  0  0  0  0  0  0  0  0  0  0
   -4.3070   25.3990  -29.6240 H   0  0  0  0  0  0  0  0  0  0  0  0
   -5.1530   26.7010  -30.6130 H   0  0  0  0  0  0  0  0  0  0  0  0
   -8.7468   23.6233  -30.7151 H   0  0  0  0  0  0  0  0  0  0  0  0
   -9.5479   21.2358  -31.9878 H   0  0  0  0  0  0  0  0  0  0  0  0
   -8.7110   19.2028  -33.1464 H   0  0  0  0  0  0  0  0  0  0  0  0
   -5.8900   17.7915  -32.8876 H   0  0  0  0  0  0  0  0  0  0  0  0
   -6.8348   18.1793  -34.3392 H   0  0  0  0  0  0  0  0  0  0  0  0
   -4.6874   20.6082  -32.5784 H   0  0  0  0  0  0  0  0  0  0  0  0
   -3.0968   23.5213  -28.8499 H   0  0  0  0  0  0  0  0  0  0  0  0
   -1.8068   23.3087  -30.1068 H   0  0  0  0  0  0  0  0  0  0  0  0
   -2.0590   24.1124  -26.4063 H   0  0  0  0  0  0  0  0  0  0  0  0
   -2.4276   25.8626  -26.1262 H   0  0  0  0  0  0  0  0  0  0  0  0
   -3.8020   25.3300  -28.1700 H   0  0  0  0  0  0  0  0  0  0  0  0
  1  2  1  0
  2  3  2  0
  2  4  1  0
  4  5  2  0
  5  6  1  0
  6  7  2  0
  7  8  1  0
  8  9  2  0
  9 10  1  0
 10 11  1  0
  9 12  1  0
 12 13  2  0
 13 14  1  0
 14 15  1  0
 15 16  2  0
 15 17  1  0
 17 18  1  0
 18 19  1  0
 19 20  1  0
 20 21  2  0
 20 22  1  0
 22 23  1  0
 14  4  1  0
 13  6  1  0
  1 24  1  0
  1 25  1  0
  5 26  1  0
  7 27  1  0
  8 28  1  0
 10 29  1  0
 10 30  1  0
 12 31  1  0
 18 32  1  0
 18 33  1  0
 22 34  1  0
 22 35  1  0
 23 36  1  0
M  END
>  <smiles>  (18) 
NC(=O)c1cc2ccc(CF)cc2n1C(=O)OCOC(=O)CO

>  <score_type>  (18) 
oracle

>  <origin>  (18) 
adg

>  <m_score__min__energy>  (18) 
-7.5300000000000002

>  <m_primary>  (18) 
energy

$$$$
20:0
     RDKit          3D

 48 49  0  0  0  0  0  0  0  0999 V2000
    1.6810   24.1480  -26.4620 C   0  0  0  0  0  0  0  0  0  0  0  0
    0.8030   23.8070  -27.2390 C   0  0  0  0  0  0  0  0  0  0  0  0
   -0.2220   23.3980  -28.1570 C   0  0  0  0  0  0  0  0  0  0  0  0
   -0.0940   23.7630  -29.3590 O   0  0  0  0  0  0  0  0  0  0  0  0
   -1.3170   22.6150  -27.6960 N   0  0  0  0  0  0  0  0  0  0  0  0
   -1.1880   21.1550  -27.6240 C   0  0  0  0  0  0  0  0  0  0  0  0
   -2.5550   23.2410  -27.2980 C   0  0  0  0  0  0  0  0  0  0  0  0
   -2.7690   24.5630  -27.9720 C   0  0  0  0  0  0  0  0  0  0  0  0
   -2.7980   24.4730  -29.3900 O   0  0  0  0  0  0  0  0  0  0  0  0
   -3.9370   24.5540  -30.1310 C   0  0  0  0  0  0  0  0  0  0  0  0
   -4.2250   25.5390  -30.8460 O   0  0  0  0  0  0  0  0  0  0  0  0
   -4.9320   23.4480  -30.1350 N   0  0  0  0  0  0  0  0  0  0  0  0
   -6.2490   23.9480  -29.8530 C   0  0  0  0  0  0  0  0  0  0  0  0
   -4.4290   22.2020  -30.3880 C   0  0  0  0  0  0  0  0  0  0  0  0
   -3.8290   21.6830  -29.3200 O   0  0  0  0  0  0  0  0  0  0  0  0
   -4.3610   21.3150  -31.4720 N   0  0  0  0  0  0  0  0  0  0  0  0
   -3.1840   21.0400  -32.1130 C   0  0  0  0  0  0  0  0  0  0  0  0
   -1.8630   21.6270  -32.0330 C   0  0  0  0  0  0  0  0  0  0  0  0
   -1.4640   22.3610  -30.8380 N   0  0  0  0  0  0  0  0  0  0  0  0
   -0.9630   21.5900  -32.9020 O   0  0  0  0  0  0  0  0  0  0  0  0
   -3.4330   20.0280  -33.0650 C   0  0  0  0  0  0  0  0  0  0  0  0
   -4.7460   19.6940  -32.9990 C   0  0  0  0  0  0  0  0  0  0  0  0
   -5.4560   18.7510  -33.7040 C   0  0  0  0  0  0  0  0  0  0  0  0
   -6.7960   18.5550  -33.4480 C   0  0  0  0  0  0  0  0  0  0  0  0
   -7.3710   19.3220  -32.4810 C   0  0  0  0  0  0  0  0  0  0  0  0
   -8.8230   19.1190  -32.1920 C   0  0  0  0  0  0  0  0  0  0  0  0
   -9.6030   19.5730  -33.2520 F   0  0  0  0  0  0  0  0  0  0  0  0
   -9.0890   17.8020  -31.9200 F   0  0  0  0  0  0  0  0  0  0  0  0
   -9.0760   19.8370  -31.0300 F   0  0  0  0  0  0  0  0  0  0  0  0
   -6.6440   20.2660  -31.7830 C   0  0  0  0  0  0  0  0  0  0  0  0
   -5.2950   20.4970  -32.0120 C   0  0  0  0  0  0  0  0  0  0  0  0
    2.4720   24.4552  -25.7620 H   0  0  0  0  0  0  0  0  0  0  0  0
   -1.1602   20.8409  -26.5702 H   0  0  0  0  0  0  0  0  0  0  0  0
   -2.0482   20.6858  -28.1239 H   0  0  0  0  0  0  0  0  0  0  0  0
   -0.2589   20.8439  -28.1239 H   0  0  0  0  0  0  0  0  0  0  0  0
   -3.3887   22.5725  -27.5586 H   0  0  0  0  0  0  0  0  0  0  0  0
   -2.5067   23.4210  -26.2139 H   0  0  0  0  0  0  0  0  0  0  0  0
   -3.7279   24.9786  -27.6289 H   0  0  0  0  0  0  0  0  0  0  0  0
   -1.9184   25.2068  -27.7038 H   0  0  0  0  0  0  0  0  0  0  0  0
   -6.3948   24.0034  -28.7641 H   0  0  0  0  0  0  0  0  0  0  0  0
   -6.3615   24.9514  -30.2895 H   0  0  0  0  0  0  0  0  0  0  0  0
   -6.9991   23.2721  -30.2895 H   0  0  0  0  0  0  0  0  0  0  0  0
   -1.0320   21.8570  -30.0280 H   0  0  0  0  0  0  0  0  0  0  0  0
   -1.6440   23.3790  -30.8760 H   0  0  0  0  0  0  0  0  0  0  0  0
   -2.6894   19.5858  -33.7443 H   0  0  0  0  0  0  0  0  0  0  0  0
   -4.9524   18.1504  -34.4757 H   0  0  0  0  0  0  0  0  0  0  0  0
   -7.3794   17.8066  -34.0043 H   0  0  0  0  0  0  0  0  0  0  0  0
   -7.1563   20.8605  -31.0122 H   0  0  0  0  0  0  0  0  0  0  0  0
  1  2  3  0
  2  3  1  0
  3  4  2  0
  3  5  1  0
  5  6  1  0
  5  7  1  0
  7  8  1  0
  8  9  1  0
  9 10  1  0
 10 11  2  0
 10 12  1  0
 12 13  1  0
 12 14  1  0
 14 15  2  0
 14 16  1  0
 16 17  1  0
 17 18  1  0
 18 19  1  0
 18 20  2  0
 17 21  2  0
 21 22  1  0
 22 23  2  0
 23 24  1  0
 24 25  2  0
 25 26  1  0
 26 27  1  0
 26 28  1  0
 26 29  1  0
 25 30  1  0
 30 31  2  0
 31 16  1  0
 31 22  1  0
  1 32  1  0
  6 33  1  0
  6 34  1  0
  6 35  1  0
  7 36  1  0
  7 37  1  0
  8 38  1  0
  8 39  1  0
 13 40  1  0
 13 41  1  0
 13 42  1  0
 19 43  1  0
 19 44  1  0
 21 45  1  0
 23 46  1  0
 24 47  1  0
 30 48  1  0
M  END
>  <smiles>  (19) 
C#CC(=O)N(C)CCOC(=O)N(C)C(=O)n1c(C(N)=O)cc2ccc(C(F)(F)F)cc21

>  <score_type>  (19) 
oracle

>  <origin>  (19) 
adg

>  <m_score__min__energy>  (19) 
-8.6500000000000004

>  <m_primary>  (19) 
energy

$$$$
21:0
     RDKit          3D

 38 40  0  0  0  0  0  0  0  0999 V2000
   -5.1040   24.9530  -28.7090 N   0  0  0  0  0  0  0  0  0  0  0  0
   -5.1610   24.7180  -30.1490 C   0  0  0  0  0  0  0  0  0  0  0  0
   -4.7280   25.6760  -30.8160 O   0  0  0  0  0  0  0  0  0  0  0  0
   -5.6860   23.4610  -30.6100 C   0  0  0  0  0  0  0  0  0  0  0  0
   -7.0250   23.3900  -31.0570 C   0  0  0  0  0  0  0  0  0  0  0  0
   -7.3150   22.1330  -31.4790 C   0  0  0  0  0  0  0  0  0  0  0  0
   -8.4690   21.5860  -31.9900 C   0  0  0  0  0  0  0  0  0  0  0  0
   -8.5170   20.2640  -32.3470 C   0  0  0  0  0  0  0  0  0  0  0  0
   -7.3820   19.5140  -32.1780 C   0  0  0  0  0  0  0  0  0  0  0  0
   -7.3940   18.1390  -32.5370 N   0  0  0  0  0  0  0  0  0  0  0  0
   -6.3850   17.5840  -33.4010 C   0  0  0  0  0  0  0  0  0  0  0  0
   -6.5100   16.1360  -33.8350 C   0  0  0  0  0  0  0  0  0  0  0  0
   -5.4430   16.5330  -32.8530 C   0  0  0  0  0  0  0  0  0  0  0  0
   -6.2180   20.0810  -31.6580 C   0  0  0  0  0  0  0  0  0  0  0  0
   -6.1470   21.4060  -31.2930 C   0  0  0  0  0  0  0  0  0  0  0  0
   -5.1850   22.2330  -30.7650 N   0  0  0  0  0  0  0  0  0  0  0  0
   -3.8830   21.7380  -30.5070 C   0  0  0  0  0  0  0  0  0  0  0  0
   -3.8380   20.7550  -29.7350 O   0  0  0  0  0  0  0  0  0  0  0  0
   -2.6440   22.2460  -31.0210 C   0  0  0  0  0  0  0  0  0  0  0  0
   -1.9770   23.1930  -30.4000 C   0  0  0  0  0  0  0  0  0  0  0  0
   -2.2910   23.8720  -29.1920 C   0  0  0  0  0  0  0  0  0  0  0  0
   -2.4870   23.4770  -28.0410 O   0  0  0  0  0  0  0  0  0  0  0  0
   -2.4050   25.2900  -29.3050 O   0  0  0  0  0  0  0  0  0  0  0  0
   -5.9910   25.2970  -28.2960 H   0  0  0  0  0  0  0  0  0  0  0  0
   -4.2230   24.7740  -28.1780 H   0  0  0  0  0  0  0  0  0  0  0  0
   -7.7313   24.2332  -31.0621 H   0  0  0  0  0  0  0  0  0  0  0  0
   -9.3622   22.2161  -32.1133 H   0  0  0  0  0  0  0  0  0  0  0  0
   -9.4362   19.8191  -32.7558 H   0  0  0  0  0  0  0  0  0  0  0  0
   -8.1330   17.5000  -32.1860 H   0  0  0  0  0  0  0  0  0  0  0  0
   -6.2621   18.5478  -33.9167 H   0  0  0  0  0  0  0  0  0  0  0  0
   -7.3680   15.5343  -33.5008 H   0  0  0  0  0  0  0  0  0  0  0  0
   -6.5194   15.6131  -34.8027 H   0  0  0  0  0  0  0  0  0  0  0  0
   -5.5211   16.2205  -31.8012 H   0  0  0  0  0  0  0  0  0  0  0  0
   -4.3499   16.4192  -32.8071 H   0  0  0  0  0  0  0  0  0  0  0  0
   -5.3270   19.4476  -31.5357 H   0  0  0  0  0  0  0  0  0  0  0  0
   -2.2422   21.8328  -31.9579 H   0  0  0  0  0  0  0  0  0  0  0  0
   -1.0405   23.5050  -30.8855 H   0  0  0  0  0  0  0  0  0  0  0  0
   -2.6320   25.6730  -30.2390 H   0  0  0  0  0  0  0  0  0  0  0  0
  1  2  1  0
  2  3  2  0
  2  4  1  0
  4  5  2  0
  5  6  1  0
  6  7  2  0
  7  8  1  0
  8  9  2  0
  9 10  1  0
 10 11  1  0
 11 12  1  0
 12 13  1  0
  9 14  1  0
 14 15  2  0
 15 16  1  0
 16 17  1  0
 17 18  2  0
 17 19  1  0
 19 20  2  0
 20 21  1  0
 21 22  2  0
 21 23  1  0
 16  4  1  0
 15  6  1  0
 13 11  1  0
  1 24  1  0
  1 25  1  0
  5 26  1  0
  7 27  1  0
  8 28  1  0
 10 29  1  0
 11 30  1  0
 12 31  1  0
 12 32  1  0
 13 33  1  0
 13 34  1  0
 14 35  1  0
 19 36  1  0
 20 37  1  0
 23 38  1  0
M  END
>  <smiles>  (20) 
NC(=O)c1cc2ccc(NC3CC3)cc2n1C(=O)/C=C\C(=O)O

>  <score_type>  (20) 
oracle

>  <origin>  (20) 
adg

>  <m_score__min__energy>  (20) 
-8.9399999999999995

>  <m_primary>  (20) 
energy

$$$$
22:0
     RDKit          3D

 42 43  0  0  0  0  0  0  0  0999 V2000
   -2.0110   26.0360  -25.8580 C   0  0  0  0  0  0  0  0  0  0  0  0
   -1.4270   25.0470  -26.8330 N   0  0  0  0  0  0  0  0  0  0  0  0
   -0.2770   24.3720  -26.3560 C   0  0  0  0  0  0  0  0  0  0  0  0
    0.5460   23.7430  -27.4570 C   0  0  0  0  0  0  0  0  0  0  0  0
    0.8990   22.5400  -27.3650 O   0  0  0  0  0  0  0  0  0  0  0  0
    0.9030   24.5070  -28.5600 O   0  0  0  0  0  0  0  0  0  0  0  0
   -2.1190   24.9880  -28.0380 C   0  0  0  0  0  0  0  0  0  0  0  0
   -1.5350   25.6790  -28.9870 O   0  0  0  0  0  0  0  0  0  0  0  0
   -3.3010   24.3470  -28.4270 N   0  0  0  0  0  0  0  0  0  0  0  0
   -4.2370   23.9620  -27.3880 C   0  0  0  0  0  0  0  0  0  0  0  0
   -3.5210   24.1390  -29.8130 C   0  0  0  0  0  0  0  0  0  0  0  0
   -3.7030   25.2440  -30.4720 O   0  0  0  0  0  0  0  0  0  0  0  0
   -3.5660   22.9800  -30.5880 N   0  0  0  0  0  0  0  0  0  0  0  0
   -2.6590   22.1690  -31.1220 C   0  0  0  0  0  0  0  0  0  0  0  0
   -1.2490   21.9490  -30.7240 C   0  0  0  0  0  0  0  0  0  0  0  0
   -0.5180   22.8770  -29.9490 N   0  0  0  0  0  0  0  0  0  0  0  0
   -0.6550   20.8960  -31.0700 O   0  0  0  0  0  0  0  0  0  0  0  0
   -3.2180   21.2870  -32.0490 C   0  0  0  0  0  0  0  0  0  0  0  0
   -4.5440   21.5780  -32.0690 C   0  0  0  0  0  0  0  0  0  0  0  0
   -5.5520   20.9930  -32.8210 C   0  0  0  0  0  0  0  0  0  0  0  0
   -6.8460   21.4380  -32.6980 C   0  0  0  0  0  0  0  0  0  0  0  0
   -7.0850   22.4640  -31.8180 C   0  0  0  0  0  0  0  0  0  0  0  0
   -8.4250   22.9280  -31.6870 N   0  0  0  0  0  0  0  0  0  0  0  0
   -6.0590   23.0480  -31.0640 C   0  0  0  0  0  0  0  0  0  0  0  0
   -4.7530   22.5970  -31.1890 C   0  0  0  0  0  0  0  0  0  0  0  0
   -1.8119   25.6988  -24.8301 H   0  0  0  0  0  0  0  0  0  0  0  0
   -1.5504   27.0223  -26.0160 H   0  0  0  0  0  0  0  0  0  0  0  0
   -3.0971   26.1090  -26.0160 H   0  0  0  0  0  0  0  0  0  0  0  0
    0.3539   25.0946  -25.8176 H   0  0  0  0  0  0  0  0  0  0  0  0
   -0.6242   23.5579  -25.7027 H   0  0  0  0  0  0  0  0  0  0  0  0
    0.2330   25.1810  -28.9520 H   0  0  0  0  0  0  0  0  0  0  0  0
   -3.7866   24.1473  -26.4017 H   0  0  0  0  0  0  0  0  0  0  0  0
   -5.1588   24.5540  -27.4872 H   0  0  0  0  0  0  0  0  0  0  0  0
   -4.4755   22.8928  -27.4872 H   0  0  0  0  0  0  0  0  0  0  0  0
    0.3700   22.6230  -29.4830 H   0  0  0  0  0  0  0  0  0  0  0  0
   -0.8300   23.8800  -29.7970 H   0  0  0  0  0  0  0  0  0  0  0  0
   -2.6950   20.5193  -32.6381 H   0  0  0  0  0  0  0  0  0  0  0  0
   -5.3155   20.1733  -33.5154 H   0  0  0  0  0  0  0  0  0  0  0  0
   -7.6613   20.9882  -33.2837 H   0  0  0  0  0  0  0  0  0  0  0  0
   -8.7060   23.8450  -32.1230 H   0  0  0  0  0  0  0  0  0  0  0  0
   -9.1340   22.3540  -31.1520 H   0  0  0  0  0  0  0  0  0  0  0  0
   -6.2901   23.8687  -30.3690 H   0  0  0  0  0  0  0  0  0  0  0  0
  1  2  1  0
  2  3  1  0
  3  4  1  0
  4  5  2  0
  4  6  1  0
  2  7  1  0
  7  8  2  0
  7  9  1  0
  9 10  1  0
  9 11  1  0
 11 12  2  0
 11 13  1  0
 13 14  1  0
 14 15  1  0
 15 16  1  0
 15 17  2  0
 14 18  2  0
 18 19  1  0
 19 20  2  0
 20 21  1  0
 21 22  2  0
 22 23  1  0
 22 24  1  0
 24 25  2  0
 25 13  1  0
 25 19  1  0
  1 26  1  0
  1 27  1  0
  1 28  1  0
  3 29  1  0
  3 30  1  0
  6 31  1  0
 10 32  1  0
 10 33  1  0
 10 34  1  0
 16 35  1  0
 16 36  1  0
 18 37  1  0
 20 38  1  0
 21 39  1  0
 23 40  1  0
 23 41  1  0
 24 42  1  0
M  END
>  <smiles>  (21) 
CN(CC(=O)O)C(=O)N(C)C(=O)n1c(C(N)=O)cc2ccc(N)cc21

>  <score_type>  (21) 
oracle

>  <origin>  (21) 
adg

>  <m_score__min__energy>  (21) 
-8.5999999999999996

>  <m_primary>  (21) 
energy

$$$$
23:0
     RDKit          3D

 41 42  0  0  0  0  0  0  0  0999 V2000
   -0.2530   20.7560  -33.0110 C   0  0  0  0  0  0  0  0  0  0  0  0
   -1.3650   20.9300  -32.0990 N   0  0  0  0  0  0  0  0  0  0  0  0
   -1.2130   21.0120  -30.6610 C   0  0  0  0  0  0  0  0  0  0  0  0
   -2.6690   21.0250  -32.6600 C   0  0  0  0  0  0  0  0  0  0  0  0
   -2.7860   20.9530  -33.9200 O   0  0  0  0  0  0  0  0  0  0  0  0
   -3.7930   21.1960  -31.8320 O   0  0  0  0  0  0  0  0  0  0  0  0
   -4.1990   22.4770  -31.4430 C   0  0  0  0  0  0  0  0  0  0  0  0
   -3.2650   23.2830  -31.2200 O   0  0  0  0  0  0  0  0  0  0  0  0
   -5.5790   22.7780  -31.3270 N   0  0  0  0  0  0  0  0  0  0  0  0
   -6.1230   23.9070  -30.8510 C   0  0  0  0  0  0  0  0  0  0  0  0
   -5.5170   25.1150  -30.3330 C   0  0  0  0  0  0  0  0  0  0  0  0
   -6.1120   25.7750  -29.1930 N   0  0  0  0  0  0  0  0  0  0  0  0
   -4.4920   25.6740  -30.7800 O   0  0  0  0  0  0  0  0  0  0  0  0
   -7.5130   23.7490  -30.9320 C   0  0  0  0  0  0  0  0  0  0  0  0
   -7.7980   22.5130  -31.4600 C   0  0  0  0  0  0  0  0  0  0  0  0
   -9.0040   21.9010  -31.7310 C   0  0  0  0  0  0  0  0  0  0  0  0
   -9.0040   20.6330  -32.2700 C   0  0  0  0  0  0  0  0  0  0  0  0
   -7.8060   20.0020  -32.5280 C   0  0  0  0  0  0  0  0  0  0  0  0
   -7.7740   18.6780  -33.0900 N   0  0  0  0  0  0  0  0  0  0  0  0
   -6.5840   17.8510  -33.0400 C   0  0  0  0  0  0  0  0  0  0  0  0
   -5.6350   18.2730  -34.1060 C   0  0  0  0  0  0  0  0  0  0  0  0
   -5.9350   18.2190  -35.3340 O   0  0  0  0  0  0  0  0  0  0  0  0
   -4.3840   18.7400  -33.7390 O   0  0  0  0  0  0  0  0  0  0  0  0
   -6.6020   20.6520  -32.2400 C   0  0  0  0  0  0  0  0  0  0  0  0
   -6.5750   21.9250  -31.6990 C   0  0  0  0  0  0  0  0  0  0  0  0
    0.6735   20.6110  -32.4361 H   0  0  0  0  0  0  0  0  0  0  0  0
   -0.4329   19.8751  -33.6447 H   0  0  0  0  0  0  0  0  0  0  0  0
   -0.1552   21.6498  -33.6447 H   0  0  0  0  0  0  0  0  0  0  0  0
   -2.0808   20.5439  -30.1733 H   0  0  0  0  0  0  0  0  0  0  0  0
   -0.2950   20.4867  -30.3588 H   0  0  0  0  0  0  0  0  0  0  0  0
   -1.1478   22.0677  -30.3588 H   0  0  0  0  0  0  0  0  0  0  0  0
   -6.3410   26.7870  -29.2220 H   0  0  0  0  0  0  0  0  0  0  0  0
   -6.2890   25.1630  -28.3550 H   0  0  0  0  0  0  0  0  0  0  0  0
   -8.2582   24.4964  -30.6219 H   0  0  0  0  0  0  0  0  0  0  0  0
   -9.9519   22.4177  -31.5199 H   0  0  0  0  0  0  0  0  0  0  0  0
   -9.9549   20.1270  -32.4932 H   0  0  0  0  0  0  0  0  0  0  0  0
   -8.6320   18.3190  -33.5420 H   0  0  0  0  0  0  0  0  0  0  0  0
   -6.1027   17.9618  -32.0571 H   0  0  0  0  0  0  0  0  0  0  0  0
   -6.8644   16.7991  -33.1974 H   0  0  0  0  0  0  0  0  0  0  0  0
   -4.3140   19.6280  -33.2260 H   0  0  0  0  0  0  0  0  0  0  0  0
   -5.6521   20.1381  -32.4489 H   0  0  0  0  0  0  0  0  0  0  0  0
  1  2  1  0
  2  3  1  0
  2  4  1  0
  4  5  2  0
  4  6  1  0
  6  7  1  0
  7  8  2  0
  7  9  1  0
  9 10  1  0
 10 11  1  0
 11 12  1  0
 11 13  2  0
 10 14  2  0
 14 15  1  0
 15 16  2  0
 16 17  1  0
 17 18  2  0
 18 19  1  0
 19 20  1  0
 20 21  1  0
 21 22  2  0
 21 23  1  0
 18 24  1  0
 24 25  2  0
 25  9  1  0
 25 15  1  0
  1 26  1  0
  1 27  1  0
  1 28  1  0
  3 29  1  0
  3 30  1  0
  3 31  1  0
 12 32  1  0
 12 33  1  0
 14 34  1  0
 16 35  1  0
 17 36  1  0
 19 37  1  0
 20 38  1  0
 20 39  1  0
 23 40  1  0
 24 41  1  0
M  END
>  <smiles>  (22) 
CN(C)C(=O)OC(=O)n1c(C(N)=O)cc2ccc(NCC(=O)O)cc21

>  <score_type>  (22) 
oracle

>  <origin>  (22) 
adg

>  <m_score__min__energy>  (22) 
-9.0600000000000005

>  <m_primary>  (22) 
energy

$$$$
24:0
     RDKit          3D

 44 45  0  0  0  0  0  0  0  0999 V2000
   -7.6210   18.2870  -32.7290 C   0  0  0  0  0  0  0  0  0  0  0  0
   -7.6770   19.7100  -32.2970 C   0  0  0  0  0  0  0  0  0  0  0  0
   -8.8970   20.3460  -32.2420 C   0  0  0  0  0  0  0  0  0  0  0  0
   -8.9150   21.6590  -31.8390 C   0  0  0  0  0  0  0  0  0  0  0  0
   -7.7560   22.3190  -31.5020 C   0  0  0  0  0  0  0  0  0  0  0  0
   -7.5230   23.6080  -31.0760 C   0  0  0  0  0  0  0  0  0  0  0  0
   -6.1440   23.7730  -30.8650 C   0  0  0  0  0  0  0  0  0  0  0  0
   -5.6030   25.0300  -30.4110 C   0  0  0  0  0  0  0  0  0  0  0  0
   -5.7770   25.6380  -29.1520 N   0  0  0  0  0  0  0  0  0  0  0  0
   -4.8850   25.6790  -31.2320 O   0  0  0  0  0  0  0  0  0  0  0  0
   -5.5690   22.6020  -31.1600 N   0  0  0  0  0  0  0  0  0  0  0  0
   -4.2080   22.2590  -31.1180 C   0  0  0  0  0  0  0  0  0  0  0  0
   -3.5200   22.2330  -32.1950 O   0  0  0  0  0  0  0  0  0  0  0  0
   -3.4820   21.9270  -29.9870 O   0  0  0  0  0  0  0  0  0  0  0  0
   -3.9770   22.1870  -28.6830 C   0  0  0  0  0  0  0  0  0  0  0  0
   -4.0560   23.5420  -28.3770 O   0  0  0  0  0  0  0  0  0  0  0  0
   -3.0410   24.4600  -28.3580 C   0  0  0  0  0  0  0  0  0  0  0  0
   -2.9520   25.2970  -29.2920 O   0  0  0  0  0  0  0  0  0  0  0  0
   -2.0710   24.4860  -27.2910 N   0  0  0  0  0  0  0  0  0  0  0  0
   -2.2440   25.3240  -26.1220 C   0  0  0  0  0  0  0  0  0  0  0  0
   -0.8910   23.6620  -27.3730 C   0  0  0  0  0  0  0  0  0  0  0  0
   -0.2410   23.8270  -28.7410 C   0  0  0  0  0  0  0  0  0  0  0  0
   -0.9680   23.1270  -29.7010 O   0  0  0  0  0  0  0  0  0  0  0  0
   -6.5320   21.7140  -31.5460 C   0  0  0  0  0  0  0  0  0  0  0  0
   -6.5100   20.3880  -31.9520 C   0  0  0  0  0  0  0  0  0  0  0  0
   -7.5954   17.6356  -31.8430 H   0  0  0  0  0  0  0  0  0  0  0  0
   -8.5106   18.0515  -33.3317 H   0  0  0  0  0  0  0  0  0  0  0  0
   -6.7157   18.1221  -33.3317 H   0  0  0  0  0  0  0  0  0  0  0  0
   -9.8252   19.8207  -32.5115 H   0  0  0  0  0  0  0  0  0  0  0  0
   -9.8750   22.1932  -31.7847 H   0  0  0  0  0  0  0  0  0  0  0  0
   -8.2908   24.3813  -30.9257 H   0  0  0  0  0  0  0  0  0  0  0  0
   -5.0780   25.4720  -28.4240 H   0  0  0  0  0  0  0  0  0  0  0  0
   -6.6370   26.2510  -29.0400 H   0  0  0  0  0  0  0  0  0  0  0  0
   -4.9842   21.7525  -28.6004 H   0  0  0  0  0  0  0  0  0  0  0  0
   -3.2676   21.7368  -27.9730 H   0  0  0  0  0  0  0  0  0  0  0  0
   -2.1186   24.7165  -25.2136 H   0  0  0  0  0  0  0  0  0  0  0  0
   -1.4928   26.1275  -26.1324 H   0  0  0  0  0  0  0  0  0  0  0  0
   -3.2520   25.7643  -26.1324 H   0  0  0  0  0  0  0  0  0  0  0  0
   -0.1789   23.9650  -26.5913 H   0  0  0  0  0  0  0  0  0  0  0  0
   -1.1727   22.6085  -27.2292 H   0  0  0  0  0  0  0  0  0  0  0  0
   -0.2185   24.8940  -29.0074 H   0  0  0  0  0  0  0  0  0  0  0  0
    0.7843   23.4303  -28.7040 H   0  0  0  0  0  0  0  0  0  0  0  0
   -1.9390   23.3660  -29.6870 H   0  0  0  0  0  0  0  0  0  0  0  0
   -5.5471   19.8586  -32.0028 H   0  0  0  0  0  0  0  0  0  0  0  0
  1  2  1  0
  2  3  2  0
  3  4  1  0
  4  5  2  0
  5  6  1  0
  6  7  2  0
  7  8  1  0
  8  9  1  0
  8 10  2  0
  7 11  1  0
 11 12  1  0
 12 13  2  0
 12 14  1  0
 14 15  1  0
 15 16  1  0
 16 17  1  0
 17 18  2  0
 17 19  1  0
 19 20  1  0
 19 21  1  0
 21 22  1  0
 22 23  1  0
 11 24  1  0
 24 25  2  0
 25  2  1  0
 24  5  1  0
  1 26  1  0
  1 27  1  0
  1 28  1  0
  3 29  1  0
  4 30  1  0
  6 31  1  0
  9 32  1  0
  9 33  1  0
 15 34  1  0
 15 35  1  0
 20 36  1  0
 20 37  1  0
 20 38  1  0
 21 39  1  0
 21 40  1  0
 22 41  1  0
 22 42  1  0
 23 43  1  0
 25 44  1  0
M  END
>  <smiles>  (23) 
Cc1ccc2cc(C(N)=O)n(C(=O)OCOC(=O)N(C)CCO)c2c1

>  <score_type>  (23) 
oracle

>  <origin>  (23) 
adg

>  <m_score__min__energy>  (23) 
-8.4199999999999999

>  <m_primary>  (23) 
energy

$$$$
25:0
     RDKit          3D

 43 44  0  0  0  0  0  0  0  0999 V2000
   -6.9010   17.6980  -32.3610 C   0  0  0  0  0  0  0  0  0  0  0  0
   -7.7980   18.6520  -32.9730 N   0  0  0  0  0  0  0  0  0  0  0  0
   -7.8330   19.9830  -32.4730 C   0  0  0  0  0  0  0  0  0  0  0  0
   -9.0360   20.6450  -32.3410 C   0  0  0  0  0  0  0  0  0  0  0  0
   -9.0530   21.9350  -31.8550 C   0  0  0  0  0  0  0  0  0  0  0  0
   -7.8660   22.5430  -31.5070 C   0  0  0  0  0  0  0  0  0  0  0  0
   -7.5860   23.7910  -31.0060 C   0  0  0  0  0  0  0  0  0  0  0  0
   -6.2040   23.9300  -30.8170 C   0  0  0  0  0  0  0  0  0  0  0  0
   -5.6040   25.1430  -30.2990 C   0  0  0  0  0  0  0  0  0  0  0  0
   -6.2520   25.8190  -29.1990 N   0  0  0  0  0  0  0  0  0  0  0  0
   -4.5620   25.6820  -30.7060 O   0  0  0  0  0  0  0  0  0  0  0  0
   -5.6600   22.7700  -31.2020 N   0  0  0  0  0  0  0  0  0  0  0  0
   -4.2870   22.4380  -31.1920 C   0  0  0  0  0  0  0  0  0  0  0  0
   -3.3590   23.1780  -31.5950 O   0  0  0  0  0  0  0  0  0  0  0  0
   -3.8590   21.1880  -30.7010 O   0  0  0  0  0  0  0  0  0  0  0  0
   -3.1350   21.1330  -29.4600 C   0  0  0  0  0  0  0  0  0  0  0  0
   -2.6350   22.3810  -29.1140 O   0  0  0  0  0  0  0  0  0  0  0  0
   -2.9540   22.6010  -27.7960 C   0  0  0  0  0  0  0  0  0  0  0  0
   -3.1510   24.0520  -27.4460 C   0  0  2  0  0  0  0  0  0  0  0  0
   -4.3800   24.5270  -27.8970 O   0  0  0  0  0  0  0  0  0  0  0  0
   -2.0410   24.8300  -28.1640 C   0  0  0  0  0  0  0  0  0  0  0  0
   -2.3500   24.9780  -29.5320 O   0  0  0  0  0  0  0  0  0  0  0  0
   -6.6360   21.9180  -31.6210 C   0  0  0  0  0  0  0  0  0  0  0  0
   -6.6570   20.6280  -32.1120 C   0  0  0  0  0  0  0  0  0  0  0  0
   -6.9742   17.7759  -31.2662 H   0  0  0  0  0  0  0  0  0  0  0  0
   -7.1774   16.6808  -32.6755 H   0  0  0  0  0  0  0  0  0  0  0  0
   -5.8687   17.9113  -32.6755 H   0  0  0  0  0  0  0  0  0  0  0  0
   -8.4140   18.3860  -33.7700 H   0  0  0  0  0  0  0  0  0  0  0  0
   -9.9757   20.1468  -32.6217 H   0  0  0  0  0  0  0  0  0  0  0  0
  -10.0055   22.4743  -31.7459 H   0  0  0  0  0  0  0  0  0  0  0  0
   -8.3349   24.5660  -30.7859 H   0  0  0  0  0  0  0  0  0  0  0  0
   -6.6520   26.7820  -29.3670 H   0  0  0  0  0  0  0  0  0  0  0  0
   -6.3270   25.3720  -28.2610 H   0  0  0  0  0  0  0  0  0  0  0  0
   -3.8112   20.7846  -28.6654 H   0  0  0  0  0  0  0  0  0  0  0  0
   -2.2890   20.4405  -29.5811 H   0  0  0  0  0  0  0  0  0  0  0  0
   -3.8860   22.0617  -27.5713 H   0  0  0  0  0  0  0  0  0  0  0  0
   -2.1021   22.2432  -27.1991 H   0  0  0  0  0  0  0  0  0  0  0  0
   -3.1211   24.1752  -26.3533 H   0  0  0  0  0  0  0  0  0  0  0  0
   -4.2440   25.2650  -28.5590 H   0  0  0  0  0  0  0  0  0  0  0  0
   -1.9408   25.8248  -27.7054 H   0  0  0  0  0  0  0  0  0  0  0  0
   -1.0969   24.2734  -28.0697 H   0  0  0  0  0  0  0  0  0  0  0  0
   -3.0800   24.4070  -29.8260 H   0  0  0  0  0  0  0  0  0  0  0  0
   -5.7042   20.0893  -32.2218 H   0  0  0  0  0  0  0  0  0  0  0  0
  1  2  1  0
  2  3  1  0
  3  4  2  0
  4  5  1  0
  5  6  2  0
  6  7  1  0
  7  8  2  0
  8  9  1  0
  9 10  1  0
  9 11  2  0
  8 12  1  0
 12 13  1  0
 13 14  2  0
 13 15  1  0
 15 16  1  0
 16 17  1  0
 17 18  1  0
 18 19  1  0
 19 20  1  0
 19 21  1  0
 21 22  1  0
 12 23  1  0
 23 24  2  0
 24  3  1  0
 23  6  1  0
  1 25  1  0
  1 26  1  0
  1 27  1  0
  2 28  1  0
  4 29  1  0
  5 30  1  0
  7 31  1  0
 10 32  1  0
 10 33  1  0
 16 34  1  0
 16 35  1  0
 18 36  1  0
 18 37  1  0
 19 38  1  1
 20 39  1  0
 21 40  1  0
 21 41  1  0
 22 42  1  0
 24 43  1  0
M  END
>  <smiles>  (24) 
CNc1ccc2cc(C(N)=O)n(C(=O)OCOC[C@H](O)CO)c2c1

>  <score_type>  (24) 
oracle

>  <origin>  (24) 
adg

>  <m_score__min__energy>  (24) 
-7.8399999999999999

>  <m_primary>  (24) 
energy

$$$$
26:0
     RDKit          3D

 49 50  0  0  0  0  0  0  0  0999 V2000
   -6.8460   17.3130  -33.4910 C   0  0  0  0  0  0  0  0  0  0  0  0
   -6.9030   18.4330  -33.0450 C   0  0  0  0  0  0  0  0  0  0  0  0
   -6.9950   19.7720  -32.5100 C   0  0  0  0  0  0  0  0  0  0  0  0
   -8.2410   20.2830  -32.2510 C   0  0  0  0  0  0  0  0  0  0  0  0
   -8.3170   21.5560  -31.7440 C   0  0  0  0  0  0  0  0  0  0  0  0
   -7.1620   22.2780  -31.5090 C   0  0  0  0  0  0  0  0  0  0  0  0
   -7.0190   23.5370  -31.0180 C   0  0  0  0  0  0  0  0  0  0  0  0
   -5.6340   23.8030  -30.9760 C   0  0  0  0  0  0  0  0  0  0  0  0
   -5.1850   25.1150  -30.5430 C   0  0  0  0  0  0  0  0  0  0  0  0
   -3.7980   25.2920  -30.1540 N   0  0  0  0  0  0  0  0  0  0  0  0
   -5.8760   26.1510  -30.4610 O   0  0  0  0  0  0  0  0  0  0  0  0
   -4.9510   22.7410  -31.4210 N   0  0  0  0  0  0  0  0  0  0  0  0
   -3.5850   22.4200  -31.4230 C   0  0  0  0  0  0  0  0  0  0  0  0
   -3.1560   21.8340  -32.4960 O   0  0  0  0  0  0  0  0  0  0  0  0
   -2.5730   22.6220  -30.4250 C   0  0  0  0  0  0  0  0  0  0  0  0
   -2.0070   23.6810  -30.0940 O   0  0  0  0  0  0  0  0  0  0  0  0
   -2.1120   21.4260  -29.6630 C   0  0  0  0  0  0  0  0  0  0  0  0
   -2.8230   20.3930  -29.5840 O   0  0  0  0  0  0  0  0  0  0  0  0
   -0.8910   21.4050  -29.0160 O   0  0  0  0  0  0  0  0  0  0  0  0
   -0.7980   21.1710  -27.6410 C   0  0  0  0  0  0  0  0  0  0  0  0
   -0.6560   22.4580  -26.9110 C   0  0  0  0  0  0  0  0  0  0  0  0
   -0.1370   22.5490  -25.7670 O   0  0  0  0  0  0  0  0  0  0  0  0
   -1.1410   23.6250  -27.5660 N   0  0  0  0  0  0  0  0  0  0  0  0
   -1.0360   24.9350  -26.9070 C   0  0  0  0  0  0  0  0  0  0  0  0
   -2.1910   25.2100  -26.0260 C   0  0  0  0  0  0  0  0  0  0  0  0
   -3.4950   24.9400  -26.7000 C   0  0  0  0  0  0  0  0  0  0  0  0
   -3.5550   24.0610  -27.6870 O   0  0  0  0  0  0  0  0  0  0  0  0
   -4.2660   22.9400  -27.7520 C   0  0  0  0  0  0  0  0  0  0  0  0
   -5.9000   21.8030  -31.7550 C   0  0  0  0  0  0  0  0  0  0  0  0
   -5.8350   20.5140  -32.2680 C   0  0  0  0  0  0  0  0  0  0  0  0
   -6.7940   16.2922  -33.8975 H   0  0  0  0  0  0  0  0  0  0  0  0
   -9.1489   19.6924  -32.4432 H   0  0  0  0  0  0  0  0  0  0  0  0
   -9.2981   22.0023  -31.5244 H   0  0  0  0  0  0  0  0  0  0  0  0
   -7.8273   24.2176  -30.7122 H   0  0  0  0  0  0  0  0  0  0  0  0
   -3.1010   25.6780  -30.8220 H   0  0  0  0  0  0  0  0  0  0  0  0
   -3.5880   25.0040  -29.1770 H   0  0  0  0  0  0  0  0  0  0  0  0
   -1.7075   20.6565  -27.2974 H   0  0  0  0  0  0  0  0  0  0  0  0
    0.0846   20.5454  -27.4417 H   0  0  0  0  0  0  0  0  0  0  0  0
   -1.5780   23.5580  -28.5270 H   0  0  0  0  0  0  0  0  0  0  0  0
   -0.1168   24.9553  -26.3031 H   0  0  0  0  0  0  0  0  0  0  0  0
   -1.0169   25.7070  -27.6903 H   0  0  0  0  0  0  0  0  0  0  0  0
   -2.1152   24.5712  -25.1337 H   0  0  0  0  0  0  0  0  0  0  0  0
   -2.1645   26.2770  -25.7599 H   0  0  0  0  0  0  0  0  0  0  0  0
   -4.1902   24.5928  -25.9214 H   0  0  0  0  0  0  0  0  0  0  0  0
   -3.7296   25.8946  -27.1937 H   0  0  0  0  0  0  0  0  0  0  0  0
   -4.4893   22.5879  -26.7341 H   0  0  0  0  0  0  0  0  0  0  0  0
   -5.2070   23.1332  -28.2879 H   0  0  0  0  0  0  0  0  0  0  0  0
   -3.6901   22.1711  -28.2879 H   0  0  0  0  0  0  0  0  0  0  0  0
   -4.8534   20.0689  -32.4878 H   0  0  0  0  0  0  0  0  0  0  0  0
  1  2  3  0
  2  3  1  0
  3  4  2  0
  4  5  1  0
  5  6  2  0
  6  7  1  0
  7  8  2  0
  8  9  1  0
  9 10  1  0
  9 11  2  0
  8 12  1  0
 12 13  1  0
 13 14  2  0
 13 15  1  0
 15 16  2  0
 15 17  1  0
 17 18  2  0
 17 19  1  0
 19 20  1  0
 20 21  1  0
 21 22  2  0
 21 23  1  0
 23 24  1  0
 24 25  1  0
 25 26  1  0
 26 27  1  0
 27 28  1  0
 12 29  1  0
 29 30  2  0
 30  3  1  0
 29  6  1  0
  1 31  1  0
  4 32  1  0
  5 33  1  0
  7 34  1  0
 10 35  1  0
 10 36  1  0
 20 37  1  0
 20 38  1  0
 23 39  1  0
 24 40  1  0
 24 41  1  0
 25 42  1  0
 25 43  1  0
 26 44  1  0
 26 45  1  0
 28 46  1  0
 28 47  1  0
 28 48  1  0
 30 49  1  0
M  END
>  <smiles>  (25) 
C#Cc1ccc2cc(C(N)=O)n(C(=O)C(=O)C(=O)OCC(=O)NCCCOC)c2c1

>  <score_type>  (25) 
oracle

>  <origin>  (25) 
adg

>  <m_score__min__energy>  (25) 
-8.4800000000000004

>  <m_primary>  (25) 
energy

$$$$
27:0
     RDKit          3D

 58 59  0  0  0  0  0  0  0  0999 V2000
   -5.3930   18.1130  -35.2920 C   0  0  0  0  0  0  0  0  0  0  0  0
   -4.6940   17.6860  -34.0750 N   0  0  0  0  0  0  0  0  0  0  0  0
   -3.3520   18.1590  -33.8320 C   0  0  0  0  0  0  0  0  0  0  0  0
   -3.3580   19.6100  -33.3700 C   0  0  0  0  0  0  0  0  0  0  0  0
   -2.5030   20.3030  -34.2240 O   0  0  0  0  0  0  0  0  0  0  0  0
   -5.2970   16.8220  -33.1250 C   0  0  0  0  0  0  0  0  0  0  0  0
   -5.2890   15.5630  -33.2570 O   0  0  0  0  0  0  0  0  0  0  0  0
   -5.9600   17.3970  -31.9360 C   0  0  0  0  0  0  0  0  0  0  0  0
   -7.4670   17.5270  -32.1480 C   0  0  0  0  0  0  0  0  0  0  0  0
   -7.7240   18.6910  -33.0680 C   0  0  0  0  0  0  0  0  0  0  0  0
   -7.7450   20.0020  -32.3900 C   0  0  0  0  0  0  0  0  0  0  0  0
   -8.9100   20.4440  -31.8460 C   0  0  0  0  0  0  0  0  0  0  0  0
   -8.9180   21.6650  -31.2180 C   0  0  0  0  0  0  0  0  0  0  0  0
   -7.7810   22.4250  -31.1380 C   0  0  0  0  0  0  0  0  0  0  0  0
   -7.5240   23.6530  -30.5780 C   0  0  0  0  0  0  0  0  0  0  0  0
   -6.1750   23.9850  -30.7750 C   0  0  0  0  0  0  0  0  0  0  0  0
   -5.6250   25.2240  -30.2900 C   0  0  0  0  0  0  0  0  0  0  0  0
   -6.1160   26.0340  -29.2470 N   0  0  0  0  0  0  0  0  0  0  0  0
   -4.5740   25.6520  -30.8610 O   0  0  0  0  0  0  0  0  0  0  0  0
   -5.6280   22.9610  -31.4490 N   0  0  0  0  0  0  0  0  0  0  0  0
   -4.2900   22.8310  -31.8810 C   0  0  0  0  0  0  0  0  0  0  0  0
   -3.9190   22.3040  -32.9560 O   0  0  0  0  0  0  0  0  0  0  0  0
   -3.2480   23.3130  -31.0810 O   0  0  0  0  0  0  0  0  0  0  0  0
   -2.7940   22.5220  -29.9950 C   0  0  0  0  0  0  0  0  0  0  0  0
   -1.2900   22.5800  -29.8390 C   0  0  0  0  0  0  0  0  0  0  0  0
   -3.2850   21.0940  -30.0890 C   0  0  0  0  0  0  0  0  0  0  0  0
   -3.3820   23.1460  -28.7500 C   0  0  0  0  0  0  0  0  0  0  0  0
   -6.5830   22.0100  -31.6770 C   0  0  0  0  0  0  0  0  0  0  0  0
   -6.5920   20.7800  -32.3050 C   0  0  0  0  0  0  0  0  0  0  0  0
   -6.3019   18.6682  -35.0171 H   0  0  0  0  0  0  0  0  0  0  0  0
   -4.7324   18.7619  -35.8857 H   0  0  0  0  0  0  0  0  0  0  0  0
   -5.6688   17.2290  -35.8857 H   0  0  0  0  0  0  0  0  0  0  0  0
   -2.8868   17.5360  -33.0539 H   0  0  0  0  0  0  0  0  0  0  0  0
   -2.7828   18.0934  -34.7710 H   0  0  0  0  0  0  0  0  0  0  0  0
   -4.3751   20.0242  -33.4330 H   0  0  0  0  0  0  0  0  0  0  0  0
   -3.0283   19.6947  -32.3240 H   0  0  0  0  0  0  0  0  0  0  0  0
   -2.8730   21.1800  -34.5000 H   0  0  0  0  0  0  0  0  0  0  0  0
   -5.7751   16.7426  -31.0714 H   0  0  0  0  0  0  0  0  0  0  0  0
   -5.5467   18.4011  -31.7602 H   0  0  0  0  0  0  0  0  0  0  0  0
   -7.8586   16.6038  -32.6001 H   0  0  0  0  0  0  0  0  0  0  0  0
   -7.9693   17.6923  -31.1835 H   0  0  0  0  0  0  0  0  0  0  0  0
   -6.9321   18.7095  -33.8312 H   0  0  0  0  0  0  0  0  0  0  0  0
   -8.7252   18.5403  -33.4981 H   0  0  0  0  0  0  0  0  0  0  0  0
   -9.8254   19.8372  -31.9076 H   0  0  0  0  0  0  0  0  0  0  0  0
   -9.8517   22.0387  -30.7723 H   0  0  0  0  0  0  0  0  0  0  0  0
   -8.2621   24.2794  -30.0557 H   0  0  0  0  0  0  0  0  0  0  0  0
   -5.7900   25.8930  -28.2430 H   0  0  0  0  0  0  0  0  0  0  0  0
   -6.8170   26.7960  -29.4870 H   0  0  0  0  0  0  0  0  0  0  0  0
   -1.0324   22.5899  -28.7696 H   0  0  0  0  0  0  0  0  0  0  0  0
   -0.8375   21.6986  -30.3170 H   0  0  0  0  0  0  0  0  0  0  0  0
   -0.9067   23.4936  -30.3170 H   0  0  0  0  0  0  0  0  0  0  0  0
   -3.4249   20.6870  -29.0767 H   0  0  0  0  0  0  0  0  0  0  0  0
   -4.2429   21.0704  -30.6293 H   0  0  0  0  0  0  0  0  0  0  0  0
   -2.5442   20.4864  -30.6293 H   0  0  0  0  0  0  0  0  0  0  0  0
   -2.9389   22.6757  -27.8598 H   0  0  0  0  0  0  0  0  0  0  0  0
   -3.1638   24.2241  -28.7421 H   0  0  0  0  0  0  0  0  0  0  0  0
   -4.4712   22.9922  -28.7421 H   0  0  0  0  0  0  0  0  0  0  0  0
   -5.6603   20.4028  -32.7519 H   0  0  0  0  0  0  0  0  0  0  0  0
  1  2  1  0
  2  3  1  0
  3  4  1  0
  4  5  1  0
  2  6  1  0
  6  7  2  0
  6  8  1  0
  8  9  1  0
  9 10  1  0
 10 11  1  0
 11 12  2  0
 12 13  1  0
 13 14  2  0
 14 15  1  0
 15 16  2  0
 16 17  1  0
 17 18  1  0
 17 19  2  0
 16 20  1  0
 20 21  1  0
 21 22  2  0
 21 23  1  0
 23 24  1  0
 24 25  1  0
 24 26  1  0
 24 27  1  0
 20 28  1  0
 28 29  2  0
 29 11  1  0
 28 14  1  0
  1 30  1  0
  1 31  1  0
  1 32  1  0
  3 33  1  0
  3 34  1  0
  4 35  1  0
  4 36  1  0
  5 37  1  0
  8 38  1  0
  8 39  1  0
  9 40  1  0
  9 41  1  0
 10 42  1  0
 10 43  1  0
 12 44  1  0
 13 45  1  0
 15 46  1  0
 18 47  1  0
 18 48  1  0
 25 49  1  0
 25 50  1  0
 25 51  1  0
 26 52  1  0
 26 53  1  0
 26 54  1  0
 27 55  1  0
 27 56  1  0
 27 57  1  0
 29 58  1  0
M  END
>  <smiles>  (26) 
CN(CCO)C(=O)CCCc1ccc2cc(C(N)=O)n(C(=O)OC(C)(C)C)c2c1

>  <score_type>  (26) 
oracle

>  <origin>  (26) 
adg

>  <m_score__min__energy>  (26) 
-9.8800000000000008

>  <m_primary>  (26) 
energy

$$$$
29:0
     RDKit          3D

 45 46  0  0  0  0  0  0  0  0999 V2000
   -1.1540   26.3930  -27.7580 C   0  0  0  0  0  0  0  0  0  0  0  0
   -1.4780   25.7480  -28.9680 O   0  0  0  0  0  0  0  0  0  0  0  0
   -0.9750   24.4990  -29.2290 C   0  0  0  0  0  0  0  0  0  0  0  0
    0.1690   24.1270  -28.8380 O   0  0  0  0  0  0  0  0  0  0  0  0
   -1.6950   23.5310  -29.9520 O   0  0  0  0  0  0  0  0  0  0  0  0
   -2.0950   22.3230  -29.3980 C   0  0  0  0  0  0  0  0  0  0  0  0
   -3.4670   22.0290  -29.6570 O   0  0  0  0  0  0  0  0  0  0  0  0
   -4.0320   22.3880  -30.9010 C   0  0  0  0  0  0  0  0  0  0  0  0
   -3.2580   22.2360  -31.8740 O   0  0  0  0  0  0  0  0  0  0  0  0
   -5.3580   22.8700  -30.9680 N   0  0  0  0  0  0  0  0  0  0  0  0
   -5.7440   24.1400  -30.7820 C   0  0  0  0  0  0  0  0  0  0  0  0
   -4.9880   25.3350  -30.4730 C   0  0  0  0  0  0  0  0  0  0  0  0
   -3.5890   25.2040  -30.1250 N   0  0  0  0  0  0  0  0  0  0  0  0
   -5.4160   26.5030  -30.4720 O   0  0  0  0  0  0  0  0  0  0  0  0
   -7.1330   24.1430  -30.9460 C   0  0  0  0  0  0  0  0  0  0  0  0
   -7.5710   22.8740  -31.2310 C   0  0  0  0  0  0  0  0  0  0  0  0
   -8.8370   22.3960  -31.4690 C   0  0  0  0  0  0  0  0  0  0  0  0
   -8.9510   21.0390  -31.7320 C   0  0  0  0  0  0  0  0  0  0  0  0
   -7.8700   20.1860  -31.7610 C   0  0  0  0  0  0  0  0  0  0  0  0
   -7.9670   18.7960  -32.0310 N   0  0  0  0  0  0  0  0  0  0  0  0
   -9.2830   18.1510  -31.9940 C   0  0  0  0  0  0  0  0  0  0  0  0
   -6.8470   17.9450  -32.3450 C   0  0  0  0  0  0  0  0  0  0  0  0
   -6.4370   18.1440  -33.8020 C   0  0  0  0  0  0  0  0  0  0  0  0
   -6.7470   19.4830  -34.1390 O   0  0  0  0  0  0  0  0  0  0  0  0
   -6.6270   20.7460  -31.5100 C   0  0  0  0  0  0  0  0  0  0  0  0
   -6.4410   22.0850  -31.2410 C   0  0  0  0  0  0  0  0  0  0  0  0
   -1.4695   25.7650  -26.9118 H   0  0  0  0  0  0  0  0  0  0  0  0
   -0.0672   26.5556  -27.7088 H   0  0  0  0  0  0  0  0  0  0  0  0
   -1.6724   27.3620  -27.7088 H   0  0  0  0  0  0  0  0  0  0  0  0
   -1.4760   21.5186  -29.8221 H   0  0  0  0  0  0  0  0  0  0  0  0
   -1.9701   22.3985  -28.3077 H   0  0  0  0  0  0  0  0  0  0  0  0
   -2.8480   25.6750  -30.6880 H   0  0  0  0  0  0  0  0  0  0  0  0
   -3.4090   24.6130  -29.2850 H   0  0  0  0  0  0  0  0  0  0  0  0
   -7.7779   25.0299  -30.8595 H   0  0  0  0  0  0  0  0  0  0  0  0
   -9.7163   23.0567  -31.4518 H   0  0  0  0  0  0  0  0  0  0  0  0
   -9.9513   20.6247  -31.9265 H   0  0  0  0  0  0  0  0  0  0  0  0
   -9.5886   18.0012  -30.9480 H   0  0  0  0  0  0  0  0  0  0  0  0
  -10.0192   18.7904  -32.5031 H   0  0  0  0  0  0  0  0  0  0  0  0
   -9.2286   17.1774  -32.5031 H   0  0  0  0  0  0  0  0  0  0  0  0
   -6.0007   18.1990  -31.6898 H   0  0  0  0  0  0  0  0  0  0  0  0
   -7.1348   16.8948  -32.1895 H   0  0  0  0  0  0  0  0  0  0  0  0
   -5.3580   17.9650  -33.9188 H   0  0  0  0  0  0  0  0  0  0  0  0
   -6.9686   17.4402  -34.4594 H   0  0  0  0  0  0  0  0  0  0  0  0
   -7.7450   19.6120  -34.2070 H   0  0  0  0  0  0  0  0  0  0  0  0
   -5.7450   20.0889  -31.5263 H   0  0  0  0  0  0  0  0  0  0  0  0
  1  2  1  0
  2  3  1  0
  3  4  2  0
  3  5  1  0
  5  6  1  0
  6  7  1  0
  7  8  1  0
  8  9  2  0
  8 10  1  0
 10 11  1  0
 11 12  1  0
 12 13  1  0
 12 14  2  0
 11 15  2  0
 15 16  1  0
 16 17  2  0
 17 18  1  0
 18 19  2  0
 19 20  1  0
 20 21  1  0
 20 22  1  0
 22 23  1  0
 23 24  1  0
 19 25  1  0
 25 26  2  0
 26 10  1  0
 26 16  1  0
  1 27  1  0
  1 28  1  0
  1 29  1  0
  6 30  1  0
  6 31  1  0
 13 32  1  0
 13 33  1  0
 15 34  1  0
 17 35  1  0
 18 36  1  0
 21 37  1  0
 21 38  1  0
 21 39  1  0
 22 40  1  0
 22 41  1  0
 23 42  1  0
 23 43  1  0
 24 44  1  0
 25 45  1  0
M  END
>  <smiles>  (27) 
COC(=O)OCOC(=O)n1c(C(N)=O)cc2ccc(N(C)CCO)cc21

>  <score_type>  (27) 
oracle

>  <origin>  (27) 
adg

>  <m_score__min__energy>  (27) 
-7.7000000000000002

>  <m_primary>  (27) 
energy

$$$$
30:0
     RDKit          3D

 49 50  0  0  0  0  0  0  0  0999 V2000
   -2.0870   24.5810  -28.7070 C   0  0  0  0  0  0  0  0  0  0  0  0
   -2.5510   23.4480  -29.5860 C   0  0  0  0  0  0  0  0  0  0  0  0
   -1.3530   22.5260  -29.8000 C   0  0  0  0  0  0  0  0  0  0  0  0
   -3.5950   22.6960  -28.7940 C   0  0  0  0  0  0  0  0  0  0  0  0
   -3.1460   23.8430  -30.7920 O   0  0  0  0  0  0  0  0  0  0  0  0
   -4.0090   23.0360  -31.5240 C   0  0  0  0  0  0  0  0  0  0  0  0
   -3.4500   22.2640  -32.3360 O   0  0  0  0  0  0  0  0  0  0  0  0
   -5.4040   23.1350  -31.3120 N   0  0  0  0  0  0  0  0  0  0  0  0
   -6.0570   24.1470  -30.7230 C   0  0  0  0  0  0  0  0  0  0  0  0
   -5.6080   25.3800  -30.1350 C   0  0  0  0  0  0  0  0  0  0  0  0
   -6.1300   26.0390  -29.0020 N   0  0  0  0  0  0  0  0  0  0  0  0
   -4.6110   25.9910  -30.6760 O   0  0  0  0  0  0  0  0  0  0  0  0
   -7.4160   23.7900  -30.7540 C   0  0  0  0  0  0  0  0  0  0  0  0
   -7.5620   22.5760  -31.3570 C   0  0  0  0  0  0  0  0  0  0  0  0
   -8.6830   21.8150  -31.6200 C   0  0  0  0  0  0  0  0  0  0  0  0
   -8.5510   20.5960  -32.2540 C   0  0  0  0  0  0  0  0  0  0  0  0
   -7.2940   20.1650  -32.6130 C   0  0  0  0  0  0  0  0  0  0  0  0
   -7.1760   18.8450  -33.2950 C   0  0  1  0  0  0  0  0  0  0  0  0
   -5.8180   18.7840  -33.9930 C   0  0  0  0  0  0  0  0  0  0  0  0
   -6.1020   18.4680  -35.3430 O   0  0  0  0  0  0  0  0  0  0  0  0
   -7.2830   17.6990  -32.3540 C   0  0  0  0  0  0  0  0  0  0  0  0
   -6.3000   16.6570  -32.7250 C   0  0  0  0  0  0  0  0  0  0  0  0
   -6.5240   15.9560  -33.9430 N   0  0  0  0  0  0  0  0  0  0  0  0
   -5.2970   16.3480  -32.0560 O   0  0  0  0  0  0  0  0  0  0  0  0
   -6.1830   20.9530  -32.3350 C   0  0  0  0  0  0  0  0  0  0  0  0
   -6.2900   22.1720  -31.7040 C   0  0  0  0  0  0  0  0  0  0  0  0
   -2.2033   24.2969  -27.6507 H   0  0  0  0  0  0  0  0  0  0  0  0
   -1.0284   24.7961  -28.9144 H   0  0  0  0  0  0  0  0  0  0  0  0
   -2.6907   25.4769  -28.9144 H   0  0  0  0  0  0  0  0  0  0  0  0
   -0.9501   22.2159  -28.8245 H   0  0  0  0  0  0  0  0  0  0  0  0
   -1.6707   21.6371  -30.3648 H   0  0  0  0  0  0  0  0  0  0  0  0
   -0.5751   23.0607  -30.3648 H   0  0  0  0  0  0  0  0  0  0  0  0
   -3.4072   22.8312  -27.7186 H   0  0  0  0  0  0  0  0  0  0  0  0
   -4.5939   23.0834  -29.0434 H   0  0  0  0  0  0  0  0  0  0  0  0
   -3.5440   21.6259  -29.0434 H   0  0  0  0  0  0  0  0  0  0  0  0
   -5.7520   25.9020  -28.0200 H   0  0  0  0  0  0  0  0  0  0  0  0
   -6.9390   26.7050  -29.1880 H   0  0  0  0  0  0  0  0  0  0  0  0
   -8.2389   24.3991  -30.3518 H   0  0  0  0  0  0  0  0  0  0  0  0
   -9.6784   22.1787  -31.3253 H   0  0  0  0  0  0  0  0  0  0  0  0
   -9.4360   19.9790  -32.4689 H   0  0  0  0  0  0  0  0  0  0  0  0
   -8.0078   18.7605  -34.0098 H   0  0  0  0  0  0  0  0  0  0  0  0
   -5.3064   19.7554  -33.9247 H   0  0  0  0  0  0  0  0  0  0  0  0
   -5.1537   18.0394  -33.5301 H   0  0  0  0  0  0  0  0  0  0  0  0
   -6.8610   18.9990  -35.6870 H   0  0  0  0  0  0  0  0  0  0  0  0
   -7.0795   18.0460  -31.3302 H   0  0  0  0  0  0  0  0  0  0  0  0
   -8.2979   17.2780  -32.4058 H   0  0  0  0  0  0  0  0  0  0  0  0
   -6.6890   14.9230  -33.9330 H   0  0  0  0  0  0  0  0  0  0  0  0
   -6.5330   16.4150  -34.8770 H   0  0  0  0  0  0  0  0  0  0  0  0
   -5.1866   20.5910  -32.6285 H   0  0  0  0  0  0  0  0  0  0  0  0
  1  2  1  0
  2  3  1  0
  2  4  1  0
  2  5  1  0
  5  6  1  0
  6  7  2  0
  6  8  1  0
  8  9  1  0
  9 10  1  0
 10 11  1  0
 10 12  2  0
  9 13  2  0
 13 14  1  0
 14 15  2  0
 15 16  1  0
 16 17  2  0
 17 18  1  0
 18 19  1  0
 19 20  1  0
 18 21  1  0
 21 22  1  0
 22 23  1  0
 22 24  2  0
 17 25  1  0
 25 26  2  0
 26  8  1  0
 26 14  1  0
  1 27  1  0
  1 28  1  0
  1 29  1  0
  3 30  1  0
  3 31  1  0
  3 32  1  0
  4 33  1  0
  4 34  1  0
  4 35  1  0
 11 36  1  0
 11 37  1  0
 13 38  1  0
 15 39  1  0
 16 40  1  0
 18 41  1  6
 19 42  1  0
 19 43  1  0
 20 44  1  0
 21 45  1  0
 21 46  1  0
 23 47  1  0
 23 48  1  0
 25 49  1  0
M  END
>  <smiles>  (28) 
CC(C)(C)OC(=O)n1c(C(N)=O)cc2ccc([C@@H](CO)CC(N)=O)cc21

>  <score_type>  (28) 
oracle

>  <origin>  (28) 
adg

>  <m_score__min__energy>  (28) 
-9.5700000000000003

>  <m_primary>  (28) 
energy

$$$$
31:0
     RDKit          3D

 40 41  0  0  0  0  0  0  0  0999 V2000
   -7.3480   17.7100  -32.5210 C   0  0  0  0  0  0  0  0  0  0  0  0
   -8.2830   18.7450  -32.8610 N   0  0  0  0  0  0  0  0  0  0  0  0
   -8.1230   20.0550  -32.3320 C   0  0  0  0  0  0  0  0  0  0  0  0
   -9.2260   20.7350  -31.8640 C   0  0  0  0  0  0  0  0  0  0  0  0
   -9.0490   22.0030  -31.3550 C   0  0  0  0  0  0  0  0  0  0  0  0
   -7.7900   22.5670  -31.3200 C   0  0  0  0  0  0  0  0  0  0  0  0
   -7.3430   23.7910  -30.8730 C   0  0  0  0  0  0  0  0  0  0  0  0
   -5.9590   23.8800  -31.0590 C   0  0  0  0  0  0  0  0  0  0  0  0
   -5.2180   25.0530  -30.6820 C   0  0  0  0  0  0  0  0  0  0  0  0
   -3.8300   25.2630  -30.7280 N   0  0  0  0  0  0  0  0  0  0  0  0
   -5.9010   26.0480  -30.2430 O   0  0  0  0  0  0  0  0  0  0  0  0
   -5.5750   22.7180  -31.6150 N   0  0  0  0  0  0  0  0  0  0  0  0
   -4.2700   22.3260  -31.9920 C   0  0  0  0  0  0  0  0  0  0  0  0
   -3.8960   22.5130  -33.2040 O   0  0  0  0  0  0  0  0  0  0  0  0
   -3.3260   21.7510  -31.1850 O   0  0  0  0  0  0  0  0  0  0  0  0
   -3.4000   21.8010  -29.7770 C   0  0  0  0  0  0  0  0  0  0  0  0
   -2.5610   22.8900  -29.2060 C   0  0  0  0  0  0  0  0  0  0  0  0
   -1.3090   22.8840  -29.3250 O   0  0  0  0  0  0  0  0  0  0  0  0
   -3.2030   23.9080  -28.5430 O   0  0  0  0  0  0  0  0  0  0  0  0
   -2.5560   24.5580  -27.4460 C   0  0  0  0  0  0  0  0  0  0  0  0
   -1.5960   25.5600  -27.9770 C   0  0  0  0  0  0  0  0  0  0  0  0
   -1.0010   26.3520  -27.1710 O   0  0  0  0  0  0  0  0  0  0  0  0
   -1.3080   25.6810  -29.3370 O   0  0  0  0  0  0  0  0  0  0  0  0
   -6.6680   21.9150  -31.7780 C   0  0  0  0  0  0  0  0  0  0  0  0
   -6.8640   20.6440  -32.2850 C   0  0  0  0  0  0  0  0  0  0  0  0
   -7.2738   17.6279  -31.4266 H   0  0  0  0  0  0  0  0  0  0  0  0
   -7.6933   16.7525  -32.9380 H   0  0  0  0  0  0  0  0  0  0  0  0
   -6.3604   17.9566  -32.9380 H   0  0  0  0  0  0  0  0  0  0  0  0
   -9.0870   18.5470  -33.4960 H   0  0  0  0  0  0  0  0  0  0  0  0
  -10.2252   20.2761  -31.8960 H   0  0  0  0  0  0  0  0  0  0  0  0
   -9.9136   22.5673  -30.9755 H   0  0  0  0  0  0  0  0  0  0  0  0
   -7.9766   24.5774  -30.4369 H   0  0  0  0  0  0  0  0  0  0  0  0
   -3.2720   25.0150  -29.8820 H   0  0  0  0  0  0  0  0  0  0  0  0
   -3.3930   25.6710  -31.6060 H   0  0  0  0  0  0  0  0  0  0  0  0
   -4.4466   21.9697  -29.4835 H   0  0  0  0  0  0  0  0  0  0  0  0
   -3.0225   20.8447  -29.3858 H   0  0  0  0  0  0  0  0  0  0  0  0
   -3.3074   25.0622  -26.8206 H   0  0  0  0  0  0  0  0  0  0  0  0
   -2.0199   23.8152  -26.8370 H   0  0  0  0  0  0  0  0  0  0  0  0
   -1.2420   24.8070  -29.8690 H   0  0  0  0  0  0  0  0  0  0  0  0
   -5.9977   20.0812  -32.6628 H   0  0  0  0  0  0  0  0  0  0  0  0
  1  2  1  0
  2  3  1  0
  3  4  2  0
  4  5  1  0
  5  6  2  0
  6  7  1  0
  7  8  2  0
  8  9  1  0
  9 10  1  0
  9 11  2  0
  8 12  1  0
 12 13  1  0
 13 14  2  0
 13 15  1  0
 15 16  1  0
 16 17  1  0
 17 18  2  0
 17 19  1  0
 19 20  1  0
 20 21  1  0
 21 22  2  0
 21 23  1  0
 12 24  1  0
 24 25  2  0
 25  3  1  0
 24  6  1  0
  1 26  1  0
  1 27  1  0
  1 28  1  0
  2 29  1  0
  4 30  1  0
  5 31  1  0
  7 32  1  0
 10 33  1  0
 10 34  1  0
 16 35  1  0
 16 36  1  0
 20 37  1  0
 20 38  1  0
 23 39  1  0
 25 40  1  0
M  END
>  <smiles>  (29) 
CNc1ccc2cc(C(N)=O)n(C(=O)OCC(=O)OCC(=O)O)c2c1

>  <score_type>  (29) 
oracle

>  <origin>  (29) 
adg

>  <m_score__min__energy>  (29) 
-8.1099999999999994

>  <m_primary>  (29) 
energy

$$$$
32:0
     RDKit          3D

 44 45  0  0  0  0  0  0  0  0999 V2000
   -7.6270   18.5480  -32.7630 C   0  0  0  0  0  0  0  0  0  0  0  0
   -7.5620   19.9560  -32.2780 C   0  0  0  0  0  0  0  0  0  0  0  0
   -8.7530   20.5760  -31.9710 C   0  0  0  0  0  0  0  0  0  0  0  0
   -8.7170   21.8790  -31.5210 C   0  0  0  0  0  0  0  0  0  0  0  0
   -7.5120   22.5330  -31.3880 C   0  0  0  0  0  0  0  0  0  0  0  0
   -7.1930   23.8000  -30.9730 C   0  0  0  0  0  0  0  0  0  0  0  0
   -5.8080   23.9830  -31.0170 C   0  0  0  0  0  0  0  0  0  0  0  0
   -5.1660   25.2270  -30.6340 C   0  0  0  0  0  0  0  0  0  0  0  0
   -3.7840   25.1800  -30.1990 N   0  0  0  0  0  0  0  0  0  0  0  0
   -5.6760   26.3520  -30.6360 O   0  0  0  0  0  0  0  0  0  0  0  0
   -5.2980   22.8280  -31.4560 N   0  0  0  0  0  0  0  0  0  0  0  0
   -3.9400   22.5330  -31.6550 C   0  0  0  0  0  0  0  0  0  0  0  0
   -3.4600   21.9200  -32.6410 O   0  0  0  0  0  0  0  0  0  0  0  0
   -2.9620   22.9290  -30.7090 O   0  0  0  0  0  0  0  0  0  0  0  0
   -1.8510   22.0400  -30.4640 C   0  0  0  0  0  0  0  0  0  0  0  0
   -0.8950   22.7730  -29.7060 O   0  0  0  0  0  0  0  0  0  0  0  0
   -0.6670   22.4500  -28.3740 C   0  0  0  0  0  0  0  0  0  0  0  0
    0.5060   22.1220  -28.0700 O   0  0  0  0  0  0  0  0  0  0  0  0
   -1.8010   22.5220  -27.4500 C   0  0  0  0  0  0  0  0  0  0  0  0
   -2.7390   23.5570  -27.8080 N   0  0  0  0  0  0  0  0  0  0  0  0
   -2.3770   24.8070  -27.1910 C   0  0  0  0  0  0  0  0  0  0  0  0
   -1.2610   25.4840  -27.9620 C   0  0  0  0  0  0  0  0  0  0  0  0
   -1.5490   25.3950  -29.3260 O   0  0  0  0  0  0  0  0  0  0  0  0
   -6.2960   21.9360  -31.6890 C   0  0  0  0  0  0  0  0  0  0  0  0
   -6.3600   20.6330  -32.1360 C   0  0  0  0  0  0  0  0  0  0  0  0
   -7.6585   17.8646  -31.9016 H   0  0  0  0  0  0  0  0  0  0  0  0
   -8.5324   18.4116  -33.3726 H   0  0  0  0  0  0  0  0  0  0  0  0
   -6.7380   18.3288  -33.3726 H   0  0  0  0  0  0  0  0  0  0  0  0
   -9.7097   20.0446  -32.0821 H   0  0  0  0  0  0  0  0  0  0  0  0
   -9.6533   22.3977  -31.2675 H   0  0  0  0  0  0  0  0  0  0  0  0
   -7.9200   24.5607  -30.6525 H   0  0  0  0  0  0  0  0  0  0  0  0
   -3.5090   24.6950  -29.3180 H   0  0  0  0  0  0  0  0  0  0  0  0
   -3.1160   25.6660  -30.8410 H   0  0  0  0  0  0  0  0  0  0  0  0
   -2.1886   21.1597  -29.8974 H   0  0  0  0  0  0  0  0  0  0  0  0
   -1.4152   21.6842  -31.4093 H   0  0  0  0  0  0  0  0  0  0  0  0
   -2.3238   21.5542  -27.4568 H   0  0  0  0  0  0  0  0  0  0  0  0
   -1.4048   22.7601  -26.4519 H   0  0  0  0  0  0  0  0  0  0  0  0
   -2.7420   23.6980  -28.8340 H   0  0  0  0  0  0  0  0  0  0  0  0
   -3.2558   25.4683  -27.1731 H   0  0  0  0  0  0  0  0  0  0  0  0
   -2.0277   24.6070  -26.1673 H   0  0  0  0  0  0  0  0  0  0  0  0
   -1.1927   26.5410  -27.6651 H   0  0  0  0  0  0  0  0  0  0  0  0
   -0.3009   24.9925  -27.7461 H   0  0  0  0  0  0  0  0  0  0  0  0
   -1.7240   24.4360  -29.5180 H   0  0  0  0  0  0  0  0  0  0  0  0
   -5.4246   20.1122  -32.3889 H   0  0  0  0  0  0  0  0  0  0  0  0
  1  2  1  0
  2  3  2  0
  3  4  1  0
  4  5  2  0
  5  6  1  0
  6  7  2  0
  7  8  1  0
  8  9  1  0
  8 10  2  0
  7 11  1  0
 11 12  1  0
 12 13  2  0
 12 14  1  0
 14 15  1  0
 15 16  1  0
 16 17  1  0
 17 18  2  0
 17 19  1  0
 19 20  1  0
 20 21  1  0
 21 22  1  0
 22 23  1  0
 11 24  1  0
 24 25  2  0
 25  2  1  0
 24  5  1  0
  1 26  1  0
  1 27  1  0
  1 28  1  0
  3 29  1  0
  4 30  1  0
  6 31  1  0
  9 32  1  0
  9 33  1  0
 15 34  1  0
 15 35  1  0
 19 36  1  0
 19 37  1  0
 20 38  1  0
 21 39  1  0
 21 40  1  0
 22 41  1  0
 22 42  1  0
 23 43  1  0
 25 44  1  0
M  END
>  <smiles>  (30) 
Cc1ccc2cc(C(N)=O)n(C(=O)OCOC(=O)CNCCO)c2c1

>  <score_type>  (30) 
oracle

>  <origin>  (30) 
adg

>  <m_score__min__energy>  (30) 
-7.54

>  <m_primary>  (30) 
energy

$$$$
33:0
     RDKit          3D

 62 65  0  0  0  0  0  0  0  0999 V2000
   -0.2920   29.9790  -25.7500 C   0  0  0  0  0  0  0  0  0  0  0  0
    0.3950   29.6030  -24.4730 C   0  0  0  0  0  0  0  0  0  0  0  0
    1.1720   28.0060  -24.6800 S   0  0  0  0  0  0  0  0  0  0  0  0
    2.5180   28.1590  -25.3150 O   0  0  0  0  0  0  0  0  0  0  0  0
    1.3800   27.3470  -23.3450 O   0  0  0  0  0  0  0  0  0  0  0  0
    0.1360   26.9920  -25.6490 C   0  0  0  0  0  0  0  0  0  0  0  0
   -1.1610   26.8040  -25.2140 C   0  0  0  0  0  0  0  0  0  0  0  0
   -1.9850   26.0020  -25.9760 C   0  0  0  0  0  0  0  0  0  0  0  0
   -1.5890   25.3860  -27.1350 C   0  0  0  0  0  0  0  0  0  0  0  0
   -2.4600   24.5380  -27.9420 C   0  0  0  0  0  0  0  0  0  0  0  0
   -2.6220   23.2990  -27.6880 O   0  0  0  0  0  0  0  0  0  0  0  0
   -3.1810   25.0360  -29.0610 N   0  0  0  0  0  0  0  0  0  0  0  0
   -4.0230   24.1830  -29.8280 C   0  0  0  0  0  0  0  0  0  0  0  0
   -4.8050   23.2640  -29.1650 C   0  0  0  0  0  0  0  0  0  0  0  0
   -5.6470   22.4070  -29.8840 C   0  0  0  0  0  0  0  0  0  0  0  0
   -5.6990   22.4810  -31.2850 C   0  0  0  0  0  0  0  0  0  0  0  0
   -6.5100   21.5190  -31.9590 C   0  0  0  0  0  0  0  0  0  0  0  0
   -7.7600   21.8680  -32.0440 O   0  0  0  0  0  0  0  0  0  0  0  0
   -6.1910   20.2840  -32.5260 N   0  0  0  0  0  0  0  0  0  0  0  0
   -6.9620   19.2560  -32.8980 C   0  0  0  0  0  0  0  0  0  0  0  0
   -8.3510   18.9540  -32.5730 C   0  0  0  0  0  0  0  0  0  0  0  0
   -9.3950   19.8620  -32.9970 N   0  0  0  0  0  0  0  0  0  0  0  0
   -8.7480   17.9560  -31.9390 O   0  0  0  0  0  0  0  0  0  0  0  0
   -6.1960   18.2990  -33.5870 C   0  0  0  0  0  0  0  0  0  0  0  0
   -4.9210   18.7760  -33.6200 C   0  0  0  0  0  0  0  0  0  0  0  0
   -3.7930   18.2090  -34.1810 C   0  0  0  0  0  0  0  0  0  0  0  0
   -2.5830   18.8620  -34.1050 C   0  0  0  0  0  0  0  0  0  0  0  0
   -2.5560   20.0770  -33.4600 C   0  0  0  0  0  0  0  0  0  0  0  0
   -1.3160   20.7590  -33.3760 N   0  0  0  0  0  0  0  0  0  0  0  0
   -0.4810   20.8280  -34.5590 C   0  0  0  0  0  0  0  0  0  0  0  0
   -0.9180   21.3680  -32.1040 C   0  0  0  0  0  0  0  0  0  0  0  0
   -3.7050   20.6400  -32.8970 C   0  0  0  0  0  0  0  0  0  0  0  0
   -4.9310   19.9830  -32.9700 C   0  0  0  0  0  0  0  0  0  0  0  0
   -4.8800   23.4290  -31.8480 C   0  0  0  0  0  0  0  0  0  0  0  0
   -4.0750   24.2500  -31.1590 N   0  0  0  0  0  0  0  0  0  0  0  0
   -0.2930   25.5770  -27.5670 C   0  0  0  0  0  0  0  0  0  0  0  0
    0.5570   26.3790  -26.8170 C   0  0  0  0  0  0  0  0  0  0  0  0
   -1.2357   30.4955  -25.5204 H   0  0  0  0  0  0  0  0  0  0  0  0
    0.3588   30.6467  -26.3337 H   0  0  0  0  0  0  0  0  0  0  0  0
   -0.5036   29.0709  -26.3337 H   0  0  0  0  0  0  0  0  0  0  0  0
    1.1588   30.3562  -24.2293 H   0  0  0  0  0  0  0  0  0  0  0  0
   -0.3392   29.5564  -23.6552 H   0  0  0  0  0  0  0  0  0  0  0  0
   -1.5250   27.2780  -24.2905 H   0  0  0  0  0  0  0  0  0  0  0  0
   -3.0191   25.8479  -25.6341 H   0  0  0  0  0  0  0  0  0  0  0  0
   -3.1140   26.0240  -29.3420 H   0  0  0  0  0  0  0  0  0  0  0  0
   -4.7682   23.2029  -28.0673 H   0  0  0  0  0  0  0  0  0  0  0  0
   -6.2693   21.6739  -29.3498 H   0  0  0  0  0  0  0  0  0  0  0  0
   -9.6340   20.7170  -32.4440 H   0  0  0  0  0  0  0  0  0  0  0  0
   -9.8710   19.5840  -33.8830 H   0  0  0  0  0  0  0  0  0  0  0  0
   -6.5558   17.3517  -34.0150 H   0  0  0  0  0  0  0  0  0  0  0  0
   -3.8614   17.2355  -34.6886 H   0  0  0  0  0  0  0  0  0  0  0  0
   -1.6721   18.4284  -34.5436 H   0  0  0  0  0  0  0  0  0  0  0  0
    0.5737   20.9151  -34.2588 H   0  0  0  0  0  0  0  0  0  0  0  0
   -0.6176   19.9155  -35.1579 H   0  0  0  0  0  0  0  0  0  0  0  0
   -0.7655   21.7057  -35.1579 H   0  0  0  0  0  0  0  0  0  0  0  0
   -1.3109   20.7668  -31.2708 H   0  0  0  0  0  0  0  0  0  0  0  0
    0.1797   21.4058  -32.0432 H   0  0  0  0  0  0  0  0  0  0  0  0
   -1.3240   22.3885  -32.0432 H   0  0  0  0  0  0  0  0  0  0  0  0
   -3.6401   21.6140  -32.3900 H   0  0  0  0  0  0  0  0  0  0  0  0
   -4.8850   23.5212  -32.9441 H   0  0  0  0  0  0  0  0  0  0  0  0
    0.0622   25.1006  -28.4927 H   0  0  0  0  0  0  0  0  0  0  0  0
    1.5912   26.5312  -27.1595 H   0  0  0  0  0  0  0  0  0  0  0  0
  1  2  1  0
  2  3  1  0
  3  4  2  0
  3  5  2  0
  3  6  1  0
  6  7  2  0
  7  8  1  0
  8  9  2  0
  9 10  1  0
 10 11  2  0
 10 12  1  0
 12 13  1  0
 13 14  2  0
 14 15  1  0
 15 16  2  0
 16 17  1  0
 17 18  2  0
 17 19  1  0
 19 20  1  0
 20 21  1  0
 21 22  1  0
 21 23  2  0
 20 24  2  0
 24 25  1  0
 25 26  2  0
 26 27  1  0
 27 28  2  0
 28 29  1  0
 29 30  1  0
 29 31  1  0
 28 32  1  0
 32 33  2  0
 16 34  1  0
 34 35  2  0
  9 36  1  0
 36 37  2  0
 37  6  1  0
 35 13  1  0
 33 19  1  0
 33 25  1  0
  1 38  1  0
  1 39  1  0
  1 40  1  0
  2 41  1  0
  2 42  1  0
  7 43  1  0
  8 44  1  0
 12 45  1  0
 14 46  1  0
 15 47  1  0
 22 48  1  0
 22 49  1  0
 24 50  1  0
 26 51  1  0
 27 52  1  0
 30 53  1  0
 30 54  1  0
 30 55  1  0
 31 56  1  0
 31 57  1  0
 31 58  1  0
 32 59  1  0
 34 60  1  0
 36 61  1  0
 37 62  1  0
M  END
>  <smiles>  (31) 
CCS(=O)(=O)c1ccc(C(=O)Nc2ccc(C(=O)n3c(C(N)=O)cc4ccc(N(C)C)cc43)cn2)cc1

>  <score_type>  (31) 
oracle

>  <origin>  (31) 
adg

>  <m_score__min__energy>  (31) 
-10.029999999999999

>  <m_primary>  (31) 
energy

$$$$
34:0
     RDKit          3D

 43 44  0  0  0  0  0  0  0  0999 V2000
   -1.7950   19.5210  -32.7180 C   0  0  0  0  0  0  0  0  0  0  0  0
   -2.8810   18.6070  -32.8160 O   0  0  0  0  0  0  0  0  0  0  0  0
   -4.0990   18.9840  -33.3300 C   0  0  0  0  0  0  0  0  0  0  0  0
   -4.1870   20.1280  -33.8420 O   0  0  0  0  0  0  0  0  0  0  0  0
   -5.1830   18.0670  -33.2550 N   0  0  0  0  0  0  0  0  0  0  0  0
   -6.4820   18.4260  -33.7860 C   0  0  0  0  0  0  0  0  0  0  0  0
   -7.5700   18.4180  -32.7210 C   0  0  0  0  0  0  0  0  0  0  0  0
   -7.6590   19.8500  -32.2590 C   0  0  0  0  0  0  0  0  0  0  0  0
   -8.8950   20.4540  -32.1800 C   0  0  0  0  0  0  0  0  0  0  0  0
   -8.9480   21.7630  -31.7540 C   0  0  0  0  0  0  0  0  0  0  0  0
   -7.7910   22.4350  -31.4220 C   0  0  0  0  0  0  0  0  0  0  0  0
   -7.5770   23.7200  -30.9790 C   0  0  0  0  0  0  0  0  0  0  0  0
   -6.2090   23.9290  -30.7780 C   0  0  0  0  0  0  0  0  0  0  0  0
   -5.6930   25.1880  -30.3140 C   0  0  0  0  0  0  0  0  0  0  0  0
   -6.1360   25.9620  -29.2260 N   0  0  0  0  0  0  0  0  0  0  0  0
   -4.7080   25.6790  -30.9600 O   0  0  0  0  0  0  0  0  0  0  0  0
   -5.6060   22.7740  -31.1000 N   0  0  0  0  0  0  0  0  0  0  0  0
   -4.2250   22.4780  -31.0650 C   0  0  0  0  0  0  0  0  0  0  0  0
   -3.5120   22.7040  -32.1100 O   0  0  0  0  0  0  0  0  0  0  0  0
   -3.5290   21.9570  -30.0070 O   0  0  0  0  0  0  0  0  0  0  0  0
   -3.4890   22.4520  -28.7030 C   0  0  0  0  0  0  0  0  0  0  0  0
   -3.4750   23.9300  -28.6360 C   0  0  0  0  0  0  0  0  0  0  0  0
   -3.9710   24.5670  -27.6700 O   0  0  0  0  0  0  0  0  0  0  0  0
   -2.8950   24.6320  -29.6740 O   0  0  0  0  0  0  0  0  0  0  0  0
   -6.5430   21.8580  -31.4910 C   0  0  0  0  0  0  0  0  0  0  0  0
   -6.4930   20.5470  -31.9170 C   0  0  0  0  0  0  0  0  0  0  0  0
   -1.5698   19.7105  -31.6581 H   0  0  0  0  0  0  0  0  0  0  0  0
   -0.9095   19.0924  -33.2101 H   0  0  0  0  0  0  0  0  0  0  0  0
   -2.0661   20.4667  -33.2101 H   0  0  0  0  0  0  0  0  0  0  0  0
   -5.0640   17.1180  -32.8180 H   0  0  0  0  0  0  0  0  0  0  0  0
   -6.4195   19.4354  -34.2188 H   0  0  0  0  0  0  0  0  0  0  0  0
   -6.7516   17.6765  -34.5447 H   0  0  0  0  0  0  0  0  0  0  0  0
   -8.5285   18.0870  -33.1473 H   0  0  0  0  0  0  0  0  0  0  0  0
   -7.3420   17.7266  -31.8964 H   0  0  0  0  0  0  0  0  0  0  0  0
   -9.8112   19.9078  -32.4488 H   0  0  0  0  0  0  0  0  0  0  0  0
   -9.9188   22.2748  -31.6783 H   0  0  0  0  0  0  0  0  0  0  0  0
   -8.3635   24.4699  -30.8086 H   0  0  0  0  0  0  0  0  0  0  0  0
   -6.8810   26.7080  -29.3560 H   0  0  0  0  0  0  0  0  0  0  0  0
   -5.6990   25.7860  -28.2740 H   0  0  0  0  0  0  0  0  0  0  0  0
   -4.3757   22.0869  -28.1640 H   0  0  0  0  0  0  0  0  0  0  0  0
   -2.5517   22.0974  -28.2495 H   0  0  0  0  0  0  0  0  0  0  0  0
   -3.0340   24.2660  -30.6260 H   0  0  0  0  0  0  0  0  0  0  0  0
   -5.5197   20.0396  -31.9895 H   0  0  0  0  0  0  0  0  0  0  0  0
  1  2  1  0
  2  3  1  0
  3  4  2  0
  3  5  1  0
  5  6  1  0
  6  7  1  0
  7  8  1  0
  8  9  2  0
  9 10  1  0
 10 11  2  0
 11 12  1  0
 12 13  2  0
 13 14  1  0
 14 15  1  0
 14 16  2  0
 13 17  1  0
 17 18  1  0
 18 19  2  0
 18 20  1  0
 20 21  1  0
 21 22  1  0
 22 23  2  0
 22 24  1  0
 17 25  1  0
 25 26  2  0
 26  8  1  0
 25 11  1  0
  1 27  1  0
  1 28  1  0
  1 29  1  0
  5 30  1  0
  6 31  1  0
  6 32  1  0
  7 33  1  0
  7 34  1  0
  9 35  1  0
 10 36  1  0
 12 37  1  0
 15 38  1  0
 15 39  1  0
 21 40  1  0
 21 41  1  0
 24 42  1  0
 26 43  1  0
M  END
>  <smiles>  (32) 
COC(=O)NCCc1ccc2cc(C(N)=O)n(C(=O)OCC(=O)O)c2c1

>  <score_type>  (32) 
oracle

>  <origin>  (32) 
adg

>  <m_score__min__energy>  (32) 
-8.5800000000000001

>  <m_primary>  (32) 
energy

$$$$
35:0
     RDKit          3D

 41 42  0  0  0  0  0  0  0  0999 V2000
   -7.6070   17.5870  -32.2840 C   0  0  0  0  0  0  0  0  0  0  0  0
   -6.9210   18.6630  -32.9500 N   0  0  0  0  0  0  0  0  0  0  0  0
   -6.0800   18.3970  -34.1050 C   0  0  0  0  0  0  0  0  0  0  0  0
   -7.0900   19.9830  -32.4480 C   0  0  0  0  0  0  0  0  0  0  0  0
   -8.3570   20.5240  -32.4430 C   0  0  0  0  0  0  0  0  0  0  0  0
   -8.5250   21.8020  -31.9580 C   0  0  0  0  0  0  0  0  0  0  0  0
   -7.4410   22.5140  -31.4900 C   0  0  0  0  0  0  0  0  0  0  0  0
   -7.3370   23.7830  -30.9640 C   0  0  0  0  0  0  0  0  0  0  0  0
   -6.0010   24.0450  -30.6360 C   0  0  0  0  0  0  0  0  0  0  0  0
   -5.5880   25.2940  -30.0650 C   0  0  0  0  0  0  0  0  0  0  0  0
   -6.1850   26.0300  -29.0330 N   0  0  0  0  0  0  0  0  0  0  0  0
   -4.5230   25.8220  -30.5570 O   0  0  0  0  0  0  0  0  0  0  0  0
   -5.2990   22.9340  -30.9640 N   0  0  0  0  0  0  0  0  0  0  0  0
   -3.9170   22.7130  -30.8230 C   0  0  0  0  0  0  0  0  0  0  0  0
   -3.1190   23.3920  -31.5530 O   0  0  0  0  0  0  0  0  0  0  0  0
   -3.3100   21.8310  -29.9720 O   0  0  0  0  0  0  0  0  0  0  0  0
   -2.4520   22.1180  -28.9130 C   0  0  0  0  0  0  0  0  0  0  0  0
   -2.9320   23.3020  -28.0720 C   0  0  0  0  0  0  0  0  0  0  0  0
   -1.9470   24.4470  -28.2120 C   0  0  0  0  0  0  0  0  0  0  0  0
   -2.3370   25.1800  -29.3290 O   0  0  0  0  0  0  0  0  0  0  0  0
   -6.1610   22.0090  -31.4800 C   0  0  0  0  0  0  0  0  0  0  0  0
   -6.0090   20.7220  -31.9710 C   0  0  0  0  0  0  0  0  0  0  0  0
   -7.5238   17.7175  -31.1949 H   0  0  0  0  0  0  0  0  0  0  0  0
   -8.6681   17.5934  -32.5740 H   0  0  0  0  0  0  0  0  0  0  0  0
   -7.1534   16.6278  -32.5740 H   0  0  0  0  0  0  0  0  0  0  0  0
   -5.0820   18.0813  -33.7669 H   0  0  0  0  0  0  0  0  0  0  0  0
   -6.5316   17.5978  -34.7111 H   0  0  0  0  0  0  0  0  0  0  0  0
   -5.9899   19.3105  -34.7111 H   0  0  0  0  0  0  0  0  0  0  0  0
   -9.2156   19.9478  -32.8182 H   0  0  0  0  0  0  0  0  0  0  0  0
   -9.5268   22.2560  -31.9440 H   0  0  0  0  0  0  0  0  0  0  0  0
   -8.1742   24.4825  -30.8233 H   0  0  0  0  0  0  0  0  0  0  0  0
   -6.9200   26.7580  -29.2840 H   0  0  0  0  0  0  0  0  0  0  0  0
   -5.9060   25.8700  -28.0190 H   0  0  0  0  0  0  0  0  0  0  0  0
   -2.3822   21.2313  -28.2658 H   0  0  0  0  0  0  0  0  0  0  0  0
   -1.4743   22.3866  -29.3395 H   0  0  0  0  0  0  0  0  0  0  0  0
   -3.9232   23.6247  -28.4233 H   0  0  0  0  0  0  0  0  0  0  0  0
   -3.0002   23.0010  -27.0162 H   0  0  0  0  0  0  0  0  0  0  0  0
   -1.9746   25.0819  -27.3141 H   0  0  0  0  0  0  0  0  0  0  0  0
   -0.9194   24.0714  -28.3261 H   0  0  0  0  0  0  0  0  0  0  0  0
   -2.8490   24.5690  -29.9170 H   0  0  0  0  0  0  0  0  0  0  0  0
   -5.0060   20.2706  -31.9846 H   0  0  0  0  0  0  0  0  0  0  0  0
  1  2  1  0
  2  3  1  0
  2  4  1  0
  4  5  2  0
  5  6  1  0
  6  7  2  0
  7  8  1  0
  8  9  2  0
  9 10  1  0
 10 11  1  0
 10 12  2  0
  9 13  1  0
 13 14  1  0
 14 15  2  0
 14 16  1  0
 16 17  1  0
 17 18  1  0
 18 19  1  0
 19 20  1  0
 13 21  1  0
 21 22  2  0
 22  4  1  0
 21  7  1  0
  1 23  1  0
  1 24  1  0
  1 25  1  0
  3 26  1  0
  3 27  1  0
  3 28  1  0
  5 29  1  0
  6 30  1  0
  8 31  1  0
 11 32  1  0
 11 33  1  0
 17 34  1  0
 17 35  1  0
 18 36  1  0
 18 37  1  0
 19 38  1  0
 19 39  1  0
 20 40  1  0
 22 41  1  0
M  END
>  <smiles>  (33) 
CN(C)c1ccc2cc(C(N)=O)n(C(=O)OCCCO)c2c1

>  <score_type>  (33) 
oracle

>  <origin>  (33) 
adg

>  <m_score__min__energy>  (33) 
-8.0299999999999994

>  <m_primary>  (33) 
energy

$$$$
36:0
     RDKit          3D

 38 39  0  0  0  0  0  0  0  0999 V2000
   -5.5400   18.2910  -34.6170 C   0  0  0  0  0  0  0  0  0  0  0  0
   -6.4170   18.1270  -33.4720 N   0  0  0  0  0  0  0  0  0  0  0  0
   -6.8120   16.8120  -32.9780 C   0  0  0  0  0  0  0  0  0  0  0  0
   -6.9070   19.2900  -32.8130 C   0  0  0  0  0  0  0  0  0  0  0  0
   -8.2590   19.4840  -32.6630 C   0  0  0  0  0  0  0  0  0  0  0  0
   -8.7180   20.6110  -32.0270 C   0  0  0  0  0  0  0  0  0  0  0  0
   -7.8170   21.5320  -31.5470 C   0  0  0  0  0  0  0  0  0  0  0  0
   -8.0020   22.7070  -30.8930 C   0  0  0  0  0  0  0  0  0  0  0  0
   -6.7600   23.2850  -30.6140 C   0  0  0  0  0  0  0  0  0  0  0  0
   -6.6580   24.5510  -29.9190 C   0  0  0  0  0  0  0  0  0  0  0  0
   -5.6470   24.7300  -28.9030 N   0  0  0  0  0  0  0  0  0  0  0  0
   -7.3750   25.5610  -30.1010 O   0  0  0  0  0  0  0  0  0  0  0  0
   -5.8190   22.4520  -31.1040 N   0  0  0  0  0  0  0  0  0  0  0  0
   -4.4240   22.6560  -31.0370 C   0  0  0  0  0  0  0  0  0  0  0  0
   -3.7370   23.0760  -32.0320 O   0  0  0  0  0  0  0  0  0  0  0  0
   -3.5810   22.4150  -29.8260 C   0  0  0  0  0  0  0  0  0  0  0  0
   -2.9210   24.0940  -29.3870 P   0  0  0  0  0  0  0  0  0  0  0  0
   -1.4300   24.0220  -29.3800 O   0  0  0  0  0  0  0  0  0  0  0  0
   -3.5380   25.2390  -30.4620 O   0  0  0  0  0  0  0  0  0  0  0  0
   -3.4500   24.5090  -27.8450 O   0  0  0  0  0  0  0  0  0  0  0  0
   -6.4390   21.3850  -31.6720 C   0  0  0  0  0  0  0  0  0  0  0  0
   -6.0260   20.2390  -32.3180 C   0  0  0  0  0  0  0  0  0  0  0  0
   -4.5144   18.4828  -34.2688 H   0  0  0  0  0  0  0  0  0  0  0  0
   -5.5554   17.3744  -35.2250 H   0  0  0  0  0  0  0  0  0  0  0  0
   -5.8856   19.1401  -35.2250 H   0  0  0  0  0  0  0  0  0  0  0  0
   -6.8102   16.8178  -31.8780 H   0  0  0  0  0  0  0  0  0  0  0  0
   -7.8219   16.5718  -33.3418 H   0  0  0  0  0  0  0  0  0  0  0  0
   -6.1016   16.0551  -33.3418 H   0  0  0  0  0  0  0  0  0  0  0  0
   -8.9703   18.7399  -33.0506 H   0  0  0  0  0  0  0  0  0  0  0  0
   -9.7984   20.7758  -31.9024 H   0  0  0  0  0  0  0  0  0  0  0  0
   -8.9779   23.1376  -30.6242 H   0  0  0  0  0  0  0  0  0  0  0  0
   -5.0330   25.5840  -28.9680 H   0  0  0  0  0  0  0  0  0  0  0  0
   -5.5540   24.0180  -28.1420 H   0  0  0  0  0  0  0  0  0  0  0  0
   -4.1873   22.0072  -29.0038 H   0  0  0  0  0  0  0  0  0  0  0  0
   -2.7807   21.6830  -30.0093 H   0  0  0  0  0  0  0  0  0  0  0  0
   -3.5120   24.9280  -31.4140 H   0  0  0  0  0  0  0  0  0  0  0  0
   -3.8670   25.3920  -27.8440 H   0  0  0  0  0  0  0  0  0  0  0  0
   -4.9467   20.0698  -32.4466 H   0  0  0  0  0  0  0  0  0  0  0  0
  1  2  1  0
  2  3  1  0
  2  4  1  0
  4  5  2  0
  5  6  1  0
  6  7  2  0
  7  8  1  0
  8  9  2  0
  9 10  1  0
 10 11  1  0
 10 12  2  0
  9 13  1  0
 13 14  1  0
 14 15  2  0
 14 16  1  0
 16 17  1  0
 17 18  2  0
 17 19  1  0
 17 20  1  0
 13 21  1  0
 21 22  2  0
 22  4  1  0
 21  7  1  0
  1 23  1  0
  1 24  1  0
  1 25  1  0
  3 26  1  0
  3 27  1  0
  3 28  1  0
  5 29  1  0
  6 30  1  0
  8 31  1  0
 11 32  1  0
 11 33  1  0
 16 34  1  0
 16 35  1  0
 19 36  1  0
 20 37  1  0
 22 38  1  0
M  END
>  <smiles>  (34) 
CN(C)c1ccc2cc(C(N)=O)n(C(=O)CP(=O)(O)O)c2c1

>  <score_type>  (34) 
oracle

>  <origin>  (34) 
adg

>  <m_score__min__energy>  (34) 
-8.7200000000000006

>  <m_primary>  (34) 
energy

$$$$
37:0
     RDKit          3D

 48 50  0  0  0  0  0  0  0  0999 V2000
   -5.9870   25.6740  -29.0230 N   0  0  0  0  0  0  0  0  0  0  0  0
   -5.5830   25.0040  -30.1870 C   0  0  0  0  0  0  0  0  0  0  0  0
   -4.6460   25.6000  -30.8400 O   0  0  0  0  0  0  0  0  0  0  0  0
   -6.0540   23.7720  -30.7450 C   0  0  0  0  0  0  0  0  0  0  0  0
   -7.4170   23.5440  -30.9890 C   0  0  0  0  0  0  0  0  0  0  0  0
   -7.5870   22.2840  -31.5210 C   0  0  0  0  0  0  0  0  0  0  0  0
   -8.7100   21.6000  -31.9240 C   0  0  0  0  0  0  0  0  0  0  0  0
   -8.5890   20.3230  -32.4310 C   0  0  0  0  0  0  0  0  0  0  0  0
   -7.3420   19.7460  -32.5280 C   0  0  0  0  0  0  0  0  0  0  0  0
   -7.2300   18.3640  -33.0780 C   0  0  0  0  0  0  0  0  0  0  0  0
   -6.8760   17.4690  -32.0900 F   0  0  0  0  0  0  0  0  0  0  0  0
   -6.3320   18.3380  -34.1300 F   0  0  0  0  0  0  0  0  0  0  0  0
   -6.2310   20.4640  -32.1120 C   0  0  0  0  0  0  0  0  0  0  0  0
   -6.3280   21.7480  -31.6000 C   0  0  0  0  0  0  0  0  0  0  0  0
   -5.4120   22.6490  -31.1310 N   0  0  0  0  0  0  0  0  0  0  0  0
   -3.9940   22.4180  -31.0620 C   0  0  0  0  0  0  0  0  0  0  0  0
   -3.2770   22.2740  -32.0720 O   0  0  0  0  0  0  0  0  0  0  0  0
   -3.4220   22.3570  -29.8420 O   0  0  0  0  0  0  0  0  0  0  0  0
   -3.9050   22.5950  -28.5910 C   0  0  0  0  0  0  0  0  0  0  0  0
   -4.0020   23.8390  -28.0440 O   0  0  0  0  0  0  0  0  0  0  0  0
   -3.7500   24.5490  -26.9680 C   0  0  0  0  0  0  0  0  0  0  0  0
   -4.6170   24.9800  -26.1890 O   0  0  0  0  0  0  0  0  0  0  0  0
   -2.3850   24.8780  -26.6180 N   0  0  0  0  0  0  0  0  0  0  0  0
   -2.1680   25.6610  -25.4250 C   0  0  0  0  0  0  0  0  0  0  0  0
   -0.7380   25.5320  -24.9280 C   0  0  0  0  0  0  0  0  0  0  0  0
   -0.3480   24.0620  -25.1010 C   0  0  0  0  0  0  0  0  0  0  0  0
    0.9040   23.9550  -24.4710 O   0  0  0  0  0  0  0  0  0  0  0  0
   -0.3220   23.6600  -26.5360 C   0  0  0  0  0  0  0  0  0  0  0  0
   -1.2600   24.4510  -27.4220 C   0  0  0  0  0  0  0  0  0  0  0  0
   -5.5010   25.4470  -28.1040 H   0  0  0  0  0  0  0  0  0  0  0  0
   -6.7600   26.4030  -29.0600 H   0  0  0  0  0  0  0  0  0  0  0  0
   -8.2260   24.2613  -30.7866 H   0  0  0  0  0  0  0  0  0  0  0  0
   -9.7013   22.0697  -31.8423 H   0  0  0  0  0  0  0  0  0  0  0  0
   -9.4822   19.7691  -32.7557 H   0  0  0  0  0  0  0  0  0  0  0  0
   -8.2140   18.0574  -33.4625 H   0  0  0  0  0  0  0  0  0  0  0  0
   -5.2378   19.9979  -32.1912 H   0  0  0  0  0  0  0  0  0  0  0  0
   -4.9244   22.1818  -28.5793 H   0  0  0  0  0  0  0  0  0  0  0  0
   -3.1148   22.1495  -27.9689 H   0  0  0  0  0  0  0  0  0  0  0  0
   -2.3750   26.7180  -25.6484 H   0  0  0  0  0  0  0  0  0  0  0  0
   -2.8418   25.2881  -24.6396 H   0  0  0  0  0  0  0  0  0  0  0  0
   -0.0704   26.1745  -25.5209 H   0  0  0  0  0  0  0  0  0  0  0  0
   -0.6527   25.8448  -23.8769 H   0  0  0  0  0  0  0  0  0  0  0  0
   -1.0793   23.3741  -24.6515 H   0  0  0  0  0  0  0  0  0  0  0  0
    0.7550   24.1260  -23.5050 H   0  0  0  0  0  0  0  0  0  0  0  0
    0.7027   23.7942  -26.9127 H   0  0  0  0  0  0  0  0  0  0  0  0
   -0.6588   22.6136  -26.5759 H   0  0  0  0  0  0  0  0  0  0  0  0
   -0.7372   25.3295  -27.8281 H   0  0  0  0  0  0  0  0  0  0  0  0
   -1.6056   23.8299  -28.2615 H   0  0  0  0  0  0  0  0  0  0  0  0
  1  2  1  0
  2  3  2  0
  2  4  1  0
  4  5  2  0
  5  6  1  0
  6  7  2  0
  7  8  1  0
  8  9  2  0
  9 10  1  0
 10 11  1  0
 10 12  1  0
  9 13  1  0
 13 14  2  0
 14 15  1  0
 15 16  1  0
 16 17  2  0
 16 18  1  0
 18 19  1  0
 19 20  1  0
 20 21  1  0
 21 22  2  0
 21 23  1  0
 23 24  1  0
 24 25  1  0
 25 26  1  0
 26 27  1  0
 26 28  1  0
 28 29  1  0
 15  4  1  0
 29 23  1  0
 14  6  1  0
  1 30  1  0
  1 31  1  0
  5 32  1  0
  7 33  1  0
  8 34  1  0
 10 35  1  0
 13 36  1  0
 19 37  1  0
 19 38  1  0
 24 39  1  0
 24 40  1  0
 25 41  1  0
 25 42  1  0
 26 43  1  0
 27 44  1  0
 28 45  1  0
 28 46  1  0
 29 47  1  0
 29 48  1  0
M  END
>  <smiles>  (35) 
NC(=O)c1cc2ccc(C(F)F)cc2n1C(=O)OCOC(=O)N1CCC(O)CC1

>  <score_type>  (35) 
oracle

>  <origin>  (35) 
adg

>  <m_score__min__energy>  (35) 
-9.0800000000000001

>  <m_primary>  (35) 
energy

$$$$
38:0
     RDKit          3D

 53 54  0  0  0  0  0  0  0  0999 V2000
   -4.1660   24.9250  -26.3890 C   0  0  0  0  0  0  0  0  0  0  0  0
   -3.9150   23.9350  -27.3300 O   0  0  0  0  0  0  0  0  0  0  0  0
   -2.5940   23.5090  -27.2620 C   0  0  0  0  0  0  0  0  0  0  0  0
   -2.0540   23.0170  -28.5550 C   0  0  0  0  0  0  0  0  0  0  0  0
   -0.8570   22.1050  -28.2390 C   0  0  0  0  0  0  0  0  0  0  0  0
    0.2880   22.8810  -28.2820 O   0  0  0  0  0  0  0  0  0  0  0  0
    0.9050   23.0220  -27.0500 C   0  0  0  0  0  0  0  0  0  0  0  0
   -1.4260   24.2190  -29.2750 C   0  0  0  0  0  0  0  0  0  0  0  0
   -2.0730   25.4040  -28.9540 O   0  0  0  0  0  0  0  0  0  0  0  0
   -1.1700   26.1410  -28.1610 C   0  0  0  0  0  0  0  0  0  0  0  0
   -2.9550   22.2460  -29.4280 C   0  0  0  0  0  0  0  0  0  0  0  0
   -3.2500   22.8330  -30.6860 O   0  0  0  0  0  0  0  0  0  0  0  0
   -4.1720   22.2140  -31.5460 C   0  0  0  0  0  0  0  0  0  0  0  0
   -3.6330   21.4490  -32.3970 O   0  0  0  0  0  0  0  0  0  0  0  0
   -5.5620   22.4450  -31.4430 N   0  0  0  0  0  0  0  0  0  0  0  0
   -6.1400   23.5720  -31.0110 C   0  0  0  0  0  0  0  0  0  0  0  0
   -5.5820   24.8270  -30.5550 C   0  0  0  0  0  0  0  0  0  0  0  0
   -5.1260   24.9080  -29.1830 N   0  0  0  0  0  0  0  0  0  0  0  0
   -5.4430   25.8640  -31.2130 O   0  0  0  0  0  0  0  0  0  0  0  0
   -7.5180   23.3300  -31.0780 C   0  0  0  0  0  0  0  0  0  0  0  0
   -7.7530   22.0610  -31.5470 C   0  0  0  0  0  0  0  0  0  0  0  0
   -8.9150   21.3640  -31.7850 C   0  0  0  0  0  0  0  0  0  0  0  0
   -8.8540   20.0720  -32.2660 C   0  0  0  0  0  0  0  0  0  0  0  0
   -7.6220   19.4990  -32.5010 C   0  0  0  0  0  0  0  0  0  0  0  0
   -7.5890   18.1070  -33.0190 C   0  0  0  0  0  0  0  0  0  0  0  0
   -6.4760   20.2270  -32.2520 C   0  0  0  0  0  0  0  0  0  0  0  0
   -6.4910   21.5230  -31.7710 C   0  0  0  0  0  0  0  0  0  0  0  0
   -4.0596   24.5052  -25.3778 H   0  0  0  0  0  0  0  0  0  0  0  0
   -3.4480   25.7477  -26.5219 H   0  0  0  0  0  0  0  0  0  0  0  0
   -5.1892   25.3063  -26.5219 H   0  0  0  0  0  0  0  0  0  0  0  0
   -1.9743   24.3537  -26.9266 H   0  0  0  0  0  0  0  0  0  0  0  0
   -2.5670   22.6616  -26.5611 H   0  0  0  0  0  0  0  0  0  0  0  0
   -0.9747   21.6666  -27.2370 H   0  0  0  0  0  0  0  0  0  0  0  0
   -0.7941   21.2858  -28.9704 H   0  0  0  0  0  0  0  0  0  0  0  0
    0.1690   22.8538  -26.2500 H   0  0  0  0  0  0  0  0  0  0  0  0
    1.7181   22.2865  -26.9608 H   0  0  0  0  0  0  0  0  0  0  0  0
    1.3179   24.0377  -26.9608 H   0  0  0  0  0  0  0  0  0  0  0  0
   -0.3691   24.2987  -28.9807 H   0  0  0  0  0  0  0  0  0  0  0  0
   -1.5219   24.0583  -30.3590 H   0  0  0  0  0  0  0  0  0  0  0  0
   -1.3871   25.9638  -27.0973 H   0  0  0  0  0  0  0  0  0  0  0  0
   -0.1413   25.8213  -28.3835 H   0  0  0  0  0  0  0  0  0  0  0  0
   -1.2771   27.2129  -28.3835 H   0  0  0  0  0  0  0  0  0  0  0  0
   -2.4887   21.2672  -29.6137 H   0  0  0  0  0  0  0  0  0  0  0  0
   -3.9142   22.1911  -28.8924 H   0  0  0  0  0  0  0  0  0  0  0  0
   -5.7350   24.4250  -28.4740 H   0  0  0  0  0  0  0  0  0  0  0  0
   -4.2580   25.4090  -28.9210 H   0  0  0  0  0  0  0  0  0  0  0  0
   -8.2987   24.0518  -30.7958 H   0  0  0  0  0  0  0  0  0  0  0  0
   -9.8901   21.8353  -31.5924 H   0  0  0  0  0  0  0  0  0  0  0  0
   -9.7771   19.5060  -32.4596 H   0  0  0  0  0  0  0  0  0  0  0  0
   -7.5723   17.4019  -32.1748 H   0  0  0  0  0  0  0  0  0  0  0  0
   -8.4830   17.9229  -33.6329 H   0  0  0  0  0  0  0  0  0  0  0  0
   -6.6872   17.9655  -33.6329 H   0  0  0  0  0  0  0  0  0  0  0  0
   -5.5027   19.7525  -32.4459 H   0  0  0  0  0  0  0  0  0  0  0  0
  1  2  1  0
  2  3  1  0
  3  4  1  0
  4  5  1  0
  5  6  1  0
  6  7  1  0
  4  8  1  0
  8  9  1  0
  9 10  1  0
  4 11  1  0
 11 12  1  0
 12 13  1  0
 13 14  2  0
 13 15  1  0
 15 16  1  0
 16 17  1  0
 17 18  1  0
 17 19  2  0
 16 20  2  0
 20 21  1  0
 21 22  2  0
 22 23  1  0
 23 24  2  0
 24 25  1  0
 24 26  1  0
 26 27  2  0
 27 15  1  0
 27 21  1  0
  1 28  1  0
  1 29  1  0
  1 30  1  0
  3 31  1  0
  3 32  1  0
  5 33  1  0
  5 34  1  0
  7 35  1  0
  7 36  1  0
  7 37  1  0
  8 38  1  0
  8 39  1  0
 10 40  1  0
 10 41  1  0
 10 42  1  0
 11 43  1  0
 11 44  1  0
 18 45  1  0
 18 46  1  0
 20 47  1  0
 22 48  1  0
 23 49  1  0
 25 50  1  0
 25 51  1  0
 25 52  1  0
 26 53  1  0
M  END
>  <smiles>  (36) 
COCC(COC)(COC)COC(=O)n1c(C(N)=O)cc2ccc(C)cc21

>  <score_type>  (36) 
oracle

>  <origin>  (36) 
adg

>  <m_score__min__energy>  (36) 
-8.0999999999999996

>  <m_primary>  (36) 
energy

$$$$
39:0
     RDKit          3D

 37 38  0  0  0  0  0  0  0  0999 V2000
   -5.0140   16.5030  -33.3200 N   0  0  0  0  0  0  0  0  0  0  0  0
   -6.3560   16.9800  -33.5780 C   0  0  0  0  0  0  0  0  0  0  0  0
   -7.0690   16.1960  -34.2360 O   0  0  0  0  0  0  0  0  0  0  0  0
   -6.7450   18.2790  -33.0730 C   0  0  0  0  0  0  0  0  0  0  0  0
   -8.0510   18.5630  -32.6520 C   0  0  0  0  0  0  0  0  0  0  0  0
   -8.1260   19.8670  -32.2250 C   0  0  0  0  0  0  0  0  0  0  0  0
   -9.1800   20.6080  -31.7250 C   0  0  0  0  0  0  0  0  0  0  0  0
   -8.9590   21.9210  -31.3710 C   0  0  0  0  0  0  0  0  0  0  0  0
   -7.7060   22.4610  -31.5210 C   0  0  0  0  0  0  0  0  0  0  0  0
   -7.5050   23.8040  -31.1520 N   0  0  0  0  0  0  0  0  0  0  0  0
   -6.6740   21.6960  -32.0220 C   0  0  0  0  0  0  0  0  0  0  0  0
   -6.8560   20.3780  -32.3880 C   0  0  0  0  0  0  0  0  0  0  0  0
   -6.0400   19.4080  -32.8990 N   0  0  0  0  0  0  0  0  0  0  0  0
   -4.6680   19.5950  -33.1890 C   0  0  0  0  0  0  0  0  0  0  0  0
   -4.0710   19.1520  -34.1980 O   0  0  0  0  0  0  0  0  0  0  0  0
   -3.8590   20.3310  -32.3070 O   0  0  0  0  0  0  0  0  0  0  0  0
   -3.6110   21.6850  -32.6590 C   0  0  0  0  0  0  0  0  0  0  0  0
   -3.6440   22.5770  -31.4440 C   0  0  0  0  0  0  0  0  0  0  0  0
   -4.5300   23.6150  -31.5930 O   0  0  0  0  0  0  0  0  0  0  0  0
   -4.6130   24.5410  -30.1760 P   0  0  0  0  0  0  0  0  0  0  0  0
   -3.2120   24.9190  -29.6960 O   0  0  0  0  0  0  0  0  0  0  0  0
   -5.3630   23.6770  -28.9300 O   0  0  0  0  0  0  0  0  0  0  0  0
   -5.4990   25.9590  -30.4240 O   0  0  0  0  0  0  0  0  0  0  0  0
   -4.8700   15.5510  -32.8890 H   0  0  0  0  0  0  0  0  0  0  0  0
   -4.1850   17.0990  -33.5580 H   0  0  0  0  0  0  0  0  0  0  0  0
   -8.8889   17.8504  -32.6618 H   0  0  0  0  0  0  0  0  0  0  0  0
  -10.1772   20.1577  -31.6117 H   0  0  0  0  0  0  0  0  0  0  0  0
   -9.7812   22.5325  -30.9708 H   0  0  0  0  0  0  0  0  0  0  0  0
   -8.2210   24.5570  -31.1940 H   0  0  0  0  0  0  0  0  0  0  0  0
   -6.5580   24.0830  -30.8020 H   0  0  0  0  0  0  0  0  0  0  0  0
   -5.6778   22.1490  -32.1330 H   0  0  0  0  0  0  0  0  0  0  0  0
   -2.6201   21.7577  -33.1311 H   0  0  0  0  0  0  0  0  0  0  0  0
   -4.3964   22.0142  -33.3553 H   0  0  0  0  0  0  0  0  0  0  0  0
   -3.9424   21.9777  -30.5712 H   0  0  0  0  0  0  0  0  0  0  0  0
   -2.6394   23.0041  -31.3082 H   0  0  0  0  0  0  0  0  0  0  0  0
   -5.9490   24.2320  -28.3820 H   0  0  0  0  0  0  0  0  0  0  0  0
   -5.3520   26.5810  -29.6920 H   0  0  0  0  0  0  0  0  0  0  0  0
  1  2  1  0
  2  3  2  0
  2  4  1  0
  4  5  2  0
  5  6  1  0
  6  7  2  0
  7  8  1  0
  8  9  2  0
  9 10  1  0
  9 11  1  0
 11 12  2  0
 12 13  1  0
 13 14  1  0
 14 15  2  0
 14 16  1  0
 16 17  1  0
 17 18  1  0
 18 19  1  0
 19 20  1  0
 20 21  2  0
 20 22  1  0
 20 23  1  0
 13  4  1  0
 12  6  1  0
  1 24  1  0
  1 25  1  0
  5 26  1  0
  7 27  1  0
  8 28  1  0
 10 29  1  0
 10 30  1  0
 11 31  1  0
 17 32  1  0
 17 33  1  0
 18 34  1  0
 18 35  1  0
 22 36  1  0
 23 37  1  0
M  END
>  <smiles>  (37) 
NC(=O)c1cc2ccc(N)cc2n1C(=O)OCCOP(=O)(O)O

>  <score_type>  (37) 
oracle

>  <origin>  (37) 
adg

>  <m_score__min__energy>  (37) 
-7.3499999999999996

>  <m_primary>  (37) 
energy

$$$$
40:0
     RDKit          3D

 43 45  0  0  1  0  0  0  0  0999 V2000
   -1.8640   24.3870  -29.4160 N   0  0  0  0  0  0  0  0  0  0  0  0
   -1.7150   22.9820  -29.6940 C   0  0  0  0  0  0  0  0  0  0  0  0
   -0.7260   22.4480  -29.1500 O   0  0  0  0  0  0  0  0  0  0  0  0
   -2.6790   22.3100  -30.5480 C   0  0  0  0  0  0  0  0  0  0  0  0
   -2.2650   21.5700  -31.6650 C   0  0  0  0  0  0  0  0  0  0  0  0
   -3.3990   21.0670  -32.2530 C   0  0  0  0  0  0  0  0  0  0  0  0
   -3.5170   20.2810  -33.3710 C   0  0  0  0  0  0  0  0  0  0  0  0
   -4.7990   19.9110  -33.7530 C   0  0  0  0  0  0  0  0  0  0  0  0
   -5.9340   20.2840  -33.0810 C   0  0  0  0  0  0  0  0  0  0  0  0
   -7.2540   19.9390  -33.4410 N   0  0  0  0  0  0  0  0  0  0  0  0
   -8.4140   19.7600  -32.6790 C   0  0  0  0  0  0  0  0  0  0  0  0
   -8.9970   21.0300  -32.0400 C   0  0  0  0  0  0  0  0  0  0  0  0
   -8.6500   19.8050  -31.2490 C   0  0  0  0  0  0  0  0  0  0  0  0
   -5.7240   21.0860  -31.9490 C   0  0  0  0  0  0  0  0  0  0  0  0
   -4.4860   21.4860  -31.5200 C   0  0  0  0  0  0  0  0  0  0  0  0
   -4.0200   22.2480  -30.4780 N   0  0  0  0  0  0  0  0  0  0  0  0
   -4.8640   22.8710  -29.4780 C   0  0  0  0  0  0  0  0  0  0  0  0
   -4.2440   23.3130  -28.4760 O   0  0  0  0  0  0  0  0  0  0  0  0
   -6.1910   23.0000  -29.5480 O   0  0  0  0  0  0  0  0  0  0  0  0
   -6.9510   23.9520  -30.1890 C   0  0  0  0  0  0  0  0  0  0  0  0
   -6.4850   25.3480  -29.9900 C   0  0  1  0  0  0  0  0  0  0  0  0
   -6.1130   25.6030  -28.6870 O   0  0  0  0  0  0  0  0  0  0  0  0
   -5.3640   25.6880  -30.9580 C   0  0  0  0  0  0  0  0  0  0  0  0
   -4.1390   25.5700  -30.3040 O   0  0  0  0  0  0  0  0  0  0  0  0
   -2.7120   24.7440  -28.9020 H   0  0  0  0  0  0  0  0  0  0  0  0
   -1.1150   25.0390  -29.7350 H   0  0  0  0  0  0  0  0  0  0  0  0
   -1.2295   21.4211  -32.0050 H   0  0  0  0  0  0  0  0  0  0  0  0
   -2.6332   19.9577  -33.9405 H   0  0  0  0  0  0  0  0  0  0  0  0
   -4.9108   19.2812  -34.6479 H   0  0  0  0  0  0  0  0  0  0  0  0
   -7.3810   19.7890  -34.5150 H   0  0  0  0  0  0  0  0  0  0  0  0
   -8.6499   18.9495  -33.3843 H   0  0  0  0  0  0  0  0  0  0  0  0
   -8.3872   21.9414  -31.9533 H   0  0  0  0  0  0  0  0  0  0  0  0
   -9.8903   21.6550  -32.1862 H   0  0  0  0  0  0  0  0  0  0  0  0
   -7.7939   19.8299  -30.5588 H   0  0  0  0  0  0  0  0  0  0  0  0
   -9.2099   19.1668  -30.5496 H   0  0  0  0  0  0  0  0  0  0  0  0
   -6.6030   21.4119  -31.3736 H   0  0  0  0  0  0  0  0  0  0  0  0
   -6.9357   23.7350  -31.2673 H   0  0  0  0  0  0  0  0  0  0  0  0
   -7.9591   23.8934  -29.7529 H   0  0  0  0  0  0  0  0  0  0  0  0
   -7.3415   26.0040  -30.2048 H   0  0  0  0  0  0  0  0  0  0  0  0
   -5.7840   24.8010  -28.2160 H   0  0  0  0  0  0  0  0  0  0  0  0
   -5.3930   24.9950  -31.8118 H   0  0  0  0  0  0  0  0  0  0  0  0
   -5.4903   26.7188  -31.3206 H   0  0  0  0  0  0  0  0  0  0  0  0
   -4.2240   25.3110  -29.3530 H   0  0  0  0  0  0  0  0  0  0  0  0
  1  2  1  0
  2  3  2  0
  2  4  1  0
  4  5  2  0
  5  6  1  0
  6  7  2  0
  7  8  1  0
  8  9  2  0
  9 10  1  0
 10 11  1  0
 11 12  1  0
 12 13  1  0
  9 14  1  0
 14 15  2  0
 15 16  1  0
 16 17  1  0
 17 18  2  0
 17 19  1  0
 19 20  1  0
 20 21  1  0
 21 22  1  0
 21 23  1  0
 23 24  1  0
 16  4  1  0
 15  6  1  0
 13 11  1  0
  1 25  1  0
  1 26  1  0
  5 27  1  0
  7 28  1  0
  8 29  1  0
 10 30  1  0
 11 31  1  0
 12 32  1  0
 12 33  1  0
 13 34  1  0
 13 35  1  0
 14 36  1  0
 20 37  1  0
 20 38  1  0
 21 39  1  6
 22 40  1  0
 23 41  1  0
 23 42  1  0
 24 43  1  0
M  END
>  <smiles>  (38) 
NC(=O)c1cc2ccc(NC3CC3)cc2n1C(=O)OCC(O)CO

>  <score_type>  (38) 
oracle

>  <origin>  (38) 
adg

>  <m_score__min__energy>  (38) 
-9.4000000000000004

>  <m_primary>  (38) 
energy

$$$$
41:0
     RDKit          3D

 41 43  0  0  0  0  0  0  0  0999 V2000
   -8.7920   19.6300  -33.1100 N   0  0  0  0  0  0  0  0  0  0  0  0
   -8.9540   20.8210  -32.4000 C   0  0  0  0  0  0  0  0  0  0  0  0
  -10.1670   21.2180  -32.2780 O   0  0  0  0  0  0  0  0  0  0  0  0
   -7.9510   21.6530  -31.7940 C   0  0  0  0  0  0  0  0  0  0  0  0
   -8.2060   22.9890  -31.4510 C   0  0  0  0  0  0  0  0  0  0  0  0
   -7.0730   23.5430  -30.8910 C   0  0  0  0  0  0  0  0  0  0  0  0
   -6.8190   24.8040  -30.4010 C   0  0  0  0  0  0  0  0  0  0  0  0
   -5.5880   25.1100  -29.8880 C   0  0  0  0  0  0  0  0  0  0  0  0
   -4.6230   24.1310  -29.8770 C   0  0  0  0  0  0  0  0  0  0  0  0
   -3.3240   24.4540  -29.3360 C   0  0  0  0  0  0  0  0  0  0  0  0
   -2.2450   24.7230  -28.8670 C   0  0  0  0  0  0  0  0  0  0  0  0
   -0.9530   25.0650  -28.2900 C   0  0  0  0  0  0  0  0  0  0  0  0
   -0.7890   26.2210  -27.5530 C   0  0  0  0  0  0  0  0  0  0  0  0
    0.4430   26.5390  -27.0080 C   0  0  0  0  0  0  0  0  0  0  0  0
    1.5040   25.6650  -27.2230 C   0  0  0  0  0  0  0  0  0  0  0  0
    1.3590   24.5340  -27.9410 N   0  0  0  0  0  0  0  0  0  0  0  0
    0.1500   24.2480  -28.4600 C   0  0  0  0  0  0  0  0  0  0  0  0
   -4.8900   22.8580  -30.3770 C   0  0  0  0  0  0  0  0  0  0  0  0
   -6.1370   22.5420  -30.8980 C   0  0  0  0  0  0  0  0  0  0  0  0
   -6.6700   21.4060  -31.4420 N   0  0  0  0  0  0  0  0  0  0  0  0
   -5.9580   20.1790  -31.5970 C   0  0  0  0  0  0  0  0  0  0  0  0
   -4.7170   20.0870  -31.6700 O   0  0  0  0  0  0  0  0  0  0  0  0
   -6.6820   19.0220  -31.6730 O   0  0  0  0  0  0  0  0  0  0  0  0
   -6.1150   17.7370  -31.6600 C   0  0  0  0  0  0  0  0  0  0  0  0
   -6.5310   16.9820  -32.8870 C   0  0  0  0  0  0  0  0  0  0  0  0
   -7.2230   17.8130  -33.7930 O   0  0  0  0  0  0  0  0  0  0  0  0
   -8.8170   18.7290  -32.5820 H   0  0  0  0  0  0  0  0  0  0  0  0
   -8.6600   19.6940  -34.1510 H   0  0  0  0  0  0  0  0  0  0  0  0
   -9.1606   23.5135  -31.6045 H   0  0  0  0  0  0  0  0  0  0  0  0
   -7.6091   25.5690  -30.4219 H   0  0  0  0  0  0  0  0  0  0  0  0
   -5.3757   26.1148  -29.4940 H   0  0  0  0  0  0  0  0  0  0  0  0
   -1.6445   26.8948  -27.3977 H   0  0  0  0  0  0  0  0  0  0  0  0
    0.5797   27.4587  -26.4202 H   0  0  0  0  0  0  0  0  0  0  0  0
    2.4887   25.9040  -26.7949 H   0  0  0  0  0  0  0  0  0  0  0  0
    0.0344   23.3237  -29.0451 H   0  0  0  0  0  0  0  0  0  0  0  0
   -4.1006   22.0921  -30.3585 H   0  0  0  0  0  0  0  0  0  0  0  0
   -5.0185   17.8226  -31.6389 H   0  0  0  0  0  0  0  0  0  0  0  0
   -6.4636   17.1969  -30.7674 H   0  0  0  0  0  0  0  0  0  0  0  0
   -5.6340   16.5816  -33.3821 H   0  0  0  0  0  0  0  0  0  0  0  0
   -7.2042   16.1677  -32.5807 H   0  0  0  0  0  0  0  0  0  0  0  0
   -6.9520   18.7320  -33.5790 H   0  0  0  0  0  0  0  0  0  0  0  0
  1  2  1  0
  2  3  2  0
  2  4  1  0
  4  5  2  0
  5  6  1  0
  6  7  2  0
  7  8  1  0
  8  9  2  0
  9 10  1  0
 10 11  3  0
 11 12  1  0
 12 13  2  0
 13 14  1  0
 14 15  2  0
 15 16  1  0
 16 17  2  0
  9 18  1  0
 18 19  2  0
 19 20  1  0
 20 21  1  0
 21 22  2  0
 21 23  1  0
 23 24  1  0
 24 25  1  0
 25 26  1  0
 20  4  1  0
 19  6  1  0
 17 12  1  0
  1 27  1  0
  1 28  1  0
  5 29  1  0
  7 30  1  0
  8 31  1  0
 13 32  1  0
 14 33  1  0
 15 34  1  0
 17 35  1  0
 18 36  1  0
 24 37  1  0
 24 38  1  0
 25 39  1  0
 25 40  1  0
 26 41  1  0
M  END
>  <smiles>  (39) 
NC(=O)c1cc2ccc(C#Cc3cccnc3)cc2n1C(=O)OCCO

>  <score_type>  (39) 
oracle

>  <origin>  (39) 
adg

>  <m_score__min__energy>  (39) 
-9.8000000000000007

>  <m_primary>  (39) 
energy

$$$$
42:0
     RDKit          3D

 33 34  0  0  0  0  0  0  0  0999 V2000
   -9.8040   21.4150  -31.9760 C   0  0  0  0  0  0  0  0  0  0  0  0
   -8.3410   21.1590  -32.1110 C   0  0  0  0  0  0  0  0  0  0  0  0
   -7.9030   20.0320  -32.7700 C   0  0  0  0  0  0  0  0  0  0  0  0
   -6.5470   19.8250  -32.8780 C   0  0  0  0  0  0  0  0  0  0  0  0
   -5.6670   20.7300  -32.3360 C   0  0  0  0  0  0  0  0  0  0  0  0
   -4.3040   20.7440  -32.3160 C   0  0  0  0  0  0  0  0  0  0  0  0
   -3.8640   21.8970  -31.6360 C   0  0  0  0  0  0  0  0  0  0  0  0
   -2.4500   22.1530  -31.4710 C   0  0  0  0  0  0  0  0  0  0  0  0
   -1.9970   23.1010  -30.4640 N   0  0  0  0  0  0  0  0  0  0  0  0
   -1.5110   21.6390  -32.1160 O   0  0  0  0  0  0  0  0  0  0  0  0
   -4.9630   22.5690  -31.2490 N   0  0  0  0  0  0  0  0  0  0  0  0
   -4.9580   23.7730  -30.5470 C   0  0  0  0  0  0  0  0  0  0  0  0
   -4.6200   24.8620  -31.1110 O   0  0  0  0  0  0  0  0  0  0  0  0
   -5.3220   23.9680  -29.1060 C   0  0  0  0  0  0  0  0  0  0  0  0
   -3.7760   24.2690  -28.1520 P   0  0  0  0  0  0  0  0  0  0  0  0
   -3.2310   22.9170  -27.7640 O   0  0  0  0  0  0  0  0  0  0  0  0
   -2.6290   25.0540  -29.0920 O   0  0  0  0  0  0  0  0  0  0  0  0
   -4.1130   25.1140  -26.7270 O   0  0  0  0  0  0  0  0  0  0  0  0
   -6.0610   21.8770  -31.6660 C   0  0  0  0  0  0  0  0  0  0  0  0
   -7.4250   22.0620  -31.5710 C   0  0  0  0  0  0  0  0  0  0  0  0
  -10.0712   21.4618  -30.9100 H   0  0  0  0  0  0  0  0  0  0  0  0
  -10.0551   22.3707  -32.4592 H   0  0  0  0  0  0  0  0  0  0  0  0
  -10.3647   20.6013  -32.4592 H   0  0  0  0  0  0  0  0  0  0  0  0
   -8.6189   19.3155  -33.1991 H   0  0  0  0  0  0  0  0  0  0  0  0
   -6.1671   18.9338  -33.3990 H   0  0  0  0  0  0  0  0  0  0  0  0
   -3.6517   19.9775  -32.7599 H   0  0  0  0  0  0  0  0  0  0  0  0
   -2.0670   22.8460  -29.4570 H   0  0  0  0  0  0  0  0  0  0  0  0
   -1.6040   24.0280  -30.7490 H   0  0  0  0  0  0  0  0  0  0  0  0
   -5.9944   24.8328  -29.0064 H   0  0  0  0  0  0  0  0  0  0  0  0
   -5.8356   23.0745  -28.7215 H   0  0  0  0  0  0  0  0  0  0  0  0
   -3.0870   25.6680  -29.7460 H   0  0  0  0  0  0  0  0  0  0  0  0
   -4.5680   25.9520  -26.9370 H   0  0  0  0  0  0  0  0  0  0  0  0
   -7.8039   22.9539  -31.0505 H   0  0  0  0  0  0  0  0  0  0  0  0
  1  2  1  0
  2  3  2  0
  3  4  1  0
  4  5  2  0
  5  6  1  0
  6  7  2  0
  7  8  1  0
  8  9  1  0
  8 10  2  0
  7 11  1  0
 11 12  1  0
 12 13  2  0
 12 14  1  0
 14 15  1  0
 15 16  2  0
 15 17  1  0
 15 18  1  0
 11 19  1  0
 19 20  2  0
 20  2  1  0
 19  5  1  0
  1 21  1  0
  1 22  1  0
  1 23  1  0
  3 24  1  0
  4 25  1  0
  6 26  1  0
  9 27  1  0
  9 28  1  0
 14 29  1  0
 14 30  1  0
 17 31  1  0
 18 32  1  0
 20 33  1  0
M  END
>  <smiles>  (40) 
Cc1ccc2cc(C(N)=O)n(C(=O)CP(=O)(O)O)c2c1

>  <score_type>  (40) 
oracle

>  <origin>  (40) 
adg

>  <m_score__min__energy>  (40) 
-8.5199999999999996

>  <m_primary>  (40) 
energy

$$$$
43:0
     RDKit          3D

 50 51  0  0  0  0  0  0  0  0999 V2000
   -9.0280   18.4030  -31.6480 C   0  0  0  0  0  0  0  0  0  0  0  0
   -8.3730   19.5510  -32.3260 N   0  0  0  0  0  0  0  0  0  0  0  0
   -9.1110   20.7750  -32.3370 C   0  0  0  0  0  0  0  0  0  0  0  0
   -7.1240   19.2770  -32.8910 C   0  0  0  0  0  0  0  0  0  0  0  0
   -6.7480   18.0350  -32.7690 O   0  0  0  0  0  0  0  0  0  0  0  0
   -6.1880   20.1370  -33.5870 C   0  0  0  0  0  0  0  0  0  0  0  0
   -4.8610   19.6350  -33.8220 N   0  0  0  0  0  0  0  0  0  0  0  0
   -3.7910   20.1370  -32.9920 C   0  0  0  0  0  0  0  0  0  0  0  0
   -2.5690   19.5010  -32.9730 C   0  0  0  0  0  0  0  0  0  0  0  0
   -1.5630   19.9950  -32.1750 C   0  0  0  0  0  0  0  0  0  0  0  0
   -1.7950   21.1240  -31.4040 C   0  0  0  0  0  0  0  0  0  0  0  0
   -0.9860   21.8010  -30.5490 C   0  0  0  0  0  0  0  0  0  0  0  0
   -1.6710   22.8820  -30.0020 C   0  0  0  0  0  0  0  0  0  0  0  0
   -1.1030   23.8030  -29.0600 C   0  0  0  0  0  0  0  0  0  0  0  0
   -1.1540   25.2120  -29.3660 N   0  0  0  0  0  0  0  0  0  0  0  0
   -0.5510   23.5260  -27.9730 O   0  0  0  0  0  0  0  0  0  0  0  0
   -2.9240   22.8550  -30.5430 N   0  0  0  0  0  0  0  0  0  0  0  0
   -3.9960   23.7500  -30.3010 C   0  0  0  0  0  0  0  0  0  0  0  0
   -3.8180   24.9950  -30.5570 O   0  0  0  0  0  0  0  0  0  0  0  0
   -5.2260   23.4250  -29.8130 O   0  0  0  0  0  0  0  0  0  0  0  0
   -6.4560   23.7100  -30.4330 C   0  0  0  0  0  0  0  0  0  0  0  0
   -7.5300   22.7260  -30.0870 C   0  0  0  0  0  0  0  0  0  0  0  0
   -6.8860   25.0840  -29.9490 C   0  0  0  0  0  0  0  0  0  0  0  0
   -6.3590   23.7800  -31.9300 C   0  0  0  0  0  0  0  0  0  0  0  0
   -3.0040   21.7890  -31.3960 C   0  0  0  0  0  0  0  0  0  0  0  0
   -3.9950   21.2730  -32.2030 C   0  0  0  0  0  0  0  0  0  0  0  0
   -8.9551   18.5308  -30.5579 H   0  0  0  0  0  0  0  0  0  0  0  0
  -10.0871   18.3592  -31.9420 H   0  0  0  0  0  0  0  0  0  0  0  0
   -8.5269   17.4690  -31.9420 H   0  0  0  0  0  0  0  0  0  0  0  0
   -9.3044   21.0958  -31.3028 H   0  0  0  0  0  0  0  0  0  0  0  0
   -8.5291   21.5493  -32.8584 H   0  0  0  0  0  0  0  0  0  0  0  0
  -10.0674   20.6218  -32.8584 H   0  0  0  0  0  0  0  0  0  0  0  0
   -6.6272   20.3739  -34.5673 H   0  0  0  0  0  0  0  0  0  0  0  0
   -6.0440   20.9928  -32.9111 H   0  0  0  0  0  0  0  0  0  0  0  0
   -4.6250   18.9310  -34.5550 H   0  0  0  0  0  0  0  0  0  0  0  0
   -2.3992   18.6064  -33.5902 H   0  0  0  0  0  0  0  0  0  0  0  0
   -0.5820   19.4981  -32.1488 H   0  0  0  0  0  0  0  0  0  0  0  0
    0.0568   21.5344  -30.3222 H   0  0  0  0  0  0  0  0  0  0  0  0
   -2.0060   25.6780  -29.7060 H   0  0  0  0  0  0  0  0  0  0  0  0
   -0.2940   25.8100  -29.2450 H   0  0  0  0  0  0  0  0  0  0  0  0
   -7.6163   22.6469  -28.9932 H   0  0  0  0  0  0  0  0  0  0  0  0
   -8.4881   23.0663  -30.5068 H   0  0  0  0  0  0  0  0  0  0  0  0
   -7.2747   21.7418  -30.5068 H   0  0  0  0  0  0  0  0  0  0  0  0
   -6.8911   25.1003  -28.8491 H   0  0  0  0  0  0  0  0  0  0  0  0
   -6.1820   25.8416  -30.3237 H   0  0  0  0  0  0  0  0  0  0  0  0
   -7.8963   25.3051  -30.3237 H   0  0  0  0  0  0  0  0  0  0  0  0
   -5.4970   24.4021  -32.2129 H   0  0  0  0  0  0  0  0  0  0  0  0
   -6.2289   22.7663  -32.3368 H   0  0  0  0  0  0  0  0  0  0  0  0
   -7.2801   24.2229  -32.3368 H   0  0  0  0  0  0  0  0  0  0  0  0
   -4.9760   21.7700  -32.2270 H   0  0  0  0  0  0  0  0  0  0  0  0
  1  2  1  0
  2  3  1  0
  2  4  1  0
  4  5  2  0
  4  6  1  0
  6  7  1  0
  7  8  1  0
  8  9  2  0
  9 10  1  0
 10 11  2  0
 11 12  1  0
 12 13  2  0
 13 14  1  0
 14 15  1  0
 14 16  2  0
 13 17  1  0
 17 18  1  0
 18 19  2  0
 18 20  1  0
 20 21  1  0
 21 22  1  0
 21 23  1  0
 21 24  1  0
 17 25  1  0
 25 26  2  0
 26  8  1  0
 25 11  1  0
  1 27  1  0
  1 28  1  0
  1 29  1  0
  3 30  1  0
  3 31  1  0
  3 32  1  0
  6 33  1  0
  6 34  1  0
  7 35  1  0
  9 36  1  0
 10 37  1  0
 12 38  1  0
 15 39  1  0
 15 40  1  0
 22 41  1  0
 22 42  1  0
 22 43  1  0
 23 44  1  0
 23 45  1  0
 23 46  1  0
 24 47  1  0
 24 48  1  0
 24 49  1  0
 26 50  1  0
M  END
>  <smiles>  (41) 
CN(C)C(=O)CNc1ccc2cc(C(N)=O)n(C(=O)OC(C)(C)C)c2c1

>  <score_type>  (41) 
oracle

>  <origin>  (41) 
adg

>  <m_score__min__energy>  (41) 
-9.4800000000000004

>  <m_primary>  (41) 
energy

$$$$
44:0
     RDKit          3D

 47 48  0  0  0  0  0  0  0  0999 V2000
   -1.7760   23.0190  -29.7790 C   0  0  0  0  0  0  0  0  0  0  0  0
   -2.9670   22.3130  -30.3960 C   0  0  0  0  0  0  0  0  0  0  0  0
   -2.9670   20.8680  -29.9420 C   0  0  0  0  0  0  0  0  0  0  0  0
   -2.7290   22.3130  -31.7890 O   0  0  0  0  0  0  0  0  0  0  0  0
   -1.8790   21.4320  -32.4210 C   0  0  0  0  0  0  0  0  0  0  0  0
   -0.7050   21.3020  -32.0470 O   0  0  0  0  0  0  0  0  0  0  0  0
   -2.3910   20.6350  -33.5630 C   0  0  0  0  0  0  0  0  0  0  0  0
   -2.8740   19.3840  -33.1960 O   0  0  0  0  0  0  0  0  0  0  0  0
   -3.9560   18.7350  -33.7510 C   0  0  0  0  0  0  0  0  0  0  0  0
   -3.6680   17.9670  -34.7340 O   0  0  0  0  0  0  0  0  0  0  0  0
   -5.3000   18.8590  -33.3250 N   0  0  0  0  0  0  0  0  0  0  0  0
   -6.2570   17.9200  -33.3690 C   0  0  0  0  0  0  0  0  0  0  0  0
   -6.2330   16.5500  -33.8370 C   0  0  0  0  0  0  0  0  0  0  0  0
   -5.0700   15.7440  -33.5950 N   0  0  0  0  0  0  0  0  0  0  0  0
   -7.1560   15.9720  -34.4580 O   0  0  0  0  0  0  0  0  0  0  0  0
   -7.4090   18.5130  -32.8400 C   0  0  0  0  0  0  0  0  0  0  0  0
   -7.1360   19.7930  -32.4860 C   0  0  0  0  0  0  0  0  0  0  0  0
   -7.9450   20.7570  -31.9290 C   0  0  0  0  0  0  0  0  0  0  0  0
   -7.3660   22.0060  -31.6740 C   0  0  0  0  0  0  0  0  0  0  0  0
   -6.0560   22.2820  -31.9540 C   0  0  0  0  0  0  0  0  0  0  0  0
   -5.4500   23.5330  -31.6860 N   0  0  0  0  0  0  0  0  0  0  0  0
   -6.0930   24.6390  -31.0290 C   0  0  0  0  0  0  0  0  0  0  0  0
   -5.1280   25.2920  -30.0960 C   0  0  0  0  0  0  0  0  0  0  0  0
   -3.8630   25.3200  -30.6930 O   0  0  0  0  0  0  0  0  0  0  0  0
   -5.3030   21.2580  -32.5140 C   0  0  0  0  0  0  0  0  0  0  0  0
   -5.8110   20.0080  -32.7910 C   0  0  0  0  0  0  0  0  0  0  0  0
   -1.8510   22.9745  -28.6825 H   0  0  0  0  0  0  0  0  0  0  0  0
   -0.8483   22.5248  -30.1034 H   0  0  0  0  0  0  0  0  0  0  0  0
   -1.7643   24.0700  -30.1034 H   0  0  0  0  0  0  0  0  0  0  0  0
   -3.9147   22.7979  -30.1190 H   0  0  0  0  0  0  0  0  0  0  0  0
   -1.9299   20.5182  -29.8321 H   0  0  0  0  0  0  0  0  0  0  0  0
   -3.4855   20.7874  -28.9752 H   0  0  0  0  0  0  0  0  0  0  0  0
   -3.4855   20.2490  -30.6889 H   0  0  0  0  0  0  0  0  0  0  0  0
   -3.2073   21.1965  -34.0409 H   0  0  0  0  0  0  0  0  0  0  0  0
   -1.5442   20.4668  -34.2446 H   0  0  0  0  0  0  0  0  0  0  0  0
   -5.1490   14.7220  -33.3980 H   0  0  0  0  0  0  0  0  0  0  0  0
   -4.1310   16.2010  -33.6180 H   0  0  0  0  0  0  0  0  0  0  0  0
   -8.3847   18.0174  -32.7287 H   0  0  0  0  0  0  0  0  0  0  0  0
   -9.0005   20.5550  -31.6944 H   0  0  0  0  0  0  0  0  0  0  0  0
   -7.9894   22.7966  -31.2309 H   0  0  0  0  0  0  0  0  0  0  0  0
   -4.4520   23.6830  -31.9850 H   0  0  0  0  0  0  0  0  0  0  0  0
   -6.4268   25.3688  -31.7813 H   0  0  0  0  0  0  0  0  0  0  0  0
   -6.9620   24.2740  -30.4618 H   0  0  0  0  0  0  0  0  0  0  0  0
   -5.4583   26.3196  -29.8840 H   0  0  0  0  0  0  0  0  0  0  0  0
   -5.0813   24.7255  -29.1542 H   0  0  0  0  0  0  0  0  0  0  0  0
   -4.0160   25.6730  -31.6160 H   0  0  0  0  0  0  0  0  0  0  0  0
   -4.2465   21.4554  -32.7484 H   0  0  0  0  0  0  0  0  0  0  0  0
  1  2  1  0
  2  3  1  0
  2  4  1  0
  4  5  1  0
  5  6  2  0
  5  7  1  0
  7  8  1  0
  8  9  1  0
  9 10  2  0
  9 11  1  0
 11 12  1  0
 12 13  1  0
 13 14  1  0
 13 15  2  0
 12 16  2  0
 16 17  1  0
 17 18  2  0
 18 19  1  0
 19 20  2  0
 20 21  1  0
 21 22  1  0
 22 23  1  0
 23 24  1  0
 20 25  1  0
 25 26  2  0
 26 11  1  0
 26 17  1  0
  1 27  1  0
  1 28  1  0
  1 29  1  0
  2 30  1  0
  3 31  1  0
  3 32  1  0
  3 33  1  0
  7 34  1  0
  7 35  1  0
 14 36  1  0
 14 37  1  0
 16 38  1  0
 18 39  1  0
 19 40  1  0
 21 41  1  0
 22 42  1  0
 22 43  1  0
 23 44  1  0
 23 45  1  0
 24 46  1  0
 25 47  1  0
M  END
>  <smiles>  (42) 
CC(C)OC(=O)COC(=O)n1c(C(N)=O)cc2ccc(NCCO)cc21

>  <score_type>  (42) 
oracle

>  <origin>  (42) 
adg

>  <m_score__min__energy>  (42) 
-8.6199999999999992

>  <m_primary>  (42) 
energy

$$$$
45:0
     RDKit          3D

 43 45  0  0  0  0  0  0  0  0999 V2000
   -5.6830   25.2640  -28.7790 N   0  0  0  0  0  0  0  0  0  0  0  0
   -5.0520   24.9960  -30.0530 C   0  0  0  0  0  0  0  0  0  0  0  0
   -4.3110   25.9160  -30.4670 O   0  0  0  0  0  0  0  0  0  0  0  0
   -5.3070   23.7440  -30.7300 C   0  0  0  0  0  0  0  0  0  0  0  0
   -6.5340   23.4790  -31.3540 C   0  0  0  0  0  0  0  0  0  0  0  0
   -6.4990   22.2260  -31.9120 C   0  0  0  0  0  0  0  0  0  0  0  0
   -7.4390   21.5180  -32.6220 C   0  0  0  0  0  0  0  0  0  0  0  0
   -7.1470   20.2540  -33.0800 C   0  0  0  0  0  0  0  0  0  0  0  0
   -5.9020   19.7230  -32.8100 C   0  0  0  0  0  0  0  0  0  0  0  0
   -5.6190   18.3810  -33.3080 C   0  0  0  0  0  0  0  0  0  0  0  0
   -6.3440   17.3240  -32.7740 C   0  0  0  0  0  0  0  0  0  0  0  0
   -6.1220   16.0400  -33.2040 C   0  0  0  0  0  0  0  0  0  0  0  0
   -5.1760   15.7450  -34.1790 C   0  0  0  0  0  0  0  0  0  0  0  0
   -4.4560   16.8110  -34.7070 C   0  0  0  0  0  0  0  0  0  0  0  0
   -3.5120   16.5070  -35.6820 O   0  0  0  0  0  0  0  0  0  0  0  0
   -2.2240   16.1290  -35.2650 C   0  0  0  0  0  0  0  0  0  0  0  0
   -1.7090   17.1310  -34.4440 F   0  0  0  0  0  0  0  0  0  0  0  0
   -1.3540   15.9060  -36.3170 F   0  0  0  0  0  0  0  0  0  0  0  0
   -2.3780   14.9440  -34.5570 F   0  0  0  0  0  0  0  0  0  0  0  0
   -4.6760   18.1170  -34.2760 C   0  0  0  0  0  0  0  0  0  0  0  0
   -4.9690   20.4610  -32.0900 C   0  0  0  0  0  0  0  0  0  0  0  0
   -5.2370   21.7330  -31.6180 C   0  0  0  0  0  0  0  0  0  0  0  0
   -4.5450   22.6610  -30.9110 N   0  0  0  0  0  0  0  0  0  0  0  0
   -3.2350   22.4630  -30.4610 C   0  0  0  0  0  0  0  0  0  0  0  0
   -2.9320   21.3150  -29.9890 O   0  0  0  0  0  0  0  0  0  0  0  0
   -2.2080   23.3820  -30.4660 O   0  0  0  0  0  0  0  0  0  0  0  0
   -1.0720   23.2850  -29.6280 C   0  0  0  0  0  0  0  0  0  0  0  0
   -0.7250   24.5590  -28.9860 C   0  0  0  0  0  0  0  0  0  0  0  0
    0.2280   24.7170  -28.1750 O   0  0  0  0  0  0  0  0  0  0  0  0
   -1.4920   25.6730  -29.2820 O   0  0  0  0  0  0  0  0  0  0  0  0
   -6.7080   25.1540  -28.6390 H   0  0  0  0  0  0  0  0  0  0  0  0
   -5.1000   25.5730  -27.9880 H   0  0  0  0  0  0  0  0  0  0  0  0
   -7.3908   24.1678  -31.3906 H   0  0  0  0  0  0  0  0  0  0  0  0
   -8.4249   21.9620  -32.8241 H   0  0  0  0  0  0  0  0  0  0  0  0
   -7.8909   19.6781  -33.6500 H   0  0  0  0  0  0  0  0  0  0  0  0
   -7.1019   17.5174  -32.0006 H   0  0  0  0  0  0  0  0  0  0  0  0
   -6.7095   15.2204  -32.7645 H   0  0  0  0  0  0  0  0  0  0  0  0
   -5.0044   14.7128  -34.5182 H   0  0  0  0  0  0  0  0  0  0  0  0
   -4.0932   18.9421  -34.7113 H   0  0  0  0  0  0  0  0  0  0  0  0
   -3.9828   20.0173  -31.8887 H   0  0  0  0  0  0  0  0  0  0  0  0
   -1.2768   22.5412  -28.8439 H   0  0  0  0  0  0  0  0  0  0  0  0
   -0.2205   22.9908  -30.2591 H   0  0  0  0  0  0  0  0  0  0  0  0
   -2.2060   25.6700  -30.0280 H   0  0  0  0  0  0  0  0  0  0  0  0
  1  2  1  0
  2  3  2  0
  2  4  1  0
  4  5  2  0
  5  6  1  0
  6  7  2  0
  7  8  1  0
  8  9  2  0
  9 10  1  0
 10 11  2  0
 11 12  1  0
 12 13  2  0
 13 14  1  0
 14 15  1  0
 15 16  1  0
 16 17  1  0
 16 18  1  0
 16 19  1  0
 14 20  2  0
  9 21  1  0
 21 22  2  0
 22 23  1  0
 23 24  1  0
 24 25  2  0
 24 26  1  0
 26 27  1  0
 27 28  1  0
 28 29  2  0
 28 30  1  0
 23  4  1  0
 22  6  1  0
 20 10  1  0
  1 31  1  0
  1 32  1  0
  5 33  1  0
  7 34  1  0
  8 35  1  0
 11 36  1  0
 12 37  1  0
 13 38  1  0
 20 39  1  0
 21 40  1  0
 27 41  1  0
 27 42  1  0
 30 43  1  0
M  END
>  <smiles>  (43) 
NC(=O)c1cc2ccc(-c3cccc(OC(F)(F)F)c3)cc2n1C(=O)OCC(=O)O

>  <score_type>  (43) 
oracle

>  <origin>  (43) 
adg

>  <m_score__min__energy>  (43) 
-9.8000000000000007

>  <m_primary>  (43) 
energy

$$$$
46:0
     RDKit          3D

 39 40  0  0  0  0  0  0  0  0999 V2000
   -0.7230   21.2670  -32.0050 N   0  0  0  0  0  0  0  0  0  0  0  0
   -1.4760   21.1710  -33.2400 C   0  0  0  0  0  0  0  0  0  0  0  0
   -0.8540   21.5130  -34.2570 O   0  0  0  0  0  0  0  0  0  0  0  0
   -2.8410   20.7010  -33.1780 C   0  0  0  0  0  0  0  0  0  0  0  0
   -3.2400   19.4650  -33.6820 C   0  0  0  0  0  0  0  0  0  0  0  0
   -4.5880   19.2920  -33.4830 C   0  0  0  0  0  0  0  0  0  0  0  0
   -5.4450   18.2570  -33.7950 C   0  0  0  0  0  0  0  0  0  0  0  0
   -6.7830   18.3480  -33.4720 C   0  0  0  0  0  0  0  0  0  0  0  0
   -7.2330   19.4710  -32.8440 C   0  0  0  0  0  0  0  0  0  0  0  0
   -8.6650   19.5760  -32.4930 C   0  0  0  0  0  0  0  0  0  0  0  0
   -8.9210   20.7480  -31.5610 C   0  0  0  0  0  0  0  0  0  0  0  0
   -9.2970   21.8220  -32.3470 F   0  0  0  0  0  0  0  0  0  0  0  0
   -6.3540   20.5040  -32.5360 C   0  0  0  0  0  0  0  0  0  0  0  0
   -5.0090   20.4490  -32.8430 C   0  0  0  0  0  0  0  0  0  0  0  0
   -3.9480   21.2820  -32.6700 N   0  0  0  0  0  0  0  0  0  0  0  0
   -4.0330   22.5650  -32.0410 C   0  0  0  0  0  0  0  0  0  0  0  0
   -3.0190   22.9020  -31.3630 O   0  0  0  0  0  0  0  0  0  0  0  0
   -5.0640   23.4200  -32.1020 O   0  0  0  0  0  0  0  0  0  0  0  0
   -6.1240   23.7570  -31.3560 C   0  0  0  0  0  0  0  0  0  0  0  0
   -6.1510   24.7310  -30.2760 C   0  0  0  0  0  0  0  0  0  0  0  0
   -5.3070   25.9590  -30.4600 C   0  0  0  0  0  0  0  0  0  0  0  0
   -3.9770   25.6270  -30.6040 O   0  0  0  0  0  0  0  0  0  0  0  0
    0.2360   20.8620  -31.9470 H   0  0  0  0  0  0  0  0  0  0  0  0
   -1.1970   21.7530  -31.2120 H   0  0  0  0  0  0  0  0  0  0  0  0
   -2.5744   18.7359  -34.1672 H   0  0  0  0  0  0  0  0  0  0  0  0
   -5.0614   17.3590  -34.3014 H   0  0  0  0  0  0  0  0  0  0  0  0
   -7.4748   17.5286  -33.7170 H   0  0  0  0  0  0  0  0  0  0  0  0
   -9.2502   19.7161  -33.4138 H   0  0  0  0  0  0  0  0  0  0  0  0
   -8.9647   18.6513  -31.9780 H   0  0  0  0  0  0  0  0  0  0  0  0
   -9.7260   20.4984  -30.8542 H   0  0  0  0  0  0  0  0  0  0  0  0
   -8.0191   20.9876  -30.9787 H   0  0  0  0  0  0  0  0  0  0  0  0
   -6.7451   21.3983  -32.0288 H   0  0  0  0  0  0  0  0  0  0  0  0
   -6.8789   24.1076  -32.0751 H   0  0  0  0  0  0  0  0  0  0  0  0
   -6.2326   22.8332  -30.7688 H   0  0  0  0  0  0  0  0  0  0  0  0
   -7.1933   25.0581  -30.1470 H   0  0  0  0  0  0  0  0  0  0  0  0
   -5.7238   24.2120  -29.4053 H   0  0  0  0  0  0  0  0  0  0  0  0
   -5.6434   26.4952  -31.3596 H   0  0  0  0  0  0  0  0  0  0  0  0
   -5.4150   26.5953  -29.5692 H   0  0  0  0  0  0  0  0  0  0  0  0
   -3.7710   24.9300  -31.2620 H   0  0  0  0  0  0  0  0  0  0  0  0
  1  2  1  0
  2  3  2  0
  2  4  1  0
  4  5  2  0
  5  6  1  0
  6  7  2  0
  7  8  1  0
  8  9  2  0
  9 10  1  0
 10 11  1  0
 11 12  1  0
  9 13  1  0
 13 14  2  0
 14 15  1  0
 15 16  1  0
 16 17  2  0
 16 18  1  0
 18 19  1  0
 19 20  1  0
 20 21  1  0
 21 22  1  0
 15  4  1  0
 14  6  1  0
  1 23  1  0
  1 24  1  0
  5 25  1  0
  7 26  1  0
  8 27  1  0
 10 28  1  0
 10 29  1  0
 11 30  1  0
 11 31  1  0
 13 32  1  0
 19 33  1  0
 19 34  1  0
 20 35  1  0
 20 36  1  0
 21 37  1  0
 21 38  1  0
 22 39  1  0
M  END
>  <smiles>  (44) 
NC(=O)c1cc2ccc(CCF)cc2n1C(=O)OCCCO

>  <score_type>  (44) 
oracle

>  <origin>  (44) 
adg

>  <m_score__min__energy>  (44) 
-7.6900000000000004

>  <m_primary>  (44) 
energy

$$$$
48:0
     RDKit          3D

 39 40  0  0  1  0  0  0  0  0999 V2000
   -6.4690   17.4070  -34.2060 C   0  0  0  0  0  0  0  0  0  0  0  0
   -5.5760   18.3190  -33.4130 N   0  0  0  0  0  0  0  0  0  0  0  0
   -4.2340   17.8770  -33.3730 C   0  0  0  0  0  0  0  0  0  0  0  0
   -3.0980   18.6640  -33.8760 C   0  0  1  0  0  0  0  0  0  0  0  0
   -3.3480   20.0370  -33.9610 O   0  0  0  0  0  0  0  0  0  0  0  0
   -2.0350   18.5900  -32.7220 C   0  0  0  0  0  0  0  0  0  0  0  0
   -2.1100   19.7790  -31.9940 O   0  0  0  0  0  0  0  0  0  0  0  0
   -6.2180   19.4310  -32.8580 C   0  0  0  0  0  0  0  0  0  0  0  0
   -7.5710   19.6190  -32.7320 C   0  0  0  0  0  0  0  0  0  0  0  0
   -8.1480   20.7630  -32.2050 C   0  0  0  0  0  0  0  0  0  0  0  0
   -7.3120   21.7630  -31.7840 C   0  0  0  0  0  0  0  0  0  0  0  0
   -7.6000   22.9860  -31.2300 C   0  0  0  0  0  0  0  0  0  0  0  0
   -6.3820   23.6390  -30.9760 C   0  0  0  0  0  0  0  0  0  0  0  0
   -6.3600   24.9550  -30.3900 C   0  0  0  0  0  0  0  0  0  0  0  0
   -5.3470   25.9290  -30.4690 N   0  0  0  0  0  0  0  0  0  0  0  0
   -7.3860   25.3110  -29.7010 O   0  0  0  0  0  0  0  0  0  0  0  0
   -5.4060   22.8130  -31.3740 N   0  0  0  0  0  0  0  0  0  0  0  0
   -4.0120   23.0540  -31.3070 C   0  0  0  0  0  0  0  0  0  0  0  0
   -3.4760   24.0760  -30.8180 O   0  0  0  0  0  0  0  0  0  0  0  0
   -3.0990   22.1140  -31.8130 O   0  0  0  0  0  0  0  0  0  0  0  0
   -5.9490   21.6560  -31.8730 C   0  0  0  0  0  0  0  0  0  0  0  0
   -5.4340   20.5030  -32.4040 C   0  0  0  0  0  0  0  0  0  0  0  0
   -7.0698   16.7934  -33.5186 H   0  0  0  0  0  0  0  0  0  0  0  0
   -7.1372   18.0084  -34.8400 H   0  0  0  0  0  0  0  0  0  0  0  0
   -5.8537   16.7516  -34.8400 H   0  0  0  0  0  0  0  0  0  0  0  0
   -4.0154   17.6800  -32.3131 H   0  0  0  0  0  0  0  0  0  0  0  0
   -4.2607   17.0544  -34.1028 H   0  0  0  0  0  0  0  0  0  0  0  0
   -2.8298   18.2734  -34.8687 H   0  0  0  0  0  0  0  0  0  0  0  0
   -2.7490   20.4850  -33.3180 H   0  0  0  0  0  0  0  0  0  0  0  0
   -2.2546   17.7351  -32.0655 H   0  0  0  0  0  0  0  0  0  0  0  0
   -1.0254   18.4581  -33.1383 H   0  0  0  0  0  0  0  0  0  0  0  0
   -3.0790   19.9380  -31.8160 H   0  0  0  0  0  0  0  0  0  0  0  0
   -8.2383   18.8125  -33.0699 H   0  0  0  0  0  0  0  0  0  0  0  0
   -9.2405   20.8648  -32.1273 H   0  0  0  0  0  0  0  0  0  0  0  0
   -8.6044   23.3834  -31.0222 H   0  0  0  0  0  0  0  0  0  0  0  0
   -5.3090   26.6770  -31.2260 H   0  0  0  0  0  0  0  0  0  0  0  0
   -4.6030   25.8920  -29.7090 H   0  0  0  0  0  0  0  0  0  0  0  0
   -3.3710   21.4850  -32.5490 H   0  0  0  0  0  0  0  0  0  0  0  0
   -4.3404   20.4118  -32.4791 H   0  0  0  0  0  0  0  0  0  0  0  0
  1  2  1  0
  2  3  1  0
  3  4  1  0
  4  5  1  0
  4  6  1  0
  6  7  1  0
  2  8  1  0
  8  9  2  0
  9 10  1  0
 10 11  2  0
 11 12  1  0
 12 13  2  0
 13 14  1  0
 14 15  1  0
 14 16  2  0
 13 17  1  0
 17 18  1  0
 18 19  2  0
 18 20  1  0
 17 21  1  0
 21 22  2  0
 22  8  1  0
 21 11  1  0
  1 23  1  0
  1 24  1  0
  1 25  1  0
  3 26  1  0
  3 27  1  0
  4 28  1  6
  5 29  1  0
  6 30  1  0
  6 31  1  0
  7 32  1  0
  9 33  1  0
 10 34  1  0
 12 35  1  0
 15 36  1  0
 15 37  1  0
 20 38  1  0
 22 39  1  0
M  END
>  <smiles>  (45) 
CN(CC(O)CO)c1ccc2cc(C(N)=O)n(C(=O)O)c2c1

>  <score_type>  (45) 
oracle

>  <origin>  (45) 
adg

>  <m_score__min__energy>  (45) 
-7.1600000000000001

>  <m_primary>  (45) 
energy

$$$$
49:0
     RDKit          3D

 39 40  0  0  0  0  0  0  0  0999 V2000
   -4.2730   18.7910  -33.4150 C   0  0  0  0  0  0  0  0  0  0  0  0
   -5.5280   18.1900  -33.6330 N   0  0  0  0  0  0  0  0  0  0  0  0
   -5.7560   17.7200  -34.9800 C   0  0  0  0  0  0  0  0  0  0  0  0
   -6.1190   17.4160  -32.6260 C   0  0  0  0  0  0  0  0  0  0  0  0
   -7.5640   17.5480  -32.3480 C   0  0  0  0  0  0  0  0  0  0  0  0
   -8.2450   18.6390  -32.9890 N   0  0  0  0  0  0  0  0  0  0  0  0
   -8.0780   19.9370  -32.4280 C   0  0  0  0  0  0  0  0  0  0  0  0
   -9.1840   20.7060  -32.1450 C   0  0  0  0  0  0  0  0  0  0  0  0
   -9.0190   21.9580  -31.5960 C   0  0  0  0  0  0  0  0  0  0  0  0
   -7.7570   22.4300  -31.3350 C   0  0  0  0  0  0  0  0  0  0  0  0
   -7.3190   23.6150  -30.8010 C   0  0  0  0  0  0  0  0  0  0  0  0
   -5.9180   23.6050  -30.7410 C   0  0  0  0  0  0  0  0  0  0  0  0
   -5.1630   24.7230  -30.2160 C   0  0  0  0  0  0  0  0  0  0  0  0
   -5.3950   25.1570  -28.8680 N   0  0  0  0  0  0  0  0  0  0  0  0
   -4.2950   25.3750  -30.8380 O   0  0  0  0  0  0  0  0  0  0  0  0
   -5.5190   22.4230  -31.2350 N   0  0  0  0  0  0  0  0  0  0  0  0
   -4.1870   21.9650  -31.3710 C   0  0  0  0  0  0  0  0  0  0  0  0
   -3.7530   20.8590  -30.9890 O   0  0  0  0  0  0  0  0  0  0  0  0
   -3.2260   22.7930  -31.9870 O   0  0  0  0  0  0  0  0  0  0  0  0
   -6.6190   21.6990  -31.6000 C   0  0  0  0  0  0  0  0  0  0  0  0
   -6.8090   20.4480  -32.1500 C   0  0  0  0  0  0  0  0  0  0  0  0
   -4.0911   18.8781  -32.3337 H   0  0  0  0  0  0  0  0  0  0  0  0
   -3.4860   18.1721  -33.8705 H   0  0  0  0  0  0  0  0  0  0  0  0
   -4.2618   19.7922  -33.8705 H   0  0  0  0  0  0  0  0  0  0  0  0
   -6.2359   16.7308  -34.9469 H   0  0  0  0  0  0  0  0  0  0  0  0
   -6.4109   18.4277  -35.5094 H   0  0  0  0  0  0  0  0  0  0  0  0
   -4.7948   17.6437  -35.5094 H   0  0  0  0  0  0  0  0  0  0  0  0
   -5.9406   16.3628  -32.8884 H   0  0  0  0  0  0  0  0  0  0  0  0
   -5.6480   17.7933  -31.7063 H   0  0  0  0  0  0  0  0  0  0  0  0
   -8.0521   16.6156  -32.6681 H   0  0  0  0  0  0  0  0  0  0  0  0
   -7.6344   17.7551  -31.2700 H   0  0  0  0  0  0  0  0  0  0  0  0
   -8.8530   18.5610  -33.8310 H   0  0  0  0  0  0  0  0  0  0  0  0
  -10.1933   20.3228  -32.3561 H   0  0  0  0  0  0  0  0  0  0  0  0
   -9.8975   22.5790  -31.3669 H   0  0  0  0  0  0  0  0  0  0  0  0
   -7.9647   24.4425  -30.4718 H   0  0  0  0  0  0  0  0  0  0  0  0
   -4.6730   25.6480  -28.3080 H   0  0  0  0  0  0  0  0  0  0  0  0
   -6.3200   24.9860  -28.4030 H   0  0  0  0  0  0  0  0  0  0  0  0
   -3.3750   23.7940  -31.9590 H   0  0  0  0  0  0  0  0  0  0  0  0
   -5.9278   19.8303  -32.3779 H   0  0  0  0  0  0  0  0  0  0  0  0
  1  2  1  0
  2  3  1  0
  2  4  1  0
  4  5  1  0
  5  6  1  0
  6  7  1  0
  7  8  2  0
  8  9  1  0
  9 10  2  0
 10 11  1  0
 11 12  2  0
 12 13  1  0
 13 14  1  0
 13 15  2  0
 12 16  1  0
 16 17  1  0
 17 18  2  0
 17 19  1  0
 16 20  1  0
 20 21  2  0
 21  7  1  0
 20 10  1  0
  1 22  1  0
  1 23  1  0
  1 24  1  0
  3 25  1  0
  3 26  1  0
  3 27  1  0
  4 28  1  0
  4 29  1  0
  5 30  1  0
  5 31  1  0
  6 32  1  0
  8 33  1  0
  9 34  1  0
 11 35  1  0
 14 36  1  0
 14 37  1  0
 19 38  1  0
 21 39  1  0
M  END
>  <smiles>  (46) 
CN(C)CCNc1ccc2cc(C(N)=O)n(C(=O)O)c2c1

>  <score_type>  (46) 
oracle

>  <origin>  (46) 
adg

>  <m_score__min__energy>  (46) 
-8.2400000000000002

>  <m_primary>  (46) 
energy

$$$$
50:0
     RDKit          3D

 58 60  0  0  0  0  0  0  0  0999 V2000
   -8.8090   21.4530  -31.2490 C   0  0  0  0  0  0  0  0  0  0  0  0
   -7.5730   21.0120  -31.6820 O   0  0  0  0  0  0  0  0  0  0  0  0
   -7.6130   20.1800  -32.7850 C   0  0  2  0  0  0  0  0  0  0  0  0
   -7.5450   18.7280  -32.2970 C   0  0  0  0  0  0  0  0  0  0  0  0
   -6.1120   18.6360  -31.8210 C   0  0  1  0  0  0  0  0  0  0  0  0
   -5.4850   17.3920  -32.4040 C   0  0  0  0  0  0  0  0  0  0  0  0
   -5.9720   17.1170  -33.6890 O   0  0  0  0  0  0  0  0  0  0  0  0
   -5.2620   17.5030  -34.8400 C   0  0  0  0  0  0  0  0  0  0  0  0
   -4.1610   16.9720  -35.1290 O   0  0  0  0  0  0  0  0  0  0  0  0
   -5.7400   18.4790  -35.7040 O   0  0  0  0  0  0  0  0  0  0  0  0
   -5.4280   19.7920  -32.3360 N   0  0  0  0  0  0  0  0  0  0  0  0
   -4.2160   20.3620  -31.8680 C   0  0  0  0  0  0  0  0  0  0  0  0
   -3.0080   19.7620  -32.1470 C   0  0  0  0  0  0  0  0  0  0  0  0
   -1.8400   20.3290  -31.6850 C   0  0  0  0  0  0  0  0  0  0  0  0
   -1.9000   21.4980  -30.9450 C   0  0  0  0  0  0  0  0  0  0  0  0
   -0.9210   22.2510  -30.3830 C   0  0  0  0  0  0  0  0  0  0  0  0
   -1.5000   23.3520  -29.7300 C   0  0  0  0  0  0  0  0  0  0  0  0
   -0.7070   24.3410  -29.0330 C   0  0  0  0  0  0  0  0  0  0  0  0
   -1.2750   25.6440  -28.7670 N   0  0  0  0  0  0  0  0  0  0  0  0
    0.4630   24.1910  -28.6160 O   0  0  0  0  0  0  0  0  0  0  0  0
   -2.8260   23.2500  -29.9090 N   0  0  0  0  0  0  0  0  0  0  0  0
   -3.8220   24.1370  -29.4290 C   0  0  0  0  0  0  0  0  0  0  0  0
   -3.9830   24.4560  -28.2300 O   0  0  0  0  0  0  0  0  0  0  0  0
   -4.7130   24.7230  -30.3270 O   0  0  0  0  0  0  0  0  0  0  0  0
   -6.0640   24.3280  -30.4240 C   0  0  0  0  0  0  0  0  0  0  0  0
   -6.5430   24.1560  -31.8340 C   0  0  0  0  0  0  0  0  0  0  0  0
   -6.3520   23.0540  -29.6650 C   0  0  0  0  0  0  0  0  0  0  0  0
   -6.8690   25.4370  -29.7820 C   0  0  0  0  0  0  0  0  0  0  0  0
   -3.0920   22.1320  -30.6440 C   0  0  0  0  0  0  0  0  0  0  0  0
   -4.2390   21.5350  -31.1230 C   0  0  0  0  0  0  0  0  0  0  0  0
   -6.2290   20.2730  -33.4440 C   0  0  0  0  0  0  0  0  0  0  0  0
   -8.8309   21.4608  -30.1492 H   0  0  0  0  0  0  0  0  0  0  0  0
   -8.9882   22.4705  -31.6265 H   0  0  0  0  0  0  0  0  0  0  0  0
   -9.5918   20.7787  -31.6265 H   0  0  0  0  0  0  0  0  0  0  0  0
   -8.4874   20.4353  -33.4016 H   0  0  0  0  0  0  0  0  0  0  0  0
   -8.2536   18.5467  -31.4754 H   0  0  0  0  0  0  0  0  0  0  0  0
   -7.8116   17.9847  -33.0629 H   0  0  0  0  0  0  0  0  0  0  0  0
   -6.0533   18.5939  -30.7234 H   0  0  0  0  0  0  0  0  0  0  0  0
   -4.3957   17.5346  -32.4590 H   0  0  0  0  0  0  0  0  0  0  0  0
   -5.7402   16.5431  -31.7527 H   0  0  0  0  0  0  0  0  0  0  0  0
   -6.7300   18.7100  -35.6950 H   0  0  0  0  0  0  0  0  0  0  0  0
   -2.9757   18.8338  -32.7363 H   0  0  0  0  0  0  0  0  0  0  0  0
   -0.8700   19.8578  -31.9018 H   0  0  0  0  0  0  0  0  0  0  0  0
    0.1562   22.0336  -30.4311 H   0  0  0  0  0  0  0  0  0  0  0  0
   -0.6760   26.5040  -28.8640 H   0  0  0  0  0  0  0  0  0  0  0  0
   -2.2750   25.7500  -28.4770 H   0  0  0  0  0  0  0  0  0  0  0  0
   -7.5783   23.7843  -31.8268 H   0  0  0  0  0  0  0  0  0  0  0  0
   -6.5046   25.1241  -32.3549 H   0  0  0  0  0  0  0  0  0  0  0  0
   -5.8976   23.4335  -32.3549 H   0  0  0  0  0  0  0  0  0  0  0  0
   -6.3070   23.2530  -28.5841 H   0  0  0  0  0  0  0  0  0  0  0  0
   -7.3554   22.6887  -29.9291 H   0  0  0  0  0  0  0  0  0  0  0  0
   -5.6033   22.2926  -29.9291 H   0  0  0  0  0  0  0  0  0  0  0  0
   -6.8056   25.3496  -28.6873 H   0  0  0  0  0  0  0  0  0  0  0  0
   -6.4664   26.4113  -30.0960 H   0  0  0  0  0  0  0  0  0  0  0  0
   -7.9201   25.3561  -30.0960 H   0  0  0  0  0  0  0  0  0  0  0  0
   -5.2097   22.0053  -30.9071 H   0  0  0  0  0  0  0  0  0  0  0  0
   -5.9719   21.3054  -33.7233 H   0  0  0  0  0  0  0  0  0  0  0  0
   -6.1134   19.7233  -34.3898 H   0  0  0  0  0  0  0  0  0  0  0  0
  1  2  1  0
  2  3  1  0
  3  4  1  0
  4  5  1  0
  5  6  1  0
  6  7  1  0
  7  8  1  0
  8  9  2  0
  8 10  1  0
  5 11  1  0
 11 12  1  0
 12 13  2  0
 13 14  1  0
 14 15  2  0
 15 16  1  0
 16 17  2  0
 17 18  1  0
 18 19  1  0
 18 20  2  0
 17 21  1  0
 21 22  1  0
 22 23  2  0
 22 24  1  0
 24 25  1  0
 25 26  1  0
 25 27  1  0
 25 28  1  0
 21 29  1  0
 29 30  2  0
 11 31  1  0
 31  3  1  0
 30 12  1  0
 29 15  1  0
  1 32  1  0
  1 33  1  0
  1 34  1  0
  3 35  1  6
  4 36  1  0
  4 37  1  0
  5 38  1  1
  6 39  1  0
  6 40  1  0
 10 41  1  0
 13 42  1  0
 14 43  1  0
 16 44  1  0
 19 45  1  0
 19 46  1  0
 26 47  1  0
 26 48  1  0
 26 49  1  0
 27 50  1  0
 27 51  1  0
 27 52  1  0
 28 53  1  0
 28 54  1  0
 28 55  1  0
 30 56  1  0
 31 57  1  0
 31 58  1  0
M  END
>  <smiles>  (47) 
CO[C@@H]1C[C@@H](COC(=O)O)N(c2ccc3cc(C(N)=O)n(C(=O)OC(C)(C)C)c3c2)C1

>  <score_type>  (47) 
oracle

>  <origin>  (47) 
adg

>  <m_score__min__energy>  (47) 
-8.5099999999999998

>  <m_primary>  (47) 
energy

$$$$
51:0
     RDKit          3D

 45 46  0  0  1  0  0  0  0  0999 V2000
   -0.4880   24.5910  -27.0360 C   0  0  0  0  0  0  0  0  0  0  0  0
   -1.7080   23.7570  -27.3560 C   0  0  1  0  0  0  0  0  0  0  0  0
   -2.5430   24.5360  -28.3030 C   0  0  0  0  0  0  0  0  0  0  0  0
   -3.8060   24.5450  -28.1690 O   0  0  0  0  0  0  0  0  0  0  0  0
   -2.0300   25.2690  -29.3490 O   0  0  0  0  0  0  0  0  0  0  0  0
   -1.3420   22.4530  -27.8870 N   0  0  0  0  0  0  0  0  0  0  0  0
   -0.7030   21.4420  -27.0680 C   0  0  0  0  0  0  0  0  0  0  0  0
   -1.6550   22.2370  -29.2730 C   0  0  0  0  0  0  0  0  0  0  0  0
   -0.9550   22.8310  -30.1030 O   0  0  0  0  0  0  0  0  0  0  0  0
   -2.7790   21.3300  -29.5640 C   0  0  0  0  0  0  0  0  0  0  0  0
   -3.2770   21.6700  -30.8710 O   0  0  0  0  0  0  0  0  0  0  0  0
   -4.0700   22.7860  -31.0570 C   0  0  0  0  0  0  0  0  0  0  0  0
   -3.4230   23.8860  -31.1270 O   0  0  0  0  0  0  0  0  0  0  0  0
   -5.4760   22.7980  -31.1680 N   0  0  0  0  0  0  0  0  0  0  0  0
   -6.3550   23.7370  -30.7960 C   0  0  0  0  0  0  0  0  0  0  0  0
   -6.1190   25.0140  -30.1680 C   0  0  0  0  0  0  0  0  0  0  0  0
   -4.8790   25.7150  -30.4280 N   0  0  0  0  0  0  0  0  0  0  0  0
   -6.8950   25.6120  -29.3900 O   0  0  0  0  0  0  0  0  0  0  0  0
   -7.6450   23.2930  -31.1150 C   0  0  0  0  0  0  0  0  0  0  0  0
   -7.5300   22.0600  -31.6920 C   0  0  0  0  0  0  0  0  0  0  0  0
   -8.4890   21.2000  -32.1820 C   0  0  0  0  0  0  0  0  0  0  0  0
   -8.1320   20.0060  -32.7200 C   0  0  0  0  0  0  0  0  0  0  0  0
   -6.7990   19.6690  -32.7690 C   0  0  0  0  0  0  0  0  0  0  0  0
   -6.4040   18.3700  -33.3530 C   0  0  0  0  0  0  0  0  0  0  0  0
   -5.6950   17.5890  -32.4620 F   0  0  0  0  0  0  0  0  0  0  0  0
   -5.6530   18.4940  -34.4880 F   0  0  0  0  0  0  0  0  0  0  0  0
   -5.8350   20.5480  -32.2700 C   0  0  0  0  0  0  0  0  0  0  0  0
   -6.1880   21.7720  -31.7170 C   0  0  0  0  0  0  0  0  0  0  0  0
   -0.3734   24.6694  -25.9448 H   0  0  0  0  0  0  0  0  0  0  0  0
    0.4053   24.1137  -27.4652 H   0  0  0  0  0  0  0  0  0  0  0  0
   -0.6084   25.5966  -27.4652 H   0  0  0  0  0  0  0  0  0  0  0  0
   -2.2811   23.5485  -26.4405 H   0  0  0  0  0  0  0  0  0  0  0  0
   -1.6740   24.8890  -30.2080 H   0  0  0  0  0  0  0  0  0  0  0  0
   -0.8544   21.6816  -26.0051 H   0  0  0  0  0  0  0  0  0  0  0  0
   -1.1440   20.4587  -27.2887 H   0  0  0  0  0  0  0  0  0  0  0  0
    0.3744   21.4185  -27.2887 H   0  0  0  0  0  0  0  0  0  0  0  0
   -2.4326   20.2860  -29.5531 H   0  0  0  0  0  0  0  0  0  0  0  0
   -3.5699   21.4351  -28.8068 H   0  0  0  0  0  0  0  0  0  0  0  0
   -3.9810   25.2570  -30.2050 H   0  0  0  0  0  0  0  0  0  0  0  0
   -4.9960   26.6650  -30.8350 H   0  0  0  0  0  0  0  0  0  0  0  0
   -8.5824   23.8393  -30.9334 H   0  0  0  0  0  0  0  0  0  0  0  0
   -9.5510   21.4831  -32.1368 H   0  0  0  0  0  0  0  0  0  0  0  0
   -8.8966   19.3185  -33.1108 H   0  0  0  0  0  0  0  0  0  0  0  0
   -7.3588   17.8853  -33.6048 H   0  0  0  0  0  0  0  0  0  0  0  0
   -4.7731   20.2646  -32.3160 H   0  0  0  0  0  0  0  0  0  0  0  0
  1  2  1  0
  2  3  1  0
  3  4  2  0
  3  5  1  0
  2  6  1  0
  6  7  1  0
  6  8  1  0
  8  9  2  0
  8 10  1  0
 10 11  1  0
 11 12  1  0
 12 13  2  0
 12 14  1  0
 14 15  1  0
 15 16  1  0
 16 17  1  0
 16 18  2  0
 15 19  2  0
 19 20  1  0
 20 21  2  0
 21 22  1  0
 22 23  2  0
 23 24  1  0
 24 25  1  0
 24 26  1  0
 23 27  1  0
 27 28  2  0
 28 14  1  0
 28 20  1  0
  1 29  1  0
  1 30  1  0
  1 31  1  0
  2 32  1  1
  5 33  1  0
  7 34  1  0
  7 35  1  0
  7 36  1  0
 10 37  1  0
 10 38  1  0
 17 39  1  0
 17 40  1  0
 19 41  1  0
 21 42  1  0
 22 43  1  0
 24 44  1  0
 27 45  1  0
M  END
>  <smiles>  (48) 
CC(C(=O)O)N(C)C(=O)COC(=O)n1c(C(N)=O)cc2ccc(C(F)F)cc21

>  <score_type>  (48) 
oracle

>  <origin>  (48) 
adg

>  <m_score__min__energy>  (48) 
-8.8800000000000008

>  <m_primary>  (48) 
energy

$$$$
52:0
     RDKit          3D

 31 32  0  0  0  0  0  0  0  0999 V2000
   -6.0920   18.2330  -34.6460 C   0  0  0  0  0  0  0  0  0  0  0  0
   -6.8220   18.3000  -33.3720 N   0  0  0  0  0  0  0  0  0  0  0  0
   -7.2860   17.0760  -32.7370 C   0  0  0  0  0  0  0  0  0  0  0  0
   -7.0730   19.5590  -32.7590 C   0  0  0  0  0  0  0  0  0  0  0  0
   -8.3660   19.9120  -32.4350 C   0  0  0  0  0  0  0  0  0  0  0  0
   -8.5940   21.1310  -31.8450 C   0  0  0  0  0  0  0  0  0  0  0  0
   -7.5130   21.9690  -31.5940 C   0  0  0  0  0  0  0  0  0  0  0  0
   -7.4620   23.2150  -31.0270 C   0  0  0  0  0  0  0  0  0  0  0  0
   -6.1270   23.6530  -30.9940 C   0  0  0  0  0  0  0  0  0  0  0  0
   -5.7470   24.9360  -30.4490 C   0  0  0  0  0  0  0  0  0  0  0  0
   -6.5160   25.4870  -29.3570 N   0  0  0  0  0  0  0  0  0  0  0  0
   -4.7970   25.6500  -30.8280 O   0  0  0  0  0  0  0  0  0  0  0  0
   -5.3970   22.6690  -31.5380 N   0  0  0  0  0  0  0  0  0  0  0  0
   -3.9960   22.6510  -31.7230 C   0  0  0  0  0  0  0  0  0  0  0  0
   -3.4630   21.6820  -32.3720 O   0  0  0  0  0  0  0  0  0  0  0  0
   -3.1070   23.5930  -31.2640 O   0  0  0  0  0  0  0  0  0  0  0  0
   -6.2200   21.6430  -31.9070 C   0  0  0  0  0  0  0  0  0  0  0  0
   -6.0140   20.4090  -32.5010 C   0  0  0  0  0  0  0  0  0  0  0  0
   -5.0148   18.1341  -34.4466 H   0  0  0  0  0  0  0  0  0  0  0  0
   -6.4396   17.3630  -35.2224 H   0  0  0  0  0  0  0  0  0  0  0  0
   -6.2754   19.1518  -35.2224 H   0  0  0  0  0  0  0  0  0  0  0  0
   -7.2425   17.1908  -31.6439 H   0  0  0  0  0  0  0  0  0  0  0  0
   -8.3230   16.8743  -33.0435 H   0  0  0  0  0  0  0  0  0  0  0  0
   -6.6433   16.2375  -33.0435 H   0  0  0  0  0  0  0  0  0  0  0  0
   -9.2014   19.2282  -32.6457 H   0  0  0  0  0  0  0  0  0  0  0  0
   -9.6149   21.4394  -31.5754 H   0  0  0  0  0  0  0  0  0  0  0  0
   -8.3283   23.7826  -30.6564 H   0  0  0  0  0  0  0  0  0  0  0  0
   -7.2990   26.1530  -29.5570 H   0  0  0  0  0  0  0  0  0  0  0  0
   -6.2900   25.2220  -28.3620 H   0  0  0  0  0  0  0  0  0  0  0  0
   -3.0840   24.5490  -31.5840 H   0  0  0  0  0  0  0  0  0  0  0  0
   -4.9932   20.1010  -32.7713 H   0  0  0  0  0  0  0  0  0  0  0  0
  1  2  1  0
  2  3  1  0
  2  4  1  0
  4  5  2  0
  5  6  1  0
  6  7  2  0
  7  8  1  0
  8  9  2  0
  9 10  1  0
 10 11  1  0
 10 12  2  0
  9 13  1  0
 13 14  1  0
 14 15  2  0
 14 16  1  0
 13 17  1  0
 17 18  2  0
 18  4  1  0
 17  7  1  0
  1 19  1  0
  1 20  1  0
  1 21  1  0
  3 22  1  0
  3 23  1  0
  3 24  1  0
  5 25  1  0
  6 26  1  0
  8 27  1  0
 11 28  1  0
 11 29  1  0
 16 30  1  0
 18 31  1  0
M  END
>  <smiles>  (49) 
CN(C)c1ccc2cc(C(N)=O)n(C(=O)O)c2c1

>  <score_type>  (49) 
oracle

>  <origin>  (49) 
adg

>  <m_score__min__energy>  (49) 
-7.3600000000000003

>  <m_primary>  (49) 
energy

$$$$
53:0
     RDKit          3D

 51 53  0  0  0  0  0  0  0  0999 V2000
    1.4020   17.1760  -28.6360 C   0  0  0  0  0  0  0  0  0  0  0  0
    0.2550   18.0620  -28.2260 C   0  0  0  0  0  0  0  0  0  0  0  0
   -0.4820   17.7810  -27.0950 C   0  0  0  0  0  0  0  0  0  0  0  0
   -1.5250   18.6110  -26.7460 C   0  0  0  0  0  0  0  0  0  0  0  0
   -1.8090   19.7070  -27.5370 C   0  0  0  0  0  0  0  0  0  0  0  0
   -2.7740   20.6780  -27.4210 C   0  0  0  0  0  0  0  0  0  0  0  0
   -2.6460   21.5810  -28.4860 C   0  0  0  0  0  0  0  0  0  0  0  0
   -3.5280   22.7170  -28.6340 C   0  0  0  0  0  0  0  0  0  0  0  0
   -2.9730   24.0120  -28.9600 N   0  0  0  0  0  0  0  0  0  0  0  0
   -4.7730   22.7060  -28.5050 O   0  0  0  0  0  0  0  0  0  0  0  0
   -1.6160   21.1590  -29.2370 N   0  0  0  0  0  0  0  0  0  0  0  0
   -1.1190   21.7480  -30.4080 C   0  0  0  0  0  0  0  0  0  0  0  0
   -0.8890   23.0120  -30.4160 O   0  0  0  0  0  0  0  0  0  0  0  0
   -0.8370   21.1090  -31.5910 O   0  0  0  0  0  0  0  0  0  0  0  0
   -1.8020   20.3300  -32.2920 C   0  0  0  0  0  0  0  0  0  0  0  0
   -3.0060   20.1930  -31.5800 O   0  0  0  0  0  0  0  0  0  0  0  0
   -4.2570   20.3860  -32.1450 C   0  0  0  0  0  0  0  0  0  0  0  0
   -4.6680   19.4970  -32.9390 O   0  0  0  0  0  0  0  0  0  0  0  0
   -5.0540   21.5780  -31.8240 C   0  0  0  0  0  0  0  0  0  0  0  0
   -6.3450   21.6590  -31.7390 N   0  0  0  0  0  0  0  0  0  0  0  0
   -7.2750   20.5440  -31.9530 C   0  0  0  0  0  0  0  0  0  0  0  0
   -6.7170   23.0080  -31.4040 C   0  0  0  0  0  0  0  0  0  0  0  0
   -7.8780   23.4530  -31.2400 O   0  0  0  0  0  0  0  0  0  0  0  0
   -5.4600   23.7370  -31.2970 C   0  0  0  0  0  0  0  0  0  0  0  0
   -5.4000   25.1860  -30.9600 C   0  0  1  0  0  0  0  0  0  0  0  0
   -6.1530   25.4720  -29.6800 C   0  0  0  0  0  0  0  0  0  0  0  0
   -4.0870   25.6000  -30.7400 O   0  0  0  0  0  0  0  0  0  0  0  0
   -4.4740   22.8890  -31.5460 C   0  0  0  0  0  0  0  0  0  0  0  0
   -3.1200   23.2520  -31.5300 O   0  0  0  0  0  0  0  0  0  0  0  0
   -1.1010   20.0260  -28.6740 C   0  0  0  0  0  0  0  0  0  0  0  0
   -0.0580   19.1790  -29.0050 C   0  0  0  0  0  0  0  0  0  0  0  0
    1.9046   16.7877  -27.7379 H   0  0  0  0  0  0  0  0  0  0  0  0
    1.0205   16.3358  -29.2348 H   0  0  0  0  0  0  0  0  0  0  0  0
    2.1186   17.7574  -29.2348 H   0  0  0  0  0  0  0  0  0  0  0  0
   -0.2398   16.9033  -26.4778 H   0  0  0  0  0  0  0  0  0  0  0  0
   -2.1247   18.4031  -25.8476 H   0  0  0  0  0  0  0  0  0  0  0  0
   -3.5265   20.7375  -26.6208 H   0  0  0  0  0  0  0  0  0  0  0  0
   -2.9280   24.7540  -28.2260 H   0  0  0  0  0  0  0  0  0  0  0  0
   -2.6390   24.1340  -29.9410 H   0  0  0  0  0  0  0  0  0  0  0  0
   -2.0156   20.8168  -33.2550 H   0  0  0  0  0  0  0  0  0  0  0  0
   -1.3806   19.3235  -32.4310 H   0  0  0  0  0  0  0  0  0  0  0  0
   -7.6042   20.1493  -30.9805 H   0  0  0  0  0  0  0  0  0  0  0  0
   -8.1486   20.8988  -32.5195 H   0  0  0  0  0  0  0  0  0  0  0  0
   -6.7692   19.7482  -32.5195 H   0  0  0  0  0  0  0  0  0  0  0  0
   -5.8428   25.7205  -31.8134 H   0  0  0  0  0  0  0  0  0  0  0  0
   -5.5150   25.2297  -28.8173 H   0  0  0  0  0  0  0  0  0  0  0  0
   -6.4269   26.5368  -29.6458 H   0  0  0  0  0  0  0  0  0  0  0  0
   -7.0647   24.8575  -29.6458 H   0  0  0  0  0  0  0  0  0  0  0  0
   -3.5220   24.9280  -31.2150 H   0  0  0  0  0  0  0  0  0  0  0  0
   -2.4420   22.5510  -31.8130 H   0  0  0  0  0  0  0  0  0  0  0  0
    0.5397   19.3903  -29.9039 H   0  0  0  0  0  0  0  0  0  0  0  0
  1  2  1  0
  2  3  2  0
  3  4  1  0
  4  5  2  0
  5  6  1  0
  6  7  2  0
  7  8  1  0
  8  9  1  0
  8 10  2  0
  7 11  1  0
 11 12  1  0
 12 13  2  0
 12 14  1  0
 14 15  1  0
 15 16  1  0
 16 17  1  0
 17 18  2  0
 17 19  1  0
 19 20  2  0
 20 21  1  0
 20 22  1  0
 22 23  2  0
 22 24  1  0
 24 25  1  0
 25 26  1  0
 25 27  1  0
 24 28  2  0
 28 29  1  0
 11 30  1  0
 30 31  2  0
 31  2  1  0
 30  5  1  0
 28 19  1  0
  1 32  1  0
  1 33  1  0
  1 34  1  0
  3 35  1  0
  4 36  1  0
  6 37  1  0
  9 38  1  0
  9 39  1  0
 15 40  1  0
 15 41  1  0
 21 42  1  0
 21 43  1  0
 21 44  1  0
 25 45  1  6
 26 46  1  0
 26 47  1  0
 26 48  1  0
 27 49  1  0
 29 50  1  0
 31 51  1  0
M  CHG  1  20   1
M  END
>  <smiles>  (50) 
Cc1ccc2cc(C(N)=O)n(C(=O)OCOC(=O)C3=[N+](C)C(=O)C([C@@H](C)O)=C3O)c2c1

>  <score_type>  (50) 
oracle

>  <origin>  (50) 
adg

>  <m_score__min__energy>  (50) 
-8.2300000000000004

>  <m_primary>  (50) 
energy

$$$$
54:0
     RDKit          3D

 48 49  0  0  0  0  0  0  0  0999 V2000
   -3.0180   25.2990  -25.9690 C   0  0  0  0  0  0  0  0  0  0  0  0
   -2.1950   24.8790  -26.9390 C   0  0  0  0  0  0  0  0  0  0  0  0
   -0.7710   24.7230  -26.6190 C   0  0  0  0  0  0  0  0  0  0  0  0
   -2.7570   24.6010  -28.2630 C   0  0  0  0  0  0  0  0  0  0  0  0
   -2.2150   25.1870  -29.2340 O   0  0  0  0  0  0  0  0  0  0  0  0
   -3.8260   23.7340  -28.3990 O   0  0  0  0  0  0  0  0  0  0  0  0
   -3.8080   22.4140  -27.9130 C   0  0  0  0  0  0  0  0  0  0  0  0
   -2.4200   21.8630  -28.0460 C   0  0  0  0  0  0  0  0  0  0  0  0
   -2.3750   20.9560  -29.2710 C   0  0  0  0  0  0  0  0  0  0  0  0
   -2.2120   21.7550  -30.5250 C   0  0  0  0  0  0  0  0  0  0  0  0
   -3.4120   21.5850  -31.3010 O   0  0  0  0  0  0  0  0  0  0  0  0
   -4.2710   22.6750  -31.2430 C   0  0  0  0  0  0  0  0  0  0  0  0
   -3.6520   23.7990  -31.1710 O   0  0  0  0  0  0  0  0  0  0  0  0
   -5.6590   22.6600  -31.2520 N   0  0  0  0  0  0  0  0  0  0  0  0
   -6.5060   23.6350  -30.8960 C   0  0  0  0  0  0  0  0  0  0  0  0
   -6.2800   24.9420  -30.3230 C   0  0  0  0  0  0  0  0  0  0  0  0
   -5.0860   25.6950  -30.3830 N   0  0  0  0  0  0  0  0  0  0  0  0
   -7.2330   25.5160  -29.6820 O   0  0  0  0  0  0  0  0  0  0  0  0
   -7.8060   23.1590  -31.1310 C   0  0  0  0  0  0  0  0  0  0  0  0
   -7.7320   21.8870  -31.6300 C   0  0  0  0  0  0  0  0  0  0  0  0
   -8.7200   21.0040  -32.0140 C   0  0  0  0  0  0  0  0  0  0  0  0
   -8.3750   19.7610  -32.4930 C   0  0  0  0  0  0  0  0  0  0  0  0
   -7.0440   19.4290  -32.5760 C   0  0  0  0  0  0  0  0  0  0  0  0
   -6.6650   18.0800  -33.0940 C   0  0  0  0  0  0  0  0  0  0  0  0
   -5.7570   18.2020  -34.6100 Cl  0  0  0  0  0  0  0  0  0  0  0  0
   -6.0600   20.3390  -32.1820 C   0  0  0  0  0  0  0  0  0  0  0  0
   -6.3900   21.5910  -31.6990 C   0  0  0  0  0  0  0  0  0  0  0  0
   -4.0910   25.4266  -26.1750 H   0  0  0  0  0  0  0  0  0  0  0  0
   -2.6208   25.5163  -24.9665 H   0  0  0  0  0  0  0  0  0  0  0  0
   -0.6400   24.7087  -25.5269 H   0  0  0  0  0  0  0  0  0  0  0  0
   -0.4007   23.7789  -27.0451 H   0  0  0  0  0  0  0  0  0  0  0  0
   -0.2051   25.5645  -27.0451 H   0  0  0  0  0  0  0  0  0  0  0  0
   -4.1077   22.4067  -26.8546 H   0  0  0  0  0  0  0  0  0  0  0  0
   -4.5100   21.7957  -28.4916 H   0  0  0  0  0  0  0  0  0  0  0  0
   -1.7033   22.6884  -28.1689 H   0  0  0  0  0  0  0  0  0  0  0  0
   -2.1530   21.2923  -27.1444 H   0  0  0  0  0  0  0  0  0  0  0  0
   -1.5268   20.2624  -29.1738 H   0  0  0  0  0  0  0  0  0  0  0  0
   -3.3227   20.4007  -29.3304 H   0  0  0  0  0  0  0  0  0  0  0  0
   -2.0708   22.8177  -30.2784 H   0  0  0  0  0  0  0  0  0  0  0  0
   -1.3317   21.4159  -31.0907 H   0  0  0  0  0  0  0  0  0  0  0  0
   -4.2900   25.3370  -29.7720 H   0  0  0  0  0  0  0  0  0  0  0  0
   -4.9860   26.5320  -30.9620 H   0  0  0  0  0  0  0  0  0  0  0  0
   -8.7344   23.7186  -30.9441 H   0  0  0  0  0  0  0  0  0  0  0  0
   -9.7788   21.2923  -31.9376 H   0  0  0  0  0  0  0  0  0  0  0  0
   -9.1508   19.0458  -32.8039 H   0  0  0  0  0  0  0  0  0  0  0  0
   -6.0424   17.5705  -32.3439 H   0  0  0  0  0  0  0  0  0  0  0  0
   -7.5868   17.5116  -33.2871 H   0  0  0  0  0  0  0  0  0  0  0  0
   -5.0005   20.0530  -32.2578 H   0  0  0  0  0  0  0  0  0  0  0  0
  1  2  2  0
  2  3  1  0
  2  4  1  0
  4  5  2  0
  4  6  1  0
  6  7  1  0
  7  8  1  0
  8  9  1  0
  9 10  1  0
 10 11  1  0
 11 12  1  0
 12 13  2  0
 12 14  1  0
 14 15  1  0
 15 16  1  0
 16 17  1  0
 16 18  2  0
 15 19  2  0
 19 20  1  0
 20 21  2  0
 21 22  1  0
 22 23  2  0
 23 24  1  0
 24 25  1  0
 23 26  1  0
 26 27  2  0
 27 14  1  0
 27 20  1  0
  1 28  1  0
  1 29  1  0
  3 30  1  0
  3 31  1  0
  3 32  1  0
  7 33  1  0
  7 34  1  0
  8 35  1  0
  8 36  1  0
  9 37  1  0
  9 38  1  0
 10 39  1  0
 10 40  1  0
 17 41  1  0
 17 42  1  0
 19 43  1  0
 21 44  1  0
 22 45  1  0
 24 46  1  0
 24 47  1  0
 26 48  1  0
M  END
>  <smiles>  (51) 
C=C(C)C(=O)OCCCCOC(=O)n1c(C(N)=O)cc2ccc(CCl)cc21

>  <score_type>  (51) 
oracle

>  <origin>  (51) 
adg

>  <m_score__min__energy>  (51) 
-9.7799999999999994

>  <m_primary>  (51) 
energy

$$$$
56:0
     RDKit          3D

 40 42  0  0  1  0  0  0  0  0999 V2000
   -5.7220   18.1070  -34.8760 C   0  0  0  0  0  0  0  0  0  0  0  0
   -6.3620   18.2150  -33.5800 N   0  0  0  0  0  0  0  0  0  0  0  0
   -6.9030   17.0380  -32.9190 C   0  0  0  0  0  0  0  0  0  0  0  0
   -6.4500   19.4940  -32.9670 C   0  0  0  0  0  0  0  0  0  0  0  0
   -7.6830   20.0920  -32.9000 C   0  0  0  0  0  0  0  0  0  0  0  0
   -7.7570   21.3300  -32.3050 C   0  0  0  0  0  0  0  0  0  0  0  0
   -6.6250   21.9300  -31.8010 C   0  0  0  0  0  0  0  0  0  0  0  0
   -6.4330   23.1340  -31.1730 C   0  0  0  0  0  0  0  0  0  0  0  0
   -5.0720   23.2900  -30.8440 C   0  0  0  0  0  0  0  0  0  0  0  0
   -4.6410   24.4620  -30.1260 C   0  0  0  0  0  0  0  0  0  0  0  0
   -4.9310   24.8230  -28.7950 N   0  0  0  0  0  0  0  0  0  0  0  0
   -3.9060   25.3020  -30.7650 O   0  0  0  0  0  0  0  0  0  0  0  0
   -4.4570   22.1880  -31.2770 N   0  0  0  0  0  0  0  0  0  0  0  0
   -3.0760   21.9040  -31.3520 C   0  0  0  0  0  0  0  0  0  0  0  0
   -2.4870   22.2750  -32.3910 O   0  0  0  0  0  0  0  0  0  0  0  0
   -2.3010   21.2400  -30.3390 C   0  0  0  0  0  0  0  0  0  0  0  0
   -1.8630   21.8050  -29.2560 C   0  0  0  0  0  0  0  0  0  0  0  0
   -1.9950   23.1490  -28.8040 C   0  0  0  0  0  0  0  0  0  0  0  0
   -2.1030   23.4160  -27.4570 N   0  0  0  0  0  0  0  0  0  0  0  0
   -2.1060   24.7230  -27.2380 C   0  0  0  0  0  0  0  0  0  0  0  0
   -2.0040   25.3220  -28.4070 N   0  0  0  0  0  0  0  0  0  0  0  0
   -1.9350   24.3630  -29.3540 N   0  0  0  0  0  0  0  0  0  0  0  0
   -5.3790   21.3490  -31.8570 C   0  0  0  0  0  0  0  0  0  0  0  0
   -5.3140   20.1080  -32.4560 C   0  0  0  0  0  0  0  0  0  0  0  0
   -4.6457   17.9254  -34.7394 H   0  0  0  0  0  0  0  0  0  0  0  0
   -6.1667   17.2712  -35.4361 H   0  0  0  0  0  0  0  0  0  0  0  0
   -5.8678   19.0425  -35.4361 H   0  0  0  0  0  0  0  0  0  0  0  0
   -6.8425   17.1696  -31.8286 H   0  0  0  0  0  0  0  0  0  0  0  0
   -7.9539   16.9022  -33.2142 H   0  0  0  0  0  0  0  0  0  0  0  0
   -6.3218   16.1520  -33.2142 H   0  0  0  0  0  0  0  0  0  0  0  0
   -8.5787   19.5999  -33.3068 H   0  0  0  0  0  0  0  0  0  0  0  0
   -8.7268   21.8439  -32.2314 H   0  0  0  0  0  0  0  0  0  0  0  0
   -7.2235   23.8682  -30.9583 H   0  0  0  0  0  0  0  0  0  0  0  0
   -4.1920   25.2960  -28.1990 H   0  0  0  0  0  0  0  0  0  0  0  0
   -5.8550   24.6410  -28.3670 H   0  0  0  0  0  0  0  0  0  0  0  0
   -2.0624   20.1773  -30.4931 H   0  0  0  0  0  0  0  0  0  0  0  0
   -1.3018   21.1418  -28.5813 H   0  0  0  0  0  0  0  0  0  0  0  0
   -2.1802   25.2178  -26.2584 H   0  0  0  0  0  0  0  0  0  0  0  0
   -1.8010   24.6780  -30.3390 H   0  0  0  0  0  0  0  0  0  0  0  0
   -4.3438   19.5950  -32.5303 H   0  0  0  0  0  0  0  0  0  0  0  0
  1  2  1  0
  2  3  1  0
  2  4  1  0
  4  5  2  0
  5  6  1  0
  6  7  2  0
  7  8  1  0
  8  9  2  0
  9 10  1  0
 10 11  1  0
 10 12  2  0
  9 13  1  0
 13 14  1  0
 14 15  2  0
 14 16  1  0
 16 17  2  0
 17 18  1  0
 18 19  2  0
 19 20  1  0
 20 21  2  0
 21 22  1  0
 13 23  1  0
 23 24  2  0
 24  4  1  0
 23  7  1  0
 22 18  1  0
  1 25  1  0
  1 26  1  0
  1 27  1  0
  3 28  1  0
  3 29  1  0
  3 30  1  0
  5 31  1  0
  6 32  1  0
  8 33  1  0
 11 34  1  0
 11 35  1  0
 16 36  1  0
 17 37  1  0
 20 38  1  0
 22 39  1  0
 24 40  1  0
M  END
>  <smiles>  (52) 
CN(C)c1ccc2cc(C(N)=O)n(C(=O)C=Cc3ncn[nH]3)c2c1

>  <score_type>  (52) 
oracle

>  <origin>  (52) 
adg

>  <m_score__min__energy>  (52) 
-9.1899999999999995

>  <m_primary>  (52) 
energy

$$$$
57:0
     RDKit          3D

 43 45  0  0  0  0  0  0  0  0999 V2000
   -1.8140   20.6540  -27.0060 C   0  0  0  0  0  0  0  0  0  0  0  0
   -1.5510   22.0280  -27.4710 C   0  0  0  0  0  0  0  0  0  0  0  0
   -0.3280   22.5200  -27.5610 O   0  0  0  0  0  0  0  0  0  0  0  0
   -0.3920   23.7480  -28.0050 C   0  0  0  0  0  0  0  0  0  0  0  0
    0.5430   24.5510  -28.2270 O   0  0  0  0  0  0  0  0  0  0  0  0
   -1.6490   24.0370  -28.1960 O   0  0  0  0  0  0  0  0  0  0  0  0
   -2.4260   23.0030  -27.8800 C   0  0  0  0  0  0  0  0  0  0  0  0
   -3.8950   23.0330  -27.9850 C   0  0  0  0  0  0  0  0  0  0  0  0
   -4.4830   23.0810  -29.2070 O   0  0  0  0  0  0  0  0  0  0  0  0
   -4.0370   23.2770  -30.4590 C   0  0  0  0  0  0  0  0  0  0  0  0
   -3.7540   24.4300  -30.8350 O   0  0  0  0  0  0  0  0  0  0  0  0
   -3.9040   22.1280  -31.3230 N   0  0  0  0  0  0  0  0  0  0  0  0
   -2.7520   21.5790  -31.7410 C   0  0  0  0  0  0  0  0  0  0  0  0
   -1.3750   21.9240  -31.4690 C   0  0  0  0  0  0  0  0  0  0  0  0
   -1.0860   22.8920  -30.4340 N   0  0  0  0  0  0  0  0  0  0  0  0
   -0.3630   21.4670  -32.0410 O   0  0  0  0  0  0  0  0  0  0  0  0
   -3.0980   20.4980  -32.5660 C   0  0  0  0  0  0  0  0  0  0  0  0
   -4.4600   20.3990  -32.6420 C   0  0  0  0  0  0  0  0  0  0  0  0
   -5.2760   19.5130  -33.3230 C   0  0  0  0  0  0  0  0  0  0  0  0
   -6.6410   19.6610  -33.2130 C   0  0  0  0  0  0  0  0  0  0  0  0
   -7.1800   20.6700  -32.4410 C   0  0  0  0  0  0  0  0  0  0  0  0
   -8.5940   20.7990  -32.3520 N   0  0  0  0  0  0  0  0  0  0  0  0
   -9.1550   22.0590  -31.9060 C   0  0  0  0  0  0  0  0  0  0  0  0
   -9.4500   19.6760  -32.7080 C   0  0  0  0  0  0  0  0  0  0  0  0
   -6.3220   21.5360  -31.7780 C   0  0  0  0  0  0  0  0  0  0  0  0
   -4.9480   21.4240  -31.8600 C   0  0  0  0  0  0  0  0  0  0  0  0
   -1.8179   20.6336  -25.9062 H   0  0  0  0  0  0  0  0  0  0  0  0
   -2.7923   20.3205  -27.3824 H   0  0  0  0  0  0  0  0  0  0  0  0
   -1.0280   19.9828  -27.3824 H   0  0  0  0  0  0  0  0  0  0  0  0
   -4.2685   22.1259  -27.4873 H   0  0  0  0  0  0  0  0  0  0  0  0
   -4.1631   24.0002  -27.5349 H   0  0  0  0  0  0  0  0  0  0  0  0
   -0.2760   22.7620  -29.7880 H   0  0  0  0  0  0  0  0  0  0  0  0
   -1.7450   23.6990  -30.4030 H   0  0  0  0  0  0  0  0  0  0  0  0
   -2.3839   19.8327  -33.0734 H   0  0  0  0  0  0  0  0  0  0  0  0
   -4.8447   18.7093  -33.9378 H   0  0  0  0  0  0  0  0  0  0  0  0
   -7.3084   18.9678  -33.7460 H   0  0  0  0  0  0  0  0  0  0  0  0
   -9.1671   22.0862  -30.8064 H   0  0  0  0  0  0  0  0  0  0  0  0
   -8.5413   22.8888  -32.2866 H   0  0  0  0  0  0  0  0  0  0  0  0
  -10.1823   22.1582  -32.2866 H   0  0  0  0  0  0  0  0  0  0  0  0
   -9.8192   19.1916  -31.7920 H   0  0  0  0  0  0  0  0  0  0  0  0
  -10.3030   20.0385  -33.3005 H   0  0  0  0  0  0  0  0  0  0  0  0
   -8.8744   18.9496  -33.3005 H   0  0  0  0  0  0  0  0  0  0  0  0
   -6.7522   22.3414  -31.1645 H   0  0  0  0  0  0  0  0  0  0  0  0
  1  2  1  0
  2  3  1  0
  3  4  1  0
  4  5  2  0
  4  6  1  0
  6  7  1  0
  7  8  1  0
  8  9  1  0
  9 10  1  0
 10 11  2  0
 10 12  1  0
 12 13  1  0
 13 14  1  0
 14 15  1  0
 14 16  2  0
 13 17  2  0
 17 18  1  0
 18 19  2  0
 19 20  1  0
 20 21  2  0
 21 22  1  0
 22 23  1  0
 22 24  1  0
 21 25  1  0
 25 26  2  0
  7  2  2  0
 26 12  1  0
 26 18  1  0
  1 27  1  0
  1 28  1  0
  1 29  1  0
  8 30  1  0
  8 31  1  0
 15 32  1  0
 15 33  1  0
 17 34  1  0
 19 35  1  0
 20 36  1  0
 23 37  1  0
 23 38  1  0
 23 39  1  0
 24 40  1  0
 24 41  1  0
 24 42  1  0
 25 43  1  0
M  END
>  <smiles>  (53) 
Cc1oc(=O)oc1COC(=O)n1c(C(N)=O)cc2ccc(N(C)C)cc21

>  <score_type>  (53) 
oracle

>  <origin>  (53) 
adg

>  <m_score__min__energy>  (53) 
-9.1400000000000006

>  <m_primary>  (53) 
energy

$$$$
58:0
     RDKit          3D

 51 54  0  0  1  0  0  0  0  0999 V2000
   -6.1470   25.9490  -29.4160 N   0  0  0  0  0  0  0  0  0  0  0  0
   -5.5460   25.0510  -30.3920 C   0  0  0  0  0  0  0  0  0  0  0  0
   -4.4690   25.4950  -30.8530 O   0  0  0  0  0  0  0  0  0  0  0  0
   -6.1980   23.8140  -30.7180 C   0  0  0  0  0  0  0  0  0  0  0  0
   -7.5350   23.8020  -31.1620 C   0  0  0  0  0  0  0  0  0  0  0  0
   -7.9300   22.5220  -31.4060 C   0  0  0  0  0  0  0  0  0  0  0  0
   -9.1220   22.0130  -31.8550 C   0  0  0  0  0  0  0  0  0  0  0  0
   -9.2650   20.6710  -32.0340 C   0  0  0  0  0  0  0  0  0  0  0  0
   -8.2140   19.8520  -31.7620 C   0  0  0  0  0  0  0  0  0  0  0  0
   -8.3450   18.3680  -31.9510 C   0  0  0  0  0  0  0  0  0  0  0  0
   -9.5690   17.9320  -31.5340 F   0  0  0  0  0  0  0  0  0  0  0  0
   -8.0100   17.9790  -33.2330 F   0  0  0  0  0  0  0  0  0  0  0  0
   -7.3860   17.8130  -31.0950 F   0  0  0  0  0  0  0  0  0  0  0  0
   -7.0080   20.3830  -31.3060 C   0  0  0  0  0  0  0  0  0  0  0  0
   -6.8240   21.7320  -31.1110 C   0  0  0  0  0  0  0  0  0  0  0  0
   -5.7890   22.5230  -30.6980 N   0  0  0  0  0  0  0  0  0  0  0  0
   -4.5190   22.0900  -30.2680 C   0  0  0  0  0  0  0  0  0  0  0  0
   -4.2410   22.1720  -29.0170 O   0  0  0  0  0  0  0  0  0  0  0  0
   -3.4230   21.5320  -31.0760 C   0  0  2  0  0  0  0  0  0  0  0  0
   -3.4140   22.2510  -32.3950 C   0  0  0  0  0  0  0  0  0  0  0  0
   -3.8960   21.2330  -33.4060 C   0  0  0  0  0  0  0  0  0  0  0  0
   -3.2050   20.0070  -32.8600 C   0  0  2  0  0  0  0  0  0  0  0  0
   -3.5180   18.7880  -33.5170 N   0  0  0  0  0  0  0  0  0  0  0  0
   -4.9190   18.4890  -33.3440 C   0  0  2  0  0  0  0  0  0  0  0  0
   -5.1430   17.0290  -32.9950 C   0  0  0  0  0  0  0  0  0  0  0  0
   -5.8490   16.5130  -34.2290 C   0  0  0  0  0  0  0  0  0  0  0  0
   -5.4900   17.4130  -35.2320 O   0  0  0  0  0  0  0  0  0  0  0  0
   -5.7440   18.6390  -34.5790 C   0  0  0  0  0  0  0  0  0  0  0  0
   -3.7130   20.0560  -31.4300 C   0  0  0  0  0  0  0  0  0  0  0  0
   -5.5850   26.2580  -28.5940 H   0  0  0  0  0  0  0  0  0  0  0  0
   -7.1260   26.2680  -29.5570 H   0  0  0  0  0  0  0  0  0  0  0  0
   -8.1658   24.6937  -31.2921 H   0  0  0  0  0  0  0  0  0  0  0  0
   -9.9624   22.6892  -32.0705 H   0  0  0  0  0  0  0  0  0  0  0  0
  -10.2176   20.2549  -32.3937 H   0  0  0  0  0  0  0  0  0  0  0  0
   -6.1735   19.6982  -31.0946 H   0  0  0  0  0  0  0  0  0  0  0  0
   -2.4845   21.6306  -30.5108 H   0  0  0  0  0  0  0  0  0  0  0  0
   -4.0916   23.1171  -32.3667 H   0  0  0  0  0  0  0  0  0  0  0  0
   -2.4151   22.6375  -32.6454 H   0  0  0  0  0  0  0  0  0  0  0  0
   -4.9909   21.1280  -33.3948 H   0  0  0  0  0  0  0  0  0  0  0  0
   -3.6745   21.4706  -34.4570 H   0  0  0  0  0  0  0  0  0  0  0  0
   -2.1124   20.0223  -32.9866 H   0  0  0  0  0  0  0  0  0  0  0  0
   -3.2220   18.7640  -34.5120 H   0  0  0  0  0  0  0  0  0  0  0  0
   -5.2144   19.2031  -32.5612 H   0  0  0  0  0  0  0  0  0  0  0  0
   -4.1888   16.5063  -32.8330 H   0  0  0  0  0  0  0  0  0  0  0  0
   -5.7105   16.8783  -32.0648 H   0  0  0  0  0  0  0  0  0  0  0  0
   -5.5083   15.4969  -34.4768 H   0  0  0  0  0  0  0  0  0  0  0  0
   -6.9386   16.4469  -34.0935 H   0  0  0  0  0  0  0  0  0  0  0  0
   -5.4104   19.4945  -35.1847 H   0  0  0  0  0  0  0  0  0  0  0  0
   -6.8093   18.8354  -34.3880 H   0  0  0  0  0  0  0  0  0  0  0  0
   -4.7878   19.8288  -31.3732 H   0  0  0  0  0  0  0  0  0  0  0  0
   -3.2479   19.3235  -30.7539 H   0  0  0  0  0  0  0  0  0  0  0  0
  1  2  1  0
  2  3  2  0
  2  4  1  0
  4  5  2  0
  5  6  1  0
  6  7  2  0
  7  8  1  0
  8  9  2  0
  9 10  1  0
 10 11  1  0
 10 12  1  0
 10 13  1  0
  9 14  1  0
 14 15  2  0
 15 16  1  0
 16 17  1  0
 17 18  2  0
 17 19  1  0
 19 20  1  0
 20 21  1  0
 21 22  1  0
 22 23  1  0
 23 24  1  0
 24 25  1  0
 25 26  1  0
 26 27  1  0
 27 28  1  0
 22 29  1  0
 16  4  1  0
 29 19  1  0
 15  6  1  0
 28 24  1  0
  1 30  1  0
  1 31  1  0
  5 32  1  0
  7 33  1  0
  8 34  1  0
 14 35  1  0
 19 36  1  1
 20 37  1  0
 20 38  1  0
 21 39  1  0
 21 40  1  0
 22 41  1  1
 23 42  1  0
 24 43  1  1
 25 44  1  0
 25 45  1  0
 26 46  1  0
 26 47  1  0
 28 48  1  0
 28 49  1  0
 29 50  1  0
 29 51  1  0
M  END
>  <smiles>  (54) 
NC(=O)c1cc2ccc(C(F)(F)F)cc2n1C(=O)[C@@H]1CC[C@H](NC2CCOC2)C1

>  <score_type>  (54) 
oracle

>  <origin>  (54) 
adg

>  <m_score__min__energy>  (54) 
-10.130000000000001

>  <m_primary>  (54) 
energy

$$$$
59:0
     RDKit          3D

 37 38  0  0  1  0  0  0  0  0999 V2000
   -6.0990   25.9970  -29.4020 N   0  0  0  0  0  0  0  0  0  0  0  0
   -5.4900   25.1470  -30.4060 C   0  0  0  0  0  0  0  0  0  0  0  0
   -4.3920   25.5540  -30.8310 O   0  0  0  0  0  0  0  0  0  0  0  0
   -6.1790   23.9480  -30.8120 C   0  0  0  0  0  0  0  0  0  0  0  0
   -7.5290   23.9350  -31.1950 C   0  0  0  0  0  0  0  0  0  0  0  0
   -7.8990   22.6730  -31.5230 C   0  0  0  0  0  0  0  0  0  0  0  0
   -9.1070   22.1560  -31.9540 C   0  0  0  0  0  0  0  0  0  0  0  0
   -9.2290   20.8120  -32.2270 C   0  0  0  0  0  0  0  0  0  0  0  0
   -8.1300   20.0050  -32.0600 C   0  0  0  0  0  0  0  0  0  0  0  0
   -8.2760   18.5570  -32.3570 C   0  0  0  0  0  0  0  0  0  0  0  0
   -7.2060   17.8250  -31.9280 F   0  0  0  0  0  0  0  0  0  0  0  0
   -9.4870   18.0790  -31.8500 F   0  0  0  0  0  0  0  0  0  0  0  0
   -6.9230   20.5450  -31.6250 C   0  0  0  0  0  0  0  0  0  0  0  0
   -6.7710   21.8860  -31.3440 C   0  0  0  0  0  0  0  0  0  0  0  0
   -5.7530   22.6760  -30.9170 N   0  0  0  0  0  0  0  0  0  0  0  0
   -4.4630   22.1890  -30.6410 C   0  0  0  0  0  0  0  0  0  0  0  0
   -4.1850   21.0080  -31.0490 O   0  0  0  0  0  0  0  0  0  0  0  0
   -3.4580   22.8380  -29.9790 O   0  0  0  0  0  0  0  0  0  0  0  0
   -3.0230   22.5720  -28.6830 C   0  0  0  0  0  0  0  0  0  0  0  0
   -3.0220   23.7880  -27.7820 C   0  0  2  0  0  0  0  0  0  0  0  0
   -4.1830   24.5360  -27.9430 O   0  0  0  0  0  0  0  0  0  0  0  0
   -1.8300   24.6430  -28.1380 C   0  0  0  0  0  0  0  0  0  0  0  0
   -2.0590   25.3000  -29.3340 O   0  0  0  0  0  0  0  0  0  0  0  0
   -5.8860   25.7740  -28.4210 H   0  0  0  0  0  0  0  0  0  0  0  0
   -6.7170   26.7850  -29.6580 H   0  0  0  0  0  0  0  0  0  0  0  0
   -8.1873   24.8158  -31.2245 H   0  0  0  0  0  0  0  0  0  0  0  0
   -9.9740   22.8213  -32.0793 H   0  0  0  0  0  0  0  0  0  0  0  0
  -10.1861   20.3934  -32.5715 H   0  0  0  0  0  0  0  0  0  0  0  0
   -8.2948   18.4365  -33.4502 H   0  0  0  0  0  0  0  0  0  0  0  0
   -6.0582   19.8767  -31.5008 H   0  0  0  0  0  0  0  0  0  0  0  0
   -3.6866   21.8134  -28.2424 H   0  0  0  0  0  0  0  0  0  0  0  0
   -1.9818   22.2251  -28.7573 H   0  0  0  0  0  0  0  0  0  0  0  0
   -2.9711   23.4553  -26.7348 H   0  0  0  0  0  0  0  0  0  0  0  0
   -4.1110   25.1920  -28.6670 H   0  0  0  0  0  0  0  0  0  0  0  0
   -1.6621   25.3834  -27.3420 H   0  0  0  0  0  0  0  0  0  0  0  0
   -0.9433   24.0005  -28.2431 H   0  0  0  0  0  0  0  0  0  0  0  0
   -2.8630   24.9180  -29.7710 H   0  0  0  0  0  0  0  0  0  0  0  0
  1  2  1  0
  2  3  2  0
  2  4  1  0
  4  5  2  0
  5  6  1  0
  6  7  2  0
  7  8  1  0
  8  9  2  0
  9 10  1  0
 10 11  1  0
 10 12  1  0
  9 13  1  0
 13 14  2  0
 14 15  1  0
 15 16  1  0
 16 17  2  0
 16 18  1  0
 18 19  1  0
 19 20  1  0
 20 21  1  0
 20 22  1  0
 22 23  1  0
 15  4  1  0
 14  6  1  0
  1 24  1  0
  1 25  1  0
  5 26  1  0
  7 27  1  0
  8 28  1  0
 10 29  1  0
 13 30  1  0
 19 31  1  0
 19 32  1  0
 20 33  1  1
 21 34  1  0
 22 35  1  0
 22 36  1  0
 23 37  1  0
M  END
>  <smiles>  (55) 
NC(=O)c1cc2ccc(C(F)F)cc2n1C(=O)OCC(O)CO

>  <score_type>  (55) 
oracle

>  <origin>  (55) 
adg

>  <m_score__min__energy>  (55) 
-8.2300000000000004

>  <m_primary>  (55) 
energy

$$$$
60:0
     RDKit          3D

 32 33  0  0  0  0  0  0  0  0999 V2000
   -6.8850   25.2780  -29.4090 N   0  0  0  0  0  0  0  0  0  0  0  0
   -6.2630   24.8350  -30.6380 C   0  0  0  0  0  0  0  0  0  0  0  0
   -5.5310   25.6910  -31.1860 O   0  0  0  0  0  0  0  0  0  0  0  0
   -6.5190   23.4970  -31.1200 C   0  0  0  0  0  0  0  0  0  0  0  0
   -7.8110   23.0550  -31.4370 C   0  0  0  0  0  0  0  0  0  0  0  0
   -7.7480   21.7530  -31.8660 C   0  0  0  0  0  0  0  0  0  0  0  0
   -8.7210   20.8790  -32.2860 C   0  0  0  0  0  0  0  0  0  0  0  0
   -8.3980   19.6060  -32.6720 C   0  0  0  0  0  0  0  0  0  0  0  0
   -7.0810   19.2230  -32.6280 C   0  0  0  0  0  0  0  0  0  0  0  0
   -6.7170   17.8500  -33.0420 C   0  0  0  0  0  0  0  0  0  0  0  0
   -5.6180   17.4040  -32.3350 F   0  0  0  0  0  0  0  0  0  0  0  0
   -6.4880   17.8070  -34.3910 F   0  0  0  0  0  0  0  0  0  0  0  0
   -7.8020   17.0310  -32.7070 F   0  0  0  0  0  0  0  0  0  0  0  0
   -6.1050   20.1170  -32.2010 C   0  0  0  0  0  0  0  0  0  0  0  0
   -6.3970   21.4060  -31.8070 C   0  0  0  0  0  0  0  0  0  0  0  0
   -5.6930   22.4690  -31.3570 N   0  0  0  0  0  0  0  0  0  0  0  0
   -4.2930   22.4380  -31.1850 C   0  0  0  0  0  0  0  0  0  0  0  0
   -3.5730   22.9130  -32.1190 O   0  0  0  0  0  0  0  0  0  0  0  0
   -3.6160   21.9430  -30.0990 O   0  0  0  0  0  0  0  0  0  0  0  0
   -2.9470   22.8260  -29.2170 C   0  0  0  0  0  0  0  0  0  0  0  0
   -3.5110   24.1980  -29.2920 C   0  0  0  0  0  0  0  0  0  0  0  0
   -4.3120   24.5350  -28.3890 O   0  0  0  0  0  0  0  0  0  0  0  0
   -3.2050   25.1040  -30.2800 O   0  0  0  0  0  0  0  0  0  0  0  0
   -6.2990   25.3660  -28.5430 H   0  0  0  0  0  0  0  0  0  0  0  0
   -7.9020   25.5110  -29.3660 H   0  0  0  0  0  0  0  0  0  0  0  0
   -8.7287   23.6559  -31.3550 H   0  0  0  0  0  0  0  0  0  0  0  0
   -9.7711   21.2056  -32.3124 H   0  0  0  0  0  0  0  0  0  0  0  0
   -9.1764   18.9060  -33.0098 H   0  0  0  0  0  0  0  0  0  0  0  0
   -5.0574   19.7824  -32.1765 H   0  0  0  0  0  0  0  0  0  0  0  0
   -3.0522   22.4517  -28.1880 H   0  0  0  0  0  0  0  0  0  0  0  0
   -1.8877   22.8709  -29.5099 H   0  0  0  0  0  0  0  0  0  0  0  0
   -3.5100   24.9160  -31.2450 H   0  0  0  0  0  0  0  0  0  0  0  0
  1  2  1  0
  2  3  2  0
  2  4  1  0
  4  5  2  0
  5  6  1  0
  6  7  2  0
  7  8  1  0
  8  9  2  0
  9 10  1  0
 10 11  1  0
 10 12  1  0
 10 13  1  0
  9 14  1  0
 14 15  2  0
 15 16  1  0
 16 17  1  0
 17 18  2  0
 17 19  1  0
 19 20  1  0
 20 21  1  0
 21 22  2  0
 21 23  1  0
 16  4  1  0
 15  6  1  0
  1 24  1  0
  1 25  1  0
  5 26  1  0
  7 27  1  0
  8 28  1  0
 14 29  1  0
 20 30  1  0
 20 31  1  0
 23 32  1  0
M  END
>  <smiles>  (56) 
NC(=O)c1cc2ccc(C(F)(F)F)cc2n1C(=O)OCC(=O)O

>  <score_type>  (56) 
oracle

>  <origin>  (56) 
adg

>  <m_score__min__energy>  (56) 
-8.0700000000000003

>  <m_primary>  (56) 
energy

$$$$
61:0
     RDKit          3D

 44 45  0  0  1  0  0  0  0  0999 V2000
   -5.9650   25.6690  -29.1440 N   0  0  0  0  0  0  0  0  0  0  0  0
   -5.1870   25.0100  -30.1860 C   0  0  0  0  0  0  0  0  0  0  0  0
   -4.1820   25.6570  -30.5220 O   0  0  0  0  0  0  0  0  0  0  0  0
   -5.6660   23.7490  -30.6650 C   0  0  0  0  0  0  0  0  0  0  0  0
   -6.9500   23.6600  -31.2550 C   0  0  0  0  0  0  0  0  0  0  0  0
   -7.1660   22.3760  -31.6470 C   0  0  0  0  0  0  0  0  0  0  0  0
   -8.2630   21.8150  -32.2580 C   0  0  0  0  0  0  0  0  0  0  0  0
   -8.2300   20.4740  -32.5480 C   0  0  0  0  0  0  0  0  0  0  0  0
   -7.1360   19.7180  -32.2350 C   0  0  0  0  0  0  0  0  0  0  0  0
   -7.0880   18.2440  -32.5480 C   0  0  0  0  0  0  0  0  0  0  0  0
   -8.3550   17.7620  -32.2860 F   0  0  0  0  0  0  0  0  0  0  0  0
   -6.2380   17.7000  -31.6020 F   0  0  0  0  0  0  0  0  0  0  0  0
   -6.0470   20.3260  -31.6160 C   0  0  0  0  0  0  0  0  0  0  0  0
   -6.0370   21.6750  -31.3060 C   0  0  0  0  0  0  0  0  0  0  0  0
   -5.1300   22.5170  -30.7070 N   0  0  0  0  0  0  0  0  0  0  0  0
   -3.8840   22.0260  -30.2810 C   0  0  0  0  0  0  0  0  0  0  0  0
   -3.8050   21.5460  -29.0910 O   0  0  0  0  0  0  0  0  0  0  0  0
   -2.6750   21.9890  -30.9800 N   0  0  0  0  0  0  0  0  0  0  0  0
   -1.5160   21.4100  -30.3160 C   0  0  0  0  0  0  0  0  0  0  0  0
   -0.9780   22.3260  -29.2790 C   0  0  0  0  0  0  0  0  0  0  0  0
    0.2460   22.4010  -28.9900 O   0  0  0  0  0  0  0  0  0  0  0  0
   -1.9120   23.1460  -28.5930 N   0  0  0  0  0  0  0  0  0  0  0  0
   -1.4410   24.0520  -27.5770 C   0  0  2  0  0  0  0  0  0  0  0  0
   -2.5730   24.6250  -26.7520 C   0  0  0  0  0  0  0  0  0  0  0  0
   -3.6370   24.8310  -27.6590 O   0  0  0  0  0  0  0  0  0  0  0  0
   -0.6680   25.1450  -28.2250 C   0  0  0  0  0  0  0  0  0  0  0  0
    0.5520   25.2790  -27.9140 O   0  0  0  0  0  0  0  0  0  0  0  0
   -1.2550   26.0130  -29.1570 O   0  0  0  0  0  0  0  0  0  0  0  0
   -5.7370   25.5250  -28.1360 H   0  0  0  0  0  0  0  0  0  0  0  0
   -6.7310   26.2670  -29.5040 H   0  0  0  0  0  0  0  0  0  0  0  0
   -7.6574   24.4936  -31.3764 H   0  0  0  0  0  0  0  0  0  0  0  0
   -9.1436   22.4250  -32.5077 H   0  0  0  0  0  0  0  0  0  0  0  0
   -9.0945   20.0024  -33.0382 H   0  0  0  0  0  0  0  0  0  0  0  0
   -6.7693   18.0201  -33.5767 H   0  0  0  0  0  0  0  0  0  0  0  0
   -5.1671   19.7152  -31.3655 H   0  0  0  0  0  0  0  0  0  0  0  0
   -2.5610   22.3760  -31.8990 H   0  0  0  0  0  0  0  0  0  0  0  0
   -1.8110   20.4631  -29.8402 H   0  0  0  0  0  0  0  0  0  0  0  0
   -0.7329   21.2382  -31.0691 H   0  0  0  0  0  0  0  0  0  0  0  0
   -2.9510   23.1060  -28.8140 H   0  0  0  0  0  0  0  0  0  0  0  0
   -0.7965   23.4896  -26.8854 H   0  0  0  0  0  0  0  0  0  0  0  0
   -2.8711   23.9170  -25.9647 H   0  0  0  0  0  0  0  0  0  0  0  0
   -2.2791   25.5587  -26.2501 H   0  0  0  0  0  0  0  0  0  0  0  0
   -3.3240   25.3420  -28.4560 H   0  0  0  0  0  0  0  0  0  0  0  0
   -2.0220   25.6880  -29.7660 H   0  0  0  0  0  0  0  0  0  0  0  0
  1  2  1  0
  2  3  2  0
  2  4  1  0
  4  5  2  0
  5  6  1  0
  6  7  2  0
  7  8  1  0
  8  9  2  0
  9 10  1  0
 10 11  1  0
 10 12  1  0
  9 13  1  0
 13 14  2  0
 14 15  1  0
 15 16  1  0
 16 17  2  0
 16 18  1  0
 18 19  1  0
 19 20  1  0
 20 21  2  0
 20 22  1  0
 22 23  1  0
 23 24  1  0
 24 25  1  0
 23 26  1  0
 26 27  2  0
 26 28  1  0
 15  4  1  0
 14  6  1  0
  1 29  1  0
  1 30  1  0
  5 31  1  0
  7 32  1  0
  8 33  1  0
 10 34  1  0
 13 35  1  0
 18 36  1  0
 19 37  1  0
 19 38  1  0
 22 39  1  0
 23 40  1  1
 24 41  1  0
 24 42  1  0
 25 43  1  0
 28 44  1  0
M  END
>  <smiles>  (57) 
NC(=O)c1cc2ccc(C(F)F)cc2n1C(=O)NCC(=O)NC(CO)C(=O)O

>  <score_type>  (57) 
oracle

>  <origin>  (57) 
adg

>  <m_score__min__energy>  (57) 
-8.9399999999999995

>  <m_primary>  (57) 
energy

$$$$
62:0
     RDKit          3D

 43 44  0  0  1  0  0  0  0  0999 V2000
   -4.2330   22.2280  -33.4110 N   0  0  0  0  0  0  0  0  0  0  0  0
   -3.3590   22.1110  -32.3020 C   0  0  0  0  0  0  0  0  0  0  0  0
   -3.1630   23.1100  -31.5700 O   0  0  0  0  0  0  0  0  0  0  0  0
   -2.7140   20.8100  -32.0590 C   0  0  0  0  0  0  0  0  0  0  0  0
   -3.6490   19.7480  -32.0070 O   0  0  0  0  0  0  0  0  0  0  0  0
   -4.4280   19.3940  -33.1100 C   0  0  0  0  0  0  0  0  0  0  0  0
   -3.8470   19.4790  -34.2190 O   0  0  0  0  0  0  0  0  0  0  0  0
   -5.7720   18.9790  -32.9290 N   0  0  0  0  0  0  0  0  0  0  0  0
   -6.2660   17.7590  -33.1730 C   0  0  0  0  0  0  0  0  0  0  0  0
   -5.6470   16.5480  -33.6660 C   0  0  0  0  0  0  0  0  0  0  0  0
   -4.6280   16.6330  -34.6890 N   0  0  0  0  0  0  0  0  0  0  0  0
   -5.9030   15.3830  -33.2880 O   0  0  0  0  0  0  0  0  0  0  0  0
   -7.6280   17.8150  -32.8500 C   0  0  0  0  0  0  0  0  0  0  0  0
   -7.9420   19.0790  -32.4120 C   0  0  0  0  0  0  0  0  0  0  0  0
   -9.1390   19.6120  -31.9870 C   0  0  0  0  0  0  0  0  0  0  0  0
   -9.1240   20.9410  -31.6030 C   0  0  0  0  0  0  0  0  0  0  0  0
   -7.9920   21.7230  -31.6290 C   0  0  0  0  0  0  0  0  0  0  0  0
   -7.9780   23.0820  -31.2210 N   0  0  0  0  0  0  0  0  0  0  0  0
   -7.1370   23.6460  -30.2160 C   0  0  0  0  0  0  0  0  0  0  0  0
   -5.6990   23.7990  -30.5780 C   0  0  1  0  0  0  0  0  0  0  0  0
   -5.5740   24.0610  -31.9640 O   0  0  0  0  0  0  0  0  0  0  0  0
   -5.0830   25.0130  -29.8990 C   0  0  0  0  0  0  0  0  0  0  0  0
   -4.1070   25.6280  -30.6570 O   0  0  0  0  0  0  0  0  0  0  0  0
   -6.8290   21.1140  -32.0680 C   0  0  0  0  0  0  0  0  0  0  0  0
   -6.7650   19.7960  -32.4670 C   0  0  0  0  0  0  0  0  0  0  0  0
   -4.2380   23.1190  -33.9430 H   0  0  0  0  0  0  0  0  0  0  0  0
   -4.8600   21.4500  -33.6980 H   0  0  0  0  0  0  0  0  0  0  0  0
   -1.9991   20.6124  -32.8713 H   0  0  0  0  0  0  0  0  0  0  0  0
   -2.2090   20.8618  -31.0831 H   0  0  0  0  0  0  0  0  0  0  0  0
   -4.8060   16.3180  -35.6660 H   0  0  0  0  0  0  0  0  0  0  0  0
   -3.7210   17.0280  -34.3690 H   0  0  0  0  0  0  0  0  0  0  0  0
   -8.3360   16.9773  -32.9340 H   0  0  0  0  0  0  0  0  0  0  0  0
  -10.0600   19.0114  -31.9546 H   0  0  0  0  0  0  0  0  0  0  0  0
  -10.0648   21.3957  -31.2594 H   0  0  0  0  0  0  0  0  0  0  0  0
   -8.6520   23.7480  -31.7050 H   0  0  0  0  0  0  0  0  0  0  0  0
   -7.5299   24.6433  -29.9691 H   0  0  0  0  0  0  0  0  0  0  0  0
   -7.1578   22.9340  -29.3778 H   0  0  0  0  0  0  0  0  0  0  0  0
   -5.2003   22.8676  -30.2716 H   0  0  0  0  0  0  0  0  0  0  0  0
   -4.6180   24.1610  -32.1660 H   0  0  0  0  0  0  0  0  0  0  0  0
   -5.8810   25.7432  -29.6990 H   0  0  0  0  0  0  0  0  0  0  0  0
   -4.6022   24.6595  -28.9750 H   0  0  0  0  0  0  0  0  0  0  0  0
   -3.6670   24.9490  -31.2450 H   0  0  0  0  0  0  0  0  0  0  0  0
   -5.9072   21.7134  -32.1002 H   0  0  0  0  0  0  0  0  0  0  0  0
  1  2  1  0
  2  3  2  0
  2  4  1  0
  4  5  1  0
  5  6  1  0
  6  7  2  0
  6  8  1  0
  8  9  1  0
  9 10  1  0
 10 11  1  0
 10 12  2  0
  9 13  2  0
 13 14  1  0
 14 15  2  0
 15 16  1  0
 16 17  2  0
 17 18  1  0
 18 19  1  0
 19 20  1  0
 20 21  1  0
 20 22  1  0
 22 23  1  0
 17 24  1  0
 24 25  2  0
 25  8  1  0
 25 14  1  0
  1 26  1  0
  1 27  1  0
  4 28  1  0
  4 29  1  0
 11 30  1  0
 11 31  1  0
 13 32  1  0
 15 33  1  0
 16 34  1  0
 18 35  1  0
 19 36  1  0
 19 37  1  0
 20 38  1  6
 21 39  1  0
 22 40  1  0
 22 41  1  0
 23 42  1  0
 24 43  1  0
M  END
>  <smiles>  (58) 
NC(=O)COC(=O)n1c(C(N)=O)cc2ccc(NCC(O)CO)cc21

>  <score_type>  (58) 
oracle

>  <origin>  (58) 
adg

>  <m_score__min__energy>  (58) 
-8.4100000000000001

>  <m_primary>  (58) 
energy

$$$$
63:0
     RDKit          3D

 38 39  0  0  0  0  0  0  0  0999 V2000
   -6.8590   17.7190  -32.0040 C   0  0  0  0  0  0  0  0  0  0  0  0
   -7.7260   18.6030  -32.7300 N   0  0  0  0  0  0  0  0  0  0  0  0
   -7.7750   19.9660  -32.3130 C   0  0  0  0  0  0  0  0  0  0  0  0
   -8.9610   20.6600  -32.3780 C   0  0  0  0  0  0  0  0  0  0  0  0
   -8.9430   21.9710  -31.9600 C   0  0  0  0  0  0  0  0  0  0  0  0
   -7.7810   22.5510  -31.5000 C   0  0  0  0  0  0  0  0  0  0  0  0
   -7.5560   23.7940  -31.0190 C   0  0  0  0  0  0  0  0  0  0  0  0
   -6.1960   23.8940  -30.6470 C   0  0  0  0  0  0  0  0  0  0  0  0
   -5.7020   25.1430  -30.1210 C   0  0  0  0  0  0  0  0  0  0  0  0
   -6.1720   25.8940  -29.0270 N   0  0  0  0  0  0  0  0  0  0  0  0
   -4.6770   25.6780  -30.7050 O   0  0  0  0  0  0  0  0  0  0  0  0
   -5.6040   22.6900  -30.9090 N   0  0  0  0  0  0  0  0  0  0  0  0
   -4.2860   22.4080  -30.5380 C   0  0  0  0  0  0  0  0  0  0  0  0
   -3.6800   21.6670  -31.4540 O   0  0  0  0  0  0  0  0  0  0  0  0
   -3.4560   22.6860  -29.4710 N   0  0  0  0  0  0  0  0  0  0  0  0
   -3.6970   22.8570  -28.0670 C   0  0  0  0  0  0  0  0  0  0  0  0
   -2.0000   22.8630  -29.8270 C   0  0  0  0  0  0  0  0  0  0  0  0
   -1.6510   24.2180  -29.3460 C   0  0  0  0  0  0  0  0  0  0  0  0
   -0.4740   24.3910  -28.9170 O   0  0  0  0  0  0  0  0  0  0  0  0
   -2.5320   25.2900  -29.3400 O   0  0  0  0  0  0  0  0  0  0  0  0
   -6.5720   21.8790  -31.4250 C   0  0  0  0  0  0  0  0  0  0  0  0
   -6.6230   20.5680  -31.8480 C   0  0  0  0  0  0  0  0  0  0  0  0
   -7.0048   17.8677  -30.9239 H   0  0  0  0  0  0  0  0  0  0  0  0
   -7.0951   16.6770  -32.2659 H   0  0  0  0  0  0  0  0  0  0  0  0
   -5.8126   17.9348  -32.2659 H   0  0  0  0  0  0  0  0  0  0  0  0
   -8.3040   18.2710  -33.5320 H   0  0  0  0  0  0  0  0  0  0  0  0
   -9.8831   20.1878  -32.7478 H   0  0  0  0  0  0  0  0  0  0  0  0
   -9.8689   22.5639  -31.9936 H   0  0  0  0  0  0  0  0  0  0  0  0
   -8.3059   24.5940  -30.9317 H   0  0  0  0  0  0  0  0  0  0  0  0
   -6.4690   26.9040  -29.1240 H   0  0  0  0  0  0  0  0  0  0  0  0
   -6.2520   25.5120  -28.0570 H   0  0  0  0  0  0  0  0  0  0  0  0
   -2.9309   22.3134  -27.4946 H   0  0  0  0  0  0  0  0  0  0  0  0
   -3.6527   23.9268  -27.8150 H   0  0  0  0  0  0  0  0  0  0  0  0
   -4.6922   22.4618  -27.8150 H   0  0  0  0  0  0  0  0  0  0  0  0
   -1.3837   22.1033  -29.3239 H   0  0  0  0  0  0  0  0  0  0  0  0
   -1.8214   22.7486  -30.9064 H   0  0  0  0  0  0  0  0  0  0  0  0
   -3.4700   25.1780  -28.9700 H   0  0  0  0  0  0  0  0  0  0  0  0
   -5.6994   19.9716  -31.8133 H   0  0  0  0  0  0  0  0  0  0  0  0
  1  2  1  0
  2  3  1  0
  3  4  2  0
  4  5  1  0
  5  6  2  0
  6  7  1  0
  7  8  2  0
  8  9  1  0
  9 10  1  0
  9 11  2  0
  8 12  1  0
 12 13  1  0
 13 14  2  0
 13 15  1  0
 15 16  1  0
 15 17  1  0
 17 18  1  0
 18 19  2  0
 18 20  1  0
 12 21  1  0
 21 22  2  0
 22  3  1  0
 21  6  1  0
  1 23  1  0
  1 24  1  0
  1 25  1  0
  2 26  1  0
  4 27  1  0
  5 28  1  0
  7 29  1  0
 10 30  1  0
 10 31  1  0
 16 32  1  0
 16 33  1  0
 16 34  1  0
 17 35  1  0
 17 36  1  0
 20 37  1  0
 22 38  1  0
M  END
>  <smiles>  (59) 
CNc1ccc2cc(C(N)=O)n(C(=O)N(C)CC(=O)O)c2c1

>  <score_type>  (59) 
oracle

>  <origin>  (59) 
adg

>  <m_score__min__energy>  (59) 
-8.6300000000000008

>  <m_primary>  (59) 
energy

$$$$
64:0
     RDKit          3D

 59 62  0  0  0  0  0  0  0  0999 V2000
    2.5740   26.2060  -23.3460 N   0  0  0  0  0  0  0  0  0  0  0  0
    1.3340   26.6650  -23.8250 C   0  0  0  0  0  0  0  0  0  0  0  0
    0.9900   27.8250  -23.4070 O   0  0  0  0  0  0  0  0  0  0  0  0
    0.4220   25.9980  -24.7140 C   0  0  0  0  0  0  0  0  0  0  0  0
    0.3910   24.6030  -24.8280 C   0  0  0  0  0  0  0  0  0  0  0  0
   -0.5680   24.2380  -25.7430 C   0  0  0  0  0  0  0  0  0  0  0  0
   -0.9730   23.0050  -26.1970 C   0  0  0  0  0  0  0  0  0  0  0  0
   -1.9700   22.8860  -27.1350 C   0  0  0  0  0  0  0  0  0  0  0  0
   -2.5390   24.0550  -27.5970 C   0  0  0  0  0  0  0  0  0  0  0  0
   -3.5960   23.9100  -28.5990 C   0  0  0  0  0  0  0  0  0  0  0  0
   -3.6640   24.7340  -29.7210 C   0  0  0  0  0  0  0  0  0  0  0  0
   -4.6580   24.5960  -30.6720 C   0  0  0  0  0  0  0  0  0  0  0  0
   -5.6130   23.6150  -30.5070 C   0  0  0  0  0  0  0  0  0  0  0  0
   -6.7060   23.3900  -31.4450 C   0  0  0  0  0  0  0  0  0  0  0  0
   -6.6360   23.7750  -32.6450 O   0  0  0  0  0  0  0  0  0  0  0  0
   -7.9000   22.7270  -31.0530 N   0  0  0  0  0  0  0  0  0  0  0  0
   -8.9800   22.5100  -31.9760 C   0  0  0  0  0  0  0  0  0  0  0  0
   -9.4800   21.0890  -31.9480 C   0  0  0  0  0  0  0  0  0  0  0  0
   -8.5910   20.1380  -32.6970 C   0  0  0  0  0  0  0  0  0  0  0  0
   -7.6420   19.4010  -31.9440 N   0  0  0  0  0  0  0  0  0  0  0  0
   -7.5560   18.0280  -32.3430 C   0  0  0  0  0  0  0  0  0  0  0  0
   -6.5710   17.8580  -33.5090 C   0  0  0  0  0  0  0  0  0  0  0  0
   -6.3520   19.0400  -34.1860 O   0  0  0  0  0  0  0  0  0  0  0  0
   -5.8090   20.0470  -33.4230 C   0  0  0  0  0  0  0  0  0  0  0  0
   -6.3570   20.0380  -32.0090 C   0  0  0  0  0  0  0  0  0  0  0  0
   -5.5490   22.7860  -29.3820 C   0  0  0  0  0  0  0  0  0  0  0  0
   -4.5550   22.9270  -28.4350 C   0  0  0  0  0  0  0  0  0  0  0  0
   -2.1250   25.2980  -27.1340 C   0  0  0  0  0  0  0  0  0  0  0  0
   -1.1240   25.4220  -26.1910 C   0  0  0  0  0  0  0  0  0  0  0  0
   -0.5140   26.4600  -25.5600 N   0  0  0  0  0  0  0  0  0  0  0  0
   -0.8630   27.8010  -25.8050 C   0  0  0  0  0  0  0  0  0  0  0  0
   -0.8610   28.2070  -27.0180 O   0  0  0  0  0  0  0  0  0  0  0  0
   -1.2130   28.7500  -24.8770 O   0  0  0  0  0  0  0  0  0  0  0  0
    2.6310   25.6420  -22.4480 H   0  0  0  0  0  0  0  0  0  0  0  0
    3.4480   26.4450  -23.8990 H   0  0  0  0  0  0  0  0  0  0  0  0
    1.0348   23.9062  -24.2712 H   0  0  0  0  0  0  0  0  0  0  0  0
   -0.4907   22.0984  -25.8026 H   0  0  0  0  0  0  0  0  0  0  0  0
   -2.2998   21.9026  -27.5013 H   0  0  0  0  0  0  0  0  0  0  0  0
   -2.9038   25.5179  -29.8539 H   0  0  0  0  0  0  0  0  0  0  0  0
   -4.6867   25.2599  -31.5486 H   0  0  0  0  0  0  0  0  0  0  0  0
   -8.0250   22.3790  -30.0790 H   0  0  0  0  0  0  0  0  0  0  0  0
   -9.8101   23.1822  -31.7133 H   0  0  0  0  0  0  0  0  0  0  0  0
   -8.6027   22.7139  -32.9890 H   0  0  0  0  0  0  0  0  0  0  0  0
   -9.5412   20.7598  -30.9002 H   0  0  0  0  0  0  0  0  0  0  0  0
  -10.4633   21.0769  -32.4410 H   0  0  0  0  0  0  0  0  0  0  0  0
   -9.2407   19.4129  -33.2090 H   0  0  0  0  0  0  0  0  0  0  0  0
   -7.9890   20.7780  -33.3588 H   0  0  0  0  0  0  0  0  0  0  0  0
   -7.2115   17.4256  -31.4895 H   0  0  0  0  0  0  0  0  0  0  0  0
   -8.5512   17.6940  -32.6715 H   0  0  0  0  0  0  0  0  0  0  0  0
   -5.6117   17.4950  -33.1116 H   0  0  0  0  0  0  0  0  0  0  0  0
   -7.0095   17.1404  -34.2180 H   0  0  0  0  0  0  0  0  0  0  0  0
   -4.7177   19.9149  -33.3831 H   0  0  0  0  0  0  0  0  0  0  0  0
   -6.0733   21.0088  -33.8868 H   0  0  0  0  0  0  0  0  0  0  0  0
   -5.6561   19.4949  -31.3580 H   0  0  0  0  0  0  0  0  0  0  0  0
   -6.4729   21.0807  -31.6784 H   0  0  0  0  0  0  0  0  0  0  0  0
   -6.3096   22.0025  -29.2489 H   0  0  0  0  0  0  0  0  0  0  0  0
   -4.5257   22.2637  -27.5579 H   0  0  0  0  0  0  0  0  0  0  0  0
   -2.6063   26.2051  -27.5282 H   0  0  0  0  0  0  0  0  0  0  0  0
   -0.6380   28.9770  -24.0550 H   0  0  0  0  0  0  0  0  0  0  0  0
  1  2  1  0
  2  3  2  0
  2  4  1  0
  4  5  2  0
  5  6  1  0
  6  7  2  0
  7  8  1  0
  8  9  2  0
  9 10  1  0
 10 11  2  0
 11 12  1  0
 12 13  2  0
 13 14  1  0
 14 15  2  0
 14 16  1  0
 16 17  1  0
 17 18  1  0
 18 19  1  0
 19 20  1  0
 20 21  1  0
 21 22  1  0
 22 23  1  0
 23 24  1  0
 24 25  1  0
 13 26  1  0
 26 27  2  0
  9 28  1  0
 28 29  2  0
 29 30  1  0
 30 31  1  0
 31 32  2  0
 31 33  1  0
 30  4  1  0
 29  6  1  0
 27 10  1  0
 25 20  1  0
  1 34  1  0
  1 35  1  0
  5 36  1  0
  7 37  1  0
  8 38  1  0
 11 39  1  0
 12 40  1  0
 16 41  1  0
 17 42  1  0
 17 43  1  0
 18 44  1  0
 18 45  1  0
 19 46  1  0
 19 47  1  0
 21 48  1  0
 21 49  1  0
 22 50  1  0
 22 51  1  0
 24 52  1  0
 24 53  1  0
 25 54  1  0
 25 55  1  0
 26 56  1  0
 27 57  1  0
 28 58  1  0
 33 59  1  0
M  END
>  <smiles>  (60) 
NC(=O)c1cc2ccc(-c3ccc(C(=O)NCCCN4CCOCC4)cc3)cc2n1C(=O)O

>  <score_type>  (60) 
oracle

>  <origin>  (60) 
adg

>  <m_score__min__energy>  (60) 
-9.2699999999999996

>  <m_primary>  (60) 
energy

$$$$
65:0
     RDKit          3D

 42 43  0  0  0  0  0  0  0  0999 V2000
   -1.9630   21.6150  -31.9030 C   0  0  0  0  0  0  0  0  0  0  0  0
   -3.0070   22.6320  -31.5290 C   0  0  1  0  0  0  0  0  0  0  0  0
   -4.3160   22.2390  -32.0410 C   0  0  0  0  0  0  0  0  0  0  0  0
   -4.2320   21.5500  -33.1260 O   0  0  0  0  0  0  0  0  0  0  0  0
   -5.6030   22.4910  -31.5520 N   0  0  0  0  0  0  0  0  0  0  0  0
   -6.1430   23.5960  -30.9870 C   0  0  0  0  0  0  0  0  0  0  0  0
   -5.5550   24.8440  -30.5730 C   0  0  0  0  0  0  0  0  0  0  0  0
   -5.9650   25.3960  -29.2850 N   0  0  0  0  0  0  0  0  0  0  0  0
   -4.7260   25.5560  -31.1580 O   0  0  0  0  0  0  0  0  0  0  0  0
   -7.5150   23.3460  -30.7420 C   0  0  0  0  0  0  0  0  0  0  0  0
   -7.7830   22.0800  -31.1670 C   0  0  0  0  0  0  0  0  0  0  0  0
   -8.9660   21.3760  -31.1440 C   0  0  0  0  0  0  0  0  0  0  0  0
   -9.0280   20.0900  -31.6280 C   0  0  0  0  0  0  0  0  0  0  0  0
   -7.8730   19.5460  -32.1280 C   0  0  0  0  0  0  0  0  0  0  0  0
   -7.9270   18.1580  -32.6530 C   0  0  0  0  0  0  0  0  0  0  0  0
   -6.5380   17.6040  -32.8130 C   0  0  0  0  0  0  0  0  0  0  0  0
   -6.0680   17.0390  -31.6400 F   0  0  0  0  0  0  0  0  0  0  0  0
   -6.4980   16.6250  -33.7790 F   0  0  0  0  0  0  0  0  0  0  0  0
   -6.6830   20.2700  -32.1440 C   0  0  0  0  0  0  0  0  0  0  0  0
   -6.6160   21.5730  -31.6550 C   0  0  0  0  0  0  0  0  0  0  0  0
   -3.0210   22.5690  -30.0360 N   0  0  0  0  0  0  0  0  0  0  0  0
   -2.8750   21.3230  -29.3420 C   0  0  0  0  0  0  0  0  0  0  0  0
   -3.1830   23.7600  -29.2740 C   0  0  0  0  0  0  0  0  0  0  0  0
   -3.8710   23.8070  -28.2220 O   0  0  0  0  0  0  0  0  0  0  0  0
   -2.5660   24.9210  -29.6940 O   0  0  0  0  0  0  0  0  0  0  0  0
   -1.5240   21.1873  -30.9896 H   0  0  0  0  0  0  0  0  0  0  0  0
   -2.4276   20.8138  -32.4964 H   0  0  0  0  0  0  0  0  0  0  0  0
   -1.1742   22.1005  -32.4964 H   0  0  0  0  0  0  0  0  0  0  0  0
   -2.7919   23.6319  -31.9338 H   0  0  0  0  0  0  0  0  0  0  0  0
   -5.8150   24.7740  -28.4660 H   0  0  0  0  0  0  0  0  0  0  0  0
   -6.3750   26.3560  -29.2300 H   0  0  0  0  0  0  0  0  0  0  0  0
   -8.2333   24.0463  -30.2908 H   0  0  0  0  0  0  0  0  0  0  0  0
   -9.8715   21.8472  -30.7341 H   0  0  0  0  0  0  0  0  0  0  0  0
   -9.9685   19.5196  -31.6145 H   0  0  0  0  0  0  0  0  0  0  0  0
   -8.4905   17.5264  -31.9505 H   0  0  0  0  0  0  0  0  0  0  0  0
   -8.4231   18.1667  -33.6347 H   0  0  0  0  0  0  0  0  0  0  0  0
   -5.9070   18.4583  -33.0992 H   0  0  0  0  0  0  0  0  0  0  0  0
   -5.7750   19.8021  -32.5522 H   0  0  0  0  0  0  0  0  0  0  0  0
   -2.8961   21.5029  -28.2570 H   0  0  0  0  0  0  0  0  0  0  0  0
   -3.7005   20.6505  -29.6183 H   0  0  0  0  0  0  0  0  0  0  0  0
   -1.9164   20.8596  -29.6183 H   0  0  0  0  0  0  0  0  0  0  0  0
   -3.1100   25.7740  -29.7200 H   0  0  0  0  0  0  0  0  0  0  0  0
  1  2  1  0
  2  3  1  0
  3  4  2  0
  3  5  1  0
  5  6  1  0
  6  7  1  0
  7  8  1  0
  7  9  2  0
  6 10  2  0
 10 11  1  0
 11 12  2  0
 12 13  1  0
 13 14  2  0
 14 15  1  0
 15 16  1  0
 16 17  1  0
 16 18  1  0
 14 19  1  0
 19 20  2  0
  2 21  1  0
 21 22  1  0
 21 23  1  0
 23 24  2  0
 23 25  1  0
 20  5  1  0
 20 11  1  0
  1 26  1  0
  1 27  1  0
  1 28  1  0
  2 29  1  1
  8 30  1  0
  8 31  1  0
 10 32  1  0
 12 33  1  0
 13 34  1  0
 15 35  1  0
 15 36  1  0
 16 37  1  0
 19 38  1  0
 22 39  1  0
 22 40  1  0
 22 41  1  0
 25 42  1  0
M  END
>  <smiles>  (61) 
C[C@@H](C(=O)n1c(C(N)=O)cc2ccc(CC(F)F)cc21)N(C)C(=O)O

>  <score_type>  (61) 
oracle

>  <origin>  (61) 
adg

>  <m_score__min__energy>  (61) 
-9.25

>  <m_primary>  (61) 
energy

$$$$
66:0
     RDKit          3D

 42 43  0  0  0  0  0  0  0  0999 V2000
   -5.2610   24.8880  -28.9220 N   0  0  0  0  0  0  0  0  0  0  0  0
   -5.1480   24.4400  -30.2340 C   0  0  0  0  0  0  0  0  0  0  0  0
   -4.6100   25.3200  -31.0290 O   0  0  0  0  0  0  0  0  0  0  0  0
   -5.5180   23.2050  -30.8520 C   0  0  0  0  0  0  0  0  0  0  0  0
   -6.8790   22.8970  -31.0750 C   0  0  0  0  0  0  0  0  0  0  0  0
   -6.9640   21.6740  -31.6790 C   0  0  0  0  0  0  0  0  0  0  0  0
   -8.0690   20.9610  -32.0860 C   0  0  0  0  0  0  0  0  0  0  0  0
   -7.9270   19.7300  -32.6840 C   0  0  0  0  0  0  0  0  0  0  0  0
   -6.6490   19.2560  -32.8500 C   0  0  0  0  0  0  0  0  0  0  0  0
   -6.4610   17.9210  -33.4980 C   0  0  0  0  0  0  0  0  0  0  0  0
   -5.3750   17.2680  -32.9270 F   0  0  0  0  0  0  0  0  0  0  0  0
   -7.5740   17.1100  -33.3330 F   0  0  0  0  0  0  0  0  0  0  0  0
   -6.2580   18.0520  -34.8570 F   0  0  0  0  0  0  0  0  0  0  0  0
   -5.5330   19.9910  -32.4300 C   0  0  0  0  0  0  0  0  0  0  0  0
   -5.6690   21.2320  -31.8270 C   0  0  0  0  0  0  0  0  0  0  0  0
   -4.7950   22.1620  -31.3270 N   0  0  0  0  0  0  0  0  0  0  0  0
   -3.4110   21.9620  -31.3650 C   0  0  0  0  0  0  0  0  0  0  0  0
   -2.7030   23.0290  -31.5410 O   0  0  0  0  0  0  0  0  0  0  0  0
   -2.6160   20.7530  -31.2370 C   0  0  0  0  0  0  0  0  0  0  0  0
   -1.4130   20.9720  -30.2890 C   0  0  0  0  0  0  0  0  0  0  0  0
   -1.7320   20.7210  -28.8650 C   0  0  0  0  0  0  0  0  0  0  0  0
   -1.2210   22.2350  -27.9470 S   0  0  0  0  0  0  0  0  0  0  0  0
   -1.0430   23.5440  -29.2180 C   0  0  0  0  0  0  0  0  0  0  0  0
   -1.5040   24.8670  -28.5970 C   0  0  0  0  0  0  0  0  0  0  0  0
   -2.6080   25.2870  -29.3350 O   0  0  0  0  0  0  0  0  0  0  0  0
   -4.4890   24.9820  -28.2280 H   0  0  0  0  0  0  0  0  0  0  0  0
   -6.2180   25.1700  -28.5740 H   0  0  0  0  0  0  0  0  0  0  0  0
   -7.7317   23.5377  -30.8061 H   0  0  0  0  0  0  0  0  0  0  0  0
   -9.0746   21.3792  -31.9317 H   0  0  0  0  0  0  0  0  0  0  0  0
   -8.8008   19.1498  -33.0153 H   0  0  0  0  0  0  0  0  0  0  0  0
   -4.5264   19.5743  -32.5820 H   0  0  0  0  0  0  0  0  0  0  0  0
   -3.2487   19.9486  -30.8338 H   0  0  0  0  0  0  0  0  0  0  0  0
   -2.2311   20.4824  -32.2313 H   0  0  0  0  0  0  0  0  0  0  0  0
   -0.6035   20.2908  -30.5901 H   0  0  0  0  0  0  0  0  0  0  0  0
   -1.1209   22.0291  -30.3745 H   0  0  0  0  0  0  0  0  0  0  0  0
   -2.8110   20.5464  -28.7413 H   0  0  0  0  0  0  0  0  0  0  0  0
   -1.2090   19.8293  -28.4889 H   0  0  0  0  0  0  0  0  0  0  0  0
    0.0093   23.6232  -29.5286 H   0  0  0  0  0  0  0  0  0  0  0  0
   -1.6493   23.3039  -30.1038 H   0  0  0  0  0  0  0  0  0  0  0  0
   -1.7859   24.7150  -27.5447 H   0  0  0  0  0  0  0  0  0  0  0  0
   -0.7009   25.6184  -28.6201 H   0  0  0  0  0  0  0  0  0  0  0  0
   -2.7190   24.6050  -30.0720 H   0  0  0  0  0  0  0  0  0  0  0  0
  1  2  1  0
  2  3  2  0
  2  4  1  0
  4  5  2  0
  5  6  1  0
  6  7  2  0
  7  8  1  0
  8  9  2  0
  9 10  1  0
 10 11  1  0
 10 12  1  0
 10 13  1  0
  9 14  1  0
 14 15  2  0
 15 16  1  0
 16 17  1  0
 17 18  2  0
 17 19  1  0
 19 20  1  0
 20 21  1  0
 21 22  1  0
 22 23  1  0
 23 24  1  0
 24 25  1  0
 16  4  1  0
 15  6  1  0
  1 26  1  0
  1 27  1  0
  5 28  1  0
  7 29  1  0
  8 30  1  0
 14 31  1  0
 19 32  1  0
 19 33  1  0
 20 34  1  0
 20 35  1  0
 21 36  1  0
 21 37  1  0
 23 38  1  0
 23 39  1  0
 24 40  1  0
 24 41  1  0
 25 42  1  0
M  END
>  <smiles>  (62) 
NC(=O)c1cc2ccc(C(F)(F)F)cc2n1C(=O)CCCSCCO

>  <score_type>  (62) 
oracle

>  <origin>  (62) 
adg

>  <m_score__min__energy>  (62) 
-8.4399999999999995

>  <m_primary>  (62) 
energy

$$$$
67:0
     RDKit          3D

 45 46  0  0  0  0  0  0  0  0999 V2000
   -3.7550   18.8840  -34.2180 C   0  0  0  0  0  0  0  0  0  0  0  0
   -4.8730   18.8060  -33.2900 N   0  0  0  0  0  0  0  0  0  0  0  0
   -5.9340   17.8900  -33.5340 C   0  0  0  0  0  0  0  0  0  0  0  0
   -5.8660   17.1660  -34.5600 O   0  0  0  0  0  0  0  0  0  0  0  0
   -7.0420   17.8550  -32.5580 C   0  0  0  0  0  0  0  0  0  0  0  0
   -8.0270   18.8750  -32.8550 N   0  0  0  0  0  0  0  0  0  0  0  0
   -7.9500   20.1830  -32.3450 C   0  0  0  0  0  0  0  0  0  0  0  0
   -9.0960   20.8750  -32.0140 C   0  0  0  0  0  0  0  0  0  0  0  0
   -9.0040   22.1580  -31.5230 C   0  0  0  0  0  0  0  0  0  0  0  0
   -7.7550   22.7380  -31.3660 C   0  0  0  0  0  0  0  0  0  0  0  0
   -7.3950   23.9620  -30.9110 C   0  0  0  0  0  0  0  0  0  0  0  0
   -5.9970   24.0870  -30.9390 C   0  0  0  0  0  0  0  0  0  0  0  0
   -5.2890   25.2610  -30.5220 C   0  0  0  0  0  0  0  0  0  0  0  0
   -3.9200   25.1040  -30.0640 N   0  0  0  0  0  0  0  0  0  0  0  0
   -5.7060   26.4310  -30.4970 O   0  0  0  0  0  0  0  0  0  0  0  0
   -5.5220   22.9000  -31.4240 N   0  0  0  0  0  0  0  0  0  0  0  0
   -4.1800   22.5430  -31.6360 C   0  0  0  0  0  0  0  0  0  0  0  0
   -3.9300   21.4750  -32.2980 O   0  0  0  0  0  0  0  0  0  0  0  0
   -3.0740   23.2310  -31.1990 O   0  0  0  0  0  0  0  0  0  0  0  0
   -2.0170   22.6250  -30.4960 C   0  0  0  0  0  0  0  0  0  0  0  0
   -1.6880   23.2450  -29.1840 C   0  0  0  0  0  0  0  0  0  0  0  0
   -1.6290   24.6230  -29.3200 O   0  0  0  0  0  0  0  0  0  0  0  0
   -1.2190   25.3050  -28.2060 C   0  0  0  0  0  0  0  0  0  0  0  0
   -6.5840   22.0820  -31.6840 C   0  0  0  0  0  0  0  0  0  0  0  0
   -6.7150   20.7970  -32.1750 C   0  0  0  0  0  0  0  0  0  0  0  0
   -2.8134   18.9497  -33.6531 H   0  0  0  0  0  0  0  0  0  0  0  0
   -3.7407   17.9847  -34.8512 H   0  0  0  0  0  0  0  0  0  0  0  0
   -3.8657   19.7766  -34.8512 H   0  0  0  0  0  0  0  0  0  0  0  0
   -4.8920   19.4350  -32.4360 H   0  0  0  0  0  0  0  0  0  0  0  0
   -7.5242   16.8671  -32.5963 H   0  0  0  0  0  0  0  0  0  0  0  0
   -6.6321   18.0447  -31.5550 H   0  0  0  0  0  0  0  0  0  0  0  0
   -8.8380   18.6120  -33.4860 H   0  0  0  0  0  0  0  0  0  0  0  0
  -10.0813   20.4030  -32.1420 H   0  0  0  0  0  0  0  0  0  0  0  0
   -9.9132   22.7175  -31.2578 H   0  0  0  0  0  0  0  0  0  0  0  0
   -8.0931   24.7410  -30.5707 H   0  0  0  0  0  0  0  0  0  0  0  0
   -3.2450   24.7740  -30.7620 H   0  0  0  0  0  0  0  0  0  0  0  0
   -3.6880   25.3300  -29.0650 H   0  0  0  0  0  0  0  0  0  0  0  0
   -2.2865   21.5737  -30.3170 H   0  0  0  0  0  0  0  0  0  0  0  0
   -1.1227   22.7499  -31.1243 H   0  0  0  0  0  0  0  0  0  0  0  0
   -2.4649   22.9829  -28.4507 H   0  0  0  0  0  0  0  0  0  0  0  0
   -0.7128   22.8710  -28.8388 H   0  0  0  0  0  0  0  0  0  0  0  0
   -1.5440   24.7644  -27.3048 H   0  0  0  0  0  0  0  0  0  0  0  0
   -0.1220   25.3865  -28.2090 H   0  0  0  0  0  0  0  0  0  0  0  0
   -1.6615   26.3121  -28.2090 H   0  0  0  0  0  0  0  0  0  0  0  0
   -5.8059   20.2381  -32.4418 H   0  0  0  0  0  0  0  0  0  0  0  0
  1  2  1  0
  2  3  1  0
  3  4  2  0
  3  5  1  0
  5  6  1  0
  6  7  1  0
  7  8  2  0
  8  9  1  0
  9 10  2  0
 10 11  1  0
 11 12  2  0
 12 13  1  0
 13 14  1  0
 13 15  2  0
 12 16  1  0
 16 17  1  0
 17 18  2  0
 17 19  1  0
 19 20  1  0
 20 21  1  0
 21 22  1  0
 22 23  1  0
 16 24  1  0
 24 25  2  0
 25  7  1  0
 24 10  1  0
  1 26  1  0
  1 27  1  0
  1 28  1  0
  2 29  1  0
  5 30  1  0
  5 31  1  0
  6 32  1  0
  8 33  1  0
  9 34  1  0
 11 35  1  0
 14 36  1  0
 14 37  1  0
 20 38  1  0
 20 39  1  0
 21 40  1  0
 21 41  1  0
 23 42  1  0
 23 43  1  0
 23 44  1  0
 25 45  1  0
M  END
>  <smiles>  (63) 
CNC(=O)CNc1ccc2cc(C(N)=O)n(C(=O)OCCOC)c2c1

>  <score_type>  (63) 
oracle

>  <origin>  (63) 
adg

>  <m_score__min__energy>  (63) 
-8.8499999999999996

>  <m_primary>  (63) 
energy

$$$$
68:0
     RDKit          3D

 38 39  0  0  1  0  0  0  0  0999 V2000
   -6.0570   25.7030  -29.0470 N   0  0  0  0  0  0  0  0  0  0  0  0
   -5.7520   25.0520  -30.2490 C   0  0  0  0  0  0  0  0  0  0  0  0
   -4.8910   25.6680  -30.9900 O   0  0  0  0  0  0  0  0  0  0  0  0
   -6.2430   23.8050  -30.7680 C   0  0  0  0  0  0  0  0  0  0  0  0
   -7.6270   23.6470  -30.9790 C   0  0  0  0  0  0  0  0  0  0  0  0
   -7.8890   22.4170  -31.5080 C   0  0  0  0  0  0  0  0  0  0  0  0
   -9.0740   21.8200  -31.8770 C   0  0  0  0  0  0  0  0  0  0  0  0
   -9.0380   20.5440  -32.3890 C   0  0  0  0  0  0  0  0  0  0  0  0
   -7.8470   19.8790  -32.5300 C   0  0  0  0  0  0  0  0  0  0  0  0
   -7.7770   18.5510  -33.0300 N   0  0  0  0  0  0  0  0  0  0  0  0
   -6.6120   17.7100  -32.9880 C   0  0  0  0  0  0  0  0  0  0  0  0
   -5.7210   17.8440  -34.1880 C   0  0  0  0  0  0  0  0  0  0  0  0
   -6.0700   18.8640  -35.0160 O   0  0  0  0  0  0  0  0  0  0  0  0
   -6.6770   20.5270  -32.1440 C   0  0  0  0  0  0  0  0  0  0  0  0
   -6.6550   21.8010  -31.6260 C   0  0  0  0  0  0  0  0  0  0  0  0
   -5.6830   22.6610  -31.1700 N   0  0  0  0  0  0  0  0  0  0  0  0
   -4.3200   22.2850  -31.2080 C   0  0  0  0  0  0  0  0  0  0  0  0
   -3.7460   22.4700  -32.3070 O   0  0  0  0  0  0  0  0  0  0  0  0
   -3.5580   21.7170  -30.1330 C   0  0  0  0  0  0  0  0  0  0  0  0
   -3.1740   22.4210  -29.0970 C   0  0  0  0  0  0  0  0  0  0  0  0
   -3.4030   23.7950  -28.8160 C   0  0  0  0  0  0  0  0  0  0  0  0
   -4.0550   24.3690  -27.9290 O   0  0  0  0  0  0  0  0  0  0  0  0
   -2.7780   24.7180  -29.7060 O   0  0  0  0  0  0  0  0  0  0  0  0
   -6.2430   26.7370  -28.9680 H   0  0  0  0  0  0  0  0  0  0  0  0
   -6.1060   25.1380  -28.1690 H   0  0  0  0  0  0  0  0  0  0  0  0
   -8.3882   24.4073  -30.7498 H   0  0  0  0  0  0  0  0  0  0  0  0
  -10.0297   22.3528  -31.7645 H   0  0  0  0  0  0  0  0  0  0  0  0
   -9.9748   20.0515  -32.6887 H   0  0  0  0  0  0  0  0  0  0  0  0
   -8.6410   18.1400  -33.4670 H   0  0  0  0  0  0  0  0  0  0  0  0
   -6.0286   17.9711  -32.0927 H   0  0  0  0  0  0  0  0  0  0  0  0
   -6.9698   16.6700  -32.9709 H   0  0  0  0  0  0  0  0  0  0  0  0
   -4.6921   18.0163  -33.8392 H   0  0  0  0  0  0  0  0  0  0  0  0
   -5.8176   16.9131  -34.7660 H   0  0  0  0  0  0  0  0  0  0  0  0
   -7.0120   19.1890  -34.9350 H   0  0  0  0  0  0  0  0  0  0  0  0
   -5.7220   19.9933  -32.2590 H   0  0  0  0  0  0  0  0  0  0  0  0
   -3.2865   20.6521  -30.1805 H   0  0  0  0  0  0  0  0  0  0  0  0
   -2.5941   21.8727  -28.3400 H   0  0  0  0  0  0  0  0  0  0  0  0
   -3.1300   25.6750  -29.7360 H   0  0  0  0  0  0  0  0  0  0  0  0
  1  2  1  0
  2  3  2  0
  2  4  1  0
  4  5  2  0
  5  6  1  0
  6  7  2  0
  7  8  1  0
  8  9  2  0
  9 10  1  0
 10 11  1  0
 11 12  1  0
 12 13  1  0
  9 14  1  0
 14 15  2  0
 15 16  1  0
 16 17  1  0
 17 18  2  0
 17 19  1  0
 19 20  2  0
 20 21  1  0
 21 22  2  0
 21 23  1  0
 16  4  1  0
 15  6  1  0
  1 24  1  0
  1 25  1  0
  5 26  1  0
  7 27  1  0
  8 28  1  0
 10 29  1  0
 11 30  1  0
 11 31  1  0
 12 32  1  0
 12 33  1  0
 13 34  1  0
 14 35  1  0
 19 36  1  0
 20 37  1  0
 23 38  1  0
M  END
>  <smiles>  (64) 
NC(=O)c1cc2ccc(NCCO)cc2n1C(=O)C=CC(=O)O

>  <score_type>  (64) 
oracle

>  <origin>  (64) 
adg

>  <m_score__min__energy>  (64) 
-9.2699999999999996

>  <m_primary>  (64) 
energy

$$$$
69:0
     RDKit          3D

 43 45  0  0  0  0  0  0  0  0999 V2000
   -3.6870   21.0000  -33.4080 C   0  0  0  0  0  0  0  0  0  0  0  0
   -3.8010   21.0010  -31.8420 C   0  0  0  0  0  0  0  0  0  0  0  0
   -4.3000   22.3230  -31.4710 C   0  0  0  0  0  0  0  0  0  0  0  0
   -3.3590   23.1780  -31.2910 O   0  0  0  0  0  0  0  0  0  0  0  0
   -5.6120   22.7780  -31.2920 N   0  0  0  0  0  0  0  0  0  0  0  0
   -6.0840   23.9690  -30.8500 C   0  0  0  0  0  0  0  0  0  0  0  0
   -5.3950   25.1630  -30.4350 C   0  0  0  0  0  0  0  0  0  0  0  0
   -6.0100   26.0000  -29.4170 N   0  0  0  0  0  0  0  0  0  0  0  0
   -4.3050   25.6100  -30.8320 O   0  0  0  0  0  0  0  0  0  0  0  0
   -7.4920   23.9090  -30.8480 C   0  0  0  0  0  0  0  0  0  0  0  0
   -7.8610   22.6770  -31.2920 C   0  0  0  0  0  0  0  0  0  0  0  0
   -9.1130   22.1370  -31.4680 C   0  0  0  0  0  0  0  0  0  0  0  0
   -9.2700   20.8550  -31.9330 C   0  0  0  0  0  0  0  0  0  0  0  0
   -8.1310   20.1390  -32.2140 C   0  0  0  0  0  0  0  0  0  0  0  0
   -8.2710   18.7490  -32.7190 C   0  0  0  0  0  0  0  0  0  0  0  0
   -7.2640   17.7900  -32.1730 C   0  0  0  0  0  0  0  0  0  0  0  0
   -6.1760   17.5490  -33.1820 C   0  0  0  0  0  0  0  0  0  0  0  0
   -5.2740   16.5560  -32.9060 C   0  0  0  0  0  0  0  0  0  0  0  0
   -4.2350   16.2730  -33.7930 C   0  0  0  0  0  0  0  0  0  0  0  0
   -4.1980   17.0560  -34.9360 C   0  0  0  0  0  0  0  0  0  0  0  0
   -5.0940   18.0220  -35.1820 N   0  0  0  0  0  0  0  0  0  0  0  0
   -6.1030   18.3130  -34.3410 C   0  0  0  0  0  0  0  0  0  0  0  0
   -6.8620   20.6960  -32.0310 C   0  0  0  0  0  0  0  0  0  0  0  0
   -6.7020   21.9950  -31.5600 C   0  0  0  0  0  0  0  0  0  0  0  0
   -2.6261   20.9907  -33.6984 H   0  0  0  0  0  0  0  0  0  0  0  0
   -4.1854   20.1062  -33.8114 H   0  0  0  0  0  0  0  0  0  0  0  0
   -4.1697   21.9024  -33.8114 H   0  0  0  0  0  0  0  0  0  0  0  0
   -4.5027   20.2215  -31.5102 H   0  0  0  0  0  0  0  0  0  0  0  0
   -2.8302   20.7915  -31.3691 H   0  0  0  0  0  0  0  0  0  0  0  0
   -6.9070   26.5000  -29.6150 H   0  0  0  0  0  0  0  0  0  0  0  0
   -5.5050   26.0630  -28.5050 H   0  0  0  0  0  0  0  0  0  0  0  0
   -8.1731   24.7165  -30.5413 H   0  0  0  0  0  0  0  0  0  0  0  0
  -10.0018   22.7410  -31.2328 H   0  0  0  0  0  0  0  0  0  0  0  0
  -10.2692   20.4175  -32.0753 H   0  0  0  0  0  0  0  0  0  0  0  0
   -9.2737   18.3848  -32.4508 H   0  0  0  0  0  0  0  0  0  0  0  0
   -8.1070   18.7917  -33.8059 H   0  0  0  0  0  0  0  0  0  0  0  0
   -6.8231   18.2088  -31.2564 H   0  0  0  0  0  0  0  0  0  0  0  0
   -7.7625   16.8356  -31.9479 H   0  0  0  0  0  0  0  0  0  0  0  0
   -5.3697   15.9761  -31.9762 H   0  0  0  0  0  0  0  0  0  0  0  0
   -3.4955   15.4823  -33.5984 H   0  0  0  0  0  0  0  0  0  0  0  0
   -3.4001   16.8772  -35.6718 H   0  0  0  0  0  0  0  0  0  0  0  0
   -6.8290   19.1103  -34.5582 H   0  0  0  0  0  0  0  0  0  0  0  0
   -5.9712   20.0944  -32.2644 H   0  0  0  0  0  0  0  0  0  0  0  0
  1  2  1  0
  2  3  1  0
  3  4  2  0
  3  5  1  0
  5  6  1  0
  6  7  1  0
  7  8  1  0
  7  9  2  0
  6 10  2  0
 10 11  1  0
 11 12  2  0
 12 13  1  0
 13 14  2  0
 14 15  1  0
 15 16  1  0
 16 17  1  0
 17 18  2  0
 18 19  1  0
 19 20  2  0
 20 21  1  0
 21 22  2  0
 14 23  1  0
 23 24  2  0
 24  5  1  0
 24 11  1  0
 22 17  1  0
  1 25  1  0
  1 26  1  0
  1 27  1  0
  2 28  1  0
  2 29  1  0
  8 30  1  0
  8 31  1  0
 10 32  1  0
 12 33  1  0
 13 34  1  0
 15 35  1  0
 15 36  1  0
 16 37  1  0
 16 38  1  0
 18 39  1  0
 19 40  1  0
 20 41  1  0
 22 42  1  0
 23 43  1  0
M  END
>  <smiles>  (65) 
CCC(=O)n1c(C(N)=O)cc2ccc(CCc3cccnc3)cc21

>  <score_type>  (65) 
oracle

>  <origin>  (65) 
adg

>  <m_score__min__energy>  (65) 
-9.9000000000000004

>  <m_primary>  (65) 
energy

$$$$
70:0
     RDKit          3D

 53 55  0  0  0  0  0  0  0  0999 V2000
   -0.8680   26.8470  -27.7730 C   0  0  0  0  0  0  0  0  0  0  0  0
   -1.2080   25.8920  -28.7390 O   0  0  0  0  0  0  0  0  0  0  0  0
   -0.7460   24.6080  -28.5910 C   0  0  0  0  0  0  0  0  0  0  0  0
    0.4940   24.3890  -28.5820 O   0  0  0  0  0  0  0  0  0  0  0  0
   -1.7500   23.4960  -28.4430 C   0  0  0  0  0  0  0  0  0  0  0  0
   -3.1300   24.0740  -28.1810 C   0  0  0  0  0  0  0  0  0  0  0  0
   -1.3680   22.6640  -27.2410 C   0  0  0  0  0  0  0  0  0  0  0  0
   -1.7770   22.6850  -29.7150 C   0  0  0  0  0  0  0  0  0  0  0  0
   -3.1050   22.2080  -29.9100 O   0  0  0  0  0  0  0  0  0  0  0  0
   -3.8240   22.5440  -31.0470 C   0  0  0  0  0  0  0  0  0  0  0  0
   -3.0880   22.6600  -32.0920 O   0  0  0  0  0  0  0  0  0  0  0  0
   -5.2070   22.7530  -31.1440 N   0  0  0  0  0  0  0  0  0  0  0  0
   -5.9250   23.7940  -30.7230 C   0  0  0  0  0  0  0  0  0  0  0  0
   -5.5430   25.0410  -30.1000 C   0  0  0  0  0  0  0  0  0  0  0  0
   -6.2120   25.7090  -29.0530 N   0  0  0  0  0  0  0  0  0  0  0  0
   -4.4830   25.6400  -30.5140 O   0  0  0  0  0  0  0  0  0  0  0  0
   -7.2620   23.5100  -31.0250 C   0  0  0  0  0  0  0  0  0  0  0  0
   -7.3380   22.2840  -31.6350 C   0  0  0  0  0  0  0  0  0  0  0  0
   -8.4200   21.5750  -32.1140 C   0  0  0  0  0  0  0  0  0  0  0  0
   -8.2210   20.3400  -32.6940 C   0  0  0  0  0  0  0  0  0  0  0  0
   -6.9340   19.8540  -32.7740 C   0  0  0  0  0  0  0  0  0  0  0  0
   -6.7140   18.5830  -33.3700 N   0  0  0  0  0  0  0  0  0  0  0  0
   -5.9680   18.2910  -34.5780 C   0  0  0  0  0  0  0  0  0  0  0  0
   -5.5930   16.8260  -34.4910 C   0  0  0  0  0  0  0  0  0  0  0  0
   -6.8610   16.2570  -33.8530 C   0  0  0  0  0  0  0  0  0  0  0  0
   -7.2070   17.3160  -32.8640 C   0  0  0  0  0  0  0  0  0  0  0  0
   -5.8610   20.5860  -32.2850 C   0  0  0  0  0  0  0  0  0  0  0  0
   -6.0440   21.8240  -31.7020 C   0  0  0  0  0  0  0  0  0  0  0  0
   -1.0189   26.4231  -26.7693 H   0  0  0  0  0  0  0  0  0  0  0  0
    0.1871   27.1328  -27.8954 H   0  0  0  0  0  0  0  0  0  0  0  0
   -1.5051   27.7353  -27.8954 H   0  0  0  0  0  0  0  0  0  0  0  0
   -3.2981   24.1444  -27.0962 H   0  0  0  0  0  0  0  0  0  0  0  0
   -3.1987   25.0765  -28.6285 H   0  0  0  0  0  0  0  0  0  0  0  0
   -3.8926   23.4197  -28.6285 H   0  0  0  0  0  0  0  0  0  0  0  0
   -1.6196   23.2119  -26.3209 H   0  0  0  0  0  0  0  0  0  0  0  0
   -1.9194   21.7124  -27.2635 H   0  0  0  0  0  0  0  0  0  0  0  0
   -0.2869   22.4620  -27.2635 H   0  0  0  0  0  0  0  0  0  0  0  0
   -1.4792   23.3160  -30.5654 H   0  0  0  0  0  0  0  0  0  0  0  0
   -1.0764   21.8401  -29.6421 H   0  0  0  0  0  0  0  0  0  0  0  0
   -6.0520   25.3540  -28.0850 H   0  0  0  0  0  0  0  0  0  0  0  0
   -6.8140   26.5160  -29.3060 H   0  0  0  0  0  0  0  0  0  0  0  0
   -8.1171   24.1668  -30.8073 H   0  0  0  0  0  0  0  0  0  0  0  0
   -9.4347   21.9920  -32.0338 H   0  0  0  0  0  0  0  0  0  0  0  0
   -9.0687   19.7570  -33.0833 H   0  0  0  0  0  0  0  0  0  0  0  0
   -6.5908   18.4744  -35.4660 H   0  0  0  0  0  0  0  0  0  0  0  0
   -5.0778   18.9309  -34.6673 H   0  0  0  0  0  0  0  0  0  0  0  0
   -5.4083   16.3934  -35.4854 H   0  0  0  0  0  0  0  0  0  0  0  0
   -4.6659   16.6201  -33.9359 H   0  0  0  0  0  0  0  0  0  0  0  0
   -7.6605   16.1278  -34.5974 H   0  0  0  0  0  0  0  0  0  0  0  0
   -6.7268   15.2597  -33.4087 H   0  0  0  0  0  0  0  0  0  0  0  0
   -8.2985   17.3647  -32.7363 H   0  0  0  0  0  0  0  0  0  0  0  0
   -6.7501   17.0911  -31.8890 H   0  0  0  0  0  0  0  0  0  0  0  0
   -4.8450   20.1717  -32.3635 H   0  0  0  0  0  0  0  0  0  0  0  0
  1  2  1  0
  2  3  1  0
  3  4  2  0
  3  5  1  0
  5  6  1  0
  5  7  1  0
  5  8  1  0
  8  9  1  0
  9 10  1  0
 10 11  2  0
 10 12  1  0
 12 13  1  0
 13 14  1  0
 14 15  1  0
 14 16  2  0
 13 17  2  0
 17 18  1  0
 18 19  2  0
 19 20  1  0
 20 21  2  0
 21 22  1  0
 22 23  1  0
 23 24  1  0
 24 25  1  0
 25 26  1  0
 21 27  1  0
 27 28  2  0
 28 12  1  0
 28 18  1  0
 26 22  1  0
  1 29  1  0
  1 30  1  0
  1 31  1  0
  6 32  1  0
  6 33  1  0
  6 34  1  0
  7 35  1  0
  7 36  1  0
  7 37  1  0
  8 38  1  0
  8 39  1  0
 15 40  1  0
 15 41  1  0
 17 42  1  0
 19 43  1  0
 20 44  1  0
 23 45  1  0
 23 46  1  0
 24 47  1  0
 24 48  1  0
 25 49  1  0
 25 50  1  0
 26 51  1  0
 26 52  1  0
 27 53  1  0
M  END
>  <smiles>  (66) 
COC(=O)C(C)(C)COC(=O)n1c(C(N)=O)cc2ccc(N3CCCC3)cc21

>  <score_type>  (66) 
oracle

>  <origin>  (66) 
adg

>  <m_score__min__energy>  (66) 
-10.640000000000001

>  <m_primary>  (66) 
energy

$$$$
71:0
     RDKit          3D

 33 34  0  0  0  0  0  0  0  0999 V2000
   -6.8600   17.6490  -33.2560 C   0  0  0  0  0  0  0  0  0  0  0  0
   -5.6270   18.1630  -33.8620 N   0  0  0  0  0  0  0  0  0  0  0  0
   -5.0540   17.5150  -35.0190 C   0  0  0  0  0  0  0  0  0  0  0  0
   -4.9990   19.3080  -33.2970 C   0  0  0  0  0  0  0  0  0  0  0  0
   -3.6350   19.4670  -33.4130 C   0  0  0  0  0  0  0  0  0  0  0  0
   -3.0660   20.5880  -32.8530 C   0  0  0  0  0  0  0  0  0  0  0  0
   -3.8460   21.5180  -32.2000 C   0  0  0  0  0  0  0  0  0  0  0  0
   -3.5180   22.6780  -31.5870 C   0  0  0  0  0  0  0  0  0  0  0  0
   -4.6720   23.2910  -31.0610 C   0  0  0  0  0  0  0  0  0  0  0  0
   -4.6050   24.5340  -30.3600 C   0  0  0  0  0  0  0  0  0  0  0  0
   -5.0040   24.5770  -28.9540 N   0  0  0  0  0  0  0  0  0  0  0  0
   -4.2380   25.6520  -30.7810 O   0  0  0  0  0  0  0  0  0  0  0  0
   -5.7160   22.4640  -31.3760 N   0  0  0  0  0  0  0  0  0  0  0  0
   -7.0690   22.6980  -31.0520 C   0  0  0  0  0  0  0  0  0  0  0  0
   -7.3010   23.0210  -29.8340 O   0  0  0  0  0  0  0  0  0  0  0  0
   -8.2410   22.6240  -31.9090 C   0  0  0  0  0  0  0  0  0  0  0  0
   -9.1140   20.6590  -31.9640 I   0  0  0  0  0  0  0  0  0  0  0  0
   -5.2210   21.3900  -32.0650 C   0  0  0  0  0  0  0  0  0  0  0  0
   -5.7630   20.2610  -32.6340 C   0  0  0  0  0  0  0  0  0  0  0  0
   -6.7727   17.6854  -32.1601 H   0  0  0  0  0  0  0  0  0  0  0  0
   -7.7115   18.2671  -33.5767 H   0  0  0  0  0  0  0  0  0  0  0  0
   -7.0204   16.6091  -33.5767 H   0  0  0  0  0  0  0  0  0  0  0  0
   -4.3583   16.7283  -34.6917 H   0  0  0  0  0  0  0  0  0  0  0  0
   -5.8565   17.0667  -35.6232 H   0  0  0  0  0  0  0  0  0  0  0  0
   -4.5108   18.2566  -35.6232 H   0  0  0  0  0  0  0  0  0  0  0  0
   -3.0199   18.7207  -33.9371 H   0  0  0  0  0  0  0  0  0  0  0  0
   -1.9795   20.7431  -32.9272 H   0  0  0  0  0  0  0  0  0  0  0  0
   -2.4984   23.0838  -31.5103 H   0  0  0  0  0  0  0  0  0  0  0  0
   -5.9120   24.1690  -28.6480 H   0  0  0  0  0  0  0  0  0  0  0  0
   -4.3280   25.0410  -28.2770 H   0  0  0  0  0  0  0  0  0  0  0  0
   -8.9947   23.3327  -31.5351 H   0  0  0  0  0  0  0  0  0  0  0  0
   -7.9188   22.8711  -32.9313 H   0  0  0  0  0  0  0  0  0  0  0  0
   -6.8495   20.1055  -32.5610 H   0  0  0  0  0  0  0  0  0  0  0  0
  1  2  1  0
  2  3  1  0
  2  4  1  0
  4  5  2  0
  5  6  1  0
  6  7  2  0
  7  8  1  0
  8  9  2  0
  9 10  1  0
 10 11  1  0
 10 12  2  0
  9 13  1  0
 13 14  1  0
 14 15  2  0
 14 16  1  0
 16 17  1  0
 13 18  1  0
 18 19  2  0
 19  4  1  0
 18  7  1  0
  1 20  1  0
  1 21  1  0
  1 22  1  0
  3 23  1  0
  3 24  1  0
  3 25  1  0
  5 26  1  0
  6 27  1  0
  8 28  1  0
 11 29  1  0
 11 30  1  0
 16 31  1  0
 16 32  1  0
 19 33  1  0
M  END
>  <smiles>  (67) 
CN(C)c1ccc2cc(C(N)=O)n(C(=O)CI)c2c1

>  <score_type>  (67) 
oracle

>  <origin>  (67) 
adg

>  <m_score__min__energy>  (67) 
-8.25

>  <m_primary>  (67) 
energy

$$$$
72:0
     RDKit          3D

 47 48  0  0  0  0  0  0  0  0999 V2000
   -4.3940   18.9410  -33.4490 C   0  0  0  0  0  0  0  0  0  0  0  0
   -5.7310   18.4540  -33.7290 N   0  0  0  0  0  0  0  0  0  0  0  0
   -5.7030   17.8030  -35.0090 C   0  0  0  0  0  0  0  0  0  0  0  0
   -6.1550   17.5100  -32.6850 C   0  0  0  0  0  0  0  0  0  0  0  0
   -7.6040   17.7030  -32.3520 C   0  0  0  0  0  0  0  0  0  0  0  0
   -8.2110   18.8680  -32.9120 N   0  0  0  0  0  0  0  0  0  0  0  0
   -8.1330   20.1800  -32.3860 C   0  0  0  0  0  0  0  0  0  0  0  0
   -9.2590   20.8720  -32.0130 C   0  0  0  0  0  0  0  0  0  0  0  0
   -9.1110   22.1360  -31.4920 C   0  0  0  0  0  0  0  0  0  0  0  0
   -7.8610   22.6830  -31.3530 C   0  0  0  0  0  0  0  0  0  0  0  0
   -7.4680   23.8780  -30.8540 C   0  0  0  0  0  0  0  0  0  0  0  0
   -6.0710   23.9770  -30.9020 C   0  0  0  0  0  0  0  0  0  0  0  0
   -5.4130   25.1790  -30.4330 C   0  0  0  0  0  0  0  0  0  0  0  0
   -6.0100   25.9560  -29.3620 N   0  0  0  0  0  0  0  0  0  0  0  0
   -4.3410   25.6690  -30.8450 O   0  0  0  0  0  0  0  0  0  0  0  0
   -5.6090   22.8130  -31.4420 N   0  0  0  0  0  0  0  0  0  0  0  0
   -4.2490   22.5200  -31.5660 C   0  0  0  0  0  0  0  0  0  0  0  0
   -3.9080   22.1610  -32.7750 O   0  0  0  0  0  0  0  0  0  0  0  0
   -3.1540   22.5240  -30.6480 C   0  0  0  0  0  0  0  0  0  0  0  0
   -1.9320   22.6170  -30.8690 O   0  0  0  0  0  0  0  0  0  0  0  0
   -3.4560   22.4040  -29.2710 O   0  0  0  0  0  0  0  0  0  0  0  0
   -3.5570   23.4400  -28.3620 C   0  0  0  0  0  0  0  0  0  0  0  0
   -2.4290   24.3980  -28.2600 C   0  0  0  0  0  0  0  0  0  0  0  0
   -1.2490   23.6350  -28.3460 F   0  0  0  0  0  0  0  0  0  0  0  0
   -2.3380   25.0500  -27.0530 F   0  0  0  0  0  0  0  0  0  0  0  0
   -2.3640   25.2830  -29.3210 F   0  0  0  0  0  0  0  0  0  0  0  0
   -6.6940   22.0230  -31.7170 C   0  0  0  0  0  0  0  0  0  0  0  0
   -6.8800   20.7670  -32.2300 C   0  0  0  0  0  0  0  0  0  0  0  0
   -4.2441   18.9956  -32.3606 H   0  0  0  0  0  0  0  0  0  0  0  0
   -3.6545   18.2545  -33.8870 H   0  0  0  0  0  0  0  0  0  0  0  0
   -4.2693   19.9423  -33.8870 H   0  0  0  0  0  0  0  0  0  0  0  0
   -5.6561   16.7134  -34.8653 H   0  0  0  0  0  0  0  0  0  0  0  0
   -6.6130   18.0599  -35.5710 H   0  0  0  0  0  0  0  0  0  0  0  0
   -4.8184   18.1371  -35.5710 H   0  0  0  0  0  0  0  0  0  0  0  0
   -6.0010   16.4817  -33.0440 H   0  0  0  0  0  0  0  0  0  0  0  0
   -5.5571   17.6922  -31.7799 H   0  0  0  0  0  0  0  0  0  0  0  0
   -8.1560   16.8241  -32.7165 H   0  0  0  0  0  0  0  0  0  0  0  0
   -7.6497   17.8322  -31.2606 H   0  0  0  0  0  0  0  0  0  0  0  0
   -8.7700   18.7110  -33.8100 H   0  0  0  0  0  0  0  0  0  0  0  0
  -10.2574   20.4250  -32.1284 H   0  0  0  0  0  0  0  0  0  0  0  0
   -9.9979   22.7101  -31.1858 H   0  0  0  0  0  0  0  0  0  0  0  0
   -8.1441   24.6553  -30.4684 H   0  0  0  0  0  0  0  0  0  0  0  0
   -5.4730   26.0560  -28.4710 H   0  0  0  0  0  0  0  0  0  0  0  0
   -6.9490   26.3940  -29.5030 H   0  0  0  0  0  0  0  0  0  0  0  0
   -4.4536   24.0195  -28.6269 H   0  0  0  0  0  0  0  0  0  0  0  0
   -3.5787   22.9405  -27.3822 H   0  0  0  0  0  0  0  0  0  0  0  0
   -5.9933   20.1918  -32.5347 H   0  0  0  0  0  0  0  0  0  0  0  0
  1  2  1  0
  2  3  1  0
  2  4  1  0
  4  5  1  0
  5  6  1  0
  6  7  1  0
  7  8  2  0
  8  9  1  0
  9 10  2  0
 10 11  1  0
 11 12  2  0
 12 13  1  0
 13 14  1  0
 13 15  2  0
 12 16  1  0
 16 17  1  0
 17 18  2  0
 17 19  1  0
 19 20  2  0
 19 21  1  0
 21 22  1  0
 22 23  1  0
 23 24  1  0
 23 25  1  0
 23 26  1  0
 16 27  1  0
 27 28  2  0
 28  7  1  0
 27 10  1  0
  1 29  1  0
  1 30  1  0
  1 31  1  0
  3 32  1  0
  3 33  1  0
  3 34  1  0
  4 35  1  0
  4 36  1  0
  5 37  1  0
  5 38  1  0
  6 39  1  0
  8 40  1  0
  9 41  1  0
 11 42  1  0
 14 43  1  0
 14 44  1  0
 22 45  1  0
 22 46  1  0
 28 47  1  0
M  END
>  <smiles>  (68) 
CN(C)CCNc1ccc2cc(C(N)=O)n(C(=O)C(=O)OCC(F)(F)F)c2c1

>  <score_type>  (68) 
oracle

>  <origin>  (68) 
adg

>  <m_score__min__energy>  (68) 
-8.4900000000000002

>  <m_primary>  (68) 
energy

$$$$
73:0
     RDKit          3D

 45 47  0  0  0  0  0  0  0  0999 V2000
   -4.6230   15.2430  -34.6110 N   0  0  0  0  0  0  0  0  0  0  0  0
   -5.8090   15.8740  -34.1970 C   0  0  0  0  0  0  0  0  0  0  0  0
   -6.8810   15.1960  -34.3540 O   0  0  0  0  0  0  0  0  0  0  0  0
   -5.9350   17.1950  -33.6060 C   0  0  0  0  0  0  0  0  0  0  0  0
   -7.2320   17.6070  -33.2060 C   0  0  0  0  0  0  0  0  0  0  0  0
   -7.0910   18.8190  -32.6060 C   0  0  0  0  0  0  0  0  0  0  0  0
   -8.0380   19.6470  -32.0500 C   0  0  0  0  0  0  0  0  0  0  0  0
   -7.6830   20.8480  -31.4970 C   0  0  0  0  0  0  0  0  0  0  0  0
   -6.3530   21.1950  -31.5180 C   0  0  0  0  0  0  0  0  0  0  0  0
   -5.9910   22.4560  -30.9430 N   0  0  0  0  0  0  0  0  0  0  0  0
   -4.6960   22.5860  -30.3260 C   0  0  0  0  0  0  0  0  0  0  0  0
   -4.6630   23.7420  -29.3530 C   0  0  0  0  0  0  0  0  0  0  0  0
   -5.0090   25.0500  -30.0120 C   0  0  0  0  0  0  0  0  0  0  0  0
   -3.9020   25.5900  -30.6520 O   0  0  0  0  0  0  0  0  0  0  0  0
   -6.0990   24.9130  -31.0420 C   0  0  0  0  0  0  0  0  0  0  0  0
   -6.8570   23.6080  -30.9520 C   0  0  0  0  0  0  0  0  0  0  0  0
   -5.4040   20.3490  -32.0840 C   0  0  0  0  0  0  0  0  0  0  0  0
   -5.7580   19.1230  -32.6480 C   0  0  0  0  0  0  0  0  0  0  0  0
   -5.0420   18.1270  -33.2690 N   0  0  0  0  0  0  0  0  0  0  0  0
   -3.6450   18.1940  -33.3460 C   0  0  0  0  0  0  0  0  0  0  0  0
   -3.0960   17.0440  -33.6500 O   0  0  0  0  0  0  0  0  0  0  0  0
   -2.6940   19.2240  -33.1570 C   0  0  0  0  0  0  0  0  0  0  0  0
   -2.1710   20.1020  -33.9660 C   0  0  0  0  0  0  0  0  0  0  0  0
   -1.1770   21.0940  -33.5600 C   0  0  0  0  0  0  0  0  0  0  0  0
   -0.9180   21.2640  -32.3260 O   0  0  0  0  0  0  0  0  0  0  0  0
   -0.4990   21.8680  -34.4610 O   0  0  0  0  0  0  0  0  0  0  0  0
   -4.6130   14.5760  -35.4100 H   0  0  0  0  0  0  0  0  0  0  0  0
   -3.6950   15.4250  -34.1210 H   0  0  0  0  0  0  0  0  0  0  0  0
   -8.1708   17.0529  -33.3529 H   0  0  0  0  0  0  0  0  0  0  0  0
   -9.0944   19.3403  -32.0496 H   0  0  0  0  0  0  0  0  0  0  0  0
   -8.4369   21.5132  -31.0507 H   0  0  0  0  0  0  0  0  0  0  0  0
   -4.4618   21.6567  -29.7860 H   0  0  0  0  0  0  0  0  0  0  0  0
   -3.9537   22.7761  -31.1152 H   0  0  0  0  0  0  0  0  0  0  0  0
   -5.3874   23.5483  -28.5482 H   0  0  0  0  0  0  0  0  0  0  0  0
   -3.6391   23.8228  -28.9593 H   0  0  0  0  0  0  0  0  0  0  0  0
   -5.3575   25.7055  -29.2003 H   0  0  0  0  0  0  0  0  0  0  0  0
   -4.1770   25.6740  -31.6190 H   0  0  0  0  0  0  0  0  0  0  0  0
   -6.8121   25.7394  -30.9055 H   0  0  0  0  0  0  0  0  0  0  0  0
   -5.6144   24.9369  -32.0292 H   0  0  0  0  0  0  0  0  0  0  0  0
   -7.4491   23.6092  -30.0250 H   0  0  0  0  0  0  0  0  0  0  0  0
   -7.4950   23.5345  -31.8451 H   0  0  0  0  0  0  0  0  0  0  0  0
   -4.3474   20.6548  -32.0868 H   0  0  0  0  0  0  0  0  0  0  0  0
   -2.3229   19.2987  -32.1242 H   0  0  0  0  0  0  0  0  0  0  0  0
   -2.4969   20.0962  -35.0166 H   0  0  0  0  0  0  0  0  0  0  0  0
   -1.0070   22.3080  -35.2230 H   0  0  0  0  0  0  0  0  0  0  0  0
  1  2  1  0
  2  3  2  0
  2  4  1  0
  4  5  2  0
  5  6  1  0
  6  7  2  0
  7  8  1  0
  8  9  2  0
  9 10  1  0
 10 11  1  0
 11 12  1  0
 12 13  1  0
 13 14  1  0
 13 15  1  0
 15 16  1  0
  9 17  1  0
 17 18  2  0
 18 19  1  0
 19 20  1  0
 20 21  2  0
 20 22  1  0
 22 23  2  0
 23 24  1  0
 24 25  2  0
 24 26  1  0
 19  4  1  0
 18  6  1  0
 16 10  1  0
  1 27  1  0
  1 28  1  0
  5 29  1  0
  7 30  1  0
  8 31  1  0
 11 32  1  0
 11 33  1  0
 12 34  1  0
 12 35  1  0
 13 36  1  0
 14 37  1  0
 15 38  1  0
 15 39  1  0
 16 40  1  0
 16 41  1  0
 17 42  1  0
 22 43  1  0
 23 44  1  0
 26 45  1  0
M  END
>  <smiles>  (69) 
NC(=O)c1cc2ccc(N3CCC(O)CC3)cc2n1C(=O)/C=C/C(=O)O

>  <score_type>  (69) 
oracle

>  <origin>  (69) 
adg

>  <m_score__min__energy>  (69) 
-10.24

>  <m_primary>  (69) 
energy

$$$$
74:0
     RDKit          3D

 41 42  0  0  0  0  0  0  0  0999 V2000
   -3.9730   25.0260  -29.9530 N   0  0  0  0  0  0  0  0  0  0  0  0
   -5.3000   25.1480  -30.5220 C   0  0  0  0  0  0  0  0  0  0  0  0
   -5.7260   26.3280  -30.5700 O   0  0  0  0  0  0  0  0  0  0  0  0
   -5.9860   23.9710  -30.9620 C   0  0  0  0  0  0  0  0  0  0  0  0
   -7.3700   23.9310  -31.1610 C   0  0  0  0  0  0  0  0  0  0  0  0
   -7.7430   22.6860  -31.5790 C   0  0  0  0  0  0  0  0  0  0  0  0
   -8.9820   22.1500  -31.9030 C   0  0  0  0  0  0  0  0  0  0  0  0
   -9.0740   20.8340  -32.3040 C   0  0  0  0  0  0  0  0  0  0  0  0
   -7.9430   20.0850  -32.3720 C   0  0  0  0  0  0  0  0  0  0  0  0
   -8.0250   18.7150  -32.7870 N   0  0  0  0  0  0  0  0  0  0  0  0
   -7.0600   17.7890  -32.2290 C   0  0  0  0  0  0  0  0  0  0  0  0
   -6.1980   17.1770  -33.3150 C   0  0  0  0  0  0  0  0  0  0  0  0
   -6.8920   16.2410  -34.0460 F   0  0  0  0  0  0  0  0  0  0  0  0
   -5.6760   18.1600  -34.1410 F   0  0  0  0  0  0  0  0  0  0  0  0
   -6.7070   20.6380  -32.0420 C   0  0  0  0  0  0  0  0  0  0  0  0
   -6.5760   21.9480  -31.6380 C   0  0  0  0  0  0  0  0  0  0  0  0
   -5.5360   22.7450  -31.2630 N   0  0  0  0  0  0  0  0  0  0  0  0
   -4.1930   22.2930  -31.2150 C   0  0  0  0  0  0  0  0  0  0  0  0
   -3.3480   22.9150  -31.9480 O   0  0  0  0  0  0  0  0  0  0  0  0
   -3.7050   21.2650  -30.4700 O   0  0  0  0  0  0  0  0  0  0  0  0
   -2.8380   21.2500  -29.4000 C   0  0  0  0  0  0  0  0  0  0  0  0
   -2.2950   22.5180  -28.9340 C   0  0  0  0  0  0  0  0  0  0  0  0
   -1.4070   23.2690  -29.5490 C   0  0  0  0  0  0  0  0  0  0  0  0
   -0.9530   24.5320  -28.9410 C   0  0  0  0  0  0  0  0  0  0  0  0
    0.1840   24.5890  -28.3860 O   0  0  0  0  0  0  0  0  0  0  0  0
   -1.7720   25.6510  -28.9790 O   0  0  0  0  0  0  0  0  0  0  0  0
   -3.1400   24.9240  -30.5740 H   0  0  0  0  0  0  0  0  0  0  0  0
   -3.8660   25.0410  -28.8990 H   0  0  0  0  0  0  0  0  0  0  0  0
   -8.0557   24.7767  -31.0041 H   0  0  0  0  0  0  0  0  0  0  0  0
   -9.8866   22.7727  -31.8401 H   0  0  0  0  0  0  0  0  0  0  0  0
  -10.0492   20.3971  -32.5650 H   0  0  0  0  0  0  0  0  0  0  0  0
   -8.7590   18.4030  -33.4660 H   0  0  0  0  0  0  0  0  0  0  0  0
   -6.4147   18.3273  -31.5192 H   0  0  0  0  0  0  0  0  0  0  0  0
   -7.6059   16.9809  -31.7201 H   0  0  0  0  0  0  0  0  0  0  0  0
   -5.3625   16.6582  -32.8223 H   0  0  0  0  0  0  0  0  0  0  0  0
   -5.8075   20.0081  -32.1063 H   0  0  0  0  0  0  0  0  0  0  0  0
   -3.3728   20.7941  -28.5538 H   0  0  0  0  0  0  0  0  0  0  0  0
   -1.9609   20.6982  -29.7689 H   0  0  0  0  0  0  0  0  0  0  0  0
   -2.6661   22.8867  -27.9663 H   0  0  0  0  0  0  0  0  0  0  0  0
   -1.0017   22.9526  -30.5214 H   0  0  0  0  0  0  0  0  0  0  0  0
   -2.4290   25.7570  -28.2020 H   0  0  0  0  0  0  0  0  0  0  0  0
  1  2  1  0
  2  3  2  0
  2  4  1  0
  4  5  2  0
  5  6  1  0
  6  7  2  0
  7  8  1  0
  8  9  2  0
  9 10  1  0
 10 11  1  0
 11 12  1  0
 12 13  1  0
 12 14  1  0
  9 15  1  0
 15 16  2  0
 16 17  1  0
 17 18  1  0
 18 19  2  0
 18 20  1  0
 20 21  1  0
 21 22  1  0
 22 23  2  0
 23 24  1  0
 24 25  2  0
 24 26  1  0
 17  4  1  0
 16  6  1  0
  1 27  1  0
  1 28  1  0
  5 29  1  0
  7 30  1  0
  8 31  1  0
 10 32  1  0
 11 33  1  0
 11 34  1  0
 12 35  1  0
 15 36  1  0
 21 37  1  0
 21 38  1  0
 22 39  1  0
 23 40  1  0
 26 41  1  0
M  END
>  <smiles>  (70) 
NC(=O)c1cc2ccc(NCC(F)F)cc2n1C(=O)OC/C=C/C(=O)O

>  <score_type>  (70) 
oracle

>  <origin>  (70) 
adg

>  <m_score__min__energy>  (70) 
-9.5

>  <m_primary>  (70) 
energy

$$$$
75:0
     RDKit          3D

 39 40  0  0  1  0  0  0  0  0999 V2000
   -6.1660   25.6960  -29.2780 N   0  0  0  0  0  0  0  0  0  0  0  0
   -5.5100   25.0340  -30.3200 C   0  0  0  0  0  0  0  0  0  0  0  0
   -4.5180   25.6690  -30.8370 O   0  0  0  0  0  0  0  0  0  0  0  0
   -5.7850   23.7340  -30.8830 C   0  0  0  0  0  0  0  0  0  0  0  0
   -7.1450   23.3580  -31.0520 C   0  0  0  0  0  0  0  0  0  0  0  0
   -7.1540   22.1310  -31.6430 C   0  0  0  0  0  0  0  0  0  0  0  0
   -8.2200   21.3430  -32.0120 C   0  0  0  0  0  0  0  0  0  0  0  0
   -8.0060   20.1160  -32.5990 C   0  0  0  0  0  0  0  0  0  0  0  0
   -6.7190   19.7190  -32.7970 C   0  0  0  0  0  0  0  0  0  0  0  0
   -6.4780   18.3960  -33.4300 C   0  0  0  0  0  0  0  0  0  0  0  0
   -5.3930   17.7960  -32.7790 F   0  0  0  0  0  0  0  0  0  0  0  0
   -7.5870   17.5780  -33.3270 F   0  0  0  0  0  0  0  0  0  0  0  0
   -6.1000   18.5300  -34.7510 F   0  0  0  0  0  0  0  0  0  0  0  0
   -5.6440   20.5300  -32.4170 C   0  0  0  0  0  0  0  0  0  0  0  0
   -5.8440   21.7690  -31.8250 C   0  0  0  0  0  0  0  0  0  0  0  0
   -5.0030   22.7520  -31.3550 N   0  0  0  0  0  0  0  0  0  0  0  0
   -3.6150   22.6190  -31.4620 C   0  0  0  0  0  0  0  0  0  0  0  0
   -3.1900   22.1390  -32.5770 O   0  0  0  0  0  0  0  0  0  0  0  0
   -2.5790   22.9220  -30.5140 C   0  0  0  0  0  0  0  0  0  0  0  0
   -1.5520   22.2590  -30.2630 O   0  0  0  0  0  0  0  0  0  0  0  0
   -2.6890   24.1040  -29.7480 O   0  0  0  0  0  0  0  0  0  0  0  0
   -3.0940   24.1160  -28.4150 C   0  0  0  0  0  0  0  0  0  0  0  0
   -2.0300   23.8160  -27.4100 C   0  0  1  0  0  0  0  0  0  0  0  0
   -1.4630   22.5620  -27.5870 O   0  0  0  0  0  0  0  0  0  0  0  0
   -0.8700   24.8140  -27.5260 C   0  0  0  0  0  0  0  0  0  0  0  0
   -0.1150   24.5420  -28.6530 O   0  0  0  0  0  0  0  0  0  0  0  0
   -6.3260   26.7300  -29.2830 H   0  0  0  0  0  0  0  0  0  0  0  0
   -6.5050   25.1120  -28.4660 H   0  0  0  0  0  0  0  0  0  0  0  0
   -8.0262   23.9480  -30.7599 H   0  0  0  0  0  0  0  0  0  0  0  0
   -9.2475   21.6948  -31.8373 H   0  0  0  0  0  0  0  0  0  0  0  0
   -8.8491   19.4762  -32.8987 H   0  0  0  0  0  0  0  0  0  0  0  0
   -4.6168   20.1773  -32.5915 H   0  0  0  0  0  0  0  0  0  0  0  0
   -3.4957   25.1157  -28.1932 H   0  0  0  0  0  0  0  0  0  0  0  0
   -3.8323   23.3062  -28.3195 H   0  0  0  0  0  0  0  0  0  0  0  0
   -2.5341   23.8746  -26.4340 H   0  0  0  0  0  0  0  0  0  0  0  0
   -0.9950   22.5470  -28.4750 H   0  0  0  0  0  0  0  0  0  0  0  0
   -1.2746   25.8344  -27.5976 H   0  0  0  0  0  0  0  0  0  0  0  0
   -0.2300   24.7247  -26.6358 H   0  0  0  0  0  0  0  0  0  0  0  0
   -0.5470   23.8520  -29.2150 H   0  0  0  0  0  0  0  0  0  0  0  0
  1  2  1  0
  2  3  2  0
  2  4  1  0
  4  5  2  0
  5  6  1  0
  6  7  2  0
  7  8  1  0
  8  9  2  0
  9 10  1  0
 10 11  1  0
 10 12  1  0
 10 13  1  0
  9 14  1  0
 14 15  2  0
 15 16  1  0
 16 17  1  0
 17 18  2  0
 17 19  1  0
 19 20  2  0
 19 21  1  0
 21 22  1  0
 22 23  1  0
 23 24  1  0
 23 25  1  0
 25 26  1  0
 16  4  1  0
 15  6  1  0
  1 27  1  0
  1 28  1  0
  5 29  1  0
  7 30  1  0
  8 31  1  0
 14 32  1  0
 22 33  1  0
 22 34  1  0
 23 35  1  1
 24 36  1  0
 25 37  1  0
 25 38  1  0
 26 39  1  0
M  END
>  <smiles>  (71) 
NC(=O)c1cc2ccc(C(F)(F)F)cc2n1C(=O)C(=O)OCC(O)CO

>  <score_type>  (71) 
oracle

>  <origin>  (71) 
adg

>  <m_score__min__energy>  (71) 
-8.0800000000000001

>  <m_primary>  (71) 
energy

$$$$
76:0
     RDKit          3D

 59 61  0  0  0  0  0  0  0  0999 V2000
   -5.7280   15.5240  -33.5310 C   0  0  0  0  0  0  0  0  0  0  0  0
   -6.5070   16.5400  -34.0980 O   0  0  0  0  0  0  0  0  0  0  0  0
   -6.8530   17.6660  -33.3640 C   0  0  0  0  0  0  0  0  0  0  0  0
   -7.8070   17.6320  -32.3510 C   0  0  0  0  0  0  0  0  0  0  0  0
   -8.1300   18.7680  -31.6380 C   0  0  0  0  0  0  0  0  0  0  0  0
   -7.4780   19.9370  -31.9590 C   0  0  0  0  0  0  0  0  0  0  0  0
   -7.7230   21.1460  -31.3050 O   0  0  0  0  0  0  0  0  0  0  0  0
   -8.5450   22.1250  -31.8480 C   0  0  0  0  0  0  0  0  0  0  0  0
   -9.7910   21.9280  -31.9900 O   0  0  0  0  0  0  0  0  0  0  0  0
   -7.8920   23.4040  -32.2520 C   0  0  0  0  0  0  0  0  0  0  0  0
   -6.7280   23.7170  -31.3850 C   0  0  0  0  0  0  0  0  0  0  0  0
   -6.8650   24.6580  -30.3860 C   0  0  0  0  0  0  0  0  0  0  0  0
   -5.7690   24.9280  -29.5960 C   0  0  0  0  0  0  0  0  0  0  0  0
   -4.5740   24.2830  -29.7920 C   0  0  0  0  0  0  0  0  0  0  0  0
   -3.3630   24.3730  -29.1530 C   0  0  0  0  0  0  0  0  0  0  0  0
   -2.4490   23.4860  -29.7460 C   0  0  0  0  0  0  0  0  0  0  0  0
   -1.0990   23.3680  -29.2800 C   0  0  0  0  0  0  0  0  0  0  0  0
   -0.3240   22.2030  -29.1250 N   0  0  0  0  0  0  0  0  0  0  0  0
   -0.5020   24.4550  -28.9560 O   0  0  0  0  0  0  0  0  0  0  0  0
   -3.1220   22.8730  -30.7350 N   0  0  0  0  0  0  0  0  0  0  0  0
   -2.6470   21.8900  -31.6290 C   0  0  0  0  0  0  0  0  0  0  0  0
   -3.3900   21.4880  -32.5800 O   0  0  0  0  0  0  0  0  0  0  0  0
   -1.4030   21.2900  -31.5820 O   0  0  0  0  0  0  0  0  0  0  0  0
   -0.8520   20.5200  -32.6270 C   0  0  0  0  0  0  0  0  0  0  0  0
   -0.8970   21.1900  -33.9700 C   0  0  0  0  0  0  0  0  0  0  0  0
   -1.5760   19.1880  -32.6670 C   0  0  0  0  0  0  0  0  0  0  0  0
    0.6190   20.1940  -32.3560 C   0  0  0  0  0  0  0  0  0  0  0  0
   -4.4060   23.3410  -30.7780 C   0  0  0  0  0  0  0  0  0  0  0  0
   -5.5050   23.0710  -31.5690 C   0  0  0  0  0  0  0  0  0  0  0  0
   -6.5300   19.9700  -32.9650 C   0  0  0  0  0  0  0  0  0  0  0  0
   -6.2000   18.8440  -33.6830 C   0  0  0  0  0  0  0  0  0  0  0  0
   -5.2500   18.8630  -34.6960 O   0  0  0  0  0  0  0  0  0  0  0  0
   -4.0260   18.1850  -34.5180 C   0  0  0  0  0  0  0  0  0  0  0  0
   -5.7795   15.5912  -32.4343 H   0  0  0  0  0  0  0  0  0  0  0  0
   -6.1090   14.5448  -33.8566 H   0  0  0  0  0  0  0  0  0  0  0  0
   -4.6835   15.6378  -33.8566 H   0  0  0  0  0  0  0  0  0  0  0  0
   -8.3118   16.6836  -32.1150 H   0  0  0  0  0  0  0  0  0  0  0  0
   -8.8847   18.7405  -30.8382 H   0  0  0  0  0  0  0  0  0  0  0  0
   -7.5490   23.3170  -33.2935 H   0  0  0  0  0  0  0  0  0  0  0  0
   -8.6277   24.2153  -32.1490 H   0  0  0  0  0  0  0  0  0  0  0  0
   -7.8211   25.1776  -30.2247 H   0  0  0  0  0  0  0  0  0  0  0  0
   -5.8536   25.6749  -28.7929 H   0  0  0  0  0  0  0  0  0  0  0  0
   -3.1416   25.0383  -28.3055 H   0  0  0  0  0  0  0  0  0  0  0  0
    0.2780   21.8500  -29.9270 H   0  0  0  0  0  0  0  0  0  0  0  0
   -0.3440   21.6870  -28.1940 H   0  0  0  0  0  0  0  0  0  0  0  0
   -0.9702   22.2791  -33.8341 H   0  0  0  0  0  0  0  0  0  0  0  0
    0.0192   20.9510  -34.5299 H   0  0  0  0  0  0  0  0  0  0  0  0
   -1.7730   20.8307  -34.5299 H   0  0  0  0  0  0  0  0  0  0  0  0
   -1.7641   18.8419  -31.6399 H   0  0  0  0  0  0  0  0  0  0  0  0
   -2.5336   19.3069  -33.1950 H   0  0  0  0  0  0  0  0  0  0  0  0
   -0.9554   18.4491  -33.1950 H   0  0  0  0  0  0  0  0  0  0  0  0
    0.7921   20.1556  -31.2704 H   0  0  0  0  0  0  0  0  0  0  0  0
    0.8666   19.2192  -32.8014 H   0  0  0  0  0  0  0  0  0  0  0  0
    1.2553   20.9729  -32.8014 H   0  0  0  0  0  0  0  0  0  0  0  0
   -5.4135   22.3226  -32.3699 H   0  0  0  0  0  0  0  0  0  0  0  0
   -6.0271   20.9204  -33.1970 H   0  0  0  0  0  0  0  0  0  0  0  0
   -3.8223   18.0722  -33.4429 H   0  0  0  0  0  0  0  0  0  0  0  0
   -4.0858   17.1914  -34.9861 H   0  0  0  0  0  0  0  0  0  0  0  0
   -3.2154   18.7627  -34.9861 H   0  0  0  0  0  0  0  0  0  0  0  0
  1  2  1  0
  2  3  1  0
  3  4  2  0
  4  5  1  0
  5  6  2  0
  6  7  1  0
  7  8  1  0
  8  9  2  0
  8 10  1  0
 10 11  1  0
 11 12  2  0
 12 13  1  0
 13 14  2  0
 14 15  1  0
 15 16  2  0
 16 17  1  0
 17 18  1  0
 17 19  2  0
 16 20  1  0
 20 21  1  0
 21 22  2  0
 21 23  1  0
 23 24  1  0
 24 25  1  0
 24 26  1  0
 24 27  1  0
 20 28  1  0
 28 29  2  0
  6 30  1  0
 30 31  2  0
 31 32  1  0
 32 33  1  0
 31  3  1  0
 29 11  1  0
 28 14  1  0
  1 34  1  0
  1 35  1  0
  1 36  1  0
  4 37  1  0
  5 38  1  0
 10 39  1  0
 10 40  1  0
 12 41  1  0
 13 42  1  0
 15 43  1  0
 18 44  1  0
 18 45  1  0
 25 46  1  0
 25 47  1  0
 25 48  1  0
 26 49  1  0
 26 50  1  0
 26 51  1  0
 27 52  1  0
 27 53  1  0
 27 54  1  0
 29 55  1  0
 30 56  1  0
 33 57  1  0
 33 58  1  0
 33 59  1  0
M  END
>  <smiles>  (72) 
COc1ccc(OC(=O)Cc2ccc3cc(C(N)=O)n(C(=O)OC(C)(C)C)c3c2)cc1OC

>  <score_type>  (72) 
oracle

>  <origin>  (72) 
adg

>  <m_score__min__energy>  (72) 
-9.2599999999999998

>  <m_primary>  (72) 
energy

$$$$
77:0
     RDKit          3D

 43 45  0  0  0  0  0  0  0  0999 V2000
   -7.2140   17.1800  -33.2150 C   0  0  0  0  0  0  0  0  0  0  0  0
   -7.2200   18.3190  -32.7950 C   0  0  0  0  0  0  0  0  0  0  0  0
   -7.2400   19.6700  -32.3080 C   0  0  0  0  0  0  0  0  0  0  0  0
   -8.4620   20.2610  -32.0970 C   0  0  0  0  0  0  0  0  0  0  0  0
   -8.4710   21.5540  -31.6290 C   0  0  0  0  0  0  0  0  0  0  0  0
   -7.2990   22.2270  -31.3840 C   0  0  0  0  0  0  0  0  0  0  0  0
   -7.0870   23.4890  -30.9270 C   0  0  0  0  0  0  0  0  0  0  0  0
   -5.6940   23.6970  -30.8480 C   0  0  0  0  0  0  0  0  0  0  0  0
   -5.1650   24.9570  -30.3920 C   0  0  0  0  0  0  0  0  0  0  0  0
   -5.7780   25.5810  -29.2250 N   0  0  0  0  0  0  0  0  0  0  0  0
   -4.2290   25.6310  -30.8510 O   0  0  0  0  0  0  0  0  0  0  0  0
   -5.0770   22.5680  -31.2560 N   0  0  0  0  0  0  0  0  0  0  0  0
   -3.7240   22.2490  -31.3780 C   0  0  0  0  0  0  0  0  0  0  0  0
   -3.1990   22.2960  -32.5590 O   0  0  0  0  0  0  0  0  0  0  0  0
   -2.7380   21.8510  -30.3600 C   0  0  0  0  0  0  0  0  0  0  0  0
   -1.9380   23.1200  -29.9370 C   0  0  0  0  0  0  0  0  0  0  0  0
   -1.9880   23.2280  -28.4850 N   0  0  0  0  0  0  0  0  0  0  0  0
   -2.0560   24.5820  -28.0370 C   0  0  0  0  0  0  0  0  0  0  0  0
   -3.0980   24.9100  -27.0500 C   0  0  0  0  0  0  0  0  0  0  0  0
   -4.1820   24.0890  -26.9450 O   0  0  0  0  0  0  0  0  0  0  0  0
   -4.2900   23.1470  -27.9390 C   0  0  0  0  0  0  0  0  0  0  0  0
   -2.9920   22.3600  -27.9330 C   0  0  0  0  0  0  0  0  0  0  0  0
   -6.0620   21.6700  -31.5830 C   0  0  0  0  0  0  0  0  0  0  0  0
   -6.0580   20.3650  -32.0540 C   0  0  0  0  0  0  0  0  0  0  0  0
   -7.2086   16.1479  -33.5956 H   0  0  0  0  0  0  0  0  0  0  0  0
   -9.3989   19.7198  -32.2951 H   0  0  0  0  0  0  0  0  0  0  0  0
   -9.4322   22.0574  -31.4480 H   0  0  0  0  0  0  0  0  0  0  0  0
   -7.8655   24.2205  -30.6645 H   0  0  0  0  0  0  0  0  0  0  0  0
   -6.6620   26.1260  -29.3170 H   0  0  0  0  0  0  0  0  0  0  0  0
   -5.2740   25.4410  -28.3110 H   0  0  0  0  0  0  0  0  0  0  0  0
   -3.2548   21.4278  -29.4860 H   0  0  0  0  0  0  0  0  0  0  0  0
   -2.0565   21.0896  -30.7673 H   0  0  0  0  0  0  0  0  0  0  0  0
   -0.8929   23.0284  -30.2676 H   0  0  0  0  0  0  0  0  0  0  0  0
   -2.3764   24.0166  -30.3995 H   0  0  0  0  0  0  0  0  0  0  0  0
   -1.0835   24.8317  -27.5876 H   0  0  0  0  0  0  0  0  0  0  0  0
   -2.3180   25.1652  -28.9321 H   0  0  0  0  0  0  0  0  0  0  0  0
   -2.6131   24.9339  -26.0630 H   0  0  0  0  0  0  0  0  0  0  0  0
   -3.5171   25.8612  -27.4100 H   0  0  0  0  0  0  0  0  0  0  0  0
   -5.1401   22.4786  -27.7378 H   0  0  0  0  0  0  0  0  0  0  0  0
   -4.4628   23.6200  -28.9170 H   0  0  0  0  0  0  0  0  0  0  0  0
   -2.7248   22.0750  -26.9047 H   0  0  0  0  0  0  0  0  0  0  0  0
   -3.0846   21.4341  -28.5196 H   0  0  0  0  0  0  0  0  0  0  0  0
   -5.0949   19.8642  -32.2322 H   0  0  0  0  0  0  0  0  0  0  0  0
  1  2  3  0
  2  3  1  0
  3  4  2  0
  4  5  1  0
  5  6  2  0
  6  7  1  0
  7  8  2  0
  8  9  1  0
  9 10  1  0
  9 11  2  0
  8 12  1  0
 12 13  1  0
 13 14  2  0
 13 15  1  0
 15 16  1  0
 16 17  1  0
 17 18  1  0
 18 19  1  0
 19 20  1  0
 20 21  1  0
 21 22  1  0
 12 23  1  0
 23 24  2  0
 24  3  1  0
 23  6  1  0
 22 17  1  0
  1 25  1  0
  4 26  1  0
  5 27  1  0
  7 28  1  0
 10 29  1  0
 10 30  1  0
 15 31  1  0
 15 32  1  0
 16 33  1  0
 16 34  1  0
 18 35  1  0
 18 36  1  0
 19 37  1  0
 19 38  1  0
 21 39  1  0
 21 40  1  0
 22 41  1  0
 22 42  1  0
 24 43  1  0
M  END
>  <smiles>  (73) 
C#Cc1ccc2cc(C(N)=O)n(C(=O)CCN3CCOCC3)c2c1

>  <score_type>  (73) 
oracle

>  <origin>  (73) 
adg

>  <m_score__min__energy>  (73) 
-9.3699999999999992

>  <m_primary>  (73) 
energy

$$$$
78:0
     RDKit          3D

 40 41  0  0  0  0  0  0  0  0999 V2000
   -1.5620   22.9090  -29.9210 C   0  0  0  0  0  0  0  0  0  0  0  0
   -2.1160   24.1130  -29.1950 C   0  0  2  0  0  0  0  0  0  0  0  0
   -3.1250   24.7580  -29.9890 N   0  0  0  0  0  0  0  0  0  0  0  0
   -4.4260   24.2270  -30.1750 C   0  0  0  0  0  0  0  0  0  0  0  0
   -5.5350   24.8690  -29.6710 C   0  0  0  0  0  0  0  0  0  0  0  0
   -6.7710   24.3200  -29.8710 C   0  0  0  0  0  0  0  0  0  0  0  0
   -6.9140   23.1500  -30.5620 C   0  0  0  0  0  0  0  0  0  0  0  0
   -8.0070   22.4050  -30.8950 C   0  0  0  0  0  0  0  0  0  0  0  0
   -7.6160   21.2700  -31.6210 C   0  0  0  0  0  0  0  0  0  0  0  0
   -8.5550   20.2840  -32.1170 C   0  0  0  0  0  0  0  0  0  0  0  0
   -8.4020   19.8200  -33.4720 N   0  0  0  0  0  0  0  0  0  0  0  0
   -9.5000   19.7820  -31.4890 O   0  0  0  0  0  0  0  0  0  0  0  0
   -6.2820   21.3460  -31.7170 N   0  0  0  0  0  0  0  0  0  0  0  0
   -5.4350   20.4230  -32.3630 C   0  0  0  0  0  0  0  0  0  0  0  0
   -5.0080   20.5230  -33.5390 O   0  0  0  0  0  0  0  0  0  0  0  0
   -4.9890   19.2660  -31.6900 O   0  0  0  0  0  0  0  0  0  0  0  0
   -5.9360   18.1960  -31.5120 C   0  0  0  0  0  0  0  0  0  0  0  0
   -6.4740   17.7570  -32.8140 C   0  0  0  0  0  0  0  0  0  0  0  0
   -7.6000   17.1650  -32.8180 O   0  0  0  0  0  0  0  0  0  0  0  0
   -5.7910   17.9720  -34.0020 O   0  0  0  0  0  0  0  0  0  0  0  0
   -5.8270   22.4660  -31.0890 C   0  0  0  0  0  0  0  0  0  0  0  0
   -4.5930   23.0360  -30.8760 C   0  0  0  0  0  0  0  0  0  0  0  0
   -1.0290   25.0580  -28.8340 C   0  0  0  0  0  0  0  0  0  0  0  0
    0.0480   24.6570  -28.2810 O   0  0  0  0  0  0  0  0  0  0  0  0
   -1.1440   26.4220  -29.0840 O   0  0  0  0  0  0  0  0  0  0  0  0
   -1.2193   22.1642  -29.1876 H   0  0  0  0  0  0  0  0  0  0  0  0
   -2.3476   22.4677  -30.5519 H   0  0  0  0  0  0  0  0  0  0  0  0
   -0.7158   23.2186  -30.5519 H   0  0  0  0  0  0  0  0  0  0  0  0
   -2.5850   23.7716  -28.2604 H   0  0  0  0  0  0  0  0  0  0  0  0
   -2.8720   25.6720  -30.4480 H   0  0  0  0  0  0  0  0  0  0  0  0
   -5.4278   25.8117  -29.1145 H   0  0  0  0  0  0  0  0  0  0  0  0
   -7.6615   24.8266  -29.4706 H   0  0  0  0  0  0  0  0  0  0  0  0
   -9.0449   22.6576  -30.6323 H   0  0  0  0  0  0  0  0  0  0  0  0
   -9.1040   20.0600  -34.1950 H   0  0  0  0  0  0  0  0  0  0  0  0
   -7.5520   19.2290  -33.6890 H   0  0  0  0  0  0  0  0  0  0  0  0
   -5.4351   17.3474  -31.0231 H   0  0  0  0  0  0  0  0  0  0  0  0
   -6.7670   18.5578  -30.8886 H   0  0  0  0  0  0  0  0  0  0  0  0
   -4.9840   18.6060  -34.0610 H   0  0  0  0  0  0  0  0  0  0  0  0
   -3.7020   22.5299  -31.2760 H   0  0  0  0  0  0  0  0  0  0  0  0
   -1.2350   26.7490  -30.0590 H   0  0  0  0  0  0  0  0  0  0  0  0
  1  2  1  0
  2  3  1  0
  3  4  1  0
  4  5  2  0
  5  6  1  0
  6  7  2  0
  7  8  1  0
  8  9  2  0
  9 10  1  0
 10 11  1  0
 10 12  2  0
  9 13  1  0
 13 14  1  0
 14 15  2  0
 14 16  1  0
 16 17  1  0
 17 18  1  0
 18 19  2  0
 18 20  1  0
 13 21  1  0
 21 22  2  0
  2 23  1  0
 23 24  2  0
 23 25  1  0
 22  4  1  0
 21  7  1  0
  1 26  1  0
  1 27  1  0
  1 28  1  0
  2 29  1  1
  3 30  1  0
  5 31  1  0
  6 32  1  0
  8 33  1  0
 11 34  1  0
 11 35  1  0
 17 36  1  0
 17 37  1  0
 20 38  1  0
 22 39  1  0
 25 40  1  0
M  END
>  <smiles>  (74) 
C[C@H](Nc1ccc2cc(C(N)=O)n(C(=O)OCC(=O)O)c2c1)C(=O)O

>  <score_type>  (74) 
oracle

>  <origin>  (74) 
adg

>  <m_score__min__energy>  (74) 
-9.3399999999999999

>  <m_primary>  (74) 
energy

$$$$
79:0
     RDKit          3D

 32 33  0  0  0  0  0  0  0  0999 V2000
   -6.1110   26.0000  -29.2910 N   0  0  0  0  0  0  0  0  0  0  0  0
   -5.6220   25.2120  -30.3470 C   0  0  0  0  0  0  0  0  0  0  0  0
   -4.5670   25.6690  -30.9180 O   0  0  0  0  0  0  0  0  0  0  0  0
   -6.1530   23.9770  -30.8560 C   0  0  0  0  0  0  0  0  0  0  0  0
   -7.5320   23.7160  -30.8690 C   0  0  0  0  0  0  0  0  0  0  0  0
   -7.7520   22.4680  -31.4080 C   0  0  0  0  0  0  0  0  0  0  0  0
   -8.9220   21.7710  -31.6290 C   0  0  0  0  0  0  0  0  0  0  0  0
   -8.8890   20.5130  -32.1910 C   0  0  0  0  0  0  0  0  0  0  0  0
   -7.6570   19.9910  -32.5170 C   0  0  0  0  0  0  0  0  0  0  0  0
   -7.5970   18.6860  -33.1010 N   0  0  0  0  0  0  0  0  0  0  0  0
   -6.5500   17.7960  -32.6340 C   0  0  0  0  0  0  0  0  0  0  0  0
   -5.8130   17.2160  -33.8310 C   0  0  0  0  0  0  0  0  0  0  0  0
   -6.5140   17.4860  -35.0050 O   0  0  0  0  0  0  0  0  0  0  0  0
   -6.4830   20.7070  -32.2870 C   0  0  0  0  0  0  0  0  0  0  0  0
   -6.5030   21.9740  -31.7210 C   0  0  0  0  0  0  0  0  0  0  0  0
   -5.5620   22.8910  -31.3840 N   0  0  0  0  0  0  0  0  0  0  0  0
   -4.1850   22.6770  -31.5830 C   0  0  0  0  0  0  0  0  0  0  0  0
   -3.8380   21.6060  -32.1900 O   0  0  0  0  0  0  0  0  0  0  0  0
   -3.1540   23.4890  -31.2000 O   0  0  0  0  0  0  0  0  0  0  0  0
   -6.8210   26.7510  -29.5450 H   0  0  0  0  0  0  0  0  0  0  0  0
   -5.7940   25.8730  -28.2830 H   0  0  0  0  0  0  0  0  0  0  0  0
   -8.3133   24.4000  -30.5061 H   0  0  0  0  0  0  0  0  0  0  0  0
   -9.8871   22.2221  -31.3550 H   0  0  0  0  0  0  0  0  0  0  0  0
   -9.8139   19.9460  -32.3727 H   0  0  0  0  0  0  0  0  0  0  0  0
   -8.2920   18.4170  -33.8290 H   0  0  0  0  0  0  0  0  0  0  0  0
   -5.8440   18.3575  -32.0045 H   0  0  0  0  0  0  0  0  0  0  0  0
   -6.9949   16.9807  -32.0446 H   0  0  0  0  0  0  0  0  0  0  0  0
   -4.8114   17.6664  -33.8941 H   0  0  0  0  0  0  0  0  0  0  0  0
   -5.7277   16.1264  -33.7065 H   0  0  0  0  0  0  0  0  0  0  0  0
   -6.5500   18.4650  -35.1860 H   0  0  0  0  0  0  0  0  0  0  0  0
   -5.5174   20.2567  -32.5608 H   0  0  0  0  0  0  0  0  0  0  0  0
   -3.0950   24.4130  -31.5770 H   0  0  0  0  0  0  0  0  0  0  0  0
  1  2  1  0
  2  3  2  0
  2  4  1  0
  4  5  2  0
  5  6  1  0
  6  7  2  0
  7  8  1  0
  8  9  2  0
  9 10  1  0
 10 11  1  0
 11 12  1  0
 12 13  1  0
  9 14  1  0
 14 15  2  0
 15 16  1  0
 16 17  1  0
 17 18  2  0
 17 19  1  0
 16  4  1  0
 15  6  1  0
  1 20  1  0
  1 21  1  0
  5 22  1  0
  7 23  1  0
  8 24  1  0
 10 25  1  0
 11 26  1  0
 11 27  1  0
 12 28  1  0
 12 29  1  0
 13 30  1  0
 14 31  1  0
 19 32  1  0
M  END
>  <smiles>  (75) 
NC(=O)c1cc2ccc(NCCO)cc2n1C(=O)O

>  <score_type>  (75) 
oracle

>  <origin>  (75) 
adg

>  <m_score__min__energy>  (75) 
-7.5800000000000001

>  <m_primary>  (75) 
energy

$$$$
81:0
     RDKit          3D

 60 62  0  0  0  0  0  0  0  0999 V2000
   -4.8440   16.2900  -32.5790 C   0  0  0  0  0  0  0  0  0  0  0  0
   -4.7770   17.2270  -33.7070 N   0  0  0  0  0  0  0  0  0  0  0  0
   -3.4590   17.4450  -34.2690 C   0  0  0  0  0  0  0  0  0  0  0  0
   -2.8360   18.6920  -33.7220 C   0  0  0  0  0  0  0  0  0  0  0  0
   -1.5910   18.7020  -33.1330 C   0  0  0  0  0  0  0  0  0  0  0  0
   -1.0660   19.8860  -32.6440 C   0  0  0  0  0  0  0  0  0  0  0  0
   -1.7760   21.0860  -32.7360 C   0  0  0  0  0  0  0  0  0  0  0  0
   -3.0310   21.0670  -33.3320 C   0  0  0  0  0  0  0  0  0  0  0  0
   -3.5520   19.8860  -33.8170 C   0  0  0  0  0  0  0  0  0  0  0  0
   -5.9330   17.8680  -34.2050 C   0  0  0  0  0  0  0  0  0  0  0  0
   -5.8160   18.5550  -35.2510 O   0  0  0  0  0  0  0  0  0  0  0  0
   -7.2130   17.6950  -33.4690 C   0  0  0  0  0  0  0  0  0  0  0  0
   -7.0670   18.2310  -32.1320 N   0  0  0  0  0  0  0  0  0  0  0  0
   -7.2430   19.6030  -31.8410 C   0  0  0  0  0  0  0  0  0  0  0  0
   -8.4900   20.1840  -31.9240 C   0  0  0  0  0  0  0  0  0  0  0  0
   -8.6240   21.5230  -31.6400 C   0  0  0  0  0  0  0  0  0  0  0  0
   -7.5200   22.2660  -31.2790 C   0  0  0  0  0  0  0  0  0  0  0  0
   -7.3750   23.5950  -30.9500 C   0  0  0  0  0  0  0  0  0  0  0  0
   -6.0330   23.8620  -30.6550 C   0  0  0  0  0  0  0  0  0  0  0  0
   -5.5820   25.1760  -30.2770 C   0  0  0  0  0  0  0  0  0  0  0  0
   -6.1200   26.0480  -29.3330 N   0  0  0  0  0  0  0  0  0  0  0  0
   -4.5390   25.6120  -30.8930 O   0  0  0  0  0  0  0  0  0  0  0  0
   -5.3760   22.6990  -30.8080 N   0  0  0  0  0  0  0  0  0  0  0  0
   -3.9980   22.4440  -30.6270 C   0  0  0  0  0  0  0  0  0  0  0  0
   -3.1440   23.2240  -31.1400 O   0  0  0  0  0  0  0  0  0  0  0  0
   -3.4630   21.3850  -29.9170 O   0  0  0  0  0  0  0  0  0  0  0  0
   -2.7900   21.5290  -28.6920 C   0  0  0  0  0  0  0  0  0  0  0  0
   -1.3870   22.0310  -28.8900 C   0  0  0  0  0  0  0  0  0  0  0  0
   -2.7940   20.2510  -27.8730 C   0  0  0  0  0  0  0  0  0  0  0  0
   -3.5330   22.5580  -27.8540 C   0  0  0  0  0  0  0  0  0  0  0  0
   -6.2590   21.7250  -31.1840 C   0  0  0  0  0  0  0  0  0  0  0  0
   -6.1460   20.3780  -31.4730 C   0  0  0  0  0  0  0  0  0  0  0  0
   -4.8039   16.8509  -31.6336 H   0  0  0  0  0  0  0  0  0  0  0  0
   -5.7850   15.7226  -32.6291 H   0  0  0  0  0  0  0  0  0  0  0  0
   -3.9933   15.5944  -32.6291 H   0  0  0  0  0  0  0  0  0  0  0  0
   -2.8176   16.5859  -34.0230 H   0  0  0  0  0  0  0  0  0  0  0  0
   -3.5592   17.5551  -35.3589 H   0  0  0  0  0  0  0  0  0  0  0  0
   -1.0138   17.7692  -33.0511 H   0  0  0  0  0  0  0  0  0  0  0  0
   -0.0713   19.8820  -32.1743 H   0  0  0  0  0  0  0  0  0  0  0  0
   -1.3517   22.0230  -32.3460 H   0  0  0  0  0  0  0  0  0  0  0  0
   -3.6112   21.9977  -33.4173 H   0  0  0  0  0  0  0  0  0  0  0  0
   -4.5471   19.8851  -34.2859 H   0  0  0  0  0  0  0  0  0  0  0  0
   -8.0160   18.2318  -33.9954 H   0  0  0  0  0  0  0  0  0  0  0  0
   -7.4673   16.6262  -33.4140 H   0  0  0  0  0  0  0  0  0  0  0  0
   -6.8200   17.5620  -31.3600 H   0  0  0  0  0  0  0  0  0  0  0  0
   -9.3660   19.5850  -32.2134 H   0  0  0  0  0  0  0  0  0  0  0  0
   -9.6126   22.0015  -31.7009 H   0  0  0  0  0  0  0  0  0  0  0  0
   -8.1893   24.3340  -30.9231 H   0  0  0  0  0  0  0  0  0  0  0  0
   -5.7680   25.9910  -28.3460 H   0  0  0  0  0  0  0  0  0  0  0  0
   -6.8570   26.7470  -29.6350 H   0  0  0  0  0  0  0  0  0  0  0  0
   -0.9162   22.1995  -27.9102 H   0  0  0  0  0  0  0  0  0  0  0  0
   -0.8065   21.2848  -29.4523 H   0  0  0  0  0  0  0  0  0  0  0  0
   -1.4117   22.9761  -29.4523 H   0  0  0  0  0  0  0  0  0  0  0  0
   -2.7932   20.5019  -26.8020 H   0  0  0  0  0  0  0  0  0  0  0  0
   -3.6940   19.6653  -28.1117 H   0  0  0  0  0  0  0  0  0  0  0  0
   -1.8977   19.6597  -28.1117 H   0  0  0  0  0  0  0  0  0  0  0  0
   -3.3776   22.3428  -26.7865 H   0  0  0  0  0  0  0  0  0  0  0  0
   -3.1512   23.5635  -28.0847 H   0  0  0  0  0  0  0  0  0  0  0  0
   -4.6075   22.5119  -28.0847 H   0  0  0  0  0  0  0  0  0  0  0  0
   -5.1562   19.9022  -31.4102 H   0  0  0  0  0  0  0  0  0  0  0  0
  1  2  1  0
  2  3  1  0
  3  4  1  0
  4  5  2  0
  5  6  1  0
  6  7  2  0
  7  8  1  0
  8  9  2  0
  2 10  1  0
 10 11  2  0
 10 12  1  0
 12 13  1  0
 13 14  1  0
 14 15  2  0
 15 16  1  0
 16 17  2  0
 17 18  1  0
 18 19  2  0
 19 20  1  0
 20 21  1  0
 20 22  2  0
 19 23  1  0
 23 24  1  0
 24 25  2  0
 24 26  1  0
 26 27  1  0
 27 28  1  0
 27 29  1  0
 27 30  1  0
 23 31  1  0
 31 32  2  0
  9  4  1  0
 32 14  1  0
 31 17  1  0
  1 33  1  0
  1 34  1  0
  1 35  1  0
  3 36  1  0
  3 37  1  0
  5 38  1  0
  6 39  1  0
  7 40  1  0
  8 41  1  0
  9 42  1  0
 12 43  1  0
 12 44  1  0
 13 45  1  0
 15 46  1  0
 16 47  1  0
 18 48  1  0
 21 49  1  0
 21 50  1  0
 28 51  1  0
 28 52  1  0
 28 53  1  0
 29 54  1  0
 29 55  1  0
 29 56  1  0
 30 57  1  0
 30 58  1  0
 30 59  1  0
 32 60  1  0
M  END
>  <smiles>  (76) 
CN(Cc1ccccc1)C(=O)CNc1ccc2cc(C(N)=O)n(C(=O)OC(C)(C)C)c2c1

>  <score_type>  (76) 
oracle

>  <origin>  (76) 
adg

>  <m_score__min__energy>  (76) 
-9.8100000000000005

>  <m_primary>  (76) 
energy

$$$$
82:0
     RDKit          3D

 40 41  0  0  1  0  0  0  0  0999 V2000
   -0.5910   24.8600  -28.0070 C   0  0  0  0  0  0  0  0  0  0  0  0
   -2.1120   24.7670  -28.0250 C   0  0  1  0  0  0  0  0  0  0  0  0
   -2.5470   25.1670  -29.3440 N   0  0  0  0  0  0  0  0  0  0  0  0
   -2.5630   23.3820  -27.7390 C   0  0  0  0  0  0  0  0  0  0  0  0
   -2.2310   22.7290  -26.7300 O   0  0  0  0  0  0  0  0  0  0  0  0
   -3.4150   22.8010  -28.6830 O   0  0  0  0  0  0  0  0  0  0  0  0
   -3.3430   21.4550  -29.0720 C   0  0  0  0  0  0  0  0  0  0  0  0
   -3.7170   21.2920  -30.4480 O   0  0  0  0  0  0  0  0  0  0  0  0
   -4.1580   22.4610  -31.0790 C   0  0  0  0  0  0  0  0  0  0  0  0
   -3.2400   23.1630  -31.5660 O   0  0  0  0  0  0  0  0  0  0  0  0
   -5.5380   22.7670  -31.1310 N   0  0  0  0  0  0  0  0  0  0  0  0
   -6.1190   23.9170  -30.7930 C   0  0  0  0  0  0  0  0  0  0  0  0
   -5.6010   25.1660  -30.2920 C   0  0  0  0  0  0  0  0  0  0  0  0
   -6.1260   25.9540  -29.2490 N   0  0  0  0  0  0  0  0  0  0  0  0
   -4.5380   25.6540  -30.8310 O   0  0  0  0  0  0  0  0  0  0  0  0
   -7.4950   23.7310  -31.0180 C   0  0  0  0  0  0  0  0  0  0  0  0
   -7.7190   22.4630  -31.4910 C   0  0  0  0  0  0  0  0  0  0  0  0
   -8.8730   21.8080  -31.8550 C   0  0  0  0  0  0  0  0  0  0  0  0
   -8.8200   20.5070  -32.3080 C   0  0  0  0  0  0  0  0  0  0  0  0
   -7.5930   19.8830  -32.3870 C   0  0  0  0  0  0  0  0  0  0  0  0
   -7.5300   18.4780  -32.8760 C   0  0  0  0  0  0  0  0  0  0  0  0
   -6.5240   17.4520  -31.8250 Cl  0  0  0  0  0  0  0  0  0  0  0  0
   -6.4410   20.5700  -32.0110 C   0  0  0  0  0  0  0  0  0  0  0  0
   -6.4760   21.8710  -31.5560 C   0  0  0  0  0  0  0  0  0  0  0  0
   -0.2373   24.8816  -26.9657 H   0  0  0  0  0  0  0  0  0  0  0  0
   -0.1641   23.9863  -28.5212 H   0  0  0  0  0  0  0  0  0  0  0  0
   -0.2737   25.7792  -28.5212 H   0  0  0  0  0  0  0  0  0  0  0  0
   -2.5424   25.4184  -27.2501 H   0  0  0  0  0  0  0  0  0  0  0  0
   -3.1080   26.0490  -29.3070 H   0  0  0  0  0  0  0  0  0  0  0  0
   -2.9530   24.4140  -29.9140 H   0  0  0  0  0  0  0  0  0  0  0  0
   -2.3120   21.0967  -28.9355 H   0  0  0  0  0  0  0  0  0  0  0  0
   -4.0407   20.8748  -28.4502 H   0  0  0  0  0  0  0  0  0  0  0  0
   -6.8410   26.6980  -29.5070 H   0  0  0  0  0  0  0  0  0  0  0  0
   -5.8200   25.8210  -28.2400 H   0  0  0  0  0  0  0  0  0  0  0  0
   -8.2735   24.4878  -30.8414 H   0  0  0  0  0  0  0  0  0  0  0  0
   -9.8416   22.3244  -31.7843 H   0  0  0  0  0  0  0  0  0  0  0  0
   -9.7385   19.9772  -32.6007 H   0  0  0  0  0  0  0  0  0  0  0  0
   -8.5494   18.0657  -32.9047 H   0  0  0  0  0  0  0  0  0  0  0  0
   -7.0765   18.4865  -33.8781 H   0  0  0  0  0  0  0  0  0  0  0  0
   -5.4703   20.0570  -32.0794 H   0  0  0  0  0  0  0  0  0  0  0  0
  1  2  1  0
  2  3  1  0
  2  4  1  0
  4  5  2  0
  4  6  1  0
  6  7  1  0
  7  8  1  0
  8  9  1  0
  9 10  2  0
  9 11  1  0
 11 12  1  0
 12 13  1  0
 13 14  1  0
 13 15  2  0
 12 16  2  0
 16 17  1  0
 17 18  2  0
 18 19  1  0
 19 20  2  0
 20 21  1  0
 21 22  1  0
 20 23  1  0
 23 24  2  0
 24 11  1  0
 24 17  1  0
  1 25  1  0
  1 26  1  0
  1 27  1  0
  2 28  1  1
  3 29  1  0
  3 30  1  0
  7 31  1  0
  7 32  1  0
 14 33  1  0
 14 34  1  0
 16 35  1  0
 18 36  1  0
 19 37  1  0
 21 38  1  0
 21 39  1  0
 23 40  1  0
M  END
>  <smiles>  (77) 
CC(N)C(=O)OCOC(=O)n1c(C(N)=O)cc2ccc(CCl)cc21

>  <score_type>  (77) 
oracle

>  <origin>  (77) 
adg

>  <m_score__min__energy>  (77) 
-8.9000000000000004

>  <m_primary>  (77) 
energy

$$$$
83:0
     RDKit          3D

 43 44  0  0  1  0  0  0  0  0999 V2000
   -0.1390   23.7910  -25.6330 C   0  0  0  0  0  0  0  0  0  0  0  0
   -0.9870   24.2810  -26.7660 C   0  0  2  0  0  0  0  0  0  0  0  0
   -1.8150   23.3570  -27.3380 O   0  0  0  0  0  0  0  0  0  0  0  0
   -3.1920   23.9470  -28.0420 P   0  0  1  0  0  0  0  0  0  0  0  0
   -3.9610   24.9120  -27.2070 O   0  0  0  0  0  0  0  0  0  0  0  0
   -2.7220   24.8000  -29.4460 O   0  0  0  0  0  0  0  0  0  0  0  0
   -4.1570   22.6150  -28.4840 O   0  0  0  0  0  0  0  0  0  0  0  0
   -3.5480   22.1010  -29.6550 C   0  0  0  0  0  0  0  0  0  0  0  0
   -4.2840   22.7690  -30.7630 C   0  0  0  0  0  0  0  0  0  0  0  0
   -3.5180   23.4490  -31.5230 O   0  0  0  0  0  0  0  0  0  0  0  0
   -5.6590   22.7100  -31.0130 N   0  0  0  0  0  0  0  0  0  0  0  0
   -6.5460   23.6820  -30.7250 C   0  0  0  0  0  0  0  0  0  0  0  0
   -6.3960   24.9850  -30.1100 C   0  0  0  0  0  0  0  0  0  0  0  0
   -5.0820   25.6200  -30.0980 N   0  0  0  0  0  0  0  0  0  0  0  0
   -7.2760   25.6680  -29.5660 O   0  0  0  0  0  0  0  0  0  0  0  0
   -7.8060   23.2280  -31.1430 C   0  0  0  0  0  0  0  0  0  0  0  0
   -7.6780   21.9780  -31.6840 C   0  0  0  0  0  0  0  0  0  0  0  0
   -8.6160   21.1290  -32.2270 C   0  0  0  0  0  0  0  0  0  0  0  0
   -8.2280   19.9040  -32.7150 C   0  0  0  0  0  0  0  0  0  0  0  0
   -6.9020   19.5570  -32.6480 C   0  0  0  0  0  0  0  0  0  0  0  0
   -6.4450   18.2240  -33.1730 C   0  0  0  0  0  0  0  0  0  0  0  0
   -5.3950   17.8070  -32.4110 F   0  0  0  0  0  0  0  0  0  0  0  0
   -6.1100   18.4430  -34.4960 F   0  0  0  0  0  0  0  0  0  0  0  0
   -7.5230   17.3540  -33.0360 F   0  0  0  0  0  0  0  0  0  0  0  0
   -5.9730   20.4370  -32.0930 C   0  0  0  0  0  0  0  0  0  0  0  0
   -6.3310   21.6720  -31.5940 C   0  0  0  0  0  0  0  0  0  0  0  0
   -0.0030   24.6450  -27.8510 C   0  0  0  0  0  0  0  0  0  0  0  0
    0.9700   25.3750  -27.5270 O   0  0  0  0  0  0  0  0  0  0  0  0
   -0.1970   24.1800  -29.1270 O   0  0  0  0  0  0  0  0  0  0  0  0
   -0.6107   24.0636  -24.6774 H   0  0  0  0  0  0  0  0  0  0  0  0
   -0.0411   22.6971  -25.6947 H   0  0  0  0  0  0  0  0  0  0  0  0
    0.8576   24.2524  -25.6947 H   0  0  0  0  0  0  0  0  0  0  0  0
   -1.6287   25.0802  -26.3666 H   0  0  0  0  0  0  0  0  0  0  0  0
   -2.1810   24.1640  -29.9830 H   0  0  0  0  0  0  0  0  0  0  0  0
   -2.4787   22.3572  -29.6849 H   0  0  0  0  0  0  0  0  0  0  0  0
   -3.5981   21.0037  -29.7129 H   0  0  0  0  0  0  0  0  0  0  0  0
   -4.5590   25.5880  -29.1910 H   0  0  0  0  0  0  0  0  0  0  0  0
   -4.7090   26.0730  -30.9640 H   0  0  0  0  0  0  0  0  0  0  0  0
   -8.7479   23.7885  -31.0504 H   0  0  0  0  0  0  0  0  0  0  0  0
   -9.6731   21.4302  -32.2702 H   0  0  0  0  0  0  0  0  0  0  0  0
   -8.9663   19.2149  -33.1509 H   0  0  0  0  0  0  0  0  0  0  0  0
   -4.9161   20.1350  -32.0518 H   0  0  0  0  0  0  0  0  0  0  0  0
   -0.9740   23.5290  -29.2940 H   0  0  0  0  0  0  0  0  0  0  0  0
  1  2  1  0
  2  3  1  0
  4  3  1  6
  4  5  2  0
  4  6  1  0
  4  7  1  0
  7  8  1  0
  8  9  1  0
  9 10  2  0
  9 11  1  0
 11 12  1  0
 12 13  1  0
 13 14  1  0
 13 15  2  0
 12 16  2  0
 16 17  1  0
 17 18  2  0
 18 19  1  0
 19 20  2  0
 20 21  1  0
 21 22  1  0
 21 23  1  0
 21 24  1  0
 20 25  1  0
 25 26  2  0
  2 27  1  0
 27 28  2  0
 27 29  1  0
 26 11  1  0
 26 17  1  0
  1 30  1  0
  1 31  1  0
  1 32  1  0
  2 33  1  1
  6 34  1  0
  8 35  1  0
  8 36  1  0
 14 37  1  0
 14 38  1  0
 16 39  1  0
 18 40  1  0
 19 41  1  0
 25 42  1  0
 29 43  1  0
M  END
>  <smiles>  (78) 
C[C@H](OP(=O)(O)OCC(=O)n1c(C(N)=O)cc2ccc(C(F)(F)F)cc21)C(=O)O

>  <score_type>  (78) 
oracle

>  <origin>  (78) 
adg

>  <m_score__min__energy>  (78) 
-8.8000000000000007

>  <m_primary>  (78) 
energy

$$$$
84:0
     RDKit          3D

 43 44  0  0  0  0  0  0  0  0999 V2000
   -5.2740   24.9260  -28.8310 N   0  0  0  0  0  0  0  0  0  0  0  0
   -5.1120   24.6800  -30.2590 C   0  0  0  0  0  0  0  0  0  0  0  0
   -4.5020   25.5980  -30.8300 O   0  0  0  0  0  0  0  0  0  0  0  0
   -5.6530   23.4640  -30.8020 C   0  0  0  0  0  0  0  0  0  0  0  0
   -7.0330   23.3440  -31.0690 C   0  0  0  0  0  0  0  0  0  0  0  0
   -7.2740   22.1040  -31.5740 C   0  0  0  0  0  0  0  0  0  0  0  0
   -8.4550   21.5230  -31.9820 C   0  0  0  0  0  0  0  0  0  0  0  0
   -8.4700   20.2520  -32.4640 C   0  0  0  0  0  0  0  0  0  0  0  0
   -7.2780   19.5700  -32.5300 C   0  0  0  0  0  0  0  0  0  0  0  0
   -7.2800   18.1770  -33.0550 C   0  0  0  0  0  0  0  0  0  0  0  0
   -6.3740   18.1350  -34.1160 F   0  0  0  0  0  0  0  0  0  0  0  0
   -6.8660   17.2990  -32.0950 F   0  0  0  0  0  0  0  0  0  0  0  0
   -6.0910   20.1690  -32.1140 C   0  0  0  0  0  0  0  0  0  0  0  0
   -6.0530   21.4630  -31.6200 C   0  0  0  0  0  0  0  0  0  0  0  0
   -5.0710   22.2950  -31.1510 N   0  0  0  0  0  0  0  0  0  0  0  0
   -3.7280   21.8850  -31.0930 C   0  0  0  0  0  0  0  0  0  0  0  0
   -2.9260   22.5440  -31.8600 O   0  0  0  0  0  0  0  0  0  0  0  0
   -3.0810   20.8470  -30.3170 C   0  0  0  0  0  0  0  0  0  0  0  0
   -3.2160   21.0230  -28.9280 O   0  0  0  0  0  0  0  0  0  0  0  0
   -3.6920   22.2140  -28.4980 C   0  0  0  0  0  0  0  0  0  0  0  0
   -2.7050   22.7550  -27.4740 C   0  0  0  0  0  0  0  0  0  0  0  0
   -2.9140   24.0990  -27.3120 O   0  0  0  0  0  0  0  0  0  0  0  0
   -1.7700   24.8190  -27.0400 C   0  0  0  0  0  0  0  0  0  0  0  0
   -1.4510   25.6040  -28.3180 C   0  0  0  0  0  0  0  0  0  0  0  0
   -2.3970   25.2630  -29.2840 O   0  0  0  0  0  0  0  0  0  0  0  0
   -6.2200   24.9830  -28.4010 H   0  0  0  0  0  0  0  0  0  0  0  0
   -4.3750   25.0330  -28.3160 H   0  0  0  0  0  0  0  0  0  0  0  0
   -7.7892   24.1241  -30.8972 H   0  0  0  0  0  0  0  0  0  0  0  0
   -9.3938   22.0926  -31.9171 H   0  0  0  0  0  0  0  0  0  0  0  0
   -9.4092   19.7825  -32.7919 H   0  0  0  0  0  0  0  0  0  0  0  0
   -8.2961   17.8973  -33.3701 H   0  0  0  0  0  0  0  0  0  0  0  0
   -5.1541   19.5964  -32.1798 H   0  0  0  0  0  0  0  0  0  0  0  0
   -3.5252   19.8786  -30.5908 H   0  0  0  0  0  0  0  0  0  0  0  0
   -2.0063   20.8909  -30.5474 H   0  0  0  0  0  0  0  0  0  0  0  0
   -3.7773   22.9124  -29.3436 H   0  0  0  0  0  0  0  0  0  0  0  0
   -4.6899   22.0951  -28.0508 H   0  0  0  0  0  0  0  0  0  0  0  0
   -2.8537   22.2412  -26.5128 H   0  0  0  0  0  0  0  0  0  0  0  0
   -1.6769   22.5809  -27.8244 H   0  0  0  0  0  0  0  0  0  0  0  0
   -1.9430   25.5088  -26.2008 H   0  0  0  0  0  0  0  0  0  0  0  0
   -0.9374   24.1596  -26.7537 H   0  0  0  0  0  0  0  0  0  0  0  0
   -1.4992   26.6838  -28.1140 H   0  0  0  0  0  0  0  0  0  0  0  0
   -0.4390   25.3590  -28.6728 H   0  0  0  0  0  0  0  0  0  0  0  0
   -3.3120   25.4030  -28.9750 H   0  0  0  0  0  0  0  0  0  0  0  0
  1  2  1  0
  2  3  2  0
  2  4  1  0
  4  5  2  0
  5  6  1  0
  6  7  2  0
  7  8  1  0
  8  9  2  0
  9 10  1  0
 10 11  1  0
 10 12  1  0
  9 13  1  0
 13 14  2  0
 14 15  1  0
 15 16  1  0
 16 17  2  0
 16 18  1  0
 18 19  1  0
 19 20  1  0
 20 21  1  0
 21 22  1  0
 22 23  1  0
 23 24  1  0
 24 25  1  0
 15  4  1  0
 14  6  1  0
  1 26  1  0
  1 27  1  0
  5 28  1  0
  7 29  1  0
  8 30  1  0
 10 31  1  0
 13 32  1  0
 18 33  1  0
 18 34  1  0
 20 35  1  0
 20 36  1  0
 21 37  1  0
 21 38  1  0
 23 39  1  0
 23 40  1  0
 24 41  1  0
 24 42  1  0
 25 43  1  0
M  END
>  <smiles>  (79) 
NC(=O)c1cc2ccc(C(F)F)cc2n1C(=O)COCCOCCO

>  <score_type>  (79) 
oracle

>  <origin>  (79) 
adg

>  <m_score__min__energy>  (79) 
-7.6299999999999999

>  <m_primary>  (79) 
energy

$$$$
85:0
     RDKit          3D

 45 46  0  0  0  0  0  0  0  0999 V2000
   -3.9610   24.4050  -29.0090 N   0  0  0  0  0  0  0  0  0  0  0  0
   -4.6510   24.6130  -30.2830 C   0  0  0  0  0  0  0  0  0  0  0  0
   -4.3010   25.6720  -30.8420 O   0  0  0  0  0  0  0  0  0  0  0  0
   -5.6090   23.6320  -30.7380 C   0  0  0  0  0  0  0  0  0  0  0  0
   -6.9570   23.9600  -30.8560 C   0  0  0  0  0  0  0  0  0  0  0  0
   -7.6440   22.8760  -31.3040 C   0  0  0  0  0  0  0  0  0  0  0  0
   -8.9910   22.7090  -31.5480 C   0  0  0  0  0  0  0  0  0  0  0  0
   -9.4730   21.5070  -31.9670 C   0  0  0  0  0  0  0  0  0  0  0  0
   -8.5790   20.4750  -32.1350 C   0  0  0  0  0  0  0  0  0  0  0  0
   -9.0950   19.1600  -32.5890 C   0  0  0  0  0  0  0  0  0  0  0  0
   -8.2870   18.0570  -32.0330 C   0  0  0  0  0  0  0  0  0  0  0  0
   -7.0730   17.9450  -32.2140 O   0  0  0  0  0  0  0  0  0  0  0  0
   -7.2190   20.6630  -31.8840 C   0  0  0  0  0  0  0  0  0  0  0  0
   -6.7100   21.8750  -31.4630 C   0  0  0  0  0  0  0  0  0  0  0  0
   -5.4610   22.3210  -31.1240 N   0  0  0  0  0  0  0  0  0  0  0  0
   -4.2260   21.6780  -31.2550 C   0  0  0  0  0  0  0  0  0  0  0  0
   -3.4110   21.8760  -30.2610 O   0  0  0  0  0  0  0  0  0  0  0  0
   -3.6760   20.8470  -32.2800 C   0  0  0  0  0  0  0  0  0  0  0  0
   -4.2090   20.4290  -33.3300 O   0  0  0  0  0  0  0  0  0  0  0  0
   -2.2900   20.3710  -32.1540 N   0  0  0  0  0  0  0  0  0  0  0  0
   -1.7810   19.5270  -33.2020 C   0  0  0  0  0  0  0  0  0  0  0  0
   -2.5490   18.3120  -33.4730 C   0  0  0  0  0  0  0  0  0  0  0  0
   -2.2000   17.2430  -32.8690 O   0  0  0  0  0  0  0  0  0  0  0  0
   -3.6580   18.2080  -34.3480 N   0  0  0  0  0  0  0  0  0  0  0  0
   -4.3200   16.9120  -34.5150 C   0  0  0  0  0  0  0  0  0  0  0  0
   -5.8140   17.1120  -34.6020 C   0  0  0  0  0  0  0  0  0  0  0  0
   -6.1320   18.4550  -34.5580 O   0  0  0  0  0  0  0  0  0  0  0  0
   -3.6080   23.4540  -28.7660 H   0  0  0  0  0  0  0  0  0  0  0  0
   -3.8220   25.2030  -28.3510 H   0  0  0  0  0  0  0  0  0  0  0  0
   -7.3965   24.9412  -30.6235 H   0  0  0  0  0  0  0  0  0  0  0  0
   -9.6809   23.5534  -31.4029 H   0  0  0  0  0  0  0  0  0  0  0  0
  -10.5456   21.3650  -32.1654 H   0  0  0  0  0  0  0  0  0  0  0  0
  -10.1370   19.0471  -32.2550 H   0  0  0  0  0  0  0  0  0  0  0  0
   -9.0371   19.1196  -33.6867 H   0  0  0  0  0  0  0  0  0  0  0  0
   -8.7954   17.2944  -31.4247 H   0  0  0  0  0  0  0  0  0  0  0  0
   -6.5300   19.8174  -32.0264 H   0  0  0  0  0  0  0  0  0  0  0  0
   -1.7110   20.6420  -31.3360 H   0  0  0  0  0  0  0  0  0  0  0  0
   -1.7508   20.1202  -34.1278 H   0  0  0  0  0  0  0  0  0  0  0  0
   -0.7944   19.1848  -32.8561 H   0  0  0  0  0  0  0  0  0  0  0  0
   -4.0230   19.0330  -34.8680 H   0  0  0  0  0  0  0  0  0  0  0  0
   -3.9606   16.4339  -35.4382 H   0  0  0  0  0  0  0  0  0  0  0  0
   -4.0877   16.2701  -33.6524 H   0  0  0  0  0  0  0  0  0  0  0  0
   -6.1806   16.6853  -35.5473 H   0  0  0  0  0  0  0  0  0  0  0  0
   -6.2876   16.6091  -33.7460 H   0  0  0  0  0  0  0  0  0  0  0  0
   -5.7670   18.8580  -33.7150 H   0  0  0  0  0  0  0  0  0  0  0  0
  1  2  1  0
  2  3  2  0
  2  4  1  0
  4  5  2  0
  5  6  1  0
  6  7  2  0
  7  8  1  0
  8  9  2  0
  9 10  1  0
 10 11  1  0
 11 12  2  0
  9 13  1  0
 13 14  2  0
 14 15  1  0
 15 16  1  0
 16 17  2  0
 16 18  1  0
 18 19  2  0
 18 20  1  0
 20 21  1  0
 21 22  1  0
 22 23  2  0
 22 24  1  0
 24 25  1  0
 25 26  1  0
 26 27  1  0
 15  4  1  0
 14  6  1  0
  1 28  1  0
  1 29  1  0
  5 30  1  0
  7 31  1  0
  8 32  1  0
 10 33  1  0
 10 34  1  0
 11 35  1  0
 13 36  1  0
 20 37  1  0
 21 38  1  0
 21 39  1  0
 24 40  1  0
 25 41  1  0
 25 42  1  0
 26 43  1  0
 26 44  1  0
 27 45  1  0
M  END
>  <smiles>  (80) 
NC(=O)c1cc2ccc(CC=O)cc2n1C(=O)C(=O)NCC(=O)NCCO

>  <score_type>  (80) 
oracle

>  <origin>  (80) 
adg

>  <m_score__min__energy>  (80) 
-9.3100000000000005

>  <m_primary>  (80) 
energy

$$$$
86:0
     RDKit          3D

 38 39  0  0  0  0  0  0  0  0999 V2000
   -7.0960   16.9520  -33.4710 C   0  0  0  0  0  0  0  0  0  0  0  0
   -7.2040   18.0770  -33.0450 C   0  0  0  0  0  0  0  0  0  0  0  0
   -7.3540   19.4120  -32.5420 C   0  0  0  0  0  0  0  0  0  0  0  0
   -8.6360   19.8430  -32.2890 C   0  0  0  0  0  0  0  0  0  0  0  0
   -8.7860   21.1230  -31.8050 C   0  0  0  0  0  0  0  0  0  0  0  0
   -7.6780   21.9210  -31.5930 C   0  0  0  0  0  0  0  0  0  0  0  0
   -7.6130   23.1970  -31.1260 C   0  0  0  0  0  0  0  0  0  0  0  0
   -6.2450   23.5430  -31.0970 C   0  0  0  0  0  0  0  0  0  0  0  0
   -5.8730   24.8490  -30.5710 C   0  0  0  0  0  0  0  0  0  0  0  0
   -4.4900   25.2830  -30.6510 N   0  0  0  0  0  0  0  0  0  0  0  0
   -6.6410   25.6750  -30.0340 O   0  0  0  0  0  0  0  0  0  0  0  0
   -5.5040   22.5280  -31.5330 N   0  0  0  0  0  0  0  0  0  0  0  0
   -4.1410   22.4060  -31.8700 C   0  0  0  0  0  0  0  0  0  0  0  0
   -3.8620   22.4890  -33.1110 O   0  0  0  0  0  0  0  0  0  0  0  0
   -3.0050   22.2120  -31.0030 C   0  0  0  0  0  0  0  0  0  0  0  0
   -2.4710   21.1270  -30.6880 O   0  0  0  0  0  0  0  0  0  0  0  0
   -2.3640   23.3700  -30.4010 N   0  0  0  0  0  0  0  0  0  0  0  0
   -1.2300   23.2620  -29.5370 C   0  0  0  0  0  0  0  0  0  0  0  0
   -1.1410   24.2850  -28.4490 C   0  0  0  0  0  0  0  0  0  0  0  0
   -2.2770   25.0610  -28.3380 O   0  0  0  0  0  0  0  0  0  0  0  0
   -3.2680   24.5750  -27.5310 C   0  0  0  0  0  0  0  0  0  0  0  0
   -6.3910   21.5240  -31.8340 C   0  0  0  0  0  0  0  0  0  0  0  0
   -6.2420   20.2290  -32.3220 C   0  0  0  0  0  0  0  0  0  0  0  0
   -6.9976   15.9274  -33.8590 H   0  0  0  0  0  0  0  0  0  0  0  0
   -9.5048   19.1919  -32.4661 H   0  0  0  0  0  0  0  0  0  0  0  0
   -9.7914   21.5119  -31.5863 H   0  0  0  0  0  0  0  0  0  0  0  0
   -8.4596   23.8336  -30.8295 H   0  0  0  0  0  0  0  0  0  0  0  0
   -3.8560   25.2270  -29.8250 H   0  0  0  0  0  0  0  0  0  0  0  0
   -4.2080   25.6440  -31.5890 H   0  0  0  0  0  0  0  0  0  0  0  0
   -2.7450   24.3430  -30.6050 H   0  0  0  0  0  0  0  0  0  0  0  0
   -1.2586   22.2688  -29.0650 H   0  0  0  0  0  0  0  0  0  0  0  0
   -0.3503   23.4282  -30.1762 H   0  0  0  0  0  0  0  0  0  0  0  0
   -0.9777   23.7655  -27.4932 H   0  0  0  0  0  0  0  0  0  0  0  0
   -0.3085   24.9584  -28.7008 H   0  0  0  0  0  0  0  0  0  0  0  0
   -2.9842   24.7142  -26.4774 H   0  0  0  0  0  0  0  0  0  0  0  0
   -4.2040   25.1163  -27.7332 H   0  0  0  0  0  0  0  0  0  0  0  0
   -3.4131   23.5035  -27.7332 H   0  0  0  0  0  0  0  0  0  0  0  0
   -5.2346   19.8433  -32.5375 H   0  0  0  0  0  0  0  0  0  0  0  0
  1  2  3  0
  2  3  1  0
  3  4  2  0
  4  5  1  0
  5  6  2  0
  6  7  1  0
  7  8  2  0
  8  9  1  0
  9 10  1  0
  9 11  2  0
  8 12  1  0
 12 13  1  0
 13 14  2  0
 13 15  1  0
 15 16  2  0
 15 17  1  0
 17 18  1  0
 18 19  1  0
 19 20  1  0
 20 21  1  0
 12 22  1  0
 22 23  2  0
 23  3  1  0
 22  6  1  0
  1 24  1  0
  4 25  1  0
  5 26  1  0
  7 27  1  0
 10 28  1  0
 10 29  1  0
 17 30  1  0
 18 31  1  0
 18 32  1  0
 19 33  1  0
 19 34  1  0
 21 35  1  0
 21 36  1  0
 21 37  1  0
 23 38  1  0
M  END
>  <smiles>  (81) 
C#Cc1ccc2cc(C(N)=O)n(C(=O)C(=O)NCCOC)c2c1

>  <score_type>  (81) 
oracle

>  <origin>  (81) 
adg

>  <m_score__min__energy>  (81) 
-8.9800000000000004

>  <m_primary>  (81) 
energy

$$$$
87:0
     RDKit          3D

 34 36  0  0  0  0  0  0  0  0999 V2000
   -6.0960   26.0480  -29.6800 N   0  0  0  0  0  0  0  0  0  0  0  0
   -5.4450   25.1150  -30.5680 C   0  0  0  0  0  0  0  0  0  0  0  0
   -4.2820   25.4410  -30.9020 O   0  0  0  0  0  0  0  0  0  0  0  0
   -6.1470   23.9230  -30.9920 C   0  0  0  0  0  0  0  0  0  0  0  0
   -7.5260   23.7620  -30.7990 C   0  0  0  0  0  0  0  0  0  0  0  0
   -7.9120   22.5450  -31.2970 C   0  0  0  0  0  0  0  0  0  0  0  0
   -9.1520   21.9550  -31.3320 C   0  0  0  0  0  0  0  0  0  0  0  0
   -9.2410   20.6860  -31.9130 C   0  0  0  0  0  0  0  0  0  0  0  0
   -8.1390   20.0490  -32.4280 C   0  0  0  0  0  0  0  0  0  0  0  0
   -8.2180   18.7820  -33.0190 N   0  0  0  0  0  0  0  0  0  0  0  0
   -7.4410   17.6250  -32.6460 C   0  0  0  0  0  0  0  0  0  0  0  0
   -5.9610   17.8200  -32.9980 C   0  0  0  0  0  0  0  0  0  0  0  0
   -4.8960   17.9000  -32.6050 N   0  0  0  0  0  0  0  0  0  0  0  0
   -3.7360   18.0790  -33.1890 C   0  0  0  0  0  0  0  0  0  0  0  0
   -3.8670   18.1900  -34.5580 C   0  0  0  0  0  0  0  0  0  0  0  0
   -5.6860   18.0220  -34.8800 S   0  0  0  0  0  0  0  0  0  0  0  0
   -6.9180   20.7070  -32.3570 C   0  0  0  0  0  0  0  0  0  0  0  0
   -6.7680   21.9560  -31.7970 C   0  0  0  0  0  0  0  0  0  0  0  0
   -5.7220   22.8100  -31.6000 N   0  0  0  0  0  0  0  0  0  0  0  0
   -4.4000   22.5120  -31.9980 C   0  0  0  0  0  0  0  0  0  0  0  0
   -4.2220   21.5420  -32.8110 O   0  0  0  0  0  0  0  0  0  0  0  0
   -3.2600   23.1640  -31.6000 O   0  0  0  0  0  0  0  0  0  0  0  0
   -7.0880   26.2850  -29.8030 H   0  0  0  0  0  0  0  0  0  0  0  0
   -5.5690   26.4940  -28.9020 H   0  0  0  0  0  0  0  0  0  0  0  0
   -8.1927   24.4962  -30.3232 H   0  0  0  0  0  0  0  0  0  0  0  0
  -10.0383   22.4598  -30.9201 H   0  0  0  0  0  0  0  0  0  0  0  0
  -10.2193   20.1851  -31.9586 H   0  0  0  0  0  0  0  0  0  0  0  0
   -8.9060   18.6230  -33.8180 H   0  0  0  0  0  0  0  0  0  0  0  0
   -7.5346   17.4630  -31.5620 H   0  0  0  0  0  0  0  0  0  0  0  0
   -7.8212   16.7541  -33.2001 H   0  0  0  0  0  0  0  0  0  0  0  0
   -2.7766   18.1339  -32.6536 H   0  0  0  0  0  0  0  0  0  0  0  0
   -3.0672   18.3444  -35.2972 H   0  0  0  0  0  0  0  0  0  0  0  0
   -6.0286   20.2067  -32.7676 H   0  0  0  0  0  0  0  0  0  0  0  0
   -3.1440   24.1690  -31.5900 H   0  0  0  0  0  0  0  0  0  0  0  0
  1  2  1  0
  2  3  2  0
  2  4  1  0
  4  5  2  0
  5  6  1  0
  6  7  2  0
  7  8  1  0
  8  9  2  0
  9 10  1  0
 10 11  1  0
 11 12  1  0
 12 13  2  0
 13 14  1  0
 14 15  2  0
 15 16  1  0
  9 17  1  0
 17 18  2  0
 18 19  1  0
 19 20  1  0
 20 21  2  0
 20 22  1  0
 19  4  1  0
 18  6  1  0
 16 12  1  0
  1 23  1  0
  1 24  1  0
  5 25  1  0
  7 26  1  0
  8 27  1  0
 10 28  1  0
 11 29  1  0
 11 30  1  0
 14 31  1  0
 15 32  1  0
 17 33  1  0
 22 34  1  0
M  END
>  <smiles>  (82) 
NC(=O)c1cc2ccc(NCc3nccs3)cc2n1C(=O)O

>  <score_type>  (82) 
oracle

>  <origin>  (82) 
adg

>  <m_score__min__energy>  (82) 
-8.6799999999999997

>  <m_primary>  (82) 
energy

$$$$
88:0
     RDKit          3D

 51 52  0  0  0  0  0  0  0  0999 V2000
   -5.7600   18.1230  -34.5970 C   0  0  0  0  0  0  0  0  0  0  0  0
   -6.5710   18.2430  -33.3900 N   0  0  0  0  0  0  0  0  0  0  0  0
   -7.1910   17.0790  -32.8090 C   0  0  0  0  0  0  0  0  0  0  0  0
   -6.7070   19.5530  -32.8360 C   0  0  0  0  0  0  0  0  0  0  0  0
   -7.9320   20.1440  -32.7950 C   0  0  0  0  0  0  0  0  0  0  0  0
   -8.0610   21.4070  -32.2620 C   0  0  0  0  0  0  0  0  0  0  0  0
   -6.9370   22.0610  -31.7700 C   0  0  0  0  0  0  0  0  0  0  0  0
   -6.7820   23.2820  -31.2020 C   0  0  0  0  0  0  0  0  0  0  0  0
   -5.4380   23.4710  -30.8760 C   0  0  0  0  0  0  0  0  0  0  0  0
   -4.9550   24.6810  -30.2540 C   0  0  0  0  0  0  0  0  0  0  0  0
   -5.1370   24.8690  -28.8310 N   0  0  0  0  0  0  0  0  0  0  0  0
   -4.3720   25.6290  -30.8280 O   0  0  0  0  0  0  0  0  0  0  0  0
   -4.7820   22.3590  -31.2490 N   0  0  0  0  0  0  0  0  0  0  0  0
   -3.3980   22.0870  -31.1200 C   0  0  0  0  0  0  0  0  0  0  0  0
   -2.6350   22.3300  -32.1230 O   0  0  0  0  0  0  0  0  0  0  0  0
   -2.7700   21.5830  -30.0190 O   0  0  0  0  0  0  0  0  0  0  0  0
   -1.5270   21.9940  -29.5250 C   0  0  0  0  0  0  0  0  0  0  0  0
   -1.3130   23.3950  -29.7260 O   0  0  0  0  0  0  0  0  0  0  0  0
   -1.6090   24.3190  -28.7290 C   0  0  0  0  0  0  0  0  0  0  0  0
   -2.3380   25.2950  -29.0830 O   0  0  0  0  0  0  0  0  0  0  0  0
   -1.1220   24.1720  -27.3990 N   0  0  0  0  0  0  0  0  0  0  0  0
   -1.4820   25.1830  -26.4360 C   0  0  0  0  0  0  0  0  0  0  0  0
   -2.9690   25.2860  -26.2370 C   0  0  0  0  0  0  0  0  0  0  0  0
   -0.8710   24.8130  -25.0830 C   0  0  0  0  0  0  0  0  0  0  0  0
   -0.8650   26.5140  -26.8110 C   0  0  0  0  0  0  0  0  0  0  0  0
   -5.6810   21.4880  -31.7970 C   0  0  0  0  0  0  0  0  0  0  0  0
   -5.5950   20.2240  -32.3390 C   0  0  0  0  0  0  0  0  0  0  0  0
   -4.7075   17.9673  -34.3176 H   0  0  0  0  0  0  0  0  0  0  0  0
   -6.1120   17.2672  -35.1917 H   0  0  0  0  0  0  0  0  0  0  0  0
   -5.8491   19.0441  -35.1917 H   0  0  0  0  0  0  0  0  0  0  0  0
   -7.1522   17.1519  -31.7121 H   0  0  0  0  0  0  0  0  0  0  0  0
   -8.2397   17.0206  -33.1357 H   0  0  0  0  0  0  0  0  0  0  0  0
   -6.6543   16.1761  -33.1357 H   0  0  0  0  0  0  0  0  0  0  0  0
   -8.8143   19.6157  -33.1855 H   0  0  0  0  0  0  0  0  0  0  0  0
   -9.0461   21.8950  -32.2257 H   0  0  0  0  0  0  0  0  0  0  0  0
   -7.5883   24.0092  -31.0258 H   0  0  0  0  0  0  0  0  0  0  0  0
   -6.1200   24.9560  -28.5080 H   0  0  0  0  0  0  0  0  0  0  0  0
   -4.2970   24.9080  -28.2140 H   0  0  0  0  0  0  0  0  0  0  0  0
   -1.4828   21.7779  -28.4473 H   0  0  0  0  0  0  0  0  0  0  0  0
   -0.7440   21.4464  -30.0700 H   0  0  0  0  0  0  0  0  0  0  0  0
   -0.5210   23.3380  -27.1690 H   0  0  0  0  0  0  0  0  0  0  0  0
   -3.1947   25.3016  -25.1605 H   0  0  0  0  0  0  0  0  0  0  0  0
   -3.3380   26.2119  -26.7025 H   0  0  0  0  0  0  0  0  0  0  0  0
   -3.4621   24.4199  -26.7025 H   0  0  0  0  0  0  0  0  0  0  0  0
   -1.5091   25.1994  -24.2746 H   0  0  0  0  0  0  0  0  0  0  0  0
   -0.7976   23.7185  -25.0008 H   0  0  0  0  0  0  0  0  0  0  0  0
    0.1329   25.2551  -25.0008 H   0  0  0  0  0  0  0  0  0  0  0  0
   -0.6076   27.0693  -25.8970 H   0  0  0  0  0  0  0  0  0  0  0  0
    0.0452   26.3421  -27.4042 H   0  0  0  0  0  0  0  0  0  0  0  0
   -1.5845   27.0975  -27.4042 H   0  0  0  0  0  0  0  0  0  0  0  0
   -4.6135   19.7290  -32.3799 H   0  0  0  0  0  0  0  0  0  0  0  0
  1  2  1  0
  2  3  1  0
  2  4  1  0
  4  5  2  0
  5  6  1  0
  6  7  2  0
  7  8  1  0
  8  9  2  0
  9 10  1  0
 10 11  1  0
 10 12  2  0
  9 13  1  0
 13 14  1  0
 14 15  2  0
 14 16  1  0
 16 17  1  0
 17 18  1  0
 18 19  1  0
 19 20  2  0
 19 21  1  0
 21 22  1  0
 22 23  1  0
 22 24  1  0
 22 25  1  0
 13 26  1  0
 26 27  2  0
 27  4  1  0
 26  7  1  0
  1 28  1  0
  1 29  1  0
  1 30  1  0
  3 31  1  0
  3 32  1  0
  3 33  1  0
  5 34  1  0
  6 35  1  0
  8 36  1  0
 11 37  1  0
 11 38  1  0
 17 39  1  0
 17 40  1  0
 21 41  1  0
 23 42  1  0
 23 43  1  0
 23 44  1  0
 24 45  1  0
 24 46  1  0
 24 47  1  0
 25 48  1  0
 25 49  1  0
 25 50  1  0
 27 51  1  0
M  END
>  <smiles>  (83) 
CN(C)c1ccc2cc(C(N)=O)n(C(=O)OCOC(=O)NC(C)(C)C)c2c1

>  <score_type>  (83) 
oracle

>  <origin>  (83) 
adg

>  <m_score__min__energy>  (83) 
-8.8900000000000006

>  <m_primary>  (83) 
energy

$$$$
89:0
     RDKit          3D

 48 49  0  0  1  0  0  0  0  0999 V2000
   -1.4330   20.9700  -32.1840 C   0  0  0  0  0  0  0  0  0  0  0  0
   -2.9090   20.7520  -32.2520 C   0  0  0  0  0  0  0  0  0  0  0  0
   -3.2730   19.2930  -32.4760 C   0  0  0  0  0  0  0  0  0  0  0  0
   -3.4350   21.4850  -33.4890 C   0  0  0  0  0  0  0  0  0  0  0  0
   -3.6230   21.2520  -31.1450 O   0  0  0  0  0  0  0  0  0  0  0  0
   -4.1730   22.5160  -31.0860 C   0  0  0  0  0  0  0  0  0  0  0  0
   -3.3070   23.4560  -30.9940 O   0  0  0  0  0  0  0  0  0  0  0  0
   -5.5460   22.8320  -31.1170 N   0  0  0  0  0  0  0  0  0  0  0  0
   -6.1360   23.9830  -30.7670 C   0  0  0  0  0  0  0  0  0  0  0  0
   -5.6130   25.2270  -30.2670 C   0  0  0  0  0  0  0  0  0  0  0  0
   -6.1120   26.0080  -29.2060 N   0  0  0  0  0  0  0  0  0  0  0  0
   -4.5690   25.7120  -30.8280 O   0  0  0  0  0  0  0  0  0  0  0  0
   -7.5080   23.7860  -30.9820 C   0  0  0  0  0  0  0  0  0  0  0  0
   -7.7280   22.5260  -31.4560 C   0  0  0  0  0  0  0  0  0  0  0  0
   -8.8780   21.8660  -31.8140 C   0  0  0  0  0  0  0  0  0  0  0  0
   -8.8400   20.5710  -32.2730 C   0  0  0  0  0  0  0  0  0  0  0  0
   -7.6140   19.9510  -32.3650 C   0  0  0  0  0  0  0  0  0  0  0  0
   -7.5140   18.6010  -32.8380 N   0  0  0  0  0  0  0  0  0  0  0  0
   -6.3960   17.7820  -32.4390 C   0  0  0  0  0  0  0  0  0  0  0  0
   -6.0720   16.8240  -33.5550 C   0  0  1  0  0  0  0  0  0  0  0  0
   -7.2030   16.4440  -34.2810 O   0  0  0  0  0  0  0  0  0  0  0  0
   -5.0660   17.3810  -34.5210 C   0  0  0  0  0  0  0  0  0  0  0  0
   -5.7400   18.2510  -35.3820 O   0  0  0  0  0  0  0  0  0  0  0  0
   -6.4530   20.6360  -31.9980 C   0  0  0  0  0  0  0  0  0  0  0  0
   -6.4860   21.9340  -31.5370 C   0  0  0  0  0  0  0  0  0  0  0  0
   -1.1174   21.0166  -31.1313 H   0  0  0  0  0  0  0  0  0  0  0  0
   -0.9161   20.1385  -32.6853 H   0  0  0  0  0  0  0  0  0  0  0  0
   -1.1785   21.9155  -32.6853 H   0  0  0  0  0  0  0  0  0  0  0  0
   -3.3978   18.7929  -31.5043 H   0  0  0  0  0  0  0  0  0  0  0  0
   -4.2137   19.2327  -33.0429 H   0  0  0  0  0  0  0  0  0  0  0  0
   -2.4709   18.7978  -33.0429 H   0  0  0  0  0  0  0  0  0  0  0  0
   -4.0495   22.3413  -33.1741 H   0  0  0  0  0  0  0  0  0  0  0  0
   -2.5870   21.8438  -34.0908 H   0  0  0  0  0  0  0  0  0  0  0  0
   -4.0464   20.7965  -34.0908 H   0  0  0  0  0  0  0  0  0  0  0  0
   -6.8300   26.7660  -29.4070 H   0  0  0  0  0  0  0  0  0  0  0  0
   -5.7620   25.8420  -28.2160 H   0  0  0  0  0  0  0  0  0  0  0  0
   -8.2905   24.5363  -30.7960 H   0  0  0  0  0  0  0  0  0  0  0  0
   -9.8457   22.3825  -31.7320 H   0  0  0  0  0  0  0  0  0  0  0  0
   -9.7628   20.0449  -32.5587 H   0  0  0  0  0  0  0  0  0  0  0  0
   -8.2590   18.2370  -33.4660 H   0  0  0  0  0  0  0  0  0  0  0  0
   -5.5239   18.4209  -32.2356 H   0  0  0  0  0  0  0  0  0  0  0  0
   -6.6506   17.2211  -31.5277 H   0  0  0  0  0  0  0  0  0  0  0  0
   -5.6469   15.9442  -33.0498 H   0  0  0  0  0  0  0  0  0  0  0  0
   -7.0600   16.5530  -35.2630 H   0  0  0  0  0  0  0  0  0  0  0  0
   -4.2836   17.9271  -33.9737 H   0  0  0  0  0  0  0  0  0  0  0  0
   -4.5880   16.5698  -35.0897 H   0  0  0  0  0  0  0  0  0  0  0  0
   -6.6940   18.3780  -35.0810 H   0  0  0  0  0  0  0  0  0  0  0  0
   -5.4831   20.1235  -32.0796 H   0  0  0  0  0  0  0  0  0  0  0  0
  1  2  1  0
  2  3  1  0
  2  4  1  0
  2  5  1  0
  5  6  1  0
  6  7  2  0
  6  8  1  0
  8  9  1  0
  9 10  1  0
 10 11  1  0
 10 12  2  0
  9 13  2  0
 13 14  1  0
 14 15  2  0
 15 16  1  0
 16 17  2  0
 17 18  1  0
 18 19  1  0
 19 20  1  0
 20 21  1  0
 20 22  1  0
 22 23  1  0
 17 24  1  0
 24 25  2  0
 25  8  1  0
 25 14  1  0
  1 26  1  0
  1 27  1  0
  1 28  1  0
  3 29  1  0
  3 30  1  0
  3 31  1  0
  4 32  1  0
  4 33  1  0
  4 34  1  0
 11 35  1  0
 11 36  1  0
 13 37  1  0
 15 38  1  0
 16 39  1  0
 18 40  1  0
 19 41  1  0
 19 42  1  0
 20 43  1  1
 21 44  1  0
 22 45  1  0
 22 46  1  0
 23 47  1  0
 24 48  1  0
M  END
>  <smiles>  (84) 
CC(C)(C)OC(=O)n1c(C(N)=O)cc2ccc(NCC(O)CO)cc21

>  <score_type>  (84) 
oracle

>  <origin>  (84) 
adg

>  <m_score__min__energy>  (84) 
-8.5899999999999999

>  <m_primary>  (84) 
energy

$$$$
90:0
     RDKit          3D

 40 41  0  0  0  0  0  0  0  0999 V2000
   -6.2650   17.6110  -33.8440 C   0  0  0  0  0  0  0  0  0  0  0  0
   -7.2670   17.7720  -32.7370 C   0  0  0  0  0  0  0  0  0  0  0  0
   -8.2500   18.7980  -33.0120 N   0  0  0  0  0  0  0  0  0  0  0  0
   -8.0610   20.0900  -32.4400 C   0  0  0  0  0  0  0  0  0  0  0  0
   -9.1620   20.7790  -32.0090 C   0  0  0  0  0  0  0  0  0  0  0  0
   -8.9720   22.0170  -31.4610 C   0  0  0  0  0  0  0  0  0  0  0  0
   -7.6990   22.5400  -31.3550 C   0  0  0  0  0  0  0  0  0  0  0  0
   -7.3000   23.7360  -30.8510 C   0  0  0  0  0  0  0  0  0  0  0  0
   -5.9030   23.7620  -30.9850 C   0  0  0  0  0  0  0  0  0  0  0  0
   -5.1810   24.9140  -30.4370 C   0  0  0  0  0  0  0  0  0  0  0  0
   -5.7450   25.6660  -29.3350 N   0  0  0  0  0  0  0  0  0  0  0  0
   -4.0800   25.3320  -30.8450 O   0  0  0  0  0  0  0  0  0  0  0  0
   -5.4390   22.6520  -31.5480 N   0  0  0  0  0  0  0  0  0  0  0  0
   -4.2080   22.2610  -32.0780 C   0  0  0  0  0  0  0  0  0  0  0  0
   -4.2050   22.2500  -33.4030 O   0  0  0  0  0  0  0  0  0  0  0  0
   -2.9790   21.8930  -31.5560 N   0  0  0  0  0  0  0  0  0  0  0  0
   -2.2670   22.2820  -30.3700 C   0  0  0  0  0  0  0  0  0  0  0  0
   -2.0380   20.6700  -32.5220 P   0  0  0  0  0  0  0  0  0  0  0  0
   -0.8800   20.1810  -31.7110 O   0  0  0  0  0  0  0  0  0  0  0  0
   -3.0500   19.4680  -33.0750 O   0  0  0  0  0  0  0  0  0  0  0  0
   -1.4370   21.5680  -33.8260 O   0  0  0  0  0  0  0  0  0  0  0  0
   -6.5710   21.8890  -31.7710 C   0  0  0  0  0  0  0  0  0  0  0  0
   -6.7770   20.6310  -32.3260 C   0  0  0  0  0  0  0  0  0  0  0  0
   -5.2656   17.4504  -33.4135 H   0  0  0  0  0  0  0  0  0  0  0  0
   -6.5402   16.7456  -34.4647 H   0  0  0  0  0  0  0  0  0  0  0  0
   -6.2553   18.5191  -34.4647 H   0  0  0  0  0  0  0  0  0  0  0  0
   -7.7894   16.8145  -32.5945 H   0  0  0  0  0  0  0  0  0  0  0  0
   -6.7161   18.0760  -31.8347 H   0  0  0  0  0  0  0  0  0  0  0  0
   -9.0880   18.5970  -33.6250 H   0  0  0  0  0  0  0  0  0  0  0  0
  -10.1704   20.3493  -32.1008 H   0  0  0  0  0  0  0  0  0  0  0  0
   -9.8354   22.5975  -31.1038 H   0  0  0  0  0  0  0  0  0  0  0  0
   -7.9400   24.5228  -30.4252 H   0  0  0  0  0  0  0  0  0  0  0  0
   -6.2090   26.5900  -29.4900 H   0  0  0  0  0  0  0  0  0  0  0  0
   -5.6430   25.2060  -28.4050 H   0  0  0  0  0  0  0  0  0  0  0  0
   -2.8365   21.9709  -29.4818 H   0  0  0  0  0  0  0  0  0  0  0  0
   -1.2791   21.7983  -30.3602 H   0  0  0  0  0  0  0  0  0  0  0  0
   -2.1404   23.3746  -30.3602 H   0  0  0  0  0  0  0  0  0  0  0  0
   -3.8800   19.9020  -33.4010 H   0  0  0  0  0  0  0  0  0  0  0  0
   -2.1450   22.0710  -34.3020 H   0  0  0  0  0  0  0  0  0  0  0  0
   -5.9133   20.0504  -32.6822 H   0  0  0  0  0  0  0  0  0  0  0  0
  1  2  1  0
  2  3  1  0
  3  4  1  0
  4  5  2  0
  5  6  1  0
  6  7  2  0
  7  8  1  0
  8  9  2  0
  9 10  1  0
 10 11  1  0
 10 12  2  0
  9 13  1  0
 13 14  1  0
 14 15  2  0
 14 16  1  0
 16 17  1  0
 16 18  1  0
 18 19  2  0
 18 20  1  0
 18 21  1  0
 13 22  1  0
 22 23  2  0
 23  4  1  0
 22  7  1  0
  1 24  1  0
  1 25  1  0
  1 26  1  0
  2 27  1  0
  2 28  1  0
  3 29  1  0
  5 30  1  0
  6 31  1  0
  8 32  1  0
 11 33  1  0
 11 34  1  0
 17 35  1  0
 17 36  1  0
 17 37  1  0
 20 38  1  0
 21 39  1  0
 23 40  1  0
M  END
>  <smiles>  (85) 
CCNc1ccc2cc(C(N)=O)n(C(=O)N(C)P(=O)(O)O)c2c1

>  <score_type>  (85) 
oracle

>  <origin>  (85) 
adg

>  <m_score__min__energy>  (85) 
-8.1199999999999992

>  <m_primary>  (85) 
energy

$$$$
91:0
     RDKit          3D

 39 40  0  0  0  0  0  0  0  0999 V2000
   -4.6480   17.8520  -35.0340 C   0  0  0  0  0  0  0  0  0  0  0  0
   -5.9820   18.1460  -34.5200 N   0  0  0  0  0  0  0  0  0  0  0  0
   -6.3600   17.9220  -33.1760 C   0  0  0  0  0  0  0  0  0  0  0  0
   -5.5110   17.4470  -32.3850 O   0  0  0  0  0  0  0  0  0  0  0  0
   -7.7500   18.2620  -32.7750 C   0  0  0  0  0  0  0  0  0  0  0  0
   -7.8590   19.6850  -32.3530 C   0  0  0  0  0  0  0  0  0  0  0  0
   -9.1110   20.2540  -32.2780 C   0  0  0  0  0  0  0  0  0  0  0  0
   -9.2330   21.5710  -31.8890 C   0  0  0  0  0  0  0  0  0  0  0  0
   -8.0960   22.2920  -31.5840 C   0  0  0  0  0  0  0  0  0  0  0  0
   -7.9350   23.5940  -31.1790 C   0  0  0  0  0  0  0  0  0  0  0  0
   -6.5690   23.8560  -30.9960 C   0  0  0  0  0  0  0  0  0  0  0  0
   -6.0720   25.1490  -30.5670 C   0  0  0  0  0  0  0  0  0  0  0  0
   -6.4830   25.6520  -29.2730 N   0  0  0  0  0  0  0  0  0  0  0  0
   -5.3110   25.8980  -31.2030 O   0  0  0  0  0  0  0  0  0  0  0  0
   -5.9150   22.7200  -31.2890 N   0  0  0  0  0  0  0  0  0  0  0  0
   -4.5160   22.4960  -31.2490 C   0  0  0  0  0  0  0  0  0  0  0  0
   -3.8100   22.8400  -32.2610 O   0  0  0  0  0  0  0  0  0  0  0  0
   -3.8190   21.9340  -30.2150 O   0  0  0  0  0  0  0  0  0  0  0  0
   -2.9760   22.6990  -29.4070 C   0  0  0  0  0  0  0  0  0  0  0  0
   -3.4110   24.1010  -29.2640 C   0  0  0  0  0  0  0  0  0  0  0  0
   -4.0190   24.5630  -28.2700 O   0  0  0  0  0  0  0  0  0  0  0  0
   -3.1220   24.9690  -30.3130 O   0  0  0  0  0  0  0  0  0  0  0  0
   -6.8240   21.7650  -31.6460 C   0  0  0  0  0  0  0  0  0  0  0  0
   -6.7260   20.4430  -32.0380 C   0  0  0  0  0  0  0  0  0  0  0  0
   -3.9562   17.6995  -34.1925 H   0  0  0  0  0  0  0  0  0  0  0  0
   -4.6845   16.9403  -35.6485 H   0  0  0  0  0  0  0  0  0  0  0  0
   -4.2979   18.6945  -35.6485 H   0  0  0  0  0  0  0  0  0  0  0  0
   -6.6630   18.5410  -35.2100 H   0  0  0  0  0  0  0  0  0  0  0  0
   -8.4216   18.0892  -33.6289 H   0  0  0  0  0  0  0  0  0  0  0  0
   -8.0310   17.6251  -31.9233 H   0  0  0  0  0  0  0  0  0  0  0  0
  -10.0051   19.6632  -32.5261 H   0  0  0  0  0  0  0  0  0  0  0  0
  -10.2249   22.0418  -31.8224 H   0  0  0  0  0  0  0  0  0  0  0  0
   -8.7487   24.3175  -31.0227 H   0  0  0  0  0  0  0  0  0  0  0  0
   -7.2440   26.3930  -29.2140 H   0  0  0  0  0  0  0  0  0  0  0  0
   -6.0520   25.3100  -28.4000 H   0  0  0  0  0  0  0  0  0  0  0  0
   -2.9422   22.2413  -28.4073 H   0  0  0  0  0  0  0  0  0  0  0  0
   -1.9890   22.7144  -29.8924 H   0  0  0  0  0  0  0  0  0  0  0  0
   -3.4890   24.8990  -31.2330 H   0  0  0  0  0  0  0  0  0  0  0  0
   -5.7325   19.9754  -32.1039 H   0  0  0  0  0  0  0  0  0  0  0  0
  1  2  1  0
  2  3  1  0
  3  4  2  0
  3  5  1  0
  5  6  1  0
  6  7  2  0
  7  8  1  0
  8  9  2  0
  9 10  1  0
 10 11  2  0
 11 12  1  0
 12 13  1  0
 12 14  2  0
 11 15  1  0
 15 16  1  0
 16 17  2  0
 16 18  1  0
 18 19  1  0
 19 20  1  0
 20 21  2  0
 20 22  1  0
 15 23  1  0
 23 24  2  0
 24  6  1  0
 23  9  1  0
  1 25  1  0
  1 26  1  0
  1 27  1  0
  2 28  1  0
  5 29  1  0
  5 30  1  0
  7 31  1  0
  8 32  1  0
 10 33  1  0
 13 34  1  0
 13 35  1  0
 19 36  1  0
 19 37  1  0
 22 38  1  0
 24 39  1  0
M  END
>  <smiles>  (86) 
CNC(=O)Cc1ccc2cc(C(N)=O)n(C(=O)OCC(=O)O)c2c1

>  <score_type>  (86) 
oracle

>  <origin>  (86) 
adg

>  <m_score__min__energy>  (86) 
-9.7799999999999994

>  <m_primary>  (86) 
energy

$$$$
92:0
     RDKit          3D

 41 42  0  0  0  0  0  0  0  0999 V2000
   -7.1360   17.2660  -32.9190 C   0  0  0  0  0  0  0  0  0  0  0  0
   -7.2020   18.4260  -32.5960 C   0  0  0  0  0  0  0  0  0  0  0  0
   -7.3030   19.8110  -32.2200 C   0  0  0  0  0  0  0  0  0  0  0  0
   -8.5300   20.4320  -32.3190 C   0  0  0  0  0  0  0  0  0  0  0  0
   -8.6210   21.7590  -31.9580 C   0  0  0  0  0  0  0  0  0  0  0  0
   -7.5120   22.4370  -31.5130 C   0  0  0  0  0  0  0  0  0  0  0  0
   -7.3410   23.7390  -31.1000 C   0  0  0  0  0  0  0  0  0  0  0  0
   -6.0010   23.9420  -30.7400 C   0  0  0  0  0  0  0  0  0  0  0  0
   -5.5310   25.2170  -30.2680 C   0  0  0  0  0  0  0  0  0  0  0  0
   -6.1040   26.0500  -29.2920 N   0  0  0  0  0  0  0  0  0  0  0  0
   -4.4520   25.6670  -30.7950 O   0  0  0  0  0  0  0  0  0  0  0  0
   -5.3710   22.7700  -30.9350 N   0  0  0  0  0  0  0  0  0  0  0  0
   -4.0210   22.4730  -30.7160 C   0  0  0  0  0  0  0  0  0  0  0  0
   -3.1280   23.1650  -31.3280 O   0  0  0  0  0  0  0  0  0  0  0  0
   -3.5110   21.4980  -29.8960 O   0  0  0  0  0  0  0  0  0  0  0  0
   -3.5690   21.6350  -28.4910 C   0  0  0  0  0  0  0  0  0  0  0  0
   -2.2470   21.4110  -27.8970 C   0  0  0  0  0  0  0  0  0  0  0  0
   -1.8270   20.3120  -27.4570 O   0  0  0  0  0  0  0  0  0  0  0  0
   -1.3580   22.5290  -27.8080 N   0  0  0  0  0  0  0  0  0  0  0  0
    0.0480   22.4300  -28.1820 C   0  0  0  0  0  0  0  0  0  0  0  0
   -1.8010   23.8360  -27.3380 C   0  0  0  0  0  0  0  0  0  0  0  0
   -1.4420   24.9010  -28.3260 C   0  0  0  0  0  0  0  0  0  0  0  0
   -0.3250   25.4860  -28.2700 O   0  0  0  0  0  0  0  0  0  0  0  0
   -2.3080   25.2930  -29.3390 O   0  0  0  0  0  0  0  0  0  0  0  0
   -6.2720   21.8530  -31.4020 C   0  0  0  0  0  0  0  0  0  0  0  0
   -6.1860   20.5210  -31.7650 C   0  0  0  0  0  0  0  0  0  0  0  0
   -7.0758   16.2079  -33.2136 H   0  0  0  0  0  0  0  0  0  0  0  0
   -9.4133   19.8826  -32.6768 H   0  0  0  0  0  0  0  0  0  0  0  0
   -9.5880   22.2788  -32.0266 H   0  0  0  0  0  0  0  0  0  0  0  0
   -8.1326   24.5017  -31.0588 H   0  0  0  0  0  0  0  0  0  0  0  0
   -6.8100   26.7920  -29.5740 H   0  0  0  0  0  0  0  0  0  0  0  0
   -5.8160   25.9350  -28.2730 H   0  0  0  0  0  0  0  0  0  0  0  0
   -3.9110   22.6500  -28.2403 H   0  0  0  0  0  0  0  0  0  0  0  0
   -4.2699   20.8881  -28.0898 H   0  0  0  0  0  0  0  0  0  0  0  0
    0.6668   22.3864  -27.2736 H   0  0  0  0  0  0  0  0  0  0  0  0
    0.2058   21.5185  -28.7772 H   0  0  0  0  0  0  0  0  0  0  0  0
    0.3320   23.3104  -28.7772 H   0  0  0  0  0  0  0  0  0  0  0  0
   -2.8927   23.8208  -27.2036 H   0  0  0  0  0  0  0  0  0  0  0  0
   -1.3028   24.0566  -26.3824 H   0  0  0  0  0  0  0  0  0  0  0  0
   -2.7760   24.5950  -29.9040 H   0  0  0  0  0  0  0  0  0  0  0  0
   -5.2159   20.0072  -31.6943 H   0  0  0  0  0  0  0  0  0  0  0  0
  1  2  3  0
  2  3  1  0
  3  4  2  0
  4  5  1  0
  5  6  2  0
  6  7  1  0
  7  8  2  0
  8  9  1  0
  9 10  1  0
  9 11  2  0
  8 12  1  0
 12 13  1  0
 13 14  2  0
 13 15  1  0
 15 16  1  0
 16 17  1  0
 17 18  2  0
 17 19  1  0
 19 20  1  0
 19 21  1  0
 21 22  1  0
 22 23  2  0
 22 24  1  0
 12 25  1  0
 25 26  2  0
 26  3  1  0
 25  6  1  0
  1 27  1  0
  4 28  1  0
  5 29  1  0
  7 30  1  0
 10 31  1  0
 10 32  1  0
 16 33  1  0
 16 34  1  0
 20 35  1  0
 20 36  1  0
 20 37  1  0
 21 38  1  0
 21 39  1  0
 24 40  1  0
 26 41  1  0
M  END
>  <smiles>  (87) 
C#Cc1ccc2cc(C(N)=O)n(C(=O)OCC(=O)N(C)CC(=O)O)c2c1

>  <score_type>  (87) 
oracle

>  <origin>  (87) 
adg

>  <m_score__min__energy>  (87) 
-8.8800000000000008

>  <m_primary>  (87) 
energy

$$$$
93:0
     RDKit          3D

 36 37  0  0  1  0  0  0  0  0999 V2000
   -5.6230   25.1830  -29.0680 N   0  0  0  0  0  0  0  0  0  0  0  0
   -5.5690   24.8380  -30.4760 C   0  0  0  0  0  0  0  0  0  0  0  0
   -4.9780   25.6550  -31.1880 O   0  0  0  0  0  0  0  0  0  0  0  0
   -6.1970   23.6000  -30.8980 C   0  0  0  0  0  0  0  0  0  0  0  0
   -7.5890   23.4400  -30.9560 C   0  0  0  0  0  0  0  0  0  0  0  0
   -7.8850   22.1690  -31.3870 C   0  0  0  0  0  0  0  0  0  0  0  0
   -9.0930   21.5360  -31.6060 C   0  0  0  0  0  0  0  0  0  0  0  0
   -9.0860   20.2300  -32.0490 C   0  0  0  0  0  0  0  0  0  0  0  0
   -7.8930   19.5740  -32.2670 C   0  0  0  0  0  0  0  0  0  0  0  0
   -7.8780   18.2270  -32.7250 N   0  0  0  0  0  0  0  0  0  0  0  0
   -6.7020   20.2520  -32.0350 C   0  0  0  0  0  0  0  0  0  0  0  0
   -6.6670   21.5590  -31.5910 C   0  0  0  0  0  0  0  0  0  0  0  0
   -5.6570   22.4330  -31.2930 N   0  0  0  0  0  0  0  0  0  0  0  0
   -4.2640   22.1270  -31.3930 C   0  0  0  0  0  0  0  0  0  0  0  0
   -3.4900   22.6540  -32.2220 O   0  0  0  0  0  0  0  0  0  0  0  0
   -3.7360   21.1980  -30.5290 O   0  0  0  0  0  0  0  0  0  0  0  0
   -3.1270   21.4830  -29.3240 C   0  0  0  0  0  0  0  0  0  0  0  0
   -2.1450   22.6040  -29.2850 C   0  0  1  0  0  0  0  0  0  0  0  0
   -1.5710   22.9590  -30.4710 O   0  0  0  0  0  0  0  0  0  0  0  0
   -2.9050   23.8380  -28.7800 C   0  0  0  0  0  0  0  0  0  0  0  0
   -2.9530   24.7690  -29.8230 O   0  0  0  0  0  0  0  0  0  0  0  0
   -6.5610   25.2020  -28.6130 H   0  0  0  0  0  0  0  0  0  0  0  0
   -4.7250   25.3920  -28.5940 H   0  0  0  0  0  0  0  0  0  0  0  0
   -8.3288   24.2117  -30.6969 H   0  0  0  0  0  0  0  0  0  0  0  0
  -10.0422   22.0634  -31.4305 H   0  0  0  0  0  0  0  0  0  0  0  0
  -10.0377   19.7087  -32.2295 H   0  0  0  0  0  0  0  0  0  0  0  0
   -8.3540   17.9820  -33.6200 H   0  0  0  0  0  0  0  0  0  0  0  0
   -7.3940   17.4860  -32.1680 H   0  0  0  0  0  0  0  0  0  0  0  0
   -5.7514   19.7275  -32.2118 H   0  0  0  0  0  0  0  0  0  0  0  0
   -3.9231   21.7201  -28.6029 H   0  0  0  0  0  0  0  0  0  0  0  0
   -2.5305   20.5867  -29.0984 H   0  0  0  0  0  0  0  0  0  0  0  0
   -1.3200   22.2527  -28.6479 H   0  0  0  0  0  0  0  0  0  0  0  0
   -2.2140   23.2130  -31.1810 H   0  0  0  0  0  0  0  0  0  0  0  0
   -3.9259   23.5537  -28.4853 H   0  0  0  0  0  0  0  0  0  0  0  0
   -2.3978   24.2690  -27.9042 H   0  0  0  0  0  0  0  0  0  0  0  0
   -3.2310   24.3400  -30.6870 H   0  0  0  0  0  0  0  0  0  0  0  0
  1  2  1  0
  2  3  2  0
  2  4  1  0
  4  5  2  0
  5  6  1  0
  6  7  2  0
  7  8  1  0
  8  9  2  0
  9 10  1  0
  9 11  1  0
 11 12  2  0
 12 13  1  0
 13 14  1  0
 14 15  2  0
 14 16  1  0
 16 17  1  0
 17 18  1  0
 18 19  1  0
 18 20  1  0
 20 21  1  0
 13  4  1  0
 12  6  1  0
  1 22  1  0
  1 23  1  0
  5 24  1  0
  7 25  1  0
  8 26  1  0
 10 27  1  0
 10 28  1  0
 11 29  1  0
 17 30  1  0
 17 31  1  0
 18 32  1  1
 19 33  1  0
 20 34  1  0
 20 35  1  0
 21 36  1  0
M  END
>  <smiles>  (88) 
NC(=O)c1cc2ccc(N)cc2n1C(=O)OCC(O)CO

>  <score_type>  (88) 
oracle

>  <origin>  (88) 
adg

>  <m_score__min__energy>  (88) 
-7.8300000000000001

>  <m_primary>  (88) 
energy

$$$$
94:0
     RDKit          3D

 37 38  0  0  0  0  0  0  0  0999 V2000
   -8.6280   19.3630  -32.7960 N   0  0  0  0  0  0  0  0  0  0  0  0
   -9.0250   20.6550  -32.2800 C   0  0  0  0  0  0  0  0  0  0  0  0
  -10.2570   20.8650  -32.3060 O   0  0  0  0  0  0  0  0  0  0  0  0
   -8.0110   21.5620  -31.7960 C   0  0  0  0  0  0  0  0  0  0  0  0
   -8.3230   22.7070  -31.0510 C   0  0  0  0  0  0  0  0  0  0  0  0
   -7.1680   23.3780  -30.7270 C   0  0  0  0  0  0  0  0  0  0  0  0
   -6.9560   24.5440  -30.0130 C   0  0  0  0  0  0  0  0  0  0  0  0
   -5.6680   24.9910  -29.8410 C   0  0  0  0  0  0  0  0  0  0  0  0
   -4.6150   24.2800  -30.3760 C   0  0  0  0  0  0  0  0  0  0  0  0
   -3.2830   24.7470  -30.1950 N   0  0  0  0  0  0  0  0  0  0  0  0
   -2.3640   23.8460  -29.4910 C   0  0  0  0  0  0  0  0  0  0  0  0
   -1.4770   24.7370  -28.6350 C   0  0  0  0  0  0  0  0  0  0  0  0
   -0.1840   24.2780  -28.8090 F   0  0  0  0  0  0  0  0  0  0  0  0
   -1.6150   26.0680  -28.9710 F   0  0  0  0  0  0  0  0  0  0  0  0
   -4.8670   23.1140  -31.0880 C   0  0  0  0  0  0  0  0  0  0  0  0
   -6.1460   22.6360  -31.2800 C   0  0  0  0  0  0  0  0  0  0  0  0
   -6.6750   21.5480  -31.9180 N   0  0  0  0  0  0  0  0  0  0  0  0
   -5.9000   20.5750  -32.5950 C   0  0  0  0  0  0  0  0  0  0  0  0
   -5.8160   20.4660  -33.8440 O   0  0  0  0  0  0  0  0  0  0  0  0
   -5.1520   19.6400  -31.8760 O   0  0  0  0  0  0  0  0  0  0  0  0
   -4.9540   18.3210  -32.3650 C   0  0  0  0  0  0  0  0  0  0  0  0
   -6.2890   17.7550  -32.6600 C   0  0  0  0  0  0  0  0  0  0  0  0
   -6.8540   17.1090  -31.7410 O   0  0  0  0  0  0  0  0  0  0  0  0
   -6.9550   17.8820  -33.8550 O   0  0  0  0  0  0  0  0  0  0  0  0
   -8.6050   19.3000  -33.8450 H   0  0  0  0  0  0  0  0  0  0  0  0
   -8.3870   18.5710  -32.1630 H   0  0  0  0  0  0  0  0  0  0  0  0
   -9.3385   23.0213  -30.7683 H   0  0  0  0  0  0  0  0  0  0  0  0
   -7.8036   25.1034  -29.5904 H   0  0  0  0  0  0  0  0  0  0  0  0
   -5.4773   25.9157  -29.2767 H   0  0  0  0  0  0  0  0  0  0  0  0
   -3.0170   25.6710  -30.5500 H   0  0  0  0  0  0  0  0  0  0  0  0
   -2.9268   23.1449  -28.8572 H   0  0  0  0  0  0  0  0  0  0  0  0
   -1.7708   23.2446  -30.1955 H   0  0  0  0  0  0  0  0  0  0  0  0
   -1.7634   24.6835  -27.5743 H   0  0  0  0  0  0  0  0  0  0  0  0
   -4.0199   22.5547  -31.5118 H   0  0  0  0  0  0  0  0  0  0  0  0
   -4.3455   18.3467  -33.2810 H   0  0  0  0  0  0  0  0  0  0  0  0
   -4.4262   17.7056  -31.6216 H   0  0  0  0  0  0  0  0  0  0  0  0
   -6.9240   18.7050  -34.4370 H   0  0  0  0  0  0  0  0  0  0  0  0
  1  2  1  0
  2  3  2  0
  2  4  1  0
  4  5  2  0
  5  6  1  0
  6  7  2  0
  7  8  1  0
  8  9  2  0
  9 10  1  0
 10 11  1  0
 11 12  1  0
 12 13  1  0
 12 14  1  0
  9 15  1  0
 15 16  2  0
 16 17  1  0
 17 18  1  0
 18 19  2  0
 18 20  1  0
 20 21  1  0
 21 22  1  0
 22 23  2  0
 22 24  1  0
 17  4  1  0
 16  6  1  0
  1 25  1  0
  1 26  1  0
  5 27  1  0
  7 28  1  0
  8 29  1  0
 10 30  1  0
 11 31  1  0
 11 32  1  0
 12 33  1  0
 15 34  1  0
 21 35  1  0
 21 36  1  0
 24 37  1  0
M  END
>  <smiles>  (89) 
NC(=O)c1cc2ccc(NCC(F)F)cc2n1C(=O)OCC(=O)O

>  <score_type>  (89) 
oracle

>  <origin>  (89) 
adg

>  <m_score__min__energy>  (89) 
-8.9299999999999997

>  <m_primary>  (89) 
energy

$$$$
95:0
     RDKit          3D

 45 46  0  0  0  0  0  0  0  0999 V2000
   -5.1700   15.8900  -32.2710 C   0  0  0  0  0  0  0  0  0  0  0  0
   -6.2100   17.0420  -31.8670 B   0  0  0  0  0  0  0  0  0  0  0  0
   -6.1420   17.4770  -30.4540 O   0  0  0  0  0  0  0  0  0  0  0  0
   -6.3080   18.1900  -32.8810 N   0  0  0  0  0  0  0  0  0  0  0  0
   -5.9750   18.0020  -34.2830 C   0  0  0  0  0  0  0  0  0  0  0  0
   -6.7340   19.4810  -32.4630 C   0  0  0  0  0  0  0  0  0  0  0  0
   -8.0380   19.8460  -32.6880 C   0  0  0  0  0  0  0  0  0  0  0  0
   -8.4560   21.0970  -32.2840 C   0  0  0  0  0  0  0  0  0  0  0  0
   -7.5630   21.9490  -31.6670 C   0  0  0  0  0  0  0  0  0  0  0  0
   -7.7160   23.2240  -31.1750 C   0  0  0  0  0  0  0  0  0  0  0  0
   -6.4920   23.6520  -30.6390 C   0  0  0  0  0  0  0  0  0  0  0  0
   -6.3300   24.9590  -30.0430 C   0  0  0  0  0  0  0  0  0  0  0  0
   -5.0780   25.6620  -30.2160 N   0  0  0  0  0  0  0  0  0  0  0  0
   -7.1820   25.5760  -29.3670 O   0  0  0  0  0  0  0  0  0  0  0  0
   -5.6180   22.6470  -30.8070 N   0  0  0  0  0  0  0  0  0  0  0  0
   -4.2590   22.6130  -30.4260 C   0  0  0  0  0  0  0  0  0  0  0  0
   -3.7980   21.5930  -29.8060 O   0  0  0  0  0  0  0  0  0  0  0  0
   -3.3320   23.6080  -30.6610 O   0  0  0  0  0  0  0  0  0  0  0  0
   -2.1900   23.8040  -29.8820 C   0  0  0  0  0  0  0  0  0  0  0  0
   -2.1420   25.0890  -29.2890 O   0  0  0  0  0  0  0  0  0  0  0  0
   -1.9670   25.3120  -27.9510 C   0  0  0  0  0  0  0  0  0  0  0  0
   -0.9350   25.8740  -27.5380 O   0  0  0  0  0  0  0  0  0  0  0  0
   -3.0330   24.8690  -27.0150 C   0  0  0  0  0  0  0  0  0  0  0  0
   -4.2500   24.5130  -27.7210 N   0  0  0  0  0  0  0  0  0  0  0  0
   -6.2460   21.6210  -31.4210 C   0  0  0  0  0  0  0  0  0  0  0  0
   -5.8570   20.3510  -31.8420 C   0  0  0  0  0  0  0  0  0  0  0  0
   -4.7572   15.4327  -31.3597 H   0  0  0  0  0  0  0  0  0  0  0  0
   -5.6864   15.1217  -32.8652 H   0  0  0  0  0  0  0  0  0  0  0  0
   -4.3531   16.3254  -32.8652 H   0  0  0  0  0  0  0  0  0  0  0  0
   -5.9710   16.6650  -29.8970 H   0  0  0  0  0  0  0  0  0  0  0  0
   -5.0197   17.4627  -34.3638 H   0  0  0  0  0  0  0  0  0  0  0  0
   -6.7682   17.4184  -34.7732 H   0  0  0  0  0  0  0  0  0  0  0  0
   -5.8851   18.9826  -34.7732 H   0  0  0  0  0  0  0  0  0  0  0  0
   -8.7365   19.1540  -33.1812 H   0  0  0  0  0  0  0  0  0  0  0  0
   -9.4958   21.4137  -32.4528 H   0  0  0  0  0  0  0  0  0  0  0  0
   -8.6455   23.8119  -31.1979 H   0  0  0  0  0  0  0  0  0  0  0  0
   -4.2500   25.2300  -29.7430 H   0  0  0  0  0  0  0  0  0  0  0  0
   -5.0320   26.5370  -30.7800 H   0  0  0  0  0  0  0  0  0  0  0  0
   -2.1759   23.0479  -29.0832 H   0  0  0  0  0  0  0  0  0  0  0  0
   -1.3177   23.7138  -30.5460 H   0  0  0  0  0  0  0  0  0  0  0  0
   -2.6752   23.9919  -26.4558 H   0  0  0  0  0  0  0  0  0  0  0  0
   -3.2614   25.7025  -26.3345 H   0  0  0  0  0  0  0  0  0  0  0  0
   -4.9140   25.2870  -27.8380 H   0  0  0  0  0  0  0  0  0  0  0  0
   -3.9860   24.0910  -28.6300 H   0  0  0  0  0  0  0  0  0  0  0  0
   -4.8182   20.0301  -31.6748 H   0  0  0  0  0  0  0  0  0  0  0  0
  1  2  1  0
  2  3  1  0
  2  4  1  0
  4  5  1  0
  4  6  1  0
  6  7  2  0
  7  8  1  0
  8  9  2  0
  9 10  1  0
 10 11  2  0
 11 12  1  0
 12 13  1  0
 12 14  2  0
 11 15  1  0
 15 16  1  0
 16 17  2  0
 16 18  1  0
 18 19  1  0
 19 20  1  0
 20 21  1  0
 21 22  2  0
 21 23  1  0
 23 24  1  0
 15 25  1  0
 25 26  2  0
 26  6  1  0
 25  9  1  0
  1 27  1  0
  1 28  1  0
  1 29  1  0
  3 30  1  0
  5 31  1  0
  5 32  1  0
  5 33  1  0
  7 34  1  0
  8 35  1  0
 10 36  1  0
 13 37  1  0
 13 38  1  0
 19 39  1  0
 19 40  1  0
 23 41  1  0
 23 42  1  0
 24 43  1  0
 24 44  1  0
 26 45  1  0
M  END
>  <smiles>  (90) 
CB(O)N(C)c1ccc2cc(C(N)=O)n(C(=O)OCOC(=O)CN)c2c1

>  <score_type>  (90) 
oracle

>  <origin>  (90) 
adg

>  <m_score__min__energy>  (90) 
-7.9699999999999998

>  <m_primary>  (90) 
energy

$$$$
96:0
     RDKit          3D

 40 41  0  0  0  0  0  0  0  0999 V2000
    0.6440   24.1200  -27.6340 C   0  0  0  0  0  0  0  0  0  0  0  0
   -0.1720   24.9190  -28.4440 O   0  0  0  0  0  0  0  0  0  0  0  0
   -0.9180   25.7030  -27.5900 C   0  0  0  0  0  0  0  0  0  0  0  0
   -1.8090   24.8980  -26.6810 C   0  0  0  0  0  0  0  0  0  0  0  0
   -2.5470   23.9210  -27.2980 O   0  0  0  0  0  0  0  0  0  0  0  0
   -3.5860   24.3890  -28.0640 C   0  0  0  0  0  0  0  0  0  0  0  0
   -3.2500   24.7480  -29.3780 O   0  0  0  0  0  0  0  0  0  0  0  0
   -4.0030   24.3710  -30.4620 C   0  0  0  0  0  0  0  0  0  0  0  0
   -4.6660   25.3170  -31.0150 O   0  0  0  0  0  0  0  0  0  0  0  0
   -4.0960   23.0640  -30.9940 N   0  0  0  0  0  0  0  0  0  0  0  0
   -3.1010   22.1820  -31.1930 C   0  0  0  0  0  0  0  0  0  0  0  0
   -1.6830   22.2930  -30.9320 C   0  0  0  0  0  0  0  0  0  0  0  0
   -1.2110   23.3610  -30.0760 N   0  0  0  0  0  0  0  0  0  0  0  0
   -0.7870   21.5480  -31.3750 O   0  0  0  0  0  0  0  0  0  0  0  0
   -3.6740   21.0370  -31.7330 C   0  0  0  0  0  0  0  0  0  0  0  0
   -5.0290   21.2210  -31.8670 C   0  0  0  0  0  0  0  0  0  0  0  0
   -6.0290   20.3950  -32.3460 C   0  0  0  0  0  0  0  0  0  0  0  0
   -7.3320   20.8490  -32.3650 C   0  0  0  0  0  0  0  0  0  0  0  0
   -7.6160   22.1160  -31.9060 C   0  0  0  0  0  0  0  0  0  0  0  0
   -9.0250   22.5900  -31.9320 C   0  0  0  0  0  0  0  0  0  0  0  0
   -9.8550   21.5630  -32.3110 F   0  0  0  0  0  0  0  0  0  0  0  0
   -9.1670   23.7330  -32.6840 F   0  0  0  0  0  0  0  0  0  0  0  0
   -6.5850   22.9190  -31.4300 C   0  0  0  0  0  0  0  0  0  0  0  0
   -5.2710   22.4960  -31.3990 C   0  0  0  0  0  0  0  0  0  0  0  0
    0.4290   24.3305  -26.5760 H   0  0  0  0  0  0  0  0  0  0  0  0
    0.4437   23.0591  -27.8448 H   0  0  0  0  0  0  0  0  0  0  0  0
    1.7004   24.3426  -27.8448 H   0  0  0  0  0  0  0  0  0  0  0  0
   -0.2312   26.2985  -26.9705 H   0  0  0  0  0  0  0  0  0  0  0  0
   -1.5676   26.3390  -28.2094 H   0  0  0  0  0  0  0  0  0  0  0  0
   -1.1743   24.4164  -25.9226 H   0  0  0  0  0  0  0  0  0  0  0  0
   -2.5361   25.6085  -26.2610 H   0  0  0  0  0  0  0  0  0  0  0  0
   -4.3532   23.6022  -28.1127 H   0  0  0  0  0  0  0  0  0  0  0  0
   -3.9308   25.3125  -27.5759 H   0  0  0  0  0  0  0  0  0  0  0  0
   -0.5340   24.0690  -30.4380 H   0  0  0  0  0  0  0  0  0  0  0  0
   -1.5800   23.3900  -29.0790 H   0  0  0  0  0  0  0  0  0  0  0  0
   -3.1270   20.1239  -32.0105 H   0  0  0  0  0  0  0  0  0  0  0  0
   -5.7880   19.3849  -32.7087 H   0  0  0  0  0  0  0  0  0  0  0  0
   -8.1380   20.2035  -32.7440 H   0  0  0  0  0  0  0  0  0  0  0  0
   -9.3279   22.8868  -30.9170 H   0  0  0  0  0  0  0  0  0  0  0  0
   -6.8253   23.9284  -31.0647 H   0  0  0  0  0  0  0  0  0  0  0  0
  1  2  1  0
  2  3  1  0
  3  4  1  0
  4  5  1  0
  5  6  1  0
  6  7  1  0
  7  8  1  0
  8  9  2  0
  8 10  1  0
 10 11  1  0
 11 12  1  0
 12 13  1  0
 12 14  2  0
 11 15  2  0
 15 16  1  0
 16 17  2  0
 17 18  1  0
 18 19  2  0
 19 20  1  0
 20 21  1  0
 20 22  1  0
 19 23  1  0
 23 24  2  0
 24 10  1  0
 24 16  1  0
  1 25  1  0
  1 26  1  0
  1 27  1  0
  3 28  1  0
  3 29  1  0
  4 30  1  0
  4 31  1  0
  6 32  1  0
  6 33  1  0
 13 34  1  0
 13 35  1  0
 15 36  1  0
 17 37  1  0
 18 38  1  0
 20 39  1  0
 23 40  1  0
M  END
>  <smiles>  (91) 
COCCOCOC(=O)n1c(C(N)=O)cc2ccc(C(F)F)cc21

>  <score_type>  (91) 
oracle

>  <origin>  (91) 
adg

>  <m_score__min__energy>  (91) 
-7.21

>  <m_primary>  (91) 
energy

$$$$
97:0
     RDKit          3D

 41 43  0  0  0  0  0  0  0  0999 V2000
   -2.2120   20.3410  -31.6480 C   0  0  0  0  0  0  0  0  0  0  0  0
   -2.5220   21.6170  -30.9000 C   0  0  0  0  0  0  0  0  0  0  0  0
   -1.2310   22.2970  -30.4370 C   0  0  0  0  0  0  0  0  0  0  0  0
   -3.2950   21.2780  -29.6740 C   0  0  0  0  0  0  0  0  0  0  0  0
   -3.1700   22.5090  -31.7810 O   0  0  0  0  0  0  0  0  0  0  0  0
   -4.0870   23.4160  -31.2110 C   0  0  0  0  0  0  0  0  0  0  0  0
   -3.5570   24.4080  -30.6590 O   0  0  0  0  0  0  0  0  0  0  0  0
   -5.4730   23.1630  -31.2900 N   0  0  0  0  0  0  0  0  0  0  0  0
   -6.4580   23.9380  -30.8100 C   0  0  0  0  0  0  0  0  0  0  0  0
   -6.4170   25.2010  -30.1040 C   0  0  0  0  0  0  0  0  0  0  0  0
   -5.2590   26.0540  -30.2760 N   0  0  0  0  0  0  0  0  0  0  0  0
   -7.2870   25.6520  -29.3420 O   0  0  0  0  0  0  0  0  0  0  0  0
   -7.6570   23.2840  -31.1250 C   0  0  0  0  0  0  0  0  0  0  0  0
   -7.3880   22.1230  -31.7880 C   0  0  0  0  0  0  0  0  0  0  0  0
   -8.2180   21.1450  -32.2990 C   0  0  0  0  0  0  0  0  0  0  0  0
   -7.6750   20.0520  -32.9370 C   0  0  0  0  0  0  0  0  0  0  0  0
   -6.3040   19.9600  -33.0500 C   0  0  0  0  0  0  0  0  0  0  0  0
   -5.7390   18.7980  -33.7270 C   0  0  0  0  0  0  0  0  0  0  0  0
   -4.8990   17.8570  -33.2600 N   0  0  0  0  0  0  0  0  0  0  0  0
   -4.6400   16.9600  -34.2560 C   0  0  0  0  0  0  0  0  0  0  0  0
   -5.3350   17.3680  -35.3380 N   0  0  0  0  0  0  0  0  0  0  0  0
   -5.9900   18.4710  -35.0070 N   0  0  0  0  0  0  0  0  0  0  0  0
   -5.4940   20.9550  -32.5280 C   0  0  0  0  0  0  0  0  0  0  0  0
   -6.0070   22.0610  -31.8840 C   0  0  0  0  0  0  0  0  0  0  0  0
   -2.0156   19.5326  -30.9283 H   0  0  0  0  0  0  0  0  0  0  0  0
   -3.0701   20.0688  -32.2801 H   0  0  0  0  0  0  0  0  0  0  0  0
   -1.3246   20.4928  -32.2801 H   0  0  0  0  0  0  0  0  0  0  0  0
   -1.1993   22.3137  -29.3376 H   0  0  0  0  0  0  0  0  0  0  0  0
   -0.3645   21.7383  -30.8204 H   0  0  0  0  0  0  0  0  0  0  0  0
   -1.2016   23.3276  -30.8204 H   0  0  0  0  0  0  0  0  0  0  0  0
   -2.7031   21.5376  -28.7839 H   0  0  0  0  0  0  0  0  0  0  0  0
   -4.2373   21.8455  -29.6660 H   0  0  0  0  0  0  0  0  0  0  0  0
   -3.5158   20.2004  -29.6660 H   0  0  0  0  0  0  0  0  0  0  0  0
   -5.3910   26.8980  -30.8830 H   0  0  0  0  0  0  0  0  0  0  0  0
   -4.3510   25.8280  -29.8150 H   0  0  0  0  0  0  0  0  0  0  0  0
   -8.6632   23.6517  -30.8751 H   0  0  0  0  0  0  0  0  0  0  0  0
   -9.3092   21.2386  -32.1968 H   0  0  0  0  0  0  0  0  0  0  0  0
   -8.3242   19.2656  -33.3495 H   0  0  0  0  0  0  0  0  0  0  0  0
   -3.9900   16.0751  -34.1892 H   0  0  0  0  0  0  0  0  0  0  0  0
   -6.6010   18.9790  -35.6770 H   0  0  0  0  0  0  0  0  0  0  0  0
   -4.4030   20.8595  -32.6309 H   0  0  0  0  0  0  0  0  0  0  0  0
  1  2  1  0
  2  3  1  0
  2  4  1  0
  2  5  1  0
  5  6  1  0
  6  7  2  0
  6  8  1  0
  8  9  1  0
  9 10  1  0
 10 11  1  0
 10 12  2  0
  9 13  2  0
 13 14  1  0
 14 15  2  0
 15 16  1  0
 16 17  2  0
 17 18  1  0
 18 19  2  0
 19 20  1  0
 20 21  2  0
 21 22  1  0
 17 23  1  0
 23 24  2  0
 24  8  1  0
 24 14  1  0
 22 18  1  0
  1 25  1  0
  1 26  1  0
  1 27  1  0
  3 28  1  0
  3 29  1  0
  3 30  1  0
  4 31  1  0
  4 32  1  0
  4 33  1  0
 11 34  1  0
 11 35  1  0
 13 36  1  0
 15 37  1  0
 16 38  1  0
 20 39  1  0
 22 40  1  0
 23 41  1  0
M  END
>  <smiles>  (92) 
CC(C)(C)OC(=O)n1c(C(N)=O)cc2ccc(-c3ncn[nH]3)cc21

>  <score_type>  (92) 
oracle

>  <origin>  (92) 
adg

>  <m_score__min__energy>  (92) 
-9.0099999999999998

>  <m_primary>  (92) 
energy

$$$$
