0:0
     RDKit          3D

 50 51  0  0  1  0  0  0  0  0999 V2000
   -2.8010   20.9730  -29.8840 C   0  0  0  0  0  0  0  0  0  0  0  0
   -1.9620   22.0030  -30.6320 C   0  0  1  0  0  0  0  0  0  0  0  0
   -2.7870   22.6410  -31.6140 N   0  0  0  0  0  0  0  0  0  0  0  0
   -1.3540   22.9870  -29.6890 C   0  0  0  0  0  0  0  0  0  0  0  0
   -0.4060   22.5780  -28.9800 O   0  0  0  0  0  0  0  0  0  0  0  0
   -1.8360   24.2670  -29.6290 O   0  0  0  0  0  0  0  0  0  0  0  0
   -3.1580   24.5590  -29.2140 C   0  0  0  0  0  0  0  0  0  0  0  0
   -3.8440   25.0370  -30.3800 O   0  0  0  0  0  0  0  0  0  0  0  0
   -5.0010   24.4290  -30.8350 C   0  0  0  0  0  0  0  0  0  0  0  0
   -5.0350   23.8500  -31.9390 O   0  0  0  0  0  0  0  0  0  0  0  0
   -6.2170   24.4350  -30.0620 N   0  0  0  0  0  0  0  0  0  0  0  0
   -6.5510   25.6750  -29.4080 C   0  0  0  0  0  0  0  0  0  0  0  0
   -6.9920   23.2340  -29.9990 C   0  0  0  0  0  0  0  0  0  0  0  0
   -7.8720   23.0180  -31.2090 C   0  0  0  0  0  0  0  0  0  0  0  0
   -7.6650   21.6810  -31.8040 C   0  0  0  0  0  0  0  0  0  0  0  0
   -8.7390   20.8260  -31.8820 C   0  0  0  0  0  0  0  0  0  0  0  0
   -8.5210   19.5890  -32.4400 C   0  0  0  0  0  0  0  0  0  0  0  0
   -7.2830   19.2260  -32.9000 C   0  0  0  0  0  0  0  0  0  0  0  0
   -6.8440   18.0610  -33.4840 C   0  0  0  0  0  0  0  0  0  0  0  0
   -5.4750   18.1850  -33.7780 C   0  0  0  0  0  0  0  0  0  0  0  0
   -4.7580   17.1140  -34.3990 C   0  0  0  0  0  0  0  0  0  0  0  0
   -3.7480   17.1020  -35.3590 N   0  0  0  0  0  0  0  0  0  0  0  0
   -5.0960   15.9230  -34.0030 O   0  0  0  0  0  0  0  0  0  0  0  0
   -5.0950   19.4210  -33.3720 N   0  0  0  0  0  0  0  0  0  0  0  0
   -3.8560   20.0650  -33.4640 C   0  0  0  0  0  0  0  0  0  0  0  0
   -3.8300   21.3060  -33.7510 O   0  0  0  0  0  0  0  0  0  0  0  0
   -2.2830   19.3620  -33.2340 Cl  0  0  0  0  0  0  0  0  0  0  0  0
   -6.1960   20.0470  -32.8400 C   0  0  0  0  0  0  0  0  0  0  0  0
   -6.4040   21.3010  -32.2770 C   0  0  0  0  0  0  0  0  0  0  0  0
   -2.6814   21.1198  -28.8004 H   0  0  0  0  0  0  0  0  0  0  0  0
   -3.8598   21.0953  -30.1559 H   0  0  0  0  0  0  0  0  0  0  0  0
   -2.4671   19.9608  -30.1559 H   0  0  0  0  0  0  0  0  0  0  0  0
   -1.1247   21.5031  -31.1410 H   0  0  0  0  0  0  0  0  0  0  0  0
   -2.8950   23.6580  -31.5290 H   0  0  0  0  0  0  0  0  0  0  0  0
   -3.6760   22.1510  -31.7700 H   0  0  0  0  0  0  0  0  0  0  0  0
   -3.6464   23.6519  -28.8286 H   0  0  0  0  0  0  0  0  0  0  0  0
   -3.1702   25.3053  -28.4060 H   0  0  0  0  0  0  0  0  0  0  0  0
   -6.5136   25.5360  -28.3175 H   0  0  0  0  0  0  0  0  0  0  0  0
   -5.8299   26.4513  -29.7037 H   0  0  0  0  0  0  0  0  0  0  0  0
   -7.5644   25.9841  -29.7037 H   0  0  0  0  0  0  0  0  0  0  0  0
   -6.3039   22.3801  -29.9124 H   0  0  0  0  0  0  0  0  0  0  0  0
   -7.6575   23.3246  -29.1279 H   0  0  0  0  0  0  0  0  0  0  0  0
   -8.9250   23.1140  -30.9057 H   0  0  0  0  0  0  0  0  0  0  0  0
   -7.6086   23.7736  -31.9637 H   0  0  0  0  0  0  0  0  0  0  0  0
   -9.7325   21.1201  -31.5127 H   0  0  0  0  0  0  0  0  0  0  0  0
   -9.3561   18.8774  -32.5186 H   0  0  0  0  0  0  0  0  0  0  0  0
   -7.4638   17.1754  -33.6881 H   0  0  0  0  0  0  0  0  0  0  0  0
   -2.7680   17.3870  -35.0770 H   0  0  0  0  0  0  0  0  0  0  0  0
   -3.9720   16.7890  -36.3510 H   0  0  0  0  0  0  0  0  0  0  0  0
   -5.5632   22.0063  -32.2021 H   0  0  0  0  0  0  0  0  0  0  0  0
  1  2  1  0
  2  3  1  0
  2  4  1  0
  4  5  2  0
  4  6  1  0
  6  7  1  0
  7  8  1  0
  8  9  1  0
  9 10  2  0
  9 11  1  0
 11 12  1  0
 11 13  1  0
 13 14  1  0
 14 15  1  0
 15 16  2  0
 16 17  1  0
 17 18  2  0
 18 19  1  0
 19 20  2  0
 20 21  1  0
 21 22  1  0
 21 23  2  0
 20 24  1  0
 24 25  1  0
 25 26  2  0
 25 27  1  0
 24 28  1  0
 28 29  2  0
 29 15  1  0
 28 18  1  0
  1 30  1  0
  1 31  1  0
  1 32  1  0
  2 33  1  6
  3 34  1  0
  3 35  1  0
  7 36  1  0
  7 37  1  0
 12 38  1  0
 12 39  1  0
 12 40  1  0
 13 41  1  0
 13 42  1  0
 14 43  1  0
 14 44  1  0
 16 45  1  0
 17 46  1  0
 19 47  1  0
 22 48  1  0
 22 49  1  0
 29 50  1  0
M  END
>  <smiles>  (1) 
CC(N)C(=O)OCOC(=O)N(C)CCc1ccc2cc(C(N)=O)n(C(=O)Cl)c2c1

>  <score_type>  (1) 
oracle

>  <origin>  (1) 
adg

>  <m_score__min__energy>  (1) 
-9

>  <m_primary>  (1) 
energy

$$$$
1:0
     RDKit          3D

 47 48  0  0  0  0  0  0  0  0999 V2000
   -7.3210   17.7990  -32.7190 C   0  0  0  0  0  0  0  0  0  0  0  0
   -8.2080   18.8890  -33.0700 N   0  0  0  0  0  0  0  0  0  0  0  0
   -8.0640   20.1570  -32.4240 C   0  0  0  0  0  0  0  0  0  0  0  0
   -9.1700   20.7790  -31.8890 C   0  0  0  0  0  0  0  0  0  0  0  0
   -9.0040   21.9880  -31.2790 C   0  0  0  0  0  0  0  0  0  0  0  0
   -7.7470   22.5590  -31.2090 C   0  0  0  0  0  0  0  0  0  0  0  0
   -7.3680   23.7410  -30.6530 C   0  0  0  0  0  0  0  0  0  0  0  0
   -5.9770   23.8560  -30.8520 C   0  0  0  0  0  0  0  0  0  0  0  0
   -5.3030   25.0640  -30.4110 C   0  0  0  0  0  0  0  0  0  0  0  0
   -5.9060   25.8660  -29.3620 N   0  0  0  0  0  0  0  0  0  0  0  0
   -4.2210   25.5140  -30.8430 O   0  0  0  0  0  0  0  0  0  0  0  0
   -5.5170   22.7770  -31.5030 N   0  0  0  0  0  0  0  0  0  0  0  0
   -4.2300   22.3150  -31.7820 C   0  0  0  0  0  0  0  0  0  0  0  0
   -3.8430   22.4400  -33.0090 O   0  0  0  0  0  0  0  0  0  0  0  0
   -3.2500   21.7050  -30.9230 C   0  0  0  0  0  0  0  0  0  0  0  0
   -3.4990   20.8040  -30.0610 O   0  0  0  0  0  0  0  0  0  0  0  0
   -1.8440   22.0690  -30.9600 N   0  0  0  0  0  0  0  0  0  0  0  0
   -0.9430   21.5390  -31.9700 C   0  0  0  0  0  0  0  0  0  0  0  0
   -1.2920   22.9430  -29.9750 C   0  0  0  0  0  0  0  0  0  0  0  0
   -2.1730   23.6830  -29.1000 C   0  0  0  0  0  0  0  0  0  0  0  0
   -2.2240   24.9670  -29.3400 O   0  0  0  0  0  0  0  0  0  0  0  0
   -2.9840   23.2790  -28.0440 N   0  0  0  0  0  0  0  0  0  0  0  0
   -3.7610   24.3560  -27.3830 C   0  0  0  0  0  0  0  0  0  0  0  0
   -3.1690   21.9640  -27.5040 C   0  0  0  0  0  0  0  0  0  0  0  0
   -6.6210   21.9810  -31.7250 C   0  0  0  0  0  0  0  0  0  0  0  0
   -6.8000   20.7510  -32.3440 C   0  0  0  0  0  0  0  0  0  0  0  0
   -7.2551   17.7180  -31.6240 H   0  0  0  0  0  0  0  0  0  0  0  0
   -7.7138   16.8587  -33.1332 H   0  0  0  0  0  0  0  0  0  0  0  0
   -6.3205   17.9925  -33.1332 H   0  0  0  0  0  0  0  0  0  0  0  0
   -8.9510   18.7630  -33.7870 H   0  0  0  0  0  0  0  0  0  0  0  0
  -10.1640   20.3120  -31.9520 H   0  0  0  0  0  0  0  0  0  0  0  0
   -9.8698   22.5081  -30.8432 H   0  0  0  0  0  0  0  0  0  0  0  0
   -8.0207   24.4670  -30.1460 H   0  0  0  0  0  0  0  0  0  0  0  0
   -6.6390   26.5280  -29.6980 H   0  0  0  0  0  0  0  0  0  0  0  0
   -5.6110   25.7660  -28.3660 H   0  0  0  0  0  0  0  0  0  0  0  0
   -0.0946   21.0399  -31.4789 H   0  0  0  0  0  0  0  0  0  0  0  0
   -1.4817   20.8138  -32.5977 H   0  0  0  0  0  0  0  0  0  0  0  0
   -0.5709   22.3621  -32.5977 H   0  0  0  0  0  0  0  0  0  0  0  0
   -0.6444   22.3297  -29.3313 H   0  0  0  0  0  0  0  0  0  0  0  0
   -0.8058   23.7281  -30.5727 H   0  0  0  0  0  0  0  0  0  0  0  0
   -3.6827   24.2474  -26.2912 H   0  0  0  0  0  0  0  0  0  0  0  0
   -3.3599   25.3351  -27.6838 H   0  0  0  0  0  0  0  0  0  0  0  0
   -4.8166   24.2841  -27.6838 H   0  0  0  0  0  0  0  0  0  0  0  0
   -3.1619   22.0145  -26.4052 H   0  0  0  0  0  0  0  0  0  0  0  0
   -4.1329   21.5594  -27.8462 H   0  0  0  0  0  0  0  0  0  0  0  0
   -2.3541   21.3091  -27.8462 H   0  0  0  0  0  0  0  0  0  0  0  0
   -5.9320   20.2342  -32.7794 H   0  0  0  0  0  0  0  0  0  0  0  0
  1  2  1  0
  2  3  1  0
  3  4  2  0
  4  5  1  0
  5  6  2  0
  6  7  1  0
  7  8  2  0
  8  9  1  0
  9 10  1  0
  9 11  2  0
  8 12  1  0
 12 13  1  0
 13 14  2  0
 13 15  1  0
 15 16  2  0
 15 17  1  0
 17 18  1  0
 17 19  1  0
 19 20  1  0
 20 21  2  0
 20 22  1  0
 22 23  1  0
 22 24  1  0
 12 25  1  0
 25 26  2  0
 26  3  1  0
 25  6  1  0
  1 27  1  0
  1 28  1  0
  1 29  1  0
  2 30  1  0
  4 31  1  0
  5 32  1  0
  7 33  1  0
 10 34  1  0
 10 35  1  0
 18 36  1  0
 18 37  1  0
 18 38  1  0
 19 39  1  0
 19 40  1  0
 23 41  1  0
 23 42  1  0
 23 43  1  0
 24 44  1  0
 24 45  1  0
 24 46  1  0
 26 47  1  0
M  END
>  <smiles>  (2) 
CNc1ccc2cc(C(N)=O)n(C(=O)C(=O)N(C)CC(=O)N(C)C)c2c1

>  <score_type>  (2) 
oracle

>  <origin>  (2) 
adg

>  <m_score__min__energy>  (2) 
-8.9700000000000006

>  <m_primary>  (2) 
energy

$$$$
2:0
     RDKit          3D

 34 35  0  0  0  0  0  0  0  0999 V2000
   -6.1130   26.0930  -29.2170 N   0  0  0  0  0  0  0  0  0  0  0  0
   -5.3980   25.2700  -30.1010 C   0  0  0  0  0  0  0  0  0  0  0  0
   -4.2580   25.7880  -30.4510 O   0  0  0  0  0  0  0  0  0  0  0  0
   -5.7120   23.9890  -30.6610 C   0  0  0  0  0  0  0  0  0  0  0  0
   -7.0520   23.6720  -30.9840 C   0  0  0  0  0  0  0  0  0  0  0  0
   -7.0980   22.4120  -31.4940 C   0  0  0  0  0  0  0  0  0  0  0  0
   -8.1740   21.6860  -31.9590 C   0  0  0  0  0  0  0  0  0  0  0  0
   -7.9910   20.4250  -32.4590 C   0  0  0  0  0  0  0  0  0  0  0  0
   -6.7130   19.9220  -32.4770 C   0  0  0  0  0  0  0  0  0  0  0  0
   -6.4840   18.5490  -33.0180 C   0  0  0  0  0  0  0  0  0  0  0  0
   -5.5030   17.9500  -32.2570 F   0  0  0  0  0  0  0  0  0  0  0  0
   -7.6560   17.8200  -32.9130 F   0  0  0  0  0  0  0  0  0  0  0  0
   -6.0980   18.6860  -34.3380 F   0  0  0  0  0  0  0  0  0  0  0  0
   -5.6350   20.6740  -31.9990 C   0  0  0  0  0  0  0  0  0  0  0  0
   -5.8030   21.9470  -31.4890 C   0  0  0  0  0  0  0  0  0  0  0  0
   -4.9560   22.8950  -30.9860 N   0  0  0  0  0  0  0  0  0  0  0  0
   -3.5750   22.7880  -30.7350 C   0  0  0  0  0  0  0  0  0  0  0  0
   -2.9250   21.9200  -31.3860 O   0  0  0  0  0  0  0  0  0  0  0  0
   -2.7830   23.5340  -29.8400 N   0  0  0  0  0  0  0  0  0  0  0  0
   -1.3530   23.3120  -29.6500 C   0  0  0  0  0  0  0  0  0  0  0  0
   -0.7860   24.5270  -28.9740 C   0  0  0  0  0  0  0  0  0  0  0  0
   -1.7570   25.5320  -28.9850 O   0  0  0  0  0  0  0  0  0  0  0  0
   -5.9160   26.1270  -28.1720 H   0  0  0  0  0  0  0  0  0  0  0  0
   -6.8720   26.7080  -29.6420 H   0  0  0  0  0  0  0  0  0  0  0  0
   -7.9171   24.3370  -30.8452 H   0  0  0  0  0  0  0  0  0  0  0  0
   -9.1835   22.1219  -31.9280 H   0  0  0  0  0  0  0  0  0  0  0  0
   -8.8395   19.8339  -32.8341 H   0  0  0  0  0  0  0  0  0  0  0  0
   -4.6249   20.2397  -32.0300 H   0  0  0  0  0  0  0  0  0  0  0  0
   -3.1870   24.3020  -29.2990 H   0  0  0  0  0  0  0  0  0  0  0  0
   -1.1925   22.4243  -29.0205 H   0  0  0  0  0  0  0  0  0  0  0  0
   -0.8581   23.1446  -30.6180 H   0  0  0  0  0  0  0  0  0  0  0  0
   -0.5162   24.2826  -27.9360 H   0  0  0  0  0  0  0  0  0  0  0  0
    0.1160   24.8675  -29.5035 H   0  0  0  0  0  0  0  0  0  0  0  0
   -2.0510   25.6740  -29.9290 H   0  0  0  0  0  0  0  0  0  0  0  0
  1  2  1  0
  2  3  2  0
  2  4  1  0
  4  5  2  0
  5  6  1  0
  6  7  2  0
  7  8  1  0
  8  9  2  0
  9 10  1  0
 10 11  1  0
 10 12  1  0
 10 13  1  0
  9 14  1  0
 14 15  2  0
 15 16  1  0
 16 17  1  0
 17 18  2  0
 17 19  1  0
 19 20  1  0
 20 21  1  0
 21 22  1  0
 16  4  1  0
 15  6  1  0
  1 23  1  0
  1 24  1  0
  5 25  1  0
  7 26  1  0
  8 27  1  0
 14 28  1  0
 19 29  1  0
 20 30  1  0
 20 31  1  0
 21 32  1  0
 21 33  1  0
 22 34  1  0
M  END
>  <smiles>  (3) 
NC(=O)c1cc2ccc(C(F)(F)F)cc2n1C(=O)NCCO

>  <score_type>  (3) 
oracle

>  <origin>  (3) 
adg

>  <m_score__min__energy>  (3) 
-8.2899999999999991

>  <m_primary>  (3) 
energy

$$$$
3:0
     RDKit          3D

 48 49  0  0  1  0  0  0  0  0999 V2000
   -8.0190   18.5900  -32.6500 C   0  0  0  0  0  0  0  0  0  0  0  0
   -7.9500   20.0210  -32.2010 C   0  0  0  0  0  0  0  0  0  0  0  0
   -9.1210   20.7380  -32.0990 C   0  0  0  0  0  0  0  0  0  0  0  0
   -9.0280   22.0440  -31.6870 C   0  0  0  0  0  0  0  0  0  0  0  0
   -7.7970   22.6040  -31.3890 C   0  0  0  0  0  0  0  0  0  0  0  0
   -7.4900   23.8510  -30.9740 C   0  0  0  0  0  0  0  0  0  0  0  0
   -6.0930   23.9210  -30.8120 C   0  0  0  0  0  0  0  0  0  0  0  0
   -5.4730   25.1610  -30.4060 C   0  0  0  0  0  0  0  0  0  0  0  0
   -6.1070   25.9310  -29.3640 N   0  0  0  0  0  0  0  0  0  0  0  0
   -4.4290   25.6690  -30.8520 O   0  0  0  0  0  0  0  0  0  0  0  0
   -5.5630   22.7240  -31.1220 N   0  0  0  0  0  0  0  0  0  0  0  0
   -4.2760   22.1960  -31.0100 C   0  0  0  0  0  0  0  0  0  0  0  0
   -4.1080   20.9200  -31.0150 O   0  0  0  0  0  0  0  0  0  0  0  0
   -3.0330   22.8970  -30.8720 N   0  0  0  0  0  0  0  0  0  0  0  0
   -1.8670   22.0710  -30.7960 C   0  0  0  0  0  0  0  0  0  0  0  0
   -1.4390   21.7220  -29.4690 C   0  0  0  0  0  0  0  0  0  0  0  0
   -0.1310   21.4760  -29.4250 O   0  0  0  0  0  0  0  0  0  0  0  0
   -2.0610   21.5830  -28.2320 N   0  0  0  0  0  0  0  0  0  0  0  0
   -1.6180   20.8500  -27.0670 C   0  0  0  0  0  0  0  0  0  0  0  0
   -3.3340   22.3070  -28.0350 C   0  0  0  0  0  0  0  0  0  0  0  0
   -3.1730   23.6900  -27.5130 C   0  0  2  0  0  0  0  0  0  0  0  0
   -4.4050   24.3690  -27.7310 O   0  0  0  0  0  0  0  0  0  0  0  0
   -2.1080   24.5020  -28.1780 C   0  0  0  0  0  0  0  0  0  0  0  0
   -2.5560   25.3020  -29.2170 O   0  0  0  0  0  0  0  0  0  0  0  0
   -6.6180   21.9110  -31.4830 C   0  0  0  0  0  0  0  0  0  0  0  0
   -6.7090   20.5970  -31.8970 C   0  0  0  0  0  0  0  0  0  0  0  0
   -8.0508   17.9307  -31.7700 H   0  0  0  0  0  0  0  0  0  0  0  0
   -8.9255   18.4387  -33.2545 H   0  0  0  0  0  0  0  0  0  0  0  0
   -7.1313   18.3522  -33.2545 H   0  0  0  0  0  0  0  0  0  0  0  0
  -10.0930   20.2820  -32.3383 H   0  0  0  0  0  0  0  0  0  0  0  0
   -9.9401   22.6517  -31.5926 H   0  0  0  0  0  0  0  0  0  0  0  0
   -8.2044   24.6678  -30.7942 H   0  0  0  0  0  0  0  0  0  0  0  0
   -5.7930   25.9020  -28.3780 H   0  0  0  0  0  0  0  0  0  0  0  0
   -6.9160   26.5230  -29.7040 H   0  0  0  0  0  0  0  0  0  0  0  0
   -3.0490   23.8870  -30.7990 H   0  0  0  0  0  0  0  0  0  0  0  0
   -2.0768   21.1384  -31.3403 H   0  0  0  0  0  0  0  0  0  0  0  0
   -1.0488   22.6645  -31.2299 H   0  0  0  0  0  0  0  0  0  0  0  0
   -1.9379   21.3793  -26.1573 H   0  0  0  0  0  0  0  0  0  0  0  0
   -2.0582   19.8420  -27.0787 H   0  0  0  0  0  0  0  0  0  0  0  0
   -0.5209   20.7711  -27.0787 H   0  0  0  0  0  0  0  0  0  0  0  0
   -3.8533   22.3618  -29.0031 H   0  0  0  0  0  0  0  0  0  0  0  0
   -3.9027   21.7471  -27.2780 H   0  0  0  0  0  0  0  0  0  0  0  0
   -2.8820   23.5899  -26.4569 H   0  0  0  0  0  0  0  0  0  0  0  0
   -4.2070   25.3430  -27.8250 H   0  0  0  0  0  0  0  0  0  0  0  0
   -1.6477   25.1515  -27.4189 H   0  0  0  0  0  0  0  0  0  0  0  0
   -1.4001   23.7853  -28.6197 H   0  0  0  0  0  0  0  0  0  0  0  0
   -3.5300   25.4020  -29.2360 H   0  0  0  0  0  0  0  0  0  0  0  0
   -5.7941   19.9934  -31.9896 H   0  0  0  0  0  0  0  0  0  0  0  0
  1  2  1  0
  2  3  2  0
  3  4  1  0
  4  5  2  0
  5  6  1  0
  6  7  2  0
  7  8  1  0
  8  9  1  0
  8 10  2  0
  7 11  1  0
 11 12  1  0
 12 13  2  0
 12 14  1  0
 14 15  1  0
 15 16  1  0
 16 17  2  0
 16 18  1  0
 18 19  1  0
 18 20  1  0
 20 21  1  0
 21 22  1  0
 21 23  1  0
 23 24  1  0
 11 25  1  0
 25 26  2  0
 26  2  1  0
 25  5  1  0
  1 27  1  0
  1 28  1  0
  1 29  1  0
  3 30  1  0
  4 31  1  0
  6 32  1  0
  9 33  1  0
  9 34  1  0
 14 35  1  0
 15 36  1  0
 15 37  1  0
 19 38  1  0
 19 39  1  0
 19 40  1  0
 20 41  1  0
 20 42  1  0
 21 43  1  1
 22 44  1  0
 23 45  1  0
 23 46  1  0
 24 47  1  0
 26 48  1  0
M  END
>  <smiles>  (4) 
Cc1ccc2cc(C(N)=O)n(C(=O)NCC(=O)N(C)CC(O)CO)c2c1

>  <score_type>  (4) 
oracle

>  <origin>  (4) 
adg

>  <m_score__min__energy>  (4) 
-8.4600000000000009

>  <m_primary>  (4) 
energy

$$$$
4:0
     RDKit          3D

 38 40  0  0  0  0  0  0  0  0999 V2000
   -6.1280   25.7750  -29.2540 N   0  0  0  0  0  0  0  0  0  0  0  0
   -5.5310   25.0470  -30.3730 C   0  0  0  0  0  0  0  0  0  0  0  0
   -4.5590   25.6430  -30.8550 O   0  0  0  0  0  0  0  0  0  0  0  0
   -6.1230   23.7910  -30.7500 C   0  0  0  0  0  0  0  0  0  0  0  0
   -7.4610   23.7380  -31.1900 C   0  0  0  0  0  0  0  0  0  0  0  0
   -7.7520   22.4440  -31.4890 C   0  0  0  0  0  0  0  0  0  0  0  0
   -8.9190   21.8890  -31.9540 C   0  0  0  0  0  0  0  0  0  0  0  0
   -9.0080   20.5440  -32.1970 C   0  0  0  0  0  0  0  0  0  0  0  0
   -7.9030   19.7770  -31.9630 C   0  0  0  0  0  0  0  0  0  0  0  0
   -7.9850   18.3190  -32.2230 C   0  0  0  0  0  0  0  0  0  0  0  0
   -7.5350   17.9940  -33.4790 F   0  0  0  0  0  0  0  0  0  0  0  0
   -9.2340   17.7990  -31.9980 F   0  0  0  0  0  0  0  0  0  0  0  0
   -7.1190   17.6930  -31.3210 F   0  0  0  0  0  0  0  0  0  0  0  0
   -6.7250   20.3540  -31.4930 C   0  0  0  0  0  0  0  0  0  0  0  0
   -6.6190   21.7160  -31.2410 C   0  0  0  0  0  0  0  0  0  0  0  0
   -5.6100   22.5350  -30.7860 N   0  0  0  0  0  0  0  0  0  0  0  0
   -4.3490   22.0420  -30.4750 C   0  0  0  0  0  0  0  0  0  0  0  0
   -3.5750   22.8960  -29.8560 O   0  0  0  0  0  0  0  0  0  0  0  0
   -3.6880   20.7690  -30.6860 C   0  0  0  0  0  0  0  0  0  0  0  0
   -2.7720   20.9100  -31.8130 N   0  0  0  0  0  0  0  0  0  0  0  0
   -1.4360   20.9250  -31.8520 C   0  0  0  0  0  0  0  0  0  0  0  0
   -0.9960   21.0930  -33.1730 C   0  0  0  0  0  0  0  0  0  0  0  0
    0.3930   21.1580  -33.6110 C   0  0  0  0  0  0  0  0  0  0  0  0
    0.7280   21.9210  -34.5510 O   0  0  0  0  0  0  0  0  0  0  0  0
    1.3550   20.3870  -33.0040 O   0  0  0  0  0  0  0  0  0  0  0  0
   -2.1240   21.1750  -33.8940 N   0  0  0  0  0  0  0  0  0  0  0  0
   -3.1520   21.0670  -33.0920 N   0  0  0  0  0  0  0  0  0  0  0  0
   -6.3750   25.2530  -28.3680 H   0  0  0  0  0  0  0  0  0  0  0  0
   -6.3040   26.8150  -29.3500 H   0  0  0  0  0  0  0  0  0  0  0  0
   -8.1483   24.5925  -31.2762 H   0  0  0  0  0  0  0  0  0  0  0  0
   -9.7929   22.5325  -32.1335 H   0  0  0  0  0  0  0  0  0  0  0  0
   -9.9410   20.0956  -32.5692 H   0  0  0  0  0  0  0  0  0  0  0  0
   -5.8508   19.7103  -31.3158 H   0  0  0  0  0  0  0  0  0  0  0  0
   -3.1264   20.4873  -29.7831 H   0  0  0  0  0  0  0  0  0  0  0  0
   -4.4314   19.9862  -30.8973 H   0  0  0  0  0  0  0  0  0  0  0  0
   -0.7782   20.8209  -30.9765 H   0  0  0  0  0  0  0  0  0  0  0  0
    2.1950   20.0490  -33.4990 H   0  0  0  0  0  0  0  0  0  0  0  0
   -2.1710   21.3030  -34.9160 H   0  0  0  0  0  0  0  0  0  0  0  0
  1  2  1  0
  2  3  2  0
  2  4  1  0
  4  5  2  0
  5  6  1  0
  6  7  2  0
  7  8  1  0
  8  9  2  0
  9 10  1  0
 10 11  1  0
 10 12  1  0
 10 13  1  0
  9 14  1  0
 14 15  2  0
 15 16  1  0
 16 17  1  0
 17 18  2  0
 17 19  1  0
 19 20  1  0
 20 21  1  0
 21 22  2  0
 22 23  1  0
 23 24  2  0
 23 25  1  0
 22 26  1  0
 26 27  1  0
 16  4  1  0
 27 20  2  0
 15  6  1  0
  1 28  1  0
  1 29  1  0
  5 30  1  0
  7 31  1  0
  8 32  1  0
 14 33  1  0
 19 34  1  0
 19 35  1  0
 21 36  1  0
 25 37  1  0
 26 38  1  0
M  CHG  1  20   1
M  END
>  <smiles>  (5) 
NC(=O)c1cc2ccc(C(F)(F)F)cc2n1C(=O)C[n+]1cc(C(=O)O)[nH]n1

>  <score_type>  (5) 
oracle

>  <origin>  (5) 
adg

>  <m_score__min__energy>  (5) 
-8.7400000000000002

>  <m_primary>  (5) 
energy

$$$$
5:0
     RDKit          3D

 43 44  0  0  0  0  0  0  0  0999 V2000
   -0.5830   26.6490  -26.7810 C   0  0  0  0  0  0  0  0  0  0  0  0
   -1.2510   25.3590  -26.7870 N   0  0  0  0  0  0  0  0  0  0  0  0
   -1.1850   24.5780  -25.5730 C   0  0  0  0  0  0  0  0  0  0  0  0
   -1.9450   24.9020  -27.9650 C   0  0  0  0  0  0  0  0  0  0  0  0
   -1.9370   25.6520  -28.9420 O   0  0  0  0  0  0  0  0  0  0  0  0
   -2.5930   23.5740  -27.8640 C   0  0  0  0  0  0  0  0  0  0  0  0
   -3.5500   23.4180  -28.9190 N   0  0  0  0  0  0  0  0  0  0  0  0
   -3.2030   22.3240  -29.8180 C   0  0  0  0  0  0  0  0  0  0  0  0
   -4.0230   22.3290  -31.0340 C   0  0  0  0  0  0  0  0  0  0  0  0
   -3.3800   22.0380  -32.1030 O   0  0  0  0  0  0  0  0  0  0  0  0
   -5.3990   22.6100  -31.1500 N   0  0  0  0  0  0  0  0  0  0  0  0
   -5.9770   23.8040  -30.8810 C   0  0  0  0  0  0  0  0  0  0  0  0
   -5.4510   25.0630  -30.4250 C   0  0  0  0  0  0  0  0  0  0  0  0
   -6.1200   25.7630  -29.3370 N   0  0  0  0  0  0  0  0  0  0  0  0
   -4.4520   25.6720  -30.8530 O   0  0  0  0  0  0  0  0  0  0  0  0
   -7.3540   23.6440  -31.1330 C   0  0  0  0  0  0  0  0  0  0  0  0
   -7.6000   22.3670  -31.5490 C   0  0  0  0  0  0  0  0  0  0  0  0
   -8.7710   21.7370  -31.9120 C   0  0  0  0  0  0  0  0  0  0  0  0
   -8.7660   20.4320  -32.3010 C   0  0  0  0  0  0  0  0  0  0  0  0
   -7.5630   19.7660  -32.3210 C   0  0  0  0  0  0  0  0  0  0  0  0
   -7.5100   18.3370  -32.7410 C   0  0  0  0  0  0  0  0  0  0  0  0
   -6.6060   18.2360  -33.7870 F   0  0  0  0  0  0  0  0  0  0  0  0
   -6.9520   17.6300  -31.6780 F   0  0  0  0  0  0  0  0  0  0  0  0
   -6.3880   20.4150  -31.9520 C   0  0  0  0  0  0  0  0  0  0  0  0
   -6.3660   21.7360  -31.5540 C   0  0  0  0  0  0  0  0  0  0  0  0
   -0.4164   26.9708  -25.7424 H   0  0  0  0  0  0  0  0  0  0  0  0
    0.3841   26.5635  -27.2980 H   0  0  0  0  0  0  0  0  0  0  0  0
   -1.2110   27.3895  -27.2980 H   0  0  0  0  0  0  0  0  0  0  0  0
   -1.2416   25.2480  -24.7024 H   0  0  0  0  0  0  0  0  0  0  0  0
   -2.0265   23.8701  -25.5462 H   0  0  0  0  0  0  0  0  0  0  0  0
   -0.2366   24.0214  -25.5462 H   0  0  0  0  0  0  0  0  0  0  0  0
   -1.8282   22.7876  -27.9458 H   0  0  0  0  0  0  0  0  0  0  0  0
   -3.1060   23.4936  -26.8943 H   0  0  0  0  0  0  0  0  0  0  0  0
   -3.5660   24.2820  -29.5070 H   0  0  0  0  0  0  0  0  0  0  0  0
   -2.1450   22.4209  -30.1031 H   0  0  0  0  0  0  0  0  0  0  0  0
   -3.3881   21.3780  -29.2881 H   0  0  0  0  0  0  0  0  0  0  0  0
   -6.1410   26.7900  -29.2760 H   0  0  0  0  0  0  0  0  0  0  0  0
   -6.6070   25.2010  -28.5770 H   0  0  0  0  0  0  0  0  0  0  0  0
   -8.1153   24.4288  -31.0128 H   0  0  0  0  0  0  0  0  0  0  0  0
   -9.7192   22.2941  -31.8872 H   0  0  0  0  0  0  0  0  0  0  0  0
   -9.6980   19.9248  -32.5911 H   0  0  0  0  0  0  0  0  0  0  0  0
   -8.5059   17.9664  -33.0251 H   0  0  0  0  0  0  0  0  0  0  0  0
   -5.4422   19.8540  -31.9787 H   0  0  0  0  0  0  0  0  0  0  0  0
  1  2  1  0
  2  3  1  0
  2  4  1  0
  4  5  2  0
  4  6  1  0
  6  7  1  0
  7  8  1  0
  8  9  1  0
  9 10  2  0
  9 11  1  0
 11 12  1  0
 12 13  1  0
 13 14  1  0
 13 15  2  0
 12 16  2  0
 16 17  1  0
 17 18  2  0
 18 19  1  0
 19 20  2  0
 20 21  1  0
 21 22  1  0
 21 23  1  0
 20 24  1  0
 24 25  2  0
 25 11  1  0
 25 17  1  0
  1 26  1  0
  1 27  1  0
  1 28  1  0
  3 29  1  0
  3 30  1  0
  3 31  1  0
  6 32  1  0
  6 33  1  0
  7 34  1  0
  8 35  1  0
  8 36  1  0
 14 37  1  0
 14 38  1  0
 16 39  1  0
 18 40  1  0
 19 41  1  0
 21 42  1  0
 24 43  1  0
M  END
>  <smiles>  (6) 
CN(C)C(=O)CNCC(=O)n1c(C(N)=O)cc2ccc(C(F)F)cc21

>  <score_type>  (6) 
oracle

>  <origin>  (6) 
adg

>  <m_score__min__energy>  (6) 
-8.7100000000000009

>  <m_primary>  (6) 
energy

$$$$
6:0
     RDKit          3D

 46 48  0  0  1  0  0  0  0  0999 V2000
   -1.4920   21.0800  -27.8200 C   0  0  0  0  0  0  0  0  0  0  0  0
   -1.5580   22.3770  -28.5090 N   0  0  0  0  0  0  0  0  0  0  0  0
   -2.1660   22.4310  -29.7900 C   0  0  0  0  0  0  0  0  0  0  0  0
   -1.5760   22.9900  -30.7610 O   0  0  0  0  0  0  0  0  0  0  0  0
   -3.4140   21.8770  -30.0180 O   0  0  0  0  0  0  0  0  0  0  0  0
   -4.0790   22.0260  -31.2430 C   0  0  0  0  0  0  0  0  0  0  0  0
   -3.3930   21.7390  -32.2530 O   0  0  0  0  0  0  0  0  0  0  0  0
   -5.4240   22.4710  -31.2710 N   0  0  0  0  0  0  0  0  0  0  0  0
   -5.8680   23.7240  -31.0870 C   0  0  0  0  0  0  0  0  0  0  0  0
   -5.1580   24.9560  -30.8150 C   0  0  0  0  0  0  0  0  0  0  0  0
   -3.7470   24.9080  -30.5340 N   0  0  0  0  0  0  0  0  0  0  0  0
   -5.6590   26.1020  -30.7970 O   0  0  0  0  0  0  0  0  0  0  0  0
   -7.2600   23.6790  -31.2060 C   0  0  0  0  0  0  0  0  0  0  0  0
   -7.6490   22.3910  -31.4620 C   0  0  0  0  0  0  0  0  0  0  0  0
   -8.8950   21.8400  -31.6570 C   0  0  0  0  0  0  0  0  0  0  0  0
   -9.0210   20.4960  -31.9030 C   0  0  0  0  0  0  0  0  0  0  0  0
   -7.8800   19.7250  -31.9470 C   0  0  0  0  0  0  0  0  0  0  0  0
   -8.0280   18.2630  -32.2150 C   0  0  0  0  0  0  0  0  0  0  0  0
   -7.5830   17.9030  -33.4570 F   0  0  0  0  0  0  0  0  0  0  0  0
   -9.3330   17.9430  -31.9720 F   0  0  0  0  0  0  0  0  0  0  0  0
   -7.2170   17.6270  -31.2770 F   0  0  0  0  0  0  0  0  0  0  0  0
   -6.6300   20.2980  -31.7470 C   0  0  0  0  0  0  0  0  0  0  0  0
   -6.4770   21.6570  -31.4970 C   0  0  0  0  0  0  0  0  0  0  0  0
   -1.0160   23.5440  -27.8830 C   0  0  2  0  0  0  0  0  0  0  0  0
   -0.8800   23.4430  -26.3830 C   0  0  0  0  0  0  0  0  0  0  0  0
   -0.8370   24.7900  -25.8870 N   0  0  0  0  0  0  0  0  0  0  0  0
   -1.2840   25.6640  -26.9260 C   0  0  0  0  0  0  0  0  0  0  0  0
   -1.8240   24.7930  -28.0510 C   0  0  1  0  0  0  0  0  0  0  0  0
   -1.6320   25.3940  -29.2910 O   0  0  0  0  0  0  0  0  0  0  0  0
   -1.5002   21.2419  -26.7320 H   0  0  0  0  0  0  0  0  0  0  0  0
   -2.3602   20.4682  -28.1062 H   0  0  0  0  0  0  0  0  0  0  0  0
   -0.5662   20.5594  -28.1062 H   0  0  0  0  0  0  0  0  0  0  0  0
   -3.1020   25.6700  -30.8130 H   0  0  0  0  0  0  0  0  0  0  0  0
   -3.3180   24.0840  -30.0280 H   0  0  0  0  0  0  0  0  0  0  0  0
   -7.9359   24.5414  -31.1093 H   0  0  0  0  0  0  0  0  0  0  0  0
   -9.7905   22.4775  -31.6156 H   0  0  0  0  0  0  0  0  0  0  0  0
  -10.0112   20.0440  -32.0616 H   0  0  0  0  0  0  0  0  0  0  0  0
   -5.7362   19.6582  -31.7876 H   0  0  0  0  0  0  0  0  0  0  0  0
   -0.0477   23.6003  -28.4019 H   0  0  0  0  0  0  0  0  0  0  0  0
   -1.7426   22.9087  -25.9581 H   0  0  0  0  0  0  0  0  0  0  0  0
    0.0259   22.8859  -26.1018 H   0  0  0  0  0  0  0  0  0  0  0  0
   -1.4450   24.9330  -25.0490 H   0  0  0  0  0  0  0  0  0  0  0  0
   -2.0782   26.3238  -26.5468 H   0  0  0  0  0  0  0  0  0  0  0  0
   -0.4579   26.2953  -27.2853 H   0  0  0  0  0  0  0  0  0  0  0  0
   -2.9086   24.6144  -28.0092 H   0  0  0  0  0  0  0  0  0  0  0  0
   -0.9970   24.8250  -29.8060 H   0  0  0  0  0  0  0  0  0  0  0  0
  1  2  1  0
  2  3  1  0
  3  4  2  0
  3  5  1  0
  5  6  1  0
  6  7  2  0
  6  8  1  0
  8  9  1  0
  9 10  1  0
 10 11  1  0
 10 12  2  0
  9 13  2  0
 13 14  1  0
 14 15  2  0
 15 16  1  0
 16 17  2  0
 17 18  1  0
 18 19  1  0
 18 20  1  0
 18 21  1  0
 17 22  1  0
 22 23  2  0
  2 24  1  0
 24 25  1  0
 25 26  1  0
 26 27  1  0
 27 28  1  0
 28 29  1  0
 23  8  1  0
 28 24  1  0
 23 14  1  0
  1 30  1  0
  1 31  1  0
  1 32  1  0
 11 33  1  0
 11 34  1  0
 13 35  1  0
 15 36  1  0
 16 37  1  0
 22 38  1  0
 24 39  1  6
 25 40  1  0
 25 41  1  0
 26 42  1  0
 27 43  1  0
 27 44  1  0
 28 45  1  1
 29 46  1  0
M  END
>  <smiles>  (7) 
CN(C(=O)OC(=O)n1c(C(N)=O)cc2ccc(C(F)(F)F)cc21)[C@@H]1CNCC1O

>  <score_type>  (7) 
oracle

>  <origin>  (7) 
adg

>  <m_score__min__energy>  (7) 
-9.1699999999999999

>  <m_primary>  (7) 
energy

$$$$
7:0
     RDKit          3D

 32 33  0  0  0  0  0  0  0  0999 V2000
   -6.4020   17.2130  -33.9530 C   0  0  0  0  0  0  0  0  0  0  0  0
   -6.7920   18.2450  -33.4540 C   0  0  0  0  0  0  0  0  0  0  0  0
   -7.2590   19.4890  -32.8830 C   0  0  0  0  0  0  0  0  0  0  0  0
   -8.6000   19.7890  -32.8400 C   0  0  0  0  0  0  0  0  0  0  0  0
   -9.0140   20.9640  -32.2970 C   0  0  0  0  0  0  0  0  0  0  0  0
   -8.0890   21.8440  -31.7960 C   0  0  0  0  0  0  0  0  0  0  0  0
   -8.2330   23.0690  -31.2100 C   0  0  0  0  0  0  0  0  0  0  0  0
   -6.9660   23.5740  -30.8640 C   0  0  0  0  0  0  0  0  0  0  0  0
   -6.8370   24.8650  -30.2250 C   0  0  0  0  0  0  0  0  0  0  0  0
   -5.7360   25.7450  -30.5820 N   0  0  0  0  0  0  0  0  0  0  0  0
   -7.5940   25.3490  -29.3540 O   0  0  0  0  0  0  0  0  0  0  0  0
   -6.0670   22.6550  -31.2440 N   0  0  0  0  0  0  0  0  0  0  0  0
   -4.6700   22.7730  -31.0810 C   0  0  0  0  0  0  0  0  0  0  0  0
   -3.8920   23.0540  -32.0570 O   0  0  0  0  0  0  0  0  0  0  0  0
   -3.9270   22.5930  -29.7970 C   0  0  0  0  0  0  0  0  0  0  0  0
   -3.5840   24.2910  -29.1570 P   0  0  0  0  0  0  0  0  0  0  0  0
   -2.2840   24.1980  -28.4240 O   0  0  0  0  0  0  0  0  0  0  0  0
   -3.4860   25.3010  -30.5110 O   0  0  0  0  0  0  0  0  0  0  0  0
   -4.8670   24.8080  -28.2100 O   0  0  0  0  0  0  0  0  0  0  0  0
   -6.7190   21.6020  -31.8090 C   0  0  0  0  0  0  0  0  0  0  0  0
   -6.3420   20.4010  -32.3660 C   0  0  0  0  0  0  0  0  0  0  0  0
   -6.0477   16.2755  -34.4063 H   0  0  0  0  0  0  0  0  0  0  0  0
   -9.3366   19.0792  -33.2444 H   0  0  0  0  0  0  0  0  0  0  0  0
  -10.0859   21.2081  -32.2595 H   0  0  0  0  0  0  0  0  0  0  0  0
   -9.1906   23.5814  -31.0355 H   0  0  0  0  0  0  0  0  0  0  0  0
   -5.2720   26.3460  -29.8690 H   0  0  0  0  0  0  0  0  0  0  0  0
   -5.3990   25.7740  -31.5900 H   0  0  0  0  0  0  0  0  0  0  0  0
   -4.5403   22.0310  -29.0772 H   0  0  0  0  0  0  0  0  0  0  0  0
   -2.9964   22.0265  -29.9487 H   0  0  0  0  0  0  0  0  0  0  0  0
   -3.4420   24.7030  -31.3010 H   0  0  0  0  0  0  0  0  0  0  0  0
   -5.7040   24.3860  -28.5380 H   0  0  0  0  0  0  0  0  0  0  0  0
   -5.2715   20.1510  -32.4044 H   0  0  0  0  0  0  0  0  0  0  0  0
  1  2  3  0
  2  3  1  0
  3  4  2  0
  4  5  1  0
  5  6  2  0
  6  7  1  0
  7  8  2  0
  8  9  1  0
  9 10  1  0
  9 11  2  0
  8 12  1  0
 12 13  1  0
 13 14  2  0
 13 15  1  0
 15 16  1  0
 16 17  2  0
 16 18  1  0
 16 19  1  0
 12 20  1  0
 20 21  2  0
 21  3  1  0
 20  6  1  0
  1 22  1  0
  4 23  1  0
  5 24  1  0
  7 25  1  0
 10 26  1  0
 10 27  1  0
 15 28  1  0
 15 29  1  0
 18 30  1  0
 19 31  1  0
 21 32  1  0
M  END
>  <smiles>  (8) 
C#Cc1ccc2cc(C(N)=O)n(C(=O)CP(=O)(O)O)c2c1

>  <score_type>  (8) 
oracle

>  <origin>  (8) 
adg

>  <m_score__min__energy>  (8) 
-8.9900000000000002

>  <m_primary>  (8) 
energy

$$$$
8:0
     RDKit          3D

 38 39  0  0  0  0  0  0  0  0999 V2000
   -6.4090   17.1680  -31.7050 C   0  0  0  0  0  0  0  0  0  0  0  0
   -5.9550   17.2080  -33.1450 C   0  0  0  0  0  0  0  0  0  0  0  0
   -6.4910   18.3540  -33.8580 N   0  0  0  0  0  0  0  0  0  0  0  0
   -6.9800   19.4740  -33.1370 C   0  0  0  0  0  0  0  0  0  0  0  0
   -8.3210   19.6330  -32.9620 C   0  0  0  0  0  0  0  0  0  0  0  0
   -8.7510   20.7270  -32.2450 C   0  0  0  0  0  0  0  0  0  0  0  0
   -7.8430   21.6240  -31.7300 C   0  0  0  0  0  0  0  0  0  0  0  0
   -8.0570   22.7510  -31.0000 C   0  0  0  0  0  0  0  0  0  0  0  0
   -6.7930   23.3040  -30.7200 C   0  0  0  0  0  0  0  0  0  0  0  0
   -6.7050   24.5140  -29.9270 C   0  0  0  0  0  0  0  0  0  0  0  0
   -5.6350   24.6600  -28.9470 N   0  0  0  0  0  0  0  0  0  0  0  0
   -7.4580   25.5050  -29.9730 O   0  0  0  0  0  0  0  0  0  0  0  0
   -5.8310   22.5310  -31.2630 N   0  0  0  0  0  0  0  0  0  0  0  0
   -4.4350   22.6060  -31.2100 C   0  0  0  0  0  0  0  0  0  0  0  0
   -3.8460   22.8300  -32.3450 O   0  0  0  0  0  0  0  0  0  0  0  0
   -3.5050   22.4740  -30.0990 C   0  0  0  0  0  0  0  0  0  0  0  0
   -2.8560   24.0390  -29.4670 P   0  0  0  0  0  0  0  0  0  0  0  0
   -1.3480   24.0810  -29.4160 O   0  0  0  0  0  0  0  0  0  0  0  0
   -3.4430   24.2620  -27.9100 O   0  0  0  0  0  0  0  0  0  0  0  0
   -3.4620   25.2960  -30.4390 O   0  0  0  0  0  0  0  0  0  0  0  0
   -6.4870   21.5020  -31.8830 C   0  0  0  0  0  0  0  0  0  0  0  0
   -6.0680   20.3900  -32.6090 C   0  0  0  0  0  0  0  0  0  0  0  0
   -5.5343   17.2451  -31.0425 H   0  0  0  0  0  0  0  0  0  0  0  0
   -7.0905   18.0096  -31.5119 H   0  0  0  0  0  0  0  0  0  0  0  0
   -6.9329   16.2202  -31.5119 H   0  0  0  0  0  0  0  0  0  0  0  0
   -4.8564   17.2583  -33.1687 H   0  0  0  0  0  0  0  0  0  0  0  0
   -6.3252   16.2986  -33.6410 H   0  0  0  0  0  0  0  0  0  0  0  0
   -6.4970   18.3110  -34.9110 H   0  0  0  0  0  0  0  0  0  0  0  0
   -9.0377   18.9107  -33.3800 H   0  0  0  0  0  0  0  0  0  0  0  0
   -9.8274   20.8851  -32.0827 H   0  0  0  0  0  0  0  0  0  0  0  0
   -9.0318   23.1538  -30.6878 H   0  0  0  0  0  0  0  0  0  0  0  0
   -4.8810   25.3690  -29.2080 H   0  0  0  0  0  0  0  0  0  0  0  0
   -5.6210   24.1120  -28.0700 H   0  0  0  0  0  0  0  0  0  0  0  0
   -4.0247   21.9613  -29.2762 H   0  0  0  0  0  0  0  0  0  0  0  0
   -2.6409   21.9114  -30.4823 H   0  0  0  0  0  0  0  0  0  0  0  0
   -3.8270   25.1690  -27.8410 H   0  0  0  0  0  0  0  0  0  0  0  0
   -3.4980   24.9170  -31.3780 H   0  0  0  0  0  0  0  0  0  0  0  0
   -4.9919   20.2293  -32.7705 H   0  0  0  0  0  0  0  0  0  0  0  0
  1  2  1  0
  2  3  1  0
  3  4  1  0
  4  5  2  0
  5  6  1  0
  6  7  2  0
  7  8  1  0
  8  9  2  0
  9 10  1  0
 10 11  1  0
 10 12  2  0
  9 13  1  0
 13 14  1  0
 14 15  2  0
 14 16  1  0
 16 17  1  0
 17 18  2  0
 17 19  1  0
 17 20  1  0
 13 21  1  0
 21 22  2  0
 22  4  1  0
 21  7  1  0
  1 23  1  0
  1 24  1  0
  1 25  1  0
  2 26  1  0
  2 27  1  0
  3 28  1  0
  5 29  1  0
  6 30  1  0
  8 31  1  0
 11 32  1  0
 11 33  1  0
 16 34  1  0
 16 35  1  0
 19 36  1  0
 20 37  1  0
 22 38  1  0
M  END
>  <smiles>  (9) 
CCNc1ccc2cc(C(N)=O)n(C(=O)CP(=O)(O)O)c2c1

>  <score_type>  (9) 
oracle

>  <origin>  (9) 
adg

>  <m_score__min__energy>  (9) 
-8.4199999999999999

>  <m_primary>  (9) 
energy

$$$$
9:0
     RDKit          3D

 44 45  0  0  0  0  0  0  0  0999 V2000
   -0.1680   22.8040  -24.3190 C   0  0  0  0  0  0  0  0  0  0  0  0
   -0.5960   22.8240  -25.7610 C   0  0  0  0  0  0  0  0  0  0  0  0
   -1.2900   21.8400  -26.1130 O   0  0  0  0  0  0  0  0  0  0  0  0
   -0.2040   23.8980  -26.5750 N   0  0  0  0  0  0  0  0  0  0  0  0
    0.6940   24.8930  -25.9640 C   0  0  0  0  0  0  0  0  0  0  0  0
   -0.5580   24.1560  -27.9120 C   0  0  0  0  0  0  0  0  0  0  0  0
    0.4220   24.2520  -28.7230 O   0  0  0  0  0  0  0  0  0  0  0  0
   -1.8780   24.3210  -28.4660 C   0  0  0  0  0  0  0  0  0  0  0  0
   -2.2910   25.3100  -29.1070 O   0  0  0  0  0  0  0  0  0  0  0  0
   -2.8480   23.2660  -28.2870 N   0  0  0  0  0  0  0  0  0  0  0  0
   -4.2150   23.4470  -28.8740 C   0  0  0  0  0  0  0  0  0  0  0  0
   -4.0930   23.3560  -30.3410 C   0  0  0  0  0  0  0  0  0  0  0  0
   -4.1880   24.5220  -30.8980 O   0  0  0  0  0  0  0  0  0  0  0  0
   -3.9020   22.2590  -31.1650 N   0  0  0  0  0  0  0  0  0  0  0  0
   -2.7590   21.6640  -31.5990 C   0  0  0  0  0  0  0  0  0  0  0  0
   -1.3800   21.9970  -31.4330 C   0  0  0  0  0  0  0  0  0  0  0  0
   -0.7420   22.7460  -30.4380 N   0  0  0  0  0  0  0  0  0  0  0  0
   -0.5590   21.5540  -32.3290 O   0  0  0  0  0  0  0  0  0  0  0  0
   -3.1440   20.5510  -32.3840 C   0  0  0  0  0  0  0  0  0  0  0  0
   -4.5050   20.4850  -32.4180 C   0  0  0  0  0  0  0  0  0  0  0  0
   -5.3380   19.5900  -33.0450 C   0  0  0  0  0  0  0  0  0  0  0  0
   -6.7030   19.7090  -32.9480 C   0  0  0  0  0  0  0  0  0  0  0  0
   -7.1970   20.7520  -32.2040 C   0  0  0  0  0  0  0  0  0  0  0  0
   -8.6750   20.9090  -32.0800 C   0  0  0  0  0  0  0  0  0  0  0  0
   -9.1490   20.3540  -30.9180 F   0  0  0  0  0  0  0  0  0  0  0  0
   -8.9960   22.2510  -32.1170 F   0  0  0  0  0  0  0  0  0  0  0  0
   -9.3540   20.3000  -33.1170 F   0  0  0  0  0  0  0  0  0  0  0  0
   -6.3390   21.6580  -31.5690 C   0  0  0  0  0  0  0  0  0  0  0  0
   -4.9610   21.5370  -31.6680 C   0  0  0  0  0  0  0  0  0  0  0  0
   -1.0567   22.8455  -23.6721 H   0  0  0  0  0  0  0  0  0  0  0  0
    0.3909   21.8788  -24.1152 H   0  0  0  0  0  0  0  0  0  0  0  0
    0.4748   23.6731  -24.1152 H   0  0  0  0  0  0  0  0  0  0  0  0
    0.6293   24.8213  -24.8682 H   0  0  0  0  0  0  0  0  0  0  0  0
    1.7284   24.6986  -26.2837 H   0  0  0  0  0  0  0  0  0  0  0  0
    0.3949   25.9021  -26.2837 H   0  0  0  0  0  0  0  0  0  0  0  0
   -2.5930   22.4210  -27.7680 H   0  0  0  0  0  0  0  0  0  0  0  0
   -4.8877   22.6587  -28.5051 H   0  0  0  0  0  0  0  0  0  0  0  0
   -4.6311   24.4230  -28.5835 H   0  0  0  0  0  0  0  0  0  0  0  0
   -0.1520   22.3760  -29.6670 H   0  0  0  0  0  0  0  0  0  0  0  0
   -0.8670   23.7940  -30.4660 H   0  0  0  0  0  0  0  0  0  0  0  0
   -2.4570   19.8531  -32.8849 H   0  0  0  0  0  0  0  0  0  0  0  0
   -4.9057   18.7668  -33.6328 H   0  0  0  0  0  0  0  0  0  0  0  0
   -7.3750   18.9956  -33.4475 H   0  0  0  0  0  0  0  0  0  0  0  0
   -6.7666   22.4825  -30.9796 H   0  0  0  0  0  0  0  0  0  0  0  0
  1  2  1  0
  2  3  2  0
  2  4  1  0
  4  5  1  0
  4  6  1  0
  6  7  2  0
  6  8  1  0
  8  9  2  0
  8 10  1  0
 10 11  1  0
 11 12  1  0
 12 13  2  0
 12 14  1  0
 14 15  1  0
 15 16  1  0
 16 17  1  0
 16 18  2  0
 15 19  2  0
 19 20  1  0
 20 21  2  0
 21 22  1  0
 22 23  2  0
 23 24  1  0
 24 25  1  0
 24 26  1  0
 24 27  1  0
 23 28  1  0
 28 29  2  0
 29 14  1  0
 29 20  1  0
  1 30  1  0
  1 31  1  0
  1 32  1  0
  5 33  1  0
  5 34  1  0
  5 35  1  0
 10 36  1  0
 11 37  1  0
 11 38  1  0
 17 39  1  0
 17 40  1  0
 19 41  1  0
 21 42  1  0
 22 43  1  0
 28 44  1  0
M  END
>  <smiles>  (10) 
CC(=O)N(C)C(=O)C(=O)NCC(=O)n1c(C(N)=O)cc2ccc(C(F)(F)F)cc21

>  <score_type>  (10) 
oracle

>  <origin>  (10) 
adg

>  <m_score__min__energy>  (10) 
-8.8100000000000005

>  <m_primary>  (10) 
energy

$$$$
10:0
     RDKit          3D

 66 68  0  0  1  0  0  0  0  0999 V2000
   -2.6250   20.2690  -27.8090 C   0  0  0  0  0  0  0  0  0  0  0  0
   -2.2620   21.7250  -27.6610 C   0  0  2  0  0  0  0  0  0  0  0  0
   -3.3110   22.5510  -28.0640 O   0  0  0  0  0  0  0  0  0  0  0  0
   -0.9990   22.0070  -28.4850 C   0  0  1  0  0  0  0  0  0  0  0  0
   -1.4540   22.1820  -29.8510 N   0  0  0  0  0  0  0  0  0  0  0  0
   -0.7430   21.5300  -30.8890 C   0  0  0  0  0  0  0  0  0  0  0  0
    0.2470   20.8330  -30.5570 O   0  0  0  0  0  0  0  0  0  0  0  0
   -1.0660   21.6110  -32.2190 O   0  0  0  0  0  0  0  0  0  0  0  0
   -1.9060   20.6890  -32.8680 C   0  0  0  0  0  0  0  0  0  0  0  0
   -1.1350   20.1800  -34.0930 C   0  0  0  0  0  0  0  0  0  0  0  0
   -2.2350   19.5040  -32.0080 C   0  0  0  0  0  0  0  0  0  0  0  0
   -3.1830   21.2700  -33.4000 C   0  0  0  0  0  0  0  0  0  0  0  0
   -0.4310   23.2750  -27.9600 C   0  0  0  0  0  0  0  0  0  0  0  0
    0.1370   23.2220  -26.8420 O   0  0  0  0  0  0  0  0  0  0  0  0
   -0.5580   24.4230  -28.7180 O   0  0  0  0  0  0  0  0  0  0  0  0
   -1.7860   25.1660  -28.5590 C   0  0  0  0  0  0  0  0  0  0  0  0
   -2.6390   24.8580  -29.5020 O   0  0  0  0  0  0  0  0  0  0  0  0
   -3.4480   24.5780  -30.4580 C   0  0  0  0  0  0  0  0  0  0  0  0
   -4.2450   25.4490  -30.9100 O   0  0  0  0  0  0  0  0  0  0  0  0
   -3.5280   23.3260  -31.0730 O   0  0  0  0  0  0  0  0  0  0  0  0
   -4.4080   22.3350  -30.7010 C   0  0  0  0  0  0  0  0  0  0  0  0
   -3.8610   21.3110  -30.1610 O   0  0  0  0  0  0  0  0  0  0  0  0
   -5.8130   22.3730  -30.8670 N   0  0  0  0  0  0  0  0  0  0  0  0
   -6.6690   23.3120  -30.4250 C   0  0  0  0  0  0  0  0  0  0  0  0
   -6.4300   24.5270  -29.6750 C   0  0  0  0  0  0  0  0  0  0  0  0
   -5.3370   24.5590  -28.7340 N   0  0  0  0  0  0  0  0  0  0  0  0
   -7.0860   25.5870  -29.7530 O   0  0  0  0  0  0  0  0  0  0  0  0
   -7.9320   22.9170  -30.8280 C   0  0  0  0  0  0  0  0  0  0  0  0
   -7.8510   21.7350  -31.5170 C   0  0  0  0  0  0  0  0  0  0  0  0
   -8.8060   20.9400  -32.1150 C   0  0  0  0  0  0  0  0  0  0  0  0
   -8.4500   19.7820  -32.7520 C   0  0  0  0  0  0  0  0  0  0  0  0
   -7.1230   19.4300  -32.7840 C   0  0  0  0  0  0  0  0  0  0  0  0
   -6.6980   18.1720  -33.4700 C   0  0  0  0  0  0  0  0  0  0  0  0
   -5.6860   18.3740  -34.5670 C   0  0  0  0  0  0  0  0  0  0  0  0
   -5.3270   17.6560  -33.2600 C   0  0  0  0  0  0  0  0  0  0  0  0
   -6.1690   20.2390  -32.1780 C   0  0  0  0  0  0  0  0  0  0  0  0
   -6.5030   21.4140  -31.5270 C   0  0  0  0  0  0  0  0  0  0  0  0
   -2.7379   19.8162  -26.8129 H   0  0  0  0  0  0  0  0  0  0  0  0
   -3.5724   20.1816  -28.3610 H   0  0  0  0  0  0  0  0  0  0  0  0
   -1.8295   19.7471  -28.3610 H   0  0  0  0  0  0  0  0  0  0  0  0
   -2.0673   21.9425  -26.6004 H   0  0  0  0  0  0  0  0  0  0  0  0
   -3.1720   22.9340  -28.9520 H   0  0  0  0  0  0  0  0  0  0  0  0
   -0.2404   21.2121  -28.4335 H   0  0  0  0  0  0  0  0  0  0  0  0
   -2.2770   22.7680  -30.0790 H   0  0  0  0  0  0  0  0  0  0  0  0
   -0.2597   19.6022  -33.7613 H   0  0  0  0  0  0  0  0  0  0  0  0
   -1.7911   19.5369  -34.6980 H   0  0  0  0  0  0  0  0  0  0  0  0
   -0.8014   21.0360  -34.6980 H   0  0  0  0  0  0  0  0  0  0  0  0
   -2.1564   19.7871  -30.9480 H   0  0  0  0  0  0  0  0  0  0  0  0
   -3.2603   19.1684  -32.2228 H   0  0  0  0  0  0  0  0  0  0  0  0
   -1.5295   18.6879  -32.2228 H   0  0  0  0  0  0  0  0  0  0  0  0
   -3.8298   21.5643  -32.5603 H   0  0  0  0  0  0  0  0  0  0  0  0
   -2.9558   22.1534  -34.0149 H   0  0  0  0  0  0  0  0  0  0  0  0
   -3.6997   20.5183  -34.0149 H   0  0  0  0  0  0  0  0  0  0  0  0
   -2.2281   24.9275  -27.5804 H   0  0  0  0  0  0  0  0  0  0  0  0
   -1.5598   26.2405  -28.6243 H   0  0  0  0  0  0  0  0  0  0  0  0
   -4.6490   25.3610  -28.7370 H   0  0  0  0  0  0  0  0  0  0  0  0
   -5.2520   23.7710  -28.0580 H   0  0  0  0  0  0  0  0  0  0  0  0
   -8.8619   23.4688  -30.6258 H   0  0  0  0  0  0  0  0  0  0  0  0
   -9.8639   21.2393  -32.0798 H   0  0  0  0  0  0  0  0  0  0  0  0
   -9.2110   19.1465  -33.2284 H   0  0  0  0  0  0  0  0  0  0  0  0
   -7.6869   17.7000  -33.3741 H   0  0  0  0  0  0  0  0  0  0  0  0
   -5.7662   17.8081  -35.5069 H   0  0  0  0  0  0  0  0  0  0  0  0
   -5.2921   19.2351  -35.1269 H   0  0  0  0  0  0  0  0  0  0  0  0
   -5.1410   16.5718  -33.2610 H   0  0  0  0  0  0  0  0  0  0  0  0
   -4.5561   17.7873  -32.4864 H   0  0  0  0  0  0  0  0  0  0  0  0
   -5.1125   19.9351  -32.2171 H   0  0  0  0  0  0  0  0  0  0  0  0
  1  2  1  0
  2  3  1  0
  2  4  1  0
  4  5  1  0
  5  6  1  0
  6  7  2  0
  6  8  1  0
  8  9  1  0
  9 10  1  0
  9 11  1  0
  9 12  1  0
  4 13  1  0
 13 14  2  0
 13 15  1  0
 15 16  1  0
 16 17  1  0
 17 18  1  0
 18 19  2  0
 18 20  1  0
 20 21  1  0
 21 22  2  0
 21 23  1  0
 23 24  1  0
 24 25  1  0
 25 26  1  0
 25 27  2  0
 24 28  2  0
 28 29  1  0
 29 30  2  0
 30 31  1  0
 31 32  2  0
 32 33  1  0
 33 34  1  0
 34 35  1  0
 32 36  1  0
 36 37  2  0
 37 23  1  0
 37 29  1  0
 35 33  1  0
  1 38  1  0
  1 39  1  0
  1 40  1  0
  2 41  1  1
  3 42  1  0
  4 43  1  6
  5 44  1  0
 10 45  1  0
 10 46  1  0
 10 47  1  0
 11 48  1  0
 11 49  1  0
 11 50  1  0
 12 51  1  0
 12 52  1  0
 12 53  1  0
 16 54  1  0
 16 55  1  0
 26 56  1  0
 26 57  1  0
 28 58  1  0
 30 59  1  0
 31 60  1  0
 33 61  1  0
 34 62  1  0
 34 63  1  0
 35 64  1  0
 35 65  1  0
 36 66  1  0
M  END
>  <smiles>  (11) 
CC(O)C(NC(=O)OC(C)(C)C)C(=O)OCOC(=O)OC(=O)n1c(C(N)=O)cc2ccc(C3CC3)cc21

>  <score_type>  (11) 
oracle

>  <origin>  (11) 
adg

>  <m_score__min__energy>  (11) 
-9.5600000000000005

>  <m_primary>  (11) 
energy

$$$$
12:0
     RDKit          3D

 40 41  0  0  0  0  0  0  0  0999 V2000
   -0.3310   25.6140  -27.5340 C   0  0  0  0  0  0  0  0  0  0  0  0
   -1.1970   24.4700  -27.4540 N   0  0  0  0  0  0  0  0  0  0  0  0
   -0.9510   23.4880  -26.4240 C   0  0  0  0  0  0  0  0  0  0  0  0
   -2.2480   24.3410  -28.3700 C   0  0  0  0  0  0  0  0  0  0  0  0
   -2.3810   25.2590  -29.2380 O   0  0  0  0  0  0  0  0  0  0  0  0
   -3.1750   23.1860  -28.3400 C   0  0  0  0  0  0  0  0  0  0  0  0
   -4.2090   23.2380  -27.6360 O   0  0  0  0  0  0  0  0  0  0  0  0
   -2.8390   22.0700  -29.1210 O   0  0  0  0  0  0  0  0  0  0  0  0
   -3.0650   22.1300  -30.5270 C   0  0  0  0  0  0  0  0  0  0  0  0
   -2.2490   21.4420  -31.1670 O   0  0  0  0  0  0  0  0  0  0  0  0
   -4.1490   22.9390  -30.9680 C   0  0  0  0  0  0  0  0  0  0  0  0
   -3.8110   24.1770  -31.2120 O   0  0  0  0  0  0  0  0  0  0  0  0
   -5.5110   22.6910  -31.2040 N   0  0  0  0  0  0  0  0  0  0  0  0
   -6.4960   23.4620  -30.6750 C   0  0  0  0  0  0  0  0  0  0  0  0
   -6.4980   24.6980  -29.9300 C   0  0  0  0  0  0  0  0  0  0  0  0
   -5.2380   25.3260  -29.5540 N   0  0  0  0  0  0  0  0  0  0  0  0
   -7.4930   25.3510  -29.5370 O   0  0  0  0  0  0  0  0  0  0  0  0
   -7.7240   22.8700  -31.0430 C   0  0  0  0  0  0  0  0  0  0  0  0
   -7.4840   21.7590  -31.7830 C   0  0  0  0  0  0  0  0  0  0  0  0
   -8.3510   20.8540  -32.3470 C   0  0  0  0  0  0  0  0  0  0  0  0
   -7.8780   19.7730  -33.0500 C   0  0  0  0  0  0  0  0  0  0  0  0
   -6.5120   19.6420  -33.1580 C   0  0  0  0  0  0  0  0  0  0  0  0
   -5.9580   18.4760  -33.9160 C   0  0  0  0  0  0  0  0  0  0  0  0
   -6.0900   18.7820  -35.2530 F   0  0  0  0  0  0  0  0  0  0  0  0
   -6.6940   17.3560  -33.5600 F   0  0  0  0  0  0  0  0  0  0  0  0
   -4.6360   18.2760  -33.5560 F   0  0  0  0  0  0  0  0  0  0  0  0
   -5.6540   20.5700  -32.5800 C   0  0  0  0  0  0  0  0  0  0  0  0
   -6.1030   21.6570  -31.8760 C   0  0  0  0  0  0  0  0  0  0  0  0
   -0.0752   25.9519  -26.5189 H   0  0  0  0  0  0  0  0  0  0  0  0
    0.5886   25.3408  -28.0722 H   0  0  0  0  0  0  0  0  0  0  0  0
   -0.8436   26.4250  -28.0722 H   0  0  0  0  0  0  0  0  0  0  0  0
   -1.0683   23.9562  -25.4355 H   0  0  0  0  0  0  0  0  0  0  0  0
   -1.6699   22.6617  -26.5260 H   0  0  0  0  0  0  0  0  0  0  0  0
    0.0725   23.0982  -26.5260 H   0  0  0  0  0  0  0  0  0  0  0  0
   -4.4730   24.7060  -29.1840 H   0  0  0  0  0  0  0  0  0  0  0  0
   -5.1150   26.3580  -29.6550 H   0  0  0  0  0  0  0  0  0  0  0  0
   -8.7198   23.2505  -30.7718 H   0  0  0  0  0  0  0  0  0  0  0  0
   -9.4358   20.9970  -32.2341 H   0  0  0  0  0  0  0  0  0  0  0  0
   -8.5619   19.0428  -33.5074 H   0  0  0  0  0  0  0  0  0  0  0  0
   -4.5692   20.4262  -32.6922 H   0  0  0  0  0  0  0  0  0  0  0  0
  1  2  1  0
  2  3  1  0
  2  4  1  0
  4  5  2  0
  4  6  1  0
  6  7  2  0
  6  8  1  0
  8  9  1  0
  9 10  2  0
  9 11  1  0
 11 12  2  0
 11 13  1  0
 13 14  1  0
 14 15  1  0
 15 16  1  0
 15 17  2  0
 14 18  2  0
 18 19  1  0
 19 20  2  0
 20 21  1  0
 21 22  2  0
 22 23  1  0
 23 24  1  0
 23 25  1  0
 23 26  1  0
 22 27  1  0
 27 28  2  0
 28 13  1  0
 28 19  1  0
  1 29  1  0
  1 30  1  0
  1 31  1  0
  3 32  1  0
  3 33  1  0
  3 34  1  0
 16 35  1  0
 16 36  1  0
 18 37  1  0
 20 38  1  0
 21 39  1  0
 27 40  1  0
M  END
>  <smiles>  (12) 
CN(C)C(=O)C(=O)OC(=O)C(=O)n1c(C(N)=O)cc2ccc(C(F)(F)F)cc21

>  <score_type>  (12) 
oracle

>  <origin>  (12) 
adg

>  <m_score__min__energy>  (12) 
-8.75

>  <m_primary>  (12) 
energy

$$$$
13:0
     RDKit          3D

 55 56  0  0  1  0  0  0  0  0999 V2000
   -3.3680   18.4810  -33.6980 C   0  0  0  0  0  0  0  0  0  0  0  0
   -4.1860   18.4010  -34.7920 O   0  0  0  0  0  0  0  0  0  0  0  0
   -4.5140   17.1210  -35.1200 C   0  0  0  0  0  0  0  0  0  0  0  0
   -4.0130   16.1520  -34.0880 C   0  0  0  0  0  0  0  0  0  0  0  0
   -5.1650   15.4330  -33.5000 N   0  0  0  0  0  0  0  0  0  0  0  0
   -4.9430   14.2640  -32.7030 C   0  0  0  0  0  0  0  0  0  0  0  0
   -6.4520   15.9730  -33.7760 C   0  0  0  0  0  0  0  0  0  0  0  0
   -7.1320   15.4580  -34.7010 O   0  0  0  0  0  0  0  0  0  0  0  0
   -6.9200   17.1170  -32.9530 C   0  0  1  0  0  0  0  0  0  0  0  0
   -6.1240   17.1100  -31.6430 C   0  0  0  0  0  0  0  0  0  0  0  0
   -6.6730   18.3860  -33.5980 N   0  0  0  0  0  0  0  0  0  0  0  0
   -6.8770   19.6400  -32.9510 C   0  0  0  0  0  0  0  0  0  0  0  0
   -8.1400   20.0500  -32.6190 C   0  0  0  0  0  0  0  0  0  0  0  0
   -8.3150   21.2630  -31.9940 C   0  0  0  0  0  0  0  0  0  0  0  0
   -7.2040   22.0290  -31.7220 C   0  0  0  0  0  0  0  0  0  0  0  0
   -7.1270   23.2520  -31.1150 C   0  0  0  0  0  0  0  0  0  0  0  0
   -5.7730   23.6160  -31.0700 C   0  0  0  0  0  0  0  0  0  0  0  0
   -5.3900   24.8990  -30.5090 C   0  0  0  0  0  0  0  0  0  0  0  0
   -4.0750   25.4100  -30.7880 N   0  0  0  0  0  0  0  0  0  0  0  0
   -6.0910   25.6400  -29.7870 O   0  0  0  0  0  0  0  0  0  0  0  0
   -5.0360   22.6440  -31.6270 N   0  0  0  0  0  0  0  0  0  0  0  0
   -3.6480   22.4330  -31.7130 C   0  0  0  0  0  0  0  0  0  0  0  0
   -2.8840   23.0420  -30.8710 O   0  0  0  0  0  0  0  0  0  0  0  0
   -2.9410   21.6310  -32.6210 N   0  0  0  0  0  0  0  0  0  0  0  0
   -1.4960   21.5720  -32.4860 C   0  0  0  0  0  0  0  0  0  0  0  0
   -0.8110   21.2190  -33.7330 C   0  0  0  0  0  0  0  0  0  0  0  0
    0.3830   21.5010  -34.0100 O   0  0  0  0  0  0  0  0  0  0  0  0
   -1.5230   20.5150  -34.6940 O   0  0  0  0  0  0  0  0  0  0  0  0
   -5.9200   21.6730  -32.0290 C   0  0  0  0  0  0  0  0  0  0  0  0
   -5.7670   20.4420  -32.6620 C   0  0  0  0  0  0  0  0  0  0  0  0
   -3.9740   18.4217  -32.7819 H   0  0  0  0  0  0  0  0  0  0  0  0
   -2.6488   17.6489  -33.7163 H   0  0  0  0  0  0  0  0  0  0  0  0
   -2.8236   19.4367  -33.7163 H   0  0  0  0  0  0  0  0  0  0  0  0
   -5.6086   17.0374  -35.1895 H   0  0  0  0  0  0  0  0  0  0  0  0
   -4.0450   16.8769  -36.0846 H   0  0  0  0  0  0  0  0  0  0  0  0
   -3.3306   15.4303  -34.5608 H   0  0  0  0  0  0  0  0  0  0  0  0
   -3.4738   16.6966  -33.2989 H   0  0  0  0  0  0  0  0  0  0  0  0
   -4.9938   14.5317  -31.6373 H   0  0  0  0  0  0  0  0  0  0  0  0
   -5.7147   13.5136  -32.9298 H   0  0  0  0  0  0  0  0  0  0  0  0
   -3.9499   13.8488  -32.9298 H   0  0  0  0  0  0  0  0  0  0  0  0
   -8.0030   17.0057  -32.7957 H   0  0  0  0  0  0  0  0  0  0  0  0
   -6.8199   17.1161  -30.7911 H   0  0  0  0  0  0  0  0  0  0  0  0
   -5.4984   16.2063  -31.5989 H   0  0  0  0  0  0  0  0  0  0  0  0
   -5.4826   18.0025  -31.5989 H   0  0  0  0  0  0  0  0  0  0  0  0
   -6.3290   18.3540  -34.5820 H   0  0  0  0  0  0  0  0  0  0  0  0
   -9.0079   19.4149  -32.8500 H   0  0  0  0  0  0  0  0  0  0  0  0
   -9.3205   21.6131  -31.7177 H   0  0  0  0  0  0  0  0  0  0  0  0
   -7.9724   23.8425  -30.7320 H   0  0  0  0  0  0  0  0  0  0  0  0
   -3.2750   24.7540  -30.9460 H   0  0  0  0  0  0  0  0  0  0  0  0
   -3.8730   26.4320  -30.8430 H   0  0  0  0  0  0  0  0  0  0  0  0
   -3.3880   21.1320  -33.3820 H   0  0  0  0  0  0  0  0  0  0  0  0
   -1.1356   22.5577  -32.1566 H   0  0  0  0  0  0  0  0  0  0  0  0
   -1.2691   20.7821  -31.7548 H   0  0  0  0  0  0  0  0  0  0  0  0
   -2.3920   20.8340  -35.0890 H   0  0  0  0  0  0  0  0  0  0  0  0
   -4.7603   20.0954  -32.9385 H   0  0  0  0  0  0  0  0  0  0  0  0
  1  2  1  0
  2  3  1  0
  3  4  1  0
  4  5  1  0
  5  6  1  0
  5  7  1  0
  7  8  2  0
  7  9  1  0
  9 10  1  0
  9 11  1  0
 11 12  1  0
 12 13  2  0
 13 14  1  0
 14 15  2  0
 15 16  1  0
 16 17  2  0
 17 18  1  0
 18 19  1  0
 18 20  2  0
 17 21  1  0
 21 22  1  0
 22 23  2  0
 22 24  1  0
 24 25  1  0
 25 26  1  0
 26 27  2  0
 26 28  1  0
 21 29  1  0
 29 30  2  0
 30 12  1  0
 29 15  1  0
  1 31  1  0
  1 32  1  0
  1 33  1  0
  3 34  1  0
  3 35  1  0
  4 36  1  0
  4 37  1  0
  6 38  1  0
  6 39  1  0
  6 40  1  0
  9 41  1  1
 10 42  1  0
 10 43  1  0
 10 44  1  0
 11 45  1  0
 13 46  1  0
 14 47  1  0
 16 48  1  0
 19 49  1  0
 19 50  1  0
 24 51  1  0
 25 52  1  0
 25 53  1  0
 28 54  1  0
 30 55  1  0
M  END
>  <smiles>  (13) 
COCCN(C)C(=O)C(C)Nc1ccc2cc(C(N)=O)n(C(=O)NCC(=O)O)c2c1

>  <score_type>  (13) 
oracle

>  <origin>  (13) 
adg

>  <m_score__min__energy>  (13) 
-9.1699999999999999

>  <m_primary>  (13) 
energy

$$$$
14:0
     RDKit          3D

 48 49  0  0  0  0  0  0  0  0999 V2000
   -8.5570   18.6420  -32.7170 C   0  0  0  0  0  0  0  0  0  0  0  0
   -8.1760   19.9650  -32.1250 C   0  0  0  0  0  0  0  0  0  0  0  0
   -9.1630   20.7750  -31.6140 C   0  0  0  0  0  0  0  0  0  0  0  0
   -8.7760   21.9780  -31.0780 C   0  0  0  0  0  0  0  0  0  0  0  0
   -7.4480   22.3380  -31.0650 C   0  0  0  0  0  0  0  0  0  0  0  0
   -6.8500   23.4690  -30.5820 C   0  0  0  0  0  0  0  0  0  0  0  0
   -5.4520   23.3860  -30.7890 C   0  0  0  0  0  0  0  0  0  0  0  0
   -4.6040   24.4590  -30.3650 C   0  0  0  0  0  0  0  0  0  0  0  0
   -3.8920   24.6540  -29.1710 N   0  0  0  0  0  0  0  0  0  0  0  0
   -4.4480   25.4260  -31.2050 O   0  0  0  0  0  0  0  0  0  0  0  0
   -5.2280   22.1890  -31.3990 N   0  0  0  0  0  0  0  0  0  0  0  0
   -3.9730   21.6940  -31.7530 C   0  0  0  0  0  0  0  0  0  0  0  0
   -3.3670   22.2980  -32.7060 O   0  0  0  0  0  0  0  0  0  0  0  0
   -3.2210   20.5640  -31.1950 C   0  0  0  0  0  0  0  0  0  0  0  0
   -1.8020   20.8860  -30.7930 C   0  0  0  0  0  0  0  0  0  0  0  0
   -1.6970   22.0730  -29.9340 C   0  0  0  0  0  0  0  0  0  0  0  0
   -1.7630   23.2630  -30.3240 O   0  0  0  0  0  0  0  0  0  0  0  0
   -1.5020   21.8930  -28.5190 N   0  0  0  0  0  0  0  0  0  0  0  0
   -1.4070   20.5320  -27.9680 C   0  0  0  0  0  0  0  0  0  0  0  0
   -1.3930   22.9800  -27.5940 C   0  0  0  0  0  0  0  0  0  0  0  0
   -0.4140   24.0500  -27.9910 C   0  0  0  0  0  0  0  0  0  0  0  0
   -1.0440   25.4240  -28.0240 C   0  0  0  0  0  0  0  0  0  0  0  0
   -1.4350   25.6730  -29.3340 O   0  0  0  0  0  0  0  0  0  0  0  0
   -6.4310   21.5590  -31.5650 C   0  0  0  0  0  0  0  0  0  0  0  0
   -6.8290   20.3450  -32.1030 C   0  0  0  0  0  0  0  0  0  0  0  0
   -8.7636   17.9246  -31.9091 H   0  0  0  0  0  0  0  0  0  0  0  0
   -9.4566   18.7637  -33.3382 H   0  0  0  0  0  0  0  0  0  0  0  0
   -7.7305   18.2666  -33.3382 H   0  0  0  0  0  0  0  0  0  0  0  0
  -10.2200   20.4711  -31.6340 H   0  0  0  0  0  0  0  0  0  0  0  0
   -9.5314   22.6577  -30.6567 H   0  0  0  0  0  0  0  0  0  0  0  0
   -7.3735   24.3117  -30.1068 H   0  0  0  0  0  0  0  0  0  0  0  0
   -4.3040   25.3040  -28.4330 H   0  0  0  0  0  0  0  0  0  0  0  0
   -2.9520   24.1920  -28.9750 H   0  0  0  0  0  0  0  0  0  0  0  0
   -3.7558   20.2034  -30.3040 H   0  0  0  0  0  0  0  0  0  0  0  0
   -3.1537   19.8113  -31.9943 H   0  0  0  0  0  0  0  0  0  0  0  0
   -1.3889   20.0237  -30.2491 H   0  0  0  0  0  0  0  0  0  0  0  0
   -1.2426   21.1007  -31.7155 H   0  0  0  0  0  0  0  0  0  0  0  0
   -1.4104   20.5803  -26.8691 H   0  0  0  0  0  0  0  0  0  0  0  0
   -2.2658   19.9366  -28.3115 H   0  0  0  0  0  0  0  0  0  0  0  0
   -0.4738   20.0617  -28.3115 H   0  0  0  0  0  0  0  0  0  0  0  0
   -2.3851   23.4443  -27.4931 H   0  0  0  0  0  0  0  0  0  0  0  0
   -1.0174   22.5500  -26.6538 H   0  0  0  0  0  0  0  0  0  0  0  0
    0.4136   24.0581  -27.2664 H   0  0  0  0  0  0  0  0  0  0  0  0
   -0.0586   23.8195  -29.0062 H   0  0  0  0  0  0  0  0  0  0  0  0
   -1.9198   25.4516  -27.3590 H   0  0  0  0  0  0  0  0  0  0  0  0
   -0.3288   26.1864  -27.6816 H   0  0  0  0  0  0  0  0  0  0  0  0
   -0.9170   24.9970  -29.8790 H   0  0  0  0  0  0  0  0  0  0  0  0
   -6.0708   19.6665  -32.5211 H   0  0  0  0  0  0  0  0  0  0  0  0
  1  2  1  0
  2  3  2  0
  3  4  1  0
  4  5  2  0
  5  6  1  0
  6  7  2  0
  7  8  1  0
  8  9  1  0
  8 10  2  0
  7 11  1  0
 11 12  1  0
 12 13  2  0
 12 14  1  0
 14 15  1  0
 15 16  1  0
 16 17  2  0
 16 18  1  0
 18 19  1  0
 18 20  1  0
 20 21  1  0
 21 22  1  0
 22 23  1  0
 11 24  1  0
 24 25  2  0
 25  2  1  0
 24  5  1  0
  1 26  1  0
  1 27  1  0
  1 28  1  0
  3 29  1  0
  4 30  1  0
  6 31  1  0
  9 32  1  0
  9 33  1  0
 14 34  1  0
 14 35  1  0
 15 36  1  0
 15 37  1  0
 19 38  1  0
 19 39  1  0
 19 40  1  0
 20 41  1  0
 20 42  1  0
 21 43  1  0
 21 44  1  0
 22 45  1  0
 22 46  1  0
 23 47  1  0
 25 48  1  0
M  END
>  <smiles>  (14) 
Cc1ccc2cc(C(N)=O)n(C(=O)CCC(=O)N(C)CCCO)c2c1

>  <score_type>  (14) 
oracle

>  <origin>  (14) 
adg

>  <m_score__min__energy>  (14) 
-9.0600000000000005

>  <m_primary>  (14) 
energy

$$$$
15:0
     RDKit          3D

 35 36  0  0  0  0  0  0  0  0999 V2000
   -7.6910   18.4360  -32.4220 C   0  0  0  0  0  0  0  0  0  0  0  0
   -7.7020   19.8840  -32.0940 C   0  0  0  0  0  0  0  0  0  0  0  0
   -8.8750   20.5800  -32.2910 C   0  0  0  0  0  0  0  0  0  0  0  0
   -8.8840   21.9210  -31.9860 C   0  0  0  0  0  0  0  0  0  0  0  0
   -7.7610   22.5390  -31.5020 C   0  0  0  0  0  0  0  0  0  0  0  0
   -7.5230   23.8440  -31.1290 C   0  0  0  0  0  0  0  0  0  0  0  0
   -6.1950   23.9750  -30.6950 C   0  0  0  0  0  0  0  0  0  0  0  0
   -5.6650   25.2290  -30.2450 C   0  0  0  0  0  0  0  0  0  0  0  0
   -6.1200   26.0460  -29.1950 N   0  0  0  0  0  0  0  0  0  0  0  0
   -4.6410   25.6790  -30.8720 O   0  0  0  0  0  0  0  0  0  0  0  0
   -5.6430   22.7520  -30.8070 N   0  0  0  0  0  0  0  0  0  0  0  0
   -4.3250   22.3700  -30.4930 C   0  0  0  0  0  0  0  0  0  0  0  0
   -3.4740   22.2420  -31.4470 O   0  0  0  0  0  0  0  0  0  0  0  0
   -3.8220   22.1080  -29.2460 O   0  0  0  0  0  0  0  0  0  0  0  0
   -2.4750   21.8760  -28.9340 C   0  0  0  0  0  0  0  0  0  0  0  0
   -2.1930   22.7430  -27.8660 O   0  0  0  0  0  0  0  0  0  0  0  0
   -2.7880   24.2850  -28.0950 P   0  0  0  0  0  0  0  0  0  0  0  0
   -2.0470   25.3070  -27.2630 O   0  0  0  0  0  0  0  0  0  0  0  0
   -2.7020   24.7820  -29.7000 O   0  0  0  0  0  0  0  0  0  0  0  0
   -4.4240   24.2860  -27.6030 O   0  0  0  0  0  0  0  0  0  0  0  0
   -6.5750   21.8770  -31.2920 C   0  0  0  0  0  0  0  0  0  0  0  0
   -6.5610   20.5280  -31.5970 C   0  0  0  0  0  0  0  0  0  0  0  0
   -7.6865   17.8493  -31.4915 H   0  0  0  0  0  0  0  0  0  0  0  0
   -8.5873   18.1861  -33.0087 H   0  0  0  0  0  0  0  0  0  0  0  0
   -6.7910   18.1998  -33.0087 H   0  0  0  0  0  0  0  0  0  0  0  0
   -9.7743   20.0795  -32.6793 H   0  0  0  0  0  0  0  0  0  0  0  0
   -9.8046   22.5049  -32.1325 H   0  0  0  0  0  0  0  0  0  0  0  0
   -8.2613   24.6586  -31.1658 H   0  0  0  0  0  0  0  0  0  0  0  0
   -5.7150   25.8830  -28.2460 H   0  0  0  0  0  0  0  0  0  0  0  0
   -6.8420   26.7990  -29.3900 H   0  0  0  0  0  0  0  0  0  0  0  0
   -2.3231   20.8292  -28.6322 H   0  0  0  0  0  0  0  0  0  0  0  0
   -1.8153   22.0550  -29.7958 H   0  0  0  0  0  0  0  0  0  0  0  0
   -3.1910   24.1260  -30.2380 H   0  0  0  0  0  0  0  0  0  0  0  0
   -4.8990   23.5090  -27.9680 H   0  0  0  0  0  0  0  0  0  0  0  0
   -5.6372   19.9500  -31.4467 H   0  0  0  0  0  0  0  0  0  0  0  0
  1  2  1  0
  2  3  2  0
  3  4  1  0
  4  5  2  0
  5  6  1  0
  6  7  2  0
  7  8  1  0
  8  9  1  0
  8 10  2  0
  7 11  1  0
 11 12  1  0
 12 13  2  0
 12 14  1  0
 14 15  1  0
 15 16  1  0
 16 17  1  0
 17 18  2  0
 17 19  1  0
 17 20  1  0
 11 21  1  0
 21 22  2  0
 22  2  1  0
 21  5  1  0
  1 23  1  0
  1 24  1  0
  1 25  1  0
  3 26  1  0
  4 27  1  0
  6 28  1  0
  9 29  1  0
  9 30  1  0
 15 31  1  0
 15 32  1  0
 19 33  1  0
 20 34  1  0
 22 35  1  0
M  END
>  <smiles>  (15) 
Cc1ccc2cc(C(N)=O)n(C(=O)OCOP(=O)(O)O)c2c1

>  <score_type>  (15) 
oracle

>  <origin>  (15) 
adg

>  <m_score__min__energy>  (15) 
-8.0399999999999991

>  <m_primary>  (15) 
energy

$$$$
16:0
     RDKit          3D

 43 45  0  0  0  0  0  0  0  0999 V2000
    0.1170   21.1550  -32.9410 C   0  0  0  0  0  0  0  0  0  0  0  0
   -1.3610   20.8560  -32.6560 C   0  0  0  0  0  0  0  0  0  0  0  0
   -1.8560   21.1260  -31.2600 C   0  0  2  0  0  0  0  0  0  0  0  0
   -2.9560   22.0790  -31.2050 N   0  0  0  0  0  0  0  0  0  0  0  0
   -4.2940   21.6320  -31.2500 C   0  0  0  0  0  0  0  0  0  0  0  0
   -4.4090   20.3580  -31.3630 O   0  0  0  0  0  0  0  0  0  0  0  0
   -5.4620   22.4170  -31.1940 N   0  0  0  0  0  0  0  0  0  0  0  0
   -5.6600   23.7250  -31.0380 C   0  0  0  0  0  0  0  0  0  0  0  0
   -4.7630   24.7830  -30.6070 C   0  0  0  0  0  0  0  0  0  0  0  0
   -5.3290   26.0700  -30.2480 N   0  0  0  0  0  0  0  0  0  0  0  0
   -3.5220   24.7230  -30.5060 O   0  0  0  0  0  0  0  0  0  0  0  0
   -7.0300   24.0220  -31.2220 C   0  0  0  0  0  0  0  0  0  0  0  0
   -7.6510   22.8530  -31.4870 C   0  0  0  0  0  0  0  0  0  0  0  0
   -8.9920   22.6030  -31.7420 C   0  0  0  0  0  0  0  0  0  0  0  0
   -9.4080   21.3150  -31.9920 C   0  0  0  0  0  0  0  0  0  0  0  0
   -8.4720   20.3100  -31.9800 C   0  0  0  0  0  0  0  0  0  0  0  0
   -8.9460   18.9260  -32.2530 C   0  0  0  0  0  0  0  0  0  0  0  0
   -9.3460   18.3440  -31.0640 F   0  0  0  0  0  0  0  0  0  0  0  0
   -7.9740   18.1200  -32.7840 F   0  0  0  0  0  0  0  0  0  0  0  0
  -10.0620   19.0370  -33.0600 F   0  0  0  0  0  0  0  0  0  0  0  0
   -7.1320   20.5820  -31.7230 C   0  0  0  0  0  0  0  0  0  0  0  0
   -6.6900   21.8750  -31.4680 C   0  0  0  0  0  0  0  0  0  0  0  0
   -0.7120   21.7050  -30.4780 C   0  0  0  0  0  0  0  0  0  0  0  0
    0.2610   21.0320  -30.0920 O   0  0  0  0  0  0  0  0  0  0  0  0
   -0.6930   23.0720  -30.1360 O   0  0  0  0  0  0  0  0  0  0  0  0
   -2.3220   20.8250  -33.7600 C   0  0  0  0  0  0  0  0  0  0  0  0
   -1.8360   19.5140  -33.2880 C   0  0  0  0  0  0  0  0  0  0  0  0
    0.6589   21.2646  -31.9900 H   0  0  0  0  0  0  0  0  0  0  0  0
    0.5538   20.3270  -33.5186 H   0  0  0  0  0  0  0  0  0  0  0  0
    0.1977   22.0877  -33.5186 H   0  0  0  0  0  0  0  0  0  0  0  0
   -2.2268   20.1741  -30.8521 H   0  0  0  0  0  0  0  0  0  0  0  0
   -2.7130   23.0690  -31.1680 H   0  0  0  0  0  0  0  0  0  0  0  0
   -5.6810   26.1270  -29.2650 H   0  0  0  0  0  0  0  0  0  0  0  0
   -5.3610   26.8460  -30.9350 H   0  0  0  0  0  0  0  0  0  0  0  0
   -7.4996   25.0148  -31.1610 H   0  0  0  0  0  0  0  0  0  0  0  0
   -9.7182   23.4292  -31.7443 H   0  0  0  0  0  0  0  0  0  0  0  0
  -10.4663   21.0955  -32.1968 H   0  0  0  0  0  0  0  0  0  0  0  0
   -6.4062   19.7555  -31.7216 H   0  0  0  0  0  0  0  0  0  0  0  0
   -1.4830   23.6650  -30.3100 H   0  0  0  0  0  0  0  0  0  0  0  0
   -3.3674   21.1113  -33.5723 H   0  0  0  0  0  0  0  0  0  0  0  0
   -2.3501   21.3070  -34.7484 H   0  0  0  0  0  0  0  0  0  0  0  0
   -2.5035   18.8414  -32.7294 H   0  0  0  0  0  0  0  0  0  0  0  0
   -1.3508   18.6387  -33.7445 H   0  0  0  0  0  0  0  0  0  0  0  0
  1  2  1  0
  2  3  1  0
  3  4  1  0
  4  5  1  0
  5  6  2  0
  5  7  1  0
  7  8  1  0
  8  9  1  0
  9 10  1  0
  9 11  2  0
  8 12  2  0
 12 13  1  0
 13 14  2  0
 14 15  1  0
 15 16  2  0
 16 17  1  0
 17 18  1  0
 17 19  1  0
 17 20  1  0
 16 21  1  0
 21 22  2  0
  3 23  1  0
 23 24  2  0
 23 25  1  0
  2 26  1  0
 26 27  1  0
 27  2  1  0
 22  7  1  0
 22 13  1  0
  1 28  1  0
  1 29  1  0
  1 30  1  0
  3 31  1  1
  4 32  1  0
 10 33  1  0
 10 34  1  0
 12 35  1  0
 14 36  1  0
 15 37  1  0
 21 38  1  0
 25 39  1  0
 26 40  1  0
 26 41  1  0
 27 42  1  0
 27 43  1  0
M  END
>  <smiles>  (16) 
CC1([C@H](NC(=O)n2c(C(N)=O)cc3ccc(C(F)(F)F)cc32)C(=O)O)CC1

>  <score_type>  (16) 
oracle

>  <origin>  (16) 
adg

>  <m_score__min__energy>  (16) 
-9.5

>  <m_primary>  (16) 
energy

$$$$
17:0
     RDKit          3D

 35 36  0  0  0  0  0  0  0  0999 V2000
   -7.0950   18.1000  -32.9570 C   0  0  0  0  0  0  0  0  0  0  0  0
   -7.3740   19.5030  -32.5290 C   0  0  0  0  0  0  0  0  0  0  0  0
   -8.6380   19.9970  -32.7200 C   0  0  0  0  0  0  0  0  0  0  0  0
   -8.8840   21.2900  -32.3230 C   0  0  0  0  0  0  0  0  0  0  0  0
   -7.8720   22.0500  -31.7490 C   0  0  0  0  0  0  0  0  0  0  0  0
   -7.9070   23.3200  -31.2980 C   0  0  0  0  0  0  0  0  0  0  0  0
   -6.6170   23.6150  -30.8090 C   0  0  0  0  0  0  0  0  0  0  0  0
   -6.3810   24.9140  -30.1990 C   0  0  0  0  0  0  0  0  0  0  0  0
   -5.0330   25.4520  -30.1770 N   0  0  0  0  0  0  0  0  0  0  0  0
   -7.2360   25.6510  -29.6680 O   0  0  0  0  0  0  0  0  0  0  0  0
   -5.8160   22.5570  -30.9660 N   0  0  0  0  0  0  0  0  0  0  0  0
   -4.4350   22.3780  -30.8160 C   0  0  0  0  0  0  0  0  0  0  0  0
   -3.8490   21.7480  -31.7850 O   0  0  0  0  0  0  0  0  0  0  0  0
   -3.5450   22.7870  -29.7660 C   0  0  0  0  0  0  0  0  0  0  0  0
   -3.8370   23.2210  -28.6310 O   0  0  0  0  0  0  0  0  0  0  0  0
   -2.1050   22.7080  -29.9870 N   0  0  0  0  0  0  0  0  0  0  0  0
   -1.2570   23.1430  -28.8660 C   0  0  0  0  0  0  0  0  0  0  0  0
   -1.2160   24.6110  -28.7760 C   0  0  0  0  0  0  0  0  0  0  0  0
   -0.0980   25.1420  -28.4950 O   0  0  0  0  0  0  0  0  0  0  0  0
   -2.3130   25.4380  -28.9780 O   0  0  0  0  0  0  0  0  0  0  0  0
   -6.6000   21.5820  -31.5460 C   0  0  0  0  0  0  0  0  0  0  0  0
   -6.3600   20.2770  -31.9500 C   0  0  0  0  0  0  0  0  0  0  0  0
   -6.9685   17.4639  -32.0685 H   0  0  0  0  0  0  0  0  0  0  0  0
   -7.9364   17.7261  -33.5589 H   0  0  0  0  0  0  0  0  0  0  0  0
   -6.1746   18.0764  -33.5589 H   0  0  0  0  0  0  0  0  0  0  0  0
   -9.4276   19.3808  -33.1748 H   0  0  0  0  0  0  0  0  0  0  0  0
   -9.8852   21.7245  -32.4602 H   0  0  0  0  0  0  0  0  0  0  0  0
   -8.7746   23.9962  -31.3092 H   0  0  0  0  0  0  0  0  0  0  0  0
   -4.4250   25.3520  -29.3350 H   0  0  0  0  0  0  0  0  0  0  0  0
   -4.7530   25.9320  -31.0570 H   0  0  0  0  0  0  0  0  0  0  0  0
   -1.7090   22.3660  -30.8840 H   0  0  0  0  0  0  0  0  0  0  0  0
   -1.6634   22.7361  -27.9283 H   0  0  0  0  0  0  0  0  0  0  0  0
   -0.2349   22.7731  -29.0350 H   0  0  0  0  0  0  0  0  0  0  0  0
   -3.1990   25.2740  -28.5000 H   0  0  0  0  0  0  0  0  0  0  0  0
   -5.3584   19.8433  -31.8137 H   0  0  0  0  0  0  0  0  0  0  0  0
  1  2  1  0
  2  3  2  0
  3  4  1  0
  4  5  2  0
  5  6  1  0
  6  7  2  0
  7  8  1  0
  8  9  1  0
  8 10  2  0
  7 11  1  0
 11 12  1  0
 12 13  2  0
 12 14  1  0
 14 15  2  0
 14 16  1  0
 16 17  1  0
 17 18  1  0
 18 19  2  0
 18 20  1  0
 11 21  1  0
 21 22  2  0
 22  2  1  0
 21  5  1  0
  1 23  1  0
  1 24  1  0
  1 25  1  0
  3 26  1  0
  4 27  1  0
  6 28  1  0
  9 29  1  0
  9 30  1  0
 16 31  1  0
 17 32  1  0
 17 33  1  0
 20 34  1  0
 22 35  1  0
M  END
>  <smiles>  (17) 
Cc1ccc2cc(C(N)=O)n(C(=O)C(=O)NCC(=O)O)c2c1

>  <score_type>  (17) 
oracle

>  <origin>  (17) 
adg

>  <m_score__min__energy>  (17) 
-9.5099999999999998

>  <m_primary>  (17) 
energy

$$$$
18:0
     RDKit          3D

 51 52  0  0  1  0  0  0  0  0999 V2000
   -4.7010   18.1480  -32.8160 C   0  0  0  0  0  0  0  0  0  0  0  0
   -5.4540   17.5850  -33.9200 N   0  0  0  0  0  0  0  0  0  0  0  0
   -5.7320   18.5200  -34.9620 C   0  0  0  0  0  0  0  0  0  0  0  0
   -6.6310   16.8760  -33.4620 C   0  0  0  0  0  0  0  0  0  0  0  0
   -7.2710   17.7460  -32.3760 C   0  0  0  0  0  0  0  0  0  0  0  0
   -7.9800   18.8710  -32.9540 N   0  0  0  0  0  0  0  0  0  0  0  0
   -7.9140   20.1670  -32.3230 C   0  0  0  0  0  0  0  0  0  0  0  0
   -9.0570   20.7350  -31.8360 C   0  0  0  0  0  0  0  0  0  0  0  0
   -8.9690   21.9700  -31.2380 C   0  0  0  0  0  0  0  0  0  0  0  0
   -7.7390   22.5970  -31.1470 C   0  0  0  0  0  0  0  0  0  0  0  0
   -7.4270   23.8020  -30.6030 C   0  0  0  0  0  0  0  0  0  0  0  0
   -6.0580   23.9540  -30.7740 C   0  0  0  0  0  0  0  0  0  0  0  0
   -5.4320   25.2240  -30.3780 C   0  0  0  0  0  0  0  0  0  0  0  0
   -6.0520   26.0530  -29.3790 N   0  0  0  0  0  0  0  0  0  0  0  0
   -4.3660   25.6630  -30.8480 O   0  0  0  0  0  0  0  0  0  0  0  0
   -5.5080   22.9110  -31.3850 N   0  0  0  0  0  0  0  0  0  0  0  0
   -4.1940   22.4680  -31.6010 C   0  0  0  0  0  0  0  0  0  0  0  0
   -3.3430   22.9480  -30.7150 O   0  0  0  0  0  0  0  0  0  0  0  0
   -3.5670   21.6320  -32.5590 C   0  0  0  0  0  0  0  0  0  0  0  0
   -2.4170   21.0220  -32.5730 C   0  0  0  0  0  0  0  0  0  0  0  0
   -1.9590   20.1930  -33.6990 C   0  0  0  0  0  0  0  0  0  0  0  0
   -2.7880   19.7940  -34.5630 O   0  0  0  0  0  0  0  0  0  0  0  0
   -0.6260   19.8410  -33.8280 O   0  0  0  0  0  0  0  0  0  0  0  0
    0.4260   20.7660  -33.7680 C   0  0  0  0  0  0  0  0  0  0  0  0
    0.4120   21.6490  -34.9650 C   0  0  0  0  0  0  0  0  0  0  0  0
    1.1430   22.6690  -35.0720 O   0  0  0  0  0  0  0  0  0  0  0  0
   -0.4620   21.3200  -36.0090 O   0  0  0  0  0  0  0  0  0  0  0  0
   -6.5720   22.0630  -31.6220 C   0  0  0  0  0  0  0  0  0  0  0  0
   -6.6800   20.8160  -32.2220 C   0  0  0  0  0  0  0  0  0  0  0  0
   -5.1430   17.8176  -31.8644 H   0  0  0  0  0  0  0  0  0  0  0  0
   -3.6566   17.8074  -32.8731 H   0  0  0  0  0  0  0  0  0  0  0  0
   -4.7322   19.2461  -32.8731 H   0  0  0  0  0  0  0  0  0  0  0  0
   -6.0192   19.4859  -34.5209 H   0  0  0  0  0  0  0  0  0  0  0  0
   -4.8346   18.6533  -35.5841 H   0  0  0  0  0  0  0  0  0  0  0  0
   -6.5564   18.1414  -35.5841 H   0  0  0  0  0  0  0  0  0  0  0  0
   -7.3344   16.7303  -34.2951 H   0  0  0  0  0  0  0  0  0  0  0  0
   -6.3681   15.8822  -33.0704 H   0  0  0  0  0  0  0  0  0  0  0  0
   -7.9793   17.1345  -31.7978 H   0  0  0  0  0  0  0  0  0  0  0  0
   -6.4729   18.1345  -31.7263 H   0  0  0  0  0  0  0  0  0  0  0  0
   -8.5310   18.7490  -33.8190 H   0  0  0  0  0  0  0  0  0  0  0  0
  -10.0238   20.2172  -31.9202 H   0  0  0  0  0  0  0  0  0  0  0  0
   -9.8698   22.4559  -30.8349 H   0  0  0  0  0  0  0  0  0  0  0  0
   -8.1179   24.5120  -30.1248 H   0  0  0  0  0  0  0  0  0  0  0  0
   -6.8560   26.6300  -29.7320 H   0  0  0  0  0  0  0  0  0  0  0  0
   -5.7220   26.0690  -28.3860 H   0  0  0  0  0  0  0  0  0  0  0  0
   -4.1681   21.4669  -33.4653 H   0  0  0  0  0  0  0  0  0  0  0  0
   -1.7557   21.1316  -31.7008 H   0  0  0  0  0  0  0  0  0  0  0  0
    0.3158   21.3813  -32.8629 H   0  0  0  0  0  0  0  0  0  0  0  0
    1.3798   20.2188  -33.7406 H   0  0  0  0  0  0  0  0  0  0  0  0
   -1.2930   20.8100  -35.7590 H   0  0  0  0  0  0  0  0  0  0  0  0
   -5.7791   20.3301  -32.6249 H   0  0  0  0  0  0  0  0  0  0  0  0
  1  2  1  0
  2  3  1  0
  2  4  1  0
  4  5  1  0
  5  6  1  0
  6  7  1  0
  7  8  2  0
  8  9  1  0
  9 10  2  0
 10 11  1  0
 11 12  2  0
 12 13  1  0
 13 14  1  0
 13 15  2  0
 12 16  1  0
 16 17  1  0
 17 18  2  0
 17 19  1  0
 19 20  2  0
 20 21  1  0
 21 22  2  0
 21 23  1  0
 23 24  1  0
 24 25  1  0
 25 26  2  0
 25 27  1  0
 16 28  1  0
 28 29  2  0
 29  7  1  0
 28 10  1  0
  1 30  1  0
  1 31  1  0
  1 32  1  0
  3 33  1  0
  3 34  1  0
  3 35  1  0
  4 36  1  0
  4 37  1  0
  5 38  1  0
  5 39  1  0
  6 40  1  0
  8 41  1  0
  9 42  1  0
 11 43  1  0
 14 44  1  0
 14 45  1  0
 19 46  1  0
 20 47  1  0
 24 48  1  0
 24 49  1  0
 27 50  1  0
 29 51  1  0
M  END
>  <smiles>  (18) 
CN(C)CCNc1ccc2cc(C(N)=O)n(C(=O)C=CC(=O)OCC(=O)O)c2c1

>  <score_type>  (18) 
oracle

>  <origin>  (18) 
adg

>  <m_score__min__energy>  (18) 
-9.8300000000000001

>  <m_primary>  (18) 
energy

$$$$
19:0
     RDKit          3D

 38 39  0  0  0  0  0  0  0  0999 V2000
   -8.0070   18.2010  -32.8850 C   0  0  0  0  0  0  0  0  0  0  0  0
   -7.8630   19.5820  -32.3050 C   0  0  0  0  0  0  0  0  0  0  0  0
   -9.0010   20.2860  -31.9920 C   0  0  0  0  0  0  0  0  0  0  0  0
   -8.8310   21.5460  -31.4630 C   0  0  0  0  0  0  0  0  0  0  0  0
   -7.5730   22.0630  -31.2620 C   0  0  0  0  0  0  0  0  0  0  0  0
   -7.1860   23.2700  -30.7810 C   0  0  0  0  0  0  0  0  0  0  0  0
   -5.7750   23.3400  -30.7820 C   0  0  0  0  0  0  0  0  0  0  0  0
   -5.1170   24.5260  -30.3010 C   0  0  0  0  0  0  0  0  0  0  0  0
   -5.4060   25.0220  -28.9500 N   0  0  0  0  0  0  0  0  0  0  0  0
   -4.2850   25.2480  -30.8900 O   0  0  0  0  0  0  0  0  0  0  0  0
   -5.3150   22.1480  -31.2750 N   0  0  0  0  0  0  0  0  0  0  0  0
   -3.9610   21.8960  -31.4870 C   0  0  0  0  0  0  0  0  0  0  0  0
   -3.6610   21.7090  -32.7410 O   0  0  0  0  0  0  0  0  0  0  0  0
   -2.8250   21.8040  -30.6240 C   0  0  0  0  0  0  0  0  0  0  0  0
   -2.1860   20.7980  -30.2490 O   0  0  0  0  0  0  0  0  0  0  0  0
   -2.2750   23.0280  -30.0600 N   0  0  0  0  0  0  0  0  0  0  0  0
   -1.1130   22.8230  -29.1910 C   0  0  0  0  0  0  0  0  0  0  0  0
   -1.2130   23.6710  -27.9480 C   0  0  0  0  0  0  0  0  0  0  0  0
   -2.3250   24.6440  -28.0120 C   0  0  0  0  0  0  0  0  0  0  0  0
   -3.3220   24.5840  -27.2390 O   0  0  0  0  0  0  0  0  0  0  0  0
   -2.2600   25.6690  -28.9710 O   0  0  0  0  0  0  0  0  0  0  0  0
   -6.4070   21.3790  -31.5650 C   0  0  0  0  0  0  0  0  0  0  0  0
   -6.6000   20.1220  -32.0930 C   0  0  0  0  0  0  0  0  0  0  0  0
   -8.0835   17.4669  -32.0694 H   0  0  0  0  0  0  0  0  0  0  0  0
   -8.9147   18.1564  -33.5048 H   0  0  0  0  0  0  0  0  0  0  0  0
   -7.1281   17.9701  -33.5048 H   0  0  0  0  0  0  0  0  0  0  0  0
  -10.0026   19.8621  -32.1566 H   0  0  0  0  0  0  0  0  0  0  0  0
   -9.7134   22.1468  -31.1977 H   0  0  0  0  0  0  0  0  0  0  0  0
   -7.8633   24.0683  -30.4434 H   0  0  0  0  0  0  0  0  0  0  0  0
   -5.6780   26.0350  -28.8260 H   0  0  0  0  0  0  0  0  0  0  0  0
   -5.3310   24.3520  -28.1500 H   0  0  0  0  0  0  0  0  0  0  0  0
   -2.6710   23.9620  -30.2570 H   0  0  0  0  0  0  0  0  0  0  0  0
   -1.0632   21.7632  -28.9007 H   0  0  0  0  0  0  0  0  0  0  0  0
   -0.2067   23.1139  -29.7424 H   0  0  0  0  0  0  0  0  0  0  0  0
   -1.3719   23.0107  -27.0827 H   0  0  0  0  0  0  0  0  0  0  0  0
   -0.2764   24.2406  -27.8567 H   0  0  0  0  0  0  0  0  0  0  0  0
   -3.1160   26.0710  -29.3390 H   0  0  0  0  0  0  0  0  0  0  0  0
   -5.7181   19.5203  -32.3580 H   0  0  0  0  0  0  0  0  0  0  0  0
  1  2  1  0
  2  3  2  0
  3  4  1  0
  4  5  2  0
  5  6  1  0
  6  7  2  0
  7  8  1  0
  8  9  1  0
  8 10  2  0
  7 11  1  0
 11 12  1  0
 12 13  2  0
 12 14  1  0
 14 15  2  0
 14 16  1  0
 16 17  1  0
 17 18  1  0
 18 19  1  0
 19 20  2  0
 19 21  1  0
 11 22  1  0
 22 23  2  0
 23  2  1  0
 22  5  1  0
  1 24  1  0
  1 25  1  0
  1 26  1  0
  3 27  1  0
  4 28  1  0
  6 29  1  0
  9 30  1  0
  9 31  1  0
 16 32  1  0
 17 33  1  0
 17 34  1  0
 18 35  1  0
 18 36  1  0
 21 37  1  0
 23 38  1  0
M  END
>  <smiles>  (19) 
Cc1ccc2cc(C(N)=O)n(C(=O)C(=O)NCCC(=O)O)c2c1

>  <score_type>  (19) 
oracle

>  <origin>  (19) 
adg

>  <m_score__min__energy>  (19) 
-9.6500000000000004

>  <m_primary>  (19) 
energy

$$$$
20:0
     RDKit          3D

 38 39  0  0  0  0  0  0  0  0999 V2000
   -6.1320   25.7700  -29.1780 N   0  0  0  0  0  0  0  0  0  0  0  0
   -5.3460   25.0750  -30.1700 C   0  0  0  0  0  0  0  0  0  0  0  0
   -4.2790   25.6500  -30.4870 O   0  0  0  0  0  0  0  0  0  0  0  0
   -5.8200   23.8120  -30.7180 C   0  0  0  0  0  0  0  0  0  0  0  0
   -7.1480   23.7220  -31.1560 C   0  0  0  0  0  0  0  0  0  0  0  0
   -7.3560   22.4290  -31.5120 C   0  0  0  0  0  0  0  0  0  0  0  0
   -8.4800   21.8120  -32.0060 C   0  0  0  0  0  0  0  0  0  0  0  0
   -8.4850   20.4710  -32.3150 C   0  0  0  0  0  0  0  0  0  0  0  0
   -7.3160   19.7760  -32.1070 C   0  0  0  0  0  0  0  0  0  0  0  0
   -7.2920   18.3290  -32.4320 C   0  0  0  0  0  0  0  0  0  0  0  0
   -8.5050   17.7240  -32.2900 F   0  0  0  0  0  0  0  0  0  0  0  0
   -6.3140   17.7450  -31.6280 F   0  0  0  0  0  0  0  0  0  0  0  0
   -6.8440   18.1880  -33.7500 F   0  0  0  0  0  0  0  0  0  0  0  0
   -6.1850   20.4050  -31.6070 C   0  0  0  0  0  0  0  0  0  0  0  0
   -6.1810   21.7640  -31.2950 C   0  0  0  0  0  0  0  0  0  0  0  0
   -5.2170   22.6130  -30.8060 N   0  0  0  0  0  0  0  0  0  0  0  0
   -3.9700   22.1490  -30.4160 C   0  0  0  0  0  0  0  0  0  0  0  0
   -3.3620   21.4320  -31.3530 O   0  0  0  0  0  0  0  0  0  0  0  0
   -3.1730   22.2480  -29.2850 N   0  0  0  0  0  0  0  0  0  0  0  0
   -1.7420   22.6050  -29.5830 C   0  0  0  0  0  0  0  0  0  0  0  0
   -1.2570   24.0300  -28.6010 P   0  0  0  0  0  0  0  0  0  0  0  0
    0.1440   24.4320  -28.9760 O   0  0  0  0  0  0  0  0  0  0  0  0
   -1.2630   23.5710  -26.9630 O   0  0  0  0  0  0  0  0  0  0  0  0
   -2.3430   25.3010  -28.7670 O   0  0  0  0  0  0  0  0  0  0  0  0
   -3.4690   22.2090  -27.9130 C   0  0  0  0  0  0  0  0  0  0  0  0
   -3.3740   21.2130  -27.1530 O   0  0  0  0  0  0  0  0  0  0  0  0
   -3.9280   23.3790  -27.2490 O   0  0  0  0  0  0  0  0  0  0  0  0
   -6.4950   25.2440  -28.3520 H   0  0  0  0  0  0  0  0  0  0  0  0
   -6.3440   26.7960  -29.2700 H   0  0  0  0  0  0  0  0  0  0  0  0
   -7.8806   24.5413  -31.2023 H   0  0  0  0  0  0  0  0  0  0  0  0
   -9.3955   22.4027  -32.1577 H   0  0  0  0  0  0  0  0  0  0  0  0
   -9.3842   19.9764  -32.7109 H   0  0  0  0  0  0  0  0  0  0  0  0
   -5.2683   19.8168  -31.4528 H   0  0  0  0  0  0  0  0  0  0  0  0
   -1.0930   21.7521  -29.3353 H   0  0  0  0  0  0  0  0  0  0  0  0
   -1.6415   22.8471  -30.6513 H   0  0  0  0  0  0  0  0  0  0  0  0
   -1.8690   22.7820  -26.8310 H   0  0  0  0  0  0  0  0  0  0  0  0
   -3.2830   25.0320  -28.6030 H   0  0  0  0  0  0  0  0  0  0  0  0
   -3.2750   24.1490  -27.1810 H   0  0  0  0  0  0  0  0  0  0  0  0
  1  2  1  0
  2  3  2  0
  2  4  1  0
  4  5  2  0
  5  6  1  0
  6  7  2  0
  7  8  1  0
  8  9  2  0
  9 10  1  0
 10 11  1  0
 10 12  1  0
 10 13  1  0
  9 14  1  0
 14 15  2  0
 15 16  1  0
 16 17  1  0
 17 18  2  0
 17 19  1  0
 19 20  1  0
 20 21  1  0
 21 22  2  0
 21 23  1  0
 21 24  1  0
 19 25  1  0
 25 26  2  0
 25 27  1  0
 16  4  1  0
 15  6  1  0
  1 28  1  0
  1 29  1  0
  5 30  1  0
  7 31  1  0
  8 32  1  0
 14 33  1  0
 20 34  1  0
 20 35  1  0
 23 36  1  0
 24 37  1  0
 27 38  1  0
M  END
>  <smiles>  (20) 
NC(=O)c1cc2ccc(C(F)(F)F)cc2n1C(=O)N(CP(=O)(O)O)C(=O)O

>  <score_type>  (20) 
oracle

>  <origin>  (20) 
adg

>  <m_score__min__energy>  (20) 
-7.8700000000000001

>  <m_primary>  (20) 
energy

$$$$
22:0
     RDKit          3D

 37 39  0  0  0  0  0  0  0  0999 V2000
   -6.7010   17.3920  -33.5310 C   0  0  0  0  0  0  0  0  0  0  0  0
   -6.8910   18.4790  -33.0760 C   0  0  0  0  0  0  0  0  0  0  0  0
   -7.1020   19.8000  -32.5320 C   0  0  0  0  0  0  0  0  0  0  0  0
   -8.3840   20.2760  -32.3710 C   0  0  0  0  0  0  0  0  0  0  0  0
   -8.5410   21.5360  -31.8520 C   0  0  0  0  0  0  0  0  0  0  0  0
   -7.4610   22.3040  -31.4990 C   0  0  0  0  0  0  0  0  0  0  0  0
   -7.3580   23.5700  -30.9680 C   0  0  0  0  0  0  0  0  0  0  0  0
   -6.0050   23.8940  -30.7950 C   0  0  0  0  0  0  0  0  0  0  0  0
   -5.5930   25.1610  -30.2540 C   0  0  0  0  0  0  0  0  0  0  0  0
   -6.1240   25.8560  -29.1550 N   0  0  0  0  0  0  0  0  0  0  0  0
   -4.6170   25.7440  -30.8410 O   0  0  0  0  0  0  0  0  0  0  0  0
   -5.3060   22.8270  -31.2180 N   0  0  0  0  0  0  0  0  0  0  0  0
   -3.9030   22.6630  -31.2440 C   0  0  0  0  0  0  0  0  0  0  0  0
   -3.1510   23.6460  -30.9120 O   0  0  0  0  0  0  0  0  0  0  0  0
   -3.2230   21.5240  -31.6000 O   0  0  0  0  0  0  0  0  0  0  0  0
   -1.8510   21.4030  -31.6440 C   0  0  0  0  0  0  0  0  0  0  0  0
   -1.1650   21.6280  -30.6170 O   0  0  0  0  0  0  0  0  0  0  0  0
   -1.1950   21.0240  -32.8480 N   0  0  0  0  0  0  0  0  0  0  0  0
    0.2000   20.8220  -33.1820 C   0  0  0  0  0  0  0  0  0  0  0  0
   -0.1320   21.0260  -34.6460 C   0  0  0  0  0  0  0  0  0  0  0  0
    0.0380   22.3260  -35.0840 O   0  0  0  0  0  0  0  0  0  0  0  0
   -1.5220   20.6770  -34.2180 C   0  0  0  0  0  0  0  0  0  0  0  0
   -6.1700   21.8600  -31.6460 C   0  0  0  0  0  0  0  0  0  0  0  0
   -6.0120   20.5900  -32.1700 C   0  0  0  0  0  0  0  0  0  0  0  0
   -6.5259   16.3902  -33.9503 H   0  0  0  0  0  0  0  0  0  0  0  0
   -9.2551   19.6649  -32.6499 H   0  0  0  0  0  0  0  0  0  0  0  0
   -9.5553   21.9392  -31.7160 H   0  0  0  0  0  0  0  0  0  0  0  0
   -8.2054   24.2254  -30.7183 H   0  0  0  0  0  0  0  0  0  0  0  0
   -5.7550   25.7250  -28.1660 H   0  0  0  0  0  0  0  0  0  0  0  0
   -6.9190   26.5360  -29.3520 H   0  0  0  0  0  0  0  0  0  0  0  0
    0.8779   21.5806  -32.7637 H   0  0  0  0  0  0  0  0  0  0  0  0
    0.7308   19.9181  -32.8485 H   0  0  0  0  0  0  0  0  0  0  0  0
    0.3872   20.5199  -35.4732 H   0  0  0  0  0  0  0  0  0  0  0  0
   -0.8100   22.7130  -35.4190 H   0  0  0  0  0  0  0  0  0  0  0  0
   -2.3013   21.3105  -34.6668 H   0  0  0  0  0  0  0  0  0  0  0  0
   -1.9428   19.6885  -34.4540 H   0  0  0  0  0  0  0  0  0  0  0  0
   -4.9958   20.1913  -32.3052 H   0  0  0  0  0  0  0  0  0  0  0  0
  1  2  3  0
  2  3  1  0
  3  4  2  0
  4  5  1  0
  5  6  2  0
  6  7  1  0
  7  8  2  0
  8  9  1  0
  9 10  1  0
  9 11  2  0
  8 12  1  0
 12 13  1  0
 13 14  2  0
 13 15  1  0
 15 16  1  0
 16 17  2  0
 16 18  1  0
 18 19  1  0
 19 20  1  0
 20 21  1  0
 20 22  1  0
 12 23  1  0
 23 24  2  0
 24  3  1  0
 23  6  1  0
 22 18  1  0
  1 25  1  0
  4 26  1  0
  5 27  1  0
  7 28  1  0
 10 29  1  0
 10 30  1  0
 19 31  1  0
 19 32  1  0
 20 33  1  0
 21 34  1  0
 22 35  1  0
 22 36  1  0
 24 37  1  0
M  END
>  <smiles>  (21) 
C#Cc1ccc2cc(C(N)=O)n(C(=O)OC(=O)N3CC(O)C3)c2c1

>  <score_type>  (21) 
oracle

>  <origin>  (21) 
adg

>  <m_score__min__energy>  (21) 
-9.8900000000000006

>  <m_primary>  (21) 
energy

$$$$
23:0
     RDKit          3D

 42 43  0  0  0  0  0  0  0  0999 V2000
   -2.6650   21.3650  -32.2530 C   0  0  0  0  0  0  0  0  0  0  0  0
   -3.1520   22.3220  -31.2980 N   0  0  0  0  0  0  0  0  0  0  0  0
   -2.1830   22.6000  -30.2240 C   0  0  0  0  0  0  0  0  0  0  0  0
   -0.9540   22.6260  -30.4640 O   0  0  0  0  0  0  0  0  0  0  0  0
   -2.6170   22.8590  -28.8440 C   0  0  0  0  0  0  0  0  0  0  0  0
   -2.2020   24.2760  -28.5250 C   0  0  0  0  0  0  0  0  0  0  0  0
   -2.3980   25.1350  -29.3400 O   0  0  0  0  0  0  0  0  0  0  0  0
   -4.3520   23.0010  -31.2070 C   0  0  0  0  0  0  0  0  0  0  0  0
   -4.1750   24.3140  -31.1630 O   0  0  0  0  0  0  0  0  0  0  0  0
   -5.7060   22.6670  -31.1600 N   0  0  0  0  0  0  0  0  0  0  0  0
   -6.6080   23.3880  -30.4230 C   0  0  0  0  0  0  0  0  0  0  0  0
   -6.5050   24.6500  -29.7250 C   0  0  0  0  0  0  0  0  0  0  0  0
   -5.3630   24.9060  -28.8520 N   0  0  0  0  0  0  0  0  0  0  0  0
   -7.3050   25.6110  -29.7700 O   0  0  0  0  0  0  0  0  0  0  0  0
   -7.8460   22.7210  -30.4840 C   0  0  0  0  0  0  0  0  0  0  0  0
   -7.7020   21.6080  -31.2450 C   0  0  0  0  0  0  0  0  0  0  0  0
   -8.6140   20.6300  -31.5710 C   0  0  0  0  0  0  0  0  0  0  0  0
   -8.2320   19.5590  -32.3360 C   0  0  0  0  0  0  0  0  0  0  0  0
   -6.9370   19.4960  -32.7550 C   0  0  0  0  0  0  0  0  0  0  0  0
   -6.4750   18.4120  -33.5470 N   0  0  0  0  0  0  0  0  0  0  0  0
   -5.7110   18.6030  -34.7650 C   0  0  0  0  0  0  0  0  0  0  0  0
   -6.7780   17.0610  -33.1230 C   0  0  0  0  0  0  0  0  0  0  0  0
   -6.0320   20.4930  -32.4170 C   0  0  0  0  0  0  0  0  0  0  0  0
   -6.3790   21.5890  -31.6530 C   0  0  0  0  0  0  0  0  0  0  0  0
   -2.2282   20.5066  -31.7217 H   0  0  0  0  0  0  0  0  0  0  0  0
   -3.4975   21.0206  -32.8841 H   0  0  0  0  0  0  0  0  0  0  0  0
   -1.8966   21.8353  -32.8841 H   0  0  0  0  0  0  0  0  0  0  0  0
   -3.7091   22.7550  -28.7628 H   0  0  0  0  0  0  0  0  0  0  0  0
   -2.1636   22.1433  -28.1425 H   0  0  0  0  0  0  0  0  0  0  0  0
   -1.7281   24.5165  -27.5619 H   0  0  0  0  0  0  0  0  0  0  0  0
   -4.5410   25.4050  -29.2760 H   0  0  0  0  0  0  0  0  0  0  0  0
   -5.3880   24.5950  -27.8520 H   0  0  0  0  0  0  0  0  0  0  0  0
   -8.7757   23.0482  -29.9955 H   0  0  0  0  0  0  0  0  0  0  0  0
   -9.6524   20.7083  -31.2165 H   0  0  0  0  0  0  0  0  0  0  0  0
   -8.9515   18.7714  -32.6045 H   0  0  0  0  0  0  0  0  0  0  0  0
   -4.6730   18.8625  -34.5098 H   0  0  0  0  0  0  0  0  0  0  0  0
   -5.7225   17.6743  -35.3545 H   0  0  0  0  0  0  0  0  0  0  0  0
   -6.1581   19.4170  -35.3545 H   0  0  0  0  0  0  0  0  0  0  0  0
   -6.7883   17.0152  -32.0240 H   0  0  0  0  0  0  0  0  0  0  0  0
   -7.7643   16.7673  -33.5115 H   0  0  0  0  0  0  0  0  0  0  0  0
   -6.0116   16.3742  -33.5115 H   0  0  0  0  0  0  0  0  0  0  0  0
   -4.9948   20.4059  -32.7730 H   0  0  0  0  0  0  0  0  0  0  0  0
  1  2  1  0
  2  3  1  0
  3  4  2  0
  3  5  1  0
  5  6  1  0
  6  7  2  0
  2  8  1  0
  8  9  2  0
  8 10  1  0
 10 11  1  0
 11 12  1  0
 12 13  1  0
 12 14  2  0
 11 15  2  0
 15 16  1  0
 16 17  2  0
 17 18  1  0
 18 19  2  0
 19 20  1  0
 20 21  1  0
 20 22  1  0
 19 23  1  0
 23 24  2  0
 24 10  1  0
 24 16  1  0
  1 25  1  0
  1 26  1  0
  1 27  1  0
  5 28  1  0
  5 29  1  0
  6 30  1  0
 13 31  1  0
 13 32  1  0
 15 33  1  0
 17 34  1  0
 18 35  1  0
 21 36  1  0
 21 37  1  0
 21 38  1  0
 22 39  1  0
 22 40  1  0
 22 41  1  0
 23 42  1  0
M  END
>  <smiles>  (22) 
CN(C(=O)CC=O)C(=O)n1c(C(N)=O)cc2ccc(N(C)C)cc21

>  <score_type>  (22) 
oracle

>  <origin>  (22) 
adg

>  <m_score__min__energy>  (22) 
-8.4800000000000004

>  <m_primary>  (22) 
energy

$$$$
24:0
     RDKit          3D

 37 38  0  0  0  0  0  0  0  0999 V2000
   -1.1600   21.1790  -34.2480 N   0  0  0  0  0  0  0  0  0  0  0  0
   -1.8440   21.2360  -32.9740 C   0  0  0  0  0  0  0  0  0  0  0  0
   -1.1620   21.7180  -32.0420 O   0  0  0  0  0  0  0  0  0  0  0  0
   -3.2040   20.7560  -32.8760 C   0  0  0  0  0  0  0  0  0  0  0  0
   -3.5820   19.4920  -33.3410 C   0  0  0  0  0  0  0  0  0  0  0  0
   -4.9170   19.3070  -33.1180 C   0  0  0  0  0  0  0  0  0  0  0  0
   -5.7570   18.2470  -33.3890 C   0  0  0  0  0  0  0  0  0  0  0  0
   -7.0900   18.3290  -33.0520 C   0  0  0  0  0  0  0  0  0  0  0  0
   -7.5610   19.4640  -32.4510 C   0  0  0  0  0  0  0  0  0  0  0  0
   -8.9990   19.5380  -32.0920 C   0  0  0  0  0  0  0  0  0  0  0  0
   -9.2500   18.5820  -31.1270 F   0  0  0  0  0  0  0  0  0  0  0  0
   -9.2040   20.7750  -31.5090 F   0  0  0  0  0  0  0  0  0  0  0  0
   -9.8090   19.3890  -33.1960 F   0  0  0  0  0  0  0  0  0  0  0  0
   -6.6980   20.5140  -32.1880 C   0  0  0  0  0  0  0  0  0  0  0  0
   -5.3540   20.4750  -32.5100 C   0  0  0  0  0  0  0  0  0  0  0  0
   -4.3100   21.3280  -32.3750 N   0  0  0  0  0  0  0  0  0  0  0  0
   -4.4100   22.6140  -31.7920 C   0  0  0  0  0  0  0  0  0  0  0  0
   -5.0040   23.5970  -32.2890 O   0  0  0  0  0  0  0  0  0  0  0  0
   -3.8070   22.8650  -30.5430 O   0  0  0  0  0  0  0  0  0  0  0  0
   -4.5270   23.5150  -29.5340 C   0  0  0  0  0  0  0  0  0  0  0  0
   -4.9090   22.8830  -28.5050 O   0  0  0  0  0  0  0  0  0  0  0  0
   -4.8620   24.9600  -29.6440 C   0  0  1  0  0  0  0  0  0  0  0  0
   -4.2440   25.5650  -30.8100 N   0  0  0  0  0  0  0  0  0  0  0  0
   -6.3600   25.1220  -29.8070 C   0  0  0  0  0  0  0  0  0  0  0  0
   -7.1320   23.6030  -30.4150 S   0  0  0  0  0  0  0  0  0  0  0  0
   -1.3550   21.9200  -34.9600 H   0  0  0  0  0  0  0  0  0  0  0  0
   -0.4960   20.3870  -34.3920 H   0  0  0  0  0  0  0  0  0  0  0  0
   -2.9090   18.7609  -33.8128 H   0  0  0  0  0  0  0  0  0  0  0  0
   -5.3641   17.3402  -33.8721 H   0  0  0  0  0  0  0  0  0  0  0  0
   -7.7691   17.4901  -33.2641 H   0  0  0  0  0  0  0  0  0  0  0  0
   -7.0981   21.4165  -31.7028 H   0  0  0  0  0  0  0  0  0  0  0  0
   -4.4934   25.4491  -28.7302 H   0  0  0  0  0  0  0  0  0  0  0  0
   -3.5190   24.9150  -31.2380 H   0  0  0  0  0  0  0  0  0  0  0  0
   -4.9370   25.7240  -31.5920 H   0  0  0  0  0  0  0  0  0  0  0  0
   -6.7993   25.3802  -28.8321 H   0  0  0  0  0  0  0  0  0  0  0  0
   -6.5418   25.9188  -30.5433 H   0  0  0  0  0  0  0  0  0  0  0  0
   -6.1650   22.6180  -30.6750 H   0  0  0  0  0  0  0  0  0  0  0  0
  1  2  1  0
  2  3  2  0
  2  4  1  0
  4  5  2  0
  5  6  1  0
  6  7  2  0
  7  8  1  0
  8  9  2  0
  9 10  1  0
 10 11  1  0
 10 12  1  0
 10 13  1  0
  9 14  1  0
 14 15  2  0
 15 16  1  0
 16 17  1  0
 17 18  2  0
 17 19  1  0
 19 20  1  0
 20 21  2  0
 20 22  1  0
 22 23  1  0
 22 24  1  0
 24 25  1  0
 16  4  1  0
 15  6  1  0
  1 26  1  0
  1 27  1  0
  5 28  1  0
  7 29  1  0
  8 30  1  0
 14 31  1  0
 22 32  1  1
 23 33  1  0
 23 34  1  0
 24 35  1  0
 24 36  1  0
 25 37  1  0
M  END
>  <smiles>  (23) 
NC(=O)c1cc2ccc(C(F)(F)F)cc2n1C(=O)OC(=O)[C@@H](N)CS

>  <score_type>  (23) 
oracle

>  <origin>  (23) 
adg

>  <m_score__min__energy>  (23) 
-8.3900000000000006

>  <m_primary>  (23) 
energy

$$$$
25:0
     RDKit          3D

 40 41  0  0  0  0  0  0  0  0999 V2000
   -7.2030   17.3640  -32.7180 C   0  0  0  0  0  0  0  0  0  0  0  0
   -6.5800   18.5040  -33.3650 N   0  0  0  0  0  0  0  0  0  0  0  0
   -5.7900   18.4100  -34.5680 C   0  0  0  0  0  0  0  0  0  0  0  0
   -6.7630   19.7820  -32.7690 C   0  0  0  0  0  0  0  0  0  0  0  0
   -8.0450   20.2300  -32.5370 C   0  0  0  0  0  0  0  0  0  0  0  0
   -8.2340   21.4660  -31.9610 C   0  0  0  0  0  0  0  0  0  0  0  0
   -7.1340   22.2410  -31.6230 C   0  0  0  0  0  0  0  0  0  0  0  0
   -7.0410   23.4710  -31.0560 C   0  0  0  0  0  0  0  0  0  0  0  0
   -5.6970   23.8200  -30.9200 C   0  0  0  0  0  0  0  0  0  0  0  0
   -5.2750   25.0790  -30.3450 C   0  0  0  0  0  0  0  0  0  0  0  0
   -6.1070   25.7120  -29.3460 N   0  0  0  0  0  0  0  0  0  0  0  0
   -4.2310   25.7080  -30.6240 O   0  0  0  0  0  0  0  0  0  0  0  0
   -4.9820   22.7940  -31.4090 N   0  0  0  0  0  0  0  0  0  0  0  0
   -3.5740   22.6750  -31.4910 C   0  0  0  0  0  0  0  0  0  0  0  0
   -3.0410   22.2700  -32.5670 O   0  0  0  0  0  0  0  0  0  0  0  0
   -2.6890   22.9710  -30.4710 O   0  0  0  0  0  0  0  0  0  0  0  0
   -2.7760   22.3990  -29.1740 C   0  0  0  0  0  0  0  0  0  0  0  0
   -1.8020   22.8460  -28.3060 O   0  0  0  0  0  0  0  0  0  0  0  0
   -2.2500   24.4310  -27.8760 P   0  0  0  0  0  0  0  0  0  0  0  0
   -1.7950   24.7850  -26.4880 O   0  0  0  0  0  0  0  0  0  0  0  0
   -3.9250   24.6440  -27.9400 O   0  0  0  0  0  0  0  0  0  0  0  0
   -1.5890   25.4980  -29.0380 O   0  0  0  0  0  0  0  0  0  0  0  0
   -5.8350   21.8240  -31.8420 C   0  0  0  0  0  0  0  0  0  0  0  0
   -5.6800   20.5810  -32.4200 C   0  0  0  0  0  0  0  0  0  0  0  0
   -7.1387   17.4817  -31.6262 H   0  0  0  0  0  0  0  0  0  0  0  0
   -8.2594   17.3038  -33.0187 H   0  0  0  0  0  0  0  0  0  0  0  0
   -6.6831   16.4424  -33.0187 H   0  0  0  0  0  0  0  0  0  0  0  0
   -4.7302   18.2839  -34.3018 H   0  0  0  0  0  0  0  0  0  0  0  0
   -6.1248   17.5454  -35.1599 H   0  0  0  0  0  0  0  0  0  0  0  0
   -5.9125   19.3291  -35.1599 H   0  0  0  0  0  0  0  0  0  0  0  0
   -8.9091   19.6062  -32.8093 H   0  0  0  0  0  0  0  0  0  0  0  0
   -9.2517   21.8372  -31.7698 H   0  0  0  0  0  0  0  0  0  0  0  0
   -7.8934   24.0958  -30.7510 H   0  0  0  0  0  0  0  0  0  0  0  0
   -7.1020   25.9470  -29.5400 H   0  0  0  0  0  0  0  0  0  0  0  0
   -5.6360   25.9090  -28.4340 H   0  0  0  0  0  0  0  0  0  0  0  0
   -3.7601   22.6474  -28.7499 H   0  0  0  0  0  0  0  0  0  0  0  0
   -2.6313   21.3147  -29.2898 H   0  0  0  0  0  0  0  0  0  0  0  0
   -4.2110   25.4250  -28.4550 H   0  0  0  0  0  0  0  0  0  0  0  0
   -2.2820   25.6710  -29.7280 H   0  0  0  0  0  0  0  0  0  0  0  0
   -4.6629   20.2086  -32.6117 H   0  0  0  0  0  0  0  0  0  0  0  0
  1  2  1  0
  2  3  1  0
  2  4  1  0
  4  5  2  0
  5  6  1  0
  6  7  2  0
  7  8  1  0
  8  9  2  0
  9 10  1  0
 10 11  1  0
 10 12  2  0
  9 13  1  0
 13 14  1  0
 14 15  2  0
 14 16  1  0
 16 17  1  0
 17 18  1  0
 18 19  1  0
 19 20  2  0
 19 21  1  0
 19 22  1  0
 13 23  1  0
 23 24  2  0
 24  4  1  0
 23  7  1  0
  1 25  1  0
  1 26  1  0
  1 27  1  0
  3 28  1  0
  3 29  1  0
  3 30  1  0
  5 31  1  0
  6 32  1  0
  8 33  1  0
 11 34  1  0
 11 35  1  0
 17 36  1  0
 17 37  1  0
 21 38  1  0
 22 39  1  0
 24 40  1  0
M  END
>  <smiles>  (24) 
CN(C)c1ccc2cc(C(N)=O)n(C(=O)OCOP(=O)(O)O)c2c1

>  <score_type>  (24) 
oracle

>  <origin>  (24) 
adg

>  <m_score__min__energy>  (24) 
-8.1099999999999994

>  <m_primary>  (24) 
energy

$$$$
26:0
     RDKit          3D

 39 40  0  0  1  0  0  0  0  0999 V2000
   -7.5730   23.3020  -31.0810 N   0  0  0  0  0  0  0  0  0  0  0  0
   -8.1300   22.0510  -31.3950 C   0  0  0  0  0  0  0  0  0  0  0  0
   -9.3690   21.9120  -31.0870 O   0  0  0  0  0  0  0  0  0  0  0  0
   -7.4890   20.9090  -31.9990 C   0  0  0  0  0  0  0  0  0  0  0  0
   -8.2010   19.6790  -32.0150 C   0  0  0  0  0  0  0  0  0  0  0  0
   -7.3870   18.7500  -32.5810 C   0  0  0  0  0  0  0  0  0  0  0  0
   -7.6170   17.4120  -32.8230 C   0  0  0  0  0  0  0  0  0  0  0  0
   -6.6540   16.6350  -33.4190 C   0  0  0  0  0  0  0  0  0  0  0  0
   -5.4720   17.2390  -33.7560 C   0  0  0  0  0  0  0  0  0  0  0  0
   -4.4210   16.4080  -34.4020 C   0  0  0  0  0  0  0  0  0  0  0  0
   -4.1380   16.9350  -35.6460 F   0  0  0  0  0  0  0  0  0  0  0  0
   -3.2970   16.3260  -33.6070 F   0  0  0  0  0  0  0  0  0  0  0  0
   -4.8640   15.1100  -34.5880 F   0  0  0  0  0  0  0  0  0  0  0  0
   -5.2530   18.5940  -33.5050 C   0  0  0  0  0  0  0  0  0  0  0  0
   -6.2160   19.3920  -32.9040 C   0  0  0  0  0  0  0  0  0  0  0  0
   -6.2830   20.7160  -32.5490 N   0  0  0  0  0  0  0  0  0  0  0  0
   -5.1900   21.5770  -32.7540 C   0  0  0  0  0  0  0  0  0  0  0  0
   -4.2370   21.0690  -33.4720 O   0  0  0  0  0  0  0  0  0  0  0  0
   -4.9560   22.9110  -32.3170 C   0  0  0  0  0  0  0  0  0  0  0  0
   -5.5810   23.9560  -32.5870 O   0  0  0  0  0  0  0  0  0  0  0  0
   -3.8550   23.1410  -31.4380 O   0  0  0  0  0  0  0  0  0  0  0  0
   -4.1030   23.3830  -30.0660 C   0  0  0  0  0  0  0  0  0  0  0  0
   -4.2180   24.8110  -29.6790 C   0  0  1  0  0  0  0  0  0  0  0  0
   -3.8620   25.6360  -30.7690 O   0  0  0  0  0  0  0  0  0  0  0  0
   -5.7160   25.0740  -29.4580 C   0  0  0  0  0  0  0  0  0  0  0  0
   -6.2740   25.4740  -30.6780 O   0  0  0  0  0  0  0  0  0  0  0  0
   -8.0930   24.1960  -31.1850 H   0  0  0  0  0  0  0  0  0  0  0  0
   -6.5850   23.3860  -30.7180 H   0  0  0  0  0  0  0  0  0  0  0  0
   -9.2210   19.5106  -31.6392 H   0  0  0  0  0  0  0  0  0  0  0  0
   -8.5796   16.9634  -32.5364 H   0  0  0  0  0  0  0  0  0  0  0  0
   -6.8258   15.5669  -33.6183 H   0  0  0  0  0  0  0  0  0  0  0  0
   -4.2901   19.0421  -33.7916 H   0  0  0  0  0  0  0  0  0  0  0  0
   -5.0454   22.8826  -29.7987 H   0  0  0  0  0  0  0  0  0  0  0  0
   -3.2260   22.9943  -29.5278 H   0  0  0  0  0  0  0  0  0  0  0  0
   -3.5829   25.0149  -28.8043 H   0  0  0  0  0  0  0  0  0  0  0  0
   -4.2410   25.2850  -31.5940 H   0  0  0  0  0  0  0  0  0  0  0  0
   -6.2078   24.1547  -29.1071 H   0  0  0  0  0  0  0  0  0  0  0  0
   -5.8565   25.8588  -28.7002 H   0  0  0  0  0  0  0  0  0  0  0  0
   -5.7920   25.0990  -31.4470 H   0  0  0  0  0  0  0  0  0  0  0  0
  1  2  1  0
  2  3  2  0
  2  4  1  0
  4  5  2  0
  5  6  1  0
  6  7  2  0
  7  8  1  0
  8  9  2  0
  9 10  1  0
 10 11  1  0
 10 12  1  0
 10 13  1  0
  9 14  1  0
 14 15  2  0
 15 16  1  0
 16 17  1  0
 17 18  2  0
 17 19  1  0
 19 20  2  0
 19 21  1  0
 21 22  1  0
 22 23  1  0
 23 24  1  0
 23 25  1  0
 25 26  1  0
 16  4  1  0
 15  6  1  0
  1 27  1  0
  1 28  1  0
  5 29  1  0
  7 30  1  0
  8 31  1  0
 14 32  1  0
 22 33  1  0
 22 34  1  0
 23 35  1  1
 24 36  1  0
 25 37  1  0
 25 38  1  0
 26 39  1  0
M  END
>  <smiles>  (25) 
NC(=O)c1cc2ccc(C(F)(F)F)cc2n1C(=O)C(=O)OCC(O)CO

>  <score_type>  (25) 
oracle

>  <origin>  (25) 
adg

>  <m_score__min__energy>  (25) 
-8.0399999999999991

>  <m_primary>  (25) 
energy

$$$$
27:0
     RDKit          3D

 45 46  0  0  0  0  0  0  0  0999 V2000
   -4.4800   23.1680  -28.1010 C   0  0  0  0  0  0  0  0  0  0  0  0
   -3.7910   23.7960  -29.2240 N   0  0  0  0  0  0  0  0  0  0  0  0
   -2.4490   23.3750  -29.5690 C   0  0  0  0  0  0  0  0  0  0  0  0
   -1.3740   24.1600  -28.8810 C   0  0  0  0  0  0  0  0  0  0  0  0
   -1.5600   25.5130  -29.1410 O   0  0  0  0  0  0  0  0  0  0  0  0
   -4.5070   24.8050  -29.9220 C   0  0  0  0  0  0  0  0  0  0  0  0
   -3.8990   25.3740  -30.8700 O   0  0  0  0  0  0  0  0  0  0  0  0
   -5.8920   25.1310  -29.5180 C   0  0  0  0  0  0  0  0  0  0  0  0
   -6.8570   24.5930  -30.4070 O   0  0  0  0  0  0  0  0  0  0  0  0
   -6.8760   23.1600  -30.6050 C   0  0  0  0  0  0  0  0  0  0  0  0
   -7.4820   22.5990  -29.6760 O   0  0  0  0  0  0  0  0  0  0  0  0
   -6.2330   22.6570  -31.7620 C   0  0  0  0  0  0  0  0  0  0  0  0
   -5.5900   23.5810  -32.4370 O   0  0  0  0  0  0  0  0  0  0  0  0
   -6.1330   21.3960  -32.3530 N   0  0  0  0  0  0  0  0  0  0  0  0
   -7.2190   20.6140  -32.6170 C   0  0  0  0  0  0  0  0  0  0  0  0
   -8.6210   20.7270  -32.2990 C   0  0  0  0  0  0  0  0  0  0  0  0
   -9.1940   22.0400  -31.9890 N   0  0  0  0  0  0  0  0  0  0  0  0
   -9.4760   19.8160  -32.2430 O   0  0  0  0  0  0  0  0  0  0  0  0
   -6.7430   19.4660  -33.2870 C   0  0  0  0  0  0  0  0  0  0  0  0
   -5.4060   19.5470  -33.4270 C   0  0  0  0  0  0  0  0  0  0  0  0
   -4.5080   18.6870  -34.0170 C   0  0  0  0  0  0  0  0  0  0  0  0
   -3.1710   18.9810  -34.0600 C   0  0  0  0  0  0  0  0  0  0  0  0
   -2.7640   20.1670  -33.4940 C   0  0  0  0  0  0  0  0  0  0  0  0
   -1.3170   20.4940  -33.5390 C   0  0  0  0  0  0  0  0  0  0  0  0
   -1.1140   21.6470  -32.8210 F   0  0  0  0  0  0  0  0  0  0  0  0
   -0.6170   19.4210  -33.0420 F   0  0  0  0  0  0  0  0  0  0  0  0
   -1.0200   20.7270  -34.8800 F   0  0  0  0  0  0  0  0  0  0  0  0
   -3.6890   21.0250  -32.9020 C   0  0  0  0  0  0  0  0  0  0  0  0
   -5.0290   20.7530  -32.8420 C   0  0  0  0  0  0  0  0  0  0  0  0
   -4.0633   23.5478  -27.1565 H   0  0  0  0  0  0  0  0  0  0  0  0
   -5.5530   23.4053  -28.1501 H   0  0  0  0  0  0  0  0  0  0  0  0
   -4.3429   22.0777  -28.1501 H   0  0  0  0  0  0  0  0  0  0  0  0
   -2.3359   22.3162  -29.2932 H   0  0  0  0  0  0  0  0  0  0  0  0
   -2.3278   23.5436  -30.6492 H   0  0  0  0  0  0  0  0  0  0  0  0
   -1.4257   23.9830  -27.7966 H   0  0  0  0  0  0  0  0  0  0  0  0
   -0.3886   23.8436  -29.2537 H   0  0  0  0  0  0  0  0  0  0  0  0
   -1.9960   25.6730  -30.0190 H   0  0  0  0  0  0  0  0  0  0  0  0
   -6.0718   24.7225  -28.5126 H   0  0  0  0  0  0  0  0  0  0  0  0
   -5.9962   26.2259  -29.5337 H   0  0  0  0  0  0  0  0  0  0  0  0
   -9.1740   22.3360  -30.9860 H   0  0  0  0  0  0  0  0  0  0  0  0
   -9.5920   22.6250  -32.7570 H   0  0  0  0  0  0  0  0  0  0  0  0
   -7.3684   18.6330  -33.6405 H   0  0  0  0  0  0  0  0  0  0  0  0
   -4.8700   17.7481  -34.4613 H   0  0  0  0  0  0  0  0  0  0  0  0
   -2.4503   18.2951  -34.5291 H   0  0  0  0  0  0  0  0  0  0  0  0
   -3.3249   21.9652  -32.4622 H   0  0  0  0  0  0  0  0  0  0  0  0
  1  2  1  0
  2  3  1  0
  3  4  1  0
  4  5  1  0
  2  6  1  0
  6  7  2  0
  6  8  1  0
  8  9  1  0
  9 10  1  0
 10 11  2  0
 10 12  1  0
 12 13  2  0
 12 14  1  0
 14 15  1  0
 15 16  1  0
 16 17  1  0
 16 18  2  0
 15 19  2  0
 19 20  1  0
 20 21  2  0
 21 22  1  0
 22 23  2  0
 23 24  1  0
 24 25  1  0
 24 26  1  0
 24 27  1  0
 23 28  1  0
 28 29  2  0
 29 14  1  0
 29 20  1  0
  1 30  1  0
  1 31  1  0
  1 32  1  0
  3 33  1  0
  3 34  1  0
  4 35  1  0
  4 36  1  0
  5 37  1  0
  8 38  1  0
  8 39  1  0
 17 40  1  0
 17 41  1  0
 19 42  1  0
 21 43  1  0
 22 44  1  0
 28 45  1  0
M  END
>  <smiles>  (26) 
CN(CCO)C(=O)COC(=O)C(=O)n1c(C(N)=O)cc2ccc(C(F)(F)F)cc21

>  <score_type>  (26) 
oracle

>  <origin>  (26) 
adg

>  <m_score__min__energy>  (26) 
-8.0999999999999996

>  <m_primary>  (26) 
energy

$$$$
28:0
     RDKit          3D

 49 50  0  0  0  0  0  0  0  0999 V2000
   -9.0540   18.7830  -32.1110 C   0  0  0  0  0  0  0  0  0  0  0  0
   -8.5730   20.1800  -31.9080 C   0  0  0  0  0  0  0  0  0  0  0  0
   -9.4700   21.2160  -31.9870 C   0  0  0  0  0  0  0  0  0  0  0  0
   -9.0320   22.4940  -31.8020 C   0  0  0  0  0  0  0  0  0  0  0  0
   -7.6880   22.7160  -31.5400 C   0  0  0  0  0  0  0  0  0  0  0  0
   -7.0410   23.8900  -31.3270 C   0  0  0  0  0  0  0  0  0  0  0  0
   -5.6860   23.5750  -31.1060 C   0  0  0  0  0  0  0  0  0  0  0  0
   -4.7470   24.6400  -30.8080 C   0  0  0  0  0  0  0  0  0  0  0  0
   -5.2580   25.9340  -30.4300 N   0  0  0  0  0  0  0  0  0  0  0  0
   -3.5020   24.5700  -30.8420 O   0  0  0  0  0  0  0  0  0  0  0  0
   -5.5140   22.2510  -31.1880 N   0  0  0  0  0  0  0  0  0  0  0  0
   -4.3690   21.4330  -31.1920 C   0  0  0  0  0  0  0  0  0  0  0  0
   -4.5180   20.1880  -30.9210 O   0  0  0  0  0  0  0  0  0  0  0  0
   -3.0460   21.7970  -31.4680 N   0  0  0  0  0  0  0  0  0  0  0  0
   -1.9380   20.8140  -31.4150 C   0  0  1  0  0  0  0  0  0  0  0  0
   -1.0640   20.9860  -32.5760 C   0  0  0  0  0  0  0  0  0  0  0  0
   -1.3930   21.9060  -33.3980 O   0  0  0  0  0  0  0  0  0  0  0  0
    0.0940   20.2630  -32.9050 N   0  0  0  0  0  0  0  0  0  0  0  0
    0.8090   20.6860  -34.1170 C   0  0  0  0  0  0  0  0  0  0  0  0
    0.6390   19.1300  -32.2090 C   0  0  0  0  0  0  0  0  0  0  0  0
   -1.2960   21.1070  -30.0810 C   0  0  0  0  0  0  0  0  0  0  0  0
   -1.9650   20.5610  -28.8800 C   0  0  0  0  0  0  0  0  0  0  0  0
   -1.0920   22.6230  -29.9290 C   0  0  0  0  0  0  0  0  0  0  0  0
   -6.7560   21.7280  -31.4510 C   0  0  0  0  0  0  0  0  0  0  0  0
   -7.2220   20.4270  -31.6430 C   0  0  0  0  0  0  0  0  0  0  0  0
   -9.2182   18.3061  -31.1335 H   0  0  0  0  0  0  0  0  0  0  0  0
   -9.9985   18.7987  -32.6746 H   0  0  0  0  0  0  0  0  0  0  0  0
   -8.3001   18.2139  -32.6746 H   0  0  0  0  0  0  0  0  0  0  0  0
  -10.5313   21.0173  -32.1974 H   0  0  0  0  0  0  0  0  0  0  0  0
   -9.7352   23.3379  -31.8598 H   0  0  0  0  0  0  0  0  0  0  0  0
   -7.4889   24.8947  -31.3270 H   0  0  0  0  0  0  0  0  0  0  0  0
   -5.7590   26.0130  -29.5150 H   0  0  0  0  0  0  0  0  0  0  0  0
   -5.1180   26.7540  -31.0740 H   0  0  0  0  0  0  0  0  0  0  0  0
   -2.7720   22.7350  -31.7620 H   0  0  0  0  0  0  0  0  0  0  0  0
   -2.2363   19.7569  -31.4744 H   0  0  0  0  0  0  0  0  0  0  0  0
    1.7237   21.2271  -33.8331 H   0  0  0  0  0  0  0  0  0  0  0  0
    1.0766   19.8008  -34.7126 H   0  0  0  0  0  0  0  0  0  0  0  0
    0.1620   21.3468  -34.7126 H   0  0  0  0  0  0  0  0  0  0  0  0
    0.5603   19.2936  -31.1241 H   0  0  0  0  0  0  0  0  0  0  0  0
    0.0775   18.2253  -32.4851 H   0  0  0  0  0  0  0  0  0  0  0  0
    1.6963   19.0039  -32.4851 H   0  0  0  0  0  0  0  0  0  0  0  0
   -0.3399   20.5642  -30.1155 H   0  0  0  0  0  0  0  0  0  0  0  0
   -1.4785   20.9581  -27.9769 H   0  0  0  0  0  0  0  0  0  0  0  0
   -3.0249   20.8553  -28.8850 H   0  0  0  0  0  0  0  0  0  0  0  0
   -1.8891   19.4636  -28.8850 H   0  0  0  0  0  0  0  0  0  0  0  0
   -1.0570   22.8830  -28.8607 H   0  0  0  0  0  0  0  0  0  0  0  0
   -0.1464   22.9156  -30.4087 H   0  0  0  0  0  0  0  0  0  0  0  0
   -1.9266   23.1552  -30.4087 H   0  0  0  0  0  0  0  0  0  0  0  0
   -6.5175   19.5842  -31.5852 H   0  0  0  0  0  0  0  0  0  0  0  0
  1  2  1  0
  2  3  2  0
  3  4  1  0
  4  5  2  0
  5  6  1  0
  6  7  2  0
  7  8  1  0
  8  9  1  0
  8 10  2  0
  7 11  1  0
 11 12  1  0
 12 13  2  0
 12 14  1  0
 14 15  1  0
 15 16  1  0
 16 17  2  0
 16 18  1  0
 18 19  1  0
 18 20  1  0
 15 21  1  0
 21 22  1  0
 21 23  1  0
 11 24  1  0
 24 25  2  0
 25  2  1  0
 24  5  1  0
  1 26  1  0
  1 27  1  0
  1 28  1  0
  3 29  1  0
  4 30  1  0
  6 31  1  0
  9 32  1  0
  9 33  1  0
 14 34  1  0
 15 35  1  1
 19 36  1  0
 19 37  1  0
 19 38  1  0
 20 39  1  0
 20 40  1  0
 20 41  1  0
 21 42  1  0
 22 43  1  0
 22 44  1  0
 22 45  1  0
 23 46  1  0
 23 47  1  0
 23 48  1  0
 25 49  1  0
M  END
>  <smiles>  (27) 
Cc1ccc2cc(C(N)=O)n(C(=O)N[C@@H](C(=O)N(C)C)C(C)C)c2c1

>  <score_type>  (27) 
oracle

>  <origin>  (27) 
adg

>  <m_score__min__energy>  (27) 
-9.0099999999999998

>  <m_primary>  (27) 
energy

$$$$
29:0
     RDKit          3D

 43 44  0  0  0  0  0  0  0  0999 V2000
   -9.5080   21.9140  -30.9530 C   0  0  0  0  0  0  0  0  0  0  0  0
   -8.5960   20.9750  -31.6600 C   0  0  0  0  0  0  0  0  0  0  0  0
   -9.0690   19.7520  -32.0670 C   0  0  0  0  0  0  0  0  0  0  0  0
   -8.1970   18.9210  -32.7120 C   0  0  0  0  0  0  0  0  0  0  0  0
   -6.8940   19.3070  -32.9390 C   0  0  0  0  0  0  0  0  0  0  0  0
   -5.8800   18.6360  -33.5270 C   0  0  0  0  0  0  0  0  0  0  0  0
   -4.7310   19.4520  -33.4990 C   0  0  0  0  0  0  0  0  0  0  0  0
   -3.5120   18.9560  -34.1040 C   0  0  0  0  0  0  0  0  0  0  0  0
   -2.4360   19.8830  -34.4710 N   0  0  0  0  0  0  0  0  0  0  0  0
   -3.2180   17.7710  -34.3800 O   0  0  0  0  0  0  0  0  0  0  0  0
   -5.0630   20.6340  -32.8800 N   0  0  0  0  0  0  0  0  0  0  0  0
   -4.0940   21.6010  -32.6120 C   0  0  0  0  0  0  0  0  0  0  0  0
   -3.8030   22.2380  -33.7450 O   0  0  0  0  0  0  0  0  0  0  0  0
   -3.3480   22.1290  -31.5900 N   0  0  0  0  0  0  0  0  0  0  0  0
   -1.8940   21.9260  -31.3240 C   0  0  0  0  0  0  0  0  0  0  0  0
   -1.2390   21.1830  -32.4030 C   0  0  0  0  0  0  0  0  0  0  0  0
   -0.7550   20.0470  -32.2470 O   0  0  0  0  0  0  0  0  0  0  0  0
   -1.1550   21.7720  -33.6520 O   0  0  0  0  0  0  0  0  0  0  0  0
   -3.8610   23.0200  -30.5910 C   0  0  0  0  0  0  0  0  0  0  0  0
   -4.2730   24.1380  -31.2180 O   0  0  0  0  0  0  0  0  0  0  0  0
   -4.0660   23.1080  -29.2500 N   0  0  0  0  0  0  0  0  0  0  0  0
   -4.6950   24.4500  -28.8590 C   0  0  0  0  0  0  0  0  0  0  0  0
   -3.8510   22.2730  -28.1150 C   0  0  0  0  0  0  0  0  0  0  0  0
   -6.3740   20.5310  -32.5480 C   0  0  0  0  0  0  0  0  0  0  0  0
   -7.2880   21.3370  -31.8990 C   0  0  0  0  0  0  0  0  0  0  0  0
   -9.3894   21.7919  -29.8663 H   0  0  0  0  0  0  0  0  0  0  0  0
   -9.2602   22.9480  -31.2350 H   0  0  0  0  0  0  0  0  0  0  0  0
  -10.5487   21.6964  -31.2350 H   0  0  0  0  0  0  0  0  0  0  0  0
  -10.1109   19.4524  -31.8808 H   0  0  0  0  0  0  0  0  0  0  0  0
   -8.5390   17.9330  -33.0538 H   0  0  0  0  0  0  0  0  0  0  0  0
   -5.9405   17.6245  -33.9550 H   0  0  0  0  0  0  0  0  0  0  0  0
   -1.4460   19.6420  -34.2690 H   0  0  0  0  0  0  0  0  0  0  0  0
   -2.7020   20.7990  -34.9430 H   0  0  0  0  0  0  0  0  0  0  0  0
   -1.4102   22.9089  -31.2246 H   0  0  0  0  0  0  0  0  0  0  0  0
   -1.7958   21.3397  -30.3984 H   0  0  0  0  0  0  0  0  0  0  0  0
   -1.9720   21.9490  -34.2310 H   0  0  0  0  0  0  0  0  0  0  0  0
   -4.7332   24.5315  -27.7627 H   0  0  0  0  0  0  0  0  0  0  0  0
   -4.0884   25.2720  -29.2669 H   0  0  0  0  0  0  0  0  0  0  0  0
   -5.7149   24.5096  -29.2669 H   0  0  0  0  0  0  0  0  0  0  0  0
   -4.0016   22.8579  -27.1957 H   0  0  0  0  0  0  0  0  0  0  0  0
   -4.5625   21.4344  -28.1367 H   0  0  0  0  0  0  0  0  0  0  0  0
   -2.8230   21.8823  -28.1367 H   0  0  0  0  0  0  0  0  0  0  0  0
   -6.9526   22.3257  -31.5525 H   0  0  0  0  0  0  0  0  0  0  0  0
  1  2  1  0
  2  3  2  0
  3  4  1  0
  4  5  2  0
  5  6  1  0
  6  7  2  0
  7  8  1  0
  8  9  1  0
  8 10  2  0
  7 11  1  0
 11 12  1  0
 12 13  2  0
 12 14  1  0
 14 15  1  0
 15 16  1  0
 16 17  2  0
 16 18  1  0
 14 19  1  0
 19 20  2  0
 19 21  1  0
 21 22  1  0
 21 23  1  0
 11 24  1  0
 24 25  2  0
 25  2  1  0
 24  5  1  0
  1 26  1  0
  1 27  1  0
  1 28  1  0
  3 29  1  0
  4 30  1  0
  6 31  1  0
  9 32  1  0
  9 33  1  0
 15 34  1  0
 15 35  1  0
 18 36  1  0
 22 37  1  0
 22 38  1  0
 22 39  1  0
 23 40  1  0
 23 41  1  0
 23 42  1  0
 25 43  1  0
M  END
>  <smiles>  (28) 
Cc1ccc2cc(C(N)=O)n(C(=O)N(CC(=O)O)C(=O)N(C)C)c2c1

>  <score_type>  (28) 
oracle

>  <origin>  (28) 
adg

>  <m_score__min__energy>  (28) 
-9.3900000000000006

>  <m_primary>  (28) 
energy

$$$$
30:0
     RDKit          3D

 33 34  0  0  0  0  0  0  0  0999 V2000
   -7.1750   17.1440  -33.0630 C   0  0  0  0  0  0  0  0  0  0  0  0
   -7.2850   18.2930  -32.7130 C   0  0  0  0  0  0  0  0  0  0  0  0
   -7.3950   19.6650  -32.3030 C   0  0  0  0  0  0  0  0  0  0  0  0
   -8.6450   20.2370  -32.3080 C   0  0  0  0  0  0  0  0  0  0  0  0
   -8.7300   21.5510  -31.9110 C   0  0  0  0  0  0  0  0  0  0  0  0
   -7.6070   22.2480  -31.5320 C   0  0  0  0  0  0  0  0  0  0  0  0
   -7.4790   23.5200  -31.0810 C   0  0  0  0  0  0  0  0  0  0  0  0
   -6.1190   23.7550  -30.7910 C   0  0  0  0  0  0  0  0  0  0  0  0
   -5.7080   25.0560  -30.3110 C   0  0  0  0  0  0  0  0  0  0  0  0
   -6.1480   25.5270  -28.9960 N   0  0  0  0  0  0  0  0  0  0  0  0
   -4.9810   25.8910  -30.8940 O   0  0  0  0  0  0  0  0  0  0  0  0
   -5.4230   22.6100  -31.0730 N   0  0  0  0  0  0  0  0  0  0  0  0
   -4.0580   22.4790  -30.7890 C   0  0  0  0  0  0  0  0  0  0  0  0
   -3.3640   22.2030  -31.8780 O   0  0  0  0  0  0  0  0  0  0  0  0
   -3.2570   22.5560  -29.6690 N   0  0  0  0  0  0  0  0  0  0  0  0
   -2.2650   21.6860  -29.1150 C   0  0  0  0  0  0  0  0  0  0  0  0
   -3.4410   23.7660  -28.8330 C   0  0  0  0  0  0  0  0  0  0  0  0
   -2.7620   24.9640  -29.1310 N   0  0  0  0  0  0  0  0  0  0  0  0
   -4.2330   23.6070  -27.8750 O   0  0  0  0  0  0  0  0  0  0  0  0
   -6.3310   21.7060  -31.5180 C   0  0  0  0  0  0  0  0  0  0  0  0
   -6.2780   20.3820  -31.9190 C   0  0  0  0  0  0  0  0  0  0  0  0
   -7.0747   16.0961  -33.3822 H   0  0  0  0  0  0  0  0  0  0  0  0
   -9.5361   19.6699  -32.6153 H   0  0  0  0  0  0  0  0  0  0  0  0
   -9.7096   22.0511  -31.8965 H   0  0  0  0  0  0  0  0  0  0  0  0
   -8.2970   24.2456  -30.9615 H   0  0  0  0  0  0  0  0  0  0  0  0
   -6.5210   26.4940  -28.8830 H   0  0  0  0  0  0  0  0  0  0  0  0
   -6.0710   24.8580  -28.1970 H   0  0  0  0  0  0  0  0  0  0  0  0
   -2.3127   21.7278  -28.0168 H   0  0  0  0  0  0  0  0  0  0  0  0
   -2.4521   20.6555  -29.4512 H   0  0  0  0  0  0  0  0  0  0  0  0
   -1.2677   22.0060  -29.4512 H   0  0  0  0  0  0  0  0  0  0  0  0
   -3.0950   25.6720  -29.8290 H   0  0  0  0  0  0  0  0  0  0  0  0
   -1.8580   25.1600  -28.6150 H   0  0  0  0  0  0  0  0  0  0  0  0
   -5.3008   19.8771  -31.9326 H   0  0  0  0  0  0  0  0  0  0  0  0
  1  2  3  0
  2  3  1  0
  3  4  2  0
  4  5  1  0
  5  6  2  0
  6  7  1  0
  7  8  2  0
  8  9  1  0
  9 10  1  0
  9 11  2  0
  8 12  1  0
 12 13  1  0
 13 14  2  0
 13 15  1  0
 15 16  1  0
 15 17  1  0
 17 18  1  0
 17 19  2  0
 12 20  1  0
 20 21  2  0
 21  3  1  0
 20  6  1  0
  1 22  1  0
  4 23  1  0
  5 24  1  0
  7 25  1  0
 10 26  1  0
 10 27  1  0
 16 28  1  0
 16 29  1  0
 16 30  1  0
 18 31  1  0
 18 32  1  0
 21 33  1  0
M  END
>  <smiles>  (29) 
C#Cc1ccc2cc(C(N)=O)n(C(=O)N(C)C(N)=O)c2c1

>  <score_type>  (29) 
oracle

>  <origin>  (29) 
adg

>  <m_score__min__energy>  (29) 
-9.1199999999999992

>  <m_primary>  (29) 
energy

$$$$
31:0
     RDKit          3D

 50 51  0  0  0  0  0  0  0  0999 V2000
   -9.4840   21.6730  -31.1310 C   0  0  0  0  0  0  0  0  0  0  0  0
   -8.1410   21.3650  -31.6870 C   0  0  0  0  0  0  0  0  0  0  0  0
   -8.0600   20.4470  -32.7060 C   0  0  0  0  0  0  0  0  0  0  0  0
   -6.8160   20.1730  -33.2080 C   0  0  0  0  0  0  0  0  0  0  0  0
   -5.6980   20.8040  -32.6990 C   0  0  0  0  0  0  0  0  0  0  0  0
   -4.4020   20.6670  -33.0660 C   0  0  0  0  0  0  0  0  0  0  0  0
   -3.6510   21.5360  -32.2380 C   0  0  0  0  0  0  0  0  0  0  0  0
   -2.2140   21.5420  -32.4260 C   0  0  0  0  0  0  0  0  0  0  0  0
   -1.3870   21.9180  -31.2790 N   0  0  0  0  0  0  0  0  0  0  0  0
   -1.5730   21.2680  -33.4410 O   0  0  0  0  0  0  0  0  0  0  0  0
   -4.4610   22.1890  -31.3940 N   0  0  0  0  0  0  0  0  0  0  0  0
   -4.2830   23.2480  -30.5110 C   0  0  0  0  0  0  0  0  0  0  0  0
   -4.2450   24.4350  -31.1460 O   0  0  0  0  0  0  0  0  0  0  0  0
   -4.1060   23.4920  -29.1100 C   0  0  0  0  0  0  0  0  0  0  0  0
   -2.9120   23.3680  -28.3870 N   0  0  0  0  0  0  0  0  0  0  0  0
   -2.6820   24.3340  -27.2840 C   0  0  0  0  0  0  0  0  0  0  0  0
   -1.6410   25.3000  -27.7960 C   0  0  0  0  0  0  0  0  0  0  0  0
   -1.8130   25.6720  -28.9540 O   0  0  0  0  0  0  0  0  0  0  0  0
   -1.8520   22.4380  -28.7030 C   0  0  0  0  0  0  0  0  0  0  0  0
   -0.7580   22.8560  -29.0880 O   0  0  0  0  0  0  0  0  0  0  0  0
   -2.0580   21.0800  -28.5760 O   0  0  0  0  0  0  0  0  0  0  0  0
   -1.8030   20.2990  -27.4580 C   0  0  0  0  0  0  0  0  0  0  0  0
   -1.2370   21.2010  -26.3690 C   0  0  0  0  0  0  0  0  0  0  0  0
   -0.7150   19.3000  -27.8570 C   0  0  0  0  0  0  0  0  0  0  0  0
   -2.9520   19.5360  -26.8980 C   0  0  0  0  0  0  0  0  0  0  0  0
   -5.7330   21.7200  -31.6910 C   0  0  0  0  0  0  0  0  0  0  0  0
   -6.9980   21.9970  -31.1820 C   0  0  0  0  0  0  0  0  0  0  0  0
   -9.4372   21.6623  -30.0321 H   0  0  0  0  0  0  0  0  0  0  0  0
   -9.8038   22.6678  -31.4747 H   0  0  0  0  0  0  0  0  0  0  0  0
  -10.2053   20.9170  -31.4747 H   0  0  0  0  0  0  0  0  0  0  0  0
   -8.9587   19.9520  -33.1027 H   0  0  0  0  0  0  0  0  0  0  0  0
   -6.7061   19.4437  -34.0241 H   0  0  0  0  0  0  0  0  0  0  0  0
   -4.0088   20.0084  -33.8544 H   0  0  0  0  0  0  0  0  0  0  0  0
   -1.1190   21.2160  -30.5620 H   0  0  0  0  0  0  0  0  0  0  0  0
   -1.1180   22.9200  -31.2770 H   0  0  0  0  0  0  0  0  0  0  0  0
   -4.4251   24.5338  -28.9586 H   0  0  0  0  0  0  0  0  0  0  0  0
   -4.6553   22.6298  -28.7040 H   0  0  0  0  0  0  0  0  0  0  0  0
   -3.6130   24.8670  -27.0409 H   0  0  0  0  0  0  0  0  0  0  0  0
   -2.3494   23.8288  -26.3652 H   0  0  0  0  0  0  0  0  0  0  0  0
   -0.7959   25.6433  -27.1812 H   0  0  0  0  0  0  0  0  0  0  0  0
   -1.4949   20.7901  -25.3818 H   0  0  0  0  0  0  0  0  0  0  0  0
   -0.1429   21.2548  -26.4694 H   0  0  0  0  0  0  0  0  0  0  0  0
   -1.6645   22.2096  -26.4694 H   0  0  0  0  0  0  0  0  0  0  0  0
   -0.2551   18.8777  -26.9514 H   0  0  0  0  0  0  0  0  0  0  0  0
   -1.1613   18.4905  -28.4532 H   0  0  0  0  0  0  0  0  0  0  0  0
    0.0536   19.8136  -28.4532 H   0  0  0  0  0  0  0  0  0  0  0  0
   -2.9100   19.5639  -25.7992 H   0  0  0  0  0  0  0  0  0  0  0  0
   -3.8944   19.9884  -27.2405 H   0  0  0  0  0  0  0  0  0  0  0  0
   -2.9007   18.4919  -27.2405 H   0  0  0  0  0  0  0  0  0  0  0  0
   -7.1023   22.7274  -30.3662 H   0  0  0  0  0  0  0  0  0  0  0  0
  1  2  1  0
  2  3  2  0
  3  4  1  0
  4  5  2  0
  5  6  1  0
  6  7  2  0
  7  8  1  0
  8  9  1  0
  8 10  2  0
  7 11  1  0
 11 12  1  0
 12 13  2  0
 12 14  1  0
 14 15  1  0
 15 16  1  0
 16 17  1  0
 17 18  2  0
 15 19  1  0
 19 20  2  0
 19 21  1  0
 21 22  1  0
 22 23  1  0
 22 24  1  0
 22 25  1  0
 11 26  1  0
 26 27  2  0
 27  2  1  0
 26  5  1  0
  1 28  1  0
  1 29  1  0
  1 30  1  0
  3 31  1  0
  4 32  1  0
  6 33  1  0
  9 34  1  0
  9 35  1  0
 14 36  1  0
 14 37  1  0
 16 38  1  0
 16 39  1  0
 17 40  1  0
 23 41  1  0
 23 42  1  0
 23 43  1  0
 24 44  1  0
 24 45  1  0
 24 46  1  0
 25 47  1  0
 25 48  1  0
 25 49  1  0
 27 50  1  0
M  END
>  <smiles>  (30) 
Cc1ccc2cc(C(N)=O)n(C(=O)CN(CC=O)C(=O)OC(C)(C)C)c2c1

>  <score_type>  (30) 
oracle

>  <origin>  (30) 
adg

>  <m_score__min__energy>  (30) 
-8.7400000000000002

>  <m_primary>  (30) 
energy

$$$$
32:0
     RDKit          3D

 43 44  0  0  1  0  0  0  0  0999 V2000
   -0.8350   23.2870  -26.6720 C   0  0  0  0  0  0  0  0  0  0  0  0
   -0.9210   23.7170  -27.9270 C   0  0  0  0  0  0  0  0  0  0  0  0
   -1.0560   25.1660  -28.2330 C   0  0  0  0  0  0  0  0  0  0  0  0
   -2.2090   25.4270  -28.9710 O   0  0  0  0  0  0  0  0  0  0  0  0
   -0.8850   22.7190  -29.0350 C   0  0  2  0  0  0  0  0  0  0  0  0
   -2.0970   22.7560  -29.8230 N   0  0  0  0  0  0  0  0  0  0  0  0
   -2.2590   21.8960  -30.9950 C   0  0  0  0  0  0  0  0  0  0  0  0
   -1.2530   21.1800  -31.1870 O   0  0  0  0  0  0  0  0  0  0  0  0
   -3.4710   21.9740  -31.7360 C   0  0  0  0  0  0  0  0  0  0  0  0
   -3.2960   21.9600  -33.0310 O   0  0  0  0  0  0  0  0  0  0  0  0
   -4.8180   22.0720  -31.3710 N   0  0  0  0  0  0  0  0  0  0  0  0
   -5.3310   23.1650  -30.7420 C   0  0  0  0  0  0  0  0  0  0  0  0
   -4.7440   24.3370  -30.1370 C   0  0  0  0  0  0  0  0  0  0  0  0
   -4.9710   24.8560  -28.8420 N   0  0  0  0  0  0  0  0  0  0  0  0
   -3.8950   25.0550  -30.8180 O   0  0  0  0  0  0  0  0  0  0  0  0
   -6.7240   22.9650  -30.6450 C   0  0  0  0  0  0  0  0  0  0  0  0
   -7.0470   21.7730  -31.2030 C   0  0  0  0  0  0  0  0  0  0  0  0
   -8.2690   21.1620  -31.3580 C   0  0  0  0  0  0  0  0  0  0  0  0
   -8.3730   19.9420  -31.9850 C   0  0  0  0  0  0  0  0  0  0  0  0
   -7.2080   19.3750  -32.4450 C   0  0  0  0  0  0  0  0  0  0  0  0
   -7.2630   18.0560  -33.1330 C   0  0  0  0  0  0  0  0  0  0  0  0
   -5.9770   20.0100  -32.2800 C   0  0  0  0  0  0  0  0  0  0  0  0
   -5.8530   21.2280  -31.6520 C   0  0  0  0  0  0  0  0  0  0  0  0
   -0.6650   21.3210  -28.5170 C   0  0  0  0  0  0  0  0  0  0  0  0
    0.4190   20.9710  -27.9860 O   0  0  0  0  0  0  0  0  0  0  0  0
   -1.6570   20.3530  -28.6020 O   0  0  0  0  0  0  0  0  0  0  0  0
   -0.7356   22.2113  -26.4648 H   0  0  0  0  0  0  0  0  0  0  0  0
   -0.8633   24.0069  -25.8408 H   0  0  0  0  0  0  0  0  0  0  0  0
   -1.1013   25.7280  -27.2885 H   0  0  0  0  0  0  0  0  0  0  0  0
   -0.1861   25.4749  -28.8312 H   0  0  0  0  0  0  0  0  0  0  0  0
   -2.0120   25.6790  -29.9050 H   0  0  0  0  0  0  0  0  0  0  0  0
   -0.0357   22.9953  -29.6772 H   0  0  0  0  0  0  0  0  0  0  0  0
   -2.8370   23.4140  -29.5210 H   0  0  0  0  0  0  0  0  0  0  0  0
   -5.9230   25.1380  -28.4820 H   0  0  0  0  0  0  0  0  0  0  0  0
   -4.1910   25.0100  -28.1350 H   0  0  0  0  0  0  0  0  0  0  0  0
   -7.4368   23.6670  -30.1878 H   0  0  0  0  0  0  0  0  0  0  0  0
   -9.1750   21.6550  -30.9758 H   0  0  0  0  0  0  0  0  0  0  0  0
   -9.3447   19.4425  -32.1126 H   0  0  0  0  0  0  0  0  0  0  0  0
   -7.2965   17.2522  -32.3828 H   0  0  0  0  0  0  0  0  0  0  0  0
   -8.1639   18.0080  -33.7623 H   0  0  0  0  0  0  0  0  0  0  0  0
   -6.3692   17.9331  -33.7623 H   0  0  0  0  0  0  0  0  0  0  0  0
   -5.0718   19.5188  -32.6663 H   0  0  0  0  0  0  0  0  0  0  0  0
   -1.9010   19.9510  -29.5200 H   0  0  0  0  0  0  0  0  0  0  0  0
  1  2  2  0
  2  3  1  0
  3  4  1  0
  2  5  1  0
  5  6  1  0
  6  7  1  0
  7  8  2  0
  7  9  1  0
  9 10  2  0
  9 11  1  0
 11 12  1  0
 12 13  1  0
 13 14  1  0
 13 15  2  0
 12 16  2  0
 16 17  1  0
 17 18  2  0
 18 19  1  0
 19 20  2  0
 20 21  1  0
 20 22  1  0
 22 23  2  0
  5 24  1  0
 24 25  2  0
 24 26  1  0
 23 11  1  0
 23 17  1  0
  1 27  1  0
  1 28  1  0
  3 29  1  0
  3 30  1  0
  4 31  1  0
  5 32  1  6
  6 33  1  0
 14 34  1  0
 14 35  1  0
 16 36  1  0
 18 37  1  0
 19 38  1  0
 21 39  1  0
 21 40  1  0
 21 41  1  0
 22 42  1  0
 26 43  1  0
M  END
>  <smiles>  (31) 
C=C(CO)C(NC(=O)C(=O)n1c(C(N)=O)cc2ccc(C)cc21)C(=O)O

>  <score_type>  (31) 
oracle

>  <origin>  (31) 
adg

>  <m_score__min__energy>  (31) 
-9.6199999999999992

>  <m_primary>  (31) 
energy

$$$$
33:0
     RDKit          3D

 50 51  0  0  0  0  0  0  0  0999 V2000
   -8.9800   18.6330  -32.5100 C   0  0  0  0  0  0  0  0  0  0  0  0
   -8.6270   20.0280  -32.1310 C   0  0  0  0  0  0  0  0  0  0  0  0
   -9.6470   20.9400  -31.9680 C   0  0  0  0  0  0  0  0  0  0  0  0
   -9.3210   22.2260  -31.6170 C   0  0  0  0  0  0  0  0  0  0  0  0
   -8.0030   22.5830  -31.4350 C   0  0  0  0  0  0  0  0  0  0  0  0
   -7.4500   23.7840  -31.0910 C   0  0  0  0  0  0  0  0  0  0  0  0
   -6.0460   23.6260  -31.0360 C   0  0  0  0  0  0  0  0  0  0  0  0
   -5.2200   24.7320  -30.6600 C   0  0  0  0  0  0  0  0  0  0  0  0
   -5.5830   25.9840  -30.1420 N   0  0  0  0  0  0  0  0  0  0  0  0
   -3.9480   24.5740  -30.8240 O   0  0  0  0  0  0  0  0  0  0  0  0
   -5.7590   22.3440  -31.3490 N   0  0  0  0  0  0  0  0  0  0  0  0
   -4.5480   21.6910  -31.5790 C   0  0  0  0  0  0  0  0  0  0  0  0
   -4.5080   20.7670  -32.4780 O   0  0  0  0  0  0  0  0  0  0  0  0
   -3.2990   21.9040  -30.9540 N   0  0  0  0  0  0  0  0  0  0  0  0
   -2.1530   21.1040  -31.2710 C   0  0  0  0  0  0  0  0  0  0  0  0
   -2.2380   20.1970  -32.1080 O   0  0  0  0  0  0  0  0  0  0  0  0
   -0.8750   21.3830  -30.5800 C   0  0  0  0  0  0  0  0  0  0  0  0
    0.0650   21.9120  -31.2290 O   0  0  0  0  0  0  0  0  0  0  0  0
   -0.7070   21.0670  -29.2250 N   0  0  0  0  0  0  0  0  0  0  0  0
   -0.4970   19.7230  -28.7170 C   0  0  0  0  0  0  0  0  0  0  0  0
   -0.7440   22.1430  -28.2280 C   0  0  0  0  0  0  0  0  0  0  0  0
   -1.3700   23.4070  -28.7800 C   0  0  0  0  0  0  0  0  0  0  0  0
   -2.7680   23.4820  -28.3970 N   0  0  0  0  0  0  0  0  0  0  0  0
   -2.9730   24.4880  -27.3860 C   0  0  0  0  0  0  0  0  0  0  0  0
   -3.1980   22.2110  -27.8470 C   0  0  0  0  0  0  0  0  0  0  0  0
   -6.9590   21.7090  -31.5870 C   0  0  0  0  0  0  0  0  0  0  0  0
   -7.2950   20.4130  -31.9420 C   0  0  0  0  0  0  0  0  0  0  0  0
   -9.1318   18.0332  -31.6005 H   0  0  0  0  0  0  0  0  0  0  0  0
   -9.9053   18.6376  -33.1048 H   0  0  0  0  0  0  0  0  0  0  0  0
   -8.1639   18.1970  -33.1048 H   0  0  0  0  0  0  0  0  0  0  0  0
  -10.6963   20.6446  -32.1155 H   0  0  0  0  0  0  0  0  0  0  0  0
  -10.1152   22.9747  -31.4804 H   0  0  0  0  0  0  0  0  0  0  0  0
   -8.0022   24.7141  -30.8911 H   0  0  0  0  0  0  0  0  0  0  0  0
   -4.9980   26.4160  -29.3710 H   0  0  0  0  0  0  0  0  0  0  0  0
   -6.4240   26.5430  -30.4750 H   0  0  0  0  0  0  0  0  0  0  0  0
   -3.1760   22.6290  -30.2640 H   0  0  0  0  0  0  0  0  0  0  0  0
   -0.5000   19.7421  -27.6172 H   0  0  0  0  0  0  0  0  0  0  0  0
   -1.3033   19.0657  -29.0745 H   0  0  0  0  0  0  0  0  0  0  0  0
    0.4714   19.3430  -29.0745 H   0  0  0  0  0  0  0  0  0  0  0  0
   -1.3318   21.8046  -27.3620 H   0  0  0  0  0  0  0  0  0  0  0  0
    0.2920   22.3749  -27.9398 H   0  0  0  0  0  0  0  0  0  0  0  0
   -0.8361   24.2816  -28.3800 H   0  0  0  0  0  0  0  0  0  0  0  0
   -1.2986   23.3934  -29.8776 H   0  0  0  0  0  0  0  0  0  0  0  0
   -2.8799   24.0310  -26.3898 H   0  0  0  0  0  0  0  0  0  0  0  0
   -2.2178   25.2798  -27.4982 H   0  0  0  0  0  0  0  0  0  0  0  0
   -3.9779   24.9212  -27.4982 H   0  0  0  0  0  0  0  0  0  0  0  0
   -3.1807   22.2622  -26.7483 H   0  0  0  0  0  0  0  0  0  0  0  0
   -4.2205   21.9912  -28.1877 H   0  0  0  0  0  0  0  0  0  0  0  0
   -2.5190   21.4155  -28.1877 H   0  0  0  0  0  0  0  0  0  0  0  0
   -6.4962   19.6691  -32.0785 H   0  0  0  0  0  0  0  0  0  0  0  0
  1  2  1  0
  2  3  2  0
  3  4  1  0
  4  5  2  0
  5  6  1  0
  6  7  2  0
  7  8  1  0
  8  9  1  0
  8 10  2  0
  7 11  1  0
 11 12  1  0
 12 13  2  0
 12 14  1  0
 14 15  1  0
 15 16  2  0
 15 17  1  0
 17 18  2  0
 17 19  1  0
 19 20  1  0
 19 21  1  0
 21 22  1  0
 22 23  1  0
 23 24  1  0
 23 25  1  0
 11 26  1  0
 26 27  2  0
 27  2  1  0
 26  5  1  0
  1 28  1  0
  1 29  1  0
  1 30  1  0
  3 31  1  0
  4 32  1  0
  6 33  1  0
  9 34  1  0
  9 35  1  0
 14 36  1  0
 20 37  1  0
 20 38  1  0
 20 39  1  0
 21 40  1  0
 21 41  1  0
 22 42  1  0
 22 43  1  0
 24 44  1  0
 24 45  1  0
 24 46  1  0
 25 47  1  0
 25 48  1  0
 25 49  1  0
 27 50  1  0
M  END
>  <smiles>  (32) 
Cc1ccc2cc(C(N)=O)n(C(=O)NC(=O)C(=O)N(C)CCN(C)C)c2c1

>  <score_type>  (32) 
oracle

>  <origin>  (32) 
adg

>  <m_score__min__energy>  (32) 
-9.25

>  <m_primary>  (32) 
energy

$$$$
34:0
     RDKit          3D

 32 33  0  0  0  0  0  0  0  0999 V2000
   -3.9540   24.5500  -26.8530 N   0  0  0  0  0  0  0  0  0  0  0  0
   -3.1360   24.1410  -27.5670 C   0  0  0  0  0  0  0  0  0  0  0  0
   -2.0860   23.6070  -28.4560 C   0  0  0  0  0  0  0  0  0  0  0  0
   -2.5480   23.8320  -29.7980 O   0  0  0  0  0  0  0  0  0  0  0  0
   -2.4460   22.6920  -30.6410 C   0  0  0  0  0  0  0  0  0  0  0  0
   -1.4070   22.0260  -30.4590 O   0  0  0  0  0  0  0  0  0  0  0  0
   -3.5090   22.4340  -31.5790 C   0  0  0  0  0  0  0  0  0  0  0  0
   -3.1330   22.0420  -32.7300 O   0  0  0  0  0  0  0  0  0  0  0  0
   -4.9010   22.5710  -31.3890 N   0  0  0  0  0  0  0  0  0  0  0  0
   -5.6520   23.5940  -30.9830 C   0  0  0  0  0  0  0  0  0  0  0  0
   -5.3140   24.8150  -30.2760 C   0  0  0  0  0  0  0  0  0  0  0  0
   -5.7750   25.1920  -28.9950 N   0  0  0  0  0  0  0  0  0  0  0  0
   -4.5320   25.6610  -30.8440 O   0  0  0  0  0  0  0  0  0  0  0  0
   -7.0200   23.2820  -31.1670 C   0  0  0  0  0  0  0  0  0  0  0  0
   -7.0700   22.0280  -31.6940 C   0  0  0  0  0  0  0  0  0  0  0  0
   -8.1690   21.2720  -32.0510 C   0  0  0  0  0  0  0  0  0  0  0  0
   -7.9920   20.0090  -32.5710 C   0  0  0  0  0  0  0  0  0  0  0  0
   -6.7050   19.5480  -32.7170 C   0  0  0  0  0  0  0  0  0  0  0  0
   -6.4930   18.1730  -33.2840 C   0  0  0  0  0  0  0  0  0  0  0  0
   -6.1620   18.2910  -34.6260 F   0  0  0  0  0  0  0  0  0  0  0  0
   -5.4210   17.5880  -32.6550 F   0  0  0  0  0  0  0  0  0  0  0  0
   -7.6330   17.4090  -33.1100 F   0  0  0  0  0  0  0  0  0  0  0  0
   -5.6050   20.3290  -32.3490 C   0  0  0  0  0  0  0  0  0  0  0  0
   -5.7730   21.6040  -31.8230 C   0  0  0  0  0  0  0  0  0  0  0  0
   -1.1363   24.1353  -28.2855 H   0  0  0  0  0  0  0  0  0  0  0  0
   -1.9045   22.5386  -28.2672 H   0  0  0  0  0  0  0  0  0  0  0  0
   -6.7890   25.0020  -28.7690 H   0  0  0  0  0  0  0  0  0  0  0  0
   -5.2130   25.6390  -28.2560 H   0  0  0  0  0  0  0  0  0  0  0  0
   -7.8778   23.9284  -30.9298 H   0  0  0  0  0  0  0  0  0  0  0  0
   -9.1832   21.6774  -31.9204 H   0  0  0  0  0  0  0  0  0  0  0  0
   -8.8531   19.3887  -32.8604 H   0  0  0  0  0  0  0  0  0  0  0  0
   -4.5892   19.9271  -32.4782 H   0  0  0  0  0  0  0  0  0  0  0  0
  1  2  3  0
  2  3  1  0
  3  4  1  0
  4  5  1  0
  5  6  2  0
  5  7  1  0
  7  8  2  0
  7  9  1  0
  9 10  1  0
 10 11  1  0
 11 12  1  0
 11 13  2  0
 10 14  2  0
 14 15  1  0
 15 16  2  0
 16 17  1  0
 17 18  2  0
 18 19  1  0
 19 20  1  0
 19 21  1  0
 19 22  1  0
 18 23  1  0
 23 24  2  0
 24  9  1  0
 24 15  1  0
  3 25  1  0
  3 26  1  0
 12 27  1  0
 12 28  1  0
 14 29  1  0
 16 30  1  0
 17 31  1  0
 23 32  1  0
M  END
>  <smiles>  (33) 
N#CCOC(=O)C(=O)n1c(C(N)=O)cc2ccc(C(F)(F)F)cc21

>  <score_type>  (33) 
oracle

>  <origin>  (33) 
adg

>  <m_score__min__energy>  (33) 
-8.1899999999999995

>  <m_primary>  (33) 
energy

$$$$
35:0
     RDKit          3D

 51 52  0  0  0  0  0  0  0  0999 V2000
   -0.9920   26.0570  -26.6040 C   0  0  0  0  0  0  0  0  0  0  0  0
    0.4110   25.7000  -27.0940 C   0  0  0  0  0  0  0  0  0  0  0  0
    0.3250   24.7220  -28.1190 O   0  0  0  0  0  0  0  0  0  0  0  0
   -0.9280   24.3920  -28.6180 C   0  0  0  0  0  0  0  0  0  0  0  0
   -1.5840   25.2250  -29.2940 O   0  0  0  0  0  0  0  0  0  0  0  0
   -1.4380   23.0320  -28.3170 C   0  0  0  0  0  0  0  0  0  0  0  0
   -1.6230   22.8200  -26.8310 C   0  0  0  0  0  0  0  0  0  0  0  0
   -0.4540   21.9900  -28.8070 C   0  0  0  0  0  0  0  0  0  0  0  0
   -2.7340   22.7810  -29.0380 C   0  0  0  0  0  0  0  0  0  0  0  0
   -3.8190   23.2290  -28.5890 O   0  0  0  0  0  0  0  0  0  0  0  0
   -2.7520   22.0540  -30.2020 O   0  0  0  0  0  0  0  0  0  0  0  0
   -3.4400   22.3690  -31.3360 C   0  0  0  0  0  0  0  0  0  0  0  0
   -2.7120   22.4710  -32.3900 O   0  0  0  0  0  0  0  0  0  0  0  0
   -4.8300   22.5860  -31.4620 N   0  0  0  0  0  0  0  0  0  0  0  0
   -5.5260   23.7040  -31.1860 C   0  0  0  0  0  0  0  0  0  0  0  0
   -5.1110   24.9940  -30.6960 C   0  0  0  0  0  0  0  0  0  0  0  0
   -3.8640   25.3330  -30.1200 N   0  0  0  0  0  0  0  0  0  0  0  0
   -5.9330   25.9680  -30.7710 O   0  0  0  0  0  0  0  0  0  0  0  0
   -6.8630   23.4150  -31.4730 C   0  0  0  0  0  0  0  0  0  0  0  0
   -6.9670   22.1360  -31.9150 C   0  0  0  0  0  0  0  0  0  0  0  0
   -8.0710   21.3970  -32.3190 C   0  0  0  0  0  0  0  0  0  0  0  0
   -7.9180   20.0960  -32.7330 C   0  0  0  0  0  0  0  0  0  0  0  0
   -6.6500   19.5580  -32.7320 C   0  0  0  0  0  0  0  0  0  0  0  0
   -6.4660   18.2060  -33.1590 N   0  0  0  0  0  0  0  0  0  0  0  0
   -5.4290   17.9600  -34.1470 C   0  0  0  0  0  0  0  0  0  0  0  0
   -7.2460   17.1200  -32.6590 C   0  0  0  0  0  0  0  0  0  0  0  0
   -5.5490   20.3140  -32.3230 C   0  0  0  0  0  0  0  0  0  0  0  0
   -5.6900   21.6200  -31.9070 C   0  0  0  0  0  0  0  0  0  0  0  0
   -1.0064   26.0607  -25.5041 H   0  0  0  0  0  0  0  0  0  0  0  0
   -1.2682   27.0540  -26.9776 H   0  0  0  0  0  0  0  0  0  0  0  0
   -1.7112   25.3132  -26.9776 H   0  0  0  0  0  0  0  0  0  0  0  0
    0.9008   26.6021  -27.4894 H   0  0  0  0  0  0  0  0  0  0  0  0
    0.9986   25.2982  -26.2554 H   0  0  0  0  0  0  0  0  0  0  0  0
   -0.9979   23.5364  -26.2778 H   0  0  0  0  0  0  0  0  0  0  0  0
   -2.6796   22.9753  -26.5672 H   0  0  0  0  0  0  0  0  0  0  0  0
   -1.3261   21.7942  -26.5672 H   0  0  0  0  0  0  0  0  0  0  0  0
    0.0146   21.4938  -27.9443 H   0  0  0  0  0  0  0  0  0  0  0  0
   -0.9840   21.2431  -29.4163 H   0  0  0  0  0  0  0  0  0  0  0  0
    0.3220   22.4764  -29.4163 H   0  0  0  0  0  0  0  0  0  0  0  0
   -3.7180   25.2660  -29.0850 H   0  0  0  0  0  0  0  0  0  0  0  0
   -3.1030   25.6620  -30.7850 H   0  0  0  0  0  0  0  0  0  0  0  0
   -7.7024   24.1166  -31.3582 H   0  0  0  0  0  0  0  0  0  0  0  0
   -9.0712   21.8547  -32.3075 H   0  0  0  0  0  0  0  0  0  0  0  0
   -8.7843   19.5003  -33.0564 H   0  0  0  0  0  0  0  0  0  0  0  0
   -4.4813   17.7352  -33.6357 H   0  0  0  0  0  0  0  0  0  0  0  0
   -5.7177   17.1054  -34.7766 H   0  0  0  0  0  0  0  0  0  0  0  0
   -5.3031   18.8532  -34.7766 H   0  0  0  0  0  0  0  0  0  0  0  0
   -7.2344   17.1361  -31.5592 H   0  0  0  0  0  0  0  0  0  0  0  0
   -8.2818   17.2175  -33.0163 H   0  0  0  0  0  0  0  0  0  0  0  0
   -6.8228   16.1696  -33.0163 H   0  0  0  0  0  0  0  0  0  0  0  0
   -4.5484   19.8572  -32.3332 H   0  0  0  0  0  0  0  0  0  0  0  0
  1  2  1  0
  2  3  1  0
  3  4  1  0
  4  5  2  0
  4  6  1  0
  6  7  1  0
  6  8  1  0
  6  9  1  0
  9 10  2  0
  9 11  1  0
 11 12  1  0
 12 13  2  0
 12 14  1  0
 14 15  1  0
 15 16  1  0
 16 17  1  0
 16 18  2  0
 15 19  2  0
 19 20  1  0
 20 21  2  0
 21 22  1  0
 22 23  2  0
 23 24  1  0
 24 25  1  0
 24 26  1  0
 23 27  1  0
 27 28  2  0
 28 14  1  0
 28 20  1  0
  1 29  1  0
  1 30  1  0
  1 31  1  0
  2 32  1  0
  2 33  1  0
  7 34  1  0
  7 35  1  0
  7 36  1  0
  8 37  1  0
  8 38  1  0
  8 39  1  0
 17 40  1  0
 17 41  1  0
 19 42  1  0
 21 43  1  0
 22 44  1  0
 25 45  1  0
 25 46  1  0
 25 47  1  0
 26 48  1  0
 26 49  1  0
 26 50  1  0
 27 51  1  0
M  END
>  <smiles>  (34) 
CCOC(=O)C(C)(C)C(=O)OC(=O)n1c(C(N)=O)cc2ccc(N(C)C)cc21

>  <score_type>  (34) 
oracle

>  <origin>  (34) 
adg

>  <m_score__min__energy>  (34) 
-9.5199999999999996

>  <m_primary>  (34) 
energy

$$$$
36:0
     RDKit          3D

 42 44  0  0  0  0  0  0  0  0999 V2000
   -7.8270   18.3200  -32.4940 C   0  0  0  0  0  0  0  0  0  0  0  0
   -7.7890   19.7660  -32.1550 C   0  0  0  0  0  0  0  0  0  0  0  0
   -8.9490   20.5010  -32.1990 C   0  0  0  0  0  0  0  0  0  0  0  0
   -8.8980   21.8260  -31.8850 C   0  0  0  0  0  0  0  0  0  0  0  0
   -7.6950   22.4120  -31.5290 C   0  0  0  0  0  0  0  0  0  0  0  0
   -7.3720   23.6930  -31.1760 C   0  0  0  0  0  0  0  0  0  0  0  0
   -6.0100   23.7770  -30.9060 C   0  0  0  0  0  0  0  0  0  0  0  0
   -5.3650   25.0010  -30.5060 C   0  0  0  0  0  0  0  0  0  0  0  0
   -4.1300   24.9250  -29.7560 N   0  0  0  0  0  0  0  0  0  0  0  0
   -5.7580   26.1650  -30.7380 O   0  0  0  0  0  0  0  0  0  0  0  0
   -5.5100   22.5470  -31.0970 N   0  0  0  0  0  0  0  0  0  0  0  0
   -4.1720   22.1190  -30.9500 C   0  0  0  0  0  0  0  0  0  0  0  0
   -3.9150   20.9260  -30.5630 O   0  0  0  0  0  0  0  0  0  0  0  0
   -3.0520   22.8940  -31.1900 O   0  0  0  0  0  0  0  0  0  0  0  0
   -1.8280   22.6000  -30.5470 C   0  0  0  0  0  0  0  0  0  0  0  0
   -1.8330   23.0420  -29.1960 O   0  0  0  0  0  0  0  0  0  0  0  0
   -1.2930   24.2500  -28.8120 C   0  0  0  0  0  0  0  0  0  0  0  0
   -1.7750   25.2930  -29.3090 O   0  0  0  0  0  0  0  0  0  0  0  0
   -0.2010   24.3490  -27.8650 C   0  0  0  0  0  0  0  0  0  0  0  0
    1.0930   24.1690  -28.2120 N   0  0  0  0  0  0  0  0  0  0  0  0
    1.8460   24.3270  -27.1080 C   0  0  0  0  0  0  0  0  0  0  0  0
    1.0030   24.6160  -26.0300 C   0  0  0  0  0  0  0  0  0  0  0  0
   -0.2420   24.6160  -26.5530 N   0  0  0  0  0  0  0  0  0  0  0  0
   -1.4210   24.8740  -25.7700 C   0  0  0  0  0  0  0  0  0  0  0  0
   -6.5150   21.7020  -31.4760 C   0  0  0  0  0  0  0  0  0  0  0  0
   -6.5860   20.3630  -31.7960 C   0  0  0  0  0  0  0  0  0  0  0  0
   -7.8426   17.7266  -31.5679 H   0  0  0  0  0  0  0  0  0  0  0  0
   -8.7311   18.1050  -33.0825 H   0  0  0  0  0  0  0  0  0  0  0  0
   -6.9354   18.0578  -33.0825 H   0  0  0  0  0  0  0  0  0  0  0  0
   -9.9011   20.0286  -32.4824 H   0  0  0  0  0  0  0  0  0  0  0  0
   -9.8155   22.4321  -31.9144 H   0  0  0  0  0  0  0  0  0  0  0  0
   -8.0822   24.5308  -31.1148 H   0  0  0  0  0  0  0  0  0  0  0  0
   -3.9650   25.5920  -28.9670 H   0  0  0  0  0  0  0  0  0  0  0  0
   -3.4290   24.1950  -30.0320 H   0  0  0  0  0  0  0  0  0  0  0  0
   -1.6653   21.5123  -30.5672 H   0  0  0  0  0  0  0  0  0  0  0  0
   -1.0218   23.1251  -31.0802 H   0  0  0  0  0  0  0  0  0  0  0  0
    2.9418   24.2429  -27.0612 H   0  0  0  0  0  0  0  0  0  0  0  0
    1.2911   24.8025  -24.9849 H   0  0  0  0  0  0  0  0  0  0  0  0
   -1.1701   24.8191  -24.7004 H   0  0  0  0  0  0  0  0  0  0  0  0
   -1.8052   25.8775  -26.0055 H   0  0  0  0  0  0  0  0  0  0  0  0
   -2.1892   24.1227  -26.0055 H   0  0  0  0  0  0  0  0  0  0  0  0
   -5.6707   19.7536  -31.7666 H   0  0  0  0  0  0  0  0  0  0  0  0
  1  2  1  0
  2  3  2  0
  3  4  1  0
  4  5  2  0
  5  6  1  0
  6  7  2  0
  7  8  1  0
  8  9  1  0
  8 10  2  0
  7 11  1  0
 11 12  1  0
 12 13  2  0
 12 14  1  0
 14 15  1  0
 15 16  1  0
 16 17  1  0
 17 18  2  0
 17 19  1  0
 19 20  2  0
 20 21  1  0
 21 22  2  0
 22 23  1  0
 23 24  1  0
 11 25  1  0
 25 26  2  0
 26  2  1  0
 25  5  1  0
 23 19  1  0
  1 27  1  0
  1 28  1  0
  1 29  1  0
  3 30  1  0
  4 31  1  0
  6 32  1  0
  9 33  1  0
  9 34  1  0
 15 35  1  0
 15 36  1  0
 21 37  1  0
 22 38  1  0
 24 39  1  0
 24 40  1  0
 24 41  1  0
 26 42  1  0
M  END
>  <smiles>  (35) 
Cc1ccc2cc(C(N)=O)n(C(=O)OCOC(=O)c3nccn3C)c2c1

>  <score_type>  (35) 
oracle

>  <origin>  (35) 
adg

>  <m_score__min__energy>  (35) 
-8.3699999999999992

>  <m_primary>  (35) 
energy

$$$$
37:0
     RDKit          3D

 38 40  0  0  0  0  0  0  0  0999 V2000
   -7.0480   14.6140  -34.2720 C   0  0  0  0  0  0  0  0  0  0  0  0
   -6.6220   16.0390  -34.1430 C   0  0  0  0  0  0  0  0  0  0  0  0
   -5.5920   16.6250  -34.8060 N   0  0  0  0  0  0  0  0  0  0  0  0
   -5.5690   17.8540  -34.4070 O   0  0  0  0  0  0  0  0  0  0  0  0
   -6.5070   18.1030  -33.5370 C   0  0  0  0  0  0  0  0  0  0  0  0
   -6.7420   19.4010  -32.8980 C   0  0  0  0  0  0  0  0  0  0  0  0
   -8.0210   19.8150  -32.6150 C   0  0  0  0  0  0  0  0  0  0  0  0
   -8.2260   21.0380  -32.0160 C   0  0  0  0  0  0  0  0  0  0  0  0
   -7.1360   21.8290  -31.7070 C   0  0  0  0  0  0  0  0  0  0  0  0
   -7.0430   23.0670  -31.1190 C   0  0  0  0  0  0  0  0  0  0  0  0
   -5.6940   23.4400  -31.0290 C   0  0  0  0  0  0  0  0  0  0  0  0
   -5.2810   24.6990  -30.4520 C   0  0  0  0  0  0  0  0  0  0  0  0
   -5.3810   24.8860  -29.0210 N   0  0  0  0  0  0  0  0  0  0  0  0
   -4.8300   25.6860  -31.0730 O   0  0  0  0  0  0  0  0  0  0  0  0
   -4.9820   22.4330  -31.5580 N   0  0  0  0  0  0  0  0  0  0  0  0
   -3.5690   22.3780  -31.6770 C   0  0  0  0  0  0  0  0  0  0  0  0
   -2.9250   21.5580  -32.3400 O   0  0  0  0  0  0  0  0  0  0  0  0
   -2.7960   23.3350  -30.9880 O   0  0  0  0  0  0  0  0  0  0  0  0
   -2.0720   23.0300  -29.8390 C   0  0  0  0  0  0  0  0  0  0  0  0
   -2.1860   24.0520  -28.7290 C   0  0  0  0  0  0  0  0  0  0  0  0
   -2.6940   25.2090  -29.3410 O   0  0  0  0  0  0  0  0  0  0  0  0
   -5.8330   21.4530  -31.9730 C   0  0  0  0  0  0  0  0  0  0  0  0
   -5.6690   20.2190  -32.5770 C   0  0  0  0  0  0  0  0  0  0  0  0
   -7.1790   16.9760  -33.3580 N   0  0  0  0  0  0  0  0  0  0  0  0
   -7.1783   14.1782  -33.2705 H   0  0  0  0  0  0  0  0  0  0  0  0
   -8.0003   14.5642  -34.8203 H   0  0  0  0  0  0  0  0  0  0  0  0
   -6.2793   14.0497  -34.8203 H   0  0  0  0  0  0  0  0  0  0  0  0
   -8.8778   19.1723  -32.8658 H   0  0  0  0  0  0  0  0  0  0  0  0
   -9.2455   21.3811  -31.7862 H   0  0  0  0  0  0  0  0  0  0  0  0
   -7.8941   23.6717  -30.7726 H   0  0  0  0  0  0  0  0  0  0  0  0
   -4.7510   25.5220  -28.5000 H   0  0  0  0  0  0  0  0  0  0  0  0
   -6.1240   24.3530  -28.5000 H   0  0  0  0  0  0  0  0  0  0  0  0
   -2.4316   22.0644  -29.4538 H   0  0  0  0  0  0  0  0  0  0  0  0
   -1.0129   23.0107  -30.1355 H   0  0  0  0  0  0  0  0  0  0  0  0
   -2.8731   23.6964  -27.9470 H   0  0  0  0  0  0  0  0  0  0  0  0
   -1.2175   24.2376  -28.2415 H   0  0  0  0  0  0  0  0  0  0  0  0
   -2.9690   24.9420  -30.2520 H   0  0  0  0  0  0  0  0  0  0  0  0
   -4.6509   19.8743  -32.8110 H   0  0  0  0  0  0  0  0  0  0  0  0
  1  2  1  0
  2  3  2  0
  3  4  1  0
  4  5  1  0
  5  6  1  0
  6  7  2  0
  7  8  1  0
  8  9  2  0
  9 10  1  0
 10 11  2  0
 11 12  1  0
 12 13  1  0
 12 14  2  0
 11 15  1  0
 15 16  1  0
 16 17  2  0
 16 18  1  0
 18 19  1  0
 19 20  1  0
 20 21  1  0
 15 22  1  0
 22 23  2  0
  5 24  2  0
 24  2  1  0
 23  6  1  0
 22  9  1  0
  1 25  1  0
  1 26  1  0
  1 27  1  0
  7 28  1  0
  8 29  1  0
 10 30  1  0
 13 31  1  0
 13 32  1  0
 19 33  1  0
 19 34  1  0
 20 35  1  0
 20 36  1  0
 21 37  1  0
 23 38  1  0
M  END
>  <smiles>  (36) 
Cc1noc(-c2ccc3cc(C(N)=O)n(C(=O)OCCO)c3c2)n1

>  <score_type>  (36) 
oracle

>  <origin>  (36) 
adg

>  <m_score__min__energy>  (36) 
-8.8100000000000005

>  <m_primary>  (36) 
energy

$$$$
38:0
     RDKit          3D

 41 42  0  0  1  0  0  0  0  0999 V2000
   -6.9260   18.2490  -32.3560 C   0  0  0  0  0  0  0  0  0  0  0  0
   -7.1060   19.6860  -31.9700 C   0  0  0  0  0  0  0  0  0  0  0  0
   -8.3760   20.2040  -31.9390 C   0  0  0  0  0  0  0  0  0  0  0  0
   -8.5240   21.5170  -31.5850 C   0  0  0  0  0  0  0  0  0  0  0  0
   -7.4180   22.2870  -31.2690 C   0  0  0  0  0  0  0  0  0  0  0  0
   -7.3440   23.5870  -30.9000 C   0  0  0  0  0  0  0  0  0  0  0  0
   -5.9780   23.8700  -30.6990 C   0  0  0  0  0  0  0  0  0  0  0  0
   -5.5960   25.2330  -30.3590 C   0  0  0  0  0  0  0  0  0  0  0  0
   -4.3680   25.8570  -30.6370 N   0  0  0  0  0  0  0  0  0  0  0  0
   -6.4620   25.9620  -29.7530 O   0  0  0  0  0  0  0  0  0  0  0  0
   -5.2440   22.7840  -30.9320 N   0  0  0  0  0  0  0  0  0  0  0  0
   -3.8890   22.4760  -30.6980 C   0  0  0  0  0  0  0  0  0  0  0  0
   -3.0470   23.0530  -31.4740 O   0  0  0  0  0  0  0  0  0  0  0  0
   -3.3170   21.5970  -29.7200 C   0  0  0  0  0  0  0  0  0  0  0  0
   -3.1810   20.3270  -29.9140 O   0  0  0  0  0  0  0  0  0  0  0  0
   -2.8310   21.9870  -28.4340 N   0  0  0  0  0  0  0  0  0  0  0  0
   -2.5990   20.8530  -27.5210 C   0  0  0  0  0  0  0  0  0  0  0  0
   -2.5630   23.2800  -27.9390 C   0  0  2  0  0  0  0  0  0  0  0  0
   -3.8430   24.0950  -27.7540 C   0  0  0  0  0  0  0  0  0  0  0  0
   -1.7600   24.1020  -28.9330 C   0  0  0  0  0  0  0  0  0  0  0  0
   -0.6160   23.7030  -29.3080 O   0  0  0  0  0  0  0  0  0  0  0  0
   -2.2300   25.2810  -29.4520 O   0  0  0  0  0  0  0  0  0  0  0  0
   -6.1350   21.8060  -31.2890 C   0  0  0  0  0  0  0  0  0  0  0  0
   -5.9990   20.4690  -31.6510 C   0  0  0  0  0  0  0  0  0  0  0  0
   -6.8488   17.6324  -31.4483 H   0  0  0  0  0  0  0  0  0  0  0  0
   -7.7897   17.9183  -32.9515 H   0  0  0  0  0  0  0  0  0  0  0  0
   -6.0074   18.1416  -32.9515 H   0  0  0  0  0  0  0  0  0  0  0  0
   -9.2481   19.5828  -32.1910 H   0  0  0  0  0  0  0  0  0  0  0  0
   -9.5286   21.9639  -31.5512 H   0  0  0  0  0  0  0  0  0  0  0  0
   -8.1851   24.2858  -30.7804 H   0  0  0  0  0  0  0  0  0  0  0  0
   -3.9210   25.6810  -31.5680 H   0  0  0  0  0  0  0  0  0  0  0  0
   -3.9000   26.4890  -29.9280 H   0  0  0  0  0  0  0  0  0  0  0  0
   -2.6700   21.2002  -26.4797 H   0  0  0  0  0  0  0  0  0  0  0  0
   -3.3568   20.0763  -27.7011 H   0  0  0  0  0  0  0  0  0  0  0  0
   -1.5970   20.4363  -27.7011 H   0  0  0  0  0  0  0  0  0  0  0  0
   -2.0288   23.1116  -26.9923 H   0  0  0  0  0  0  0  0  0  0  0  0
   -4.0441   24.2231  -26.6802 H   0  0  0  0  0  0  0  0  0  0  0  0
   -3.7206   25.0818  -28.2244 H   0  0  0  0  0  0  0  0  0  0  0  0
   -4.6853   23.5666  -28.2244 H   0  0  0  0  0  0  0  0  0  0  0  0
   -1.6400   26.0480  -29.7430 H   0  0  0  0  0  0  0  0  0  0  0  0
   -4.9951   20.0207  -31.6860 H   0  0  0  0  0  0  0  0  0  0  0  0
  1  2  1  0
  2  3  2  0
  3  4  1  0
  4  5  2  0
  5  6  1  0
  6  7  2  0
  7  8  1  0
  8  9  1  0
  8 10  2  0
  7 11  1  0
 11 12  1  0
 12 13  2  0
 12 14  1  0
 14 15  2  0
 14 16  1  0
 16 17  1  0
 16 18  1  0
 18 19  1  0
 18 20  1  0
 20 21  2  0
 20 22  1  0
 11 23  1  0
 23 24  2  0
 24  2  1  0
 23  5  1  0
  1 25  1  0
  1 26  1  0
  1 27  1  0
  3 28  1  0
  4 29  1  0
  6 30  1  0
  9 31  1  0
  9 32  1  0
 17 33  1  0
 17 34  1  0
 17 35  1  0
 18 36  1  1
 19 37  1  0
 19 38  1  0
 19 39  1  0
 22 40  1  0
 24 41  1  0
M  END
>  <smiles>  (37) 
Cc1ccc2cc(C(N)=O)n(C(=O)C(=O)N(C)C(C)C(=O)O)c2c1

>  <score_type>  (37) 
oracle

>  <origin>  (37) 
adg

>  <m_score__min__energy>  (37) 
-10.140000000000001

>  <m_primary>  (37) 
energy

$$$$
39:0
     RDKit          3D

 40 41  0  0  0  0  0  0  0  0999 V2000
   -2.6100   20.6360  -29.5350 C   0  0  0  0  0  0  0  0  0  0  0  0
   -2.3770   22.0250  -30.0670 N   0  0  0  0  0  0  0  0  0  0  0  0
   -1.0250   21.8890  -30.6170 C   0  0  0  0  0  0  0  0  0  0  0  0
   -2.4460   22.9590  -29.0010 C   0  0  0  0  0  0  0  0  0  0  0  0
   -1.7650   24.2480  -29.1300 C   0  0  0  0  0  0  0  0  0  0  0  0
   -2.5190   25.2900  -29.0410 O   0  0  0  0  0  0  0  0  0  0  0  0
   -0.4360   24.5040  -29.3300 O   0  0  0  0  0  0  0  0  0  0  0  0
   -3.2750   22.1840  -31.1200 C   0  0  0  0  0  0  0  0  0  0  0  0
   -2.6840   22.2950  -32.2710 O   0  0  0  0  0  0  0  0  0  0  0  0
   -4.6750   22.2510  -31.2000 N   0  0  0  0  0  0  0  0  0  0  0  0
   -5.3790   23.3610  -30.8550 C   0  0  0  0  0  0  0  0  0  0  0  0
   -5.0190   24.6390  -30.2920 C   0  0  0  0  0  0  0  0  0  0  0  0
   -5.2860   24.9200  -28.8760 N   0  0  0  0  0  0  0  0  0  0  0  0
   -4.4790   25.6130  -30.8590 O   0  0  0  0  0  0  0  0  0  0  0  0
   -6.7400   23.0710  -31.1090 C   0  0  0  0  0  0  0  0  0  0  0  0
   -6.8550   21.8220  -31.5940 C   0  0  0  0  0  0  0  0  0  0  0  0
   -7.9630   21.1060  -31.9850 C   0  0  0  0  0  0  0  0  0  0  0  0
   -7.8420   19.8240  -32.4610 C   0  0  0  0  0  0  0  0  0  0  0  0
   -6.5760   19.2930  -32.5280 C   0  0  0  0  0  0  0  0  0  0  0  0
   -6.4410   17.9050  -33.0440 C   0  0  0  0  0  0  0  0  0  0  0  0
   -6.3330   17.9580  -34.4100 F   0  0  0  0  0  0  0  0  0  0  0  0
   -5.3190   17.3670  -32.4360 F   0  0  0  0  0  0  0  0  0  0  0  0
   -7.5650   17.1970  -32.7350 F   0  0  0  0  0  0  0  0  0  0  0  0
   -5.4700   20.0310  -32.1280 C   0  0  0  0  0  0  0  0  0  0  0  0
   -5.5620   21.3090  -31.6510 C   0  0  0  0  0  0  0  0  0  0  0  0
   -2.6061   20.6591  -28.4353 H   0  0  0  0  0  0  0  0  0  0  0  0
   -3.5828   20.2656  -29.8905 H   0  0  0  0  0  0  0  0  0  0  0  0
   -1.8113   19.9684  -29.8905 H   0  0  0  0  0  0  0  0  0  0  0  0
   -0.2997   21.8160  -29.7932 H   0  0  0  0  0  0  0  0  0  0  0  0
   -0.9703   20.9808  -31.2352 H   0  0  0  0  0  0  0  0  0  0  0  0
   -0.7905   22.7681  -31.2352 H   0  0  0  0  0  0  0  0  0  0  0  0
   -3.5114   23.1749  -28.8326 H   0  0  0  0  0  0  0  0  0  0  0  0
   -1.9046   22.4602  -28.1836 H   0  0  0  0  0  0  0  0  0  0  0  0
   -0.1240   25.2900  -29.8860 H   0  0  0  0  0  0  0  0  0  0  0  0
   -6.2180   24.6330  -28.4680 H   0  0  0  0  0  0  0  0  0  0  0  0
   -4.5740   25.3900  -28.2910 H   0  0  0  0  0  0  0  0  0  0  0  0
   -7.5777   23.7626  -30.9360 H   0  0  0  0  0  0  0  0  0  0  0  0
   -8.9593   21.5671  -31.9152 H   0  0  0  0  0  0  0  0  0  0  0  0
   -8.7227   19.2451  -32.7761 H   0  0  0  0  0  0  0  0  0  0  0  0
   -4.4753   19.5667  -32.1980 H   0  0  0  0  0  0  0  0  0  0  0  0
  1  2  1  0
  2  3  1  0
  2  4  1  0
  4  5  1  0
  5  6  2  0
  5  7  1  0
  2  8  1  0
  8  9  2  0
  8 10  1  0
 10 11  1  0
 11 12  1  0
 12 13  1  0
 12 14  2  0
 11 15  2  0
 15 16  1  0
 16 17  2  0
 17 18  1  0
 18 19  2  0
 19 20  1  0
 20 21  1  0
 20 22  1  0
 20 23  1  0
 19 24  1  0
 24 25  2  0
 25 10  1  0
 25 16  1  0
  1 26  1  0
  1 27  1  0
  1 28  1  0
  3 29  1  0
  3 30  1  0
  3 31  1  0
  4 32  1  0
  4 33  1  0
  7 34  1  0
 13 35  1  0
 13 36  1  0
 15 37  1  0
 17 38  1  0
 18 39  1  0
 24 40  1  0
M  CHG  1   2   1
M  END
>  <smiles>  (38) 
C[N+](C)(CC(=O)O)C(=O)n1c(C(N)=O)cc2ccc(C(F)(F)F)cc21

>  <score_type>  (38) 
oracle

>  <origin>  (38) 
adg

>  <m_score__min__energy>  (38) 
-8.2400000000000002

>  <m_primary>  (38) 
energy

$$$$
40:0
     RDKit          3D

 49 50  0  0  0  0  0  0  0  0999 V2000
   -6.3750   14.8150  -34.1890 C   0  0  0  0  0  0  0  0  0  0  0  0
   -6.0060   16.0310  -33.4600 N   0  0  0  0  0  0  0  0  0  0  0  0
   -5.0230   15.6500  -32.4620 C   0  0  0  0  0  0  0  0  0  0  0  0
   -5.4170   16.9610  -34.4090 C   0  0  0  0  0  0  0  0  0  0  0  0
   -6.0930   18.3090  -34.3540 C   0  0  0  0  0  0  0  0  0  0  0  0
   -6.7320   18.5580  -33.0840 N   0  0  0  0  0  0  0  0  0  0  0  0
   -6.9690   19.8450  -32.5400 C   0  0  0  0  0  0  0  0  0  0  0  0
   -8.2320   20.3950  -32.5080 C   0  0  0  0  0  0  0  0  0  0  0  0
   -8.4140   21.6580  -31.9830 C   0  0  0  0  0  0  0  0  0  0  0  0
   -7.3260   22.3470  -31.4990 C   0  0  0  0  0  0  0  0  0  0  0  0
   -7.2310   23.5960  -30.9360 C   0  0  0  0  0  0  0  0  0  0  0  0
   -5.8880   23.8590  -30.5970 C   0  0  0  0  0  0  0  0  0  0  0  0
   -5.5120   25.1030  -29.9880 C   0  0  0  0  0  0  0  0  0  0  0  0
   -6.1310   25.8040  -28.9430 N   0  0  0  0  0  0  0  0  0  0  0  0
   -4.4550   25.6790  -30.4530 O   0  0  0  0  0  0  0  0  0  0  0  0
   -5.1980   22.7650  -30.9620 N   0  0  0  0  0  0  0  0  0  0  0  0
   -3.8040   22.5890  -30.8080 C   0  0  0  0  0  0  0  0  0  0  0  0
   -2.9390   23.0350  -31.6180 O   0  0  0  0  0  0  0  0  0  0  0  0
   -3.1980   21.8600  -29.6750 C   0  0  0  0  0  0  0  0  0  0  0  0
   -2.6770   22.7530  -28.4220 P   0  0  0  0  0  5  0  0  0  0  0  0
   -4.1540   23.4070  -27.5630 C   0  0  0  0  0  0  0  0  0  0  0  0
   -1.7090   24.1530  -28.9780 C   0  0  0  0  0  0  0  0  0  0  0  0
   -6.0390   21.8420  -31.5070 C   0  0  0  0  0  0  0  0  0  0  0  0
   -5.8990   20.5780  -32.0400 C   0  0  0  0  0  0  0  0  0  0  0  0
   -6.6172   14.0168  -33.4719 H   0  0  0  0  0  0  0  0  0  0  0  0
   -7.2519   15.0184  -34.8212 H   0  0  0  0  0  0  0  0  0  0  0  0
   -5.5330   14.4968  -34.8212 H   0  0  0  0  0  0  0  0  0  0  0  0
   -5.4395   15.8114  -31.4568 H   0  0  0  0  0  0  0  0  0  0  0  0
   -4.7669   14.5875  -32.5865 H   0  0  0  0  0  0  0  0  0  0  0  0
   -4.1177   16.2624  -32.5865 H   0  0  0  0  0  0  0  0  0  0  0  0
   -4.3502   17.0861  -34.1718 H   0  0  0  0  0  0  0  0  0  0  0  0
   -5.5474   16.5504  -35.4211 H   0  0  0  0  0  0  0  0  0  0  0  0
   -5.3374   19.0894  -34.5272 H   0  0  0  0  0  0  0  0  0  0  0  0
   -6.8743   18.3218  -35.1283 H   0  0  0  0  0  0  0  0  0  0  0  0
   -7.0330   17.7010  -32.5440 H   0  0  0  0  0  0  0  0  0  0  0  0
   -9.0910   19.8300  -32.8991 H   0  0  0  0  0  0  0  0  0  0  0  0
   -9.4170   22.1086  -31.9518 H   0  0  0  0  0  0  0  0  0  0  0  0
   -8.0730   24.2851  -30.7744 H   0  0  0  0  0  0  0  0  0  0  0  0
   -6.8820   26.5340  -29.1160 H   0  0  0  0  0  0  0  0  0  0  0  0
   -5.8070   25.5770  -27.9570 H   0  0  0  0  0  0  0  0  0  0  0  0
   -3.1040   20.7640  -29.6796 H   0  0  0  0  0  0  0  0  0  0  0  0
   -1.9750   21.8980  -27.5370 H   0  0  0  0  0  0  0  0  0  0  0  0
   -4.0048   23.3409  -26.4752 H   0  0  0  0  0  0  0  0  0  0  0  0
   -4.3090   24.4579  -27.8487 H   0  0  0  0  0  0  0  0  0  0  0  0
   -5.0363   22.8154  -27.8487 H   0  0  0  0  0  0  0  0  0  0  0  0
   -1.3276   24.7046  -28.1060 H   0  0  0  0  0  0  0  0  0  0  0  0
   -0.8636   23.7965  -29.5848 H   0  0  0  0  0  0  0  0  0  0  0  0
   -2.3411   24.8180  -29.5848 H   0  0  0  0  0  0  0  0  0  0  0  0
   -4.8951   20.1294  -32.0709 H   0  0  0  0  0  0  0  0  0  0  0  0
  1  2  1  0
  2  3  1  0
  2  4  1  0
  4  5  1  0
  5  6  1  0
  6  7  1  0
  7  8  2  0
  8  9  1  0
  9 10  2  0
 10 11  1  0
 11 12  2  0
 12 13  1  0
 13 14  1  0
 13 15  2  0
 12 16  1  0
 16 17  1  0
 17 18  2  0
 17 19  1  0
 19 20  2  0
 20 21  1  0
 20 22  1  0
 16 23  1  0
 23 24  2  0
 24  7  1  0
 23 10  1  0
  1 25  1  0
  1 26  1  0
  1 27  1  0
  3 28  1  0
  3 29  1  0
  3 30  1  0
  4 31  1  0
  4 32  1  0
  5 33  1  0
  5 34  1  0
  6 35  1  0
  8 36  1  0
  9 37  1  0
 11 38  1  0
 14 39  1  0
 14 40  1  0
 19 41  1  0
 20 42  1  0
 21 43  1  0
 21 44  1  0
 21 45  1  0
 22 46  1  0
 22 47  1  0
 22 48  1  0
 24 49  1  0
M  END
>  <smiles>  (39) 
CN(C)CCNc1ccc2cc(C(N)=O)n(C(=O)C=[PH](C)C)c2c1

>  <score_type>  (39) 
oracle

>  <origin>  (39) 
adg

>  <m_score__min__energy>  (39) 
-9.6099999999999994

>  <m_primary>  (39) 
energy

$$$$
41:0
     RDKit          3D

 53 54  0  0  0  0  0  0  0  0999 V2000
   -1.1210   20.6220  -29.6390 C   0  0  0  0  0  0  0  0  0  0  0  0
   -2.2090   21.5860  -29.7170 N   0  0  0  0  0  0  0  0  0  0  0  0
   -3.5300   21.1950  -30.2250 C   0  0  0  0  0  0  0  0  0  0  0  0
   -4.0600   22.2450  -31.1300 C   0  0  0  0  0  0  0  0  0  0  0  0
   -3.1650   22.7240  -31.9130 O   0  0  0  0  0  0  0  0  0  0  0  0
   -5.3860   22.7100  -31.1760 N   0  0  0  0  0  0  0  0  0  0  0  0
   -5.7820   23.9730  -30.9360 C   0  0  0  0  0  0  0  0  0  0  0  0
   -5.0540   25.1730  -30.5860 C   0  0  0  0  0  0  0  0  0  0  0  0
   -3.6090   25.1300  -30.4620 N   0  0  0  0  0  0  0  0  0  0  0  0
   -5.5350   26.3030  -30.3660 O   0  0  0  0  0  0  0  0  0  0  0  0
   -7.1800   23.9950  -31.0890 C   0  0  0  0  0  0  0  0  0  0  0  0
   -7.6190   22.7610  -31.4160 C   0  0  0  0  0  0  0  0  0  0  0  0
   -8.8870   22.2910  -31.6630 C   0  0  0  0  0  0  0  0  0  0  0  0
   -9.0780   20.9690  -31.9810 C   0  0  0  0  0  0  0  0  0  0  0  0
   -7.9880   20.1350  -32.0460 C   0  0  0  0  0  0  0  0  0  0  0  0
   -8.1740   18.6970  -32.3900 C   0  0  0  0  0  0  0  0  0  0  0  0
   -7.2610   18.2850  -33.3400 F   0  0  0  0  0  0  0  0  0  0  0  0
   -7.9720   17.8970  -31.2580 F   0  0  0  0  0  0  0  0  0  0  0  0
   -6.7130   20.6380  -31.7900 C   0  0  0  0  0  0  0  0  0  0  0  0
   -6.4850   21.9550  -31.4690 C   0  0  0  0  0  0  0  0  0  0  0  0
   -1.9300   22.9090  -29.2780 C   0  0  0  0  0  0  0  0  0  0  0  0
   -1.3630   23.6750  -30.0760 O   0  0  0  0  0  0  0  0  0  0  0  0
   -2.3380   23.2910  -27.8960 C   0  0  0  0  0  0  0  0  0  0  0  0
   -2.6530   24.6730  -27.8210 O   0  0  0  0  0  0  0  0  0  0  0  0
   -1.6130   25.5910  -27.8650 C   0  0  0  0  0  0  0  0  0  0  0  0
   -1.2000   26.0960  -28.9620 O   0  0  0  0  0  0  0  0  0  0  0  0
   -0.9810   25.9810  -26.5980 C   0  0  0  0  0  0  0  0  0  0  0  0
   -1.9470   25.9750  -25.4360 C   0  0  0  0  0  0  0  0  0  0  0  0
   -0.4850   27.4160  -26.7520 C   0  0  0  0  0  0  0  0  0  0  0  0
    0.2130   25.1320  -26.2530 C   0  0  0  0  0  0  0  0  0  0  0  0
   -0.8885   20.4160  -28.5838 H   0  0  0  0  0  0  0  0  0  0  0  0
   -1.4218   19.6885  -30.1372 H   0  0  0  0  0  0  0  0  0  0  0  0
   -0.2305   21.0330  -30.1372 H   0  0  0  0  0  0  0  0  0  0  0  0
   -3.4413   20.2486  -30.7785 H   0  0  0  0  0  0  0  0  0  0  0  0
   -4.2191   21.0696  -29.3768 H   0  0  0  0  0  0  0  0  0  0  0  0
   -3.1100   25.6850  -29.7330 H   0  0  0  0  0  0  0  0  0  0  0  0
   -3.0520   24.5310  -31.1160 H   0  0  0  0  0  0  0  0  0  0  0  0
   -7.8180   24.8820  -30.9617 H   0  0  0  0  0  0  0  0  0  0  0  0
   -9.7479   22.9734  -31.6059 H   0  0  0  0  0  0  0  0  0  0  0  0
  -10.0886   20.5833  -32.1808 H   0  0  0  0  0  0  0  0  0  0  0  0
   -9.1986   18.5919  -32.7763 H   0  0  0  0  0  0  0  0  0  0  0  0
   -5.8544   19.9528  -31.8473 H   0  0  0  0  0  0  0  0  0  0  0  0
   -3.2227   22.7045  -27.6073 H   0  0  0  0  0  0  0  0  0  0  0  0
   -1.4995   23.0858  -27.2143 H   0  0  0  0  0  0  0  0  0  0  0  0
   -1.3839   25.9785  -24.4911 H   0  0  0  0  0  0  0  0  0  0  0  0
   -2.5857   26.8692  -25.4855 H   0  0  0  0  0  0  0  0  0  0  0  0
   -2.5746   25.0729  -25.4855 H   0  0  0  0  0  0  0  0  0  0  0  0
   -0.3316   27.8597  -25.7572 H   0  0  0  0  0  0  0  0  0  0  0  0
    0.4659   27.4179  -27.3049 H   0  0  0  0  0  0  0  0  0  0  0  0
   -1.2318   28.0047  -27.3049 H   0  0  0  0  0  0  0  0  0  0  0  0
    0.3101   25.0629  -25.1595 H   0  0  0  0  0  0  0  0  0  0  0  0
    0.0803   24.1243  -26.6737 H   0  0  0  0  0  0  0  0  0  0  0  0
    1.1212   25.5883  -26.6737 H   0  0  0  0  0  0  0  0  0  0  0  0
  1  2  1  0
  2  3  1  0
  3  4  1  0
  4  5  2  0
  4  6  1  0
  6  7  1  0
  7  8  1  0
  8  9  1  0
  8 10  2  0
  7 11  2  0
 11 12  1  0
 12 13  2  0
 13 14  1  0
 14 15  2  0
 15 16  1  0
 16 17  1  0
 16 18  1  0
 15 19  1  0
 19 20  2  0
  2 21  1  0
 21 22  2  0
 21 23  1  0
 23 24  1  0
 24 25  1  0
 25 26  2  0
 25 27  1  0
 27 28  1  0
 27 29  1  0
 27 30  1  0
 20  6  1  0
 20 12  1  0
  1 31  1  0
  1 32  1  0
  1 33  1  0
  3 34  1  0
  3 35  1  0
  9 36  1  0
  9 37  1  0
 11 38  1  0
 13 39  1  0
 14 40  1  0
 16 41  1  0
 19 42  1  0
 23 43  1  0
 23 44  1  0
 28 45  1  0
 28 46  1  0
 28 47  1  0
 29 48  1  0
 29 49  1  0
 29 50  1  0
 30 51  1  0
 30 52  1  0
 30 53  1  0
M  END
>  <smiles>  (40) 
CN(CC(=O)n1c(C(N)=O)cc2ccc(C(F)F)cc21)C(=O)COC(=O)C(C)(C)C

>  <score_type>  (40) 
oracle

>  <origin>  (40) 
adg

>  <m_score__min__energy>  (40) 
-9.6199999999999992

>  <m_primary>  (40) 
energy

$$$$
42:0
     RDKit          3D

 40 41  0  0  0  0  0  0  0  0999 V2000
   -4.9120   24.9810  -29.3720 N   0  0  0  0  0  0  0  0  0  0  0  0
   -6.2100   24.6250  -29.8740 C   0  0  0  0  0  0  0  0  0  0  0  0
   -7.1290   25.4220  -29.5750 O   0  0  0  0  0  0  0  0  0  0  0  0
   -6.3610   23.4190  -30.6580 C   0  0  0  0  0  0  0  0  0  0  0  0
   -7.6150   22.9030  -31.0000 C   0  0  0  0  0  0  0  0  0  0  0  0
   -7.4570   21.7590  -31.7410 C   0  0  0  0  0  0  0  0  0  0  0  0
   -8.3680   20.8930  -32.3090 C   0  0  0  0  0  0  0  0  0  0  0  0
   -7.9380   19.7990  -33.0170 C   0  0  0  0  0  0  0  0  0  0  0  0
   -6.5870   19.5920  -33.1440 C   0  0  0  0  0  0  0  0  0  0  0  0
   -6.1280   18.4000  -33.9150 C   0  0  0  0  0  0  0  0  0  0  0  0
   -6.9680   17.3300  -33.7020 F   0  0  0  0  0  0  0  0  0  0  0  0
   -6.0930   18.6600  -35.2560 F   0  0  0  0  0  0  0  0  0  0  0  0
   -4.8350   18.0360  -33.5540 F   0  0  0  0  0  0  0  0  0  0  0  0
   -5.6800   20.4750  -32.5660 C   0  0  0  0  0  0  0  0  0  0  0  0
   -6.0840   21.5830  -31.8470 C   0  0  0  0  0  0  0  0  0  0  0  0
   -5.4540   22.5900  -31.1910 N   0  0  0  0  0  0  0  0  0  0  0  0
   -4.0460   22.7000  -31.1120 C   0  0  0  0  0  0  0  0  0  0  0  0
   -3.5570   23.8800  -31.0530 O   0  0  0  0  0  0  0  0  0  0  0  0
   -3.1440   21.6780  -31.0920 O   0  0  0  0  0  0  0  0  0  0  0  0
   -2.8240   20.8760  -29.9920 C   0  0  0  0  0  0  0  0  0  0  0  0
   -2.1850   21.6750  -28.8900 C   0  0  0  0  0  0  0  0  0  0  0  0
   -2.1050   21.2360  -27.7130 O   0  0  0  0  0  0  0  0  0  0  0  0
   -1.6710   22.9580  -29.2300 N   0  0  0  0  0  0  0  0  0  0  0  0
   -1.0570   23.7140  -28.1400 C   0  0  0  0  0  0  0  0  0  0  0  0
   -1.4240   25.1740  -28.3320 C   0  0  0  0  0  0  0  0  0  0  0  0
   -2.4250   25.2440  -29.2980 O   0  0  0  0  0  0  0  0  0  0  0  0
   -4.5990   25.9760  -29.4270 H   0  0  0  0  0  0  0  0  0  0  0  0
   -4.2740   24.2790  -28.9560 H   0  0  0  0  0  0  0  0  0  0  0  0
   -8.5812   23.3468  -30.7179 H   0  0  0  0  0  0  0  0  0  0  0  0
   -9.4458   21.0805  -32.1937 H   0  0  0  0  0  0  0  0  0  0  0  0
   -8.6591   19.1041  -33.4721 H   0  0  0  0  0  0  0  0  0  0  0  0
   -4.6034   20.2839  -32.6859 H   0  0  0  0  0  0  0  0  0  0  0  0
   -3.7449   20.4124  -29.6086 H   0  0  0  0  0  0  0  0  0  0  0  0
   -2.1061   20.1107  -30.3221 H   0  0  0  0  0  0  0  0  0  0  0  0
   -1.7270   23.3450  -30.2080 H   0  0  0  0  0  0  0  0  0  0  0  0
   -1.4388   23.3551  -27.1728 H   0  0  0  0  0  0  0  0  0  0  0  0
    0.0355   23.5856  -28.1476 H   0  0  0  0  0  0  0  0  0  0  0  0
   -1.7905   25.5943  -27.3839 H   0  0  0  0  0  0  0  0  0  0  0  0
   -0.5433   25.7498  -28.6527 H   0  0  0  0  0  0  0  0  0  0  0  0
   -2.0120   25.6640  -30.1040 H   0  0  0  0  0  0  0  0  0  0  0  0
  1  2  1  0
  2  3  2  0
  2  4  1  0
  4  5  2  0
  5  6  1  0
  6  7  2  0
  7  8  1  0
  8  9  2  0
  9 10  1  0
 10 11  1  0
 10 12  1  0
 10 13  1  0
  9 14  1  0
 14 15  2  0
 15 16  1  0
 16 17  1  0
 17 18  2  0
 17 19  1  0
 19 20  1  0
 20 21  1  0
 21 22  2  0
 21 23  1  0
 23 24  1  0
 24 25  1  0
 25 26  1  0
 16  4  1  0
 15  6  1  0
  1 27  1  0
  1 28  1  0
  5 29  1  0
  7 30  1  0
  8 31  1  0
 14 32  1  0
 20 33  1  0
 20 34  1  0
 23 35  1  0
 24 36  1  0
 24 37  1  0
 25 38  1  0
 25 39  1  0
 26 40  1  0
M  END
>  <smiles>  (41) 
NC(=O)c1cc2ccc(C(F)(F)F)cc2n1C(=O)OCC(=O)NCCO

>  <score_type>  (41) 
oracle

>  <origin>  (41) 
adg

>  <m_score__min__energy>  (41) 
-7.7599999999999998

>  <m_primary>  (41) 
energy

$$$$
43:0
     RDKit          3D

 38 39  0  0  0  0  0  0  0  0999 V2000
   -6.1860   25.6850  -29.7220 C   0  0  0  0  0  0  0  0  0  0  0  0
   -5.9300   24.4440  -30.2450 C   0  0  0  0  0  0  0  0  0  0  0  0
   -7.0960   23.5590  -30.2310 C   0  0  0  0  0  0  0  0  0  0  0  0
   -4.5720   24.2360  -30.6160 C   0  0  0  0  0  0  0  0  0  0  0  0
   -3.9590   25.3870  -30.8180 O   0  0  0  0  0  0  0  0  0  0  0  0
   -3.7590   23.1180  -30.7990 N   0  0  0  0  0  0  0  0  0  0  0  0
   -2.4720   22.8650  -30.5450 C   0  0  0  0  0  0  0  0  0  0  0  0
   -1.5410   23.5590  -29.6550 C   0  0  0  0  0  0  0  0  0  0  0  0
   -1.8720   24.8770  -29.1640 N   0  0  0  0  0  0  0  0  0  0  0  0
   -0.4480   23.1040  -29.2630 O   0  0  0  0  0  0  0  0  0  0  0  0
   -2.0690   21.6530  -31.1210 C   0  0  0  0  0  0  0  0  0  0  0  0
   -3.1600   21.1520  -31.7420 C   0  0  0  0  0  0  0  0  0  0  0  0
   -3.2940   19.9730  -32.4620 C   0  0  0  0  0  0  0  0  0  0  0  0
   -4.5010   19.6380  -33.0260 C   0  0  0  0  0  0  0  0  0  0  0  0
   -5.5480   20.5100  -32.8470 C   0  0  0  0  0  0  0  0  0  0  0  0
   -6.8620   20.1530  -33.4560 C   0  0  0  0  0  0  0  0  0  0  0  0
   -7.7730   19.8170  -32.3220 C   0  0  0  0  0  0  0  0  0  0  0  0
   -8.1040   18.6360  -32.0390 O   0  0  0  0  0  0  0  0  0  0  0  0
   -8.2540   20.8850  -31.5730 O   0  0  0  0  0  0  0  0  0  0  0  0
   -9.4640   21.5550  -31.9280 C   0  0  0  0  0  0  0  0  0  0  0  0
   -5.4010   21.6960  -32.1190 C   0  0  0  0  0  0  0  0  0  0  0  0
   -4.1820   22.0410  -31.5450 C   0  0  0  0  0  0  0  0  0  0  0  0
   -5.3863   26.4391  -29.6783 H   0  0  0  0  0  0  0  0  0  0  0  0
   -7.1911   25.9267  -29.3460 H   0  0  0  0  0  0  0  0  0  0  0  0
   -7.3801   23.3433  -29.1905 H   0  0  0  0  0  0  0  0  0  0  0  0
   -7.9350   24.0497  -30.7460 H   0  0  0  0  0  0  0  0  0  0  0  0
   -6.8490   22.6189  -30.7460 H   0  0  0  0  0  0  0  0  0  0  0  0
   -2.0320   25.6740  -29.8230 H   0  0  0  0  0  0  0  0  0  0  0  0
   -1.9530   25.0250  -28.1260 H   0  0  0  0  0  0  0  0  0  0  0  0
   -1.0673   21.2007  -31.0768 H   0  0  0  0  0  0  0  0  0  0  0  0
   -2.4294   19.3035  -32.5816 H   0  0  0  0  0  0  0  0  0  0  0  0
   -4.6247   18.7072  -33.5991 H   0  0  0  0  0  0  0  0  0  0  0  0
   -7.2616   21.0049  -34.0258 H   0  0  0  0  0  0  0  0  0  0  0  0
   -6.7628   19.3075  -34.1527 H   0  0  0  0  0  0  0  0  0  0  0  0
  -10.0003   21.8519  -31.0146 H   0  0  0  0  0  0  0  0  0  0  0  0
   -9.2269   22.4503  -32.5214 H   0  0  0  0  0  0  0  0  0  0  0  0
  -10.0970   20.8789  -32.5214 H   0  0  0  0  0  0  0  0  0  0  0  0
   -6.2643   22.3669  -31.9986 H   0  0  0  0  0  0  0  0  0  0  0  0
  1  2  2  0
  2  3  1  0
  2  4  1  0
  4  5  2  0
  4  6  1  0
  6  7  1  0
  7  8  1  0
  8  9  1  0
  8 10  2  0
  7 11  2  0
 11 12  1  0
 12 13  2  0
 13 14  1  0
 14 15  2  0
 15 16  1  0
 16 17  1  0
 17 18  2  0
 17 19  1  0
 19 20  1  0
 15 21  1  0
 21 22  2  0
 22  6  1  0
 22 12  1  0
  1 23  1  0
  1 24  1  0
  3 25  1  0
  3 26  1  0
  3 27  1  0
  9 28  1  0
  9 29  1  0
 11 30  1  0
 13 31  1  0
 14 32  1  0
 16 33  1  0
 16 34  1  0
 20 35  1  0
 20 36  1  0
 20 37  1  0
 21 38  1  0
M  END
>  <smiles>  (42) 
C=C(C)C(=O)n1c(C(N)=O)cc2ccc(CC(=O)OC)cc21

>  <score_type>  (42) 
oracle

>  <origin>  (42) 
adg

>  <m_score__min__energy>  (42) 
-8.4800000000000004

>  <m_primary>  (42) 
energy

$$$$
44:0
     RDKit          3D

 42 43  0  0  0  0  0  0  0  0999 V2000
    0.3750   20.2480  -32.0980 C   0  0  0  0  0  0  0  0  0  0  0  0
   -1.1130   20.1540  -32.2760 C   0  0  1  0  0  0  0  0  0  0  0  0
   -1.8100   21.3280  -31.6590 C   0  0  0  0  0  0  0  0  0  0  0  0
   -1.1540   22.2490  -31.1070 O   0  0  0  0  0  0  0  0  0  0  0  0
   -3.2600   21.3670  -31.7170 N   0  0  0  0  0  0  0  0  0  0  0  0
   -3.9710   22.4370  -31.1580 C   0  0  0  0  0  0  0  0  0  0  0  0
   -3.2180   23.3290  -30.6300 O   0  0  0  0  0  0  0  0  0  0  0  0
   -5.3520   22.6710  -31.0940 N   0  0  0  0  0  0  0  0  0  0  0  0
   -5.8850   23.8600  -30.7350 C   0  0  0  0  0  0  0  0  0  0  0  0
   -5.3130   25.1430  -30.3870 C   0  0  0  0  0  0  0  0  0  0  0  0
   -5.9680   25.9710  -29.3810 N   0  0  0  0  0  0  0  0  0  0  0  0
   -4.2870   25.6730  -30.8450 O   0  0  0  0  0  0  0  0  0  0  0  0
   -7.2860   23.7020  -30.7600 C   0  0  0  0  0  0  0  0  0  0  0  0
   -7.5930   22.4290  -31.1320 C   0  0  0  0  0  0  0  0  0  0  0  0
   -8.8070   21.8180  -31.2910 C   0  0  0  0  0  0  0  0  0  0  0  0
   -8.8770   20.5010  -31.6760 C   0  0  0  0  0  0  0  0  0  0  0  0
   -7.6930   19.8410  -31.8890 C   0  0  0  0  0  0  0  0  0  0  0  0
   -7.7720   18.4150  -32.3050 C   0  0  0  0  0  0  0  0  0  0  0  0
   -9.0770   17.9710  -32.2640 F   0  0  0  0  0  0  0  0  0  0  0  0
   -7.2300   18.1740  -33.5410 F   0  0  0  0  0  0  0  0  0  0  0  0
   -7.0690   17.6100  -31.3970 F   0  0  0  0  0  0  0  0  0  0  0  0
   -6.4590   20.4810  -31.7210 C   0  0  0  0  0  0  0  0  0  0  0  0
   -6.3740   21.7980  -31.3370 C   0  0  0  0  0  0  0  0  0  0  0  0
   -1.5490   19.9070  -33.6110 N   0  0  0  0  0  0  0  0  0  0  0  0
   -0.7920   20.4900  -34.7050 C   0  0  0  0  0  0  0  0  0  0  0  0
   -2.6970   19.1070  -33.8630 C   0  0  0  0  0  0  0  0  0  0  0  0
   -3.8380   19.5940  -33.8100 O   0  0  0  0  0  0  0  0  0  0  0  0
    0.6157   20.2632  -31.0248 H   0  0  0  0  0  0  0  0  0  0  0  0
    0.8563   19.3785  -32.5694 H   0  0  0  0  0  0  0  0  0  0  0  0
    0.7431   21.1712  -32.5694 H   0  0  0  0  0  0  0  0  0  0  0  0
   -1.4095   19.2469  -31.7289 H   0  0  0  0  0  0  0  0  0  0  0  0
   -3.7060   20.6060  -32.1670 H   0  0  0  0  0  0  0  0  0  0  0  0
   -5.7760   25.7570  -28.3760 H   0  0  0  0  0  0  0  0  0  0  0  0
   -6.6050   26.7470  -29.6760 H   0  0  0  0  0  0  0  0  0  0  0  0
   -8.0178   24.4863  -30.5165 H   0  0  0  0  0  0  0  0  0  0  0  0
   -9.7322   22.3846  -31.1095 H   0  0  0  0  0  0  0  0  0  0  0  0
   -9.8448   19.9952  -31.8084 H   0  0  0  0  0  0  0  0  0  0  0  0
   -5.5332   19.9149  -31.9011 H   0  0  0  0  0  0  0  0  0  0  0  0
    0.0180   21.1138  -34.2990 H   0  0  0  0  0  0  0  0  0  0  0  0
   -0.3623   19.6873  -35.3223 H   0  0  0  0  0  0  0  0  0  0  0  0
   -1.4584   21.1104  -35.3223 H   0  0  0  0  0  0  0  0  0  0  0  0
   -2.5727   18.0419  -34.1083 H   0  0  0  0  0  0  0  0  0  0  0  0
  1  2  1  0
  2  3  1  0
  3  4  2  0
  3  5  1  0
  5  6  1  0
  6  7  2  0
  6  8  1  0
  8  9  1  0
  9 10  1  0
 10 11  1  0
 10 12  2  0
  9 13  2  0
 13 14  1  0
 14 15  2  0
 15 16  1  0
 16 17  2  0
 17 18  1  0
 18 19  1  0
 18 20  1  0
 18 21  1  0
 17 22  1  0
 22 23  2  0
  2 24  1  0
 24 25  1  0
 24 26  1  0
 26 27  2  0
 23  8  1  0
 23 14  1  0
  1 28  1  0
  1 29  1  0
  1 30  1  0
  2 31  1  1
  5 32  1  0
 11 33  1  0
 11 34  1  0
 13 35  1  0
 15 36  1  0
 16 37  1  0
 22 38  1  0
 25 39  1  0
 25 40  1  0
 25 41  1  0
 26 42  1  0
M  END
>  <smiles>  (43) 
C[C@@H](C(=O)NC(=O)n1c(C(N)=O)cc2ccc(C(F)(F)F)cc21)N(C)C=O

>  <score_type>  (43) 
oracle

>  <origin>  (43) 
adg

>  <m_score__min__energy>  (43) 
-8.4900000000000002

>  <m_primary>  (43) 
energy

$$$$
45:0
     RDKit          3D

 46 47  0  0  1  0  0  0  0  0999 V2000
   -6.0960   18.4300  -33.9720 C   0  0  0  0  0  0  0  0  0  0  0  0
   -6.8110   18.3410  -32.6290 C   0  0  2  0  0  0  0  0  0  0  0  0
   -7.9760   17.6290  -32.7010 F   0  0  0  0  0  0  0  0  0  0  0  0
   -7.0440   19.7720  -32.2200 C   0  0  0  0  0  0  0  0  0  0  0  0
   -8.3080   20.2710  -32.2490 C   0  0  0  0  0  0  0  0  0  0  0  0
   -8.4980   21.5800  -31.8710 C   0  0  0  0  0  0  0  0  0  0  0  0
   -7.4120   22.3520  -31.4760 C   0  0  0  0  0  0  0  0  0  0  0  0
   -7.3760   23.6390  -31.0740 C   0  0  0  0  0  0  0  0  0  0  0  0
   -6.0410   23.9190  -30.7940 C   0  0  0  0  0  0  0  0  0  0  0  0
   -5.7030   25.2410  -30.2470 C   0  0  0  0  0  0  0  0  0  0  0  0
   -4.4430   25.8550  -30.6090 N   0  0  0  0  0  0  0  0  0  0  0  0
   -6.4110   25.9030  -29.4820 O   0  0  0  0  0  0  0  0  0  0  0  0
   -5.2550   22.8640  -31.0110 N   0  0  0  0  0  0  0  0  0  0  0  0
   -3.8700   22.6670  -31.0820 C   0  0  0  0  0  0  0  0  0  0  0  0
   -3.2030   23.7920  -31.2440 O   0  0  0  0  0  0  0  0  0  0  0  0
   -3.0340   21.5630  -31.0110 N   0  0  0  0  0  0  0  0  0  0  0  0
   -3.2850   20.1620  -30.9530 C   0  0  0  0  0  0  0  0  0  0  0  0
   -1.5600   21.8840  -30.9870 C   0  0  0  0  0  0  0  0  0  0  0  0
   -1.2740   22.6770  -29.7720 C   0  0  0  0  0  0  0  0  0  0  0  0
   -0.1480   23.2050  -29.6710 O   0  0  0  0  0  0  0  0  0  0  0  0
   -2.2660   22.7850  -28.8230 O   0  0  0  0  0  0  0  0  0  0  0  0
   -2.1050   23.5300  -27.6390 C   0  0  0  0  0  0  0  0  0  0  0  0
   -1.8560   25.0090  -27.9460 C   0  0  0  0  0  0  0  0  0  0  0  0
   -2.2850   25.2820  -29.2360 O   0  0  0  0  0  0  0  0  0  0  0  0
   -6.1270   21.8810  -31.4350 C   0  0  0  0  0  0  0  0  0  0  0  0
   -5.9610   20.5570  -31.8200 C   0  0  0  0  0  0  0  0  0  0  0  0
   -5.0171   18.5643  -33.8048 H   0  0  0  0  0  0  0  0  0  0  0  0
   -6.2665   17.5037  -34.5403 H   0  0  0  0  0  0  0  0  0  0  0  0
   -6.4884   19.2862  -34.5403 H   0  0  0  0  0  0  0  0  0  0  0  0
   -6.2091   17.7952  -31.8875 H   0  0  0  0  0  0  0  0  0  0  0  0
   -9.1555   19.6455  -32.5659 H   0  0  0  0  0  0  0  0  0  0  0  0
   -9.5082   22.0151  -31.8814 H   0  0  0  0  0  0  0  0  0  0  0  0
   -8.2288   24.3281  -30.9853 H   0  0  0  0  0  0  0  0  0  0  0  0
   -3.9040   26.4040  -29.9080 H   0  0  0  0  0  0  0  0  0  0  0  0
   -4.0700   25.7440  -31.5940 H   0  0  0  0  0  0  0  0  0  0  0  0
   -3.3422   19.8429  -29.9018 H   0  0  0  0  0  0  0  0  0  0  0  0
   -4.2374   19.9390  -31.4562 H   0  0  0  0  0  0  0  0  0  0  0  0
   -2.4693   19.6222  -31.4562 H   0  0  0  0  0  0  0  0  0  0  0  0
   -0.9771   20.9514  -30.9675 H   0  0  0  0  0  0  0  0  0  0  0  0
   -1.2834   22.4559  -31.8850 H   0  0  0  0  0  0  0  0  0  0  0  0
   -3.0167   23.4383  -27.0304 H   0  0  0  0  0  0  0  0  0  0  0  0
   -1.2344   23.1356  -27.0945 H   0  0  0  0  0  0  0  0  0  0  0  0
   -2.4142   25.6326  -27.2322 H   0  0  0  0  0  0  0  0  0  0  0  0
   -0.7822   25.2307  -27.8573 H   0  0  0  0  0  0  0  0  0  0  0  0
   -1.7810   24.6390  -29.8240 H   0  0  0  0  0  0  0  0  0  0  0  0
   -4.9530   20.1167  -31.8095 H   0  0  0  0  0  0  0  0  0  0  0  0
  1  2  1  0
  2  3  1  0
  2  4  1  0
  4  5  2  0
  5  6  1  0
  6  7  2  0
  7  8  1  0
  8  9  2  0
  9 10  1  0
 10 11  1  0
 10 12  2  0
  9 13  1  0
 13 14  1  0
 14 15  2  0
 14 16  1  0
 16 17  1  0
 16 18  1  0
 18 19  1  0
 19 20  2  0
 19 21  1  0
 21 22  1  0
 22 23  1  0
 23 24  1  0
 13 25  1  0
 25 26  2  0
 26  4  1  0
 25  7  1  0
  1 27  1  0
  1 28  1  0
  1 29  1  0
  2 30  1  1
  5 31  1  0
  6 32  1  0
  8 33  1  0
 11 34  1  0
 11 35  1  0
 17 36  1  0
 17 37  1  0
 17 38  1  0
 18 39  1  0
 18 40  1  0
 22 41  1  0
 22 42  1  0
 23 43  1  0
 23 44  1  0
 24 45  1  0
 26 46  1  0
M  END
>  <smiles>  (44) 
CC(F)c1ccc2cc(C(N)=O)n(C(=O)N(C)CC(=O)OCCO)c2c1

>  <score_type>  (44) 
oracle

>  <origin>  (44) 
adg

>  <m_score__min__energy>  (44) 
-8.1099999999999994

>  <m_primary>  (44) 
energy

$$$$
46:0
     RDKit          3D

 60 62  0  0  0  0  0  0  0  0999 V2000
    0.5980   21.7280  -27.5960 C   0  0  0  0  0  0  0  0  0  0  0  0
   -0.3990   22.7240  -28.0720 C   0  0  0  0  0  0  0  0  0  0  0  0
   -0.1520   23.9500  -28.5280 O   0  0  0  0  0  0  0  0  0  0  0  0
   -1.2850   24.5260  -28.8520 C   0  0  0  0  0  0  0  0  0  0  0  0
   -1.5070   25.6720  -29.3190 O   0  0  0  0  0  0  0  0  0  0  0  0
   -2.2800   23.6810  -28.6100 O   0  0  0  0  0  0  0  0  0  0  0  0
   -1.7670   22.5590  -28.1280 C   0  0  0  0  0  0  0  0  0  0  0  0
   -2.5660   21.3590  -27.7310 C   0  0  0  0  0  0  0  0  0  0  0  0
   -2.8340   20.5090  -28.8170 O   0  0  0  0  0  0  0  0  0  0  0  0
   -2.4730   20.7410  -30.1080 C   0  0  0  0  0  0  0  0  0  0  0  0
   -1.2700   20.8450  -30.4570 O   0  0  0  0  0  0  0  0  0  0  0  0
   -3.4970   20.8850  -31.1820 N   0  0  0  0  0  0  0  0  0  0  0  0
   -3.6730   19.6840  -31.9090 C   0  0  0  0  0  0  0  0  0  0  0  0
   -3.2700   19.8660  -33.3600 C   0  0  0  0  0  0  0  0  0  0  0  0
   -2.9000   20.9530  -33.8180 O   0  0  0  0  0  0  0  0  0  0  0  0
   -3.3420   18.7280  -34.1530 O   0  0  0  0  0  0  0  0  0  0  0  0
   -4.5000   17.9270  -34.2410 C   0  0  0  0  0  0  0  0  0  0  0  0
   -4.7070   16.9950  -33.0950 C   0  0  0  0  0  0  0  0  0  0  0  0
   -4.2490   17.0420  -35.4710 C   0  0  0  0  0  0  0  0  0  0  0  0
   -5.7450   18.7280  -34.5860 C   0  0  0  0  0  0  0  0  0  0  0  0
   -4.0480   22.1550  -31.2780 C   0  0  0  0  0  0  0  0  0  0  0  0
   -3.1570   23.0750  -31.5910 O   0  0  0  0  0  0  0  0  0  0  0  0
   -5.3360   22.6830  -31.1070 N   0  0  0  0  0  0  0  0  0  0  0  0
   -5.8370   23.9020  -30.9930 C   0  0  0  0  0  0  0  0  0  0  0  0
   -5.1480   25.1460  -30.5810 C   0  0  0  0  0  0  0  0  0  0  0  0
   -3.8510   25.1140  -30.0010 N   0  0  0  0  0  0  0  0  0  0  0  0
   -5.6720   26.2810  -30.7210 O   0  0  0  0  0  0  0  0  0  0  0  0
   -7.2250   23.9250  -31.1010 C   0  0  0  0  0  0  0  0  0  0  0  0
   -7.5930   22.6300  -31.2880 C   0  0  0  0  0  0  0  0  0  0  0  0
   -8.8630   22.1010  -31.4540 C   0  0  0  0  0  0  0  0  0  0  0  0
   -9.0190   20.7540  -31.6330 C   0  0  0  0  0  0  0  0  0  0  0  0
   -7.8930   19.9690  -31.6410 C   0  0  0  0  0  0  0  0  0  0  0  0
   -8.0550   18.4910  -31.8370 C   0  0  0  0  0  0  0  0  0  0  0  0
   -8.0210   18.2140  -33.1910 F   0  0  0  0  0  0  0  0  0  0  0  0
   -7.0330   17.8300  -31.1770 F   0  0  0  0  0  0  0  0  0  0  0  0
   -9.2910   18.1680  -31.3110 F   0  0  0  0  0  0  0  0  0  0  0  0
   -6.6160   20.5170  -31.4720 C   0  0  0  0  0  0  0  0  0  0  0  0
   -6.4480   21.8820  -31.2900 C   0  0  0  0  0  0  0  0  0  0  0  0
    0.6090   21.7170  -26.4961 H   0  0  0  0  0  0  0  0  0  0  0  0
    0.3264   20.7298  -27.9699 H   0  0  0  0  0  0  0  0  0  0  0  0
    1.5959   22.0006  -27.9699 H   0  0  0  0  0  0  0  0  0  0  0  0
   -2.0032   20.7955  -26.9722 H   0  0  0  0  0  0  0  0  0  0  0  0
   -3.5301   21.7139  -27.3379 H   0  0  0  0  0  0  0  0  0  0  0  0
   -3.0515   18.8960  -31.4587 H   0  0  0  0  0  0  0  0  0  0  0  0
   -4.7359   19.4031  -31.8719 H   0  0  0  0  0  0  0  0  0  0  0  0
   -4.5851   17.5438  -32.1495 H   0  0  0  0  0  0  0  0  0  0  0  0
   -5.7210   16.5717  -33.1452 H   0  0  0  0  0  0  0  0  0  0  0  0
   -3.9675   16.1822  -33.1452 H   0  0  0  0  0  0  0  0  0  0  0  0
   -3.9625   16.0317  -35.1435 H   0  0  0  0  0  0  0  0  0  0  0  0
   -5.1664   16.9852  -36.0752 H   0  0  0  0  0  0  0  0  0  0  0  0
   -3.4383   17.4753  -36.0752 H   0  0  0  0  0  0  0  0  0  0  0  0
   -6.2433   19.0486  -33.6592 H   0  0  0  0  0  0  0  0  0  0  0  0
   -5.4604   19.6129  -35.1742 H   0  0  0  0  0  0  0  0  0  0  0  0
   -6.4323   18.1022  -35.1742 H   0  0  0  0  0  0  0  0  0  0  0  0
   -3.0560   24.9170  -30.6480 H   0  0  0  0  0  0  0  0  0  0  0  0
   -3.7180   25.2850  -28.9650 H   0  0  0  0  0  0  0  0  0  0  0  0
   -7.8837   24.8043  -31.0466 H   0  0  0  0  0  0  0  0  0  0  0  0
   -9.7423   22.7618  -31.4419 H   0  0  0  0  0  0  0  0  0  0  0  0
  -10.0177   20.3126  -31.7666 H   0  0  0  0  0  0  0  0  0  0  0  0
   -5.7356   19.8577  -31.4836 H   0  0  0  0  0  0  0  0  0  0  0  0
  1  2  1  0
  2  3  1  0
  3  4  1  0
  4  5  2  0
  4  6  1  0
  6  7  1  0
  7  8  1  0
  8  9  1  0
  9 10  1  0
 10 11  2  0
 10 12  1  0
 12 13  1  0
 13 14  1  0
 14 15  2  0
 14 16  1  0
 16 17  1  0
 17 18  1  0
 17 19  1  0
 17 20  1  0
 12 21  1  0
 21 22  2  0
 21 23  1  0
 23 24  1  0
 24 25  1  0
 25 26  1  0
 25 27  2  0
 24 28  2  0
 28 29  1  0
 29 30  2  0
 30 31  1  0
 31 32  2  0
 32 33  1  0
 33 34  1  0
 33 35  1  0
 33 36  1  0
 32 37  1  0
 37 38  2  0
  7  2  2  0
 38 23  1  0
 38 29  1  0
  1 39  1  0
  1 40  1  0
  1 41  1  0
  8 42  1  0
  8 43  1  0
 13 44  1  0
 13 45  1  0
 18 46  1  0
 18 47  1  0
 18 48  1  0
 19 49  1  0
 19 50  1  0
 19 51  1  0
 20 52  1  0
 20 53  1  0
 20 54  1  0
 26 55  1  0
 26 56  1  0
 28 57  1  0
 30 58  1  0
 31 59  1  0
 37 60  1  0
M  END
>  <smiles>  (45) 
Cc1oc(=O)oc1COC(=O)N(CC(=O)OC(C)(C)C)C(=O)n1c(C(N)=O)cc2ccc(C(F)(F)F)cc21

>  <score_type>  (45) 
oracle

>  <origin>  (45) 
adg

>  <m_score__min__energy>  (45) 
-10.06

>  <m_primary>  (45) 
energy

$$$$
47:0
     RDKit          3D

 45 46  0  0  0  0  0  0  0  0999 V2000
   -4.6830   18.6490  -34.1910 C   0  0  0  0  0  0  0  0  0  0  0  0
   -3.8550   18.1220  -33.2970 C   0  0  0  0  0  0  0  0  0  0  0  0
   -2.7930   18.9360  -32.6430 C   0  0  0  0  0  0  0  0  0  0  0  0
   -2.8520   20.3680  -33.1870 C   0  0  0  0  0  0  0  0  0  0  0  0
   -2.3210   21.2660  -32.1420 C   0  0  0  0  0  0  0  0  0  0  0  0
   -1.0780   21.3240  -31.9480 O   0  0  0  0  0  0  0  0  0  0  0  0
   -3.2280   22.0960  -31.3240 N   0  0  0  0  0  0  0  0  0  0  0  0
   -2.7130   22.3720  -30.0160 C   0  0  0  0  0  0  0  0  0  0  0  0
   -3.3230   23.6910  -29.5160 C   0  0  0  0  0  0  0  0  0  0  0  0
   -3.9740   23.7050  -28.4400 O   0  0  0  0  0  0  0  0  0  0  0  0
   -3.1500   24.8520  -30.2560 O   0  0  0  0  0  0  0  0  0  0  0  0
   -4.4360   22.4230  -31.9320 C   0  0  0  0  0  0  0  0  0  0  0  0
   -4.3060   22.6170  -33.2340 O   0  0  0  0  0  0  0  0  0  0  0  0
   -5.7440   22.5990  -31.4850 N   0  0  0  0  0  0  0  0  0  0  0  0
   -6.4560   23.6340  -31.0440 C   0  0  0  0  0  0  0  0  0  0  0  0
   -5.9620   24.9090  -30.4810 C   0  0  0  0  0  0  0  0  0  0  0  0
   -6.0980   25.2000  -29.0960 N   0  0  0  0  0  0  0  0  0  0  0  0
   -5.4080   25.7910  -31.1860 O   0  0  0  0  0  0  0  0  0  0  0  0
   -7.8120   23.3510  -30.9580 C   0  0  0  0  0  0  0  0  0  0  0  0
   -7.9430   22.0610  -31.3640 C   0  0  0  0  0  0  0  0  0  0  0  0
   -9.0870   21.2880  -31.4650 C   0  0  0  0  0  0  0  0  0  0  0  0
   -9.0030   20.0010  -31.9010 C   0  0  0  0  0  0  0  0  0  0  0  0
   -7.7590   19.5080  -32.2290 C   0  0  0  0  0  0  0  0  0  0  0  0
   -7.6720   18.1010  -32.7050 C   0  0  0  0  0  0  0  0  0  0  0  0
   -6.6140   20.2980  -32.1220 C   0  0  0  0  0  0  0  0  0  0  0  0
   -6.6910   21.6100  -31.6800 C   0  0  0  0  0  0  0  0  0  0  0  0
   -5.4582   18.0239  -34.6582 H   0  0  0  0  0  0  0  0  0  0  0  0
   -4.5938   19.7107  -34.4645 H   0  0  0  0  0  0  0  0  0  0  0  0
   -3.9557   17.0589  -33.0330 H   0  0  0  0  0  0  0  0  0  0  0  0
   -2.9557   18.9482  -31.5552 H   0  0  0  0  0  0  0  0  0  0  0  0
   -1.8065   18.4987  -32.8568 H   0  0  0  0  0  0  0  0  0  0  0  0
   -2.2397   20.4488  -34.0973 H   0  0  0  0  0  0  0  0  0  0  0  0
   -3.8865   20.6417  -33.4417 H   0  0  0  0  0  0  0  0  0  0  0  0
   -2.9845   21.5552  -29.3311 H   0  0  0  0  0  0  0  0  0  0  0  0
   -1.6169   22.4561  -30.0542 H   0  0  0  0  0  0  0  0  0  0  0  0
   -3.5170   24.9300  -31.2140 H   0  0  0  0  0  0  0  0  0  0  0  0
   -6.2370   26.2000  -28.7710 H   0  0  0  0  0  0  0  0  0  0  0  0
   -6.0540   24.4050  -28.4280 H   0  0  0  0  0  0  0  0  0  0  0  0
   -8.6133   24.0294  -30.6297 H   0  0  0  0  0  0  0  0  0  0  0  0
  -10.0641   21.7137  -31.1929 H   0  0  0  0  0  0  0  0  0  0  0  0
   -9.9020   19.3732  -31.9888 H   0  0  0  0  0  0  0  0  0  0  0  0
   -7.6301   17.4231  -31.8397 H   0  0  0  0  0  0  0  0  0  0  0  0
   -8.5572   17.8644  -33.3136 H   0  0  0  0  0  0  0  0  0  0  0  0
   -6.7644   17.9753  -33.3136 H   0  0  0  0  0  0  0  0  0  0  0  0
   -5.6357   19.8738  -32.3923 H   0  0  0  0  0  0  0  0  0  0  0  0
  1  2  2  0
  2  3  1  0
  3  4  1  0
  4  5  1  0
  5  6  2  0
  5  7  1  0
  7  8  1  0
  8  9  1  0
  9 10  2  0
  9 11  1  0
  7 12  1  0
 12 13  2  0
 12 14  1  0
 14 15  1  0
 15 16  1  0
 16 17  1  0
 16 18  2  0
 15 19  2  0
 19 20  1  0
 20 21  2  0
 21 22  1  0
 22 23  2  0
 23 24  1  0
 23 25  1  0
 25 26  2  0
 26 14  1  0
 26 20  1  0
  1 27  1  0
  1 28  1  0
  2 29  1  0
  3 30  1  0
  3 31  1  0
  4 32  1  0
  4 33  1  0
  8 34  1  0
  8 35  1  0
 11 36  1  0
 17 37  1  0
 17 38  1  0
 19 39  1  0
 21 40  1  0
 22 41  1  0
 24 42  1  0
 24 43  1  0
 24 44  1  0
 25 45  1  0
M  END
>  <smiles>  (46) 
C=CCCC(=O)N(CC(=O)O)C(=O)n1c(C(N)=O)cc2ccc(C)cc21

>  <score_type>  (46) 
oracle

>  <origin>  (46) 
adg

>  <m_score__min__energy>  (46) 
-9.6300000000000008

>  <m_primary>  (46) 
energy

$$$$
48:0
     RDKit          3D

 49 51  0  0  0  0  0  0  0  0999 V2000
   -1.1520   21.5120  -26.2980 C   0  0  0  0  0  0  0  0  0  0  0  0
   -1.4350   22.2320  -27.5210 N   0  0  0  0  0  0  0  0  0  0  0  0
   -2.2180   23.4590  -27.3400 C   0  0  0  0  0  0  0  0  0  0  0  0
   -1.5700   24.7000  -27.8110 C   0  0  0  0  0  0  0  0  0  0  0  0
   -2.3010   25.2940  -28.9560 N   0  0  0  0  0  0  0  0  0  0  0  0
   -0.0820   24.8650  -27.9020 C   0  0  0  0  0  0  0  0  0  0  0  0
   -0.9540   25.7210  -26.9450 C   0  0  0  0  0  0  0  0  0  0  0  0
   -1.0480   21.8950  -28.8230 C   0  0  0  0  0  0  0  0  0  0  0  0
    0.2210   21.6150  -28.9530 O   0  0  0  0  0  0  0  0  0  0  0  0
   -1.7880   21.7900  -30.0640 C   0  0  0  0  0  0  0  0  0  0  0  0
   -2.9690   22.5710  -30.2430 N   0  0  0  0  0  0  0  0  0  0  0  0
   -4.1530   21.9270  -30.6740 C   0  0  0  0  0  0  0  0  0  0  0  0
   -4.0150   20.6600  -30.8290 O   0  0  0  0  0  0  0  0  0  0  0  0
   -5.4050   22.5180  -30.9270 N   0  0  0  0  0  0  0  0  0  0  0  0
   -5.8460   23.7780  -30.7690 C   0  0  0  0  0  0  0  0  0  0  0  0
   -5.1520   25.0120  -30.5340 C   0  0  0  0  0  0  0  0  0  0  0  0
   -5.8680   26.0760  -29.8500 N   0  0  0  0  0  0  0  0  0  0  0  0
   -3.9800   25.3100  -30.8440 O   0  0  0  0  0  0  0  0  0  0  0  0
   -7.2390   23.7870  -31.0210 C   0  0  0  0  0  0  0  0  0  0  0  0
   -7.6210   22.5160  -31.3390 C   0  0  0  0  0  0  0  0  0  0  0  0
   -8.8670   22.0300  -31.6620 C   0  0  0  0  0  0  0  0  0  0  0  0
   -9.0020   20.6890  -31.9480 C   0  0  0  0  0  0  0  0  0  0  0  0
   -7.8960   19.8860  -31.8990 C   0  0  0  0  0  0  0  0  0  0  0  0
   -8.0840   18.4420  -32.2140 C   0  0  0  0  0  0  0  0  0  0  0  0
   -7.6700   18.1450  -33.5020 F   0  0  0  0  0  0  0  0  0  0  0  0
   -9.4010   18.0660  -32.0850 F   0  0  0  0  0  0  0  0  0  0  0  0
   -7.2610   17.7360  -31.3420 F   0  0  0  0  0  0  0  0  0  0  0  0
   -6.6480   20.4030  -31.5690 C   0  0  0  0  0  0  0  0  0  0  0  0
   -6.4850   21.7480  -31.2780 C   0  0  0  0  0  0  0  0  0  0  0  0
   -1.4009   22.1453  -25.4337 H   0  0  0  0  0  0  0  0  0  0  0  0
   -1.7559   20.5932  -26.2653 H   0  0  0  0  0  0  0  0  0  0  0  0
   -0.0841   21.2503  -26.2653 H   0  0  0  0  0  0  0  0  0  0  0  0
   -3.1645   23.3414  -27.8881 H   0  0  0  0  0  0  0  0  0  0  0  0
   -2.3474   23.5782  -26.2542 H   0  0  0  0  0  0  0  0  0  0  0  0
   -3.3280   25.3220  -28.7760 H   0  0  0  0  0  0  0  0  0  0  0  0
   -2.1230   24.6750  -29.7660 H   0  0  0  0  0  0  0  0  0  0  0  0
    0.5890   24.0913  -27.5006 H   0  0  0  0  0  0  0  0  0  0  0  0
    0.6440   25.0664  -28.7035 H   0  0  0  0  0  0  0  0  0  0  0  0
   -0.8990   25.5622  -25.8579 H   0  0  0  0  0  0  0  0  0  0  0  0
   -1.1043   26.7977  -26.7776 H   0  0  0  0  0  0  0  0  0  0  0  0
   -1.0962   22.0647  -30.8739 H   0  0  0  0  0  0  0  0  0  0  0  0
   -2.1597   20.7547  -30.0579 H   0  0  0  0  0  0  0  0  0  0  0  0
   -2.9460   23.5690  -30.0190 H   0  0  0  0  0  0  0  0  0  0  0  0
   -5.4150   26.4730  -28.9850 H   0  0  0  0  0  0  0  0  0  0  0  0
   -6.7880   26.4200  -30.2110 H   0  0  0  0  0  0  0  0  0  0  0  0
   -7.8988   24.6657  -30.9695 H   0  0  0  0  0  0  0  0  0  0  0  0
   -9.7392   22.6996  -31.6914 H   0  0  0  0  0  0  0  0  0  0  0  0
   -9.9845   20.2705  -32.2118 H   0  0  0  0  0  0  0  0  0  0  0  0
   -5.7759   19.7333  -31.5385 H   0  0  0  0  0  0  0  0  0  0  0  0
  1  2  1  0
  2  3  1  0
  3  4  1  0
  4  5  1  0
  4  6  1  0
  6  7  1  0
  2  8  1  0
  8  9  2  0
  8 10  1  0
 10 11  1  0
 11 12  1  0
 12 13  2  0
 12 14  1  0
 14 15  1  0
 15 16  1  0
 16 17  1  0
 16 18  2  0
 15 19  2  0
 19 20  1  0
 20 21  2  0
 21 22  1  0
 22 23  2  0
 23 24  1  0
 24 25  1  0
 24 26  1  0
 24 27  1  0
 23 28  1  0
 28 29  2  0
  7  4  1  0
 29 14  1  0
 29 20  1  0
  1 30  1  0
  1 31  1  0
  1 32  1  0
  3 33  1  0
  3 34  1  0
  5 35  1  0
  5 36  1  0
  6 37  1  0
  6 38  1  0
  7 39  1  0
  7 40  1  0
 10 41  1  0
 10 42  1  0
 11 43  1  0
 17 44  1  0
 17 45  1  0
 19 46  1  0
 21 47  1  0
 22 48  1  0
 28 49  1  0
M  END
>  <smiles>  (47) 
CN(CC1(N)CC1)C(=O)CNC(=O)n1c(C(N)=O)cc2ccc(C(F)(F)F)cc21

>  <score_type>  (47) 
oracle

>  <origin>  (47) 
adg

>  <m_score__min__energy>  (47) 
-8.5399999999999991

>  <m_primary>  (47) 
energy

$$$$
49:0
     RDKit          3D

 39 40  0  0  0  0  0  0  0  0999 V2000
   -4.8180   17.4110  -34.4240 N   0  0  0  0  0  0  0  0  0  0  0  0
   -6.1480   17.5230  -33.8390 C   0  0  0  0  0  0  0  0  0  0  0  0
   -6.8290   16.4970  -33.9870 O   0  0  0  0  0  0  0  0  0  0  0  0
   -6.4960   18.7600  -33.1860 C   0  0  0  0  0  0  0  0  0  0  0  0
   -7.8220   19.0940  -32.9140 C   0  0  0  0  0  0  0  0  0  0  0  0
   -7.8540   20.3100  -32.2980 C   0  0  0  0  0  0  0  0  0  0  0  0
   -8.9140   21.0570  -31.8390 C   0  0  0  0  0  0  0  0  0  0  0  0
   -8.7060   22.2780  -31.2370 C   0  0  0  0  0  0  0  0  0  0  0  0
   -7.4180   22.7150  -31.1160 C   0  0  0  0  0  0  0  0  0  0  0  0
   -7.1700   24.0370  -30.4670 C   0  0  0  0  0  0  0  0  0  0  0  0
   -5.8690   24.6370  -30.9500 C   0  0  0  0  0  0  0  0  0  0  0  0
   -4.8260   24.7670  -29.8850 C   0  0  0  0  0  0  0  0  0  0  0  0
   -3.6480   25.2960  -30.4490 O   0  0  0  0  0  0  0  0  0  0  0  0
   -6.3540   21.9490  -31.5850 C   0  0  0  0  0  0  0  0  0  0  0  0
   -6.5410   20.7180  -32.1930 C   0  0  0  0  0  0  0  0  0  0  0  0
   -5.7130   19.7730  -32.7340 N   0  0  0  0  0  0  0  0  0  0  0  0
   -4.3280   19.9300  -32.7630 C   0  0  0  0  0  0  0  0  0  0  0  0
   -3.7810   19.8710  -33.9350 O   0  0  0  0  0  0  0  0  0  0  0  0
   -3.3600   20.1540  -31.6980 C   0  0  0  0  0  0  0  0  0  0  0  0
   -2.5030   21.7370  -31.9870 S   0  0  0  0  0  0  0  0  0  0  0  0
   -1.4080   21.9210  -30.9740 O   0  0  0  0  0  0  0  0  0  0  0  0
   -3.4970   22.8400  -31.9590 O   0  0  0  0  0  0  0  0  0  0  0  0
   -1.8090   21.5870  -33.5100 O   0  0  0  0  0  0  0  0  0  0  0  0
   -4.4600   18.1600  -35.0700 H   0  0  0  0  0  0  0  0  0  0  0  0
   -4.2570   16.5600  -34.1670 H   0  0  0  0  0  0  0  0  0  0  0  0
   -8.6996   18.4769  -33.1569 H   0  0  0  0  0  0  0  0  0  0  0  0
   -9.9390   20.6748  -31.9541 H   0  0  0  0  0  0  0  0  0  0  0  0
   -9.5484   22.8805  -30.8664 H   0  0  0  0  0  0  0  0  0  0  0  0
   -7.9958   24.7204  -30.7138 H   0  0  0  0  0  0  0  0  0  0  0  0
   -7.1074   23.8891  -29.3788 H   0  0  0  0  0  0  0  0  0  0  0  0
   -5.4687   23.9966  -31.7498 H   0  0  0  0  0  0  0  0  0  0  0  0
   -6.0978   25.6554  -31.2972 H   0  0  0  0  0  0  0  0  0  0  0  0
   -5.1896   25.4404  -29.0948 H   0  0  0  0  0  0  0  0  0  0  0  0
   -4.6155   23.7777  -29.4526 H   0  0  0  0  0  0  0  0  0  0  0  0
   -3.4870   24.9190  -31.3620 H   0  0  0  0  0  0  0  0  0  0  0  0
   -5.3302   22.3342  -31.4689 H   0  0  0  0  0  0  0  0  0  0  0  0
   -3.8805   20.1893  -30.7296 H   0  0  0  0  0  0  0  0  0  0  0  0
   -2.6267   19.3342  -31.6877 H   0  0  0  0  0  0  0  0  0  0  0  0
   -2.5320   21.6190  -34.1970 H   0  0  0  0  0  0  0  0  0  0  0  0
  1  2  1  0
  2  3  2  0
  2  4  1  0
  4  5  2  0
  5  6  1  0
  6  7  2  0
  7  8  1  0
  8  9  2  0
  9 10  1  0
 10 11  1  0
 11 12  1  0
 12 13  1  0
  9 14  1  0
 14 15  2  0
 15 16  1  0
 16 17  1  0
 17 18  2  0
 17 19  1  0
 19 20  1  0
 20 21  2  0
 20 22  2  0
 20 23  1  0
 16  4  1  0
 15  6  1  0
  1 24  1  0
  1 25  1  0
  5 26  1  0
  7 27  1  0
  8 28  1  0
 10 29  1  0
 10 30  1  0
 11 31  1  0
 11 32  1  0
 12 33  1  0
 12 34  1  0
 13 35  1  0
 14 36  1  0
 19 37  1  0
 19 38  1  0
 23 39  1  0
M  END
>  <smiles>  (48) 
NC(=O)c1cc2ccc(CCCO)cc2n1C(=O)CS(=O)(=O)O

>  <score_type>  (48) 
oracle

>  <origin>  (48) 
adg

>  <m_score__min__energy>  (48) 
-8.4199999999999999

>  <m_primary>  (48) 
energy

$$$$
50:0
     RDKit          3D

 36 37  0  0  0  0  0  0  0  0999 V2000
   -2.3680   20.3360  -30.5570 B   0  0  0  0  0  1  0  0  0  0  0  0
   -2.9250   21.7200  -30.7740 N   0  0  0  0  0  0  0  0  0  0  0  0
   -2.3940   22.7370  -29.8850 C   0  0  0  0  0  0  0  0  0  0  0  0
   -3.0910   23.2110  -28.9490 O   0  0  0  0  0  0  0  0  0  0  0  0
   -1.1110   23.2290  -30.0190 O   0  0  0  0  0  0  0  0  0  0  0  0
   -0.3140   23.6590  -28.9590 C   0  0  0  0  0  0  0  0  0  0  0  0
   -0.6870   25.0460  -28.5510 C   0  0  0  0  0  0  0  0  0  0  0  0
    0.1630   25.6560  -27.8360 O   0  0  0  0  0  0  0  0  0  0  0  0
   -1.8910   25.6290  -28.9340 O   0  0  0  0  0  0  0  0  0  0  0  0
   -3.8800   22.1230  -31.7170 C   0  0  0  0  0  0  0  0  0  0  0  0
   -3.4880   22.0330  -32.9470 O   0  0  0  0  0  0  0  0  0  0  0  0
   -5.1900   22.5920  -31.5360 N   0  0  0  0  0  0  0  0  0  0  0  0
   -5.6870   23.7210  -31.0280 C   0  0  0  0  0  0  0  0  0  0  0  0
   -5.0770   25.0340  -30.8380 C   0  0  0  0  0  0  0  0  0  0  0  0
   -3.7510   25.2520  -30.3870 N   0  0  0  0  0  0  0  0  0  0  0  0
   -5.7500   26.0890  -31.0960 O   0  0  0  0  0  0  0  0  0  0  0  0
   -7.0810   23.6080  -30.8410 C   0  0  0  0  0  0  0  0  0  0  0  0
   -7.4200   22.3590  -31.2660 C   0  0  0  0  0  0  0  0  0  0  0  0
   -8.6690   21.7590  -31.2920 C   0  0  0  0  0  0  0  0  0  0  0  0
   -8.7960   20.4740  -31.7640 C   0  0  0  0  0  0  0  0  0  0  0  0
   -7.6610   19.8320  -32.1950 C   0  0  0  0  0  0  0  0  0  0  0  0
   -7.7990   18.4390  -32.7060 C   0  0  0  0  0  0  0  0  0  0  0  0
   -6.4050   20.4530  -32.1620 C   0  0  0  0  0  0  0  0  0  0  0  0
   -6.2710   21.7550  -31.6840 C   0  0  0  0  0  0  0  0  0  0  0  0
   -0.4526   22.9809  -28.1040 H   0  0  0  0  0  0  0  0  0  0  0  0
    0.7378   23.6545  -29.2811 H   0  0  0  0  0  0  0  0  0  0  0  0
   -2.7580   25.3040  -28.4830 H   0  0  0  0  0  0  0  0  0  0  0  0
   -3.4940   26.0580  -29.7760 H   0  0  0  0  0  0  0  0  0  0  0  0
   -3.0080   24.5650  -30.6900 H   0  0  0  0  0  0  0  0  0  0  0  0
   -7.7575   24.3740  -30.4341 H   0  0  0  0  0  0  0  0  0  0  0  0
   -9.5537   22.3078  -30.9370 H   0  0  0  0  0  0  0  0  0  0  0  0
   -9.7761   19.9756  -31.7955 H   0  0  0  0  0  0  0  0  0  0  0  0
   -7.8680   17.7423  -31.8575 H   0  0  0  0  0  0  0  0  0  0  0  0
   -8.7092   18.3617  -33.3188 H   0  0  0  0  0  0  0  0  0  0  0  0
   -6.9217   18.1846  -33.3188 H   0  0  0  0  0  0  0  0  0  0  0  0
   -5.5176   19.9080  -32.5164 H   0  0  0  0  0  0  0  0  0  0  0  0
  1  2  1  0
  2  3  1  0
  3  4  2  0
  3  5  1  0
  5  6  1  0
  6  7  1  0
  7  8  2  0
  7  9  1  0
  2 10  1  0
 10 11  2  0
 10 12  1  0
 12 13  1  0
 13 14  1  0
 14 15  1  0
 14 16  2  0
 13 17  2  0
 17 18  1  0
 18 19  2  0
 19 20  1  0
 20 21  2  0
 21 22  1  0
 21 23  1  0
 23 24  2  0
 24 12  1  0
 24 18  1  0
  6 25  1  0
  6 26  1  0
  9 27  1  0
 15 28  1  0
 15 29  1  0
 17 30  1  0
 19 31  1  0
 20 32  1  0
 22 33  1  0
 22 34  1  0
 22 35  1  0
 23 36  1  0
M  RAD  1   1   3
M  END
>  <smiles>  (49) 
[B]N(C(=O)OCC(=O)O)C(=O)n1c(C(N)=O)cc2ccc(C)cc21

>  <score_type>  (49) 
oracle

>  <origin>  (49) 
adg

>  <m_score__min__energy>  (49) 
-8.4399999999999995

>  <m_primary>  (49) 
energy

$$$$
51:0
     RDKit          3D

 50 51  0  0  1  0  0  0  0  0999 V2000
    0.3850   20.8440  -32.8910 C   0  0  0  0  0  0  0  0  0  0  0  0
   -0.7150   20.2130  -33.7020 C   0  0  0  0  0  0  0  0  0  0  0  0
   -0.2850   18.9040  -34.3230 C   0  0  0  0  0  0  0  0  0  0  0  0
   -1.1540   21.1430  -34.6520 O   0  0  0  0  0  0  0  0  0  0  0  0
   -1.8800   19.8730  -32.7650 C   0  0  1  0  0  0  0  0  0  0  0  0
   -2.6940   21.0630  -32.6460 N   0  0  0  0  0  0  0  0  0  0  0  0
   -3.3660   21.3570  -31.3900 C   0  0  0  0  0  0  0  0  0  0  0  0
   -3.1350   20.4830  -30.5260 O   0  0  0  0  0  0  0  0  0  0  0  0
   -4.1580   22.5360  -31.3010 C   0  0  0  0  0  0  0  0  0  0  0  0
   -3.4530   23.6320  -31.2160 O   0  0  0  0  0  0  0  0  0  0  0  0
   -5.5400   22.7760  -31.2920 N   0  0  0  0  0  0  0  0  0  0  0  0
   -6.0810   23.9190  -30.7800 C   0  0  0  0  0  0  0  0  0  0  0  0
   -5.5090   25.1500  -30.2880 C   0  0  0  0  0  0  0  0  0  0  0  0
   -6.1390   25.8460  -29.1650 N   0  0  0  0  0  0  0  0  0  0  0  0
   -4.4910   25.7450  -30.7040 O   0  0  0  0  0  0  0  0  0  0  0  0
   -7.4830   23.7790  -30.8480 C   0  0  0  0  0  0  0  0  0  0  0  0
   -7.7850   22.5720  -31.3940 C   0  0  0  0  0  0  0  0  0  0  0  0
   -9.0070   21.9900  -31.6440 C   0  0  0  0  0  0  0  0  0  0  0  0
   -9.0800   20.7290  -32.1900 C   0  0  0  0  0  0  0  0  0  0  0  0
   -7.8890   20.0970  -32.4650 C   0  0  0  0  0  0  0  0  0  0  0  0
   -7.8950   18.7770  -33.0360 N   0  0  0  0  0  0  0  0  0  0  0  0
   -6.7800   17.9290  -32.6940 C   0  0  0  0  0  0  0  0  0  0  0  0
   -5.9360   17.7180  -33.8840 C   0  0  0  0  0  0  0  0  0  0  0  0
   -6.1540   18.4090  -34.9300 O   0  0  0  0  0  0  0  0  0  0  0  0
   -4.8990   16.8030  -33.9520 O   0  0  0  0  0  0  0  0  0  0  0  0
   -6.6670   20.7010  -32.2070 C   0  0  0  0  0  0  0  0  0  0  0  0
   -6.5740   21.9630  -31.6630 C   0  0  0  0  0  0  0  0  0  0  0  0
   -2.6320   18.7650  -33.4270 C   0  0  0  0  0  0  0  0  0  0  0  0
   -2.6160   17.5830  -32.9660 O   0  0  0  0  0  0  0  0  0  0  0  0
   -3.3490   19.0830  -34.5710 O   0  0  0  0  0  0  0  0  0  0  0  0
    0.1683   20.7197  -31.8198 H   0  0  0  0  0  0  0  0  0  0  0  0
    1.3422   20.3577  -33.1303 H   0  0  0  0  0  0  0  0  0  0  0  0
    0.4484   21.9158  -33.1303 H   0  0  0  0  0  0  0  0  0  0  0  0
   -0.0477   18.1816  -33.5282 H   0  0  0  0  0  0  0  0  0  0  0  0
   -1.1005   18.5085  -34.9464 H   0  0  0  0  0  0  0  0  0  0  0  0
    0.6061   19.0691  -34.9464 H   0  0  0  0  0  0  0  0  0  0  0  0
   -2.0610   20.8190  -34.9460 H   0  0  0  0  0  0  0  0  0  0  0  0
   -1.5631   19.5599  -31.7592 H   0  0  0  0  0  0  0  0  0  0  0  0
   -2.7670   21.6740  -33.4770 H   0  0  0  0  0  0  0  0  0  0  0  0
   -5.7340   25.7360  -28.2070 H   0  0  0  0  0  0  0  0  0  0  0  0
   -6.9860   26.4400  -29.3610 H   0  0  0  0  0  0  0  0  0  0  0  0
   -8.2154   24.5280  -30.5123 H   0  0  0  0  0  0  0  0  0  0  0  0
   -9.9314   22.5365  -31.4057 H   0  0  0  0  0  0  0  0  0  0  0  0
  -10.0472   20.2477  -32.3973 H   0  0  0  0  0  0  0  0  0  0  0  0
   -8.6610   18.4720  -33.6530 H   0  0  0  0  0  0  0  0  0  0  0  0
   -6.1845   18.4085  -31.9032 H   0  0  0  0  0  0  0  0  0  0  0  0
   -7.1552   16.9591  -32.3356 H   0  0  0  0  0  0  0  0  0  0  0  0
   -3.9260   17.0250  -33.9340 H   0  0  0  0  0  0  0  0  0  0  0  0
   -5.7425   20.1544  -32.4446 H   0  0  0  0  0  0  0  0  0  0  0  0
   -3.9940   18.4130  -34.9930 H   0  0  0  0  0  0  0  0  0  0  0  0
  1  2  1  0
  2  3  1  0
  2  4  1  0
  2  5  1  0
  5  6  1  0
  6  7  1  0
  7  8  2  0
  7  9  1  0
  9 10  2  0
  9 11  1  0
 11 12  1  0
 12 13  1  0
 13 14  1  0
 13 15  2  0
 12 16  2  0
 16 17  1  0
 17 18  2  0
 18 19  1  0
 19 20  2  0
 20 21  1  0
 21 22  1  0
 22 23  1  0
 23 24  2  0
 23 25  1  0
 20 26  1  0
 26 27  2  0
  5 28  1  0
 28 29  2  0
 28 30  1  0
 27 11  1  0
 27 17  1  0
  1 31  1  0
  1 32  1  0
  1 33  1  0
  3 34  1  0
  3 35  1  0
  3 36  1  0
  4 37  1  0
  5 38  1  1
  6 39  1  0
 14 40  1  0
 14 41  1  0
 16 42  1  0
 18 43  1  0
 19 44  1  0
 21 45  1  0
 22 46  1  0
 22 47  1  0
 25 48  1  0
 26 49  1  0
 30 50  1  0
M  END
>  <smiles>  (50) 
CC(C)(O)C(NC(=O)C(=O)n1c(C(N)=O)cc2ccc(NCC(=O)O)cc21)C(=O)O

>  <score_type>  (50) 
oracle

>  <origin>  (50) 
adg

>  <m_score__min__energy>  (50) 
-10.130000000000001

>  <m_primary>  (50) 
energy

$$$$
52:0
     RDKit          3D

 55 56  0  0  0  0  0  0  0  0999 V2000
   -2.9600   18.9510  -26.4910 C   0  0  0  0  0  0  0  0  0  0  0  0
   -1.9320   19.7920  -26.9590 O   0  0  0  0  0  0  0  0  0  0  0  0
   -1.4390   20.8750  -26.2810 C   0  0  0  0  0  0  0  0  0  0  0  0
   -1.2340   20.8820  -25.0260 O   0  0  0  0  0  0  0  0  0  0  0  0
   -1.1340   22.1070  -27.0890 C   0  0  0  0  0  0  0  0  0  0  0  0
   -1.2950   21.8820  -28.5080 N   0  0  0  0  0  0  0  0  0  0  0  0
   -1.3070   22.9750  -29.4130 C   0  0  0  0  0  0  0  0  0  0  0  0
   -1.1720   24.1290  -28.9260 O   0  0  0  0  0  0  0  0  0  0  0  0
   -1.4740   22.6830  -30.8420 C   0  0  0  0  0  0  0  0  0  0  0  0
   -2.1610   21.3310  -30.9970 N   0  0  0  0  0  0  0  0  0  0  0  0
   -3.4700   21.4100  -30.5570 C   0  0  0  0  0  0  0  0  0  0  0  0
   -3.4990   20.7340  -29.3900 O   0  0  0  0  0  0  0  0  0  0  0  0
   -4.7350   21.9020  -30.8270 N   0  0  0  0  0  0  0  0  0  0  0  0
   -5.0730   23.2040  -30.5320 C   0  0  0  0  0  0  0  0  0  0  0  0
   -4.3050   24.3540  -30.1070 C   0  0  0  0  0  0  0  0  0  0  0  0
   -3.9180   24.4980  -28.7040 N   0  0  0  0  0  0  0  0  0  0  0  0
   -3.8960   25.3060  -30.8100 O   0  0  0  0  0  0  0  0  0  0  0  0
   -6.4440   23.3760  -30.8180 C   0  0  0  0  0  0  0  0  0  0  0  0
   -6.9330   22.2060  -31.2800 C   0  0  0  0  0  0  0  0  0  0  0  0
   -8.2110   21.8720  -31.6800 C   0  0  0  0  0  0  0  0  0  0  0  0
   -8.5020   20.6030  -32.1080 C   0  0  0  0  0  0  0  0  0  0  0  0
   -7.4750   19.6910  -32.1190 C   0  0  0  0  0  0  0  0  0  0  0  0
   -7.7680   18.3060  -32.5780 C   0  0  0  0  0  0  0  0  0  0  0  0
   -6.2060   20.0480  -31.7150 C   0  0  0  0  0  0  0  0  0  0  0  0
   -5.8750   21.3180  -31.2790 C   0  0  0  0  0  0  0  0  0  0  0  0
   -1.2970   20.3530  -31.5080 C   0  0  0  0  0  0  0  0  0  0  0  0
   -2.0240   19.4690  -32.5190 C   0  0  0  0  0  0  0  0  0  0  0  0
   -0.0860   21.0370  -32.2170 C   0  0  0  0  0  0  0  0  0  0  0  0
   -0.6360   19.4200  -30.5820 C   0  0  0  0  0  0  0  0  0  0  0  0
    0.3480   18.7580  -31.1120 O   0  0  0  0  0  0  0  0  0  0  0  0
   -0.8740   19.1360  -29.2770 O   0  0  0  0  0  0  0  0  0  0  0  0
   -2.9609   18.9503  -25.3910 H   0  0  0  0  0  0  0  0  0  0  0  0
   -3.9298   19.3181  -26.8582 H   0  0  0  0  0  0  0  0  0  0  0  0
   -2.7923   17.9277  -26.8582 H   0  0  0  0  0  0  0  0  0  0  0  0
   -1.8157   22.9124  -26.7783 H   0  0  0  0  0  0  0  0  0  0  0  0
   -0.0840   22.3794  -26.9068 H   0  0  0  0  0  0  0  0  0  0  0  0
   -1.4040   20.9050  -28.8670 H   0  0  0  0  0  0  0  0  0  0  0  0
   -2.0908   23.4654  -31.3084 H   0  0  0  0  0  0  0  0  0  0  0  0
   -0.4899   22.6575  -31.3329 H   0  0  0  0  0  0  0  0  0  0  0  0
   -3.2240   23.8720  -28.2710 H   0  0  0  0  0  0  0  0  0  0  0  0
   -4.4060   25.2840  -28.1930 H   0  0  0  0  0  0  0  0  0  0  0  0
   -7.0169   24.3058  -30.6867 H   0  0  0  0  0  0  0  0  0  0  0  0
   -9.0050   22.6329  -31.6550 H   0  0  0  0  0  0  0  0  0  0  0  0
   -9.5168   20.3261  -32.4297 H   0  0  0  0  0  0  0  0  0  0  0  0
   -7.9064   17.6518  -31.7046 H   0  0  0  0  0  0  0  0  0  0  0  0
   -8.6858   18.3071  -33.1844 H   0  0  0  0  0  0  0  0  0  0  0  0
   -6.9284   17.9353  -33.1844 H   0  0  0  0  0  0  0  0  0  0  0  0
   -5.4159   19.2830  -31.7408 H   0  0  0  0  0  0  0  0  0  0  0  0
   -2.6347   18.7265  -31.9845 H   0  0  0  0  0  0  0  0  0  0  0  0
   -2.6742   20.0924  -33.1504 H   0  0  0  0  0  0  0  0  0  0  0  0
   -1.2868   18.9514  -33.1504 H   0  0  0  0  0  0  0  0  0  0  0  0
    0.6085   21.4293  -31.4596 H   0  0  0  0  0  0  0  0  0  0  0  0
    0.4351   20.2998  -32.8455 H   0  0  0  0  0  0  0  0  0  0  0  0
   -0.4483   21.8639  -32.8455 H   0  0  0  0  0  0  0  0  0  0  0  0
   -1.7580   19.4420  -28.8480 H   0  0  0  0  0  0  0  0  0  0  0  0
  1  2  1  0
  2  3  1  0
  3  4  2  0
  3  5  1  0
  5  6  1  0
  6  7  1  0
  7  8  2  0
  7  9  1  0
  9 10  1  0
 10 11  1  0
 11 12  2  0
 11 13  1  0
 13 14  1  0
 14 15  1  0
 15 16  1  0
 15 17  2  0
 14 18  2  0
 18 19  1  0
 19 20  2  0
 20 21  1  0
 21 22  2  0
 22 23  1  0
 22 24  1  0
 24 25  2  0
 10 26  1  0
 26 27  1  0
 26 28  1  0
 26 29  1  0
 29 30  2  0
 29 31  1  0
 25 13  1  0
 25 19  1  0
  1 32  1  0
  1 33  1  0
  1 34  1  0
  5 35  1  0
  5 36  1  0
  6 37  1  0
  9 38  1  0
  9 39  1  0
 16 40  1  0
 16 41  1  0
 18 42  1  0
 20 43  1  0
 21 44  1  0
 23 45  1  0
 23 46  1  0
 23 47  1  0
 24 48  1  0
 27 49  1  0
 27 50  1  0
 27 51  1  0
 28 52  1  0
 28 53  1  0
 28 54  1  0
 31 55  1  0
M  END
>  <smiles>  (51) 
COC(=O)CNC(=O)CN(C(=O)n1c(C(N)=O)cc2ccc(C)cc21)C(C)(C)C(=O)O

>  <score_type>  (51) 
oracle

>  <origin>  (51) 
adg

>  <m_score__min__energy>  (51) 
-9.7599999999999998

>  <m_primary>  (51) 
energy

$$$$
53:0
     RDKit          3D

 42 44  0  0  0  0  0  0  0  0999 V2000
   -4.1430   25.4810  -30.4820 N   0  0  0  0  0  0  0  0  0  0  0  0
   -5.5370   25.1330  -30.3070 C   0  0  0  0  0  0  0  0  0  0  0  0
   -6.2150   25.9810  -29.7020 O   0  0  0  0  0  0  0  0  0  0  0  0
   -6.0030   23.8710  -30.8340 C   0  0  0  0  0  0  0  0  0  0  0  0
   -7.3600   23.5630  -30.9880 C   0  0  0  0  0  0  0  0  0  0  0  0
   -7.5030   22.3030  -31.5070 C   0  0  0  0  0  0  0  0  0  0  0  0
   -8.6120   21.5650  -31.8320 C   0  0  0  0  0  0  0  0  0  0  0  0
   -8.4820   20.2970  -32.3490 C   0  0  0  0  0  0  0  0  0  0  0  0
   -7.2060   19.8070  -32.5230 C   0  0  0  0  0  0  0  0  0  0  0  0
   -7.0520   18.4200  -33.0880 C   0  0  0  0  0  0  0  0  0  0  0  0
   -6.2250   18.4130  -34.1920 F   0  0  0  0  0  0  0  0  0  0  0  0
   -6.5120   17.5960  -32.1030 F   0  0  0  0  0  0  0  0  0  0  0  0
   -6.0980   20.5590  -32.1930 C   0  0  0  0  0  0  0  0  0  0  0  0
   -6.2030   21.8330  -31.6730 C   0  0  0  0  0  0  0  0  0  0  0  0
   -5.3370   22.7890  -31.2630 N   0  0  0  0  0  0  0  0  0  0  0  0
   -3.9360   22.6130  -31.3070 C   0  0  0  0  0  0  0  0  0  0  0  0
   -3.4390   21.9590  -32.2800 O   0  0  0  0  0  0  0  0  0  0  0  0
   -3.0290   23.0850  -30.3850 O   0  0  0  0  0  0  0  0  0  0  0  0
   -3.1010   22.7820  -28.9960 C   0  0  0  0  0  0  0  0  0  0  0  0
   -3.1820   23.9790  -28.2630 O   0  0  0  0  0  0  0  0  0  0  0  0
   -2.1950   24.9220  -28.2450 C   0  0  0  0  0  0  0  0  0  0  0  0
   -1.5440   25.1750  -29.2920 O   0  0  0  0  0  0  0  0  0  0  0  0
   -1.9350   25.6000  -27.0030 N   0  0  0  0  0  0  0  0  0  0  0  0
   -2.4560   25.5770  -25.6480 C   0  0  0  0  0  0  0  0  0  0  0  0
   -1.1170   26.0740  -25.1440 C   0  0  0  0  0  0  0  0  0  0  0  0
   -1.2100   27.0930  -24.1940 O   0  0  0  0  0  0  0  0  0  0  0  0
   -1.0020   26.6420  -26.5500 C   0  0  0  0  0  0  0  0  0  0  0  0
   -3.8590   26.4240  -30.8300 H   0  0  0  0  0  0  0  0  0  0  0  0
   -3.4230   24.7510  -30.2460 H   0  0  0  0  0  0  0  0  0  0  0  0
   -8.1913   24.2354  -30.7297 H   0  0  0  0  0  0  0  0  0  0  0  0
   -9.6145   21.9908  -31.6779 H   0  0  0  0  0  0  0  0  0  0  0  0
   -9.3645   19.6961  -32.6139 H   0  0  0  0  0  0  0  0  0  0  0  0
   -8.0413   18.0570  -33.4033 H   0  0  0  0  0  0  0  0  0  0  0  0
   -5.0976   20.1291  -32.3494 H   0  0  0  0  0  0  0  0  0  0  0  0
   -3.9933   22.1695  -28.7993 H   0  0  0  0  0  0  0  0  0  0  0  0
   -2.2023   22.2246  -28.6933 H   0  0  0  0  0  0  0  0  0  0  0  0
   -3.2907   26.2718  -25.4731 H   0  0  0  0  0  0  0  0  0  0  0  0
   -2.9091   24.6638  -25.2347 H   0  0  0  0  0  0  0  0  0  0  0  0
   -0.3786   25.4199  -24.6572 H   0  0  0  0  0  0  0  0  0  0  0  0
   -2.1270   27.1520  -23.8170 H   0  0  0  0  0  0  0  0  0  0  0  0
   -1.3796   27.6695  -26.6582 H   0  0  0  0  0  0  0  0  0  0  0  0
   -0.0227   26.7797  -27.0316 H   0  0  0  0  0  0  0  0  0  0  0  0
  1  2  1  0
  2  3  2  0
  2  4  1  0
  4  5  2  0
  5  6  1  0
  6  7  2  0
  7  8  1  0
  8  9  2  0
  9 10  1  0
 10 11  1  0
 10 12  1  0
  9 13  1  0
 13 14  2  0
 14 15  1  0
 15 16  1  0
 16 17  2  0
 16 18  1  0
 18 19  1  0
 19 20  1  0
 20 21  1  0
 21 22  2  0
 21 23  1  0
 23 24  1  0
 24 25  1  0
 25 26  1  0
 25 27  1  0
 15  4  1  0
 27 23  1  0
 14  6  1  0
  1 28  1  0
  1 29  1  0
  5 30  1  0
  7 31  1  0
  8 32  1  0
 10 33  1  0
 13 34  1  0
 19 35  1  0
 19 36  1  0
 24 37  1  0
 24 38  1  0
 25 39  1  0
 26 40  1  0
 27 41  1  0
 27 42  1  0
M  END
>  <smiles>  (52) 
NC(=O)c1cc2ccc(C(F)F)cc2n1C(=O)OCOC(=O)N1CC(O)C1

>  <score_type>  (52) 
oracle

>  <origin>  (52) 
adg

>  <m_score__min__energy>  (52) 
-8.5299999999999994

>  <m_primary>  (52) 
energy

$$$$
54:0
     RDKit          3D

 50 51  0  0  1  0  0  0  0  0999 V2000
   -9.9160   21.5610  -31.1590 C   0  0  0  0  0  0  0  0  0  0  0  0
   -8.8780   21.1250  -31.6330 C   0  0  0  0  0  0  0  0  0  0  0  0
   -7.6590   20.6210  -32.1750 C   0  0  0  0  0  0  0  0  0  0  0  0
   -7.7230   19.4750  -32.9320 C   0  0  0  0  0  0  0  0  0  0  0  0
   -6.5480   18.9890  -33.4480 C   0  0  0  0  0  0  0  0  0  0  0  0
   -5.3520   19.6470  -33.2030 C   0  0  0  0  0  0  0  0  0  0  0  0
   -4.1040   19.3250  -33.6170 C   0  0  0  0  0  0  0  0  0  0  0  0
   -3.2730   20.3160  -33.0890 C   0  0  0  0  0  0  0  0  0  0  0  0
   -1.8420   20.2560  -33.4570 C   0  0  0  0  0  0  0  0  0  0  0  0
   -1.1000   21.4120  -33.8010 N   0  0  0  0  0  0  0  0  0  0  0  0
   -1.3590   19.0890  -33.4320 O   0  0  0  0  0  0  0  0  0  0  0  0
   -3.9310   21.2150  -32.3760 N   0  0  0  0  0  0  0  0  0  0  0  0
   -3.5840   22.2350  -31.4820 C   0  0  0  0  0  0  0  0  0  0  0  0
   -4.1740   23.3850  -31.8050 O   0  0  0  0  0  0  0  0  0  0  0  0
   -2.8130   22.3650  -30.3460 N   0  0  0  0  0  0  0  0  0  0  0  0
   -1.5610   21.5350  -30.3730 C   0  0  0  0  0  0  0  0  0  0  0  0
   -0.5820   22.0220  -30.9690 O   0  0  0  0  0  0  0  0  0  0  0  0
   -1.5140   20.3110  -29.7680 O   0  0  0  0  0  0  0  0  0  0  0  0
   -1.0200   20.1970  -28.4520 C   0  0  0  0  0  0  0  0  0  0  0  0
   -0.1480   18.9450  -28.4440 C   0  0  0  0  0  0  0  0  0  0  0  0
   -2.1940   19.9450  -27.5030 C   0  0  0  0  0  0  0  0  0  0  0  0
   -0.1930   21.3610  -28.0110 C   0  0  0  0  0  0  0  0  0  0  0  0
   -2.9090   23.0890  -29.1320 C   0  0  2  0  0  0  0  0  0  0  0  0
   -4.0510   22.7390  -28.2020 C   0  0  0  0  0  0  0  0  0  0  0  0
   -2.7730   24.5280  -29.3470 C   0  0  0  0  0  0  0  0  0  0  0  0
   -1.9630   25.1730  -28.6430 O   0  0  0  0  0  0  0  0  0  0  0  0
   -3.4950   25.2450  -30.2990 O   0  0  0  0  0  0  0  0  0  0  0  0
   -5.2500   20.7880  -32.4580 C   0  0  0  0  0  0  0  0  0  0  0  0
   -6.4410   21.2730  -31.9390 C   0  0  0  0  0  0  0  0  0  0  0  0
  -10.8507   21.9536  -30.7322 H   0  0  0  0  0  0  0  0  0  0  0  0
   -8.6807   18.9665  -33.1172 H   0  0  0  0  0  0  0  0  0  0  0  0
   -6.5548   18.0739  -34.0584 H   0  0  0  0  0  0  0  0  0  0  0  0
   -3.8075   18.4661  -34.2370 H   0  0  0  0  0  0  0  0  0  0  0  0
   -0.6790   21.4950  -34.7570 H   0  0  0  0  0  0  0  0  0  0  0  0
   -1.0090   22.1460  -33.0630 H   0  0  0  0  0  0  0  0  0  0  0  0
    0.0584   18.6486  -27.4050 H   0  0  0  0  0  0  0  0  0  0  0  0
   -0.6739   18.1286  -28.9606 H   0  0  0  0  0  0  0  0  0  0  0  0
    0.8001   19.1552  -28.9606 H   0  0  0  0  0  0  0  0  0  0  0  0
   -1.8465   20.0196  -26.4620 H   0  0  0  0  0  0  0  0  0  0  0  0
   -2.9781   20.6953  -27.6825 H   0  0  0  0  0  0  0  0  0  0  0  0
   -2.6011   18.9390  -27.6825 H   0  0  0  0  0  0  0  0  0  0  0  0
   -0.1673   21.3971  -26.9119 H   0  0  0  0  0  0  0  0  0  0  0  0
    0.8307   21.2511  -28.3983 H   0  0  0  0  0  0  0  0  0  0  0  0
   -0.6336   22.2915  -28.3983 H   0  0  0  0  0  0  0  0  0  0  0  0
   -2.0388   22.7335  -28.5607 H   0  0  0  0  0  0  0  0  0  0  0  0
   -3.7184   22.8409  -27.1584 H   0  0  0  0  0  0  0  0  0  0  0  0
   -4.8954   23.4196  -28.3859 H   0  0  0  0  0  0  0  0  0  0  0  0
   -4.3690   21.7022  -28.3859 H   0  0  0  0  0  0  0  0  0  0  0  0
   -3.5540   24.9190  -31.2540 H   0  0  0  0  0  0  0  0  0  0  0  0
   -6.4295   22.1885  -31.3294 H   0  0  0  0  0  0  0  0  0  0  0  0
  1  2  3  0
  2  3  1  0
  3  4  2  0
  4  5  1  0
  5  6  2  0
  6  7  1  0
  7  8  2  0
  8  9  1  0
  9 10  1  0
  9 11  2  0
  8 12  1  0
 12 13  1  0
 13 14  2  0
 13 15  1  0
 15 16  1  0
 16 17  2  0
 16 18  1  0
 18 19  1  0
 19 20  1  0
 19 21  1  0
 19 22  1  0
 15 23  1  0
 23 24  1  0
 23 25  1  0
 25 26  2  0
 25 27  1  0
 12 28  1  0
 28 29  2  0
 29  3  1  0
 28  6  1  0
  1 30  1  0
  4 31  1  0
  5 32  1  0
  7 33  1  0
 10 34  1  0
 10 35  1  0
 20 36  1  0
 20 37  1  0
 20 38  1  0
 21 39  1  0
 21 40  1  0
 21 41  1  0
 22 42  1  0
 22 43  1  0
 22 44  1  0
 23 45  1  1
 24 46  1  0
 24 47  1  0
 24 48  1  0
 27 49  1  0
 29 50  1  0
M  END
>  <smiles>  (53) 
C#Cc1ccc2cc(C(N)=O)n(C(=O)N(C(=O)OC(C)(C)C)C(C)C(=O)O)c2c1

>  <score_type>  (53) 
oracle

>  <origin>  (53) 
adg

>  <m_score__min__energy>  (53) 
-10.880000000000001

>  <m_primary>  (53) 
energy

$$$$
55:0
     RDKit          3D

 67 70  0  0  0  0  0  0  0  0999 V2000
   -6.8440   20.1850  -32.2230 C   0  0  0  0  0  0  0  0  0  0  0  0
   -7.8490   19.1690  -32.7130 C   0  0  0  0  0  0  0  0  0  0  0  0
   -8.7380   18.7300  -31.5680 C   0  0  0  0  0  0  0  0  0  0  0  0
   -7.2560   18.1020  -33.3950 O   0  0  0  0  0  0  0  0  0  0  0  0
   -6.1190   18.1350  -34.1590 C   0  0  0  0  0  0  0  0  0  0  0  0
   -6.1150   18.6520  -35.3170 O   0  0  0  0  0  0  0  0  0  0  0  0
   -4.9100   17.5720  -33.6300 N   0  0  0  0  0  0  0  0  0  0  0  0
   -4.9500   16.3550  -32.8060 C   0  0  0  0  0  0  0  0  0  0  0  0
   -3.6320   15.6400  -33.1260 C   0  0  0  0  0  0  0  0  0  0  0  0
   -3.3320   15.8420  -34.6150 C   0  0  0  0  0  0  0  0  0  0  0  0
   -2.8400   17.2600  -34.8010 C   0  0  2  0  0  0  0  0  0  0  0  0
   -1.4090   17.3570  -34.5860 N   0  0  0  0  0  0  0  0  0  0  0  0
   -0.7520   18.5550  -34.2070 C   0  0  0  0  0  0  0  0  0  0  0  0
   -1.0700   19.1720  -32.9940 C   0  0  0  0  0  0  0  0  0  0  0  0
   -0.4470   20.3390  -32.5990 C   0  0  0  0  0  0  0  0  0  0  0  0
   -0.8220   20.9320  -31.3220 C   0  0  0  0  0  0  0  0  0  0  0  0
   -0.1780   20.4580  -30.2000 C   0  0  0  0  0  0  0  0  0  0  0  0
   -0.4970   20.9870  -28.9700 C   0  0  0  0  0  0  0  0  0  0  0  0
   -1.4580   21.9850  -28.8890 C   0  0  0  0  0  0  0  0  0  0  0  0
   -1.9470   22.6640  -27.8200 C   0  0  0  0  0  0  0  0  0  0  0  0
   -2.9080   23.5800  -28.2450 C   0  0  0  0  0  0  0  0  0  0  0  0
   -3.6170   24.4580  -27.3370 C   0  0  0  0  0  0  0  0  0  0  0  0
   -4.9470   24.8860  -27.6760 N   0  0  0  0  0  0  0  0  0  0  0  0
   -3.1840   24.9030  -26.2490 O   0  0  0  0  0  0  0  0  0  0  0  0
   -2.9890   23.4430  -29.5790 N   0  0  0  0  0  0  0  0  0  0  0  0
   -3.8330   24.1630  -30.4590 C   0  0  0  0  0  0  0  0  0  0  0  0
   -3.8770   25.4140  -30.5500 O   0  0  0  0  0  0  0  0  0  0  0  0
   -4.7020   23.4800  -31.3130 O   0  0  0  0  0  0  0  0  0  0  0  0
   -6.0640   23.9160  -31.4550 C   0  0  0  0  0  0  0  0  0  0  0  0
   -6.5590   24.2270  -30.0950 C   0  0  0  0  0  0  0  0  0  0  0  0
   -7.1450   23.4080  -29.3480 O   0  0  0  0  0  0  0  0  0  0  0  0
   -6.3810   25.5160  -29.5670 O   0  0  0  0  0  0  0  0  0  0  0  0
   -2.1170   22.4800  -29.9940 C   0  0  0  0  0  0  0  0  0  0  0  0
   -1.7790   21.9320  -31.2130 C   0  0  0  0  0  0  0  0  0  0  0  0
    0.5020   20.8810  -33.4410 C   0  0  0  0  0  0  0  0  0  0  0  0
    0.7830   20.2360  -34.6290 C   0  0  0  0  0  0  0  0  0  0  0  0
    0.1750   19.0990  -35.0140 N   0  0  0  0  0  0  0  0  0  0  0  0
   -3.6200   18.1840  -33.8940 C   0  0  0  0  0  0  0  0  0  0  0  0
   -6.8366   20.1924  -31.1230 H   0  0  0  0  0  0  0  0  0  0  0  0
   -5.8433   19.9195  -32.5946 H   0  0  0  0  0  0  0  0  0  0  0  0
   -7.1203   21.1828  -32.5946 H   0  0  0  0  0  0  0  0  0  0  0  0
   -8.4879   19.6527  -33.4666 H   0  0  0  0  0  0  0  0  0  0  0  0
   -8.2502   18.9709  -30.6119 H   0  0  0  0  0  0  0  0  0  0  0  0
   -9.7024   19.2555  -31.6303 H   0  0  0  0  0  0  0  0  0  0  0  0
   -8.9070   17.6448  -31.6303 H   0  0  0  0  0  0  0  0  0  0  0  0
   -5.0063   16.6093  -31.7373 H   0  0  0  0  0  0  0  0  0  0  0  0
   -5.8303   15.7308  -33.0192 H   0  0  0  0  0  0  0  0  0  0  0  0
   -2.8192   16.0671  -32.5203 H   0  0  0  0  0  0  0  0  0  0  0  0
   -3.7136   14.5676  -32.8951 H   0  0  0  0  0  0  0  0  0  0  0  0
   -2.5574   15.1318  -34.9400 H   0  0  0  0  0  0  0  0  0  0  0  0
   -4.2370   15.6682  -35.2156 H   0  0  0  0  0  0  0  0  0  0  0  0
   -3.0137   17.5700  -35.8420 H   0  0  0  0  0  0  0  0  0  0  0  0
   -0.8380   16.4800  -34.7240 H   0  0  0  0  0  0  0  0  0  0  0  0
   -1.8311   18.7192  -32.3416 H   0  0  0  0  0  0  0  0  0  0  0  0
    0.5814   19.6669  -30.2861 H   0  0  0  0  0  0  0  0  0  0  0  0
    0.0043   20.6227  -28.0611 H   0  0  0  0  0  0  0  0  0  0  0  0
   -1.6326   22.5141  -26.7766 H   0  0  0  0  0  0  0  0  0  0  0  0
   -5.1480   25.9030  -27.6270 H   0  0  0  0  0  0  0  0  0  0  0  0
   -5.6890   24.2000  -27.9620 H   0  0  0  0  0  0  0  0  0  0  0  0
   -6.1098   24.8138  -32.0889 H   0  0  0  0  0  0  0  0  0  0  0  0
   -6.6794   23.1378  -31.9300 H   0  0  0  0  0  0  0  0  0  0  0  0
   -5.4120   25.8270  -29.3880 H   0  0  0  0  0  0  0  0  0  0  0  0
   -2.2800   22.2961  -32.1221 H   0  0  0  0  0  0  0  0  0  0  0  0
    1.0253   21.8101  -33.1708 H   0  0  0  0  0  0  0  0  0  0  0  0
    1.5420   20.6736  -35.2942 H   0  0  0  0  0  0  0  0  0  0  0  0
   -3.0748   18.3273  -32.9494 H   0  0  0  0  0  0  0  0  0  0  0  0
   -3.7540   19.1652  -34.3729 H   0  0  0  0  0  0  0  0  0  0  0  0
  1  2  1  0
  2  3  1  0
  2  4  1  0
  4  5  1  0
  5  6  2  0
  5  7  1  0
  7  8  1  0
  8  9  1  0
  9 10  1  0
 10 11  1  0
 11 12  1  0
 12 13  1  0
 13 14  2  0
 14 15  1  0
 15 16  1  0
 16 17  2  0
 17 18  1  0
 18 19  2  0
 19 20  1  0
 20 21  2  0
 21 22  1  0
 22 23  1  0
 22 24  2  0
 21 25  1  0
 25 26  1  0
 26 27  2  0
 26 28  1  0
 28 29  1  0
 29 30  1  0
 30 31  2  0
 30 32  1  0
 25 33  1  0
 33 34  2  0
 15 35  2  0
 35 36  1  0
 36 37  2  0
 11 38  1  0
 38  7  1  0
 37 13  1  0
 34 16  1  0
 33 19  1  0
  1 39  1  0
  1 40  1  0
  1 41  1  0
  2 42  1  0
  3 43  1  0
  3 44  1  0
  3 45  1  0
  8 46  1  0
  8 47  1  0
  9 48  1  0
  9 49  1  0
 10 50  1  0
 10 51  1  0
 11 52  1  6
 12 53  1  0
 14 54  1  0
 17 55  1  0
 18 56  1  0
 20 57  1  0
 23 58  1  0
 23 59  1  0
 29 60  1  0
 29 61  1  0
 32 62  1  0
 34 63  1  0
 35 64  1  0
 36 65  1  0
 38 66  1  0
 38 67  1  0
M  END
>  <smiles>  (54) 
CC(C)OC(=O)N1CCC[C@H](Nc2cc(-c3ccc4cc(C(N)=O)n(C(=O)OCC(=O)O)c4c3)ccn2)C1

>  <score_type>  (54) 
oracle

>  <origin>  (54) 
adg

>  <m_score__min__energy>  (54) 
-10.949999999999999

>  <m_primary>  (54) 
energy

$$$$
56:0
     RDKit          3D

 49 50  0  0  0  0  0  0  0  0999 V2000
   -7.6660   18.2220  -32.8420 C   0  0  0  0  0  0  0  0  0  0  0  0
   -7.6140   19.5810  -32.2520 C   0  0  0  0  0  0  0  0  0  0  0  0
   -8.7560   20.1110  -31.7400 C   0  0  0  0  0  0  0  0  0  0  0  0
   -8.7310   21.3670  -31.1840 C   0  0  0  0  0  0  0  0  0  0  0  0
   -7.5240   22.0470  -31.1710 C   0  0  0  0  0  0  0  0  0  0  0  0
   -7.2520   23.2870  -30.6810 C   0  0  0  0  0  0  0  0  0  0  0  0
   -5.9050   23.4940  -30.9100 C   0  0  0  0  0  0  0  0  0  0  0  0
   -5.2570   24.7120  -30.3740 C   0  0  0  0  0  0  0  0  0  0  0  0
   -5.6670   25.2810  -29.1420 N   0  0  0  0  0  0  0  0  0  0  0  0
   -4.3200   25.3000  -30.9760 O   0  0  0  0  0  0  0  0  0  0  0  0
   -5.3210   22.4600  -31.5210 N   0  0  0  0  0  0  0  0  0  0  0  0
   -4.1040   22.2430  -32.1380 C   0  0  0  0  0  0  0  0  0  0  0  0
   -4.1530   22.3430  -33.4570 O   0  0  0  0  0  0  0  0  0  0  0  0
   -2.7950   21.9430  -31.7230 N   0  0  0  0  0  0  0  0  0  0  0  0
   -1.8510   21.0840  -32.2810 C   0  0  0  0  0  0  0  0  0  0  0  0
   -1.1380   20.2360  -31.6450 O   0  0  0  0  0  0  0  0  0  0  0  0
   -1.5760   21.0600  -33.6710 O   0  0  0  0  0  0  0  0  0  0  0  0
   -2.4330   22.5660  -30.4350 C   0  0  2  0  0  0  0  0  0  0  0  0
   -0.9360   22.6550  -30.3390 C   0  0  0  0  0  0  0  0  0  0  0  0
   -2.9630   21.8870  -29.2340 C   0  0  0  0  0  0  0  0  0  0  0  0
   -3.7510   22.7880  -28.3460 C   0  0  0  0  0  0  0  0  0  0  0  0
   -5.0050   22.6530  -28.3270 O   0  0  0  0  0  0  0  0  0  0  0  0
   -3.0930   23.7640  -27.5520 N   0  0  0  0  0  0  0  0  0  0  0  0
   -3.8780   24.6100  -26.6790 C   0  0  0  0  0  0  0  0  0  0  0  0
   -1.6570   23.9190  -27.6280 C   0  0  0  0  0  0  0  0  0  0  0  0
   -6.3580   21.5500  -31.6730 C   0  0  0  0  0  0  0  0  0  0  0  0
   -6.4190   20.2760  -32.2280 C   0  0  0  0  0  0  0  0  0  0  0  0
   -7.6946   17.4734  -32.0365 H   0  0  0  0  0  0  0  0  0  0  0  0
   -8.5685   18.1264  -33.4636 H   0  0  0  0  0  0  0  0  0  0  0  0
   -6.7735   18.0578  -33.4636 H   0  0  0  0  0  0  0  0  0  0  0  0
   -9.6944   19.5379  -31.7706 H   0  0  0  0  0  0  0  0  0  0  0  0
   -9.6410   21.8187  -30.7623 H   0  0  0  0  0  0  0  0  0  0  0  0
   -7.9582   23.9810  -30.2018 H   0  0  0  0  0  0  0  0  0  0  0  0
   -5.8070   26.3190  -29.0500 H   0  0  0  0  0  0  0  0  0  0  0  0
   -5.8410   24.6930  -28.3020 H   0  0  0  0  0  0  0  0  0  0  0  0
   -2.1880   21.5330  -34.3270 H   0  0  0  0  0  0  0  0  0  0  0  0
   -2.9066   23.5588  -30.4396 H   0  0  0  0  0  0  0  0  0  0  0  0
   -0.6369   22.6728  -29.2806 H   0  0  0  0  0  0  0  0  0  0  0  0
   -0.4844   21.7821  -30.8331 H   0  0  0  0  0  0  0  0  0  0  0  0
   -0.5910   23.5752  -30.8331 H   0  0  0  0  0  0  0  0  0  0  0  0
   -3.6129   21.0609  -29.5584 H   0  0  0  0  0  0  0  0  0  0  0  0
   -2.0991   21.5317  -28.6531 H   0  0  0  0  0  0  0  0  0  0  0  0
   -3.6513   24.3657  -25.6307 H   0  0  0  0  0  0  0  0  0  0  0  0
   -3.6313   25.6646  -26.8714 H   0  0  0  0  0  0  0  0  0  0  0  0
   -4.9481   24.4428  -26.8714 H   0  0  0  0  0  0  0  0  0  0  0  0
   -1.2388   23.9641  -26.6116 H   0  0  0  0  0  0  0  0  0  0  0  0
   -1.2237   23.0624  -28.1651 H   0  0  0  0  0  0  0  0  0  0  0  0
   -1.4164   24.8483  -28.1651 H   0  0  0  0  0  0  0  0  0  0  0  0
   -5.5118   19.8191  -32.6500 H   0  0  0  0  0  0  0  0  0  0  0  0
  1  2  1  0
  2  3  2  0
  3  4  1  0
  4  5  2  0
  5  6  1  0
  6  7  2  0
  7  8  1  0
  8  9  1  0
  8 10  2  0
  7 11  1  0
 11 12  1  0
 12 13  2  0
 12 14  1  0
 14 15  1  0
 15 16  2  0
 15 17  1  0
 14 18  1  0
 18 19  1  0
 18 20  1  0
 20 21  1  0
 21 22  2  0
 21 23  1  0
 23 24  1  0
 23 25  1  0
 11 26  1  0
 26 27  2  0
 27  2  1  0
 26  5  1  0
  1 28  1  0
  1 29  1  0
  1 30  1  0
  3 31  1  0
  4 32  1  0
  6 33  1  0
  9 34  1  0
  9 35  1  0
 17 36  1  0
 18 37  1  6
 19 38  1  0
 19 39  1  0
 19 40  1  0
 20 41  1  0
 20 42  1  0
 24 43  1  0
 24 44  1  0
 24 45  1  0
 25 46  1  0
 25 47  1  0
 25 48  1  0
 27 49  1  0
M  END
>  <smiles>  (55) 
Cc1ccc2cc(C(N)=O)n(C(=O)N(C(=O)O)[C@H](C)CC(=O)N(C)C)c2c1

>  <score_type>  (55) 
oracle

>  <origin>  (55) 
adg

>  <m_score__min__energy>  (55) 
-9.3100000000000005

>  <m_primary>  (55) 
energy

$$$$
57:0
     RDKit          3D

 36 37  0  0  0  0  0  0  0  0999 V2000
   -7.5830   18.3280  -32.6060 C   0  0  0  0  0  0  0  0  0  0  0  0
   -7.7210   19.7620  -32.2380 C   0  0  0  0  0  0  0  0  0  0  0  0
   -8.9760   20.3200  -32.2790 C   0  0  0  0  0  0  0  0  0  0  0  0
   -9.0980   21.6460  -31.9380 C   0  0  0  0  0  0  0  0  0  0  0  0
   -7.9770   22.3800  -31.5680 C   0  0  0  0  0  0  0  0  0  0  0  0
   -7.8850   23.6750  -31.2040 C   0  0  0  0  0  0  0  0  0  0  0  0
   -6.5290   23.9070  -30.9310 C   0  0  0  0  0  0  0  0  0  0  0  0
   -6.1380   25.2230  -30.4240 C   0  0  0  0  0  0  0  0  0  0  0  0
   -6.6380   25.6830  -29.1470 N   0  0  0  0  0  0  0  0  0  0  0  0
   -5.3840   26.0270  -31.0090 O   0  0  0  0  0  0  0  0  0  0  0  0
   -5.7980   22.8100  -31.1220 N   0  0  0  0  0  0  0  0  0  0  0  0
   -4.4280   22.5500  -31.1890 C   0  0  0  0  0  0  0  0  0  0  0  0
   -3.8610   23.0470  -32.2730 O   0  0  0  0  0  0  0  0  0  0  0  0
   -3.5140   21.8950  -30.3720 N   0  0  0  0  0  0  0  0  0  0  0  0
   -2.9390   20.5850  -30.4310 C   0  0  0  0  0  0  0  0  0  0  0  0
   -3.0100   22.6970  -29.2040 C   0  0  0  0  0  0  0  0  0  0  0  0
   -3.4940   24.0970  -29.3030 C   0  0  0  0  0  0  0  0  0  0  0  0
   -4.2890   24.4850  -28.4070 O   0  0  0  0  0  0  0  0  0  0  0  0
   -3.1200   24.9690  -30.3080 O   0  0  0  0  0  0  0  0  0  0  0  0
   -6.7140   21.8520  -31.5160 C   0  0  0  0  0  0  0  0  0  0  0  0
   -6.6040   20.5150  -31.8620 C   0  0  0  0  0  0  0  0  0  0  0  0
   -7.5244   17.7189  -31.6919 H   0  0  0  0  0  0  0  0  0  0  0  0
   -8.4553   18.0161  -33.1992 H   0  0  0  0  0  0  0  0  0  0  0  0
   -6.6672   18.1882  -33.1992 H   0  0  0  0  0  0  0  0  0  0  0  0
   -9.8532   19.7258  -32.5747 H   0  0  0  0  0  0  0  0  0  0  0  0
  -10.0865   22.1281  -31.9580 H   0  0  0  0  0  0  0  0  0  0  0  0
   -8.7072   24.4025  -31.1351 H   0  0  0  0  0  0  0  0  0  0  0  0
   -7.4280   26.3720  -29.0890 H   0  0  0  0  0  0  0  0  0  0  0  0
   -6.1530   25.2780  -28.3210 H   0  0  0  0  0  0  0  0  0  0  0  0
   -2.7746   20.2104  -29.4099 H   0  0  0  0  0  0  0  0  0  0  0  0
   -3.6228   19.9081  -30.9642 H   0  0  0  0  0  0  0  0  0  0  0  0
   -1.9779   20.6301  -30.9642 H   0  0  0  0  0  0  0  0  0  0  0  0
   -3.3780   22.2496  -28.2689 H   0  0  0  0  0  0  0  0  0  0  0  0
   -1.9100   22.6938  -29.2114 H   0  0  0  0  0  0  0  0  0  0  0  0
   -3.5430   24.9250  -31.2390 H   0  0  0  0  0  0  0  0  0  0  0  0
   -5.6148   20.0343  -31.8405 H   0  0  0  0  0  0  0  0  0  0  0  0
  1  2  1  0
  2  3  2  0
  3  4  1  0
  4  5  2  0
  5  6  1  0
  6  7  2  0
  7  8  1  0
  8  9  1  0
  8 10  2  0
  7 11  1  0
 11 12  1  0
 12 13  2  0
 12 14  1  0
 14 15  1  0
 14 16  1  0
 16 17  1  0
 17 18  2  0
 17 19  1  0
 11 20  1  0
 20 21  2  0
 21  2  1  0
 20  5  1  0
  1 22  1  0
  1 23  1  0
  1 24  1  0
  3 25  1  0
  4 26  1  0
  6 27  1  0
  9 28  1  0
  9 29  1  0
 15 30  1  0
 15 31  1  0
 15 32  1  0
 16 33  1  0
 16 34  1  0
 19 35  1  0
 21 36  1  0
M  END
>  <smiles>  (56) 
Cc1ccc2cc(C(N)=O)n(C(=O)N(C)CC(=O)O)c2c1

>  <score_type>  (56) 
oracle

>  <origin>  (56) 
adg

>  <m_score__min__energy>  (56) 
-8.75

>  <m_primary>  (56) 
energy

$$$$
58:0
     RDKit          3D

 46 48  0  0  0  0  0  0  0  0999 V2000
   -6.1290   25.6840  -29.1920 N   0  0  0  0  0  0  0  0  0  0  0  0
   -5.6670   24.8890  -30.2540 C   0  0  0  0  0  0  0  0  0  0  0  0
   -4.6260   25.3990  -30.8460 O   0  0  0  0  0  0  0  0  0  0  0  0
   -6.1510   23.6370  -30.7630 C   0  0  0  0  0  0  0  0  0  0  0  0
   -7.5210   23.5000  -31.0790 C   0  0  0  0  0  0  0  0  0  0  0  0
   -7.7370   22.2370  -31.5470 C   0  0  0  0  0  0  0  0  0  0  0  0
   -8.9060   21.6230  -31.9450 C   0  0  0  0  0  0  0  0  0  0  0  0
   -8.9060   20.3020  -32.3390 C   0  0  0  0  0  0  0  0  0  0  0  0
   -7.6970   19.6440  -32.3120 C   0  0  0  0  0  0  0  0  0  0  0  0
   -7.6110   18.1960  -32.7260 C   0  0  0  0  0  0  0  0  0  0  0  0
   -6.7680   18.0570  -33.7890 F   0  0  0  0  0  0  0  0  0  0  0  0
   -7.0640   17.4470  -31.6760 F   0  0  0  0  0  0  0  0  0  0  0  0
   -6.5440   20.2750  -31.9130 C   0  0  0  0  0  0  0  0  0  0  0  0
   -6.5150   21.6110  -31.5140 C   0  0  0  0  0  0  0  0  0  0  0  0
   -5.5380   22.4330  -31.0460 N   0  0  0  0  0  0  0  0  0  0  0  0
   -4.1560   22.2750  -30.9930 C   0  0  0  0  0  0  0  0  0  0  0  0
   -3.6060   22.1670  -32.1760 O   0  0  0  0  0  0  0  0  0  0  0  0
   -3.2080   22.1900  -29.9710 N   0  0  0  0  0  0  0  0  0  0  0  0
   -3.1730   21.3850  -28.7820 C   0  0  0  0  0  0  0  0  0  0  0  0
   -1.7510   20.8690  -28.4920 C   0  0  0  0  0  0  0  0  0  0  0  0
   -0.9330   20.9880  -29.6810 N   0  0  0  0  0  0  0  0  0  0  0  0
   -0.2770   19.8460  -30.2620 C   0  0  0  0  0  0  0  0  0  0  0  0
   -0.0710   19.8220  -31.4960 O   0  0  0  0  0  0  0  0  0  0  0  0
    0.1030   18.8110  -29.4290 O   0  0  0  0  0  0  0  0  0  0  0  0
   -0.8060   22.3040  -30.2610 C   0  0  0  0  0  0  0  0  0  0  0  0
   -2.0370   23.1090  -30.1040 C   0  0  2  0  0  0  0  0  0  0  0  0
   -2.0830   24.0390  -28.9340 C   0  0  0  0  0  0  0  0  0  0  0  0
   -2.5990   25.2910  -29.2830 O   0  0  0  0  0  0  0  0  0  0  0  0
   -6.0430   25.3990  -28.1880 H   0  0  0  0  0  0  0  0  0  0  0  0
   -6.5890   26.6370  -29.3250 H   0  0  0  0  0  0  0  0  0  0  0  0
   -8.2865   24.2819  -30.9664 H   0  0  0  0  0  0  0  0  0  0  0  0
   -9.8470   22.1926  -31.9481 H   0  0  0  0  0  0  0  0  0  0  0  0
   -9.8291   19.7971  -32.6600 H   0  0  0  0  0  0  0  0  0  0  0  0
   -8.6230   17.8521  -32.9860 H   0  0  0  0  0  0  0  0  0  0  0  0
   -5.6046   19.7028  -31.9080 H   0  0  0  0  0  0  0  0  0  0  0  0
   -3.5142   21.9910  -27.9297 H   0  0  0  0  0  0  0  0  0  0  0  0
   -3.8313   20.5168  -28.9332 H   0  0  0  0  0  0  0  0  0  0  0  0
   -1.3052   21.4638  -27.6812 H   0  0  0  0  0  0  0  0  0  0  0  0
   -1.8028   19.8121  -28.1916 H   0  0  0  0  0  0  0  0  0  0  0  0
    0.7770   18.1300  -29.7860 H   0  0  0  0  0  0  0  0  0  0  0  0
    0.0251   22.8291  -29.7676 H   0  0  0  0  0  0  0  0  0  0  0  0
   -0.6206   22.1800  -31.3382 H   0  0  0  0  0  0  0  0  0  0  0  0
   -2.0581   23.7409  -31.0042 H   0  0  0  0  0  0  0  0  0  0  0  0
   -2.7195   23.5971  -28.1533 H   0  0  0  0  0  0  0  0  0  0  0  0
   -1.0542   24.1831  -28.5724 H   0  0  0  0  0  0  0  0  0  0  0  0
   -3.5430   25.3450  -28.9670 H   0  0  0  0  0  0  0  0  0  0  0  0
  1  2  1  0
  2  3  2  0
  2  4  1  0
  4  5  2  0
  5  6  1  0
  6  7  2  0
  7  8  1  0
  8  9  2  0
  9 10  1  0
 10 11  1  0
 10 12  1  0
  9 13  1  0
 13 14  2  0
 14 15  1  0
 15 16  1  0
 16 17  2  0
 16 18  1  0
 18 19  1  0
 19 20  1  0
 20 21  1  0
 21 22  1  0
 22 23  2  0
 22 24  1  0
 21 25  1  0
 25 26  1  0
 26 27  1  0
 27 28  1  0
 15  4  1  0
 26 18  1  0
 14  6  1  0
  1 29  1  0
  1 30  1  0
  5 31  1  0
  7 32  1  0
  8 33  1  0
 10 34  1  0
 13 35  1  0
 19 36  1  0
 19 37  1  0
 20 38  1  0
 20 39  1  0
 24 40  1  0
 25 41  1  0
 25 42  1  0
 26 43  1  6
 27 44  1  0
 27 45  1  0
 28 46  1  0
M  END
>  <smiles>  (57) 
NC(=O)c1cc2ccc(C(F)F)cc2n1C(=O)N1CCN(C(=O)O)C[C@@H]1CO

>  <score_type>  (57) 
oracle

>  <origin>  (57) 
adg

>  <m_score__min__energy>  (57) 
-9.7200000000000006

>  <m_primary>  (57) 
energy

$$$$
59:0
     RDKit          3D

 43 44  0  0  1  0  0  0  0  0999 V2000
   -1.2300   26.0140  -28.0470 C   0  0  0  0  0  0  0  0  0  0  0  0
   -1.3340   25.1550  -29.1400 O   0  0  0  0  0  0  0  0  0  0  0  0
   -0.7030   23.9200  -29.2670 C   0  0  0  0  0  0  0  0  0  0  0  0
    0.5220   23.8200  -28.9720 O   0  0  0  0  0  0  0  0  0  0  0  0
   -1.5040   22.7710  -29.7440 C   0  0  1  0  0  0  0  0  0  0  0  0
   -2.8290   23.2030  -30.2150 N   0  0  0  0  0  0  0  0  0  0  0  0
   -3.8890   22.2990  -30.3680 C   0  0  0  0  0  0  0  0  0  0  0  0
   -3.5750   21.0950  -30.0670 O   0  0  0  0  0  0  0  0  0  0  0  0
   -5.2070   22.5110  -30.7930 N   0  0  0  0  0  0  0  0  0  0  0  0
   -5.8080   23.7220  -30.7680 C   0  0  0  0  0  0  0  0  0  0  0  0
   -5.3890   25.0270  -30.3010 C   0  0  0  0  0  0  0  0  0  0  0  0
   -6.1770   25.7130  -29.2810 N   0  0  0  0  0  0  0  0  0  0  0  0
   -4.4000   25.6880  -30.6630 O   0  0  0  0  0  0  0  0  0  0  0  0
   -7.1030   23.5560  -31.3030 C   0  0  0  0  0  0  0  0  0  0  0  0
   -7.2790   22.2510  -31.6450 C   0  0  0  0  0  0  0  0  0  0  0  0
   -8.3620   21.6150  -32.2010 C   0  0  0  0  0  0  0  0  0  0  0  0
   -8.3070   20.2670  -32.4700 C   0  0  0  0  0  0  0  0  0  0  0  0
   -7.1510   19.6050  -32.1660 C   0  0  0  0  0  0  0  0  0  0  0  0
   -7.0770   18.1360  -32.4540 C   0  0  0  0  0  0  0  0  0  0  0  0
   -6.6430   17.9530  -33.7330 F   0  0  0  0  0  0  0  0  0  0  0  0
   -6.2240   17.5660  -31.5060 F   0  0  0  0  0  0  0  0  0  0  0  0
   -8.3560   17.6270  -32.3100 F   0  0  0  0  0  0  0  0  0  0  0  0
   -6.0610   20.2670  -31.6020 C   0  0  0  0  0  0  0  0  0  0  0  0
   -6.0930   21.6140  -31.3220 C   0  0  0  0  0  0  0  0  0  0  0  0
   -0.7880   21.9910  -30.8240 C   0  0  1  0  0  0  0  0  0  0  0  0
   -0.5570   20.5760  -30.3490 C   0  0  0  0  0  0  0  0  0  0  0  0
   -1.5790   21.8950  -31.9670 O   0  0  0  0  0  0  0  0  0  0  0  0
   -1.3004   25.4327  -27.1158 H   0  0  0  0  0  0  0  0  0  0  0  0
   -0.2621   26.5356  -28.0814 H   0  0  0  0  0  0  0  0  0  0  0  0
   -2.0454   26.7515  -28.0814 H   0  0  0  0  0  0  0  0  0  0  0  0
   -1.6419   22.1004  -28.8830 H   0  0  0  0  0  0  0  0  0  0  0  0
   -2.9230   24.1820  -30.4290 H   0  0  0  0  0  0  0  0  0  0  0  0
   -6.4800   25.1000  -28.4850 H   0  0  0  0  0  0  0  0  0  0  0  0
   -6.3940   26.7180  -29.3710 H   0  0  0  0  0  0  0  0  0  0  0  0
   -7.8505   24.3538  -31.4242 H   0  0  0  0  0  0  0  0  0  0  0  0
   -9.2746   22.1843  -32.4315 H   0  0  0  0  0  0  0  0  0  0  0  0
   -9.1642   19.7402  -32.9146 H   0  0  0  0  0  0  0  0  0  0  0  0
   -5.1489   19.6958  -31.3742 H   0  0  0  0  0  0  0  0  0  0  0  0
    0.1555   22.5115  -31.0452 H   0  0  0  0  0  0  0  0  0  0  0  0
   -0.5535   20.5544  -29.2492 H   0  0  0  0  0  0  0  0  0  0  0  0
   -1.3611   19.9268  -30.7259 H   0  0  0  0  0  0  0  0  0  0  0  0
    0.4118   20.2162  -30.7259 H   0  0  0  0  0  0  0  0  0  0  0  0
   -2.2700   21.1970  -31.7740 H   0  0  0  0  0  0  0  0  0  0  0  0
  1  2  1  0
  2  3  1  0
  3  4  2  0
  3  5  1  0
  5  6  1  0
  6  7  1  0
  7  8  2  0
  7  9  1  0
  9 10  1  0
 10 11  1  0
 11 12  1  0
 11 13  2  0
 10 14  2  0
 14 15  1  0
 15 16  2  0
 16 17  1  0
 17 18  2  0
 18 19  1  0
 19 20  1  0
 19 21  1  0
 19 22  1  0
 18 23  1  0
 23 24  2  0
  5 25  1  0
 25 26  1  0
 25 27  1  0
 24  9  1  0
 24 15  1  0
  1 28  1  0
  1 29  1  0
  1 30  1  0
  5 31  1  1
  6 32  1  0
 12 33  1  0
 12 34  1  0
 14 35  1  0
 16 36  1  0
 17 37  1  0
 23 38  1  0
 25 39  1  6
 26 40  1  0
 26 41  1  0
 26 42  1  0
 27 43  1  0
M  END
>  <smiles>  (58) 
COC(=O)[C@@H](NC(=O)n1c(C(N)=O)cc2ccc(C(F)(F)F)cc21)C(C)O

>  <score_type>  (58) 
oracle

>  <origin>  (58) 
adg

>  <m_score__min__energy>  (58) 
-8

>  <m_primary>  (58) 
energy

$$$$
60:0
     RDKit          3D

 40 42  0  0  1  0  0  0  0  0999 V2000
   -5.8700   18.6780  -34.9100 N   0  0  0  0  0  0  0  0  0  0  0  0
   -6.3970   18.7240  -33.5740 C   0  0  0  0  0  0  0  0  0  0  0  0
   -6.9390   17.6630  -33.1850 O   0  0  0  0  0  0  0  0  0  0  0  0
   -6.2700   19.9480  -32.7990 C   0  0  0  0  0  0  0  0  0  0  0  0
   -7.4510   20.5740  -32.3570 C   0  0  0  0  0  0  0  0  0  0  0  0
   -7.0830   21.7310  -31.7500 C   0  0  0  0  0  0  0  0  0  0  0  0
   -7.8450   22.7000  -31.1470 C   0  0  0  0  0  0  0  0  0  0  0  0
   -7.2730   23.8090  -30.5730 C   0  0  0  0  0  0  0  0  0  0  0  0
   -5.9010   23.9070  -30.6270 C   0  0  0  0  0  0  0  0  0  0  0  0
   -5.2370   25.1000  -30.0120 C   0  0  0  0  0  0  0  0  0  0  0  0
   -4.2260   25.5540  -30.8370 F   0  0  0  0  0  0  0  0  0  0  0  0
   -4.6280   24.7710  -28.8160 F   0  0  0  0  0  0  0  0  0  0  0  0
   -6.1050   26.1360  -29.7830 F   0  0  0  0  0  0  0  0  0  0  0  0
   -5.1350   22.9170  -31.2410 C   0  0  0  0  0  0  0  0  0  0  0  0
   -5.7180   21.7970  -31.8210 C   0  0  0  0  0  0  0  0  0  0  0  0
   -5.2060   20.6920  -32.4680 N   0  0  0  0  0  0  0  0  0  0  0  0
   -3.8380   20.5920  -32.7290 C   0  0  0  0  0  0  0  0  0  0  0  0
   -3.5750   20.0190  -33.8750 O   0  0  0  0  0  0  0  0  0  0  0  0
   -2.6600   20.9860  -32.0330 C   0  0  0  0  0  0  0  0  0  0  0  0
   -1.8590   20.3570  -31.2400 C   0  0  0  0  0  0  0  0  0  0  0  0
   -0.7220   20.9510  -30.6540 O   0  0  0  0  0  0  0  0  0  0  0  0
   -0.8410   21.9150  -29.6850 C   0  0  0  0  0  0  0  0  0  0  0  0
   -0.3650   21.7440  -28.3800 C   0  0  0  0  0  0  0  0  0  0  0  0
   -0.5140   22.7250  -27.4830 N   0  0  0  0  0  0  0  0  0  0  0  0
   -1.1200   23.8980  -27.8010 C   0  0  0  0  0  0  0  0  0  0  0  0
   -1.6010   24.1010  -29.0790 C   0  0  0  0  0  0  0  0  0  0  0  0
   -2.2100   25.2990  -29.3710 O   0  0  0  0  0  0  0  0  0  0  0  0
   -1.4550   23.0990  -30.0140 C   0  0  0  0  0  0  0  0  0  0  0  0
   -4.8280   18.6130  -34.9810 H   0  0  0  0  0  0  0  0  0  0  0  0
   -6.5060   18.7080  -35.7290 H   0  0  0  0  0  0  0  0  0  0  0  0
   -8.4771   20.1971  -32.4801 H   0  0  0  0  0  0  0  0  0  0  0  0
   -8.9388   22.5860  -31.1228 H   0  0  0  0  0  0  0  0  0  0  0  0
   -7.8850   24.5855  -30.0908 H   0  0  0  0  0  0  0  0  0  0  0  0
   -4.0407   23.0254  -31.2669 H   0  0  0  0  0  0  0  0  0  0  0  0
   -2.3762   22.0347  -32.2053 H   0  0  0  0  0  0  0  0  0  0  0  0
   -2.0743   19.3032  -31.0093 H   0  0  0  0  0  0  0  0  0  0  0  0
    0.1305   20.8049  -28.0926 H   0  0  0  0  0  0  0  0  0  0  0  0
   -1.2275   24.6858  -27.0408 H   0  0  0  0  0  0  0  0  0  0  0  0
   -1.6200   26.0470  -29.7650 H   0  0  0  0  0  0  0  0  0  0  0  0
   -1.8345   23.2491  -31.0355 H   0  0  0  0  0  0  0  0  0  0  0  0
  1  2  1  0
  2  3  2  0
  2  4  1  0
  4  5  2  0
  5  6  1  0
  6  7  2  0
  7  8  1  0
  8  9  2  0
  9 10  1  0
 10 11  1  0
 10 12  1  0
 10 13  1  0
  9 14  1  0
 14 15  2  0
 15 16  1  0
 16 17  1  0
 17 18  2  0
 17 19  1  0
 19 20  2  0
 20 21  1  0
 21 22  1  0
 22 23  2  0
 23 24  1  0
 24 25  2  0
 25 26  1  0
 26 27  1  0
 26 28  2  0
 16  4  1  0
 28 22  1  0
 15  6  1  0
  1 29  1  0
  1 30  1  0
  5 31  1  0
  7 32  1  0
  8 33  1  0
 14 34  1  0
 19 35  1  0
 20 36  1  0
 23 37  1  0
 25 38  1  0
 27 39  1  0
 28 40  1  0
M  END
>  <smiles>  (59) 
NC(=O)c1cc2ccc(C(F)(F)F)cc2n1C(=O)C=COc1cncc(O)c1

>  <score_type>  (59) 
oracle

>  <origin>  (59) 
adg

>  <m_score__min__energy>  (59) 
-9.0899999999999999

>  <m_primary>  (59) 
energy

$$$$
61:0
     RDKit          3D

 33 34  0  0  0  0  0  0  0  0999 V2000
   -5.8910   25.2190  -29.0070 N   0  0  0  0  0  0  0  0  0  0  0  0
   -6.0730   24.9740  -30.4270 C   0  0  0  0  0  0  0  0  0  0  0  0
   -5.9770   26.0070  -31.1270 O   0  0  0  0  0  0  0  0  0  0  0  0
   -6.3370   23.6300  -30.8990 C   0  0  0  0  0  0  0  0  0  0  0  0
   -7.6530   23.2080  -31.1660 C   0  0  0  0  0  0  0  0  0  0  0  0
   -7.6170   21.9130  -31.5930 C   0  0  0  0  0  0  0  0  0  0  0  0
   -8.6300   21.0660  -31.9730 C   0  0  0  0  0  0  0  0  0  0  0  0
   -8.3360   19.7840  -32.3720 C   0  0  0  0  0  0  0  0  0  0  0  0
   -7.0330   19.3860  -32.3800 C   0  0  0  0  0  0  0  0  0  0  0  0
   -6.6880   17.9940  -32.8110 C   0  0  0  0  0  0  0  0  0  0  0  0
   -5.7080   18.1310  -34.4750 Br  0  0  0  0  0  0  0  0  0  0  0  0
   -6.0160   20.2530  -31.9930 C   0  0  0  0  0  0  0  0  0  0  0  0
   -6.2780   21.5570  -31.5820 C   0  0  0  0  0  0  0  0  0  0  0  0
   -5.5220   22.5940  -31.1650 N   0  0  0  0  0  0  0  0  0  0  0  0
   -4.1270   22.5840  -31.0300 C   0  0  0  0  0  0  0  0  0  0  0  0
   -3.3410   22.6970  -32.0470 O   0  0  0  0  0  0  0  0  0  0  0  0
   -3.3800   22.4480  -29.7540 C   0  0  0  0  0  0  0  0  0  0  0  0
   -2.8960   24.1600  -29.2280 P   0  0  0  0  0  0  0  0  0  0  0  0
   -1.3820   24.2200  -29.1410 O   0  0  0  0  0  0  0  0  0  0  0  0
   -3.5120   24.4380  -27.6850 O   0  0  0  0  0  0  0  0  0  0  0  0
   -3.4920   25.2980  -30.3200 O   0  0  0  0  0  0  0  0  0  0  0  0
   -6.6400   24.9640  -28.3190 H   0  0  0  0  0  0  0  0  0  0  0  0
   -4.9760   25.6630  -28.7070 H   0  0  0  0  0  0  0  0  0  0  0  0
   -8.5593   23.8204  -31.0497 H   0  0  0  0  0  0  0  0  0  0  0  0
   -9.6737   21.4131  -31.9579 H   0  0  0  0  0  0  0  0  0  0  0  0
   -9.1359   19.0939  -32.6784 H   0  0  0  0  0  0  0  0  0  0  0  0
   -6.0649   17.5070  -32.0464 H   0  0  0  0  0  0  0  0  0  0  0  0
   -7.5985   17.3913  -32.9444 H   0  0  0  0  0  0  0  0  0  0  0  0
   -4.9751   19.8979  -32.0123 H   0  0  0  0  0  0  0  0  0  0  0  0
   -4.0196   21.9838  -28.9889 H   0  0  0  0  0  0  0  0  0  0  0  0
   -2.4931   21.8102  -29.8829 H   0  0  0  0  0  0  0  0  0  0  0  0
   -3.8830   25.3690  -27.6960 H   0  0  0  0  0  0  0  0  0  0  0  0
   -3.5140   24.9150  -31.2290 H   0  0  0  0  0  0  0  0  0  0  0  0
  1  2  1  0
  2  3  2  0
  2  4  1  0
  4  5  2  0
  5  6  1  0
  6  7  2  0
  7  8  1  0
  8  9  2  0
  9 10  1  0
 10 11  1  0
  9 12  1  0
 12 13  2  0
 13 14  1  0
 14 15  1  0
 15 16  2  0
 15 17  1  0
 17 18  1  0
 18 19  2  0
 18 20  1  0
 18 21  1  0
 14  4  1  0
 13  6  1  0
  1 22  1  0
  1 23  1  0
  5 24  1  0
  7 25  1  0
  8 26  1  0
 10 27  1  0
 10 28  1  0
 12 29  1  0
 17 30  1  0
 17 31  1  0
 20 32  1  0
 21 33  1  0
M  END
>  <smiles>  (60) 
NC(=O)c1cc2ccc(CBr)cc2n1C(=O)CP(=O)(O)O

>  <score_type>  (60) 
oracle

>  <origin>  (60) 
adg

>  <m_score__min__energy>  (60) 
-9.0399999999999991

>  <m_primary>  (60) 
energy

$$$$
62:0
     RDKit          3D

 44 46  0  0  0  0  0  0  0  0999 V2000
   -3.8830   23.7610  -28.0630 C   0  0  0  0  0  0  0  0  0  0  0  0
   -2.7240   23.4980  -29.0280 C   0  0  0  0  0  0  0  0  0  0  0  0
   -2.5360   21.9850  -28.9990 C   0  0  0  0  0  0  0  0  0  0  0  0
   -1.5210   24.1720  -28.4560 C   0  0  0  0  0  0  0  0  0  0  0  0
   -3.1050   23.9590  -30.3080 O   0  0  0  0  0  0  0  0  0  0  0  0
   -3.9650   23.2990  -31.1390 C   0  0  0  0  0  0  0  0  0  0  0  0
   -3.4040   22.5870  -32.0480 O   0  0  0  0  0  0  0  0  0  0  0  0
   -5.3710   23.3270  -31.0920 N   0  0  0  0  0  0  0  0  0  0  0  0
   -6.1510   24.3120  -30.6200 C   0  0  0  0  0  0  0  0  0  0  0  0
   -5.8030   25.5960  -30.0370 C   0  0  0  0  0  0  0  0  0  0  0  0
   -6.4690   26.0150  -28.8200 N   0  0  0  0  0  0  0  0  0  0  0  0
   -4.9710   26.4030  -30.4780 O   0  0  0  0  0  0  0  0  0  0  0  0
   -7.4810   23.9080  -30.7750 C   0  0  0  0  0  0  0  0  0  0  0  0
   -7.5000   22.6600  -31.3490 C   0  0  0  0  0  0  0  0  0  0  0  0
   -8.5500   21.8360  -31.7030 C   0  0  0  0  0  0  0  0  0  0  0  0
   -8.2830   20.6100  -32.2730 C   0  0  0  0  0  0  0  0  0  0  0  0
   -6.9740   20.2310  -32.4780 C   0  0  0  0  0  0  0  0  0  0  0  0
   -6.7440   18.9260  -33.0840 C   0  0  0  0  0  0  0  0  0  0  0  0
   -7.3980   17.8020  -32.6350 C   0  0  0  0  0  0  0  0  0  0  0  0
   -7.2370   16.6070  -33.1330 O   0  0  0  0  0  0  0  0  0  0  0  0
   -6.3860   16.4810  -34.1350 C   0  0  0  0  0  0  0  0  0  0  0  0
   -6.2420   15.3240  -34.6040 O   0  0  0  0  0  0  0  0  0  0  0  0
   -5.6810   17.5430  -34.6570 C   0  0  0  0  0  0  0  0  0  0  0  0
   -4.8180   17.4080  -35.6750 F   0  0  0  0  0  0  0  0  0  0  0  0
   -5.8500   18.8150  -34.1290 C   0  0  0  0  0  0  0  0  0  0  0  0
   -5.9420   21.0820  -32.1120 C   0  0  0  0  0  0  0  0  0  0  0  0
   -6.1770   22.3240  -31.5350 C   0  0  0  0  0  0  0  0  0  0  0  0
   -3.5231   23.6793  -27.0268 H   0  0  0  0  0  0  0  0  0  0  0  0
   -4.2806   24.7722  -28.2344 H   0  0  0  0  0  0  0  0  0  0  0  0
   -4.6781   23.0204  -28.2344 H   0  0  0  0  0  0  0  0  0  0  0  0
   -2.4932   21.6408  -27.9551 H   0  0  0  0  0  0  0  0  0  0  0  0
   -3.3809   21.5007  -29.5105 H   0  0  0  0  0  0  0  0  0  0  0  0
   -1.5983   21.7222  -29.5105 H   0  0  0  0  0  0  0  0  0  0  0  0
   -1.5722   24.1433  -27.3576 H   0  0  0  0  0  0  0  0  0  0  0  0
   -0.6132   23.6511  -28.7945 H   0  0  0  0  0  0  0  0  0  0  0  0
   -1.4912   25.2182  -28.7945 H   0  0  0  0  0  0  0  0  0  0  0  0
   -7.1950   26.7710  -28.8430 H   0  0  0  0  0  0  0  0  0  0  0  0
   -6.1730   25.5190  -27.9510 H   0  0  0  0  0  0  0  0  0  0  0  0
   -8.3661   24.4932  -30.4850 H   0  0  0  0  0  0  0  0  0  0  0  0
   -9.5888   22.1549  -31.5318 H   0  0  0  0  0  0  0  0  0  0  0  0
   -9.1067   19.9405  -32.5615 H   0  0  0  0  0  0  0  0  0  0  0  0
   -8.1043   17.9188  -31.7998 H   0  0  0  0  0  0  0  0  0  0  0  0
   -5.3027   19.6849  -34.5210 H   0  0  0  0  0  0  0  0  0  0  0  0
   -4.9033   20.7633  -32.2841 H   0  0  0  0  0  0  0  0  0  0  0  0
  1  2  1  0
  2  3  1  0
  2  4  1  0
  2  5  1  0
  5  6  1  0
  6  7  2  0
  6  8  1  0
  8  9  1  0
  9 10  1  0
 10 11  1  0
 10 12  2  0
  9 13  2  0
 13 14  1  0
 14 15  2  0
 15 16  1  0
 16 17  2  0
 17 18  1  0
 18 19  2  0
 19 20  1  0
 20 21  1  0
 21 22  2  0
 21 23  1  0
 23 24  1  0
 23 25  2  0
 17 26  1  0
 26 27  2  0
 27  8  1  0
 27 14  1  0
 25 18  1  0
  1 28  1  0
  1 29  1  0
  1 30  1  0
  3 31  1  0
  3 32  1  0
  3 33  1  0
  4 34  1  0
  4 35  1  0
  4 36  1  0
 11 37  1  0
 11 38  1  0
 13 39  1  0
 15 40  1  0
 16 41  1  0
 19 42  1  0
 25 43  1  0
 26 44  1  0
M  END
>  <smiles>  (61) 
CC(C)(C)OC(=O)n1c(C(N)=O)cc2ccc(-c3coc(=O)c(F)c3)cc21

>  <score_type>  (61) 
oracle

>  <origin>  (61) 
adg

>  <m_score__min__energy>  (61) 
-9.5500000000000007

>  <m_primary>  (61) 
energy

$$$$
63:0
     RDKit          3D

 38 39  0  0  0  0  0  0  0  0999 V2000
   -7.9980   18.4880  -32.6860 C   0  0  0  0  0  0  0  0  0  0  0  0
   -7.9540   19.9060  -32.2100 C   0  0  0  0  0  0  0  0  0  0  0  0
   -9.1120   20.6020  -32.0820 C   0  0  0  0  0  0  0  0  0  0  0  0
   -9.0480   21.9060  -31.6430 C   0  0  0  0  0  0  0  0  0  0  0  0
   -7.8300   22.4740  -31.3470 C   0  0  0  0  0  0  0  0  0  0  0  0
   -7.5030   23.7290  -30.9020 C   0  0  0  0  0  0  0  0  0  0  0  0
   -6.1100   23.8320  -30.7440 C   0  0  0  0  0  0  0  0  0  0  0  0
   -5.5090   25.0480  -30.2870 C   0  0  0  0  0  0  0  0  0  0  0  0
   -5.9470   25.9820  -29.3380 N   0  0  0  0  0  0  0  0  0  0  0  0
   -4.3730   25.3580  -30.8250 O   0  0  0  0  0  0  0  0  0  0  0  0
   -5.6000   22.6250  -31.1000 N   0  0  0  0  0  0  0  0  0  0  0  0
   -4.2270   22.2770  -31.0950 C   0  0  0  0  0  0  0  0  0  0  0  0
   -3.3630   23.0930  -31.5060 O   0  0  0  0  0  0  0  0  0  0  0  0
   -3.6750   20.9800  -30.6300 C   0  0  0  0  0  0  0  0  0  0  0  0
   -3.0600   21.2140  -29.2640 C   0  0  0  0  0  0  0  0  0  0  0  0
   -3.0410   20.3580  -28.3650 O   0  0  0  0  0  0  0  0  0  0  0  0
   -2.4680   22.5290  -29.0300 C   0  0  0  0  0  0  0  0  0  0  0  0
   -3.0360   23.4530  -28.2730 C   0  0  0  0  0  0  0  0  0  0  0  0
   -2.3790   24.7910  -28.0680 C   0  0  0  0  0  0  0  0  0  0  0  0
   -2.0650   25.2990  -29.3350 O   0  0  0  0  0  0  0  0  0  0  0  0
   -6.6270   21.8010  -31.4650 C   0  0  0  0  0  0  0  0  0  0  0  0
   -6.7250   20.4990  -31.9060 C   0  0  0  0  0  0  0  0  0  0  0  0
   -8.0190   17.8108  -31.8194 H   0  0  0  0  0  0  0  0  0  0  0  0
   -8.9014   18.3333  -33.2942 H   0  0  0  0  0  0  0  0  0  0  0  0
   -7.1060   18.2776  -33.2942 H   0  0  0  0  0  0  0  0  0  0  0  0
  -10.0787   20.1358  -32.3231 H   0  0  0  0  0  0  0  0  0  0  0  0
   -9.9709   22.4936  -31.5290 H   0  0  0  0  0  0  0  0  0  0  0  0
   -8.2234   24.5351  -30.6989 H   0  0  0  0  0  0  0  0  0  0  0  0
   -5.6970   25.9180  -28.3050 H   0  0  0  0  0  0  0  0  0  0  0  0
   -6.5470   26.7840  -29.6980 H   0  0  0  0  0  0  0  0  0  0  0  0
   -4.4793   20.2331  -30.5575 H   0  0  0  0  0  0  0  0  0  0  0  0
   -2.9210   20.6025  -31.3365 H   0  0  0  0  0  0  0  0  0  0  0  0
   -1.5040   22.7617  -29.5060 H   0  0  0  0  0  0  0  0  0  0  0  0
   -4.0000   23.2408  -27.7876 H   0  0  0  0  0  0  0  0  0  0  0  0
   -3.0683   25.4733  -27.5490 H   0  0  0  0  0  0  0  0  0  0  0  0
   -1.4725   24.6898  -27.4533 H   0  0  0  0  0  0  0  0  0  0  0  0
   -2.4480   24.7150  -30.0490 H   0  0  0  0  0  0  0  0  0  0  0  0
   -5.8055   19.9066  -32.0227 H   0  0  0  0  0  0  0  0  0  0  0  0
  1  2  1  0
  2  3  2  0
  3  4  1  0
  4  5  2  0
  5  6  1  0
  6  7  2  0
  7  8  1  0
  8  9  1  0
  8 10  2  0
  7 11  1  0
 11 12  1  0
 12 13  2  0
 12 14  1  0
 14 15  1  0
 15 16  2  0
 15 17  1  0
 17 18  2  0
 18 19  1  0
 19 20  1  0
 11 21  1  0
 21 22  2  0
 22  2  1  0
 21  5  1  0
  1 23  1  0
  1 24  1  0
  1 25  1  0
  3 26  1  0
  4 27  1  0
  6 28  1  0
  9 29  1  0
  9 30  1  0
 14 31  1  0
 14 32  1  0
 17 33  1  0
 18 34  1  0
 19 35  1  0
 19 36  1  0
 20 37  1  0
 22 38  1  0
M  END
>  <smiles>  (62) 
Cc1ccc2cc(C(N)=O)n(C(=O)CC(=O)/C=C/CO)c2c1

>  <score_type>  (62) 
oracle

>  <origin>  (62) 
adg

>  <m_score__min__energy>  (62) 
-9.3699999999999992

>  <m_primary>  (62) 
energy

$$$$
64:0
     RDKit          3D

 40 41  0  0  0  0  0  0  0  0999 V2000
   -6.3060   25.7690  -29.1480 N   0  0  0  0  0  0  0  0  0  0  0  0
   -5.7110   25.0590  -30.2110 C   0  0  0  0  0  0  0  0  0  0  0  0
   -4.7670   25.6780  -30.8160 O   0  0  0  0  0  0  0  0  0  0  0  0
   -6.0360   23.7320  -30.6760 C   0  0  0  0  0  0  0  0  0  0  0  0
   -7.3740   23.4510  -31.0510 C   0  0  0  0  0  0  0  0  0  0  0  0
   -7.4070   22.1810  -31.5050 C   0  0  0  0  0  0  0  0  0  0  0  0
   -8.4670   21.4350  -31.9850 C   0  0  0  0  0  0  0  0  0  0  0  0
   -8.2910   20.1330  -32.4030 C   0  0  0  0  0  0  0  0  0  0  0  0
   -7.0170   19.6180  -32.3190 C   0  0  0  0  0  0  0  0  0  0  0  0
   -6.7900   18.2150  -32.7610 C   0  0  0  0  0  0  0  0  0  0  0  0
   -5.7270   17.6410  -32.1300 F   0  0  0  0  0  0  0  0  0  0  0  0
   -6.4870   18.2590  -34.1170 F   0  0  0  0  0  0  0  0  0  0  0  0
   -7.9630   17.5180  -32.5900 F   0  0  0  0  0  0  0  0  0  0  0  0
   -5.9590   20.3760  -31.8350 C   0  0  0  0  0  0  0  0  0  0  0  0
   -6.1250   21.6890  -31.4120 C   0  0  0  0  0  0  0  0  0  0  0  0
   -5.2870   22.6410  -30.8990 N   0  0  0  0  0  0  0  0  0  0  0  0
   -3.9090   22.4080  -30.7450 C   0  0  0  0  0  0  0  0  0  0  0  0
   -3.1430   23.3090  -31.2790 O   0  0  0  0  0  0  0  0  0  0  0  0
   -3.1960   21.3260  -30.0980 C   0  0  0  0  0  0  0  0  0  0  0  0
   -3.0960   21.3360  -28.7120 O   0  0  0  0  0  0  0  0  0  0  0  0
   -3.1120   22.4820  -27.9290 C   0  0  0  0  0  0  0  0  0  0  0  0
   -4.1610   23.1970  -28.0150 O   0  0  0  0  0  0  0  0  0  0  0  0
   -1.9860   22.8740  -27.0380 C   0  0  0  0  0  0  0  0  0  0  0  0
   -1.8510   24.3720  -27.1420 C   0  0  0  0  0  0  0  0  0  0  0  0
   -1.5530   24.8190  -28.5180 C   0  0  0  0  0  0  0  0  0  0  0  0
   -0.3870   24.8850  -28.9790 O   0  0  0  0  0  0  0  0  0  0  0  0
   -2.6090   25.1810  -29.3400 O   0  0  0  0  0  0  0  0  0  0  0  0
   -6.4700   26.8000  -29.2390 H   0  0  0  0  0  0  0  0  0  0  0  0
   -6.5640   25.2170  -28.2920 H   0  0  0  0  0  0  0  0  0  0  0  0
   -8.2279   24.1412  -30.9841 H   0  0  0  0  0  0  0  0  0  0  0  0
   -9.4682   21.8879  -32.0344 H   0  0  0  0  0  0  0  0  0  0  0  0
   -9.1299   19.5333  -32.7860 H   0  0  0  0  0  0  0  0  0  0  0  0
   -4.9580   19.9227  -31.7849 H   0  0  0  0  0  0  0  0  0  0  0  0
   -3.6994   20.3898  -30.3810 H   0  0  0  0  0  0  0  0  0  0  0  0
   -2.1584   21.4405  -30.4448 H   0  0  0  0  0  0  0  0  0  0  0  0
   -2.2059   22.5846  -25.9998 H   0  0  0  0  0  0  0  0  0  0  0  0
   -1.0536   22.3716  -27.3351 H   0  0  0  0  0  0  0  0  0  0  0  0
   -2.7947   24.8346  -26.8174 H   0  0  0  0  0  0  0  0  0  0  0  0
   -1.0099   24.6770  -26.5020 H   0  0  0  0  0  0  0  0  0  0  0  0
   -3.4030   24.5850  -29.5280 H   0  0  0  0  0  0  0  0  0  0  0  0
  1  2  1  0
  2  3  2  0
  2  4  1  0
  4  5  2  0
  5  6  1  0
  6  7  2  0
  7  8  1  0
  8  9  2  0
  9 10  1  0
 10 11  1  0
 10 12  1  0
 10 13  1  0
  9 14  1  0
 14 15  2  0
 15 16  1  0
 16 17  1  0
 17 18  2  0
 17 19  1  0
 19 20  1  0
 20 21  1  0
 21 22  2  0
 21 23  1  0
 23 24  1  0
 24 25  1  0
 25 26  2  0
 25 27  1  0
 16  4  1  0
 15  6  1  0
  1 28  1  0
  1 29  1  0
  5 30  1  0
  7 31  1  0
  8 32  1  0
 14 33  1  0
 19 34  1  0
 19 35  1  0
 23 36  1  0
 23 37  1  0
 24 38  1  0
 24 39  1  0
 27 40  1  0
M  END
>  <smiles>  (63) 
NC(=O)c1cc2ccc(C(F)(F)F)cc2n1C(=O)COC(=O)CCC(=O)O

>  <score_type>  (63) 
oracle

>  <origin>  (63) 
adg

>  <m_score__min__energy>  (63) 
-8.9900000000000002

>  <m_primary>  (63) 
energy

$$$$
65:0
     RDKit          3D

 51 52  0  0  0  0  0  0  0  0999 V2000
   -4.7060   16.4580  -33.1390 C   0  0  0  0  0  0  0  0  0  0  0  0
   -5.6540   17.5690  -32.8760 C   0  0  0  0  0  0  0  0  0  0  0  0
   -6.9720   17.2670  -32.6760 C   0  0  0  0  0  0  0  0  0  0  0  0
   -7.8610   18.2920  -32.4310 C   0  0  0  0  0  0  0  0  0  0  0  0
   -7.3990   19.5940  -32.3930 C   0  0  0  0  0  0  0  0  0  0  0  0
   -8.0430   20.7860  -32.1740 C   0  0  0  0  0  0  0  0  0  0  0  0
   -7.1100   21.8310  -32.2390 C   0  0  0  0  0  0  0  0  0  0  0  0
   -7.5070   23.2120  -32.0460 C   0  0  0  0  0  0  0  0  0  0  0  0
   -6.7820   24.0430  -31.1110 N   0  0  0  0  0  0  0  0  0  0  0  0
   -8.4520   23.7910  -32.6280 O   0  0  0  0  0  0  0  0  0  0  0  0
   -5.9340   21.2800  -32.4910 N   0  0  0  0  0  0  0  0  0  0  0  0
   -4.6890   21.9330  -32.6460 C   0  0  0  0  0  0  0  0  0  0  0  0
   -4.4620   23.0360  -32.0360 O   0  0  0  0  0  0  0  0  0  0  0  0
   -3.6400   21.4840  -33.4250 O   0  0  0  0  0  0  0  0  0  0  0  0
   -2.5280   20.8270  -32.9650 C   0  0  0  0  0  0  0  0  0  0  0  0
   -2.4300   19.5760  -33.2040 O   0  0  0  0  0  0  0  0  0  0  0  0
   -1.4740   21.5580  -32.2100 C   0  0  0  0  0  0  0  0  0  0  0  0
   -2.0740   21.7840  -30.8170 C   0  0  0  0  0  0  0  0  0  0  0  0
   -1.0280   22.0010  -29.8380 N   0  0  0  0  0  0  0  0  0  0  0  0
   -0.1600   20.9180  -29.4370 C   0  0  0  0  0  0  0  0  0  0  0  0
   -0.9040   23.3110  -29.3030 C   0  0  0  0  0  0  0  0  0  0  0  0
    0.2380   23.7970  -29.1420 O   0  0  0  0  0  0  0  0  0  0  0  0
   -2.0730   23.9950  -28.9810 O   0  0  0  0  0  0  0  0  0  0  0  0
   -2.6370   23.9350  -27.6700 C   0  0  0  0  0  0  0  0  0  0  0  0
   -3.7850   24.7370  -27.7290 O   0  0  0  0  0  0  0  0  0  0  0  0
   -4.6630   24.4820  -29.1270 P   0  0  0  0  0  0  0  0  0  0  0  0
   -4.9170   22.9920  -29.2470 O   0  0  0  0  0  0  0  0  0  0  0  0
   -3.8390   24.9900  -30.5090 O   0  0  0  0  0  0  0  0  0  0  0  0
   -6.1270   25.2910  -29.0310 O   0  0  0  0  0  0  0  0  0  0  0  0
   -6.0740   19.9250  -32.5900 C   0  0  0  0  0  0  0  0  0  0  0  0
   -5.2100   18.8790  -32.8330 C   0  0  0  0  0  0  0  0  0  0  0  0
   -4.3525   16.0437  -32.1833 H   0  0  0  0  0  0  0  0  0  0  0  0
   -5.2146   15.6704  -33.7143 H   0  0  0  0  0  0  0  0  0  0  0  0
   -3.8482   16.8364  -33.7143 H   0  0  0  0  0  0  0  0  0  0  0  0
   -7.3177   16.2233  -32.7100 H   0  0  0  0  0  0  0  0  0  0  0  0
   -8.9271   18.0757  -32.2675 H   0  0  0  0  0  0  0  0  0  0  0  0
   -9.1192   20.9030  -31.9787 H   0  0  0  0  0  0  0  0  0  0  0  0
   -7.2790   24.7540  -30.5280 H   0  0  0  0  0  0  0  0  0  0  0  0
   -5.7480   23.9530  -30.9960 H   0  0  0  0  0  0  0  0  0  0  0  0
   -0.5565   20.9549  -32.1433 H   0  0  0  0  0  0  0  0  0  0  0  0
   -1.1931   22.5025  -32.6989 H   0  0  0  0  0  0  0  0  0  0  0  0
   -2.7306   22.6660  -30.8454 H   0  0  0  0  0  0  0  0  0  0  0  0
   -2.6475   20.8904  -30.5297 H   0  0  0  0  0  0  0  0  0  0  0  0
   -0.1197   20.8678  -28.3389 H   0  0  0  0  0  0  0  0  0  0  0  0
   -0.5505   19.9691  -29.8334 H   0  0  0  0  0  0  0  0  0  0  0  0
    0.8511   21.0925  -29.8334 H   0  0  0  0  0  0  0  0  0  0  0  0
   -2.9024   22.8994  -27.4108 H   0  0  0  0  0  0  0  0  0  0  0  0
   -1.9308   24.2823  -26.9014 H   0  0  0  0  0  0  0  0  0  0  0  0
   -3.1970   24.2890  -30.8180 H   0  0  0  0  0  0  0  0  0  0  0  0
   -6.6110   24.9490  -28.2610 H   0  0  0  0  0  0  0  0  0  0  0  0
   -4.1430   19.0903  -32.9965 H   0  0  0  0  0  0  0  0  0  0  0  0
  1  2  1  0
  2  3  2  0
  3  4  1  0
  4  5  2  0
  5  6  1  0
  6  7  2  0
  7  8  1  0
  8  9  1  0
  8 10  2  0
  7 11  1  0
 11 12  1  0
 12 13  2  0
 12 14  1  0
 14 15  1  0
 15 16  2  0
 15 17  1  0
 17 18  1  0
 18 19  1  0
 19 20  1  0
 19 21  1  0
 21 22  2  0
 21 23  1  0
 23 24  1  0
 24 25  1  0
 25 26  1  0
 26 27  2  0
 26 28  1  0
 26 29  1  0
 11 30  1  0
 30 31  2  0
 31  2  1  0
 30  5  1  0
  1 32  1  0
  1 33  1  0
  1 34  1  0
  3 35  1  0
  4 36  1  0
  6 37  1  0
  9 38  1  0
  9 39  1  0
 17 40  1  0
 17 41  1  0
 18 42  1  0
 18 43  1  0
 20 44  1  0
 20 45  1  0
 20 46  1  0
 24 47  1  0
 24 48  1  0
 28 49  1  0
 29 50  1  0
 31 51  1  0
M  END
>  <smiles>  (64) 
Cc1ccc2cc(C(N)=O)n(C(=O)OC(=O)CCN(C)C(=O)OCOP(=O)(O)O)c2c1

>  <score_type>  (64) 
oracle

>  <origin>  (64) 
adg

>  <m_score__min__energy>  (64) 
-8.2100000000000009

>  <m_primary>  (64) 
energy

$$$$
66:0
     RDKit          3D

 50 51  0  0  0  0  0  0  0  0999 V2000
   -6.4340   17.3470  -32.2200 C   0  0  0  0  0  0  0  0  0  0  0  0
   -7.3520   18.2640  -33.0210 C   0  0  0  0  0  0  0  0  0  0  0  0
   -7.3480   19.6420  -32.4590 C   0  0  0  0  0  0  0  0  0  0  0  0
   -8.5410   20.2910  -32.3170 C   0  0  0  0  0  0  0  0  0  0  0  0
   -8.5180   21.5650  -31.7960 C   0  0  0  0  0  0  0  0  0  0  0  0
   -7.3240   22.1460  -31.4360 C   0  0  0  0  0  0  0  0  0  0  0  0
   -7.0580   23.3820  -30.9270 C   0  0  0  0  0  0  0  0  0  0  0  0
   -5.6620   23.5240  -30.7360 C   0  0  0  0  0  0  0  0  0  0  0  0
   -5.1480   24.7500  -30.1910 C   0  0  0  0  0  0  0  0  0  0  0  0
   -3.9390   25.4120  -30.4270 N   0  0  0  0  0  0  0  0  0  0  0  0
   -5.9060   25.3670  -29.3300 O   0  0  0  0  0  0  0  0  0  0  0  0
   -5.0970   22.3530  -31.1400 N   0  0  0  0  0  0  0  0  0  0  0  0
   -3.7030   22.1540  -31.1890 C   0  0  0  0  0  0  0  0  0  0  0  0
   -3.0580   23.2490  -31.4970 O   0  0  0  0  0  0  0  0  0  0  0  0
   -2.8660   21.0400  -30.9730 C   0  0  0  0  0  0  0  0  0  0  0  0
   -2.5370   20.0890  -31.7100 O   0  0  0  0  0  0  0  0  0  0  0  0
   -2.2500   20.9300  -29.6850 O   0  0  0  0  0  0  0  0  0  0  0  0
   -3.0990   20.5590  -28.5800 C   0  0  0  0  0  0  0  0  0  0  0  0
   -2.1790   19.9960  -27.5340 C   0  0  0  0  0  0  0  0  0  0  0  0
   -1.3680   21.0480  -26.8730 C   0  0  0  0  0  0  0  0  0  0  0  0
   -1.2300   20.9890  -25.6250 O   0  0  0  0  0  0  0  0  0  0  0  0
   -0.7890   22.0660  -27.6790 N   0  0  0  0  0  0  0  0  0  0  0  0
    0.0070   23.1110  -27.1100 C   0  0  0  0  0  0  0  0  0  0  0  0
   -0.6460   24.4580  -27.3030 C   0  0  0  0  0  0  0  0  0  0  0  0
   -1.6470   24.2560  -28.4090 C   0  0  0  0  0  0  0  0  0  0  0  0
   -2.8570   24.4300  -28.1270 O   0  0  0  0  0  0  0  0  0  0  0  0
   -1.2560   23.8930  -29.6930 O   0  0  0  0  0  0  0  0  0  0  0  0
   -6.0970   21.5210  -31.5630 C   0  0  0  0  0  0  0  0  0  0  0  0
   -6.1490   20.2490  -32.0880 C   0  0  0  0  0  0  0  0  0  0  0  0
   -6.5987   17.5115  -31.1449 H   0  0  0  0  0  0  0  0  0  0  0  0
   -6.6553   16.2986  -32.4686 H   0  0  0  0  0  0  0  0  0  0  0  0
   -5.3858   17.5694  -32.4686 H   0  0  0  0  0  0  0  0  0  0  0  0
   -7.0046   18.2995  -34.0641 H   0  0  0  0  0  0  0  0  0  0  0  0
   -8.3766   17.8668  -32.9705 H   0  0  0  0  0  0  0  0  0  0  0  0
   -9.4875   19.8124  -32.6088 H   0  0  0  0  0  0  0  0  0  0  0  0
   -9.4584   22.1209  -31.6670 H   0  0  0  0  0  0  0  0  0  0  0  0
   -7.8114   24.1506  -30.6996 H   0  0  0  0  0  0  0  0  0  0  0  0
   -3.8600   26.3870  -30.8490 H   0  0  0  0  0  0  0  0  0  0  0  0
   -2.9870   24.9970  -30.1930 H   0  0  0  0  0  0  0  0  0  0  0  0
   -3.6293   21.4405  -28.1905 H   0  0  0  0  0  0  0  0  0  0  0  0
   -3.8652   19.8301  -28.8826 H   0  0  0  0  0  0  0  0  0  0  0  0
   -2.7827   19.4829  -26.7709 H   0  0  0  0  0  0  0  0  0  0  0  0
   -1.4873   19.3011  -28.0327 H   0  0  0  0  0  0  0  0  0  0  0  0
   -0.9530   22.0440  -28.7260 H   0  0  0  0  0  0  0  0  0  0  0  0
    0.1307   22.9227  -26.0333 H   0  0  0  0  0  0  0  0  0  0  0  0
    0.9839   23.1207  -27.6155 H   0  0  0  0  0  0  0  0  0  0  0  0
   -1.1507   24.7779  -26.3795 H   0  0  0  0  0  0  0  0  0  0  0  0
    0.0879   25.2393  -27.5501 H   0  0  0  0  0  0  0  0  0  0  0  0
   -1.5190   22.9540  -30.0200 H   0  0  0  0  0  0  0  0  0  0  0  0
   -5.2100   19.6913  -32.2195 H   0  0  0  0  0  0  0  0  0  0  0  0
  1  2  1  0
  2  3  1  0
  3  4  2  0
  4  5  1  0
  5  6  2  0
  6  7  1  0
  7  8  2  0
  8  9  1  0
  9 10  1  0
  9 11  2  0
  8 12  1  0
 12 13  1  0
 13 14  2  0
 13 15  1  0
 15 16  2  0
 15 17  1  0
 17 18  1  0
 18 19  1  0
 19 20  1  0
 20 21  2  0
 20 22  1  0
 22 23  1  0
 23 24  1  0
 24 25  1  0
 25 26  2  0
 25 27  1  0
 12 28  1  0
 28 29  2  0
 29  3  1  0
 28  6  1  0
  1 30  1  0
  1 31  1  0
  1 32  1  0
  2 33  1  0
  2 34  1  0
  4 35  1  0
  5 36  1  0
  7 37  1  0
 10 38  1  0
 10 39  1  0
 18 40  1  0
 18 41  1  0
 19 42  1  0
 19 43  1  0
 22 44  1  0
 23 45  1  0
 23 46  1  0
 24 47  1  0
 24 48  1  0
 27 49  1  0
 29 50  1  0
M  END
>  <smiles>  (65) 
CCc1ccc2cc(C(N)=O)n(C(=O)C(=O)OCCC(=O)NCCC(=O)O)c2c1

>  <score_type>  (65) 
oracle

>  <origin>  (65) 
adg

>  <m_score__min__energy>  (65) 
-8.5999999999999996

>  <m_primary>  (65) 
energy

$$$$
67:0
     RDKit          3D

 51 52  0  0  1  0  0  0  0  0999 V2000
   -2.6450   18.9230  -26.0060 C   0  0  0  0  0  0  0  0  0  0  0  0
   -3.0370   19.7670  -27.2230 C   0  0  0  0  0  0  0  0  0  0  0  0
   -2.2170   20.8950  -27.2340 O   0  0  0  0  0  0  0  0  0  0  0  0
   -2.6670   21.8640  -28.5360 P   0  0  1  0  0  0  0  0  0  0  0  0
   -3.8650   22.7040  -28.2470 O   0  0  0  0  0  0  0  0  0  0  0  0
   -1.3000   22.7610  -29.0800 N   0  0  0  0  0  0  0  0  0  0  0  0
   -0.8130   23.7530  -28.1720 C   0  0  1  0  0  0  0  0  0  0  0  0
    0.6830   23.9110  -28.1940 C   0  0  0  0  0  0  0  0  0  0  0  0
   -1.3840   25.0620  -28.5910 C   0  0  0  0  0  0  0  0  0  0  0  0
   -0.8140   26.1200  -28.2400 O   0  0  0  0  0  0  0  0  0  0  0  0
   -2.5340   25.1690  -29.3640 O   0  0  0  0  0  0  0  0  0  0  0  0
   -3.1250   20.8060  -29.7980 O   0  0  0  0  0  0  0  0  0  0  0  0
   -2.4900   21.1280  -30.9760 C   0  0  0  0  0  0  0  0  0  0  0  0
   -3.4360   21.6770  -31.8630 O   0  0  0  0  0  0  0  0  0  0  0  0
   -4.2570   22.7400  -31.4340 C   0  0  0  0  0  0  0  0  0  0  0  0
   -3.6250   23.7890  -31.1530 O   0  0  0  0  0  0  0  0  0  0  0  0
   -5.6410   22.5670  -31.3540 N   0  0  0  0  0  0  0  0  0  0  0  0
   -6.5180   23.3630  -30.7360 C   0  0  0  0  0  0  0  0  0  0  0  0
   -6.3380   24.5920  -29.9890 C   0  0  0  0  0  0  0  0  0  0  0  0
   -5.0350   24.9310  -29.4590 N   0  0  0  0  0  0  0  0  0  0  0  0
   -7.2320   25.4330  -29.7400 O   0  0  0  0  0  0  0  0  0  0  0  0
   -7.7900   22.7980  -30.9160 C   0  0  0  0  0  0  0  0  0  0  0  0
   -7.6670   21.6470  -31.6550 C   0  0  0  0  0  0  0  0  0  0  0  0
   -8.6100   20.7400  -32.0960 C   0  0  0  0  0  0  0  0  0  0  0  0
   -8.2010   19.6510  -32.8350 C   0  0  0  0  0  0  0  0  0  0  0  0
   -6.8630   19.4860  -33.1210 C   0  0  0  0  0  0  0  0  0  0  0  0
   -6.3990   18.3090  -33.9220 C   0  0  0  0  0  0  0  0  0  0  0  0
   -5.9410   20.4200  -32.6610 C   0  0  0  0  0  0  0  0  0  0  0  0
   -6.3180   21.5240  -31.9170 C   0  0  0  0  0  0  0  0  0  0  0  0
   -2.8982   19.4682  -25.0848 H   0  0  0  0  0  0  0  0  0  0  0  0
   -3.1922   17.9691  -26.0297 H   0  0  0  0  0  0  0  0  0  0  0  0
   -1.5631   18.7257  -26.0297 H   0  0  0  0  0  0  0  0  0  0  0  0
   -2.8893   19.1866  -28.1456 H   0  0  0  0  0  0  0  0  0  0  0  0
   -4.0960   20.0590  -27.1664 H   0  0  0  0  0  0  0  0  0  0  0  0
   -1.5350   23.2530  -29.9700 H   0  0  0  0  0  0  0  0  0  0  0  0
   -1.1067   23.4368  -27.1602 H   0  0  0  0  0  0  0  0  0  0  0  0
    1.0627   23.9511  -27.1624 H   0  0  0  0  0  0  0  0  0  0  0  0
    1.1344   23.0555  -28.7179 H   0  0  0  0  0  0  0  0  0  0  0  0
    0.9457   24.8419  -28.7179 H   0  0  0  0  0  0  0  0  0  0  0  0
   -3.0990   24.3560  -29.6120 H   0  0  0  0  0  0  0  0  0  0  0  0
   -1.6961   21.8637  -30.7796 H   0  0  0  0  0  0  0  0  0  0  0  0
   -2.0404   20.2267  -31.4181 H   0  0  0  0  0  0  0  0  0  0  0  0
   -4.7020   25.9220  -29.4290 H   0  0  0  0  0  0  0  0  0  0  0  0
   -4.4480   24.1210  -29.1070 H   0  0  0  0  0  0  0  0  0  0  0  0
   -8.7330   23.2104  -30.5279 H   0  0  0  0  0  0  0  0  0  0  0  0
   -9.6747   20.8848  -31.8604 H   0  0  0  0  0  0  0  0  0  0  0  0
   -8.9381   18.9179  -33.1944 H   0  0  0  0  0  0  0  0  0  0  0  0
   -6.0819   17.5047  -33.2419 H   0  0  0  0  0  0  0  0  0  0  0  0
   -7.2227   17.9494  -34.5563 H   0  0  0  0  0  0  0  0  0  0  0  0
   -5.5516   18.6082  -34.5563 H   0  0  0  0  0  0  0  0  0  0  0  0
   -4.8762   20.2762  -32.8966 H   0  0  0  0  0  0  0  0  0  0  0  0
  1  2  1  0
  2  3  1  0
  4  3  1  1
  4  5  2  0
  4  6  1  0
  6  7  1  0
  7  8  1  0
  7  9  1  0
  9 10  2  0
  9 11  1  0
  4 12  1  0
 12 13  1  0
 13 14  1  0
 14 15  1  0
 15 16  2  0
 15 17  1  0
 17 18  1  0
 18 19  1  0
 19 20  1  0
 19 21  2  0
 18 22  2  0
 22 23  1  0
 23 24  2  0
 24 25  1  0
 25 26  2  0
 26 27  1  0
 26 28  1  0
 28 29  2  0
 29 17  1  0
 29 23  1  0
  1 30  1  0
  1 31  1  0
  1 32  1  0
  2 33  1  0
  2 34  1  0
  6 35  1  0
  7 36  1  1
  8 37  1  0
  8 38  1  0
  8 39  1  0
 11 40  1  0
 13 41  1  0
 13 42  1  0
 20 43  1  0
 20 44  1  0
 22 45  1  0
 24 46  1  0
 25 47  1  0
 27 48  1  0
 27 49  1  0
 27 50  1  0
 28 51  1  0
M  END
>  <smiles>  (66) 
CCOP(=O)(N[C@@H](C)C(=O)O)OCOC(=O)n1c(C(N)=O)cc2ccc(C)cc21

>  <score_type>  (66) 
oracle

>  <origin>  (66) 
adg

>  <m_score__min__energy>  (66) 
-8.6899999999999995

>  <m_primary>  (66) 
energy

$$$$
68:0
     RDKit          3D

 52 53  0  0  0  0  0  0  0  0999 V2000
   -0.8030   23.0500  -29.8930 C   0  0  0  0  0  0  0  0  0  0  0  0
   -1.9110   22.0290  -29.8710 C   0  0  1  0  0  0  0  0  0  0  0  0
   -1.8540   21.2480  -28.5820 C   0  0  0  0  0  0  0  0  0  0  0  0
   -2.2830   22.1810  -27.4920 C   0  0  0  0  0  0  0  0  0  0  0  0
   -1.5220   22.2250  -26.4840 O   0  0  0  0  0  0  0  0  0  0  0  0
   -3.4430   22.9470  -27.5860 O   0  0  0  0  0  0  0  0  0  0  0  0
   -3.5100   24.2640  -27.1160 C   0  0  0  0  0  0  0  0  0  0  0  0
   -2.3630   25.0290  -27.6610 C   0  0  0  0  0  0  0  0  0  0  0  0
   -2.3630   25.2820  -28.9040 O   0  0  0  0  0  0  0  0  0  0  0  0
   -1.2900   25.4760  -26.8430 N   0  0  0  0  0  0  0  0  0  0  0  0
   -1.2210   25.2270  -25.4160 C   0  0  0  0  0  0  0  0  0  0  0  0
   -0.1960   26.2180  -27.4370 C   0  0  0  0  0  0  0  0  0  0  0  0
   -3.2220   22.6420  -30.0150 N   0  0  0  0  0  0  0  0  0  0  0  0
   -4.2670   21.9360  -30.6240 C   0  0  0  0  0  0  0  0  0  0  0  0
   -3.9260   20.7640  -31.0200 O   0  0  0  0  0  0  0  0  0  0  0  0
   -5.5950   22.3110  -30.8640 N   0  0  0  0  0  0  0  0  0  0  0  0
   -6.0220   23.5970  -30.8130 C   0  0  0  0  0  0  0  0  0  0  0  0
   -5.4130   24.8360  -30.4070 C   0  0  0  0  0  0  0  0  0  0  0  0
   -5.9010   25.8180  -29.5240 N   0  0  0  0  0  0  0  0  0  0  0  0
   -4.2460   25.1490  -30.8960 O   0  0  0  0  0  0  0  0  0  0  0  0
   -7.3770   23.5790  -31.1940 C   0  0  0  0  0  0  0  0  0  0  0  0
   -7.7620   22.3090  -31.4680 C   0  0  0  0  0  0  0  0  0  0  0  0
   -8.9700   21.8060  -31.8790 C   0  0  0  0  0  0  0  0  0  0  0  0
   -9.1220   20.4590  -32.1070 C   0  0  0  0  0  0  0  0  0  0  0  0
   -8.0350   19.6550  -31.9130 C   0  0  0  0  0  0  0  0  0  0  0  0
   -8.1930   18.2010  -32.1590 C   0  0  0  0  0  0  0  0  0  0  0  0
   -7.2970   17.4930  -31.3640 F   0  0  0  0  0  0  0  0  0  0  0  0
   -7.8600   17.9100  -33.4600 F   0  0  0  0  0  0  0  0  0  0  0  0
   -9.4790   17.7960  -31.9340 F   0  0  0  0  0  0  0  0  0  0  0  0
   -6.8190   20.1810  -31.4960 C   0  0  0  0  0  0  0  0  0  0  0  0
   -6.6340   21.5270  -31.2560 C   0  0  0  0  0  0  0  0  0  0  0  0
   -0.5223   23.3087  -28.8614 H   0  0  0  0  0  0  0  0  0  0  0  0
    0.0697   22.6328  -30.4168 H   0  0  0  0  0  0  0  0  0  0  0  0
   -1.1476   23.9538  -30.4168 H   0  0  0  0  0  0  0  0  0  0  0  0
   -1.7625   21.3563  -30.7286 H   0  0  0  0  0  0  0  0  0  0  0  0
   -2.5344   20.3851  -28.6316 H   0  0  0  0  0  0  0  0  0  0  0  0
   -0.8397   20.8646  -28.3971 H   0  0  0  0  0  0  0  0  0  0  0  0
   -4.4520   24.7261  -27.4462 H   0  0  0  0  0  0  0  0  0  0  0  0
   -3.4718   24.2691  -26.0167 H   0  0  0  0  0  0  0  0  0  0  0  0
   -1.4761   26.1475  -24.8704 H   0  0  0  0  0  0  0  0  0  0  0  0
   -1.9328   24.4325  -25.1476 H   0  0  0  0  0  0  0  0  0  0  0  0
   -0.2018   24.9122  -25.1476 H   0  0  0  0  0  0  0  0  0  0  0  0
    0.4326   26.6443  -26.6413 H   0  0  0  0  0  0  0  0  0  0  0  0
    0.4090   25.5431  -28.0603 H   0  0  0  0  0  0  0  0  0  0  0  0
   -0.5992   27.0297  -28.0603 H   0  0  0  0  0  0  0  0  0  0  0  0
   -3.3330   23.5860  -29.6790 H   0  0  0  0  0  0  0  0  0  0  0  0
   -5.4230   26.0800  -28.6100 H   0  0  0  0  0  0  0  0  0  0  0  0
   -6.7880   26.3560  -29.7550 H   0  0  0  0  0  0  0  0  0  0  0  0
   -8.0267   24.4642  -31.2596 H   0  0  0  0  0  0  0  0  0  0  0  0
   -9.8227   22.4849  -32.0271 H   0  0  0  0  0  0  0  0  0  0  0  0
  -10.0861   20.0428  -32.4345 H   0  0  0  0  0  0  0  0  0  0  0  0
   -5.9696   19.4972  -31.3513 H   0  0  0  0  0  0  0  0  0  0  0  0
  1  2  1  0
  2  3  1  0
  3  4  1  0
  4  5  2  0
  4  6  1  0
  6  7  1  0
  7  8  1  0
  8  9  2  0
  8 10  1  0
 10 11  1  0
 10 12  1  0
  2 13  1  0
 13 14  1  0
 14 15  2  0
 14 16  1  0
 16 17  1  0
 17 18  1  0
 18 19  1  0
 18 20  2  0
 17 21  2  0
 21 22  1  0
 22 23  2  0
 23 24  1  0
 24 25  2  0
 25 26  1  0
 26 27  1  0
 26 28  1  0
 26 29  1  0
 25 30  1  0
 30 31  2  0
 31 16  1  0
 31 22  1  0
  1 32  1  0
  1 33  1  0
  1 34  1  0
  2 35  1  6
  3 36  1  0
  3 37  1  0
  7 38  1  0
  7 39  1  0
 11 40  1  0
 11 41  1  0
 11 42  1  0
 12 43  1  0
 12 44  1  0
 12 45  1  0
 13 46  1  0
 19 47  1  0
 19 48  1  0
 21 49  1  0
 23 50  1  0
 24 51  1  0
 30 52  1  0
M  END
>  <smiles>  (67) 
C[C@@H](CC(=O)OCC(=O)N(C)C)NC(=O)n1c(C(N)=O)cc2ccc(C(F)(F)F)cc21

>  <score_type>  (67) 
oracle

>  <origin>  (67) 
adg

>  <m_score__min__energy>  (67) 
-8.7100000000000009

>  <m_primary>  (67) 
energy

$$$$
69:0
     RDKit          3D

 50 51  0  0  0  0  0  0  0  0999 V2000
   -0.8950   26.2990  -27.4300 C   0  0  0  0  0  0  0  0  0  0  0  0
   -1.6580   25.0860  -27.6250 N   0  0  0  0  0  0  0  0  0  0  0  0
   -2.9570   24.9280  -27.0000 C   0  0  0  0  0  0  0  0  0  0  0  0
   -1.0890   24.0740  -28.4440 C   0  0  0  0  0  0  0  0  0  0  0  0
    0.0420   24.2860  -28.9520 O   0  0  0  0  0  0  0  0  0  0  0  0
   -1.8630   22.8250  -28.6530 C   0  0  0  0  0  0  0  0  0  0  0  0
   -2.2780   22.6540  -30.0130 N   0  0  0  0  0  0  0  0  0  0  0  0
   -1.6080   21.5740  -30.7540 C   0  0  0  0  0  0  0  0  0  0  0  0
   -3.2700   23.4400  -30.6870 C   0  0  0  0  0  0  0  0  0  0  0  0
   -3.1890   24.6930  -30.4140 O   0  0  0  0  0  0  0  0  0  0  0  0
   -4.2590   22.8930  -31.5800 C   0  0  0  0  0  0  0  0  0  0  0  0
   -3.7960   22.4240  -32.6790 O   0  0  0  0  0  0  0  0  0  0  0  0
   -5.6530   22.8120  -31.4140 N   0  0  0  0  0  0  0  0  0  0  0  0
   -6.5680   23.6990  -31.0080 C   0  0  0  0  0  0  0  0  0  0  0  0
   -6.4280   24.9430  -30.2660 C   0  0  0  0  0  0  0  0  0  0  0  0
   -5.2580   25.7670  -30.4950 N   0  0  0  0  0  0  0  0  0  0  0  0
   -7.2320   25.3960  -29.4240 O   0  0  0  0  0  0  0  0  0  0  0  0
   -7.8640   23.1900  -31.2280 C   0  0  0  0  0  0  0  0  0  0  0  0
   -7.7090   21.9550  -31.7790 C   0  0  0  0  0  0  0  0  0  0  0  0
   -8.6720   21.0480  -32.1770 C   0  0  0  0  0  0  0  0  0  0  0  0
   -8.2930   19.8440  -32.7160 C   0  0  0  0  0  0  0  0  0  0  0  0
   -6.9570   19.5890  -32.8400 C   0  0  0  0  0  0  0  0  0  0  0  0
   -6.5640   18.3420  -33.3980 N   0  0  0  0  0  0  0  0  0  0  0  0
   -5.7880   18.3360  -34.6190 C   0  0  0  0  0  0  0  0  0  0  0  0
   -6.9160   17.0720  -32.7840 C   0  0  0  0  0  0  0  0  0  0  0  0
   -5.9920   20.5110  -32.4350 C   0  0  0  0  0  0  0  0  0  0  0  0
   -6.3610   21.7330  -31.8870 C   0  0  0  0  0  0  0  0  0  0  0  0
   -0.7760   26.4882  -26.3529 H   0  0  0  0  0  0  0  0  0  0  0  0
    0.0959   26.1875  -27.8944 H   0  0  0  0  0  0  0  0  0  0  0  0
   -1.4246   27.1439  -27.8944 H   0  0  0  0  0  0  0  0  0  0  0  0
   -2.8417   24.9420  -25.9061 H   0  0  0  0  0  0  0  0  0  0  0  0
   -3.6157   25.7526  -27.3099 H   0  0  0  0  0  0  0  0  0  0  0  0
   -3.3989   23.9695  -27.3099 H   0  0  0  0  0  0  0  0  0  0  0  0
   -1.2343   21.9691  -28.3665 H   0  0  0  0  0  0  0  0  0  0  0  0
   -2.7700   22.8882  -28.0339 H   0  0  0  0  0  0  0  0  0  0  0  0
   -1.1656   20.8610  -30.0427 H   0  0  0  0  0  0  0  0  0  0  0  0
   -2.3419   21.0533  -31.3866 H   0  0  0  0  0  0  0  0  0  0  0  0
   -0.8155   22.0002  -31.3866 H   0  0  0  0  0  0  0  0  0  0  0  0
   -5.0170   25.9080  -31.4950 H   0  0  0  0  0  0  0  0  0  0  0  0
   -4.7300   26.1670  -29.6890 H   0  0  0  0  0  0  0  0  0  0  0  0
   -8.8152   23.6928  -30.9990 H   0  0  0  0  0  0  0  0  0  0  0  0
   -9.7389   21.2899  -32.0623 H   0  0  0  0  0  0  0  0  0  0  0  0
   -9.0428   19.1065  -33.0384 H   0  0  0  0  0  0  0  0  0  0  0  0
   -4.7161   18.3277  -34.3722 H   0  0  0  0  0  0  0  0  0  0  0  0
   -6.0359   17.4397  -35.2066 H   0  0  0  0  0  0  0  0  0  0  0  0
   -6.0220   19.2360  -35.2066 H   0  0  0  0  0  0  0  0  0  0  0  0
   -6.8878   17.1738  -31.6891 H   0  0  0  0  0  0  0  0  0  0  0  0
   -7.9288   16.7806  -33.0992 H   0  0  0  0  0  0  0  0  0  0  0  0
   -6.1977   16.3008  -33.0992 H   0  0  0  0  0  0  0  0  0  0  0  0
   -4.9256   20.2675  -32.5510 H   0  0  0  0  0  0  0  0  0  0  0  0
  1  2  1  0
  2  3  1  0
  2  4  1  0
  4  5  2  0
  4  6  1  0
  6  7  1  0
  7  8  1  0
  7  9  1  0
  9 10  2  0
  9 11  1  0
 11 12  2  0
 11 13  1  0
 13 14  1  0
 14 15  1  0
 15 16  1  0
 15 17  2  0
 14 18  2  0
 18 19  1  0
 19 20  2  0
 20 21  1  0
 21 22  2  0
 22 23  1  0
 23 24  1  0
 23 25  1  0
 22 26  1  0
 26 27  2  0
 27 13  1  0
 27 19  1  0
  1 28  1  0
  1 29  1  0
  1 30  1  0
  3 31  1  0
  3 32  1  0
  3 33  1  0
  6 34  1  0
  6 35  1  0
  8 36  1  0
  8 37  1  0
  8 38  1  0
 16 39  1  0
 16 40  1  0
 18 41  1  0
 20 42  1  0
 21 43  1  0
 24 44  1  0
 24 45  1  0
 24 46  1  0
 25 47  1  0
 25 48  1  0
 25 49  1  0
 26 50  1  0
M  END
>  <smiles>  (68) 
CN(C)C(=O)CN(C)C(=O)C(=O)n1c(C(N)=O)cc2ccc(N(C)C)cc21

>  <score_type>  (68) 
oracle

>  <origin>  (68) 
adg

>  <m_score__min__energy>  (68) 
-9.0399999999999991

>  <m_primary>  (68) 
energy

$$$$
70:0
     RDKit          3D

 59 61  0  0  1  0  0  0  0  0999 V2000
   -0.2720   20.7030  -30.4590 C   0  0  0  0  0  0  0  0  0  0  0  0
   -1.5240   21.3900  -29.9550 C   0  0  1  0  0  0  0  0  0  0  0  0
   -2.6980   20.8610  -30.6490 N   0  0  0  0  0  0  0  0  0  0  0  0
   -2.7500   21.1010  -32.0730 C   0  0  0  0  0  0  0  0  0  0  0  0
   -1.7690   21.7370  -32.5160 O   0  0  0  0  0  0  0  0  0  0  0  0
   -3.8750   20.6070  -32.8190 C   0  0  0  0  0  0  0  0  0  0  0  0
   -3.5720   19.8590  -33.8230 O   0  0  0  0  0  0  0  0  0  0  0  0
   -5.2500   20.8180  -32.5960 N   0  0  0  0  0  0  0  0  0  0  0  0
   -6.3400   20.2240  -33.0670 C   0  0  0  0  0  0  0  0  0  0  0  0
   -6.5180   18.9240  -33.7180 C   0  0  0  0  0  0  0  0  0  0  0  0
   -5.9610   18.5510  -34.9530 N   0  0  0  0  0  0  0  0  0  0  0  0
   -7.2220   18.0450  -33.1310 O   0  0  0  0  0  0  0  0  0  0  0  0
   -7.4940   20.9440  -32.6990 C   0  0  0  0  0  0  0  0  0  0  0  0
   -7.0620   22.0060  -31.9730 C   0  0  0  0  0  0  0  0  0  0  0  0
   -7.7990   23.0180  -31.3780 C   0  0  0  0  0  0  0  0  0  0  0  0
   -7.1590   24.0060  -30.6830 C   0  0  0  0  0  0  0  0  0  0  0  0
   -5.7950   23.9590  -30.5990 C   0  0  0  0  0  0  0  0  0  0  0  0
   -5.0830   25.0390  -29.8380 C   0  0  0  0  0  0  0  0  0  0  0  0
   -5.8720   26.1620  -29.7810 F   0  0  0  0  0  0  0  0  0  0  0  0
   -3.8840   25.2890  -30.4990 F   0  0  0  0  0  0  0  0  0  0  0  0
   -5.0590   22.9320  -31.2040 C   0  0  0  0  0  0  0  0  0  0  0  0
   -5.6990   21.9210  -31.9140 C   0  0  0  0  0  0  0  0  0  0  0  0
   -1.6570   21.2060  -28.4680 C   0  0  0  0  0  0  0  0  0  0  0  0
   -0.6570   22.2550  -27.9710 C   0  0  0  0  0  0  0  0  0  0  0  0
   -0.9770   23.3780  -28.8320 N   0  0  0  0  0  0  0  0  0  0  0  0
   -0.8930   24.7600  -28.4970 C   0  0  0  0  0  0  0  0  0  0  0  0
   -1.2390   25.6800  -29.2870 O   0  0  0  0  0  0  0  0  0  0  0  0
   -0.4190   25.1340  -27.2610 O   0  0  0  0  0  0  0  0  0  0  0  0
   -1.1690   25.3730  -26.1100 C   0  0  0  0  0  0  0  0  0  0  0  0
   -0.8090   24.4900  -24.9370 C   0  0  0  0  0  0  0  0  0  0  0  0
   -1.1910   26.8060  -25.6570 C   0  0  0  0  0  0  0  0  0  0  0  0
   -2.6180   25.0160  -26.4690 C   0  0  0  0  0  0  0  0  0  0  0  0
   -1.4110   22.8800  -30.1330 C   0  0  0  0  0  0  0  0  0  0  0  0
    0.3337   20.3706  -29.6030 H   0  0  0  0  0  0  0  0  0  0  0  0
   -0.5522   19.8323  -31.0700 H   0  0  0  0  0  0  0  0  0  0  0  0
    0.3119   21.4071  -31.0700 H   0  0  0  0  0  0  0  0  0  0  0  0
   -3.4370   20.3480  -30.1400 H   0  0  0  0  0  0  0  0  0  0  0  0
   -6.4290   17.9930  -35.6850 H   0  0  0  0  0  0  0  0  0  0  0  0
   -4.9800   18.8650  -35.1540 H   0  0  0  0  0  0  0  0  0  0  0  0
   -8.5357   20.6952  -32.9498 H   0  0  0  0  0  0  0  0  0  0  0  0
   -8.8955   23.0261  -31.4648 H   0  0  0  0  0  0  0  0  0  0  0  0
   -7.7264   24.8175  -30.2039 H   0  0  0  0  0  0  0  0  0  0  0  0
   -4.8766   24.7332  -28.8017 H   0  0  0  0  0  0  0  0  0  0  0  0
   -3.9625   22.9248  -31.1167 H   0  0  0  0  0  0  0  0  0  0  0  0
   -1.3702   20.1908  -28.1564 H   0  0  0  0  0  0  0  0  0  0  0  0
   -2.6792   21.3243  -28.0793 H   0  0  0  0  0  0  0  0  0  0  0  0
    0.3815   21.9212  -28.1128 H   0  0  0  0  0  0  0  0  0  0  0  0
   -0.7298   22.4749  -26.8957 H   0  0  0  0  0  0  0  0  0  0  0  0
   -1.0255   25.0210  -23.9983 H   0  0  0  0  0  0  0  0  0  0  0  0
   -1.4015   23.5642  -24.9796 H   0  0  0  0  0  0  0  0  0  0  0  0
    0.2619   24.2423  -24.9796 H   0  0  0  0  0  0  0  0  0  0  0  0
   -1.1916   26.8430  -24.5576 H   0  0  0  0  0  0  0  0  0  0  0  0
   -0.3007   27.3256  -26.0409 H   0  0  0  0  0  0  0  0  0  0  0  0
   -2.0968   27.2981  -26.0409 H   0  0  0  0  0  0  0  0  0  0  0  0
   -3.1997   24.8727  -25.5464 H   0  0  0  0  0  0  0  0  0  0  0  0
   -3.0612   25.8318  -27.0589 H   0  0  0  0  0  0  0  0  0  0  0  0
   -2.6315   24.0877  -27.0589 H   0  0  0  0  0  0  0  0  0  0  0  0
   -0.6692   23.1227  -30.9081 H   0  0  0  0  0  0  0  0  0  0  0  0
   -2.3599   23.3331  -30.4560 H   0  0  0  0  0  0  0  0  0  0  0  0
  1  2  1  0
  2  3  1  6
  3  4  1  0
  4  5  2  0
  4  6  1  0
  6  7  2  0
  6  8  1  0
  8  9  1  0
  9 10  1  0
 10 11  1  0
 10 12  2  0
  9 13  2  0
 13 14  1  0
 14 15  2  0
 15 16  1  0
 16 17  2  0
 17 18  1  0
 18 19  1  0
 18 20  1  0
 17 21  1  0
 21 22  2  0
  2 23  1  0
 23 24  1  0
 24 25  1  0
 25 26  1  0
 26 27  2  0
 26 28  1  0
 28 29  1  0
 29 30  1  0
 29 31  1  0
 29 32  1  0
 25 33  1  0
 33  2  1  0
 22  8  1  0
 22 14  1  0
  1 34  1  0
  1 35  1  0
  1 36  1  0
  3 37  1  0
 11 38  1  0
 11 39  1  0
 13 40  1  0
 15 41  1  0
 16 42  1  0
 18 43  1  0
 21 44  1  0
 23 45  1  0
 23 46  1  0
 24 47  1  0
 24 48  1  0
 30 49  1  0
 30 50  1  0
 30 51  1  0
 31 52  1  0
 31 53  1  0
 31 54  1  0
 32 55  1  0
 32 56  1  0
 32 57  1  0
 33 58  1  0
 33 59  1  0
M  END
>  <smiles>  (69) 
CC1(NC(=O)C(=O)n2c(C(N)=O)cc3ccc(C(F)F)cc32)CCN(C(=O)OC(C)(C)C)C1

>  <score_type>  (69) 
oracle

>  <origin>  (69) 
adg

>  <m_score__min__energy>  (69) 
-9.9000000000000004

>  <m_primary>  (69) 
energy

$$$$
71:0
     RDKit          3D

 49 50  0  0  0  0  0  0  0  0999 V2000
   -9.8210   21.8650  -31.1840 C   0  0  0  0  0  0  0  0  0  0  0  0
   -8.6190   21.1740  -31.7220 C   0  0  0  0  0  0  0  0  0  0  0  0
   -8.7880   19.9370  -32.3020 C   0  0  0  0  0  0  0  0  0  0  0  0
   -7.6770   19.2970  -32.8010 C   0  0  0  0  0  0  0  0  0  0  0  0
   -6.4390   19.8960  -32.7110 C   0  0  0  0  0  0  0  0  0  0  0  0
   -5.2240   19.4430  -33.1340 C   0  0  0  0  0  0  0  0  0  0  0  0
   -4.3180   20.4290  -32.7990 C   0  0  0  0  0  0  0  0  0  0  0  0
   -2.9120   20.2960  -33.2550 C   0  0  0  0  0  0  0  0  0  0  0  0
   -2.1860   21.3780  -33.8180 N   0  0  0  0  0  0  0  0  0  0  0  0
   -2.3370   19.2050  -33.1540 O   0  0  0  0  0  0  0  0  0  0  0  0
   -4.8930   21.4680  -32.1870 N   0  0  0  0  0  0  0  0  0  0  0  0
   -4.4440   22.5690  -31.4870 C   0  0  0  0  0  0  0  0  0  0  0  0
   -4.9400   23.7170  -31.9010 O   0  0  0  0  0  0  0  0  0  0  0  0
   -3.5640   22.7920  -30.4010 N   0  0  0  0  0  0  0  0  0  0  0  0
   -2.5970   21.6700  -30.2260 C   0  0  0  0  0  0  0  0  0  0  0  0
   -1.1910   22.1370  -30.5160 C   0  0  0  0  0  0  0  0  0  0  0  0
   -0.4290   21.1400  -31.3300 C   0  0  0  0  0  0  0  0  0  0  0  0
    0.2630   21.4890  -32.3020 O   0  0  0  0  0  0  0  0  0  0  0  0
   -0.5010   19.8180  -30.9910 O   0  0  0  0  0  0  0  0  0  0  0  0
   -3.4640   23.9390  -29.6110 C   0  0  0  0  0  0  0  0  0  0  0  0
   -3.5170   25.0580  -30.2740 O   0  0  0  0  0  0  0  0  0  0  0  0
   -3.3170   24.1020  -28.2280 N   0  0  0  0  0  0  0  0  0  0  0  0
   -4.3140   24.3220  -27.2220 C   0  0  0  0  0  0  0  0  0  0  0  0
   -1.9170   24.0450  -27.7220 C   0  0  0  0  0  0  0  0  0  0  0  0
   -1.0260   24.8690  -28.5250 C   0  0  0  0  0  0  0  0  0  0  0  0
    0.1180   24.5140  -28.8870 O   0  0  0  0  0  0  0  0  0  0  0  0
   -1.4540   26.1260  -28.9240 O   0  0  0  0  0  0  0  0  0  0  0  0
   -6.2350   21.1160  -32.1440 C   0  0  0  0  0  0  0  0  0  0  0  0
   -7.3540   21.7660  -31.6400 C   0  0  0  0  0  0  0  0  0  0  0  0
   -9.7921   21.8484  -30.0845 H   0  0  0  0  0  0  0  0  0  0  0  0
   -9.8324   22.9075  -31.5348 H   0  0  0  0  0  0  0  0  0  0  0  0
  -10.7276   21.3502  -31.5348 H   0  0  0  0  0  0  0  0  0  0  0  0
   -9.7835   19.4732  -32.3647 H   0  0  0  0  0  0  0  0  0  0  0  0
   -7.7768   18.3077  -33.2715 H   0  0  0  0  0  0  0  0  0  0  0  0
   -5.0103   18.4889  -33.6380 H   0  0  0  0  0  0  0  0  0  0  0  0
   -2.7460   22.1510  -34.2760 H   0  0  0  0  0  0  0  0  0  0  0  0
   -1.1450   21.3990  -33.7750 H   0  0  0  0  0  0  0  0  0  0  0  0
   -2.6508   21.3034  -29.1903 H   0  0  0  0  0  0  0  0  0  0  0  0
   -2.8565   20.8627  -30.9267 H   0  0  0  0  0  0  0  0  0  0  0  0
   -1.2386   23.0863  -31.0698 H   0  0  0  0  0  0  0  0  0  0  0  0
   -0.6690   22.2637  -29.5561 H   0  0  0  0  0  0  0  0  0  0  0  0
   -0.9580   19.1260  -31.5470 H   0  0  0  0  0  0  0  0  0  0  0  0
   -3.8582   24.2214  -26.2259 H   0  0  0  0  0  0  0  0  0  0  0  0
   -4.7309   25.3337  -27.3340 H   0  0  0  0  0  0  0  0  0  0  0  0
   -5.1180   23.5797  -27.3340 H   0  0  0  0  0  0  0  0  0  0  0  0
   -1.8975   24.4053  -26.6829 H   0  0  0  0  0  0  0  0  0  0  0  0
   -1.5706   23.0027  -27.7815 H   0  0  0  0  0  0  0  0  0  0  0  0
   -2.4130   26.4170  -28.9750 H   0  0  0  0  0  0  0  0  0  0  0  0
   -7.2447   22.7555  -31.1720 H   0  0  0  0  0  0  0  0  0  0  0  0
  1  2  1  0
  2  3  2  0
  3  4  1  0
  4  5  2  0
  5  6  1  0
  6  7  2  0
  7  8  1  0
  8  9  1  0
  8 10  2  0
  7 11  1  0
 11 12  1  0
 12 13  2  0
 12 14  1  0
 14 15  1  0
 15 16  1  0
 16 17  1  0
 17 18  2  0
 17 19  1  0
 14 20  1  0
 20 21  2  0
 20 22  1  0
 22 23  1  0
 22 24  1  0
 24 25  1  0
 25 26  2  0
 25 27  1  0
 11 28  1  0
 28 29  2  0
 29  2  1  0
 28  5  1  0
  1 30  1  0
  1 31  1  0
  1 32  1  0
  3 33  1  0
  4 34  1  0
  6 35  1  0
  9 36  1  0
  9 37  1  0
 15 38  1  0
 15 39  1  0
 16 40  1  0
 16 41  1  0
 19 42  1  0
 23 43  1  0
 23 44  1  0
 23 45  1  0
 24 46  1  0
 24 47  1  0
 27 48  1  0
 29 49  1  0
M  END
>  <smiles>  (70) 
Cc1ccc2cc(C(N)=O)n(C(=O)N(CCC(=O)O)C(=O)N(C)CC(=O)O)c2c1

>  <score_type>  (70) 
oracle

>  <origin>  (70) 
adg

>  <m_score__min__energy>  (70) 
-9.4600000000000009

>  <m_primary>  (70) 
energy

$$$$
72:0
     RDKit          3D

 44 45  0  0  1  0  0  0  0  0999 V2000
   -5.3200   18.1150  -34.6350 C   0  0  0  0  0  0  0  0  0  0  0  0
   -5.7260   19.0280  -33.9490 C   0  0  0  0  0  0  0  0  0  0  0  0
   -6.2000   20.1000  -33.1190 C   0  0  0  0  0  0  0  0  0  0  0  0
   -7.5570   20.2400  -32.9460 C   0  0  0  0  0  0  0  0  0  0  0  0
   -7.9790   21.2770  -32.1450 C   0  0  0  0  0  0  0  0  0  0  0  0
   -7.0700   22.1280  -31.5540 C   0  0  0  0  0  0  0  0  0  0  0  0
   -7.2750   23.1730  -30.7160 C   0  0  0  0  0  0  0  0  0  0  0  0
   -6.0230   23.7100  -30.3560 C   0  0  0  0  0  0  0  0  0  0  0  0
   -5.9630   24.8580  -29.4790 C   0  0  0  0  0  0  0  0  0  0  0  0
   -4.9910   24.8940  -28.3840 N   0  0  0  0  0  0  0  0  0  0  0  0
   -6.6650   25.8920  -29.5220 O   0  0  0  0  0  0  0  0  0  0  0  0
   -5.0510   22.9750  -30.9870 N   0  0  0  0  0  0  0  0  0  0  0  0
   -3.6950   23.1820  -30.7570 C   0  0  0  0  0  0  0  0  0  0  0  0
   -3.4120   24.4650  -30.6290 O   0  0  0  0  0  0  0  0  0  0  0  0
   -2.5590   22.4000  -30.6340 N   0  0  0  0  0  0  0  0  0  0  0  0
   -1.7360   21.7250  -31.5920 C   0  0  0  0  0  0  0  0  0  0  0  0
   -2.0750   22.2030  -29.2180 C   0  0  0  0  0  0  0  0  0  0  0  0
   -3.1130   22.6210  -28.2760 C   0  0  0  0  0  0  0  0  0  0  0  0
   -4.2470   22.0750  -28.3580 O   0  0  0  0  0  0  0  0  0  0  0  0
   -2.8050   23.5950  -27.3400 O   0  0  0  0  0  0  0  0  0  0  0  0
   -1.4840   24.0320  -27.0830 C   0  0  2  0  0  0  0  0  0  0  0  0
   -1.4740   24.6320  -25.6940 C   0  0  0  0  0  0  0  0  0  0  0  0
   -1.0880   25.1090  -28.0420 C   0  0  0  0  0  0  0  0  0  0  0  0
    0.1100   25.5260  -28.0480 O   0  0  0  0  0  0  0  0  0  0  0  0
   -1.9830   25.6790  -28.9360 O   0  0  0  0  0  0  0  0  0  0  0  0
   -5.7020   22.0160  -31.7090 C   0  0  0  0  0  0  0  0  0  0  0  0
   -5.3020   20.9690  -32.5140 C   0  0  0  0  0  0  0  0  0  0  0  0
   -4.9515   17.2864  -35.2576 H   0  0  0  0  0  0  0  0  0  0  0  0
   -8.2720   19.5552  -33.4254 H   0  0  0  0  0  0  0  0  0  0  0  0
   -9.0551   21.4284  -31.9745 H   0  0  0  0  0  0  0  0  0  0  0  0
   -8.2540   23.5402  -30.3743 H   0  0  0  0  0  0  0  0  0  0  0  0
   -3.9620   24.8430  -28.6210 H   0  0  0  0  0  0  0  0  0  0  0  0
   -5.3350   24.9680  -27.4000 H   0  0  0  0  0  0  0  0  0  0  0  0
   -0.9888   21.1122  -31.0664 H   0  0  0  0  0  0  0  0  0  0  0  0
   -2.3631   21.0777  -32.2227 H   0  0  0  0  0  0  0  0  0  0  0  0
   -1.2239   22.4666  -32.2227 H   0  0  0  0  0  0  0  0  0  0  0  0
   -1.8420   21.1402  -29.0564 H   0  0  0  0  0  0  0  0  0  0  0  0
   -1.1720   22.8097  -29.0555 H   0  0  0  0  0  0  0  0  0  0  0  0
   -0.7895   23.1848  -27.1827 H   0  0  0  0  0  0  0  0  0  0  0  0
   -1.4874   23.8255  -24.9461 H   0  0  0  0  0  0  0  0  0  0  0  0
   -0.5656   25.2384  -25.5631 H   0  0  0  0  0  0  0  0  0  0  0  0
   -2.3617   25.2683  -25.5631 H   0  0  0  0  0  0  0  0  0  0  0  0
   -1.6150   26.0400  -29.8080 H   0  0  0  0  0  0  0  0  0  0  0  0
   -4.2259   20.8164  -32.6836 H   0  0  0  0  0  0  0  0  0  0  0  0
  1  2  3  0
  2  3  1  0
  3  4  2  0
  4  5  1  0
  5  6  2  0
  6  7  1  0
  7  8  2  0
  8  9  1  0
  9 10  1  0
  9 11  2  0
  8 12  1  0
 12 13  1  0
 13 14  2  0
 13 15  1  0
 15 16  1  0
 15 17  1  0
 17 18  1  0
 18 19  2  0
 18 20  1  0
 20 21  1  0
 21 22  1  0
 21 23  1  0
 23 24  2  0
 23 25  1  0
 12 26  1  0
 26 27  2  0
 27  3  1  0
 26  6  1  0
  1 28  1  0
  4 29  1  0
  5 30  1  0
  7 31  1  0
 10 32  1  0
 10 33  1  0
 16 34  1  0
 16 35  1  0
 16 36  1  0
 17 37  1  0
 17 38  1  0
 21 39  1  1
 22 40  1  0
 22 41  1  0
 22 42  1  0
 25 43  1  0
 27 44  1  0
M  END
>  <smiles>  (71) 
C#Cc1ccc2cc(C(N)=O)n(C(=O)N(C)CC(=O)OC(C)C(=O)O)c2c1

>  <score_type>  (71) 
oracle

>  <origin>  (71) 
adg

>  <m_score__min__energy>  (71) 
-9.8699999999999992

>  <m_primary>  (71) 
energy

$$$$
73:0
     RDKit          3D

 43 44  0  0  1  0  0  0  0  0999 V2000
   -8.6500   19.1570  -31.2050 C   0  0  0  0  0  0  0  0  0  0  0  0
   -8.8920   20.2440  -32.2150 C   0  0  2  0  0  0  0  0  0  0  0  0
   -8.1700   20.0680  -33.4330 N   0  0  0  0  0  0  0  0  0  0  0  0
   -6.7450   19.8790  -33.4950 C   0  0  0  0  0  0  0  0  0  0  0  0
   -6.2030   18.7820  -34.1270 C   0  0  0  0  0  0  0  0  0  0  0  0
   -4.8270   18.6190  -34.1760 C   0  0  0  0  0  0  0  0  0  0  0  0
   -4.0150   19.5550  -33.5940 C   0  0  0  0  0  0  0  0  0  0  0  0
   -2.6550   19.6450  -33.4950 C   0  0  0  0  0  0  0  0  0  0  0  0
   -2.3060   20.8080  -32.7940 C   0  0  0  0  0  0  0  0  0  0  0  0
   -0.9320   21.1840  -32.5250 C   0  0  0  0  0  0  0  0  0  0  0  0
   -0.5130   21.3050  -31.1430 N   0  0  0  0  0  0  0  0  0  0  0  0
   -0.0500   21.4200  -33.3600 O   0  0  0  0  0  0  0  0  0  0  0  0
   -3.4640   21.4090  -32.4780 N   0  0  0  0  0  0  0  0  0  0  0  0
   -3.6170   22.6230  -31.7650 C   0  0  0  0  0  0  0  0  0  0  0  0
   -2.6950   23.2260  -31.1640 O   0  0  0  0  0  0  0  0  0  0  0  0
   -4.8700   23.2400  -31.6900 O   0  0  0  0  0  0  0  0  0  0  0  0
   -5.6950   23.1550  -30.5620 C   0  0  0  0  0  0  0  0  0  0  0  0
   -5.3830   24.1050  -29.4580 C   0  0  0  0  0  0  0  0  0  0  0  0
   -5.0960   25.4370  -30.1030 C   0  0  0  0  0  0  0  0  0  0  0  0
   -5.9900   26.3220  -30.0340 O   0  0  0  0  0  0  0  0  0  0  0  0
   -3.8830   25.6510  -30.7440 O   0  0  0  0  0  0  0  0  0  0  0  0
   -4.5110   20.6710  -32.9510 C   0  0  0  0  0  0  0  0  0  0  0  0
   -5.8830   20.8010  -32.9190 C   0  0  0  0  0  0  0  0  0  0  0  0
   -8.6130   21.5680  -31.5880 C   0  0  0  0  0  0  0  0  0  0  0  0
   -8.9640   21.7380  -30.3860 O   0  0  0  0  0  0  0  0  0  0  0  0
   -8.0040   22.6150  -32.2250 O   0  0  0  0  0  0  0  0  0  0  0  0
   -8.7424   19.5720  -30.1905 H   0  0  0  0  0  0  0  0  0  0  0  0
   -9.3920   18.3567  -31.3428 H   0  0  0  0  0  0  0  0  0  0  0  0
   -7.6386   18.7470  -31.3428 H   0  0  0  0  0  0  0  0  0  0  0  0
   -9.9503   20.1926  -32.5106 H   0  0  0  0  0  0  0  0  0  0  0  0
   -8.6830   20.0700  -34.3570 H   0  0  0  0  0  0  0  0  0  0  0  0
   -6.8621   18.0348  -34.5931 H   0  0  0  0  0  0  0  0  0  0  0  0
   -4.3907   17.7435  -34.6791 H   0  0  0  0  0  0  0  0  0  0  0  0
   -1.9413   18.9147  -33.9039 H   0  0  0  0  0  0  0  0  0  0  0  0
   -0.9510   22.0980  -30.5980 H   0  0  0  0  0  0  0  0  0  0  0  0
    0.1770   20.6430  -30.7250 H   0  0  0  0  0  0  0  0  0  0  0  0
   -6.7296   23.3417  -30.8857 H   0  0  0  0  0  0  0  0  0  0  0  0
   -5.5308   22.1498  -30.1467 H   0  0  0  0  0  0  0  0  0  0  0  0
   -6.2425   24.1906  -28.7769 H   0  0  0  0  0  0  0  0  0  0  0  0
   -4.5228   23.7572  -28.8671 H   0  0  0  0  0  0  0  0  0  0  0  0
   -3.4850   24.9230  -31.3480 H   0  0  0  0  0  0  0  0  0  0  0  0
   -6.3147   21.6771  -32.4129 H   0  0  0  0  0  0  0  0  0  0  0  0
   -7.0010   22.7500  -32.2690 H   0  0  0  0  0  0  0  0  0  0  0  0
  1  2  1  0
  2  3  1  0
  3  4  1  0
  4  5  2  0
  5  6  1  0
  6  7  2  0
  7  8  1  0
  8  9  2  0
  9 10  1  0
 10 11  1  0
 10 12  2  0
  9 13  1  0
 13 14  1  0
 14 15  2  0
 14 16  1  0
 16 17  1  0
 17 18  1  0
 18 19  1  0
 19 20  2  0
 19 21  1  0
 13 22  1  0
 22 23  2  0
  2 24  1  0
 24 25  2  0
 24 26  1  0
 23  4  1  0
 22  7  1  0
  1 27  1  0
  1 28  1  0
  1 29  1  0
  2 30  1  6
  3 31  1  0
  5 32  1  0
  6 33  1  0
  8 34  1  0
 11 35  1  0
 11 36  1  0
 17 37  1  0
 17 38  1  0
 18 39  1  0
 18 40  1  0
 21 41  1  0
 23 42  1  0
 26 43  1  0
M  END
>  <smiles>  (72) 
CC(Nc1ccc2cc(C(N)=O)n(C(=O)OCCC(=O)O)c2c1)C(=O)O

>  <score_type>  (72) 
oracle

>  <origin>  (72) 
adg

>  <m_score__min__energy>  (72) 
-9.4499999999999993

>  <m_primary>  (72) 
energy

$$$$
74:0
     RDKit          3D

 51 53  0  0  1  0  0  0  0  0999 V2000
    1.6620   21.0230  -36.0750 C   0  0  0  0  0  0  0  0  0  0  0  0
    1.0020   20.4550  -34.9070 N   0  0  0  0  0  0  0  0  0  0  0  0
    1.5060   19.1820  -34.4360 C   0  0  0  0  0  0  0  0  0  0  0  0
   -0.0720   21.1560  -34.3320 C   0  0  0  0  0  0  0  0  0  0  0  0
   -0.4080   22.2480  -34.8960 O   0  0  0  0  0  0  0  0  0  0  0  0
   -0.8390   20.7520  -33.1510 C   0  0  2  0  0  0  0  0  0  0  0  0
   -2.2760   21.0830  -33.3790 N   0  0  0  0  0  0  0  0  0  0  0  0
   -3.2970   20.3570  -32.7680 C   0  0  0  0  0  0  0  0  0  0  0  0
   -2.8720   19.4100  -32.0130 O   0  0  0  0  0  0  0  0  0  0  0  0
   -4.6890   20.5040  -32.8530 N   0  0  0  0  0  0  0  0  0  0  0  0
   -5.4820   19.6600  -33.5590 C   0  0  0  0  0  0  0  0  0  0  0  0
   -5.2200   18.4530  -34.3070 C   0  0  0  0  0  0  0  0  0  0  0  0
   -4.2870   17.4620  -33.7710 N   0  0  0  0  0  0  0  0  0  0  0  0
   -5.6970   18.1050  -35.4050 O   0  0  0  0  0  0  0  0  0  0  0  0
   -6.8000   20.1420  -33.4430 C   0  0  0  0  0  0  0  0  0  0  0  0
   -6.8020   21.2610  -32.6780 C   0  0  0  0  0  0  0  0  0  0  0  0
   -7.8320   22.0810  -32.2880 C   0  0  0  0  0  0  0  0  0  0  0  0
   -7.5890   23.1840  -31.5010 C   0  0  0  0  0  0  0  0  0  0  0  0
   -6.2950   23.4230  -31.1290 C   0  0  0  0  0  0  0  0  0  0  0  0
   -5.9890   24.6120  -30.2720 C   0  0  0  0  0  0  0  0  0  0  0  0
   -4.4880   24.5810  -30.0080 C   0  0  0  0  0  0  0  0  0  0  0  0
   -3.8630   25.5800  -30.7610 O   0  0  0  0  0  0  0  0  0  0  0  0
   -5.2690   22.5850  -31.5300 C   0  0  0  0  0  0  0  0  0  0  0  0
   -5.4730   21.4690  -32.3200 C   0  0  0  0  0  0  0  0  0  0  0  0
   -0.5020   21.5270  -31.8960 C   0  0  0  0  0  0  0  0  0  0  0  0
   -0.4070   20.5740  -30.6730 C   0  0  0  0  0  0  0  0  0  0  0  0
   -1.3920   21.6970  -30.7590 C   0  0  0  0  0  0  0  0  0  0  0  0
    2.4583   21.7083  -35.7491 H   0  0  0  0  0  0  0  0  0  0  0  0
    2.0989   20.2140  -36.6789 H   0  0  0  0  0  0  0  0  0  0  0  0
    0.9271   21.5755  -36.6789 H   0  0  0  0  0  0  0  0  0  0  0  0
    1.5094   19.1733  -33.3360 H   0  0  0  0  0  0  0  0  0  0  0  0
    0.8607   18.3722  -34.8071 H   0  0  0  0  0  0  0  0  0  0  0  0
    2.5308   19.0334  -34.8071 H   0  0  0  0  0  0  0  0  0  0  0  0
   -0.6099   19.6849  -33.0142 H   0  0  0  0  0  0  0  0  0  0  0  0
   -2.4400   21.8600  -33.9840 H   0  0  0  0  0  0  0  0  0  0  0  0
   -4.5000   16.4470  -33.8330 H   0  0  0  0  0  0  0  0  0  0  0  0
   -3.3940   17.7790  -33.3200 H   0  0  0  0  0  0  0  0  0  0  0  0
   -7.6883   19.6827  -33.9012 H   0  0  0  0  0  0  0  0  0  0  0  0
   -8.8601   21.8546  -32.6071 H   0  0  0  0  0  0  0  0  0  0  0  0
   -8.4057   23.8487  -31.1830 H   0  0  0  0  0  0  0  0  0  0  0  0
   -6.2634   25.5391  -30.7965 H   0  0  0  0  0  0  0  0  0  0  0  0
   -6.5588   24.5815  -29.3316 H   0  0  0  0  0  0  0  0  0  0  0  0
   -4.2999   24.7558  -28.9384 H   0  0  0  0  0  0  0  0  0  0  0  0
   -4.0848   23.5985  -30.2946 H   0  0  0  0  0  0  0  0  0  0  0  0
   -4.2410   25.6630  -31.6740 H   0  0  0  0  0  0  0  0  0  0  0  0
   -4.2441   22.8177  -31.2052 H   0  0  0  0  0  0  0  0  0  0  0  0
    0.0766   22.2814  -32.4493 H   0  0  0  0  0  0  0  0  0  0  0  0
   -0.7428   19.5295  -30.7516 H   0  0  0  0  0  0  0  0  0  0  0  0
    0.3781   20.2565  -29.9710 H   0  0  0  0  0  0  0  0  0  0  0  0
   -2.4622   21.4691  -30.8722 H   0  0  0  0  0  0  0  0  0  0  0  0
   -1.6277   22.5483  -30.1035 H   0  0  0  0  0  0  0  0  0  0  0  0
  1  2  1  0
  2  3  1  0
  2  4  1  0
  4  5  2  0
  4  6  1  0
  6  7  1  0
  7  8  1  0
  8  9  2  0
  8 10  1  0
 10 11  1  0
 11 12  1  0
 12 13  1  0
 12 14  2  0
 11 15  2  0
 15 16  1  0
 16 17  2  0
 17 18  1  0
 18 19  2  0
 19 20  1  0
 20 21  1  0
 21 22  1  0
 19 23  1  0
 23 24  2  0
  6 25  1  0
 25 26  1  0
 26 27  1  0
 24 10  1  0
 27 25  1  0
 24 16  1  0
  1 28  1  0
  1 29  1  0
  1 30  1  0
  3 31  1  0
  3 32  1  0
  3 33  1  0
  6 34  1  1
  7 35  1  0
 13 36  1  0
 13 37  1  0
 15 38  1  0
 17 39  1  0
 18 40  1  0
 20 41  1  0
 20 42  1  0
 21 43  1  0
 21 44  1  0
 22 45  1  0
 23 46  1  0
 25 47  1  0
 26 48  1  0
 26 49  1  0
 27 50  1  0
 27 51  1  0
M  END
>  <smiles>  (73) 
CN(C)C(=O)C(NC(=O)n1c(C(N)=O)cc2ccc(CCO)cc21)C1CC1

>  <score_type>  (73) 
oracle

>  <origin>  (73) 
adg

>  <m_score__min__energy>  (73) 
-9.1500000000000004

>  <m_primary>  (73) 
energy

$$$$
75:0
     RDKit          3D

 46 47  0  0  0  0  0  0  0  0999 V2000
   -6.4820   17.8510  -33.2760 C   0  0  0  0  0  0  0  0  0  0  0  0
   -6.6110   19.2260  -32.7300 C   0  0  0  0  0  0  0  0  0  0  0  0
   -7.8260   19.8470  -32.8440 C   0  0  0  0  0  0  0  0  0  0  0  0
   -7.9440   21.1170  -32.3400 C   0  0  0  0  0  0  0  0  0  0  0  0
   -6.8520   21.7300  -31.7380 C   0  0  0  0  0  0  0  0  0  0  0  0
   -6.7700   22.9610  -31.1850 C   0  0  0  0  0  0  0  0  0  0  0  0
   -5.4460   23.0910  -30.7160 C   0  0  0  0  0  0  0  0  0  0  0  0
   -5.0890   24.3700  -30.1180 C   0  0  0  0  0  0  0  0  0  0  0  0
   -5.0070   24.6460  -28.7460 N   0  0  0  0  0  0  0  0  0  0  0  0
   -4.8080   25.3410  -30.9080 O   0  0  0  0  0  0  0  0  0  0  0  0
   -4.7360   21.9910  -30.9580 N   0  0  0  0  0  0  0  0  0  0  0  0
   -3.4920   21.5120  -30.5500 C   0  0  0  0  0  0  0  0  0  0  0  0
   -3.5700   20.3280  -29.9540 O   0  0  0  0  0  0  0  0  0  0  0  0
   -2.1780   21.9570  -30.5820 N   0  0  0  0  0  0  0  0  0  0  0  0
   -1.4300   22.9630  -29.9240 C   0  0  0  0  0  0  0  0  0  0  0  0
   -2.1900   23.9080  -29.0880 C   0  0  0  0  0  0  0  0  0  0  0  0
   -2.7670   23.4490  -28.0570 O   0  0  0  0  0  0  0  0  0  0  0  0
   -2.3290   25.2530  -29.3320 O   0  0  0  0  0  0  0  0  0  0  0  0
   -1.3010   21.1780  -31.5620 C   0  0  0  0  0  0  0  0  0  0  0  0
   -2.1650   20.7890  -32.6950 C   0  0  0  0  0  0  0  0  0  0  0  0
   -2.8640   21.6660  -33.2640 O   0  0  0  0  0  0  0  0  0  0  0  0
   -2.1650   19.4310  -33.0930 N   0  0  0  0  0  0  0  0  0  0  0  0
   -1.3420   18.4190  -32.4190 C   0  0  0  0  0  0  0  0  0  0  0  0
   -2.9920   18.9900  -34.1990 C   0  0  0  0  0  0  0  0  0  0  0  0
   -5.6290   21.1460  -31.6050 C   0  0  0  0  0  0  0  0  0  0  0  0
   -5.5200   19.8590  -32.1200 C   0  0  0  0  0  0  0  0  0  0  0  0
   -6.4145   17.1319  -32.4464 H   0  0  0  0  0  0  0  0  0  0  0  0
   -7.3622   17.6174  -33.8930 H   0  0  0  0  0  0  0  0  0  0  0  0
   -5.5737   17.7852  -33.8930 H   0  0  0  0  0  0  0  0  0  0  0  0
   -8.6787   19.3442  -33.3237 H   0  0  0  0  0  0  0  0  0  0  0  0
   -8.9033   21.6504  -32.4123 H   0  0  0  0  0  0  0  0  0  0  0  0
   -7.5730   23.7095  -31.1150 H   0  0  0  0  0  0  0  0  0  0  0  0
   -4.9760   23.8060  -28.0950 H   0  0  0  0  0  0  0  0  0  0  0  0
   -4.9750   25.6170  -28.3710 H   0  0  0  0  0  0  0  0  0  0  0  0
   -0.6938   22.4628  -29.2776 H   0  0  0  0  0  0  0  0  0  0  0  0
   -0.9931   23.5731  -30.7283 H   0  0  0  0  0  0  0  0  0  0  0  0
   -3.1050   25.6950  -29.7960 H   0  0  0  0  0  0  0  0  0  0  0  0
   -0.4748   21.8118  -31.9165 H   0  0  0  0  0  0  0  0  0  0  0  0
   -0.8620   20.2924  -31.0793 H   0  0  0  0  0  0  0  0  0  0  0  0
   -1.4368   18.5356  -31.3293 H   0  0  0  0  0  0  0  0  0  0  0  0
   -1.6831   17.4149  -32.7114 H   0  0  0  0  0  0  0  0  0  0  0  0
   -0.2895   18.5483  -32.7114 H   0  0  0  0  0  0  0  0  0  0  0  0
   -3.8993   18.5062  -33.8083 H   0  0  0  0  0  0  0  0  0  0  0  0
   -3.2747   19.8571  -34.8140 H   0  0  0  0  0  0  0  0  0  0  0  0
   -2.4295   18.2721  -34.8140 H   0  0  0  0  0  0  0  0  0  0  0  0
   -4.5594   19.3280  -32.0471 H   0  0  0  0  0  0  0  0  0  0  0  0
  1  2  1  0
  2  3  2  0
  3  4  1  0
  4  5  2  0
  5  6  1  0
  6  7  2  0
  7  8  1  0
  8  9  1  0
  8 10  2  0
  7 11  1  0
 11 12  1  0
 12 13  2  0
 12 14  1  0
 14 15  1  0
 15 16  1  0
 16 17  2  0
 16 18  1  0
 14 19  1  0
 19 20  1  0
 20 21  2  0
 20 22  1  0
 22 23  1  0
 22 24  1  0
 11 25  1  0
 25 26  2  0
 26  2  1  0
 25  5  1  0
  1 27  1  0
  1 28  1  0
  1 29  1  0
  3 30  1  0
  4 31  1  0
  6 32  1  0
  9 33  1  0
  9 34  1  0
 15 35  1  0
 15 36  1  0
 18 37  1  0
 19 38  1  0
 19 39  1  0
 23 40  1  0
 23 41  1  0
 23 42  1  0
 24 43  1  0
 24 44  1  0
 24 45  1  0
 26 46  1  0
M  END
>  <smiles>  (74) 
Cc1ccc2cc(C(N)=O)n(C(=O)N(CC(=O)O)CC(=O)N(C)C)c2c1

>  <score_type>  (74) 
oracle

>  <origin>  (74) 
adg

>  <m_score__min__energy>  (74) 
-9.4800000000000004

>  <m_primary>  (74) 
energy

$$$$
76:0
     RDKit          3D

 38 39  0  0  0  0  0  0  0  0999 V2000
   -5.4430   25.2840  -28.9720 N   0  0  0  0  0  0  0  0  0  0  0  0
   -6.6250   24.8980  -29.7190 C   0  0  0  0  0  0  0  0  0  0  0  0
   -7.5840   25.6840  -29.6110 O   0  0  0  0  0  0  0  0  0  0  0  0
   -6.5880   23.6820  -30.4910 C   0  0  0  0  0  0  0  0  0  0  0  0
   -7.7430   23.0540  -30.9740 C   0  0  0  0  0  0  0  0  0  0  0  0
   -7.4020   21.9220  -31.6710 C   0  0  0  0  0  0  0  0  0  0  0  0
   -8.1730   20.9830  -32.3250 C   0  0  0  0  0  0  0  0  0  0  0  0
   -7.5720   19.9190  -32.9620 C   0  0  0  0  0  0  0  0  0  0  0  0
   -6.1990   19.8250  -32.9240 C   0  0  0  0  0  0  0  0  0  0  0  0
   -5.5390   18.6820  -33.6060 C   0  0  0  0  0  0  0  0  0  0  0  0
   -5.8120   17.0560  -32.5700 Br  0  0  0  0  0  0  0  0  0  0  0  0
   -5.4400   20.7850  -32.2580 C   0  0  0  0  0  0  0  0  0  0  0  0
   -6.0200   21.8600  -31.6140 C   0  0  0  0  0  0  0  0  0  0  0  0
   -5.5600   22.9220  -30.9040 N   0  0  0  0  0  0  0  0  0  0  0  0
   -4.1970   23.1450  -30.6650 C   0  0  0  0  0  0  0  0  0  0  0  0
   -3.6540   24.1770  -31.1920 O   0  0  0  0  0  0  0  0  0  0  0  0
   -3.3530   22.3630  -29.9100 O   0  0  0  0  0  0  0  0  0  0  0  0
   -3.3670   22.3760  -28.5170 C   0  0  0  0  0  0  0  0  0  0  0  0
   -2.9170   21.4200  -27.8500 O   0  0  0  0  0  0  0  0  0  0  0  0
   -3.8960   23.4820  -27.8950 O   0  0  0  0  0  0  0  0  0  0  0  0
   -3.3070   24.1780  -26.8350 C   0  0  0  0  0  0  0  0  0  0  0  0
   -1.9190   24.1040  -26.7950 O   0  0  0  0  0  0  0  0  0  0  0  0
   -1.2390   24.5330  -28.2850 P   0  0  0  0  0  0  0  0  0  0  0  0
   -0.0580   25.4690  -28.1260 O   0  0  0  0  0  0  0  0  0  0  0  0
   -2.3410   25.2430  -29.3180 O   0  0  0  0  0  0  0  0  0  0  0  0
   -0.6320   23.1100  -29.0130 O   0  0  0  0  0  0  0  0  0  0  0  0
   -4.4990   24.9810  -29.3560 H   0  0  0  0  0  0  0  0  0  0  0  0
   -5.4940   25.8280  -28.1060 H   0  0  0  0  0  0  0  0  0  0  0  0
   -8.7705   23.4144  -30.8179 H   0  0  0  0  0  0  0  0  0  0  0  0
   -9.2683   21.0838  -32.3379 H   0  0  0  0  0  0  0  0  0  0  0  0
   -8.1743   19.1635  -33.4878 H   0  0  0  0  0  0  0  0  0  0  0  0
   -5.9728   18.5542  -34.6087 H   0  0  0  0  0  0  0  0  0  0  0  0
   -4.4609   18.8823  -33.6936 H   0  0  0  0  0  0  0  0  0  0  0  0
   -4.3448   20.6834  -32.2448 H   0  0  0  0  0  0  0  0  0  0  0  0
   -3.5920   25.2371  -26.9193 H   0  0  0  0  0  0  0  0  0  0  0  0
   -3.6715   23.7058  -25.9108 H   0  0  0  0  0  0  0  0  0  0  0  0
   -3.0190   24.5760  -29.5660 H   0  0  0  0  0  0  0  0  0  0  0  0
   -1.3400   22.4150  -29.0480 H   0  0  0  0  0  0  0  0  0  0  0  0
  1  2  1  0
  2  3  2  0
  2  4  1  0
  4  5  2  0
  5  6  1  0
  6  7  2  0
  7  8  1  0
  8  9  2  0
  9 10  1  0
 10 11  1  0
  9 12  1  0
 12 13  2  0
 13 14  1  0
 14 15  1  0
 15 16  2  0
 15 17  1  0
 17 18  1  0
 18 19  2  0
 18 20  1  0
 20 21  1  0
 21 22  1  0
 22 23  1  0
 23 24  2  0
 23 25  1  0
 23 26  1  0
 14  4  1  0
 13  6  1  0
  1 27  1  0
  1 28  1  0
  5 29  1  0
  7 30  1  0
  8 31  1  0
 10 32  1  0
 10 33  1  0
 12 34  1  0
 21 35  1  0
 21 36  1  0
 25 37  1  0
 26 38  1  0
M  END
>  <smiles>  (75) 
NC(=O)c1cc2ccc(CBr)cc2n1C(=O)OC(=O)OCOP(=O)(O)O

>  <score_type>  (75) 
oracle

>  <origin>  (75) 
adg

>  <m_score__min__energy>  (75) 
-7.9800000000000004

>  <m_primary>  (75) 
energy

$$$$
77:0
     RDKit          3D

 35 36  0  0  0  0  0  0  0  0999 V2000
   -6.1050   26.0270  -29.2920 N   0  0  0  0  0  0  0  0  0  0  0  0
   -5.6010   25.1590  -30.2740 C   0  0  0  0  0  0  0  0  0  0  0  0
   -4.5250   25.5610  -30.8470 O   0  0  0  0  0  0  0  0  0  0  0  0
   -6.1310   23.8980  -30.7100 C   0  0  0  0  0  0  0  0  0  0  0  0
   -7.4630   23.7550  -31.1260 C   0  0  0  0  0  0  0  0  0  0  0  0
   -7.6990   22.4530  -31.4860 C   0  0  0  0  0  0  0  0  0  0  0  0
   -8.8310   21.8190  -31.9540 C   0  0  0  0  0  0  0  0  0  0  0  0
   -8.7950   20.4730  -32.2460 C   0  0  0  0  0  0  0  0  0  0  0  0
   -7.6200   19.7760  -32.0650 C   0  0  0  0  0  0  0  0  0  0  0  0
   -7.5840   18.3210  -32.3820 C   0  0  0  0  0  0  0  0  0  0  0  0
   -6.7100   17.7420  -31.4900 F   0  0  0  0  0  0  0  0  0  0  0  0
   -8.8320   17.7940  -32.1390 F   0  0  0  0  0  0  0  0  0  0  0  0
   -7.1280   18.0940  -33.6630 F   0  0  0  0  0  0  0  0  0  0  0  0
   -6.4940   20.4460  -31.5900 C   0  0  0  0  0  0  0  0  0  0  0  0
   -6.5070   21.7930  -31.2910 C   0  0  0  0  0  0  0  0  0  0  0  0
   -5.5770   22.6780  -30.8240 N   0  0  0  0  0  0  0  0  0  0  0  0
   -4.2430   22.3190  -30.5220 C   0  0  0  0  0  0  0  0  0  0  0  0
   -3.5870   21.4110  -31.0850 O   0  0  0  0  0  0  0  0  0  0  0  0
   -3.5480   23.0010  -29.5180 O   0  0  0  0  0  0  0  0  0  0  0  0
   -3.1980   22.3770  -28.2990 C   0  0  0  0  0  0  0  0  0  0  0  0
   -2.0730   22.9980  -27.7180 O   0  0  0  0  0  0  0  0  0  0  0  0
   -1.4090   24.0400  -28.9040 P   0  0  0  0  0  0  0  0  0  0  0  0
   -0.1270   24.6090  -28.3530 O   0  0  0  0  0  0  0  0  0  0  0  0
   -1.0790   23.0540  -30.2560 O   0  0  0  0  0  0  0  0  0  0  0  0
   -2.4480   25.2760  -29.3260 O   0  0  0  0  0  0  0  0  0  0  0  0
   -6.7890   26.7910  -29.5400 H   0  0  0  0  0  0  0  0  0  0  0  0
   -5.7660   25.8840  -28.2960 H   0  0  0  0  0  0  0  0  0  0  0  0
   -8.2063   24.5652  -31.1585 H   0  0  0  0  0  0  0  0  0  0  0  0
   -9.7621   22.3877  -32.0940 H   0  0  0  0  0  0  0  0  0  0  0  0
   -9.6939   19.9606  -32.6193 H   0  0  0  0  0  0  0  0  0  0  0  0
   -5.5612   19.8805  -31.4483 H   0  0  0  0  0  0  0  0  0  0  0  0
   -4.0468   22.4463  -27.6027 H   0  0  0  0  0  0  0  0  0  0  0  0
   -2.9513   21.3245  -28.5023 H   0  0  0  0  0  0  0  0  0  0  0  0
   -1.8350   22.4890  -30.4810 H   0  0  0  0  0  0  0  0  0  0  0  0
   -3.3880   25.1230  -29.0630 H   0  0  0  0  0  0  0  0  0  0  0  0
  1  2  1  0
  2  3  2  0
  2  4  1  0
  4  5  2  0
  5  6  1  0
  6  7  2  0
  7  8  1  0
  8  9  2  0
  9 10  1  0
 10 11  1  0
 10 12  1  0
 10 13  1  0
  9 14  1  0
 14 15  2  0
 15 16  1  0
 16 17  1  0
 17 18  2  0
 17 19  1  0
 19 20  1  0
 20 21  1  0
 21 22  1  0
 22 23  2  0
 22 24  1  0
 22 25  1  0
 16  4  1  0
 15  6  1  0
  1 26  1  0
  1 27  1  0
  5 28  1  0
  7 29  1  0
  8 30  1  0
 14 31  1  0
 20 32  1  0
 20 33  1  0
 24 34  1  0
 25 35  1  0
M  END
>  <smiles>  (76) 
NC(=O)c1cc2ccc(C(F)(F)F)cc2n1C(=O)OCOP(=O)(O)O

>  <score_type>  (76) 
oracle

>  <origin>  (76) 
adg

>  <m_score__min__energy>  (76) 
-7.9900000000000002

>  <m_primary>  (76) 
energy

$$$$
78:0
     RDKit          3D

 44 45  0  0  0  0  0  0  0  0999 V2000
   -0.5100   19.9510  -29.5710 C   0  0  0  0  0  0  0  0  0  0  0  0
   -0.9250   20.7980  -30.7780 C   0  0  0  0  0  0  0  0  0  0  0  0
   -1.9490   21.7510  -30.3250 N   0  0  0  0  0  0  0  0  0  0  0  0
   -2.0360   22.0830  -28.9440 C   0  0  0  0  0  0  0  0  0  0  0  0
   -1.3090   23.3840  -28.6230 C   0  0  0  0  0  0  0  0  0  0  0  0
   -2.3280   24.4350  -28.3600 C   0  0  0  0  0  0  0  0  0  0  0  0
   -3.3210   24.2510  -27.6080 O   0  0  0  0  0  0  0  0  0  0  0  0
   -2.1760   25.6710  -28.9670 O   0  0  0  0  0  0  0  0  0  0  0  0
   -2.7700   22.2750  -31.3870 C   0  0  0  0  0  0  0  0  0  0  0  0
   -2.4060   21.8310  -32.5310 O   0  0  0  0  0  0  0  0  0  0  0  0
   -3.8640   23.1830  -31.1790 C   0  0  0  0  0  0  0  0  0  0  0  0
   -3.5130   24.3980  -30.9410 O   0  0  0  0  0  0  0  0  0  0  0  0
   -5.2460   22.9420  -31.2080 N   0  0  0  0  0  0  0  0  0  0  0  0
   -6.2650   23.4670  -30.5140 C   0  0  0  0  0  0  0  0  0  0  0  0
   -6.3570   24.6900  -29.7370 C   0  0  0  0  0  0  0  0  0  0  0  0
   -5.2710   25.0240  -28.8360 N   0  0  0  0  0  0  0  0  0  0  0  0
   -7.2930   25.5160  -29.7540 O   0  0  0  0  0  0  0  0  0  0  0  0
   -7.4420   22.7320  -30.7670 C   0  0  0  0  0  0  0  0  0  0  0  0
   -7.1100   21.7480  -31.6410 C   0  0  0  0  0  0  0  0  0  0  0  0
   -7.9010   20.7650  -32.2010 C   0  0  0  0  0  0  0  0  0  0  0  0
   -7.3720   19.8440  -33.0780 C   0  0  0  0  0  0  0  0  0  0  0  0
   -6.0280   19.9570  -33.3620 C   0  0  0  0  0  0  0  0  0  0  0  0
   -5.4460   18.9650  -34.3100 C   0  0  0  0  0  0  0  0  0  0  0  0
   -5.2340   20.9570  -32.7900 C   0  0  0  0  0  0  0  0  0  0  0  0
   -5.7730   21.8830  -31.9060 C   0  0  0  0  0  0  0  0  0  0  0  0
   -0.7702   20.4821  -28.6435 H   0  0  0  0  0  0  0  0  0  0  0  0
   -1.0374   18.9862  -29.6014 H   0  0  0  0  0  0  0  0  0  0  0  0
    0.5756   19.7765  -29.6014 H   0  0  0  0  0  0  0  0  0  0  0  0
   -0.0538   21.3428  -31.1706 H   0  0  0  0  0  0  0  0  0  0  0  0
   -1.3224   20.1578  -31.5794 H   0  0  0  0  0  0  0  0  0  0  0  0
   -3.0960   22.1917  -28.6709 H   0  0  0  0  0  0  0  0  0  0  0  0
   -1.5581   21.2758  -28.3695 H   0  0  0  0  0  0  0  0  0  0  0  0
   -0.6772   23.2473  -27.7330 H   0  0  0  0  0  0  0  0  0  0  0  0
   -0.6690   23.6792  -29.4675 H   0  0  0  0  0  0  0  0  0  0  0  0
   -2.0120   25.6650  -29.9730 H   0  0  0  0  0  0  0  0  0  0  0  0
   -4.3410   25.3200  -29.1820 H   0  0  0  0  0  0  0  0  0  0  0  0
   -5.5310   24.9330  -27.8230 H   0  0  0  0  0  0  0  0  0  0  0  0
   -8.4375   22.9201  -30.3384 H   0  0  0  0  0  0  0  0  0  0  0  0
   -8.9692   20.7165  -31.9431 H   0  0  0  0  0  0  0  0  0  0  0  0
   -7.9924   19.0561  -33.5300 H   0  0  0  0  0  0  0  0  0  0  0  0
   -4.9690   18.1520  -33.7429 H   0  0  0  0  0  0  0  0  0  0  0  0
   -6.2444   18.5509  -34.9434 H   0  0  0  0  0  0  0  0  0  0  0  0
   -4.6951   19.4599  -34.9434 H   0  0  0  0  0  0  0  0  0  0  0  0
   -4.1652   21.0108  -33.0446 H   0  0  0  0  0  0  0  0  0  0  0  0
  1  2  1  0
  2  3  1  0
  3  4  1  0
  4  5  1  0
  5  6  1  0
  6  7  2  0
  6  8  1  0
  3  9  1  0
  9 10  2  0
  9 11  1  0
 11 12  2  0
 11 13  1  0
 13 14  1  0
 14 15  1  0
 15 16  1  0
 15 17  2  0
 14 18  2  0
 18 19  1  0
 19 20  2  0
 20 21  1  0
 21 22  2  0
 22 23  1  0
 22 24  1  0
 24 25  2  0
 25 13  1  0
 25 19  1  0
  1 26  1  0
  1 27  1  0
  1 28  1  0
  2 29  1  0
  2 30  1  0
  4 31  1  0
  4 32  1  0
  5 33  1  0
  5 34  1  0
  8 35  1  0
 16 36  1  0
 16 37  1  0
 18 38  1  0
 20 39  1  0
 21 40  1  0
 23 41  1  0
 23 42  1  0
 23 43  1  0
 24 44  1  0
M  END
>  <smiles>  (77) 
CCN(CCC(=O)O)C(=O)C(=O)n1c(C(N)=O)cc2ccc(C)cc21

>  <score_type>  (77) 
oracle

>  <origin>  (77) 
adg

>  <m_score__min__energy>  (77) 
-8.75

>  <m_primary>  (77) 
energy

$$$$
79:0
     RDKit          3D

 43 44  0  0  0  0  0  0  0  0999 V2000
   -6.4530   18.5160  -33.5160 C   0  0  0  0  0  0  0  0  0  0  0  0
   -6.9010   19.7800  -32.8800 C   0  0  0  0  0  0  0  0  0  0  0  0
   -8.2450   20.0520  -32.7740 C   0  0  0  0  0  0  0  0  0  0  0  0
   -8.6310   21.2170  -32.1880 C   0  0  0  0  0  0  0  0  0  0  0  0
   -7.6910   22.1070  -31.7080 C   0  0  0  0  0  0  0  0  0  0  0  0
   -7.8250   23.3220  -31.0900 C   0  0  0  0  0  0  0  0  0  0  0  0
   -6.5500   23.8320  -30.7970 C   0  0  0  0  0  0  0  0  0  0  0  0
   -6.3370   25.0960  -30.1440 C   0  0  0  0  0  0  0  0  0  0  0  0
   -5.1030   25.8060  -30.4150 N   0  0  0  0  0  0  0  0  0  0  0  0
   -7.1020   25.6720  -29.3500 O   0  0  0  0  0  0  0  0  0  0  0  0
   -5.6590   22.9140  -31.2440 N   0  0  0  0  0  0  0  0  0  0  0  0
   -4.2450   22.9700  -31.1800 C   0  0  0  0  0  0  0  0  0  0  0  0
   -3.5650   21.9470  -31.4750 O   0  0  0  0  0  0  0  0  0  0  0  0
   -3.5110   24.0820  -30.8090 O   0  0  0  0  0  0  0  0  0  0  0  0
   -2.7290   24.0130  -29.6200 C   0  0  0  0  0  0  0  0  0  0  0  0
   -2.2060   25.2930  -29.3030 O   0  0  0  0  0  0  0  0  0  0  0  0
   -1.1750   25.4560  -28.3920 C   0  0  0  0  0  0  0  0  0  0  0  0
   -0.1180   24.7640  -28.5500 O   0  0  0  0  0  0  0  0  0  0  0  0
   -1.2360   26.3930  -27.2410 C   0  0  0  0  0  0  0  0  0  0  0  0
   -1.7650   25.6570  -26.1080 N   0  0  0  0  0  0  0  0  0  0  0  0
   -1.6130   26.3960  -24.8710 C   0  0  0  0  0  0  0  0  0  0  0  0
   -3.1400   25.2590  -26.3310 C   0  0  0  0  0  0  0  0  0  0  0  0
   -6.3390   21.8770  -31.7920 C   0  0  0  0  0  0  0  0  0  0  0  0
   -5.9600   20.6810  -32.3950 C   0  0  0  0  0  0  0  0  0  0  0  0
   -6.1939   17.7849  -32.7361 H   0  0  0  0  0  0  0  0  0  0  0  0
   -7.2631   18.1131  -34.1416 H   0  0  0  0  0  0  0  0  0  0  0  0
   -5.5700   18.7132  -34.1416 H   0  0  0  0  0  0  0  0  0  0  0  0
   -8.9929   19.3414  -33.1556 H   0  0  0  0  0  0  0  0  0  0  0  0
   -9.7016   21.4522  -32.0957 H   0  0  0  0  0  0  0  0  0  0  0  0
   -8.7791   23.8189  -30.8600 H   0  0  0  0  0  0  0  0  0  0  0  0
   -5.0800   26.4030  -31.2700 H   0  0  0  0  0  0  0  0  0  0  0  0
   -4.2920   25.6990  -29.7550 H   0  0  0  0  0  0  0  0  0  0  0  0
   -3.3599   23.6625  -28.7899 H   0  0  0  0  0  0  0  0  0  0  0  0
   -1.8950   23.3136  -29.7789 H   0  0  0  0  0  0  0  0  0  0  0  0
   -0.2285   26.7681  -27.0081 H   0  0  0  0  0  0  0  0  0  0  0  0
   -1.8769   27.2554  -27.4766 H   0  0  0  0  0  0  0  0  0  0  0  0
   -1.7529   25.7158  -24.0179 H   0  0  0  0  0  0  0  0  0  0  0  0
   -0.6056   26.8357  -24.8280 H   0  0  0  0  0  0  0  0  0  0  0  0
   -2.3651   27.1976  -24.8280 H   0  0  0  0  0  0  0  0  0  0  0  0
   -3.6414   25.1139  -25.3627 H   0  0  0  0  0  0  0  0  0  0  0  0
   -3.6611   26.0432  -26.8998 H   0  0  0  0  0  0  0  0  0  0  0  0
   -3.1616   24.3177  -26.8998 H   0  0  0  0  0  0  0  0  0  0  0  0
   -4.8902   20.4431  -32.4900 H   0  0  0  0  0  0  0  0  0  0  0  0
  1  2  1  0
  2  3  2  0
  3  4  1  0
  4  5  2  0
  5  6  1  0
  6  7  2  0
  7  8  1  0
  8  9  1  0
  8 10  2  0
  7 11  1  0
 11 12  1  0
 12 13  2  0
 12 14  1  0
 14 15  1  0
 15 16  1  0
 16 17  1  0
 17 18  2  0
 17 19  1  0
 19 20  1  0
 20 21  1  0
 20 22  1  0
 11 23  1  0
 23 24  2  0
 24  2  1  0
 23  5  1  0
  1 25  1  0
  1 26  1  0
  1 27  1  0
  3 28  1  0
  4 29  1  0
  6 30  1  0
  9 31  1  0
  9 32  1  0
 15 33  1  0
 15 34  1  0
 19 35  1  0
 19 36  1  0
 21 37  1  0
 21 38  1  0
 21 39  1  0
 22 40  1  0
 22 41  1  0
 22 42  1  0
 24 43  1  0
M  END
>  <smiles>  (78) 
Cc1ccc2cc(C(N)=O)n(C(=O)OCOC(=O)CN(C)C)c2c1

>  <score_type>  (78) 
oracle

>  <origin>  (78) 
adg

>  <m_score__min__energy>  (78) 
-8.6199999999999992

>  <m_primary>  (78) 
energy

$$$$
80:0
     RDKit          3D

 46 47  0  0  0  0  0  0  0  0999 V2000
   -6.0200   25.7040  -29.2630 N   0  0  0  0  0  0  0  0  0  0  0  0
   -5.4870   24.9470  -30.3860 C   0  0  0  0  0  0  0  0  0  0  0  0
   -4.4340   25.4400  -30.8480 O   0  0  0  0  0  0  0  0  0  0  0  0
   -6.1760   23.7630  -30.8450 C   0  0  0  0  0  0  0  0  0  0  0  0
   -7.5800   23.7320  -30.8980 C   0  0  0  0  0  0  0  0  0  0  0  0
   -7.9570   22.5190  -31.3640 C   0  0  0  0  0  0  0  0  0  0  0  0
   -9.2230   21.9990  -31.5590 C   0  0  0  0  0  0  0  0  0  0  0  0
   -9.3890   20.7060  -32.0030 C   0  0  0  0  0  0  0  0  0  0  0  0
   -8.2500   19.9740  -32.2350 C   0  0  0  0  0  0  0  0  0  0  0  0
   -8.4100   18.5840  -32.7090 C   0  0  0  0  0  0  0  0  0  0  0  0
   -7.1100   17.9560  -33.0640 C   0  0  0  0  0  0  0  0  0  0  0  0
   -6.6300   17.0230  -32.3810 O   0  0  0  0  0  0  0  0  0  0  0  0
   -6.4410   18.4650  -34.2100 N   0  0  0  0  0  0  0  0  0  0  0  0
   -5.1780   17.8740  -34.5750 C   0  0  0  0  0  0  0  0  0  0  0  0
   -4.0290   18.7440  -34.1490 C   0  0  0  0  0  0  0  0  0  0  0  0
   -2.8470   18.3080  -34.1030 O   0  0  0  0  0  0  0  0  0  0  0  0
   -4.3290   20.0560  -33.8050 O   0  0  0  0  0  0  0  0  0  0  0  0
   -6.9830   20.5050  -32.0360 C   0  0  0  0  0  0  0  0  0  0  0  0
   -6.7970   21.8170  -31.5920 C   0  0  0  0  0  0  0  0  0  0  0  0
   -5.7060   22.5550  -31.2850 N   0  0  0  0  0  0  0  0  0  0  0  0
   -4.3470   22.2700  -31.5150 C   0  0  0  0  0  0  0  0  0  0  0  0
   -3.8990   22.5310  -32.6800 O   0  0  0  0  0  0  0  0  0  0  0  0
   -3.3430   21.6980  -30.6010 C   0  0  0  0  0  0  0  0  0  0  0  0
   -2.6090   20.6990  -31.1560 O   0  0  0  0  0  0  0  0  0  0  0  0
   -1.2730   20.9880  -31.2430 C   0  0  0  0  0  0  0  0  0  0  0  0
   -0.7910   21.2010  -32.6450 C   0  0  0  0  0  0  0  0  0  0  0  0
   -1.8990   20.9170  -33.4790 O   0  0  0  0  0  0  0  0  0  0  0  0
   -6.2260   26.7290  -29.4190 H   0  0  0  0  0  0  0  0  0  0  0  0
   -6.1870   25.2440  -28.3430 H   0  0  0  0  0  0  0  0  0  0  0  0
   -8.2551   24.5515  -30.6106 H   0  0  0  0  0  0  0  0  0  0  0  0
  -10.1057   22.6237  -31.3577 H   0  0  0  0  0  0  0  0  0  0  0  0
  -10.3895   20.2783  -32.1647 H   0  0  0  0  0  0  0  0  0  0  0  0
   -8.8836   17.9910  -31.9128 H   0  0  0  0  0  0  0  0  0  0  0  0
   -9.0315   18.6072  -33.6163 H   0  0  0  0  0  0  0  0  0  0  0  0
   -6.8760   19.2580  -34.7680 H   0  0  0  0  0  0  0  0  0  0  0  0
   -5.0860   16.8929  -34.0861 H   0  0  0  0  0  0  0  0  0  0  0  0
   -5.1467   17.7658  -35.6692 H   0  0  0  0  0  0  0  0  0  0  0  0
   -3.6530   20.8170  -33.9690 H   0  0  0  0  0  0  0  0  0  0  0  0
   -6.1020   19.8764  -32.2330 H   0  0  0  0  0  0  0  0  0  0  0  0
   -2.6585   22.5009  -30.2899 H   0  0  0  0  0  0  0  0  0  0  0  0
   -3.8905   21.2627  -29.7521 H   0  0  0  0  0  0  0  0  0  0  0  0
   -1.0780   21.9041  -30.6662 H   0  0  0  0  0  0  0  0  0  0  0  0
   -0.7302   20.1174  -30.8462 H   0  0  0  0  0  0  0  0  0  0  0  0
   -0.4634   22.2419  -32.7838 H   0  0  0  0  0  0  0  0  0  0  0  0
    0.0695   20.5574  -32.8804 H   0  0  0  0  0  0  0  0  0  0  0  0
   -2.6570   20.7580  -32.8610 H   0  0  0  0  0  0  0  0  0  0  0  0
  1  2  1  0
  2  3  2  0
  2  4  1  0
  4  5  2  0
  5  6  1  0
  6  7  2  0
  7  8  1  0
  8  9  2  0
  9 10  1  0
 10 11  1  0
 11 12  2  0
 11 13  1  0
 13 14  1  0
 14 15  1  0
 15 16  2  0
 15 17  1  0
  9 18  1  0
 18 19  2  0
 19 20  1  0
 20 21  1  0
 21 22  2  0
 21 23  1  0
 23 24  1  0
 24 25  1  0
 25 26  1  0
 26 27  1  0
 20  4  1  0
 19  6  1  0
  1 28  1  0
  1 29  1  0
  5 30  1  0
  7 31  1  0
  8 32  1  0
 10 33  1  0
 10 34  1  0
 13 35  1  0
 14 36  1  0
 14 37  1  0
 17 38  1  0
 18 39  1  0
 23 40  1  0
 23 41  1  0
 25 42  1  0
 25 43  1  0
 26 44  1  0
 26 45  1  0
 27 46  1  0
M  END
>  <smiles>  (79) 
NC(=O)c1cc2ccc(CC(=O)NCC(=O)O)cc2n1C(=O)COCCO

>  <score_type>  (79) 
oracle

>  <origin>  (79) 
adg

>  <m_score__min__energy>  (79) 
-7.9400000000000004

>  <m_primary>  (79) 
energy

$$$$
81:0
     RDKit          3D

 39 40  0  0  0  0  0  0  0  0999 V2000
   -0.8770   26.5920  -28.2200 C   0  0  0  0  0  0  0  0  0  0  0  0
   -1.5830   25.6090  -28.9890 O   0  0  0  0  0  0  0  0  0  0  0  0
   -1.6050   24.2920  -28.5510 C   0  0  0  0  0  0  0  0  0  0  0  0
   -2.6230   23.8070  -27.9570 O   0  0  0  0  0  0  0  0  0  0  0  0
   -0.3880   23.4790  -28.8050 C   0  0  0  0  0  0  0  0  0  0  0  0
   -0.7140   22.2070  -29.3390 O   0  0  0  0  0  0  0  0  0  0  0  0
   -1.6170   22.0730  -30.4010 C   0  0  0  0  0  0  0  0  0  0  0  0
   -1.2340   21.6390  -31.5160 O   0  0  0  0  0  0  0  0  0  0  0  0
   -3.0030   22.4470  -30.1740 N   0  0  0  0  0  0  0  0  0  0  0  0
   -3.9530   22.3330  -31.1990 C   0  0  0  0  0  0  0  0  0  0  0  0
   -3.4680   21.8950  -32.2970 O   0  0  0  0  0  0  0  0  0  0  0  0
   -5.3240   22.6250  -31.1950 N   0  0  0  0  0  0  0  0  0  0  0  0
   -5.8170   23.8630  -30.9740 C   0  0  0  0  0  0  0  0  0  0  0  0
   -5.2060   25.1340  -30.6550 C   0  0  0  0  0  0  0  0  0  0  0  0
   -3.8510   25.1720  -30.1060 N   0  0  0  0  0  0  0  0  0  0  0  0
   -5.6930   26.2760  -30.7860 O   0  0  0  0  0  0  0  0  0  0  0  0
   -7.2230   23.7730  -31.0780 C   0  0  0  0  0  0  0  0  0  0  0  0
   -7.5650   22.4900  -31.3590 C   0  0  0  0  0  0  0  0  0  0  0  0
   -8.8030   21.9240  -31.5520 C   0  0  0  0  0  0  0  0  0  0  0  0
   -8.9170   20.5840  -31.8350 C   0  0  0  0  0  0  0  0  0  0  0  0
   -7.7570   19.8530  -31.9140 C   0  0  0  0  0  0  0  0  0  0  0  0
   -7.8390   18.3890  -32.2210 C   0  0  0  0  0  0  0  0  0  0  0  0
   -9.1030   17.8890  -32.0390 F   0  0  0  0  0  0  0  0  0  0  0  0
   -7.3600   18.1800  -33.4780 F   0  0  0  0  0  0  0  0  0  0  0  0
   -6.9680   17.7690  -31.3350 F   0  0  0  0  0  0  0  0  0  0  0  0
   -6.5050   20.4450  -31.7140 C   0  0  0  0  0  0  0  0  0  0  0  0
   -6.3780   21.7880  -31.4290 C   0  0  0  0  0  0  0  0  0  0  0  0
   -1.0209   26.3916  -27.1480 H   0  0  0  0  0  0  0  0  0  0  0  0
    0.1953   26.5453  -28.4610 H   0  0  0  0  0  0  0  0  0  0  0  0
   -1.2637   27.5932  -28.4610 H   0  0  0  0  0  0  0  0  0  0  0  0
    0.2552   24.0126  -29.5203 H   0  0  0  0  0  0  0  0  0  0  0  0
    0.1317   23.3279  -27.8474 H   0  0  0  0  0  0  0  0  0  0  0  0
   -3.2290   22.7790  -29.2680 H   0  0  0  0  0  0  0  0  0  0  0  0
   -3.7890   25.2720  -29.0660 H   0  0  0  0  0  0  0  0  0  0  0  0
   -3.0450   25.1020  -30.7320 H   0  0  0  0  0  0  0  0  0  0  0  0
   -7.9273   24.6084  -30.9516 H   0  0  0  0  0  0  0  0  0  0  0  0
   -9.7068   22.5468  -31.4795 H   0  0  0  0  0  0  0  0  0  0  0  0
   -9.8995   20.1150  -31.9922 H   0  0  0  0  0  0  0  0  0  0  0  0
   -5.6001   19.8238  -31.7859 H   0  0  0  0  0  0  0  0  0  0  0  0
  1  2  1  0
  2  3  1  0
  3  4  2  0
  3  5  1  0
  5  6  1  0
  6  7  1  0
  7  8  2  0
  7  9  1  0
  9 10  1  0
 10 11  2  0
 10 12  1  0
 12 13  1  0
 13 14  1  0
 14 15  1  0
 14 16  2  0
 13 17  2  0
 17 18  1  0
 18 19  2  0
 19 20  1  0
 20 21  2  0
 21 22  1  0
 22 23  1  0
 22 24  1  0
 22 25  1  0
 21 26  1  0
 26 27  2  0
 27 12  1  0
 27 18  1  0
  1 28  1  0
  1 29  1  0
  1 30  1  0
  5 31  1  0
  5 32  1  0
  9 33  1  0
 15 34  1  0
 15 35  1  0
 17 36  1  0
 19 37  1  0
 20 38  1  0
 26 39  1  0
M  END
>  <smiles>  (80) 
COC(=O)COC(=O)NC(=O)n1c(C(N)=O)cc2ccc(C(F)(F)F)cc21

>  <score_type>  (80) 
oracle

>  <origin>  (80) 
adg

>  <m_score__min__energy>  (80) 
-8.1400000000000006

>  <m_primary>  (80) 
energy

$$$$
82:0
     RDKit          3D

 55 56  0  0  0  0  0  0  0  0999 V2000
   -2.6480   21.0590  -28.7270 C   0  0  0  0  0  0  0  0  0  0  0  0
   -3.3030   22.2990  -29.2490 C   0  0  0  0  0  0  0  0  0  0  0  0
   -4.0870   22.9530  -28.1140 C   0  0  0  0  0  0  0  0  0  0  0  0
   -2.2590   23.2580  -29.7150 C   0  0  0  0  0  0  0  0  0  0  0  0
   -4.2840   21.9990  -30.2480 O   0  0  0  0  0  0  0  0  0  0  0  0
   -4.8270   22.9790  -31.0660 C   0  0  0  0  0  0  0  0  0  0  0  0
   -4.4360   22.9320  -32.2880 O   0  0  0  0  0  0  0  0  0  0  0  0
   -5.7410   23.9650  -30.6330 N   0  0  0  0  0  0  0  0  0  0  0  0
   -7.1640   23.7790  -30.4840 C   0  0  0  0  0  0  0  0  0  0  0  0
   -7.8650   23.3170  -31.7070 C   0  0  0  0  0  0  0  0  0  0  0  0
   -7.1000   22.6290  -32.6860 N   0  0  0  0  0  0  0  0  0  0  0  0
   -7.1940   21.1950  -32.7130 C   0  0  0  0  0  0  0  0  0  0  0  0
   -8.3110   20.5980  -32.1710 C   0  0  0  0  0  0  0  0  0  0  0  0
   -8.4250   19.2280  -32.1840 C   0  0  0  0  0  0  0  0  0  0  0  0
   -7.4150   18.4720  -32.7420 C   0  0  0  0  0  0  0  0  0  0  0  0
   -7.2630   17.1150  -32.8910 C   0  0  0  0  0  0  0  0  0  0  0  0
   -6.0600   16.8490  -33.5230 C   0  0  0  0  0  0  0  0  0  0  0  0
   -5.6140   15.5020  -33.8220 C   0  0  0  0  0  0  0  0  0  0  0  0
   -4.2290   15.1790  -33.6320 N   0  0  0  0  0  0  0  0  0  0  0  0
   -6.3260   14.5690  -34.2370 O   0  0  0  0  0  0  0  0  0  0  0  0
   -5.4690   18.0370  -33.7640 N   0  0  0  0  0  0  0  0  0  0  0  0
   -4.2260   18.2860  -34.3880 C   0  0  0  0  0  0  0  0  0  0  0  0
   -3.7900   17.4860  -35.2700 O   0  0  0  0  0  0  0  0  0  0  0  0
   -3.3990   19.3650  -34.1200 O   0  0  0  0  0  0  0  0  0  0  0  0
   -2.7420   19.5060  -32.9100 C   0  0  0  0  0  0  0  0  0  0  0  0
   -3.3540   20.3810  -31.9550 N   0  0  0  0  0  0  0  0  0  0  0  0
   -1.6600   18.8960  -32.6600 O   0  0  0  0  0  0  0  0  0  0  0  0
   -6.2760   19.0240  -33.2980 C   0  0  0  0  0  0  0  0  0  0  0  0
   -6.1990   20.4080  -33.2650 C   0  0  0  0  0  0  0  0  0  0  0  0
   -5.2020   25.2650  -30.3100 C   0  0  0  0  0  0  0  0  0  0  0  0
   -5.8700   26.1270  -29.6860 O   0  0  0  0  0  0  0  0  0  0  0  0
   -3.9090   25.6270  -30.6740 O   0  0  0  0  0  0  0  0  0  0  0  0
   -2.6565   21.0751  -27.6271 H   0  0  0  0  0  0  0  0  0  0  0  0
   -3.1972   20.1757  -29.0851 H   0  0  0  0  0  0  0  0  0  0  0  0
   -1.6089   21.0147  -29.0851 H   0  0  0  0  0  0  0  0  0  0  0  0
   -3.6832   22.6162  -27.1478 H   0  0  0  0  0  0  0  0  0  0  0  0
   -3.9960   24.0467  -28.1882 H   0  0  0  0  0  0  0  0  0  0  0  0
   -5.1467   22.6673  -28.1882 H   0  0  0  0  0  0  0  0  0  0  0  0
   -1.7640   23.7127  -28.8443 H   0  0  0  0  0  0  0  0  0  0  0  0
   -1.5141   22.7227  -30.3221 H   0  0  0  0  0  0  0  0  0  0  0  0
   -2.7293   24.0455  -30.3221 H   0  0  0  0  0  0  0  0  0  0  0  0
   -7.3301   23.0333  -29.6926 H   0  0  0  0  0  0  0  0  0  0  0  0
   -7.5810   24.7683  -30.2445 H   0  0  0  0  0  0  0  0  0  0  0  0
   -8.6730   22.6424  -31.3876 H   0  0  0  0  0  0  0  0  0  0  0  0
   -8.1902   24.2412  -32.2071 H   0  0  0  0  0  0  0  0  0  0  0  0
   -6.4680   23.0450  -33.3980 H   0  0  0  0  0  0  0  0  0  0  0  0
   -9.1080   21.2146  -31.7299 H   0  0  0  0  0  0  0  0  0  0  0  0
   -9.3121   18.7399  -31.7541 H   0  0  0  0  0  0  0  0  0  0  0  0
   -7.9863   16.3557  -32.5590 H   0  0  0  0  0  0  0  0  0  0  0  0
   -3.5150   15.9010  -33.8270 H   0  0  0  0  0  0  0  0  0  0  0  0
   -3.9300   14.2340  -33.3020 H   0  0  0  0  0  0  0  0  0  0  0  0
   -4.1240   20.0720  -31.3170 H   0  0  0  0  0  0  0  0  0  0  0  0
   -2.9890   21.3630  -31.9230 H   0  0  0  0  0  0  0  0  0  0  0  0
   -5.3131   20.8990  -33.6940 H   0  0  0  0  0  0  0  0  0  0  0  0
   -3.5520   25.6150  -31.6050 H   0  0  0  0  0  0  0  0  0  0  0  0
  1  2  1  0
  2  3  1  0
  2  4  1  0
  2  5  1  0
  5  6  1  0
  6  7  2  0
  6  8  1  0
  8  9  1  0
  9 10  1  0
 10 11  1  0
 11 12  1  0
 12 13  2  0
 13 14  1  0
 14 15  2  0
 15 16  1  0
 16 17  2  0
 17 18  1  0
 18 19  1  0
 18 20  2  0
 17 21  1  0
 21 22  1  0
 22 23  2  0
 22 24  1  0
 24 25  1  0
 25 26  1  0
 25 27  2  0
 21 28  1  0
 28 29  2  0
  8 30  1  0
 30 31  2  0
 30 32  1  0
 29 12  1  0
 28 15  1  0
  1 33  1  0
  1 34  1  0
  1 35  1  0
  3 36  1  0
  3 37  1  0
  3 38  1  0
  4 39  1  0
  4 40  1  0
  4 41  1  0
  9 42  1  0
  9 43  1  0
 10 44  1  0
 10 45  1  0
 11 46  1  0
 13 47  1  0
 14 48  1  0
 16 49  1  0
 19 50  1  0
 19 51  1  0
 26 52  1  0
 26 53  1  0
 29 54  1  0
 32 55  1  0
M  END
>  <smiles>  (81) 
CC(C)(C)OC(=O)N(CCNc1ccc2cc(C(N)=O)n(C(=O)OC(N)=O)c2c1)C(=O)O

>  <score_type>  (81) 
oracle

>  <origin>  (81) 
adg

>  <m_score__min__energy>  (81) 
-8.5399999999999991

>  <m_primary>  (81) 
energy

$$$$
83:0
     RDKit          3D

 39 40  0  0  0  0  0  0  0  0999 V2000
   -1.4500   20.8940  -30.1170 C   0  0  0  0  0  0  0  0  0  0  0  0
   -2.2800   22.0170  -30.4750 N   0  0  0  0  0  0  0  0  0  0  0  0
   -1.9390   23.2390  -29.7450 C   0  0  0  0  0  0  0  0  0  0  0  0
   -0.8680   23.8510  -29.9770 O   0  0  0  0  0  0  0  0  0  0  0  0
   -2.7750   23.7650  -28.7820 O   0  0  0  0  0  0  0  0  0  0  0  0
   -2.2470   24.2090  -27.5410 C   0  0  0  0  0  0  0  0  0  0  0  0
   -1.4370   25.4400  -27.7350 C   0  0  0  0  0  0  0  0  0  0  0  0
   -0.6950   25.9290  -26.8450 O   0  0  0  0  0  0  0  0  0  0  0  0
   -1.5470   26.0470  -28.9990 O   0  0  0  0  0  0  0  0  0  0  0  0
   -3.3250   22.1170  -31.3830 C   0  0  0  0  0  0  0  0  0  0  0  0
   -2.9600   21.8580  -32.6180 O   0  0  0  0  0  0  0  0  0  0  0  0
   -4.6830   22.4480  -31.2570 N   0  0  0  0  0  0  0  0  0  0  0  0
   -5.3360   23.5600  -30.9610 C   0  0  0  0  0  0  0  0  0  0  0  0
   -4.8530   24.7660  -30.2710 C   0  0  0  0  0  0  0  0  0  0  0  0
   -5.1770   24.9800  -28.8800 N   0  0  0  0  0  0  0  0  0  0  0  0
   -4.1620   25.6570  -30.8040 O   0  0  0  0  0  0  0  0  0  0  0  0
   -6.7100   23.4460  -31.2010 C   0  0  0  0  0  0  0  0  0  0  0  0
   -6.8900   22.1810  -31.6640 C   0  0  0  0  0  0  0  0  0  0  0  0
   -8.0680   21.5590  -32.0510 C   0  0  0  0  0  0  0  0  0  0  0  0
   -8.0370   20.2580  -32.4980 C   0  0  0  0  0  0  0  0  0  0  0  0
   -6.8180   19.6210  -32.5440 C   0  0  0  0  0  0  0  0  0  0  0  0
   -6.7810   18.2140  -33.0270 C   0  0  0  0  0  0  0  0  0  0  0  0
   -7.9860   17.5720  -32.8380 F   0  0  0  0  0  0  0  0  0  0  0  0
   -5.7720   17.5230  -32.3860 F   0  0  0  0  0  0  0  0  0  0  0  0
   -6.4920   18.1390  -34.3880 F   0  0  0  0  0  0  0  0  0  0  0  0
   -5.6430   20.2700  -32.1480 C   0  0  0  0  0  0  0  0  0  0  0  0
   -5.6640   21.5830  -31.6950 C   0  0  0  0  0  0  0  0  0  0  0  0
   -1.3920   20.8155  -29.0213 H   0  0  0  0  0  0  0  0  0  0  0  0
   -1.8846   19.9710  -30.5282 H   0  0  0  0  0  0  0  0  0  0  0  0
   -0.4401   21.0386  -30.5282 H   0  0  0  0  0  0  0  0  0  0  0  0
   -3.0757   24.4251  -26.8507 H   0  0  0  0  0  0  0  0  0  0  0  0
   -1.6041   23.4202  -27.1233 H   0  0  0  0  0  0  0  0  0  0  0  0
   -2.1500   25.6460  -29.7240 H   0  0  0  0  0  0  0  0  0  0  0  0
   -4.3880   25.2260  -28.2770 H   0  0  0  0  0  0  0  0  0  0  0  0
   -6.1700   24.8730  -28.5710 H   0  0  0  0  0  0  0  0  0  0  0  0
   -7.4802   24.2162  -31.0476 H   0  0  0  0  0  0  0  0  0  0  0  0
   -9.0225   22.1033  -32.0008 H   0  0  0  0  0  0  0  0  0  0  0  0
   -8.9580   19.7431  -32.8089 H   0  0  0  0  0  0  0  0  0  0  0  0
   -4.6855   19.7306  -32.1963 H   0  0  0  0  0  0  0  0  0  0  0  0
  1  2  1  0
  2  3  1  0
  3  4  2  0
  3  5  1  0
  5  6  1  0
  6  7  1  0
  7  8  2  0
  7  9  1  0
  2 10  1  0
 10 11  2  0
 10 12  1  0
 12 13  1  0
 13 14  1  0
 14 15  1  0
 14 16  2  0
 13 17  2  0
 17 18  1  0
 18 19  2  0
 19 20  1  0
 20 21  2  0
 21 22  1  0
 22 23  1  0
 22 24  1  0
 22 25  1  0
 21 26  1  0
 26 27  2  0
 27 12  1  0
 27 18  1  0
  1 28  1  0
  1 29  1  0
  1 30  1  0
  6 31  1  0
  6 32  1  0
  9 33  1  0
 15 34  1  0
 15 35  1  0
 17 36  1  0
 19 37  1  0
 20 38  1  0
 26 39  1  0
M  END
>  <smiles>  (82) 
CN(C(=O)OCC(=O)O)C(=O)n1c(C(N)=O)cc2ccc(C(F)(F)F)cc21

>  <score_type>  (82) 
oracle

>  <origin>  (82) 
adg

>  <m_score__min__energy>  (82) 
-8.5199999999999996

>  <m_primary>  (82) 
energy

$$$$
84:0
     RDKit          3D

 45 46  0  0  0  0  0  0  0  0999 V2000
   -5.7240   25.2140  -28.9220 N   0  0  0  0  0  0  0  0  0  0  0  0
   -5.3420   24.7520  -30.2220 C   0  0  0  0  0  0  0  0  0  0  0  0
   -4.4740   25.4550  -30.7990 O   0  0  0  0  0  0  0  0  0  0  0  0
   -5.9500   23.5560  -30.7720 C   0  0  0  0  0  0  0  0  0  0  0  0
   -7.3320   23.4620  -30.9740 C   0  0  0  0  0  0  0  0  0  0  0  0
   -7.6330   22.2320  -31.5020 C   0  0  0  0  0  0  0  0  0  0  0  0
   -8.8420   21.6800  -31.8650 C   0  0  0  0  0  0  0  0  0  0  0  0
   -8.8070   20.3950  -32.3740 C   0  0  0  0  0  0  0  0  0  0  0  0
   -7.6460   19.6720  -32.5260 C   0  0  0  0  0  0  0  0  0  0  0  0
   -7.5960   18.3640  -33.0590 N   0  0  0  0  0  0  0  0  0  0  0  0
   -6.4410   17.7430  -33.6540 C   0  0  0  0  0  0  0  0  0  0  0  0
   -5.3560   17.3670  -32.7040 C   0  0  0  0  0  0  0  0  0  0  0  0
   -4.4700   18.4450  -32.4020 O   0  0  0  0  0  0  0  0  0  0  0  0
   -3.5110   18.7650  -33.3450 C   0  0  0  0  0  0  0  0  0  0  0  0
   -3.1890   18.0300  -34.3090 O   0  0  0  0  0  0  0  0  0  0  0  0
   -2.8250   20.0120  -33.2370 N   0  0  0  0  0  0  0  0  0  0  0  0
   -1.8130   20.4200  -34.1780 C   0  0  0  0  0  0  0  0  0  0  0  0
   -0.6580   21.1520  -33.5690 C   0  0  0  0  0  0  0  0  0  0  0  0
   -0.3250   20.5540  -32.2420 C   0  0  0  0  0  0  0  0  0  0  0  0
    0.8700   20.1700  -32.0780 O   0  0  0  0  0  0  0  0  0  0  0  0
   -1.2900   20.4320  -31.2470 O   0  0  0  0  0  0  0  0  0  0  0  0
   -6.4710   20.2970  -32.1360 C   0  0  0  0  0  0  0  0  0  0  0  0
   -6.4280   21.5740  -31.6210 C   0  0  0  0  0  0  0  0  0  0  0  0
   -5.4250   22.3940  -31.1740 N   0  0  0  0  0  0  0  0  0  0  0  0
   -4.0560   22.0360  -31.1550 C   0  0  0  0  0  0  0  0  0  0  0  0
   -3.1190   22.7090  -31.6350 O   0  0  0  0  0  0  0  0  0  0  0  0
   -3.6570   20.8250  -30.5540 O   0  0  0  0  0  0  0  0  0  0  0  0
   -4.9910   25.6060  -28.2760 H   0  0  0  0  0  0  0  0  0  0  0  0
   -6.7300   25.1730  -28.5900 H   0  0  0  0  0  0  0  0  0  0  0  0
   -8.0629   24.2515  -30.7450 H   0  0  0  0  0  0  0  0  0  0  0  0
   -9.7865   22.2331  -31.7555 H   0  0  0  0  0  0  0  0  0  0  0  0
   -9.7562   19.9263  -32.6729 H   0  0  0  0  0  0  0  0  0  0  0  0
   -8.4720   17.7620  -33.0330 H   0  0  0  0  0  0  0  0  0  0  0  0
   -6.7740   16.8290  -34.1676 H   0  0  0  0  0  0  0  0  0  0  0  0
   -6.0060   18.4957  -34.3280 H   0  0  0  0  0  0  0  0  0  0  0  0
   -5.8169   17.0212  -31.7670 H   0  0  0  0  0  0  0  0  0  0  0  0
   -4.7583   16.5803  -33.1875 H   0  0  0  0  0  0  0  0  0  0  0  0
   -3.0930   20.6390  -32.4230 H   0  0  0  0  0  0  0  0  0  0  0  0
   -1.4247   19.5198  -34.6768 H   0  0  0  0  0  0  0  0  0  0  0  0
   -2.2969   21.1220  -34.8730 H   0  0  0  0  0  0  0  0  0  0  0  0
    0.2149   21.0751  -34.2339 H   0  0  0  0  0  0  0  0  0  0  0  0
   -0.9281   22.2097  -33.4339 H   0  0  0  0  0  0  0  0  0  0  0  0
   -1.7090   21.3090  -30.9020 H   0  0  0  0  0  0  0  0  0  0  0  0
   -5.5255   19.7451  -32.2433 H   0  0  0  0  0  0  0  0  0  0  0  0
   -3.4600   20.0070  -31.1100 H   0  0  0  0  0  0  0  0  0  0  0  0
  1  2  1  0
  2  3  2  0
  2  4  1  0
  4  5  2  0
  5  6  1  0
  6  7  2  0
  7  8  1  0
  8  9  2  0
  9 10  1  0
 10 11  1  0
 11 12  1  0
 12 13  1  0
 13 14  1  0
 14 15  2  0
 14 16  1  0
 16 17  1  0
 17 18  1  0
 18 19  1  0
 19 20  2  0
 19 21  1  0
  9 22  1  0
 22 23  2  0
 23 24  1  0
 24 25  1  0
 25 26  2  0
 25 27  1  0
 24  4  1  0
 23  6  1  0
  1 28  1  0
  1 29  1  0
  5 30  1  0
  7 31  1  0
  8 32  1  0
 10 33  1  0
 11 34  1  0
 11 35  1  0
 12 36  1  0
 12 37  1  0
 16 38  1  0
 17 39  1  0
 17 40  1  0
 18 41  1  0
 18 42  1  0
 21 43  1  0
 22 44  1  0
 27 45  1  0
M  END
>  <smiles>  (83) 
NC(=O)c1cc2ccc(NCCOC(=O)NCCC(=O)O)cc2n1C(=O)O

>  <score_type>  (83) 
oracle

>  <origin>  (83) 
adg

>  <m_score__min__energy>  (83) 
-8

>  <m_primary>  (83) 
energy

$$$$
85:0
     RDKit          3D

 34 35  0  0  0  0  0  0  0  0999 V2000
   -1.3940   20.9420  -31.4980 N   0  0  0  0  0  0  0  0  0  0  0  0
   -2.0350   20.4260  -32.7150 C   0  0  0  0  0  0  0  0  0  0  0  0
   -3.2000   21.2970  -33.1170 C   0  0  0  0  0  0  0  0  0  0  0  0
   -3.2270   22.4690  -32.3190 O   0  0  0  0  0  0  0  0  0  0  0  0
   -3.9400   22.3990  -31.1220 C   0  0  0  0  0  0  0  0  0  0  0  0
   -3.2510   22.1290  -30.1080 O   0  0  0  0  0  0  0  0  0  0  0  0
   -5.3370   22.6260  -31.1170 N   0  0  0  0  0  0  0  0  0  0  0  0
   -5.9670   23.7640  -30.7950 C   0  0  0  0  0  0  0  0  0  0  0  0
   -5.4600   25.0510  -30.3740 C   0  0  0  0  0  0  0  0  0  0  0  0
   -6.1310   25.7690  -29.3120 N   0  0  0  0  0  0  0  0  0  0  0  0
   -4.4620   25.6410  -30.8460 O   0  0  0  0  0  0  0  0  0  0  0  0
   -7.3380   23.5110  -30.9350 C   0  0  0  0  0  0  0  0  0  0  0  0
   -7.5230   22.2270  -31.3410 C   0  0  0  0  0  0  0  0  0  0  0  0
   -8.6760   21.5110  -31.6150 C   0  0  0  0  0  0  0  0  0  0  0  0
   -8.5780   20.2010  -32.0150 C   0  0  0  0  0  0  0  0  0  0  0  0
   -7.3370   19.6140  -32.1390 C   0  0  0  0  0  0  0  0  0  0  0  0
   -7.2050   18.1910  -32.5720 C   0  0  0  0  0  0  0  0  0  0  0  0
   -8.3640   17.4770  -32.3190 F   0  0  0  0  0  0  0  0  0  0  0  0
   -6.2140   17.6240  -31.7890 F   0  0  0  0  0  0  0  0  0  0  0  0
   -6.8590   18.1560  -33.8930 F   0  0  0  0  0  0  0  0  0  0  0  0
   -6.1960   20.3620  -31.8550 C   0  0  0  0  0  0  0  0  0  0  0  0
   -6.2580   21.6790  -31.4510 C   0  0  0  0  0  0  0  0  0  0  0  0
   -1.5470   21.9750  -31.5060 H   0  0  0  0  0  0  0  0  0  0  0  0
   -1.8470   20.5560  -30.6410 H   0  0  0  0  0  0  0  0  0  0  0  0
   -1.2982   20.4096  -33.5316 H   0  0  0  0  0  0  0  0  0  0  0  0
   -2.4066   19.4103  -32.5145 H   0  0  0  0  0  0  0  0  0  0  0  0
   -3.0960   21.5790  -34.1751 H   0  0  0  0  0  0  0  0  0  0  0  0
   -4.1362   20.7384  -32.9702 H   0  0  0  0  0  0  0  0  0  0  0  0
   -6.6270   25.2350  -28.5380 H   0  0  0  0  0  0  0  0  0  0  0  0
   -6.1470   26.8090  -29.2790 H   0  0  0  0  0  0  0  0  0  0  0  0
   -8.1406   24.2390  -30.7456 H   0  0  0  0  0  0  0  0  0  0  0  0
   -9.6622   21.9875  -31.5131 H   0  0  0  0  0  0  0  0  0  0  0  0
   -9.4868   19.6220  -32.2357 H   0  0  0  0  0  0  0  0  0  0  0  0
   -5.2102   19.8846  -31.9568 H   0  0  0  0  0  0  0  0  0  0  0  0
  1  2  1  0
  2  3  1  0
  3  4  1  0
  4  5  1  0
  5  6  2  0
  5  7  1  0
  7  8  1  0
  8  9  1  0
  9 10  1  0
  9 11  2  0
  8 12  2  0
 12 13  1  0
 13 14  2  0
 14 15  1  0
 15 16  2  0
 16 17  1  0
 17 18  1  0
 17 19  1  0
 17 20  1  0
 16 21  1  0
 21 22  2  0
 22  7  1  0
 22 13  1  0
  1 23  1  0
  1 24  1  0
  2 25  1  0
  2 26  1  0
  3 27  1  0
  3 28  1  0
 10 29  1  0
 10 30  1  0
 12 31  1  0
 14 32  1  0
 15 33  1  0
 21 34  1  0
M  END
>  <smiles>  (84) 
NCCOC(=O)n1c(C(N)=O)cc2ccc(C(F)(F)F)cc21

>  <score_type>  (84) 
oracle

>  <origin>  (84) 
adg

>  <m_score__min__energy>  (84) 
-8.2300000000000004

>  <m_primary>  (84) 
energy

$$$$
86:0
     RDKit          3D

 41 42  0  0  0  0  0  0  0  0999 V2000
   -3.0790   17.7080  -34.5500 C   0  0  0  0  0  0  0  0  0  0  0  0
   -3.4920   18.8600  -33.7800 N   0  0  0  0  0  0  0  0  0  0  0  0
   -2.7000   20.0200  -33.7200 C   0  0  0  0  0  0  0  0  0  0  0  0
   -1.6030   19.9630  -34.4000 O   0  0  0  0  0  0  0  0  0  0  0  0
   -2.9480   21.2580  -33.0090 C   0  0  0  0  0  0  0  0  0  0  0  0
   -1.7850   21.6990  -32.3970 F   0  0  0  0  0  0  0  0  0  0  0  0
   -3.4930   22.2440  -33.8130 F   0  0  0  0  0  0  0  0  0  0  0  0
   -3.9380   21.0540  -31.9760 O   0  0  0  0  0  0  0  0  0  0  0  0
   -4.3450   22.2420  -31.3230 C   0  0  0  0  0  0  0  0  0  0  0  0
   -3.3670   22.8720  -30.8190 O   0  0  0  0  0  0  0  0  0  0  0  0
   -5.6490   22.7250  -31.2100 N   0  0  0  0  0  0  0  0  0  0  0  0
   -6.1520   23.9090  -30.8300 C   0  0  0  0  0  0  0  0  0  0  0  0
   -5.4150   25.0780  -30.4080 C   0  0  0  0  0  0  0  0  0  0  0  0
   -5.9510   25.9190  -29.3610 N   0  0  0  0  0  0  0  0  0  0  0  0
   -4.3190   25.4580  -30.8680 O   0  0  0  0  0  0  0  0  0  0  0  0
   -7.5440   23.8940  -30.8880 C   0  0  0  0  0  0  0  0  0  0  0  0
   -7.8900   22.6450  -31.3230 C   0  0  0  0  0  0  0  0  0  0  0  0
   -9.1420   22.1160  -31.5480 C   0  0  0  0  0  0  0  0  0  0  0  0
   -9.2630   20.8180  -31.9900 C   0  0  0  0  0  0  0  0  0  0  0  0
   -8.1340   20.0840  -32.1950 C   0  0  0  0  0  0  0  0  0  0  0  0
   -8.2750   18.6820  -32.6720 C   0  0  0  0  0  0  0  0  0  0  0  0
   -6.6420   18.0940  -33.2650 P   0  0  0  0  0  0  0  0  0  0  0  0
   -6.7350   16.6690  -33.6930 O   0  0  0  0  0  0  0  0  0  0  0  0
   -6.1000   19.0290  -34.5770 O   0  0  0  0  0  0  0  0  0  0  0  0
   -5.4900   18.2250  -32.0450 O   0  0  0  0  0  0  0  0  0  0  0  0
   -6.8710   20.6350  -31.9610 C   0  0  0  0  0  0  0  0  0  0  0  0
   -6.7310   21.9400  -31.5160 C   0  0  0  0  0  0  0  0  0  0  0  0
   -2.7879   16.8960  -33.8675 H   0  0  0  0  0  0  0  0  0  0  0  0
   -3.9129   17.3727  -35.1842 H   0  0  0  0  0  0  0  0  0  0  0  0
   -2.2220   17.9789  -35.1842 H   0  0  0  0  0  0  0  0  0  0  0  0
   -4.3720   18.8200  -33.2740 H   0  0  0  0  0  0  0  0  0  0  0  0
   -5.8190   25.6670  -28.3470 H   0  0  0  0  0  0  0  0  0  0  0  0
   -6.4810   26.7970  -29.6130 H   0  0  0  0  0  0  0  0  0  0  0  0
   -8.2259   24.7193  -30.6352 H   0  0  0  0  0  0  0  0  0  0  0  0
  -10.0400   22.7275  -31.3754 H   0  0  0  0  0  0  0  0  0  0  0  0
  -10.2553   20.3806  -32.1747 H   0  0  0  0  0  0  0  0  0  0  0  0
   -8.6205   18.0432  -31.8459 H   0  0  0  0  0  0  0  0  0  0  0  0
   -9.0087   18.6371  -33.4903 H   0  0  0  0  0  0  0  0  0  0  0  0
   -6.8570   19.3520  -35.0950 H   0  0  0  0  0  0  0  0  0  0  0  0
   -5.1300   19.1670  -32.0890 H   0  0  0  0  0  0  0  0  0  0  0  0
   -5.9734   20.0228  -32.1329 H   0  0  0  0  0  0  0  0  0  0  0  0
  1  2  1  0
  2  3  1  0
  3  4  2  0
  3  5  1  0
  5  6  1  0
  5  7  1  0
  5  8  1  0
  8  9  1  0
  9 10  2  0
  9 11  1  0
 11 12  1  0
 12 13  1  0
 13 14  1  0
 13 15  2  0
 12 16  2  0
 16 17  1  0
 17 18  2  0
 18 19  1  0
 19 20  2  0
 20 21  1  0
 21 22  1  0
 22 23  2  0
 22 24  1  0
 22 25  1  0
 20 26  1  0
 26 27  2  0
 27 11  1  0
 27 17  1  0
  1 28  1  0
  1 29  1  0
  1 30  1  0
  2 31  1  0
 14 32  1  0
 14 33  1  0
 16 34  1  0
 18 35  1  0
 19 36  1  0
 21 37  1  0
 21 38  1  0
 24 39  1  0
 25 40  1  0
 26 41  1  0
M  END
>  <smiles>  (85) 
CNC(=O)C(F)(F)OC(=O)n1c(C(N)=O)cc2ccc(CP(=O)(O)O)cc21

>  <score_type>  (85) 
oracle

>  <origin>  (85) 
adg

>  <m_score__min__energy>  (85) 
-8.4000000000000004

>  <m_primary>  (85) 
energy

$$$$
87:0
     RDKit          3D

 45 46  0  0  0  0  0  0  0  0999 V2000
   -5.7450   18.4080  -34.7050 C   0  0  0  0  0  0  0  0  0  0  0  0
   -6.5280   18.3820  -33.4630 N   0  0  0  0  0  0  0  0  0  0  0  0
   -6.8850   17.1110  -32.8690 C   0  0  0  0  0  0  0  0  0  0  0  0
   -6.9300   19.5990  -32.8580 C   0  0  0  0  0  0  0  0  0  0  0  0
   -8.2740   19.8670  -32.7100 C   0  0  0  0  0  0  0  0  0  0  0  0
   -8.6470   21.0530  -32.1180 C   0  0  0  0  0  0  0  0  0  0  0  0
   -7.6740   21.9390  -31.6910 C   0  0  0  0  0  0  0  0  0  0  0  0
   -7.8190   23.1490  -31.0900 C   0  0  0  0  0  0  0  0  0  0  0  0
   -6.5350   23.6270  -30.8700 C   0  0  0  0  0  0  0  0  0  0  0  0
   -6.3110   24.9500  -30.3030 C   0  0  0  0  0  0  0  0  0  0  0  0
   -5.0530   25.6260  -30.5080 N   0  0  0  0  0  0  0  0  0  0  0  0
   -7.1490   25.5870  -29.6220 O   0  0  0  0  0  0  0  0  0  0  0  0
   -5.6100   22.7580  -31.3050 N   0  0  0  0  0  0  0  0  0  0  0  0
   -4.2220   22.7260  -31.1790 C   0  0  0  0  0  0  0  0  0  0  0  0
   -3.6140   23.8710  -31.2100 O   0  0  0  0  0  0  0  0  0  0  0  0
   -3.1470   21.3410  -31.0050 S   0  0  0  0  0  0  0  0  0  0  0  0
   -1.9330   21.4390  -29.7100 C   0  0  0  0  0  0  0  0  0  0  0  0
   -2.5510   21.6150  -28.3320 C   0  0  0  0  0  0  0  0  0  0  0  0
   -2.0660   22.8580  -27.6480 C   0  0  0  0  0  0  0  0  0  0  0  0
   -3.0460   24.3270  -28.0380 P   0  0  0  0  0  0  0  0  0  0  0  0
   -4.4680   23.9280  -28.3910 O   0  0  0  0  0  0  0  0  0  0  0  0
   -2.3700   25.1750  -29.3350 O   0  0  0  0  0  0  0  0  0  0  0  0
   -3.1190   25.2990  -26.6570 O   0  0  0  0  0  0  0  0  0  0  0  0
   -6.3260   21.7110  -31.8190 C   0  0  0  0  0  0  0  0  0  0  0  0
   -5.9680   20.5090  -32.4180 C   0  0  0  0  0  0  0  0  0  0  0  0
   -4.6728   18.4436  -34.4618 H   0  0  0  0  0  0  0  0  0  0  0  0
   -5.9580   17.5023  -35.2918 H   0  0  0  0  0  0  0  0  0  0  0  0
   -6.0176   19.2976  -35.2918 H   0  0  0  0  0  0  0  0  0  0  0  0
   -6.8603   17.1988  -31.7728 H   0  0  0  0  0  0  0  0  0  0  0  0
   -7.8976   16.8271  -33.1914 H   0  0  0  0  0  0  0  0  0  0  0  0
   -6.1683   16.3414  -33.1914 H   0  0  0  0  0  0  0  0  0  0  0  0
   -9.0319   19.1493  -33.0571 H   0  0  0  0  0  0  0  0  0  0  0  0
   -9.7120   21.2945  -31.9854 H   0  0  0  0  0  0  0  0  0  0  0  0
   -8.7638   23.6489  -30.8302 H   0  0  0  0  0  0  0  0  0  0  0  0
   -4.1650   25.2280  -30.1060 H   0  0  0  0  0  0  0  0  0  0  0  0
   -5.0350   26.5240  -31.0650 H   0  0  0  0  0  0  0  0  0  0  0  0
   -1.3407   20.5121  -29.7133 H   0  0  0  0  0  0  0  0  0  0  0  0
   -1.3099   22.3236  -29.9078 H   0  0  0  0  0  0  0  0  0  0  0  0
   -3.6442   21.6732  -28.4389 H   0  0  0  0  0  0  0  0  0  0  0  0
   -2.2541   20.7532  -27.7163 H   0  0  0  0  0  0  0  0  0  0  0  0
   -2.1027   22.6938  -26.5609 H   0  0  0  0  0  0  0  0  0  0  0  0
   -1.0438   23.0468  -28.0079 H   0  0  0  0  0  0  0  0  0  0  0  0
   -1.9710   24.5690  -30.0100 H   0  0  0  0  0  0  0  0  0  0  0  0
   -3.8670   25.9260  -26.7450 H   0  0  0  0  0  0  0  0  0  0  0  0
   -4.9023   20.2697  -32.5481 H   0  0  0  0  0  0  0  0  0  0  0  0
  1  2  1  0
  2  3  1  0
  2  4  1  0
  4  5  2  0
  5  6  1  0
  6  7  2  0
  7  8  1  0
  8  9  2  0
  9 10  1  0
 10 11  1  0
 10 12  2  0
  9 13  1  0
 13 14  1  0
 14 15  2  0
 14 16  1  0
 16 17  1  0
 17 18  1  0
 18 19  1  0
 19 20  1  0
 20 21  2  0
 20 22  1  0
 20 23  1  0
 13 24  1  0
 24 25  2  0
 25  4  1  0
 24  7  1  0
  1 26  1  0
  1 27  1  0
  1 28  1  0
  3 29  1  0
  3 30  1  0
  3 31  1  0
  5 32  1  0
  6 33  1  0
  8 34  1  0
 11 35  1  0
 11 36  1  0
 17 37  1  0
 17 38  1  0
 18 39  1  0
 18 40  1  0
 19 41  1  0
 19 42  1  0
 22 43  1  0
 23 44  1  0
 25 45  1  0
M  END
>  <smiles>  (86) 
CN(C)c1ccc2cc(C(N)=O)n(C(=O)SCCCP(=O)(O)O)c2c1

>  <score_type>  (86) 
oracle

>  <origin>  (86) 
adg

>  <m_score__min__energy>  (86) 
-8.75

>  <m_primary>  (86) 
energy

$$$$
88:0
     RDKit          3D

 37 38  0  0  0  0  0  0  0  0999 V2000
   -3.9250   25.2850  -30.2800 N   0  0  0  0  0  0  0  0  0  0  0  0
   -5.3400   25.2360  -30.5700 C   0  0  0  0  0  0  0  0  0  0  0  0
   -5.9250   26.3420  -30.4990 O   0  0  0  0  0  0  0  0  0  0  0  0
   -5.9520   23.9710  -30.9060 C   0  0  0  0  0  0  0  0  0  0  0  0
   -7.2900   23.8690  -31.2960 C   0  0  0  0  0  0  0  0  0  0  0  0
   -7.5890   22.5560  -31.5530 C   0  0  0  0  0  0  0  0  0  0  0  0
   -8.7570   21.9510  -31.9610 C   0  0  0  0  0  0  0  0  0  0  0  0
   -8.8130   20.5900  -32.1560 C   0  0  0  0  0  0  0  0  0  0  0  0
   -7.6560   19.8780  -31.9230 C   0  0  0  0  0  0  0  0  0  0  0  0
   -7.7020   18.3890  -32.1310 C   0  0  0  0  0  0  0  0  0  0  0  0
   -7.2660   18.0440  -33.3880 F   0  0  0  0  0  0  0  0  0  0  0  0
   -6.8990   17.7450  -31.2090 F   0  0  0  0  0  0  0  0  0  0  0  0
   -8.9880   17.9300  -31.9410 F   0  0  0  0  0  0  0  0  0  0  0  0
   -6.4870   20.4890  -31.5130 C   0  0  0  0  0  0  0  0  0  0  0  0
   -6.4200   21.8580  -31.3150 C   0  0  0  0  0  0  0  0  0  0  0  0
   -5.4530   22.7260  -30.9280 N   0  0  0  0  0  0  0  0  0  0  0  0
   -4.1390   22.3200  -30.6110 C   0  0  0  0  0  0  0  0  0  0  0  0
   -3.2640   22.3970  -31.5200 O   0  0  0  0  0  0  0  0  0  0  0  0
   -3.7100   21.8420  -29.3950 O   0  0  0  0  0  0  0  0  0  0  0  0
   -3.5750   22.6700  -28.2670 C   0  0  0  0  0  0  0  0  0  0  0  0
   -4.5030   23.4650  -28.0510 O   0  0  0  0  0  0  0  0  0  0  0  0
   -2.3580   22.5090  -27.4680 C   0  0  0  0  0  0  0  0  0  0  0  0
   -1.3380   23.5780  -27.6240 C   0  0  0  0  0  0  0  0  0  0  0  0
   -1.4530   24.3000  -28.8930 C   0  0  0  0  0  0  0  0  0  0  0  0
   -1.6050   25.5510  -28.9710 O   0  0  0  0  0  0  0  0  0  0  0  0
   -1.3980   23.6160  -30.1030 O   0  0  0  0  0  0  0  0  0  0  0  0
   -3.5000   26.0350  -29.7170 H   0  0  0  0  0  0  0  0  0  0  0  0
   -3.2860   24.5220  -30.6560 H   0  0  0  0  0  0  0  0  0  0  0  0
   -7.9932   24.7104  -31.3831 H   0  0  0  0  0  0  0  0  0  0  0  0
   -9.6551   22.5625  -32.1329 H   0  0  0  0  0  0  0  0  0  0  0  0
   -9.7384   20.0932  -32.4827 H   0  0  0  0  0  0  0  0  0  0  0  0
   -5.5906   19.8754  -31.3402 H   0  0  0  0  0  0  0  0  0  0  0  0
   -2.6516   22.4742  -26.4085 H   0  0  0  0  0  0  0  0  0  0  0  0
   -1.8820   21.5857  -27.8299 H   0  0  0  0  0  0  0  0  0  0  0  0
   -1.4555   24.2972  -26.8000 H   0  0  0  0  0  0  0  0  0  0  0  0
   -0.3503   23.0940  -27.6100 H   0  0  0  0  0  0  0  0  0  0  0  0
   -1.8750   22.7040  -30.1630 H   0  0  0  0  0  0  0  0  0  0  0  0
  1  2  1  0
  2  3  2  0
  2  4  1  0
  4  5  2  0
  5  6  1  0
  6  7  2  0
  7  8  1  0
  8  9  2  0
  9 10  1  0
 10 11  1  0
 10 12  1  0
 10 13  1  0
  9 14  1  0
 14 15  2  0
 15 16  1  0
 16 17  1  0
 17 18  2  0
 17 19  1  0
 19 20  1  0
 20 21  2  0
 20 22  1  0
 22 23  1  0
 23 24  1  0
 24 25  2  0
 24 26  1  0
 16  4  1  0
 15  6  1  0
  1 27  1  0
  1 28  1  0
  5 29  1  0
  7 30  1  0
  8 31  1  0
 14 32  1  0
 22 33  1  0
 22 34  1  0
 23 35  1  0
 23 36  1  0
 26 37  1  0
M  END
>  <smiles>  (87) 
NC(=O)c1cc2ccc(C(F)(F)F)cc2n1C(=O)OC(=O)CCC(=O)O

>  <score_type>  (87) 
oracle

>  <origin>  (87) 
adg

>  <m_score__min__energy>  (87) 
-8.4800000000000004

>  <m_primary>  (87) 
energy

$$$$
89:0
     RDKit          3D

 50 51  0  0  0  0  0  0  0  0999 V2000
   -0.7670   20.6450  -33.4040 C   0  0  0  0  0  0  0  0  0  0  0  0
   -1.2510   20.7260  -32.0620 N   0  0  0  0  0  0  0  0  0  0  0  0
   -0.2390   21.1620  -31.0870 C   0  0  0  0  0  0  0  0  0  0  0  0
    0.7660   20.4560  -30.8500 O   0  0  0  0  0  0  0  0  0  0  0  0
   -0.3670   22.3540  -30.4110 O   0  0  0  0  0  0  0  0  0  0  0  0
   -0.1570   22.4410  -29.0200 C   0  0  0  0  0  0  0  0  0  0  0  0
   -1.3290   22.9990  -28.2730 C   0  0  0  0  0  0  0  0  0  0  0  0
   -1.3580   24.5140  -28.3380 C   0  0  0  0  0  0  0  0  0  0  0  0
   -1.7790   24.8740  -29.6070 O   0  0  0  0  0  0  0  0  0  0  0  0
   -2.5060   20.4700  -31.5420 C   0  0  0  0  0  0  0  0  0  0  0  0
   -3.1020   19.4110  -32.0040 O   0  0  0  0  0  0  0  0  0  0  0  0
   -3.2620   21.1940  -30.5650 N   0  0  0  0  0  0  0  0  0  0  0  0
   -3.2920   20.6590  -29.2400 C   0  0  0  0  0  0  0  0  0  0  0  0
   -3.9010   22.3800  -30.9980 C   0  0  0  0  0  0  0  0  0  0  0  0
   -3.0710   23.2420  -31.5160 O   0  0  0  0  0  0  0  0  0  0  0  0
   -5.2290   22.7930  -30.9860 N   0  0  0  0  0  0  0  0  0  0  0  0
   -5.8680   23.8800  -30.5690 C   0  0  0  0  0  0  0  0  0  0  0  0
   -5.3320   25.2400  -30.3440 C   0  0  0  0  0  0  0  0  0  0  0  0
   -3.9270   25.4910  -30.4800 N   0  0  0  0  0  0  0  0  0  0  0  0
   -6.0400   26.2190  -30.0330 O   0  0  0  0  0  0  0  0  0  0  0  0
   -7.2510   23.7070  -30.5430 C   0  0  0  0  0  0  0  0  0  0  0  0
   -7.4640   22.4360  -30.9760 C   0  0  0  0  0  0  0  0  0  0  0  0
   -8.6660   21.7640  -31.1370 C   0  0  0  0  0  0  0  0  0  0  0  0
   -8.6700   20.4680  -31.5920 C   0  0  0  0  0  0  0  0  0  0  0  0
   -7.4540   19.8880  -31.8710 C   0  0  0  0  0  0  0  0  0  0  0  0
   -7.4540   18.4870  -32.3620 C   0  0  0  0  0  0  0  0  0  0  0  0
   -6.9180   18.4000  -33.6170 F   0  0  0  0  0  0  0  0  0  0  0  0
   -6.6100   17.7910  -31.4850 F   0  0  0  0  0  0  0  0  0  0  0  0
   -8.7450   17.9950  -32.2950 F   0  0  0  0  0  0  0  0  0  0  0  0
   -6.2460   20.5770  -31.7040 C   0  0  0  0  0  0  0  0  0  0  0  0
   -6.2420   21.8920  -31.2430 C   0  0  0  0  0  0  0  0  0  0  0  0
    0.3178   20.4634  -33.3922 H   0  0  0  0  0  0  0  0  0  0  0  0
   -1.2714   19.8188  -33.9265 H   0  0  0  0  0  0  0  0  0  0  0  0
   -0.9749   21.5904  -33.9265 H   0  0  0  0  0  0  0  0  0  0  0  0
    0.0525   21.4319  -28.6357 H   0  0  0  0  0  0  0  0  0  0  0  0
    0.6854   23.1305  -28.8623 H   0  0  0  0  0  0  0  0  0  0  0  0
   -2.2557   22.6043  -28.7151 H   0  0  0  0  0  0  0  0  0  0  0  0
   -1.2407   22.7000  -27.2181 H   0  0  0  0  0  0  0  0  0  0  0  0
   -2.0573   24.9077  -27.5857 H   0  0  0  0  0  0  0  0  0  0  0  0
   -0.3595   24.9271  -28.1322 H   0  0  0  0  0  0  0  0  0  0  0  0
   -1.5530   24.1560  -30.2530 H   0  0  0  0  0  0  0  0  0  0  0  0
   -3.2459   21.4817  -28.5113 H   0  0  0  0  0  0  0  0  0  0  0  0
   -4.2233   20.0921  -29.0945 H   0  0  0  0  0  0  0  0  0  0  0  0
   -2.4299   19.9915  -29.0945 H   0  0  0  0  0  0  0  0  0  0  0  0
   -3.4950   26.0430  -29.7280 H   0  0  0  0  0  0  0  0  0  0  0  0
   -3.3780   25.1380  -31.2860 H   0  0  0  0  0  0  0  0  0  0  0  0
   -8.0092   24.4429  -30.2370 H   0  0  0  0  0  0  0  0  0  0  0  0
   -9.6148   22.2679  -30.9007 H   0  0  0  0  0  0  0  0  0  0  0  0
   -9.6107   19.9143  -31.7283 H   0  0  0  0  0  0  0  0  0  0  0  0
   -5.2946   20.0770  -31.9382 H   0  0  0  0  0  0  0  0  0  0  0  0
  1  2  1  0
  2  3  1  0
  3  4  2  0
  3  5  1  0
  5  6  1  0
  6  7  1  0
  7  8  1  0
  8  9  1  0
  2 10  1  0
 10 11  2  0
 10 12  1  0
 12 13  1  0
 12 14  1  0
 14 15  2  0
 14 16  1  0
 16 17  1  0
 17 18  1  0
 18 19  1  0
 18 20  2  0
 17 21  2  0
 21 22  1  0
 22 23  2  0
 23 24  1  0
 24 25  2  0
 25 26  1  0
 26 27  1  0
 26 28  1  0
 26 29  1  0
 25 30  1  0
 30 31  2  0
 31 16  1  0
 31 22  1  0
  1 32  1  0
  1 33  1  0
  1 34  1  0
  6 35  1  0
  6 36  1  0
  7 37  1  0
  7 38  1  0
  8 39  1  0
  8 40  1  0
  9 41  1  0
 13 42  1  0
 13 43  1  0
 13 44  1  0
 19 45  1  0
 19 46  1  0
 21 47  1  0
 23 48  1  0
 24 49  1  0
 30 50  1  0
M  END
>  <smiles>  (88) 
CN(C(=O)OCCCO)C(=O)N(C)C(=O)n1c(C(N)=O)cc2ccc(C(F)(F)F)cc21

>  <score_type>  (88) 
oracle

>  <origin>  (88) 
adg

>  <m_score__min__energy>  (88) 
-8.1300000000000008

>  <m_primary>  (88) 
energy

$$$$
90:0
     RDKit          3D

 47 49  0  0  0  0  0  0  0  0999 V2000
    0.6310   22.7930  -27.6140 C   0  0  0  0  0  0  0  0  0  0  0  0
   -0.1630   23.9590  -28.1060 C   0  0  0  0  0  0  0  0  0  0  0  0
   -0.0040   25.2090  -27.6690 O   0  0  0  0  0  0  0  0  0  0  0  0
   -0.8620   25.9730  -28.3140 C   0  0  0  0  0  0  0  0  0  0  0  0
   -0.9470   27.2020  -28.1140 O   0  0  0  0  0  0  0  0  0  0  0  0
   -1.5560   25.2410  -29.1470 O   0  0  0  0  0  0  0  0  0  0  0  0
   -1.1500   23.9870  -29.0440 C   0  0  0  0  0  0  0  0  0  0  0  0
   -1.6780   22.8440  -29.8130 C   0  0  0  0  0  0  0  0  0  0  0  0
   -2.4810   23.2590  -30.9040 O   0  0  0  0  0  0  0  0  0  0  0  0
   -3.3950   22.4140  -31.5150 C   0  0  0  0  0  0  0  0  0  0  0  0
   -2.8460   21.4360  -32.1340 O   0  0  0  0  0  0  0  0  0  0  0  0
   -4.7980   22.5610  -31.4940 N   0  0  0  0  0  0  0  0  0  0  0  0
   -5.5050   23.6300  -31.1150 C   0  0  0  0  0  0  0  0  0  0  0  0
   -5.1270   24.9400  -30.6520 C   0  0  0  0  0  0  0  0  0  0  0  0
   -3.8970   25.3210  -30.0670 N   0  0  0  0  0  0  0  0  0  0  0  0
   -5.9670   25.8900  -30.7660 O   0  0  0  0  0  0  0  0  0  0  0  0
   -6.8510   23.2610  -31.2690 C   0  0  0  0  0  0  0  0  0  0  0  0
   -6.9320   21.9750  -31.7400 C   0  0  0  0  0  0  0  0  0  0  0  0
   -8.0300   21.1990  -32.0400 C   0  0  0  0  0  0  0  0  0  0  0  0
   -7.8000   19.9230  -32.5050 C   0  0  0  0  0  0  0  0  0  0  0  0
   -6.5280   19.4350  -32.6640 C   0  0  0  0  0  0  0  0  0  0  0  0
   -6.2120   18.0930  -33.1530 C   0  0  0  0  0  0  0  0  0  0  0  0
   -7.2850   17.0740  -33.0160 C   0  0  0  0  0  0  0  0  0  0  0  0
   -5.0100   17.6170  -32.3260 C   0  0  0  0  0  0  0  0  0  0  0  0
   -5.7540   18.1330  -34.5810 C   0  0  0  0  0  0  0  0  0  0  0  0
   -6.1180   19.0190  -35.3820 O   0  0  0  0  0  0  0  0  0  0  0  0
   -4.8970   17.1540  -35.0290 O   0  0  0  0  0  0  0  0  0  0  0  0
   -5.4440   20.2650  -32.3440 C   0  0  0  0  0  0  0  0  0  0  0  0
   -5.6290   21.5490  -31.8760 C   0  0  0  0  0  0  0  0  0  0  0  0
    0.6336   22.7891  -26.5140 H   0  0  0  0  0  0  0  0  0  0  0  0
    0.1796   21.8602  -27.9829 H   0  0  0  0  0  0  0  0  0  0  0  0
    1.6644   22.8712  -27.9829 H   0  0  0  0  0  0  0  0  0  0  0  0
   -0.8325   22.2557  -30.1989 H   0  0  0  0  0  0  0  0  0  0  0  0
   -2.3075   22.2448  -29.1387 H   0  0  0  0  0  0  0  0  0  0  0  0
   -3.7460   25.4000  -29.0240 H   0  0  0  0  0  0  0  0  0  0  0  0
   -3.1150   25.5410  -30.7570 H   0  0  0  0  0  0  0  0  0  0  0  0
   -7.7126   23.9071  -31.0452 H   0  0  0  0  0  0  0  0  0  0  0  0
   -9.0525   21.5841  -31.9129 H   0  0  0  0  0  0  0  0  0  0  0  0
   -8.6568   19.2800  -32.7548 H   0  0  0  0  0  0  0  0  0  0  0  0
   -7.4804   16.8884  -31.9495 H   0  0  0  0  0  0  0  0  0  0  0  0
   -8.2029   17.4409  -33.4985 H   0  0  0  0  0  0  0  0  0  0  0  0
   -6.9659   16.1384  -33.4985 H   0  0  0  0  0  0  0  0  0  0  0  0
   -5.2424   17.7090  -31.2548 H   0  0  0  0  0  0  0  0  0  0  0  0
   -4.7937   16.5653  -32.5652 H   0  0  0  0  0  0  0  0  0  0  0  0
   -4.1323   18.2354  -32.5652 H   0  0  0  0  0  0  0  0  0  0  0  0
   -4.2340   17.2950  -35.7990 H   0  0  0  0  0  0  0  0  0  0  0  0
   -4.4204   19.8823  -32.4694 H   0  0  0  0  0  0  0  0  0  0  0  0
  1  2  1  0
  2  3  1  0
  3  4  1  0
  4  5  2  0
  4  6  1  0
  6  7  1  0
  7  8  1  0
  8  9  1  0
  9 10  1  0
 10 11  2  0
 10 12  1  0
 12 13  1  0
 13 14  1  0
 14 15  1  0
 14 16  2  0
 13 17  2  0
 17 18  1  0
 18 19  2  0
 19 20  1  0
 20 21  2  0
 21 22  1  0
 22 23  1  0
 22 24  1  0
 22 25  1  0
 25 26  2  0
 25 27  1  0
 21 28  1  0
 28 29  2  0
  7  2  2  0
 29 12  1  0
 29 18  1  0
  1 30  1  0
  1 31  1  0
  1 32  1  0
  8 33  1  0
  8 34  1  0
 15 35  1  0
 15 36  1  0
 17 37  1  0
 19 38  1  0
 20 39  1  0
 23 40  1  0
 23 41  1  0
 23 42  1  0
 24 43  1  0
 24 44  1  0
 24 45  1  0
 27 46  1  0
 28 47  1  0
M  END
>  <smiles>  (89) 
Cc1oc(=O)oc1COC(=O)n1c(C(N)=O)cc2ccc(C(C)(C)C(=O)O)cc21

>  <score_type>  (89) 
oracle

>  <origin>  (89) 
adg

>  <m_score__min__energy>  (89) 
-9.0299999999999994

>  <m_primary>  (89) 
energy

$$$$
91:0
     RDKit          3D

 39 40  0  0  0  0  0  0  0  0999 V2000
   -5.7080   16.5830  -33.6530 C   0  0  0  0  0  0  0  0  0  0  0  0
   -6.5210   17.2810  -32.6140 C   0  0  0  0  0  0  0  0  0  0  0  0
   -6.3080   17.1820  -31.4390 O   0  0  0  0  0  0  0  0  0  0  0  0
   -7.6380   18.1300  -33.0740 C   0  0  0  0  0  0  0  0  0  0  0  0
   -7.5660   19.4580  -32.4020 C   0  0  0  0  0  0  0  0  0  0  0  0
   -8.7240   19.9520  -31.8520 C   0  0  0  0  0  0  0  0  0  0  0  0
   -8.6550   21.1790  -31.2300 C   0  0  0  0  0  0  0  0  0  0  0  0
   -7.4480   21.8590  -31.1830 C   0  0  0  0  0  0  0  0  0  0  0  0
   -7.1720   23.0690  -30.6250 C   0  0  0  0  0  0  0  0  0  0  0  0
   -5.8000   23.3080  -30.8490 C   0  0  0  0  0  0  0  0  0  0  0  0
   -5.2290   24.5730  -30.4100 C   0  0  0  0  0  0  0  0  0  0  0  0
   -5.3550   24.9510  -29.0230 N   0  0  0  0  0  0  0  0  0  0  0  0
   -4.6210   25.3920  -31.1210 O   0  0  0  0  0  0  0  0  0  0  0  0
   -5.2560   22.2820  -31.5140 N   0  0  0  0  0  0  0  0  0  0  0  0
   -3.9310   21.9420  -31.8250 C   0  0  0  0  0  0  0  0  0  0  0  0
   -3.7470   21.4540  -33.0100 O   0  0  0  0  0  0  0  0  0  0  0  0
   -2.7340   22.0340  -31.0380 C   0  0  0  0  0  0  0  0  0  0  0  0
   -1.6440   21.4490  -31.2150 O   0  0  0  0  0  0  0  0  0  0  0  0
   -2.7370   22.8820  -29.9040 O   0  0  0  0  0  0  0  0  0  0  0  0
   -1.5270   23.0270  -29.1420 C   0  0  0  0  0  0  0  0  0  0  0  0
   -1.3550   24.4970  -28.9790 C   0  0  0  0  0  0  0  0  0  0  0  0
   -0.2920   25.0220  -28.5520 O   0  0  0  0  0  0  0  0  0  0  0  0
   -2.4550   25.2950  -29.3320 O   0  0  0  0  0  0  0  0  0  0  0  0
   -6.2870   21.3930  -31.7200 C   0  0  0  0  0  0  0  0  0  0  0  0
   -6.3660   20.1500  -32.3450 C   0  0  0  0  0  0  0  0  0  0  0  0
   -4.9605   15.9412  -33.1637 H   0  0  0  0  0  0  0  0  0  0  0  0
   -6.3672   15.9652  -34.2805 H   0  0  0  0  0  0  0  0  0  0  0  0
   -5.1971   17.3281  -34.2805 H   0  0  0  0  0  0  0  0  0  0  0  0
   -7.5694   18.2667  -34.1633 H   0  0  0  0  0  0  0  0  0  0  0  0
   -8.5929   17.6449  -32.8232 H   0  0  0  0  0  0  0  0  0  0  0  0
   -9.6682   19.3903  -31.9062 H   0  0  0  0  0  0  0  0  0  0  0  0
   -9.5541   21.6175  -30.7724 H   0  0  0  0  0  0  0  0  0  0  0  0
   -7.8791   23.7301  -30.1025 H   0  0  0  0  0  0  0  0  0  0  0  0
   -4.5220   25.2630  -28.4810 H   0  0  0  0  0  0  0  0  0  0  0  0
   -6.2840   24.9180  -28.5390 H   0  0  0  0  0  0  0  0  0  0  0  0
   -1.6250   22.5372  -28.1620 H   0  0  0  0  0  0  0  0  0  0  0  0
   -0.6641   22.5603  -29.6396 H   0  0  0  0  0  0  0  0  0  0  0  0
   -3.3790   24.8790  -29.4170 H   0  0  0  0  0  0  0  0  0  0  0  0
   -5.4647   19.7123  -32.7989 H   0  0  0  0  0  0  0  0  0  0  0  0
  1  2  1  0
  2  3  2  0
  2  4  1  0
  4  5  1  0
  5  6  2  0
  6  7  1  0
  7  8  2  0
  8  9  1  0
  9 10  2  0
 10 11  1  0
 11 12  1  0
 11 13  2  0
 10 14  1  0
 14 15  1  0
 15 16  2  0
 15 17  1  0
 17 18  2  0
 17 19  1  0
 19 20  1  0
 20 21  1  0
 21 22  2  0
 21 23  1  0
 14 24  1  0
 24 25  2  0
 25  5  1  0
 24  8  1  0
  1 26  1  0
  1 27  1  0
  1 28  1  0
  4 29  1  0
  4 30  1  0
  6 31  1  0
  7 32  1  0
  9 33  1  0
 12 34  1  0
 12 35  1  0
 20 36  1  0
 20 37  1  0
 23 38  1  0
 25 39  1  0
M  END
>  <smiles>  (90) 
CC(=O)Cc1ccc2cc(C(N)=O)n(C(=O)C(=O)OCC(=O)O)c2c1

>  <score_type>  (90) 
oracle

>  <origin>  (90) 
adg

>  <m_score__min__energy>  (90) 
-9.5700000000000003

>  <m_primary>  (90) 
energy

$$$$
92:0
     RDKit          3D

 48 50  0  0  0  0  0  0  0  0999 V2000
   -0.5600   18.7840  -31.6530 C   0  0  0  0  0  0  0  0  0  0  0  0
   -0.8840   18.9660  -32.9650 C   0  0  0  0  0  0  0  0  0  0  0  0
   -2.1520   18.4300  -33.3690 C   0  0  0  0  0  0  0  0  0  0  0  0
   -3.3460   19.0330  -33.3630 C   0  0  0  0  0  0  0  0  0  0  0  0
   -3.3550   20.4050  -32.8840 C   0  0  0  0  0  0  0  0  0  0  0  0
   -3.5200   21.4140  -33.6500 O   0  0  0  0  0  0  0  0  0  0  0  0
   -3.1990   20.7830  -31.5490 O   0  0  0  0  0  0  0  0  0  0  0  0
   -4.4360   18.3240  -33.9550 C   0  0  0  0  0  0  0  0  0  0  0  0
   -4.1850   17.8670  -35.1630 O   0  0  0  0  0  0  0  0  0  0  0  0
   -5.7290   18.0120  -33.5220 N   0  0  0  0  0  0  0  0  0  0  0  0
   -6.4580   16.9010  -33.4610 C   0  0  0  0  0  0  0  0  0  0  0  0
   -6.2500   15.6600  -34.2450 C   0  0  0  0  0  0  0  0  0  0  0  0
   -4.9500   15.2100  -34.5900 N   0  0  0  0  0  0  0  0  0  0  0  0
   -7.2120   14.9500  -34.6390 O   0  0  0  0  0  0  0  0  0  0  0  0
   -7.6030   17.0500  -32.7150 C   0  0  0  0  0  0  0  0  0  0  0  0
   -7.5940   18.3490  -32.2840 C   0  0  0  0  0  0  0  0  0  0  0  0
   -8.5210   19.0030  -31.5000 C   0  0  0  0  0  0  0  0  0  0  0  0
   -8.2880   20.3250  -31.1930 C   0  0  0  0  0  0  0  0  0  0  0  0
   -7.1580   20.9660  -31.6610 C   0  0  0  0  0  0  0  0  0  0  0  0
   -6.9720   22.3240  -31.3170 N   0  0  0  0  0  0  0  0  0  0  0  0
   -6.7550   23.2650  -32.4200 C   0  0  0  0  0  0  0  0  0  0  0  0
   -6.1860   24.5780  -31.9310 C   0  0  0  0  0  0  0  0  0  0  0  0
   -4.8100   24.1650  -30.8470 S   0  0  0  0  0  0  0  0  0  0  0  0
   -3.8570   23.3060  -31.6010 O   0  0  0  0  0  0  0  0  0  0  0  0
   -4.1870   25.4300  -30.3250 O   0  0  0  0  0  0  0  0  0  0  0  0
   -5.5680   23.2150  -29.5180 C   0  0  0  0  0  0  0  0  0  0  0  0
   -6.9790   22.8670  -29.9960 C   0  0  0  0  0  0  0  0  0  0  0  0
   -6.2480   20.2560  -32.4530 C   0  0  0  0  0  0  0  0  0  0  0  0
   -6.4570   18.9240  -32.7780 C   0  0  0  0  0  0  0  0  0  0  0  0
    0.3956   19.1658  -31.2644 H   0  0  0  0  0  0  0  0  0  0  0  0
   -1.2543   18.2554  -30.9832 H   0  0  0  0  0  0  0  0  0  0  0  0
   -0.2176   19.4889  -33.6668 H   0  0  0  0  0  0  0  0  0  0  0  0
   -2.1409   17.3908  -33.7296 H   0  0  0  0  0  0  0  0  0  0  0  0
   -3.4650   21.7210  -31.2520 H   0  0  0  0  0  0  0  0  0  0  0  0
   -4.7570   14.1950  -34.4360 H   0  0  0  0  0  0  0  0  0  0  0  0
   -4.2530   15.8890  -34.9740 H   0  0  0  0  0  0  0  0  0  0  0  0
   -8.3664   16.2855  -32.5079 H   0  0  0  0  0  0  0  0  0  0  0  0
   -9.4185   18.4848  -31.1314 H   0  0  0  0  0  0  0  0  0  0  0  0
   -9.0082   20.8751  -30.5696 H   0  0  0  0  0  0  0  0  0  0  0  0
   -6.0520   22.8170  -33.1377 H   0  0  0  0  0  0  0  0  0  0  0  0
   -7.7266   23.4676  -32.8942 H   0  0  0  0  0  0  0  0  0  0  0  0
   -5.8327   25.1795  -32.7815 H   0  0  0  0  0  0  0  0  0  0  0  0
   -6.9472   25.1691  -31.4007 H   0  0  0  0  0  0  0  0  0  0  0  0
   -4.9921   22.2972  -29.3283 H   0  0  0  0  0  0  0  0  0  0  0  0
   -5.5917   23.7867  -28.5785 H   0  0  0  0  0  0  0  0  0  0  0  0
   -7.4154   22.1270  -29.3090 H   0  0  0  0  0  0  0  0  0  0  0  0
   -7.5737   23.7923  -30.0095 H   0  0  0  0  0  0  0  0  0  0  0  0
   -5.3473   20.7657  -32.8258 H   0  0  0  0  0  0  0  0  0  0  0  0
  1  2  2  0
  2  3  1  0
  3  4  2  0
  4  5  1  0
  5  6  2  0
  5  7  1  0
  4  8  1  0
  8  9  2  0
  8 10  1  0
 10 11  1  0
 11 12  1  0
 12 13  1  0
 12 14  2  0
 11 15  2  0
 15 16  1  0
 16 17  2  0
 17 18  1  0
 18 19  2  0
 19 20  1  0
 20 21  1  0
 21 22  1  0
 22 23  1  0
 23 24  2  0
 23 25  2  0
 23 26  1  0
 26 27  1  0
 19 28  1  0
 28 29  2  0
 29 10  1  0
 29 16  1  0
 27 20  1  0
  1 30  1  0
  1 31  1  0
  2 32  1  0
  3 33  1  0
  7 34  1  0
 13 35  1  0
 13 36  1  0
 15 37  1  0
 17 38  1  0
 18 39  1  0
 21 40  1  0
 21 41  1  0
 22 42  1  0
 22 43  1  0
 26 44  1  0
 26 45  1  0
 27 46  1  0
 27 47  1  0
 28 48  1  0
M  END
>  <smiles>  (91) 
C=C/C=C(\C(=O)O)C(=O)n1c(C(N)=O)cc2ccc(N3CCS(=O)(=O)CC3)cc21

>  <score_type>  (91) 
oracle

>  <origin>  (91) 
adg

>  <m_score__min__energy>  (91) 
-10.27

>  <m_primary>  (91) 
energy

$$$$
93:0
     RDKit          3D

 37 38  0  0  0  0  0  0  0  0999 V2000
   -1.2850   21.7960  -31.5750 N   0  0  0  0  0  0  0  0  0  0  0  0
   -1.9440   21.4100  -32.8200 C   0  0  0  0  0  0  0  0  0  0  0  0
   -1.2190   21.5630  -33.8140 O   0  0  0  0  0  0  0  0  0  0  0  0
   -3.3070   20.9130  -32.7830 C   0  0  0  0  0  0  0  0  0  0  0  0
   -3.6370   19.7280  -33.4690 C   0  0  0  0  0  0  0  0  0  0  0  0
   -4.9640   19.4730  -33.2870 C   0  0  0  0  0  0  0  0  0  0  0  0
   -5.7430   18.4350  -33.7460 C   0  0  0  0  0  0  0  0  0  0  0  0
   -7.0580   18.4020  -33.4060 C   0  0  0  0  0  0  0  0  0  0  0  0
   -7.5790   19.3810  -32.6300 C   0  0  0  0  0  0  0  0  0  0  0  0
   -9.0180   19.3280  -32.2700 C   0  0  0  0  0  0  0  0  0  0  0  0
   -9.1850   18.1860  -31.4910 F   0  0  0  0  0  0  0  0  0  0  0  0
   -9.8540   19.3360  -33.3530 F   0  0  0  0  0  0  0  0  0  0  0  0
   -9.3260   20.4040  -31.4420 F   0  0  0  0  0  0  0  0  0  0  0  0
   -6.7740   20.4270  -32.1730 C   0  0  0  0  0  0  0  0  0  0  0  0
   -5.4400   20.4980  -32.4950 C   0  0  0  0  0  0  0  0  0  0  0  0
   -4.4300   21.3720  -32.1910 N   0  0  0  0  0  0  0  0  0  0  0  0
   -4.4850   22.5720  -31.4620 C   0  0  0  0  0  0  0  0  0  0  0  0
   -3.3990   23.1750  -31.1340 O   0  0  0  0  0  0  0  0  0  0  0  0
   -5.6270   23.2690  -31.0080 N   0  0  0  0  0  0  0  0  0  0  0  0
   -5.3460   24.7310  -30.1200 S   0  0  0  0  0  0  0  0  0  0  0  0
   -6.6000   25.5390  -29.9910 O   0  0  0  0  0  0  0  0  0  0  0  0
   -4.3620   25.5460  -30.9060 O   0  0  0  0  0  0  0  0  0  0  0  0
   -4.6830   24.4260  -28.5760 N   0  0  0  0  0  0  0  0  0  0  0  0
   -3.2760   24.5540  -28.4020 C   0  0  0  0  0  0  0  0  0  0  0  0
   -2.4860   24.8780  -29.3160 O   0  0  0  0  0  0  0  0  0  0  0  0
   -2.7060   24.2850  -27.0490 C   0  0  0  0  0  0  0  0  0  0  0  0
   -2.6180   22.9530  -26.7870 F   0  0  0  0  0  0  0  0  0  0  0  0
   -3.4960   24.9060  -26.1120 F   0  0  0  0  0  0  0  0  0  0  0  0
   -1.4250   24.8050  -26.9940 F   0  0  0  0  0  0  0  0  0  0  0  0
   -0.9470   21.0490  -30.9320 H   0  0  0  0  0  0  0  0  0  0  0  0
   -1.1750   22.8270  -31.3740 H   0  0  0  0  0  0  0  0  0  0  0  0
   -2.9398   19.1106  -34.0545 H   0  0  0  0  0  0  0  0  0  0  0  0
   -5.3083   17.6459  -34.3772 H   0  0  0  0  0  0  0  0  0  0  0  0
   -7.6983   17.5809  -33.7608 H   0  0  0  0  0  0  0  0  0  0  0  0
   -7.2176   21.2110  -31.5416 H   0  0  0  0  0  0  0  0  0  0  0  0
   -6.5770   22.9910  -31.1760 H   0  0  0  0  0  0  0  0  0  0  0  0
   -5.3360   24.1560  -27.8090 H   0  0  0  0  0  0  0  0  0  0  0  0
  1  2  1  0
  2  3  2  0
  2  4  1  0
  4  5  2  0
  5  6  1  0
  6  7  2  0
  7  8  1  0
  8  9  2  0
  9 10  1  0
 10 11  1  0
 10 12  1  0
 10 13  1  0
  9 14  1  0
 14 15  2  0
 15 16  1  0
 16 17  1  0
 17 18  2  0
 17 19  1  0
 19 20  1  0
 20 21  2  0
 20 22  2  0
 20 23  1  0
 23 24  1  0
 24 25  2  0
 24 26  1  0
 26 27  1  0
 26 28  1  0
 26 29  1  0
 16  4  1  0
 15  6  1  0
  1 30  1  0
  1 31  1  0
  5 32  1  0
  7 33  1  0
  8 34  1  0
 14 35  1  0
 19 36  1  0
 23 37  1  0
M  END
>  <smiles>  (92) 
NC(=O)c1cc2ccc(C(F)(F)F)cc2n1C(=O)NS(=O)(=O)NC(=O)C(F)(F)F

>  <score_type>  (92) 
oracle

>  <origin>  (92) 
adg

>  <m_score__min__energy>  (92) 
-9.1699999999999999

>  <m_primary>  (92) 
energy

$$$$
94:0
     RDKit          3D

 38 39  0  0  0  0  0  0  0  0999 V2000
   -6.0340   25.5180  -29.3980 N   0  0  0  0  0  0  0  0  0  0  0  0
   -5.2450   24.9500  -30.4770 C   0  0  0  0  0  0  0  0  0  0  0  0
   -4.2930   25.6630  -30.8230 O   0  0  0  0  0  0  0  0  0  0  0  0
   -5.6540   23.6650  -31.0020 C   0  0  0  0  0  0  0  0  0  0  0  0
   -7.0270   23.3930  -31.1540 C   0  0  0  0  0  0  0  0  0  0  0  0
   -7.1580   22.1240  -31.6320 C   0  0  0  0  0  0  0  0  0  0  0  0
   -8.2910   21.4110  -31.9400 C   0  0  0  0  0  0  0  0  0  0  0  0
   -8.1760   20.1280  -32.4180 C   0  0  0  0  0  0  0  0  0  0  0  0
   -6.9350   19.6010  -32.5720 C   0  0  0  0  0  0  0  0  0  0  0  0
   -6.8080   18.2040  -33.0930 C   0  0  0  0  0  0  0  0  0  0  0  0
   -6.4790   18.2860  -34.4320 F   0  0  0  0  0  0  0  0  0  0  0  0
   -7.9860   17.5030  -32.8850 F   0  0  0  0  0  0  0  0  0  0  0  0
   -5.7970   17.5850  -32.3920 F   0  0  0  0  0  0  0  0  0  0  0  0
   -5.7930   20.3390  -32.2530 C   0  0  0  0  0  0  0  0  0  0  0  0
   -5.8790   21.6370  -31.7680 C   0  0  0  0  0  0  0  0  0  0  0  0
   -4.9660   22.5810  -31.3860 N   0  0  0  0  0  0  0  0  0  0  0  0
   -3.5850   22.3000  -31.4230 C   0  0  0  0  0  0  0  0  0  0  0  0
   -2.9260   22.5700  -30.3750 O   0  0  0  0  0  0  0  0  0  0  0  0
   -2.8260   21.7480  -32.4650 N   0  0  0  0  0  0  0  0  0  0  0  0
   -1.3950   21.5170  -32.4220 C   0  0  0  0  0  0  0  0  0  0  0  0
   -0.8260   20.6720  -33.4960 C   0  0  1  0  0  0  0  0  0  0  0  0
   -1.6120   20.3930  -34.5790 O   0  0  0  0  0  0  0  0  0  0  0  0
    0.3770   21.4560  -34.0520 C   0  0  0  0  0  0  0  0  0  0  0  0
   -0.0340   22.3520  -35.0140 O   0  0  0  0  0  0  0  0  0  0  0  0
   -6.3380   24.9190  -28.6070 H   0  0  0  0  0  0  0  0  0  0  0  0
   -6.2870   26.5460  -29.4370 H   0  0  0  0  0  0  0  0  0  0  0  0
   -7.8511   24.0851  -30.9263 H   0  0  0  0  0  0  0  0  0  0  0  0
   -9.2841   21.8643  -31.8048 H   0  0  0  0  0  0  0  0  0  0  0  0
   -9.0710   19.5404  -32.6705 H   0  0  0  0  0  0  0  0  0  0  0  0
   -4.8022   19.8811  -32.3892 H   0  0  0  0  0  0  0  0  0  0  0  0
   -3.3080   21.4330  -33.3180 H   0  0  0  0  0  0  0  0  0  0  0  0
   -0.8975   22.4969  -32.4698 H   0  0  0  0  0  0  0  0  0  0  0  0
   -1.2200   20.9582  -31.4908 H   0  0  0  0  0  0  0  0  0  0  0  0
   -0.6283   19.6997  -33.0211 H   0  0  0  0  0  0  0  0  0  0  0  0
   -1.7910   21.1700  -35.1630 H   0  0  0  0  0  0  0  0  0  0  0  0
    0.8628   22.0038  -33.2310 H   0  0  0  0  0  0  0  0  0  0  0  0
    1.0849   20.7467  -34.5057 H   0  0  0  0  0  0  0  0  0  0  0  0
   -1.0120   22.4120  -35.0300 H   0  0  0  0  0  0  0  0  0  0  0  0
  1  2  1  0
  2  3  2  0
  2  4  1  0
  4  5  2  0
  5  6  1  0
  6  7  2  0
  7  8  1  0
  8  9  2  0
  9 10  1  0
 10 11  1  0
 10 12  1  0
 10 13  1  0
  9 14  1  0
 14 15  2  0
 15 16  1  0
 16 17  1  0
 17 18  2  0
 17 19  1  0
 19 20  1  0
 20 21  1  0
 21 22  1  0
 21 23  1  0
 23 24  1  0
 16  4  1  0
 15  6  1  0
  1 25  1  0
  1 26  1  0
  5 27  1  0
  7 28  1  0
  8 29  1  0
 14 30  1  0
 19 31  1  0
 20 32  1  0
 20 33  1  0
 21 34  1  1
 22 35  1  0
 23 36  1  0
 23 37  1  0
 24 38  1  0
M  END
>  <smiles>  (93) 
NC(=O)c1cc2ccc(C(F)(F)F)cc2n1C(=O)NC[C@@H](O)CO

>  <score_type>  (93) 
oracle

>  <origin>  (93) 
adg

>  <m_score__min__energy>  (93) 
-8.4600000000000009

>  <m_primary>  (93) 
energy

$$$$
95:0
     RDKit          3D

 49 50  0  0  0  0  0  0  0  0999 V2000
   -5.7350   14.5210  -33.8620 C   0  0  0  0  0  0  0  0  0  0  0  0
   -5.1820   15.8330  -34.2360 N   0  0  0  0  0  0  0  0  0  0  0  0
   -3.8930   15.9100  -34.8870 C   0  0  0  0  0  0  0  0  0  0  0  0
   -2.8020   15.8470  -33.8640 C   0  0  0  0  0  0  0  0  0  0  0  0
   -2.9340   16.4450  -32.7940 O   0  0  0  0  0  0  0  0  0  0  0  0
   -5.9830   16.9560  -33.9100 C   0  0  0  0  0  0  0  0  0  0  0  0
   -7.1430   16.6840  -33.4490 O   0  0  0  0  0  0  0  0  0  0  0  0
   -5.5770   18.3330  -34.0640 C   0  0  0  0  0  0  0  0  0  0  0  0
   -6.2600   19.2180  -34.6490 O   0  0  0  0  0  0  0  0  0  0  0  0
   -4.3260   18.7600  -33.5310 N   0  0  0  0  0  0  0  0  0  0  0  0
   -3.8650   20.0780  -33.6310 C   0  0  0  0  0  0  0  0  0  0  0  0
   -2.9710   20.6480  -32.6070 C   0  0  0  0  0  0  0  0  0  0  0  0
   -3.7280   20.9500  -31.3010 C   0  0  0  0  0  0  0  0  0  0  0  0
   -4.2680   22.3090  -31.2630 C   0  0  0  0  0  0  0  0  0  0  0  0
   -3.3440   23.2190  -31.3170 O   0  0  0  0  0  0  0  0  0  0  0  0
   -5.5780   22.7770  -31.1800 N   0  0  0  0  0  0  0  0  0  0  0  0
   -6.0730   23.9950  -30.8240 C   0  0  0  0  0  0  0  0  0  0  0  0
   -5.4150   25.1820  -30.3440 C   0  0  0  0  0  0  0  0  0  0  0  0
   -6.1050   25.9540  -29.3120 N   0  0  0  0  0  0  0  0  0  0  0  0
   -4.3380   25.6780  -30.6650 O   0  0  0  0  0  0  0  0  0  0  0  0
   -7.4760   23.9540  -30.9550 C   0  0  0  0  0  0  0  0  0  0  0  0
   -7.8230   22.7080  -31.3890 C   0  0  0  0  0  0  0  0  0  0  0  0
   -9.0580   22.1810  -31.6650 C   0  0  0  0  0  0  0  0  0  0  0  0
   -9.1940   20.8850  -32.0990 C   0  0  0  0  0  0  0  0  0  0  0  0
   -8.0500   20.1430  -32.2440 C   0  0  0  0  0  0  0  0  0  0  0  0
   -8.1620   18.7960  -32.6910 N   0  0  0  0  0  0  0  0  0  0  0  0
   -6.7990   20.6880  -31.9600 C   0  0  0  0  0  0  0  0  0  0  0  0
   -6.6550   22.0030  -31.5200 C   0  0  0  0  0  0  0  0  0  0  0  0
   -5.7704   14.4370  -32.7658 H   0  0  0  0  0  0  0  0  0  0  0  0
   -6.7515   14.4216  -34.2704 H   0  0  0  0  0  0  0  0  0  0  0  0
   -5.0963   13.7240  -34.2704 H   0  0  0  0  0  0  0  0  0  0  0  0
   -3.7865   15.0677  -35.5864 H   0  0  0  0  0  0  0  0  0  0  0  0
   -3.8205   16.8603  -35.4363 H   0  0  0  0  0  0  0  0  0  0  0  0
   -1.8874   15.2702  -34.0659 H   0  0  0  0  0  0  0  0  0  0  0  0
   -3.7380   18.0230  -33.0410 H   0  0  0  0  0  0  0  0  0  0  0  0
   -3.3297   20.1505  -34.5892 H   0  0  0  0  0  0  0  0  0  0  0  0
   -4.7853   20.6671  -33.5045 H   0  0  0  0  0  0  0  0  0  0  0  0
   -2.1660   19.9289  -32.3953 H   0  0  0  0  0  0  0  0  0  0  0  0
   -2.5611   21.5925  -32.9942 H   0  0  0  0  0  0  0  0  0  0  0  0
   -4.5605   20.2376  -31.2040 H   0  0  0  0  0  0  0  0  0  0  0  0
   -3.0117   20.8537  -30.4718 H   0  0  0  0  0  0  0  0  0  0  0  0
   -7.0430   26.3680  -29.4920 H   0  0  0  0  0  0  0  0  0  0  0  0
   -5.5680   26.0320  -28.4250 H   0  0  0  0  0  0  0  0  0  0  0  0
   -8.1694   24.7815  -30.7443 H   0  0  0  0  0  0  0  0  0  0  0  0
   -9.9542   22.8059  -31.5369 H   0  0  0  0  0  0  0  0  0  0  0  0
  -10.1831   20.4584  -32.3218 H   0  0  0  0  0  0  0  0  0  0  0  0
   -8.2590   18.0020  -32.0300 H   0  0  0  0  0  0  0  0  0  0  0  0
   -8.1450   18.6040  -33.7380 H   0  0  0  0  0  0  0  0  0  0  0  0
   -5.9018   20.0642  -32.0863 H   0  0  0  0  0  0  0  0  0  0  0  0
  1  2  1  0
  2  3  1  0
  3  4  1  0
  4  5  2  0
  2  6  1  0
  6  7  2  0
  6  8  1  0
  8  9  2  0
  8 10  1  0
 10 11  1  0
 11 12  1  0
 12 13  1  0
 13 14  1  0
 14 15  2  0
 14 16  1  0
 16 17  1  0
 17 18  1  0
 18 19  1  0
 18 20  2  0
 17 21  2  0
 21 22  1  0
 22 23  2  0
 23 24  1  0
 24 25  2  0
 25 26  1  0
 25 27  1  0
 27 28  2  0
 28 16  1  0
 28 22  1  0
  1 29  1  0
  1 30  1  0
  1 31  1  0
  3 32  1  0
  3 33  1  0
  4 34  1  0
 10 35  1  0
 11 36  1  0
 11 37  1  0
 12 38  1  0
 12 39  1  0
 13 40  1  0
 13 41  1  0
 19 42  1  0
 19 43  1  0
 21 44  1  0
 23 45  1  0
 24 46  1  0
 26 47  1  0
 26 48  1  0
 27 49  1  0
M  END
>  <smiles>  (94) 
CN(CC=O)C(=O)C(=O)NCCCC(=O)n1c(C(N)=O)cc2ccc(N)cc21

>  <score_type>  (94) 
oracle

>  <origin>  (94) 
adg

>  <m_score__min__energy>  (94) 
-8.4900000000000002

>  <m_primary>  (94) 
energy

$$$$
