0:0
     RDKit          3D

 37 38  0  0  0  0  0  0  0  0999 V2000
   -6.9590   18.2920  -32.7290 C   0  0  0  0  0  0  0  0  0  0  0  0
   -7.1690   19.7040  -32.2660 C   0  0  0  0  0  0  0  0  0  0  0  0
   -8.4700   20.2640  -32.2690 C   0  0  0  0  0  0  0  0  0  0  0  0
   -8.6770   21.5910  -31.8590 C   0  0  0  0  0  0  0  0  0  0  0  0
   -7.5660   22.3370  -31.4760 C   0  0  0  0  0  0  0  0  0  0  0  0
   -7.4890   23.6290  -31.0100 C   0  0  0  0  0  0  0  0  0  0  0  0
   -6.1350   23.8530  -30.7740 C   0  0  0  0  0  0  0  0  0  0  0  0
   -5.5960   25.1490  -30.3190 C   0  0  0  0  0  0  0  0  0  0  0  0
   -4.2450   25.5230  -30.5960 N   0  0  0  0  0  0  0  0  0  0  0  0
   -6.3540   25.9630  -29.7270 O   0  0  0  0  0  0  0  0  0  0  0  0
   -5.4020   22.7430  -31.0690 N   0  0  0  0  0  0  0  0  0  0  0  0
   -3.9970   22.5440  -30.8360 C   0  0  0  0  0  0  0  0  0  0  0  0
   -3.1480   23.0690  -31.6070 O   0  0  0  0  0  0  0  0  0  0  0  0
   -3.5810   21.7480  -29.7610 O   0  0  0  0  0  0  0  0  0  0  0  0
   -2.8670   22.2450  -28.6270 C   0  0  0  0  0  0  0  0  0  0  0  0
   -3.0530   23.7670  -28.5710 C   0  0  0  0  0  0  0  0  0  0  0  0
   -2.3120   24.4020  -29.5790 O   0  0  0  0  0  0  0  0  0  0  0  0
   -1.3750   21.8810  -28.7360 C   0  0  0  0  0  0  0  0  0  0  0  0
   -0.8850   22.1560  -30.0200 O   0  0  0  0  0  0  0  0  0  0  0  0
   -6.2950   21.8210  -31.5010 C   0  0  0  0  0  0  0  0  0  0  0  0
   -6.0630   20.4940  -31.8840 C   0  0  0  0  0  0  0  0  0  0  0  0
   -6.8606   17.6305  -31.8556 H   0  0  0  0  0  0  0  0  0  0  0  0
   -7.8196   17.9731  -33.3354 H   0  0  0  0  0  0  0  0  0  0  0  0
   -6.0429   18.2374  -33.3354 H   0  0  0  0  0  0  0  0  0  0  0  0
   -9.3254   19.6543  -32.5953 H   0  0  0  0  0  0  0  0  0  0  0  0
   -9.6864   22.0277  -31.8410 H   0  0  0  0  0  0  0  0  0  0  0  0
   -8.3192   24.3342  -30.8566 H   0  0  0  0  0  0  0  0  0  0  0  0
   -3.6460   24.9460  -31.2260 H   0  0  0  0  0  0  0  0  0  0  0  0
   -3.8660   26.4250  -30.2310 H   0  0  0  0  0  0  0  0  0  0  0  0
   -3.2554   21.7902  -27.7038 H   0  0  0  0  0  0  0  0  0  0  0  0
   -4.1188   24.0042  -28.7045 H   0  0  0  0  0  0  0  0  0  0  0  0
   -2.6970   24.1276  -27.5947 H   0  0  0  0  0  0  0  0  0  0  0  0
   -2.1940   23.7370  -30.3070 H   0  0  0  0  0  0  0  0  0  0  0  0
   -0.8064   22.4686  -28.0002 H   0  0  0  0  0  0  0  0  0  0  0  0
   -1.2609   20.8047  -28.5396 H   0  0  0  0  0  0  0  0  0  0  0  0
   -1.6480   22.5140  -30.5440 H   0  0  0  0  0  0  0  0  0  0  0  0
   -5.0448   20.0778  -31.8871 H   0  0  0  0  0  0  0  0  0  0  0  0
  1  2  1  0
  2  3  2  0
  3  4  1  0
  4  5  2  0
  5  6  1  0
  6  7  2  0
  7  8  1  0
  8  9  1  0
  8 10  2  0
  7 11  1  0
 11 12  1  0
 12 13  2  0
 12 14  1  0
 14 15  1  0
 15 16  1  0
 16 17  1  0
 15 18  1  0
 18 19  1  0
 11 20  1  0
 20 21  2  0
 21  2  1  0
 20  5  1  0
  1 22  1  0
  1 23  1  0
  1 24  1  0
  3 25  1  0
  4 26  1  0
  6 27  1  0
  9 28  1  0
  9 29  1  0
 15 30  1  0
 16 31  1  0
 16 32  1  0
 17 33  1  0
 18 34  1  0
 18 35  1  0
 19 36  1  0
 21 37  1  0
M  END
>  <UniqueID>  (1) 
1

>  <SMILES>  (1) 
Cc1ccc2cc(C(N)=O)n(C(=O)OC(CO)CO)c2c1

>  <Energy>  (1) 
70.91497380002447

>  <Genealogy>  (1) 
Cc1ccc2cc(C(N)=O)n(C(=O)OC(CO)CO)c2c1 (3D coordinates assigned)
Cc1ccc2cc(C(N)=O)n(C(=O)OC(CO)CO)c2c1 (optimized conformer: 70.91497380002447 kcal/mol)

>  <smiles>  (1) 
Cc1ccc2cc(C(N)=O)n(C(=O)OC(CO)CO)c2c1

>  <score_type>  (1) 
oracle

>  <origin>  (1) 
adg

>  <m_score__min__energy>  (1) 
-8.5500000000000007

>  <m_primary>  (1) 
energy

$$$$
1:0
     RDKit          3D

 37 39  0  0  0  0  0  0  0  0999 V2000
   -1.9960   25.3730  -27.5490 C   0  0  0  0  0  0  0  0  0  0  0  0
   -1.7240   25.0900  -28.9160 O   0  0  0  0  0  0  0  0  0  0  0  0
   -0.8830   24.0490  -29.3160 C   0  0  0  0  0  0  0  0  0  0  0  0
    0.3240   24.0190  -28.9530 O   0  0  0  0  0  0  0  0  0  0  0  0
   -1.4360   22.9290  -30.1390 C   0  0  0  0  0  0  0  0  0  0  0  0
   -2.8500   23.0610  -30.2630 O   0  0  0  0  0  0  0  0  0  0  0  0
   -3.5630   22.6580  -31.3970 C   0  0  0  0  0  0  0  0  0  0  0  0
   -2.9590   22.1570  -32.3850 O   0  0  0  0  0  0  0  0  0  0  0  0
   -4.9910   22.7970  -31.4280 N   0  0  0  0  0  0  0  0  0  0  0  0
   -5.7320   23.8910  -31.0980 C   0  0  0  0  0  0  0  0  0  0  0  0
   -5.2190   25.1340  -30.4840 C   0  0  0  0  0  0  0  0  0  0  0  0
   -3.9350   25.6480  -30.8280 N   0  0  0  0  0  0  0  0  0  0  0  0
   -5.9050   25.7260  -29.6080 O   0  0  0  0  0  0  0  0  0  0  0  0
   -7.0840   23.6560  -31.3410 C   0  0  0  0  0  0  0  0  0  0  0  0
   -7.1490   22.3690  -31.8230 C   0  0  0  0  0  0  0  0  0  0  0  0
   -8.2480   21.6210  -32.2330 C   0  0  0  0  0  0  0  0  0  0  0  0
   -8.0190   20.3210  -32.7120 C   0  0  0  0  0  0  0  0  0  0  0  0
   -6.7020   19.7930  -32.7810 C   0  0  0  0  0  0  0  0  0  0  0  0
   -6.4470   18.4290  -33.2960 C   0  0  0  0  0  0  0  0  0  0  0  0
   -5.7190   18.0630  -34.4110 C   0  0  0  0  0  0  0  0  0  0  0  0
   -5.7370   16.7210  -34.5190 N   0  0  0  0  0  0  0  0  0  0  0  0
   -6.4780   16.3230  -33.4650 C   0  0  0  0  0  0  0  0  0  0  0  0
   -6.9000   17.3320  -32.7390 O   0  0  0  0  0  0  0  0  0  0  0  0
   -5.6130   20.5860  -32.3540 C   0  0  0  0  0  0  0  0  0  0  0  0
   -5.8730   21.8720  -31.8650 C   0  0  0  0  0  0  0  0  0  0  0  0
   -1.3754   24.7273  -26.9104 H   0  0  0  0  0  0  0  0  0  0  0  0
   -1.7640   26.4277  -27.3397 H   0  0  0  0  0  0  0  0  0  0  0  0
   -3.0590   25.1829  -27.3397 H   0  0  0  0  0  0  0  0  0  0  0  0
   -0.9796   22.9536  -31.1396 H   0  0  0  0  0  0  0  0  0  0  0  0
   -1.2066   21.9733  -29.6450 H   0  0  0  0  0  0  0  0  0  0  0  0
   -3.0630   25.2170  -30.4470 H   0  0  0  0  0  0  0  0  0  0  0  0
   -7.9211   24.3515  -31.1814 H   0  0  0  0  0  0  0  0  0  0  0  0
   -9.2657   22.0354  -32.1835 H   0  0  0  0  0  0  0  0  0  0  0  0
   -8.8695   19.7042  -33.0377 H   0  0  0  0  0  0  0  0  0  0  0  0
   -5.2085   18.7541  -35.0978 H   0  0  0  0  0  0  0  0  0  0  0  0
   -6.7036   15.2704  -33.2388 H   0  0  0  0  0  0  0  0  0  0  0  0
   -4.5837   20.2014  -32.4047 H   0  0  0  0  0  0  0  0  0  0  0  0
  1  2  1  0
  2  3  1  0
  3  4  2  0
  3  5  1  0
  5  6  1  0
  6  7  1  0
  7  8  2  0
  7  9  1  0
  9 10  1  0
 10 11  1  0
 11 12  1  0
 11 13  2  0
 10 14  2  0
 14 15  1  0
 15 16  2  0
 16 17  1  0
 17 18  2  0
 18 19  1  0
 19 20  2  0
 20 21  1  0
 21 22  2  0
 22 23  1  0
 18 24  1  0
 24 25  2  0
 25  9  1  0
 25 15  1  0
 23 19  1  0
  1 26  1  0
  1 27  1  0
  1 28  1  0
  5 29  1  0
  5 30  1  0
 12 31  1  0
 14 32  1  0
 16 33  1  0
 17 34  1  0
 20 35  1  0
 22 36  1  0
 24 37  1  0
M  CHG  1  12  -1
M  END
>  <UniqueID>  (2) 
2

>  <SMILES>  (2) 
COC(=O)COC(=O)n1c(C([NH-])=O)cc2ccc(-c3cnco3)cc21

>  <Energy>  (2) 
104.23732275352528

>  <Genealogy>  (2) 
COC(=O)COC(=O)n1c(C([NH-])=O)cc2ccc(-c3cnco3)cc21 (protonated)
COC(=O)COC(=O)n1c(C([NH-])=O)cc2ccc(-c3cnco3)cc21 (3D coordinates assigned)
COC(=O)COC(=O)n1c(C([NH-])=O)cc2ccc(-c3cnco3)cc21 (optimized conformer: 104.23732275352528 kcal/mol)

>  <smiles>  (2) 
COC(=O)COC(=O)n1c(C(N)=O)cc2ccc(-c3cnco3)cc21

>  <score_type>  (2) 
oracle

>  <origin>  (2) 
adg

>  <m_score__min__energy>  (2) 
-10.460000000000001

>  <m_primary>  (2) 
energy

$$$$
2:0
     RDKit          3D

 34 35  0  0  0  0  0  0  0  0999 V2000
   -1.1660   21.7670  -29.3370 C   0  0  0  0  0  0  0  0  0  0  0  0
   -1.6350   23.0040  -30.1050 C   0  0  1  0  0  0  0  0  0  0  0  0
   -3.0570   23.0010  -30.2240 O   0  0  0  0  0  0  0  0  0  0  0  0
   -3.7370   22.6720  -31.4040 C   0  0  0  0  0  0  0  0  0  0  0  0
   -3.0970   22.3130  -32.4290 O   0  0  0  0  0  0  0  0  0  0  0  0
   -5.1720   22.7330  -31.4370 N   0  0  0  0  0  0  0  0  0  0  0  0
   -5.9710   23.7850  -31.0980 C   0  0  0  0  0  0  0  0  0  0  0  0
   -5.5130   25.0500  -30.4800 C   0  0  0  0  0  0  0  0  0  0  0  0
   -4.1770   25.5160  -30.6750 N   0  0  0  0  0  0  0  0  0  0  0  0
   -6.3110   25.7450  -29.7970 O   0  0  0  0  0  0  0  0  0  0  0  0
   -7.3100   23.4730  -31.3260 C   0  0  0  0  0  0  0  0  0  0  0  0
   -7.3070   22.1870  -31.8170 C   0  0  0  0  0  0  0  0  0  0  0  0
   -8.3660   21.3850  -32.2310 C   0  0  0  0  0  0  0  0  0  0  0  0
   -8.0680   20.1060  -32.7290 C   0  0  0  0  0  0  0  0  0  0  0  0
   -6.7270   19.6460  -32.7940 C   0  0  0  0  0  0  0  0  0  0  0  0
   -6.4150   18.2960  -33.3890 C   0  0  0  0  0  0  0  0  0  0  0  0
   -6.0950   18.4500  -34.7240 F   0  0  0  0  0  0  0  0  0  0  0  0
   -7.5070   17.4510  -33.2810 F   0  0  0  0  0  0  0  0  0  0  0  0
   -5.3470   17.7090  -32.7330 F   0  0  0  0  0  0  0  0  0  0  0  0
   -5.6780   20.5010  -32.3850 C   0  0  0  0  0  0  0  0  0  0  0  0
   -6.0050   21.7640  -31.8740 C   0  0  0  0  0  0  0  0  0  0  0  0
   -1.2140   24.2430  -29.3750 C   0  0  0  0  0  0  0  0  0  0  0  0
   -0.1180   24.2700  -28.7560 O   0  0  0  0  0  0  0  0  0  0  0  0
   -2.0500   25.3530  -29.3400 O   0  0  0  0  0  0  0  0  0  0  0  0
   -1.2382   21.9574  -28.2560 H   0  0  0  0  0  0  0  0  0  0  0  0
   -1.8011   20.9086  -29.6014 H   0  0  0  0  0  0  0  0  0  0  0  0
   -0.1215   21.5455  -29.6014 H   0  0  0  0  0  0  0  0  0  0  0  0
   -1.1824   22.9862  -31.1074 H   0  0  0  0  0  0  0  0  0  0  0  0
   -3.8760   26.4280  -30.2670 H   0  0  0  0  0  0  0  0  0  0  0  0
   -3.4710   24.9420  -31.1880 H   0  0  0  0  0  0  0  0  0  0  0  0
   -8.1839   24.1177  -31.1508 H   0  0  0  0  0  0  0  0  0  0  0  0
   -9.4048   21.7417  -32.1701 H   0  0  0  0  0  0  0  0  0  0  0  0
   -8.8838   19.4530  -33.0728 H   0  0  0  0  0  0  0  0  0  0  0  0
   -4.6285   20.1818  -32.4661 H   0  0  0  0  0  0  0  0  0  0  0  0
  1  2  1  0
  2  3  1  0
  3  4  1  0
  4  5  2  0
  4  6  1  0
  6  7  1  0
  7  8  1  0
  8  9  1  0
  8 10  2  0
  7 11  2  0
 11 12  1  0
 12 13  2  0
 13 14  1  0
 14 15  2  0
 15 16  1  0
 16 17  1  0
 16 18  1  0
 16 19  1  0
 15 20  1  0
 20 21  2  0
  2 22  1  0
 22 23  2  0
 22 24  1  0
 21  6  1  0
 21 12  1  0
  1 25  1  0
  1 26  1  0
  1 27  1  0
  2 28  1  6
  9 29  1  0
  9 30  1  0
 11 31  1  0
 13 32  1  0
 14 33  1  0
 20 34  1  0
M  CHG  1  24  -1
M  END
>  <UniqueID>  (3) 
3

>  <SMILES>  (3) 
C[C@@H](OC(=O)n1c(C(N)=O)cc2ccc(C(F)(F)F)cc21)C(=O)[O-]

>  <Energy>  (3) 
68.86978068885675

>  <Genealogy>  (3) 
CC(OC(=O)n1c(C(N)=O)cc2ccc(C(F)(F)F)cc21)C(=O)[O-] (protonated)
C[C@@H](OC(=O)n1c(C(N)=O)cc2ccc(C(F)(F)F)cc21)C(=O)[O-] (chirality)
C[C@@H](OC(=O)n1c(C(N)=O)cc2ccc(C(F)(F)F)cc21)C(=O)[O-] (3D coordinates assigned)
C[C@@H](OC(=O)n1c(C(N)=O)cc2ccc(C(F)(F)F)cc21)C(=O)[O-] (optimized conformer: 68.86978068885675 kcal/mol)

>  <smiles>  (3) 
CC(OC(=O)n1c(C(N)=O)cc2ccc(C(F)(F)F)cc21)C(=O)O

>  <score_type>  (3) 
oracle

>  <origin>  (3) 
adg

>  <m_score__min__energy>  (3) 
-10.369999999999999

>  <m_primary>  (3) 
energy

$$$$
3:0
     RDKit          3D

 34 35  0  0  0  0  0  0  0  0999 V2000
   -3.8970   25.5460  -30.8440 N   0  0  0  0  0  0  0  0  0  0  0  0
   -5.1220   25.0570  -30.3040 C   0  0  0  0  0  0  0  0  0  0  0  0
   -5.6630   25.6720  -29.3470 O   0  0  0  0  0  0  0  0  0  0  0  0
   -5.7330   23.8290  -30.8550 C   0  0  0  0  0  0  0  0  0  0  0  0
   -7.1080   23.6390  -30.9860 C   0  0  0  0  0  0  0  0  0  0  0  0
   -7.2500   22.4020  -31.5760 C   0  0  0  0  0  0  0  0  0  0  0  0
   -8.4010   21.7000  -31.9210 C   0  0  0  0  0  0  0  0  0  0  0  0
   -8.2480   20.4240  -32.4910 C   0  0  0  0  0  0  0  0  0  0  0  0
   -6.9580   19.8740  -32.6950 C   0  0  0  0  0  0  0  0  0  0  0  0
   -6.8170   18.5020  -33.2910 C   0  0  0  0  0  0  0  0  0  0  0  0
   -6.1950   17.6620  -32.3850 F   0  0  0  0  0  0  0  0  0  0  0  0
   -6.0580   18.5720  -34.4440 F   0  0  0  0  0  0  0  0  0  0  0  0
   -5.8130   20.6150  -32.3270 C   0  0  0  0  0  0  0  0  0  0  0  0
   -5.9950   21.8900  -31.7820 C   0  0  0  0  0  0  0  0  0  0  0  0
   -5.0540   22.7570  -31.3500 N   0  0  0  0  0  0  0  0  0  0  0  0
   -3.6350   22.5420  -31.3510 C   0  0  0  0  0  0  0  0  0  0  0  0
   -3.0340   22.3480  -32.4420 O   0  0  0  0  0  0  0  0  0  0  0  0
   -2.8720   22.5500  -30.0950 C   0  0  0  0  0  0  0  0  0  0  0  0
   -2.6520   21.4680  -29.4850 O   0  0  0  0  0  0  0  0  0  0  0  0
   -2.3710   23.7860  -29.5740 N   0  0  0  0  0  0  0  0  0  0  0  0
   -1.8370   23.9360  -28.2250 C   0  0  0  0  0  0  0  0  0  0  0  0
   -1.0750   25.2560  -28.0840 C   0  0  0  0  0  0  0  0  0  0  0  0
   -1.2430   26.0480  -29.2290 O   0  0  0  0  0  0  0  0  0  0  0  0
   -2.9800   25.2860  -30.4180 H   0  0  0  0  0  0  0  0  0  0  0  0
   -7.9088   24.3295  -30.6829 H   0  0  0  0  0  0  0  0  0  0  0  0
   -9.3994   22.1301  -31.7530 H   0  0  0  0  0  0  0  0  0  0  0  0
   -9.1383   19.8469  -32.7815 H   0  0  0  0  0  0  0  0  0  0  0  0
   -7.8158   18.1085  -33.5310 H   0  0  0  0  0  0  0  0  0  0  0  0
   -4.8039   20.1997  -32.4656 H   0  0  0  0  0  0  0  0  0  0  0  0
   -2.6682   23.9211  -27.5047 H   0  0  0  0  0  0  0  0  0  0  0  0
   -1.1428   23.1060  -28.0270 H   0  0  0  0  0  0  0  0  0  0  0  0
   -1.4560   25.8015  -27.2081 H   0  0  0  0  0  0  0  0  0  0  0  0
   -0.0045   25.0358  -27.9593 H   0  0  0  0  0  0  0  0  0  0  0  0
   -2.0090   25.6660  -29.7310 H   0  0  0  0  0  0  0  0  0  0  0  0
  1  2  1  0
  2  3  2  0
  2  4  1  0
  4  5  2  0
  5  6  1  0
  6  7  2  0
  7  8  1  0
  8  9  2  0
  9 10  1  0
 10 11  1  0
 10 12  1  0
  9 13  1  0
 13 14  2  0
 14 15  1  0
 15 16  1  0
 16 17  2  0
 16 18  1  0
 18 19  2  0
 18 20  1  0
 20 21  1  0
 21 22  1  0
 22 23  1  0
 15  4  1  0
 14  6  1  0
  1 24  1  0
  5 25  1  0
  7 26  1  0
  8 27  1  0
 10 28  1  0
 13 29  1  0
 21 30  1  0
 21 31  1  0
 22 32  1  0
 22 33  1  0
 23 34  1  0
M  CHG  2   1  -1  20  -1
M  END
>  <UniqueID>  (4) 
4

>  <SMILES>  (4) 
[NH-]C(=O)c1cc2ccc(C(F)F)cc2n1C(=O)C(=O)[N-]CCO

>  <Energy>  (4) 
68.37337894875866

>  <Genealogy>  (4) 
[NH-]C(=O)c1cc2ccc(C(F)F)cc2n1C(=O)C(=O)[N-]CCO (protonated)
[NH-]C(=O)c1cc2ccc(C(F)F)cc2n1C(=O)C(=O)[N-]CCO (3D coordinates assigned)
[NH-]C(=O)c1cc2ccc(C(F)F)cc2n1C(=O)C(=O)[N-]CCO (optimized conformer: 68.37337894875866 kcal/mol)

>  <smiles>  (4) 
NC(=O)c1cc2ccc(C(F)F)cc2n1C(=O)C(=O)NCCO

>  <score_type>  (4) 
oracle

>  <origin>  (4) 
adg

>  <m_score__min__energy>  (4) 
-10.74

>  <m_primary>  (4) 
energy

$$$$
4:0
     RDKit          3D

 49 50  0  0  0  0  0  0  0  0999 V2000
   -0.9680   26.4620  -28.2210 C   0  0  0  0  0  0  0  0  0  0  0  0
   -1.6080   25.5210  -29.1250 N   0  0  0  0  0  0  0  0  0  0  0  0
   -1.1600   24.1720  -29.2840 C   0  0  0  0  0  0  0  0  0  0  0  0
    0.0340   23.8630  -29.0190 O   0  0  0  0  0  0  0  0  0  0  0  0
   -2.1180   23.1130  -29.7490 C   0  0  1  0  0  0  0  0  0  0  0  0
   -2.9170   22.5690  -28.5680 C   0  0  0  0  0  0  0  0  0  0  0  0
   -3.0210   23.6440  -30.7200 O   0  0  0  0  0  0  0  0  0  0  0  0
   -3.7780   22.8450  -31.5860 C   0  0  0  0  0  0  0  0  0  0  0  0
   -3.2050   22.0950  -32.4230 O   0  0  0  0  0  0  0  0  0  0  0  0
   -5.2120   22.8550  -31.4960 N   0  0  0  0  0  0  0  0  0  0  0  0
   -6.0040   23.7980  -30.9100 C   0  0  0  0  0  0  0  0  0  0  0  0
   -5.5590   25.1110  -30.4000 C   0  0  0  0  0  0  0  0  0  0  0  0
   -4.3190   25.6750  -30.8180 N   0  0  0  0  0  0  0  0  0  0  0  0
   -6.3070   25.7670  -29.6280 O   0  0  0  0  0  0  0  0  0  0  0  0
   -7.3360   23.3950  -30.9200 C   0  0  0  0  0  0  0  0  0  0  0  0
   -7.3390   22.1670  -31.5420 C   0  0  0  0  0  0  0  0  0  0  0  0
   -8.3950   21.3050  -31.8060 C   0  0  0  0  0  0  0  0  0  0  0  0
   -8.1080   20.0810  -32.4290 C   0  0  0  0  0  0  0  0  0  0  0  0
   -6.7720   19.7210  -32.7750 C   0  0  0  0  0  0  0  0  0  0  0  0
   -6.4910   18.4380  -33.4090 N   0  0  0  0  0  0  0  0  0  0  0  0
   -6.9590   17.1890  -32.7950 C   0  0  0  0  0  0  0  0  0  0  0  0
   -5.7380   18.3430  -34.6720 C   0  0  0  0  0  0  0  0  0  0  0  0
   -4.2520   18.0590  -34.4120 C   0  0  0  0  0  0  0  0  0  0  0  0
   -3.5400   19.2640  -34.2010 O   0  0  0  0  0  0  0  0  0  0  0  0
   -2.6230   19.1170  -33.1380 C   0  0  0  0  0  0  0  0  0  0  0  0
   -5.7290   20.6400  -32.4810 C   0  0  0  0  0  0  0  0  0  0  0  0
   -6.0490   21.8620  -31.8780 C   0  0  0  0  0  0  0  0  0  0  0  0
   -1.1693   26.1660  -27.1809 H   0  0  0  0  0  0  0  0  0  0  0  0
    0.1175   26.4610  -28.3990 H   0  0  0  0  0  0  0  0  0  0  0  0
   -1.3678   27.4712  -28.3990 H   0  0  0  0  0  0  0  0  0  0  0  0
   -1.5336   22.3000  -30.2045 H   0  0  0  0  0  0  0  0  0  0  0  0
   -2.4456   22.8900  -27.6274 H   0  0  0  0  0  0  0  0  0  0  0  0
   -3.9461   22.9549  -28.6127 H   0  0  0  0  0  0  0  0  0  0  0  0
   -2.9352   21.4701  -28.6127 H   0  0  0  0  0  0  0  0  0  0  0  0
   -3.4880   25.6730  -30.1850 H   0  0  0  0  0  0  0  0  0  0  0  0
   -8.2016   23.9411  -30.5169 H   0  0  0  0  0  0  0  0  0  0  0  0
   -9.4265   21.5739  -31.5346 H   0  0  0  0  0  0  0  0  0  0  0  0
   -8.9296   19.3853  -32.6550 H   0  0  0  0  0  0  0  0  0  0  0  0
   -6.9237   17.2832  -31.6996 H   0  0  0  0  0  0  0  0  0  0  0  0
   -7.9930   16.9892  -33.1127 H   0  0  0  0  0  0  0  0  0  0  0  0
   -6.3109   16.3589  -33.1127 H   0  0  0  0  0  0  0  0  0  0  0  0
   -6.1581   17.5281  -35.2798 H   0  0  0  0  0  0  0  0  0  0  0  0
   -5.8218   19.3039  -35.2007 H   0  0  0  0  0  0  0  0  0  0  0  0
   -4.1570   17.4229  -33.5196 H   0  0  0  0  0  0  0  0  0  0  0  0
   -3.8310   17.5497  -35.2914 H   0  0  0  0  0  0  0  0  0  0  0  0
   -3.1560   19.2024  -32.1795 H   0  0  0  0  0  0  0  0  0  0  0  0
   -2.1414   18.1302  -33.2030 H   0  0  0  0  0  0  0  0  0  0  0  0
   -1.8571   19.9038  -33.2030 H   0  0  0  0  0  0  0  0  0  0  0  0
   -4.6846   20.3946  -32.7239 H   0  0  0  0  0  0  0  0  0  0  0  0
  1  2  1  0
  2  3  1  0
  3  4  2  0
  3  5  1  0
  5  6  1  0
  5  7  1  0
  7  8  1  0
  8  9  2  0
  8 10  1  0
 10 11  1  0
 11 12  1  0
 12 13  1  0
 12 14  2  0
 11 15  2  0
 15 16  1  0
 16 17  2  0
 17 18  1  0
 18 19  2  0
 19 20  1  0
 20 21  1  0
 20 22  1  0
 22 23  1  0
 23 24  1  0
 24 25  1  0
 19 26  1  0
 26 27  2  0
 27 10  1  0
 27 16  1  0
  1 28  1  0
  1 29  1  0
  1 30  1  0
  5 31  1  6
  6 32  1  0
  6 33  1  0
  6 34  1  0
 13 35  1  0
 15 36  1  0
 17 37  1  0
 18 38  1  0
 21 39  1  0
 21 40  1  0
 21 41  1  0
 22 42  1  0
 22 43  1  0
 23 44  1  0
 23 45  1  0
 25 46  1  0
 25 47  1  0
 25 48  1  0
 26 49  1  0
M  CHG  2   2  -1  13  -1
M  END
>  <UniqueID>  (5) 
5

>  <SMILES>  (5) 
C[N-]C(=O)[C@@H](C)OC(=O)n1c(C([NH-])=O)cc2ccc(N(C)CCOC)cc21

>  <Energy>  (5) 
82.81513902819576

>  <Genealogy>  (5) 
C[N-]C(=O)C(C)OC(=O)n1c(C([NH-])=O)cc2ccc(N(C)CCOC)cc21 (protonated)
C[N-]C(=O)[C@@H](C)OC(=O)n1c(C([NH-])=O)cc2ccc(N(C)CCOC)cc21 (chirality)
C[N-]C(=O)[C@@H](C)OC(=O)n1c(C([NH-])=O)cc2ccc(N(C)CCOC)cc21 (3D coordinates assigned)
C[N-]C(=O)[C@@H](C)OC(=O)n1c(C([NH-])=O)cc2ccc(N(C)CCOC)cc21 (optimized conformer: 82.81513902819576 kcal/mol)

>  <smiles>  (5) 
CNC(=O)C(C)OC(=O)n1c(C(N)=O)cc2ccc(N(C)CCOC)cc21

>  <score_type>  (5) 
oracle

>  <origin>  (5) 
adg

>  <m_score__min__energy>  (5) 
-12.18

>  <m_primary>  (5) 
energy

$$$$
5:0
     RDKit          3D

 39 40  0  0  0  0  0  0  0  0999 V2000
   -7.3560   18.1500  -31.5070 C   0  0  0  0  0  0  0  0  0  0  0  0
   -9.1260   18.5640  -31.6350 S   0  0  0  0  0  0  0  0  0  0  0  0
   -8.8870   20.2050  -32.4120 C   0  0  0  0  0  0  0  0  0  0  0  0
   -9.6420   21.3090  -31.6620 C   0  0  0  0  0  0  0  0  0  0  0  0
   -9.0840   22.7050  -31.9710 C   0  0  0  0  0  0  0  0  0  0  0  0
   -7.6700   22.6480  -32.1520 O   0  0  0  0  0  0  0  0  0  0  0  0
   -6.7570   22.6020  -31.0910 C   0  0  0  0  0  0  0  0  0  0  0  0
   -7.1560   22.7330  -29.9010 O   0  0  0  0  0  0  0  0  0  0  0  0
   -5.3570   22.4270  -31.3650 N   0  0  0  0  0  0  0  0  0  0  0  0
   -4.3240   23.1880  -30.9030 C   0  0  0  0  0  0  0  0  0  0  0  0
   -4.4600   24.4540  -30.1500 C   0  0  0  0  0  0  0  0  0  0  0  0
   -5.2070   24.5020  -28.9330 N   0  0  0  0  0  0  0  0  0  0  0  0
   -3.8880   25.4980  -30.5620 O   0  0  0  0  0  0  0  0  0  0  0  0
   -3.1040   22.6600  -31.3220 C   0  0  0  0  0  0  0  0  0  0  0  0
   -3.4250   21.5450  -32.0620 C   0  0  0  0  0  0  0  0  0  0  0  0
   -2.5960   20.6420  -32.7200 C   0  0  0  0  0  0  0  0  0  0  0  0
   -3.1980   19.5670  -33.3950 C   0  0  0  0  0  0  0  0  0  0  0  0
   -4.6060   19.3990  -33.3820 C   0  0  0  0  0  0  0  0  0  0  0  0
   -5.2420   18.2620  -34.1410 C   0  0  0  0  0  0  0  0  0  0  0  0
   -6.4960   18.6510  -34.5760 F   0  0  0  0  0  0  0  0  0  0  0  0
   -5.3720   17.1460  -33.3320 F   0  0  0  0  0  0  0  0  0  0  0  0
   -4.4730   17.9140  -35.2370 F   0  0  0  0  0  0  0  0  0  0  0  0
   -5.4160   20.3540  -32.7220 C   0  0  0  0  0  0  0  0  0  0  0  0
   -4.7900   21.4240  -32.0730 C   0  0  0  0  0  0  0  0  0  0  0  0
   -7.0708   18.0833  -30.4467 H   0  0  0  0  0  0  0  0  0  0  0  0
   -7.1689   17.1839  -31.9985 H   0  0  0  0  0  0  0  0  0  0  0  0
   -6.7598   18.9329  -31.9985 H   0  0  0  0  0  0  0  0  0  0  0  0
   -7.8136   20.4454  -32.4120 H   0  0  0  0  0  0  0  0  0  0  0  0
   -9.2831   20.1574  -33.4371 H   0  0  0  0  0  0  0  0  0  0  0  0
  -10.7012   21.2774  -31.9573 H   0  0  0  0  0  0  0  0  0  0  0  0
   -9.5217   21.1281  -30.5837 H   0  0  0  0  0  0  0  0  0  0  0  0
   -9.5518   23.0866  -32.8905 H   0  0  0  0  0  0  0  0  0  0  0  0
   -9.3084   23.3732  -31.1265 H   0  0  0  0  0  0  0  0  0  0  0  0
   -5.2640   25.3920  -28.3890 H   0  0  0  0  0  0  0  0  0  0  0  0
   -5.7370   23.6720  -28.5890 H   0  0  0  0  0  0  0  0  0  0  0  0
   -2.0987   23.0512  -31.1070 H   0  0  0  0  0  0  0  0  0  0  0  0
   -1.5030   20.7659  -32.7120 H   0  0  0  0  0  0  0  0  0  0  0  0
   -2.5697   18.8471  -33.9400 H   0  0  0  0  0  0  0  0  0  0  0  0
   -6.5117   20.2573  -32.7194 H   0  0  0  0  0  0  0  0  0  0  0  0
  1  2  1  0
  2  3  1  0
  3  4  1  0
  4  5  1  0
  5  6  1  0
  6  7  1  0
  7  8  2  0
  7  9  1  0
  9 10  1  0
 10 11  1  0
 11 12  1  0
 11 13  2  0
 10 14  2  0
 14 15  1  0
 15 16  2  0
 16 17  1  0
 17 18  2  0
 18 19  1  0
 19 20  1  0
 19 21  1  0
 19 22  1  0
 18 23  1  0
 23 24  2  0
 24  9  1  0
 24 15  1  0
  1 25  1  0
  1 26  1  0
  1 27  1  0
  3 28  1  0
  3 29  1  0
  4 30  1  0
  4 31  1  0
  5 32  1  0
  5 33  1  0
 12 34  1  0
 12 35  1  0
 14 36  1  0
 16 37  1  0
 17 38  1  0
 23 39  1  0
M  END
>  <UniqueID>  (6) 
6

>  <SMILES>  (6) 
CSCCCOC(=O)n1c(C(N)=O)cc2ccc(C(F)(F)F)cc21

>  <Energy>  (6) 
70.2458656915881

>  <Genealogy>  (6) 
CSCCCOC(=O)n1c(C(N)=O)cc2ccc(C(F)(F)F)cc21 (3D coordinates assigned)
CSCCCOC(=O)n1c(C(N)=O)cc2ccc(C(F)(F)F)cc21 (optimized conformer: 70.2458656915881 kcal/mol)

>  <smiles>  (6) 
CSCCCOC(=O)n1c(C(N)=O)cc2ccc(C(F)(F)F)cc21

>  <score_type>  (6) 
oracle

>  <origin>  (6) 
adg

>  <m_score__min__energy>  (6) 
-8.0999999999999996

>  <m_primary>  (6) 
energy

$$$$
6:0
     RDKit          3D

 33 35  0  0  0  0  0  0  0  0999 V2000
   -4.0590   25.6710  -30.8200 N   0  0  0  0  0  0  0  0  0  0  0  0
   -5.2890   25.0820  -30.4040 C   0  0  0  0  0  0  0  0  0  0  0  0
   -6.0260   25.7030  -29.5920 O   0  0  0  0  0  0  0  0  0  0  0  0
   -5.7350   23.7860  -30.9520 C   0  0  0  0  0  0  0  0  0  0  0  0
   -7.0720   23.4710  -31.1860 C   0  0  0  0  0  0  0  0  0  0  0  0
   -7.0570   22.2260  -31.7720 C   0  0  0  0  0  0  0  0  0  0  0  0
   -8.1110   21.4260  -32.2000 C   0  0  0  0  0  0  0  0  0  0  0  0
   -7.8050   20.1660  -32.7400 C   0  0  0  0  0  0  0  0  0  0  0  0
   -6.4610   19.7240  -32.8370 C   0  0  0  0  0  0  0  0  0  0  0  0
   -6.1770   18.3850  -33.3990 C   0  0  0  0  0  0  0  0  0  0  0  0
   -6.7470   17.1760  -33.0510 C   0  0  0  0  0  0  0  0  0  0  0  0
   -6.2040   16.2040  -33.8070 N   0  0  0  0  0  0  0  0  0  0  0  0
   -5.3220   16.8610  -34.5880 C   0  0  0  0  0  0  0  0  0  0  0  0
   -5.3040   18.1520  -34.3490 O   0  0  0  0  0  0  0  0  0  0  0  0
   -5.4170   20.5680  -32.3880 C   0  0  0  0  0  0  0  0  0  0  0  0
   -5.7510   21.8250  -31.8720 C   0  0  0  0  0  0  0  0  0  0  0  0
   -4.9260   22.7720  -31.3710 N   0  0  0  0  0  0  0  0  0  0  0  0
   -3.5020   22.6670  -31.2180 C   0  0  0  0  0  0  0  0  0  0  0  0
   -2.8270   22.0090  -32.0560 O   0  0  0  0  0  0  0  0  0  0  0  0
   -2.8740   23.2810  -30.1270 O   0  0  0  0  0  0  0  0  0  0  0  0
   -1.5050   23.0700  -29.7920 C   0  0  0  0  0  0  0  0  0  0  0  0
   -0.9000   24.3270  -29.2520 C   0  0  0  0  0  0  0  0  0  0  0  0
    0.2630   24.3090  -28.7700 O   0  0  0  0  0  0  0  0  0  0  0  0
   -1.6060   25.5210  -29.3070 O   0  0  0  0  0  0  0  0  0  0  0  0
   -3.1430   25.2770  -30.5120 H   0  0  0  0  0  0  0  0  0  0  0  0
   -7.9528   24.0870  -30.9519 H   0  0  0  0  0  0  0  0  0  0  0  0
   -9.1527   21.7696  -32.1181 H   0  0  0  0  0  0  0  0  0  0  0  0
   -8.6180   19.5140  -33.0920 H   0  0  0  0  0  0  0  0  0  0  0  0
   -7.5192   17.0312  -32.2811 H   0  0  0  0  0  0  0  0  0  0  0  0
   -4.6884   16.3699  -35.3412 H   0  0  0  0  0  0  0  0  0  0  0  0
   -4.3675   20.2432  -32.4435 H   0  0  0  0  0  0  0  0  0  0  0  0
   -1.4360   22.2787  -29.0311 H   0  0  0  0  0  0  0  0  0  0  0  0
   -0.9579   22.7718  -30.6985 H   0  0  0  0  0  0  0  0  0  0  0  0
  1  2  1  0
  2  3  2  0
  2  4  1  0
  4  5  2  0
  5  6  1  0
  6  7  2  0
  7  8  1  0
  8  9  2  0
  9 10  1  0
 10 11  2  0
 11 12  1  0
 12 13  2  0
 13 14  1  0
  9 15  1  0
 15 16  2  0
 16 17  1  0
 17 18  1  0
 18 19  2  0
 18 20  1  0
 20 21  1  0
 21 22  1  0
 22 23  2  0
 22 24  1  0
 17  4  1  0
 16  6  1  0
 14 10  1  0
  1 25  1  0
  5 26  1  0
  7 27  1  0
  8 28  1  0
 11 29  1  0
 13 30  1  0
 15 31  1  0
 21 32  1  0
 21 33  1  0
M  CHG  2   1  -1  24  -1
M  END
>  <UniqueID>  (7) 
7

>  <SMILES>  (7) 
[NH-]C(=O)c1cc2ccc(-c3cnco3)cc2n1C(=O)OCC(=O)[O-]

>  <Energy>  (7) 
103.12748620139968

>  <Genealogy>  (7) 
[NH-]C(=O)c1cc2ccc(-c3cnco3)cc2n1C(=O)OCC(=O)[O-] (protonated)
[NH-]C(=O)c1cc2ccc(-c3cnco3)cc2n1C(=O)OCC(=O)[O-] (3D coordinates assigned)
[NH-]C(=O)c1cc2ccc(-c3cnco3)cc2n1C(=O)OCC(=O)[O-] (optimized conformer: 103.12748620139968 kcal/mol)

>  <smiles>  (7) 
NC(=O)c1cc2ccc(-c3cnco3)cc2n1C(=O)OCC(=O)O

>  <score_type>  (7) 
oracle

>  <origin>  (7) 
adg

>  <m_score__min__energy>  (7) 
-12.369999999999999

>  <m_primary>  (7) 
energy

$$$$
7:0
     RDKit          3D

 51 52  0  0  0  0  0  0  0  0999 V2000
   -3.4740   19.2500  -33.7920 C   0  0  0  0  0  0  0  0  0  0  0  0
   -4.2660   18.1570  -34.2410 O   0  0  0  0  0  0  0  0  0  0  0  0
   -5.6440   18.2640  -34.4580 C   0  0  0  0  0  0  0  0  0  0  0  0
   -6.0830   18.9350  -35.4330 O   0  0  0  0  0  0  0  0  0  0  0  0
   -6.6150   17.6360  -33.4940 C   0  0  1  0  0  0  0  0  0  0  0  0
   -6.5170   16.1020  -33.5150 C   0  0  0  0  0  0  0  0  0  0  0  0
   -6.4560   18.1900  -32.1320 N   0  0  0  0  0  0  0  0  0  0  0  0
   -6.1140   17.2820  -31.0310 C   0  0  0  0  0  0  0  0  0  0  0  0
   -6.6830   19.5820  -31.8250 C   0  0  0  0  0  0  0  0  0  0  0  0
   -8.0090   20.0670  -31.6830 C   0  0  0  0  0  0  0  0  0  0  0  0
   -8.2540   21.4180  -31.3870 C   0  0  0  0  0  0  0  0  0  0  0  0
   -7.1570   22.2600  -31.2320 C   0  0  0  0  0  0  0  0  0  0  0  0
   -7.1090   23.6060  -30.9520 C   0  0  0  0  0  0  0  0  0  0  0  0
   -5.7540   23.9260  -30.9040 C   0  0  0  0  0  0  0  0  0  0  0  0
   -5.2490   25.2620  -30.5260 C   0  0  0  0  0  0  0  0  0  0  0  0
   -3.9180   25.6610  -30.8450 N   0  0  0  0  0  0  0  0  0  0  0  0
   -5.9860   26.0430  -29.8670 O   0  0  0  0  0  0  0  0  0  0  0  0
   -4.9940   22.8210  -31.1580 N   0  0  0  0  0  0  0  0  0  0  0  0
   -3.5640   22.7400  -31.2690 C   0  0  0  0  0  0  0  0  0  0  0  0
   -3.0440   22.2540  -32.3080 O   0  0  0  0  0  0  0  0  0  0  0  0
   -2.7680   23.1780  -30.2010 O   0  0  0  0  0  0  0  0  0  0  0  0
   -2.8070   22.6900  -28.8530 C   0  0  0  0  0  0  0  0  0  0  0  0
   -3.0760   21.1790  -28.9310 C   0  0  0  0  0  0  0  0  0  0  0  0
   -1.4560   22.9210  -28.1500 C   0  0  0  0  0  0  0  0  0  0  0  0
   -3.9490   23.3630  -28.0710 C   0  0  0  0  0  0  0  0  0  0  0  0
   -5.8690   21.8100  -31.3530 C   0  0  0  0  0  0  0  0  0  0  0  0
   -5.5970   20.4740  -31.6740 C   0  0  0  0  0  0  0  0  0  0  0  0
   -3.4619   19.2667  -32.6922 H   0  0  0  0  0  0  0  0  0  0  0  0
   -2.4465   19.1373  -34.1683 H   0  0  0  0  0  0  0  0  0  0  0  0
   -3.9011   20.1913  -34.1683 H   0  0  0  0  0  0  0  0  0  0  0  0
   -7.6316   17.8927  -33.8265 H   0  0  0  0  0  0  0  0  0  0  0  0
   -6.4927   15.7220  -32.4830 H   0  0  0  0  0  0  0  0  0  0  0  0
   -7.3904   15.6859  -34.0385 H   0  0  0  0  0  0  0  0  0  0  0  0
   -5.5978   15.8004  -34.0385 H   0  0  0  0  0  0  0  0  0  0  0  0
   -6.3028   17.7833  -30.0702 H   0  0  0  0  0  0  0  0  0  0  0  0
   -6.7319   16.3745  -31.0988 H   0  0  0  0  0  0  0  0  0  0  0  0
   -5.0509   17.0076  -31.0988 H   0  0  0  0  0  0  0  0  0  0  0  0
   -8.8559   19.3760  -31.8063 H   0  0  0  0  0  0  0  0  0  0  0  0
   -9.2807   21.7984  -31.2811 H   0  0  0  0  0  0  0  0  0  0  0  0
   -7.9602   24.2856  -30.7985 H   0  0  0  0  0  0  0  0  0  0  0  0
   -3.1040   25.2940  -30.3060 H   0  0  0  0  0  0  0  0  0  0  0  0
   -3.1494   20.7667  -27.9139 H   0  0  0  0  0  0  0  0  0  0  0  0
   -4.0198   21.0018  -29.4675 H   0  0  0  0  0  0  0  0  0  0  0  0
   -2.2513   20.6870  -29.4675 H   0  0  0  0  0  0  0  0  0  0  0  0
   -1.6010   22.8962  -27.0599 H   0  0  0  0  0  0  0  0  0  0  0  0
   -0.7498   22.1306  -28.4441 H   0  0  0  0  0  0  0  0  0  0  0  0
   -1.0525   23.9012  -28.4441 H   0  0  0  0  0  0  0  0  0  0  0  0
   -3.7671   23.2558  -26.9915 H   0  0  0  0  0  0  0  0  0  0  0  0
   -3.9921   24.4309  -28.3313 H   0  0  0  0  0  0  0  0  0  0  0  0
   -4.9041   22.8833  -28.3313 H   0  0  0  0  0  0  0  0  0  0  0  0
   -4.5616   20.1268  -31.8056 H   0  0  0  0  0  0  0  0  0  0  0  0
  1  2  1  0
  2  3  1  0
  3  4  2  0
  3  5  1  0
  5  6  1  0
  5  7  1  0
  7  8  1  0
  7  9  1  0
  9 10  2  0
 10 11  1  0
 11 12  2  0
 12 13  1  0
 13 14  2  0
 14 15  1  0
 15 16  1  0
 15 17  2  0
 14 18  1  0
 18 19  1  0
 19 20  2  0
 19 21  1  0
 21 22  1  0
 22 23  1  0
 22 24  1  0
 22 25  1  0
 18 26  1  0
 26 27  2  0
 27  9  1  0
 26 12  1  0
  1 28  1  0
  1 29  1  0
  1 30  1  0
  5 31  1  6
  6 32  1  0
  6 33  1  0
  6 34  1  0
  8 35  1  0
  8 36  1  0
  8 37  1  0
 10 38  1  0
 11 39  1  0
 13 40  1  0
 16 41  1  0
 23 42  1  0
 23 43  1  0
 23 44  1  0
 24 45  1  0
 24 46  1  0
 24 47  1  0
 25 48  1  0
 25 49  1  0
 25 50  1  0
 27 51  1  0
M  CHG  1  16  -1
M  END
>  <UniqueID>  (8) 
8

>  <SMILES>  (8) 
COC(=O)[C@@H](C)N(C)c1ccc2cc(C([NH-])=O)n(C(=O)OC(C)(C)C)c2c1

>  <Energy>  (8) 
83.36661841784786

>  <Genealogy>  (8) 
COC(=O)C(C)N(C)c1ccc2cc(C([NH-])=O)n(C(=O)OC(C)(C)C)c2c1 (protonated)
COC(=O)[C@@H](C)N(C)c1ccc2cc(C([NH-])=O)n(C(=O)OC(C)(C)C)c2c1 (chirality)
COC(=O)[C@@H](C)N(C)c1ccc2cc(C([NH-])=O)n(C(=O)OC(C)(C)C)c2c1 (3D coordinates assigned)
COC(=O)[C@@H](C)N(C)c1ccc2cc(C([NH-])=O)n(C(=O)OC(C)(C)C)c2c1 (optimized conformer: 83.36661841784786 kcal/mol)

>  <smiles>  (8) 
COC(=O)C(C)N(C)c1ccc2cc(C(N)=O)n(C(=O)OC(C)(C)C)c2c1

>  <score_type>  (8) 
oracle

>  <origin>  (8) 
adg

>  <m_score__min__energy>  (8) 
-10.31

>  <m_primary>  (8) 
energy

$$$$
8:0
     RDKit          3D

 41 42  0  0  0  0  0  0  0  0999 V2000
   -3.4650   19.4660  -33.5020 C   0  0  0  0  0  0  0  0  0  0  0  0
   -3.8820   18.6460  -34.5710 O   0  0  0  0  0  0  0  0  0  0  0  0
   -5.2670   18.3700  -34.4730 C   0  0  0  0  0  0  0  0  0  0  0  0
   -5.6520   18.1210  -33.0110 C   0  0  0  0  0  0  0  0  0  0  0  0
   -7.1380   18.4130  -32.7730 C   0  0  0  0  0  0  0  0  0  0  0  0
   -7.3280   19.8330  -32.3100 C   0  0  0  0  0  0  0  0  0  0  0  0
   -8.6190   20.4170  -32.3210 C   0  0  0  0  0  0  0  0  0  0  0  0
   -8.8050   21.7470  -31.9120 C   0  0  0  0  0  0  0  0  0  0  0  0
   -7.6840   22.4710  -31.5160 C   0  0  0  0  0  0  0  0  0  0  0  0
   -7.5840   23.7640  -31.0580 C   0  0  0  0  0  0  0  0  0  0  0  0
   -6.2280   23.9640  -30.8070 C   0  0  0  0  0  0  0  0  0  0  0  0
   -5.6490   25.2580  -30.3820 C   0  0  0  0  0  0  0  0  0  0  0  0
   -4.2770   25.5640  -30.6400 N   0  0  0  0  0  0  0  0  0  0  0  0
   -6.3560   26.0920  -29.7560 O   0  0  0  0  0  0  0  0  0  0  0  0
   -5.5170   22.8370  -31.0960 N   0  0  0  0  0  0  0  0  0  0  0  0
   -4.1100   22.6210  -30.9040 C   0  0  0  0  0  0  0  0  0  0  0  0
   -3.3020   22.8400  -31.8480 O   0  0  0  0  0  0  0  0  0  0  0  0
   -3.6410   22.1560  -29.6720 O   0  0  0  0  0  0  0  0  0  0  0  0
   -3.0870   23.0170  -28.6840 C   0  0  0  0  0  0  0  0  0  0  0  0
   -2.0800   23.9130  -29.3220 C   0  0  0  0  0  0  0  0  0  0  0  0
   -1.0710   23.4240  -29.8930 O   0  0  0  0  0  0  0  0  0  0  0  0
   -2.2810   25.2870  -29.3340 O   0  0  0  0  0  0  0  0  0  0  0  0
   -6.4230   21.9310  -31.5290 C   0  0  0  0  0  0  0  0  0  0  0  0
   -6.2110   20.6020  -31.9130 C   0  0  0  0  0  0  0  0  0  0  0  0
   -3.7129   18.9785  -32.5476 H   0  0  0  0  0  0  0  0  0  0  0  0
   -2.3778   19.6224  -33.5623 H   0  0  0  0  0  0  0  0  0  0  0  0
   -3.9790   20.4367  -33.5623 H   0  0  0  0  0  0  0  0  0  0  0  0
   -5.8372   19.2282  -34.8583 H   0  0  0  0  0  0  0  0  0  0  0  0
   -5.4978   17.4715  -35.0642 H   0  0  0  0  0  0  0  0  0  0  0  0
   -5.4480   17.0696  -32.7601 H   0  0  0  0  0  0  0  0  0  0  0  0
   -5.0580   18.7933  -32.3744 H   0  0  0  0  0  0  0  0  0  0  0  0
   -7.6918   18.2608  -33.7112 H   0  0  0  0  0  0  0  0  0  0  0  0
   -7.5148   17.7317  -31.9959 H   0  0  0  0  0  0  0  0  0  0  0  0
   -9.4832   19.8229  -32.6530 H   0  0  0  0  0  0  0  0  0  0  0  0
   -9.8060   22.2031  -31.9047 H   0  0  0  0  0  0  0  0  0  0  0  0
   -8.4013   24.4870  -30.9192 H   0  0  0  0  0  0  0  0  0  0  0  0
   -3.8690   26.4630  -30.3020 H   0  0  0  0  0  0  0  0  0  0  0  0
   -3.6750   24.9220  -31.2010 H   0  0  0  0  0  0  0  0  0  0  0  0
   -3.8869   23.6239  -28.2347 H   0  0  0  0  0  0  0  0  0  0  0  0
   -2.6025   22.4161  -27.9003 H   0  0  0  0  0  0  0  0  0  0  0  0
   -5.2006   20.1672  -31.9059 H   0  0  0  0  0  0  0  0  0  0  0  0
  1  2  1  0
  2  3  1  0
  3  4  1  0
  4  5  1  0
  5  6  1  0
  6  7  2  0
  7  8  1  0
  8  9  2  0
  9 10  1  0
 10 11  2  0
 11 12  1  0
 12 13  1  0
 12 14  2  0
 11 15  1  0
 15 16  1  0
 16 17  2  0
 16 18  1  0
 18 19  1  0
 19 20  1  0
 20 21  2  0
 20 22  1  0
 15 23  1  0
 23 24  2  0
 24  6  1  0
 23  9  1  0
  1 25  1  0
  1 26  1  0
  1 27  1  0
  3 28  1  0
  3 29  1  0
  4 30  1  0
  4 31  1  0
  5 32  1  0
  5 33  1  0
  7 34  1  0
  8 35  1  0
 10 36  1  0
 13 37  1  0
 13 38  1  0
 19 39  1  0
 19 40  1  0
 24 41  1  0
M  CHG  1  22  -1
M  END
>  <UniqueID>  (9) 
9

>  <SMILES>  (9) 
COCCCc1ccc2cc(C(N)=O)n(C(=O)OCC(=O)[O-])c2c1

>  <Energy>  (9) 
73.42278319505581

>  <Genealogy>  (9) 
COCCCc1ccc2cc(C(N)=O)n(C(=O)OCC(=O)[O-])c2c1 (protonated)
COCCCc1ccc2cc(C(N)=O)n(C(=O)OCC(=O)[O-])c2c1 (3D coordinates assigned)
COCCCc1ccc2cc(C(N)=O)n(C(=O)OCC(=O)[O-])c2c1 (optimized conformer: 73.42278319505581 kcal/mol)

>  <smiles>  (9) 
COCCCc1ccc2cc(C(N)=O)n(C(=O)OCC(=O)O)c2c1

>  <score_type>  (9) 
oracle

>  <origin>  (9) 
adg

>  <m_score__min__energy>  (9) 
-10.039999999999999

>  <m_primary>  (9) 
energy

$$$$
9:0
     RDKit          3D

 32 33  0  0  0  0  0  0  0  0999 V2000
   -4.2360   25.7730  -30.4930 N   0  0  0  0  0  0  0  0  0  0  0  0
   -5.5170   25.1640  -30.3450 C   0  0  0  0  0  0  0  0  0  0  0  0
   -6.3940   25.7340  -29.6430 O   0  0  0  0  0  0  0  0  0  0  0  0
   -5.8070   23.8500  -30.9570 C   0  0  0  0  0  0  0  0  0  0  0  0
   -7.0980   23.4010  -31.2290 C   0  0  0  0  0  0  0  0  0  0  0  0
   -6.9450   22.1190  -31.7050 C   0  0  0  0  0  0  0  0  0  0  0  0
   -7.8990   21.2120  -32.1530 C   0  0  0  0  0  0  0  0  0  0  0  0
   -7.4540   19.9680  -32.6300 C   0  0  0  0  0  0  0  0  0  0  0  0
   -6.0710   19.6480  -32.6430 C   0  0  0  0  0  0  0  0  0  0  0  0
   -5.6010   18.3360  -33.2160 C   0  0  0  0  0  0  0  0  0  0  0  0
   -6.2140   18.1280  -34.4370 F   0  0  0  0  0  0  0  0  0  0  0  0
   -5.9190   17.2900  -32.3680 F   0  0  0  0  0  0  0  0  0  0  0  0
   -4.2280   18.3450  -33.3950 F   0  0  0  0  0  0  0  0  0  0  0  0
   -5.1300   20.6090  -32.2020 C   0  0  0  0  0  0  0  0  0  0  0  0
   -5.6040   21.8320  -31.7140 C   0  0  0  0  0  0  0  0  0  0  0  0
   -4.8920   22.8880  -31.2600 N   0  0  0  0  0  0  0  0  0  0  0  0
   -3.4610   22.9930  -31.2160 C   0  0  0  0  0  0  0  0  0  0  0  0
   -2.7560   22.3310  -32.0260 O   0  0  0  0  0  0  0  0  0  0  0  0
   -2.8570   23.8450  -30.2840 O   0  0  0  0  0  0  0  0  0  0  0  0
   -2.1330   23.3800  -29.1470 C   0  0  0  0  0  0  0  0  0  0  0  0
   -1.3990   24.5360  -28.4670 C   0  0  0  0  0  0  0  0  0  0  0  0
   -1.4000   25.6670  -29.2950 O   0  0  0  0  0  0  0  0  0  0  0  0
   -3.5100   25.6840  -29.7480 H   0  0  0  0  0  0  0  0  0  0  0  0
   -8.0391   23.9538  -31.0923 H   0  0  0  0  0  0  0  0  0  0  0  0
   -8.9702   21.4612  -32.1344 H   0  0  0  0  0  0  0  0  0  0  0  0
   -8.1855   19.2334  -32.9977 H   0  0  0  0  0  0  0  0  0  0  0  0
   -4.0509   20.3994  -32.2419 H   0  0  0  0  0  0  0  0  0  0  0  0
   -2.8352   22.9270  -28.4317 H   0  0  0  0  0  0  0  0  0  0  0  0
   -1.3935   22.6357  -29.4774 H   0  0  0  0  0  0  0  0  0  0  0  0
   -1.9032   24.7791  -27.5201 H   0  0  0  0  0  0  0  0  0  0  0  0
   -0.3588   24.2350  -28.2736 H   0  0  0  0  0  0  0  0  0  0  0  0
   -2.2740   25.6730  -29.7670 H   0  0  0  0  0  0  0  0  0  0  0  0
  1  2  1  0
  2  3  2  0
  2  4  1  0
  4  5  2  0
  5  6  1  0
  6  7  2  0
  7  8  1  0
  8  9  2  0
  9 10  1  0
 10 11  1  0
 10 12  1  0
 10 13  1  0
  9 14  1  0
 14 15  2  0
 15 16  1  0
 16 17  1  0
 17 18  2  0
 17 19  1  0
 19 20  1  0
 20 21  1  0
 21 22  1  0
 16  4  1  0
 15  6  1  0
  1 23  1  0
  5 24  1  0
  7 25  1  0
  8 26  1  0
 14 27  1  0
 20 28  1  0
 20 29  1  0
 21 30  1  0
 21 31  1  0
 22 32  1  0
M  CHG  1   1  -1
M  END
>  <UniqueID>  (10) 
10

>  <SMILES>  (10) 
[NH-]C(=O)c1cc2ccc(C(F)(F)F)cc2n1C(=O)OCCO

>  <Energy>  (10) 
68.53122649359648

>  <Genealogy>  (10) 
[NH-]C(=O)c1cc2ccc(C(F)(F)F)cc2n1C(=O)OCCO (protonated)
[NH-]C(=O)c1cc2ccc(C(F)(F)F)cc2n1C(=O)OCCO (3D coordinates assigned)
[NH-]C(=O)c1cc2ccc(C(F)(F)F)cc2n1C(=O)OCCO (optimized conformer: 68.53122649359648 kcal/mol)

>  <smiles>  (10) 
NC(=O)c1cc2ccc(C(F)(F)F)cc2n1C(=O)OCCO

>  <score_type>  (10) 
oracle

>  <origin>  (10) 
adg

>  <m_score__min__energy>  (10) 
-9.6999999999999993

>  <m_primary>  (10) 
energy

$$$$
10:0
     RDKit          3D

 33 34  0  0  0  0  0  0  0  0999 V2000
   -9.0870   19.4830  -31.5860 C   0  0  0  0  0  0  0  0  0  0  0  0
   -9.3110   20.5660  -32.3350 C   0  0  0  0  0  0  0  0  0  0  0  0
   -9.3850   21.9430  -31.7380 C   0  0  0  0  0  0  0  0  0  0  0  0
   -8.1580   22.6360  -31.9460 O   0  0  0  0  0  0  0  0  0  0  0  0
   -7.1480   22.7190  -30.9800 C   0  0  0  0  0  0  0  0  0  0  0  0
   -7.4280   23.0370  -29.7920 O   0  0  0  0  0  0  0  0  0  0  0  0
   -5.7850   22.4540  -31.3480 N   0  0  0  0  0  0  0  0  0  0  0  0
   -4.6970   23.2500  -31.1400 C   0  0  0  0  0  0  0  0  0  0  0  0
   -4.6870   24.5040  -30.3530 C   0  0  0  0  0  0  0  0  0  0  0  0
   -5.3230   24.5690  -29.0750 N   0  0  0  0  0  0  0  0  0  0  0  0
   -4.1410   25.5390  -30.8180 O   0  0  0  0  0  0  0  0  0  0  0  0
   -3.5570   22.6730  -31.6950 C   0  0  0  0  0  0  0  0  0  0  0  0
   -3.9820   21.4870  -32.2510 C   0  0  0  0  0  0  0  0  0  0  0  0
   -3.2670   20.5210  -32.9510 C   0  0  0  0  0  0  0  0  0  0  0  0
   -3.9690   19.4090  -33.4430 C   0  0  0  0  0  0  0  0  0  0  0  0
   -5.3650   19.2740  -33.2200 C   0  0  0  0  0  0  0  0  0  0  0  0
   -6.1180   18.1080  -33.8080 C   0  0  0  0  0  0  0  0  0  0  0  0
   -7.4330   18.1090  -33.3760 F   0  0  0  0  0  0  0  0  0  0  0  0
   -5.5380   16.9100  -33.4270 F   0  0  0  0  0  0  0  0  0  0  0  0
   -6.0960   18.2010  -35.1870 F   0  0  0  0  0  0  0  0  0  0  0  0
   -6.0590   20.2910  -32.5230 C   0  0  0  0  0  0  0  0  0  0  0  0
   -5.3300   21.3780  -32.0270 C   0  0  0  0  0  0  0  0  0  0  0  0
   -9.0390   18.4896  -32.0559 H   0  0  0  0  0  0  0  0  0  0  0  0
   -8.9506   19.5845  -30.4992 H   0  0  0  0  0  0  0  0  0  0  0  0
   -9.4452   20.4464  -33.4202 H   0  0  0  0  0  0  0  0  0  0  0  0
  -10.2035   22.5022  -32.2148 H   0  0  0  0  0  0  0  0  0  0  0  0
   -9.5693   21.8561  -30.6570 H   0  0  0  0  0  0  0  0  0  0  0  0
   -5.7370   23.7200  -28.6310 H   0  0  0  0  0  0  0  0  0  0  0  0
   -5.3440   25.4680  -28.5460 H   0  0  0  0  0  0  0  0  0  0  0  0
   -2.5345   23.0786  -31.6902 H   0  0  0  0  0  0  0  0  0  0  0  0
   -2.1842   20.6250  -33.1143 H   0  0  0  0  0  0  0  0  0  0  0  0
   -3.4313   18.6332  -34.0079 H   0  0  0  0  0  0  0  0  0  0  0  0
   -7.1471   20.2288  -32.3742 H   0  0  0  0  0  0  0  0  0  0  0  0
  1  2  2  0
  2  3  1  0
  3  4  1  0
  4  5  1  0
  5  6  2  0
  5  7  1  0
  7  8  1  0
  8  9  1  0
  9 10  1  0
  9 11  2  0
  8 12  2  0
 12 13  1  0
 13 14  2  0
 14 15  1  0
 15 16  2  0
 16 17  1  0
 17 18  1  0
 17 19  1  0
 17 20  1  0
 16 21  1  0
 21 22  2  0
 22  7  1  0
 22 13  1  0
  1 23  1  0
  1 24  1  0
  2 25  1  0
  3 26  1  0
  3 27  1  0
 10 28  1  0
 10 29  1  0
 12 30  1  0
 14 31  1  0
 15 32  1  0
 21 33  1  0
M  END
>  <UniqueID>  (11) 
11

>  <SMILES>  (11) 
C=CCOC(=O)n1c(C(N)=O)cc2ccc(C(F)(F)F)cc21

>  <Energy>  (11) 
68.97827366793929

>  <Genealogy>  (11) 
C=CCOC(=O)n1c(C(N)=O)cc2ccc(C(F)(F)F)cc21 (3D coordinates assigned)
C=CCOC(=O)n1c(C(N)=O)cc2ccc(C(F)(F)F)cc21 (optimized conformer: 68.97827366793929 kcal/mol)

>  <smiles>  (11) 
C=CCOC(=O)n1c(C(N)=O)cc2ccc(C(F)(F)F)cc21

>  <score_type>  (11) 
oracle

>  <origin>  (11) 
adg

>  <m_score__min__energy>  (11) 
-7.4199999999999999

>  <m_primary>  (11) 
energy

$$$$
11:0
     RDKit          3D

 36 37  0  0  0  0  0  0  0  0999 V2000
   -6.5090   17.5710  -31.5190 C   0  0  0  0  0  0  0  0  0  0  0  0
   -7.4610   18.3240  -32.4450 C   0  0  0  0  0  0  0  0  0  0  0  0
   -8.7290   17.7790  -32.3320 F   0  0  0  0  0  0  0  0  0  0  0  0
   -7.0420   18.1580  -33.7550 F   0  0  0  0  0  0  0  0  0  0  0  0
   -7.4900   19.7920  -32.0840 C   0  0  0  0  0  0  0  0  0  0  0  0
   -8.6770   20.5520  -32.2560 C   0  0  0  0  0  0  0  0  0  0  0  0
   -8.7020   21.9230  -31.9560 C   0  0  0  0  0  0  0  0  0  0  0  0
   -7.5250   22.5170  -31.5110 C   0  0  0  0  0  0  0  0  0  0  0  0
   -7.2750   23.8180  -31.1440 C   0  0  0  0  0  0  0  0  0  0  0  0
   -5.9250   23.8510  -30.7980 C   0  0  0  0  0  0  0  0  0  0  0  0
   -5.2130   25.0940  -30.4340 C   0  0  0  0  0  0  0  0  0  0  0  0
   -3.8660   25.3150  -30.8430 N   0  0  0  0  0  0  0  0  0  0  0  0
   -5.8190   25.9960  -29.7960 O   0  0  0  0  0  0  0  0  0  0  0  0
   -5.3650   22.6150  -30.9350 N   0  0  0  0  0  0  0  0  0  0  0  0
   -4.0240   22.2130  -30.6160 C   0  0  0  0  0  0  0  0  0  0  0  0
   -3.3100   21.6470  -31.4880 O   0  0  0  0  0  0  0  0  0  0  0  0
   -3.5060   22.4770  -29.3450 O   0  0  0  0  0  0  0  0  0  0  0  0
   -2.1570   22.8790  -29.1280 C   0  0  0  0  0  0  0  0  0  0  0  0
   -2.1220   24.1180  -28.2360 C   0  0  0  0  0  0  0  0  0  0  0  0
   -1.0050   25.0320  -28.6310 C   0  0  0  0  0  0  0  0  0  0  0  0
   -1.2390   26.0520  -29.3330 O   0  0  0  0  0  0  0  0  0  0  0  0
    0.3010   24.7340  -28.2630 O   0  0  0  0  0  0  0  0  0  0  0  0
   -6.3580   21.8100  -31.3760 C   0  0  0  0  0  0  0  0  0  0  0  0
   -6.3100   20.4370  -31.6460 C   0  0  0  0  0  0  0  0  0  0  0  0
   -6.7737   17.7804  -30.4721 H   0  0  0  0  0  0  0  0  0  0  0  0
   -6.5909   16.4906  -31.7089 H   0  0  0  0  0  0  0  0  0  0  0  0
   -5.4765   17.8995  -31.7089 H   0  0  0  0  0  0  0  0  0  0  0  0
   -9.5878   20.0605  -32.6288 H   0  0  0  0  0  0  0  0  0  0  0  0
   -9.6250   22.5106  -32.0694 H   0  0  0  0  0  0  0  0  0  0  0  0
   -7.9885   24.6550  -31.1270 H   0  0  0  0  0  0  0  0  0  0  0  0
   -3.0830   25.2790  -30.1550 H   0  0  0  0  0  0  0  0  0  0  0  0
   -1.6068   22.0616  -28.6389 H   0  0  0  0  0  0  0  0  0  0  0  0
   -1.6890   23.1151  -30.0951 H   0  0  0  0  0  0  0  0  0  0  0  0
   -3.0770   24.6558  -28.3297 H   0  0  0  0  0  0  0  0  0  0  0  0
   -1.9609   23.7968  -27.1963 H   0  0  0  0  0  0  0  0  0  0  0  0
   -5.3746   19.8721  -31.5202 H   0  0  0  0  0  0  0  0  0  0  0  0
  1  2  1  0
  2  3  1  0
  2  4  1  0
  2  5  1  0
  5  6  2  0
  6  7  1  0
  7  8  2  0
  8  9  1  0
  9 10  2  0
 10 11  1  0
 11 12  1  0
 11 13  2  0
 10 14  1  0
 14 15  1  0
 15 16  2  0
 15 17  1  0
 17 18  1  0
 18 19  1  0
 19 20  1  0
 20 21  2  0
 20 22  1  0
 14 23  1  0
 23 24  2  0
 24  5  1  0
 23  8  1  0
  1 25  1  0
  1 26  1  0
  1 27  1  0
  6 28  1  0
  7 29  1  0
  9 30  1  0
 12 31  1  0
 18 32  1  0
 18 33  1  0
 19 34  1  0
 19 35  1  0
 24 36  1  0
M  CHG  2  12  -1  22  -1
M  END
>  <UniqueID>  (12) 
12

>  <SMILES>  (12) 
CC(F)(F)c1ccc2cc(C([NH-])=O)n(C(=O)OCCC(=O)[O-])c2c1

>  <Energy>  (12) 
67.98343969141227

>  <Genealogy>  (12) 
CC(F)(F)c1ccc2cc(C([NH-])=O)n(C(=O)OCCC(=O)[O-])c2c1 (protonated)
CC(F)(F)c1ccc2cc(C([NH-])=O)n(C(=O)OCCC(=O)[O-])c2c1 (3D coordinates assigned)
CC(F)(F)c1ccc2cc(C([NH-])=O)n(C(=O)OCCC(=O)[O-])c2c1 (optimized conformer: 67.98343969141227 kcal/mol)

>  <smiles>  (12) 
CC(F)(F)c1ccc2cc(C(N)=O)n(C(=O)OCCC(=O)O)c2c1

>  <score_type>  (12) 
oracle

>  <origin>  (12) 
adg

>  <m_score__min__energy>  (12) 
-12.44

>  <m_primary>  (12) 
energy

$$$$
12:0
     RDKit          3D

 40 42  0  0  0  0  0  0  0  0999 V2000
   -6.1130   25.6780  -29.2090 N   0  0  0  0  0  0  0  0  0  0  0  0
   -5.4570   25.0970  -30.3370 C   0  0  0  0  0  0  0  0  0  0  0  0
   -4.4840   25.6990  -30.8630 O   0  0  0  0  0  0  0  0  0  0  0  0
   -5.8560   23.7730  -30.8560 C   0  0  0  0  0  0  0  0  0  0  0  0
   -7.1820   23.3900  -31.0380 C   0  0  0  0  0  0  0  0  0  0  0  0
   -7.1220   22.1310  -31.5930 C   0  0  0  0  0  0  0  0  0  0  0  0
   -8.1480   21.2710  -31.9670 C   0  0  0  0  0  0  0  0  0  0  0  0
   -7.7980   20.0110  -32.4800 C   0  0  0  0  0  0  0  0  0  0  0  0
   -6.4360   19.6280  -32.6010 C   0  0  0  0  0  0  0  0  0  0  0  0
   -6.0770   18.2870  -33.1320 C   0  0  0  0  0  0  0  0  0  0  0  0
   -5.7170   18.1090  -34.4770 C   0  0  0  0  0  0  0  0  0  0  0  0
   -5.3970   16.8730  -34.9390 N   0  0  0  0  0  0  0  0  0  0  0  0
   -5.4120   15.7910  -34.1190 C   0  0  0  0  0  0  0  0  0  0  0  0
   -5.0680   14.5050  -34.6270 N   0  0  0  0  0  0  0  0  0  0  0  0
   -5.7550   15.9360  -32.8120 N   0  0  0  0  0  0  0  0  0  0  0  0
   -6.0870   17.1520  -32.3060 C   0  0  0  0  0  0  0  0  0  0  0  0
   -5.4220   20.5330  -32.2070 C   0  0  0  0  0  0  0  0  0  0  0  0
   -5.8000   21.7900  -31.7200 C   0  0  0  0  0  0  0  0  0  0  0  0
   -5.0090   22.7890  -31.2670 N   0  0  0  0  0  0  0  0  0  0  0  0
   -3.5780   22.7600  -31.1450 C   0  0  0  0  0  0  0  0  0  0  0  0
   -3.0260   23.2220  -30.1090 O   0  0  0  0  0  0  0  0  0  0  0  0
   -2.8020   22.2170  -32.1760 O   0  0  0  0  0  0  0  0  0  0  0  0
   -1.9130   21.1170  -31.9940 C   0  0  0  0  0  0  0  0  0  0  0  0
   -2.0390   20.1270  -33.1540 C   0  0  0  0  0  0  0  0  0  0  0  0
   -2.8930   20.6400  -34.1390 O   0  0  0  0  0  0  0  0  0  0  0  0
   -5.8440   26.6320  -28.8820 H   0  0  0  0  0  0  0  0  0  0  0  0
   -6.8000   25.1330  -28.6440 H   0  0  0  0  0  0  0  0  0  0  0  0
   -8.0843   23.9689  -30.7914 H   0  0  0  0  0  0  0  0  0  0  0  0
   -9.2021   21.5681  -31.8644 H   0  0  0  0  0  0  0  0  0  0  0  0
   -8.5886   19.3126  -32.7918 H   0  0  0  0  0  0  0  0  0  0  0  0
   -5.6941   18.9725  -35.1580 H   0  0  0  0  0  0  0  0  0  0  0  0
   -4.0670   14.2380  -34.7580 H   0  0  0  0  0  0  0  0  0  0  0  0
   -5.8140   13.8160  -34.8730 H   0  0  0  0  0  0  0  0  0  0  0  0
   -6.3645   17.2477  -31.2459 H   0  0  0  0  0  0  0  0  0  0  0  0
   -4.3603   20.2550  -32.2817 H   0  0  0  0  0  0  0  0  0  0  0  0
   -0.8795   21.4909  -31.9481 H   0  0  0  0  0  0  0  0  0  0  0  0
   -2.1724   20.6017  -31.0574 H   0  0  0  0  0  0  0  0  0  0  0  0
   -1.0449   19.9513  -33.5910 H   0  0  0  0  0  0  0  0  0  0  0  0
   -2.4558   19.1822  -32.7751 H   0  0  0  0  0  0  0  0  0  0  0  0
   -2.6640   21.6010  -34.2400 H   0  0  0  0  0  0  0  0  0  0  0  0
  1  2  1  0
  2  3  2  0
  2  4  1  0
  4  5  2  0
  5  6  1  0
  6  7  2  0
  7  8  1  0
  8  9  2  0
  9 10  1  0
 10 11  2  0
 11 12  1  0
 12 13  2  0
 13 14  1  0
 13 15  1  0
 15 16  2  0
  9 17  1  0
 17 18  2  0
 18 19  1  0
 19 20  1  0
 20 21  2  0
 20 22  1  0
 22 23  1  0
 23 24  1  0
 24 25  1  0
 19  4  1  0
 18  6  1  0
 16 10  1  0
  1 26  1  0
  1 27  1  0
  5 28  1  0
  7 29  1  0
  8 30  1  0
 11 31  1  0
 14 32  1  0
 14 33  1  0
 16 34  1  0
 17 35  1  0
 23 36  1  0
 23 37  1  0
 24 38  1  0
 24 39  1  0
 25 40  1  0
M  END
>  <UniqueID>  (13) 
13

>  <SMILES>  (13) 
NC(=O)c1cc2ccc(-c3cnc(N)nc3)cc2n1C(=O)OCCO

>  <Energy>  (13) 
82.8161547148127

>  <Genealogy>  (13) 
NC(=O)c1cc2ccc(-c3cnc(N)nc3)cc2n1C(=O)OCCO (3D coordinates assigned)
NC(=O)c1cc2ccc(-c3cnc(N)nc3)cc2n1C(=O)OCCO (optimized conformer: 82.8161547148127 kcal/mol)

>  <smiles>  (13) 
NC(=O)c1cc2ccc(-c3cnc(N)nc3)cc2n1C(=O)OCCO

>  <score_type>  (13) 
oracle

>  <origin>  (13) 
adg

>  <m_score__min__energy>  (13) 
-8.1500000000000004

>  <m_primary>  (13) 
energy

$$$$
13:0
     RDKit          3D

 46 47  0  0  0  0  0  0  0  0999 V2000
   -2.3960   17.7540  -34.2160 C   0  0  0  0  0  0  0  0  0  0  0  0
   -3.4240   16.8090  -34.6230 N   0  0  0  0  0  0  0  0  0  0  0  0
   -4.8090   17.1620  -34.7160 C   0  0  0  0  0  0  0  0  0  0  0  0
   -5.2220   17.8120  -35.7170 O   0  0  0  0  0  0  0  0  0  0  0  0
   -5.7730   16.7110  -33.6290 C   0  0  0  0  0  0  0  0  0  0  0  0
   -6.8770   15.8050  -34.2140 C   0  0  0  0  0  0  0  0  0  0  0  0
   -4.9470   15.8880  -32.6150 C   0  0  0  0  0  0  0  0  0  0  0  0
   -6.4520   17.9380  -32.9960 C   0  0  0  0  0  0  0  0  0  0  0  0
   -7.8240   17.9330  -32.6060 C   0  0  0  0  0  0  0  0  0  0  0  0
   -8.4350   19.0850  -32.0820 C   0  0  0  0  0  0  0  0  0  0  0  0
   -7.6650   20.2350  -31.9550 C   0  0  0  0  0  0  0  0  0  0  0  0
   -8.0140   21.4880  -31.5080 C   0  0  0  0  0  0  0  0  0  0  0  0
   -6.8550   22.2510  -31.6140 C   0  0  0  0  0  0  0  0  0  0  0  0
   -6.7650   23.6560  -31.1700 C   0  0  0  0  0  0  0  0  0  0  0  0
   -5.8720   24.5760  -31.8010 N   0  0  0  0  0  0  0  0  0  0  0  0
   -7.4470   24.0390  -30.1830 O   0  0  0  0  0  0  0  0  0  0  0  0
   -5.8330   21.5060  -32.1210 N   0  0  0  0  0  0  0  0  0  0  0  0
   -4.5070   21.9460  -32.4600 C   0  0  0  0  0  0  0  0  0  0  0  0
   -3.9570   21.5360  -33.5180 O   0  0  0  0  0  0  0  0  0  0  0  0
   -3.8300   22.8230  -31.6090 O   0  0  0  0  0  0  0  0  0  0  0  0
   -3.4780   22.4890  -30.2720 C   0  0  0  0  0  0  0  0  0  0  0  0
   -3.8880   23.6280  -29.3450 C   0  0  0  0  0  0  0  0  0  0  0  0
   -3.2870   24.9200  -29.7990 C   0  0  0  0  0  0  0  0  0  0  0  0
   -3.8990   25.6520  -30.6200 O   0  0  0  0  0  0  0  0  0  0  0  0
   -2.0250   25.2930  -29.3530 O   0  0  0  0  0  0  0  0  0  0  0  0
   -6.3480   20.2710  -32.3240 C   0  0  0  0  0  0  0  0  0  0  0  0
   -5.7230   19.1510  -32.8800 C   0  0  0  0  0  0  0  0  0  0  0  0
   -2.3505   17.7958  -33.1177 H   0  0  0  0  0  0  0  0  0  0  0  0
   -1.4222   17.4292  -34.6112 H   0  0  0  0  0  0  0  0  0  0  0  0
   -2.6378   18.7517  -34.6112 H   0  0  0  0  0  0  0  0  0  0  0  0
   -7.4432   15.3404  -33.3933 H   0  0  0  0  0  0  0  0  0  0  0  0
   -7.5571   16.4087  -34.8328 H   0  0  0  0  0  0  0  0  0  0  0  0
   -6.4176   15.0202  -34.8328 H   0  0  0  0  0  0  0  0  0  0  0  0
   -5.2331   16.1731  -31.5918 H   0  0  0  0  0  0  0  0  0  0  0  0
   -5.1439   14.8163  -32.7657 H   0  0  0  0  0  0  0  0  0  0  0  0
   -3.8760   16.0888  -32.7657 H   0  0  0  0  0  0  0  0  0  0  0  0
   -8.4141   17.0114  -32.7173 H   0  0  0  0  0  0  0  0  0  0  0  0
   -9.4929   19.0767  -31.7808 H   0  0  0  0  0  0  0  0  0  0  0  0
   -8.9987   21.8168  -31.1444 H   0  0  0  0  0  0  0  0  0  0  0  0
   -5.8510   25.5750  -31.5020 H   0  0  0  0  0  0  0  0  0  0  0  0
   -5.1710   24.2500  -32.5040 H   0  0  0  0  0  0  0  0  0  0  0  0
   -3.9986   21.5669  -29.9741 H   0  0  0  0  0  0  0  0  0  0  0  0
   -2.3914   22.3313  -30.2048 H   0  0  0  0  0  0  0  0  0  0  0  0
   -4.9842   23.7189  -29.3473 H   0  0  0  0  0  0  0  0  0  0  0  0
   -3.5261   23.4064  -28.3302 H   0  0  0  0  0  0  0  0  0  0  0  0
   -4.6795   19.2086  -33.2233 H   0  0  0  0  0  0  0  0  0  0  0  0
  1  2  1  0
  2  3  1  0
  3  4  2  0
  3  5  1  0
  5  6  1  0
  5  7  1  0
  5  8  1  0
  8  9  2  0
  9 10  1  0
 10 11  2  0
 11 12  1  0
 12 13  2  0
 13 14  1  0
 14 15  1  0
 14 16  2  0
 13 17  1  0
 17 18  1  0
 18 19  2  0
 18 20  1  0
 20 21  1  0
 21 22  1  0
 22 23  1  0
 23 24  2  0
 23 25  1  0
 17 26  1  0
 26 27  2  0
 27  8  1  0
 26 11  1  0
  1 28  1  0
  1 29  1  0
  1 30  1  0
  6 31  1  0
  6 32  1  0
  6 33  1  0
  7 34  1  0
  7 35  1  0
  7 36  1  0
  9 37  1  0
 10 38  1  0
 12 39  1  0
 15 40  1  0
 15 41  1  0
 21 42  1  0
 21 43  1  0
 22 44  1  0
 22 45  1  0
 27 46  1  0
M  CHG  2   2  -1  25  -1
M  END
>  <UniqueID>  (14) 
14

>  <SMILES>  (14) 
C[N-]C(=O)C(C)(C)c1ccc2cc(C(N)=O)n(C(=O)OCCC(=O)[O-])c2c1

>  <Energy>  (14) 
78.92282286192658

>  <Genealogy>  (14) 
C[N-]C(=O)C(C)(C)c1ccc2cc(C(N)=O)n(C(=O)OCCC(=O)[O-])c2c1 (protonated)
C[N-]C(=O)C(C)(C)c1ccc2cc(C(N)=O)n(C(=O)OCCC(=O)[O-])c2c1 (3D coordinates assigned)
C[N-]C(=O)C(C)(C)c1ccc2cc(C(N)=O)n(C(=O)OCCC(=O)[O-])c2c1 (optimized conformer: 78.92282286192658 kcal/mol)

>  <smiles>  (14) 
CNC(=O)C(C)(C)c1ccc2cc(C(N)=O)n(C(=O)OCCC(=O)O)c2c1

>  <score_type>  (14) 
oracle

>  <origin>  (14) 
adg

>  <m_score__min__energy>  (14) 
-11.039999999999999

>  <m_primary>  (14) 
energy

$$$$
14:0
     RDKit          3D

 47 49  0  0  0  0  0  0  0  0999 V2000
   -4.2710   12.6700  -31.8630 C   0  0  0  0  0  0  0  0  0  0  0  0
   -3.4580   13.6020  -32.5590 O   0  0  0  0  0  0  0  0  0  0  0  0
   -3.9210   14.3430  -33.6540 C   0  0  0  0  0  0  0  0  0  0  0  0
   -3.6400   13.9720  -34.8300 O   0  0  0  0  0  0  0  0  0  0  0  0
   -4.6960   15.5360  -33.4350 N   0  0  0  0  0  0  0  0  0  0  0  0
   -5.1480   16.3580  -34.5670 C   0  0  0  0  0  0  0  0  0  0  0  0
   -5.0940   17.8430  -34.2000 C   0  0  0  0  0  0  0  0  0  0  0  0
   -5.7600   18.1130  -32.9140 N   0  0  0  0  0  0  0  0  0  0  0  0
   -6.1330   19.4670  -32.5740 C   0  0  0  0  0  0  0  0  0  0  0  0
   -7.4910   19.8820  -32.6340 C   0  0  0  0  0  0  0  0  0  0  0  0
   -7.8590   21.1940  -32.2940 C   0  0  0  0  0  0  0  0  0  0  0  0
   -6.8550   22.0730  -31.9050 C   0  0  0  0  0  0  0  0  0  0  0  0
   -6.9290   23.3890  -31.5120 C   0  0  0  0  0  0  0  0  0  0  0  0
   -5.6190   23.7710  -31.2270 C   0  0  0  0  0  0  0  0  0  0  0  0
   -5.2710   25.0860  -30.6460 C   0  0  0  0  0  0  0  0  0  0  0  0
   -3.9780   25.6720  -30.8520 N   0  0  0  0  0  0  0  0  0  0  0  0
   -6.1200   25.6980  -29.9380 O   0  0  0  0  0  0  0  0  0  0  0  0
   -4.7660   22.7290  -31.4440 N   0  0  0  0  0  0  0  0  0  0  0  0
   -3.3480   22.6710  -31.2410 C   0  0  0  0  0  0  0  0  0  0  0  0
   -2.6020   22.1780  -32.1280 O   0  0  0  0  0  0  0  0  0  0  0  0
   -2.8130   23.0950  -30.0200 O   0  0  0  0  0  0  0  0  0  0  0  0
   -1.4180   23.0460  -29.7390 C   0  0  0  0  0  0  0  0  0  0  0  0
   -0.9800   24.3820  -29.2180 C   0  0  0  0  0  0  0  0  0  0  0  0
   -1.7420   25.3830  -29.3300 O   0  0  0  0  0  0  0  0  0  0  0  0
    0.2620   24.5290  -28.6060 O   0  0  0  0  0  0  0  0  0  0  0  0
   -5.5410   21.6970  -31.8470 C   0  0  0  0  0  0  0  0  0  0  0  0
   -5.1430   20.3990  -32.1810 C   0  0  0  0  0  0  0  0  0  0  0  0
   -6.1470   16.9970  -32.0380 C   0  0  0  0  0  0  0  0  0  0  0  0
   -5.0850   15.8900  -32.0620 C   0  0  0  0  0  0  0  0  0  0  0  0
   -4.1467   12.8125  -30.7794 H   0  0  0  0  0  0  0  0  0  0  0  0
   -5.3251   12.8280  -32.1351 H   0  0  0  0  0  0  0  0  0  0  0  0
   -3.9714   11.6472  -32.1351 H   0  0  0  0  0  0  0  0  0  0  0  0
   -4.4947   16.1741  -35.4327 H   0  0  0  0  0  0  0  0  0  0  0  0
   -6.1854   16.0878  -34.8137 H   0  0  0  0  0  0  0  0  0  0  0  0
   -4.0413   18.1540  -34.1281 H   0  0  0  0  0  0  0  0  0  0  0  0
   -5.6205   18.4082  -34.9832 H   0  0  0  0  0  0  0  0  0  0  0  0
   -8.2639   19.1663  -32.9509 H   0  0  0  0  0  0  0  0  0  0  0  0
   -8.9100   21.5162  -32.3343 H   0  0  0  0  0  0  0  0  0  0  0  0
   -7.8335   24.0106  -31.4380 H   0  0  0  0  0  0  0  0  0  0  0  0
   -3.1080   25.1820  -30.5450 H   0  0  0  0  0  0  0  0  0  0  0  0
   -1.2207   22.2720  -28.9827 H   0  0  0  0  0  0  0  0  0  0  0  0
   -0.8615   22.8031  -30.6562 H   0  0  0  0  0  0  0  0  0  0  0  0
   -4.0829   20.1083  -32.1392 H   0  0  0  0  0  0  0  0  0  0  0  0
   -6.2571   17.3685  -31.0085 H   0  0  0  0  0  0  0  0  0  0  0  0
   -7.0986   16.5797  -32.3991 H   0  0  0  0  0  0  0  0  0  0  0  0
   -4.1946   16.2390  -31.5185 H   0  0  0  0  0  0  0  0  0  0  0  0
   -5.5131   14.9952  -31.5865 H   0  0  0  0  0  0  0  0  0  0  0  0
  1  2  1  0
  2  3  1  0
  3  4  2  0
  3  5  1  0
  5  6  1  0
  6  7  1  0
  7  8  1  0
  8  9  1  0
  9 10  2  0
 10 11  1  0
 11 12  2  0
 12 13  1  0
 13 14  2  0
 14 15  1  0
 15 16  1  0
 15 17  2  0
 14 18  1  0
 18 19  1  0
 19 20  2  0
 19 21  1  0
 21 22  1  0
 22 23  1  0
 23 24  2  0
 23 25  1  0
 18 26  1  0
 26 27  2  0
  8 28  1  0
 28 29  1  0
 29  5  1  0
 27  9  1  0
 26 12  1  0
  1 30  1  0
  1 31  1  0
  1 32  1  0
  6 33  1  0
  6 34  1  0
  7 35  1  0
  7 36  1  0
 10 37  1  0
 11 38  1  0
 13 39  1  0
 16 40  1  0
 22 41  1  0
 22 42  1  0
 27 43  1  0
 28 44  1  0
 28 45  1  0
 29 46  1  0
 29 47  1  0
M  CHG  2  16  -1  25  -1
M  END
>  <UniqueID>  (15) 
15

>  <SMILES>  (15) 
COC(=O)N1CCN(c2ccc3cc(C([NH-])=O)n(C(=O)OCC(=O)[O-])c3c2)CC1

>  <Energy>  (15) 
86.72956833804189

>  <Genealogy>  (15) 
COC(=O)N1CCN(c2ccc3cc(C([NH-])=O)n(C(=O)OCC(=O)[O-])c3c2)CC1 (protonated)
COC(=O)N1CCN(c2ccc3cc(C([NH-])=O)n(C(=O)OCC(=O)[O-])c3c2)CC1 (3D coordinates assigned)
COC(=O)N1CCN(c2ccc3cc(C([NH-])=O)n(C(=O)OCC(=O)[O-])c3c2)CC1 (nonaromatic ring conformer: 86.72956833804189 kcal/mol)

>  <smiles>  (15) 
COC(=O)N1CCN(c2ccc3cc(C(N)=O)n(C(=O)OCC(=O)O)c3c2)CC1

>  <score_type>  (15) 
oracle

>  <origin>  (15) 
adg

>  <m_score__min__energy>  (15) 
-12.92

>  <m_primary>  (15) 
energy

$$$$
15:0
     RDKit          3D

 37 38  0  0  0  0  0  0  0  0999 V2000
   -1.5770   25.6760  -28.9500 N   0  0  0  0  0  0  0  0  0  0  0  0
   -0.9120   24.4170  -29.0310 C   0  0  0  0  0  0  0  0  0  0  0  0
    0.2100   24.2760  -28.4780 O   0  0  0  0  0  0  0  0  0  0  0  0
   -1.5510   23.2910  -29.7440 C   0  0  0  0  0  0  0  0  0  0  0  0
   -0.8700   22.4270  -30.6010 C   0  0  0  0  0  0  0  0  0  0  0  0
   -1.8270   21.5620  -31.0820 C   0  0  0  0  0  0  0  0  0  0  0  0
   -1.7040   20.4830  -31.9530 C   0  0  0  0  0  0  0  0  0  0  0  0
   -2.8600   19.7390  -32.2470 C   0  0  0  0  0  0  0  0  0  0  0  0
   -4.1080   20.0860  -31.6710 C   0  0  0  0  0  0  0  0  0  0  0  0
   -5.3290   19.2540  -31.9560 C   0  0  0  0  0  0  0  0  0  0  0  0
   -6.6020   20.0870  -31.7710 C   0  0  0  0  0  0  0  0  0  0  0  0
   -6.7960   21.0640  -32.9340 C   0  0  0  0  0  0  0  0  0  0  0  0
   -6.9100   22.4280  -32.4300 N   0  0  0  0  0  0  0  0  0  0  0  0
   -4.1900   21.1790  -30.7800 C   0  0  0  0  0  0  0  0  0  0  0  0
   -3.0270   21.9110  -30.5200 C   0  0  0  0  0  0  0  0  0  0  0  0
   -2.8740   22.9710  -29.7000 N   0  0  0  0  0  0  0  0  0  0  0  0
   -3.9000   23.5930  -28.9120 C   0  0  0  0  0  0  0  0  0  0  0  0
   -3.6890   23.8410  -27.6940 O   0  0  0  0  0  0  0  0  0  0  0  0
   -5.1990   24.0010  -29.5380 C   0  0  0  0  0  0  0  0  0  0  0  0
   -4.9390   24.7760  -30.7880 C   0  0  0  0  0  0  0  0  0  0  0  0
   -5.6480   24.5840  -31.8100 O   0  0  0  0  0  0  0  0  0  0  0  0
   -3.8810   25.6740  -30.8430 O   0  0  0  0  0  0  0  0  0  0  0  0
   -2.6130   25.7430  -29.0610 H   0  0  0  0  0  0  0  0  0  0  0  0
    0.2034   22.4349  -30.8415 H   0  0  0  0  0  0  0  0  0  0  0  0
   -0.7325   20.2207  -32.3973 H   0  0  0  0  0  0  0  0  0  0  0  0
   -2.7955   18.8795  -32.9304 H   0  0  0  0  0  0  0  0  0  0  0  0
   -5.2836   18.8878  -32.9923 H   0  0  0  0  0  0  0  0  0  0  0  0
   -5.3535   18.4068  -31.2548 H   0  0  0  0  0  0  0  0  0  0  0  0
   -7.4689   19.4118  -31.7207 H   0  0  0  0  0  0  0  0  0  0  0  0
   -6.5082   20.6661  -30.8405 H   0  0  0  0  0  0  0  0  0  0  0  0
   -5.9326   20.9979  -33.6124 H   0  0  0  0  0  0  0  0  0  0  0  0
   -7.7177   20.8019  -33.4741 H   0  0  0  0  0  0  0  0  0  0  0  0
   -6.4940   23.0750  -33.1390 H   0  0  0  0  0  0  0  0  0  0  0  0
   -6.3110   22.5020  -31.5750 H   0  0  0  0  0  0  0  0  0  0  0  0
   -5.1441   21.4475  -30.3029 H   0  0  0  0  0  0  0  0  0  0  0  0
   -5.7850   23.1024  -29.7811 H   0  0  0  0  0  0  0  0  0  0  0  0
   -5.7599   24.6304  -28.8314 H   0  0  0  0  0  0  0  0  0  0  0  0
  1  2  1  0
  2  3  2  0
  2  4  1  0
  4  5  2  0
  5  6  1  0
  6  7  2  0
  7  8  1  0
  8  9  2  0
  9 10  1  0
 10 11  1  0
 11 12  1  0
 12 13  1  0
  9 14  1  0
 14 15  2  0
 15 16  1  0
 16 17  1  0
 17 18  2  0
 17 19  1  0
 19 20  1  0
 20 21  2  0
 20 22  1  0
 16  4  1  0
 15  6  1  0
  1 23  1  0
  5 24  1  0
  7 25  1  0
  8 26  1  0
 10 27  1  0
 10 28  1  0
 11 29  1  0
 11 30  1  0
 12 31  1  0
 12 32  1  0
 13 33  1  0
 13 34  1  0
 14 35  1  0
 19 36  1  0
 19 37  1  0
M  CHG  2   1  -1  22  -1
M  END
>  <UniqueID>  (16) 
16

>  <SMILES>  (16) 
[NH-]C(=O)c1cc2ccc(CCCN)cc2n1C(=O)CC(=O)[O-]

>  <Energy>  (16) 
67.89458062586765

>  <Genealogy>  (16) 
[NH-]C(=O)c1cc2ccc(CCCN)cc2n1C(=O)CC(=O)[O-] (protonated)
[NH-]C(=O)c1cc2ccc(CCCN)cc2n1C(=O)CC(=O)[O-] (3D coordinates assigned)
[NH-]C(=O)c1cc2ccc(CCCN)cc2n1C(=O)CC(=O)[O-] (optimized conformer: 67.89458062586765 kcal/mol)

>  <smiles>  (16) 
NCCCc1ccc2cc(C(N)=O)n(C(=O)CC(=O)O)c2c1

>  <score_type>  (16) 
oracle

>  <origin>  (16) 
adg

>  <m_score__min__energy>  (16) 
-11.619999999999999

>  <m_primary>  (16) 
energy

$$$$
16:0
     RDKit          3D

 60 62  0  0  0  0  0  0  0  0999 V2000
   -6.8320   20.2120  -32.8460 C   0  0  0  0  0  0  0  0  0  0  0  0
   -6.9680   18.4650  -32.5400 S   0  0  0  0  0  0  0  0  0  0  0  0
   -6.1090   18.1030  -31.3610 O   0  0  0  0  0  0  0  0  0  0  0  0
   -8.4000   18.1260  -32.2380 O   0  0  0  0  0  0  0  0  0  0  0  0
   -6.4230   17.5720  -33.9900 C   0  0  0  0  0  0  0  0  0  0  0  0
   -5.0740   18.0830  -34.4910 C   0  0  0  0  0  0  0  0  0  0  0  0
   -4.0450   17.7170  -33.5790 O   0  0  0  0  0  0  0  0  0  0  0  0
   -2.7230   18.1530  -33.7140 C   0  0  0  0  0  0  0  0  0  0  0  0
   -1.8190   17.3330  -34.0360 O   0  0  0  0  0  0  0  0  0  0  0  0
   -2.3950   19.5360  -33.4800 N   0  0  0  0  0  0  0  0  0  0  0  0
   -3.3920   20.4770  -32.9960 C   0  0  0  0  0  0  0  0  0  0  0  0
   -3.2440   20.6760  -31.4820 C   0  0  0  0  0  0  0  0  0  0  0  0
   -1.8650   20.5120  -30.9470 N   0  0  0  0  0  0  0  0  0  0  0  0
   -1.6420   20.7070  -29.5140 C   0  0  0  0  0  0  0  0  0  0  0  0
   -1.8290   19.6370  -28.5850 C   0  0  0  0  0  0  0  0  0  0  0  0
   -1.6030   19.8130  -27.2110 C   0  0  0  0  0  0  0  0  0  0  0  0
   -1.1910   21.0630  -26.7700 C   0  0  0  0  0  0  0  0  0  0  0  0
   -0.8720   21.4950  -25.5020 C   0  0  0  0  0  0  0  0  0  0  0  0
   -0.5080   22.8310  -25.6510 C   0  0  0  0  0  0  0  0  0  0  0  0
   -0.1350   23.7060  -24.5200 C   0  0  0  0  0  0  0  0  0  0  0  0
    0.9780   24.5970  -24.6040 N   0  0  0  0  0  0  0  0  0  0  0  0
   -0.8380   23.6960  -23.4740 O   0  0  0  0  0  0  0  0  0  0  0  0
   -0.5830   23.2020  -26.9600 N   0  0  0  0  0  0  0  0  0  0  0  0
   -0.1970   24.4550  -27.5470 C   0  0  0  0  0  0  0  0  0  0  0  0
    1.0250   24.7500  -27.6370 O   0  0  0  0  0  0  0  0  0  0  0  0
   -1.2100   25.4140  -28.0190 C   0  0  0  0  0  0  0  0  0  0  0  0
   -1.6160   26.3290  -27.2550 O   0  0  0  0  0  0  0  0  0  0  0  0
   -1.7160   25.3110  -29.3510 N   0  0  0  0  0  0  0  0  0  0  0  0
   -3.2370   24.5680  -29.7160 S   0  0  0  0  0  0  0  0  0  0  0  0
   -4.0480   24.0680  -28.2140 C   0  0  0  0  0  0  0  0  0  0  0  0
   -3.0150   23.3760  -30.6030 O   0  0  0  0  0  0  0  0  0  0  0  0
   -4.1060   25.5600  -30.4360 O   0  0  0  0  0  0  0  0  0  0  0  0
   -1.0110   22.1100  -27.6290 C   0  0  0  0  0  0  0  0  0  0  0  0
   -1.2140   21.9660  -29.0040 C   0  0  0  0  0  0  0  0  0  0  0  0
   -0.7430   19.9910  -31.7700 C   0  0  0  0  0  0  0  0  0  0  0  0
   -1.0230   19.9660  -33.2690 C   0  0  0  0  0  0  0  0  0  0  0  0
   -6.7901   20.7500  -31.8874 H   0  0  0  0  0  0  0  0  0  0  0  0
   -5.9155   20.4135  -33.4199 H   0  0  0  0  0  0  0  0  0  0  0  0
   -7.7063   20.5529  -33.4199 H   0  0  0  0  0  0  0  0  0  0  0  0
   -6.3295   16.5053  -33.7381 H   0  0  0  0  0  0  0  0  0  0  0  0
   -7.1659   17.7238  -34.7869 H   0  0  0  0  0  0  0  0  0  0  0  0
   -4.8609   17.6427  -35.4762 H   0  0  0  0  0  0  0  0  0  0  0  0
   -5.1110   19.1794  -34.5721 H   0  0  0  0  0  0  0  0  0  0  0  0
   -3.2563   21.4431  -33.5042 H   0  0  0  0  0  0  0  0  0  0  0  0
   -4.3946   20.0776  -33.2085 H   0  0  0  0  0  0  0  0  0  0  0  0
   -3.5832   21.6938  -31.2390 H   0  0  0  0  0  0  0  0  0  0  0  0
   -3.8466   19.8845  -31.0126 H   0  0  0  0  0  0  0  0  0  0  0  0
   -2.1571   18.6544  -28.9549 H   0  0  0  0  0  0  0  0  0  0  0  0
   -1.7483   18.9835  -26.5034 H   0  0  0  0  0  0  0  0  0  0  0  0
   -0.8989   20.9101  -24.5708 H   0  0  0  0  0  0  0  0  0  0  0  0
    1.2600   25.1600  -23.7710 H   0  0  0  0  0  0  0  0  0  0  0  0
    1.4650   24.7730  -25.5100 H   0  0  0  0  0  0  0  0  0  0  0  0
   -3.4697   24.4245  -27.3489 H   0  0  0  0  0  0  0  0  0  0  0  0
   -5.0593   24.4997  -28.1821 H   0  0  0  0  0  0  0  0  0  0  0  0
   -4.1166   22.9706  -28.1821 H   0  0  0  0  0  0  0  0  0  0  0  0
   -1.0454   22.8142  -29.6838 H   0  0  0  0  0  0  0  0  0  0  0  0
    0.1372   20.6269  -31.5945 H   0  0  0  0  0  0  0  0  0  0  0  0
   -0.5845   18.9470  -31.4617 H   0  0  0  0  0  0  0  0  0  0  0  0
   -0.8821   20.9730  -33.6886 H   0  0  0  0  0  0  0  0  0  0  0  0
   -0.3316   19.2708  -33.7677 H   0  0  0  0  0  0  0  0  0  0  0  0
  1  2  1  0
  2  3  2  0
  2  4  2  0
  2  5  1  0
  5  6  1  0
  6  7  1  0
  7  8  1  0
  8  9  2  0
  8 10  1  0
 10 11  1  0
 11 12  1  0
 12 13  1  0
 13 14  1  0
 14 15  2  0
 15 16  1  0
 16 17  2  0
 17 18  1  0
 18 19  2  0
 19 20  1  0
 20 21  1  0
 20 22  2  0
 19 23  1  0
 23 24  1  0
 24 25  2  0
 24 26  1  0
 26 27  2  0
 26 28  1  0
 28 29  1  0
 29 30  1  0
 29 31  2  0
 29 32  2  0
 23 33  1  0
 33 34  2  0
 13 35  1  0
 35 36  1  0
 36 10  1  0
 34 14  1  0
 33 17  1  0
  1 37  1  0
  1 38  1  0
  1 39  1  0
  5 40  1  0
  5 41  1  0
  6 42  1  0
  6 43  1  0
 11 44  1  0
 11 45  1  0
 12 46  1  0
 12 47  1  0
 15 48  1  0
 16 49  1  0
 18 50  1  0
 21 51  1  0
 21 52  1  0
 30 53  1  0
 30 54  1  0
 30 55  1  0
 34 56  1  0
 35 57  1  0
 35 58  1  0
 36 59  1  0
 36 60  1  0
M  CHG  1  28  -1
M  END
>  <UniqueID>  (17) 
17

>  <SMILES>  (17) 
CS(=O)(=O)CCOC(=O)N1CCN(c2ccc3cc(C(N)=O)n(C(=O)C(=O)[N-]S(C)(=O)=O)c3c2)CC1

>  <Energy>  (17) 
94.79248119862062

>  <Genealogy>  (17) 
CS(=O)(=O)CCOC(=O)N1CCN(c2ccc3cc(C(N)=O)n(C(=O)C(=O)[N-]S(C)(=O)=O)c3c2)CC1 (protonated)
CS(=O)(=O)CCOC(=O)N1CCN(c2ccc3cc(C(N)=O)n(C(=O)C(=O)[N-]S(C)(=O)=O)c3c2)CC1 (3D coordinates assigned)
CS(=O)(=O)CCOC(=O)N1CCN(c2ccc3cc(C(N)=O)n(C(=O)C(=O)[N-]S(C)(=O)=O)c3c2)CC1 (nonaromatic ring conformer: 94.79248119862062 kcal/mol)

>  <smiles>  (17) 
CS(=O)(=O)CCOC(=O)N1CCN(c2ccc3cc(C(N)=O)n(C(=O)C(=O)NS(C)(=O)=O)c3c2)CC1

>  <score_type>  (17) 
oracle

>  <origin>  (17) 
adg

>  <m_score__min__energy>  (17) 
-11.94

>  <m_primary>  (17) 
energy

$$$$
17:0
     RDKit          3D

 35 36  0  0  0  0  0  0  0  0999 V2000
   -0.9440   26.5710  -27.8300 C   0  0  0  0  0  0  0  0  0  0  0  0
   -1.5300   25.3740  -28.4200 N   0  0  0  0  0  0  0  0  0  0  0  0
   -0.7380   24.2320  -28.7600 C   0  0  0  0  0  0  0  0  0  0  0  0
    0.5060   24.2430  -28.5530 O   0  0  0  0  0  0  0  0  0  0  0  0
   -1.3670   23.1140  -29.3240 O   0  0  0  0  0  0  0  0  0  0  0  0
   -2.7490   22.8770  -29.3140 C   0  0  0  0  0  0  0  0  0  0  0  0
   -3.4830   23.3690  -28.4140 O   0  0  0  0  0  0  0  0  0  0  0  0
   -3.2920   22.0800  -30.3280 O   0  0  0  0  0  0  0  0  0  0  0  0
   -4.0070   22.5580  -31.4360 C   0  0  0  0  0  0  0  0  0  0  0  0
   -3.4650   22.6300  -32.5720 O   0  0  0  0  0  0  0  0  0  0  0  0
   -5.3810   22.9460  -31.2760 N   0  0  0  0  0  0  0  0  0  0  0  0
   -5.8720   24.1720  -30.9360 C   0  0  0  0  0  0  0  0  0  0  0  0
   -5.0750   25.3380  -30.5000 C   0  0  0  0  0  0  0  0  0  0  0  0
   -3.6510   25.2890  -30.4810 N   0  0  0  0  0  0  0  0  0  0  0  0
   -5.6620   26.3760  -30.0910 O   0  0  0  0  0  0  0  0  0  0  0  0
   -7.2650   24.1680  -30.9760 C   0  0  0  0  0  0  0  0  0  0  0  0
   -7.6160   22.8900  -31.3430 C   0  0  0  0  0  0  0  0  0  0  0  0
   -8.8740   22.3330  -31.5510 C   0  0  0  0  0  0  0  0  0  0  0  0
   -8.9410   20.9900  -31.9610 C   0  0  0  0  0  0  0  0  0  0  0  0
   -7.7570   20.2340  -32.1490 C   0  0  0  0  0  0  0  0  0  0  0  0
   -7.8400   18.8180  -32.6360 C   0  0  0  0  0  0  0  0  0  0  0  0
   -8.4870   18.0420  -31.6920 F   0  0  0  0  0  0  0  0  0  0  0  0
   -6.4970   20.8380  -31.9440 C   0  0  0  0  0  0  0  0  0  0  0  0
   -6.4610   22.1710  -31.5180 C   0  0  0  0  0  0  0  0  0  0  0  0
   -0.9812   26.4951  -26.7333 H   0  0  0  0  0  0  0  0  0  0  0  0
    0.1024   26.6658  -28.1557 H   0  0  0  0  0  0  0  0  0  0  0  0
   -1.5109   27.4556  -28.1557 H   0  0  0  0  0  0  0  0  0  0  0  0
   -2.5590   25.3470  -28.5980 H   0  0  0  0  0  0  0  0  0  0  0  0
   -3.1470   24.3770  -30.4410 H   0  0  0  0  0  0  0  0  0  0  0  0
   -7.9405   25.0088  -30.7599 H   0  0  0  0  0  0  0  0  0  0  0  0
   -9.7883   22.9255  -31.3992 H   0  0  0  0  0  0  0  0  0  0  0  0
   -9.9207   20.5219  -32.1374 H   0  0  0  0  0  0  0  0  0  0  0  0
   -8.4009   18.7880  -33.5818 H   0  0  0  0  0  0  0  0  0  0  0  0
   -6.8249   18.4265  -32.7985 H   0  0  0  0  0  0  0  0  0  0  0  0
   -5.5674   20.2752  -32.1147 H   0  0  0  0  0  0  0  0  0  0  0  0
  1  2  1  0
  2  3  1  0
  3  4  2  0
  3  5  1  0
  5  6  1  0
  6  7  2  0
  6  8  1  0
  8  9  1  0
  9 10  2  0
  9 11  1  0
 11 12  1  0
 12 13  1  0
 13 14  1  0
 13 15  2  0
 12 16  2  0
 16 17  1  0
 17 18  2  0
 18 19  1  0
 19 20  2  0
 20 21  1  0
 21 22  1  0
 20 23  1  0
 23 24  2  0
 24 11  1  0
 24 17  1  0
  1 25  1  0
  1 26  1  0
  1 27  1  0
  2 28  1  0
 14 29  1  0
 16 30  1  0
 18 31  1  0
 19 32  1  0
 21 33  1  0
 21 34  1  0
 23 35  1  0
M  CHG  1  14  -1
M  END
>  <UniqueID>  (18) 
18

>  <SMILES>  (18) 
CNC(=O)OC(=O)OC(=O)n1c(C([NH-])=O)cc2ccc(CF)cc21

>  <Energy>  (18) 
72.64699846863367

>  <Genealogy>  (18) 
CNC(=O)OC(=O)OC(=O)n1c(C([NH-])=O)cc2ccc(CF)cc21 (protonated)
CNC(=O)OC(=O)OC(=O)n1c(C([NH-])=O)cc2ccc(CF)cc21 (3D coordinates assigned)
CNC(=O)OC(=O)OC(=O)n1c(C([NH-])=O)cc2ccc(CF)cc21 (optimized conformer: 72.64699846863367 kcal/mol)

>  <smiles>  (18) 
CNC(=O)OC(=O)OC(=O)n1c(C(N)=O)cc2ccc(CF)cc21

>  <score_type>  (18) 
oracle

>  <origin>  (18) 
adg

>  <m_score__min__energy>  (18) 
-9.2899999999999991

>  <m_primary>  (18) 
energy

$$$$
18:0
     RDKit          3D

 36 37  0  0  0  0  0  0  0  0999 V2000
   -1.2170   25.3160  -28.5850 C   0  0  0  0  0  0  0  0  0  0  0  0
   -2.3430   24.8390  -29.3140 O   0  0  0  0  0  0  0  0  0  0  0  0
   -3.1840   23.8000  -28.8820 C   0  0  0  0  0  0  0  0  0  0  0  0
   -4.0590   23.9590  -27.4920 S   0  0  0  0  0  0  0  0  0  0  0  0
   -3.2860   22.6010  -29.6820 N   0  0  0  0  0  0  0  0  0  0  0  0
   -2.8510   21.3020  -29.1540 C   0  0  0  0  0  0  0  0  0  0  0  0
   -3.8530   22.6690  -31.0040 C   0  0  0  0  0  0  0  0  0  0  0  0
   -3.1020   22.5990  -32.0150 O   0  0  0  0  0  0  0  0  0  0  0  0
   -5.2720   22.8010  -31.1890 N   0  0  0  0  0  0  0  0  0  0  0  0
   -6.0610   23.8500  -30.8260 C   0  0  0  0  0  0  0  0  0  0  0  0
   -5.5860   25.1470  -30.3000 C   0  0  0  0  0  0  0  0  0  0  0  0
   -6.2100   25.7620  -29.1710 N   0  0  0  0  0  0  0  0  0  0  0  0
   -4.5830   25.6980  -30.8250 O   0  0  0  0  0  0  0  0  0  0  0  0
   -7.4050   23.5510  -31.0410 C   0  0  0  0  0  0  0  0  0  0  0  0
   -7.4140   22.2750  -31.5590 C   0  0  0  0  0  0  0  0  0  0  0  0
   -8.4840   21.4660  -31.9260 C   0  0  0  0  0  0  0  0  0  0  0  0
   -8.2020   20.1660  -32.3810 C   0  0  0  0  0  0  0  0  0  0  0  0
   -6.8630   19.7010  -32.4660 C   0  0  0  0  0  0  0  0  0  0  0  0
   -6.5770   18.2850  -32.8940 C   0  0  0  0  0  0  0  0  0  0  0  0
   -7.6790   17.4760  -32.6710 F   0  0  0  0  0  0  0  0  0  0  0  0
   -5.5090   17.7660  -32.1850 F   0  0  0  0  0  0  0  0  0  0  0  0
   -6.2750   18.2700  -34.2420 F   0  0  0  0  0  0  0  0  0  0  0  0
   -5.8060   20.5460  -32.0550 C   0  0  0  0  0  0  0  0  0  0  0  0
   -6.1150   21.8440  -31.6330 C   0  0  0  0  0  0  0  0  0  0  0  0
   -1.4160   25.2317  -27.5064 H   0  0  0  0  0  0  0  0  0  0  0  0
   -0.3322   24.7154  -28.8427 H   0  0  0  0  0  0  0  0  0  0  0  0
   -1.0328   26.3694  -28.8427 H   0  0  0  0  0  0  0  0  0  0  0  0
   -2.8608   21.3313  -28.0544 H   0  0  0  0  0  0  0  0  0  0  0  0
   -3.5348   20.5155  -29.5060 H   0  0  0  0  0  0  0  0  0  0  0  0
   -1.8315   21.0859  -29.5060 H   0  0  0  0  0  0  0  0  0  0  0  0
   -6.9150   25.2500  -28.5960 H   0  0  0  0  0  0  0  0  0  0  0  0
   -5.8920   26.7030  -28.8470 H   0  0  0  0  0  0  0  0  0  0  0  0
   -8.2730   24.1961  -30.8400 H   0  0  0  0  0  0  0  0  0  0  0  0
   -9.5193   21.8321  -31.8622 H   0  0  0  0  0  0  0  0  0  0  0  0
   -9.0280   19.5015  -32.6745 H   0  0  0  0  0  0  0  0  0  0  0  0
   -4.7649   20.1911  -32.0668 H   0  0  0  0  0  0  0  0  0  0  0  0
  1  2  1  0
  2  3  1  0
  3  4  2  0
  3  5  1  0
  5  6  1  0
  5  7  1  0
  7  8  2  0
  7  9  1  0
  9 10  1  0
 10 11  1  0
 11 12  1  0
 11 13  2  0
 10 14  2  0
 14 15  1  0
 15 16  2  0
 16 17  1  0
 17 18  2  0
 18 19  1  0
 19 20  1  0
 19 21  1  0
 19 22  1  0
 18 23  1  0
 23 24  2  0
 24  9  1  0
 24 15  1  0
  1 25  1  0
  1 26  1  0
  1 27  1  0
  6 28  1  0
  6 29  1  0
  6 30  1  0
 12 31  1  0
 12 32  1  0
 14 33  1  0
 16 34  1  0
 17 35  1  0
 23 36  1  0
M  END
>  <UniqueID>  (19) 
19

>  <SMILES>  (19) 
COC(=S)N(C)C(=O)n1c(C(N)=O)cc2ccc(C(F)(F)F)cc21

>  <Energy>  (19) 
78.55386804499663

>  <Genealogy>  (19) 
COC(=S)N(C)C(=O)n1c(C(N)=O)cc2ccc(C(F)(F)F)cc21 (3D coordinates assigned)
COC(=S)N(C)C(=O)n1c(C(N)=O)cc2ccc(C(F)(F)F)cc21 (optimized conformer: 78.55386804499663 kcal/mol)

>  <smiles>  (19) 
COC(=S)N(C)C(=O)n1c(C(N)=O)cc2ccc(C(F)(F)F)cc21

>  <score_type>  (19) 
oracle

>  <origin>  (19) 
adg

>  <m_score__min__energy>  (19) 
-8.5800000000000001

>  <m_primary>  (19) 
energy

$$$$
19:0
     RDKit          3D

 37 38  0  0  0  0  0  0  0  0999 V2000
   -2.3500   21.1050  -32.3590 C   0  0  0  0  0  0  0  0  0  0  0  0
   -3.3620   21.9340  -32.6080 C   0  0  0  0  0  0  0  0  0  0  0  0
   -3.9640   22.7890  -31.5670 C   0  0  0  0  0  0  0  0  0  0  0  0
   -3.2310   23.4840  -30.8110 O   0  0  0  0  0  0  0  0  0  0  0  0
   -5.3910   22.8480  -31.4180 N   0  0  0  0  0  0  0  0  0  0  0  0
   -6.1210   23.8220  -30.8050 C   0  0  0  0  0  0  0  0  0  0  0  0
   -5.5720   25.0840  -30.2560 C   0  0  0  0  0  0  0  0  0  0  0  0
   -6.1200   25.6690  -29.0730 N   0  0  0  0  0  0  0  0  0  0  0  0
   -4.6230   25.6680  -30.8430 O   0  0  0  0  0  0  0  0  0  0  0  0
   -7.4780   23.5010  -30.8300 C   0  0  0  0  0  0  0  0  0  0  0  0
   -7.5550   22.2890  -31.4800 C   0  0  0  0  0  0  0  0  0  0  0  0
   -8.6610   21.5010  -31.7780 C   0  0  0  0  0  0  0  0  0  0  0  0
   -8.4420   20.2820  -32.4410 C   0  0  0  0  0  0  0  0  0  0  0  0
   -7.1310   19.8650  -32.7840 C   0  0  0  0  0  0  0  0  0  0  0  0
   -6.9530   18.6080  -33.4650 N   0  0  0  0  0  0  0  0  0  0  0  0
   -6.7780   17.3210  -32.7900 C   0  0  0  0  0  0  0  0  0  0  0  0
   -5.9480   16.3960  -33.6250 C   0  0  0  0  0  0  0  0  0  0  0  0
   -5.7040   15.2300  -33.2090 O   0  0  0  0  0  0  0  0  0  0  0  0
   -5.4770   16.8220  -34.8700 O   0  0  0  0  0  0  0  0  0  0  0  0
   -4.2180   17.4630  -35.0320 C   0  0  0  0  0  0  0  0  0  0  0  0
   -6.0300   20.6930  -32.4510 C   0  0  0  0  0  0  0  0  0  0  0  0
   -6.2820   21.9140  -31.8190 C   0  0  0  0  0  0  0  0  0  0  0  0
   -1.9337   20.4867  -33.1679 H   0  0  0  0  0  0  0  0  0  0  0  0
   -1.9303   21.0386  -31.3444 H   0  0  0  0  0  0  0  0  0  0  0  0
   -3.7651   21.9833  -33.6303 H   0  0  0  0  0  0  0  0  0  0  0  0
   -6.8600   25.1850  -28.5180 H   0  0  0  0  0  0  0  0  0  0  0  0
   -5.7500   26.5790  -28.7200 H   0  0  0  0  0  0  0  0  0  0  0  0
   -8.3102   24.0906  -30.4180 H   0  0  0  0  0  0  0  0  0  0  0  0
   -9.6765   21.8222  -31.5030 H   0  0  0  0  0  0  0  0  0  0  0  0
   -9.2993   19.6423  -32.6975 H   0  0  0  0  0  0  0  0  0  0  0  0
   -6.9410   18.6050  -34.5100 H   0  0  0  0  0  0  0  0  0  0  0  0
   -6.2766   17.4844  -31.8246 H   0  0  0  0  0  0  0  0  0  0  0  0
   -7.7670   16.8657  -32.6332 H   0  0  0  0  0  0  0  0  0  0  0  0
   -3.7881   17.6819  -34.0434 H   0  0  0  0  0  0  0  0  0  0  0  0
   -3.5385   16.8011  -35.5889 H   0  0  0  0  0  0  0  0  0  0  0  0
   -4.3535   18.4019  -35.5889 H   0  0  0  0  0  0  0  0  0  0  0  0
   -5.0010   20.3820  -32.6845 H   0  0  0  0  0  0  0  0  0  0  0  0
  1  2  2  0
  2  3  1  0
  3  4  2  0
  3  5  1  0
  5  6  1  0
  6  7  1  0
  7  8  1  0
  7  9  2  0
  6 10  2  0
 10 11  1  0
 11 12  2  0
 12 13  1  0
 13 14  2  0
 14 15  1  0
 15 16  1  0
 16 17  1  0
 17 18  2  0
 17 19  1  0
 19 20  1  0
 14 21  1  0
 21 22  2  0
 22  5  1  0
 22 11  1  0
  1 23  1  0
  1 24  1  0
  2 25  1  0
  8 26  1  0
  8 27  1  0
 10 28  1  0
 12 29  1  0
 13 30  1  0
 15 31  1  0
 16 32  1  0
 16 33  1  0
 20 34  1  0
 20 35  1  0
 20 36  1  0
 21 37  1  0
M  END
>  <UniqueID>  (20) 
20

>  <SMILES>  (20) 
C=CC(=O)n1c(C(N)=O)cc2ccc(NCC(=O)OC)cc21

>  <Energy>  (20) 
70.68116798284782

>  <Genealogy>  (20) 
C=CC(=O)n1c(C(N)=O)cc2ccc(NCC(=O)OC)cc21 (3D coordinates assigned)
C=CC(=O)n1c(C(N)=O)cc2ccc(NCC(=O)OC)cc21 (optimized conformer: 70.68116798284782 kcal/mol)

>  <smiles>  (20) 
C=CC(=O)n1c(C(N)=O)cc2ccc(NCC(=O)OC)cc21

>  <score_type>  (20) 
oracle

>  <origin>  (20) 
adg

>  <m_score__min__energy>  (20) 
-8.1500000000000004

>  <m_primary>  (20) 
energy

$$$$
20:0
     RDKit          3D

 39 41  0  0  0  0  0  0  0  0999 V2000
   -9.0090   18.5580  -31.6020 C   0  0  0  0  0  0  0  0  0  0  0  0
   -7.8900   18.6880  -32.5480 N   0  0  0  0  0  0  0  0  0  0  0  0
   -6.6450   18.1690  -31.9380 C   0  0  0  0  0  0  0  0  0  0  0  0
   -5.4140   18.5310  -32.7780 C   0  0  0  0  0  0  0  0  0  0  0  0
   -5.2670   20.0630  -32.9730 C   0  0  0  0  0  0  0  0  0  0  0  0
   -4.0650   20.6240  -32.2340 C   0  0  0  0  0  0  0  0  0  0  0  0
   -2.8480   19.8960  -32.2060 C   0  0  0  0  0  0  0  0  0  0  0  0
   -1.7250   20.3950  -31.5260 C   0  0  0  0  0  0  0  0  0  0  0  0
   -1.8400   21.6280  -30.8940 C   0  0  0  0  0  0  0  0  0  0  0  0
   -0.9210   22.3280  -30.1470 C   0  0  0  0  0  0  0  0  0  0  0  0
   -1.5760   23.4920  -29.7510 C   0  0  0  0  0  0  0  0  0  0  0  0
   -0.9160   24.5760  -28.9940 C   0  0  0  0  0  0  0  0  0  0  0  0
   -1.4650   25.8920  -28.9660 N   0  0  0  0  0  0  0  0  0  0  0  0
    0.1740   24.3500  -28.4030 O   0  0  0  0  0  0  0  0  0  0  0  0
   -2.8540   23.5070  -30.2260 N   0  0  0  0  0  0  0  0  0  0  0  0
   -3.8780   24.4820  -29.9730 C   0  0  0  0  0  0  0  0  0  0  0  0
   -4.7850   24.2480  -29.1310 O   0  0  0  0  0  0  0  0  0  0  0  0
   -3.8940   25.6820  -30.6730 O   0  0  0  0  0  0  0  0  0  0  0  0
   -2.9980   22.3600  -30.9260 C   0  0  0  0  0  0  0  0  0  0  0  0
   -4.1380   21.8780  -31.5790 C   0  0  0  0  0  0  0  0  0  0  0  0
   -6.5480   20.8290  -32.5880 C   0  0  0  0  0  0  0  0  0  0  0  0
   -7.7900   20.0740  -33.0820 C   0  0  0  0  0  0  0  0  0  0  0  0
   -8.6254   18.6026  -30.5720 H   0  0  0  0  0  0  0  0  0  0  0  0
   -9.7228   19.3793  -31.7633 H   0  0  0  0  0  0  0  0  0  0  0  0
   -9.5155   17.5950  -31.7633 H   0  0  0  0  0  0  0  0  0  0  0  0
   -6.5319   18.6020  -30.9331 H   0  0  0  0  0  0  0  0  0  0  0  0
   -6.7171   17.0726  -31.8862 H   0  0  0  0  0  0  0  0  0  0  0  0
   -4.5150   18.1506  -32.2710 H   0  0  0  0  0  0  0  0  0  0  0  0
   -5.5371   18.0746  -33.7713 H   0  0  0  0  0  0  0  0  0  0  0  0
   -5.0994   20.2143  -34.0496 H   0  0  0  0  0  0  0  0  0  0  0  0
   -2.7829   18.9277  -32.7238 H   0  0  0  0  0  0  0  0  0  0  0  0
   -0.7832   19.8276  -31.4944 H   0  0  0  0  0  0  0  0  0  0  0  0
    0.1119   22.0315  -29.9122 H   0  0  0  0  0  0  0  0  0  0  0  0
   -2.4990   26.0420  -28.9670 H   0  0  0  0  0  0  0  0  0  0  0  0
   -5.0711   22.4605  -31.5836 H   0  0  0  0  0  0  0  0  0  0  0  0
   -6.5957   20.9290  -31.4936 H   0  0  0  0  0  0  0  0  0  0  0  0
   -6.5243   21.8237  -33.0570 H   0  0  0  0  0  0  0  0  0  0  0  0
   -8.6847   20.6331  -32.7708 H   0  0  0  0  0  0  0  0  0  0  0  0
   -7.7088   19.9956  -34.1762 H   0  0  0  0  0  0  0  0  0  0  0  0
  1  2  1  0
  2  3  1  0
  3  4  1  0
  4  5  1  0
  5  6  1  0
  6  7  2  0
  7  8  1  0
  8  9  2  0
  9 10  1  0
 10 11  2  0
 11 12  1  0
 12 13  1  0
 12 14  2  0
 11 15  1  0
 15 16  1  0
 16 17  2  0
 16 18  1  0
 15 19  1  0
 19 20  2  0
  5 21  1  0
 21 22  1  0
 22  2  1  0
 20  6  1  0
 19  9  1  0
  1 23  1  0
  1 24  1  0
  1 25  1  0
  3 26  1  0
  3 27  1  0
  4 28  1  0
  4 29  1  0
  5 30  1  0
  7 31  1  0
  8 32  1  0
 10 33  1  0
 13 34  1  0
 20 35  1  0
 21 36  1  0
 21 37  1  0
 22 38  1  0
 22 39  1  0
M  CHG  2  13  -1  18  -1
M  END
>  <UniqueID>  (21) 
21

>  <SMILES>  (21) 
CN1CCC(c2ccc3cc(C([NH-])=O)n(C(=O)[O-])c3c2)CC1

>  <Energy>  (21) 
88.68040747994739

>  <Genealogy>  (21) 
CN1CCC(c2ccc3cc(C([NH-])=O)n(C(=O)[O-])c3c2)CC1 (protonated)
CN1CCC(c2ccc3cc(C([NH-])=O)n(C(=O)[O-])c3c2)CC1 (3D coordinates assigned)
CN1CCC(c2ccc3cc(C([NH-])=O)n(C(=O)[O-])c3c2)CC1 (nonaromatic ring conformer: 88.68040747994739 kcal/mol)

>  <smiles>  (21) 
CN1CCC(c2ccc3cc(C(N)=O)n(C(=O)O)c3c2)CC1

>  <score_type>  (21) 
oracle

>  <origin>  (21) 
adg

>  <m_score__min__energy>  (21) 
-12.44

>  <m_primary>  (21) 
energy

$$$$
21:0
     RDKit          3D

 31 32  0  0  0  0  0  0  0  0999 V2000
   -6.4830   18.3140  -33.2950 C   0  0  0  0  0  0  0  0  0  0  0  0
   -6.7820   19.6910  -32.7810 C   0  0  0  0  0  0  0  0  0  0  0  0
   -8.1240   20.1090  -32.6060 C   0  0  0  0  0  0  0  0  0  0  0  0
   -8.4130   21.3770  -32.0740 C   0  0  0  0  0  0  0  0  0  0  0  0
   -7.3450   22.1980  -31.7240 C   0  0  0  0  0  0  0  0  0  0  0  0
   -7.3450   23.4490  -31.1510 C   0  0  0  0  0  0  0  0  0  0  0  0
   -6.0020   23.7820  -30.9980 C   0  0  0  0  0  0  0  0  0  0  0  0
   -5.5460   25.0830  -30.4750 C   0  0  0  0  0  0  0  0  0  0  0  0
   -4.1830   25.4920  -30.6010 N   0  0  0  0  0  0  0  0  0  0  0  0
   -6.3840   25.8730  -29.9600 O   0  0  0  0  0  0  0  0  0  0  0  0
   -5.1990   22.7740  -31.4430 N   0  0  0  0  0  0  0  0  0  0  0  0
   -3.7650   22.6960  -31.3410 C   0  0  0  0  0  0  0  0  0  0  0  0
   -3.0760   22.3680  -32.3450 O   0  0  0  0  0  0  0  0  0  0  0  0
   -3.1400   22.9790  -30.1190 O   0  0  0  0  0  0  0  0  0  0  0  0
   -1.7260   22.9520  -29.9360 C   0  0  0  0  0  0  0  0  0  0  0  0
   -1.2430   24.2460  -29.3610 C   0  0  0  0  0  0  0  0  0  0  0  0
   -0.0720   24.3420  -28.9080 O   0  0  0  0  0  0  0  0  0  0  0  0
   -2.0830   25.3530  -29.3380 O   0  0  0  0  0  0  0  0  0  0  0  0
   -6.0390   21.8090  -31.8880 C   0  0  0  0  0  0  0  0  0  0  0  0
   -5.7240   20.5420  -32.4000 C   0  0  0  0  0  0  0  0  0  0  0  0
   -6.3345   17.6301  -32.4464 H   0  0  0  0  0  0  0  0  0  0  0  0
   -7.3253   17.9604  -33.9078 H   0  0  0  0  0  0  0  0  0  0  0  0
   -5.5699   18.3416  -33.9078 H   0  0  0  0  0  0  0  0  0  0  0  0
   -8.9465   19.4356  -32.8888 H   0  0  0  0  0  0  0  0  0  0  0  0
   -9.4523   21.7108  -31.9382 H   0  0  0  0  0  0  0  0  0  0  0  0
   -8.2192   24.0561  -30.8732 H   0  0  0  0  0  0  0  0  0  0  0  0
   -3.8700   26.4070  -30.2080 H   0  0  0  0  0  0  0  0  0  0  0  0
   -3.5020   24.9270  -31.1550 H   0  0  0  0  0  0  0  0  0  0  0  0
   -1.4662   22.1325  -29.2498 H   0  0  0  0  0  0  0  0  0  0  0  0
   -1.2455   22.7978  -30.9134 H   0  0  0  0  0  0  0  0  0  0  0  0
   -4.6772   20.2198  -32.5019 H   0  0  0  0  0  0  0  0  0  0  0  0
  1  2  1  0
  2  3  2  0
  3  4  1  0
  4  5  2  0
  5  6  1  0
  6  7  2  0
  7  8  1  0
  8  9  1  0
  8 10  2  0
  7 11  1  0
 11 12  1  0
 12 13  2  0
 12 14  1  0
 14 15  1  0
 15 16  1  0
 16 17  2  0
 16 18  1  0
 11 19  1  0
 19 20  2  0
 20  2  1  0
 19  5  1  0
  1 21  1  0
  1 22  1  0
  1 23  1  0
  3 24  1  0
  4 25  1  0
  6 26  1  0
  9 27  1  0
  9 28  1  0
 15 29  1  0
 15 30  1  0
 20 31  1  0
M  CHG  1  18  -1
M  END
>  <UniqueID>  (22) 
22

>  <SMILES>  (22) 
Cc1ccc2cc(C(N)=O)n(C(=O)OCC(=O)[O-])c2c1

>  <Energy>  (22) 
67.49952426336031

>  <Genealogy>  (22) 
Cc1ccc2cc(C(N)=O)n(C(=O)OCC(=O)[O-])c2c1 (protonated)
Cc1ccc2cc(C(N)=O)n(C(=O)OCC(=O)[O-])c2c1 (3D coordinates assigned)
Cc1ccc2cc(C(N)=O)n(C(=O)OCC(=O)[O-])c2c1 (optimized conformer: 67.49952426336031 kcal/mol)

>  <smiles>  (22) 
Cc1ccc2cc(C(N)=O)n(C(=O)OCC(=O)O)c2c1

>  <score_type>  (22) 
oracle

>  <origin>  (22) 
adg

>  <m_score__min__energy>  (22) 
-9.9399999999999995

>  <m_primary>  (22) 
energy

$$$$
22:0
     RDKit          3D

 37 39  0  0  0  0  0  0  0  0999 V2000
   -3.8650   25.6310  -30.8430 N   0  0  0  0  0  0  0  0  0  0  0  0
   -5.1500   25.1900  -30.4140 C   0  0  0  0  0  0  0  0  0  0  0  0
   -5.8610   25.9560  -29.7100 O   0  0  0  0  0  0  0  0  0  0  0  0
   -5.6750   23.8670  -30.8150 C   0  0  0  0  0  0  0  0  0  0  0  0
   -6.8600   23.6900  -31.5260 C   0  0  0  0  0  0  0  0  0  0  0  0
   -6.9420   22.3370  -31.7680 C   0  0  0  0  0  0  0  0  0  0  0  0
   -7.9210   21.5990  -32.4250 C   0  0  0  0  0  0  0  0  0  0  0  0
   -7.7550   20.2060  -32.5050 C   0  0  0  0  0  0  0  0  0  0  0  0
   -6.6120   19.5770  -31.9450 C   0  0  0  0  0  0  0  0  0  0  0  0
   -6.4740   18.0780  -31.9880 C   0  0  0  0  0  0  0  0  0  0  0  0
   -7.6830   17.5190  -32.3580 F   0  0  0  0  0  0  0  0  0  0  0  0
   -5.5060   17.7020  -32.9040 F   0  0  0  0  0  0  0  0  0  0  0  0
   -6.1100   17.5840  -30.7470 F   0  0  0  0  0  0  0  0  0  0  0  0
   -5.6500   20.3610  -31.2660 C   0  0  0  0  0  0  0  0  0  0  0  0
   -5.8390   21.7450  -31.2110 C   0  0  0  0  0  0  0  0  0  0  0  0
   -5.0570   22.6700  -30.6160 N   0  0  0  0  0  0  0  0  0  0  0  0
   -3.8520   22.4040  -29.8830 C   0  0  0  0  0  0  0  0  0  0  0  0
   -3.9250   22.0770  -28.6680 O   0  0  0  0  0  0  0  0  0  0  0  0
   -2.5330   22.5590  -30.5240 C   0  0  0  0  0  0  0  0  0  0  0  0
   -1.7610   23.4820  -30.1520 O   0  0  0  0  0  0  0  0  0  0  0  0
   -2.1140   21.6730  -31.5620 N   0  0  0  0  0  0  0  0  0  0  0  0
   -2.6430   20.5120  -32.3030 C   0  0  0  0  0  0  0  0  0  0  0  0
   -1.4450   20.3310  -33.1850 C   0  0  0  0  0  0  0  0  0  0  0  0
   -1.6970   20.6300  -34.5970 N   0  0  0  0  0  0  0  0  0  0  0  0
   -0.9240   21.5060  -32.4180 C   0  0  0  0  0  0  0  0  0  0  0  0
   -2.9940   25.2600  -30.4010 H   0  0  0  0  0  0  0  0  0  0  0  0
   -7.5777   24.4663  -31.8296 H   0  0  0  0  0  0  0  0  0  0  0  0
   -8.7990   22.0912  -32.8687 H   0  0  0  0  0  0  0  0  0  0  0  0
   -8.5198   19.5956  -33.0075 H   0  0  0  0  0  0  0  0  0  0  0  0
   -4.7743   19.8929  -30.7927 H   0  0  0  0  0  0  0  0  0  0  0  0
   -2.8289   19.6429  -31.6549 H   0  0  0  0  0  0  0  0  0  0  0  0
   -3.6174   20.6342  -32.7985 H   0  0  0  0  0  0  0  0  0  0  0  0
   -0.9095   19.3774  -33.3029 H   0  0  0  0  0  0  0  0  0  0  0  0
   -1.2210   21.5200  -34.8770 H   0  0  0  0  0  0  0  0  0  0  0  0
   -2.7250   20.7840  -34.7100 H   0  0  0  0  0  0  0  0  0  0  0  0
   -0.0168   21.2693  -31.8427 H   0  0  0  0  0  0  0  0  0  0  0  0
   -0.5987   22.3806  -33.0005 H   0  0  0  0  0  0  0  0  0  0  0  0
  1  2  1  0
  2  3  2  0
  2  4  1  0
  4  5  2  0
  5  6  1  0
  6  7  2  0
  7  8  1  0
  8  9  2  0
  9 10  1  0
 10 11  1  0
 10 12  1  0
 10 13  1  0
  9 14  1  0
 14 15  2  0
 15 16  1  0
 16 17  1  0
 17 18  2  0
 17 19  1  0
 19 20  2  0
 19 21  1  0
 21 22  1  0
 22 23  1  0
 23 24  1  0
 23 25  1  0
 16  4  1  0
 25 21  1  0
 15  6  1  0
  1 26  1  0
  5 27  1  0
  7 28  1  0
  8 29  1  0
 14 30  1  0
 22 31  1  0
 22 32  1  0
 23 33  1  0
 24 34  1  0
 24 35  1  0
 25 36  1  0
 25 37  1  0
M  CHG  1   1  -1
M  END
>  <UniqueID>  (23) 
23

>  <SMILES>  (23) 
[NH-]C(=O)c1cc2ccc(C(F)(F)F)cc2n1C(=O)C(=O)N1CC(N)C1

>  <Energy>  (23) 
123.4239910885251

>  <Genealogy>  (23) 
[NH-]C(=O)c1cc2ccc(C(F)(F)F)cc2n1C(=O)C(=O)N1CC(N)C1 (protonated)
[NH-]C(=O)c1cc2ccc(C(F)(F)F)cc2n1C(=O)C(=O)N1CC(N)C1 (3D coordinates assigned)
[NH-]C(=O)c1cc2ccc(C(F)(F)F)cc2n1C(=O)C(=O)N1CC(N)C1 (nonaromatic ring conformer: 123.4239910885251 kcal/mol)

>  <smiles>  (23) 
NC(=O)c1cc2ccc(C(F)(F)F)cc2n1C(=O)C(=O)N1CC(N)C1

>  <score_type>  (23) 
oracle

>  <origin>  (23) 
adg

>  <m_score__min__energy>  (23) 
-10.4

>  <m_primary>  (23) 
energy

$$$$
23:0
     RDKit          3D

 51 53  0  0  0  0  0  0  0  0999 V2000
   -4.6040   18.0310  -34.5770 C   0  0  0  0  0  0  0  0  0  0  0  0
   -4.2190   17.1440  -33.5480 O   0  0  0  0  0  0  0  0  0  0  0  0
   -5.2550   16.2120  -33.2700 C   0  0  0  0  0  0  0  0  0  0  0  0
   -6.5500   16.6810  -33.9810 C   0  0  0  0  0  0  0  0  0  0  0  0
   -7.5110   17.4580  -33.0630 C   0  0  0  0  0  0  0  0  0  0  0  0
   -6.7620   18.2070  -32.0460 N   0  0  0  0  0  0  0  0  0  0  0  0
   -6.8770   19.6400  -31.9440 C   0  0  0  0  0  0  0  0  0  0  0  0
   -8.0230   20.3010  -32.4570 C   0  0  0  0  0  0  0  0  0  0  0  0
   -8.1510   21.6970  -32.3610 C   0  0  0  0  0  0  0  0  0  0  0  0
   -7.1280   22.4040  -31.7380 C   0  0  0  0  0  0  0  0  0  0  0  0
   -6.9820   23.7590  -31.5370 C   0  0  0  0  0  0  0  0  0  0  0  0
   -5.7640   23.9040  -30.8770 C   0  0  0  0  0  0  0  0  0  0  0  0
   -5.2500   25.2020  -30.3940 C   0  0  0  0  0  0  0  0  0  0  0  0
   -3.9500   25.6560  -30.7610 N   0  0  0  0  0  0  0  0  0  0  0  0
   -5.9470   25.8980  -29.6090 O   0  0  0  0  0  0  0  0  0  0  0  0
   -5.1760   22.6890  -30.6840 N   0  0  0  0  0  0  0  0  0  0  0  0
   -3.8700   22.4240  -30.1480 C   0  0  0  0  0  0  0  0  0  0  0  0
   -3.7130   21.4930  -29.3130 O   0  0  0  0  0  0  0  0  0  0  0  0
   -2.7810   23.1930  -30.5830 O   0  0  0  0  0  0  0  0  0  0  0  0
   -1.5280   23.2400  -29.9570 C   0  0  0  0  0  0  0  0  0  0  0  0
   -0.5920   22.4710  -30.3100 O   0  0  0  0  0  0  0  0  0  0  0  0
   -1.3080   24.2020  -28.8300 C   0  0  1  0  0  0  0  0  0  0  0  0
   -1.2920   25.5060  -29.3440 O   0  0  0  0  0  0  0  0  0  0  0  0
   -2.4240   24.0700  -27.7830 C   0  0  0  0  0  0  0  0  0  0  0  0
   -3.6190   24.6350  -28.2510 O   0  0  0  0  0  0  0  0  0  0  0  0
   -6.0240   21.7810  -31.2150 C   0  0  0  0  0  0  0  0  0  0  0  0
   -5.8630   20.3940  -31.3100 C   0  0  0  0  0  0  0  0  0  0  0  0
   -5.8420   17.4810  -31.1580 C   0  0  0  0  0  0  0  0  0  0  0  0
   -5.4630   16.1110  -31.7460 C   0  0  0  0  0  0  0  0  0  0  0  0
   -5.0049   18.9546  -34.1340 H   0  0  0  0  0  0  0  0  0  0  0  0
   -3.7296   18.2723  -35.1993 H   0  0  0  0  0  0  0  0  0  0  0  0
   -5.3774   17.5571  -35.1993 H   0  0  0  0  0  0  0  0  0  0  0  0
   -4.9851   15.2133  -33.6439 H   0  0  0  0  0  0  0  0  0  0  0  0
   -6.2687   17.3328  -34.8212 H   0  0  0  0  0  0  0  0  0  0  0  0
   -7.0814   15.7767  -34.3123 H   0  0  0  0  0  0  0  0  0  0  0  0
   -8.1002   18.1617  -33.6693 H   0  0  0  0  0  0  0  0  0  0  0  0
   -8.1757   16.7417  -32.5579 H   0  0  0  0  0  0  0  0  0  0  0  0
   -8.8206   19.7137  -32.9355 H   0  0  0  0  0  0  0  0  0  0  0  0
   -9.0330   22.2147  -32.7660 H   0  0  0  0  0  0  0  0  0  0  0  0
   -7.6788   24.5565  -31.8344 H   0  0  0  0  0  0  0  0  0  0  0  0
   -3.0920   25.2130  -30.3620 H   0  0  0  0  0  0  0  0  0  0  0  0
   -0.3478   23.9768  -28.3428 H   0  0  0  0  0  0  0  0  0  0  0  0
   -2.1920   25.6770  -29.7270 H   0  0  0  0  0  0  0  0  0  0  0  0
   -2.5902   23.0044  -27.5662 H   0  0  0  0  0  0  0  0  0  0  0  0
   -2.1160   24.6041  -26.8720 H   0  0  0  0  0  0  0  0  0  0  0  0
   -3.4700   24.8620  -29.2070 H   0  0  0  0  0  0  0  0  0  0  0  0
   -4.9683   19.9020  -30.9009 H   0  0  0  0  0  0  0  0  0  0  0  0
   -4.9282   18.0783  -31.0230 H   0  0  0  0  0  0  0  0  0  0  0  0
   -6.3460   17.3179  -30.1940 H   0  0  0  0  0  0  0  0  0  0  0  0
   -4.5316   15.7616  -31.2766 H   0  0  0  0  0  0  0  0  0  0  0  0
   -6.2798   15.4018  -31.5464 H   0  0  0  0  0  0  0  0  0  0  0  0
  1  2  1  0
  2  3  1  0
  3  4  1  0
  4  5  1  0
  5  6  1  0
  6  7  1  0
  7  8  2  0
  8  9  1  0
  9 10  2  0
 10 11  1  0
 11 12  2  0
 12 13  1  0
 13 14  1  0
 13 15  2  0
 12 16  1  0
 16 17  1  0
 17 18  2  0
 17 19  1  0
 19 20  1  0
 20 21  2  0
 20 22  1  0
 22 23  1  0
 22 24  1  0
 24 25  1  0
 16 26  1  0
 26 27  2  0
  6 28  1  0
 28 29  1  0
 29  3  1  0
 27  7  1  0
 26 10  1  0
  1 30  1  0
  1 31  1  0
  1 32  1  0
  3 33  1  0
  4 34  1  0
  4 35  1  0
  5 36  1  0
  5 37  1  0
  8 38  1  0
  9 39  1  0
 11 40  1  0
 14 41  1  0
 22 42  1  1
 23 43  1  0
 24 44  1  0
 24 45  1  0
 25 46  1  0
 27 47  1  0
 28 48  1  0
 28 49  1  0
 29 50  1  0
 29 51  1  0
M  CHG  1  14  -1
M  END
>  <UniqueID>  (24) 
24

>  <SMILES>  (24) 
COC1CCN(c2ccc3cc(C([NH-])=O)n(C(=O)OC(=O)[C@@H](O)CO)c3c2)CC1

>  <Energy>  (24) 
97.47578906022372

>  <Genealogy>  (24) 
COC1CCN(c2ccc3cc(C([NH-])=O)n(C(=O)OC(=O)[C@@H](O)CO)c3c2)CC1 (protonated)
COC1CCN(c2ccc3cc(C([NH-])=O)n(C(=O)OC(=O)[C@@H](O)CO)c3c2)CC1 (3D coordinates assigned)
COC1CCN(c2ccc3cc(C([NH-])=O)n(C(=O)OC(=O)[C@@H](O)CO)c3c2)CC1 (nonaromatic ring conformer: 97.47578906022372 kcal/mol)

>  <smiles>  (24) 
COC1CCN(c2ccc3cc(C(N)=O)n(C(=O)OC(=O)[C@@H](O)CO)c3c2)CC1

>  <score_type>  (24) 
oracle

>  <origin>  (24) 
adg

>  <m_score__min__energy>  (24) 
-11.140000000000001

>  <m_primary>  (24) 
energy

$$$$
24:0
     RDKit          3D

 43 45  0  0  0  0  0  0  0  0999 V2000
   -3.3260   25.1670  -30.5570 H   0  0  0  0  0  0  0  0  0  0  0  0
   -4.2250   25.6970  -30.5850 N   0  0  0  0  0  0  0  0  0  0  0  0
   -5.4410   25.1050  -30.1310 C   0  0  0  0  0  0  0  0  0  0  0  0
   -6.1440   25.7160  -29.2840 O   0  0  0  0  0  0  0  0  0  0  0  0
   -5.9110   23.8160  -30.6800 C   0  0  0  0  0  0  0  0  0  0  0  0
   -7.2480   23.5420  -30.9580 C   0  0  0  0  0  0  0  0  0  0  0  0
   -8.1165   24.1861  -30.7559 H   0  0  0  0  0  0  0  0  0  0  0  0
   -7.2520   22.2950  -31.5390 C   0  0  0  0  0  0  0  0  0  0  0  0
   -8.3130   21.5300  -32.0090 C   0  0  0  0  0  0  0  0  0  0  0  0
   -9.3455   21.9066  -31.9641 H   0  0  0  0  0  0  0  0  0  0  0  0
   -8.0290   20.2620  -32.5430 C   0  0  0  0  0  0  0  0  0  0  0  0
   -8.8491   19.6401  -32.9312 H   0  0  0  0  0  0  0  0  0  0  0  0
   -6.6940   19.7720  -32.5880 C   0  0  0  0  0  0  0  0  0  0  0  0
   -6.3800   18.4290  -33.1420 C   0  0  0  0  0  0  0  0  0  0  0  0
   -5.2010   18.1830  -33.7820 N   0  0  0  0  0  0  0  0  0  0  0  0
   -5.0990   16.9040  -34.1990 C   0  0  0  0  0  0  0  0  0  0  0  0
   -3.9450   16.3840  -34.9840 C   0  0  0  0  0  0  0  0  0  0  0  0
   -3.1626   16.0314  -34.2959 H   0  0  0  0  0  0  0  0  0  0  0  0
   -4.2791   15.5494  -35.6179 H   0  0  0  0  0  0  0  0  0  0  0  0
   -3.5411   17.1871  -35.6179 H   0  0  0  0  0  0  0  0  0  0  0  0
   -6.4760   16.0240  -33.8200 S   0  0  0  0  0  0  0  0  0  0  0  0
   -7.2330   17.3220  -33.0630 C   0  0  0  0  0  0  0  0  0  0  0  0
   -8.2253   17.3038  -32.5887 H   0  0  0  0  0  0  0  0  0  0  0  0
   -5.6430   20.5880  -32.1020 C   0  0  0  0  0  0  0  0  0  0  0  0
   -4.6016   20.2343  -32.1236 H   0  0  0  0  0  0  0  0  0  0  0  0
   -5.9570   21.8530  -31.5940 C   0  0  0  0  0  0  0  0  0  0  0  0
   -5.1210   22.7730  -31.0650 N   0  0  0  0  0  0  0  0  0  0  0  0
   -3.7040   22.6310  -30.8880 C   0  0  0  0  0  0  0  0  0  0  0  0
   -2.9100   23.3010  -31.6040 O   0  0  0  0  0  0  0  0  0  0  0  0
   -3.2110   21.7600  -29.9080 O   0  0  0  0  0  0  0  0  0  0  0  0
   -2.0180   22.0110  -29.1700 C   0  0  0  0  0  0  0  0  0  0  0  0
   -1.1576   21.9977  -29.8553 H   0  0  0  0  0  0  0  0  0  0  0  0
   -1.9004   21.2312  -28.4031 H   0  0  0  0  0  0  0  0  0  0  0  0
   -2.0950   23.3530  -28.4960 C   0  0  0  0  0  0  0  0  0  0  0  0
   -3.0300   23.5480  -27.6140 N   0  0  0  0  0  0  0  0  0  0  0  0
   -3.2140   24.7460  -26.9600 O   0  0  0  0  0  0  0  0  0  0  0  0
   -4.4630   25.0490  -26.3610 C   0  0  0  0  0  0  0  0  0  0  0  0
   -4.3602   25.0241  -25.2661 H   0  0  0  0  0  0  0  0  0  0  0  0
   -4.7871   26.0518  -26.6761 H   0  0  0  0  0  0  0  0  0  0  0  0
   -5.2106   24.3062  -26.6761 H   0  0  0  0  0  0  0  0  0  0  0  0
   -1.1470   24.4240  -28.8950 C   0  0  0  0  0  0  0  0  0  0  0  0
    0.0940   24.2200  -28.8310 O   0  0  0  0  0  0  0  0  0  0  0  0
   -1.6000   25.6600  -29.3400 O   0  0  0  0  0  0  0  0  0  0  0  0
  1  2  1  0
  2  3  1  0
  3  4  2  0
  3  5  1  0
  5  6  2  0
  6  7  1  0
  6  8  1  0
  8  9  2  0
  9 10  1  0
  9 11  1  0
 11 12  1  0
 11 13  2  0
 13 14  1  0
 14 15  1  0
 15 16  2  0
 16 17  1  0
 17 18  1  0
 17 19  1  0
 17 20  1  0
 16 21  1  0
 21 22  1  0
 22 23  1  0
 13 24  1  0
 24 25  1  0
 24 26  2  0
 26 27  1  0
 27 28  1  0
 28 29  2  0
 28 30  1  0
 30 31  1  0
 31 32  1  0
 31 33  1  0
 31 34  1  0
 34 35  2  0
 35 36  1  0
 36 37  1  0
 37 38  1  0
 37 39  1  0
 37 40  1  0
 34 41  1  0
 41 42  2  0
 41 43  1  0
 27  5  1  0
 26  8  1  0
 22 14  2  0
M  CHG  2   2  -1  43  -1
M  END
>  <UniqueID>  (25) 
25

>  <SMILES>  (25) 
CO/N=C(/COC(=O)n1c(C([NH-])=O)cc2ccc(-c3csc(C)n3)cc21)C(=O)[O-]

>  <Energy>  (25) 
109.55587033879911

>  <Genealogy>  (25) 
CO/N=C(/COC(=O)n1c(C([NH-])=O)cc2ccc(-c3csc(C)n3)cc21)C(=O)[O-] (protonated)
CO/N=C(/COC(=O)n1c(C([NH-])=O)cc2ccc(-c3csc(C)n3)cc21)C(=O)[O-] (cis-trans isomerization)
CO/N=C(/COC(=O)n1c(C([NH-])=O)cc2ccc(-c3csc(C)n3)cc21)C(=O)[O-] (3D coordinates assigned)
CO/N=C(/COC(=O)n1c(C([NH-])=O)cc2ccc(-c3csc(C)n3)cc21)C(=O)[O-] (optimized conformer: 109.55587033879911 kcal/mol)

>  <smiles>  (25) 
CO/N=C(/COC(=O)n1c(C(N)=O)cc2ccc(-c3csc(C)n3)cc21)C(=O)O

>  <score_type>  (25) 
oracle

>  <origin>  (25) 
adg

>  <m_score__min__energy>  (25) 
-13.84

>  <m_primary>  (25) 
energy

$$$$
25:0
     RDKit          3D

 39 41  0  0  0  0  0  0  0  0999 V2000
   -3.6480   25.2970  -30.4560 N   0  0  0  0  0  0  0  0  0  0  0  0
   -5.0720   25.3370  -30.4760 C   0  0  0  0  0  0  0  0  0  0  0  0
   -5.6650   26.3830  -30.1020 O   0  0  0  0  0  0  0  0  0  0  0  0
   -5.8600   24.1520  -30.8750 C   0  0  0  0  0  0  0  0  0  0  0  0
   -7.2440   24.1730  -31.0420 C   0  0  0  0  0  0  0  0  0  0  0  0
   -7.5970   22.8730  -31.3200 C   0  0  0  0  0  0  0  0  0  0  0  0
   -8.8480   22.3210  -31.5800 C   0  0  0  0  0  0  0  0  0  0  0  0
   -8.9150   20.9450  -31.8620 C   0  0  0  0  0  0  0  0  0  0  0  0
   -7.7380   20.1590  -31.8980 C   0  0  0  0  0  0  0  0  0  0  0  0
   -7.8250   18.6830  -32.1690 C   0  0  0  0  0  0  0  0  0  0  0  0
   -6.6870   18.2600  -32.9750 N   0  0  0  0  0  0  0  0  0  0  0  0
   -5.7380   17.3800  -32.6040 C   0  0  0  0  0  0  0  0  0  0  0  0
   -4.8010   17.3040  -33.6110 C   0  0  0  0  0  0  0  0  0  0  0  0
   -5.2480   18.1900  -34.5740 C   0  0  0  0  0  0  0  0  0  0  0  0
   -6.3940   18.7650  -34.1630 N   0  0  0  0  0  0  0  0  0  0  0  0
   -6.4870   20.7500  -31.6170 C   0  0  0  0  0  0  0  0  0  0  0  0
   -6.4520   22.1180  -31.3200 C   0  0  0  0  0  0  0  0  0  0  0  0
   -5.3760   22.8900  -31.0480 N   0  0  0  0  0  0  0  0  0  0  0  0
   -4.0030   22.4700  -31.0560 C   0  0  0  0  0  0  0  0  0  0  0  0
   -3.2930   22.6620  -32.0810 O   0  0  0  0  0  0  0  0  0  0  0  0
   -3.4560   21.8670  -29.9170 O   0  0  0  0  0  0  0  0  0  0  0  0
   -3.4590   22.4750  -28.6270 C   0  0  0  0  0  0  0  0  0  0  0  0
   -2.2610   23.4120  -28.4630 C   0  0  0  0  0  0  0  0  0  0  0  0
   -1.6260   23.6190  -29.6950 O   0  0  0  0  0  0  0  0  0  0  0  0
   -3.1240   24.5500  -30.9620 H   0  0  0  0  0  0  0  0  0  0  0  0
   -7.9117   25.0440  -30.9673 H   0  0  0  0  0  0  0  0  0  0  0  0
   -9.7560   22.9418  -31.5653 H   0  0  0  0  0  0  0  0  0  0  0  0
   -9.8905   20.4752  -32.0563 H   0  0  0  0  0  0  0  0  0  0  0  0
   -7.8199   18.1358  -31.2148 H   0  0  0  0  0  0  0  0  0  0  0  0
   -8.7557   18.4687  -32.7148 H   0  0  0  0  0  0  0  0  0  0  0  0
   -5.7148   16.8180  -31.6587 H   0  0  0  0  0  0  0  0  0  0  0  0
   -3.8975   16.6774  -33.6421 H   0  0  0  0  0  0  0  0  0  0  0  0
   -4.7440   18.3940  -35.5303 H   0  0  0  0  0  0  0  0  0  0  0  0
   -5.5641   20.1516  -31.6310 H   0  0  0  0  0  0  0  0  0  0  0  0
   -4.3873   23.0520  -28.5028 H   0  0  0  0  0  0  0  0  0  0  0  0
   -3.3938   21.6841  -27.8653 H   0  0  0  0  0  0  0  0  0  0  0  0
   -2.6087   24.3781  -28.0684 H   0  0  0  0  0  0  0  0  0  0  0  0
   -1.5439   22.9531  -27.7664 H   0  0  0  0  0  0  0  0  0  0  0  0
   -2.3420   23.6430  -30.3830 H   0  0  0  0  0  0  0  0  0  0  0  0
  1  2  1  0
  2  3  2  0
  2  4  1  0
  4  5  2  0
  5  6  1  0
  6  7  2  0
  7  8  1  0
  8  9  2  0
  9 10  1  0
 10 11  1  0
 11 12  1  0
 12 13  2  0
 13 14  1  0
 14 15  2  0
  9 16  1  0
 16 17  2  0
 17 18  1  0
 18 19  1  0
 19 20  2  0
 19 21  1  0
 21 22  1  0
 22 23  1  0
 23 24  1  0
 18  4  1  0
 17  6  1  0
 15 11  1  0
  1 25  1  0
  5 26  1  0
  7 27  1  0
  8 28  1  0
 10 29  1  0
 10 30  1  0
 12 31  1  0
 13 32  1  0
 14 33  1  0
 16 34  1  0
 22 35  1  0
 22 36  1  0
 23 37  1  0
 23 38  1  0
 24 39  1  0
M  CHG  1   1  -1
M  END
>  <UniqueID>  (26) 
26

>  <SMILES>  (26) 
[NH-]C(=O)c1cc2ccc(Cn3cccn3)cc2n1C(=O)OCCO

>  <Energy>  (26) 
104.36088195273187

>  <Genealogy>  (26) 
[NH-]C(=O)c1cc2ccc(Cn3cccn3)cc2n1C(=O)OCCO (protonated)
[NH-]C(=O)c1cc2ccc(Cn3cccn3)cc2n1C(=O)OCCO (3D coordinates assigned)
[NH-]C(=O)c1cc2ccc(Cn3cccn3)cc2n1C(=O)OCCO (optimized conformer: 104.36088195273187 kcal/mol)

>  <smiles>  (26) 
NC(=O)c1cc2ccc(Cn3cccn3)cc2n1C(=O)OCCO

>  <score_type>  (26) 
oracle

>  <origin>  (26) 
adg

>  <m_score__min__energy>  (26) 
-10.08

>  <m_primary>  (26) 
energy

$$$$
26:0
     RDKit          3D

 35 36  0  0  0  0  0  0  0  0999 V2000
   -0.5200   21.9170  -29.6190 C   0  0  0  0  0  0  0  0  0  0  0  0
   -0.7690   23.3130  -29.5200 O   0  0  0  0  0  0  0  0  0  0  0  0
   -2.0130   23.8320  -29.1510 C   0  0  0  0  0  0  0  0  0  0  0  0
   -2.2820   25.0510  -29.3300 O   0  0  0  0  0  0  0  0  0  0  0  0
   -3.0490   22.9170  -28.5900 C   0  0  0  0  0  0  0  0  0  0  0  0
   -3.5370   22.0780  -29.6300 O   0  0  0  0  0  0  0  0  0  0  0  0
   -3.9540   22.5700  -30.8690 C   0  0  0  0  0  0  0  0  0  0  0  0
   -3.1060   22.8610  -31.7550 O   0  0  0  0  0  0  0  0  0  0  0  0
   -5.3580   22.7470  -31.1270 N   0  0  0  0  0  0  0  0  0  0  0  0
   -6.1060   23.8570  -30.8740 C   0  0  0  0  0  0  0  0  0  0  0  0
   -5.5900   25.1680  -30.4320 C   0  0  0  0  0  0  0  0  0  0  0  0
   -4.2210   25.5260  -30.6200 N   0  0  0  0  0  0  0  0  0  0  0  0
   -6.3840   26.0080  -29.9300 O   0  0  0  0  0  0  0  0  0  0  0  0
   -7.4530   23.6110  -31.1260 C   0  0  0  0  0  0  0  0  0  0  0  0
   -7.5080   22.3070  -31.5610 C   0  0  0  0  0  0  0  0  0  0  0  0
   -8.6070   21.5330  -31.9230 C   0  0  0  0  0  0  0  0  0  0  0  0
   -8.3800   20.1960  -32.2840 C   0  0  0  0  0  0  0  0  0  0  0  0
   -7.0670   19.6570  -32.2870 C   0  0  0  0  0  0  0  0  0  0  0  0
   -6.8410   18.2030  -32.6150 C   0  0  0  0  0  0  0  0  0  0  0  0
   -7.9900   17.4680  -32.3800 F   0  0  0  0  0  0  0  0  0  0  0  0
   -6.4970   18.0870  -33.9500 F   0  0  0  0  0  0  0  0  0  0  0  0
   -5.8230   17.6750  -31.8400 F   0  0  0  0  0  0  0  0  0  0  0  0
   -5.9800   20.4690  -31.8870 C   0  0  0  0  0  0  0  0  0  0  0  0
   -6.2320   21.8050  -31.5520 C   0  0  0  0  0  0  0  0  0  0  0  0
   -0.4431   21.4858  -28.6100 H   0  0  0  0  0  0  0  0  0  0  0  0
   -1.3463   21.4347  -30.1618 H   0  0  0  0  0  0  0  0  0  0  0  0
    0.4221   21.7502  -30.1618 H   0  0  0  0  0  0  0  0  0  0  0  0
   -2.6046   22.2994  -27.7956 H   0  0  0  0  0  0  0  0  0  0  0  0
   -3.8766   23.5062  -28.1682 H   0  0  0  0  0  0  0  0  0  0  0  0
   -3.8620   26.4380  -30.2600 H   0  0  0  0  0  0  0  0  0  0  0  0
   -3.5780   24.9230  -31.1800 H   0  0  0  0  0  0  0  0  0  0  0  0
   -8.2936   24.3099  -31.0035 H   0  0  0  0  0  0  0  0  0  0  0  0
   -9.6222   21.9564  -31.9260 H   0  0  0  0  0  0  0  0  0  0  0  0
   -9.2299   19.5581  -32.5681 H   0  0  0  0  0  0  0  0  0  0  0  0
   -4.9599   20.0602  -31.8402 H   0  0  0  0  0  0  0  0  0  0  0  0
  1  2  1  0
  2  3  1  0
  3  4  2  0
  3  5  1  0
  5  6  1  0
  6  7  1  0
  7  8  2  0
  7  9  1  0
  9 10  1  0
 10 11  1  0
 11 12  1  0
 11 13  2  0
 10 14  2  0
 14 15  1  0
 15 16  2  0
 16 17  1  0
 17 18  2  0
 18 19  1  0
 19 20  1  0
 19 21  1  0
 19 22  1  0
 18 23  1  0
 23 24  2  0
 24  9  1  0
 24 15  1  0
  1 25  1  0
  1 26  1  0
  1 27  1  0
  5 28  1  0
  5 29  1  0
 12 30  1  0
 12 31  1  0
 14 32  1  0
 16 33  1  0
 17 34  1  0
 23 35  1  0
M  END
>  <UniqueID>  (27) 
27

>  <SMILES>  (27) 
COC(=O)COC(=O)n1c(C(N)=O)cc2ccc(C(F)(F)F)cc21

>  <Energy>  (27) 
69.24464017621624

>  <Genealogy>  (27) 
COC(=O)COC(=O)n1c(C(N)=O)cc2ccc(C(F)(F)F)cc21 (3D coordinates assigned)
COC(=O)COC(=O)n1c(C(N)=O)cc2ccc(C(F)(F)F)cc21 (optimized conformer: 69.24464017621624 kcal/mol)

>  <smiles>  (27) 
COC(=O)COC(=O)n1c(C(N)=O)cc2ccc(C(F)(F)F)cc21

>  <score_type>  (27) 
oracle

>  <origin>  (27) 
adg

>  <m_score__min__energy>  (27) 
-8.2599999999999998

>  <m_primary>  (27) 
energy

$$$$
27:0
     RDKit          3D

 35 36  0  0  0  0  0  0  0  0999 V2000
   -7.8820   17.8390  -32.7050 C   0  0  0  0  0  0  0  0  0  0  0  0
   -7.8450   19.2430  -32.1780 C   0  0  0  0  0  0  0  0  0  0  0  0
   -9.0540   19.9400  -31.9310 C   0  0  0  0  0  0  0  0  0  0  0  0
   -9.0320   21.2630  -31.4580 C   0  0  0  0  0  0  0  0  0  0  0  0
   -7.7930   21.8670  -31.2660 C   0  0  0  0  0  0  0  0  0  0  0  0
   -7.4840   23.1230  -30.7960 C   0  0  0  0  0  0  0  0  0  0  0  0
   -6.0900   23.1870  -30.8000 C   0  0  0  0  0  0  0  0  0  0  0  0
   -5.3100   24.3900  -30.4330 C   0  0  0  0  0  0  0  0  0  0  0  0
   -5.5530   25.0730  -29.2000 N   0  0  0  0  0  0  0  0  0  0  0  0
   -4.4340   24.8400  -31.2180 O   0  0  0  0  0  0  0  0  0  0  0  0
   -5.5630   22.0170  -31.2610 N   0  0  0  0  0  0  0  0  0  0  0  0
   -4.1740   21.6660  -31.3690 C   0  0  0  0  0  0  0  0  0  0  0  0
   -3.8410   20.6510  -32.0380 O   0  0  0  0  0  0  0  0  0  0  0  0
   -3.1790   22.4630  -30.7070 N   0  0  0  0  0  0  0  0  0  0  0  0
   -1.7660   22.2890  -30.8740 C   0  0  0  0  0  0  0  0  0  0  0  0
   -1.3140   21.4230  -31.6720 O   0  0  0  0  0  0  0  0  0  0  0  0
   -0.8910   23.1010  -30.1460 O   0  0  0  0  0  0  0  0  0  0  0  0
   -1.2090   23.6070  -28.8550 C   0  0  0  0  0  0  0  0  0  0  0  0
   -1.6710   25.0200  -28.9810 C   0  0  0  0  0  0  0  0  0  0  0  0
   -0.8670   25.9690  -28.7820 O   0  0  0  0  0  0  0  0  0  0  0  0
   -2.9760   25.2930  -29.3710 O   0  0  0  0  0  0  0  0  0  0  0  0
   -6.6170   21.2180  -31.5350 C   0  0  0  0  0  0  0  0  0  0  0  0
   -6.6070   19.8930  -31.9860 C   0  0  0  0  0  0  0  0  0  0  0  0
   -7.9006   17.1316  -31.8628 H   0  0  0  0  0  0  0  0  0  0  0  0
   -8.7841   17.7016  -33.3193 H   0  0  0  0  0  0  0  0  0  0  0  0
   -6.9884   17.6543  -33.3193 H   0  0  0  0  0  0  0  0  0  0  0  0
  -10.0177   19.4411  -32.1111 H   0  0  0  0  0  0  0  0  0  0  0  0
   -9.9656   21.8047  -31.2460 H   0  0  0  0  0  0  0  0  0  0  0  0
   -8.1867   23.9095  -30.4835 H   0  0  0  0  0  0  0  0  0  0  0  0
   -5.0220   25.9430  -28.9710 H   0  0  0  0  0  0  0  0  0  0  0  0
   -6.2220   24.6990  -28.4930 H   0  0  0  0  0  0  0  0  0  0  0  0
   -3.5000   23.2120  -30.0530 H   0  0  0  0  0  0  0  0  0  0  0  0
   -2.0079   22.9974  -28.4076 H   0  0  0  0  0  0  0  0  0  0  0  0
   -0.3171   23.5661  -28.2125 H   0  0  0  0  0  0  0  0  0  0  0  0
   -5.6590   19.3719  -32.1856 H   0  0  0  0  0  0  0  0  0  0  0  0
  1  2  1  0
  2  3  2  0
  3  4  1  0
  4  5  2  0
  5  6  1  0
  6  7  2  0
  7  8  1  0
  8  9  1  0
  8 10  2  0
  7 11  1  0
 11 12  1  0
 12 13  2  0
 12 14  1  0
 14 15  1  0
 15 16  2  0
 15 17  1  0
 17 18  1  0
 18 19  1  0
 19 20  2  0
 19 21  1  0
 11 22  1  0
 22 23  2  0
 23  2  1  0
 22  5  1  0
  1 24  1  0
  1 25  1  0
  1 26  1  0
  3 27  1  0
  4 28  1  0
  6 29  1  0
  9 30  1  0
  9 31  1  0
 14 32  1  0
 18 33  1  0
 18 34  1  0
 23 35  1  0
M  CHG  1  21  -1
M  END
>  <UniqueID>  (28) 
28

>  <SMILES>  (28) 
Cc1ccc2cc(C(N)=O)n(C(=O)NC(=O)OCC(=O)[O-])c2c1

>  <Energy>  (28) 
70.1567034784524

>  <Genealogy>  (28) 
Cc1ccc2cc(C(N)=O)n(C(=O)NC(=O)OCC(=O)[O-])c2c1 (protonated)
Cc1ccc2cc(C(N)=O)n(C(=O)NC(=O)OCC(=O)[O-])c2c1 (3D coordinates assigned)
Cc1ccc2cc(C(N)=O)n(C(=O)NC(=O)OCC(=O)[O-])c2c1 (optimized conformer: 70.1567034784524 kcal/mol)

>  <smiles>  (28) 
Cc1ccc2cc(C(N)=O)n(C(=O)NC(=O)OCC(=O)O)c2c1

>  <score_type>  (28) 
oracle

>  <origin>  (28) 
adg

>  <m_score__min__energy>  (28) 
-10.77

>  <m_primary>  (28) 
energy

$$$$
28:0
     RDKit          3D

 45 46  0  0  0  0  0  0  0  0999 V2000
   -1.9120   19.9540  -32.5260 C   0  0  0  0  0  0  0  0  0  0  0  0
   -2.8040   18.8990  -32.8080 O   0  0  0  0  0  0  0  0  0  0  0  0
   -3.7060   19.2790  -33.8270 C   0  0  0  0  0  0  0  0  0  0  0  0
   -4.9160   18.3790  -33.8240 C   0  0  0  0  0  0  0  0  0  0  0  0
   -5.6760   18.4070  -34.7830 O   0  0  0  0  0  0  0  0  0  0  0  0
   -5.1440   17.4580  -32.7270 N   0  0  2  0  0  0  0  0  0  0  0  0
   -5.5600   16.1310  -33.2170 C   0  0  0  0  0  0  0  0  0  0  0  0
   -6.0560   18.0120  -31.6950 C   0  0  0  0  0  0  0  0  0  0  0  0
   -7.5710   17.8670  -31.9980 C   0  0  0  0  0  0  0  0  0  0  0  0
   -8.0840   18.9730  -32.9320 C   0  0  0  0  0  0  0  0  0  0  0  0
   -7.9080   20.3260  -32.2960 C   0  0  0  0  0  0  0  0  0  0  0  0
   -9.0260   21.0110  -31.7600 C   0  0  0  0  0  0  0  0  0  0  0  0
   -8.8750   22.2840  -31.1850 C   0  0  0  0  0  0  0  0  0  0  0  0
   -7.6040   22.8490  -31.1760 C   0  0  0  0  0  0  0  0  0  0  0  0
   -7.1760   24.0540  -30.6690 C   0  0  0  0  0  0  0  0  0  0  0  0
   -5.8090   24.1030  -30.9340 C   0  0  0  0  0  0  0  0  0  0  0  0
   -4.9640   25.2770  -30.6340 C   0  0  0  0  0  0  0  0  0  0  0  0
   -3.5580   25.1120  -30.4550 N   0  0  0  0  0  0  0  0  0  0  0  0
   -5.4730   26.4210  -30.4940 O   0  0  0  0  0  0  0  0  0  0  0  0
   -5.4040   22.9680  -31.5740 N   0  0  0  0  0  0  0  0  0  0  0  0
   -4.0680   22.6020  -31.9560 C   0  0  0  0  0  0  0  0  0  0  0  0
   -3.8080   22.3010  -33.1500 O   0  0  0  0  0  0  0  0  0  0  0  0
   -3.0550   22.5520  -31.0060 O   0  0  0  0  0  0  0  0  0  0  0  0
   -6.5170   22.2120  -31.7150 C   0  0  0  0  0  0  0  0  0  0  0  0
   -6.6330   20.9360  -32.2790 C   0  0  0  0  0  0  0  0  0  0  0  0
   -1.8140   20.0700  -31.4365 H   0  0  0  0  0  0  0  0  0  0  0  0
   -0.9272   19.7276  -32.9607 H   0  0  0  0  0  0  0  0  0  0  0  0
   -2.2989   20.8874  -32.9607 H   0  0  0  0  0  0  0  0  0  0  0  0
   -4.0269   20.3174  -33.6576 H   0  0  0  0  0  0  0  0  0  0  0  0
   -3.2005   19.1921  -34.8001 H   0  0  0  0  0  0  0  0  0  0  0  0
   -4.2270   17.3060  -32.2420 H   0  0  0  0  0  0  0  0  0  0  0  0
   -5.7665   15.4721  -32.3607 H   0  0  0  0  0  0  0  0  0  0  0  0
   -6.4689   16.2341  -33.8279 H   0  0  0  0  0  0  0  0  0  0  0  0
   -4.7549   15.6968  -33.8279 H   0  0  0  0  0  0  0  0  0  0  0  0
   -5.8487   17.4952  -30.7463 H   0  0  0  0  0  0  0  0  0  0  0  0
   -5.8557   19.0931  -31.6626 H   0  0  0  0  0  0  0  0  0  0  0  0
   -7.7451   16.8913  -32.4752 H   0  0  0  0  0  0  0  0  0  0  0  0
   -8.1154   17.9496  -31.0457 H   0  0  0  0  0  0  0  0  0  0  0  0
   -7.5192   18.9406  -33.8754 H   0  0  0  0  0  0  0  0  0  0  0  0
   -9.1544   18.8074  -33.1240 H   0  0  0  0  0  0  0  0  0  0  0  0
  -10.0206   20.5424  -31.7942 H   0  0  0  0  0  0  0  0  0  0  0  0
   -9.7356   22.8175  -30.7551 H   0  0  0  0  0  0  0  0  0  0  0  0
   -7.7842   24.8173  -30.1617 H   0  0  0  0  0  0  0  0  0  0  0  0
   -2.9660   24.7050  -31.2120 H   0  0  0  0  0  0  0  0  0  0  0  0
   -5.7554   20.4218  -32.6978 H   0  0  0  0  0  0  0  0  0  0  0  0
  1  2  1  0
  2  3  1  0
  3  4  1  0
  4  5  2  0
  4  6  1  0
  6  7  1  0
  6  8  1  0
  8  9  1  0
  9 10  1  0
 10 11  1  0
 11 12  2  0
 12 13  1  0
 13 14  2  0
 14 15  1  0
 15 16  2  0
 16 17  1  0
 17 18  1  0
 17 19  2  0
 16 20  1  0
 20 21  1  0
 21 22  2  0
 21 23  1  0
 20 24  1  0
 24 25  2  0
 25 11  1  0
 24 14  1  0
  1 26  1  0
  1 27  1  0
  1 28  1  0
  3 29  1  0
  3 30  1  0
  6 31  1  1
  7 32  1  0
  7 33  1  0
  7 34  1  0
  8 35  1  0
  8 36  1  0
  9 37  1  0
  9 38  1  0
 10 39  1  0
 10 40  1  0
 12 41  1  0
 13 42  1  0
 15 43  1  0
 18 44  1  0
 25 45  1  0
M  CHG  3   6   1  18  -1  23  -1
M  END
>  <UniqueID>  (29) 
29

>  <SMILES>  (29) 
COCC(=O)[N@H+](C)CCCc1ccc2cc(C([NH-])=O)n(C(=O)[O-])c2c1

>  <Energy>  (29) 
87.69769965231163

>  <Genealogy>  (29) 
COCC(=O)[NH+](C)CCCc1ccc2cc(C([NH-])=O)n(C(=O)[O-])c2c1 (protonated)
COCC(=O)[N@H+](C)CCCc1ccc2cc(C([NH-])=O)n(C(=O)[O-])c2c1 (chirality)
COCC(=O)[N@H+](C)CCCc1ccc2cc(C([NH-])=O)n(C(=O)[O-])c2c1 (3D coordinates assigned)
COCC(=O)[N@H+](C)CCCc1ccc2cc(C([NH-])=O)n(C(=O)[O-])c2c1 (optimized conformer: 87.69769965231163 kcal/mol)

>  <smiles>  (29) 
COCC(=O)N(C)CCCc1ccc2cc(C(N)=O)n(C(=O)O)c2c1

>  <score_type>  (29) 
oracle

>  <origin>  (29) 
adg

>  <m_score__min__energy>  (29) 
-10.84

>  <m_primary>  (29) 
energy

$$$$
29:0
     RDKit          3D

 43 44  0  0  0  0  0  0  0  0999 V2000
   -1.0730   26.4540  -27.6330 C   0  0  0  0  0  0  0  0  0  0  0  0
   -1.2100   25.4840  -28.6640 O   0  0  0  0  0  0  0  0  0  0  0  0
   -0.5760   24.2380  -28.6190 C   0  0  0  0  0  0  0  0  0  0  0  0
    0.6820   24.1660  -28.7090 O   0  0  0  0  0  0  0  0  0  0  0  0
   -1.3560   23.0380  -28.4630 N   0  0  0  0  0  0  0  0  0  0  0  0
   -2.5610   23.0620  -27.6300 C   0  0  0  0  0  0  0  0  0  0  0  0
   -0.9960   21.8140  -29.1910 C   0  0  0  0  0  0  0  0  0  0  0  0
   -1.6690   21.7780  -30.5610 C   0  0  0  0  0  0  0  0  0  0  0  0
   -3.0820   21.8420  -30.4090 O   0  0  0  0  0  0  0  0  0  0  0  0
   -3.9470   22.1580  -31.4590 C   0  0  0  0  0  0  0  0  0  0  0  0
   -3.5490   22.1020  -32.6550 O   0  0  0  0  0  0  0  0  0  0  0  0
   -5.2960   22.5570  -31.1710 N   0  0  0  0  0  0  0  0  0  0  0  0
   -5.7430   23.7960  -30.8240 C   0  0  0  0  0  0  0  0  0  0  0  0
   -4.8980   24.9720  -30.5420 C   0  0  0  0  0  0  0  0  0  0  0  0
   -3.5700   24.8290  -30.0360 N   0  0  0  0  0  0  0  0  0  0  0  0
   -5.3750   26.1290  -30.6990 O   0  0  0  0  0  0  0  0  0  0  0  0
   -7.1320   23.8050  -30.7260 C   0  0  0  0  0  0  0  0  0  0  0  0
   -7.5250   22.5180  -31.0150 C   0  0  0  0  0  0  0  0  0  0  0  0
   -8.8000   21.9630  -31.0730 C   0  0  0  0  0  0  0  0  0  0  0  0
   -8.9140   20.6110  -31.4400 C   0  0  0  0  0  0  0  0  0  0  0  0
   -7.7640   19.8500  -31.7700 C   0  0  0  0  0  0  0  0  0  0  0  0
   -7.9110   18.3960  -32.1420 C   0  0  0  0  0  0  0  0  0  0  0  0
   -7.5440   18.1990  -33.4620 F   0  0  0  0  0  0  0  0  0  0  0  0
   -7.1090   17.5940  -31.3460 F   0  0  0  0  0  0  0  0  0  0  0  0
   -9.2290   18.0150  -31.9800 F   0  0  0  0  0  0  0  0  0  0  0  0
   -6.4840   20.4440  -31.6790 C   0  0  0  0  0  0  0  0  0  0  0  0
   -6.3990   21.7850  -31.2850 C   0  0  0  0  0  0  0  0  0  0  0  0
   -1.1428   25.9596  -26.6528 H   0  0  0  0  0  0  0  0  0  0  0  0
   -0.0958   26.9507  -27.7244 H   0  0  0  0  0  0  0  0  0  0  0  0
   -1.8744   27.2019  -27.7244 H   0  0  0  0  0  0  0  0  0  0  0  0
   -2.2730   23.0563  -26.5684 H   0  0  0  0  0  0  0  0  0  0  0  0
   -3.1395   23.9718  -27.8481 H   0  0  0  0  0  0  0  0  0  0  0  0
   -3.1752   22.1759  -27.8481 H   0  0  0  0  0  0  0  0  0  0  0  0
    0.0954   21.7822  -29.3248 H   0  0  0  0  0  0  0  0  0  0  0  0
   -1.3368   20.9452  -28.6087 H   0  0  0  0  0  0  0  0  0  0  0  0
   -1.3272   22.6365  -31.1578 H   0  0  0  0  0  0  0  0  0  0  0  0
   -1.4020   20.8405  -31.0707 H   0  0  0  0  0  0  0  0  0  0  0  0
   -3.2090   23.9010  -29.7230 H   0  0  0  0  0  0  0  0  0  0  0  0
   -2.9720   25.6720  -29.8870 H   0  0  0  0  0  0  0  0  0  0  0  0
   -7.7775   24.6587  -30.4718 H   0  0  0  0  0  0  0  0  0  0  0  0
   -9.6911   22.5639  -30.8388 H   0  0  0  0  0  0  0  0  0  0  0  0
   -9.9066   20.1379  -31.4716 H   0  0  0  0  0  0  0  0  0  0  0  0
   -5.5771   19.8667  -31.9120 H   0  0  0  0  0  0  0  0  0  0  0  0
  1  2  1  0
  2  3  1  0
  3  4  2  0
  3  5  1  0
  5  6  1  0
  5  7  1  0
  7  8  1  0
  8  9  1  0
  9 10  1  0
 10 11  2  0
 10 12  1  0
 12 13  1  0
 13 14  1  0
 14 15  1  0
 14 16  2  0
 13 17  2  0
 17 18  1  0
 18 19  2  0
 19 20  1  0
 20 21  2  0
 21 22  1  0
 22 23  1  0
 22 24  1  0
 22 25  1  0
 21 26  1  0
 26 27  2  0
 27 12  1  0
 27 18  1  0
  1 28  1  0
  1 29  1  0
  1 30  1  0
  6 31  1  0
  6 32  1  0
  6 33  1  0
  7 34  1  0
  7 35  1  0
  8 36  1  0
  8 37  1  0
 15 38  1  0
 15 39  1  0
 17 40  1  0
 19 41  1  0
 20 42  1  0
 26 43  1  0
M  END
>  <UniqueID>  (30) 
30

>  <SMILES>  (30) 
COC(=O)N(C)CCOC(=O)n1c(C(N)=O)cc2ccc(C(F)(F)F)cc21

>  <Energy>  (30) 
70.76657647993807

>  <Genealogy>  (30) 
COC(=O)N(C)CCOC(=O)n1c(C(N)=O)cc2ccc(C(F)(F)F)cc21 (3D coordinates assigned)
COC(=O)N(C)CCOC(=O)n1c(C(N)=O)cc2ccc(C(F)(F)F)cc21 (optimized conformer: 70.76657647993807 kcal/mol)

>  <smiles>  (30) 
COC(=O)N(C)CCOC(=O)n1c(C(N)=O)cc2ccc(C(F)(F)F)cc21

>  <score_type>  (30) 
oracle

>  <origin>  (30) 
adg

>  <m_score__min__energy>  (30) 
-7.9000000000000004

>  <m_primary>  (30) 
energy

$$$$
30:0
     RDKit          3D

 47 49  0  0  0  0  0  0  0  0999 V2000
   -3.6020   13.1670  -31.5600 C   0  0  0  0  0  0  0  0  0  0  0  0
   -4.5890   13.7700  -32.3890 O   0  0  0  0  0  0  0  0  0  0  0  0
   -4.8770   15.1440  -32.4110 C   0  0  0  0  0  0  0  0  0  0  0  0
   -4.5910   15.9490  -33.5280 C   0  0  0  0  0  0  0  0  0  0  0  0
   -4.8980   17.3090  -33.4920 C   0  0  0  0  0  0  0  0  0  0  0  0
   -5.4900   17.8720  -32.3520 C   0  0  0  0  0  0  0  0  0  0  0  0
   -5.8230   19.3180  -32.3020 C   0  0  0  0  0  0  0  0  0  0  0  0
   -6.9530   19.8190  -33.0030 C   0  0  0  0  0  0  0  0  0  0  0  0
   -7.2700   21.1860  -32.9740 C   0  0  0  0  0  0  0  0  0  0  0  0
   -6.4510   22.0310  -32.2320 C   0  0  0  0  0  0  0  0  0  0  0  0
   -6.5120   23.3950  -32.0570 C   0  0  0  0  0  0  0  0  0  0  0  0
   -5.4360   23.7100  -31.2310 C   0  0  0  0  0  0  0  0  0  0  0  0
   -5.1750   25.0710  -30.7190 C   0  0  0  0  0  0  0  0  0  0  0  0
   -3.8870   25.6670  -30.8450 N   0  0  0  0  0  0  0  0  0  0  0  0
   -6.0880   25.6980  -30.1200 O   0  0  0  0  0  0  0  0  0  0  0  0
   -4.7320   22.5860  -30.9130 N   0  0  0  0  0  0  0  0  0  0  0  0
   -3.5060   22.5000  -30.1710 C   0  0  0  0  0  0  0  0  0  0  0  0
   -3.4330   21.7470  -29.1620 O   0  0  0  0  0  0  0  0  0  0  0  0
   -2.3900   23.2360  -30.5850 O   0  0  0  0  0  0  0  0  0  0  0  0
   -1.2610   23.4640  -29.7500 C   0  0  0  0  0  0  0  0  0  0  0  0
   -1.3180   24.7790  -29.2380 O   0  0  0  0  0  0  0  0  0  0  0  0
   -1.2630   24.7380  -27.8280 C   0  0  0  0  0  0  0  0  0  0  0  0
   -2.6530   24.4300  -27.2770 C   0  0  0  0  0  0  0  0  0  0  0  0
   -3.6240   24.5800  -28.2790 O   0  0  0  0  0  0  0  0  0  0  0  0
   -5.3670   21.5670  -31.5340 C   0  0  0  0  0  0  0  0  0  0  0  0
   -5.0150   20.2130  -31.5600 C   0  0  0  0  0  0  0  0  0  0  0  0
   -5.7580   17.0320  -31.2580 C   0  0  0  0  0  0  0  0  0  0  0  0
   -5.4500   15.7080  -31.3130 N   0  0  0  0  0  0  0  0  0  0  0  0
   -3.8633   13.3266  -30.5035 H   0  0  0  0  0  0  0  0  0  0  0  0
   -3.5581   12.0877  -31.7679 H   0  0  0  0  0  0  0  0  0  0  0  0
   -2.6217   13.6206  -31.7679 H   0  0  0  0  0  0  0  0  0  0  0  0
   -4.1284   15.5091  -34.4238 H   0  0  0  0  0  0  0  0  0  0  0  0
   -4.6746   17.9435  -34.3624 H   0  0  0  0  0  0  0  0  0  0  0  0
   -7.5874   19.1266  -33.5757 H   0  0  0  0  0  0  0  0  0  0  0  0
   -8.1400   21.5775  -33.5216 H   0  0  0  0  0  0  0  0  0  0  0  0
   -7.2534   24.0889  -32.4799 H   0  0  0  0  0  0  0  0  0  0  0  0
   -3.0650   25.2880  -30.3250 H   0  0  0  0  0  0  0  0  0  0  0  0
   -1.2682   22.7448  -28.9177 H   0  0  0  0  0  0  0  0  0  0  0  0
   -0.3380   23.3355  -30.3345 H   0  0  0  0  0  0  0  0  0  0  0  0
   -0.5599   23.9539  -27.5104 H   0  0  0  0  0  0  0  0  0  0  0  0
   -0.9221   25.7109  -27.4443 H   0  0  0  0  0  0  0  0  0  0  0  0
   -2.6737   23.3950  -26.9051 H   0  0  0  0  0  0  0  0  0  0  0  0
   -2.8747   25.1316  -26.4593 H   0  0  0  0  0  0  0  0  0  0  0  0
   -3.1350   24.6490  -29.1410 H   0  0  0  0  0  0  0  0  0  0  0  0
   -4.1299   19.8518  -31.0158 H   0  0  0  0  0  0  0  0  0  0  0  0
   -6.2202   17.4479  -30.3506 H   0  0  0  0  0  0  0  0  0  0  0  0
   -5.6570   15.1080  -30.4820 H   0  0  0  0  0  0  0  0  0  0  0  0
  1  2  1  0
  2  3  1  0
  3  4  2  0
  4  5  1  0
  5  6  2  0
  6  7  1  0
  7  8  2  0
  8  9  1  0
  9 10  2  0
 10 11  1  0
 11 12  2  0
 12 13  1  0
 13 14  1  0
 13 15  2  0
 12 16  1  0
 16 17  1  0
 17 18  2  0
 17 19  1  0
 19 20  1  0
 20 21  1  0
 21 22  1  0
 22 23  1  0
 23 24  1  0
 16 25  1  0
 25 26  2  0
  6 27  1  0
 27 28  2  0
 28  3  1  0
 26  7  1  0
 25 10  1  0
  1 29  1  0
  1 30  1  0
  1 31  1  0
  4 32  1  0
  5 33  1  0
  8 34  1  0
  9 35  1  0
 11 36  1  0
 14 37  1  0
 20 38  1  0
 20 39  1  0
 22 40  1  0
 22 41  1  0
 23 42  1  0
 23 43  1  0
 24 44  1  0
 26 45  1  0
 27 46  1  0
 28 47  1  0
M  CHG  2  14  -1  28   1
M  END
>  <UniqueID>  (31) 
31

>  <SMILES>  (31) 
COc1ccc(-c2ccc3cc(C([NH-])=O)n(C(=O)OCOCCO)c3c2)c[nH+]1

>  <Energy>  (31) 
89.96449414883237

>  <Genealogy>  (31) 
COc1ccc(-c2ccc3cc(C([NH-])=O)n(C(=O)OCOCCO)c3c2)c[nH+]1 (protonated)
COc1ccc(-c2ccc3cc(C([NH-])=O)n(C(=O)OCOCCO)c3c2)c[nH+]1 (3D coordinates assigned)
COc1ccc(-c2ccc3cc(C([NH-])=O)n(C(=O)OCOCCO)c3c2)c[nH+]1 (optimized conformer: 89.96449414883237 kcal/mol)

>  <smiles>  (31) 
COc1ccc(-c2ccc3cc(C(N)=O)n(C(=O)OCOCCO)c3c2)cn1

>  <score_type>  (31) 
oracle

>  <origin>  (31) 
adg

>  <m_score__min__energy>  (31) 
-9.5999999999999996

>  <m_primary>  (31) 
energy

$$$$
31:0
     RDKit          3D

 37 38  0  0  0  0  0  0  0  0999 V2000
   -2.1960   22.0280  -27.6680 C   0  0  0  0  0  0  0  0  0  0  0  0
   -2.9180   22.9550  -28.6530 C   0  0  0  0  0  0  0  0  0  0  0  0
   -4.0860   23.6500  -27.9250 C   0  0  0  0  0  0  0  0  0  0  0  0
   -3.4280   22.1430  -29.7200 O   0  0  0  0  0  0  0  0  0  0  0  0
   -3.9060   22.6190  -30.9490 C   0  0  0  0  0  0  0  0  0  0  0  0
   -3.1040   22.9120  -31.8800 O   0  0  0  0  0  0  0  0  0  0  0  0
   -5.3200   22.7700  -31.1510 N   0  0  0  0  0  0  0  0  0  0  0  0
   -6.0860   23.8660  -30.8850 C   0  0  0  0  0  0  0  0  0  0  0  0
   -5.5840   25.1930  -30.4790 C   0  0  0  0  0  0  0  0  0  0  0  0
   -4.2140   25.5550  -30.6630 N   0  0  0  0  0  0  0  0  0  0  0  0
   -6.3880   26.0430  -30.0120 O   0  0  0  0  0  0  0  0  0  0  0  0
   -7.4330   23.5870  -31.0970 C   0  0  0  0  0  0  0  0  0  0  0  0
   -7.4710   22.2780  -31.5180 C   0  0  0  0  0  0  0  0  0  0  0  0
   -8.5590   21.4780  -31.8540 C   0  0  0  0  0  0  0  0  0  0  0  0
   -8.3100   20.1450  -32.2170 C   0  0  0  0  0  0  0  0  0  0  0  0
   -6.9890   19.6340  -32.2280 C   0  0  0  0  0  0  0  0  0  0  0  0
   -6.7460   18.1980  -32.5980 C   0  0  0  0  0  0  0  0  0  0  0  0
   -7.8850   17.4550  -32.3460 F   0  0  0  0  0  0  0  0  0  0  0  0
   -6.4300   18.1090  -33.9410 F   0  0  0  0  0  0  0  0  0  0  0  0
   -5.9080   20.4730  -31.8750 C   0  0  0  0  0  0  0  0  0  0  0  0
   -6.1830   21.8050  -31.5400 C   0  0  0  0  0  0  0  0  0  0  0  0
   -1.9220   23.9660  -29.1800 C   0  0  0  0  0  0  0  0  0  0  0  0
   -0.7290   23.6230  -29.3930 O   0  0  0  0  0  0  0  0  0  0  0  0
   -2.2900   25.2960  -29.3580 O   0  0  0  0  0  0  0  0  0  0  0  0
   -2.4327   22.3320  -26.6377 H   0  0  0  0  0  0  0  0  0  0  0  0
   -2.5272   20.9916  -27.8298 H   0  0  0  0  0  0  0  0  0  0  0  0
   -1.1101   22.0954  -27.8298 H   0  0  0  0  0  0  0  0  0  0  0  0
   -3.9429   23.5649  -26.8377 H   0  0  0  0  0  0  0  0  0  0  0  0
   -4.1149   24.7123  -28.2090 H   0  0  0  0  0  0  0  0  0  0  0  0
   -5.0334   23.1686  -28.2090 H   0  0  0  0  0  0  0  0  0  0  0  0
   -3.5630   24.9440  -31.2030 H   0  0  0  0  0  0  0  0  0  0  0  0
   -3.8680   26.4830  -30.3310 H   0  0  0  0  0  0  0  0  0  0  0  0
   -8.2855   24.2681  -30.9576 H   0  0  0  0  0  0  0  0  0  0  0  0
   -9.5835   21.8782  -31.8357 H   0  0  0  0  0  0  0  0  0  0  0  0
   -9.1492   19.4907  -32.4957 H   0  0  0  0  0  0  0  0  0  0  0  0
   -5.9106   17.8071  -31.9985 H   0  0  0  0  0  0  0  0  0  0  0  0
   -4.8770   20.0898  -31.8636 H   0  0  0  0  0  0  0  0  0  0  0  0
  1  2  1  0
  2  3  1  0
  2  4  1  0
  4  5  1  0
  5  6  2  0
  5  7  1  0
  7  8  1  0
  8  9  1  0
  9 10  1  0
  9 11  2  0
  8 12  2  0
 12 13  1  0
 13 14  2  0
 14 15  1  0
 15 16  2  0
 16 17  1  0
 17 18  1  0
 17 19  1  0
 16 20  1  0
 20 21  2  0
  2 22  1  0
 22 23  2  0
 22 24  1  0
 21  7  1  0
 21 13  1  0
  1 25  1  0
  1 26  1  0
  1 27  1  0
  3 28  1  0
  3 29  1  0
  3 30  1  0
 10 31  1  0
 10 32  1  0
 12 33  1  0
 14 34  1  0
 15 35  1  0
 17 36  1  0
 20 37  1  0
M  CHG  1  24  -1
M  END
>  <UniqueID>  (32) 
32

>  <SMILES>  (32) 
CC(C)(OC(=O)n1c(C(N)=O)cc2ccc(C(F)F)cc21)C(=O)[O-]

>  <Energy>  (32) 
72.87049738845595

>  <Genealogy>  (32) 
CC(C)(OC(=O)n1c(C(N)=O)cc2ccc(C(F)F)cc21)C(=O)[O-] (protonated)
CC(C)(OC(=O)n1c(C(N)=O)cc2ccc(C(F)F)cc21)C(=O)[O-] (3D coordinates assigned)
CC(C)(OC(=O)n1c(C(N)=O)cc2ccc(C(F)F)cc21)C(=O)[O-] (optimized conformer: 72.87049738845595 kcal/mol)

>  <smiles>  (32) 
CC(C)(OC(=O)n1c(C(N)=O)cc2ccc(C(F)F)cc21)C(=O)O

>  <score_type>  (32) 
oracle

>  <origin>  (32) 
adg

>  <m_score__min__energy>  (32) 
-10.67

>  <m_primary>  (32) 
energy

$$$$
32:0
     RDKit          3D

 36 37  0  0  0  0  0  0  0  0999 V2000
   -5.8770   17.5810  -31.8530 C   0  0  0  0  0  0  0  0  0  0  0  0
   -6.6670   18.3750  -32.9030 C   0  0  0  0  0  0  0  0  0  0  0  0
   -5.9350   18.3600  -34.2510 C   0  0  0  0  0  0  0  0  0  0  0  0
   -7.8820   17.7280  -33.0840 F   0  0  0  0  0  0  0  0  0  0  0  0
   -6.8950   19.8070  -32.4300 C   0  0  0  0  0  0  0  0  0  0  0  0
   -8.2110   20.3350  -32.3170 C   0  0  0  0  0  0  0  0  0  0  0  0
   -8.4260   21.6490  -31.8690 C   0  0  0  0  0  0  0  0  0  0  0  0
   -7.3150   22.4190  -31.5480 C   0  0  0  0  0  0  0  0  0  0  0  0
   -7.2400   23.7070  -31.0690 C   0  0  0  0  0  0  0  0  0  0  0  0
   -5.8790   23.9660  -30.9160 C   0  0  0  0  0  0  0  0  0  0  0  0
   -5.3430   25.2790  -30.5030 C   0  0  0  0  0  0  0  0  0  0  0  0
   -4.0130   25.6670  -30.8370 N   0  0  0  0  0  0  0  0  0  0  0  0
   -6.0860   26.0900  -29.8880 O   0  0  0  0  0  0  0  0  0  0  0  0
   -5.1440   22.8750  -31.2750 N   0  0  0  0  0  0  0  0  0  0  0  0
   -3.7210   22.7060  -31.1920 C   0  0  0  0  0  0  0  0  0  0  0  0
   -3.0700   22.3400  -32.2090 O   0  0  0  0  0  0  0  0  0  0  0  0
   -3.0590   22.9710  -29.9870 O   0  0  0  0  0  0  0  0  0  0  0  0
   -1.6400   22.9720  -29.8570 C   0  0  0  0  0  0  0  0  0  0  0  0
   -1.1690   24.2850  -29.3180 C   0  0  0  0  0  0  0  0  0  0  0  0
   -1.9280   25.2880  -29.3430 O   0  0  0  0  0  0  0  0  0  0  0  0
    0.0990   24.3950  -28.7610 O   0  0  0  0  0  0  0  0  0  0  0  0
   -6.0380   21.9400  -31.6640 C   0  0  0  0  0  0  0  0  0  0  0  0
   -5.7920   20.6300  -32.0870 C   0  0  0  0  0  0  0  0  0  0  0  0
   -6.1886   17.8942  -30.8456 H   0  0  0  0  0  0  0  0  0  0  0  0
   -6.0749   16.5065  -31.9805 H   0  0  0  0  0  0  0  0  0  0  0  0
   -4.8015   17.7734  -31.9805 H   0  0  0  0  0  0  0  0  0  0  0  0
   -4.8489   18.3377  -34.0782 H   0  0  0  0  0  0  0  0  0  0  0  0
   -6.2340   17.4678  -34.8207 H   0  0  0  0  0  0  0  0  0  0  0  0
   -6.1972   19.2637  -34.8207 H   0  0  0  0  0  0  0  0  0  0  0  0
   -9.0726   19.7055  -32.5842 H   0  0  0  0  0  0  0  0  0  0  0  0
   -9.4436   22.0561  -31.7752 H   0  0  0  0  0  0  0  0  0  0  0  0
   -8.0766   24.3877  -30.8528 H   0  0  0  0  0  0  0  0  0  0  0  0
   -3.2310   24.9750  -30.8210 H   0  0  0  0  0  0  0  0  0  0  0  0
   -1.3381   22.1682  -29.1695 H   0  0  0  0  0  0  0  0  0  0  0  0
   -1.1899   22.8097  -30.8475 H   0  0  0  0  0  0  0  0  0  0  0  0
   -4.7635   20.2455  -32.1524 H   0  0  0  0  0  0  0  0  0  0  0  0
  1  2  1  0
  2  3  1  0
  2  4  1  0
  2  5  1  0
  5  6  2  0
  6  7  1  0
  7  8  2  0
  8  9  1  0
  9 10  2  0
 10 11  1  0
 11 12  1  0
 11 13  2  0
 10 14  1  0
 14 15  1  0
 15 16  2  0
 15 17  1  0
 17 18  1  0
 18 19  1  0
 19 20  2  0
 19 21  1  0
 14 22  1  0
 22 23  2  0
 23  5  1  0
 22  8  1  0
  1 24  1  0
  1 25  1  0
  1 26  1  0
  3 27  1  0
  3 28  1  0
  3 29  1  0
  6 30  1  0
  7 31  1  0
  9 32  1  0
 12 33  1  0
 18 34  1  0
 18 35  1  0
 23 36  1  0
M  CHG  2  12  -1  21  -1
M  END
>  <UniqueID>  (33) 
33

>  <SMILES>  (33) 
CC(C)(F)c1ccc2cc(C([NH-])=O)n(C(=O)OCC(=O)[O-])c2c1

>  <Energy>  (33) 
71.11211609817448

>  <Genealogy>  (33) 
CC(C)(F)c1ccc2cc(C([NH-])=O)n(C(=O)OCC(=O)[O-])c2c1 (protonated)
CC(C)(F)c1ccc2cc(C([NH-])=O)n(C(=O)OCC(=O)[O-])c2c1 (3D coordinates assigned)
CC(C)(F)c1ccc2cc(C([NH-])=O)n(C(=O)OCC(=O)[O-])c2c1 (optimized conformer: 71.11211609817448 kcal/mol)

>  <smiles>  (33) 
CC(C)(F)c1ccc2cc(C(N)=O)n(C(=O)OCC(=O)O)c2c1

>  <score_type>  (33) 
oracle

>  <origin>  (33) 
adg

>  <m_score__min__energy>  (33) 
-12.51

>  <m_primary>  (33) 
energy

$$$$
33:0
     RDKit          3D

 30 31  0  0  0  0  0  0  0  0999 V2000
   -3.8360   22.1960  -28.1840 C   0  0  0  0  0  0  0  0  0  0  0  0
   -3.2910   23.3520  -28.9520 C   0  0  0  0  0  0  0  0  0  0  0  0
   -3.1650   24.4710  -28.3830 O   0  0  0  0  0  0  0  0  0  0  0  0
   -2.8810   23.1580  -30.2780 O   0  0  0  0  0  0  0  0  0  0  0  0
   -3.7050   22.7040  -31.3170 C   0  0  0  0  0  0  0  0  0  0  0  0
   -3.2100   22.1730  -32.3490 O   0  0  0  0  0  0  0  0  0  0  0  0
   -5.1280   22.8690  -31.2140 N   0  0  0  0  0  0  0  0  0  0  0  0
   -5.8150   24.0120  -30.9370 C   0  0  0  0  0  0  0  0  0  0  0  0
   -5.2250   25.2970  -30.5080 C   0  0  0  0  0  0  0  0  0  0  0  0
   -3.8970   25.6550  -30.8800 N   0  0  0  0  0  0  0  0  0  0  0  0
   -5.8850   26.0680  -29.7600 O   0  0  0  0  0  0  0  0  0  0  0  0
   -7.1870   23.7940  -31.0340 C   0  0  0  0  0  0  0  0  0  0  0  0
   -7.3230   22.4680  -31.3740 C   0  0  0  0  0  0  0  0  0  0  0  0
   -8.4700   21.7220  -31.6230 C   0  0  0  0  0  0  0  0  0  0  0  0
   -8.3130   20.3760  -31.9960 C   0  0  0  0  0  0  0  0  0  0  0  0
   -7.0210   19.7990  -32.1030 C   0  0  0  0  0  0  0  0  0  0  0  0
   -6.8640   18.3730  -32.5650 C   0  0  0  0  0  0  0  0  0  0  0  0
   -6.4910   18.3640  -33.8950 F   0  0  0  0  0  0  0  0  0  0  0  0
   -5.8960   17.7220  -31.8200 F   0  0  0  0  0  0  0  0  0  0  0  0
   -8.0550   17.6800  -32.4250 F   0  0  0  0  0  0  0  0  0  0  0  0
   -5.8790   20.5990  -31.8650 C   0  0  0  0  0  0  0  0  0  0  0  0
   -6.0660   21.9310  -31.4770 C   0  0  0  0  0  0  0  0  0  0  0  0
   -3.7422   22.3949  -27.1062 H   0  0  0  0  0  0  0  0  0  0  0  0
   -4.8963   22.0531  -28.4396 H   0  0  0  0  0  0  0  0  0  0  0  0
   -3.2715   21.2871  -28.4396 H   0  0  0  0  0  0  0  0  0  0  0  0
   -3.0740   25.2920  -30.3500 H   0  0  0  0  0  0  0  0  0  0  0  0
   -7.9914   24.5268  -30.8729 H   0  0  0  0  0  0  0  0  0  0  0  0
   -9.4697   22.1717  -31.5308 H   0  0  0  0  0  0  0  0  0  0  0  0
   -9.2016   19.7630  -32.2073 H   0  0  0  0  0  0  0  0  0  0  0  0
   -4.8671   20.1840  -31.9821 H   0  0  0  0  0  0  0  0  0  0  0  0
  1  2  1  0
  2  3  2  0
  2  4  1  0
  4  5  1  0
  5  6  2  0
  5  7  1  0
  7  8  1  0
  8  9  1  0
  9 10  1  0
  9 11  2  0
  8 12  2  0
 12 13  1  0
 13 14  2  0
 14 15  1  0
 15 16  2  0
 16 17  1  0
 17 18  1  0
 17 19  1  0
 17 20  1  0
 16 21  1  0
 21 22  2  0
 22  7  1  0
 22 13  1  0
  1 23  1  0
  1 24  1  0
  1 25  1  0
 10 26  1  0
 12 27  1  0
 14 28  1  0
 15 29  1  0
 21 30  1  0
M  CHG  1  10  -1
M  END
>  <UniqueID>  (34) 
34

>  <SMILES>  (34) 
CC(=O)OC(=O)n1c(C([NH-])=O)cc2ccc(C(F)(F)F)cc21

>  <Energy>  (34) 
69.56827302116503

>  <Genealogy>  (34) 
CC(=O)OC(=O)n1c(C([NH-])=O)cc2ccc(C(F)(F)F)cc21 (protonated)
CC(=O)OC(=O)n1c(C([NH-])=O)cc2ccc(C(F)(F)F)cc21 (3D coordinates assigned)
CC(=O)OC(=O)n1c(C([NH-])=O)cc2ccc(C(F)(F)F)cc21 (optimized conformer: 69.56827302116503 kcal/mol)

>  <smiles>  (34) 
CC(=O)OC(=O)n1c(C(N)=O)cc2ccc(C(F)(F)F)cc21

>  <score_type>  (34) 
oracle

>  <origin>  (34) 
adg

>  <m_score__min__energy>  (34) 
-9.1600000000000001

>  <m_primary>  (34) 
energy

$$$$
34:0
     RDKit          3D

 40 41  0  0  0  0  0  0  0  0999 V2000
   -3.9560   25.6610  -30.8440 N   0  0  0  0  0  0  0  0  0  0  0  0
   -5.2680   25.2810  -30.4350 C   0  0  0  0  0  0  0  0  0  0  0  0
   -5.9130   26.0290  -29.6530 O   0  0  0  0  0  0  0  0  0  0  0  0
   -5.8750   24.0430  -30.9690 C   0  0  0  0  0  0  0  0  0  0  0  0
   -7.2450   23.8860  -31.1730 C   0  0  0  0  0  0  0  0  0  0  0  0
   -7.4070   22.5790  -31.5770 C   0  0  0  0  0  0  0  0  0  0  0  0
   -8.5670   21.8820  -31.9060 C   0  0  0  0  0  0  0  0  0  0  0  0
   -8.4380   20.5380  -32.2960 C   0  0  0  0  0  0  0  0  0  0  0  0
   -7.1620   19.9260  -32.3660 C   0  0  0  0  0  0  0  0  0  0  0  0
   -7.0350   18.4770  -32.7440 C   0  0  0  0  0  0  0  0  0  0  0  0
   -5.5920   18.1140  -32.8780 C   0  0  0  0  0  0  0  0  0  0  0  0
   -5.0560   17.3440  -32.0340 O   0  0  0  0  0  0  0  0  0  0  0  0
   -4.8370   18.6870  -33.9040 O   0  0  0  0  0  0  0  0  0  0  0  0
   -3.5570   18.1910  -34.2860 C   0  0  0  0  0  0  0  0  0  0  0  0
   -2.4670   19.0930  -33.7230 C   0  0  0  0  0  0  0  0  0  0  0  0
   -2.7400   19.3880  -32.3820 O   0  0  0  0  0  0  0  0  0  0  0  0
   -6.0080   20.6660  -32.0210 C   0  0  0  0  0  0  0  0  0  0  0  0
   -6.1670   21.9950  -31.6150 C   0  0  0  0  0  0  0  0  0  0  0  0
   -5.2150   22.8810  -31.2460 N   0  0  0  0  0  0  0  0  0  0  0  0
   -3.7980   22.6350  -31.2060 C   0  0  0  0  0  0  0  0  0  0  0  0
   -3.2400   22.0030  -32.1450 O   0  0  0  0  0  0  0  0  0  0  0  0
   -3.0490   23.0660  -30.1030 O   0  0  0  0  0  0  0  0  0  0  0  0
   -1.6290   22.9950  -30.0430 C   0  0  0  0  0  0  0  0  0  0  0  0
   -1.0830   24.1980  -29.3440 C   0  0  0  0  0  0  0  0  0  0  0  0
    0.0640   24.1550  -28.8240 O   0  0  0  0  0  0  0  0  0  0  0  0
   -1.8510   25.3510  -29.2270 O   0  0  0  0  0  0  0  0  0  0  0  0
   -3.1190   25.2170  -30.4090 H   0  0  0  0  0  0  0  0  0  0  0  0
   -8.0302   24.6448  -31.0397 H   0  0  0  0  0  0  0  0  0  0  0  0
   -9.5528   22.3680  -31.8620 H   0  0  0  0  0  0  0  0  0  0  0  0
   -9.3362   19.9556  -32.5493 H   0  0  0  0  0  0  0  0  0  0  0  0
   -7.4974   17.8542  -31.9641 H   0  0  0  0  0  0  0  0  0  0  0  0
   -7.5434   18.3061  -33.7044 H   0  0  0  0  0  0  0  0  0  0  0  0
   -3.4276   17.1720  -33.8924 H   0  0  0  0  0  0  0  0  0  0  0  0
   -3.4855   18.1755  -35.3836 H   0  0  0  0  0  0  0  0  0  0  0  0
   -1.4964   18.5803  -33.7937 H   0  0  0  0  0  0  0  0  0  0  0  0
   -2.4356   20.0283  -34.3011 H   0  0  0  0  0  0  0  0  0  0  0  0
   -3.5930   18.9290  -32.1680 H   0  0  0  0  0  0  0  0  0  0  0  0
   -5.0092   20.2078  -32.0706 H   0  0  0  0  0  0  0  0  0  0  0  0
   -1.3330   22.0894  -29.4932 H   0  0  0  0  0  0  0  0  0  0  0  0
   -1.2270   22.9602  -31.0663 H   0  0  0  0  0  0  0  0  0  0  0  0
  1  2  1  0
  2  3  2  0
  2  4  1  0
  4  5  2  0
  5  6  1  0
  6  7  2  0
  7  8  1  0
  8  9  2  0
  9 10  1  0
 10 11  1  0
 11 12  2  0
 11 13  1  0
 13 14  1  0
 14 15  1  0
 15 16  1  0
  9 17  1  0
 17 18  2  0
 18 19  1  0
 19 20  1  0
 20 21  2  0
 20 22  1  0
 22 23  1  0
 23 24  1  0
 24 25  2  0
 24 26  1  0
 19  4  1  0
 18  6  1  0
  1 27  1  0
  5 28  1  0
  7 29  1  0
  8 30  1  0
 10 31  1  0
 10 32  1  0
 14 33  1  0
 14 34  1  0
 15 35  1  0
 15 36  1  0
 16 37  1  0
 17 38  1  0
 23 39  1  0
 23 40  1  0
M  CHG  2   1  -1  26  -1
M  END
>  <UniqueID>  (35) 
35

>  <SMILES>  (35) 
[NH-]C(=O)c1cc2ccc(CC(=O)OCCO)cc2n1C(=O)OCC(=O)[O-]

>  <Energy>  (35) 
68.69998696996078

>  <Genealogy>  (35) 
[NH-]C(=O)c1cc2ccc(CC(=O)OCCO)cc2n1C(=O)OCC(=O)[O-] (protonated)
[NH-]C(=O)c1cc2ccc(CC(=O)OCCO)cc2n1C(=O)OCC(=O)[O-] (3D coordinates assigned)
[NH-]C(=O)c1cc2ccc(CC(=O)OCCO)cc2n1C(=O)OCC(=O)[O-] (optimized conformer: 68.69998696996078 kcal/mol)

>  <smiles>  (35) 
NC(=O)c1cc2ccc(CC(=O)OCCO)cc2n1C(=O)OCC(=O)O

>  <score_type>  (35) 
oracle

>  <origin>  (35) 
adg

>  <m_score__min__energy>  (35) 
-11.050000000000001

>  <m_primary>  (35) 
energy

$$$$
35:0
     RDKit          3D

 54 55  0  0  0  0  0  0  0  0999 V2000
   -7.3750   22.8320  -32.5580 C   0  0  0  0  0  0  0  0  0  0  0  0
   -7.3290   21.6770  -31.5450 C   0  0  0  0  0  0  0  0  0  0  0  0
   -5.9560   21.6600  -30.8500 C   0  0  0  0  0  0  0  0  0  0  0  0
   -8.4300   21.8820  -30.4910 C   0  0  0  0  0  0  0  0  0  0  0  0
   -7.6140   20.0230  -32.4480 Si  0  0  0  0  0  4  0  0  0  0  0  0
   -7.1060   18.5820  -31.3540 C   0  0  0  0  0  0  0  0  0  0  0  0
   -9.4340   19.8020  -32.8140 C   0  0  0  0  0  0  0  0  0  0  0  0
   -6.7890   20.0410  -33.9790 O   0  0  0  0  0  0  0  0  0  0  0  0
   -5.6180   19.2580  -33.9320 C   0  0  0  0  0  0  0  0  0  0  0  0
   -4.4380   20.1210  -33.4740 C   0  0  0  0  0  0  0  0  0  0  0  0
   -3.0760   19.5540  -33.9100 C   0  0  0  0  0  0  0  0  0  0  0  0
   -2.3080   19.0490  -32.7710 N   0  0  0  0  0  0  0  0  0  0  0  0
   -1.8230   19.8680  -31.6900 C   0  0  0  0  0  0  0  0  0  0  0  0
   -0.8030   19.4150  -30.8110 C   0  0  0  0  0  0  0  0  0  0  0  0
   -0.3430   20.2310  -29.7640 C   0  0  0  0  0  0  0  0  0  0  0  0
   -0.9100   21.4930  -29.6230 C   0  0  0  0  0  0  0  0  0  0  0  0
   -0.6640   22.4750  -28.6910 C   0  0  0  0  0  0  0  0  0  0  0  0
   -1.5200   23.5220  -29.0230 C   0  0  0  0  0  0  0  0  0  0  0  0
   -1.5170   24.8240  -28.3230 C   0  0  0  0  0  0  0  0  0  0  0  0
   -1.2450   26.0340  -29.0240 N   0  0  0  0  0  0  0  0  0  0  0  0
   -1.7100   24.8630  -27.0780 O   0  0  0  0  0  0  0  0  0  0  0  0
   -2.2740   23.1970  -30.1110 N   0  0  0  0  0  0  0  0  0  0  0  0
   -3.3210   23.9670  -30.7250 C   0  0  0  0  0  0  0  0  0  0  0  0
   -4.0660   23.4460  -31.5960 O   0  0  0  0  0  0  0  0  0  0  0  0
   -3.5030   25.3020  -30.3840 O   0  0  0  0  0  0  0  0  0  0  0  0
   -1.8870   21.9520  -30.4660 C   0  0  0  0  0  0  0  0  0  0  0  0
   -2.3840   21.1490  -31.4980 C   0  0  0  0  0  0  0  0  0  0  0  0
   -7.4132   23.7905  -32.0197 H   0  0  0  0  0  0  0  0  0  0  0  0
   -6.4749   22.8018  -33.1896 H   0  0  0  0  0  0  0  0  0  0  0  0
   -8.2698   22.7303  -33.1896 H   0  0  0  0  0  0  0  0  0  0  0  0
   -6.0972   21.6617  -29.7591 H   0  0  0  0  0  0  0  0  0  0  0  0
   -5.4058   20.7550  -31.1471 H   0  0  0  0  0  0  0  0  0  0  0  0
   -5.3836   22.5511  -31.1471 H   0  0  0  0  0  0  0  0  0  0  0  0
   -7.9937   21.8008  -29.4845 H   0  0  0  0  0  0  0  0  0  0  0  0
   -8.8775   22.8789  -30.6173 H   0  0  0  0  0  0  0  0  0  0  0  0
   -9.2063   21.1130  -30.6173 H   0  0  0  0  0  0  0  0  0  0  0  0
   -7.2076   18.8702  -30.2973 H   0  0  0  0  0  0  0  0  0  0  0  0
   -7.7536   17.7175  -31.5622 H   0  0  0  0  0  0  0  0  0  0  0  0
   -6.0595   18.3147  -31.5622 H   0  0  0  0  0  0  0  0  0  0  0  0
   -9.9925   19.7342  -31.8688 H   0  0  0  0  0  0  0  0  0  0  0  0
   -9.7984   20.6625  -33.3943 H   0  0  0  0  0  0  0  0  0  0  0  0
   -9.5819   18.8793  -33.3943 H   0  0  0  0  0  0  0  0  0  0  0  0
   -5.7609   18.4285  -33.2238 H   0  0  0  0  0  0  0  0  0  0  0  0
   -5.4080   18.8560  -34.9342 H   0  0  0  0  0  0  0  0  0  0  0  0
   -4.5524   21.1276  -33.9025 H   0  0  0  0  0  0  0  0  0  0  0  0
   -4.4506   20.1400  -32.3742 H   0  0  0  0  0  0  0  0  0  0  0  0
   -3.2438   18.7304  -34.6196 H   0  0  0  0  0  0  0  0  0  0  0  0
   -2.5007   20.3670  -34.3770 H   0  0  0  0  0  0  0  0  0  0  0  0
   -2.1660   18.0160  -32.7130 H   0  0  0  0  0  0  0  0  0  0  0  0
   -0.3686   18.4143  -30.9517 H   0  0  0  0  0  0  0  0  0  0  0  0
    0.4418   19.8823  -29.0766 H   0  0  0  0  0  0  0  0  0  0  0  0
    0.0560   22.4403  -27.8601 H   0  0  0  0  0  0  0  0  0  0  0  0
   -1.2480   26.0640  -30.0680 H   0  0  0  0  0  0  0  0  0  0  0  0
   -3.1960   21.5087  -32.1471 H   0  0  0  0  0  0  0  0  0  0  0  0
  1  2  1  0
  2  3  1  0
  2  4  1  0
  2  5  1  0
  5  6  1  0
  5  7  1  0
  5  8  1  0
  8  9  1  0
  9 10  1  0
 10 11  1  0
 11 12  1  0
 12 13  1  0
 13 14  2  0
 14 15  1  0
 15 16  2  0
 16 17  1  0
 17 18  2  0
 18 19  1  0
 19 20  1  0
 19 21  2  0
 18 22  1  0
 22 23  1  0
 23 24  2  0
 23 25  1  0
 22 26  1  0
 26 27  2  0
 27 13  1  0
 26 16  1  0
  1 28  1  0
  1 29  1  0
  1 30  1  0
  3 31  1  0
  3 32  1  0
  3 33  1  0
  4 34  1  0
  4 35  1  0
  4 36  1  0
  6 37  1  0
  6 38  1  0
  6 39  1  0
  7 40  1  0
  7 41  1  0
  7 42  1  0
  9 43  1  0
  9 44  1  0
 10 45  1  0
 10 46  1  0
 11 47  1  0
 11 48  1  0
 12 49  1  0
 14 50  1  0
 15 51  1  0
 17 52  1  0
 20 53  1  0
 27 54  1  0
M  CHG  2  20  -1  25  -1
M  END
>  <UniqueID>  (36) 
36

>  <SMILES>  (36) 
CC(C)(C)[Si](C)(C)OCCCNc1ccc2cc(C([NH-])=O)n(C(=O)[O-])c2c1

>  <Energy>  (36) 
70.24844292853587

>  <Genealogy>  (36) 
CC(C)(C)[Si](C)(C)OCCCNc1ccc2cc(C([NH-])=O)n(C(=O)[O-])c2c1 (protonated)
CC(C)(C)[Si](C)(C)OCCCNc1ccc2cc(C([NH-])=O)n(C(=O)[O-])c2c1 (3D coordinates assigned)
CC(C)(C)[Si](C)(C)OCCCNc1ccc2cc(C([NH-])=O)n(C(=O)[O-])c2c1 (optimized conformer: 70.24844292853587 kcal/mol)

>  <smiles>  (36) 
CC(C)(C)[Si](C)(C)OCCCNc1ccc2cc(C(N)=O)n(C(=O)O)c2c1

>  <score_type>  (36) 
oracle

>  <origin>  (36) 
adg

>  <m_score__min__energy>  (36) 
-11.34

>  <m_primary>  (36) 
energy

$$$$
36:0
     RDKit          3D

 31 32  0  0  0  0  0  0  0  0999 V2000
   -4.1770   25.4850  -30.6820 N   0  0  0  0  0  0  0  0  0  0  0  0
   -5.5430   25.0830  -30.5740 C   0  0  0  0  0  0  0  0  0  0  0  0
   -6.3840   25.8780  -30.0750 O   0  0  0  0  0  0  0  0  0  0  0  0
   -6.0000   23.7770  -31.0940 C   0  0  0  0  0  0  0  0  0  0  0  0
   -7.3400   23.4600  -31.2960 C   0  0  0  0  0  0  0  0  0  0  0  0
   -7.3350   22.1970  -31.8430 C   0  0  0  0  0  0  0  0  0  0  0  0
   -8.3980   21.3820  -32.2190 C   0  0  0  0  0  0  0  0  0  0  0  0
   -8.1040   20.1020  -32.7140 C   0  0  0  0  0  0  0  0  0  0  0  0
   -6.7600   19.6600  -32.8340 C   0  0  0  0  0  0  0  0  0  0  0  0
   -6.4610   18.2600  -33.3060 C   0  0  0  0  0  0  0  0  0  0  0  0
   -5.3990   17.7530  -32.5790 F   0  0  0  0  0  0  0  0  0  0  0  0
   -6.1290   18.2580  -34.6490 F   0  0  0  0  0  0  0  0  0  0  0  0
   -7.5610   17.4390  -33.1300 F   0  0  0  0  0  0  0  0  0  0  0  0
   -5.7090   20.5090  -32.4160 C   0  0  0  0  0  0  0  0  0  0  0  0
   -6.0290   21.7890  -31.9470 C   0  0  0  0  0  0  0  0  0  0  0  0
   -5.1970   22.7490  -31.4850 N   0  0  0  0  0  0  0  0  0  0  0  0
   -3.7710   22.6480  -31.3370 C   0  0  0  0  0  0  0  0  0  0  0  0
   -3.0590   22.3110  -32.3230 O   0  0  0  0  0  0  0  0  0  0  0  0
   -3.1780   22.9210  -30.0990 O   0  0  0  0  0  0  0  0  0  0  0  0
   -1.7680   22.9570  -29.8980 C   0  0  0  0  0  0  0  0  0  0  0  0
   -1.3580   24.2820  -29.3370 C   0  0  0  0  0  0  0  0  0  0  0  0
   -2.1280   25.2740  -29.4230 O   0  0  0  0  0  0  0  0  0  0  0  0
   -0.1100   24.4280  -28.7460 O   0  0  0  0  0  0  0  0  0  0  0  0
   -3.8650   26.3930  -30.2710 H   0  0  0  0  0  0  0  0  0  0  0  0
   -3.4930   24.9290  -31.2410 H   0  0  0  0  0  0  0  0  0  0  0  0
   -8.2158   24.0851  -31.0674 H   0  0  0  0  0  0  0  0  0  0  0  0
   -9.4377   21.7303  -32.1310 H   0  0  0  0  0  0  0  0  0  0  0  0
   -8.9247   19.4332  -33.0126 H   0  0  0  0  0  0  0  0  0  0  0  0
   -4.6630   20.1712  -32.4584 H   0  0  0  0  0  0  0  0  0  0  0  0
   -1.4810   22.1608  -29.1954 H   0  0  0  0  0  0  0  0  0  0  0  0
   -1.2645   22.8058  -30.8642 H   0  0  0  0  0  0  0  0  0  0  0  0
  1  2  1  0
  2  3  2  0
  2  4  1  0
  4  5  2  0
  5  6  1  0
  6  7  2  0
  7  8  1  0
  8  9  2  0
  9 10  1  0
 10 11  1  0
 10 12  1  0
 10 13  1  0
  9 14  1  0
 14 15  2  0
 15 16  1  0
 16 17  1  0
 17 18  2  0
 17 19  1  0
 19 20  1  0
 20 21  1  0
 21 22  2  0
 21 23  1  0
 16  4  1  0
 15  6  1  0
  1 24  1  0
  1 25  1  0
  5 26  1  0
  7 27  1  0
  8 28  1  0
 14 29  1  0
 20 30  1  0
 20 31  1  0
M  CHG  1  23  -1
M  END
>  <UniqueID>  (37) 
37

>  <SMILES>  (37) 
NC(=O)c1cc2ccc(C(F)(F)F)cc2n1C(=O)OCC(=O)[O-]

>  <Energy>  (37) 
69.09420361356939

>  <Genealogy>  (37) 
NC(=O)c1cc2ccc(C(F)(F)F)cc2n1C(=O)OCC(=O)[O-] (protonated)
NC(=O)c1cc2ccc(C(F)(F)F)cc2n1C(=O)OCC(=O)[O-] (3D coordinates assigned)
NC(=O)c1cc2ccc(C(F)(F)F)cc2n1C(=O)OCC(=O)[O-] (optimized conformer: 69.09420361356939 kcal/mol)

>  <smiles>  (37) 
NC(=O)c1cc2ccc(C(F)(F)F)cc2n1C(=O)OCC(=O)O

>  <score_type>  (37) 
oracle

>  <origin>  (37) 
adg

>  <m_score__min__energy>  (37) 
-9.8100000000000005

>  <m_primary>  (37) 
energy

$$$$
37:0
     RDKit          3D

 34 35  0  0  0  0  0  0  0  0999 V2000
   -4.2570   25.5440  -30.6310 N   0  0  0  0  0  0  0  0  0  0  0  0
   -5.6200   25.1970  -30.3780 C   0  0  0  0  0  0  0  0  0  0  0  0
   -6.3490   26.0040  -29.7410 O   0  0  0  0  0  0  0  0  0  0  0  0
   -6.1650   23.8960  -30.8230 C   0  0  0  0  0  0  0  0  0  0  0  0
   -7.5160   23.6640  -31.0790 C   0  0  0  0  0  0  0  0  0  0  0  0
   -7.5810   22.3720  -31.5500 C   0  0  0  0  0  0  0  0  0  0  0  0
   -8.6830   21.6180  -31.9420 C   0  0  0  0  0  0  0  0  0  0  0  0
   -8.4620   20.2930  -32.3540 C   0  0  0  0  0  0  0  0  0  0  0  0
   -7.1540   19.7480  -32.3610 C   0  0  0  0  0  0  0  0  0  0  0  0
   -6.9410   18.3230  -32.7840 C   0  0  0  0  0  0  0  0  0  0  0  0
   -6.2030   17.6550  -31.8230 F   0  0  0  0  0  0  0  0  0  0  0  0
   -6.2590   18.2920  -33.9860 F   0  0  0  0  0  0  0  0  0  0  0  0
   -6.0590   20.5440  -31.9540 C   0  0  0  0  0  0  0  0  0  0  0  0
   -6.3070   21.8660  -31.5670 C   0  0  0  0  0  0  0  0  0  0  0  0
   -5.4260   22.7910  -31.1250 N   0  0  0  0  0  0  0  0  0  0  0  0
   -4.0160   22.6030  -30.9270 C   0  0  0  0  0  0  0  0  0  0  0  0
   -3.2070   22.9120  -31.8440 O   0  0  0  0  0  0  0  0  0  0  0  0
   -3.5500   22.0660  -29.7220 O   0  0  0  0  0  0  0  0  0  0  0  0
   -3.2700   22.8480  -28.5610 C   0  0  0  0  0  0  0  0  0  0  0  0
   -1.7630   23.0460  -28.3830 C   0  0  0  0  0  0  0  0  0  0  0  0
   -1.3250   24.4120  -28.8070 C   0  0  0  0  0  0  0  0  0  0  0  0
   -0.1330   24.7780  -28.6260 O   0  0  0  0  0  0  0  0  0  0  0  0
   -2.2400   25.2950  -29.3660 O   0  0  0  0  0  0  0  0  0  0  0  0
   -3.6390   24.9310  -31.2070 H   0  0  0  0  0  0  0  0  0  0  0  0
   -3.8720   26.4470  -30.2770 H   0  0  0  0  0  0  0  0  0  0  0  0
   -8.3520   24.3643  -30.9352 H   0  0  0  0  0  0  0  0  0  0  0  0
   -9.6961   22.0462  -31.9297 H   0  0  0  0  0  0  0  0  0  0  0  0
   -9.3123   19.6729  -32.6741 H   0  0  0  0  0  0  0  0  0  0  0  0
   -7.9186   17.8328  -32.9019 H   0  0  0  0  0  0  0  0  0  0  0  0
   -5.0380   20.1348  -31.9418 H   0  0  0  0  0  0  0  0  0  0  0  0
   -3.7521   23.8312  -28.6648 H   0  0  0  0  0  0  0  0  0  0  0  0
   -3.6602   22.3183  -27.6794 H   0  0  0  0  0  0  0  0  0  0  0  0
   -1.5088   22.9045  -27.3222 H   0  0  0  0  0  0  0  0  0  0  0  0
   -1.2458   22.3106  -29.0167 H   0  0  0  0  0  0  0  0  0  0  0  0
  1  2  1  0
  2  3  2  0
  2  4  1  0
  4  5  2  0
  5  6  1  0
  6  7  2  0
  7  8  1  0
  8  9  2  0
  9 10  1  0
 10 11  1  0
 10 12  1  0
  9 13  1  0
 13 14  2  0
 14 15  1  0
 15 16  1  0
 16 17  2  0
 16 18  1  0
 18 19  1  0
 19 20  1  0
 20 21  1  0
 21 22  2  0
 21 23  1  0
 15  4  1  0
 14  6  1  0
  1 24  1  0
  1 25  1  0
  5 26  1  0
  7 27  1  0
  8 28  1  0
 10 29  1  0
 13 30  1  0
 19 31  1  0
 19 32  1  0
 20 33  1  0
 20 34  1  0
M  CHG  1  23  -1
M  END
>  <UniqueID>  (38) 
38

>  <SMILES>  (38) 
NC(=O)c1cc2ccc(C(F)F)cc2n1C(=O)OCCC(=O)[O-]

>  <Energy>  (38) 
68.71660704615178

>  <Genealogy>  (38) 
NC(=O)c1cc2ccc(C(F)F)cc2n1C(=O)OCCC(=O)[O-] (protonated)
NC(=O)c1cc2ccc(C(F)F)cc2n1C(=O)OCCC(=O)[O-] (3D coordinates assigned)
NC(=O)c1cc2ccc(C(F)F)cc2n1C(=O)OCCC(=O)[O-] (optimized conformer: 68.71660704615178 kcal/mol)

>  <smiles>  (38) 
NC(=O)c1cc2ccc(C(F)F)cc2n1C(=O)OCCC(=O)O

>  <score_type>  (38) 
oracle

>  <origin>  (38) 
adg

>  <m_score__min__energy>  (38) 
-10.699999999999999

>  <m_primary>  (38) 
energy

$$$$
38:0
     RDKit          3D

 42 44  0  0  0  0  0  0  0  0999 V2000
   -3.9530   23.0590  -28.8150 C   0  0  0  0  0  0  0  0  0  0  0  0
   -3.1110   22.9320  -30.0070 N   0  0  0  0  0  0  0  0  0  0  0  0
   -1.6470   22.9810  -29.8740 C   0  0  0  0  0  0  0  0  0  0  0  0
   -1.2110   24.2940  -29.3030 C   0  0  0  0  0  0  0  0  0  0  0  0
   -1.9860   25.2860  -29.3410 O   0  0  0  0  0  0  0  0  0  0  0  0
    0.0210   24.4060  -28.6690 O   0  0  0  0  0  0  0  0  0  0  0  0
   -3.7330   22.7420  -31.2960 C   0  0  0  0  0  0  0  0  0  0  0  0
   -3.0240   22.4940  -32.3090 O   0  0  0  0  0  0  0  0  0  0  0  0
   -5.1560   22.8190  -31.4440 N   0  0  0  0  0  0  0  0  0  0  0  0
   -5.9710   23.8540  -31.1000 C   0  0  0  0  0  0  0  0  0  0  0  0
   -5.5230   25.1450  -30.5400 C   0  0  0  0  0  0  0  0  0  0  0  0
   -4.2000   25.6140  -30.7940 N   0  0  0  0  0  0  0  0  0  0  0  0
   -6.3000   25.8380  -29.8300 O   0  0  0  0  0  0  0  0  0  0  0  0
   -7.3030   23.5210  -31.3360 C   0  0  0  0  0  0  0  0  0  0  0  0
   -7.2740   22.2320  -31.8300 C   0  0  0  0  0  0  0  0  0  0  0  0
   -8.3140   21.3920  -32.2130 C   0  0  0  0  0  0  0  0  0  0  0  0
   -7.9870   20.0980  -32.6530 C   0  0  0  0  0  0  0  0  0  0  0  0
   -6.6360   19.6670  -32.7070 C   0  0  0  0  0  0  0  0  0  0  0  0
   -6.3250   18.3050  -33.1940 C   0  0  0  0  0  0  0  0  0  0  0  0
   -7.0550   17.1480  -32.9600 C   0  0  0  0  0  0  0  0  0  0  0  0
   -6.3670   16.1310  -33.5870 C   0  0  0  0  0  0  0  0  0  0  0  0
   -5.2670   16.7310  -34.1720 C   0  0  0  0  0  0  0  0  0  0  0  0
   -4.1920   16.0330  -34.9400 C   0  0  0  0  0  0  0  0  0  0  0  0
   -3.4790   16.9570  -35.7130 O   0  0  0  0  0  0  0  0  0  0  0  0
   -5.2650   18.0170  -33.9180 O   0  0  0  0  0  0  0  0  0  0  0  0
   -5.6090   20.5510  -32.2990 C   0  0  0  0  0  0  0  0  0  0  0  0
   -5.9660   21.8320  -31.8760 C   0  0  0  0  0  0  0  0  0  0  0  0
   -3.3293   22.9649  -27.9138 H   0  0  0  0  0  0  0  0  0  0  0  0
   -4.4470   24.0418  -28.8181 H   0  0  0  0  0  0  0  0  0  0  0  0
   -4.7149   22.2656  -28.8181 H   0  0  0  0  0  0  0  0  0  0  0  0
   -1.3177   22.1703  -29.2075 H   0  0  0  0  0  0  0  0  0  0  0  0
   -1.1973   22.8622  -30.8708 H   0  0  0  0  0  0  0  0  0  0  0  0
   -3.5000   25.6800  -30.0200 H   0  0  0  0  0  0  0  0  0  0  0  0
   -8.1887   24.1506  -31.1652 H   0  0  0  0  0  0  0  0  0  0  0  0
   -9.3600   21.7299  -32.1728 H   0  0  0  0  0  0  0  0  0  0  0  0
   -8.7888   19.4102  -32.9596 H   0  0  0  0  0  0  0  0  0  0  0  0
   -7.9918   17.0603  -32.3902 H   0  0  0  0  0  0  0  0  0  0  0  0
   -6.6367   15.0650  -33.6159 H   0  0  0  0  0  0  0  0  0  0  0  0
   -3.5049   15.5385  -34.2376 H   0  0  0  0  0  0  0  0  0  0  0  0
   -4.6499   15.2844  -35.6032 H   0  0  0  0  0  0  0  0  0  0  0  0
   -3.9250   17.8310  -35.5790 H   0  0  0  0  0  0  0  0  0  0  0  0
   -4.5552   20.2361  -32.3149 H   0  0  0  0  0  0  0  0  0  0  0  0
  1  2  1  0
  2  3  1  0
  3  4  1  0
  4  5  2  0
  4  6  1  0
  2  7  1  0
  7  8  2  0
  7  9  1  0
  9 10  1  0
 10 11  1  0
 11 12  1  0
 11 13  2  0
 10 14  2  0
 14 15  1  0
 15 16  2  0
 16 17  1  0
 17 18  2  0
 18 19  1  0
 19 20  2  0
 20 21  1  0
 21 22  2  0
 22 23  1  0
 23 24  1  0
 22 25  1  0
 18 26  1  0
 26 27  2  0
 27  9  1  0
 27 15  1  0
 25 19  1  0
  1 28  1  0
  1 29  1  0
  1 30  1  0
  3 31  1  0
  3 32  1  0
 12 33  1  0
 14 34  1  0
 16 35  1  0
 17 36  1  0
 20 37  1  0
 21 38  1  0
 23 39  1  0
 23 40  1  0
 24 41  1  0
 26 42  1  0
M  CHG  2   6  -1  12  -1
M  END
>  <UniqueID>  (39) 
39

>  <SMILES>  (39) 
CN(CC(=O)[O-])C(=O)n1c(C([NH-])=O)cc2ccc(-c3ccc(CO)o3)cc21

>  <Energy>  (39) 
106.03491518888961

>  <Genealogy>  (39) 
CN(CC(=O)[O-])C(=O)n1c(C([NH-])=O)cc2ccc(-c3ccc(CO)o3)cc21 (protonated)
CN(CC(=O)[O-])C(=O)n1c(C([NH-])=O)cc2ccc(-c3ccc(CO)o3)cc21 (3D coordinates assigned)
CN(CC(=O)[O-])C(=O)n1c(C([NH-])=O)cc2ccc(-c3ccc(CO)o3)cc21 (optimized conformer: 106.03491518888961 kcal/mol)

>  <smiles>  (39) 
CN(CC(=O)O)C(=O)n1c(C(N)=O)cc2ccc(-c3ccc(CO)o3)cc21

>  <score_type>  (39) 
oracle

>  <origin>  (39) 
adg

>  <m_score__min__energy>  (39) 
-12.56

>  <m_primary>  (39) 
energy

$$$$
39:0
     RDKit          3D

 33 34  0  0  0  0  0  0  0  0999 V2000
   -2.0880   23.4920  -30.0910 N   0  0  0  0  0  0  0  0  0  0  0  0
   -2.5070   23.1780  -28.7300 C   0  0  0  0  0  0  0  0  0  0  0  0
   -3.4790   21.9970  -28.7360 C   0  0  0  0  0  0  0  0  0  0  0  0
   -3.5620   21.4240  -30.0390 O   0  0  0  0  0  0  0  0  0  0  0  0
   -4.1500   22.0730  -31.1320 C   0  0  0  0  0  0  0  0  0  0  0  0
   -3.4510   22.4000  -32.1300 O   0  0  0  0  0  0  0  0  0  0  0  0
   -5.5580   22.3610  -31.1140 N   0  0  0  0  0  0  0  0  0  0  0  0
   -6.1550   23.5410  -30.7870 C   0  0  0  0  0  0  0  0  0  0  0  0
   -5.4800   24.7220  -30.2130 C   0  0  0  0  0  0  0  0  0  0  0  0
   -5.9090   25.2920  -28.9750 N   0  0  0  0  0  0  0  0  0  0  0  0
   -4.5430   25.2700  -30.8530 O   0  0  0  0  0  0  0  0  0  0  0  0
   -7.5260   23.4810  -31.0200 C   0  0  0  0  0  0  0  0  0  0  0  0
   -7.7600   22.2110  -31.4930 C   0  0  0  0  0  0  0  0  0  0  0  0
   -8.9490   21.6120  -31.9000 C   0  0  0  0  0  0  0  0  0  0  0  0
   -8.8910   20.2960  -32.3850 C   0  0  0  0  0  0  0  0  0  0  0  0
   -7.6560   19.6110  -32.4610 C   0  0  0  0  0  0  0  0  0  0  0  0
   -7.6090   18.2750  -32.9710 N   0  0  0  0  0  0  0  0  0  0  0  0
   -6.4680   20.2470  -32.0420 C   0  0  0  0  0  0  0  0  0  0  0  0
   -6.5560   21.5530  -31.5430 C   0  0  0  0  0  0  0  0  0  0  0  0
   -2.9090   23.8900  -30.6030 H   0  0  0  0  0  0  0  0  0  0  0  0
   -1.8520   22.5910  -30.5670 H   0  0  0  0  0  0  0  0  0  0  0  0
   -1.6234   22.9183  -28.1285 H   0  0  0  0  0  0  0  0  0  0  0  0
   -3.0107   24.0553  -28.2980 H   0  0  0  0  0  0  0  0  0  0  0  0
   -3.1255   21.2339  -28.0270 H   0  0  0  0  0  0  0  0  0  0  0  0
   -4.4762   22.3560  -28.4415 H   0  0  0  0  0  0  0  0  0  0  0  0
   -6.7810   24.9650  -28.5050 H   0  0  0  0  0  0  0  0  0  0  0  0
   -5.3930   26.1010  -28.5650 H   0  0  0  0  0  0  0  0  0  0  0  0
   -8.2652   24.2797  -30.8598 H   0  0  0  0  0  0  0  0  0  0  0  0
   -9.9048   22.1535  -31.8432 H   0  0  0  0  0  0  0  0  0  0  0  0
   -9.8142   19.7931  -32.7088 H   0  0  0  0  0  0  0  0  0  0  0  0
   -7.0730   17.5310  -32.4710 H   0  0  0  0  0  0  0  0  0  0  0  0
   -8.1100   18.0220  -33.8520 H   0  0  0  0  0  0  0  0  0  0  0  0
   -5.4986   19.7310  -32.1055 H   0  0  0  0  0  0  0  0  0  0  0  0
  1  2  1  0
  2  3  1  0
  3  4  1  0
  4  5  1  0
  5  6  2  0
  5  7  1  0
  7  8  1  0
  8  9  1  0
  9 10  1  0
  9 11  2  0
  8 12  2  0
 12 13  1  0
 13 14  2  0
 14 15  1  0
 15 16  2  0
 16 17  1  0
 16 18  1  0
 18 19  2  0
 19  7  1  0
 19 13  1  0
  1 20  1  0
  1 21  1  0
  2 22  1  0
  2 23  1  0
  3 24  1  0
  3 25  1  0
 10 26  1  0
 10 27  1  0
 12 28  1  0
 14 29  1  0
 15 30  1  0
 17 31  1  0
 17 32  1  0
 18 33  1  0
M  END
>  <UniqueID>  (40) 
40

>  <SMILES>  (40) 
NCCOC(=O)n1c(C(N)=O)cc2ccc(N)cc21

>  <Energy>  (40) 
66.8123329804499

>  <Genealogy>  (40) 
NCCOC(=O)n1c(C(N)=O)cc2ccc(N)cc21 (3D coordinates assigned)
NCCOC(=O)n1c(C(N)=O)cc2ccc(N)cc21 (optimized conformer: 66.8123329804499 kcal/mol)

>  <smiles>  (40) 
NCCOC(=O)n1c(C(N)=O)cc2ccc(N)cc21

>  <score_type>  (40) 
oracle

>  <origin>  (40) 
adg

>  <m_score__min__energy>  (40) 
-7.5999999999999996

>  <m_primary>  (40) 
energy

$$$$
40:0
     RDKit          3D

 43 45  0  0  0  0  0  0  0  0999 V2000
   -7.0010   24.6040  -30.2050 C   0  0  0  0  0  0  0  0  0  0  0  0
   -7.5290   23.3190  -30.5070 O   0  0  0  0  0  0  0  0  0  0  0  0
   -7.7700   22.8990  -31.8170 C   0  0  0  0  0  0  0  0  0  0  0  0
   -8.9000   23.0770  -32.3450 O   0  0  0  0  0  0  0  0  0  0  0  0
   -6.6420   22.3230  -32.6230 C   0  0  0  0  0  0  0  0  0  0  0  0
   -6.7940   20.7970  -32.8420 C   0  0  2  0  0  0  0  0  0  0  0  0
   -8.2450   20.3300  -32.5160 C   0  0  0  0  0  0  0  0  0  0  0  0
   -8.3460   19.0250  -31.9570 O   0  0  0  0  0  0  0  0  0  0  0  0
   -7.3720   18.1590  -32.4930 C   0  0  0  0  0  0  0  0  0  0  0  0
   -6.0010   18.5570  -31.9540 C   0  0  0  0  0  0  0  0  0  0  0  0
   -5.8220   20.0080  -32.0590 N   0  0  0  0  0  0  0  0  0  0  0  0
   -4.5600   20.5430  -31.6370 C   0  0  0  0  0  0  0  0  0  0  0  0
   -3.3760   19.8080  -31.8630 C   0  0  0  0  0  0  0  0  0  0  0  0
   -2.1320   20.3160  -31.4620 C   0  0  0  0  0  0  0  0  0  0  0  0
   -2.1060   21.5620  -30.8410 C   0  0  0  0  0  0  0  0  0  0  0  0
   -1.0430   22.2980  -30.3750 C   0  0  0  0  0  0  0  0  0  0  0  0
   -1.5960   23.4700  -29.8620 C   0  0  0  0  0  0  0  0  0  0  0  0
   -0.8040   24.5130  -29.1760 C   0  0  0  0  0  0  0  0  0  0  0  0
   -1.3120   25.8330  -29.0100 N   0  0  0  0  0  0  0  0  0  0  0  0
    0.3250   24.2230  -28.6940 O   0  0  0  0  0  0  0  0  0  0  0  0
   -2.9520   23.4580  -30.0120 N   0  0  0  0  0  0  0  0  0  0  0  0
   -3.8850   24.4990  -29.6880 C   0  0  0  0  0  0  0  0  0  0  0  0
   -4.6710   24.3700  -28.7140 O   0  0  0  0  0  0  0  0  0  0  0  0
   -3.9540   25.6430  -30.4670 O   0  0  0  0  0  0  0  0  0  0  0  0
   -3.2460   22.2830  -30.6090 C   0  0  0  0  0  0  0  0  0  0  0  0
   -4.4970   21.8050  -31.0130 C   0  0  0  0  0  0  0  0  0  0  0  0
   -6.9486   24.7316  -29.1137 H   0  0  0  0  0  0  0  0  0  0  0  0
   -5.9922   24.6959  -30.6338 H   0  0  0  0  0  0  0  0  0  0  0  0
   -7.6537   25.3787  -30.6338 H   0  0  0  0  0  0  0  0  0  0  0  0
   -6.6184   22.8203  -33.6039 H   0  0  0  0  0  0  0  0  0  0  0  0
   -5.7095   22.4911  -32.0642 H   0  0  0  0  0  0  0  0  0  0  0  0
   -6.5832   20.6144  -33.9061 H   0  0  0  0  0  0  0  0  0  0  0  0
   -8.6799   21.0426  -31.7997 H   0  0  0  0  0  0  0  0  0  0  0  0
   -8.7796   20.2949  -33.4767 H   0  0  0  0  0  0  0  0  0  0  0  0
   -7.5974   17.1234  -32.1985 H   0  0  0  0  0  0  0  0  0  0  0  0
   -7.3746   18.2315  -33.5906 H   0  0  0  0  0  0  0  0  0  0  0  0
   -5.9232   18.2559  -30.8989 H   0  0  0  0  0  0  0  0  0  0  0  0
   -5.2213   18.0537  -32.5445 H   0  0  0  0  0  0  0  0  0  0  0  0
   -3.4298   18.8274  -32.3584 H   0  0  0  0  0  0  0  0  0  0  0  0
   -1.2056   19.7479  -31.6327 H   0  0  0  0  0  0  0  0  0  0  0  0
    0.0211   22.0203  -30.4014 H   0  0  0  0  0  0  0  0  0  0  0  0
   -2.3350   26.0060  -28.9740 H   0  0  0  0  0  0  0  0  0  0  0  0
   -5.4081   22.3989  -30.8479 H   0  0  0  0  0  0  0  0  0  0  0  0
  1  2  1  0
  2  3  1  0
  3  4  2  0
  3  5  1  0
  5  6  1  0
  6  7  1  0
  7  8  1  0
  8  9  1  0
  9 10  1  0
 10 11  1  0
 11 12  1  0
 12 13  2  0
 13 14  1  0
 14 15  2  0
 15 16  1  0
 16 17  2  0
 17 18  1  0
 18 19  1  0
 18 20  2  0
 17 21  1  0
 21 22  1  0
 22 23  2  0
 22 24  1  0
 21 25  1  0
 25 26  2  0
 11  6  1  0
 26 12  1  0
 25 15  1  0
  1 27  1  0
  1 28  1  0
  1 29  1  0
  5 30  1  0
  5 31  1  0
  6 32  1  6
  7 33  1  0
  7 34  1  0
  9 35  1  0
  9 36  1  0
 10 37  1  0
 10 38  1  0
 13 39  1  0
 14 40  1  0
 16 41  1  0
 19 42  1  0
 26 43  1  0
M  CHG  2  19  -1  24  -1
M  END
>  <UniqueID>  (41) 
41

>  <SMILES>  (41) 
COC(=O)C[C@@H]1COCCN1c1ccc2cc(C([NH-])=O)n(C(=O)[O-])c2c1

>  <Energy>  (41) 
95.39842631835381

>  <Genealogy>  (41) 
COC(=O)CC1COCCN1c1ccc2cc(C([NH-])=O)n(C(=O)[O-])c2c1 (protonated)
COC(=O)C[C@@H]1COCCN1c1ccc2cc(C([NH-])=O)n(C(=O)[O-])c2c1 (chirality)
COC(=O)C[C@@H]1COCCN1c1ccc2cc(C([NH-])=O)n(C(=O)[O-])c2c1 (3D coordinates assigned)
COC(=O)C[C@@H]1COCCN1c1ccc2cc(C([NH-])=O)n(C(=O)[O-])c2c1 (nonaromatic ring conformer: 95.39842631835381 kcal/mol)

>  <smiles>  (41) 
COC(=O)CC1COCCN1c1ccc2cc(C(N)=O)n(C(=O)O)c2c1

>  <score_type>  (41) 
oracle

>  <origin>  (41) 
adg

>  <m_score__min__energy>  (41) 
-11.34

>  <m_primary>  (41) 
energy

$$$$
41:0
     RDKit          3D

 36 38  0  0  0  0  0  0  0  0999 V2000
   -1.1950   25.2180  -29.2710 N   0  0  0  0  0  0  0  0  0  0  0  0
   -1.0490   23.7970  -29.3050 C   0  0  0  0  0  0  0  0  0  0  0  0
   -0.1760   23.2490  -28.5800 O   0  0  0  0  0  0  0  0  0  0  0  0
   -1.9460   22.9560  -30.1220 C   0  0  0  0  0  0  0  0  0  0  0  0
   -1.5450   21.7630  -30.7160 C   0  0  0  0  0  0  0  0  0  0  0  0
   -2.6740   21.2630  -31.3230 C   0  0  0  0  0  0  0  0  0  0  0  0
   -2.8440   20.1030  -32.0740 C   0  0  0  0  0  0  0  0  0  0  0  0
   -4.1150   19.8510  -32.6160 C   0  0  0  0  0  0  0  0  0  0  0  0
   -5.1820   20.7610  -32.4110 C   0  0  0  0  0  0  0  0  0  0  0  0
   -6.5430   20.4840  -32.9970 C   0  0  0  0  0  0  0  0  0  0  0  0
   -7.5100   19.8850  -31.9500 C   0  0  1  0  0  0  0  0  0  0  0  0
   -8.1890   20.9640  -31.1460 C   0  0  0  0  0  0  0  0  0  0  0  0
   -9.4860   21.1990  -31.8950 C   0  0  0  0  0  0  0  0  0  0  0  0
   -9.7610   20.0950  -32.7270 O   0  0  0  0  0  0  0  0  0  0  0  0
   -8.7000   19.1780  -32.5860 C   0  0  0  0  0  0  0  0  0  0  0  0
   -4.9690   21.9300  -31.6460 C   0  0  0  0  0  0  0  0  0  0  0  0
   -3.7000   22.1460  -31.0980 C   0  0  0  0  0  0  0  0  0  0  0  0
   -3.2670   23.1960  -30.3620 N   0  0  0  0  0  0  0  0  0  0  0  0
   -4.0210   24.3700  -30.0140 C   0  0  0  0  0  0  0  0  0  0  0  0
   -4.8310   24.3420  -29.0510 O   0  0  0  0  0  0  0  0  0  0  0  0
   -3.8620   25.5480  -30.7330 O   0  0  0  0  0  0  0  0  0  0  0  0
   -0.5270   25.7990  -28.7170 H   0  0  0  0  0  0  0  0  0  0  0  0
   -2.0110   25.6870  -29.7220 H   0  0  0  0  0  0  0  0  0  0  0  0
   -0.5402   21.3155  -30.7030 H   0  0  0  0  0  0  0  0  0  0  0  0
   -2.0091   19.4058  -32.2377 H   0  0  0  0  0  0  0  0  0  0  0  0
   -4.2840   18.9379  -33.2057 H   0  0  0  0  0  0  0  0  0  0  0  0
   -6.9665   21.4266  -33.3741 H   0  0  0  0  0  0  0  0  0  0  0  0
   -6.4223   19.7511  -33.8084 H   0  0  0  0  0  0  0  0  0  0  0  0
   -6.8716   19.2119  -31.3589 H   0  0  0  0  0  0  0  0  0  0  0  0
   -8.3843   20.6246  -30.1181 H   0  0  0  0  0  0  0  0  0  0  0  0
   -7.5791   21.8742  -31.0486 H   0  0  0  0  0  0  0  0  0  0  0  0
  -10.3067   21.3267  -31.1738 H   0  0  0  0  0  0  0  0  0  0  0  0
   -9.3916   22.1051  -32.5115 H   0  0  0  0  0  0  0  0  0  0  0  0
   -9.0180   18.3429  -31.9445 H   0  0  0  0  0  0  0  0  0  0  0  0
   -8.4141   18.7880  -33.5740 H   0  0  0  0  0  0  0  0  0  0  0  0
   -5.7820   22.6533  -31.4852 H   0  0  0  0  0  0  0  0  0  0  0  0
  1  2  1  0
  2  3  2  0
  2  4  1  0
  4  5  2  0
  5  6  1  0
  6  7  2  0
  7  8  1  0
  8  9  2  0
  9 10  1  0
 10 11  1  0
 11 12  1  0
 12 13  1  0
 13 14  1  0
 14 15  1  0
  9 16  1  0
 16 17  2  0
 17 18  1  0
 18 19  1  0
 19 20  2  0
 19 21  1  0
 18  4  1  0
 17  6  1  0
 15 11  1  0
  1 22  1  0
  1 23  1  0
  5 24  1  0
  7 25  1  0
  8 26  1  0
 10 27  1  0
 10 28  1  0
 11 29  1  1
 12 30  1  0
 12 31  1  0
 13 32  1  0
 13 33  1  0
 15 34  1  0
 15 35  1  0
 16 36  1  0
M  CHG  1  21  -1
M  END
>  <UniqueID>  (42) 
42

>  <SMILES>  (42) 
NC(=O)c1cc2ccc(C[C@H]3CCOC3)cc2n1C(=O)[O-]

>  <Energy>  (42) 
76.76232800679108

>  <Genealogy>  (42) 
NC(=O)c1cc2ccc(CC3CCOC3)cc2n1C(=O)[O-] (protonated)
NC(=O)c1cc2ccc(C[C@H]3CCOC3)cc2n1C(=O)[O-] (chirality)
NC(=O)c1cc2ccc(C[C@H]3CCOC3)cc2n1C(=O)[O-] (3D coordinates assigned)
NC(=O)c1cc2ccc(C[C@H]3CCOC3)cc2n1C(=O)[O-] (nonaromatic ring conformer: 76.76232800679108 kcal/mol)

>  <smiles>  (42) 
NC(=O)c1cc2ccc(CC3CCOC3)cc2n1C(=O)O

>  <score_type>  (42) 
oracle

>  <origin>  (42) 
adg

>  <m_score__min__energy>  (42) 
-9.3599999999999994

>  <m_primary>  (42) 
energy

$$$$
42:0
     RDKit          3D

 39 40  0  0  0  0  0  0  0  0999 V2000
   -6.6340   24.1470  -30.3980 C   0  0  0  0  0  0  0  0  0  0  0  0
   -5.4830   24.0100  -29.7430 C   0  0  0  0  0  0  0  0  0  0  0  0
   -4.1830   24.3680  -30.3400 C   0  0  0  0  0  0  0  0  0  0  0  0
   -3.9480   25.5560  -30.6950 O   0  0  0  0  0  0  0  0  0  0  0  0
   -3.1730   23.3630  -30.5200 N   0  0  0  0  0  0  0  0  0  0  0  0
   -1.9270   23.3230  -29.9690 C   0  0  0  0  0  0  0  0  0  0  0  0
   -1.3920   24.2650  -28.9630 C   0  0  0  0  0  0  0  0  0  0  0  0
   -1.6720   25.6610  -29.0390 N   0  0  0  0  0  0  0  0  0  0  0  0
   -0.7030   23.8270  -28.0030 O   0  0  0  0  0  0  0  0  0  0  0  0
   -1.2230   22.2150  -30.4380 C   0  0  0  0  0  0  0  0  0  0  0  0
   -2.0850   21.5720  -31.2980 C   0  0  0  0  0  0  0  0  0  0  0  0
   -1.9010   20.4180  -32.0540 C   0  0  0  0  0  0  0  0  0  0  0  0
   -2.9590   19.9940  -32.8760 C   0  0  0  0  0  0  0  0  0  0  0  0
   -4.1740   20.7270  -32.9330 C   0  0  0  0  0  0  0  0  0  0  0  0
   -5.2590   20.2820  -33.7840 N   0  0  0  0  0  0  0  0  0  0  0  0
   -6.2460   19.4100  -33.0910 C   0  0  0  0  0  0  0  0  0  0  0  0
   -7.6140   20.1230  -32.9470 C   0  0  0  0  0  0  0  0  0  0  0  0
   -5.7280   19.1060  -31.6670 C   0  0  0  0  0  0  0  0  0  0  0  0
   -6.4100   18.0890  -33.8280 C   0  0  0  0  0  0  0  0  0  0  0  0
   -5.8330   17.9050  -34.9330 O   0  0  0  0  0  0  0  0  0  0  0  0
   -7.2320   17.0860  -33.3250 O   0  0  0  0  0  0  0  0  0  0  0  0
   -4.3110   21.9050  -32.1620 C   0  0  0  0  0  0  0  0  0  0  0  0
   -3.2520   22.2870  -31.3330 C   0  0  0  0  0  0  0  0  0  0  0  0
   -7.5801   23.8667  -29.9120 H   0  0  0  0  0  0  0  0  0  0  0  0
   -6.6388   24.5405  -31.4252 H   0  0  0  0  0  0  0  0  0  0  0  0
   -5.5025   23.6144  -28.7168 H   0  0  0  0  0  0  0  0  0  0  0  0
   -2.6530   26.0150  -28.9820 H   0  0  0  0  0  0  0  0  0  0  0  0
   -0.1968   21.9175  -30.1766 H   0  0  0  0  0  0  0  0  0  0  0  0
   -0.9568   19.8554  -32.0095 H   0  0  0  0  0  0  0  0  0  0  0  0
   -2.8447   19.0835  -33.4825 H   0  0  0  0  0  0  0  0  0  0  0  0
   -4.8570   19.7700  -34.6060 H   0  0  0  0  0  0  0  0  0  0  0  0
   -5.7440   21.1230  -34.1760 H   0  0  0  0  0  0  0  0  0  0  0  0
   -7.8523   20.2472  -31.8803 H   0  0  0  0  0  0  0  0  0  0  0  0
   -7.5654   21.1105  -33.4292 H   0  0  0  0  0  0  0  0  0  0  0  0
   -8.3956   19.5176  -33.4292 H   0  0  0  0  0  0  0  0  0  0  0  0
   -6.4292   19.5175  -30.9261 H   0  0  0  0  0  0  0  0  0  0  0  0
   -5.6476   18.0174  -31.5307 H   0  0  0  0  0  0  0  0  0  0  0  0
   -4.7384   19.5667  -31.5307 H   0  0  0  0  0  0  0  0  0  0  0  0
   -5.2302   22.5070  -32.2135 H   0  0  0  0  0  0  0  0  0  0  0  0
  1  2  2  0
  2  3  1  0
  3  4  2  0
  3  5  1  0
  5  6  1  0
  6  7  1  0
  7  8  1  0
  7  9  2  0
  6 10  2  0
 10 11  1  0
 11 12  2  0
 12 13  1  0
 13 14  2  0
 14 15  1  0
 15 16  1  0
 16 17  1  0
 16 18  1  0
 16 19  1  0
 19 20  2  0
 19 21  1  0
 14 22  1  0
 22 23  2  0
 23  5  1  0
 23 11  1  0
  1 24  1  0
  1 25  1  0
  2 26  1  0
  8 27  1  0
 10 28  1  0
 12 29  1  0
 13 30  1  0
 15 31  1  0
 15 32  1  0
 17 33  1  0
 17 34  1  0
 17 35  1  0
 18 36  1  0
 18 37  1  0
 18 38  1  0
 22 39  1  0
M  CHG  3   8  -1  15   1  21  -1
M  END
>  <UniqueID>  (43) 
43

>  <SMILES>  (43) 
C=CC(=O)n1c(C([NH-])=O)cc2ccc([NH2+]C(C)(C)C(=O)[O-])cc21

>  <Energy>  (43) 
80.10121337474884

>  <Genealogy>  (43) 
C=CC(=O)n1c(C([NH-])=O)cc2ccc([NH2+]C(C)(C)C(=O)[O-])cc21 (protonated)
C=CC(=O)n1c(C([NH-])=O)cc2ccc([NH2+]C(C)(C)C(=O)[O-])cc21 (3D coordinates assigned)
C=CC(=O)n1c(C([NH-])=O)cc2ccc([NH2+]C(C)(C)C(=O)[O-])cc21 (optimized conformer: 80.10121337474884 kcal/mol)

>  <smiles>  (43) 
C=CC(=O)n1c(C(N)=O)cc2ccc(NC(C)(C)C(=O)O)cc21

>  <score_type>  (43) 
oracle

>  <origin>  (43) 
adg

>  <m_score__min__energy>  (43) 
-9.9399999999999995

>  <m_primary>  (43) 
energy

$$$$
43:0
     RDKit          3D

 55 56  0  0  0  0  0  0  0  0999 V2000
   -0.8210   19.3040  -31.5190 C   0  0  0  0  0  0  0  0  0  0  0  0
   -1.7570   19.5590  -33.1180 Si  0  0  0  0  0  4  0  0  0  0  0  0
   -1.2380   21.1750  -33.8920 C   0  0  0  0  0  0  0  0  0  0  0  0
   -1.3280   18.1630  -34.2820 C   0  0  0  0  0  0  0  0  0  0  0  0
   -3.6200   19.5940  -32.8520 C   0  0  0  0  0  0  0  0  0  0  0  0
   -4.3480   18.5090  -33.6470 C   0  0  0  0  0  0  0  0  0  0  0  0
   -4.9290   17.5470  -32.7680 O   0  0  0  0  0  0  0  0  0  0  0  0
   -6.0930   17.7880  -32.0310 C   0  0  0  0  0  0  0  0  0  0  0  0
   -6.1550   17.4900  -30.8060 O   0  0  0  0  0  0  0  0  0  0  0  0
   -7.2740   18.4180  -32.7010 C   0  0  0  0  0  0  0  0  0  0  0  0
   -7.4240   19.8540  -32.2730 C   0  0  0  0  0  0  0  0  0  0  0  0
   -8.6850   20.4960  -32.3530 C   0  0  0  0  0  0  0  0  0  0  0  0
   -8.8240   21.8460  -31.9850 C   0  0  0  0  0  0  0  0  0  0  0  0
   -7.6930   22.5210  -31.5360 C   0  0  0  0  0  0  0  0  0  0  0  0
   -7.5370   23.8370  -31.1670 C   0  0  0  0  0  0  0  0  0  0  0  0
   -6.1890   23.9730  -30.8480 C   0  0  0  0  0  0  0  0  0  0  0  0
   -5.5850   25.2370  -30.3770 C   0  0  0  0  0  0  0  0  0  0  0  0
   -4.2510   25.6020  -30.7320 N   0  0  0  0  0  0  0  0  0  0  0  0
   -6.2440   25.9850  -29.6050 O   0  0  0  0  0  0  0  0  0  0  0  0
   -5.5320   22.7910  -31.0150 N   0  0  0  0  0  0  0  0  0  0  0  0
   -4.1150   22.5680  -30.9220 C   0  0  0  0  0  0  0  0  0  0  0  0
   -3.3680   22.8850  -31.8890 O   0  0  0  0  0  0  0  0  0  0  0  0
   -3.5070   21.9610  -29.6940 C   0  0  0  0  0  0  0  0  0  0  0  0
   -3.2920   22.9730  -28.7330 O   0  0  0  0  0  0  0  0  0  0  0  0
   -1.9080   23.1160  -28.5030 C   0  0  0  0  0  0  0  0  0  0  0  0
   -1.4830   24.4730  -28.9530 C   0  0  0  0  0  0  0  0  0  0  0  0
   -2.3280   25.2850  -29.4170 O   0  0  0  0  0  0  0  0  0  0  0  0
   -0.1520   24.8560  -28.8410 O   0  0  0  0  0  0  0  0  0  0  0  0
   -6.4680   21.9100  -31.4400 C   0  0  0  0  0  0  0  0  0  0  0  0
   -6.2970   20.5770  -31.8240 C   0  0  0  0  0  0  0  0  0  0  0  0
   -1.4930   19.4871  -30.6676 H   0  0  0  0  0  0  0  0  0  0  0  0
   -0.4458   18.2709  -31.4745 H   0  0  0  0  0  0  0  0  0  0  0  0
    0.0263   20.0040  -31.4745 H   0  0  0  0  0  0  0  0  0  0  0  0
   -1.0044   21.9023  -33.1005 H   0  0  0  0  0  0  0  0  0  0  0  0
   -0.3466   21.0132  -34.5159 H   0  0  0  0  0  0  0  0  0  0  0  0
   -2.0569   21.5624  -34.5159 H   0  0  0  0  0  0  0  0  0  0  0  0
   -1.0539   17.2710  -33.6995 H   0  0  0  0  0  0  0  0  0  0  0  0
   -2.1972   17.9340  -34.9160 H   0  0  0  0  0  0  0  0  0  0  0  0
   -0.4802   18.4617  -34.9160 H   0  0  0  0  0  0  0  0  0  0  0  0
   -3.8260   19.4447  -31.7818 H   0  0  0  0  0  0  0  0  0  0  0  0
   -3.9886   20.5688  -33.2039 H   0  0  0  0  0  0  0  0  0  0  0  0
   -5.1420   18.9739  -34.2499 H   0  0  0  0  0  0  0  0  0  0  0  0
   -3.6229   18.0008  -34.2996 H   0  0  0  0  0  0  0  0  0  0  0  0
   -7.1343   18.3787  -33.7914 H   0  0  0  0  0  0  0  0  0  0  0  0
   -8.1808   17.8660  -32.4128 H   0  0  0  0  0  0  0  0  0  0  0  0
   -9.5621   19.9336  -32.7058 H   0  0  0  0  0  0  0  0  0  0  0  0
   -9.7978   22.3534  -32.0501 H   0  0  0  0  0  0  0  0  0  0  0  0
   -8.3127   24.6162  -31.1316 H   0  0  0  0  0  0  0  0  0  0  0  0
   -3.8650   26.5240  -30.4300 H   0  0  0  0  0  0  0  0  0  0  0  0
   -3.6130   24.9270  -31.2070 H   0  0  0  0  0  0  0  0  0  0  0  0
   -4.1888   21.2020  -29.2827 H   0  0  0  0  0  0  0  0  0  0  0  0
   -2.5485   21.4871  -29.9521 H   0  0  0  0  0  0  0  0  0  0  0  0
   -1.6978   22.9999  -27.4295 H   0  0  0  0  0  0  0  0  0  0  0  0
   -1.3551   22.3469  -29.0622 H   0  0  0  0  0  0  0  0  0  0  0  0
   -5.3062   20.1014  -31.7775 H   0  0  0  0  0  0  0  0  0  0  0  0
  1  2  1  0
  2  3  1  0
  2  4  1  0
  2  5  1  0
  5  6  1  0
  6  7  1  0
  7  8  1  0
  8  9  2  0
  8 10  1  0
 10 11  1  0
 11 12  2  0
 12 13  1  0
 13 14  2  0
 14 15  1  0
 15 16  2  0
 16 17  1  0
 17 18  1  0
 17 19  2  0
 16 20  1  0
 20 21  1  0
 21 22  2  0
 21 23  1  0
 23 24  1  0
 24 25  1  0
 25 26  1  0
 26 27  2  0
 26 28  1  0
 20 29  1  0
 29 30  2  0
 30 11  1  0
 29 14  1  0
  1 31  1  0
  1 32  1  0
  1 33  1  0
  3 34  1  0
  3 35  1  0
  3 36  1  0
  4 37  1  0
  4 38  1  0
  4 39  1  0
  5 40  1  0
  5 41  1  0
  6 42  1  0
  6 43  1  0
 10 44  1  0
 10 45  1  0
 12 46  1  0
 13 47  1  0
 15 48  1  0
 18 49  1  0
 18 50  1  0
 23 51  1  0
 23 52  1  0
 25 53  1  0
 25 54  1  0
 30 55  1  0
M  CHG  1  28  -1
M  END
>  <UniqueID>  (44) 
44

>  <SMILES>  (44) 
C[Si](C)(C)CCOC(=O)Cc1ccc2cc(C(N)=O)n(C(=O)COCC(=O)[O-])c2c1

>  <Energy>  (44) 
70.93213477798838

>  <Genealogy>  (44) 
C[Si](C)(C)CCOC(=O)Cc1ccc2cc(C(N)=O)n(C(=O)COCC(=O)[O-])c2c1 (protonated)
C[Si](C)(C)CCOC(=O)Cc1ccc2cc(C(N)=O)n(C(=O)COCC(=O)[O-])c2c1 (3D coordinates assigned)
C[Si](C)(C)CCOC(=O)Cc1ccc2cc(C(N)=O)n(C(=O)COCC(=O)[O-])c2c1 (optimized conformer: 70.93213477798838 kcal/mol)

>  <smiles>  (44) 
C[Si](C)(C)CCOC(=O)Cc1ccc2cc(C(N)=O)n(C(=O)COCC(=O)O)c2c1

>  <score_type>  (44) 
oracle

>  <origin>  (44) 
adg

>  <m_score__min__energy>  (44) 
-11.18

>  <m_primary>  (44) 
energy

$$$$
44:0
     RDKit          3D

 40 41  0  0  0  0  0  0  0  0999 V2000
   -4.6070   23.0940  -28.5580 C   0  0  0  0  0  0  0  0  0  0  0  0
   -5.4330   24.1230  -29.3410 C   0  0  2  0  0  0  0  0  0  0  0  0
   -6.7600   23.5880  -29.6780 N   0  0  0  0  0  0  0  0  0  0  0  0
   -7.0390   22.4490  -30.5220 C   0  0  0  0  0  0  0  0  0  0  0  0
   -8.3890   22.0450  -30.6950 C   0  0  0  0  0  0  0  0  0  0  0  0
   -8.7190   20.9450  -31.5040 C   0  0  0  0  0  0  0  0  0  0  0  0
   -7.6830   20.2670  -32.1360 C   0  0  0  0  0  0  0  0  0  0  0  0
   -7.7160   19.1700  -32.9670 C   0  0  0  0  0  0  0  0  0  0  0  0
   -6.3860   18.9290  -33.3110 C   0  0  0  0  0  0  0  0  0  0  0  0
   -5.9560   17.9100  -34.2900 C   0  0  0  0  0  0  0  0  0  0  0  0
   -4.6970   18.0240  -34.9540 N   0  0  0  0  0  0  0  0  0  0  0  0
   -6.6860   16.9100  -34.5200 O   0  0  0  0  0  0  0  0  0  0  0  0
   -5.5680   19.8360  -32.7080 N   0  0  0  0  0  0  0  0  0  0  0  0
   -4.1320   19.8870  -32.7290 C   0  0  0  0  0  0  0  0  0  0  0  0
   -3.4800   18.8080  -32.7420 O   0  0  0  0  0  0  0  0  0  0  0  0
   -3.3990   21.2130  -32.7560 C   0  0  1  0  0  0  0  0  0  0  0  0
   -4.2140   22.2350  -33.2760 O   0  0  0  0  0  0  0  0  0  0  0  0
   -2.8530   21.6090  -31.3720 C   0  0  0  0  0  0  0  0  0  0  0  0
   -2.5910   22.9860  -31.3040 O   0  0  0  0  0  0  0  0  0  0  0  0
   -6.3770   20.6520  -32.0000 C   0  0  0  0  0  0  0  0  0  0  0  0
   -6.0150   21.7380  -31.1970 C   0  0  0  0  0  0  0  0  0  0  0  0
   -4.7270   24.6500  -30.5610 C   0  0  0  0  0  0  0  0  0  0  0  0
   -5.2760   24.5610  -31.6920 O   0  0  0  0  0  0  0  0  0  0  0  0
   -3.4960   25.2880  -30.4530 O   0  0  0  0  0  0  0  0  0  0  0  0
   -4.7409   23.2608  -27.4790 H   0  0  0  0  0  0  0  0  0  0  0  0
   -4.9444   22.0795  -28.8168 H   0  0  0  0  0  0  0  0  0  0  0  0
   -3.5436   23.2040  -28.8168 H   0  0  0  0  0  0  0  0  0  0  0  0
   -5.5652   24.9866  -28.6726 H   0  0  0  0  0  0  0  0  0  0  0  0
   -7.5730   24.0470  -29.2080 H   0  0  0  0  0  0  0  0  0  0  0  0
   -9.1898   22.6025  -30.1872 H   0  0  0  0  0  0  0  0  0  0  0  0
   -9.7649   20.6299  -31.6334 H   0  0  0  0  0  0  0  0  0  0  0  0
   -8.6021   18.6043  -33.2906 H   0  0  0  0  0  0  0  0  0  0  0  0
   -4.3850   17.2790  -35.6170 H   0  0  0  0  0  0  0  0  0  0  0  0
   -4.0890   18.8620  -34.8220 H   0  0  0  0  0  0  0  0  0  0  0  0
   -2.5348   21.0805  -33.4235 H   0  0  0  0  0  0  0  0  0  0  0  0
   -4.3540   22.9080  -32.5590 H   0  0  0  0  0  0  0  0  0  0  0  0
   -3.5965   21.3470  -30.6048 H   0  0  0  0  0  0  0  0  0  0  0  0
   -1.9113   21.0668  -31.2013 H   0  0  0  0  0  0  0  0  0  0  0  0
   -3.3920   23.4500  -31.6590 H   0  0  0  0  0  0  0  0  0  0  0  0
   -4.9607   22.0336  -31.0916 H   0  0  0  0  0  0  0  0  0  0  0  0
  1  2  1  0
  2  3  1  0
  3  4  1  0
  4  5  2  0
  5  6  1  0
  6  7  2  0
  7  8  1  0
  8  9  2  0
  9 10  1  0
 10 11  1  0
 10 12  2  0
  9 13  1  0
 13 14  1  0
 14 15  2  0
 14 16  1  0
 16 17  1  0
 16 18  1  0
 18 19  1  0
 13 20  1  0
 20 21  2  0
  2 22  1  0
 22 23  2  0
 22 24  1  0
 21  4  1  0
 20  7  1  0
  1 25  1  0
  1 26  1  0
  1 27  1  0
  2 28  1  1
  3 29  1  0
  5 30  1  0
  6 31  1  0
  8 32  1  0
 11 33  1  0
 11 34  1  0
 16 35  1  6
 17 36  1  0
 18 37  1  0
 18 38  1  0
 19 39  1  0
 21 40  1  0
M  CHG  1  24  -1
M  END
>  <UniqueID>  (45) 
45

>  <SMILES>  (45) 
C[C@H](Nc1ccc2cc(C(N)=O)n(C(=O)[C@@H](O)CO)c2c1)C(=O)[O-]

>  <Energy>  (45) 
79.72621242144828

>  <Genealogy>  (45) 
C[C@H](Nc1ccc2cc(C(N)=O)n(C(=O)C(O)CO)c2c1)C(=O)[O-] (protonated)
C[C@H](Nc1ccc2cc(C(N)=O)n(C(=O)[C@@H](O)CO)c2c1)C(=O)[O-] (chirality)
C[C@H](Nc1ccc2cc(C(N)=O)n(C(=O)[C@@H](O)CO)c2c1)C(=O)[O-] (3D coordinates assigned)
C[C@H](Nc1ccc2cc(C(N)=O)n(C(=O)[C@@H](O)CO)c2c1)C(=O)[O-] (optimized conformer: 79.72621242144828 kcal/mol)

>  <smiles>  (45) 
C[C@H](Nc1ccc2cc(C(N)=O)n(C(=O)C(O)CO)c2c1)C(=O)O

>  <score_type>  (45) 
oracle

>  <origin>  (45) 
adg

>  <m_score__min__energy>  (45) 
-9.9100000000000001

>  <m_primary>  (45) 
energy

$$$$
45:0
     RDKit          3D

 33 35  0  0  0  0  0  0  0  0999 V2000
   -4.0160   25.6660  -30.8390 N   0  0  0  0  0  0  0  0  0  0  0  0
   -5.2840   25.0890  -30.5350 C   0  0  0  0  0  0  0  0  0  0  0  0
   -6.0800   25.7110  -29.7830 O   0  0  0  0  0  0  0  0  0  0  0  0
   -5.6650   23.7940  -31.1370 C   0  0  0  0  0  0  0  0  0  0  0  0
   -6.9810   23.4450  -31.4340 C   0  0  0  0  0  0  0  0  0  0  0  0
   -6.9220   22.1470  -31.8860 C   0  0  0  0  0  0  0  0  0  0  0  0
   -7.9380   21.3060  -32.3250 C   0  0  0  0  0  0  0  0  0  0  0  0
   -7.5860   20.0170  -32.7590 C   0  0  0  0  0  0  0  0  0  0  0  0
   -6.2310   19.5930  -32.7570 C   0  0  0  0  0  0  0  0  0  0  0  0
   -5.8800   18.2350  -33.2280 C   0  0  0  0  0  0  0  0  0  0  0  0
   -4.6970   17.9280  -33.8080 N   0  0  0  0  0  0  0  0  0  0  0  0
   -4.6170   16.6150  -34.1550 C   0  0  0  0  0  0  0  0  0  0  0  0
   -5.7400   15.8550  -33.8550 C   0  0  0  0  0  0  0  0  0  0  0  0
   -6.8660   16.8700  -33.1310 S   0  0  0  0  0  0  0  0  0  0  0  0
   -5.2270   20.4820  -32.3040 C   0  0  0  0  0  0  0  0  0  0  0  0
   -5.6090   21.7530  -31.8580 C   0  0  0  0  0  0  0  0  0  0  0  0
   -4.8230   22.7540  -31.4030 N   0  0  0  0  0  0  0  0  0  0  0  0
   -3.3920   22.7240  -31.2910 C   0  0  0  0  0  0  0  0  0  0  0  0
   -2.6980   22.1840  -32.1960 O   0  0  0  0  0  0  0  0  0  0  0  0
   -2.7750   23.2700  -30.1610 O   0  0  0  0  0  0  0  0  0  0  0  0
   -1.3970   23.0750  -29.8670 C   0  0  0  0  0  0  0  0  0  0  0  0
   -0.8380   24.3320  -29.2910 C   0  0  0  0  0  0  0  0  0  0  0  0
    0.2790   24.3190  -28.7100 O   0  0  0  0  0  0  0  0  0  0  0  0
   -1.5710   25.5110  -29.3460 O   0  0  0  0  0  0  0  0  0  0  0  0
   -3.1330   25.2420  -30.4780 H   0  0  0  0  0  0  0  0  0  0  0  0
   -7.8772   24.0741  -31.3292 H   0  0  0  0  0  0  0  0  0  0  0  0
   -8.9861   21.6397  -32.3324 H   0  0  0  0  0  0  0  0  0  0  0  0
   -8.3702   19.3275  -33.1048 H   0  0  0  0  0  0  0  0  0  0  0  0
   -3.7268   16.1862  -34.6384 H   0  0  0  0  0  0  0  0  0  0  0  0
   -5.8690   14.7811  -34.0555 H   0  0  0  0  0  0  0  0  0  0  0  0
   -4.1691   20.1807  -32.3024 H   0  0  0  0  0  0  0  0  0  0  0  0
   -1.2877   22.2564  -29.1404 H   0  0  0  0  0  0  0  0  0  0  0  0
   -0.8546   22.8164  -30.7884 H   0  0  0  0  0  0  0  0  0  0  0  0
  1  2  1  0
  2  3  2  0
  2  4  1  0
  4  5  2  0
  5  6  1  0
  6  7  2  0
  7  8  1  0
  8  9  2  0
  9 10  1  0
 10 11  2  0
 11 12  1  0
 12 13  2  0
 13 14  1  0
  9 15  1  0
 15 16  2  0
 16 17  1  0
 17 18  1  0
 18 19  2  0
 18 20  1  0
 20 21  1  0
 21 22  1  0
 22 23  2  0
 22 24  1  0
 17  4  1  0
 16  6  1  0
 14 10  1  0
  1 25  1  0
  5 26  1  0
  7 27  1  0
  8 28  1  0
 12 29  1  0
 13 30  1  0
 15 31  1  0
 21 32  1  0
 21 33  1  0
M  CHG  2   1  -1  24  -1
M  END
>  <UniqueID>  (46) 
46

>  <SMILES>  (46) 
[NH-]C(=O)c1cc2ccc(-c3nccs3)cc2n1C(=O)OCC(=O)[O-]

>  <Energy>  (46) 
101.61433822158499

>  <Genealogy>  (46) 
[NH-]C(=O)c1cc2ccc(-c3nccs3)cc2n1C(=O)OCC(=O)[O-] (protonated)
[NH-]C(=O)c1cc2ccc(-c3nccs3)cc2n1C(=O)OCC(=O)[O-] (3D coordinates assigned)
[NH-]C(=O)c1cc2ccc(-c3nccs3)cc2n1C(=O)OCC(=O)[O-] (optimized conformer: 101.61433822158499 kcal/mol)

>  <smiles>  (46) 
NC(=O)c1cc2ccc(-c3nccs3)cc2n1C(=O)OCC(=O)O

>  <score_type>  (46) 
oracle

>  <origin>  (46) 
adg

>  <m_score__min__energy>  (46) 
-12.890000000000001

>  <m_primary>  (46) 
energy

$$$$
46:0
     RDKit          3D

 44 45  0  0  0  0  0  0  0  0999 V2000
   -6.0940   18.1860  -34.2970 C   0  0  0  0  0  0  0  0  0  0  0  0
   -6.4470   18.3810  -32.8850 N   0  0  0  0  0  0  0  0  0  0  0  0
   -6.5040   17.2270  -31.9740 C   0  0  0  0  0  0  0  0  0  0  0  0
   -6.7280   19.7090  -32.3900 C   0  0  0  0  0  0  0  0  0  0  0  0
   -8.0490   20.2340  -32.4390 C   0  0  0  0  0  0  0  0  0  0  0  0
   -8.3230   21.5350  -31.9810 C   0  0  0  0  0  0  0  0  0  0  0  0
   -7.2620   22.2960  -31.4970 C   0  0  0  0  0  0  0  0  0  0  0  0
   -7.2340   23.5950  -31.0380 C   0  0  0  0  0  0  0  0  0  0  0  0
   -5.8990   23.8370  -30.7080 C   0  0  0  0  0  0  0  0  0  0  0  0
   -5.4120   25.1010  -30.1170 C   0  0  0  0  0  0  0  0  0  0  0  0
   -4.1560   25.6540  -30.5180 N   0  0  0  0  0  0  0  0  0  0  0  0
   -6.0840   25.6730  -29.2170 O   0  0  0  0  0  0  0  0  0  0  0  0
   -5.1340   22.7430  -30.9690 N   0  0  0  0  0  0  0  0  0  0  0  0
   -3.7040   22.6470  -30.9170 C   0  0  0  0  0  0  0  0  0  0  0  0
   -3.0180   22.9940  -31.9180 O   0  0  0  0  0  0  0  0  0  0  0  0
   -3.0870   22.1450  -29.7630 O   0  0  0  0  0  0  0  0  0  0  0  0
   -1.9990   22.7890  -29.0950 C   0  0  0  0  0  0  0  0  0  0  0  0
   -2.3420   24.2240  -28.7750 C   0  0  0  0  0  0  0  0  0  0  0  0
   -1.7070   25.1130  -29.3280 O   0  0  0  0  0  0  0  0  0  0  0  0
   -3.4480   24.5450  -27.8850 N   0  0  0  0  0  0  0  0  0  0  0  0
   -2.9360   25.2310  -26.6850 C   0  0  0  0  0  0  0  0  0  0  0  0
   -4.2040   23.3390  -27.4950 C   0  0  0  0  0  0  0  0  0  0  0  0
   -5.9820   21.8000  -31.4320 C   0  0  0  0  0  0  0  0  0  0  0  0
   -5.6810   20.5090  -31.8760 C   0  0  0  0  0  0  0  0  0  0  0  0
   -5.1330   17.6551  -34.3648 H   0  0  0  0  0  0  0  0  0  0  0  0
   -6.8766   17.5922  -34.7920 H   0  0  0  0  0  0  0  0  0  0  0  0
   -6.0080   19.1646  -34.7920 H   0  0  0  0  0  0  0  0  0  0  0  0
   -6.4865   17.5808  -30.9326 H   0  0  0  0  0  0  0  0  0  0  0  0
   -7.4311   16.6631  -32.1542 H   0  0  0  0  0  0  0  0  0  0  0  0
   -5.6370   16.5744  -32.1542 H   0  0  0  0  0  0  0  0  0  0  0  0
   -8.8655   19.6153  -32.8397 H   0  0  0  0  0  0  0  0  0  0  0  0
   -9.3456   21.9397  -32.0044 H   0  0  0  0  0  0  0  0  0  0  0  0
   -8.0810   24.2914  -30.9504 H   0  0  0  0  0  0  0  0  0  0  0  0
   -3.3510   25.0400  -30.7640 H   0  0  0  0  0  0  0  0  0  0  0  0
   -1.7816   22.2527  -28.1595 H   0  0  0  0  0  0  0  0  0  0  0  0
   -1.1204   22.7750  -29.7567 H   0  0  0  0  0  0  0  0  0  0  0  0
   -4.1160   25.1880  -28.3780 H   0  0  0  0  0  0  0  0  0  0  0  0
   -3.3136   24.7250  -25.7842 H   0  0  0  0  0  0  0  0  0  0  0  0
   -1.8364   25.2027  -26.6876 H   0  0  0  0  0  0  0  0  0  0  0  0
   -3.2759   26.2772  -26.6876 H   0  0  0  0  0  0  0  0  0  0  0  0
   -4.2463   23.2716  -26.3979 H   0  0  0  0  0  0  0  0  0  0  0  0
   -5.2256   23.4003  -27.8982 H   0  0  0  0  0  0  0  0  0  0  0  0
   -3.7036   22.4462  -27.8982 H   0  0  0  0  0  0  0  0  0  0  0  0
   -4.6519   20.1236  -31.8267 H   0  0  0  0  0  0  0  0  0  0  0  0
  1  2  1  0
  2  3  1  0
  2  4  1  0
  4  5  2  0
  5  6  1  0
  6  7  2  0
  7  8  1  0
  8  9  2  0
  9 10  1  0
 10 11  1  0
 10 12  2  0
  9 13  1  0
 13 14  1  0
 14 15  2  0
 14 16  1  0
 16 17  1  0
 17 18  1  0
 18 19  2  0
 18 20  1  0
 20 21  1  0
 20 22  1  0
 13 23  1  0
 23 24  2  0
 24  4  1  0
 23  7  1  0
  1 25  1  0
  1 26  1  0
  1 27  1  0
  3 28  1  0
  3 29  1  0
  3 30  1  0
  5 31  1  0
  6 32  1  0
  8 33  1  0
 11 34  1  0
 17 35  1  0
 17 36  1  0
 20 37  1  0
 21 38  1  0
 21 39  1  0
 21 40  1  0
 22 41  1  0
 22 42  1  0
 22 43  1  0
 24 44  1  0
M  CHG  2  11  -1  20   1
M  END
>  <UniqueID>  (47) 
47

>  <SMILES>  (47) 
CN(C)c1ccc2cc(C([NH-])=O)n(C(=O)OCC(=O)[NH+](C)C)c2c1

>  <Energy>  (47) 
84.38276557563393

>  <Genealogy>  (47) 
CN(C)c1ccc2cc(C([NH-])=O)n(C(=O)OCC(=O)[NH+](C)C)c2c1 (protonated)
CN(C)c1ccc2cc(C([NH-])=O)n(C(=O)OCC(=O)[NH+](C)C)c2c1 (3D coordinates assigned)
CN(C)c1ccc2cc(C([NH-])=O)n(C(=O)OCC(=O)[NH+](C)C)c2c1 (optimized conformer: 84.38276557563393 kcal/mol)

>  <smiles>  (47) 
CN(C)C(=O)COC(=O)n1c(C(N)=O)cc2ccc(N(C)C)cc21

>  <score_type>  (47) 
oracle

>  <origin>  (47) 
adg

>  <m_score__min__energy>  (47) 
-9.7300000000000004

>  <m_primary>  (47) 
energy

$$$$
47:0
     RDKit          3D

 37 38  0  0  0  0  0  0  0  0999 V2000
   -5.6640   18.1550  -34.6660 C   0  0  0  0  0  0  0  0  0  0  0  0
   -6.0060   18.3280  -33.2490 N   0  0  0  0  0  0  0  0  0  0  0  0
   -6.0260   17.1480  -32.3750 C   0  0  0  0  0  0  0  0  0  0  0  0
   -6.3200   19.6430  -32.7200 C   0  0  0  0  0  0  0  0  0  0  0  0
   -7.6690   20.0930  -32.6470 C   0  0  0  0  0  0  0  0  0  0  0  0
   -7.9850   21.3590  -32.1270 C   0  0  0  0  0  0  0  0  0  0  0  0
   -6.9400   22.1660  -31.6940 C   0  0  0  0  0  0  0  0  0  0  0  0
   -6.9670   23.4210  -31.1310 C   0  0  0  0  0  0  0  0  0  0  0  0
   -5.6340   23.7430  -30.8840 C   0  0  0  0  0  0  0  0  0  0  0  0
   -5.1960   25.0550  -30.3610 C   0  0  0  0  0  0  0  0  0  0  0  0
   -3.9980   25.6680  -30.8270 N   0  0  0  0  0  0  0  0  0  0  0  0
   -5.9160   25.6630  -29.5250 O   0  0  0  0  0  0  0  0  0  0  0  0
   -4.8180   22.7220  -31.2720 N   0  0  0  0  0  0  0  0  0  0  0  0
   -3.3930   22.6280  -31.1220 C   0  0  0  0  0  0  0  0  0  0  0  0
   -2.7630   21.6900  -31.6820 O   0  0  0  0  0  0  0  0  0  0  0  0
   -2.7090   23.5930  -30.3750 O   0  0  0  0  0  0  0  0  0  0  0  0
   -2.2000   23.3570  -29.0630 C   0  0  0  0  0  0  0  0  0  0  0  0
   -2.1560   24.6530  -28.2510 C   0  0  0  0  0  0  0  0  0  0  0  0
   -1.6050   25.6920  -29.0140 O   0  0  0  0  0  0  0  0  0  0  0  0
   -5.6330   21.7670  -31.7690 C   0  0  0  0  0  0  0  0  0  0  0  0
   -5.2880   20.5040  -32.2630 C   0  0  0  0  0  0  0  0  0  0  0  0
   -4.6852   17.6599  -34.7492 H   0  0  0  0  0  0  0  0  0  0  0  0
   -6.4306   17.5363  -35.1553 H   0  0  0  0  0  0  0  0  0  0  0  0
   -5.6198   19.1392  -35.1553 H   0  0  0  0  0  0  0  0  0  0  0  0
   -6.0205   17.4705  -31.3234 H   0  0  0  0  0  0  0  0  0  0  0  0
   -6.9342   16.5600  -32.5735 H   0  0  0  0  0  0  0  0  0  0  0  0
   -5.1382   16.5296  -32.5735 H   0  0  0  0  0  0  0  0  0  0  0  0
   -8.4774   19.4380  -33.0039 H   0  0  0  0  0  0  0  0  0  0  0  0
   -9.0285   21.7013  -32.0644 H   0  0  0  0  0  0  0  0  0  0  0  0
   -7.8525   24.0388  -30.9206 H   0  0  0  0  0  0  0  0  0  0  0  0
   -3.0620   25.2970  -30.5520 H   0  0  0  0  0  0  0  0  0  0  0  0
   -2.8498   22.6328  -28.5499 H   0  0  0  0  0  0  0  0  0  0  0  0
   -1.1768   22.9626  -29.1496 H   0  0  0  0  0  0  0  0  0  0  0  0
   -3.1782   24.9270  -27.9509 H   0  0  0  0  0  0  0  0  0  0  0  0
   -1.5292   24.4941  -27.3611 H   0  0  0  0  0  0  0  0  0  0  0  0
   -2.0590   25.6690  -29.8970 H   0  0  0  0  0  0  0  0  0  0  0  0
   -4.2361   20.1841  -32.2966 H   0  0  0  0  0  0  0  0  0  0  0  0
  1  2  1  0
  2  3  1  0
  2  4  1  0
  4  5  2  0
  5  6  1  0
  6  7  2  0
  7  8  1  0
  8  9  2  0
  9 10  1  0
 10 11  1  0
 10 12  2  0
  9 13  1  0
 13 14  1  0
 14 15  2  0
 14 16  1  0
 16 17  1  0
 17 18  1  0
 18 19  1  0
 13 20  1  0
 20 21  2  0
 21  4  1  0
 20  7  1  0
  1 22  1  0
  1 23  1  0
  1 24  1  0
  3 25  1  0
  3 26  1  0
  3 27  1  0
  5 28  1  0
  6 29  1  0
  8 30  1  0
 11 31  1  0
 17 32  1  0
 17 33  1  0
 18 34  1  0
 18 35  1  0
 19 36  1  0
 21 37  1  0
M  CHG  1  11  -1
M  END
>  <UniqueID>  (48) 
48

>  <SMILES>  (48) 
CN(C)c1ccc2cc(C([NH-])=O)n(C(=O)OCCO)c2c1

>  <Energy>  (48) 
73.84400057552135

>  <Genealogy>  (48) 
CN(C)c1ccc2cc(C([NH-])=O)n(C(=O)OCCO)c2c1 (protonated)
CN(C)c1ccc2cc(C([NH-])=O)n(C(=O)OCCO)c2c1 (3D coordinates assigned)
CN(C)c1ccc2cc(C([NH-])=O)n(C(=O)OCCO)c2c1 (optimized conformer: 73.84400057552135 kcal/mol)

>  <smiles>  (48) 
CN(C)c1ccc2cc(C(N)=O)n(C(=O)OCCO)c2c1

>  <score_type>  (48) 
oracle

>  <origin>  (48) 
adg

>  <m_score__min__energy>  (48) 
-10.15

>  <m_primary>  (48) 
energy

$$$$
48:0
     RDKit          3D

 29 30  0  0  0  0  0  0  0  0999 V2000
   -4.1500   17.3950  -33.3790 N   0  0  0  0  0  0  0  0  0  0  0  0
   -5.4270   17.9460  -33.7060 C   0  0  0  0  0  0  0  0  0  0  0  0
   -6.1680   17.3420  -34.5250 O   0  0  0  0  0  0  0  0  0  0  0  0
   -5.8630   19.2430  -33.1530 C   0  0  0  0  0  0  0  0  0  0  0  0
   -7.1790   19.5170  -32.7920 C   0  0  0  0  0  0  0  0  0  0  0  0
   -7.1790   20.8340  -32.3930 C   0  0  0  0  0  0  0  0  0  0  0  0
   -8.2210   21.6200  -31.9120 C   0  0  0  0  0  0  0  0  0  0  0  0
   -7.9300   22.9390  -31.5300 C   0  0  0  0  0  0  0  0  0  0  0  0
   -6.6100   23.4460  -31.6350 C   0  0  0  0  0  0  0  0  0  0  0  0
   -6.3030   24.8440  -31.1770 C   0  0  0  0  0  0  0  0  0  0  0  0
   -5.1580   24.8290  -30.2110 C   0  0  0  0  0  0  0  0  0  0  0  0
   -5.3250   24.3650  -29.0520 O   0  0  0  0  0  0  0  0  0  0  0  0
   -3.8690   25.2970  -30.6130 N   0  0  0  0  0  0  0  0  0  0  0  0
   -2.8260   25.2630  -29.7510 O   0  0  0  0  0  0  0  0  0  0  0  0
   -5.5750   22.6140  -32.1160 C   0  0  0  0  0  0  0  0  0  0  0  0
   -5.8970   21.3090  -32.5090 C   0  0  0  0  0  0  0  0  0  0  0  0
   -5.0740   20.3400  -32.9710 N   0  0  0  0  0  0  0  0  0  0  0  0
   -3.6440   20.4170  -33.1130 C   0  0  0  0  0  0  0  0  0  0  0  0
   -3.1210   21.3090  -33.8300 O   0  0  0  0  0  0  0  0  0  0  0  0
   -2.8250   19.5100  -32.4530 O   0  0  0  0  0  0  0  0  0  0  0  0
   -3.4480   17.9460  -32.8380 H   0  0  0  0  0  0  0  0  0  0  0  0
   -3.8720   16.4600  -33.7510 H   0  0  0  0  0  0  0  0  0  0  0  0
   -8.0360   18.8280  -32.8197 H   0  0  0  0  0  0  0  0  0  0  0  0
   -9.2426   21.2199  -31.8333 H   0  0  0  0  0  0  0  0  0  0  0  0
   -8.7331   23.5850  -31.1458 H   0  0  0  0  0  0  0  0  0  0  0  0
   -6.0368   25.4619  -32.0473 H   0  0  0  0  0  0  0  0  0  0  0  0
   -7.1896   25.2625  -30.6783 H   0  0  0  0  0  0  0  0  0  0  0  0
   -3.7190   25.6650  -31.5790 H   0  0  0  0  0  0  0  0  0  0  0  0
   -4.5405   22.9823  -32.1804 H   0  0  0  0  0  0  0  0  0  0  0  0
  1  2  1  0
  2  3  2  0
  2  4  1  0
  4  5  2  0
  5  6  1  0
  6  7  2  0
  7  8  1  0
  8  9  2  0
  9 10  1  0
 10 11  1  0
 11 12  2  0
 11 13  1  0
 13 14  1  0
  9 15  1  0
 15 16  2  0
 16 17  1  0
 17 18  1  0
 18 19  2  0
 18 20  1  0
 17  4  1  0
 16  6  1  0
  1 21  1  0
  1 22  1  0
  5 23  1  0
  7 24  1  0
  8 25  1  0
 10 26  1  0
 10 27  1  0
 13 28  1  0
 15 29  1  0
M  CHG  2  14  -1  20  -1
M  END
>  <UniqueID>  (49) 
49

>  <SMILES>  (49) 
NC(=O)c1cc2ccc(CC(=O)N[O-])cc2n1C(=O)[O-]

>  <Energy>  (49) 
66.34682688597248

>  <Genealogy>  (49) 
NC(=O)c1cc2ccc(CC(=O)N[O-])cc2n1C(=O)[O-] (protonated)
NC(=O)c1cc2ccc(CC(=O)N[O-])cc2n1C(=O)[O-] (3D coordinates assigned)
NC(=O)c1cc2ccc(CC(=O)N[O-])cc2n1C(=O)[O-] (optimized conformer: 66.34682688597248 kcal/mol)

>  <smiles>  (49) 
NC(=O)c1cc2ccc(CC(=O)NO)cc2n1C(=O)O

>  <score_type>  (49) 
oracle

>  <origin>  (49) 
adg

>  <m_score__min__energy>  (49) 
-10.44

>  <m_primary>  (49) 
energy

$$$$
49:0
     RDKit          3D

 32 34  0  0  0  0  0  0  0  0999 V2000
   -5.6130   24.4030  -29.0260 N   0  0  0  0  0  0  0  0  0  0  0  0
   -6.0690   23.2570  -29.7460 C   0  0  0  0  0  0  0  0  0  0  0  0
   -7.2630   22.8810  -29.6150 O   0  0  0  0  0  0  0  0  0  0  0  0
   -5.1840   22.5480  -30.6920 C   0  0  0  0  0  0  0  0  0  0  0  0
   -5.5800   21.4260  -31.4150 C   0  0  0  0  0  0  0  0  0  0  0  0
   -4.5070   21.1150  -32.2170 C   0  0  0  0  0  0  0  0  0  0  0  0
   -4.3490   20.0800  -33.1310 C   0  0  0  0  0  0  0  0  0  0  0  0
   -3.1170   19.9700  -33.7970 C   0  0  0  0  0  0  0  0  0  0  0  0
   -2.0630   20.8850  -33.5350 C   0  0  0  0  0  0  0  0  0  0  0  0
   -0.7620   20.7510  -34.2350 C   0  0  0  0  0  0  0  0  0  0  0  0
    0.1520   21.7580  -34.1870 N   0  0  0  0  0  0  0  0  0  0  0  0
    1.3500   21.6590  -34.8190 C   0  0  0  0  0  0  0  0  0  0  0  0
    1.6690   20.5010  -35.5420 C   0  0  0  0  0  0  0  0  0  0  0  0
    2.9650   20.3640  -36.2400 C   0  0  0  0  0  0  0  0  0  0  0  0
    3.9550   19.8470  -35.6580 O   0  0  0  0  0  0  0  0  0  0  0  0
    3.1070   20.8040  -37.5510 O   0  0  0  0  0  0  0  0  0  0  0  0
    0.7170   19.4750  -35.5800 C   0  0  0  0  0  0  0  0  0  0  0  0
   -0.4680   19.6200  -34.9320 N   0  0  0  0  0  0  0  0  0  0  0  0
   -2.2660   21.9240  -32.5930 C   0  0  0  0  0  0  0  0  0  0  0  0
   -3.5110   22.0220  -31.9600 C   0  0  0  0  0  0  0  0  0  0  0  0
   -3.9120   22.9100  -31.0210 N   0  0  0  0  0  0  0  0  0  0  0  0
   -3.1130   23.9350  -30.4050 C   0  0  0  0  0  0  0  0  0  0  0  0
   -2.0540   23.6380  -29.7940 O   0  0  0  0  0  0  0  0  0  0  0  0
   -3.5060   25.2670  -30.4750 O   0  0  0  0  0  0  0  0  0  0  0  0
   -6.2400   24.8700  -28.3340 H   0  0  0  0  0  0  0  0  0  0  0  0
   -4.6870   24.8380  -29.2350 H   0  0  0  0  0  0  0  0  0  0  0  0
   -6.5447   20.9007  -31.3571 H   0  0  0  0  0  0  0  0  0  0  0  0
   -5.1644   19.3681  -33.3271 H   0  0  0  0  0  0  0  0  0  0  0  0
   -2.9668   19.1646  -34.5310 H   0  0  0  0  0  0  0  0  0  0  0  0
    2.0707   22.4882  -34.7636 H   0  0  0  0  0  0  0  0  0  0  0  0
    0.9291   18.5497  -36.1357 H   0  0  0  0  0  0  0  0  0  0  0  0
   -1.4620   22.6388  -32.3638 H   0  0  0  0  0  0  0  0  0  0  0  0
  1  2  1  0
  2  3  2  0
  2  4  1  0
  4  5  2  0
  5  6  1  0
  6  7  2  0
  7  8  1  0
  8  9  2  0
  9 10  1  0
 10 11  2  0
 11 12  1  0
 12 13  2  0
 13 14  1  0
 14 15  2  0
 14 16  1  0
 13 17  1  0
 17 18  2  0
  9 19  1  0
 19 20  2  0
 20 21  1  0
 21 22  1  0
 22 23  2  0
 22 24  1  0
 21  4  1  0
 20  6  1  0
 18 10  1  0
  1 25  1  0
  1 26  1  0
  5 27  1  0
  7 28  1  0
  8 29  1  0
 12 30  1  0
 17 31  1  0
 19 32  1  0
M  CHG  2  16  -1  24  -1
M  END
>  <UniqueID>  (50) 
50

>  <SMILES>  (50) 
NC(=O)c1cc2ccc(-c3ncc(C(=O)[O-])cn3)cc2n1C(=O)[O-]

>  <Energy>  (50) 
78.20028400058207

>  <Genealogy>  (50) 
NC(=O)c1cc2ccc(-c3ncc(C(=O)[O-])cn3)cc2n1C(=O)[O-] (protonated)
NC(=O)c1cc2ccc(-c3ncc(C(=O)[O-])cn3)cc2n1C(=O)[O-] (3D coordinates assigned)
NC(=O)c1cc2ccc(-c3ncc(C(=O)[O-])cn3)cc2n1C(=O)[O-] (optimized conformer: 78.20028400058207 kcal/mol)

>  <smiles>  (50) 
NC(=O)c1cc2ccc(-c3ncc(C(=O)O)cn3)cc2n1C(=O)O

>  <score_type>  (50) 
oracle

>  <origin>  (50) 
adg

>  <m_score__min__energy>  (50) 
-8.9100000000000001

>  <m_primary>  (50) 
energy

$$$$
50:0
     RDKit          3D

 36 37  0  0  0  0  0  0  0  0999 V2000
   -4.0340   17.3250  -33.9680 C   0  0  0  0  0  0  0  0  0  0  0  0
   -5.3060   18.5600  -33.8340 S   0  0  0  0  0  0  0  0  0  0  0  0
   -6.0960   18.8020  -35.2980 O   0  0  0  0  0  0  0  0  0  0  0  0
   -6.4450   18.1710  -32.5570 C   0  0  0  0  0  0  0  0  0  0  0  0
   -6.1120   17.4110  -31.6620 O   0  0  0  0  0  0  0  0  0  0  0  0
   -7.8120   18.7880  -32.5520 C   0  0  0  0  0  0  0  0  0  0  0  0
   -7.7280   20.2170  -32.0940 C   0  0  0  0  0  0  0  0  0  0  0  0
   -8.9110   20.9830  -31.9370 C   0  0  0  0  0  0  0  0  0  0  0  0
   -8.8450   22.3270  -31.5390 C   0  0  0  0  0  0  0  0  0  0  0  0
   -7.5870   22.8840  -31.3240 C   0  0  0  0  0  0  0  0  0  0  0  0
   -7.2360   24.1510  -30.9180 C   0  0  0  0  0  0  0  0  0  0  0  0
   -5.8430   24.1500  -30.8670 C   0  0  0  0  0  0  0  0  0  0  0  0
   -5.0370   25.3410  -30.5220 C   0  0  0  0  0  0  0  0  0  0  0  0
   -3.6140   25.2790  -30.4750 N   0  0  0  0  0  0  0  0  0  0  0  0
   -5.6130   26.4390  -30.2940 O   0  0  0  0  0  0  0  0  0  0  0  0
   -5.3540   22.9300  -31.2280 N   0  0  0  0  0  0  0  0  0  0  0  0
   -3.9790   22.5120  -31.2470 C   0  0  0  0  0  0  0  0  0  0  0  0
   -3.3580   22.4700  -32.3420 O   0  0  0  0  0  0  0  0  0  0  0  0
   -3.2550   22.1520  -29.9840 C   0  0  0  0  0  0  0  0  0  0  0  0
   -2.1670   23.0100  -29.7860 O   0  0  0  0  0  0  0  0  0  0  0  0
   -6.4330   22.1650  -31.5010 C   0  0  0  0  0  0  0  0  0  0  0  0
   -6.4690   20.8180  -31.8770 C   0  0  0  0  0  0  0  0  0  0  0  0
   -3.7156   17.0159  -32.9615 H   0  0  0  0  0  0  0  0  0  0  0  0
   -4.4254   16.4531  -34.5127 H   0  0  0  0  0  0  0  0  0  0  0  0
   -3.1741   17.7419  -34.5127 H   0  0  0  0  0  0  0  0  0  0  0  0
   -6.9040   19.3250  -35.0660 H   0  0  0  0  0  0  0  0  0  0  0  0
   -8.2305   18.7551  -33.5688 H   0  0  0  0  0  0  0  0  0  0  0  0
   -8.4602   18.2253  -31.8641 H   0  0  0  0  0  0  0  0  0  0  0  0
   -9.8898   20.5192  -32.1290 H   0  0  0  0  0  0  0  0  0  0  0  0
   -9.7595   22.9226  -31.4010 H   0  0  0  0  0  0  0  0  0  0  0  0
   -7.9112   24.9871  -30.6835 H   0  0  0  0  0  0  0  0  0  0  0  0
   -3.0900   24.5570  -31.0170 H   0  0  0  0  0  0  0  0  0  0  0  0
   -3.9457   22.2394  -29.1324 H   0  0  0  0  0  0  0  0  0  0  0  0
   -2.8857   21.1190  -30.0654 H   0  0  0  0  0  0  0  0  0  0  0  0
   -2.1770   23.6480  -30.5460 H   0  0  0  0  0  0  0  0  0  0  0  0
   -5.5401   20.2418  -32.0004 H   0  0  0  0  0  0  0  0  0  0  0  0
  1  2  1  0
  2  3  1  6
  2  4  1  0
  4  5  2  0
  4  6  1  0
  6  7  1  0
  7  8  2  0
  8  9  1  0
  9 10  2  0
 10 11  1  0
 11 12  2  0
 12 13  1  0
 13 14  1  0
 13 15  2  0
 12 16  1  0
 16 17  1  0
 17 18  2  0
 17 19  1  0
 19 20  1  0
 16 21  1  0
 21 22  2  0
 22  7  1  0
 21 10  1  0
  1 23  1  0
  1 24  1  0
  1 25  1  0
  3 26  1  0
  6 27  1  0
  6 28  1  0
  8 29  1  0
  9 30  1  0
 11 31  1  0
 14 32  1  0
 19 33  1  0
 19 34  1  0
 20 35  1  0
 22 36  1  0
M  CHG  2   2   1  14  -1
M  END
>  <UniqueID>  (51) 
51

>  <SMILES>  (51) 
C[S@@+](O)C(=O)Cc1ccc2cc(C([NH-])=O)n(C(=O)CO)c2c1

>  <Energy>  (51) 
68.15886230060642

>  <Genealogy>  (51) 
C[S+](O)C(=O)Cc1ccc2cc(C([NH-])=O)n(C(=O)CO)c2c1 (protonated)
C[S@@+](O)C(=O)Cc1ccc2cc(C([NH-])=O)n(C(=O)CO)c2c1 (chirality)
C[S@@+](O)C(=O)Cc1ccc2cc(C([NH-])=O)n(C(=O)CO)c2c1 (3D coordinates assigned)
C[S@@+](O)C(=O)Cc1ccc2cc(C([NH-])=O)n(C(=O)CO)c2c1 (optimized conformer: 68.15886230060642 kcal/mol)

>  <smiles>  (51) 
C[S+]([O-])C(=O)Cc1ccc2cc(C(N)=O)n(C(=O)CO)c2c1

>  <score_type>  (51) 
oracle

>  <origin>  (51) 
adg

>  <m_score__min__energy>  (51) 
-9.5

>  <m_primary>  (51) 
energy

$$$$
51:0
     RDKit          3D

 36 37  0  0  0  0  0  0  0  0999 V2000
   -7.8850   21.1130  -32.0850 C   0  0  0  0  0  0  0  0  0  0  0  0
   -7.5730   20.1420  -33.0760 O   0  0  0  0  0  0  0  0  0  0  0  0
   -7.1590   18.8470  -32.7550 C   0  0  0  0  0  0  0  0  0  0  0  0
   -7.3530   18.3760  -31.6000 O   0  0  0  0  0  0  0  0  0  0  0  0
   -6.4490   18.0240  -33.7850 C   0  0  0  0  0  0  0  0  0  0  0  0
   -5.1060   18.6540  -34.1700 C   0  0  0  0  0  0  0  0  0  0  0  0
   -5.0280   20.0570  -33.7550 N   0  0  0  0  0  0  0  0  0  0  0  0
   -4.0010   20.5670  -32.8840 C   0  0  0  0  0  0  0  0  0  0  0  0
   -2.8120   19.8150  -32.7080 C   0  0  0  0  0  0  0  0  0  0  0  0
   -1.7920   20.2680  -31.8560 C   0  0  0  0  0  0  0  0  0  0  0  0
   -1.9790   21.4810  -31.2020 C   0  0  0  0  0  0  0  0  0  0  0  0
   -1.1680   22.1300  -30.2990 C   0  0  0  0  0  0  0  0  0  0  0  0
   -1.8570   23.2920  -29.9590 C   0  0  0  0  0  0  0  0  0  0  0  0
   -1.3110   24.3210  -29.0520 C   0  0  0  0  0  0  0  0  0  0  0  0
   -2.1570   25.3040  -28.4550 N   0  0  0  0  0  0  0  0  0  0  0  0
   -0.0690   24.3690  -28.8460 O   0  0  0  0  0  0  0  0  0  0  0  0
   -3.0510   23.3550  -30.6110 N   0  0  0  0  0  0  0  0  0  0  0  0
   -4.0900   24.3320  -30.4320 C   0  0  0  0  0  0  0  0  0  0  0  0
   -5.2100   23.9960  -29.9650 O   0  0  0  0  0  0  0  0  0  0  0  0
   -3.8680   25.6610  -30.7700 O   0  0  0  0  0  0  0  0  0  0  0  0
   -3.1110   22.2370  -31.3730 C   0  0  0  0  0  0  0  0  0  0  0  0
   -4.1530   21.7990  -32.1990 C   0  0  0  0  0  0  0  0  0  0  0  0
   -7.7444   20.6753  -31.0857 H   0  0  0  0  0  0  0  0  0  0  0  0
   -7.2209   21.9822  -32.2014 H   0  0  0  0  0  0  0  0  0  0  0  0
   -8.9311   21.4326  -32.2014 H   0  0  0  0  0  0  0  0  0  0  0  0
   -6.2697   17.0177  -33.3786 H   0  0  0  0  0  0  0  0  0  0  0  0
   -7.0798   17.9728  -34.6847 H   0  0  0  0  0  0  0  0  0  0  0  0
   -4.2957   18.0922  -33.6824 H   0  0  0  0  0  0  0  0  0  0  0  0
   -5.0092   18.6139  -35.2650 H   0  0  0  0  0  0  0  0  0  0  0  0
   -5.7510   20.7290  -34.1040 H   0  0  0  0  0  0  0  0  0  0  0  0
   -2.6869   18.8638  -33.2462 H   0  0  0  0  0  0  0  0  0  0  0  0
   -0.8730   19.6813  -31.7103 H   0  0  0  0  0  0  0  0  0  0  0  0
   -0.1867   21.8017  -29.9259 H   0  0  0  0  0  0  0  0  0  0  0  0
   -1.7590   26.0010  -27.7870 H   0  0  0  0  0  0  0  0  0  0  0  0
   -3.1570   25.3990  -28.7400 H   0  0  0  0  0  0  0  0  0  0  0  0
   -5.0690   22.3972  -32.3140 H   0  0  0  0  0  0  0  0  0  0  0  0
  1  2  1  0
  2  3  1  0
  3  4  2  0
  3  5  1  0
  5  6  1  0
  6  7  1  0
  7  8  1  0
  8  9  2  0
  9 10  1  0
 10 11  2  0
 11 12  1  0
 12 13  2  0
 13 14  1  0
 14 15  1  0
 14 16  2  0
 13 17  1  0
 17 18  1  0
 18 19  2  0
 18 20  1  0
 17 21  1  0
 21 22  2  0
 22  8  1  0
 21 11  1  0
  1 23  1  0
  1 24  1  0
  1 25  1  0
  5 26  1  0
  5 27  1  0
  6 28  1  0
  6 29  1  0
  7 30  1  0
  9 31  1  0
 10 32  1  0
 12 33  1  0
 15 34  1  0
 15 35  1  0
 22 36  1  0
M  CHG  1  20  -1
M  END
>  <UniqueID>  (52) 
52

>  <SMILES>  (52) 
COC(=O)CCNc1ccc2cc(C(N)=O)n(C(=O)[O-])c2c1

>  <Energy>  (52) 
70.42357125534942

>  <Genealogy>  (52) 
COC(=O)CCNc1ccc2cc(C(N)=O)n(C(=O)[O-])c2c1 (protonated)
COC(=O)CCNc1ccc2cc(C(N)=O)n(C(=O)[O-])c2c1 (3D coordinates assigned)
COC(=O)CCNc1ccc2cc(C(N)=O)n(C(=O)[O-])c2c1 (optimized conformer: 70.42357125534942 kcal/mol)

>  <smiles>  (52) 
COC(=O)CCNc1ccc2cc(C(N)=O)n(C(=O)O)c2c1

>  <score_type>  (52) 
oracle

>  <origin>  (52) 
adg

>  <m_score__min__energy>  (52) 
-8.2699999999999996

>  <m_primary>  (52) 
energy

$$$$
52:0
     RDKit          3D

 46 47  0  0  0  0  0  0  0  0999 V2000
   -6.1140   17.1370  -31.2210 C   0  0  0  0  0  0  0  0  0  0  0  0
   -6.5340   17.9980  -32.3340 N   0  0  0  0  0  0  0  0  0  0  0  0
   -6.7810   17.3900  -33.6460 C   0  0  0  0  0  0  0  0  0  0  0  0
   -6.7030   19.4270  -32.1390 C   0  0  0  0  0  0  0  0  0  0  0  0
   -7.9110   20.0750  -32.5230 C   0  0  0  0  0  0  0  0  0  0  0  0
   -8.0790   21.4580  -32.3490 C   0  0  0  0  0  0  0  0  0  0  0  0
   -7.0340   22.1770  -31.7820 C   0  0  0  0  0  0  0  0  0  0  0  0
   -6.9250   23.5250  -31.5210 C   0  0  0  0  0  0  0  0  0  0  0  0
   -5.6620   23.6910  -30.9590 C   0  0  0  0  0  0  0  0  0  0  0  0
   -5.1620   24.9840  -30.4470 C   0  0  0  0  0  0  0  0  0  0  0  0
   -3.8770   25.4550  -30.8420 N   0  0  0  0  0  0  0  0  0  0  0  0
   -5.8740   25.6970  -29.6900 O   0  0  0  0  0  0  0  0  0  0  0  0
   -5.0130   22.4940  -30.8820 N   0  0  0  0  0  0  0  0  0  0  0  0
   -3.6790   22.2430  -30.4150 C   0  0  0  0  0  0  0  0  0  0  0  0
   -3.4540   21.2680  -29.6470 O   0  0  0  0  0  0  0  0  0  0  0  0
   -2.6370   23.0940  -30.8000 O   0  0  0  0  0  0  0  0  0  0  0  0
   -1.3720   23.1060  -30.1500 C   0  0  0  0  0  0  0  0  0  0  0  0
   -1.0700   24.4280  -29.7180 O   0  0  0  0  0  0  0  0  0  0  0  0
   -1.0280   24.7940  -28.3680 C   0  0  0  0  0  0  0  0  0  0  0  0
   -0.0140   25.3810  -27.9000 O   0  0  0  0  0  0  0  0  0  0  0  0
   -2.1980   24.4630  -27.4730 C   0  0  0  0  0  0  0  0  0  0  0  0
   -2.2440   25.4760  -26.3160 C   0  0  0  0  0  0  0  0  0  0  0  0
   -2.0260   23.0340  -26.9270 C   0  0  0  0  0  0  0  0  0  0  0  0
   -3.3880   24.5430  -28.2230 O   0  0  0  0  0  0  0  0  0  0  0  0
   -5.8690   21.5780  -31.3860 C   0  0  0  0  0  0  0  0  0  0  0  0
   -5.6650   20.2050  -31.5650 C   0  0  0  0  0  0  0  0  0  0  0  0
   -6.3537   17.6285  -30.2666 H   0  0  0  0  0  0  0  0  0  0  0  0
   -6.6440   16.1750  -31.2814 H   0  0  0  0  0  0  0  0  0  0  0  0
   -5.0296   16.9626  -31.2814 H   0  0  0  0  0  0  0  0  0  0  0  0
   -7.1918   16.3787  -33.5100 H   0  0  0  0  0  0  0  0  0  0  0  0
   -7.5003   18.0057  -34.2059 H   0  0  0  0  0  0  0  0  0  0  0  0
   -5.8361   17.3297  -34.2059 H   0  0  0  0  0  0  0  0  0  0  0  0
   -8.7263   19.4823  -32.9634 H   0  0  0  0  0  0  0  0  0  0  0  0
   -9.0107   21.9577  -32.6527 H   0  0  0  0  0  0  0  0  0  0  0  0
   -7.6762   24.3047  -31.7153 H   0  0  0  0  0  0  0  0  0  0  0  0
   -3.0200   25.1950  -30.3020 H   0  0  0  0  0  0  0  0  0  0  0  0
   -1.4012   22.4341  -29.2796 H   0  0  0  0  0  0  0  0  0  0  0  0
   -0.5971   22.7651  -30.8523 H   0  0  0  0  0  0  0  0  0  0  0  0
   -2.2196   24.9383  -25.3567 H   0  0  0  0  0  0  0  0  0  0  0  0
   -1.3754   26.1477  -26.3820 H   0  0  0  0  0  0  0  0  0  0  0  0
   -3.1699   26.0663  -26.3820 H   0  0  0  0  0  0  0  0  0  0  0  0
   -2.0290   23.0588  -25.8273 H   0  0  0  0  0  0  0  0  0  0  0  0
   -2.8548   22.4037  -27.2818 H   0  0  0  0  0  0  0  0  0  0  0  0
   -1.0713   22.6184  -27.2818 H   0  0  0  0  0  0  0  0  0  0  0  0
   -3.1560   24.4300  -29.1820 H   0  0  0  0  0  0  0  0  0  0  0  0
   -4.7156   19.7370  -31.2656 H   0  0  0  0  0  0  0  0  0  0  0  0
  1  2  1  0
  2  3  1  0
  2  4  1  0
  4  5  2  0
  5  6  1  0
  6  7  2  0
  7  8  1  0
  8  9  2  0
  9 10  1  0
 10 11  1  0
 10 12  2  0
  9 13  1  0
 13 14  1  0
 14 15  2  0
 14 16  1  0
 16 17  1  0
 17 18  1  0
 18 19  1  0
 19 20  2  0
 19 21  1  0
 21 22  1  0
 21 23  1  0
 21 24  1  0
 13 25  1  0
 25 26  2  0
 26  4  1  0
 25  7  1  0
  1 27  1  0
  1 28  1  0
  1 29  1  0
  3 30  1  0
  3 31  1  0
  3 32  1  0
  5 33  1  0
  6 34  1  0
  8 35  1  0
 11 36  1  0
 17 37  1  0
 17 38  1  0
 22 39  1  0
 22 40  1  0
 22 41  1  0
 23 42  1  0
 23 43  1  0
 23 44  1  0
 24 45  1  0
 26 46  1  0
M  CHG  1  11  -1
M  END
>  <UniqueID>  (53) 
53

>  <SMILES>  (53) 
CN(C)c1ccc2cc(C([NH-])=O)n(C(=O)OCOC(=O)C(C)(C)O)c2c1

>  <Energy>  (53) 
79.16363257573417

>  <Genealogy>  (53) 
CN(C)c1ccc2cc(C([NH-])=O)n(C(=O)OCOC(=O)C(C)(C)O)c2c1 (protonated)
CN(C)c1ccc2cc(C([NH-])=O)n(C(=O)OCOC(=O)C(C)(C)O)c2c1 (3D coordinates assigned)
CN(C)c1ccc2cc(C([NH-])=O)n(C(=O)OCOC(=O)C(C)(C)O)c2c1 (optimized conformer: 79.16363257573417 kcal/mol)

>  <smiles>  (53) 
CN(C)c1ccc2cc(C(N)=O)n(C(=O)OCOC(=O)C(C)(C)O)c2c1

>  <score_type>  (53) 
oracle

>  <origin>  (53) 
adg

>  <m_score__min__energy>  (53) 
-10.630000000000001

>  <m_primary>  (53) 
energy

$$$$
53:0
     RDKit          3D

 34 35  0  0  0  0  0  0  0  0999 V2000
   -4.2410   25.6860  -30.8220 N   0  0  0  0  0  0  0  0  0  0  0  0
   -5.5510   25.1840  -30.5750 C   0  0  0  0  0  0  0  0  0  0  0  0
   -6.3570   25.8720  -29.8930 O   0  0  0  0  0  0  0  0  0  0  0  0
   -5.9560   23.8480  -31.0570 C   0  0  0  0  0  0  0  0  0  0  0  0
   -7.2810   23.4830  -31.2850 C   0  0  0  0  0  0  0  0  0  0  0  0
   -7.2400   22.1530  -31.6360 C   0  0  0  0  0  0  0  0  0  0  0  0
   -8.2720   21.2840  -31.9780 C   0  0  0  0  0  0  0  0  0  0  0  0
   -7.9350   19.9660  -32.3260 C   0  0  0  0  0  0  0  0  0  0  0  0
   -6.5800   19.5470  -32.3420 C   0  0  0  0  0  0  0  0  0  0  0  0
   -6.2350   18.1270  -32.6990 C   0  0  0  0  0  0  0  0  0  0  0  0
   -5.5690   18.0780  -34.0390 C   0  0  0  0  0  0  0  0  0  0  0  0
   -6.1280   18.7770  -35.1510 N   0  0  0  0  0  0  0  0  0  0  0  0
   -4.4900   17.4430  -34.1800 O   0  0  0  0  0  0  0  0  0  0  0  0
   -5.5610   20.4540  -31.9790 C   0  0  0  0  0  0  0  0  0  0  0  0
   -5.9270   21.7570  -31.6200 C   0  0  0  0  0  0  0  0  0  0  0  0
   -5.1260   22.7870  -31.2670 N   0  0  0  0  0  0  0  0  0  0  0  0
   -3.6910   22.7780  -31.2300 C   0  0  0  0  0  0  0  0  0  0  0  0
   -3.0430   22.0730  -32.0530 O   0  0  0  0  0  0  0  0  0  0  0  0
   -3.0170   23.5710  -30.2970 O   0  0  0  0  0  0  0  0  0  0  0  0
   -1.7970   23.1700  -29.6820 C   0  0  0  0  0  0  0  0  0  0  0  0
   -1.0030   24.3790  -29.3110 C   0  0  0  0  0  0  0  0  0  0  0  0
    0.1830   24.2530  -28.9070 O   0  0  0  0  0  0  0  0  0  0  0  0
   -1.5890   25.6390  -29.3450 O   0  0  0  0  0  0  0  0  0  0  0  0
   -3.5110   25.6740  -30.0760 H   0  0  0  0  0  0  0  0  0  0  0  0
   -8.1719   24.1228  -31.2020 H   0  0  0  0  0  0  0  0  0  0  0  0
   -9.3196   21.6194  -31.9758 H   0  0  0  0  0  0  0  0  0  0  0  0
   -8.7293   19.2518  -32.5887 H   0  0  0  0  0  0  0  0  0  0  0  0
   -5.5535   17.7167  -31.9393 H   0  0  0  0  0  0  0  0  0  0  0  0
   -7.1591   17.5314  -32.7355 H   0  0  0  0  0  0  0  0  0  0  0  0
   -5.6580   18.7480  -36.0830 H   0  0  0  0  0  0  0  0  0  0  0  0
   -7.0130   19.3220  -35.0470 H   0  0  0  0  0  0  0  0  0  0  0  0
   -4.5054   20.1447  -31.9782 H   0  0  0  0  0  0  0  0  0  0  0  0
   -2.0180   22.5851  -28.7770 H   0  0  0  0  0  0  0  0  0  0  0  0
   -1.2179   22.5540  -30.3857 H   0  0  0  0  0  0  0  0  0  0  0  0
  1  2  1  0
  2  3  2  0
  2  4  1  0
  4  5  2  0
  5  6  1  0
  6  7  2  0
  7  8  1  0
  8  9  2  0
  9 10  1  0
 10 11  1  0
 11 12  1  0
 11 13  2  0
  9 14  1  0
 14 15  2  0
 15 16  1  0
 16 17  1  0
 17 18  2  0
 17 19  1  0
 19 20  1  0
 20 21  1  0
 21 22  2  0
 21 23  1  0
 16  4  1  0
 15  6  1  0
  1 24  1  0
  5 25  1  0
  7 26  1  0
  8 27  1  0
 10 28  1  0
 10 29  1  0
 12 30  1  0
 12 31  1  0
 14 32  1  0
 20 33  1  0
 20 34  1  0
M  CHG  2   1  -1  23  -1
M  END
>  <UniqueID>  (54) 
54

>  <SMILES>  (54) 
[NH-]C(=O)c1cc2ccc(CC(N)=O)cc2n1C(=O)OCC(=O)[O-]

>  <Energy>  (54) 
67.08879929182719

>  <Genealogy>  (54) 
[NH-]C(=O)c1cc2ccc(CC(N)=O)cc2n1C(=O)OCC(=O)[O-] (protonated)
[NH-]C(=O)c1cc2ccc(CC(N)=O)cc2n1C(=O)OCC(=O)[O-] (3D coordinates assigned)
[NH-]C(=O)c1cc2ccc(CC(N)=O)cc2n1C(=O)OCC(=O)[O-] (optimized conformer: 67.08879929182719 kcal/mol)

>  <smiles>  (54) 
NC(=O)Cc1ccc2cc(C(N)=O)n(C(=O)OCC(=O)O)c2c1

>  <score_type>  (54) 
oracle

>  <origin>  (54) 
adg

>  <m_score__min__energy>  (54) 
-12.31

>  <m_primary>  (54) 
energy

$$$$
54:0
     RDKit          3D

 49 50  0  0  0  0  0  0  0  0999 V2000
   -5.4050   25.9190  -30.5120 C   0  0  0  0  0  0  0  0  0  0  0  0
   -4.3370   25.0180  -30.7840 O   0  0  0  0  0  0  0  0  0  0  0  0
   -4.0650   23.9050  -29.9830 C   0  0  0  0  0  0  0  0  0  0  0  0
   -4.8330   23.6090  -29.0250 O   0  0  0  0  0  0  0  0  0  0  0  0
   -2.9090   23.0920  -30.2540 N   0  0  0  0  0  0  0  0  0  0  0  0
   -1.6060   23.3540  -29.9500 C   0  0  0  0  0  0  0  0  0  0  0  0
   -1.1130   24.4830  -29.1340 C   0  0  0  0  0  0  0  0  0  0  0  0
   -1.9220   25.6470  -28.9740 N   0  0  0  0  0  0  0  0  0  0  0  0
    0.0270   24.4470  -28.5990 O   0  0  0  0  0  0  0  0  0  0  0  0
   -0.7780   22.3520  -30.4530 C   0  0  0  0  0  0  0  0  0  0  0  0
   -1.6170   21.4590  -31.0740 C   0  0  0  0  0  0  0  0  0  0  0  0
   -1.3260   20.2800  -31.7570 C   0  0  0  0  0  0  0  0  0  0  0  0
   -2.3960   19.5670  -32.3230 C   0  0  0  0  0  0  0  0  0  0  0  0
   -3.7240   20.0420  -32.2070 C   0  0  0  0  0  0  0  0  0  0  0  0
   -4.8680   19.2480  -32.7850 C   0  0  0  0  0  0  0  0  0  0  0  0
   -5.6750   20.0760  -33.7890 C   0  0  0  0  0  0  0  0  0  0  0  0
   -6.8560   20.6680  -33.1610 N   0  0  0  0  0  0  0  0  0  0  0  0
   -7.8450   19.8810  -32.4800 C   0  0  0  0  0  0  0  0  0  0  0  0
   -7.6700   18.6410  -32.3150 O   0  0  0  0  0  0  0  0  0  0  0  0
   -9.0980   20.5210  -31.9550 C   0  0  0  0  0  0  0  0  0  0  0  0
   -8.9280   22.0360  -31.7750 C   0  0  0  0  0  0  0  0  0  0  0  0
   -7.5680   22.3760  -31.3020 N   0  0  0  0  0  0  0  0  0  0  0  0
   -7.5860   22.6480  -29.8530 C   0  0  0  0  0  0  0  0  0  0  0  0
   -7.0330   23.5550  -32.0090 C   0  0  0  0  0  0  0  0  0  0  0  0
   -3.9800   21.2420  -31.5050 C   0  0  0  0  0  0  0  0  0  0  0  0
   -2.8980   21.9270  -30.9390 C   0  0  0  0  0  0  0  0  0  0  0  0
   -5.5286   26.0233  -29.4240 H   0  0  0  0  0  0  0  0  0  0  0  0
   -5.1767   26.9015  -30.9509 H   0  0  0  0  0  0  0  0  0  0  0  0
   -6.3350   25.5285  -30.9509 H   0  0  0  0  0  0  0  0  0  0  0  0
   -2.9120   25.6620  -29.3120 H   0  0  0  0  0  0  0  0  0  0  0  0
    0.3171   22.2894  -30.3701 H   0  0  0  0  0  0  0  0  0  0  0  0
   -0.2912   19.9189  -31.8501 H   0  0  0  0  0  0  0  0  0  0  0  0
   -2.1993   18.6288  -32.8625 H   0  0  0  0  0  0  0  0  0  0  0  0
   -4.4654   18.3606  -33.2953 H   0  0  0  0  0  0  0  0  0  0  0  0
   -5.5366   18.9565  -31.9616 H   0  0  0  0  0  0  0  0  0  0  0  0
   -5.0377   20.8808  -34.1842 H   0  0  0  0  0  0  0  0  0  0  0  0
   -6.0087   19.4110  -34.5992 H   0  0  0  0  0  0  0  0  0  0  0  0
   -7.0210   21.6920  -33.2830 H   0  0  0  0  0  0  0  0  0  0  0  0
   -9.9175   20.3359  -32.6650 H   0  0  0  0  0  0  0  0  0  0  0  0
   -9.3221   20.0814  -30.9719 H   0  0  0  0  0  0  0  0  0  0  0  0
   -9.1055   22.5329  -32.7402 H   0  0  0  0  0  0  0  0  0  0  0  0
   -9.6516   22.3775  -31.0202 H   0  0  0  0  0  0  0  0  0  0  0  0
   -7.5232   21.6987  -29.3009 H   0  0  0  0  0  0  0  0  0  0  0  0
   -6.7279   23.2834  -29.5885 H   0  0  0  0  0  0  0  0  0  0  0  0
   -8.5203   23.1648  -29.5885 H   0  0  0  0  0  0  0  0  0  0  0  0
   -6.6946   24.3007  -31.2745 H   0  0  0  0  0  0  0  0  0  0  0  0
   -6.1848   23.2506  -32.6398 H   0  0  0  0  0  0  0  0  0  0  0  0
   -7.8206   23.9929  -32.6398 H   0  0  0  0  0  0  0  0  0  0  0  0
   -5.0051   21.6285  -31.4058 H   0  0  0  0  0  0  0  0  0  0  0  0
  1  2  1  0
  2  3  1  0
  3  4  2  0
  3  5  1  0
  5  6  1  0
  6  7  1  0
  7  8  1  0
  7  9  2  0
  6 10  2  0
 10 11  1  0
 11 12  2  0
 12 13  1  0
 13 14  2  0
 14 15  1  0
 15 16  1  0
 16 17  1  0
 17 18  1  0
 18 19  2  0
 18 20  1  0
 20 21  1  0
 21 22  1  0
 22 23  1  0
 22 24  1  0
 14 25  1  0
 25 26  2  0
 26  5  1  0
 26 11  1  0
  1 27  1  0
  1 28  1  0
  1 29  1  0
  8 30  1  0
 10 31  1  0
 12 32  1  0
 13 33  1  0
 15 34  1  0
 15 35  1  0
 16 36  1  0
 16 37  1  0
 17 38  1  0
 20 39  1  0
 20 40  1  0
 21 41  1  0
 21 42  1  0
 23 43  1  0
 23 44  1  0
 23 45  1  0
 24 46  1  0
 24 47  1  0
 24 48  1  0
 25 49  1  0
M  CHG  1   8  -1
M  END
>  <UniqueID>  (55) 
55

>  <SMILES>  (55) 
COC(=O)n1c(C([NH-])=O)cc2ccc(CCNC(=O)CCN(C)C)cc21

>  <Energy>  (55) 
75.6240389127583

>  <Genealogy>  (55) 
COC(=O)n1c(C([NH-])=O)cc2ccc(CCNC(=O)CCN(C)C)cc21 (protonated)
COC(=O)n1c(C([NH-])=O)cc2ccc(CCNC(=O)CCN(C)C)cc21 (3D coordinates assigned)
COC(=O)n1c(C([NH-])=O)cc2ccc(CCNC(=O)CCN(C)C)cc21 (optimized conformer: 75.6240389127583 kcal/mol)

>  <smiles>  (55) 
COC(=O)n1c(C(N)=O)cc2ccc(CCNC(=O)CCN(C)C)cc21

>  <score_type>  (55) 
oracle

>  <origin>  (55) 
adg

>  <m_score__min__energy>  (55) 
-9.8599999999999994

>  <m_primary>  (55) 
energy

$$$$
55:0
     RDKit          3D

 34 35  0  0  0  0  0  0  0  0999 V2000
   -6.8320   16.8520  -33.5250 C   0  0  0  0  0  0  0  0  0  0  0  0
   -7.4270   17.7150  -32.5150 N   0  0  0  0  0  0  0  0  0  0  0  0
   -7.6380   19.1150  -32.7220 C   0  0  0  0  0  0  0  0  0  0  0  0
   -8.8060   19.5740  -32.8470 O   0  0  0  0  0  0  0  0  0  0  0  0
   -6.4610   20.0390  -32.7750 C   0  0  0  0  0  0  0  0  0  0  0  0
   -5.2420   19.3560  -32.3380 N   0  0  0  0  0  0  0  0  0  0  0  0
   -4.0470   20.0580  -31.9450 C   0  0  0  0  0  0  0  0  0  0  0  0
   -2.7540   19.5800  -32.2960 C   0  0  0  0  0  0  0  0  0  0  0  0
   -1.5980   20.2620  -31.8790 C   0  0  0  0  0  0  0  0  0  0  0  0
   -1.7590   21.4130  -31.1140 C   0  0  0  0  0  0  0  0  0  0  0  0
   -0.8180   22.2440  -30.5470 C   0  0  0  0  0  0  0  0  0  0  0  0
   -1.5460   23.2210  -29.8700 C   0  0  0  0  0  0  0  0  0  0  0  0
   -0.9320   24.3370  -29.1190 C   0  0  0  0  0  0  0  0  0  0  0  0
   -1.6140   25.5780  -28.9590 N   0  0  0  0  0  0  0  0  0  0  0  0
    0.2190   24.1980  -28.6260 O   0  0  0  0  0  0  0  0  0  0  0  0
   -2.8830   23.0020  -30.0220 N   0  0  0  0  0  0  0  0  0  0  0  0
   -3.9700   23.7480  -29.4600 C   0  0  0  0  0  0  0  0  0  0  0  0
   -4.3550   23.5000  -28.2860 O   0  0  0  0  0  0  0  0  0  0  0  0
   -4.6240   24.8120  -30.2340 C   0  0  0  0  0  0  0  0  0  0  0  0
   -3.9350   25.6600  -30.8590 O   0  0  0  0  0  0  0  0  0  0  0  0
   -6.0100   24.8900  -30.2760 O   0  0  0  0  0  0  0  0  0  0  0  0
   -2.9960   21.8930  -30.7790 C   0  0  0  0  0  0  0  0  0  0  0  0
   -4.1650   21.2390  -31.1780 C   0  0  0  0  0  0  0  0  0  0  0  0
   -6.2737   16.0422  -33.0326 H   0  0  0  0  0  0  0  0  0  0  0  0
   -7.6258   16.4210  -34.1528 H   0  0  0  0  0  0  0  0  0  0  0  0
   -6.1469   17.4406  -34.1528 H   0  0  0  0  0  0  0  0  0  0  0  0
   -6.3259   20.3916  -33.8082 H   0  0  0  0  0  0  0  0  0  0  0  0
   -6.6495   20.8880  -32.1015 H   0  0  0  0  0  0  0  0  0  0  0  0
   -5.2130   18.3100  -32.3550 H   0  0  0  0  0  0  0  0  0  0  0  0
   -2.6578   18.6662  -32.9007 H   0  0  0  0  0  0  0  0  0  0  0  0
   -0.5962   19.8968  -32.1493 H   0  0  0  0  0  0  0  0  0  0  0  0
    0.2764   22.1553  -30.6143 H   0  0  0  0  0  0  0  0  0  0  0  0
   -2.6340   25.6630  -29.1710 H   0  0  0  0  0  0  0  0  0  0  0  0
   -5.1536   21.6343  -30.9015 H   0  0  0  0  0  0  0  0  0  0  0  0
  1  2  1  0
  2  3  1  0
  3  4  2  0
  3  5  1  0
  5  6  1  0
  6  7  1  0
  7  8  2  0
  8  9  1  0
  9 10  2  0
 10 11  1  0
 11 12  2  0
 12 13  1  0
 13 14  1  0
 13 15  2  0
 12 16  1  0
 16 17  1  0
 17 18  2  0
 17 19  1  0
 19 20  2  0
 19 21  1  0
 16 22  1  0
 22 23  2  0
 23  7  1  0
 22 10  1  0
  1 24  1  0
  1 25  1  0
  1 26  1  0
  5 27  1  0
  5 28  1  0
  6 29  1  0
  8 30  1  0
  9 31  1  0
 11 32  1  0
 14 33  1  0
 23 34  1  0
M  CHG  3   2  -1  14  -1  21  -1
M  END
>  <UniqueID>  (56) 
56

>  <SMILES>  (56) 
C[N-]C(=O)CNc1ccc2cc(C([NH-])=O)n(C(=O)C(=O)[O-])c2c1

>  <Energy>  (56) 
70.65522241478696

>  <Genealogy>  (56) 
C[N-]C(=O)CNc1ccc2cc(C([NH-])=O)n(C(=O)C(=O)[O-])c2c1 (protonated)
C[N-]C(=O)CNc1ccc2cc(C([NH-])=O)n(C(=O)C(=O)[O-])c2c1 (3D coordinates assigned)
C[N-]C(=O)CNc1ccc2cc(C([NH-])=O)n(C(=O)C(=O)[O-])c2c1 (optimized conformer: 70.65522241478696 kcal/mol)

>  <smiles>  (56) 
CNC(=O)CNc1ccc2cc(C(N)=O)n(C(=O)C(=O)O)c2c1

>  <score_type>  (56) 
oracle

>  <origin>  (56) 
adg

>  <m_score__min__energy>  (56) 
-10.039999999999999

>  <m_primary>  (56) 
energy

$$$$
56:0
     RDKit          3D

 40 41  0  0  0  0  0  0  0  0999 V2000
   -4.3560   24.9100  -26.3350 C   0  0  0  0  0  0  0  0  0  0  0  0
   -3.7220   24.4370  -27.5790 N   0  0  0  0  0  0  0  0  0  0  0  0
   -2.2810   24.7410  -27.5850 C   0  0  0  0  0  0  0  0  0  0  0  0
   -4.0130   23.0080  -27.8640 C   0  0  0  0  0  0  0  0  0  0  0  0
   -2.8290   22.1930  -28.4350 C   0  0  0  0  0  0  0  0  0  0  0  0
   -3.3300   21.1190  -29.8310 S   0  0  0  0  0  0  0  0  0  0  0  0
   -3.8240   22.4700  -30.9050 C   0  0  0  0  0  0  0  0  0  0  0  0
   -2.9410   23.1200  -31.5250 O   0  0  0  0  0  0  0  0  0  0  0  0
   -5.2120   22.7760  -31.1070 N   0  0  0  0  0  0  0  0  0  0  0  0
   -5.8760   23.9170  -30.7740 C   0  0  0  0  0  0  0  0  0  0  0  0
   -5.2550   25.1680  -30.2930 C   0  0  0  0  0  0  0  0  0  0  0  0
   -3.8370   25.3090  -30.3100 N   0  0  0  0  0  0  0  0  0  0  0  0
   -5.9640   26.1030  -29.8370 O   0  0  0  0  0  0  0  0  0  0  0  0
   -7.2420   23.7720  -31.0080 C   0  0  0  0  0  0  0  0  0  0  0  0
   -7.3930   22.4960  -31.5030 C   0  0  0  0  0  0  0  0  0  0  0  0
   -8.5440   21.8050  -31.8660 C   0  0  0  0  0  0  0  0  0  0  0  0
   -8.4080   20.4730  -32.2890 C   0  0  0  0  0  0  0  0  0  0  0  0
   -7.1300   19.8570  -32.3520 C   0  0  0  0  0  0  0  0  0  0  0  0
   -7.0030   18.4070  -32.7420 C   0  0  0  0  0  0  0  0  0  0  0  0
   -6.1450   17.7440  -31.8810 F   0  0  0  0  0  0  0  0  0  0  0  0
   -8.2480   17.8110  -32.6830 F   0  0  0  0  0  0  0  0  0  0  0  0
   -6.5040   18.2870  -34.0260 F   0  0  0  0  0  0  0  0  0  0  0  0
   -5.9860   20.5870  -31.9520 C   0  0  0  0  0  0  0  0  0  0  0  0
   -6.1530   21.9170  -31.5530 C   0  0  0  0  0  0  0  0  0  0  0  0
   -3.8122   24.5043  -25.4691 H   0  0  0  0  0  0  0  0  0  0  0  0
   -4.3273   26.0092  -26.3038 H   0  0  0  0  0  0  0  0  0  0  0  0
   -5.4015   24.5694  -26.3038 H   0  0  0  0  0  0  0  0  0  0  0  0
   -4.1500   24.9870  -28.3610 H   0  0  0  0  0  0  0  0  0  0  0  0
   -1.9181   24.8176  -26.5494 H   0  0  0  0  0  0  0  0  0  0  0  0
   -1.7389   23.9374  -28.1050 H   0  0  0  0  0  0  0  0  0  0  0  0
   -2.1097   25.6951  -28.1050 H   0  0  0  0  0  0  0  0  0  0  0  0
   -4.3313   22.5322  -26.9247 H   0  0  0  0  0  0  0  0  0  0  0  0
   -4.7882   23.0054  -28.6444 H   0  0  0  0  0  0  0  0  0  0  0  0
   -2.0560   22.8920  -28.7868 H   0  0  0  0  0  0  0  0  0  0  0  0
   -2.4500   21.5441  -27.6317 H   0  0  0  0  0  0  0  0  0  0  0  0
   -3.3050   25.2790  -31.2070 H   0  0  0  0  0  0  0  0  0  0  0  0
   -8.0315   24.5180  -30.8343 H   0  0  0  0  0  0  0  0  0  0  0  0
   -9.5316   22.2876  -31.8230 H   0  0  0  0  0  0  0  0  0  0  0  0
   -9.3022   19.8997  -32.5750 H   0  0  0  0  0  0  0  0  0  0  0  0
   -4.9900   20.1201  -31.9548 H   0  0  0  0  0  0  0  0  0  0  0  0
  1  2  1  0
  2  3  1  0
  2  4  1  0
  4  5  1  0
  5  6  1  0
  6  7  1  0
  7  8  2  0
  7  9  1  0
  9 10  1  0
 10 11  1  0
 11 12  1  0
 11 13  2  0
 10 14  2  0
 14 15  1  0
 15 16  2  0
 16 17  1  0
 17 18  2  0
 18 19  1  0
 19 20  1  0
 19 21  1  0
 19 22  1  0
 18 23  1  0
 23 24  2  0
 24  9  1  0
 24 15  1  0
  1 25  1  0
  1 26  1  0
  1 27  1  0
  2 28  1  0
  3 29  1  0
  3 30  1  0
  3 31  1  0
  4 32  1  0
  4 33  1  0
  5 34  1  0
  5 35  1  0
 12 36  1  0
 14 37  1  0
 16 38  1  0
 17 39  1  0
 23 40  1  0
M  CHG  2   2   1  12  -1
M  END
>  <UniqueID>  (57) 
57

>  <SMILES>  (57) 
C[NH+](C)CCSC(=O)n1c(C([NH-])=O)cc2ccc(C(F)(F)F)cc21

>  <Energy>  (57) 
78.94790541544666

>  <Genealogy>  (57) 
C[NH+](C)CCSC(=O)n1c(C([NH-])=O)cc2ccc(C(F)(F)F)cc21 (protonated)
C[NH+](C)CCSC(=O)n1c(C([NH-])=O)cc2ccc(C(F)(F)F)cc21 (3D coordinates assigned)
C[NH+](C)CCSC(=O)n1c(C([NH-])=O)cc2ccc(C(F)(F)F)cc21 (optimized conformer: 78.94790541544666 kcal/mol)

>  <smiles>  (57) 
CN(C)CCSC(=O)n1c(C(N)=O)cc2ccc(C(F)(F)F)cc21

>  <score_type>  (57) 
oracle

>  <origin>  (57) 
adg

>  <m_score__min__energy>  (57) 
-9.4399999999999995

>  <m_primary>  (57) 
energy

$$$$
57:0
     RDKit          3D

 33 34  0  0  0  0  0  0  0  0999 V2000
   -3.9200   25.6720  -30.8410 N   0  0  0  0  0  0  0  0  0  0  0  0
   -5.2520   25.3320  -30.4660 C   0  0  0  0  0  0  0  0  0  0  0  0
   -5.9510   26.1730  -29.8410 O   0  0  0  0  0  0  0  0  0  0  0  0
   -5.8420   24.0320  -30.8480 C   0  0  0  0  0  0  0  0  0  0  0  0
   -7.1890   23.8640  -31.1670 C   0  0  0  0  0  0  0  0  0  0  0  0
   -7.3110   22.5490  -31.5510 C   0  0  0  0  0  0  0  0  0  0  0  0
   -8.4360   21.8360  -31.9530 C   0  0  0  0  0  0  0  0  0  0  0  0
   -8.2800   20.4750  -32.2600 C   0  0  0  0  0  0  0  0  0  0  0  0
   -7.0070   19.8530  -32.1710 C   0  0  0  0  0  0  0  0  0  0  0  0
   -6.8630   18.3760  -32.4420 C   0  0  0  0  0  0  0  0  0  0  0  0
   -6.0100   17.8230  -31.5060 F   0  0  0  0  0  0  0  0  0  0  0  0
   -8.0920   17.7430  -32.3630 F   0  0  0  0  0  0  0  0  0  0  0  0
   -6.3460   18.1600  -33.7070 F   0  0  0  0  0  0  0  0  0  0  0  0
   -5.8930   20.6070  -31.7350 C   0  0  0  0  0  0  0  0  0  0  0  0
   -6.0750   21.9660  -31.4560 C   0  0  0  0  0  0  0  0  0  0  0  0
   -5.1620   22.8620  -31.0190 N   0  0  0  0  0  0  0  0  0  0  0  0
   -3.7830   22.5930  -30.7260 C   0  0  0  0  0  0  0  0  0  0  0  0
   -2.8890   22.9230  -31.5530 O   0  0  0  0  0  0  0  0  0  0  0  0
   -3.4360   21.9900  -29.5110 O   0  0  0  0  0  0  0  0  0  0  0  0
   -3.8870   22.4630  -28.2440 C   0  0  0  0  0  0  0  0  0  0  0  0
   -2.9840   23.5980  -27.7420 C   0  0  0  0  0  0  0  0  0  0  0  0
   -2.7470   24.5900  -28.7870 N   0  0  0  0  0  0  0  0  0  0  0  0
   -3.1590   24.9570  -30.8260 H   0  0  0  0  0  0  0  0  0  0  0  0
   -7.9848   24.6220  -31.1213 H   0  0  0  0  0  0  0  0  0  0  0  0
   -9.4188   22.3243  -32.0281 H   0  0  0  0  0  0  0  0  0  0  0  0
   -9.1535   19.8842  -32.5729 H   0  0  0  0  0  0  0  0  0  0  0  0
   -4.9059   20.1359  -31.6179 H   0  0  0  0  0  0  0  0  0  0  0  0
   -4.9170   22.8364  -28.3426 H   0  0  0  0  0  0  0  0  0  0  0  0
   -3.8519   21.6342  -27.5216 H   0  0  0  0  0  0  0  0  0  0  0  0
   -3.4687   24.0890  -26.8853 H   0  0  0  0  0  0  0  0  0  0  0  0
   -2.0160   23.1666  -27.4473 H   0  0  0  0  0  0  0  0  0  0  0  0
   -2.8020   24.1180  -29.7200 H   0  0  0  0  0  0  0  0  0  0  0  0
   -3.5050   25.3090  -28.7490 H   0  0  0  0  0  0  0  0  0  0  0  0
  1  2  1  0
  2  3  2  0
  2  4  1  0
  4  5  2  0
  5  6  1  0
  6  7  2  0
  7  8  1  0
  8  9  2  0
  9 10  1  0
 10 11  1  0
 10 12  1  0
 10 13  1  0
  9 14  1  0
 14 15  2  0
 15 16  1  0
 16 17  1  0
 17 18  2  0
 17 19  1  0
 19 20  1  0
 20 21  1  0
 21 22  1  0
 16  4  1  0
 15  6  1  0
  1 23  1  0
  5 24  1  0
  7 25  1  0
  8 26  1  0
 14 27  1  0
 20 28  1  0
 20 29  1  0
 21 30  1  0
 21 31  1  0
 22 32  1  0
 22 33  1  0
M  CHG  1   1  -1
M  END
>  <UniqueID>  (58) 
58

>  <SMILES>  (58) 
[NH-]C(=O)c1cc2ccc(C(F)(F)F)cc2n1C(=O)OCCN

>  <Energy>  (58) 
68.82485163772927

>  <Genealogy>  (58) 
[NH-]C(=O)c1cc2ccc(C(F)(F)F)cc2n1C(=O)OCCN (protonated)
[NH-]C(=O)c1cc2ccc(C(F)(F)F)cc2n1C(=O)OCCN (3D coordinates assigned)
[NH-]C(=O)c1cc2ccc(C(F)(F)F)cc2n1C(=O)OCCN (optimized conformer: 68.82485163772927 kcal/mol)

>  <smiles>  (58) 
NCCOC(=O)n1c(C(N)=O)cc2ccc(C(F)(F)F)cc21

>  <score_type>  (58) 
oracle

>  <origin>  (58) 
adg

>  <m_score__min__energy>  (58) 
-9.3800000000000008

>  <m_primary>  (58) 
energy

$$$$
58:0
     RDKit          3D

 38 39  0  0  0  0  0  0  0  0999 V2000
   -5.7100   18.9460  -31.6180 C   0  0  0  0  0  0  0  0  0  0  0  0
   -6.0760   19.7540  -32.8880 C   0  0  0  0  0  0  0  0  0  0  0  0
   -6.8800   21.0140  -32.4760 C   0  0  0  0  0  0  0  0  0  0  0  0
   -4.7700   20.1840  -33.6340 C   0  0  0  0  0  0  0  0  0  0  0  0
   -3.6670   20.7270  -32.7510 C   0  0  0  0  0  0  0  0  0  0  0  0
   -2.4270   20.0430  -32.6570 C   0  0  0  0  0  0  0  0  0  0  0  0
   -1.4000   20.5310  -31.8330 C   0  0  0  0  0  0  0  0  0  0  0  0
   -1.6320   21.7100  -31.1300 C   0  0  0  0  0  0  0  0  0  0  0  0
   -0.8230   22.3850  -30.2460 C   0  0  0  0  0  0  0  0  0  0  0  0
   -1.5650   23.4920  -29.8380 C   0  0  0  0  0  0  0  0  0  0  0  0
   -1.0320   24.5410  -28.9450 C   0  0  0  0  0  0  0  0  0  0  0  0
   -1.6220   25.8380  -28.9050 N   0  0  0  0  0  0  0  0  0  0  0  0
   -0.0120   24.3060  -28.2450 O   0  0  0  0  0  0  0  0  0  0  0  0
   -2.7890   23.4960  -30.4400 N   0  0  0  0  0  0  0  0  0  0  0  0
   -3.8760   24.4070  -30.2110 C   0  0  0  0  0  0  0  0  0  0  0  0
   -4.8370   24.0760  -29.4680 O   0  0  0  0  0  0  0  0  0  0  0  0
   -3.8640   25.6720  -30.7860 O   0  0  0  0  0  0  0  0  0  0  0  0
   -2.8110   22.4000  -31.2310 C   0  0  0  0  0  0  0  0  0  0  0  0
   -3.8590   21.9270  -32.0300 C   0  0  0  0  0  0  0  0  0  0  0  0
   -6.8700   18.9140  -33.8290 N   0  0  0  0  0  0  0  0  0  0  0  0
   -6.3250   17.6010  -34.0590 C   0  0  0  0  0  0  0  0  0  0  0  0
   -5.3770   17.4370  -34.8720 O   0  0  0  0  0  0  0  0  0  0  0  0
   -6.8560   16.4980  -33.3980 O   0  0  0  0  0  0  0  0  0  0  0  0
   -5.9742   19.5292  -30.7236 H   0  0  0  0  0  0  0  0  0  0  0  0
   -6.2661   17.9969  -31.6143 H   0  0  0  0  0  0  0  0  0  0  0  0
   -4.6298   18.7381  -31.6143 H   0  0  0  0  0  0  0  0  0  0  0  0
   -6.9219   21.0797  -31.3788 H   0  0  0  0  0  0  0  0  0  0  0  0
   -6.3871   21.9113  -32.8785 H   0  0  0  0  0  0  0  0  0  0  0  0
   -7.9014   20.9450  -32.8785 H   0  0  0  0  0  0  0  0  0  0  0  0
   -4.3774   19.3045  -34.1654 H   0  0  0  0  0  0  0  0  0  0  0  0
   -5.0594   21.0101  -34.3002 H   0  0  0  0  0  0  0  0  0  0  0  0
   -2.2688   19.1210  -33.2357 H   0  0  0  0  0  0  0  0  0  0  0  0
   -0.4417   19.9981  -31.7457 H   0  0  0  0  0  0  0  0  0  0  0  0
    0.1936   22.1097  -29.9285 H   0  0  0  0  0  0  0  0  0  0  0  0
   -2.6570   25.9580  -28.9640 H   0  0  0  0  0  0  0  0  0  0  0  0
   -4.8096   22.4767  -32.0949 H   0  0  0  0  0  0  0  0  0  0  0  0
   -6.9530   19.3990  -34.7540 H   0  0  0  0  0  0  0  0  0  0  0  0
   -7.8420   18.7940  -33.4580 H   0  0  0  0  0  0  0  0  0  0  0  0
  1  2  1  0
  2  3  1  0
  2  4  1  0
  4  5  1  0
  5  6  2  0
  6  7  1  0
  7  8  2  0
  8  9  1  0
  9 10  2  0
 10 11  1  0
 11 12  1  0
 11 13  2  0
 10 14  1  0
 14 15  1  0
 15 16  2  0
 15 17  1  0
 14 18  1  0
 18 19  2  0
  2 20  1  0
 20 21  1  0
 21 22  2  0
 21 23  1  0
 19  5  1  0
 18  8  1  0
  1 24  1  0
  1 25  1  0
  1 26  1  0
  3 27  1  0
  3 28  1  0
  3 29  1  0
  4 30  1  0
  4 31  1  0
  6 32  1  0
  7 33  1  0
  9 34  1  0
 12 35  1  0
 19 36  1  0
 20 37  1  0
 20 38  1  0
M  CHG  4  12  -1  17  -1  20   1  23  -1
M  END
>  <UniqueID>  (59) 
59

>  <SMILES>  (59) 
CC(C)(Cc1ccc2cc(C([NH-])=O)n(C(=O)[O-])c2c1)[NH2+]C(=O)[O-]

>  <Energy>  (59) 
80.55374109120106

>  <Genealogy>  (59) 
CC(C)(Cc1ccc2cc(C([NH-])=O)n(C(=O)[O-])c2c1)[NH2+]C(=O)[O-] (protonated)
CC(C)(Cc1ccc2cc(C([NH-])=O)n(C(=O)[O-])c2c1)[NH2+]C(=O)[O-] (3D coordinates assigned)
CC(C)(Cc1ccc2cc(C([NH-])=O)n(C(=O)[O-])c2c1)[NH2+]C(=O)[O-] (optimized conformer: 80.55374109120106 kcal/mol)

>  <smiles>  (59) 
CC(C)(Cc1ccc2cc(C(N)=O)n(C(=O)O)c2c1)NC(=O)O

>  <score_type>  (59) 
oracle

>  <origin>  (59) 
adg

>  <m_score__min__energy>  (59) 
-11.44

>  <m_primary>  (59) 
energy

$$$$
59:0
     RDKit          3D

 30 32  0  0  0  0  0  0  0  0999 V2000
   -2.7650   22.4860  -29.7830 C   0  0  0  0  0  0  0  0  0  0  0  0
   -3.5620   23.6350  -30.3090 C   0  0  0  0  0  0  0  0  0  0  0  0
   -3.2660   24.9230  -30.0620 N   0  0  0  0  0  0  0  0  0  0  0  0
   -4.2040   25.6510  -30.6500 N   0  0  0  0  0  0  0  0  0  0  0  0
   -5.0920   24.8870  -31.2680 N   0  0  0  0  0  0  0  0  0  0  0  0
   -4.7100   23.6100  -31.0850 C   0  0  0  0  0  0  0  0  0  0  0  0
   -5.4550   22.4460  -31.6120 C   0  0  0  0  0  0  0  0  0  0  0  0
   -6.8690   22.3710  -31.5130 C   0  0  0  0  0  0  0  0  0  0  0  0
   -7.5640   21.2490  -31.9930 C   0  0  0  0  0  0  0  0  0  0  0  0
   -6.8260   20.2190  -32.5650 C   0  0  0  0  0  0  0  0  0  0  0  0
   -7.2420   19.0090  -33.0700 C   0  0  0  0  0  0  0  0  0  0  0  0
   -6.0810   18.3650  -33.4870 C   0  0  0  0  0  0  0  0  0  0  0  0
   -6.0790   17.0470  -34.1510 C   0  0  0  0  0  0  0  0  0  0  0  0
   -4.9270   16.5730  -34.8490 N   0  0  0  0  0  0  0  0  0  0  0  0
   -7.1290   16.3520  -34.1510 O   0  0  0  0  0  0  0  0  0  0  0  0
   -4.9850   19.1380  -33.2370 N   0  0  0  0  0  0  0  0  0  0  0  0
   -3.6040   18.7780  -33.4170 C   0  0  0  0  0  0  0  0  0  0  0  0
   -2.8230   18.7430  -32.4300 O   0  0  0  0  0  0  0  0  0  0  0  0
   -3.1160   18.4680  -34.6790 O   0  0  0  0  0  0  0  0  0  0  0  0
   -5.4600   20.2720  -32.6740 C   0  0  0  0  0  0  0  0  0  0  0  0
   -4.7400   21.3690  -32.1830 C   0  0  0  0  0  0  0  0  0  0  0  0
   -2.7775   22.5040  -28.6832 H   0  0  0  0  0  0  0  0  0  0  0  0
   -3.2033   21.5421  -30.1393 H   0  0  0  0  0  0  0  0  0  0  0  0
   -1.7274   22.5659  -30.1393 H   0  0  0  0  0  0  0  0  0  0  0  0
   -7.4268   23.2012  -31.0551 H   0  0  0  0  0  0  0  0  0  0  0  0
   -8.6597   21.1870  -31.9186 H   0  0  0  0  0  0  0  0  0  0  0  0
   -8.2731   18.6309  -33.1312 H   0  0  0  0  0  0  0  0  0  0  0  0
   -4.1030   17.1930  -35.0140 H   0  0  0  0  0  0  0  0  0  0  0  0
   -4.9300   15.6220  -35.2810 H   0  0  0  0  0  0  0  0  0  0  0  0
   -3.6417   21.3915  -32.2407 H   0  0  0  0  0  0  0  0  0  0  0  0
  1  2  1  0
  2  3  2  0
  3  4  1  0
  4  5  1  0
  5  6  2  0
  6  7  1  0
  7  8  2  0
  8  9  1  0
  9 10  2  0
 10 11  1  0
 11 12  2  0
 12 13  1  0
 13 14  1  0
 13 15  2  0
 12 16  1  0
 16 17  1  0
 17 18  2  0
 17 19  1  0
 16 20  1  0
 20 21  2  0
  6  2  1  0
 21  7  1  0
 20 10  1  0
  1 22  1  0
  1 23  1  0
  1 24  1  0
  8 25  1  0
  9 26  1  0
 11 27  1  0
 14 28  1  0
 14 29  1  0
 21 30  1  0
M  CHG  2   4  -1  19  -1
M  END
>  <UniqueID>  (60) 
60

>  <SMILES>  (60) 
Cc1n[n-]nc1-c1ccc2cc(C(N)=O)n(C(=O)[O-])c2c1

>  <Energy>  (60) 
110.03208712982332

>  <Genealogy>  (60) 
Cc1n[n-]nc1-c1ccc2cc(C(N)=O)n(C(=O)[O-])c2c1 (protonated)
Cc1n[n-]nc1-c1ccc2cc(C(N)=O)n(C(=O)[O-])c2c1 (3D coordinates assigned)
Cc1n[n-]nc1-c1ccc2cc(C(N)=O)n(C(=O)[O-])c2c1 (optimized conformer: 110.03208712982332 kcal/mol)

>  <smiles>  (60) 
Cc1n[nH]nc1-c1ccc2cc(C(N)=O)n(C(=O)O)c2c1

>  <score_type>  (60) 
oracle

>  <origin>  (60) 
adg

>  <m_score__min__energy>  (60) 
-9.3399999999999999

>  <m_primary>  (60) 
energy

$$$$
60:0
     RDKit          3D

 34 35  0  0  0  0  0  0  0  0999 V2000
   -3.9580   25.6610  -30.8370 N   0  0  0  0  0  0  0  0  0  0  0  0
   -5.1560   25.0390  -30.3790 C   0  0  0  0  0  0  0  0  0  0  0  0
   -5.9460   25.6890  -29.6430 O   0  0  0  0  0  0  0  0  0  0  0  0
   -5.5100   23.6680  -30.8010 C   0  0  0  0  0  0  0  0  0  0  0  0
   -6.8220   23.2450  -31.0040 C   0  0  0  0  0  0  0  0  0  0  0  0
   -6.7210   21.9550  -31.4700 C   0  0  0  0  0  0  0  0  0  0  0  0
   -7.7190   21.0530  -31.8290 C   0  0  0  0  0  0  0  0  0  0  0  0
   -7.3270   19.7720  -32.2530 C   0  0  0  0  0  0  0  0  0  0  0  0
   -5.9560   19.4130  -32.2930 C   0  0  0  0  0  0  0  0  0  0  0  0
   -5.5490   18.0470  -32.7680 C   0  0  0  0  0  0  0  0  0  0  0  0
   -6.0740   17.8050  -34.1460 C   0  0  0  0  0  0  0  0  0  0  0  0
   -5.7940   18.6010  -35.0810 O   0  0  0  0  0  0  0  0  0  0  0  0
   -6.8350   16.6720  -34.4110 O   0  0  0  0  0  0  0  0  0  0  0  0
   -4.9710   20.3590  -31.9320 C   0  0  0  0  0  0  0  0  0  0  0  0
   -5.3890   21.6340  -31.5320 C   0  0  0  0  0  0  0  0  0  0  0  0
   -4.6310   22.6770  -31.1220 N   0  0  0  0  0  0  0  0  0  0  0  0
   -3.2050   22.6840  -30.9590 C   0  0  0  0  0  0  0  0  0  0  0  0
   -2.4940   21.8560  -31.5910 O   0  0  0  0  0  0  0  0  0  0  0  0
   -2.6120   23.5970  -30.0830 O   0  0  0  0  0  0  0  0  0  0  0  0
   -2.8080   23.5540  -28.6740 C   0  0  0  0  0  0  0  0  0  0  0  0
   -2.2890   24.8390  -28.0390 C   0  0  0  0  0  0  0  0  0  0  0  0
   -1.6030   25.6130  -28.9870 O   0  0  0  0  0  0  0  0  0  0  0  0
   -3.0210   25.2850  -30.5700 H   0  0  0  0  0  0  0  0  0  0  0  0
   -7.7429   23.8206  -30.8288 H   0  0  0  0  0  0  0  0  0  0  0  0
   -8.7814   21.3344  -31.7822 H   0  0  0  0  0  0  0  0  0  0  0  0
   -8.0908   19.0410  -32.5567 H   0  0  0  0  0  0  0  0  0  0  0  0
   -4.4512   17.9779  -32.7796 H   0  0  0  0  0  0  0  0  0  0  0  0
   -5.9645   17.2902  -32.0864 H   0  0  0  0  0  0  0  0  0  0  0  0
   -3.9023   20.1004  -31.9643 H   0  0  0  0  0  0  0  0  0  0  0  0
   -3.8814   23.4480  -28.4580 H   0  0  0  0  0  0  0  0  0  0  0  0
   -2.2588   22.6966  -28.2578 H   0  0  0  0  0  0  0  0  0  0  0  0
   -3.1382   25.4171  -27.6457 H   0  0  0  0  0  0  0  0  0  0  0  0
   -1.5974   24.5791  -27.2240 H   0  0  0  0  0  0  0  0  0  0  0  0
   -2.1920   25.6740  -29.7840 H   0  0  0  0  0  0  0  0  0  0  0  0
  1  2  1  0
  2  3  2  0
  2  4  1  0
  4  5  2  0
  5  6  1  0
  6  7  2  0
  7  8  1  0
  8  9  2  0
  9 10  1  0
 10 11  1  0
 11 12  2  0
 11 13  1  0
  9 14  1  0
 14 15  2  0
 15 16  1  0
 16 17  1  0
 17 18  2  0
 17 19  1  0
 19 20  1  0
 20 21  1  0
 21 22  1  0
 16  4  1  0
 15  6  1  0
  1 23  1  0
  5 24  1  0
  7 25  1  0
  8 26  1  0
 10 27  1  0
 10 28  1  0
 14 29  1  0
 20 30  1  0
 20 31  1  0
 21 32  1  0
 21 33  1  0
 22 34  1  0
M  CHG  2   1  -1  13  -1
M  END
>  <UniqueID>  (61) 
61

>  <SMILES>  (61) 
[NH-]C(=O)c1cc2ccc(CC(=O)[O-])cc2n1C(=O)OCCO

>  <Energy>  (61) 
67.1313169150163

>  <Genealogy>  (61) 
[NH-]C(=O)c1cc2ccc(CC(=O)[O-])cc2n1C(=O)OCCO (protonated)
[NH-]C(=O)c1cc2ccc(CC(=O)[O-])cc2n1C(=O)OCCO (3D coordinates assigned)
[NH-]C(=O)c1cc2ccc(CC(=O)[O-])cc2n1C(=O)OCCO (optimized conformer: 67.1313169150163 kcal/mol)

>  <smiles>  (61) 
NC(=O)c1cc2ccc(CC(=O)O)cc2n1C(=O)OCCO

>  <score_type>  (61) 
oracle

>  <origin>  (61) 
adg

>  <m_score__min__energy>  (61) 
-10.06

>  <m_primary>  (61) 
energy

$$$$
61:0
     RDKit          3D

 37 38  0  0  0  0  0  0  0  0999 V2000
   -2.2920   20.3530  -31.3360 C   0  0  0  0  0  0  0  0  0  0  0  0
   -2.5870   20.8970  -32.7460 C   0  0  0  0  0  0  0  0  0  0  0  0
   -3.3870   19.8450  -33.5280 C   0  0  0  0  0  0  0  0  0  0  0  0
   -1.2750   21.1880  -33.5030 C   0  0  0  0  0  0  0  0  0  0  0  0
   -3.3980   22.0780  -32.6740 O   0  0  0  0  0  0  0  0  0  0  0  0
   -3.8150   22.7300  -31.5050 C   0  0  0  0  0  0  0  0  0  0  0  0
   -2.9770   23.1720  -30.6740 O   0  0  0  0  0  0  0  0  0  0  0  0
   -5.2180   22.9220  -31.2680 N   0  0  0  0  0  0  0  0  0  0  0  0
   -5.8560   24.0630  -30.8830 C   0  0  0  0  0  0  0  0  0  0  0  0
   -5.2070   25.3240  -30.4710 C   0  0  0  0  0  0  0  0  0  0  0  0
   -3.8690   25.6230  -30.8600 N   0  0  0  0  0  0  0  0  0  0  0  0
   -5.8260   26.1310  -29.7250 O   0  0  0  0  0  0  0  0  0  0  0  0
   -7.2350   23.8610  -30.8440 C   0  0  0  0  0  0  0  0  0  0  0  0
   -7.4220   22.5470  -31.2110 C   0  0  0  0  0  0  0  0  0  0  0  0
   -8.5960   21.8120  -31.3370 C   0  0  0  0  0  0  0  0  0  0  0  0
   -8.4940   20.4740  -31.7520 C   0  0  0  0  0  0  0  0  0  0  0  0
   -7.2310   19.9040  -32.0590 C   0  0  0  0  0  0  0  0  0  0  0  0
   -7.1310   18.4560  -32.4690 C   0  0  0  0  0  0  0  0  0  0  0  0
   -6.7210   18.3470  -33.7860 F   0  0  0  0  0  0  0  0  0  0  0  0
   -6.2130   17.8170  -31.6570 F   0  0  0  0  0  0  0  0  0  0  0  0
   -8.3570   17.8270  -32.3450 F   0  0  0  0  0  0  0  0  0  0  0  0
   -6.0590   20.6790  -31.8960 C   0  0  0  0  0  0  0  0  0  0  0  0
   -6.1900   22.0030  -31.4610 C   0  0  0  0  0  0  0  0  0  0  0  0
   -2.6745   21.0583  -30.5835 H   0  0  0  0  0  0  0  0  0  0  0  0
   -2.7849   19.3779  -31.2086 H   0  0  0  0  0  0  0  0  0  0  0  0
   -1.2059   20.2342  -31.2086 H   0  0  0  0  0  0  0  0  0  0  0  0
   -3.8977   19.1734  -32.8222 H   0  0  0  0  0  0  0  0  0  0  0  0
   -4.1331   20.3477  -34.1610 H   0  0  0  0  0  0  0  0  0  0  0  0
   -2.7033   19.2603  -34.1610 H   0  0  0  0  0  0  0  0  0  0  0  0
   -0.4662   21.3674  -32.7794 H   0  0  0  0  0  0  0  0  0  0  0  0
   -1.0171   20.3252  -34.1348 H   0  0  0  0  0  0  0  0  0  0  0  0
   -1.4060   22.0789  -34.1348 H   0  0  0  0  0  0  0  0  0  0  0  0
   -3.0570   25.2890  -30.2940 H   0  0  0  0  0  0  0  0  0  0  0  0
   -8.0092   24.5953  -30.5768 H   0  0  0  0  0  0  0  0  0  0  0  0
   -9.5744   22.2647  -31.1183 H   0  0  0  0  0  0  0  0  0  0  0  0
   -9.4032   19.8611  -31.8401 H   0  0  0  0  0  0  0  0  0  0  0  0
   -5.0676   20.2512  -32.1062 H   0  0  0  0  0  0  0  0  0  0  0  0
  1  2  1  0
  2  3  1  0
  2  4  1  0
  2  5  1  0
  5  6  1  0
  6  7  2  0
  6  8  1  0
  8  9  1  0
  9 10  1  0
 10 11  1  0
 10 12  2  0
  9 13  2  0
 13 14  1  0
 14 15  2  0
 15 16  1  0
 16 17  2  0
 17 18  1  0
 18 19  1  0
 18 20  1  0
 18 21  1  0
 17 22  1  0
 22 23  2  0
 23  8  1  0
 23 14  1  0
  1 24  1  0
  1 25  1  0
  1 26  1  0
  3 27  1  0
  3 28  1  0
  3 29  1  0
  4 30  1  0
  4 31  1  0
  4 32  1  0
 11 33  1  0
 13 34  1  0
 15 35  1  0
 16 36  1  0
 22 37  1  0
M  CHG  1  11  -1
M  END
>  <UniqueID>  (62) 
62

>  <SMILES>  (62) 
CC(C)(C)OC(=O)n1c(C([NH-])=O)cc2ccc(C(F)(F)F)cc21

>  <Energy>  (62) 
71.88827237168226

>  <Genealogy>  (62) 
CC(C)(C)OC(=O)n1c(C([NH-])=O)cc2ccc(C(F)(F)F)cc21 (protonated)
CC(C)(C)OC(=O)n1c(C([NH-])=O)cc2ccc(C(F)(F)F)cc21 (3D coordinates assigned)
CC(C)(C)OC(=O)n1c(C([NH-])=O)cc2ccc(C(F)(F)F)cc21 (optimized conformer: 71.88827237168226 kcal/mol)

>  <smiles>  (62) 
CC(C)(C)OC(=O)n1c(C(N)=O)cc2ccc(C(F)(F)F)cc21

>  <score_type>  (62) 
oracle

>  <origin>  (62) 
adg

>  <m_score__min__energy>  (62) 
-9.9900000000000002

>  <m_primary>  (62) 
energy

$$$$
62:0
     RDKit          3D

 41 43  0  0  0  0  0  0  0  0999 V2000
   -6.8880   14.6000  -34.2340 C   0  0  0  0  0  0  0  0  0  0  0  0
   -6.3420   15.9370  -34.0390 N   0  0  0  0  0  0  0  0  0  0  0  0
   -6.9300   16.9420  -33.3640 C   0  0  0  0  0  0  0  0  0  0  0  0
   -6.1350   18.0730  -33.4870 C   0  0  0  0  0  0  0  0  0  0  0  0
   -6.3850   19.4200  -32.9130 C   0  0  0  0  0  0  0  0  0  0  0  0
   -7.7020   19.9510  -32.8670 C   0  0  0  0  0  0  0  0  0  0  0  0
   -7.9460   21.2280  -32.3370 C   0  0  0  0  0  0  0  0  0  0  0  0
   -6.8630   21.9520  -31.8510 C   0  0  0  0  0  0  0  0  0  0  0  0
   -6.8160   23.2180  -31.3150 C   0  0  0  0  0  0  0  0  0  0  0  0
   -5.4750   23.4410  -31.0130 C   0  0  0  0  0  0  0  0  0  0  0  0
   -4.9920   24.6660  -30.3410 C   0  0  0  0  0  0  0  0  0  0  0  0
   -3.8650   25.3820  -30.8380 N   0  0  0  0  0  0  0  0  0  0  0  0
   -5.5540   25.0600  -29.2840 O   0  0  0  0  0  0  0  0  0  0  0  0
   -4.7200   22.3580  -31.3560 N   0  0  0  0  0  0  0  0  0  0  0  0
   -3.2910   22.2150  -31.2810 C   0  0  0  0  0  0  0  0  0  0  0  0
   -2.5970   22.2820  -32.3330 O   0  0  0  0  0  0  0  0  0  0  0  0
   -2.6830   21.9600  -30.0470 O   0  0  0  0  0  0  0  0  0  0  0  0
   -1.4950   22.6100  -29.5940 C   0  0  0  0  0  0  0  0  0  0  0  0
   -1.8110   23.6270  -28.4960 C   0  0  0  0  0  0  0  0  0  0  0  0
   -0.9580   24.8510  -28.6070 C   0  0  0  0  0  0  0  0  0  0  0  0
    0.2800   24.7840  -28.3900 O   0  0  0  0  0  0  0  0  0  0  0  0
   -1.5300   26.0660  -28.9660 O   0  0  0  0  0  0  0  0  0  0  0  0
   -5.5870   21.4540  -31.8670 C   0  0  0  0  0  0  0  0  0  0  0  0
   -5.3100   20.1930  -32.4090 C   0  0  0  0  0  0  0  0  0  0  0  0
   -5.0660   17.6740  -34.2790 C   0  0  0  0  0  0  0  0  0  0  0  0
   -5.2280   16.3770  -34.6000 N   0  0  0  0  0  0  0  0  0  0  0  0
   -7.0778   14.1351  -33.2553 H   0  0  0  0  0  0  0  0  0  0  0  0
   -7.8306   14.6674  -34.7969 H   0  0  0  0  0  0  0  0  0  0  0  0
   -6.1677   13.9883  -34.7969 H   0  0  0  0  0  0  0  0  0  0  0  0
   -7.8781   16.8780  -32.8099 H   0  0  0  0  0  0  0  0  0  0  0  0
   -8.5417   19.3536  -33.2518 H   0  0  0  0  0  0  0  0  0  0  0  0
   -8.9641   21.6435  -32.3071 H   0  0  0  0  0  0  0  0  0  0  0  0
   -7.6586   23.9076  -31.1583 H   0  0  0  0  0  0  0  0  0  0  0  0
   -2.9230   25.2740  -30.4000 H   0  0  0  0  0  0  0  0  0  0  0  0
   -0.8013   21.8548  -29.1960 H   0  0  0  0  0  0  0  0  0  0  0  0
   -1.0406   23.1412  -30.4433 H   0  0  0  0  0  0  0  0  0  0  0  0
   -2.8677   23.9214  -28.5774 H   0  0  0  0  0  0  0  0  0  0  0  0
   -1.6046   23.1547  -27.5242 H   0  0  0  0  0  0  0  0  0  0  0  0
   -4.2792   19.8105  -32.4428 H   0  0  0  0  0  0  0  0  0  0  0  0
   -4.2264   18.3121  -34.5919 H   0  0  0  0  0  0  0  0  0  0  0  0
   -4.5920   15.8070  -35.2010 H   0  0  0  0  0  0  0  0  0  0  0  0
  1  2  1  0
  2  3  1  0
  3  4  2  0
  4  5  1  0
  5  6  2  0
  6  7  1  0
  7  8  2  0
  8  9  1  0
  9 10  2  0
 10 11  1  0
 11 12  1  0
 11 13  2  0
 10 14  1  0
 14 15  1  0
 15 16  2  0
 15 17  1  0
 17 18  1  0
 18 19  1  0
 19 20  1  0
 20 21  2  0
 20 22  1  0
 14 23  1  0
 23 24  2  0
  4 25  1  0
 25 26  2  0
 26  2  1  0
 24  5  1  0
 23  8  1  0
  1 27  1  0
  1 28  1  0
  1 29  1  0
  3 30  1  0
  6 31  1  0
  7 32  1  0
  9 33  1  0
 12 34  1  0
 18 35  1  0
 18 36  1  0
 19 37  1  0
 19 38  1  0
 24 39  1  0
 25 40  1  0
 26 41  1  0
M  CHG  3  12  -1  22  -1  26   1
M  END
>  <UniqueID>  (63) 
63

>  <SMILES>  (63) 
Cn1cc(-c2ccc3cc(C([NH-])=O)n(C(=O)OCCC(=O)[O-])c3c2)c[nH+]1

>  <Energy>  (63) 
110.50171786289492

>  <Genealogy>  (63) 
Cn1cc(-c2ccc3cc(C([NH-])=O)n(C(=O)OCCC(=O)[O-])c3c2)c[nH+]1 (protonated)
Cn1cc(-c2ccc3cc(C([NH-])=O)n(C(=O)OCCC(=O)[O-])c3c2)c[nH+]1 (3D coordinates assigned)
Cn1cc(-c2ccc3cc(C([NH-])=O)n(C(=O)OCCC(=O)[O-])c3c2)c[nH+]1 (optimized conformer: 110.50171786289492 kcal/mol)

>  <smiles>  (63) 
Cn1cc(-c2ccc3cc(C(N)=O)n(C(=O)OCCC(=O)O)c3c2)cn1

>  <score_type>  (63) 
oracle

>  <origin>  (63) 
adg

>  <m_score__min__energy>  (63) 
-12.92

>  <m_primary>  (63) 
energy

$$$$
63:0
     RDKit          3D

 57 59  0  0  0  0  0  0  0  0999 V2000
   -1.8490   15.1660  -36.6160 C   0  0  0  0  0  0  0  0  0  0  0  0
   -2.0310   15.5450  -35.1330 C   0  0  0  0  0  0  0  0  0  0  0  0
   -0.8490   14.9850  -34.3280 C   0  0  0  0  0  0  0  0  0  0  0  0
   -2.0670   17.0760  -34.9640 C   0  0  0  0  0  0  0  0  0  0  0  0
   -3.2240   14.9490  -34.6020 O   0  0  0  0  0  0  0  0  0  0  0  0
   -3.8440   15.2690  -33.3830 C   0  0  0  0  0  0  0  0  0  0  0  0
   -3.4080   14.7940  -32.2990 O   0  0  0  0  0  0  0  0  0  0  0  0
   -4.9860   16.1450  -33.3690 N   0  0  0  0  0  0  0  0  0  0  0  0
   -5.4900   16.7360  -34.6190 C   0  0  0  0  0  0  0  0  0  0  0  0
   -5.8930   18.2020  -34.3970 C   0  0  0  0  0  0  0  0  0  0  0  0
   -6.6200   18.3840  -33.1320 N   0  0  0  0  0  0  0  0  0  0  0  0
   -6.8720   19.7140  -32.6460 C   0  0  0  0  0  0  0  0  0  0  0  0
   -8.1660   20.2810  -32.7530 C   0  0  0  0  0  0  0  0  0  0  0  0
   -8.4140   21.5920  -32.3110 C   0  0  0  0  0  0  0  0  0  0  0  0
   -7.3540   22.3070  -31.7620 C   0  0  0  0  0  0  0  0  0  0  0  0
   -7.3060   23.6050  -31.3040 C   0  0  0  0  0  0  0  0  0  0  0  0
   -5.9870   23.8030  -30.9030 C   0  0  0  0  0  0  0  0  0  0  0  0
   -5.5000   25.0580  -30.2960 C   0  0  0  0  0  0  0  0  0  0  0  0
   -4.1690   25.5240  -30.5240 N   0  0  0  0  0  0  0  0  0  0  0  0
   -6.2560   25.7030  -29.5210 O   0  0  0  0  0  0  0  0  0  0  0  0
   -5.2460   22.6790  -31.1130 N   0  0  0  0  0  0  0  0  0  0  0  0
   -3.8270   22.5200  -30.9410 C   0  0  0  0  0  0  0  0  0  0  0  0
   -3.1660   21.8400  -31.7710 O   0  0  0  0  0  0  0  0  0  0  0  0
   -3.1880   23.1150  -29.8460 O   0  0  0  0  0  0  0  0  0  0  0  0
   -1.7840   23.0330  -29.6210 C   0  0  0  0  0  0  0  0  0  0  0  0
   -1.2240   24.3810  -29.3000 C   0  0  0  0  0  0  0  0  0  0  0  0
   -1.9660   25.3980  -29.3260 O   0  0  0  0  0  0  0  0  0  0  0  0
    0.1170   24.5170  -28.9620 O   0  0  0  0  0  0  0  0  0  0  0  0
   -6.0980   21.7710  -31.6370 C   0  0  0  0  0  0  0  0  0  0  0  0
   -5.8200   20.4770  -32.0890 C   0  0  0  0  0  0  0  0  0  0  0  0
   -6.9650   17.2120  -32.3190 C   0  0  0  0  0  0  0  0  0  0  0  0
   -5.7170   16.3530  -32.1080 C   0  0  0  0  0  0  0  0  0  0  0  0
   -1.3738   14.1764  -36.6859 H   0  0  0  0  0  0  0  0  0  0  0  0
   -2.8313   15.1368  -37.1102 H   0  0  0  0  0  0  0  0  0  0  0  0
   -1.2120   15.9144  -37.1102 H   0  0  0  0  0  0  0  0  0  0  0  0
   -1.0581   15.0840  -33.2526 H   0  0  0  0  0  0  0  0  0  0  0  0
   -0.7057   13.9233  -34.5774 H   0  0  0  0  0  0  0  0  0  0  0  0
    0.0634   15.5466  -34.5774 H   0  0  0  0  0  0  0  0  0  0  0  0
   -2.0729   17.3266  -33.8929 H   0  0  0  0  0  0  0  0  0  0  0  0
   -1.1790   17.5183  -35.4392 H   0  0  0  0  0  0  0  0  0  0  0  0
   -2.9748   17.4761  -35.4392 H   0  0  0  0  0  0  0  0  0  0  0  0
   -4.7019   16.6892  -35.3850 H   0  0  0  0  0  0  0  0  0  0  0  0
   -6.3737   16.1702  -34.9490 H   0  0  0  0  0  0  0  0  0  0  0  0
   -4.9844   18.8218  -34.3776 H   0  0  0  0  0  0  0  0  0  0  0  0
   -6.5590   18.5013  -35.2197 H   0  0  0  0  0  0  0  0  0  0  0  0
   -8.9853   19.6889  -33.1866 H   0  0  0  0  0  0  0  0  0  0  0  0
   -9.4154   22.0391  -32.3965 H   0  0  0  0  0  0  0  0  0  0  0  0
   -8.1323   24.3299  -31.2636 H   0  0  0  0  0  0  0  0  0  0  0  0
   -3.4640   24.9270  -31.0120 H   0  0  0  0  0  0  0  0  0  0  0  0
   -3.8610   26.4400  -30.1300 H   0  0  0  0  0  0  0  0  0  0  0  0
   -1.5918   22.3517  -28.7791 H   0  0  0  0  0  0  0  0  0  0  0  0
   -1.2996   22.6555  -30.5336 H   0  0  0  0  0  0  0  0  0  0  0  0
   -4.8043   20.0616  -32.0128 H   0  0  0  0  0  0  0  0  0  0  0  0
   -7.3515   17.5431  -31.3438 H   0  0  0  0  0  0  0  0  0  0  0  0
   -7.7344   16.6202  -32.8365 H   0  0  0  0  0  0  0  0  0  0  0  0
   -5.0538   16.8565  -31.3892 H   0  0  0  0  0  0  0  0  0  0  0  0
   -6.0341   15.3711  -31.7267 H   0  0  0  0  0  0  0  0  0  0  0  0
  1  2  1  0
  2  3  1  0
  2  4  1  0
  2  5  1  0
  5  6  1  0
  6  7  2  0
  6  8  1  0
  8  9  1  0
  9 10  1  0
 10 11  1  0
 11 12  1  0
 12 13  2  0
 13 14  1  0
 14 15  2  0
 15 16  1  0
 16 17  2  0
 17 18  1  0
 18 19  1  0
 18 20  2  0
 17 21  1  0
 21 22  1  0
 22 23  2  0
 22 24  1  0
 24 25  1  0
 25 26  1  0
 26 27  2  0
 26 28  1  0
 21 29  1  0
 29 30  2  0
 11 31  1  0
 31 32  1  0
 32  8  1  0
 30 12  1  0
 29 15  1  0
  1 33  1  0
  1 34  1  0
  1 35  1  0
  3 36  1  0
  3 37  1  0
  3 38  1  0
  4 39  1  0
  4 40  1  0
  4 41  1  0
  9 42  1  0
  9 43  1  0
 10 44  1  0
 10 45  1  0
 13 46  1  0
 14 47  1  0
 16 48  1  0
 19 49  1  0
 19 50  1  0
 25 51  1  0
 25 52  1  0
 30 53  1  0
 31 54  1  0
 31 55  1  0
 32 56  1  0
 32 57  1  0
M  CHG  1  28  -1
M  END
>  <UniqueID>  (64) 
64

>  <SMILES>  (64) 
CC(C)(C)OC(=O)N1CCN(c2ccc3cc(C(N)=O)n(C(=O)OCC(=O)[O-])c3c2)CC1

>  <Energy>  (64) 
93.9287593339411

>  <Genealogy>  (64) 
CC(C)(C)OC(=O)N1CCN(c2ccc3cc(C(N)=O)n(C(=O)OCC(=O)[O-])c3c2)CC1 (protonated)
CC(C)(C)OC(=O)N1CCN(c2ccc3cc(C(N)=O)n(C(=O)OCC(=O)[O-])c3c2)CC1 (3D coordinates assigned)
CC(C)(C)OC(=O)N1CCN(c2ccc3cc(C(N)=O)n(C(=O)OCC(=O)[O-])c3c2)CC1 (nonaromatic ring conformer: 93.9287593339411 kcal/mol)

>  <smiles>  (64) 
CC(C)(C)OC(=O)N1CCN(c2ccc3cc(C(N)=O)n(C(=O)OCC(=O)O)c3c2)CC1

>  <score_type>  (64) 
oracle

>  <origin>  (64) 
adg

>  <m_score__min__energy>  (64) 
-11.630000000000001

>  <m_primary>  (64) 
energy

$$$$
64:0
     RDKit          3D

 43 44  0  0  0  0  0  0  0  0999 V2000
   -4.0260   18.5600  -33.3910 C   0  0  0  0  0  0  0  0  0  0  0  0
   -5.1540   17.6130  -33.3780 N   0  0  0  0  0  0  0  0  0  0  0  0
   -6.0880   17.9320  -34.4690 C   0  0  0  0  0  0  0  0  0  0  0  0
   -5.8390   17.6090  -32.0630 C   0  0  0  0  0  0  0  0  0  0  0  0
   -7.2680   18.1420  -32.2110 C   0  0  0  0  0  0  0  0  0  0  0  0
   -7.3190   19.6380  -32.0530 C   0  0  0  0  0  0  0  0  0  0  0  0
   -8.5240   20.3430  -32.3070 C   0  0  0  0  0  0  0  0  0  0  0  0
   -8.5950   21.7330  -32.1100 C   0  0  0  0  0  0  0  0  0  0  0  0
   -7.4560   22.3840  -31.6470 C   0  0  0  0  0  0  0  0  0  0  0  0
   -7.2450   23.7160  -31.3640 C   0  0  0  0  0  0  0  0  0  0  0  0
   -5.9240   23.7960  -30.9210 C   0  0  0  0  0  0  0  0  0  0  0  0
   -5.2780   25.0470  -30.4720 C   0  0  0  0  0  0  0  0  0  0  0  0
   -3.8740   25.2440  -30.6200 N   0  0  0  0  0  0  0  0  0  0  0  0
   -5.9730   25.9500  -29.9350 O   0  0  0  0  0  0  0  0  0  0  0  0
   -5.3490   22.5610  -30.9290 N   0  0  0  0  0  0  0  0  0  0  0  0
   -4.0020   22.2150  -30.5780 C   0  0  0  0  0  0  0  0  0  0  0  0
   -3.6880   22.1320  -29.3590 O   0  0  0  0  0  0  0  0  0  0  0  0
   -3.0160   21.9660  -31.5980 N   0  0  0  0  0  0  0  0  0  0  0  0
   -1.6120   21.8000  -31.2160 C   0  0  0  0  0  0  0  0  0  0  0  0
   -3.4290   21.8220  -32.9970 C   0  0  0  0  0  0  0  0  0  0  0  0
   -6.2930   21.7120  -31.3810 C   0  0  0  0  0  0  0  0  0  0  0  0
   -6.1840   20.3350  -31.5850 C   0  0  0  0  0  0  0  0  0  0  0  0
   -3.7382   18.8016  -32.3572 H   0  0  0  0  0  0  0  0  0  0  0  0
   -3.1712   18.1049  -33.9128 H   0  0  0  0  0  0  0  0  0  0  0  0
   -4.3262   19.4807  -33.9128 H   0  0  0  0  0  0  0  0  0  0  0  0
   -7.0486   18.2601  -34.0452 H   0  0  0  0  0  0  0  0  0  0  0  0
   -5.6666   18.7372  -35.0888 H   0  0  0  0  0  0  0  0  0  0  0  0
   -6.2472   17.0373  -35.0888 H   0  0  0  0  0  0  0  0  0  0  0  0
   -5.8729   16.5807  -31.6737 H   0  0  0  0  0  0  0  0  0  0  0  0
   -5.2844   18.2552  -31.3666 H   0  0  0  0  0  0  0  0  0  0  0  0
   -7.6474   17.8750  -33.2084 H   0  0  0  0  0  0  0  0  0  0  0  0
   -7.8876   17.6908  -31.4220 H   0  0  0  0  0  0  0  0  0  0  0  0
   -9.4106   19.7968  -32.6613 H   0  0  0  0  0  0  0  0  0  0  0  0
   -9.5219   22.2885  -32.3155 H   0  0  0  0  0  0  0  0  0  0  0  0
   -7.9651   24.5413  -31.4657 H   0  0  0  0  0  0  0  0  0  0  0  0
   -3.5000   26.0060  -31.2280 H   0  0  0  0  0  0  0  0  0  0  0  0
   -1.5291   21.7902  -30.1192 H   0  0  0  0  0  0  0  0  0  0  0  0
   -1.2316   20.8506  -31.6210 H   0  0  0  0  0  0  0  0  0  0  0  0
   -1.0207   22.6345  -31.6210 H   0  0  0  0  0  0  0  0  0  0  0  0
   -4.4670   21.4601  -33.0375 H   0  0  0  0  0  0  0  0  0  0  0  0
   -3.3607   22.7970  -33.5017 H   0  0  0  0  0  0  0  0  0  0  0  0
   -2.7693   21.1008  -33.5017 H   0  0  0  0  0  0  0  0  0  0  0  0
   -5.2393   19.8076  -31.3864 H   0  0  0  0  0  0  0  0  0  0  0  0
  1  2  1  0
  2  3  1  0
  2  4  1  0
  4  5  1  0
  5  6  1  0
  6  7  2  0
  7  8  1  0
  8  9  2  0
  9 10  1  0
 10 11  2  0
 11 12  1  0
 12 13  1  0
 12 14  2  0
 11 15  1  0
 15 16  1  0
 16 17  2  0
 16 18  1  0
 18 19  1  0
 18 20  1  0
 15 21  1  0
 21 22  2  0
 22  6  1  0
 21  9  1  0
  1 23  1  0
  1 24  1  0
  1 25  1  0
  3 26  1  0
  3 27  1  0
  3 28  1  0
  4 29  1  0
  4 30  1  0
  5 31  1  0
  5 32  1  0
  7 33  1  0
  8 34  1  0
 10 35  1  0
 13 36  1  0
 19 37  1  0
 19 38  1  0
 19 39  1  0
 20 40  1  0
 20 41  1  0
 20 42  1  0
 22 43  1  0
M  CHG  1  13  -1
M  END
>  <UniqueID>  (65) 
65

>  <SMILES>  (65) 
CN(C)CCc1ccc2cc(C([NH-])=O)n(C(=O)N(C)C)c2c1

>  <Energy>  (65) 
77.9154126104856

>  <Genealogy>  (65) 
CN(C)CCc1ccc2cc(C([NH-])=O)n(C(=O)N(C)C)c2c1 (protonated)
CN(C)CCc1ccc2cc(C([NH-])=O)n(C(=O)N(C)C)c2c1 (3D coordinates assigned)
CN(C)CCc1ccc2cc(C([NH-])=O)n(C(=O)N(C)C)c2c1 (optimized conformer: 77.9154126104856 kcal/mol)

>  <smiles>  (65) 
CN(C)CCc1ccc2cc(C(N)=O)n(C(=O)N(C)C)c2c1

>  <score_type>  (65) 
oracle

>  <origin>  (65) 
adg

>  <m_score__min__energy>  (65) 
-10.75

>  <m_primary>  (65) 
energy

$$$$
65:0
     RDKit          3D

 24 25  0  0  0  0  0  0  0  0999 V2000
   -3.8770   25.6220  -30.8430 N   0  0  0  0  0  0  0  0  0  0  0  0
   -5.2110   25.2970  -30.4610 C   0  0  0  0  0  0  0  0  0  0  0  0
   -5.8370   26.0690  -29.6860 O   0  0  0  0  0  0  0  0  0  0  0  0
   -5.8460   24.0450  -30.9170 C   0  0  0  0  0  0  0  0  0  0  0  0
   -7.2260   23.8680  -31.0040 C   0  0  0  0  0  0  0  0  0  0  0  0
   -7.4030   22.5510  -31.3640 C   0  0  0  0  0  0  0  0  0  0  0  0
   -8.5720   21.8310  -31.5850 C   0  0  0  0  0  0  0  0  0  0  0  0
   -8.4550   20.4820  -31.9600 C   0  0  0  0  0  0  0  0  0  0  0  0
   -7.1780   19.8840  -32.1300 C   0  0  0  0  0  0  0  0  0  0  0  0
   -7.0660   18.4250  -32.4920 C   0  0  0  0  0  0  0  0  0  0  0  0
   -6.6550   18.2770  -33.8060 F   0  0  0  0  0  0  0  0  0  0  0  0
   -8.2880   17.7900  -32.3470 F   0  0  0  0  0  0  0  0  0  0  0  0
   -6.1430   17.8190  -31.6600 F   0  0  0  0  0  0  0  0  0  0  0  0
   -6.0140   20.6450  -31.8720 C   0  0  0  0  0  0  0  0  0  0  0  0
   -6.1630   21.9800  -31.4860 C   0  0  0  0  0  0  0  0  0  0  0  0
   -5.1970   22.8850  -31.2190 N   0  0  0  0  0  0  0  0  0  0  0  0
   -3.7840   22.6680  -31.3380 C   0  0  0  0  0  0  0  0  0  0  0  0
   -3.0000   23.1210  -30.4640 O   0  0  0  0  0  0  0  0  0  0  0  0
   -3.1200   21.6740  -32.6890 S   0  0  0  0  0  0  0  0  0  0  0  0
   -3.0610   25.2750  -30.2910 H   0  0  0  0  0  0  0  0  0  0  0  0
   -8.0075   24.6207  -30.8234 H   0  0  0  0  0  0  0  0  0  0  0  0
   -9.5587   22.3034  -31.4697 H   0  0  0  0  0  0  0  0  0  0  0  0
   -9.3625   19.8823  -32.1237 H   0  0  0  0  0  0  0  0  0  0  0  0
   -5.0146   20.1965  -31.9728 H   0  0  0  0  0  0  0  0  0  0  0  0
  1  2  1  0
  2  3  2  0
  2  4  1  0
  4  5  2  0
  5  6  1  0
  6  7  2  0
  7  8  1  0
  8  9  2  0
  9 10  1  0
 10 11  1  0
 10 12  1  0
 10 13  1  0
  9 14  1  0
 14 15  2  0
 15 16  1  0
 16 17  1  0
 17 18  2  0
 17 19  1  0
 16  4  1  0
 15  6  1  0
  1 20  1  0
  5 21  1  0
  7 22  1  0
  8 23  1  0
 14 24  1  0
M  CHG  2   1  -1  19  -1
M  END
>  <UniqueID>  (66) 
66

>  <SMILES>  (66) 
[NH-]C(=O)c1cc2ccc(C(F)(F)F)cc2n1C(=O)[S-]

>  <Energy>  (66) 
65.99026479824192

>  <Genealogy>  (66) 
[NH-]C(=O)c1cc2ccc(C(F)(F)F)cc2n1C(=O)[S-] (protonated)
[NH-]C(=O)c1cc2ccc(C(F)(F)F)cc2n1C(=O)[S-] (3D coordinates assigned)
[NH-]C(=O)c1cc2ccc(C(F)(F)F)cc2n1C(=O)[S-] (optimized conformer: 65.99026479824192 kcal/mol)

>  <smiles>  (66) 
NC(=O)c1cc2ccc(C(F)(F)F)cc2n1C(=O)S

>  <score_type>  (66) 
oracle

>  <origin>  (66) 
adg

>  <m_score__min__energy>  (66) 
-9.5700000000000003

>  <m_primary>  (66) 
energy

$$$$
66:0
     RDKit          3D

 47 49  0  0  0  0  0  0  0  0999 V2000
   -4.9210   23.1350  -29.6020 C   0  0  0  0  0  0  0  0  0  0  0  0
   -3.7510   23.6930  -30.3480 C   0  0  0  0  0  0  0  0  0  0  0  0
   -3.8110   24.8710  -30.7910 O   0  0  0  0  0  0  0  0  0  0  0  0
   -2.5720   22.9030  -30.5800 N   0  0  0  0  0  0  0  0  0  0  0  0
   -1.3880   22.9820  -29.9130 C   0  0  0  0  0  0  0  0  0  0  0  0
   -1.0280   24.0060  -28.9100 C   0  0  0  0  0  0  0  0  0  0  0  0
   -1.5260   25.3410  -28.9990 N   0  0  0  0  0  0  0  0  0  0  0  0
   -0.2260   23.7090  -27.9840 O   0  0  0  0  0  0  0  0  0  0  0  0
   -0.5290   21.9620  -30.3130 C   0  0  0  0  0  0  0  0  0  0  0  0
   -1.2280   21.2500  -31.2610 C   0  0  0  0  0  0  0  0  0  0  0  0
   -0.8660   20.1070  -31.9650 C   0  0  0  0  0  0  0  0  0  0  0  0
   -1.8120   19.5450  -32.8370 C   0  0  0  0  0  0  0  0  0  0  0  0
   -3.0970   20.1210  -32.9900 C   0  0  0  0  0  0  0  0  0  0  0  0
   -4.0400   19.4860  -33.8770 N   0  0  0  0  0  0  0  0  0  0  0  0
   -5.4730   19.7820  -33.9440 C   0  0  0  0  0  0  0  0  0  0  0  0
   -6.2420   19.0250  -32.8570 C   0  0  0  0  0  0  0  0  0  0  0  0
   -6.3750   19.8350  -31.5630 C   0  0  0  0  0  0  0  0  0  0  0  0
   -7.4160   20.8510  -31.7080 N   0  0  0  0  0  0  0  0  0  0  0  0
   -8.8080   20.6560  -31.3480 C   0  0  0  0  0  0  0  0  0  0  0  0
   -9.5180   21.9880  -31.6570 C   0  0  0  0  0  0  0  0  0  0  0  0
   -8.4310   23.0140  -32.0180 C   0  0  0  0  0  0  0  0  0  0  0  0
   -7.1990   22.2030  -32.0600 C   0  0  0  0  0  0  0  0  0  0  0  0
   -6.0650   22.6660  -32.3540 O   0  0  0  0  0  0  0  0  0  0  0  0
   -3.4300   21.2800  -32.2450 C   0  0  0  0  0  0  0  0  0  0  0  0
   -2.4600   21.8340  -31.4010 C   0  0  0  0  0  0  0  0  0  0  0  0
   -4.7409   23.2209  -28.5202 H   0  0  0  0  0  0  0  0  0  0  0  0
   -5.8279   23.6975  -29.8685 H   0  0  0  0  0  0  0  0  0  0  0  0
   -5.0547   22.0762  -29.8685 H   0  0  0  0  0  0  0  0  0  0  0  0
   -2.0350   25.6730  -29.8470 H   0  0  0  0  0  0  0  0  0  0  0  0
   -1.3020   26.0340  -28.2510 H   0  0  0  0  0  0  0  0  0  0  0  0
    0.4906   21.7668  -29.9491 H   0  0  0  0  0  0  0  0  0  0  0  0
    0.1303   19.6571  -31.8426 H   0  0  0  0  0  0  0  0  0  0  0  0
   -1.5512   18.6432  -33.4104 H   0  0  0  0  0  0  0  0  0  0  0  0
   -3.6800   18.7640  -34.5420 H   0  0  0  0  0  0  0  0  0  0  0  0
   -5.6238   20.8627  -33.8048 H   0  0  0  0  0  0  0  0  0  0  0  0
   -5.8508   19.4632  -34.9267 H   0  0  0  0  0  0  0  0  0  0  0  0
   -7.2492   18.7930  -33.2335 H   0  0  0  0  0  0  0  0  0  0  0  0
   -5.6781   18.1100  -32.6231 H   0  0  0  0  0  0  0  0  0  0  0  0
   -6.6398   19.1589  -30.7367 H   0  0  0  0  0  0  0  0  0  0  0  0
   -5.4166   20.3310  -31.3500 H   0  0  0  0  0  0  0  0  0  0  0  0
   -9.2464   19.8421  -31.9441 H   0  0  0  0  0  0  0  0  0  0  0  0
   -8.9149   20.3791  -30.2888 H   0  0  0  0  0  0  0  0  0  0  0  0
  -10.2090   21.8586  -32.5030 H   0  0  0  0  0  0  0  0  0  0  0  0
  -10.1012   22.3285  -30.7887 H   0  0  0  0  0  0  0  0  0  0  0  0
   -8.6331   23.4745  -32.9963 H   0  0  0  0  0  0  0  0  0  0  0  0
   -8.3727   23.8486  -31.3038 H   0  0  0  0  0  0  0  0  0  0  0  0
   -4.4284   21.7341  -32.3281 H   0  0  0  0  0  0  0  0  0  0  0  0
  1  2  1  0
  2  3  2  0
  2  4  1  0
  4  5  1  0
  5  6  1  0
  6  7  1  0
  6  8  2  0
  5  9  2  0
  9 10  1  0
 10 11  2  0
 11 12  1  0
 12 13  2  0
 13 14  1  0
 14 15  1  0
 15 16  1  0
 16 17  1  0
 17 18  1  0
 18 19  1  0
 19 20  1  0
 20 21  1  0
 21 22  1  0
 22 23  2  0
 13 24  1  0
 24 25  2  0
 25  4  1  0
 25 10  1  0
 22 18  1  0
  1 26  1  0
  1 27  1  0
  1 28  1  0
  7 29  1  0
  7 30  1  0
  9 31  1  0
 11 32  1  0
 12 33  1  0
 14 34  1  0
 15 35  1  0
 15 36  1  0
 16 37  1  0
 16 38  1  0
 17 39  1  0
 17 40  1  0
 19 41  1  0
 19 42  1  0
 20 43  1  0
 20 44  1  0
 21 45  1  0
 21 46  1  0
 24 47  1  0
M  END
>  <UniqueID>  (67) 
67

>  <SMILES>  (67) 
CC(=O)n1c(C(N)=O)cc2ccc(NCCCN3CCCC3=O)cc21

>  <Energy>  (67) 
88.09921175423446

>  <Genealogy>  (67) 
CC(=O)n1c(C(N)=O)cc2ccc(NCCCN3CCCC3=O)cc21 (3D coordinates assigned)
CC(=O)n1c(C(N)=O)cc2ccc(NCCCN3CCCC3=O)cc21 (nonaromatic ring conformer: 88.09921175423446 kcal/mol)

>  <smiles>  (67) 
CC(=O)n1c(C(N)=O)cc2ccc(NCCCN3CCCC3=O)cc21

>  <score_type>  (67) 
oracle

>  <origin>  (67) 
adg

>  <m_score__min__energy>  (67) 
-8.9399999999999995

>  <m_primary>  (67) 
energy

$$$$
67:0
     RDKit          3D

 43 44  0  0  0  0  0  0  0  0999 V2000
   -4.8110   24.7360  -29.1670 N   0  0  0  0  0  0  0  0  0  0  0  0
   -6.0780   24.5710  -29.8050 C   0  0  0  0  0  0  0  0  0  0  0  0
   -6.9850   25.4210  -29.6040 O   0  0  0  0  0  0  0  0  0  0  0  0
   -6.3650   23.3890  -30.6430 C   0  0  0  0  0  0  0  0  0  0  0  0
   -7.6530   22.9790  -30.9750 C   0  0  0  0  0  0  0  0  0  0  0  0
   -7.4900   21.8220  -31.7000 C   0  0  0  0  0  0  0  0  0  0  0  0
   -8.4420   20.9980  -32.2940 C   0  0  0  0  0  0  0  0  0  0  0  0
   -7.9890   19.8840  -33.0200 C   0  0  0  0  0  0  0  0  0  0  0  0
   -6.6020   19.6210  -33.1460 C   0  0  0  0  0  0  0  0  0  0  0  0
   -6.1210   18.4400  -33.9410 C   0  0  0  0  0  0  0  0  0  0  0  0
   -6.9630   17.3620  -33.7270 F   0  0  0  0  0  0  0  0  0  0  0  0
   -6.1150   18.7540  -35.2880 F   0  0  0  0  0  0  0  0  0  0  0  0
   -5.6650   20.4820  -32.5340 C   0  0  0  0  0  0  0  0  0  0  0  0
   -6.1450   21.5720  -31.7970 C   0  0  0  0  0  0  0  0  0  0  0  0
   -5.4390   22.5290  -31.1550 N   0  0  0  0  0  0  0  0  0  0  0  0
   -4.0090   22.6660  -31.1260 C   0  0  0  0  0  0  0  0  0  0  0  0
   -3.4840   23.8100  -31.2280 O   0  0  0  0  0  0  0  0  0  0  0  0
   -3.2030   21.5310  -30.9850 O   0  0  0  0  0  0  0  0  0  0  0  0
   -2.2080   21.4110  -29.9750 C   0  0  0  0  0  0  0  0  0  0  0  0
   -2.2470   22.5540  -29.1250 O   0  0  0  0  0  0  0  0  0  0  0  0
   -2.8340   22.5310  -27.8580 C   0  0  0  0  0  0  0  0  0  0  0  0
   -2.7770   21.4910  -27.1440 O   0  0  0  0  0  0  0  0  0  0  0  0
   -3.4770   23.6810  -27.3890 O   0  0  0  0  0  0  0  0  0  0  0  0
   -2.8010   24.7430  -26.7190 C   0  0  0  0  0  0  0  0  0  0  0  0
   -1.3460   24.8370  -27.1920 C   0  0  0  0  0  0  0  0  0  0  0  0
   -1.2360   25.5060  -28.5670 C   0  0  0  0  0  0  0  0  0  0  0  0
   -2.4010   25.2980  -29.3200 O   0  0  0  0  0  0  0  0  0  0  0  0
   -4.1000   23.9700  -29.1710 H   0  0  0  0  0  0  0  0  0  0  0  0
   -4.6120   25.5980  -28.6120 H   0  0  0  0  0  0  0  0  0  0  0  0
   -8.5994   23.4748  -30.7133 H   0  0  0  0  0  0  0  0  0  0  0  0
   -9.5165   21.2128  -32.1977 H   0  0  0  0  0  0  0  0  0  0  0  0
   -8.7171   19.2099  -33.4949 H   0  0  0  0  0  0  0  0  0  0  0  0
   -5.1010   18.1813  -33.6205 H   0  0  0  0  0  0  0  0  0  0  0  0
   -4.5846   20.3011  -32.6336 H   0  0  0  0  0  0  0  0  0  0  0  0
   -2.3984   20.5058  -29.3797 H   0  0  0  0  0  0  0  0  0  0  0  0
   -1.2166   21.3409  -30.4464 H   0  0  0  0  0  0  0  0  0  0  0  0
   -3.3138   25.6918  -26.9353 H   0  0  0  0  0  0  0  0  0  0  0  0
   -2.8110   24.5442  -25.6372 H   0  0  0  0  0  0  0  0  0  0  0  0
   -0.7718   25.4267  -26.4622 H   0  0  0  0  0  0  0  0  0  0  0  0
   -0.9474   23.8152  -27.2762 H   0  0  0  0  0  0  0  0  0  0  0  0
   -1.0838   26.5868  -28.4304 H   0  0  0  0  0  0  0  0  0  0  0  0
   -0.3856   25.0631  -29.1061 H   0  0  0  0  0  0  0  0  0  0  0  0
   -2.5900   24.3250  -29.2880 H   0  0  0  0  0  0  0  0  0  0  0  0
  1  2  1  0
  2  3  2  0
  2  4  1  0
  4  5  2  0
  5  6  1  0
  6  7  2  0
  7  8  1  0
  8  9  2  0
  9 10  1  0
 10 11  1  0
 10 12  1  0
  9 13  1  0
 13 14  2  0
 14 15  1  0
 15 16  1  0
 16 17  2  0
 16 18  1  0
 18 19  1  0
 19 20  1  0
 20 21  1  0
 21 22  2  0
 21 23  1  0
 23 24  1  0
 24 25  1  0
 25 26  1  0
 26 27  1  0
 15  4  1  0
 14  6  1  0
  1 28  1  0
  1 29  1  0
  5 30  1  0
  7 31  1  0
  8 32  1  0
 10 33  1  0
 13 34  1  0
 19 35  1  0
 19 36  1  0
 24 37  1  0
 24 38  1  0
 25 39  1  0
 25 40  1  0
 26 41  1  0
 26 42  1  0
 27 43  1  0
M  END
>  <UniqueID>  (68) 
68

>  <SMILES>  (68) 
NC(=O)c1cc2ccc(C(F)F)cc2n1C(=O)OCOC(=O)OCCCO

>  <Energy>  (68) 
73.26273975291232

>  <Genealogy>  (68) 
NC(=O)c1cc2ccc(C(F)F)cc2n1C(=O)OCOC(=O)OCCCO (3D coordinates assigned)
NC(=O)c1cc2ccc(C(F)F)cc2n1C(=O)OCOC(=O)OCCCO (optimized conformer: 73.26273975291232 kcal/mol)

>  <smiles>  (68) 
NC(=O)c1cc2ccc(C(F)F)cc2n1C(=O)OCOC(=O)OCCCO

>  <score_type>  (68) 
oracle

>  <origin>  (68) 
adg

>  <m_score__min__energy>  (68) 
-7.6600000000000001

>  <m_primary>  (68) 
energy

$$$$
68:0
     RDKit          3D

 44 46  0  0  0  0  0  0  0  0999 V2000
   -3.8790   25.6740  -30.8470 N   0  0  0  0  0  0  0  0  0  0  0  0
   -5.1270   25.1170  -30.4440 C   0  0  0  0  0  0  0  0  0  0  0  0
   -5.8000   25.6980  -29.5510 O   0  0  0  0  0  0  0  0  0  0  0  0
   -5.6130   23.8430  -31.0130 C   0  0  0  0  0  0  0  0  0  0  0  0
   -6.9630   23.5360  -31.1640 C   0  0  0  0  0  0  0  0  0  0  0  0
   -6.9940   22.2430  -31.6310 C   0  0  0  0  0  0  0  0  0  0  0  0
   -8.0780   21.4350  -31.9590 C   0  0  0  0  0  0  0  0  0  0  0  0
   -7.8140   20.1420  -32.4410 C   0  0  0  0  0  0  0  0  0  0  0  0
   -6.4800   19.6850  -32.6020 C   0  0  0  0  0  0  0  0  0  0  0  0
   -6.2230   18.3570  -33.0970 N   0  0  0  0  0  0  0  0  0  0  0  0
   -5.6960   18.1660  -34.4550 C   0  0  0  0  0  0  0  0  0  0  0  0
   -5.1140   16.7550  -34.6170 C   0  0  0  0  0  0  0  0  0  0  0  0
   -4.4070   16.3540  -33.3920 N   0  0  0  0  0  0  0  0  0  0  0  0
   -5.3110   16.2250  -32.2280 C   0  0  0  0  0  0  0  0  0  0  0  0
   -6.5260   17.1730  -32.2840 C   0  0  0  0  0  0  0  0  0  0  0  0
   -5.4060   20.5350  -32.2510 C   0  0  0  0  0  0  0  0  0  0  0  0
   -5.6990   21.8100  -31.7550 C   0  0  0  0  0  0  0  0  0  0  0  0
   -4.8380   22.7830  -31.3830 N   0  0  0  0  0  0  0  0  0  0  0  0
   -3.4050   22.7170  -31.4470 C   0  0  0  0  0  0  0  0  0  0  0  0
   -2.8450   22.1420  -32.4200 O   0  0  0  0  0  0  0  0  0  0  0  0
   -2.6400   23.2700  -30.4140 O   0  0  0  0  0  0  0  0  0  0  0  0
   -2.9800   23.1500  -29.0340 C   0  0  0  0  0  0  0  0  0  0  0  0
   -2.4960   24.3680  -28.2450 C   0  0  0  0  0  0  0  0  0  0  0  0
   -1.8970   25.3020  -29.1030 O   0  0  0  0  0  0  0  0  0  0  0  0
   -2.9780   25.3050  -30.4710 H   0  0  0  0  0  0  0  0  0  0  0  0
   -7.8226   24.1895  -30.9541 H   0  0  0  0  0  0  0  0  0  0  0  0
   -9.1102   21.7974  -31.8445 H   0  0  0  0  0  0  0  0  0  0  0  0
   -8.6512   19.4759  -32.6967 H   0  0  0  0  0  0  0  0  0  0  0  0
   -6.5100   18.3066  -35.1814 H   0  0  0  0  0  0  0  0  0  0  0  0
   -4.8966   18.9009  -34.6310 H   0  0  0  0  0  0  0  0  0  0  0  0
   -5.9310   16.0453  -34.8139 H   0  0  0  0  0  0  0  0  0  0  0  0
   -4.4047   16.7535  -35.4578 H   0  0  0  0  0  0  0  0  0  0  0  0
   -3.6620   17.0590  -33.1790 H   0  0  0  0  0  0  0  0  0  0  0  0
   -3.9360   15.4350  -33.5610 H   0  0  0  0  0  0  0  0  0  0  0  0
   -5.6792   15.1893  -32.1864 H   0  0  0  0  0  0  0  0  0  0  0  0
   -4.7292   16.4975  -31.3351 H   0  0  0  0  0  0  0  0  0  0  0  0
   -7.3800   16.6397  -32.7270 H   0  0  0  0  0  0  0  0  0  0  0  0
   -6.7681   17.4985  -31.2615 H   0  0  0  0  0  0  0  0  0  0  0  0
   -4.3640   20.2015  -32.3653 H   0  0  0  0  0  0  0  0  0  0  0  0
   -4.0728   23.0696  -28.9379 H   0  0  0  0  0  0  0  0  0  0  0  0
   -2.4917   22.2516  -28.6284 H   0  0  0  0  0  0  0  0  0  0  0  0
   -3.3538   24.8373  -27.7411 H   0  0  0  0  0  0  0  0  0  0  0  0
   -1.7538   24.0393  -27.5026 H   0  0  0  0  0  0  0  0  0  0  0  0
   -1.9330   24.9140  -30.0150 H   0  0  0  0  0  0  0  0  0  0  0  0
  1  2  1  0
  2  3  2  0
  2  4  1  0
  4  5  2  0
  5  6  1  0
  6  7  2  0
  7  8  1  0
  8  9  2  0
  9 10  1  0
 10 11  1  0
 11 12  1  0
 12 13  1  0
 13 14  1  0
 14 15  1  0
  9 16  1  0
 16 17  2  0
 17 18  1  0
 18 19  1  0
 19 20  2  0
 19 21  1  0
 21 22  1  0
 22 23  1  0
 23 24  1  0
 18  4  1  0
 17  6  1  0
 15 10  1  0
  1 25  1  0
  5 26  1  0
  7 27  1  0
  8 28  1  0
 11 29  1  0
 11 30  1  0
 12 31  1  0
 12 32  1  0
 13 33  1  0
 13 34  1  0
 14 35  1  0
 14 36  1  0
 15 37  1  0
 15 38  1  0
 16 39  1  0
 22 40  1  0
 22 41  1  0
 23 42  1  0
 23 43  1  0
 24 44  1  0
M  CHG  2   1  -1  13   1
M  END
>  <UniqueID>  (69) 
69

>  <SMILES>  (69) 
[NH-]C(=O)c1cc2ccc(N3CC[NH2+]CC3)cc2n1C(=O)OCCO

>  <Energy>  (69) 
88.75888070139494

>  <Genealogy>  (69) 
[NH-]C(=O)c1cc2ccc(N3CC[NH2+]CC3)cc2n1C(=O)OCCO (protonated)
[NH-]C(=O)c1cc2ccc(N3CC[NH2+]CC3)cc2n1C(=O)OCCO (3D coordinates assigned)
[NH-]C(=O)c1cc2ccc(N3CC[NH2+]CC3)cc2n1C(=O)OCCO (nonaromatic ring conformer: 88.75888070139494 kcal/mol)

>  <smiles>  (69) 
NC(=O)c1cc2ccc(N3CCNCC3)cc2n1C(=O)OCCO

>  <score_type>  (69) 
oracle

>  <origin>  (69) 
adg

>  <m_score__min__energy>  (69) 
-10.19

>  <m_primary>  (69) 
energy

$$$$
69:0
     RDKit          3D

 38 39  0  0  0  0  0  0  0  0999 V2000
   -6.7520   17.3670  -33.1910 C   0  0  0  0  0  0  0  0  0  0  0  0
   -6.8810   18.5100  -32.8290 C   0  0  0  0  0  0  0  0  0  0  0  0
   -7.0360   19.8740  -32.3960 C   0  0  0  0  0  0  0  0  0  0  0  0
   -8.3170   20.4740  -32.4030 C   0  0  0  0  0  0  0  0  0  0  0  0
   -8.4830   21.8010  -31.9720 C   0  0  0  0  0  0  0  0  0  0  0  0
   -7.3520   22.4960  -31.5490 C   0  0  0  0  0  0  0  0  0  0  0  0
   -7.2300   23.7760  -31.0590 C   0  0  0  0  0  0  0  0  0  0  0  0
   -5.8740   23.9380  -30.7840 C   0  0  0  0  0  0  0  0  0  0  0  0
   -5.2820   25.2100  -30.3190 C   0  0  0  0  0  0  0  0  0  0  0  0
   -4.0390   25.6700  -30.8420 N   0  0  0  0  0  0  0  0  0  0  0  0
   -5.9060   25.9230  -29.4890 O   0  0  0  0  0  0  0  0  0  0  0  0
   -5.1860   22.8010  -31.0840 N   0  0  0  0  0  0  0  0  0  0  0  0
   -3.7970   22.5270  -30.8480 C   0  0  0  0  0  0  0  0  0  0  0  0
   -2.9230   23.0540  -31.5860 O   0  0  0  0  0  0  0  0  0  0  0  0
   -3.4200   21.6300  -29.7930 N   0  0  0  0  0  0  0  0  0  0  0  0
   -2.6940   21.9670  -28.5630 C   0  0  0  0  0  0  0  0  0  0  0  0
   -2.8500   20.8250  -27.5400 C   0  0  0  0  0  0  0  0  0  0  0  0
   -1.1980   22.1910  -28.8690 C   0  0  0  0  0  0  0  0  0  0  0  0
   -3.3240   23.2510  -27.9540 C   0  0  0  0  0  0  0  0  0  0  0  0
   -3.0570   24.4620  -28.7340 N   0  0  0  0  0  0  0  0  0  0  0  0
   -6.1030   21.9290  -31.5540 C   0  0  0  0  0  0  0  0  0  0  0  0
   -5.9110   20.6040  -31.9620 C   0  0  0  0  0  0  0  0  0  0  0  0
   -6.6343   16.3244  -33.5212 H   0  0  0  0  0  0  0  0  0  0  0  0
   -9.1885   19.8982  -32.7480 H   0  0  0  0  0  0  0  0  0  0  0  0
   -9.4750   22.2763  -31.9687 H   0  0  0  0  0  0  0  0  0  0  0  0
   -8.0326   24.5143  -30.9150 H   0  0  0  0  0  0  0  0  0  0  0  0
   -3.1820   25.0760  -30.7930 H   0  0  0  0  0  0  0  0  0  0  0  0
   -2.7939   21.2354  -26.5210 H   0  0  0  0  0  0  0  0  0  0  0  0
   -3.8236   20.3338  -27.6844 H   0  0  0  0  0  0  0  0  0  0  0  0
   -2.0438   20.0907  -27.6844 H   0  0  0  0  0  0  0  0  0  0  0  0
   -0.6392   22.2747  -27.9252 H   0  0  0  0  0  0  0  0  0  0  0  0
   -0.8113   21.3408  -29.4500 H   0  0  0  0  0  0  0  0  0  0  0  0
   -1.0773   23.1172  -29.4500 H   0  0  0  0  0  0  0  0  0  0  0  0
   -4.4132   23.1091  -27.8939 H   0  0  0  0  0  0  0  0  0  0  0  0
   -2.8659   23.3970  -26.9646 H   0  0  0  0  0  0  0  0  0  0  0  0
   -2.8650   24.2050  -29.7290 H   0  0  0  0  0  0  0  0  0  0  0  0
   -3.8860   25.0950  -28.7070 H   0  0  0  0  0  0  0  0  0  0  0  0
   -4.9112   20.1456  -31.9445 H   0  0  0  0  0  0  0  0  0  0  0  0
  1  2  3  0
  2  3  1  0
  3  4  2  0
  4  5  1  0
  5  6  2  0
  6  7  1  0
  7  8  2  0
  8  9  1  0
  9 10  1  0
  9 11  2  0
  8 12  1  0
 12 13  1  0
 13 14  2  0
 13 15  1  0
 15 16  1  0
 16 17  1  0
 16 18  1  0
 16 19  1  0
 19 20  1  0
 12 21  1  0
 21 22  2  0
 22  3  1  0
 21  6  1  0
  1 23  1  0
  4 24  1  0
  5 25  1  0
  7 26  1  0
 10 27  1  0
 17 28  1  0
 17 29  1  0
 17 30  1  0
 18 31  1  0
 18 32  1  0
 18 33  1  0
 19 34  1  0
 19 35  1  0
 20 36  1  0
 20 37  1  0
 22 38  1  0
M  CHG  2  10  -1  15  -1
M  END
>  <UniqueID>  (70) 
70

>  <SMILES>  (70) 
C#Cc1ccc2cc(C([NH-])=O)n(C(=O)[N-]C(C)(C)CN)c2c1

>  <Energy>  (70) 
71.6281530814167

>  <Genealogy>  (70) 
C#Cc1ccc2cc(C([NH-])=O)n(C(=O)[N-]C(C)(C)CN)c2c1 (protonated)
C#Cc1ccc2cc(C([NH-])=O)n(C(=O)[N-]C(C)(C)CN)c2c1 (3D coordinates assigned)
C#Cc1ccc2cc(C([NH-])=O)n(C(=O)[N-]C(C)(C)CN)c2c1 (optimized conformer: 71.6281530814167 kcal/mol)

>  <smiles>  (70) 
C#Cc1ccc2cc(C(N)=O)n(C(=O)NC(C)(C)CN)c2c1

>  <score_type>  (70) 
oracle

>  <origin>  (70) 
adg

>  <m_score__min__energy>  (70) 
-11.18

>  <m_primary>  (70) 
energy

$$$$
70:0
     RDKit          3D

 41 42  0  0  0  0  0  0  0  0999 V2000
   -5.7520   18.2900  -34.7270 C   0  0  0  0  0  0  0  0  0  0  0  0
   -6.4400   18.3890  -33.4350 N   0  0  0  0  0  0  0  0  0  0  0  0
   -6.8990   17.1590  -32.7780 C   0  0  0  0  0  0  0  0  0  0  0  0
   -6.6630   19.6830  -32.8160 C   0  0  0  0  0  0  0  0  0  0  0  0
   -7.9830   20.1880  -32.6470 C   0  0  0  0  0  0  0  0  0  0  0  0
   -8.2110   21.4330  -32.0380 C   0  0  0  0  0  0  0  0  0  0  0  0
   -7.1090   22.1630  -31.6130 C   0  0  0  0  0  0  0  0  0  0  0  0
   -7.0470   23.3800  -30.9710 C   0  0  0  0  0  0  0  0  0  0  0  0
   -5.6890   23.6250  -30.7770 C   0  0  0  0  0  0  0  0  0  0  0  0
   -5.1640   24.8750  -30.1920 C   0  0  0  0  0  0  0  0  0  0  0  0
   -4.1430   25.6200  -30.8490 N   0  0  0  0  0  0  0  0  0  0  0  0
   -5.6570   25.3180  -29.1200 O   0  0  0  0  0  0  0  0  0  0  0  0
   -4.9430   22.5970  -31.2720 N   0  0  0  0  0  0  0  0  0  0  0  0
   -3.5200   22.4220  -31.1840 C   0  0  0  0  0  0  0  0  0  0  0  0
   -2.9890   21.3790  -31.6520 O   0  0  0  0  0  0  0  0  0  0  0  0
   -2.7210   23.4210  -30.5340 N   0  0  0  0  0  0  0  0  0  0  0  0
   -1.9900   23.2890  -29.2680 C   0  0  0  0  0  0  0  0  0  0  0  0
   -1.0590   22.0620  -29.3240 C   0  0  0  0  0  0  0  0  0  0  0  0
   -2.9820   23.1660  -28.0980 C   0  0  0  0  0  0  0  0  0  0  0  0
   -1.1560   24.5340  -29.0680 C   0  0  0  0  0  0  0  0  0  0  0  0
   -1.6310   25.6690  -29.3370 O   0  0  0  0  0  0  0  0  0  0  0  0
    0.1540   24.4410  -28.6090 O   0  0  0  0  0  0  0  0  0  0  0  0
   -5.8270   21.7110  -31.7800 C   0  0  0  0  0  0  0  0  0  0  0  0
   -5.5690   20.4660  -32.3660 C   0  0  0  0  0  0  0  0  0  0  0  0
   -4.6761   18.1352  -34.5585 H   0  0  0  0  0  0  0  0  0  0  0  0
   -6.1600   17.4413  -35.2956 H   0  0  0  0  0  0  0  0  0  0  0  0
   -5.9041   19.2193  -35.2956 H   0  0  0  0  0  0  0  0  0  0  0  0
   -6.8514   17.2866  -31.6865 H   0  0  0  0  0  0  0  0  0  0  0  0
   -7.9362   16.9484  -33.0776 H   0  0  0  0  0  0  0  0  0  0  0  0
   -6.2533   16.3204  -33.0776 H   0  0  0  0  0  0  0  0  0  0  0  0
   -8.8388   19.5934  -32.9992 H   0  0  0  0  0  0  0  0  0  0  0  0
   -9.2323   21.8183  -31.9018 H   0  0  0  0  0  0  0  0  0  0  0  0
   -7.8898   24.0217  -30.6746 H   0  0  0  0  0  0  0  0  0  0  0  0
   -3.1490   25.3000  -30.8350 H   0  0  0  0  0  0  0  0  0  0  0  0
   -0.8147   21.7401  -28.3009 H   0  0  0  0  0  0  0  0  0  0  0  0
   -1.5644   21.2422  -29.8555 H   0  0  0  0  0  0  0  0  0  0  0  0
   -0.1334   22.3280  -29.8555 H   0  0  0  0  0  0  0  0  0  0  0  0
   -2.4359   23.2337  -27.1456 H   0  0  0  0  0  0  0  0  0  0  0  0
   -3.7201   23.9795  -28.1561 H   0  0  0  0  0  0  0  0  0  0  0  0
   -3.4991   22.1969  -28.1561 H   0  0  0  0  0  0  0  0  0  0  0  0
   -4.5369   20.1016  -32.4755 H   0  0  0  0  0  0  0  0  0  0  0  0
  1  2  1  0
  2  3  1  0
  2  4  1  0
  4  5  2  0
  5  6  1  0
  6  7  2  0
  7  8  1  0
  8  9  2  0
  9 10  1  0
 10 11  1  0
 10 12  2  0
  9 13  1  0
 13 14  1  0
 14 15  2  0
 14 16  1  0
 16 17  1  0
 17 18  1  0
 17 19  1  0
 17 20  1  0
 20 21  2  0
 20 22  1  0
 13 23  1  0
 23 24  2  0
 24  4  1  0
 23  7  1  0
  1 25  1  0
  1 26  1  0
  1 27  1  0
  3 28  1  0
  3 29  1  0
  3 30  1  0
  5 31  1  0
  6 32  1  0
  8 33  1  0
 11 34  1  0
 18 35  1  0
 18 36  1  0
 18 37  1  0
 19 38  1  0
 19 39  1  0
 19 40  1  0
 24 41  1  0
M  CHG  3  11  -1  16  -1  22  -1
M  END
>  <UniqueID>  (71) 
71

>  <SMILES>  (71) 
CN(C)c1ccc2cc(C([NH-])=O)n(C(=O)[N-]C(C)(C)C(=O)[O-])c2c1

>  <Energy>  (71) 
78.85289660764329

>  <Genealogy>  (71) 
CN(C)c1ccc2cc(C([NH-])=O)n(C(=O)[N-]C(C)(C)C(=O)[O-])c2c1 (protonated)
CN(C)c1ccc2cc(C([NH-])=O)n(C(=O)[N-]C(C)(C)C(=O)[O-])c2c1 (3D coordinates assigned)
CN(C)c1ccc2cc(C([NH-])=O)n(C(=O)[N-]C(C)(C)C(=O)[O-])c2c1 (optimized conformer: 78.85289660764329 kcal/mol)

>  <smiles>  (71) 
CN(C)c1ccc2cc(C(N)=O)n(C(=O)NC(C)(C)C(=O)O)c2c1

>  <score_type>  (71) 
oracle

>  <origin>  (71) 
adg

>  <m_score__min__energy>  (71) 
-13.460000000000001

>  <m_primary>  (71) 
energy

$$$$
71:0
     RDKit          3D

 46 49  0  0  0  0  0  0  0  0999 V2000
   -2.9930   25.2960  -30.4760 H   0  0  0  0  0  0  0  0  0  0  0  0
   -3.9020   25.6580  -30.8400 N   0  0  0  0  0  0  0  0  0  0  0  0
   -5.1400   25.1230  -30.3790 C   0  0  0  0  0  0  0  0  0  0  0  0
   -5.7780   25.7310  -29.4800 O   0  0  0  0  0  0  0  0  0  0  0  0
   -5.6690   23.8770  -30.9690 C   0  0  0  0  0  0  0  0  0  0  0  0
   -7.0270   23.5900  -31.0980 C   0  0  0  0  0  0  0  0  0  0  0  0
   -7.8740   24.2373  -30.8268 H   0  0  0  0  0  0  0  0  0  0  0  0
   -7.0830   22.3240  -31.6370 C   0  0  0  0  0  0  0  0  0  0  0  0
   -8.1770   21.5450  -31.9840 C   0  0  0  0  0  0  0  0  0  0  0  0
   -9.2029   21.9104  -31.8287 H   0  0  0  0  0  0  0  0  0  0  0  0
   -7.9390   20.2770  -32.5390 C   0  0  0  0  0  0  0  0  0  0  0  0
   -8.7927   19.6429  -32.8200 H   0  0  0  0  0  0  0  0  0  0  0  0
   -6.6100   19.7940  -32.7460 C   0  0  0  0  0  0  0  0  0  0  0  0
   -6.3720   18.4790  -33.3310 N   0  0  0  0  0  0  0  0  0  0  0  0
   -5.4670   18.3510  -34.5000 C   0  0  0  0  0  0  0  0  0  0  0  0
   -5.8839   18.9328  -35.3353 H   0  0  0  0  0  0  0  0  0  0  0  0
   -4.4775   18.7277  -34.2018 H   0  0  0  0  0  0  0  0  0  0  0  0
   -5.2970   16.8870  -34.9520 C   0  0  2  0  0  0  0  0  0  0  0  0
   -4.8561   16.8960  -35.9597 H   0  0  0  0  0  0  0  0  0  0  0  0
   -6.5530   16.2630  -34.9090 O   0  0  0  0  0  0  0  0  0  0  0  0
   -6.7200   15.9970  -33.5420 C   0  0  2  0  0  0  0  0  0  0  0  0
   -7.5006   15.2483  -33.3421 H   0  0  0  0  0  0  0  0  0  0  0  0
   -7.1340   17.3060  -32.8390 C   0  0  0  0  0  0  0  0  0  0  0  0
   -8.2051   17.4800  -33.0193 H   0  0  0  0  0  0  0  0  0  0  0  0
   -6.9182   17.1926  -31.7664 H   0  0  0  0  0  0  0  0  0  0  0  0
   -5.3730   15.4840  -33.0360 C   0  0  0  0  0  0  0  0  0  0  0  0
   -5.3280   14.3856  -33.0748 H   0  0  0  0  0  0  0  0  0  0  0  0
   -5.1741   15.7479  -31.9868 H   0  0  0  0  0  0  0  0  0  0  0  0
   -4.3920   16.1020  -34.0020 C   0  0  0  0  0  0  0  0  0  0  0  0
   -3.8276   15.3278  -34.5424 H   0  0  0  0  0  0  0  0  0  0  0  0
   -3.6325   16.7271  -33.5096 H   0  0  0  0  0  0  0  0  0  0  0  0
   -5.5250   20.6370  -32.3730 C   0  0  0  0  0  0  0  0  0  0  0  0
   -4.4857   20.3081  -32.5204 H   0  0  0  0  0  0  0  0  0  0  0  0
   -5.8010   21.8880  -31.8170 C   0  0  0  0  0  0  0  0  0  0  0  0
   -4.9210   22.8310  -31.4200 N   0  0  0  0  0  0  0  0  0  0  0  0
   -3.4910   22.7270  -31.4770 C   0  0  0  0  0  0  0  0  0  0  0  0
   -2.7980   23.2260  -30.5510 O   0  0  0  0  0  0  0  0  0  0  0  0
   -2.8100   22.0250  -32.5810 C   0  0  0  0  0  0  0  0  0  0  0  0
   -3.3416   21.9004  -33.5359 H   0  0  0  0  0  0  0  0  0  0  0  0
   -1.5710   21.5340  -32.4660 C   0  0  0  0  0  0  0  0  0  0  0  0
   -1.0318   21.6427  -31.5134 H   0  0  0  0  0  0  0  0  0  0  0  0
   -0.9060   20.8380  -33.6150 C   0  0  0  0  0  0  0  0  0  0  0  0
   -0.0703   20.2311  -33.2366 H   0  0  0  0  0  0  0  0  0  0  0  0
   -1.6432   20.1945  -34.1174 H   0  0  0  0  0  0  0  0  0  0  0  0
   -0.4170   21.7740  -34.5360 O   0  0  0  0  0  0  0  0  0  0  0  0
   -1.2080   22.1480  -35.0070 H   0  0  0  0  0  0  0  0  0  0  0  0
  1  2  1  0
  2  3  1  0
  3  4  2  0
  3  5  1  0
  5  6  2  0
  6  7  1  0
  6  8  1  0
  8  9  2  0
  9 10  1  0
  9 11  1  0
 11 12  1  0
 11 13  2  0
 13 14  1  0
 14 15  1  0
 15 16  1  0
 15 17  1  0
 15 18  1  0
 18 19  1  6
 18 20  1  0
 20 21  1  0
 21 22  1  6
 21 23  1  0
 23 24  1  0
 23 25  1  0
 21 26  1  0
 26 27  1  0
 26 28  1  0
 26 29  1  0
 29 30  1  0
 29 31  1  0
 13 32  1  0
 32 33  1  0
 32 34  2  0
 34 35  1  0
 35 36  1  0
 36 37  2  0
 36 38  1  0
 38 39  1  0
 38 40  2  0
 40 41  1  0
 40 42  1  0
 42 43  1  0
 42 44  1  0
 42 45  1  0
 45 46  1  0
 35  5  1  0
 34  8  1  0
 23 14  1  0
 29 18  1  0
M  CHG  1   2  -1
M  END
>  <UniqueID>  (72) 
72

>  <SMILES>  (72) 
[NH-]C(=O)c1cc2ccc(N3C[C@H]4CC[C@@H](C3)O4)cc2n1C(=O)/C=C/CO

>  <Energy>  (72) 
94.7455354861932

>  <Genealogy>  (72) 
[NH-]C(=O)c1cc2ccc(N3CC4CCC(C3)O4)cc2n1C(=O)C=CCO (protonated)
[NH-]C(=O)c1cc2ccc(N3C[C@H]4CC[C@@H](C3)O4)cc2n1C(=O)C=CCO (chirality)
[NH-]C(=O)c1cc2ccc(N3C[C@H]4CC[C@@H](C3)O4)cc2n1C(=O)/C=C/CO (cis-trans isomerization)
[NH-]C(=O)c1cc2ccc(N3C[C@H]4CC[C@@H](C3)O4)cc2n1C(=O)/C=C/CO (3D coordinates assigned)
[NH-]C(=O)c1cc2ccc(N3C[C@H]4CC[C@@H](C3)O4)cc2n1C(=O)/C=C/CO (nonaromatic ring conformer: 94.7455354861932 kcal/mol)

>  <smiles>  (72) 
NC(=O)c1cc2ccc(N3CC4CCC(C3)O4)cc2n1C(=O)C=CCO

>  <score_type>  (72) 
oracle

>  <origin>  (72) 
adg

>  <m_score__min__energy>  (72) 
-11.220000000000001

>  <m_primary>  (72) 
energy

$$$$
72:0
     RDKit          3D

 39 40  0  0  0  0  0  0  0  0999 V2000
   -7.1700   18.4480  -32.7750 C   0  0  0  0  0  0  0  0  0  0  0  0
   -7.2620   19.8620  -32.2850 C   0  0  0  0  0  0  0  0  0  0  0  0
   -8.4980   20.5520  -32.3390 C   0  0  0  0  0  0  0  0  0  0  0  0
   -8.5880   21.8930  -31.9280 C   0  0  0  0  0  0  0  0  0  0  0  0
   -7.4270   22.5150  -31.4770 C   0  0  0  0  0  0  0  0  0  0  0  0
   -7.2230   23.8100  -31.0560 C   0  0  0  0  0  0  0  0  0  0  0  0
   -5.8660   23.8880  -30.7450 C   0  0  0  0  0  0  0  0  0  0  0  0
   -5.2310   25.0940  -30.1740 C   0  0  0  0  0  0  0  0  0  0  0  0
   -3.8950   25.4530  -30.5180 N   0  0  0  0  0  0  0  0  0  0  0  0
   -5.8610   25.7940  -29.3360 O   0  0  0  0  0  0  0  0  0  0  0  0
   -5.2550   22.6900  -30.9740 N   0  0  0  0  0  0  0  0  0  0  0  0
   -3.8600   22.3760  -30.8660 C   0  0  0  0  0  0  0  0  0  0  0  0
   -3.0430   22.8370  -31.7090 O   0  0  0  0  0  0  0  0  0  0  0  0
   -3.4160   21.5400  -29.8340 O   0  0  0  0  0  0  0  0  0  0  0  0
   -2.7160   22.0170  -28.6890 C   0  0  0  0  0  0  0  0  0  0  0  0
   -2.5280   23.5090  -28.7830 C   0  0  0  0  0  0  0  0  0  0  0  0
   -1.7070   23.9490  -29.5780 O   0  0  0  0  0  0  0  0  0  0  0  0
   -3.2970   24.4130  -27.9500 N   0  0  0  0  0  0  0  0  0  0  0  0
   -2.4010   25.2240  -27.1110 C   0  0  0  0  0  0  0  0  0  0  0  0
   -4.2410   23.6510  -27.1170 C   0  0  0  0  0  0  0  0  0  0  0  0
   -6.2240   21.8610  -31.4180 C   0  0  0  0  0  0  0  0  0  0  0  0
   -6.1020   20.5310  -31.8380 C   0  0  0  0  0  0  0  0  0  0  0  0
   -7.1255   17.7640  -31.9147 H   0  0  0  0  0  0  0  0  0  0  0  0
   -8.0548   18.2130  -33.3849 H   0  0  0  0  0  0  0  0  0  0  0  0
   -6.2623   18.3296  -33.3849 H   0  0  0  0  0  0  0  0  0  0  0  0
   -9.3959   20.0333  -32.7061 H   0  0  0  0  0  0  0  0  0  0  0  0
   -9.5453   22.4339  -31.9616 H   0  0  0  0  0  0  0  0  0  0  0  0
   -7.9715   24.6125  -30.9810 H   0  0  0  0  0  0  0  0  0  0  0  0
   -3.2220   24.7380  -30.8750 H   0  0  0  0  0  0  0  0  0  0  0  0
   -3.2939   21.7792  -27.7838 H   0  0  0  0  0  0  0  0  0  0  0  0
   -1.7300   21.5317  -28.6411 H   0  0  0  0  0  0  0  0  0  0  0  0
   -3.8530   25.0660  -28.5500 H   0  0  0  0  0  0  0  0  0  0  0  0
   -2.6162   25.0292  -26.0500 H   0  0  0  0  0  0  0  0  0  0  0  0
   -1.3557   24.9587  -27.3279 H   0  0  0  0  0  0  0  0  0  0  0  0
   -2.5612   26.2905  -27.3279 H   0  0  0  0  0  0  0  0  0  0  0  0
   -4.0194   23.8299  -26.0545 H   0  0  0  0  0  0  0  0  0  0  0  0
   -5.2687   23.9756  -27.3369 H   0  0  0  0  0  0  0  0  0  0  0  0
   -4.1405   22.5779  -27.3369 H   0  0  0  0  0  0  0  0  0  0  0  0
   -5.1277   20.0206  -31.8202 H   0  0  0  0  0  0  0  0  0  0  0  0
  1  2  1  0
  2  3  2  0
  3  4  1  0
  4  5  2  0
  5  6  1  0
  6  7  2  0
  7  8  1  0
  8  9  1  0
  8 10  2  0
  7 11  1  0
 11 12  1  0
 12 13  2  0
 12 14  1  0
 14 15  1  0
 15 16  1  0
 16 17  2  0
 16 18  1  0
 18 19  1  0
 18 20  1  0
 11 21  1  0
 21 22  2  0
 22  2  1  0
 21  5  1  0
  1 23  1  0
  1 24  1  0
  1 25  1  0
  3 26  1  0
  4 27  1  0
  6 28  1  0
  9 29  1  0
 15 30  1  0
 15 31  1  0
 18 32  1  0
 19 33  1  0
 19 34  1  0
 19 35  1  0
 20 36  1  0
 20 37  1  0
 20 38  1  0
 22 39  1  0
M  CHG  2   9  -1  18   1
M  END
>  <UniqueID>  (73) 
73

>  <SMILES>  (73) 
Cc1ccc2cc(C([NH-])=O)n(C(=O)OCC(=O)[NH+](C)C)c2c1

>  <Energy>  (73) 
73.8917404041385

>  <Genealogy>  (73) 
Cc1ccc2cc(C([NH-])=O)n(C(=O)OCC(=O)[NH+](C)C)c2c1 (protonated)
Cc1ccc2cc(C([NH-])=O)n(C(=O)OCC(=O)[NH+](C)C)c2c1 (3D coordinates assigned)
Cc1ccc2cc(C([NH-])=O)n(C(=O)OCC(=O)[NH+](C)C)c2c1 (optimized conformer: 73.8917404041385 kcal/mol)

>  <smiles>  (73) 
Cc1ccc2cc(C(N)=O)n(C(=O)OCC(=O)N(C)C)c2c1

>  <score_type>  (73) 
oracle

>  <origin>  (73) 
adg

>  <m_score__min__energy>  (73) 
-9.4100000000000001

>  <m_primary>  (73) 
energy

$$$$
73:0
     RDKit          3D

 38 39  0  0  0  0  0  0  0  0999 V2000
   -2.8510   16.7810  -34.9600 C   0  0  0  0  0  0  0  0  0  0  0  0
   -4.2200   16.9040  -34.5960 O   0  0  0  0  0  0  0  0  0  0  0  0
   -4.9960   15.8090  -34.2030 C   0  0  0  0  0  0  0  0  0  0  0  0
   -4.4890   14.6570  -34.1190 O   0  0  0  0  0  0  0  0  0  0  0  0
   -6.4270   16.0180  -33.8340 C   0  0  0  0  0  0  0  0  0  0  0  0
   -6.6170   17.3900  -33.3580 C   0  0  0  0  0  0  0  0  0  0  0  0
   -6.7700   18.5200  -32.9680 C   0  0  0  0  0  0  0  0  0  0  0  0
   -6.9430   19.8700  -32.5010 C   0  0  0  0  0  0  0  0  0  0  0  0
   -8.2360   20.4410  -32.4610 C   0  0  0  0  0  0  0  0  0  0  0  0
   -8.4190   21.7550  -31.9960 C   0  0  0  0  0  0  0  0  0  0  0  0
   -7.2930   22.4660  -31.5910 C   0  0  0  0  0  0  0  0  0  0  0  0
   -7.1860   23.7380  -31.0780 C   0  0  0  0  0  0  0  0  0  0  0  0
   -5.8260   23.9280  -30.8380 C   0  0  0  0  0  0  0  0  0  0  0  0
   -5.2550   25.2060  -30.3640 C   0  0  0  0  0  0  0  0  0  0  0  0
   -4.0000   25.6750  -30.8500 N   0  0  0  0  0  0  0  0  0  0  0  0
   -5.9070   25.9170  -29.5530 O   0  0  0  0  0  0  0  0  0  0  0  0
   -5.1210   22.8120  -31.1790 N   0  0  0  0  0  0  0  0  0  0  0  0
   -3.7150   22.5720  -31.0120 C   0  0  0  0  0  0  0  0  0  0  0  0
   -3.1300   21.7260  -31.7420 O   0  0  0  0  0  0  0  0  0  0  0  0
   -2.9970   23.3000  -30.0560 O   0  0  0  0  0  0  0  0  0  0  0  0
   -1.6170   23.0750  -29.7760 C   0  0  0  0  0  0  0  0  0  0  0  0
   -0.9730   24.3350  -29.2900 C   0  0  0  0  0  0  0  0  0  0  0  0
   -1.6090   25.4200  -29.3170 O   0  0  0  0  0  0  0  0  0  0  0  0
    0.3180   24.3060  -28.7790 O   0  0  0  0  0  0  0  0  0  0  0  0
   -6.0310   21.9280  -31.6410 C   0  0  0  0  0  0  0  0  0  0  0  0
   -5.8230   20.6160  -32.0820 C   0  0  0  0  0  0  0  0  0  0  0  0
   -2.2336   16.7255  -34.0513 H   0  0  0  0  0  0  0  0  0  0  0  0
   -2.7106   15.8666  -35.5551 H   0  0  0  0  0  0  0  0  0  0  0  0
   -2.5498   17.6557  -35.5551 H   0  0  0  0  0  0  0  0  0  0  0  0
   -7.0613   15.8455  -34.7160 H   0  0  0  0  0  0  0  0  0  0  0  0
   -6.7050   15.3132  -33.0365 H   0  0  0  0  0  0  0  0  0  0  0  0
   -9.1037   19.8536  -32.7957 H   0  0  0  0  0  0  0  0  0  0  0  0
   -9.4209   22.2072  -31.9535 H   0  0  0  0  0  0  0  0  0  0  0  0
   -8.0012   24.4537  -30.8957 H   0  0  0  0  0  0  0  0  0  0  0  0
   -3.1030   25.2960  -30.4740 H   0  0  0  0  0  0  0  0  0  0  0  0
   -1.5258   22.2990  -29.0018 H   0  0  0  0  0  0  0  0  0  0  0  0
   -1.1136   22.7488  -30.6981 H   0  0  0  0  0  0  0  0  0  0  0  0
   -4.8136   20.1793  -32.1010 H   0  0  0  0  0  0  0  0  0  0  0  0
  1  2  1  0
  2  3  1  0
  3  4  2  0
  3  5  1  0
  5  6  1  0
  6  7  3  0
  7  8  1  0
  8  9  2  0
  9 10  1  0
 10 11  2  0
 11 12  1  0
 12 13  2  0
 13 14  1  0
 14 15  1  0
 14 16  2  0
 13 17  1  0
 17 18  1  0
 18 19  2  0
 18 20  1  0
 20 21  1  0
 21 22  1  0
 22 23  2  0
 22 24  1  0
 17 25  1  0
 25 26  2  0
 26  8  1  0
 25 11  1  0
  1 27  1  0
  1 28  1  0
  1 29  1  0
  5 30  1  0
  5 31  1  0
  9 32  1  0
 10 33  1  0
 12 34  1  0
 15 35  1  0
 21 36  1  0
 21 37  1  0
 26 38  1  0
M  CHG  2  15  -1  24  -1
M  END
>  <UniqueID>  (74) 
74

>  <SMILES>  (74) 
COC(=O)CC#Cc1ccc2cc(C([NH-])=O)n(C(=O)OCC(=O)[O-])c2c1

>  <Energy>  (74) 
66.80110784410964

>  <Genealogy>  (74) 
COC(=O)CC#Cc1ccc2cc(C([NH-])=O)n(C(=O)OCC(=O)[O-])c2c1 (protonated)
COC(=O)CC#Cc1ccc2cc(C([NH-])=O)n(C(=O)OCC(=O)[O-])c2c1 (3D coordinates assigned)
COC(=O)CC#Cc1ccc2cc(C([NH-])=O)n(C(=O)OCC(=O)[O-])c2c1 (optimized conformer: 66.80110784410964 kcal/mol)

>  <smiles>  (74) 
COC(=O)CC#Cc1ccc2cc(C(N)=O)n(C(=O)OCC(=O)O)c2c1

>  <score_type>  (74) 
oracle

>  <origin>  (74) 
adg

>  <m_score__min__energy>  (74) 
-12.369999999999999

>  <m_primary>  (74) 
energy

$$$$
74:0
     RDKit          3D

 40 41  0  0  0  0  0  0  0  0999 V2000
   -9.0770   21.2560  -30.9530 C   0  0  0  0  0  0  0  0  0  0  0  0
   -8.2650   20.5080  -31.9190 N   0  0  0  0  0  0  0  0  0  0  0  0
   -8.6600   19.1530  -32.3190 C   0  0  0  0  0  0  0  0  0  0  0  0
   -7.0760   21.1210  -32.4630 C   0  0  0  0  0  0  0  0  0  0  0  0
   -6.7390   22.2740  -32.0760 O   0  0  0  0  0  0  0  0  0  0  0  0
   -6.2090   20.3960  -33.4640 C   0  0  0  0  0  0  0  0  0  0  0  0
   -5.2160   19.5380  -32.7980 N   0  0  0  0  0  0  0  0  0  0  0  0
   -5.5040   18.1040  -32.6700 C   0  0  0  0  0  0  0  0  0  0  0  0
   -4.0010   20.0940  -32.2340 C   0  0  0  0  0  0  0  0  0  0  0  0
   -2.7560   19.4210  -32.3810 C   0  0  0  0  0  0  0  0  0  0  0  0
   -1.5740   19.9600  -31.8500 C   0  0  0  0  0  0  0  0  0  0  0  0
   -1.6540   21.1680  -31.1690 C   0  0  0  0  0  0  0  0  0  0  0  0
   -0.6630   21.9160  -30.5790 C   0  0  0  0  0  0  0  0  0  0  0  0
   -1.3080   23.0350  -30.0540 C   0  0  0  0  0  0  0  0  0  0  0  0
   -0.6310   24.0710  -29.2430 C   0  0  0  0  0  0  0  0  0  0  0  0
   -1.1130   25.4160  -29.2280 N   0  0  0  0  0  0  0  0  0  0  0  0
    0.4000   23.7820  -28.5810 O   0  0  0  0  0  0  0  0  0  0  0  0
   -2.6450   22.9800  -30.3130 N   0  0  0  0  0  0  0  0  0  0  0  0
   -3.6350   23.9740  -29.9990 C   0  0  0  0  0  0  0  0  0  0  0  0
   -4.6410   23.6740  -29.3020 O   0  0  0  0  0  0  0  0  0  0  0  0
   -3.5040   25.2720  -30.4750 O   0  0  0  0  0  0  0  0  0  0  0  0
   -2.8400   21.8300  -30.9980 C   0  0  0  0  0  0  0  0  0  0  0  0
   -4.0320   21.3270  -31.5330 C   0  0  0  0  0  0  0  0  0  0  0  0
   -8.7777   20.9803  -29.9311 H   0  0  0  0  0  0  0  0  0  0  0  0
   -8.9226   22.3349  -31.1018 H   0  0  0  0  0  0  0  0  0  0  0  0
  -10.1396   21.0137  -31.1018 H   0  0  0  0  0  0  0  0  0  0  0  0
   -8.8379   18.5428  -31.4212 H   0  0  0  0  0  0  0  0  0  0  0  0
   -9.5814   19.2014  -32.9179 H   0  0  0  0  0  0  0  0  0  0  0  0
   -7.8569   18.6987  -32.9179 H   0  0  0  0  0  0  0  0  0  0  0  0
   -6.8489   19.7710  -34.1043 H   0  0  0  0  0  0  0  0  0  0  0  0
   -5.6705   21.1468  -34.0610 H   0  0  0  0  0  0  0  0  0  0  0  0
   -5.5581   17.8345  -31.6049 H   0  0  0  0  0  0  0  0  0  0  0  0
   -6.4654   17.8784  -33.1546 H   0  0  0  0  0  0  0  0  0  0  0  0
   -4.7043   17.5247  -33.1546 H   0  0  0  0  0  0  0  0  0  0  0  0
   -2.7194   18.4626  -32.9196 H   0  0  0  0  0  0  0  0  0  0  0  0
   -0.6117   19.4407  -31.9697 H   0  0  0  0  0  0  0  0  0  0  0  0
    0.4107   21.6815  -30.5312 H   0  0  0  0  0  0  0  0  0  0  0  0
   -1.9930   25.6840  -29.7210 H   0  0  0  0  0  0  0  0  0  0  0  0
   -0.6050   26.1480  -28.6830 H   0  0  0  0  0  0  0  0  0  0  0  0
   -4.9762   21.8782  -31.4119 H   0  0  0  0  0  0  0  0  0  0  0  0
  1  2  1  0
  2  3  1  0
  2  4  1  0
  4  5  2  0
  4  6  1  0
  6  7  1  0
  7  8  1  0
  7  9  1  0
  9 10  2  0
 10 11  1  0
 11 12  2  0
 12 13  1  0
 13 14  2  0
 14 15  1  0
 15 16  1  0
 15 17  2  0
 14 18  1  0
 18 19  1  0
 19 20  2  0
 19 21  1  0
 18 22  1  0
 22 23  2  0
 23  9  1  0
 22 12  1  0
  1 24  1  0
  1 25  1  0
  1 26  1  0
  3 27  1  0
  3 28  1  0
  3 29  1  0
  6 30  1  0
  6 31  1  0
  8 32  1  0
  8 33  1  0
  8 34  1  0
 10 35  1  0
 11 36  1  0
 13 37  1  0
 16 38  1  0
 16 39  1  0
 23 40  1  0
M  CHG  1  21  -1
M  END
>  <UniqueID>  (75) 
75

>  <SMILES>  (75) 
CN(C)C(=O)CN(C)c1ccc2cc(C(N)=O)n(C(=O)[O-])c2c1

>  <Energy>  (75) 
78.53985690234146

>  <Genealogy>  (75) 
CN(C)C(=O)CN(C)c1ccc2cc(C(N)=O)n(C(=O)[O-])c2c1 (protonated)
CN(C)C(=O)CN(C)c1ccc2cc(C(N)=O)n(C(=O)[O-])c2c1 (3D coordinates assigned)
CN(C)C(=O)CN(C)c1ccc2cc(C(N)=O)n(C(=O)[O-])c2c1 (optimized conformer: 78.53985690234146 kcal/mol)

>  <smiles>  (75) 
CN(C)C(=O)CN(C)c1ccc2cc(C(N)=O)n(C(=O)O)c2c1

>  <score_type>  (75) 
oracle

>  <origin>  (75) 
adg

>  <m_score__min__energy>  (75) 
-8.8699999999999992

>  <m_primary>  (75) 
energy

$$$$
75:0
     RDKit          3D

 50 52  0  0  0  0  0  0  0  0999 V2000
   -3.7680   22.5630  -28.4770 C   0  0  0  0  0  0  0  0  0  0  0  0
   -3.5740   21.9290  -29.6320 C   0  0  0  0  0  0  0  0  0  0  0  0
   -4.1410   22.4050  -30.9070 C   0  0  0  0  0  0  0  0  0  0  0  0
   -3.4260   22.3740  -31.9430 O   0  0  0  0  0  0  0  0  0  0  0  0
   -5.4960   22.8720  -31.0030 N   0  0  0  0  0  0  0  0  0  0  0  0
   -5.9680   24.1320  -30.7920 C   0  0  0  0  0  0  0  0  0  0  0  0
   -5.1450   25.3170  -30.4750 C   0  0  0  0  0  0  0  0  0  0  0  0
   -3.7230   25.2150  -30.4770 N   0  0  0  0  0  0  0  0  0  0  0  0
   -5.6840   26.4180  -30.1860 O   0  0  0  0  0  0  0  0  0  0  0  0
   -7.3500   24.1680  -30.9680 C   0  0  0  0  0  0  0  0  0  0  0  0
   -7.7090   22.8820  -31.3060 C   0  0  0  0  0  0  0  0  0  0  0  0
   -8.9610   22.3430  -31.5880 C   0  0  0  0  0  0  0  0  0  0  0  0
   -9.0330   20.9730  -31.8950 C   0  0  0  0  0  0  0  0  0  0  0  0
   -7.8610   20.1770  -31.9240 C   0  0  0  0  0  0  0  0  0  0  0  0
   -7.9560   18.7020  -32.2120 C   0  0  0  0  0  0  0  0  0  0  0  0
   -6.5740   18.1140  -32.4860 C   0  0  0  0  0  0  0  0  0  0  0  0
   -6.4970   17.7360  -33.8450 O   0  0  0  0  0  0  0  0  0  0  0  0
   -5.4590   18.4420  -34.5060 C   0  0  1  0  0  0  0  0  0  0  0  0
   -4.6660   19.2950  -33.4890 C   0  0  0  0  0  0  0  0  0  0  0  0
   -3.1800   19.3470  -33.8320 C   0  0  0  0  0  0  0  0  0  0  0  0
   -2.5700   17.9320  -33.8380 C   0  0  0  0  0  0  0  0  0  0  0  0
   -3.4700   16.8880  -34.3940 N   0  0  0  0  0  0  0  0  0  0  0  0
   -3.9710   15.9670  -33.3600 C   0  0  0  0  0  0  0  0  0  0  0  0
   -4.5550   17.4240  -35.2430 C   0  0  0  0  0  0  0  0  0  0  0  0
   -6.6090   20.7580  -31.6220 C   0  0  0  0  0  0  0  0  0  0  0  0
   -6.5700   22.1220  -31.3250 C   0  0  0  0  0  0  0  0  0  0  0  0
   -3.3236   22.1682  -27.5514 H   0  0  0  0  0  0  0  0  0  0  0  0
   -4.3726   23.4815  -28.4486 H   0  0  0  0  0  0  0  0  0  0  0  0
   -2.9657   21.0125  -29.6348 H   0  0  0  0  0  0  0  0  0  0  0  0
   -3.1530   25.6720  -31.2240 H   0  0  0  0  0  0  0  0  0  0  0  0
   -8.0134   25.0388  -30.8599 H   0  0  0  0  0  0  0  0  0  0  0  0
   -9.8653   22.9691  -31.5712 H   0  0  0  0  0  0  0  0  0  0  0  0
  -10.0084   20.5145  -32.1148 H   0  0  0  0  0  0  0  0  0  0  0  0
   -8.3991   18.1926  -31.3436 H   0  0  0  0  0  0  0  0  0  0  0  0
   -8.5847   18.5560  -33.1028 H   0  0  0  0  0  0  0  0  0  0  0  0
   -5.8027   18.8675  -32.2684 H   0  0  0  0  0  0  0  0  0  0  0  0
   -6.4102   17.2348  -31.8455 H   0  0  0  0  0  0  0  0  0  0  0  0
   -5.8785   19.1353  -35.2499 H   0  0  0  0  0  0  0  0  0  0  0  0
   -5.0684   20.3187  -33.4921 H   0  0  0  0  0  0  0  0  0  0  0  0
   -4.7726   18.8321  -32.4968 H   0  0  0  0  0  0  0  0  0  0  0  0
   -3.0553   19.7977  -34.8276 H   0  0  0  0  0  0  0  0  0  0  0  0
   -2.6634   19.9504  -33.0711 H   0  0  0  0  0  0  0  0  0  0  0  0
   -1.6511   17.9540  -34.4422 H   0  0  0  0  0  0  0  0  0  0  0  0
   -2.3805   17.6627  -32.7884 H   0  0  0  0  0  0  0  0  0  0  0  0
   -3.7478   16.3774  -32.3641 H   0  0  0  0  0  0  0  0  0  0  0  0
   -5.0587   15.8470  -33.4717 H   0  0  0  0  0  0  0  0  0  0  0  0
   -3.4808   14.9886  -33.4717 H   0  0  0  0  0  0  0  0  0  0  0  0
   -4.1039   17.9229  -36.1134 H   0  0  0  0  0  0  0  0  0  0  0  0
   -5.1901   16.5753  -35.5368 H   0  0  0  0  0  0  0  0  0  0  0  0
   -5.6905   20.1527  -31.6209 H   0  0  0  0  0  0  0  0  0  0  0  0
  1  2  2  0
  2  3  1  0
  3  4  2  0
  3  5  1  0
  5  6  1  0
  6  7  1  0
  7  8  1  0
  7  9  2  0
  6 10  2  0
 10 11  1  0
 11 12  2  0
 12 13  1  0
 13 14  2  0
 14 15  1  0
 15 16  1  0
 16 17  1  0
 17 18  1  0
 18 19  1  0
 19 20  1  0
 20 21  1  0
 21 22  1  0
 22 23  1  0
 22 24  1  0
 14 25  1  0
 25 26  2  0
 26  5  1  0
 26 11  1  0
 24 18  1  0
  1 27  1  0
  1 28  1  0
  2 29  1  0
  8 30  1  0
 10 31  1  0
 12 32  1  0
 13 33  1  0
 15 34  1  0
 15 35  1  0
 16 36  1  0
 16 37  1  0
 18 38  1  6
 19 39  1  0
 19 40  1  0
 20 41  1  0
 20 42  1  0
 21 43  1  0
 21 44  1  0
 23 45  1  0
 23 46  1  0
 23 47  1  0
 24 48  1  0
 24 49  1  0
 25 50  1  0
M  CHG  1   8  -1
M  END
>  <UniqueID>  (76) 
76

>  <SMILES>  (76) 
C=CC(=O)n1c(C([NH-])=O)cc2ccc(CCO[C@H]3CCCN(C)C3)cc21

>  <Energy>  (76) 
96.89287145476558

>  <Genealogy>  (76) 
C=CC(=O)n1c(C([NH-])=O)cc2ccc(CCOC3CCCN(C)C3)cc21 (protonated)
C=CC(=O)n1c(C([NH-])=O)cc2ccc(CCO[C@H]3CCCN(C)C3)cc21 (chirality)
C=CC(=O)n1c(C([NH-])=O)cc2ccc(CCO[C@H]3CCCN(C)C3)cc21 (3D coordinates assigned)
C=CC(=O)n1c(C([NH-])=O)cc2ccc(CCO[C@H]3CCCN(C)C3)cc21 (nonaromatic ring conformer: 96.89287145476558 kcal/mol)

>  <smiles>  (76) 
C=CC(=O)n1c(C(N)=O)cc2ccc(CCOC3CCCN(C)C3)cc21

>  <score_type>  (76) 
oracle

>  <origin>  (76) 
adg

>  <m_score__min__energy>  (76) 
-11.31

>  <m_primary>  (76) 
energy

$$$$
76:0
     RDKit          3D

 40 41  0  0  0  0  0  0  0  0999 V2000
   -6.1640   17.3770  -31.5890 C   0  0  0  0  0  0  0  0  0  0  0  0
   -6.7120   18.2080  -32.7440 C   0  0  0  0  0  0  0  0  0  0  0  0
   -6.9710   19.6240  -32.3060 C   0  0  0  0  0  0  0  0  0  0  0  0
   -8.2930   20.1320  -32.2910 C   0  0  0  0  0  0  0  0  0  0  0  0
   -8.5440   21.4580  -31.9010 C   0  0  0  0  0  0  0  0  0  0  0  0
   -7.4580   22.2530  -31.5530 C   0  0  0  0  0  0  0  0  0  0  0  0
   -7.4220   23.5560  -31.1100 C   0  0  0  0  0  0  0  0  0  0  0  0
   -6.0750   23.8370  -30.9030 C   0  0  0  0  0  0  0  0  0  0  0  0
   -5.5770   25.1600  -30.4770 C   0  0  0  0  0  0  0  0  0  0  0  0
   -4.2110   25.5290  -30.6610 N   0  0  0  0  0  0  0  0  0  0  0  0
   -6.3830   25.9970  -29.9890 O   0  0  0  0  0  0  0  0  0  0  0  0
   -5.3050   22.7500  -31.1930 N   0  0  0  0  0  0  0  0  0  0  0  0
   -3.8890   22.6110  -30.9850 C   0  0  0  0  0  0  0  0  0  0  0  0
   -3.0880   22.9020  -31.9140 O   0  0  0  0  0  0  0  0  0  0  0  0
   -3.4180   22.1460  -29.7480 O   0  0  0  0  0  0  0  0  0  0  0  0
   -2.8740   22.9430  -28.6830 C   0  0  0  0  0  0  0  0  0  0  0  0
   -3.9990   23.7050  -27.9590 C   0  0  0  0  0  0  0  0  0  0  0  0
   -2.0860   22.0610  -27.6970 C   0  0  0  0  0  0  0  0  0  0  0  0
   -1.9200   23.9450  -29.2880 C   0  0  0  0  0  0  0  0  0  0  0  0
   -0.7930   23.5790  -29.7170 O   0  0  0  0  0  0  0  0  0  0  0  0
   -2.2640   25.2910  -29.3530 O   0  0  0  0  0  0  0  0  0  0  0  0
   -6.1670   21.7880  -31.5920 C   0  0  0  0  0  0  0  0  0  0  0  0
   -5.8890   20.4640  -31.9550 C   0  0  0  0  0  0  0  0  0  0  0  0
   -6.4647   17.8330  -30.6342 H   0  0  0  0  0  0  0  0  0  0  0  0
   -6.5658   16.3548  -31.6498 H   0  0  0  0  0  0  0  0  0  0  0  0
   -5.0662   17.3437  -31.6498 H   0  0  0  0  0  0  0  0  0  0  0  0
   -5.9796   18.2124  -33.5647 H   0  0  0  0  0  0  0  0  0  0  0  0
   -7.6603   17.7633  -33.0802 H   0  0  0  0  0  0  0  0  0  0  0  0
   -9.1302   19.4828  -32.5872 H   0  0  0  0  0  0  0  0  0  0  0  0
   -9.5693   21.8554  -31.8718 H   0  0  0  0  0  0  0  0  0  0  0  0
   -8.2761   24.2312  -30.9531 H   0  0  0  0  0  0  0  0  0  0  0  0
   -3.5600   24.9270  -31.2130 H   0  0  0  0  0  0  0  0  0  0  0  0
   -3.8640   26.4490  -30.3100 H   0  0  0  0  0  0  0  0  0  0  0  0
   -3.8631   23.6130  -26.8713 H   0  0  0  0  0  0  0  0  0  0  0  0
   -3.9651   24.7668  -28.2442 H   0  0  0  0  0  0  0  0  0  0  0  0
   -4.9725   23.2796  -28.2442 H   0  0  0  0  0  0  0  0  0  0  0  0
   -2.3408   22.3462  -26.6656 H   0  0  0  0  0  0  0  0  0  0  0  0
   -2.3469   21.0050  -27.8605 H   0  0  0  0  0  0  0  0  0  0  0  0
   -1.0074   22.2018  -27.8605 H   0  0  0  0  0  0  0  0  0  0  0  0
   -4.8556   20.0874  -31.9667 H   0  0  0  0  0  0  0  0  0  0  0  0
  1  2  1  0
  2  3  1  0
  3  4  2  0
  4  5  1  0
  5  6  2  0
  6  7  1  0
  7  8  2  0
  8  9  1  0
  9 10  1  0
  9 11  2  0
  8 12  1  0
 12 13  1  0
 13 14  2  0
 13 15  1  0
 15 16  1  0
 16 17  1  0
 16 18  1  0
 16 19  1  0
 19 20  2  0
 19 21  1  0
 12 22  1  0
 22 23  2  0
 23  3  1  0
 22  6  1  0
  1 24  1  0
  1 25  1  0
  1 26  1  0
  2 27  1  0
  2 28  1  0
  4 29  1  0
  5 30  1  0
  7 31  1  0
 10 32  1  0
 10 33  1  0
 17 34  1  0
 17 35  1  0
 17 36  1  0
 18 37  1  0
 18 38  1  0
 18 39  1  0
 23 40  1  0
M  CHG  1  21  -1
M  END
>  <UniqueID>  (77) 
77

>  <SMILES>  (77) 
CCc1ccc2cc(C(N)=O)n(C(=O)OC(C)(C)C(=O)[O-])c2c1

>  <Energy>  (77) 
73.30325461280552

>  <Genealogy>  (77) 
CCc1ccc2cc(C(N)=O)n(C(=O)OC(C)(C)C(=O)[O-])c2c1 (protonated)
CCc1ccc2cc(C(N)=O)n(C(=O)OC(C)(C)C(=O)[O-])c2c1 (3D coordinates assigned)
CCc1ccc2cc(C(N)=O)n(C(=O)OC(C)(C)C(=O)[O-])c2c1 (optimized conformer: 73.30325461280552 kcal/mol)

>  <smiles>  (77) 
CCc1ccc2cc(C(N)=O)n(C(=O)OC(C)(C)C(=O)O)c2c1

>  <score_type>  (77) 
oracle

>  <origin>  (77) 
adg

>  <m_score__min__energy>  (77) 
-11.710000000000001

>  <m_primary>  (77) 
energy

$$$$
77:0
     RDKit          3D

 43 45  0  0  0  0  0  0  0  0999 V2000
   -6.2190   17.1130  -31.5600 C   0  0  0  0  0  0  0  0  0  0  0  0
   -6.3480   18.1280  -32.6160 N   0  0  0  0  0  0  0  0  0  0  0  0
   -6.1190   17.7100  -34.0090 C   0  0  0  0  0  0  0  0  0  0  0  0
   -6.1150   16.2150  -34.1180 C   0  0  0  0  0  0  0  0  0  0  0  0
   -4.9960   15.4060  -34.1410 C   0  0  0  0  0  0  0  0  0  0  0  0
   -5.4720   14.1180  -34.2500 C   0  0  0  0  0  0  0  0  0  0  0  0
   -6.8480   14.2200  -34.2830 C   0  0  0  0  0  0  0  0  0  0  0  0
   -7.2010   15.4810  -34.2000 O   0  0  0  0  0  0  0  0  0  0  0  0
   -6.6680   19.5060  -32.2750 C   0  0  0  0  0  0  0  0  0  0  0  0
   -8.0030   19.9960  -32.3670 C   0  0  0  0  0  0  0  0  0  0  0  0
   -8.3180   21.3220  -32.0260 C   0  0  0  0  0  0  0  0  0  0  0  0
   -7.2860   22.1510  -31.6040 C   0  0  0  0  0  0  0  0  0  0  0  0
   -7.3170   23.4640  -31.1940 C   0  0  0  0  0  0  0  0  0  0  0  0
   -5.9980   23.7840  -30.8780 C   0  0  0  0  0  0  0  0  0  0  0  0
   -5.5480   25.1330  -30.4710 C   0  0  0  0  0  0  0  0  0  0  0  0
   -4.1980   25.5500  -30.6880 N   0  0  0  0  0  0  0  0  0  0  0  0
   -6.3470   25.9220  -29.8990 O   0  0  0  0  0  0  0  0  0  0  0  0
   -5.1880   22.7080  -31.0860 N   0  0  0  0  0  0  0  0  0  0  0  0
   -3.7750   22.6100  -30.8390 C   0  0  0  0  0  0  0  0  0  0  0  0
   -2.9550   22.8910  -31.7540 O   0  0  0  0  0  0  0  0  0  0  0  0
   -3.3200   22.2140  -29.5760 O   0  0  0  0  0  0  0  0  0  0  0  0
   -2.9220   23.1350  -28.5630 C   0  0  0  0  0  0  0  0  0  0  0  0
   -1.9320   24.1090  -29.1140 C   0  0  0  0  0  0  0  0  0  0  0  0
   -2.2790   25.2910  -29.3730 O   0  0  0  0  0  0  0  0  0  0  0  0
   -0.6130   23.7200  -29.3080 O   0  0  0  0  0  0  0  0  0  0  0  0
   -5.9920   21.7170  -31.5290 C   0  0  0  0  0  0  0  0  0  0  0  0
   -5.6500   20.3970  -31.8390 C   0  0  0  0  0  0  0  0  0  0  0  0
   -6.2807   17.5988  -30.5750 H   0  0  0  0  0  0  0  0  0  0  0  0
   -7.0309   16.3772  -31.6575 H   0  0  0  0  0  0  0  0  0  0  0  0
   -5.2489   16.6037  -31.6575 H   0  0  0  0  0  0  0  0  0  0  0  0
   -6.9195   18.1165  -34.6446 H   0  0  0  0  0  0  0  0  0  0  0  0
   -5.1411   18.0919  -34.3373 H   0  0  0  0  0  0  0  0  0  0  0  0
   -3.9444   15.7237  -34.0842 H   0  0  0  0  0  0  0  0  0  0  0  0
   -4.8760   13.1948  -34.3005 H   0  0  0  0  0  0  0  0  0  0  0  0
   -7.5438   13.3721  -34.3663 H   0  0  0  0  0  0  0  0  0  0  0  0
   -8.8021   19.3232  -32.7116 H   0  0  0  0  0  0  0  0  0  0  0  0
   -9.3515   21.6930  -32.0912 H   0  0  0  0  0  0  0  0  0  0  0  0
   -8.1964   24.1216  -31.1294 H   0  0  0  0  0  0  0  0  0  0  0  0
   -3.5220   24.9500  -31.2100 H   0  0  0  0  0  0  0  0  0  0  0  0
   -3.8820   26.4890  -30.3600 H   0  0  0  0  0  0  0  0  0  0  0  0
   -3.8055   23.6805  -28.1999 H   0  0  0  0  0  0  0  0  0  0  0  0
   -2.4578   22.5800  -27.7344 H   0  0  0  0  0  0  0  0  0  0  0  0
   -4.6091   20.0535  -31.7468 H   0  0  0  0  0  0  0  0  0  0  0  0
  1  2  1  0
  2  3  1  0
  3  4  1  0
  4  5  2  0
  5  6  1  0
  6  7  2  0
  7  8  1  0
  2  9  1  0
  9 10  2  0
 10 11  1  0
 11 12  2  0
 12 13  1  0
 13 14  2  0
 14 15  1  0
 15 16  1  0
 15 17  2  0
 14 18  1  0
 18 19  1  0
 19 20  2  0
 19 21  1  0
 21 22  1  0
 22 23  1  0
 23 24  2  0
 23 25  1  0
 18 26  1  0
 26 27  2  0
  8  4  1  0
 27  9  1  0
 26 12  1  0
  1 28  1  0
  1 29  1  0
  1 30  1  0
  3 31  1  0
  3 32  1  0
  5 33  1  0
  6 34  1  0
  7 35  1  0
 10 36  1  0
 11 37  1  0
 13 38  1  0
 16 39  1  0
 16 40  1  0
 22 41  1  0
 22 42  1  0
 27 43  1  0
M  CHG  1  25  -1
M  END
>  <UniqueID>  (78) 
78

>  <SMILES>  (78) 
CN(Cc1ccco1)c1ccc2cc(C(N)=O)n(C(=O)OCC(=O)[O-])c2c1

>  <Energy>  (78) 
108.07395851480088

>  <Genealogy>  (78) 
CN(Cc1ccco1)c1ccc2cc(C(N)=O)n(C(=O)OCC(=O)[O-])c2c1 (protonated)
CN(Cc1ccco1)c1ccc2cc(C(N)=O)n(C(=O)OCC(=O)[O-])c2c1 (3D coordinates assigned)
CN(Cc1ccco1)c1ccc2cc(C(N)=O)n(C(=O)OCC(=O)[O-])c2c1 (optimized conformer: 108.07395851480088 kcal/mol)

>  <smiles>  (78) 
CN(Cc1ccco1)c1ccc2cc(C(N)=O)n(C(=O)OCC(=O)O)c2c1

>  <score_type>  (78) 
oracle

>  <origin>  (78) 
adg

>  <m_score__min__energy>  (78) 
-10.539999999999999

>  <m_primary>  (78) 
energy

$$$$
78:0
     RDKit          3D

 40 41  0  0  0  0  0  0  0  0999 V2000
   -2.4470   25.2280  -26.5300 C   0  0  0  0  0  0  0  0  0  0  0  0
   -3.7050   24.5240  -27.0240 C   0  0  0  0  0  0  0  0  0  0  0  0
   -3.5700   24.1580  -28.3950 O   0  0  0  0  0  0  0  0  0  0  0  0
   -2.4570   23.4780  -28.9060 C   0  0  0  0  0  0  0  0  0  0  0  0
   -1.4230   24.1080  -29.2590 O   0  0  0  0  0  0  0  0  0  0  0  0
   -2.4850   21.9840  -28.9950 C   0  0  1  0  0  0  0  0  0  0  0  0
   -2.9070   21.3960  -27.6480 C   0  0  0  0  0  0  0  0  0  0  0  0
   -3.4050   21.6010  -30.0160 O   0  0  0  0  0  0  0  0  0  0  0  0
   -3.8870   22.4770  -30.9960 C   0  0  0  0  0  0  0  0  0  0  0  0
   -3.0910   23.0330  -31.8020 O   0  0  0  0  0  0  0  0  0  0  0  0
   -5.2930   22.7670  -31.0630 N   0  0  0  0  0  0  0  0  0  0  0  0
   -5.8970   23.9810  -30.9260 C   0  0  0  0  0  0  0  0  0  0  0  0
   -5.2380   25.2380  -30.5180 C   0  0  0  0  0  0  0  0  0  0  0  0
   -3.8650   25.4550  -30.8340 N   0  0  0  0  0  0  0  0  0  0  0  0
   -5.8850   26.1430  -29.9250 O   0  0  0  0  0  0  0  0  0  0  0  0
   -7.2680   23.8720  -31.1480 C   0  0  0  0  0  0  0  0  0  0  0  0
   -7.4890   22.5420  -31.4210 C   0  0  0  0  0  0  0  0  0  0  0  0
   -8.6730   21.8770  -31.7290 C   0  0  0  0  0  0  0  0  0  0  0  0
   -8.6040   20.5000  -31.9970 C   0  0  0  0  0  0  0  0  0  0  0  0
   -7.3620   19.8190  -31.9600 C   0  0  0  0  0  0  0  0  0  0  0  0
   -7.3080   18.3490  -32.2680 C   0  0  0  0  0  0  0  0  0  0  0  0
   -8.5640   17.7920  -32.1070 F   0  0  0  0  0  0  0  0  0  0  0  0
   -6.8900   18.1630  -33.5730 F   0  0  0  0  0  0  0  0  0  0  0  0
   -6.1810   20.5280  -31.6460 C   0  0  0  0  0  0  0  0  0  0  0  0
   -6.2820   21.8960  -31.3640 C   0  0  0  0  0  0  0  0  0  0  0  0
   -2.4377   25.2332  -25.4301 H   0  0  0  0  0  0  0  0  0  0  0  0
   -1.5590   24.6957  -26.9017 H   0  0  0  0  0  0  0  0  0  0  0  0
   -2.4362   26.2632  -26.9017 H   0  0  0  0  0  0  0  0  0  0  0  0
   -3.8719   23.6181  -26.4228 H   0  0  0  0  0  0  0  0  0  0  0  0
   -4.5584   25.2107  -26.9228 H   0  0  0  0  0  0  0  0  0  0  0  0
   -1.4843   21.6012  -29.2443 H   0  0  0  0  0  0  0  0  0  0  0  0
   -2.4755   21.9972  -26.8341 H   0  0  0  0  0  0  0  0  0  0  0  0
   -4.0042   21.4076  -27.5704 H   0  0  0  0  0  0  0  0  0  0  0  0
   -2.5449   20.3602  -27.5704 H   0  0  0  0  0  0  0  0  0  0  0  0
   -3.1240   24.8100  -30.4800 H   0  0  0  0  0  0  0  0  0  0  0  0
   -8.0153   24.6784  -31.1125 H   0  0  0  0  0  0  0  0  0  0  0  0
   -9.6327   22.4135  -31.7614 H   0  0  0  0  0  0  0  0  0  0  0  0
   -9.5227   19.9451  -32.2379 H   0  0  0  0  0  0  0  0  0  0  0  0
   -6.5999   17.8623  -31.5811 H   0  0  0  0  0  0  0  0  0  0  0  0
   -5.2065   20.0182  -31.6236 H   0  0  0  0  0  0  0  0  0  0  0  0
  1  2  1  0
  2  3  1  0
  3  4  1  0
  4  5  2  0
  4  6  1  0
  6  7  1  0
  6  8  1  0
  8  9  1  0
  9 10  2  0
  9 11  1  0
 11 12  1  0
 12 13  1  0
 13 14  1  0
 13 15  2  0
 12 16  2  0
 16 17  1  0
 17 18  2  0
 18 19  1  0
 19 20  2  0
 20 21  1  0
 21 22  1  0
 21 23  1  0
 20 24  1  0
 24 25  2  0
 25 11  1  0
 25 17  1  0
  1 26  1  0
  1 27  1  0
  1 28  1  0
  2 29  1  0
  2 30  1  0
  6 31  1  6
  7 32  1  0
  7 33  1  0
  7 34  1  0
 14 35  1  0
 16 36  1  0
 18 37  1  0
 19 38  1  0
 21 39  1  0
 24 40  1  0
M  CHG  1  14  -1
M  END
>  <UniqueID>  (79) 
79

>  <SMILES>  (79) 
CCOC(=O)[C@@H](C)OC(=O)n1c(C([NH-])=O)cc2ccc(C(F)F)cc21

>  <Energy>  (79) 
69.34999852929715

>  <Genealogy>  (79) 
CCOC(=O)C(C)OC(=O)n1c(C([NH-])=O)cc2ccc(C(F)F)cc21 (protonated)
CCOC(=O)[C@@H](C)OC(=O)n1c(C([NH-])=O)cc2ccc(C(F)F)cc21 (chirality)
CCOC(=O)[C@@H](C)OC(=O)n1c(C([NH-])=O)cc2ccc(C(F)F)cc21 (3D coordinates assigned)
CCOC(=O)[C@@H](C)OC(=O)n1c(C([NH-])=O)cc2ccc(C(F)F)cc21 (optimized conformer: 69.34999852929715 kcal/mol)

>  <smiles>  (79) 
CCOC(=O)C(C)OC(=O)n1c(C(N)=O)cc2ccc(C(F)F)cc21

>  <score_type>  (79) 
oracle

>  <origin>  (79) 
adg

>  <m_score__min__energy>  (79) 
-10.220000000000001

>  <m_primary>  (79) 
energy

$$$$
79:0
     RDKit          3D

 50 51  0  0  0  0  0  0  0  0999 V2000
   -2.9440   19.1080  -33.8750 C   0  0  0  0  0  0  0  0  0  0  0  0
   -3.4000   17.8900  -34.5480 N   0  0  0  0  0  0  0  0  0  0  0  0
   -3.2650   16.7070  -33.6850 C   0  0  0  0  0  0  0  0  0  0  0  0
   -4.4100   15.7100  -33.9090 C   0  0  0  0  0  0  0  0  0  0  0  0
   -5.4890   16.3320  -34.5770 O   0  0  0  0  0  0  0  0  0  0  0  0
   -6.7190   16.0020  -33.9660 C   0  0  0  0  0  0  0  0  0  0  0  0
   -7.2020   17.1700  -33.1040 C   0  0  0  0  0  0  0  0  0  0  0  0
   -6.2410   18.2750  -33.1280 N   0  0  0  0  0  0  0  0  0  0  0  0
   -6.4510   19.5670  -32.5260 C   0  0  0  0  0  0  0  0  0  0  0  0
   -7.7610   19.9350  -32.1330 C   0  0  0  0  0  0  0  0  0  0  0  0
   -8.0090   21.1720  -31.5180 C   0  0  0  0  0  0  0  0  0  0  0  0
   -6.9330   22.0290  -31.3180 C   0  0  0  0  0  0  0  0  0  0  0  0
   -6.8880   23.2600  -30.7090 C   0  0  0  0  0  0  0  0  0  0  0  0
   -5.5510   23.6490  -30.7620 C   0  0  0  0  0  0  0  0  0  0  0  0
   -5.0700   24.9620  -30.2880 C   0  0  0  0  0  0  0  0  0  0  0  0
   -3.8880   25.5310  -30.8500 N   0  0  0  0  0  0  0  0  0  0  0  0
   -5.6640   25.5700  -29.3580 O   0  0  0  0  0  0  0  0  0  0  0  0
   -4.7960   22.6880  -31.3710 N   0  0  0  0  0  0  0  0  0  0  0  0
   -3.3660   22.6530  -31.5190 C   0  0  0  0  0  0  0  0  0  0  0  0
   -2.8500   22.1790  -32.5680 O   0  0  0  0  0  0  0  0  0  0  0  0
   -2.5520   23.1810  -30.5150 O   0  0  0  0  0  0  0  0  0  0  0  0
   -2.7880   22.9620  -29.1290 C   0  0  0  0  0  0  0  0  0  0  0  0
   -2.5300   24.2490  -28.3490 C   0  0  0  0  0  0  0  0  0  0  0  0
   -1.2410   24.8840  -28.7680 C   0  0  0  0  0  0  0  0  0  0  0  0
   -1.2410   26.0210  -29.3080 O   0  0  0  0  0  0  0  0  0  0  0  0
   -0.0360   24.2390  -28.5180 O   0  0  0  0  0  0  0  0  0  0  0  0
   -5.6610   21.7070  -31.7140 C   0  0  0  0  0  0  0  0  0  0  0  0
   -5.3850   20.4770  -32.3230 C   0  0  0  0  0  0  0  0  0  0  0  0
   -2.9969   18.9666  -32.7854 H   0  0  0  0  0  0  0  0  0  0  0  0
   -1.9051   19.3213  -34.1670 H   0  0  0  0  0  0  0  0  0  0  0  0
   -3.5874   19.9511  -34.1670 H   0  0  0  0  0  0  0  0  0  0  0  0
   -4.4190   18.0150  -34.7580 H   0  0  0  0  0  0  0  0  0  0  0  0
   -2.3097   16.2094  -33.9084 H   0  0  0  0  0  0  0  0  0  0  0  0
   -3.2992   17.0401  -32.6372 H   0  0  0  0  0  0  0  0  0  0  0  0
   -4.0439   14.8702  -34.5179 H   0  0  0  0  0  0  0  0  0  0  0  0
   -4.7603   15.3475  -32.9313 H   0  0  0  0  0  0  0  0  0  0  0  0
   -7.4671   15.7889  -34.7438 H   0  0  0  0  0  0  0  0  0  0  0  0
   -6.5811   15.1152  -33.3299 H   0  0  0  0  0  0  0  0  0  0  0  0
   -8.1686   17.5259  -33.4901 H   0  0  0  0  0  0  0  0  0  0  0  0
   -7.3058   16.8194  -32.0666 H   0  0  0  0  0  0  0  0  0  0  0  0
   -5.3630   18.1260  -33.6770 H   0  0  0  0  0  0  0  0  0  0  0  0
   -8.5958   19.2415  -32.3123 H   0  0  0  0  0  0  0  0  0  0  0  0
   -9.0245   21.4548  -31.2037 H   0  0  0  0  0  0  0  0  0  0  0  0
   -7.7286   23.8193  -30.2725 H   0  0  0  0  0  0  0  0  0  0  0  0
   -2.9450   25.2980  -30.4660 H   0  0  0  0  0  0  0  0  0  0  0  0
   -3.8322   22.6492  -28.9816 H   0  0  0  0  0  0  0  0  0  0  0  0
   -2.1099   22.1758  -28.7656 H   0  0  0  0  0  0  0  0  0  0  0  0
   -3.3544   24.9531  -28.5349 H   0  0  0  0  0  0  0  0  0  0  0  0
   -2.4662   24.0021  -27.2790 H   0  0  0  0  0  0  0  0  0  0  0  0
   -4.3619   20.2228  -32.6372 H   0  0  0  0  0  0  0  0  0  0  0  0
  1  2  1  0
  2  3  1  0
  3  4  1  0
  4  5  1  0
  5  6  1  0
  6  7  1  0
  7  8  1  0
  8  9  1  0
  9 10  2  0
 10 11  1  0
 11 12  2  0
 12 13  1  0
 13 14  2  0
 14 15  1  0
 15 16  1  0
 15 17  2  0
 14 18  1  0
 18 19  1  0
 19 20  2  0
 19 21  1  0
 21 22  1  0
 22 23  1  0
 23 24  1  0
 24 25  2  0
 24 26  1  0
 18 27  1  0
 27 28  2  0
 28  9  1  0
 27 12  1  0
  1 29  1  0
  1 30  1  0
  1 31  1  0
  2 32  1  0
  3 33  1  0
  3 34  1  0
  4 35  1  0
  4 36  1  0
  6 37  1  0
  6 38  1  0
  7 39  1  0
  7 40  1  0
  8 41  1  0
 10 42  1  0
 11 43  1  0
 13 44  1  0
 16 45  1  0
 22 46  1  0
 22 47  1  0
 23 48  1  0
 23 49  1  0
 28 50  1  0
M  CHG  2  16  -1  26  -1
M  END
>  <UniqueID>  (80) 
80

>  <SMILES>  (80) 
CNCCOCCNc1ccc2cc(C([NH-])=O)n(C(=O)OCCC(=O)[O-])c2c1

>  <Energy>  (80) 
76.60924116451663

>  <Genealogy>  (80) 
CNCCOCCNc1ccc2cc(C([NH-])=O)n(C(=O)OCCC(=O)[O-])c2c1 (protonated)
CNCCOCCNc1ccc2cc(C([NH-])=O)n(C(=O)OCCC(=O)[O-])c2c1 (3D coordinates assigned)
CNCCOCCNc1ccc2cc(C([NH-])=O)n(C(=O)OCCC(=O)[O-])c2c1 (optimized conformer: 76.60924116451663 kcal/mol)

>  <smiles>  (80) 
CNCCOCCNc1ccc2cc(C(N)=O)n(C(=O)OCCC(=O)O)c2c1

>  <score_type>  (80) 
oracle

>  <origin>  (80) 
adg

>  <m_score__min__energy>  (80) 
-12.15

>  <m_primary>  (80) 
energy

$$$$
80:0
     RDKit          3D

 40 41  0  0  0  0  0  0  0  0999 V2000
   -3.8110   25.2970  -30.7080 N   0  0  0  0  0  0  0  0  0  0  0  0
   -5.2300   25.2460  -30.5740 C   0  0  0  0  0  0  0  0  0  0  0  0
   -5.8410   26.2470  -30.1150 O   0  0  0  0  0  0  0  0  0  0  0  0
   -5.9680   24.0390  -30.9990 C   0  0  0  0  0  0  0  0  0  0  0  0
   -7.3590   23.9500  -31.0230 C   0  0  0  0  0  0  0  0  0  0  0  0
   -7.6350   22.6510  -31.3870 C   0  0  0  0  0  0  0  0  0  0  0  0
   -8.8580   22.0100  -31.5680 C   0  0  0  0  0  0  0  0  0  0  0  0
   -8.8410   20.6590  -31.9570 C   0  0  0  0  0  0  0  0  0  0  0  0
   -7.6130   19.9800  -32.1600 C   0  0  0  0  0  0  0  0  0  0  0  0
   -7.6190   18.5400  -32.5850 C   0  0  0  0  0  0  0  0  0  0  0  0
   -6.4240   17.9430  -32.2250 F   0  0  0  0  0  0  0  0  0  0  0  0
   -8.6640   17.8770  -31.9690 F   0  0  0  0  0  0  0  0  0  0  0  0
   -6.3920   20.6650  -31.9670 C   0  0  0  0  0  0  0  0  0  0  0  0
   -6.4410   22.0050  -31.5710 C   0  0  0  0  0  0  0  0  0  0  0  0
   -5.4100   22.8450  -31.3440 N   0  0  0  0  0  0  0  0  0  0  0  0
   -4.0160   22.5230  -31.4780 C   0  0  0  0  0  0  0  0  0  0  0  0
   -3.5270   22.3400  -32.6250 O   0  0  0  0  0  0  0  0  0  0  0  0
   -3.1430   22.4510  -30.2990 C   0  0  0  0  0  0  0  0  0  0  0  0
   -2.0770   23.1260  -30.2600 O   0  0  0  0  0  0  0  0  0  0  0  0
   -3.4960   21.6230  -29.2300 O   0  0  0  0  0  0  0  0  0  0  0  0
   -3.2170   21.9560  -27.8750 C   0  0  0  0  0  0  0  0  0  0  0  0
   -3.0980   23.4370  -27.7480 C   0  0  0  0  0  0  0  0  0  0  0  0
   -4.0610   24.1740  -28.0970 O   0  0  0  0  0  0  0  0  0  0  0  0
   -1.9010   23.9910  -27.2830 O   0  0  0  0  0  0  0  0  0  0  0  0
   -1.7580   25.3670  -26.9310 C   0  0  0  0  0  0  0  0  0  0  0  0
   -1.1180   26.1500  -28.0750 C   0  0  0  0  0  0  0  0  0  0  0  0
   -1.5700   25.6440  -29.2990 O   0  0  0  0  0  0  0  0  0  0  0  0
   -3.1870   24.9650  -29.9400 H   0  0  0  0  0  0  0  0  0  0  0  0
   -8.0823   24.7478  -30.7988 H   0  0  0  0  0  0  0  0  0  0  0  0
   -9.8071   22.5437  -31.4116 H   0  0  0  0  0  0  0  0  0  0  0  0
   -9.7902   20.1233  -32.1054 H   0  0  0  0  0  0  0  0  0  0  0  0
   -7.7425   18.4870  -33.6768 H   0  0  0  0  0  0  0  0  0  0  0  0
   -5.4288   20.1575  -32.1241 H   0  0  0  0  0  0  0  0  0  0  0  0
   -4.0338   21.5962  -27.2321 H   0  0  0  0  0  0  0  0  0  0  0  0
   -2.2742   21.4818  -27.5647 H   0  0  0  0  0  0  0  0  0  0  0  0
   -2.7501   25.7897  -26.7140 H   0  0  0  0  0  0  0  0  0  0  0  0
   -1.1109   25.4412  -26.0445 H   0  0  0  0  0  0  0  0  0  0  0  0
   -1.3951   27.2113  -27.9926 H   0  0  0  0  0  0  0  0  0  0  0  0
   -0.0239   26.0504  -28.0195 H   0  0  0  0  0  0  0  0  0  0  0  0
   -2.2740   24.9800  -29.0790 H   0  0  0  0  0  0  0  0  0  0  0  0
  1  2  1  0
  2  3  2  0
  2  4  1  0
  4  5  2  0
  5  6  1  0
  6  7  2  0
  7  8  1  0
  8  9  2  0
  9 10  1  0
 10 11  1  0
 10 12  1  0
  9 13  1  0
 13 14  2  0
 14 15  1  0
 15 16  1  0
 16 17  2  0
 16 18  1  0
 18 19  2  0
 18 20  1  0
 20 21  1  0
 21 22  1  0
 22 23  2  0
 22 24  1  0
 24 25  1  0
 25 26  1  0
 26 27  1  0
 15  4  1  0
 14  6  1  0
  1 28  1  0
  5 29  1  0
  7 30  1  0
  8 31  1  0
 10 32  1  0
 13 33  1  0
 21 34  1  0
 21 35  1  0
 25 36  1  0
 25 37  1  0
 26 38  1  0
 26 39  1  0
 27 40  1  0
M  CHG  1   1  -1
M  END
>  <UniqueID>  (81) 
81

>  <SMILES>  (81) 
[NH-]C(=O)c1cc2ccc(C(F)F)cc2n1C(=O)C(=O)OCC(=O)OCCO

>  <Energy>  (81) 
71.28580877232558

>  <Genealogy>  (81) 
[NH-]C(=O)c1cc2ccc(C(F)F)cc2n1C(=O)C(=O)OCC(=O)OCCO (protonated)
[NH-]C(=O)c1cc2ccc(C(F)F)cc2n1C(=O)C(=O)OCC(=O)OCCO (3D coordinates assigned)
[NH-]C(=O)c1cc2ccc(C(F)F)cc2n1C(=O)C(=O)OCC(=O)OCCO (optimized conformer: 71.28580877232558 kcal/mol)

>  <smiles>  (81) 
NC(=O)c1cc2ccc(C(F)F)cc2n1C(=O)C(=O)OCC(=O)OCCO

>  <score_type>  (81) 
oracle

>  <origin>  (81) 
adg

>  <m_score__min__energy>  (81) 
-9.4399999999999995

>  <m_primary>  (81) 
energy

$$$$
81:0
     RDKit          3D

 37 39  0  0  0  0  0  0  0  0999 V2000
   -1.2300   25.8620  -29.0690 N   0  0  0  0  0  0  0  0  0  0  0  0
   -0.7330   24.5280  -29.1350 C   0  0  0  0  0  0  0  0  0  0  0  0
    0.4410   24.2880  -28.7470 O   0  0  0  0  0  0  0  0  0  0  0  0
   -1.5530   23.4390  -29.7060 C   0  0  0  0  0  0  0  0  0  0  0  0
   -1.0240   22.2180  -30.1170 C   0  0  0  0  0  0  0  0  0  0  0  0
   -2.0830   21.5290  -30.6630 C   0  0  0  0  0  0  0  0  0  0  0  0
   -2.1280   20.2560  -31.2110 C   0  0  0  0  0  0  0  0  0  0  0  0
   -3.3640   19.7770  -31.6730 C   0  0  0  0  0  0  0  0  0  0  0  0
   -4.5520   20.5680  -31.5850 C   0  0  0  0  0  0  0  0  0  0  0  0
   -5.8400   20.0580  -32.0620 N   0  0  0  0  0  0  0  0  0  0  0  0
   -6.8840   21.0340  -32.4640 C   0  0  0  0  0  0  0  0  0  0  0  0
   -8.1590   20.4280  -33.0550 C   0  0  0  0  0  0  0  0  0  0  0  0
   -8.5460   19.1410  -32.3380 C   0  0  0  0  0  0  0  0  0  0  0  0
   -9.7730   18.6490  -32.8160 O   0  0  0  0  0  0  0  0  0  0  0  0
   -7.4320   18.1270  -32.5590 C   0  0  0  0  0  0  0  0  0  0  0  0
   -6.1120   18.6030  -31.9440 C   0  0  0  0  0  0  0  0  0  0  0  0
   -4.4450   21.8650  -31.0020 C   0  0  0  0  0  0  0  0  0  0  0  0
   -3.1940   22.3200  -30.5700 C   0  0  0  0  0  0  0  0  0  0  0  0
   -2.8870   23.4980  -29.9800 N   0  0  0  0  0  0  0  0  0  0  0  0
   -3.8070   24.5440  -29.6310 C   0  0  0  0  0  0  0  0  0  0  0  0
   -4.4890   24.4670  -28.5750 O   0  0  0  0  0  0  0  0  0  0  0  0
   -3.9340   25.6650  -30.4430 O   0  0  0  0  0  0  0  0  0  0  0  0
   -2.2530   26.0500  -28.9690 H   0  0  0  0  0  0  0  0  0  0  0  0
    0.0178   21.8771  -30.0249 H   0  0  0  0  0  0  0  0  0  0  0  0
   -1.2203   19.6386  -31.2817 H   0  0  0  0  0  0  0  0  0  0  0  0
   -3.4199   18.7703  -32.1127 H   0  0  0  0  0  0  0  0  0  0  0  0
   -7.1660   21.6149  -31.5735 H   0  0  0  0  0  0  0  0  0  0  0  0
   -6.4379   21.6407  -33.2658 H   0  0  0  0  0  0  0  0  0  0  0  0
   -8.9796   21.1537  -32.9558 H   0  0  0  0  0  0  0  0  0  0  0  0
   -7.9724   20.1924  -34.1132 H   0  0  0  0  0  0  0  0  0  0  0  0
   -8.6730   19.3335  -31.2625 H   0  0  0  0  0  0  0  0  0  0  0  0
   -9.8740   18.9430  -33.7590 H   0  0  0  0  0  0  0  0  0  0  0  0
   -7.7196   17.1725  -32.0941 H   0  0  0  0  0  0  0  0  0  0  0  0
   -7.2849   18.0052  -33.6423 H   0  0  0  0  0  0  0  0  0  0  0  0
   -6.1243   18.3461  -30.8745 H   0  0  0  0  0  0  0  0  0  0  0  0
   -5.3154   18.0998  -32.5116 H   0  0  0  0  0  0  0  0  0  0  0  0
   -5.3360   22.5009  -30.8930 H   0  0  0  0  0  0  0  0  0  0  0  0
  1  2  1  0
  2  3  2  0
  2  4  1  0
  4  5  2  0
  5  6  1  0
  6  7  2  0
  7  8  1  0
  8  9  2  0
  9 10  1  0
 10 11  1  0
 11 12  1  0
 12 13  1  0
 13 14  1  0
 13 15  1  0
 15 16  1  0
  9 17  1  0
 17 18  2  0
 18 19  1  0
 19 20  1  0
 20 21  2  0
 20 22  1  0
 19  4  1  0
 18  6  1  0
 16 10  1  0
  1 23  1  0
  5 24  1  0
  7 25  1  0
  8 26  1  0
 11 27  1  0
 11 28  1  0
 12 29  1  0
 12 30  1  0
 13 31  1  0
 14 32  1  0
 15 33  1  0
 15 34  1  0
 16 35  1  0
 16 36  1  0
 17 37  1  0
M  CHG  2   1  -1  22  -1
M  END
>  <UniqueID>  (82) 
82

>  <SMILES>  (82) 
[NH-]C(=O)c1cc2ccc(N3CCC(O)CC3)cc2n1C(=O)[O-]

>  <Energy>  (82) 
85.49147232191123

>  <Genealogy>  (82) 
[NH-]C(=O)c1cc2ccc(N3CCC(O)CC3)cc2n1C(=O)[O-] (protonated)
[NH-]C(=O)c1cc2ccc(N3CCC(O)CC3)cc2n1C(=O)[O-] (3D coordinates assigned)
[NH-]C(=O)c1cc2ccc(N3CCC(O)CC3)cc2n1C(=O)[O-] (nonaromatic ring conformer: 85.49147232191123 kcal/mol)

>  <smiles>  (82) 
NC(=O)c1cc2ccc(N3CCC(O)CC3)cc2n1C(=O)O

>  <score_type>  (82) 
oracle

>  <origin>  (82) 
adg

>  <m_score__min__energy>  (82) 
-10.949999999999999

>  <m_primary>  (82) 
energy

$$$$
82:0
     RDKit          3D

 36 37  0  0  0  0  0  0  0  0999 V2000
    1.0410   22.5210  -35.8190 C   0  0  0  0  0  0  0  0  0  0  0  0
    0.0150   22.2370  -34.8940 O   0  0  0  0  0  0  0  0  0  0  0  0
    0.0540   20.8730  -34.5130 C   0  0  0  0  0  0  0  0  0  0  0  0
   -1.3600   20.3240  -34.2930 C   0  0  0  0  0  0  0  0  0  0  0  0
   -2.0720   21.1110  -33.2800 C   0  0  0  0  0  0  0  0  0  0  0  0
   -2.6370   21.7630  -32.4390 C   0  0  0  0  0  0  0  0  0  0  0  0
   -3.3350   22.5470  -31.4570 C   0  0  0  0  0  0  0  0  0  0  0  0
   -2.6740   23.1710  -30.5850 O   0  0  0  0  0  0  0  0  0  0  0  0
   -4.7700   22.6240  -31.4700 N   0  0  0  0  0  0  0  0  0  0  0  0
   -5.5500   23.6670  -31.0690 C   0  0  0  0  0  0  0  0  0  0  0  0
   -5.0790   24.9000  -30.4010 C   0  0  0  0  0  0  0  0  0  0  0  0
   -3.8970   25.5660  -30.8390 N   0  0  0  0  0  0  0  0  0  0  0  0
   -5.7060   25.3480  -29.4050 O   0  0  0  0  0  0  0  0  0  0  0  0
   -6.8960   23.3890  -31.3000 C   0  0  0  0  0  0  0  0  0  0  0  0
   -6.9180   22.1310  -31.8550 C   0  0  0  0  0  0  0  0  0  0  0  0
   -7.9960   21.3590  -32.2770 C   0  0  0  0  0  0  0  0  0  0  0  0
   -7.7260   20.0960  -32.8310 C   0  0  0  0  0  0  0  0  0  0  0  0
   -6.3910   19.6410  -32.9810 C   0  0  0  0  0  0  0  0  0  0  0  0
   -6.1140   18.2690  -33.5420 C   0  0  0  0  0  0  0  0  0  0  0  0
   -6.0770   18.3390  -34.9210 F   0  0  0  0  0  0  0  0  0  0  0  0
   -4.9000   17.7890  -33.0820 F   0  0  0  0  0  0  0  0  0  0  0  0
   -7.1030   17.3780  -33.1610 F   0  0  0  0  0  0  0  0  0  0  0  0
   -5.3230   20.4480  -32.5220 C   0  0  0  0  0  0  0  0  0  0  0  0
   -5.6240   21.6910  -31.9520 C   0  0  0  0  0  0  0  0  0  0  0  0
    1.9633   22.7763  -35.2766 H   0  0  0  0  0  0  0  0  0  0  0  0
    1.2196   21.6385  -36.4509 H   0  0  0  0  0  0  0  0  0  0  0  0
    0.7404   23.3697  -36.4509 H   0  0  0  0  0  0  0  0  0  0  0  0
    0.5462   20.2917  -35.3066 H   0  0  0  0  0  0  0  0  0  0  0  0
    0.6137   20.7882  -33.5699 H   0  0  0  0  0  0  0  0  0  0  0  0
   -1.9160   20.3689  -35.2411 H   0  0  0  0  0  0  0  0  0  0  0  0
   -1.2842   19.2840  -33.9428 H   0  0  0  0  0  0  0  0  0  0  0  0
   -2.9590   25.2910  -30.4730 H   0  0  0  0  0  0  0  0  0  0  0  0
   -7.7576   24.0379  -31.0842 H   0  0  0  0  0  0  0  0  0  0  0  0
   -9.0283   21.7262  -32.1799 H   0  0  0  0  0  0  0  0  0  0  0  0
   -8.5591   19.4533  -33.1518 H   0  0  0  0  0  0  0  0  0  0  0  0
   -4.2810   20.1069  -32.6109 H   0  0  0  0  0  0  0  0  0  0  0  0
  1  2  1  0
  2  3  1  0
  3  4  1  0
  4  5  1  0
  5  6  3  0
  6  7  1  0
  7  8  2  0
  7  9  1  0
  9 10  1  0
 10 11  1  0
 11 12  1  0
 11 13  2  0
 10 14  2  0
 14 15  1  0
 15 16  2  0
 16 17  1  0
 17 18  2  0
 18 19  1  0
 19 20  1  0
 19 21  1  0
 19 22  1  0
 18 23  1  0
 23 24  2  0
 24  9  1  0
 24 15  1  0
  1 25  1  0
  1 26  1  0
  1 27  1  0
  3 28  1  0
  3 29  1  0
  4 30  1  0
  4 31  1  0
 12 32  1  0
 14 33  1  0
 16 34  1  0
 17 35  1  0
 23 36  1  0
M  CHG  1  12  -1
M  END
>  <UniqueID>  (83) 
83

>  <SMILES>  (83) 
COCCC#CC(=O)n1c(C([NH-])=O)cc2ccc(C(F)(F)F)cc21

>  <Energy>  (83) 
70.75655729899572

>  <Genealogy>  (83) 
COCCC#CC(=O)n1c(C([NH-])=O)cc2ccc(C(F)(F)F)cc21 (protonated)
COCCC#CC(=O)n1c(C([NH-])=O)cc2ccc(C(F)(F)F)cc21 (3D coordinates assigned)
COCCC#CC(=O)n1c(C([NH-])=O)cc2ccc(C(F)(F)F)cc21 (optimized conformer: 70.75655729899572 kcal/mol)

>  <smiles>  (83) 
COCCC#CC(=O)n1c(C(N)=O)cc2ccc(C(F)(F)F)cc21

>  <score_type>  (83) 
oracle

>  <origin>  (83) 
adg

>  <m_score__min__energy>  (83) 
-10.52

>  <m_primary>  (83) 
energy

$$$$
83:0
     RDKit          3D

 45 48  0  0  0  0  0  0  0  0999 V2000
   -1.9840   25.4530  -28.9520 N   0  0  0  0  0  0  0  0  0  0  0  0
   -1.3500   24.2300  -29.3200 C   0  0  0  0  0  0  0  0  0  0  0  0
   -0.1540   24.0300  -28.9820 O   0  0  0  0  0  0  0  0  0  0  0  0
   -2.0870   23.2350  -30.1280 C   0  0  0  0  0  0  0  0  0  0  0  0
   -1.5280   22.0330  -30.5560 C   0  0  0  0  0  0  0  0  0  0  0  0
   -2.5500   21.3590  -31.1830 C   0  0  0  0  0  0  0  0  0  0  0  0
   -2.5500   20.1150  -31.8060 C   0  0  0  0  0  0  0  0  0  0  0  0
   -3.7450   19.6750  -32.3980 C   0  0  0  0  0  0  0  0  0  0  0  0
   -4.9170   20.4780  -32.3570 C   0  0  0  0  0  0  0  0  0  0  0  0
   -6.1930   20.0190  -33.0300 C   0  0  1  0  0  0  0  0  0  0  0  0
   -6.0020   18.6340  -33.5980 C   0  0  0  0  0  0  0  0  0  0  0  0
   -5.6580   17.5430  -32.8840 N   0  0  0  0  0  0  0  0  0  0  0  0
   -5.6370   16.5520  -33.7640 N   0  0  0  0  0  0  0  0  0  0  0  0
   -5.9570   17.0070  -34.9660 N   0  0  0  0  0  0  0  0  0  0  0  0
   -6.1900   18.3030  -34.8850 N   0  0  0  0  0  0  0  0  0  0  0  0
   -7.4000   20.1830  -32.0680 C   0  0  0  0  0  0  0  0  0  0  0  0
   -8.2540   18.9790  -31.6740 C   0  0  0  0  0  0  0  0  0  0  0  0
   -8.7600   19.9600  -32.7190 C   0  0  0  0  0  0  0  0  0  0  0  0
   -4.8700   21.7420  -31.7250 C   0  0  0  0  0  0  0  0  0  0  0  0
   -3.6700   22.1480  -31.1270 C   0  0  0  0  0  0  0  0  0  0  0  0
   -3.4020   23.3070  -30.4850 N   0  0  0  0  0  0  0  0  0  0  0  0
   -4.3150   24.3970  -30.2830 C   0  0  0  0  0  0  0  0  0  0  0  0
   -4.1710   25.4710  -30.9270 O   0  0  0  0  0  0  0  0  0  0  0  0
   -5.3800   24.2490  -29.3900 O   0  0  0  0  0  0  0  0  0  0  0  0
   -6.7370   24.4680  -29.7620 C   0  0  0  0  0  0  0  0  0  0  0  0
   -7.3010   23.2130  -30.4200 C   0  0  0  0  0  0  0  0  0  0  0  0
   -7.6430   23.4730  -31.8130 N   0  0  0  0  0  0  0  0  0  0  0  0
   -6.7510   23.7890  -32.6270 O   0  0  0  0  0  0  0  0  0  0  0  0
   -8.9050   23.1810  -32.2740 O   0  0  0  0  0  0  0  0  0  0  0  0
   -2.9480   25.6790  -29.2840 H   0  0  0  0  0  0  0  0  0  0  0  0
   -0.4900   21.6948  -30.4212 H   0  0  0  0  0  0  0  0  0  0  0  0
   -1.6418   19.4951  -31.8340 H   0  0  0  0  0  0  0  0  0  0  0  0
   -3.7744   18.6965  -32.8998 H   0  0  0  0  0  0  0  0  0  0  0  0
   -6.4336   20.6573  -33.8929 H   0  0  0  0  0  0  0  0  0  0  0  0
   -6.4690   18.9220  -35.6780 H   0  0  0  0  0  0  0  0  0  0  0  0
   -6.8956   20.9618  -31.4772 H   0  0  0  0  0  0  0  0  0  0  0  0
   -7.9477   17.9658  -31.9735 H   0  0  0  0  0  0  0  0  0  0  0  0
   -8.6465   18.5804  -30.7268 H   0  0  0  0  0  0  0  0  0  0  0  0
   -8.8206   19.6557  -33.7743 H   0  0  0  0  0  0  0  0  0  0  0  0
   -9.6713   20.5641  -32.8399 H   0  0  0  0  0  0  0  0  0  0  0  0
   -5.7567   22.3926  -31.7034 H   0  0  0  0  0  0  0  0  0  0  0  0
   -7.3275   24.7071  -28.8653 H   0  0  0  0  0  0  0  0  0  0  0  0
   -6.7881   25.3055  -30.4734 H   0  0  0  0  0  0  0  0  0  0  0  0
   -6.5480   22.4123  -30.3761 H   0  0  0  0  0  0  0  0  0  0  0  0
   -8.2113   22.9094  -29.8823 H   0  0  0  0  0  0  0  0  0  0  0  0
  1  2  1  0
  2  3  2  0
  2  4  1  0
  4  5  2  0
  5  6  1  0
  6  7  2  0
  7  8  1  0
  8  9  2  0
  9 10  1  0
 10 11  1  0
 11 12  2  0
 12 13  1  0
 13 14  1  0
 14 15  2  0
 10 16  1  0
 16 17  1  0
 17 18  1  0
  9 19  1  0
 19 20  2  0
 20 21  1  0
 21 22  1  0
 22 23  2  0
 22 24  1  0
 24 25  1  0
 25 26  1  0
 26 27  1  0
 27 28  2  0
 27 29  1  0
 21  4  1  0
 20  6  1  0
 15 11  1  0
 18 16  1  0
  1 30  1  0
  5 31  1  0
  7 32  1  0
  8 33  1  0
 10 34  1  6
 15 35  1  0
 16 36  1  0
 17 37  1  0
 17 38  1  0
 18 39  1  0
 18 40  1  0
 19 41  1  0
 25 42  1  0
 25 43  1  0
 26 44  1  0
 26 45  1  0
M  CHG  5   1  -1  13  -1  15   1  27   1  29  -1
M  END
>  <UniqueID>  (84) 
84

>  <SMILES>  (84) 
[NH-]C(=O)c1cc2ccc([C@@H](c3n[n-]n[nH+]3)C3CC3)cc2n1C(=O)OCC[N+](=O)[O-]

>  <Energy>  (84) 
388.03940627042493

>  <Genealogy>  (84) 
[NH-]C(=O)c1cc2ccc(C(c3n[n-]n[nH+]3)C3CC3)cc2n1C(=O)OCC[N+](=O)[O-] (protonated)
[NH-]C(=O)c1cc2ccc([C@@H](c3n[n-]n[nH+]3)C3CC3)cc2n1C(=O)OCC[N+](=O)[O-] (chirality)
[NH-]C(=O)c1cc2ccc([C@@H](c3n[n-]n[nH+]3)C3CC3)cc2n1C(=O)OCC[N+](=O)[O-] (3D coordinates assigned)
[NH-]C(=O)c1cc2ccc([C@@H](c3n[n-]n[nH+]3)C3CC3)cc2n1C(=O)OCC[N+](=O)[O-] (nonaromatic ring conformer: 388.03940627042493 kcal/mol)

>  <smiles>  (84) 
NC(=O)c1cc2ccc(C(c3nn[nH]n3)C3CC3)cc2n1C(=O)OCC[N+](=O)[O-]

>  <score_type>  (84) 
oracle

>  <origin>  (84) 
adg

>  <m_score__min__energy>  (84) 
-11.81

>  <m_primary>  (84) 
energy

$$$$
84:0
     RDKit          3D

 42 44  0  0  0  0  0  0  0  0999 V2000
   -3.2500   17.0840  -33.0790 C   0  0  0  0  0  0  0  0  0  0  0  0
   -4.4170   16.3030  -33.5240 N   0  0  0  0  0  0  0  0  0  0  0  0
   -5.2760   15.9040  -32.3890 C   0  0  0  0  0  0  0  0  0  0  0  0
   -5.9710   17.1140  -31.7440 C   0  0  0  0  0  0  0  0  0  0  0  0
   -6.3720   18.0880  -32.7650 N   0  0  0  0  0  0  0  0  0  0  0  0
   -6.6410   19.4560  -32.3980 C   0  0  0  0  0  0  0  0  0  0  0  0
   -7.9150   20.0270  -32.6490 C   0  0  0  0  0  0  0  0  0  0  0  0
   -8.1790   21.3670  -32.3210 C   0  0  0  0  0  0  0  0  0  0  0  0
   -7.1560   22.1110  -31.7440 C   0  0  0  0  0  0  0  0  0  0  0  0
   -7.1350   23.4300  -31.3540 C   0  0  0  0  0  0  0  0  0  0  0  0
   -5.8510   23.6480  -30.8560 C   0  0  0  0  0  0  0  0  0  0  0  0
   -5.4100   24.9200  -30.2400 C   0  0  0  0  0  0  0  0  0  0  0  0
   -4.1560   25.5060  -30.5930 N   0  0  0  0  0  0  0  0  0  0  0  0
   -6.1550   25.5150  -29.4180 O   0  0  0  0  0  0  0  0  0  0  0  0
   -5.1080   22.5080  -30.9370 N   0  0  0  0  0  0  0  0  0  0  0  0
   -3.7260   22.3320  -30.5840 C   0  0  0  0  0  0  0  0  0  0  0  0
   -3.3270   21.2150  -30.1590 O   0  0  0  0  0  0  0  0  0  0  0  0
   -2.8390   23.4110  -30.7080 O   0  0  0  0  0  0  0  0  0  0  0  0
   -2.0290   23.9060  -29.6800 C   0  0  0  0  0  0  0  0  0  0  0  0
   -1.2680   23.1500  -29.0180 O   0  0  0  0  0  0  0  0  0  0  0  0
   -2.0650   25.2620  -29.3820 O   0  0  0  0  0  0  0  0  0  0  0  0
   -5.9220   21.5760  -31.4830 C   0  0  0  0  0  0  0  0  0  0  0  0
   -5.6240   20.2500  -31.8180 C   0  0  0  0  0  0  0  0  0  0  0  0
   -6.4800   17.6380  -34.1550 C   0  0  0  0  0  0  0  0  0  0  0  0
   -5.1600   16.9900  -34.6130 C   0  0  0  0  0  0  0  0  0  0  0  0
   -3.2199   17.1042  -31.9796 H   0  0  0  0  0  0  0  0  0  0  0  0
   -2.3298   16.6191  -33.4625 H   0  0  0  0  0  0  0  0  0  0  0  0
   -3.3289   18.1119  -33.4625 H   0  0  0  0  0  0  0  0  0  0  0  0
   -6.0436   15.2048  -32.7523 H   0  0  0  0  0  0  0  0  0  0  0  0
   -4.6379   15.4313  -31.6278 H   0  0  0  0  0  0  0  0  0  0  0  0
   -6.8646   16.7705  -31.2023 H   0  0  0  0  0  0  0  0  0  0  0  0
   -5.2667   17.5980  -31.0514 H   0  0  0  0  0  0  0  0  0  0  0  0
   -8.7054   19.4133  -33.1058 H   0  0  0  0  0  0  0  0  0  0  0  0
   -9.1651   21.8142  -32.5148 H   0  0  0  0  0  0  0  0  0  0  0  0
   -7.9567   24.1582  -31.4208 H   0  0  0  0  0  0  0  0  0  0  0  0
   -3.4870   25.0170  -31.2270 H   0  0  0  0  0  0  0  0  0  0  0  0
   -3.8730   26.4230  -30.1820 H   0  0  0  0  0  0  0  0  0  0  0  0
   -4.6220   19.8349  -31.6345 H   0  0  0  0  0  0  0  0  0  0  0  0
   -7.2927   16.9011  -34.2354 H   0  0  0  0  0  0  0  0  0  0  0  0
   -6.6927   18.5063  -34.7959 H   0  0  0  0  0  0  0  0  0  0  0  0
   -5.3898   16.2514  -35.3951 H   0  0  0  0  0  0  0  0  0  0  0  0
   -4.5144   17.8029  -34.9767 H   0  0  0  0  0  0  0  0  0  0  0  0
  1  2  1  0
  2  3  1  0
  3  4  1  0
  4  5  1  0
  5  6  1  0
  6  7  2  0
  7  8  1  0
  8  9  2  0
  9 10  1  0
 10 11  2  0
 11 12  1  0
 12 13  1  0
 12 14  2  0
 11 15  1  0
 15 16  1  0
 16 17  2  0
 16 18  1  0
 18 19  1  0
 19 20  2  0
 19 21  1  0
 15 22  1  0
 22 23  2  0
  5 24  1  0
 24 25  1  0
 25  2  1  0
 23  6  1  0
 22  9  1  0
  1 26  1  0
  1 27  1  0
  1 28  1  0
  3 29  1  0
  3 30  1  0
  4 31  1  0
  4 32  1  0
  7 33  1  0
  8 34  1  0
 10 35  1  0
 13 36  1  0
 13 37  1  0
 23 38  1  0
 24 39  1  0
 24 40  1  0
 25 41  1  0
 25 42  1  0
M  CHG  1  21  -1
M  END
>  <UniqueID>  (85) 
85

>  <SMILES>  (85) 
CN1CCN(c2ccc3cc(C(N)=O)n(C(=O)OC(=O)[O-])c3c2)CC1

>  <Energy>  (85) 
94.2797930142313

>  <Genealogy>  (85) 
CN1CCN(c2ccc3cc(C(N)=O)n(C(=O)OC(=O)[O-])c3c2)CC1 (protonated)
CN1CCN(c2ccc3cc(C(N)=O)n(C(=O)OC(=O)[O-])c3c2)CC1 (3D coordinates assigned)
CN1CCN(c2ccc3cc(C(N)=O)n(C(=O)OC(=O)[O-])c3c2)CC1 (nonaromatic ring conformer: 94.2797930142313 kcal/mol)

>  <smiles>  (85) 
CN1CCN(c2ccc3cc(C(N)=O)n(C(=O)OC(=O)O)c3c2)CC1

>  <score_type>  (85) 
oracle

>  <origin>  (85) 
adg

>  <m_score__min__energy>  (85) 
-10.220000000000001

>  <m_primary>  (85) 
energy

$$$$
85:0
     RDKit          3D

 48 50  0  0  0  0  0  0  0  0999 V2000
   -0.7310   21.2900  -33.8010 C   0  0  0  0  0  0  0  0  0  0  0  0
   -1.0760   20.0830  -34.4470 O   0  0  0  0  0  0  0  0  0  0  0  0
   -1.9050   19.2860  -33.6170 C   0  0  2  0  0  0  0  0  0  0  0  0
   -1.5920   19.6010  -32.1500 C   0  0  0  0  0  0  0  0  0  0  0  0
   -1.6380   17.8110  -33.9510 C   0  0  0  0  0  0  0  0  0  0  0  0
   -2.8510   17.0540  -33.9850 O   0  0  0  0  0  0  0  0  0  0  0  0
   -4.1480   17.5330  -33.7280 C   0  0  0  0  0  0  0  0  0  0  0  0
   -4.7900   17.0850  -32.5670 C   0  0  0  0  0  0  0  0  0  0  0  0
   -6.0800   17.5200  -32.2510 C   0  0  0  0  0  0  0  0  0  0  0  0
   -6.7550   18.4130  -33.0990 C   0  0  0  0  0  0  0  0  0  0  0  0
   -8.0730   18.8880  -32.7580 N   0  0  0  0  0  0  0  0  0  0  0  0
   -7.9820   20.2310  -32.2440 C   0  0  0  0  0  0  0  0  0  0  0  0
   -9.1550   21.0110  -32.0710 C   0  0  0  0  0  0  0  0  0  0  0  0
   -9.0770   22.3290  -31.5890 C   0  0  0  0  0  0  0  0  0  0  0  0
   -7.8160   22.8450  -31.3040 C   0  0  0  0  0  0  0  0  0  0  0  0
   -7.4570   24.0760  -30.8080 C   0  0  0  0  0  0  0  0  0  0  0  0
   -6.0670   24.0480  -30.7160 C   0  0  0  0  0  0  0  0  0  0  0  0
   -5.2570   25.2130  -30.3060 C   0  0  0  0  0  0  0  0  0  0  0  0
   -3.8670   25.2870  -30.6120 N   0  0  0  0  0  0  0  0  0  0  0  0
   -5.8120   26.1810  -29.7190 O   0  0  0  0  0  0  0  0  0  0  0  0
   -5.5850   22.8400  -31.1300 N   0  0  0  0  0  0  0  0  0  0  0  0
   -4.2240   22.3810  -31.1140 C   0  0  0  0  0  0  0  0  0  0  0  0
   -3.4560   22.6350  -32.0800 O   0  0  0  0  0  0  0  0  0  0  0  0
   -3.7350   21.6750  -30.0230 O   0  0  0  0  0  0  0  0  0  0  0  0
   -6.6690   22.1160  -31.4890 C   0  0  0  0  0  0  0  0  0  0  0  0
   -6.7190   20.7960  -31.9470 C   0  0  0  0  0  0  0  0  0  0  0  0
   -6.1090   18.8750  -34.2580 C   0  0  0  0  0  0  0  0  0  0  0  0
   -4.8190   18.4390  -34.5720 C   0  0  0  0  0  0  0  0  0  0  0  0
   -0.7718   21.1472  -32.7111 H   0  0  0  0  0  0  0  0  0  0  0  0
    0.2874   21.5848  -34.0943 H   0  0  0  0  0  0  0  0  0  0  0  0
   -1.4398   22.0784  -34.0943 H   0  0  0  0  0  0  0  0  0  0  0  0
   -2.9704   19.4996  -33.7879 H   0  0  0  0  0  0  0  0  0  0  0  0
   -2.2168   18.9722  -31.4986 H   0  0  0  0  0  0  0  0  0  0  0  0
   -0.5302   19.3954  -31.9493 H   0  0  0  0  0  0  0  0  0  0  0  0
   -1.8044   20.6615  -31.9493 H   0  0  0  0  0  0  0  0  0  0  0  0
   -1.1506   17.7498  -34.9352 H   0  0  0  0  0  0  0  0  0  0  0  0
   -0.9906   17.3910  -33.1671 H   0  0  0  0  0  0  0  0  0  0  0  0
   -4.2732   16.3829  -31.8962 H   0  0  0  0  0  0  0  0  0  0  0  0
   -6.5691   17.1611  -31.3334 H   0  0  0  0  0  0  0  0  0  0  0  0
   -8.6930   18.8660  -33.6020 H   0  0  0  0  0  0  0  0  0  0  0  0
   -8.5110   18.2580  -32.0450 H   0  0  0  0  0  0  0  0  0  0  0  0
  -10.1363   20.5791  -32.3169 H   0  0  0  0  0  0  0  0  0  0  0  0
   -9.9840   22.9337  -31.4416 H   0  0  0  0  0  0  0  0  0  0  0  0
   -8.1258   24.9073  -30.5404 H   0  0  0  0  0  0  0  0  0  0  0  0
   -3.4910   26.0460  -31.2210 H   0  0  0  0  0  0  0  0  0  0  0  0
   -5.7970   20.2096  -32.0737 H   0  0  0  0  0  0  0  0  0  0  0  0
   -6.6224   19.5850  -34.9230 H   0  0  0  0  0  0  0  0  0  0  0  0
   -4.3247   18.8056  -35.4838 H   0  0  0  0  0  0  0  0  0  0  0  0
  1  2  1  0
  2  3  1  0
  3  4  1  0
  3  5  1  0
  5  6  1  0
  6  7  1  0
  7  8  2  0
  8  9  1  0
  9 10  2  0
 10 11  1  0
 11 12  1  0
 12 13  2  0
 13 14  1  0
 14 15  2  0
 15 16  1  0
 16 17  2  0
 17 18  1  0
 18 19  1  0
 18 20  2  0
 17 21  1  0
 21 22  1  0
 22 23  2  0
 22 24  1  0
 21 25  1  0
 25 26  2  0
 10 27  1  0
 27 28  2  0
 28  7  1  0
 26 12  1  0
 25 15  1  0
  1 29  1  0
  1 30  1  0
  1 31  1  0
  3 32  1  6
  4 33  1  0
  4 34  1  0
  4 35  1  0
  5 36  1  0
  5 37  1  0
  8 38  1  0
  9 39  1  0
 11 40  1  0
 11 41  1  0
 13 42  1  0
 14 43  1  0
 16 44  1  0
 19 45  1  0
 26 46  1  0
 27 47  1  0
 28 48  1  0
M  CHG  3  11   1  19  -1  24  -1
M  END
>  <UniqueID>  (86) 
86

>  <SMILES>  (86) 
CO[C@H](C)COc1ccc([NH2+]c2ccc3cc(C([NH-])=O)n(C(=O)[O-])c3c2)cc1

>  <Energy>  (86) 
92.9228308575846

>  <Genealogy>  (86) 
CO[C@H](C)COc1ccc([NH2+]c2ccc3cc(C([NH-])=O)n(C(=O)[O-])c3c2)cc1 (protonated)
CO[C@H](C)COc1ccc([NH2+]c2ccc3cc(C([NH-])=O)n(C(=O)[O-])c3c2)cc1 (3D coordinates assigned)
CO[C@H](C)COc1ccc([NH2+]c2ccc3cc(C([NH-])=O)n(C(=O)[O-])c3c2)cc1 (optimized conformer: 92.9228308575846 kcal/mol)

>  <smiles>  (86) 
CO[C@H](C)COc1ccc(Nc2ccc3cc(C(N)=O)n(C(=O)O)c3c2)cc1

>  <score_type>  (86) 
oracle

>  <origin>  (86) 
adg

>  <m_score__min__energy>  (86) 
-11.029999999999999

>  <m_primary>  (86) 
energy

$$$$
86:0
     RDKit          3D

 35 36  0  0  0  0  0  0  0  0999 V2000
   -2.8750   24.9290  -26.9440 C   0  0  0  0  0  0  0  0  0  0  0  0
   -2.6820   24.9250  -28.3520 O   0  0  0  0  0  0  0  0  0  0  0  0
   -1.6870   24.1680  -28.9760 C   0  0  0  0  0  0  0  0  0  0  0  0
   -0.4910   24.5660  -28.9880 O   0  0  0  0  0  0  0  0  0  0  0  0
   -2.0530   22.8930  -29.6650 C   0  0  0  0  0  0  0  0  0  0  0  0
   -2.7460   23.1580  -30.8830 O   0  0  0  0  0  0  0  0  0  0  0  0
   -3.6080   22.2380  -31.4940 C   0  0  0  0  0  0  0  0  0  0  0  0
   -3.1420   21.3100  -32.2090 O   0  0  0  0  0  0  0  0  0  0  0  0
   -5.0300   22.3750  -31.3250 N   0  0  0  0  0  0  0  0  0  0  0  0
   -5.6980   23.4590  -30.8390 C   0  0  0  0  0  0  0  0  0  0  0  0
   -5.0820   24.6220  -30.1750 C   0  0  0  0  0  0  0  0  0  0  0  0
   -5.2830   24.8640  -28.7830 N   0  0  0  0  0  0  0  0  0  0  0  0
   -4.4150   25.4440  -30.8560 O   0  0  0  0  0  0  0  0  0  0  0  0
   -7.0730   23.2970  -30.9790 C   0  0  0  0  0  0  0  0  0  0  0  0
   -7.2340   22.0580  -31.5580 C   0  0  0  0  0  0  0  0  0  0  0  0
   -8.3970   21.3960  -31.9380 C   0  0  0  0  0  0  0  0  0  0  0  0
   -8.2680   20.1380  -32.5530 C   0  0  0  0  0  0  0  0  0  0  0  0
   -6.9880   19.5760  -32.7840 C   0  0  0  0  0  0  0  0  0  0  0  0
   -6.8540   18.2410  -33.4610 C   0  0  0  0  0  0  0  0  0  0  0  0
   -6.3200   17.3220  -32.5770 F   0  0  0  0  0  0  0  0  0  0  0  0
   -6.0220   18.3570  -34.5600 F   0  0  0  0  0  0  0  0  0  0  0  0
   -5.8300   20.2790  -32.3890 C   0  0  0  0  0  0  0  0  0  0  0  0
   -5.9870   21.5210  -31.7590 C   0  0  0  0  0  0  0  0  0  0  0  0
   -1.8975   24.9087  -26.4399 H   0  0  0  0  0  0  0  0  0  0  0  0
   -3.4198   25.8386  -26.6512 H   0  0  0  0  0  0  0  0  0  0  0  0
   -3.4570   24.0427  -26.6512 H   0  0  0  0  0  0  0  0  0  0  0  0
   -1.1364   22.3268  -29.8871 H   0  0  0  0  0  0  0  0  0  0  0  0
   -2.7112   22.3105  -29.0036 H   0  0  0  0  0  0  0  0  0  0  0  0
   -5.9570   24.2860  -28.2340 H   0  0  0  0  0  0  0  0  0  0  0  0
   -4.8160   25.6730  -28.3160 H   0  0  0  0  0  0  0  0  0  0  0  0
   -7.8621   24.0065  -30.6893 H   0  0  0  0  0  0  0  0  0  0  0  0
   -9.3868   21.8427  -31.7628 H   0  0  0  0  0  0  0  0  0  0  0  0
   -9.1690   19.5852  -32.8575 H   0  0  0  0  0  0  0  0  0  0  0  0
   -7.8478   17.9010  -33.7877 H   0  0  0  0  0  0  0  0  0  0  0  0
   -4.8284   19.8623  -32.5711 H   0  0  0  0  0  0  0  0  0  0  0  0
  1  2  1  0
  2  3  1  0
  3  4  2  0
  3  5  1  0
  5  6  1  0
  6  7  1  0
  7  8  2  0
  7  9  1  0
  9 10  1  0
 10 11  1  0
 11 12  1  0
 11 13  2  0
 10 14  2  0
 14 15  1  0
 15 16  2  0
 16 17  1  0
 17 18  2  0
 18 19  1  0
 19 20  1  0
 19 21  1  0
 18 22  1  0
 22 23  2  0
 23  9  1  0
 23 15  1  0
  1 24  1  0
  1 25  1  0
  1 26  1  0
  5 27  1  0
  5 28  1  0
 12 29  1  0
 12 30  1  0
 14 31  1  0
 16 32  1  0
 17 33  1  0
 19 34  1  0
 22 35  1  0
M  END
>  <UniqueID>  (87) 
87

>  <SMILES>  (87) 
COC(=O)COC(=O)n1c(C(N)=O)cc2ccc(C(F)F)cc21

>  <Energy>  (87) 
69.16446057976282

>  <Genealogy>  (87) 
COC(=O)COC(=O)n1c(C(N)=O)cc2ccc(C(F)F)cc21 (3D coordinates assigned)
COC(=O)COC(=O)n1c(C(N)=O)cc2ccc(C(F)F)cc21 (optimized conformer: 69.16446057976282 kcal/mol)

>  <smiles>  (87) 
COC(=O)COC(=O)n1c(C(N)=O)cc2ccc(C(F)F)cc21

>  <score_type>  (87) 
oracle

>  <origin>  (87) 
adg

>  <m_score__min__energy>  (87) 
-8.2100000000000009

>  <m_primary>  (87) 
energy

$$$$
87:0
     RDKit          3D

 50 51  0  0  0  0  0  0  0  0999 V2000
   -6.1120   17.1370  -30.9280 C   0  0  0  0  0  0  0  0  0  0  0  0
   -6.0090   16.3480  -32.0930 O   0  0  0  0  0  0  0  0  0  0  0  0
   -4.9100   15.4630  -31.9950 C   0  0  0  0  0  0  0  0  0  0  0  0
   -4.5430   14.9210  -33.3730 C   0  0  0  0  0  0  0  0  0  0  0  0
   -5.0370   15.8010  -34.3770 O   0  0  0  0  0  0  0  0  0  0  0  0
   -4.2320   16.7610  -35.0020 C   0  0  0  0  0  0  0  0  0  0  0  0
   -3.3850   16.4170  -35.8710 O   0  0  0  0  0  0  0  0  0  0  0  0
   -4.3860   18.2110  -34.6380 C   0  0  2  0  0  0  0  0  0  0  0  0
   -3.0590   18.7590  -34.1060 C   0  0  0  0  0  0  0  0  0  0  0  0
   -5.4420   18.3680  -33.6300 N   0  0  0  0  0  0  0  0  0  0  0  0
   -5.8720   19.6310  -33.0800 C   0  0  0  0  0  0  0  0  0  0  0  0
   -7.2340   20.0440  -33.1100 C   0  0  0  0  0  0  0  0  0  0  0  0
   -7.6230   21.2750  -32.5540 C   0  0  0  0  0  0  0  0  0  0  0  0
   -6.6420   22.0750  -31.9820 C   0  0  0  0  0  0  0  0  0  0  0  0
   -6.7480   23.2970  -31.3570 C   0  0  0  0  0  0  0  0  0  0  0  0
   -5.4500   23.6280  -30.9720 C   0  0  0  0  0  0  0  0  0  0  0  0
   -5.0950   24.9170  -30.3420 C   0  0  0  0  0  0  0  0  0  0  0  0
   -3.9770   25.6740  -30.8000 N   0  0  0  0  0  0  0  0  0  0  0  0
   -5.8140   25.3790  -29.4180 O   0  0  0  0  0  0  0  0  0  0  0  0
   -4.5790   22.6450  -31.3360 N   0  0  0  0  0  0  0  0  0  0  0  0
   -3.1710   22.5680  -31.0610 C   0  0  0  0  0  0  0  0  0  0  0  0
   -2.4880   21.6250  -31.5460 O   0  0  0  0  0  0  0  0  0  0  0  0
   -2.5620   23.5540  -30.2770 O   0  0  0  0  0  0  0  0  0  0  0  0
   -2.2660   23.3880  -28.8920 C   0  0  0  0  0  0  0  0  0  0  0  0
   -2.0750   24.7450  -28.2100 C   0  0  0  0  0  0  0  0  0  0  0  0
   -1.5350   25.6750  -29.1090 O   0  0  0  0  0  0  0  0  0  0  0  0
   -5.3240   21.7040  -31.9560 C   0  0  0  0  0  0  0  0  0  0  0  0
   -4.9080   20.4770  -32.4850 C   0  0  0  0  0  0  0  0  0  0  0  0
   -6.0279   16.4929  -30.0403 H   0  0  0  0  0  0  0  0  0  0  0  0
   -5.3036   17.8829  -30.9177 H   0  0  0  0  0  0  0  0  0  0  0  0
   -7.0848   17.6504  -30.9177 H   0  0  0  0  0  0  0  0  0  0  0  0
   -4.0473   16.0007  -31.5749 H   0  0  0  0  0  0  0  0  0  0  0  0
   -5.1845   14.6222  -31.3410 H   0  0  0  0  0  0  0  0  0  0  0  0
   -3.4489   14.8457  -33.4577 H   0  0  0  0  0  0  0  0  0  0  0  0
   -4.9909   13.9252  -33.5061 H   0  0  0  0  0  0  0  0  0  0  0  0
   -4.6697   18.7784  -35.5366 H   0  0  0  0  0  0  0  0  0  0  0  0
   -3.0743   18.7527  -33.0061 H   0  0  0  0  0  0  0  0  0  0  0  0
   -2.2319   18.1289  -34.4648 H   0  0  0  0  0  0  0  0  0  0  0  0
   -2.9175   19.7892  -34.4648 H   0  0  0  0  0  0  0  0  0  0  0  0
   -5.8840   17.5020  -33.2440 H   0  0  0  0  0  0  0  0  0  0  0  0
   -7.9900   19.3929  -33.5732 H   0  0  0  0  0  0  0  0  0  0  0  0
   -8.6750   21.5959  -32.5714 H   0  0  0  0  0  0  0  0  0  0  0  0
   -7.6625   23.8867  -31.1958 H   0  0  0  0  0  0  0  0  0  0  0  0
   -3.0020   25.3200  -30.6790 H   0  0  0  0  0  0  0  0  0  0  0  0
   -3.0969   22.8546  -28.4072 H   0  0  0  0  0  0  0  0  0  0  0  0
   -1.3337   22.8118  -28.7975 H   0  0  0  0  0  0  0  0  0  0  0  0
   -3.0489   25.1106  -27.8525 H   0  0  0  0  0  0  0  0  0  0  0  0
   -1.3817   24.6237  -27.3647 H   0  0  0  0  0  0  0  0  0  0  0  0
   -2.1260   25.6740  -29.9080 H   0  0  0  0  0  0  0  0  0  0  0  0
   -3.8509   20.1764  -32.4388 H   0  0  0  0  0  0  0  0  0  0  0  0
  1  2  1  0
  2  3  1  0
  3  4  1  0
  4  5  1  0
  5  6  1  0
  6  7  2  0
  6  8  1  0
  8  9  1  0
  8 10  1  0
 10 11  1  0
 11 12  2  0
 12 13  1  0
 13 14  2  0
 14 15  1  0
 15 16  2  0
 16 17  1  0
 17 18  1  0
 17 19  2  0
 16 20  1  0
 20 21  1  0
 21 22  2  0
 21 23  1  0
 23 24  1  0
 24 25  1  0
 25 26  1  0
 20 27  1  0
 27 28  2  0
 28 11  1  0
 27 14  1  0
  1 29  1  0
  1 30  1  0
  1 31  1  0
  3 32  1  0
  3 33  1  0
  4 34  1  0
  4 35  1  0
  8 36  1  6
  9 37  1  0
  9 38  1  0
  9 39  1  0
 10 40  1  0
 12 41  1  0
 13 42  1  0
 15 43  1  0
 18 44  1  0
 24 45  1  0
 24 46  1  0
 25 47  1  0
 25 48  1  0
 26 49  1  0
 28 50  1  0
M  CHG  1  18  -1
M  END
>  <UniqueID>  (88) 
88

>  <SMILES>  (88) 
COCCOC(=O)[C@H](C)Nc1ccc2cc(C([NH-])=O)n(C(=O)OCCO)c2c1

>  <Energy>  (88) 
81.03098199949858

>  <Genealogy>  (88) 
COCCOC(=O)[C@H](C)Nc1ccc2cc(C([NH-])=O)n(C(=O)OCCO)c2c1 (protonated)
COCCOC(=O)[C@H](C)Nc1ccc2cc(C([NH-])=O)n(C(=O)OCCO)c2c1 (3D coordinates assigned)
COCCOC(=O)[C@H](C)Nc1ccc2cc(C([NH-])=O)n(C(=O)OCCO)c2c1 (optimized conformer: 81.03098199949858 kcal/mol)

>  <smiles>  (88) 
COCCOC(=O)[C@H](C)Nc1ccc2cc(C(N)=O)n(C(=O)OCCO)c2c1

>  <score_type>  (88) 
oracle

>  <origin>  (88) 
adg

>  <m_score__min__energy>  (88) 
-10.31

>  <m_primary>  (88) 
energy

$$$$
88:0
     RDKit          3D

 29 30  0  0  0  0  0  0  0  0999 V2000
   -9.2480   22.0720  -31.9530 C   0  0  0  0  0  0  0  0  0  0  0  0
   -8.3490   23.0150  -31.6770 C   0  0  0  0  0  0  0  0  0  0  0  0
   -7.2660   22.8160  -30.6950 C   0  0  0  0  0  0  0  0  0  0  0  0
   -7.5030   22.9030  -29.4590 O   0  0  0  0  0  0  0  0  0  0  0  0
   -5.9360   22.5050  -31.1400 N   0  0  0  0  0  0  0  0  0  0  0  0
   -4.8270   23.2910  -31.0420 C   0  0  0  0  0  0  0  0  0  0  0  0
   -4.7600   24.5910  -30.3350 C   0  0  0  0  0  0  0  0  0  0  0  0
   -5.4140   24.7760  -29.0770 N   0  0  0  0  0  0  0  0  0  0  0  0
   -4.1380   25.5580  -30.8470 O   0  0  0  0  0  0  0  0  0  0  0  0
   -3.7350   22.6660  -31.6430 C   0  0  0  0  0  0  0  0  0  0  0  0
   -4.2170   21.4690  -32.1220 C   0  0  0  0  0  0  0  0  0  0  0  0
   -3.5690   20.4640  -32.8330 C   0  0  0  0  0  0  0  0  0  0  0  0
   -4.3250   19.3510  -33.2390 C   0  0  0  0  0  0  0  0  0  0  0  0
   -5.7050   19.2570  -32.9220 C   0  0  0  0  0  0  0  0  0  0  0  0
   -6.5190   18.0890  -33.4180 C   0  0  0  0  0  0  0  0  0  0  0  0
   -6.4150   17.9710  -34.7940 F   0  0  0  0  0  0  0  0  0  0  0  0
   -6.0540   16.9280  -32.8300 F   0  0  0  0  0  0  0  0  0  0  0  0
   -7.8550   18.2540  -33.0980 F   0  0  0  0  0  0  0  0  0  0  0  0
   -6.3310   20.3110  -32.2180 C   0  0  0  0  0  0  0  0  0  0  0  0
   -5.5480   21.3960  -31.8080 C   0  0  0  0  0  0  0  0  0  0  0  0
  -10.0384   22.2654  -32.6931 H   0  0  0  0  0  0  0  0  0  0  0  0
   -9.2001   21.0997  -31.4408 H   0  0  0  0  0  0  0  0  0  0  0  0
   -8.4165   23.9796  -32.2015 H   0  0  0  0  0  0  0  0  0  0  0  0
   -5.8850   23.9850  -28.5850 H   0  0  0  0  0  0  0  0  0  0  0  0
   -5.3900   25.7080  -28.6090 H   0  0  0  0  0  0  0  0  0  0  0  0
   -2.7064   23.0485  -31.7183 H   0  0  0  0  0  0  0  0  0  0  0  0
   -2.4974   20.5383  -33.0702 H   0  0  0  0  0  0  0  0  0  0  0  0
   -3.8416   18.5438  -33.8088 H   0  0  0  0  0  0  0  0  0  0  0  0
   -7.4082   20.2791  -31.9977 H   0  0  0  0  0  0  0  0  0  0  0  0
  1  2  2  0
  2  3  1  0
  3  4  2  0
  3  5  1  0
  5  6  1  0
  6  7  1  0
  7  8  1  0
  7  9  2  0
  6 10  2  0
 10 11  1  0
 11 12  2  0
 12 13  1  0
 13 14  2  0
 14 15  1  0
 15 16  1  0
 15 17  1  0
 15 18  1  0
 14 19  1  0
 19 20  2  0
 20  5  1  0
 20 11  1  0
  1 21  1  0
  1 22  1  0
  2 23  1  0
  8 24  1  0
  8 25  1  0
 10 26  1  0
 12 27  1  0
 13 28  1  0
 19 29  1  0
M  END
>  <UniqueID>  (89) 
89

>  <SMILES>  (89) 
C=CC(=O)n1c(C(N)=O)cc2ccc(C(F)(F)F)cc21

>  <Energy>  (89) 
67.9195434818667

>  <Genealogy>  (89) 
C=CC(=O)n1c(C(N)=O)cc2ccc(C(F)(F)F)cc21 (3D coordinates assigned)
C=CC(=O)n1c(C(N)=O)cc2ccc(C(F)(F)F)cc21 (optimized conformer: 67.9195434818667 kcal/mol)

>  <smiles>  (89) 
C=CC(=O)n1c(C(N)=O)cc2ccc(C(F)(F)F)cc21

>  <score_type>  (89) 
oracle

>  <origin>  (89) 
adg

>  <m_score__min__energy>  (89) 
-7.4100000000000001

>  <m_primary>  (89) 
energy

$$$$
89:0
     RDKit          3D

 39 40  0  0  0  0  0  0  0  0999 V2000
   -2.6450   19.2280  -33.1410 C   0  0  0  0  0  0  0  0  0  0  0  0
   -4.0790   19.5630  -33.1070 N   0  0  0  0  0  0  0  0  0  0  0  0
   -4.7980   18.7430  -34.0940 C   0  0  0  0  0  0  0  0  0  0  0  0
   -4.3040   20.9960  -33.3850 C   0  0  0  0  0  0  0  0  0  0  0  0
   -3.1920   21.8500  -32.8340 C   0  0  0  0  0  0  0  0  0  0  0  0
   -3.1990   22.4600  -31.6390 C   0  0  0  0  0  0  0  0  0  0  0  0
   -4.2650   22.3520  -30.6240 C   0  0  0  0  0  0  0  0  0  0  0  0
   -3.9980   21.7870  -29.5290 O   0  0  0  0  0  0  0  0  0  0  0  0
   -5.6110   22.7860  -30.8790 N   0  0  0  0  0  0  0  0  0  0  0  0
   -6.1160   24.0440  -30.7380 C   0  0  0  0  0  0  0  0  0  0  0  0
   -5.3300   25.2600  -30.4460 C   0  0  0  0  0  0  0  0  0  0  0  0
   -3.9240   25.2720  -30.6870 N   0  0  0  0  0  0  0  0  0  0  0  0
   -5.8820   26.2860  -29.9670 O   0  0  0  0  0  0  0  0  0  0  0  0
   -7.4890   24.0480  -30.9780 C   0  0  0  0  0  0  0  0  0  0  0  0
   -7.8130   22.7400  -31.2630 C   0  0  0  0  0  0  0  0  0  0  0  0
   -9.0360   22.1750  -31.6070 C   0  0  0  0  0  0  0  0  0  0  0  0
   -9.0740   20.7950  -31.8650 C   0  0  0  0  0  0  0  0  0  0  0  0
   -7.9030   20.0020  -31.7500 C   0  0  0  0  0  0  0  0  0  0  0  0
   -7.9410   18.5330  -32.0870 C   0  0  0  0  0  0  0  0  0  0  0  0
   -9.2360   18.0700  -31.9520 F   0  0  0  0  0  0  0  0  0  0  0  0
   -7.5190   18.3200  -33.3880 F   0  0  0  0  0  0  0  0  0  0  0  0
   -7.1130   17.8150  -31.2410 F   0  0  0  0  0  0  0  0  0  0  0  0
   -6.6750   20.6180  -31.4130 C   0  0  0  0  0  0  0  0  0  0  0  0
   -6.6650   21.9970  -31.1820 C   0  0  0  0  0  0  0  0  0  0  0  0
   -2.2647   19.1392  -32.1126 H   0  0  0  0  0  0  0  0  0  0  0  0
   -2.5040   18.2727  -33.6679 H   0  0  0  0  0  0  0  0  0  0  0  0
   -2.0954   20.0219  -33.6679 H   0  0  0  0  0  0  0  0  0  0  0  0
   -5.4360   18.0153  -33.5711 H   0  0  0  0  0  0  0  0  0  0  0  0
   -5.4231   19.3923  -34.7245 H   0  0  0  0  0  0  0  0  0  0  0  0
   -4.0725   18.2081  -34.7245 H   0  0  0  0  0  0  0  0  0  0  0  0
   -4.3613   21.1436  -34.4735 H   0  0  0  0  0  0  0  0  0  0  0  0
   -5.2427   21.2974  -32.8972 H   0  0  0  0  0  0  0  0  0  0  0  0
   -2.3002   21.9847  -33.4637 H   0  0  0  0  0  0  0  0  0  0  0  0
   -2.3353   23.0958  -31.3946 H   0  0  0  0  0  0  0  0  0  0  0  0
   -3.4850   26.0200  -31.2670 H   0  0  0  0  0  0  0  0  0  0  0  0
   -8.1691   24.9120  -30.9465 H   0  0  0  0  0  0  0  0  0  0  0  0
   -9.9456   22.7898  -31.6750 H   0  0  0  0  0  0  0  0  0  0  0  0
  -10.0230   20.3232  -32.1598 H   0  0  0  0  0  0  0  0  0  0  0  0
   -5.7507   20.0267  -31.3346 H   0  0  0  0  0  0  0  0  0  0  0  0
  1  2  1  0
  2  3  1  0
  2  4  1  0
  4  5  1  0
  5  6  2  3
  6  7  1  0
  7  8  2  0
  7  9  1  0
  9 10  1  0
 10 11  1  0
 11 12  1  0
 11 13  2  0
 10 14  2  0
 14 15  1  0
 15 16  2  0
 16 17  1  0
 17 18  2  0
 18 19  1  0
 19 20  1  0
 19 21  1  0
 19 22  1  0
 18 23  1  0
 23 24  2  0
 24  9  1  0
 24 15  1  0
  1 25  1  0
  1 26  1  0
  1 27  1  0
  3 28  1  0
  3 29  1  0
  3 30  1  0
  4 31  1  0
  4 32  1  0
  5 33  1  0
  6 34  1  0
 12 35  1  0
 14 36  1  0
 16 37  1  0
 17 38  1  0
 23 39  1  0
M  CHG  1  12  -1
M  END
>  <UniqueID>  (90) 
90

>  <SMILES>  (90) 
CN(C)CC=CC(=O)n1c(C([NH-])=O)cc2ccc(C(F)(F)F)cc21

>  <Energy>  (90) 
77.95843059750054

>  <Genealogy>  (90) 
CN(C)CC=CC(=O)n1c(C([NH-])=O)cc2ccc(C(F)(F)F)cc21 (protonated)
CN(C)CC=CC(=O)n1c(C([NH-])=O)cc2ccc(C(F)(F)F)cc21 (3D coordinates assigned)
CN(C)CC=CC(=O)n1c(C([NH-])=O)cc2ccc(C(F)(F)F)cc21 (optimized conformer: 77.95843059750054 kcal/mol)

>  <smiles>  (90) 
CN(C)CC=CC(=O)n1c(C(N)=O)cc2ccc(C(F)(F)F)cc21

>  <score_type>  (90) 
oracle

>  <origin>  (90) 
adg

>  <m_score__min__energy>  (90) 
-9.9100000000000001

>  <m_primary>  (90) 
energy

$$$$
90:0
     RDKit          3D

 36 37  0  0  0  0  0  0  0  0999 V2000
   -2.2660   24.7750  -26.8690 C   0  0  0  0  0  0  0  0  0  0  0  0
   -1.6490   24.5510  -28.2600 C   0  0  0  0  0  0  0  0  0  0  0  0
   -0.2630   23.8980  -28.1380 C   0  0  0  0  0  0  0  0  0  0  0  0
   -1.5510   25.7720  -28.9490 O   0  0  0  0  0  0  0  0  0  0  0  0
   -2.5310   23.6620  -29.0290 C   0  0  0  0  0  0  0  0  0  0  0  0
   -3.2660   22.9320  -29.6460 C   0  0  0  0  0  0  0  0  0  0  0  0
   -4.1640   22.0730  -30.3690 C   0  0  0  0  0  0  0  0  0  0  0  0
   -3.7910   20.9080  -30.6680 O   0  0  0  0  0  0  0  0  0  0  0  0
   -5.4740   22.5320  -30.7410 N   0  0  0  0  0  0  0  0  0  0  0  0
   -5.9300   23.8180  -30.7610 C   0  0  0  0  0  0  0  0  0  0  0  0
   -5.1920   25.0070  -30.2890 C   0  0  0  0  0  0  0  0  0  0  0  0
   -3.9650   25.3770  -30.9160 N   0  0  0  0  0  0  0  0  0  0  0  0
   -5.6460   25.7220  -29.3560 O   0  0  0  0  0  0  0  0  0  0  0  0
   -7.2430   23.8630  -31.2260 C   0  0  0  0  0  0  0  0  0  0  0  0
   -7.5840   22.5560  -31.4860 C   0  0  0  0  0  0  0  0  0  0  0  0
   -8.7680   22.0240  -31.9870 C   0  0  0  0  0  0  0  0  0  0  0  0
   -8.8340   20.6360  -32.1870 C   0  0  0  0  0  0  0  0  0  0  0  0
   -7.7260   19.8050  -31.8810 C   0  0  0  0  0  0  0  0  0  0  0  0
   -7.7850   18.3230  -32.1550 C   0  0  0  0  0  0  0  0  0  0  0  0
   -6.9450   17.6330  -31.2980 F   0  0  0  0  0  0  0  0  0  0  0  0
   -9.0810   17.8790  -31.9690 F   0  0  0  0  0  0  0  0  0  0  0  0
   -7.3960   18.0520  -33.4550 F   0  0  0  0  0  0  0  0  0  0  0  0
   -6.5300   20.3880  -31.4010 C   0  0  0  0  0  0  0  0  0  0  0  0
   -6.5000   21.7720  -31.1880 C   0  0  0  0  0  0  0  0  0  0  0  0
   -1.5315   24.5083  -26.0948 H   0  0  0  0  0  0  0  0  0  0  0  0
   -2.5474   25.8327  -26.7587 H   0  0  0  0  0  0  0  0  0  0  0  0
   -3.1604   24.1442  -26.7587 H   0  0  0  0  0  0  0  0  0  0  0  0
   -0.0068   23.7773  -27.0751 H   0  0  0  0  0  0  0  0  0  0  0  0
   -0.2779   22.9122  -28.6258 H   0  0  0  0  0  0  0  0  0  0  0  0
    0.4877   24.5372  -28.6258 H   0  0  0  0  0  0  0  0  0  0  0  0
   -2.0280   25.6720  -29.8150 H   0  0  0  0  0  0  0  0  0  0  0  0
   -3.0570   25.2940  -30.4080 H   0  0  0  0  0  0  0  0  0  0  0  0
   -7.8733   24.7549  -31.3573 H   0  0  0  0  0  0  0  0  0  0  0  0
   -9.6264   22.6714  -32.2194 H   0  0  0  0  0  0  0  0  0  0  0  0
   -9.7559   20.1876  -32.5857 H   0  0  0  0  0  0  0  0  0  0  0  0
   -5.6436   19.7685  -31.1996 H   0  0  0  0  0  0  0  0  0  0  0  0
  1  2  1  0
  2  3  1  0
  2  4  1  0
  2  5  1  0
  5  6  3  0
  6  7  1  0
  7  8  2  0
  7  9  1  0
  9 10  1  0
 10 11  1  0
 11 12  1  0
 11 13  2  0
 10 14  2  0
 14 15  1  0
 15 16  2  0
 16 17  1  0
 17 18  2  0
 18 19  1  0
 19 20  1  0
 19 21  1  0
 19 22  1  0
 18 23  1  0
 23 24  2  0
 24  9  1  0
 24 15  1  0
  1 25  1  0
  1 26  1  0
  1 27  1  0
  3 28  1  0
  3 29  1  0
  3 30  1  0
  4 31  1  0
 12 32  1  0
 14 33  1  0
 16 34  1  0
 17 35  1  0
 23 36  1  0
M  CHG  1  12  -1
M  END
>  <UniqueID>  (91) 
91

>  <SMILES>  (91) 
CC(C)(O)C#CC(=O)n1c(C([NH-])=O)cc2ccc(C(F)(F)F)cc21

>  <Energy>  (91) 
67.63095600309657

>  <Genealogy>  (91) 
CC(C)(O)C#CC(=O)n1c(C([NH-])=O)cc2ccc(C(F)(F)F)cc21 (protonated)
CC(C)(O)C#CC(=O)n1c(C([NH-])=O)cc2ccc(C(F)(F)F)cc21 (3D coordinates assigned)
CC(C)(O)C#CC(=O)n1c(C([NH-])=O)cc2ccc(C(F)(F)F)cc21 (optimized conformer: 67.63095600309657 kcal/mol)

>  <smiles>  (91) 
CC(C)(O)C#CC(=O)n1c(C(N)=O)cc2ccc(C(F)(F)F)cc21

>  <score_type>  (91) 
oracle

>  <origin>  (91) 
adg

>  <m_score__min__energy>  (91) 
-11.23

>  <m_primary>  (91) 
energy

$$$$
92:0
     RDKit          3D

 41 42  0  0  0  0  0  0  0  0999 V2000
   -6.7430   17.0950  -33.1640 C   0  0  0  0  0  0  0  0  0  0  0  0
   -6.8600   18.4080  -33.7890 N   0  0  0  0  0  0  0  0  0  0  0  0
   -7.0270   19.6310  -33.0470 C   0  0  0  0  0  0  0  0  0  0  0  0
   -8.3290   20.0150  -32.6400 C   0  0  0  0  0  0  0  0  0  0  0  0
   -8.5420   21.2120  -31.9380 C   0  0  0  0  0  0  0  0  0  0  0  0
   -7.4360   22.0030  -31.6510 C   0  0  0  0  0  0  0  0  0  0  0  0
   -7.3640   23.2280  -31.0260 C   0  0  0  0  0  0  0  0  0  0  0  0
   -6.0120   23.5730  -31.0440 C   0  0  0  0  0  0  0  0  0  0  0  0
   -5.4560   24.7940  -30.4190 C   0  0  0  0  0  0  0  0  0  0  0  0
   -5.8230   25.1690  -29.0890 N   0  0  0  0  0  0  0  0  0  0  0  0
   -4.6290   25.5050  -31.0480 O   0  0  0  0  0  0  0  0  0  0  0  0
   -5.2820   22.5950  -31.6490 N   0  0  0  0  0  0  0  0  0  0  0  0
   -3.8750   22.6000  -31.9320 C   0  0  0  0  0  0  0  0  0  0  0  0
   -3.4120   21.8380  -32.8240 O   0  0  0  0  0  0  0  0  0  0  0  0
   -3.0250   23.4480  -31.2120 O   0  0  0  0  0  0  0  0  0  0  0  0
   -2.4000   23.0680  -29.9900 C   0  0  0  0  0  0  0  0  0  0  0  0
   -2.5560   24.1660  -28.9760 C   0  0  0  0  0  0  0  0  0  0  0  0
   -1.9860   25.2710  -29.1920 O   0  0  0  0  0  0  0  0  0  0  0  0
   -3.2800   23.9630  -27.7430 N   0  0  0  0  0  0  0  0  0  0  0  0
   -4.1480   22.7920  -27.5690 C   0  0  0  0  0  0  0  0  0  0  0  0
   -3.1480   24.9490  -26.6670 C   0  0  0  0  0  0  0  0  0  0  0  0
   -6.1660   21.6430  -32.0170 C   0  0  0  0  0  0  0  0  0  0  0  0
   -5.9240   20.4630  -32.7300 C   0  0  0  0  0  0  0  0  0  0  0  0
   -6.7530   17.2075  -32.0698 H   0  0  0  0  0  0  0  0  0  0  0  0
   -7.5885   16.4640  -33.4755 H   0  0  0  0  0  0  0  0  0  0  0  0
   -5.7993   16.6234  -33.4755 H   0  0  0  0  0  0  0  0  0  0  0  0
   -6.8360   18.4500  -34.8330 H   0  0  0  0  0  0  0  0  0  0  0  0
   -9.1848   19.3660  -32.8775 H   0  0  0  0  0  0  0  0  0  0  0  0
   -9.5523   21.5142  -31.6251 H   0  0  0  0  0  0  0  0  0  0  0  0
   -8.1954   23.8106  -30.6026 H   0  0  0  0  0  0  0  0  0  0  0  0
   -5.3940   26.0120  -28.6470 H   0  0  0  0  0  0  0  0  0  0  0  0
   -6.5490   24.6430  -28.5560 H   0  0  0  0  0  0  0  0  0  0  0  0
   -2.8706   22.1496  -29.6092 H   0  0  0  0  0  0  0  0  0  0  0  0
   -1.3297   22.8887  -30.1697 H   0  0  0  0  0  0  0  0  0  0  0  0
   -4.2916   22.5983  -26.4958 H   0  0  0  0  0  0  0  0  0  0  0  0
   -5.1229   22.9850  -28.0404 H   0  0  0  0  0  0  0  0  0  0  0  0
   -3.6799   21.9153  -28.0404 H   0  0  0  0  0  0  0  0  0  0  0  0
   -3.2160   24.4409  -25.6937 H   0  0  0  0  0  0  0  0  0  0  0  0
   -2.1742   25.4539  -26.7498 H   0  0  0  0  0  0  0  0  0  0  0  0
   -3.9547   25.6923  -26.7498 H   0  0  0  0  0  0  0  0  0  0  0  0
   -4.9039   20.1883  -33.0365 H   0  0  0  0  0  0  0  0  0  0  0  0
  1  2  1  0
  2  3  1  0
  3  4  2  0
  4  5  1  0
  5  6  2  0
  6  7  1  0
  7  8  2  0
  8  9  1  0
  9 10  1  0
  9 11  2  0
  8 12  1  0
 12 13  1  0
 13 14  2  0
 13 15  1  0
 15 16  1  0
 16 17  1  0
 17 18  2  0
 17 19  1  0
 19 20  1  0
 19 21  1  0
 12 22  1  0
 22 23  2  0
 23  3  1  0
 22  6  1  0
  1 24  1  0
  1 25  1  0
  1 26  1  0
  2 27  1  0
  4 28  1  0
  5 29  1  0
  7 30  1  0
 10 31  1  0
 10 32  1  0
 16 33  1  0
 16 34  1  0
 20 35  1  0
 20 36  1  0
 20 37  1  0
 21 38  1  0
 21 39  1  0
 21 40  1  0
 23 41  1  0
M  END
>  <UniqueID>  (92) 
92

>  <SMILES>  (92) 
CNc1ccc2cc(C(N)=O)n(C(=O)OCC(=O)N(C)C)c2c1

>  <Energy>  (92) 
71.84635455024687

>  <Genealogy>  (92) 
CNc1ccc2cc(C(N)=O)n(C(=O)OCC(=O)N(C)C)c2c1 (3D coordinates assigned)
CNc1ccc2cc(C(N)=O)n(C(=O)OCC(=O)N(C)C)c2c1 (optimized conformer: 71.84635455024687 kcal/mol)

>  <smiles>  (92) 
CNc1ccc2cc(C(N)=O)n(C(=O)OCC(=O)N(C)C)c2c1

>  <score_type>  (92) 
oracle

>  <origin>  (92) 
adg

>  <m_score__min__energy>  (92) 
-9.0700000000000003

>  <m_primary>  (92) 
energy

$$$$
93:0
     RDKit          3D

 35 36  0  0  0  0  0  0  0  0999 V2000
   -2.9140   21.1390  -29.6560 C   0  0  0  0  0  0  0  0  0  0  0  0
   -2.9950   22.2940  -30.3340 C   0  0  0  0  0  0  0  0  0  0  0  0
   -2.2070   23.4440  -29.9580 N   0  0  0  0  0  0  0  0  0  0  0  0
   -1.3280   23.5130  -28.7900 C   0  0  0  0  0  0  0  0  0  0  0  0
   -0.7170   24.8740  -28.6760 C   0  0  0  0  0  0  0  0  0  0  0  0
   -1.2170   25.8440  -29.3040 O   0  0  0  0  0  0  0  0  0  0  0  0
    0.3840   25.0800  -27.8550 O   0  0  0  0  0  0  0  0  0  0  0  0
   -3.8880   22.3940  -31.5150 C   0  0  0  0  0  0  0  0  0  0  0  0
   -3.4220   22.2610  -32.6800 O   0  0  0  0  0  0  0  0  0  0  0  0
   -5.2940   22.6360  -31.3460 N   0  0  0  0  0  0  0  0  0  0  0  0
   -5.8960   23.7720  -30.8950 C   0  0  0  0  0  0  0  0  0  0  0  0
   -5.2000   24.9750  -30.3920 C   0  0  0  0  0  0  0  0  0  0  0  0
   -3.9160   25.3210  -30.9080 N   0  0  0  0  0  0  0  0  0  0  0  0
   -5.7360   25.7130  -29.5240 O   0  0  0  0  0  0  0  0  0  0  0  0
   -7.2830   23.6290  -30.9180 C   0  0  0  0  0  0  0  0  0  0  0  0
   -7.5120   22.3610  -31.4040 C   0  0  0  0  0  0  0  0  0  0  0  0
   -8.7090   21.6940  -31.6440 C   0  0  0  0  0  0  0  0  0  0  0  0
   -8.6440   20.3920  -32.1700 C   0  0  0  0  0  0  0  0  0  0  0  0
   -7.3930   19.7900  -32.4540 C   0  0  0  0  0  0  0  0  0  0  0  0
   -7.3450   18.4020  -33.0260 C   0  0  0  0  0  0  0  0  0  0  0  0
   -6.4410   18.3610  -34.0730 F   0  0  0  0  0  0  0  0  0  0  0  0
   -6.9500   17.5070  -32.0470 F   0  0  0  0  0  0  0  0  0  0  0  0
   -6.1980   20.4990  -32.2000 C   0  0  0  0  0  0  0  0  0  0  0  0
   -6.2940   21.7850  -31.6580 C   0  0  0  0  0  0  0  0  0  0  0  0
   -3.5250   20.2772  -29.9626 H   0  0  0  0  0  0  0  0  0  0  0  0
   -2.2366   21.0539  -28.7935 H   0  0  0  0  0  0  0  0  0  0  0  0
   -2.2950   24.3130  -30.5310 H   0  0  0  0  0  0  0  0  0  0  0  0
   -1.9133   23.3015  -27.8830 H   0  0  0  0  0  0  0  0  0  0  0  0
   -0.5249   22.7700  -28.9038 H   0  0  0  0  0  0  0  0  0  0  0  0
   -3.0690   25.2980  -30.2980 H   0  0  0  0  0  0  0  0  0  0  0  0
   -8.0348   24.3717  -30.6126 H   0  0  0  0  0  0  0  0  0  0  0  0
   -9.6767   22.1708  -31.4288 H   0  0  0  0  0  0  0  0  0  0  0  0
   -9.5729   19.8353  -32.3629 H   0  0  0  0  0  0  0  0  0  0  0  0
   -8.3456   18.1285  -33.3920 H   0  0  0  0  0  0  0  0  0  0  0  0
   -5.2180   20.0518  -32.4225 H   0  0  0  0  0  0  0  0  0  0  0  0
  1  2  2  0
  2  3  1  0
  3  4  1  0
  4  5  1  0
  5  6  2  0
  5  7  1  0
  2  8  1  0
  8  9  2  0
  8 10  1  0
 10 11  1  0
 11 12  1  0
 12 13  1  0
 12 14  2  0
 11 15  2  0
 15 16  1  0
 16 17  2  0
 17 18  1  0
 18 19  2  0
 19 20  1  0
 20 21  1  0
 20 22  1  0
 19 23  1  0
 23 24  2  0
 24 10  1  0
 24 16  1  0
  1 25  1  0
  1 26  1  0
  3 27  1  0
  4 28  1  0
  4 29  1  0
 13 30  1  0
 15 31  1  0
 17 32  1  0
 18 33  1  0
 20 34  1  0
 23 35  1  0
M  CHG  2   7  -1  13  -1
M  END
>  <UniqueID>  (93) 
93

>  <SMILES>  (93) 
C=C(NCC(=O)[O-])C(=O)n1c(C([NH-])=O)cc2ccc(C(F)F)cc21

>  <Energy>  (93) 
72.100773199956

>  <Genealogy>  (93) 
C=C(NCC(=O)[O-])C(=O)n1c(C([NH-])=O)cc2ccc(C(F)F)cc21 (protonated)
C=C(NCC(=O)[O-])C(=O)n1c(C([NH-])=O)cc2ccc(C(F)F)cc21 (3D coordinates assigned)
C=C(NCC(=O)[O-])C(=O)n1c(C([NH-])=O)cc2ccc(C(F)F)cc21 (optimized conformer: 72.100773199956 kcal/mol)

>  <smiles>  (93) 
C=C(NCC(=O)O)C(=O)n1c(C(N)=O)cc2ccc(C(F)F)cc21

>  <score_type>  (93) 
oracle

>  <origin>  (93) 
adg

>  <m_score__min__energy>  (93) 
-12.02

>  <m_primary>  (93) 
energy

$$$$
