0:0
     RDKit          3D

 43 44  0  0  0  0  0  0  0  0999 V2000
   -4.5930   14.8280  -31.9920 C   0  0  0  0  0  0  0  0  0  0  0  0
   -5.3890   14.9230  -33.2210 N   0  0  0  0  0  0  0  0  0  0  0  0
   -5.5130   13.7570  -34.1040 C   0  0  0  0  0  0  0  0  0  0  0  0
   -6.0750   16.1440  -33.5760 C   0  0  0  0  0  0  0  0  0  0  0  0
   -6.8320   16.1620  -34.5850 O   0  0  0  0  0  0  0  0  0  0  0  0
   -5.9230   17.4110  -32.7750 C   0  0  0  0  0  0  0  0  0  0  0  0
   -6.5600   18.5420  -33.4520 N   0  0  0  0  0  0  0  0  0  0  0  0
   -6.7590   19.8420  -32.8610 C   0  0  0  0  0  0  0  0  0  0  0  0
   -8.0690   20.3810  -32.8160 C   0  0  0  0  0  0  0  0  0  0  0  0
   -8.3130   21.6400  -32.2420 C   0  0  0  0  0  0  0  0  0  0  0  0
   -7.2270   22.3430  -31.7290 C   0  0  0  0  0  0  0  0  0  0  0  0
   -7.1820   23.5650  -31.0960 C   0  0  0  0  0  0  0  0  0  0  0  0
   -5.8380   23.7670  -30.7820 C   0  0  0  0  0  0  0  0  0  0  0  0
   -5.3230   24.9950  -30.1390 C   0  0  0  0  0  0  0  0  0  0  0  0
   -4.1930   25.6640  -30.6950 N   0  0  0  0  0  0  0  0  0  0  0  0
   -5.8530   25.4450  -29.0910 O   0  0  0  0  0  0  0  0  0  0  0  0
   -5.0850   22.7140  -31.2070 N   0  0  0  0  0  0  0  0  0  0  0  0
   -3.6770   22.5070  -31.0230 C   0  0  0  0  0  0  0  0  0  0  0  0
   -3.0830   21.6150  -31.6890 O   0  0  0  0  0  0  0  0  0  0  0  0
   -2.9450   23.3200  -30.0980 N   0  0  0  0  0  0  0  0  0  0  0  0
   -1.4890   23.2540  -30.0070 C   0  0  0  0  0  0  0  0  0  0  0  0
   -0.9470   24.4780  -29.3420 C   0  0  0  0  0  0  0  0  0  0  0  0
   -1.6160   25.5450  -29.3380 O   0  0  0  0  0  0  0  0  0  0  0  0
    0.2720   24.4280  -28.6780 O   0  0  0  0  0  0  0  0  0  0  0  0
   -5.9500   21.8510  -31.7830 C   0  0  0  0  0  0  0  0  0  0  0  0
   -5.6810   20.5920  -32.3330 C   0  0  0  0  0  0  0  0  0  0  0  0
   -5.2566   14.9072  -31.1183 H   0  0  0  0  0  0  0  0  0  0  0  0
   -4.0693   13.8610  -31.9682 H   0  0  0  0  0  0  0  0  0  0  0  0
   -3.8564   15.6446  -31.9682 H   0  0  0  0  0  0  0  0  0  0  0  0
   -5.6099   12.8454  -33.4961 H   0  0  0  0  0  0  0  0  0  0  0  0
   -6.4041   13.8709  -34.7388 H   0  0  0  0  0  0  0  0  0  0  0  0
   -4.6179   13.6809  -34.7388 H   0  0  0  0  0  0  0  0  0  0  0  0
   -6.3919   17.2716  -31.7897 H   0  0  0  0  0  0  0  0  0  0  0  0
   -4.8503   17.6285  -32.6653 H   0  0  0  0  0  0  0  0  0  0  0  0
   -6.8840   18.3890  -34.4330 H   0  0  0  0  0  0  0  0  0  0  0  0
   -8.9068   19.8054  -33.2365 H   0  0  0  0  0  0  0  0  0  0  0  0
   -9.3301   22.0568  -32.1994 H   0  0  0  0  0  0  0  0  0  0  0  0
   -8.0256   24.2381  -30.8834 H   0  0  0  0  0  0  0  0  0  0  0  0
   -3.2280   25.2870  -30.5630 H   0  0  0  0  0  0  0  0  0  0  0  0
   -3.4800   23.9730  -29.4790 H   0  0  0  0  0  0  0  0  0  0  0  0
   -1.2033   22.3679  -29.4212 H   0  0  0  0  0  0  0  0  0  0  0  0
   -1.0729   23.1890  -31.0232 H   0  0  0  0  0  0  0  0  0  0  0  0
   -4.6554   20.1948  -32.3543 H   0  0  0  0  0  0  0  0  0  0  0  0
  1  2  1  0
  2  3  1  0
  2  4  1  0
  4  5  2  0
  4  6  1  0
  6  7  1  0
  7  8  1  0
  8  9  2  0
  9 10  1  0
 10 11  2  0
 11 12  1  0
 12 13  2  0
 13 14  1  0
 14 15  1  0
 14 16  2  0
 13 17  1  0
 17 18  1  0
 18 19  2  0
 18 20  1  0
 20 21  1  0
 21 22  1  0
 22 23  2  0
 22 24  1  0
 17 25  1  0
 25 26  2  0
 26  8  1  0
 25 11  1  0
  1 27  1  0
  1 28  1  0
  1 29  1  0
  3 30  1  0
  3 31  1  0
  3 32  1  0
  6 33  1  0
  6 34  1  0
  7 35  1  0
  9 36  1  0
 10 37  1  0
 12 38  1  0
 15 39  1  0
 20 40  1  0
 21 41  1  0
 21 42  1  0
 26 43  1  0
M  CHG  2  15  -1  24  -1
M  END
>  <UniqueID>  (1) 
1

>  <SMILES>  (1) 
CN(C)C(=O)CNc1ccc2cc(C([NH-])=O)n(C(=O)NCC(=O)[O-])c2c1

>  <Energy>  (1) 
75.07354926284216

>  <Genealogy>  (1) 
CN(C)C(=O)CNc1ccc2cc(C([NH-])=O)n(C(=O)NCC(=O)[O-])c2c1 (protonated)
CN(C)C(=O)CNc1ccc2cc(C([NH-])=O)n(C(=O)NCC(=O)[O-])c2c1 (3D coordinates assigned)
CN(C)C(=O)CNc1ccc2cc(C([NH-])=O)n(C(=O)NCC(=O)[O-])c2c1 (optimized conformer: 75.07354926284216 kcal/mol)

>  <smiles>  (1) 
CN(C)C(=O)CNc1ccc2cc(C(N)=O)n(C(=O)NCC(=O)O)c2c1

>  <score_type>  (1) 
oracle

>  <origin>  (1) 
adg

>  <m_score__min__energy>  (1) 
-12.210000000000001

>  <m_primary>  (1) 
energy

$$$$
1:0
     RDKit          3D

 31 32  0  0  0  0  0  0  0  0999 V2000
   -3.1030   21.5280  -28.0530 C   0  0  0  0  0  0  0  0  0  0  0  0
   -2.7600   21.4360  -29.4300 O   0  0  0  0  0  0  0  0  0  0  0  0
   -2.9210   22.5030  -30.3190 C   0  0  0  0  0  0  0  0  0  0  0  0
   -2.3640   23.6130  -30.0960 O   0  0  0  0  0  0  0  0  0  0  0  0
   -3.7620   22.3300  -31.5120 C   0  0  0  0  0  0  0  0  0  0  0  0
   -3.2210   22.0550  -32.6160 O   0  0  0  0  0  0  0  0  0  0  0  0
   -5.1920   22.4530  -31.4330 N   0  0  0  0  0  0  0  0  0  0  0  0
   -5.9040   23.4520  -30.8380 C   0  0  0  0  0  0  0  0  0  0  0  0
   -5.3220   24.6820  -30.2540 C   0  0  0  0  0  0  0  0  0  0  0  0
   -5.7580   25.1700  -28.9840 N   0  0  0  0  0  0  0  0  0  0  0  0
   -4.4400   25.3240  -30.8830 O   0  0  0  0  0  0  0  0  0  0  0  0
   -7.2710   23.1810  -30.9100 C   0  0  0  0  0  0  0  0  0  0  0  0
   -7.3700   21.9720  -31.5620 C   0  0  0  0  0  0  0  0  0  0  0  0
   -8.4950   21.2180  -31.8870 C   0  0  0  0  0  0  0  0  0  0  0  0
   -8.2980   19.9860  -32.5330 C   0  0  0  0  0  0  0  0  0  0  0  0
   -6.9900   19.5290  -32.8330 C   0  0  0  0  0  0  0  0  0  0  0  0
   -6.8010   18.2000  -33.5080 C   0  0  0  0  0  0  0  0  0  0  0  0
   -6.0590   18.3670  -34.6630 F   0  0  0  0  0  0  0  0  0  0  0  0
   -6.1350   17.3360  -32.6560 F   0  0  0  0  0  0  0  0  0  0  0  0
   -5.8730   20.3210  -32.4860 C   0  0  0  0  0  0  0  0  0  0  0  0
   -6.1010   21.5520  -31.8630 C   0  0  0  0  0  0  0  0  0  0  0  0
   -2.2215   21.2916  -27.4390 H   0  0  0  0  0  0  0  0  0  0  0  0
   -3.4437   22.5493  -27.8274 H   0  0  0  0  0  0  0  0  0  0  0  0
   -3.9091   20.8143  -27.8274 H   0  0  0  0  0  0  0  0  0  0  0  0
   -6.4370   24.6360  -28.3970 H   0  0  0  0  0  0  0  0  0  0  0  0
   -5.3640   26.0570  -28.6020 H   0  0  0  0  0  0  0  0  0  0  0  0
   -8.0947   23.8014  -30.5272 H   0  0  0  0  0  0  0  0  0  0  0  0
   -9.5066   21.5760  -31.6453 H   0  0  0  0  0  0  0  0  0  0  0  0
   -9.1668   19.3702  -32.8086 H   0  0  0  0  0  0  0  0  0  0  0  0
   -7.7853   17.7794  -33.7614 H   0  0  0  0  0  0  0  0  0  0  0  0
   -4.8500   19.9782  -32.7004 H   0  0  0  0  0  0  0  0  0  0  0  0
  1  2  1  0
  2  3  1  0
  3  4  2  0
  3  5  1  0
  5  6  2  0
  5  7  1  0
  7  8  1  0
  8  9  1  0
  9 10  1  0
  9 11  2  0
  8 12  2  0
 12 13  1  0
 13 14  2  0
 14 15  1  0
 15 16  2  0
 16 17  1  0
 17 18  1  0
 17 19  1  0
 16 20  1  0
 20 21  2  0
 21  7  1  0
 21 13  1  0
  1 22  1  0
  1 23  1  0
  1 24  1  0
 10 25  1  0
 10 26  1  0
 12 27  1  0
 14 28  1  0
 15 29  1  0
 17 30  1  0
 20 31  1  0
M  END
>  <UniqueID>  (2) 
2

>  <SMILES>  (2) 
COC(=O)C(=O)n1c(C(N)=O)cc2ccc(C(F)F)cc21

>  <Energy>  (2) 
67.58069937024712

>  <Genealogy>  (2) 
COC(=O)C(=O)n1c(C(N)=O)cc2ccc(C(F)F)cc21 (3D coordinates assigned)
COC(=O)C(=O)n1c(C(N)=O)cc2ccc(C(F)F)cc21 (optimized conformer: 67.58069937024712 kcal/mol)

>  <smiles>  (2) 
COC(=O)C(=O)n1c(C(N)=O)cc2ccc(C(F)F)cc21

>  <score_type>  (2) 
oracle

>  <origin>  (2) 
adg

>  <m_score__min__energy>  (2) 
-7.3600000000000003

>  <m_primary>  (2) 
energy

$$$$
2:0
     RDKit          3D

 48 49  0  0  0  0  0  0  0  0999 V2000
    1.2450   17.3000  -33.5330 C   0  0  0  0  0  0  0  0  0  0  0  0
    0.3440   18.0370  -34.9920 Si  0  0  0  0  0  4  0  0  0  0  0  0
    1.1990   19.6080  -35.5270 C   0  0  0  0  0  0  0  0  0  0  0  0
    0.3410   16.8160  -36.4050 C   0  0  0  0  0  0  0  0  0  0  0  0
   -1.3670   18.4120  -34.5180 C   0  0  0  0  0  0  0  0  0  0  0  0
   -2.5040   18.6570  -34.2060 C   0  0  0  0  0  0  0  0  0  0  0  0
   -3.8600   18.9550  -33.8290 C   0  0  0  0  0  0  0  0  0  0  0  0
   -4.8640   17.9690  -33.9690 C   0  0  0  0  0  0  0  0  0  0  0  0
   -6.1930   18.2530  -33.6120 C   0  0  0  0  0  0  0  0  0  0  0  0
   -6.4780   19.5210  -33.1130 C   0  0  0  0  0  0  0  0  0  0  0  0
   -7.6760   20.0630  -32.7090 C   0  0  0  0  0  0  0  0  0  0  0  0
   -7.3780   21.3640  -32.3070 C   0  0  0  0  0  0  0  0  0  0  0  0
   -8.3660   22.2840  -31.7030 C   0  0  0  0  0  0  0  0  0  0  0  0
   -8.1920   23.7000  -31.7920 N   0  0  0  0  0  0  0  0  0  0  0  0
   -9.3900   21.8270  -31.1310 O   0  0  0  0  0  0  0  0  0  0  0  0
   -6.0470   21.6180  -32.4630 N   0  0  0  0  0  0  0  0  0  0  0  0
   -5.3530   22.8520  -32.2140 C   0  0  0  0  0  0  0  0  0  0  0  0
   -5.7660   23.9250  -32.7340 O   0  0  0  0  0  0  0  0  0  0  0  0
   -4.2080   22.8550  -31.4110 O   0  0  0  0  0  0  0  0  0  0  0  0
   -4.2520   23.0690  -30.0040 C   0  0  0  0  0  0  0  0  0  0  0  0
   -4.3970   24.5680  -29.7080 C   0  0  1  0  0  0  0  0  0  0  0  0
   -3.8390   25.3270  -30.7510 O   0  0  0  0  0  0  0  0  0  0  0  0
   -5.8670   24.9620  -29.4730 C   0  0  0  0  0  0  0  0  0  0  0  0
   -6.4590   25.3800  -30.6740 O   0  0  0  0  0  0  0  0  0  0  0  0
   -5.5100   20.4800  -32.9550 C   0  0  0  0  0  0  0  0  0  0  0  0
   -4.1810   20.2290  -33.3230 C   0  0  0  0  0  0  0  0  0  0  0  0
    0.7945   17.6685  -32.5996 H   0  0  0  0  0  0  0  0  0  0  0  0
    1.1671   16.2034  -33.5698 H   0  0  0  0  0  0  0  0  0  0  0  0
    2.3044   17.5938  -33.5698 H   0  0  0  0  0  0  0  0  0  0  0  0
    1.5090   20.1776  -34.6385 H   0  0  0  0  0  0  0  0  0  0  0  0
    2.0848   19.3567  -36.1289 H   0  0  0  0  0  0  0  0  0  0  0  0
    0.5070   20.2154  -36.1289 H   0  0  0  0  0  0  0  0  0  0  0  0
    0.3385   15.7916  -36.0043 H   0  0  0  0  0  0  0  0  0  0  0  0
   -0.5568   16.9708  -37.0215 H   0  0  0  0  0  0  0  0  0  0  0  0
    1.2395   16.9664  -37.0215 H   0  0  0  0  0  0  0  0  0  0  0  0
   -4.6031   16.9743  -34.3595 H   0  0  0  0  0  0  0  0  0  0  0  0
   -6.9839   17.4967  -33.7234 H   0  0  0  0  0  0  0  0  0  0  0  0
   -8.6610   19.5733  -32.7042 H   0  0  0  0  0  0  0  0  0  0  0  0
   -7.3320   24.1160  -32.2110 H   0  0  0  0  0  0  0  0  0  0  0  0
   -8.9150   24.3420  -31.3970 H   0  0  0  0  0  0  0  0  0  0  0  0
   -5.1110   22.5286  -29.5796 H   0  0  0  0  0  0  0  0  0  0  0  0
   -3.3199   22.6991  -29.5520 H   0  0  0  0  0  0  0  0  0  0  0  0
   -3.8474   24.7825  -28.7796 H   0  0  0  0  0  0  0  0  0  0  0  0
   -4.3180   25.0840  -31.5880 H   0  0  0  0  0  0  0  0  0  0  0  0
   -6.4168   24.0937  -29.0809 H   0  0  0  0  0  0  0  0  0  0  0  0
   -5.9033   25.7902  -28.7500 H   0  0  0  0  0  0  0  0  0  0  0  0
   -5.8810   25.0460  -31.4080 H   0  0  0  0  0  0  0  0  0  0  0  0
   -3.4097   21.0064  -33.2193 H   0  0  0  0  0  0  0  0  0  0  0  0
  1  2  1  0
  2  3  1  0
  2  4  1  0
  2  5  1  0
  5  6  3  0
  6  7  1  0
  7  8  2  0
  8  9  1  0
  9 10  2  0
 10 11  1  0
 11 12  2  0
 12 13  1  0
 13 14  1  0
 13 15  2  0
 12 16  1  0
 16 17  1  0
 17 18  2  0
 17 19  1  0
 19 20  1  0
 20 21  1  0
 21 22  1  0
 21 23  1  0
 23 24  1  0
 16 25  1  0
 25 26  2  0
 26  7  1  0
 25 10  1  0
  1 27  1  0
  1 28  1  0
  1 29  1  0
  3 30  1  0
  3 31  1  0
  3 32  1  0
  4 33  1  0
  4 34  1  0
  4 35  1  0
  8 36  1  0
  9 37  1  0
 11 38  1  0
 14 39  1  0
 14 40  1  0
 20 41  1  0
 20 42  1  0
 21 43  1  1
 22 44  1  0
 23 45  1  0
 23 46  1  0
 24 47  1  0
 26 48  1  0
M  END
>  <UniqueID>  (3) 
3

>  <SMILES>  (3) 
C[Si](C)(C)C#Cc1ccc2cc(C(N)=O)n(C(=O)OC[C@@H](O)CO)c2c1

>  <Energy>  (3) 
64.37133711541371

>  <Genealogy>  (3) 
C[Si](C)(C)C#Cc1ccc2cc(C(N)=O)n(C(=O)OC[C@@H](O)CO)c2c1 (chirality)
C[Si](C)(C)C#Cc1ccc2cc(C(N)=O)n(C(=O)OC[C@@H](O)CO)c2c1 (3D coordinates assigned)
C[Si](C)(C)C#Cc1ccc2cc(C(N)=O)n(C(=O)OC[C@@H](O)CO)c2c1 (optimized conformer: 64.37133711541371 kcal/mol)

>  <smiles>  (3) 
C[Si](C)(C)C#Cc1ccc2cc(C(N)=O)n(C(=O)OCC(O)CO)c2c1

>  <score_type>  (3) 
oracle

>  <origin>  (3) 
adg

>  <m_score__min__energy>  (3) 
-9.25

>  <m_primary>  (3) 
energy

$$$$
3:0
     RDKit          3D

 37 39  0  0  0  0  0  0  0  0999 V2000
   -1.5720   25.8700  -28.9790 N   0  0  0  0  0  0  0  0  0  0  0  0
   -1.0300   24.5530  -29.0600 C   0  0  0  0  0  0  0  0  0  0  0  0
    0.0510   24.2940  -28.4700 O   0  0  0  0  0  0  0  0  0  0  0  0
   -1.7170   23.5250  -29.8690 C   0  0  0  0  0  0  0  0  0  0  0  0
   -1.1040   22.3480  -30.2960 C   0  0  0  0  0  0  0  0  0  0  0  0
   -2.0900   21.6320  -30.9330 C   0  0  0  0  0  0  0  0  0  0  0  0
   -2.0300   20.3930  -31.5630 C   0  0  0  0  0  0  0  0  0  0  0  0
   -3.2000   19.9050  -32.1690 C   0  0  0  0  0  0  0  0  0  0  0  0
   -4.4020   20.6590  -32.1410 C   0  0  0  0  0  0  0  0  0  0  0  0
   -5.5920   20.1570  -32.7870 N   0  0  0  0  0  0  0  0  0  0  0  0
   -6.8420   20.9360  -32.6860 C   0  0  0  0  0  0  0  0  0  0  0  0
   -8.0470   20.0990  -32.2230 C   0  0  0  0  0  0  0  0  0  0  0  0
   -7.9920   18.6400  -32.7200 C   0  0  0  0  0  0  0  0  0  0  0  0
   -7.1580   17.8030  -31.9380 O   0  0  0  0  0  0  0  0  0  0  0  0
   -5.8630   17.6940  -32.5020 C   0  0  0  0  0  0  0  0  0  0  0  0
   -5.5620   18.8530  -33.4730 C   0  0  0  0  0  0  0  0  0  0  0  0
   -4.4180   21.9180  -31.4950 C   0  0  0  0  0  0  0  0  0  0  0  0
   -3.2440   22.3710  -30.8830 C   0  0  0  0  0  0  0  0  0  0  0  0
   -3.0310   23.5390  -30.2370 N   0  0  0  0  0  0  0  0  0  0  0  0
   -3.9920   24.5900  -30.0430 C   0  0  0  0  0  0  0  0  0  0  0  0
   -3.8840   25.6750  -30.6750 O   0  0  0  0  0  0  0  0  0  0  0  0
   -5.0630   24.4120  -29.1770 O   0  0  0  0  0  0  0  0  0  0  0  0
   -2.6050   26.0270  -29.0070 H   0  0  0  0  0  0  0  0  0  0  0  0
   -0.0536   22.0542  -30.1535 H   0  0  0  0  0  0  0  0  0  0  0  0
   -1.0954   19.8133  -31.5860 H   0  0  0  0  0  0  0  0  0  0  0  0
   -3.1841   18.9265  -32.6713 H   0  0  0  0  0  0  0  0  0  0  0  0
   -6.6869   21.7525  -31.9654 H   0  0  0  0  0  0  0  0  0  0  0  0
   -7.0742   21.3101  -33.6940 H   0  0  0  0  0  0  0  0  0  0  0  0
   -8.0691   20.0944  -31.1232 H   0  0  0  0  0  0  0  0  0  0  0  0
   -8.9509   20.5586  -32.6492 H   0  0  0  0  0  0  0  0  0  0  0  0
   -9.0119   18.2283  -32.7021 H   0  0  0  0  0  0  0  0  0  0  0  0
   -7.5659   18.6616  -33.7339 H   0  0  0  0  0  0  0  0  0  0  0  0
   -5.1194   17.7063  -31.6915 H   0  0  0  0  0  0  0  0  0  0  0  0
   -5.8149   16.7522  -33.0684 H   0  0  0  0  0  0  0  0  0  0  0  0
   -4.5639   18.7024  -33.9101 H   0  0  0  0  0  0  0  0  0  0  0  0
   -6.3364   18.8573  -34.2543 H   0  0  0  0  0  0  0  0  0  0  0  0
   -5.3336   22.5274  -31.4744 H   0  0  0  0  0  0  0  0  0  0  0  0
  1  2  1  0
  2  3  2  0
  2  4  1  0
  4  5  2  0
  5  6  1  0
  6  7  2  0
  7  8  1  0
  8  9  2  0
  9 10  1  0
 10 11  1  0
 11 12  1  0
 12 13  1  0
 13 14  1  0
 14 15  1  0
 15 16  1  0
  9 17  1  0
 17 18  2  0
 18 19  1  0
 19 20  1  0
 20 21  2  0
 20 22  1  0
 19  4  1  0
 18  6  1  0
 16 10  1  0
  1 23  1  0
  5 24  1  0
  7 25  1  0
  8 26  1  0
 11 27  1  0
 11 28  1  0
 12 29  1  0
 12 30  1  0
 13 31  1  0
 13 32  1  0
 15 33  1  0
 15 34  1  0
 16 35  1  0
 16 36  1  0
 17 37  1  0
M  CHG  2   1  -1  22  -1
M  END
>  <UniqueID>  (4) 
4

>  <SMILES>  (4) 
[NH-]C(=O)c1cc2ccc(N3CCCOCC3)cc2n1C(=O)[O-]

>  <Energy>  (4) 
90.32713680769197

>  <Genealogy>  (4) 
[NH-]C(=O)c1cc2ccc(N3CCCOCC3)cc2n1C(=O)[O-] (protonated)
[NH-]C(=O)c1cc2ccc(N3CCCOCC3)cc2n1C(=O)[O-] (3D coordinates assigned)
[NH-]C(=O)c1cc2ccc(N3CCCOCC3)cc2n1C(=O)[O-] (nonaromatic ring conformer: 90.32713680769197 kcal/mol)

>  <smiles>  (4) 
NC(=O)c1cc2ccc(N3CCCOCC3)cc2n1C(=O)O

>  <score_type>  (4) 
oracle

>  <origin>  (4) 
adg

>  <m_score__min__energy>  (4) 
-9.6699999999999999

>  <m_primary>  (4) 
energy

$$$$
4:0
     RDKit          3D

 40 41  0  0  0  0  0  0  0  0999 V2000
   -3.8700   17.0990  -35.0040 C   0  0  0  0  0  0  0  0  0  0  0  0
   -5.2880   17.2530  -35.0110 O   0  0  0  0  0  0  0  0  0  0  0  0
   -6.1310   16.5490  -34.1460 C   0  0  0  0  0  0  0  0  0  0  0  0
   -7.1890   16.0120  -34.5710 O   0  0  0  0  0  0  0  0  0  0  0  0
   -5.7690   16.4420  -32.6970 C   0  0  0  0  0  0  0  0  0  0  0  0
   -5.6680   17.7450  -32.1280 O   0  0  0  0  0  0  0  0  0  0  0  0
   -6.2590   18.8760  -32.7020 C   0  0  0  0  0  0  0  0  0  0  0  0
   -7.4860   19.1280  -32.5260 O   0  0  0  0  0  0  0  0  0  0  0  0
   -5.4070   19.8280  -33.4730 C   0  0  0  0  0  0  0  0  0  0  0  0
   -4.2900   20.3110  -32.5920 C   0  0  0  0  0  0  0  0  0  0  0  0
   -3.0920   19.5590  -32.4860 C   0  0  0  0  0  0  0  0  0  0  0  0
   -2.0040   20.0470  -31.7450 C   0  0  0  0  0  0  0  0  0  0  0  0
   -2.1370   21.2910  -31.1330 C   0  0  0  0  0  0  0  0  0  0  0  0
   -1.2370   22.0060  -30.3730 C   0  0  0  0  0  0  0  0  0  0  0  0
   -1.8910   23.1940  -30.0440 C   0  0  0  0  0  0  0  0  0  0  0  0
   -1.2420   24.3060  -29.3150 C   0  0  0  0  0  0  0  0  0  0  0  0
   -1.9920   25.4460  -28.8960 N   0  0  0  0  0  0  0  0  0  0  0  0
    0.0010   24.2750  -29.1020 O   0  0  0  0  0  0  0  0  0  0  0  0
   -3.1470   23.2120  -30.5740 N   0  0  0  0  0  0  0  0  0  0  0  0
   -4.1620   24.2090  -30.3790 C   0  0  0  0  0  0  0  0  0  0  0  0
   -3.9940   25.3760  -30.8310 O   0  0  0  0  0  0  0  0  0  0  0  0
   -5.3410   23.8750  -29.7040 O   0  0  0  0  0  0  0  0  0  0  0  0
   -6.6210   24.3420  -30.1100 C   0  0  0  0  0  0  0  0  0  0  0  0
   -7.3150   23.1980  -31.2800 Cl  0  0  0  0  0  0  0  0  0  0  0  0
   -3.2820   22.0400  -31.2400 C   0  0  0  0  0  0  0  0  0  0  0  0
   -4.3860   21.5710  -31.9590 C   0  0  0  0  0  0  0  0  0  0  0  0
   -3.5105   17.0600  -33.9651 H   0  0  0  0  0  0  0  0  0  0  0  0
   -3.5999   16.1662  -35.5207 H   0  0  0  0  0  0  0  0  0  0  0  0
   -3.4060   17.9520  -35.5207 H   0  0  0  0  0  0  0  0  0  0  0  0
   -6.5461   15.8713  -32.1674 H   0  0  0  0  0  0  0  0  0  0  0  0
   -4.8016   15.9273  -32.6010 H   0  0  0  0  0  0  0  0  0  0  0  0
   -4.9881   19.3180  -34.3530 H   0  0  0  0  0  0  0  0  0  0  0  0
   -6.0137   20.6833  -33.8053 H   0  0  0  0  0  0  0  0  0  0  0  0
   -3.0147   18.5840  -32.9893 H   0  0  0  0  0  0  0  0  0  0  0  0
   -1.0754   19.4650  -31.6507 H   0  0  0  0  0  0  0  0  0  0  0  0
   -0.2188   21.7042  -30.0864 H   0  0  0  0  0  0  0  0  0  0  0  0
   -2.9060   25.6860  -29.3470 H   0  0  0  0  0  0  0  0  0  0  0  0
   -7.2807   24.4171  -29.2329 H   0  0  0  0  0  0  0  0  0  0  0  0
   -6.5225   25.3336  -30.5759 H   0  0  0  0  0  0  0  0  0  0  0  0
   -5.3069   22.1684  -32.0302 H   0  0  0  0  0  0  0  0  0  0  0  0
  1  2  1  0
  2  3  1  0
  3  4  2  0
  3  5  1  0
  5  6  1  0
  6  7  1  0
  7  8  2  0
  7  9  1  0
  9 10  1  0
 10 11  2  0
 11 12  1  0
 12 13  2  0
 13 14  1  0
 14 15  2  0
 15 16  1  0
 16 17  1  0
 16 18  2  0
 15 19  1  0
 19 20  1  0
 20 21  2  0
 20 22  1  0
 22 23  1  0
 23 24  1  0
 19 25  1  0
 25 26  2  0
 26 10  1  0
 25 13  1  0
  1 27  1  0
  1 28  1  0
  1 29  1  0
  5 30  1  0
  5 31  1  0
  9 32  1  0
  9 33  1  0
 11 34  1  0
 12 35  1  0
 14 36  1  0
 17 37  1  0
 23 38  1  0
 23 39  1  0
 26 40  1  0
M  CHG  1  17  -1
M  END
>  <UniqueID>  (5) 
5

>  <SMILES>  (5) 
COC(=O)COC(=O)Cc1ccc2cc(C([NH-])=O)n(C(=O)OCCl)c2c1

>  <Energy>  (5) 
68.35351488755714

>  <Genealogy>  (5) 
COC(=O)COC(=O)Cc1ccc2cc(C([NH-])=O)n(C(=O)OCCl)c2c1 (protonated)
COC(=O)COC(=O)Cc1ccc2cc(C([NH-])=O)n(C(=O)OCCl)c2c1 (3D coordinates assigned)
COC(=O)COC(=O)Cc1ccc2cc(C([NH-])=O)n(C(=O)OCCl)c2c1 (optimized conformer: 68.35351488755714 kcal/mol)

>  <smiles>  (5) 
COC(=O)COC(=O)Cc1ccc2cc(C(N)=O)n(C(=O)OCCl)c2c1

>  <score_type>  (5) 
oracle

>  <origin>  (5) 
adg

>  <m_score__min__energy>  (5) 
-9.2300000000000004

>  <m_primary>  (5) 
energy

$$$$
5:0
     RDKit          3D

 44 46  0  0  0  0  0  0  0  0999 V2000
   -2.3190   20.1610  -33.6930 C   0  0  0  0  0  0  0  0  0  0  0  0
   -2.3150   20.8760  -32.3390 C   0  0  0  0  0  0  0  0  0  0  0  0
   -0.8820   21.1460  -31.8830 C   0  0  0  0  0  0  0  0  0  0  0  0
   -3.0060   22.1210  -32.4400 O   0  0  0  0  0  0  0  0  0  0  0  0
   -3.7030   22.7100  -31.3790 C   0  0  0  0  0  0  0  0  0  0  0  0
   -3.0770   23.1970  -30.3970 O   0  0  0  0  0  0  0  0  0  0  0  0
   -5.1380   22.7590  -31.4090 N   0  0  0  0  0  0  0  0  0  0  0  0
   -5.9490   23.7370  -30.9160 C   0  0  0  0  0  0  0  0  0  0  0  0
   -5.5060   25.0400  -30.3790 C   0  0  0  0  0  0  0  0  0  0  0  0
   -4.1740   25.5120  -30.5890 N   0  0  0  0  0  0  0  0  0  0  0  0
   -6.3320   25.7710  -29.7720 O   0  0  0  0  0  0  0  0  0  0  0  0
   -7.2860   23.3670  -31.0240 C   0  0  0  0  0  0  0  0  0  0  0  0
   -7.2720   22.1260  -31.6180 C   0  0  0  0  0  0  0  0  0  0  0  0
   -8.3260   21.2830  -31.9500 C   0  0  0  0  0  0  0  0  0  0  0  0
   -8.0200   20.0350  -32.5180 C   0  0  0  0  0  0  0  0  0  0  0  0
   -6.6710   19.6420  -32.7370 C   0  0  0  0  0  0  0  0  0  0  0  0
   -6.3650   18.3490  -33.3100 N   0  0  0  0  0  0  0  0  0  0  0  0
   -5.1940   18.0810  -34.1330 C   0  0  0  0  0  0  0  0  0  0  0  0
   -5.3680   16.6630  -34.6570 C   0  0  0  0  0  0  0  0  0  0  0  0
   -6.4130   16.0150  -33.7580 C   0  0  0  0  0  0  0  0  0  0  0  0
   -7.1930   17.1640  -33.1340 C   0  0  0  0  0  0  0  0  0  0  0  0
   -5.6290   20.5330  -32.3790 C   0  0  0  0  0  0  0  0  0  0  0  0
   -5.9650   21.7790  -31.8380 C   0  0  0  0  0  0  0  0  0  0  0  0
   -2.3251   19.0727  -33.5329 H   0  0  0  0  0  0  0  0  0  0  0  0
   -3.2155   20.4533  -34.2594 H   0  0  0  0  0  0  0  0  0  0  0  0
   -1.4193   20.4433  -34.2594 H   0  0  0  0  0  0  0  0  0  0  0  0
   -2.8181   20.2272  -31.6069 H   0  0  0  0  0  0  0  0  0  0  0  0
   -0.8423   21.1535  -30.7837 H   0  0  0  0  0  0  0  0  0  0  0  0
   -0.2197   20.3568  -32.2685 H   0  0  0  0  0  0  0  0  0  0  0  0
   -0.5523   22.1221  -32.2685 H   0  0  0  0  0  0  0  0  0  0  0  0
   -3.5200   25.0140  -31.2310 H   0  0  0  0  0  0  0  0  0  0  0  0
   -3.8680   26.4170  -30.1670 H   0  0  0  0  0  0  0  0  0  0  0  0
   -8.1661   23.9435  -30.7031 H   0  0  0  0  0  0  0  0  0  0  0  0
   -9.3691   21.5841  -31.7732 H   0  0  0  0  0  0  0  0  0  0  0  0
   -8.8357   19.3520  -32.7974 H   0  0  0  0  0  0  0  0  0  0  0  0
   -5.1425   18.7942  -34.9689 H   0  0  0  0  0  0  0  0  0  0  0  0
   -4.2628   18.1873  -33.5571 H   0  0  0  0  0  0  0  0  0  0  0  0
   -5.7171   16.6800  -35.7000 H   0  0  0  0  0  0  0  0  0  0  0  0
   -4.4194   16.1062  -34.6425 H   0  0  0  0  0  0  0  0  0  0  0  0
   -7.0830   15.3740  -34.3498 H   0  0  0  0  0  0  0  0  0  0  0  0
   -5.9484   15.3775  -32.9914 H   0  0  0  0  0  0  0  0  0  0  0  0
   -8.1589   17.2927  -33.6443 H   0  0  0  0  0  0  0  0  0  0  0  0
   -7.4095   16.9761  -32.0720 H   0  0  0  0  0  0  0  0  0  0  0  0
   -4.5758   20.2505  -32.5236 H   0  0  0  0  0  0  0  0  0  0  0  0
  1  2  1  0
  2  3  1  0
  2  4  1  0
  4  5  1  0
  5  6  2  0
  5  7  1  0
  7  8  1  0
  8  9  1  0
  9 10  1  0
  9 11  2  0
  8 12  2  0
 12 13  1  0
 13 14  2  0
 14 15  1  0
 15 16  2  0
 16 17  1  0
 17 18  1  0
 18 19  1  0
 19 20  1  0
 20 21  1  0
 16 22  1  0
 22 23  2  0
 23  7  1  0
 23 13  1  0
 21 17  1  0
  1 24  1  0
  1 25  1  0
  1 26  1  0
  2 27  1  0
  3 28  1  0
  3 29  1  0
  3 30  1  0
 10 31  1  0
 10 32  1  0
 12 33  1  0
 14 34  1  0
 15 35  1  0
 18 36  1  0
 18 37  1  0
 19 38  1  0
 19 39  1  0
 20 40  1  0
 20 41  1  0
 21 42  1  0
 21 43  1  0
 22 44  1  0
M  END
>  <UniqueID>  (6) 
6

>  <SMILES>  (6) 
CC(C)OC(=O)n1c(C(N)=O)cc2ccc(N3CCCC3)cc21

>  <Energy>  (6) 
78.82718199573249

>  <Genealogy>  (6) 
CC(C)OC(=O)n1c(C(N)=O)cc2ccc(N3CCCC3)cc21 (3D coordinates assigned)
CC(C)OC(=O)n1c(C(N)=O)cc2ccc(N3CCCC3)cc21 (nonaromatic ring conformer: 78.82718199573249 kcal/mol)

>  <smiles>  (6) 
CC(C)OC(=O)n1c(C(N)=O)cc2ccc(N3CCCC3)cc21

>  <score_type>  (6) 
oracle

>  <origin>  (6) 
adg

>  <m_score__min__energy>  (6) 
-9.1699999999999999

>  <m_primary>  (6) 
energy

$$$$
6:0
     RDKit          3D

 46 47  0  0  0  0  0  0  0  0999 V2000
   -3.0160   19.0870  -33.1270 C   0  0  0  0  0  0  0  0  0  0  0  0
   -4.0100   18.9280  -34.0060 C   0  0  0  0  0  0  0  0  0  0  0  0
   -4.5650   17.5700  -34.3160 C   0  0  0  0  0  0  0  0  0  0  0  0
   -5.1420   17.0130  -33.1410 O   0  0  0  0  0  0  0  0  0  0  0  0
   -6.1420   17.6590  -32.4070 C   0  0  0  0  0  0  0  0  0  0  0  0
   -6.1920   17.5490  -31.1520 O   0  0  0  0  0  0  0  0  0  0  0  0
   -7.1570   18.4900  -33.1260 C   0  0  0  0  0  0  0  0  0  0  0  0
   -7.3280   19.8110  -32.4280 C   0  0  0  0  0  0  0  0  0  0  0  0
   -8.6220   20.2740  -32.0830 C   0  0  0  0  0  0  0  0  0  0  0  0
   -8.7990   21.5460  -31.5120 C   0  0  0  0  0  0  0  0  0  0  0  0
   -7.6670   22.3300  -31.3040 C   0  0  0  0  0  0  0  0  0  0  0  0
   -7.5560   23.6180  -30.8300 C   0  0  0  0  0  0  0  0  0  0  0  0
   -6.1950   23.9180  -30.8870 C   0  0  0  0  0  0  0  0  0  0  0  0
   -5.6010   25.1900  -30.4170 C   0  0  0  0  0  0  0  0  0  0  0  0
   -4.2590   25.5410  -30.7590 N   0  0  0  0  0  0  0  0  0  0  0  0
   -6.2870   25.9890  -29.7280 O   0  0  0  0  0  0  0  0  0  0  0  0
   -5.4950   22.8530  -31.3700 N   0  0  0  0  0  0  0  0  0  0  0  0
   -4.0930   22.7900  -31.6700 C   0  0  0  0  0  0  0  0  0  0  0  0
   -3.7040   22.2410  -32.7360 O   0  0  0  0  0  0  0  0  0  0  0  0
   -3.1700   23.3620  -30.7870 O   0  0  0  0  0  0  0  0  0  0  0  0
   -3.0210   22.9630  -29.4260 C   0  0  0  0  0  0  0  0  0  0  0  0
   -2.5780   24.1470  -28.5460 C   0  0  2  0  0  0  0  0  0  0  0  0
   -3.6310   24.5300  -27.4980 C   0  0  0  0  0  0  0  0  0  0  0  0
   -2.2710   25.2590  -29.3490 O   0  0  0  0  0  0  0  0  0  0  0  0
   -6.4090   21.8920  -31.6230 C   0  0  0  0  0  0  0  0  0  0  0  0
   -6.2040   20.6350  -32.2010 C   0  0  0  0  0  0  0  0  0  0  0  0
   -2.6247   20.0930  -32.9153 H   0  0  0  0  0  0  0  0  0  0  0  0
   -2.5892   18.2119  -32.6152 H   0  0  0  0  0  0  0  0  0  0  0  0
   -4.4291   19.8103  -34.5118 H   0  0  0  0  0  0  0  0  0  0  0  0
   -5.3354   17.6583  -35.0962 H   0  0  0  0  0  0  0  0  0  0  0  0
   -3.7553   16.9159  -34.6719 H   0  0  0  0  0  0  0  0  0  0  0  0
   -6.8197   18.6645  -34.1584 H   0  0  0  0  0  0  0  0  0  0  0  0
   -8.1198   17.9580  -33.1329 H   0  0  0  0  0  0  0  0  0  0  0  0
   -9.4965   19.6317  -32.2638 H   0  0  0  0  0  0  0  0  0  0  0  0
   -9.8000   21.9107  -31.2381 H   0  0  0  0  0  0  0  0  0  0  0  0
   -8.3685   24.2719  -30.4804 H   0  0  0  0  0  0  0  0  0  0  0  0
   -3.8650   26.4580  -30.4530 H   0  0  0  0  0  0  0  0  0  0  0  0
   -3.6370   24.8810  -31.2750 H   0  0  0  0  0  0  0  0  0  0  0  0
   -3.9840   22.5811  -29.0561 H   0  0  0  0  0  0  0  0  0  0  0  0
   -2.2491   22.1811  -29.3738 H   0  0  0  0  0  0  0  0  0  0  0  0
   -1.6797   23.8235  -27.9997 H   0  0  0  0  0  0  0  0  0  0  0  0
   -3.2169   24.3794  -26.4901 H   0  0  0  0  0  0  0  0  0  0  0  0
   -3.9085   25.5867  -27.6262 H   0  0  0  0  0  0  0  0  0  0  0  0
   -4.5225   23.8986  -27.6262 H   0  0  0  0  0  0  0  0  0  0  0  0
   -1.8070   24.9230  -30.1600 H   0  0  0  0  0  0  0  0  0  0  0  0
   -5.1929   20.2969  -32.4719 H   0  0  0  0  0  0  0  0  0  0  0  0
  1  2  2  0
  2  3  1  0
  3  4  1  0
  4  5  1  0
  5  6  2  0
  5  7  1  0
  7  8  1  0
  8  9  2  0
  9 10  1  0
 10 11  2  0
 11 12  1  0
 12 13  2  0
 13 14  1  0
 14 15  1  0
 14 16  2  0
 13 17  1  0
 17 18  1  0
 18 19  2  0
 18 20  1  0
 20 21  1  0
 21 22  1  0
 22 23  1  0
 22 24  1  0
 17 25  1  0
 25 26  2  0
 26  8  1  0
 25 11  1  0
  1 27  1  0
  1 28  1  0
  2 29  1  0
  3 30  1  0
  3 31  1  0
  7 32  1  0
  7 33  1  0
  9 34  1  0
 10 35  1  0
 12 36  1  0
 15 37  1  0
 15 38  1  0
 21 39  1  0
 21 40  1  0
 22 41  1  1
 23 42  1  0
 23 43  1  0
 23 44  1  0
 24 45  1  0
 26 46  1  0
M  END
>  <UniqueID>  (7) 
7

>  <SMILES>  (7) 
C=CCOC(=O)Cc1ccc2cc(C(N)=O)n(C(=O)OC[C@H](C)O)c2c1

>  <Energy>  (7) 
71.65332400365256

>  <Genealogy>  (7) 
C=CCOC(=O)Cc1ccc2cc(C(N)=O)n(C(=O)OC[C@H](C)O)c2c1 (chirality)
C=CCOC(=O)Cc1ccc2cc(C(N)=O)n(C(=O)OC[C@H](C)O)c2c1 (3D coordinates assigned)
C=CCOC(=O)Cc1ccc2cc(C(N)=O)n(C(=O)OC[C@H](C)O)c2c1 (optimized conformer: 71.65332400365256 kcal/mol)

>  <smiles>  (7) 
C=CCOC(=O)Cc1ccc2cc(C(N)=O)n(C(=O)OCC(C)O)c2c1

>  <score_type>  (7) 
oracle

>  <origin>  (7) 
adg

>  <m_score__min__energy>  (7) 
-8.8800000000000008

>  <m_primary>  (7) 
energy

$$$$
7:0
     RDKit          3D

 33 34  0  0  0  0  0  0  0  0999 V2000
   -6.0790   25.5990  -29.0990 N   0  0  0  0  0  0  0  0  0  0  0  0
   -5.3340   25.0700  -30.1940 C   0  0  0  0  0  0  0  0  0  0  0  0
   -4.2890   25.6620  -30.5770 O   0  0  0  0  0  0  0  0  0  0  0  0
   -5.7310   23.8090  -30.8490 C   0  0  0  0  0  0  0  0  0  0  0  0
   -7.0550   23.4300  -31.0310 C   0  0  0  0  0  0  0  0  0  0  0  0
   -7.0010   22.2310  -31.7040 C   0  0  0  0  0  0  0  0  0  0  0  0
   -8.0310   21.3960  -32.1250 C   0  0  0  0  0  0  0  0  0  0  0  0
   -7.6910   20.1900  -32.7600 C   0  0  0  0  0  0  0  0  0  0  0  0
   -6.3320   19.8240  -32.9360 C   0  0  0  0  0  0  0  0  0  0  0  0
   -5.9750   18.5300  -33.6410 C   0  0  0  0  0  0  0  0  0  0  0  0
   -4.6720   18.1380  -33.3570 F   0  0  0  0  0  0  0  0  0  0  0  0
   -6.0850   18.6900  -35.0080 F   0  0  0  0  0  0  0  0  0  0  0  0
   -6.8400   17.5270  -33.2200 F   0  0  0  0  0  0  0  0  0  0  0  0
   -5.3120   20.7120  -32.5140 C   0  0  0  0  0  0  0  0  0  0  0  0
   -5.6790   21.9180  -31.9020 C   0  0  0  0  0  0  0  0  0  0  0  0
   -4.8820   22.8810  -31.3790 N   0  0  0  0  0  0  0  0  0  0  0  0
   -3.4480   22.8450  -31.2680 C   0  0  0  0  0  0  0  0  0  0  0  0
   -2.7810   22.0330  -31.9630 O   0  0  0  0  0  0  0  0  0  0  0  0
   -2.7990   23.7130  -30.3810 O   0  0  0  0  0  0  0  0  0  0  0  0
   -1.8260   23.2940  -29.4260 C   0  0  0  0  0  0  0  0  0  0  0  0
   -0.9350   24.4570  -28.9800 C   0  0  0  0  0  0  0  0  0  0  0  0
   -1.6520   25.6620  -28.9970 O   0  0  0  0  0  0  0  0  0  0  0  0
   -5.8070   26.5050  -28.6630 H   0  0  0  0  0  0  0  0  0  0  0  0
   -6.8600   25.0570  -28.6770 H   0  0  0  0  0  0  0  0  0  0  0  0
   -7.9550   23.9728  -30.7063 H   0  0  0  0  0  0  0  0  0  0  0  0
   -9.0835   21.6727  -31.9649 H   0  0  0  0  0  0  0  0  0  0  0  0
   -8.4863   19.5231  -33.1242 H   0  0  0  0  0  0  0  0  0  0  0  0
   -4.2519   20.4596  -32.6639 H   0  0  0  0  0  0  0  0  0  0  0  0
   -2.3432   22.8831  -28.5464 H   0  0  0  0  0  0  0  0  0  0  0  0
   -1.1871   22.5329  -29.8977 H   0  0  0  0  0  0  0  0  0  0  0  0
   -0.5743   24.2652  -27.9587 H   0  0  0  0  0  0  0  0  0  0  0  0
   -0.0855   24.5397  -29.6740 H   0  0  0  0  0  0  0  0  0  0  0  0
   -2.1830   25.6610  -29.8350 H   0  0  0  0  0  0  0  0  0  0  0  0
  1  2  1  0
  2  3  2  0
  2  4  1  0
  4  5  2  0
  5  6  1  0
  6  7  2  0
  7  8  1  0
  8  9  2  0
  9 10  1  0
 10 11  1  0
 10 12  1  0
 10 13  1  0
  9 14  1  0
 14 15  2  0
 15 16  1  0
 16 17  1  0
 17 18  2  0
 17 19  1  0
 19 20  1  0
 20 21  1  0
 21 22  1  0
 16  4  1  0
 15  6  1  0
  1 23  1  0
  1 24  1  0
  5 25  1  0
  7 26  1  0
  8 27  1  0
 14 28  1  0
 20 29  1  0
 20 30  1  0
 21 31  1  0
 21 32  1  0
 22 33  1  0
M  END
>  <UniqueID>  (8) 
8

>  <SMILES>  (8) 
NC(=O)c1cc2ccc(C(F)(F)F)cc2n1C(=O)OCCO

>  <Energy>  (8) 
70.76186935827646

>  <Genealogy>  (8) 
NC(=O)c1cc2ccc(C(F)(F)F)cc2n1C(=O)OCCO (3D coordinates assigned)
NC(=O)c1cc2ccc(C(F)(F)F)cc2n1C(=O)OCCO (optimized conformer: 70.76186935827646 kcal/mol)

>  <smiles>  (8) 
NC(=O)c1cc2ccc(C(F)(F)F)cc2n1C(=O)OCCO

>  <score_type>  (8) 
oracle

>  <origin>  (8) 
adg

>  <m_score__min__energy>  (8) 
-8.4000000000000004

>  <m_primary>  (8) 
energy

$$$$
8:0
     RDKit          3D

 39 40  0  0  0  0  0  0  0  0999 V2000
   -2.3850   18.2970  -34.3860 N   0  0  0  0  0  0  0  0  0  0  0  0
   -3.7790   18.0900  -34.6090 C   0  0  0  0  0  0  0  0  0  0  0  0
   -4.1490   17.2040  -35.4240 O   0  0  0  0  0  0  0  0  0  0  0  0
   -4.7920   18.8570  -33.8590 C   0  0  0  0  0  0  0  0  0  0  0  0
   -6.1250   18.4710  -33.7550 C   0  0  0  0  0  0  0  0  0  0  0  0
   -6.7090   19.4020  -32.9290 C   0  0  0  0  0  0  0  0  0  0  0  0
   -8.0280   19.5090  -32.4970 C   0  0  0  0  0  0  0  0  0  0  0  0
   -8.3650   20.5970  -31.6750 C   0  0  0  0  0  0  0  0  0  0  0  0
   -7.3890   21.5590  -31.3140 C   0  0  0  0  0  0  0  0  0  0  0  0
   -7.7590   22.7180  -30.4230 C   0  0  0  0  0  0  0  0  0  0  0  0
   -7.0460   24.0140  -30.8350 C   0  0  0  0  0  0  0  0  0  0  0  0
   -5.9290   24.4010  -29.8590 C   0  0  0  0  0  0  0  0  0  0  0  0
   -4.6180   24.4940  -30.5740 C   0  0  0  0  0  0  0  0  0  0  0  0
   -4.1630   23.4960  -31.1940 O   0  0  0  0  0  0  0  0  0  0  0  0
   -3.8670   25.6630  -30.5040 O   0  0  0  0  0  0  0  0  0  0  0  0
   -6.0590   21.4150  -31.7680 C   0  0  0  0  0  0  0  0  0  0  0  0
   -5.7450   20.3090  -32.5690 C   0  0  0  0  0  0  0  0  0  0  0  0
   -4.5590   19.9890  -33.1360 N   0  0  0  0  0  0  0  0  0  0  0  0
   -3.3450   20.7580  -33.0960 C   0  0  0  0  0  0  0  0  0  0  0  0
   -3.3320   21.9390  -33.5380 O   0  0  0  0  0  0  0  0  0  0  0  0
   -2.1760   20.1870  -32.5780 O   0  0  0  0  0  0  0  0  0  0  0  0
   -0.8990   20.8190  -32.6380 C   0  0  0  0  0  0  0  0  0  0  0  0
   -0.3600   20.8040  -34.0330 C   0  0  0  0  0  0  0  0  0  0  0  0
   -0.4470   19.7610  -34.7360 O   0  0  0  0  0  0  0  0  0  0  0  0
    0.1900   21.9590  -34.5800 O   0  0  0  0  0  0  0  0  0  0  0  0
   -2.0520   18.8970  -33.6000 H   0  0  0  0  0  0  0  0  0  0  0  0
   -1.6800   17.7940  -34.9690 H   0  0  0  0  0  0  0  0  0  0  0  0
   -6.6083   17.6056  -34.2320 H   0  0  0  0  0  0  0  0  0  0  0  0
   -8.7829   18.7646  -32.7903 H   0  0  0  0  0  0  0  0  0  0  0  0
   -9.3965   20.7034  -31.3079 H   0  0  0  0  0  0  0  0  0  0  0  0
   -8.8459   22.8772  -30.4812 H   0  0  0  0  0  0  0  0  0  0  0  0
   -7.4461   22.4705  -29.3979 H   0  0  0  0  0  0  0  0  0  0  0  0
   -6.6091   23.8745  -31.8348 H   0  0  0  0  0  0  0  0  0  0  0  0
   -7.7911   24.8232  -30.8305 H   0  0  0  0  0  0  0  0  0  0  0  0
   -6.1648   25.3757  -29.4069 H   0  0  0  0  0  0  0  0  0  0  0  0
   -5.8549   23.6293  -29.0787 H   0  0  0  0  0  0  0  0  0  0  0  0
   -5.2888   22.1530  -31.4993 H   0  0  0  0  0  0  0  0  0  0  0  0
   -0.9972   21.8616  -32.3012 H   0  0  0  0  0  0  0  0  0  0  0  0
   -0.2039   20.2683  -31.9872 H   0  0  0  0  0  0  0  0  0  0  0  0
  1  2  1  0
  2  3  2  0
  2  4  1  0
  4  5  2  0
  5  6  1  0
  6  7  2  0
  7  8  1  0
  8  9  2  0
  9 10  1  0
 10 11  1  0
 11 12  1  0
 12 13  1  0
 13 14  2  0
 13 15  1  0
  9 16  1  0
 16 17  2  0
 17 18  1  0
 18 19  1  0
 19 20  2  0
 19 21  1  0
 21 22  1  0
 22 23  1  0
 23 24  2  0
 23 25  1  0
 18  4  1  0
 17  6  1  0
  1 26  1  0
  1 27  1  0
  5 28  1  0
  7 29  1  0
  8 30  1  0
 10 31  1  0
 10 32  1  0
 11 33  1  0
 11 34  1  0
 12 35  1  0
 12 36  1  0
 16 37  1  0
 22 38  1  0
 22 39  1  0
M  CHG  2  15  -1  25  -1
M  END
>  <UniqueID>  (9) 
9

>  <SMILES>  (9) 
NC(=O)c1cc2ccc(CCCC(=O)[O-])cc2n1C(=O)OCC(=O)[O-]

>  <Energy>  (9) 
70.5720864818811

>  <Genealogy>  (9) 
NC(=O)c1cc2ccc(CCCC(=O)[O-])cc2n1C(=O)OCC(=O)[O-] (protonated)
NC(=O)c1cc2ccc(CCCC(=O)[O-])cc2n1C(=O)OCC(=O)[O-] (3D coordinates assigned)
NC(=O)c1cc2ccc(CCCC(=O)[O-])cc2n1C(=O)OCC(=O)[O-] (optimized conformer: 70.5720864818811 kcal/mol)

>  <smiles>  (9) 
NC(=O)c1cc2ccc(CCCC(=O)O)cc2n1C(=O)OCC(=O)O

>  <score_type>  (9) 
oracle

>  <origin>  (9) 
adg

>  <m_score__min__energy>  (9) 
-10.529999999999999

>  <m_primary>  (9) 
energy

$$$$
9:0
     RDKit          3D

 48 49  0  0  0  0  0  0  0  0999 V2000
   -5.7520   18.8390  -34.5770 C   0  0  0  0  0  0  0  0  0  0  0  0
   -6.1800   18.0880  -33.3010 C   0  0  1  0  0  0  0  0  0  0  0  0
   -7.4880   18.5500  -32.7790 N   0  0  0  0  0  0  0  0  0  0  0  0
   -7.5020   19.9320  -32.3460 C   0  0  0  0  0  0  0  0  0  0  0  0
   -8.7130   20.6740  -32.3680 C   0  0  0  0  0  0  0  0  0  0  0  0
   -8.7440   22.0180  -31.9600 C   0  0  0  0  0  0  0  0  0  0  0  0
   -7.5500   22.6010  -31.5510 C   0  0  0  0  0  0  0  0  0  0  0  0
   -7.2950   23.8920  -31.1480 C   0  0  0  0  0  0  0  0  0  0  0  0
   -5.9240   23.9380  -30.8990 C   0  0  0  0  0  0  0  0  0  0  0  0
   -5.2320   25.1350  -30.3690 C   0  0  0  0  0  0  0  0  0  0  0  0
   -3.8320   25.3040  -30.5950 N   0  0  0  0  0  0  0  0  0  0  0  0
   -5.8690   26.0310  -29.7520 O   0  0  0  0  0  0  0  0  0  0  0  0
   -5.3500   22.7230  -31.1450 N   0  0  0  0  0  0  0  0  0  0  0  0
   -3.9490   22.4030  -31.1460 C   0  0  0  0  0  0  0  0  0  0  0  0
   -3.2450   22.6720  -32.1600 O   0  0  0  0  0  0  0  0  0  0  0  0
   -3.3720   21.7660  -30.0420 O   0  0  0  0  0  0  0  0  0  0  0  0
   -3.3240   22.3840  -28.7570 C   0  0  0  0  0  0  0  0  0  0  0  0
   -2.0040   23.1210  -28.5750 C   0  0  0  0  0  0  0  0  0  0  0  0
   -1.7180   23.8790  -29.7190 O   0  0  0  0  0  0  0  0  0  0  0  0
   -6.3620   21.9110  -31.5340 C   0  0  0  0  0  0  0  0  0  0  0  0
   -6.3020   20.5690  -31.9350 C   0  0  0  0  0  0  0  0  0  0  0  0
   -6.1490   16.5820  -33.5240 C   0  0  0  0  0  0  0  0  0  0  0  0
   -7.2450   15.9800  -33.7030 O   0  0  0  0  0  0  0  0  0  0  0  0
   -4.9130   15.8220  -33.5480 N   0  0  0  0  0  0  0  0  0  0  0  0
   -4.9900   14.3710  -33.7350 C   0  0  0  0  0  0  0  0  0  0  0  0
   -3.5980   16.4780  -33.4570 C   0  0  0  0  0  0  0  0  0  0  0  0
   -5.2250   19.7636  -34.2989 H   0  0  0  0  0  0  0  0  0  0  0  0
   -5.0824   18.2000  -35.1714 H   0  0  0  0  0  0  0  0  0  0  0  0
   -6.6431   19.0894  -35.1714 H   0  0  0  0  0  0  0  0  0  0  0  0
   -5.4449   18.3270  -32.5184 H   0  0  0  0  0  0  0  0  0  0  0  0
   -7.7700   17.9400  -31.9760 H   0  0  0  0  0  0  0  0  0  0  0  0
   -8.2170   18.4080  -33.5200 H   0  0  0  0  0  0  0  0  0  0  0  0
   -9.6397   20.1895  -32.7093 H   0  0  0  0  0  0  0  0  0  0  0  0
   -9.6831   22.5908  -31.9640 H   0  0  0  0  0  0  0  0  0  0  0  0
   -8.0193   24.7134  -31.0443 H   0  0  0  0  0  0  0  0  0  0  0  0
   -3.2640   24.5490  -31.0440 H   0  0  0  0  0  0  0  0  0  0  0  0
   -4.1547   23.0995  -28.6670 H   0  0  0  0  0  0  0  0  0  0  0  0
   -3.4104   21.6075  -27.9826 H   0  0  0  0  0  0  0  0  0  0  0  0
   -2.0764   23.7888  -27.7039 H   0  0  0  0  0  0  0  0  0  0  0  0
   -1.1993   22.3880  -28.4163 H   0  0  0  0  0  0  0  0  0  0  0  0
   -2.4540   23.6820  -30.3660 H   0  0  0  0  0  0  0  0  0  0  0  0
   -5.3474   20.0225  -31.9312 H   0  0  0  0  0  0  0  0  0  0  0  0
   -5.0163   13.8757  -32.7532 H   0  0  0  0  0  0  0  0  0  0  0  0
   -5.9026   14.1215  -34.2961 H   0  0  0  0  0  0  0  0  0  0  0  0
   -4.1089   14.0263  -34.2961 H   0  0  0  0  0  0  0  0  0  0  0  0
   -3.3279   16.6128  -32.3992 H   0  0  0  0  0  0  0  0  0  0  0  0
   -2.8409   15.8520  -33.9519 H   0  0  0  0  0  0  0  0  0  0  0  0
   -3.6428   17.4594  -33.9519 H   0  0  0  0  0  0  0  0  0  0  0  0
  1  2  1  0
  2  3  1  0
  3  4  1  0
  4  5  2  0
  5  6  1  0
  6  7  2  0
  7  8  1  0
  8  9  2  0
  9 10  1  0
 10 11  1  0
 10 12  2  0
  9 13  1  0
 13 14  1  0
 14 15  2  0
 14 16  1  0
 16 17  1  0
 17 18  1  0
 18 19  1  0
 13 20  1  0
 20 21  2  0
  2 22  1  0
 22 23  2  0
 22 24  1  0
 24 25  1  0
 24 26  1  0
 21  4  1  0
 20  7  1  0
  1 27  1  0
  1 28  1  0
  1 29  1  0
  2 30  1  1
  3 31  1  0
  3 32  1  0
  5 33  1  0
  6 34  1  0
  8 35  1  0
 11 36  1  0
 17 37  1  0
 17 38  1  0
 18 39  1  0
 18 40  1  0
 19 41  1  0
 21 42  1  0
 25 43  1  0
 25 44  1  0
 25 45  1  0
 26 46  1  0
 26 47  1  0
 26 48  1  0
M  CHG  2   3   1  11  -1
M  END
>  <UniqueID>  (10) 
10

>  <SMILES>  (10) 
C[C@@H]([NH2+]c1ccc2cc(C([NH-])=O)n(C(=O)OCCO)c2c1)C(=O)N(C)C

>  <Energy>  (10) 
81.74838572022817

>  <Genealogy>  (10) 
CC([NH2+]c1ccc2cc(C([NH-])=O)n(C(=O)OCCO)c2c1)C(=O)N(C)C (protonated)
C[C@@H]([NH2+]c1ccc2cc(C([NH-])=O)n(C(=O)OCCO)c2c1)C(=O)N(C)C (chirality)
C[C@@H]([NH2+]c1ccc2cc(C([NH-])=O)n(C(=O)OCCO)c2c1)C(=O)N(C)C (3D coordinates assigned)
C[C@@H]([NH2+]c1ccc2cc(C([NH-])=O)n(C(=O)OCCO)c2c1)C(=O)N(C)C (optimized conformer: 81.74838572022817 kcal/mol)

>  <smiles>  (10) 
CC(Nc1ccc2cc(C(N)=O)n(C(=O)OCCO)c2c1)C(=O)N(C)C

>  <score_type>  (10) 
oracle

>  <origin>  (10) 
adg

>  <m_score__min__energy>  (10) 
-9.5199999999999996

>  <m_primary>  (10) 
energy

$$$$
10:0
     RDKit          3D

 48 49  0  0  0  0  0  0  0  0999 V2000
   -0.5230   27.2510  -27.5120 C   0  0  0  0  0  0  0  0  0  0  0  0
   -1.2310   26.6730  -28.6460 N   0  0  0  0  0  0  0  0  0  0  0  0
   -1.5200   25.2790  -28.8040 C   0  0  0  0  0  0  0  0  0  0  0  0
   -2.6100   24.9480  -29.3390 O   0  0  0  0  0  0  0  0  0  0  0  0
   -0.5720   24.2270  -28.3770 C   0  0  0  0  0  0  0  0  0  0  0  0
    0.5530   24.1560  -28.9410 O   0  0  0  0  0  0  0  0  0  0  0  0
   -0.9150   23.2630  -27.3570 N   0  0  0  0  0  0  0  0  0  0  0  0
   -1.2370   23.7510  -26.0110 C   0  0  0  0  0  0  0  0  0  0  0  0
   -1.0500   21.8290  -27.6670 C   0  0  0  0  0  0  0  0  0  0  0  0
   -1.4450   21.6000  -29.1350 C   0  0  0  0  0  0  0  0  0  0  0  0
   -2.9640   21.5080  -29.3370 C   0  0  0  0  0  0  0  0  0  0  0  0
   -3.2850   21.0600  -30.6530 O   0  0  0  0  0  0  0  0  0  0  0  0
   -3.9830   21.8340  -31.5850 C   0  0  0  0  0  0  0  0  0  0  0  0
   -3.3980   22.2740  -32.6110 O   0  0  0  0  0  0  0  0  0  0  0  0
   -5.3790   22.1110  -31.3770 N   0  0  0  0  0  0  0  0  0  0  0  0
   -5.9230   23.2010  -30.7660 C   0  0  0  0  0  0  0  0  0  0  0  0
   -5.1800   24.4090  -30.3450 C   0  0  0  0  0  0  0  0  0  0  0  0
   -5.1340   24.7930  -28.9690 N   0  0  0  0  0  0  0  0  0  0  0  0
   -4.6050   25.1290  -31.2030 O   0  0  0  0  0  0  0  0  0  0  0  0
   -7.3050   23.0640  -30.6610 C   0  0  0  0  0  0  0  0  0  0  0  0
   -7.5950   21.8460  -31.2320 C   0  0  0  0  0  0  0  0  0  0  0  0
   -8.8170   21.1950  -31.3750 C   0  0  0  0  0  0  0  0  0  0  0  0
   -8.8180   19.9210  -31.9690 C   0  0  0  0  0  0  0  0  0  0  0  0
   -7.6090   19.3280  -32.4070 C   0  0  0  0  0  0  0  0  0  0  0  0
   -7.6190   17.9460  -32.9870 C   0  0  0  0  0  0  0  0  0  0  0  0
   -6.3870   20.0120  -32.2300 C   0  0  0  0  0  0  0  0  0  0  0  0
   -6.4160   21.2890  -31.6550 C   0  0  0  0  0  0  0  0  0  0  0  0
   -0.9703   26.8859  -26.5757 H   0  0  0  0  0  0  0  0  0  0  0  0
    0.5360   26.9561  -27.5519 H   0  0  0  0  0  0  0  0  0  0  0  0
   -0.6000   28.3476  -27.5519 H   0  0  0  0  0  0  0  0  0  0  0  0
   -0.7936   23.0790  -25.2615 H   0  0  0  0  0  0  0  0  0  0  0  0
   -0.8297   24.7646  -25.8813 H   0  0  0  0  0  0  0  0  0  0  0  0
   -2.3291   23.7753  -25.8813 H   0  0  0  0  0  0  0  0  0  0  0  0
   -0.0885   21.3305  -27.4745 H   0  0  0  0  0  0  0  0  0  0  0  0
   -1.8439   21.4133  -27.0291 H   0  0  0  0  0  0  0  0  0  0  0  0
   -1.0609   22.4370  -29.7366 H   0  0  0  0  0  0  0  0  0  0  0  0
   -1.0114   20.6386  -29.4476 H   0  0  0  0  0  0  0  0  0  0  0  0
   -3.3806   20.7998  -28.6057 H   0  0  0  0  0  0  0  0  0  0  0  0
   -3.3946   22.5104  -29.1964 H   0  0  0  0  0  0  0  0  0  0  0  0
   -5.5530   24.1940  -28.2250 H   0  0  0  0  0  0  0  0  0  0  0  0
   -4.6380   25.6680  -28.6860 H   0  0  0  0  0  0  0  0  0  0  0  0
   -8.0140   23.7777  -30.2162 H   0  0  0  0  0  0  0  0  0  0  0  0
   -9.7524   21.6627  -31.0339 H   0  0  0  0  0  0  0  0  0  0  0  0
   -9.7671   19.3794  -32.0948 H   0  0  0  0  0  0  0  0  0  0  0  0
   -7.6244   17.2066  -32.1726 H   0  0  0  0  0  0  0  0  0  0  0  0
   -8.5181   17.8151  -33.6070 H   0  0  0  0  0  0  0  0  0  0  0  0
   -6.7219   17.8021  -33.6070 H   0  0  0  0  0  0  0  0  0  0  0  0
   -5.4352   19.5534  -32.5361 H   0  0  0  0  0  0  0  0  0  0  0  0
  1  2  1  0
  2  3  1  0
  3  4  2  0
  3  5  1  0
  5  6  2  0
  5  7  1  0
  7  8  1  0
  7  9  1  0
  9 10  1  0
 10 11  1  0
 11 12  1  0
 12 13  1  0
 13 14  2  0
 13 15  1  0
 15 16  1  0
 16 17  1  0
 17 18  1  0
 17 19  2  0
 16 20  2  0
 20 21  1  0
 21 22  2  0
 22 23  1  0
 23 24  2  0
 24 25  1  0
 24 26  1  0
 26 27  2  0
 27 15  1  0
 27 21  1  0
  1 28  1  0
  1 29  1  0
  1 30  1  0
  8 31  1  0
  8 32  1  0
  8 33  1  0
  9 34  1  0
  9 35  1  0
 10 36  1  0
 10 37  1  0
 11 38  1  0
 11 39  1  0
 18 40  1  0
 18 41  1  0
 20 42  1  0
 22 43  1  0
 23 44  1  0
 25 45  1  0
 25 46  1  0
 25 47  1  0
 26 48  1  0
M  CHG  1   2  -1
M  END
>  <UniqueID>  (11) 
11

>  <SMILES>  (11) 
C[N-]C(=O)C(=O)N(C)CCCOC(=O)n1c(C(N)=O)cc2ccc(C)cc21

>  <Energy>  (11) 
80.15980003556733

>  <Genealogy>  (11) 
C[N-]C(=O)C(=O)N(C)CCCOC(=O)n1c(C(N)=O)cc2ccc(C)cc21 (protonated)
C[N-]C(=O)C(=O)N(C)CCCOC(=O)n1c(C(N)=O)cc2ccc(C)cc21 (3D coordinates assigned)
C[N-]C(=O)C(=O)N(C)CCCOC(=O)n1c(C(N)=O)cc2ccc(C)cc21 (optimized conformer: 80.15980003556733 kcal/mol)

>  <smiles>  (11) 
CNC(=O)C(=O)N(C)CCCOC(=O)n1c(C(N)=O)cc2ccc(C)cc21

>  <score_type>  (11) 
oracle

>  <origin>  (11) 
adg

>  <m_score__min__energy>  (11) 
-10.49

>  <m_primary>  (11) 
energy

$$$$
11:0
     RDKit          3D

 36 37  0  0  0  0  0  0  0  0999 V2000
   -5.7790   18.0700  -34.6000 C   0  0  0  0  0  0  0  0  0  0  0  0
   -6.3430   18.2670  -33.2590 N   0  0  0  0  0  0  0  0  0  0  0  0
   -6.5960   17.0910  -32.4170 C   0  0  0  0  0  0  0  0  0  0  0  0
   -6.6450   19.6000  -32.7730 C   0  0  0  0  0  0  0  0  0  0  0  0
   -7.9830   20.0870  -32.7690 C   0  0  0  0  0  0  0  0  0  0  0  0
   -8.2840   21.3790  -32.3110 C   0  0  0  0  0  0  0  0  0  0  0  0
   -7.2380   22.1700  -31.8510 C   0  0  0  0  0  0  0  0  0  0  0  0
   -7.2500   23.4640  -31.3850 C   0  0  0  0  0  0  0  0  0  0  0  0
   -5.9240   23.7530  -31.0740 C   0  0  0  0  0  0  0  0  0  0  0  0
   -5.4890   25.0320  -30.4780 C   0  0  0  0  0  0  0  0  0  0  0  0
   -4.1450   25.4940  -30.6180 N   0  0  0  0  0  0  0  0  0  0  0  0
   -6.3030   25.7010  -29.7880 O   0  0  0  0  0  0  0  0  0  0  0  0
   -5.1220   22.6860  -31.3500 N   0  0  0  0  0  0  0  0  0  0  0  0
   -3.6880   22.6240  -31.2690 C   0  0  0  0  0  0  0  0  0  0  0  0
   -3.0120   22.3080  -32.2870 O   0  0  0  0  0  0  0  0  0  0  0  0
   -3.0470   22.9090  -30.0600 O   0  0  0  0  0  0  0  0  0  0  0  0
   -1.6330   22.8990  -29.9160 C   0  0  0  0  0  0  0  0  0  0  0  0
   -1.1840   24.2200  -29.3900 C   0  0  0  0  0  0  0  0  0  0  0  0
   -0.0210   24.3530  -28.9260 O   0  0  0  0  0  0  0  0  0  0  0  0
   -2.0650   25.2940  -29.3590 O   0  0  0  0  0  0  0  0  0  0  0  0
   -5.9450   21.7220  -31.8230 C   0  0  0  0  0  0  0  0  0  0  0  0
   -5.6110   20.4480  -32.2970 C   0  0  0  0  0  0  0  0  0  0  0  0
   -4.7438   17.7084  -34.5129 H   0  0  0  0  0  0  0  0  0  0  0  0
   -6.3815   17.3291  -35.1460 H   0  0  0  0  0  0  0  0  0  0  0  0
   -5.7891   19.0249  -35.1460 H   0  0  0  0  0  0  0  0  0  0  0  0
   -6.5341   17.3787  -31.3571 H   0  0  0  0  0  0  0  0  0  0  0  0
   -7.5998   16.6955  -32.6316 H   0  0  0  0  0  0  0  0  0  0  0  0
   -5.8437   16.3177  -32.6316 H   0  0  0  0  0  0  0  0  0  0  0  0
   -8.7949   19.4392  -33.1312 H   0  0  0  0  0  0  0  0  0  0  0  0
   -9.3178   21.7547  -32.3160 H   0  0  0  0  0  0  0  0  0  0  0  0
   -8.1206   24.1282  -31.2804 H   0  0  0  0  0  0  0  0  0  0  0  0
   -3.8670   26.4200  -30.2250 H   0  0  0  0  0  0  0  0  0  0  0  0
   -3.4060   24.8860  -31.0350 H   0  0  0  0  0  0  0  0  0  0  0  0
   -1.3404   22.1047  -29.2136 H   0  0  0  0  0  0  0  0  0  0  0  0
   -1.1635   22.7115  -30.8929 H   0  0  0  0  0  0  0  0  0  0  0  0
   -4.5644   20.1095  -32.3006 H   0  0  0  0  0  0  0  0  0  0  0  0
  1  2  1  0
  2  3  1  0
  2  4  1  0
  4  5  2  0
  5  6  1  0
  6  7  2  0
  7  8  1  0
  8  9  2  0
  9 10  1  0
 10 11  1  0
 10 12  2  0
  9 13  1  0
 13 14  1  0
 14 15  2  0
 14 16  1  0
 16 17  1  0
 17 18  1  0
 18 19  2  0
 18 20  1  0
 13 21  1  0
 21 22  2  0
 22  4  1  0
 21  7  1  0
  1 23  1  0
  1 24  1  0
  1 25  1  0
  3 26  1  0
  3 27  1  0
  3 28  1  0
  5 29  1  0
  6 30  1  0
  8 31  1  0
 11 32  1  0
 11 33  1  0
 17 34  1  0
 17 35  1  0
 22 36  1  0
M  CHG  1  20  -1
M  END
>  <UniqueID>  (12) 
12

>  <SMILES>  (12) 
CN(C)c1ccc2cc(C(N)=O)n(C(=O)OCC(=O)[O-])c2c1

>  <Energy>  (12) 
73.48267310002448

>  <Genealogy>  (12) 
CN(C)c1ccc2cc(C(N)=O)n(C(=O)OCC(=O)[O-])c2c1 (protonated)
CN(C)c1ccc2cc(C(N)=O)n(C(=O)OCC(=O)[O-])c2c1 (3D coordinates assigned)
CN(C)c1ccc2cc(C(N)=O)n(C(=O)OCC(=O)[O-])c2c1 (optimized conformer: 73.48267310002448 kcal/mol)

>  <smiles>  (12) 
CN(C)c1ccc2cc(C(N)=O)n(C(=O)OCC(=O)O)c2c1

>  <score_type>  (12) 
oracle

>  <origin>  (12) 
adg

>  <m_score__min__energy>  (12) 
-10.33

>  <m_primary>  (12) 
energy

$$$$
12:0
     RDKit          3D

 37 38  0  0  0  0  0  0  0  0999 V2000
   -4.1870   23.0520  -27.9390 C   0  0  0  0  0  0  0  0  0  0  0  0
   -3.0700   22.2510  -28.6350 C   0  0  0  0  0  0  0  0  0  0  0  0
   -2.5130   21.1660  -27.6930 C   0  0  0  0  0  0  0  0  0  0  0  0
   -1.9330   23.2120  -29.0140 C   0  0  0  0  0  0  0  0  0  0  0  0
   -3.5510   21.6620  -29.8520 O   0  0  0  0  0  0  0  0  0  0  0  0
   -4.0520   22.3490  -30.9680 C   0  0  0  0  0  0  0  0  0  0  0  0
   -3.2940   22.6810  -31.9180 O   0  0  0  0  0  0  0  0  0  0  0  0
   -5.4450   22.6970  -31.0150 N   0  0  0  0  0  0  0  0  0  0  0  0
   -5.9990   23.9320  -30.8620 C   0  0  0  0  0  0  0  0  0  0  0  0
   -5.2900   25.1560  -30.4340 C   0  0  0  0  0  0  0  0  0  0  0  0
   -3.8830   25.2910  -30.6210 N   0  0  0  0  0  0  0  0  0  0  0  0
   -5.9250   26.0750  -29.8520 O   0  0  0  0  0  0  0  0  0  0  0  0
   -7.3730   23.8840  -31.0890 C   0  0  0  0  0  0  0  0  0  0  0  0
   -7.6480   22.5680  -31.3810 C   0  0  0  0  0  0  0  0  0  0  0  0
   -8.8560   21.9570  -31.7030 C   0  0  0  0  0  0  0  0  0  0  0  0
   -8.8420   20.5820  -31.9950 C   0  0  0  0  0  0  0  0  0  0  0  0
   -7.6290   19.8500  -31.9640 C   0  0  0  0  0  0  0  0  0  0  0  0
   -7.6150   18.3850  -32.2940 C   0  0  0  0  0  0  0  0  0  0  0  0
   -6.6000   17.7600  -31.5920 F   0  0  0  0  0  0  0  0  0  0  0  0
   -8.8280   17.8160  -31.9470 F   0  0  0  0  0  0  0  0  0  0  0  0
   -6.4210   20.5060  -31.6350 C   0  0  0  0  0  0  0  0  0  0  0  0
   -6.4680   21.8710  -31.3310 C   0  0  0  0  0  0  0  0  0  0  0  0
   -4.0721   22.9696  -26.8481 H   0  0  0  0  0  0  0  0  0  0  0  0
   -4.1198   24.1090  -28.2360 H   0  0  0  0  0  0  0  0  0  0  0  0
   -5.1666   22.6493  -28.2360 H   0  0  0  0  0  0  0  0  0  0  0  0
   -2.6700   21.4718  -26.6481 H   0  0  0  0  0  0  0  0  0  0  0  0
   -3.0347   20.2157  -27.8793 H   0  0  0  0  0  0  0  0  0  0  0  0
   -1.4367   21.0360  -27.8793 H   0  0  0  0  0  0  0  0  0  0  0  0
   -1.4662   23.6065  -28.0994 H   0  0  0  0  0  0  0  0  0  0  0  0
   -1.1796   22.6728  -29.6070 H   0  0  0  0  0  0  0  0  0  0  0  0
   -2.3391   24.0447  -29.6070 H   0  0  0  0  0  0  0  0  0  0  0  0
   -3.4920   26.0280  -31.2470 H   0  0  0  0  0  0  0  0  0  0  0  0
   -8.0861   24.7204  -31.0442 H   0  0  0  0  0  0  0  0  0  0  0  0
   -9.7932   22.5323  -31.7283 H   0  0  0  0  0  0  0  0  0  0  0  0
   -9.7813   20.0695  -32.2499 H   0  0  0  0  0  0  0  0  0  0  0  0
   -7.4471   18.2607  -33.3740 H   0  0  0  0  0  0  0  0  0  0  0  0
   -5.4678   19.9572  -31.6184 H   0  0  0  0  0  0  0  0  0  0  0  0
  1  2  1  0
  2  3  1  0
  2  4  1  0
  2  5  1  0
  5  6  1  0
  6  7  2  0
  6  8  1  0
  8  9  1  0
  9 10  1  0
 10 11  1  0
 10 12  2  0
  9 13  2  0
 13 14  1  0
 14 15  2  0
 15 16  1  0
 16 17  2  0
 17 18  1  0
 18 19  1  0
 18 20  1  0
 17 21  1  0
 21 22  2  0
 22  8  1  0
 22 14  1  0
  1 23  1  0
  1 24  1  0
  1 25  1  0
  3 26  1  0
  3 27  1  0
  3 28  1  0
  4 29  1  0
  4 30  1  0
  4 31  1  0
 11 32  1  0
 13 33  1  0
 15 34  1  0
 16 35  1  0
 18 36  1  0
 21 37  1  0
M  CHG  1  11  -1
M  END
>  <UniqueID>  (13) 
13

>  <SMILES>  (13) 
CC(C)(C)OC(=O)n1c(C([NH-])=O)cc2ccc(C(F)F)cc21

>  <Energy>  (13) 
70.81250848085223

>  <Genealogy>  (13) 
CC(C)(C)OC(=O)n1c(C([NH-])=O)cc2ccc(C(F)F)cc21 (protonated)
CC(C)(C)OC(=O)n1c(C([NH-])=O)cc2ccc(C(F)F)cc21 (3D coordinates assigned)
CC(C)(C)OC(=O)n1c(C([NH-])=O)cc2ccc(C(F)F)cc21 (optimized conformer: 70.81250848085223 kcal/mol)

>  <smiles>  (13) 
CC(C)(C)OC(=O)n1c(C(N)=O)cc2ccc(C(F)F)cc21

>  <score_type>  (13) 
oracle

>  <origin>  (13) 
adg

>  <m_score__min__energy>  (13) 
-9.8399999999999999

>  <m_primary>  (13) 
energy

$$$$
13:0
     RDKit          3D

 37 38  0  0  0  0  0  0  0  0999 V2000
   -0.0090   23.4510  -28.3010 C   0  0  0  0  0  0  0  0  0  0  0  0
   -0.7810   22.8570  -29.4850 C   0  0  0  0  0  0  0  0  0  0  0  0
   -0.9620   21.3450  -29.3230 C   0  0  0  0  0  0  0  0  0  0  0  0
   -2.1170   23.5250  -29.6500 C   0  0  0  0  0  0  0  0  0  0  0  0
   -2.2280   24.7720  -29.4740 O   0  0  0  0  0  0  0  0  0  0  0  0
   -3.2350   22.7370  -29.9520 O   0  0  0  0  0  0  0  0  0  0  0  0
   -3.8250   22.6320  -31.2170 C   0  0  0  0  0  0  0  0  0  0  0  0
   -3.1180   22.4280  -32.2450 O   0  0  0  0  0  0  0  0  0  0  0  0
   -5.2500   22.7460  -31.3460 N   0  0  0  0  0  0  0  0  0  0  0  0
   -6.0360   23.7980  -30.9830 C   0  0  0  0  0  0  0  0  0  0  0  0
   -5.5570   25.1140  -30.5150 C   0  0  0  0  0  0  0  0  0  0  0  0
   -4.1890   25.5000  -30.6630 N   0  0  0  0  0  0  0  0  0  0  0  0
   -6.3790   25.9360  -30.0310 O   0  0  0  0  0  0  0  0  0  0  0  0
   -7.3830   23.4850  -31.1490 C   0  0  0  0  0  0  0  0  0  0  0  0
   -7.3980   22.1990  -31.6400 C   0  0  0  0  0  0  0  0  0  0  0  0
   -8.4740   21.3820  -31.9760 C   0  0  0  0  0  0  0  0  0  0  0  0
   -8.1980   20.0780  -32.4190 C   0  0  0  0  0  0  0  0  0  0  0  0
   -6.8620   19.6050  -32.4950 C   0  0  0  0  0  0  0  0  0  0  0  0
   -6.5920   18.2100  -33.0000 C   0  0  0  0  0  0  0  0  0  0  0  0
   -7.6470   17.3630  -32.7110 F   0  0  0  0  0  0  0  0  0  0  0  0
   -6.4110   18.2250  -34.3720 F   0  0  0  0  0  0  0  0  0  0  0  0
   -5.4440   17.7250  -32.3980 F   0  0  0  0  0  0  0  0  0  0  0  0
   -5.7950   20.4750  -32.1690 C   0  0  0  0  0  0  0  0  0  0  0  0
   -6.0990   21.7740  -31.7480 C   0  0  0  0  0  0  0  0  0  0  0  0
   -0.4591   23.1047  -27.3590 H   0  0  0  0  0  0  0  0  0  0  0  0
    1.0407   23.1254  -28.3473 H   0  0  0  0  0  0  0  0  0  0  0  0
   -0.0547   24.5491  -28.3473 H   0  0  0  0  0  0  0  0  0  0  0  0
   -0.1863   23.0405  -30.3920 H   0  0  0  0  0  0  0  0  0  0  0  0
   -0.9923   21.0919  -28.2529 H   0  0  0  0  0  0  0  0  0  0  0  0
   -1.9036   21.0353  -29.7998 H   0  0  0  0  0  0  0  0  0  0  0  0
   -0.1201   20.8218  -29.7998 H   0  0  0  0  0  0  0  0  0  0  0  0
   -3.5220   24.9160  -31.2140 H   0  0  0  0  0  0  0  0  0  0  0  0
   -3.8600   26.4120  -30.2780 H   0  0  0  0  0  0  0  0  0  0  0  0
   -8.2493   24.1278  -30.9338 H   0  0  0  0  0  0  0  0  0  0  0  0
   -9.5088   21.7466  -31.8970 H   0  0  0  0  0  0  0  0  0  0  0  0
   -9.0267   19.4159  -32.7103 H   0  0  0  0  0  0  0  0  0  0  0  0
   -4.7507   20.1379  -32.2448 H   0  0  0  0  0  0  0  0  0  0  0  0
  1  2  1  0
  2  3  1  0
  2  4  1  0
  4  5  2  0
  4  6  1  0
  6  7  1  0
  7  8  2  0
  7  9  1  0
  9 10  1  0
 10 11  1  0
 11 12  1  0
 11 13  2  0
 10 14  2  0
 14 15  1  0
 15 16  2  0
 16 17  1  0
 17 18  2  0
 18 19  1  0
 19 20  1  0
 19 21  1  0
 19 22  1  0
 18 23  1  0
 23 24  2  0
 24  9  1  0
 24 15  1  0
  1 25  1  0
  1 26  1  0
  1 27  1  0
  2 28  1  0
  3 29  1  0
  3 30  1  0
  3 31  1  0
 12 32  1  0
 12 33  1  0
 14 34  1  0
 16 35  1  0
 17 36  1  0
 23 37  1  0
M  END
>  <UniqueID>  (14) 
14

>  <SMILES>  (14) 
CC(C)C(=O)OC(=O)n1c(C(N)=O)cc2ccc(C(F)(F)F)cc21

>  <Energy>  (14) 
73.06154717490269

>  <Genealogy>  (14) 
CC(C)C(=O)OC(=O)n1c(C(N)=O)cc2ccc(C(F)(F)F)cc21 (3D coordinates assigned)
CC(C)C(=O)OC(=O)n1c(C(N)=O)cc2ccc(C(F)(F)F)cc21 (optimized conformer: 73.06154717490269 kcal/mol)

>  <smiles>  (14) 
CC(C)C(=O)OC(=O)n1c(C(N)=O)cc2ccc(C(F)(F)F)cc21

>  <score_type>  (14) 
oracle

>  <origin>  (14) 
adg

>  <m_score__min__energy>  (14) 
-8.9100000000000001

>  <m_primary>  (14) 
energy

$$$$
14:0
     RDKit          3D

 45 46  0  0  0  0  0  0  0  0999 V2000
   -0.9550   26.1330  -27.9640 C   0  0  0  0  0  0  0  0  0  0  0  0
   -1.6080   24.9830  -28.6130 N   0  0  0  0  0  0  0  0  0  0  0  0
   -2.7570   24.5480  -27.8040 C   0  0  0  0  0  0  0  0  0  0  0  0
   -0.6580   23.8610  -28.7900 C   0  0  0  0  0  0  0  0  0  0  0  0
   -1.0180   23.0110  -30.0160 C   0  0  0  0  0  0  0  0  0  0  0  0
   -1.9600   21.9320  -29.6680 N   0  0  0  0  0  0  0  0  0  0  0  0
   -1.4410   20.6360  -29.2170 C   0  0  0  0  0  0  0  0  0  0  0  0
   -3.3870   22.0500  -29.8700 C   0  0  0  0  0  0  0  0  0  0  0  0
   -4.1550   21.9380  -28.8750 O   0  0  0  0  0  0  0  0  0  0  0  0
   -3.9950   22.3380  -31.1900 C   0  0  0  0  0  0  0  0  0  0  0  0
   -3.3060   22.2980  -32.2420 O   0  0  0  0  0  0  0  0  0  0  0  0
   -5.3800   22.7080  -31.2790 N   0  0  0  0  0  0  0  0  0  0  0  0
   -5.9520   23.8980  -30.9420 C   0  0  0  0  0  0  0  0  0  0  0  0
   -5.2330   25.1180  -30.5170 C   0  0  0  0  0  0  0  0  0  0  0  0
   -3.8610   25.3140  -30.8430 N   0  0  0  0  0  0  0  0  0  0  0  0
   -5.8470   26.0130  -29.8750 O   0  0  0  0  0  0  0  0  0  0  0  0
   -7.3370   23.8330  -31.0940 C   0  0  0  0  0  0  0  0  0  0  0  0
   -7.5960   22.5540  -31.5320 C   0  0  0  0  0  0  0  0  0  0  0  0
   -8.8080   21.9340  -31.8240 C   0  0  0  0  0  0  0  0  0  0  0  0
   -8.7790   20.5870  -32.2240 C   0  0  0  0  0  0  0  0  0  0  0  0
   -7.5500   19.8870  -32.3160 C   0  0  0  0  0  0  0  0  0  0  0  0
   -7.5240   18.4420  -32.7270 C   0  0  0  0  0  0  0  0  0  0  0  0
   -7.0920   17.6660  -31.6680 F   0  0  0  0  0  0  0  0  0  0  0  0
   -6.6630   18.2760  -33.7970 F   0  0  0  0  0  0  0  0  0  0  0  0
   -6.3420   20.5490  -32.0070 C   0  0  0  0  0  0  0  0  0  0  0  0
   -6.4000   21.8950  -31.6310 C   0  0  0  0  0  0  0  0  0  0  0  0
   -1.0181   26.0219  -26.8714 H   0  0  0  0  0  0  0  0  0  0  0  0
    0.1014   26.1744  -28.2680 H   0  0  0  0  0  0  0  0  0  0  0  0
   -1.4607   27.0614  -28.2680 H   0  0  0  0  0  0  0  0  0  0  0  0
   -2.5100   24.6415  -26.7362 H   0  0  0  0  0  0  0  0  0  0  0  0
   -3.6281   25.1786  -28.0354 H   0  0  0  0  0  0  0  0  0  0  0  0
   -2.9921   23.4986  -28.0354 H   0  0  0  0  0  0  0  0  0  0  0  0
    0.3556   24.2676  -28.9214 H   0  0  0  0  0  0  0  0  0  0  0  0
   -0.7087   23.2202  -27.8973 H   0  0  0  0  0  0  0  0  0  0  0  0
   -1.4805   23.6579  -30.7760 H   0  0  0  0  0  0  0  0  0  0  0  0
   -0.0952   22.5525  -30.4009 H   0  0  0  0  0  0  0  0  0  0  0  0
   -1.4298   20.6081  -28.1174 H   0  0  0  0  0  0  0  0  0  0  0  0
   -2.0858   19.8302  -29.5977 H   0  0  0  0  0  0  0  0  0  0  0  0
   -0.4183   20.4980  -29.5977 H   0  0  0  0  0  0  0  0  0  0  0  0
   -3.1200   25.2730  -30.1080 H   0  0  0  0  0  0  0  0  0  0  0  0
   -8.0671   24.6336  -30.9042 H   0  0  0  0  0  0  0  0  0  0  0  0
   -9.7587   22.4815  -31.7441 H   0  0  0  0  0  0  0  0  0  0  0  0
   -9.7193   20.0710  -32.4680 H   0  0  0  0  0  0  0  0  0  0  0  0
   -8.5377   18.1324  -33.0212 H   0  0  0  0  0  0  0  0  0  0  0  0
   -5.3793   20.0196  -32.0606 H   0  0  0  0  0  0  0  0  0  0  0  0
  1  2  1  0
  2  3  1  0
  2  4  1  0
  4  5  1  0
  5  6  1  0
  6  7  1  0
  6  8  1  0
  8  9  2  0
  8 10  1  0
 10 11  2  0
 10 12  1  0
 12 13  1  0
 13 14  1  0
 14 15  1  0
 14 16  2  0
 13 17  2  0
 17 18  1  0
 18 19  2  0
 19 20  1  0
 20 21  2  0
 21 22  1  0
 22 23  1  0
 22 24  1  0
 21 25  1  0
 25 26  2  0
 26 12  1  0
 26 18  1  0
  1 27  1  0
  1 28  1  0
  1 29  1  0
  3 30  1  0
  3 31  1  0
  3 32  1  0
  4 33  1  0
  4 34  1  0
  5 35  1  0
  5 36  1  0
  7 37  1  0
  7 38  1  0
  7 39  1  0
 15 40  1  0
 17 41  1  0
 19 42  1  0
 20 43  1  0
 22 44  1  0
 25 45  1  0
M  CHG  1  15  -1
M  END
>  <UniqueID>  (15) 
15

>  <SMILES>  (15) 
CN(C)CCN(C)C(=O)C(=O)n1c(C([NH-])=O)cc2ccc(C(F)F)cc21

>  <Energy>  (15) 
83.8798147905885

>  <Genealogy>  (15) 
CN(C)CCN(C)C(=O)C(=O)n1c(C([NH-])=O)cc2ccc(C(F)F)cc21 (protonated)
CN(C)CCN(C)C(=O)C(=O)n1c(C([NH-])=O)cc2ccc(C(F)F)cc21 (3D coordinates assigned)
CN(C)CCN(C)C(=O)C(=O)n1c(C([NH-])=O)cc2ccc(C(F)F)cc21 (optimized conformer: 83.8798147905885 kcal/mol)

>  <smiles>  (15) 
CN(C)CCN(C)C(=O)C(=O)n1c(C(N)=O)cc2ccc(C(F)F)cc21

>  <score_type>  (15) 
oracle

>  <origin>  (15) 
adg

>  <m_score__min__energy>  (15) 
-9.8300000000000001

>  <m_primary>  (15) 
energy

$$$$
15:0
     RDKit          3D

 43 46  0  0  0  0  0  0  0  0999 V2000
   -7.1110   14.8780  -34.2220 C   0  0  0  0  0  0  0  0  0  0  0  0
   -6.4740   16.1710  -34.0170 N   0  0  0  0  0  0  0  0  0  0  0  0
   -5.2800   16.5470  -34.5080 C   0  0  0  0  0  0  0  0  0  0  0  0
   -5.0610   17.8630  -34.1580 C   0  0  0  0  0  0  0  0  0  0  0  0
   -6.1970   18.2310  -33.4490 C   0  0  0  0  0  0  0  0  0  0  0  0
   -6.4850   19.5570  -32.8500 C   0  0  0  0  0  0  0  0  0  0  0  0
   -7.8170   20.0390  -32.7340 C   0  0  0  0  0  0  0  0  0  0  0  0
   -8.0810   21.3000  -32.1730 C   0  0  0  0  0  0  0  0  0  0  0  0
   -7.0020   22.0550  -31.7270 C   0  0  0  0  0  0  0  0  0  0  0  0
   -6.9680   23.3140  -31.1710 C   0  0  0  0  0  0  0  0  0  0  0  0
   -5.6200   23.5790  -30.9370 C   0  0  0  0  0  0  0  0  0  0  0  0
   -5.1230   24.8190  -30.3020 C   0  0  0  0  0  0  0  0  0  0  0  0
   -3.8720   25.3700  -30.7050 N   0  0  0  0  0  0  0  0  0  0  0  0
   -5.8020   25.4070  -29.4190 O   0  0  0  0  0  0  0  0  0  0  0  0
   -4.8530   22.5240  -31.3310 N   0  0  0  0  0  0  0  0  0  0  0  0
   -3.4200   22.4260  -31.3070 C   0  0  0  0  0  0  0  0  0  0  0  0
   -2.7860   22.2990  -32.3890 O   0  0  0  0  0  0  0  0  0  0  0  0
   -2.6810   22.4730  -30.0380 C   0  0  0  0  0  0  0  0  0  0  0  0
   -2.8950   21.5930  -29.1590 O   0  0  0  0  0  0  0  0  0  0  0  0
   -1.7610   23.5070  -29.8210 O   0  0  0  0  0  0  0  0  0  0  0  0
   -1.7270   24.3400  -28.6930 C   0  0  0  0  0  0  0  0  0  0  0  0
   -2.6990   24.1740  -27.7000 C   0  0  0  0  0  0  0  0  0  0  0  0
   -2.6780   25.0000  -26.5730 C   0  0  0  0  0  0  0  0  0  0  0  0
   -1.6920   25.9800  -26.4500 C   0  0  0  0  0  0  0  0  0  0  0  0
   -0.7390   26.1200  -27.4590 C   0  0  0  0  0  0  0  0  0  0  0  0
   -0.7760   25.3060  -28.5480 N   0  0  0  0  0  0  0  0  0  0  0  0
   -5.7130   21.6030  -31.8160 C   0  0  0  0  0  0  0  0  0  0  0  0
   -5.4170   20.3610  -32.3890 C   0  0  0  0  0  0  0  0  0  0  0  0
   -7.0450   17.1830  -33.3860 N   0  0  0  0  0  0  0  0  0  0  0  0
   -7.3360   14.4214  -33.2469 H   0  0  0  0  0  0  0  0  0  0  0  0
   -8.0448   15.0148  -34.7870 H   0  0  0  0  0  0  0  0  0  0  0  0
   -6.4335   14.2209  -34.7870 H   0  0  0  0  0  0  0  0  0  0  0  0
   -4.5947   15.9130  -35.0897 H   0  0  0  0  0  0  0  0  0  0  0  0
   -4.1822   18.4830  -34.3890 H   0  0  0  0  0  0  0  0  0  0  0  0
   -8.6522   19.4168  -33.0880 H   0  0  0  0  0  0  0  0  0  0  0  0
   -9.1104   21.6785  -32.0892 H   0  0  0  0  0  0  0  0  0  0  0  0
   -7.8235   23.9714  -30.9568 H   0  0  0  0  0  0  0  0  0  0  0  0
   -3.0800   24.7510  -30.9900 H   0  0  0  0  0  0  0  0  0  0  0  0
   -3.4732   23.3997  -27.8057 H   0  0  0  0  0  0  0  0  0  0  0  0
   -3.4362   24.8782  -25.7854 H   0  0  0  0  0  0  0  0  0  0  0  0
   -1.6666   26.6351  -25.5667 H   0  0  0  0  0  0  0  0  0  0  0  0
    0.0428   26.8891  -27.3739 H   0  0  0  0  0  0  0  0  0  0  0  0
   -4.3759   20.0176  -32.4788 H   0  0  0  0  0  0  0  0  0  0  0  0
  1  2  1  0
  2  3  1  0
  3  4  2  0
  4  5  1  0
  5  6  1  0
  6  7  2  0
  7  8  1  0
  8  9  2  0
  9 10  1  0
 10 11  2  0
 11 12  1  0
 12 13  1  0
 12 14  2  0
 11 15  1  0
 15 16  1  0
 16 17  2  0
 16 18  1  0
 18 19  2  0
 18 20  1  0
 20 21  1  0
 21 22  2  0
 22 23  1  0
 23 24  2  0
 24 25  1  0
 25 26  2  0
 15 27  1  0
 27 28  2  0
  5 29  2  0
 29  2  1  0
 28  6  1  0
 27  9  1  0
 26 21  1  0
  1 30  1  0
  1 31  1  0
  1 32  1  0
  3 33  1  0
  4 34  1  0
  7 35  1  0
  8 36  1  0
 10 37  1  0
 13 38  1  0
 22 39  1  0
 23 40  1  0
 24 41  1  0
 25 42  1  0
 28 43  1  0
M  CHG  1  13  -1
M  END
>  <UniqueID>  (16) 
16

>  <SMILES>  (16) 
Cn1ccc(-c2ccc3cc(C([NH-])=O)n(C(=O)C(=O)Oc4ccccn4)c3c2)n1

>  <Energy>  (16) 
118.35016852242175

>  <Genealogy>  (16) 
Cn1ccc(-c2ccc3cc(C([NH-])=O)n(C(=O)C(=O)Oc4ccccn4)c3c2)n1 (protonated)
Cn1ccc(-c2ccc3cc(C([NH-])=O)n(C(=O)C(=O)Oc4ccccn4)c3c2)n1 (3D coordinates assigned)
Cn1ccc(-c2ccc3cc(C([NH-])=O)n(C(=O)C(=O)Oc4ccccn4)c3c2)n1 (optimized conformer: 118.35016852242175 kcal/mol)

>  <smiles>  (16) 
Cn1ccc(-c2ccc3cc(C(N)=O)n(C(=O)C(=O)Oc4ccccn4)c3c2)n1

>  <score_type>  (16) 
oracle

>  <origin>  (16) 
adg

>  <m_score__min__energy>  (16) 
-11.539999999999999

>  <m_primary>  (16) 
energy

$$$$
16:0
     RDKit          3D

 38 39  0  0  0  0  0  0  0  0999 V2000
   -1.8370   21.7270  -29.0350 C   0  0  0  0  0  0  0  0  0  0  0  0
   -2.7010   22.9710  -29.2220 C   0  0  2  0  0  0  0  0  0  0  0  0
   -2.7000   23.3510  -30.6000 O   0  0  0  0  0  0  0  0  0  0  0  0
   -3.5250   22.7480  -31.5580 C   0  0  0  0  0  0  0  0  0  0  0  0
   -3.0160   22.1800  -32.5630 O   0  0  0  0  0  0  0  0  0  0  0  0
   -4.9550   22.8170  -31.4200 N   0  0  0  0  0  0  0  0  0  0  0  0
   -5.7070   23.8910  -31.0440 C   0  0  0  0  0  0  0  0  0  0  0  0
   -5.1940   25.1610  -30.4990 C   0  0  0  0  0  0  0  0  0  0  0  0
   -3.9000   25.6380  -30.8560 N   0  0  0  0  0  0  0  0  0  0  0  0
   -5.8800   25.8060  -29.6620 O   0  0  0  0  0  0  0  0  0  0  0  0
   -7.0650   23.6080  -31.1650 C   0  0  0  0  0  0  0  0  0  0  0  0
   -7.1280   22.3130  -31.6230 C   0  0  0  0  0  0  0  0  0  0  0  0
   -8.2330   21.5330  -31.9450 C   0  0  0  0  0  0  0  0  0  0  0  0
   -8.0070   20.2400  -32.4420 C   0  0  0  0  0  0  0  0  0  0  0  0
   -6.6860   19.7460  -32.6010 C   0  0  0  0  0  0  0  0  0  0  0  0
   -6.4540   18.3800  -33.1960 C   0  0  0  0  0  0  0  0  0  0  0  0
   -7.5960   17.6050  -33.1040 F   0  0  0  0  0  0  0  0  0  0  0  0
   -6.1090   18.5170  -34.5280 F   0  0  0  0  0  0  0  0  0  0  0  0
   -5.4310   17.7260  -32.5310 F   0  0  0  0  0  0  0  0  0  0  0  0
   -5.5880   20.5800  -32.2880 C   0  0  0  0  0  0  0  0  0  0  0  0
   -5.8430   21.8580  -31.7720 C   0  0  0  0  0  0  0  0  0  0  0  0
   -2.2100   24.0730  -28.3750 N   0  0  0  0  0  0  0  0  0  0  0  0
   -2.9190   24.4370  -27.1440 C   0  0  0  0  0  0  0  0  0  0  0  0
   -1.0720   24.8600  -28.7820 C   0  0  0  0  0  0  0  0  0  0  0  0
   -1.2370   25.9870  -29.3190 O   0  0  0  0  0  0  0  0  0  0  0  0
    0.2220   24.3880  -28.5950 O   0  0  0  0  0  0  0  0  0  0  0  0
   -1.7019   21.5325  -27.9608 H   0  0  0  0  0  0  0  0  0  0  0  0
   -2.3308   20.8636  -29.5047 H   0  0  0  0  0  0  0  0  0  0  0  0
   -0.8555   21.8883  -29.5047 H   0  0  0  0  0  0  0  0  0  0  0  0
   -3.7328   22.7437  -28.9160 H   0  0  0  0  0  0  0  0  0  0  0  0
   -3.0450   25.2720  -30.3820 H   0  0  0  0  0  0  0  0  0  0  0  0
   -7.9083   24.2781  -30.9416 H   0  0  0  0  0  0  0  0  0  0  0  0
   -9.2550   21.9182  -31.8140 H   0  0  0  0  0  0  0  0  0  0  0  0
   -8.8625   19.6030  -32.7110 H   0  0  0  0  0  0  0  0  0  0  0  0
   -4.5561   20.2334  -32.4460 H   0  0  0  0  0  0  0  0  0  0  0  0
   -2.3218   24.1304  -26.2726 H   0  0  0  0  0  0  0  0  0  0  0  0
   -3.0733   25.5258  -27.1180 H   0  0  0  0  0  0  0  0  0  0  0  0
   -3.8937   23.9278  -27.1180 H   0  0  0  0  0  0  0  0  0  0  0  0
  1  2  1  0
  2  3  1  0
  3  4  1  0
  4  5  2  0
  4  6  1  0
  6  7  1  0
  7  8  1  0
  8  9  1  0
  8 10  2  0
  7 11  2  0
 11 12  1  0
 12 13  2  0
 13 14  1  0
 14 15  2  0
 15 16  1  0
 16 17  1  0
 16 18  1  0
 16 19  1  0
 15 20  1  0
 20 21  2  0
  2 22  1  0
 22 23  1  0
 22 24  1  0
 24 25  2  0
 24 26  1  0
 21  6  1  0
 21 12  1  0
  1 27  1  0
  1 28  1  0
  1 29  1  0
  2 30  1  1
  9 31  1  0
 11 32  1  0
 13 33  1  0
 14 34  1  0
 20 35  1  0
 23 36  1  0
 23 37  1  0
 23 38  1  0
M  CHG  2   9  -1  26  -1
M  END
>  <UniqueID>  (17) 
17

>  <SMILES>  (17) 
C[C@H](OC(=O)n1c(C([NH-])=O)cc2ccc(C(F)(F)F)cc21)N(C)C(=O)[O-]

>  <Energy>  (17) 
73.01131234729134

>  <Genealogy>  (17) 
CC(OC(=O)n1c(C([NH-])=O)cc2ccc(C(F)(F)F)cc21)N(C)C(=O)[O-] (protonated)
C[C@H](OC(=O)n1c(C([NH-])=O)cc2ccc(C(F)(F)F)cc21)N(C)C(=O)[O-] (chirality)
C[C@H](OC(=O)n1c(C([NH-])=O)cc2ccc(C(F)(F)F)cc21)N(C)C(=O)[O-] (3D coordinates assigned)
C[C@H](OC(=O)n1c(C([NH-])=O)cc2ccc(C(F)(F)F)cc21)N(C)C(=O)[O-] (optimized conformer: 73.01131234729134 kcal/mol)

>  <smiles>  (17) 
CC(OC(=O)n1c(C(N)=O)cc2ccc(C(F)(F)F)cc21)N(C)C(=O)O

>  <score_type>  (17) 
oracle

>  <origin>  (17) 
adg

>  <m_score__min__energy>  (17) 
-12.44

>  <m_primary>  (17) 
energy

$$$$
17:0
     RDKit          3D

 42 44  0  0  0  0  0  0  0  0999 V2000
   -3.8820   25.6420  -30.8420 N   0  0  0  0  0  0  0  0  0  0  0  0
   -5.2060   25.2940  -30.4450 C   0  0  0  0  0  0  0  0  0  0  0  0
   -5.8610   26.0870  -29.7180 O   0  0  0  0  0  0  0  0  0  0  0  0
   -5.8030   24.0210  -30.9020 C   0  0  0  0  0  0  0  0  0  0  0  0
   -7.1640   23.8400  -31.1410 C   0  0  0  0  0  0  0  0  0  0  0  0
   -7.2970   22.5200  -31.5130 C   0  0  0  0  0  0  0  0  0  0  0  0
   -8.4300   21.7970  -31.8700 C   0  0  0  0  0  0  0  0  0  0  0  0
   -8.2660   20.4480  -32.2290 C   0  0  0  0  0  0  0  0  0  0  0  0
   -6.9760   19.8550  -32.2500 C   0  0  0  0  0  0  0  0  0  0  0  0
   -6.8190   18.3960  -32.5970 C   0  0  0  0  0  0  0  0  0  0  0  0
   -5.8160   17.8490  -31.8170 F   0  0  0  0  0  0  0  0  0  0  0  0
   -6.4840   18.2450  -33.9320 F   0  0  0  0  0  0  0  0  0  0  0  0
   -7.9970   17.7080  -32.3650 F   0  0  0  0  0  0  0  0  0  0  0  0
   -5.8520   20.6170  -31.8580 C   0  0  0  0  0  0  0  0  0  0  0  0
   -6.0500   21.9520  -31.4920 C   0  0  0  0  0  0  0  0  0  0  0  0
   -5.1260   22.8590  -31.1110 N   0  0  0  0  0  0  0  0  0  0  0  0
   -3.7090   22.6450  -31.0160 C   0  0  0  0  0  0  0  0  0  0  0  0
   -3.0410   22.4940  -32.0730 O   0  0  0  0  0  0  0  0  0  0  0  0
   -3.0510   22.5880  -29.6920 C   0  0  0  0  0  0  0  0  0  0  0  0
   -3.0650   23.6200  -28.9670 O   0  0  0  0  0  0  0  0  0  0  0  0
   -2.3890   21.3970  -29.2140 N   0  0  0  0  0  0  0  0  0  0  0  0
   -2.2900   21.1400  -27.7710 C   0  0  0  0  0  0  0  0  0  0  0  0
   -0.8210   21.1390  -27.3180 C   0  0  0  0  0  0  0  0  0  0  0  0
    0.1510   20.5820  -28.3860 C   0  0  0  0  0  0  0  0  0  0  0  0
    1.1640   19.8430  -27.7550 O   0  0  0  0  0  0  0  0  0  0  0  0
   -0.5760   19.7020  -29.4170 C   0  0  0  0  0  0  0  0  0  0  0  0
   -1.6590   20.5160  -30.1430 C   0  0  0  0  0  0  0  0  0  0  0  0
   -3.0540   25.2950  -30.3080 H   0  0  0  0  0  0  0  0  0  0  0  0
   -7.9624   24.5913  -31.0516 H   0  0  0  0  0  0  0  0  0  0  0  0
   -9.4247   22.2667  -31.8714 H   0  0  0  0  0  0  0  0  0  0  0  0
   -9.1464   19.8452  -32.4965 H   0  0  0  0  0  0  0  0  0  0  0  0
   -4.8466   20.1710  -31.8412 H   0  0  0  0  0  0  0  0  0  0  0  0
   -2.8351   21.9250  -27.2263 H   0  0  0  0  0  0  0  0  0  0  0  0
   -2.7264   20.1532  -27.5571 H   0  0  0  0  0  0  0  0  0  0  0  0
   -0.5273   22.1731  -27.0847 H   0  0  0  0  0  0  0  0  0  0  0  0
   -0.7521   20.4793  -26.4405 H   0  0  0  0  0  0  0  0  0  0  0  0
    0.5881   21.4340  -28.9272 H   0  0  0  0  0  0  0  0  0  0  0  0
    1.2620   18.9960  -28.2640 H   0  0  0  0  0  0  0  0  0  0  0  0
    0.1515   19.3284  -30.1526 H   0  0  0  0  0  0  0  0  0  0  0  0
   -1.0515   18.8581  -28.8957 H   0  0  0  0  0  0  0  0  0  0  0  0
   -1.1821   21.1324  -30.9193 H   0  0  0  0  0  0  0  0  0  0  0  0
   -2.3785   19.8125  -30.5873 H   0  0  0  0  0  0  0  0  0  0  0  0
  1  2  1  0
  2  3  2  0
  2  4  1  0
  4  5  2  0
  5  6  1  0
  6  7  2  0
  7  8  1  0
  8  9  2  0
  9 10  1  0
 10 11  1  0
 10 12  1  0
 10 13  1  0
  9 14  1  0
 14 15  2  0
 15 16  1  0
 16 17  1  0
 17 18  2  0
 17 19  1  0
 19 20  2  0
 19 21  1  0
 21 22  1  0
 22 23  1  0
 23 24  1  0
 24 25  1  0
 24 26  1  0
 26 27  1  0
 16  4  1  0
 27 21  1  0
 15  6  1  0
  1 28  1  0
  5 29  1  0
  7 30  1  0
  8 31  1  0
 14 32  1  0
 22 33  1  0
 22 34  1  0
 23 35  1  0
 23 36  1  0
 24 37  1  0
 25 38  1  0
 26 39  1  0
 26 40  1  0
 27 41  1  0
 27 42  1  0
M  CHG  1   1  -1
M  END
>  <UniqueID>  (18) 
18

>  <SMILES>  (18) 
[NH-]C(=O)c1cc2ccc(C(F)(F)F)cc2n1C(=O)C(=O)N1CCC(O)CC1

>  <Energy>  (18) 
88.30003758116229

>  <Genealogy>  (18) 
[NH-]C(=O)c1cc2ccc(C(F)(F)F)cc2n1C(=O)C(=O)N1CCC(O)CC1 (protonated)
[NH-]C(=O)c1cc2ccc(C(F)(F)F)cc2n1C(=O)C(=O)N1CCC(O)CC1 (3D coordinates assigned)
[NH-]C(=O)c1cc2ccc(C(F)(F)F)cc2n1C(=O)C(=O)N1CCC(O)CC1 (nonaromatic ring conformer: 88.30003758116229 kcal/mol)

>  <smiles>  (18) 
NC(=O)c1cc2ccc(C(F)(F)F)cc2n1C(=O)C(=O)N1CCC(O)CC1

>  <score_type>  (18) 
oracle

>  <origin>  (18) 
adg

>  <m_score__min__energy>  (18) 
-10.300000000000001

>  <m_primary>  (18) 
energy

$$$$
18:0
     RDKit          3D

 37 38  0  0  0  0  0  0  0  0999 V2000
   -4.2140   25.5570  -30.7420 N   0  0  0  0  0  0  0  0  0  0  0  0
   -5.5280   25.1130  -30.4000 C   0  0  0  0  0  0  0  0  0  0  0  0
   -6.2330   25.8110  -29.6230 O   0  0  0  0  0  0  0  0  0  0  0  0
   -6.0520   23.8210  -30.8890 C   0  0  0  0  0  0  0  0  0  0  0  0
   -7.3840   23.6180  -31.2420 C   0  0  0  0  0  0  0  0  0  0  0  0
   -7.4700   22.2860  -31.5740 C   0  0  0  0  0  0  0  0  0  0  0  0
   -8.5600   21.5470  -32.0240 C   0  0  0  0  0  0  0  0  0  0  0  0
   -8.3550   20.1940  -32.3380 C   0  0  0  0  0  0  0  0  0  0  0  0
   -7.0750   19.6010  -32.1910 C   0  0  0  0  0  0  0  0  0  0  0  0
   -6.8530   18.1640  -32.5930 C   0  0  0  0  0  0  0  0  0  0  0  0
   -5.8270   17.6330  -31.8340 F   0  0  0  0  0  0  0  0  0  0  0  0
   -8.0000   17.4180  -32.3900 F   0  0  0  0  0  0  0  0  0  0  0  0
   -6.5130   18.0800  -33.9320 F   0  0  0  0  0  0  0  0  0  0  0  0
   -5.9860   20.3930  -31.7560 C   0  0  0  0  0  0  0  0  0  0  0  0
   -6.2240   21.7330  -31.4300 C   0  0  0  0  0  0  0  0  0  0  0  0
   -5.3400   22.6670  -31.0120 N   0  0  0  0  0  0  0  0  0  0  0  0
   -3.9230   22.4920  -30.8480 C   0  0  0  0  0  0  0  0  0  0  0  0
   -3.1230   23.0910  -31.6180 O   0  0  0  0  0  0  0  0  0  0  0  0
   -3.4380   21.6580  -29.8350 O   0  0  0  0  0  0  0  0  0  0  0  0
   -2.4420   22.0590  -28.8970 C   0  0  0  0  0  0  0  0  0  0  0  0
   -3.0740   22.8580  -27.7530 C   0  0  0  0  0  0  0  0  0  0  0  0
   -2.1930   24.0460  -27.3580 C   0  0  0  0  0  0  0  0  0  0  0  0
   -1.5740   24.6640  -28.5700 C   0  0  0  0  0  0  0  0  0  0  0  0
   -2.2890   25.2840  -29.4010 O   0  0  0  0  0  0  0  0  0  0  0  0
   -0.2140   24.5150  -28.8100 O   0  0  0  0  0  0  0  0  0  0  0  0
   -3.5440   24.9270  -31.2350 H   0  0  0  0  0  0  0  0  0  0  0  0
   -3.8780   26.4910  -30.4230 H   0  0  0  0  0  0  0  0  0  0  0  0
   -8.1933   24.3629  -31.2529 H   0  0  0  0  0  0  0  0  0  0  0  0
   -9.5525   22.0091  -32.1305 H   0  0  0  0  0  0  0  0  0  0  0  0
   -9.1968   19.5868  -32.7022 H   0  0  0  0  0  0  0  0  0  0  0  0
   -4.9757   19.9653  -31.6759 H   0  0  0  0  0  0  0  0  0  0  0  0
   -1.9508   21.1647  -28.4859 H   0  0  0  0  0  0  0  0  0  0  0  0
   -1.7049   22.6941  -29.4101 H   0  0  0  0  0  0  0  0  0  0  0  0
   -4.0570   23.2314  -28.0758 H   0  0  0  0  0  0  0  0  0  0  0  0
   -3.1792   22.1959  -26.8809 H   0  0  0  0  0  0  0  0  0  0  0  0
   -2.8087   24.7978  -26.8426 H   0  0  0  0  0  0  0  0  0  0  0  0
   -1.3931   23.6900  -26.6921 H   0  0  0  0  0  0  0  0  0  0  0  0
  1  2  1  0
  2  3  2  0
  2  4  1  0
  4  5  2  0
  5  6  1  0
  6  7  2  0
  7  8  1  0
  8  9  2  0
  9 10  1  0
 10 11  1  0
 10 12  1  0
 10 13  1  0
  9 14  1  0
 14 15  2  0
 15 16  1  0
 16 17  1  0
 17 18  2  0
 17 19  1  0
 19 20  1  0
 20 21  1  0
 21 22  1  0
 22 23  1  0
 23 24  2  0
 23 25  1  0
 16  4  1  0
 15  6  1  0
  1 26  1  0
  1 27  1  0
  5 28  1  0
  7 29  1  0
  8 30  1  0
 14 31  1  0
 20 32  1  0
 20 33  1  0
 21 34  1  0
 21 35  1  0
 22 36  1  0
 22 37  1  0
M  CHG  1  25  -1
M  END
>  <UniqueID>  (19) 
19

>  <SMILES>  (19) 
NC(=O)c1cc2ccc(C(F)(F)F)cc2n1C(=O)OCCCC(=O)[O-]

>  <Energy>  (19) 
70.38007709982458

>  <Genealogy>  (19) 
NC(=O)c1cc2ccc(C(F)(F)F)cc2n1C(=O)OCCCC(=O)[O-] (protonated)
NC(=O)c1cc2ccc(C(F)(F)F)cc2n1C(=O)OCCCC(=O)[O-] (3D coordinates assigned)
NC(=O)c1cc2ccc(C(F)(F)F)cc2n1C(=O)OCCCC(=O)[O-] (optimized conformer: 70.38007709982458 kcal/mol)

>  <smiles>  (19) 
NC(=O)c1cc2ccc(C(F)(F)F)cc2n1C(=O)OCCCC(=O)O

>  <score_type>  (19) 
oracle

>  <origin>  (19) 
adg

>  <m_score__min__energy>  (19) 
-10.41

>  <m_primary>  (19) 
energy

$$$$
19:0
     RDKit          3D

 40 42  0  0  0  0  0  0  0  0999 V2000
   -1.1100   20.8200  -32.5340 C   0  0  0  0  0  0  0  0  0  0  0  0
   -2.7910   20.4670  -33.0010 S   0  0  0  0  0  0  0  0  0  0  0  0
   -3.4060   19.5710  -31.9620 O   0  0  0  0  0  0  0  0  0  0  0  0
   -2.8090   19.7650  -34.3300 O   0  0  0  0  0  0  0  0  0  0  0  0
   -3.7320   21.9790  -33.0930 C   0  0  0  0  0  0  0  0  0  0  0  0
   -4.0700   22.4820  -31.7190 C   0  0  0  0  0  0  0  0  0  0  0  0
   -3.1670   22.5390  -30.8420 O   0  0  0  0  0  0  0  0  0  0  0  0
   -5.4150   22.8660  -31.3880 N   0  0  0  0  0  0  0  0  0  0  0  0
   -5.8490   24.0790  -30.9400 C   0  0  0  0  0  0  0  0  0  0  0  0
   -4.9960   25.2510  -30.6420 C   0  0  0  0  0  0  0  0  0  0  0  0
   -3.5910   25.0790  -30.4700 N   0  0  0  0  0  0  0  0  0  0  0  0
   -5.4910   26.4050  -30.5500 O   0  0  0  0  0  0  0  0  0  0  0  0
   -7.2320   24.0670  -30.7710 C   0  0  0  0  0  0  0  0  0  0  0  0
   -7.6360   22.8060  -31.1450 C   0  0  0  0  0  0  0  0  0  0  0  0
   -8.9150   22.2600  -31.2170 C   0  0  0  0  0  0  0  0  0  0  0  0
   -9.0440   20.9490  -31.7050 C   0  0  0  0  0  0  0  0  0  0  0  0
   -7.9030   20.2160  -32.1150 C   0  0  0  0  0  0  0  0  0  0  0  0
   -8.0670   18.8480  -32.7150 C   0  0  0  0  0  0  0  0  0  0  0  0
   -6.7690   18.3420  -33.1470 N   0  0  0  0  0  0  0  0  0  0  0  0
   -6.0800   18.7170  -34.2400 C   0  0  0  0  0  0  0  0  0  0  0  0
   -4.8880   18.1010  -34.2700 N   0  0  0  0  0  0  0  0  0  0  0  0
   -4.8830   17.3500  -33.1510 C   0  0  0  0  0  0  0  0  0  0  0  0
   -6.0270   17.4960  -32.4500 N   0  0  0  0  0  0  0  0  0  0  0  0
   -6.6240   20.8090  -32.0390 C   0  0  0  0  0  0  0  0  0  0  0  0
   -6.5210   22.1030  -31.5200 C   0  0  0  0  0  0  0  0  0  0  0  0
   -1.0300   20.8368  -31.4370 H   0  0  0  0  0  0  0  0  0  0  0  0
   -0.4460   20.0417  -32.9382 H   0  0  0  0  0  0  0  0  0  0  0  0
   -0.8152   21.7996  -32.9382 H   0  0  0  0  0  0  0  0  0  0  0  0
   -3.1392   22.7410  -33.6202 H   0  0  0  0  0  0  0  0  0  0  0  0
   -4.6680   21.7790  -33.6351 H   0  0  0  0  0  0  0  0  0  0  0  0
   -3.0030   24.6620  -31.2270 H   0  0  0  0  0  0  0  0  0  0  0  0
   -7.8667   24.8914  -30.4140 H   0  0  0  0  0  0  0  0  0  0  0  0
   -9.7967   22.8372  -30.9016 H   0  0  0  0  0  0  0  0  0  0  0  0
  -10.0403   20.4872  -31.7694 H   0  0  0  0  0  0  0  0  0  0  0  0
   -8.4929   18.1675  -31.9630 H   0  0  0  0  0  0  0  0  0  0  0  0
   -8.7413   18.9088  -33.5820 H   0  0  0  0  0  0  0  0  0  0  0  0
   -6.4414   19.4260  -34.9994 H   0  0  0  0  0  0  0  0  0  0  0  0
   -4.1320   18.1950  -34.9840 H   0  0  0  0  0  0  0  0  0  0  0  0
   -4.0501   16.6990  -32.8468 H   0  0  0  0  0  0  0  0  0  0  0  0
   -5.7302   20.2660  -32.3799 H   0  0  0  0  0  0  0  0  0  0  0  0
  1  2  1  0
  2  3  2  0
  2  4  2  0
  2  5  1  0
  5  6  1  0
  6  7  2  0
  6  8  1  0
  8  9  1  0
  9 10  1  0
 10 11  1  0
 10 12  2  0
  9 13  2  0
 13 14  1  0
 14 15  2  0
 15 16  1  0
 16 17  2  0
 17 18  1  0
 18 19  1  0
 19 20  1  0
 20 21  2  0
 21 22  1  0
 22 23  2  0
 17 24  1  0
 24 25  2  0
 25  8  1  0
 25 14  1  0
 23 19  1  0
  1 26  1  0
  1 27  1  0
  1 28  1  0
  5 29  1  0
  5 30  1  0
 11 31  1  0
 13 32  1  0
 15 33  1  0
 16 34  1  0
 18 35  1  0
 18 36  1  0
 20 37  1  0
 21 38  1  0
 22 39  1  0
 24 40  1  0
M  CHG  2  11  -1  21   1
M  END
>  <UniqueID>  (20) 
20

>  <SMILES>  (20) 
CS(=O)(=O)CC(=O)n1c(C([NH-])=O)cc2ccc(Cn3c[nH+]cn3)cc21

>  <Energy>  (20) 
105.16637314148852

>  <Genealogy>  (20) 
CS(=O)(=O)CC(=O)n1c(C([NH-])=O)cc2ccc(Cn3c[nH+]cn3)cc21 (protonated)
CS(=O)(=O)CC(=O)n1c(C([NH-])=O)cc2ccc(Cn3c[nH+]cn3)cc21 (3D coordinates assigned)
CS(=O)(=O)CC(=O)n1c(C([NH-])=O)cc2ccc(Cn3c[nH+]cn3)cc21 (optimized conformer: 105.16637314148852 kcal/mol)

>  <smiles>  (20) 
CS(=O)(=O)CC(=O)n1c(C(N)=O)cc2ccc(Cn3cncn3)cc21

>  <score_type>  (20) 
oracle

>  <origin>  (20) 
adg

>  <m_score__min__energy>  (20) 
-10.41

>  <m_primary>  (20) 
energy

$$$$
20:0
     RDKit          3D

 51 54  0  0  0  0  0  0  0  0999 V2000
   -0.9740   14.4530  -32.0190 C   0  0  0  0  0  0  0  0  0  0  0  0
   -1.3610   14.3250  -33.4380 N   0  0  0  0  0  0  0  0  0  0  0  0
   -1.5580   15.6690  -34.0640 C   0  0  0  0  0  0  0  0  0  0  0  0
   -2.9020   15.8270  -34.7910 C   0  0  0  0  0  0  0  0  0  0  0  0
   -3.9870   15.3610  -33.9240 N   0  0  0  0  0  0  0  0  0  0  0  0
   -5.2500   16.0470  -33.8930 C   0  0  0  0  0  0  0  0  0  0  0  0
   -6.3180   15.3840  -34.0050 O   0  0  0  0  0  0  0  0  0  0  0  0
   -5.3260   17.5150  -33.7090 C   0  0  0  0  0  0  0  0  0  0  0  0
   -6.4200   18.2370  -34.2110 C   0  0  0  0  0  0  0  0  0  0  0  0
   -6.4940   19.6190  -34.0350 C   0  0  0  0  0  0  0  0  0  0  0  0
   -5.4830   20.2960  -33.3480 C   0  0  0  0  0  0  0  0  0  0  0  0
   -4.3880   19.5920  -32.8220 C   0  0  0  0  0  0  0  0  0  0  0  0
   -3.3180   20.3060  -32.0800 C   0  0  0  0  0  0  0  0  0  0  0  0
   -2.0190   19.7430  -31.9760 C   0  0  0  0  0  0  0  0  0  0  0  0
   -1.0030   20.4030  -31.2670 C   0  0  0  0  0  0  0  0  0  0  0  0
   -1.3060   21.6270  -30.6800 C   0  0  0  0  0  0  0  0  0  0  0  0
   -0.5200   22.4610  -29.9190 C   0  0  0  0  0  0  0  0  0  0  0  0
   -1.3390   23.5390  -29.5870 C   0  0  0  0  0  0  0  0  0  0  0  0
   -0.8620   24.7190  -28.8390 C   0  0  0  0  0  0  0  0  0  0  0  0
   -1.5100   25.9820  -28.9720 N   0  0  0  0  0  0  0  0  0  0  0  0
    0.1630   24.6250  -28.1110 O   0  0  0  0  0  0  0  0  0  0  0  0
   -2.5850   23.3730  -30.1150 N   0  0  0  0  0  0  0  0  0  0  0  0
   -3.7360   24.2120  -29.9250 C   0  0  0  0  0  0  0  0  0  0  0  0
   -4.6400   23.8790  -29.1160 O   0  0  0  0  0  0  0  0  0  0  0  0
   -3.8490   25.4130  -30.6140 O   0  0  0  0  0  0  0  0  0  0  0  0
   -2.5480   22.1980  -30.7820 C   0  0  0  0  0  0  0  0  0  0  0  0
   -3.5860   21.5530  -31.4660 C   0  0  0  0  0  0  0  0  0  0  0  0
   -4.3200   18.1990  -33.0030 C   0  0  0  0  0  0  0  0  0  0  0  0
   -3.8550   14.0630  -33.2520 C   0  0  0  0  0  0  0  0  0  0  0  0
   -2.5110   13.3990  -33.5920 C   0  0  0  0  0  0  0  0  0  0  0  0
   -1.8242   14.1718  -31.3803 H   0  0  0  0  0  0  0  0  0  0  0  0
   -0.1227   13.7886  -31.8098 H   0  0  0  0  0  0  0  0  0  0  0  0
   -0.6867   15.4940  -31.8098 H   0  0  0  0  0  0  0  0  0  0  0  0
   -0.5490   13.8690  -33.9220 H   0  0  0  0  0  0  0  0  0  0  0  0
   -1.5007   16.4311  -33.2729 H   0  0  0  0  0  0  0  0  0  0  0  0
   -0.7696   15.7864  -34.8221 H   0  0  0  0  0  0  0  0  0  0  0  0
   -3.0614   16.8866  -35.0397 H   0  0  0  0  0  0  0  0  0  0  0  0
   -2.8902   15.2299  -35.7148 H   0  0  0  0  0  0  0  0  0  0  0  0
   -7.2237   17.7101  -34.7463 H   0  0  0  0  0  0  0  0  0  0  0  0
   -7.3513   20.1777  -34.4385 H   0  0  0  0  0  0  0  0  0  0  0  0
   -5.5453   21.3866  -33.2185 H   0  0  0  0  0  0  0  0  0  0  0  0
   -1.8058   18.7771  -32.4572 H   0  0  0  0  0  0  0  0  0  0  0  0
    0.0023   19.9654  -31.1783 H   0  0  0  0  0  0  0  0  0  0  0  0
    0.5314   22.3094  -29.6332 H   0  0  0  0  0  0  0  0  0  0  0  0
   -2.5510   26.0550  -28.9590 H   0  0  0  0  0  0  0  0  0  0  0  0
   -4.5870   22.0052  -31.5248 H   0  0  0  0  0  0  0  0  0  0  0  0
   -3.4700   17.6378  -32.5875 H   0  0  0  0  0  0  0  0  0  0  0  0
   -3.9165   14.2136  -32.1641 H   0  0  0  0  0  0  0  0  0  0  0  0
   -4.6669   13.4061  -33.5974 H   0  0  0  0  0  0  0  0  0  0  0  0
   -2.3633   12.5395  -32.9217 H   0  0  0  0  0  0  0  0  0  0  0  0
   -2.5501   13.0893  -34.6468 H   0  0  0  0  0  0  0  0  0  0  0  0
  1  2  1  0
  2  3  1  0
  3  4  1  0
  4  5  1  0
  5  6  1  0
  6  7  2  0
  6  8  1  0
  8  9  2  0
  9 10  1  0
 10 11  2  0
 11 12  1  0
 12 13  1  0
 13 14  2  0
 14 15  1  0
 15 16  2  0
 16 17  1  0
 17 18  2  0
 18 19  1  0
 19 20  1  0
 19 21  2  0
 18 22  1  0
 22 23  1  0
 23 24  2  0
 23 25  1  0
 22 26  1  0
 26 27  2  0
 12 28  2  0
  5 29  1  0
 29 30  1  0
 30  2  1  0
 28  8  1  0
 27 13  1  0
 26 16  1  0
  1 31  1  0
  1 32  1  0
  1 33  1  0
  2 34  1  0
  3 35  1  0
  3 36  1  0
  4 37  1  0
  4 38  1  0
  9 39  1  0
 10 40  1  0
 11 41  1  0
 14 42  1  0
 15 43  1  0
 17 44  1  0
 20 45  1  0
 27 46  1  0
 28 47  1  0
 29 48  1  0
 29 49  1  0
 30 50  1  0
 30 51  1  0
M  CHG  3   2   1  20  -1  25  -1
M  END
>  <UniqueID>  (21) 
21

>  <SMILES>  (21) 
C[NH+]1CCN(C(=O)c2cccc(-c3ccc4cc(C([NH-])=O)n(C(=O)[O-])c4c3)c2)CC1

>  <Energy>  (21) 
111.64146695781022

>  <Genealogy>  (21) 
C[NH+]1CCN(C(=O)c2cccc(-c3ccc4cc(C([NH-])=O)n(C(=O)[O-])c4c3)c2)CC1 (protonated)
C[NH+]1CCN(C(=O)c2cccc(-c3ccc4cc(C([NH-])=O)n(C(=O)[O-])c4c3)c2)CC1 (3D coordinates assigned)
C[NH+]1CCN(C(=O)c2cccc(-c3ccc4cc(C([NH-])=O)n(C(=O)[O-])c4c3)c2)CC1 (nonaromatic ring conformer: 111.64146695781022 kcal/mol)

>  <smiles>  (21) 
CN1CCN(C(=O)c2cccc(-c3ccc4cc(C(N)=O)n(C(=O)O)c4c3)c2)CC1

>  <score_type>  (21) 
oracle

>  <origin>  (21) 
adg

>  <m_score__min__energy>  (21) 
-12.16

>  <m_primary>  (21) 
energy

$$$$
21:0
     RDKit          3D

 34 35  0  0  0  0  0  0  0  0999 V2000
   -2.4262    0.4197    1.6652 N   0  0  0  0  0  0  0  0  0  0  0  0
   -2.6818    1.7535    2.0892 C   0  0  0  0  0  0  0  0  0  0  0  0
   -2.9213    1.9675    3.3178 O   0  0  0  0  0  0  0  0  0  0  0  0
   -2.3959    4.0128    2.4713 C   0  0  0  0  0  0  0  0  0  0  0  0
   -2.6230    1.9248   -0.5413 I   0  0  0  0  0  0  0  0  0  0  0  0
   -5.4580    2.0848   -2.7539 O   0  0  0  0  0  0  0  0  0  0  0  0
    0.1981   -0.3112   -1.1434 C   0  0  0  0  0  0  0  0  0  0  0  0
   -1.6754   -0.3872   -1.4575 O   0  0  0  0  0  0  0  0  0  0  0  0
   -0.0687    0.3077    0.0517 N   0  0  0  0  0  0  0  0  0  0  0  0
    0.6728    1.1460    0.7942 C   0  0  0  0  0  0  0  0  0  0  0  0
    0.7440    2.5706    0.8954 C   0  0  0  0  0  0  0  0  0  0  0  0
    0.4344    3.5518   -0.0711 N   0  0  0  0  0  0  0  0  0  0  0  0
    1.1555    3.0513    2.0135 O   0  0  0  0  0  0  0  0  0  0  0  0
    1.6127    0.3403    1.4930 C   0  0  0  0  0  0  0  0  0  0  0  0
    1.4214   -0.9685    1.1536 C   0  0  0  0  0  0  0  0  0  0  0  0
    2.0841   -2.1036    1.5678 C   0  0  0  0  0  0  0  0  0  0  0  0
    1.7036   -3.3333    1.0764 C   0  0  0  0  0  0  0  0  0  0  0  0
    0.6609   -3.3828    0.1772 C   0  0  0  0  0  0  0  0  0  0  0  0
    0.2301   -4.7102   -0.3706 C   0  0  0  0  0  0  0  0  0  0  0  0
   -0.0515   -4.6088   -1.7281 F   0  0  0  0  0  0  0  0  0  0  0  0
    1.2904   -5.6041   -0.2712 F   0  0  0  0  0  0  0  0  0  0  0  0
   -0.8118   -5.2107    0.3562 F   0  0  0  0  0  0  0  0  0  0  0  0
    0.0045   -2.2154   -0.2261 C   0  0  0  0  0  0  0  0  0  0  0  0
    0.3770   -0.9755    0.2587 C   0  0  0  0  0  0  0  0  0  0  0  0
   -2.7088   -0.3746    2.3022 H   0  0  0  0  0  0  0  0  0  0  0  0
   -1.9565    3.6899    1.4783 H   0  0  0  0  0  0  0  0  0  0  0  0
   -3.7010    3.3633    1.2531 H   0  0  0  0  0  0  0  0  0  0  0  0
   -4.1183    1.0892   -2.1174 H   0  0  0  0  0  0  0  0  0  0  0  0
    0.7590    3.3591   -1.0545 H   0  0  0  0  0  0  0  0  0  0  0  0
   -0.0778    4.4363    0.1929 H   0  0  0  0  0  0  0  0  0  0  0  0
    2.3653    0.6747    2.1832 H   0  0  0  0  0  0  0  0  0  0  0  0
    2.8853   -2.0540    2.2603 H   0  0  0  0  0  0  0  0  0  0  0  0
    2.2288   -4.2053    1.4085 H   0  0  0  0  0  0  0  0  0  0  0  0
   -0.7901   -2.3544   -0.9261 H   0  0  0  0  0  0  0  0  0  0  0  0
  1  2  1  0
  2  3  2  0
  2  4  1  0
  4  5  1  0
  5  6  1  0
  5  7  1  0
  7  8  2  0
  7  9  1  0
  9 10  1  0
 10 11  1  0
 11 12  1  0
 11 13  2  0
 10 14  2  0
 14 15  1  0
 15 16  2  0
 16 17  1  0
 17 18  2  0
 18 19  1  0
 19 20  1  0
 19 21  1  0
 19 22  1  0
 18 23  1  0
 23 24  2  0
 24  9  1  0
 24 15  1  0
  1 25  1  0
  4 26  1  0
  4 27  1  0
  6 28  1  0
 12 29  1  0
 12 30  1  0
 14 31  1  0
 16 32  1  0
 17 33  1  0
 23 34  1  0
M  CHG  1   1  -1
M  END
>  <UniqueID>  (22) 
22

>  <SMILES>  (22) 
[NH-]C(=O)CI(O)C(=O)n1c(C(N)=O)cc2ccc(C(F)(F)F)cc21

>  <Energy>  (22) 
1405988992.5799644

>  <Genealogy>  (22) 
[NH-]C(=O)CI(O)C(=O)n1c(C(N)=O)cc2ccc(C(F)(F)F)cc21 (protonated)
[NH-]C(=O)CI(O)C(=O)n1c(C(N)=O)cc2ccc(C(F)(F)F)cc21 (3D coordinates assigned)
[NH-]C(=O)CI(O)C(=O)n1c(C(N)=O)cc2ccc(C(F)(F)F)cc21 (optimized conformer: 1405988992.5799644 kcal/mol)

>  <smiles>  (22) 
NC(=O)CI(O)C(=O)n1c(C(N)=O)cc2ccc(C(F)(F)F)cc21

>  <m_score__min__energy>  (22) 
nan

>  <m_primary>  (22) 
energy

$$$$
22:0
     RDKit          3D

 40 42  0  0  0  0  0  0  0  0999 V2000
   -2.9720   19.9530  -27.3950 C   0  0  0  0  0  0  0  0  0  0  0  0
   -2.3980   20.9170  -28.3280 N   0  0  0  0  0  0  0  0  0  0  0  0
   -2.9460   22.2320  -28.6040 C   0  0  0  0  0  0  0  0  0  0  0  0
   -1.9820   22.8900  -29.6160 C   0  0  2  0  0  0  0  0  0  0  0  0
   -2.7130   23.3820  -30.7380 O   0  0  0  0  0  0  0  0  0  0  0  0
   -3.4940   22.5680  -31.5650 C   0  0  0  0  0  0  0  0  0  0  0  0
   -2.9480   21.8400  -32.4400 O   0  0  0  0  0  0  0  0  0  0  0  0
   -4.9220   22.5550  -31.4090 N   0  0  0  0  0  0  0  0  0  0  0  0
   -5.7110   23.5420  -30.8970 C   0  0  0  0  0  0  0  0  0  0  0  0
   -5.2360   24.7770  -30.2440 C   0  0  0  0  0  0  0  0  0  0  0  0
   -5.7490   25.1900  -28.9770 N   0  0  0  0  0  0  0  0  0  0  0  0
   -4.4030   25.5110  -30.8410 O   0  0  0  0  0  0  0  0  0  0  0  0
   -7.0570   23.2110  -31.0270 C   0  0  0  0  0  0  0  0  0  0  0  0
   -7.0710   21.9740  -31.6280 C   0  0  0  0  0  0  0  0  0  0  0  0
   -8.1450   21.1820  -32.0200 C   0  0  0  0  0  0  0  0  0  0  0  0
   -7.8680   19.9660  -32.6650 C   0  0  0  0  0  0  0  0  0  0  0  0
   -6.5310   19.5590  -32.9030 C   0  0  0  0  0  0  0  0  0  0  0  0
   -6.2480   18.2840  -33.6570 C   0  0  0  0  0  0  0  0  0  0  0  0
   -5.0700   17.7070  -33.2140 F   0  0  0  0  0  0  0  0  0  0  0  0
   -7.2720   17.3710  -33.4730 F   0  0  0  0  0  0  0  0  0  0  0  0
   -6.1330   18.5680  -35.0050 F   0  0  0  0  0  0  0  0  0  0  0  0
   -5.4660   20.4050  -32.5150 C   0  0  0  0  0  0  0  0  0  0  0  0
   -5.7700   21.6000  -31.8510 C   0  0  0  0  0  0  0  0  0  0  0  0
   -0.9680   21.8080  -30.0450 C   0  0  0  0  0  0  0  0  0  0  0  0
   -1.2780   20.6760  -29.1530 C   0  0  0  0  0  0  0  0  0  0  0  0
   -0.6280   19.5980  -29.1330 O   0  0  0  0  0  0  0  0  0  0  0  0
   -2.7770   20.2805  -26.3632 H   0  0  0  0  0  0  0  0  0  0  0  0
   -4.0576   19.8854  -27.5593 H   0  0  0  0  0  0  0  0  0  0  0  0
   -2.5142   18.9664  -27.5593 H   0  0  0  0  0  0  0  0  0  0  0  0
   -3.9532   22.1433  -29.0373 H   0  0  0  0  0  0  0  0  0  0  0  0
   -3.0380   22.8314  -27.6862 H   0  0  0  0  0  0  0  0  0  0  0  0
   -1.4569   23.7464  -29.1678 H   0  0  0  0  0  0  0  0  0  0  0  0
   -6.5600   24.7010  -28.5380 H   0  0  0  0  0  0  0  0  0  0  0  0
   -5.3720   26.0450  -28.5120 H   0  0  0  0  0  0  0  0  0  0  0  0
   -7.9246   23.8111  -30.7154 H   0  0  0  0  0  0  0  0  0  0  0  0
   -9.1811   21.4990  -31.8303 H   0  0  0  0  0  0  0  0  0  0  0  0
   -8.6982   19.3215  -32.9895 H   0  0  0  0  0  0  0  0  0  0  0  0
   -4.4227   20.1306  -32.7299 H   0  0  0  0  0  0  0  0  0  0  0  0
   -1.1123   21.5293  -31.0993 H   0  0  0  0  0  0  0  0  0  0  0  0
    0.0767   22.1432  -29.9661 H   0  0  0  0  0  0  0  0  0  0  0  0
  1  2  1  0
  2  3  1  0
  3  4  1  0
  4  5  1  0
  5  6  1  0
  6  7  2  0
  6  8  1  0
  8  9  1  0
  9 10  1  0
 10 11  1  0
 10 12  2  0
  9 13  2  0
 13 14  1  0
 14 15  2  0
 15 16  1  0
 16 17  2  0
 17 18  1  0
 18 19  1  0
 18 20  1  0
 18 21  1  0
 17 22  1  0
 22 23  2  0
  4 24  1  0
 24 25  1  0
 25 26  2  0
 25  2  1  0
 23  8  1  0
 23 14  1  0
  1 27  1  0
  1 28  1  0
  1 29  1  0
  3 30  1  0
  3 31  1  0
  4 32  1  1
 11 33  1  0
 11 34  1  0
 13 35  1  0
 15 36  1  0
 16 37  1  0
 22 38  1  0
 24 39  1  0
 24 40  1  0
M  END
>  <UniqueID>  (23) 
23

>  <SMILES>  (23) 
CN1C[C@H](OC(=O)n2c(C(N)=O)cc3ccc(C(F)(F)F)cc32)CC1=O

>  <Energy>  (23) 
84.20440089809092

>  <Genealogy>  (23) 
CN1C[C@H](OC(=O)n2c(C(N)=O)cc3ccc(C(F)(F)F)cc32)CC1=O (chirality)
CN1C[C@H](OC(=O)n2c(C(N)=O)cc3ccc(C(F)(F)F)cc32)CC1=O (3D coordinates assigned)
CN1C[C@H](OC(=O)n2c(C(N)=O)cc3ccc(C(F)(F)F)cc32)CC1=O (nonaromatic ring conformer: 84.20440089809092 kcal/mol)

>  <smiles>  (23) 
CN1CC(OC(=O)n2c(C(N)=O)cc3ccc(C(F)(F)F)cc32)CC1=O

>  <score_type>  (23) 
oracle

>  <origin>  (23) 
adg

>  <m_score__min__energy>  (23) 
-8.8900000000000006

>  <m_primary>  (23) 
energy

$$$$
23:0
     RDKit          3D

 35 37  0  0  0  0  0  0  0  0999 V2000
   -6.1830   20.3670  -31.7160 C   0  0  0  0  0  0  0  0  0  0  0  0
   -5.5050   19.6330  -32.8440 C   0  0  0  0  0  0  0  0  0  0  0  0
   -6.2870   18.9380  -33.7770 C   0  0  0  0  0  0  0  0  0  0  0  0
   -5.6710   18.2540  -34.8200 C   0  0  0  0  0  0  0  0  0  0  0  0
   -4.3210   18.2650  -34.9380 N   0  0  0  0  0  0  0  0  0  0  0  0
   -3.5120   18.9300  -34.0690 C   0  0  0  0  0  0  0  0  0  0  0  0
   -2.0520   18.8750  -34.3270 C   0  0  0  0  0  0  0  0  0  0  0  0
   -1.4160   17.7890  -34.3180 O   0  0  0  0  0  0  0  0  0  0  0  0
   -1.3580   20.0560  -34.5660 O   0  0  0  0  0  0  0  0  0  0  0  0
   -4.0970   19.6370  -32.9830 C   0  0  0  0  0  0  0  0  0  0  0  0
   -3.2690   20.3540  -31.9900 C   0  0  0  0  0  0  0  0  0  0  0  0
   -2.1180   19.7320  -31.4490 C   0  0  0  0  0  0  0  0  0  0  0  0
   -1.3370   20.3930  -30.4880 C   0  0  0  0  0  0  0  0  0  0  0  0
   -1.7280   21.6710  -30.0960 C   0  0  0  0  0  0  0  0  0  0  0  0
   -1.1720   22.5200  -29.1680 C   0  0  0  0  0  0  0  0  0  0  0  0
   -1.9790   23.6550  -29.1740 C   0  0  0  0  0  0  0  0  0  0  0  0
   -1.6870   24.8620  -28.3740 C   0  0  0  0  0  0  0  0  0  0  0  0
   -1.2390   26.0650  -28.9950 N   0  0  0  0  0  0  0  0  0  0  0  0
   -1.7860   24.8180  -27.1190 O   0  0  0  0  0  0  0  0  0  0  0  0
   -3.0030   23.5110  -30.0650 N   0  0  0  0  0  0  0  0  0  0  0  0
   -4.0960   24.4110  -30.3080 C   0  0  0  0  0  0  0  0  0  0  0  0
   -5.2790   24.0540  -30.0670 O   0  0  0  0  0  0  0  0  0  0  0  0
   -3.8600   25.6740  -30.8350 O   0  0  0  0  0  0  0  0  0  0  0  0
   -2.8320   22.2920  -30.6240 C   0  0  0  0  0  0  0  0  0  0  0  0
   -3.6390   21.6490  -31.5690 C   0  0  0  0  0  0  0  0  0  0  0  0
   -5.8212   19.9753  -30.7539 H   0  0  0  0  0  0  0  0  0  0  0  0
   -5.9516   21.4401  -31.7854 H   0  0  0  0  0  0  0  0  0  0  0  0
   -7.2711   20.2213  -31.7854 H   0  0  0  0  0  0  0  0  0  0  0  0
   -7.3831   18.9335  -33.6848 H   0  0  0  0  0  0  0  0  0  0  0  0
   -6.2812   17.7029  -35.5507 H   0  0  0  0  0  0  0  0  0  0  0  0
   -1.8337   18.7236  -31.7841 H   0  0  0  0  0  0  0  0  0  0  0  0
   -0.4438   19.9164  -30.0578 H   0  0  0  0  0  0  0  0  0  0  0  0
   -0.2789   22.3406  -28.5514 H   0  0  0  0  0  0  0  0  0  0  0  0
   -1.1290   26.1250  -30.0320 H   0  0  0  0  0  0  0  0  0  0  0  0
   -4.5371   22.1395  -31.9726 H   0  0  0  0  0  0  0  0  0  0  0  0
  1  2  1  0
  2  3  2  0
  3  4  1  0
  4  5  2  0
  5  6  1  0
  6  7  1  0
  7  8  2  0
  7  9  1  0
  6 10  2  0
 10 11  1  0
 11 12  2  0
 12 13  1  0
 13 14  2  0
 14 15  1  0
 15 16  2  0
 16 17  1  0
 17 18  1  0
 17 19  2  0
 16 20  1  0
 20 21  1  0
 21 22  2  0
 21 23  1  0
 20 24  1  0
 24 25  2  0
 10  2  1  0
 25 11  1  0
 24 14  1  0
  1 26  1  0
  1 27  1  0
  1 28  1  0
  3 29  1  0
  4 30  1  0
 12 31  1  0
 13 32  1  0
 15 33  1  0
 18 34  1  0
 25 35  1  0
M  CHG  3   9  -1  18  -1  23  -1
M  END
>  <UniqueID>  (24) 
24

>  <SMILES>  (24) 
Cc1ccnc(C(=O)[O-])c1-c1ccc2cc(C([NH-])=O)n(C(=O)[O-])c2c1

>  <Energy>  (24) 
89.19325251783472

>  <Genealogy>  (24) 
Cc1ccnc(C(=O)[O-])c1-c1ccc2cc(C([NH-])=O)n(C(=O)[O-])c2c1 (protonated)
Cc1ccnc(C(=O)[O-])c1-c1ccc2cc(C([NH-])=O)n(C(=O)[O-])c2c1 (3D coordinates assigned)
Cc1ccnc(C(=O)[O-])c1-c1ccc2cc(C([NH-])=O)n(C(=O)[O-])c2c1 (optimized conformer: 89.19325251783472 kcal/mol)

>  <smiles>  (24) 
Cc1ccnc(C(=O)O)c1-c1ccc2cc(C(N)=O)n(C(=O)O)c2c1

>  <score_type>  (24) 
oracle

>  <origin>  (24) 
adg

>  <m_score__min__energy>  (24) 
-11.140000000000001

>  <m_primary>  (24) 
energy

$$$$
24:0
     RDKit          3D

 39 40  0  0  0  0  0  0  0  0999 V2000
   -6.7740   17.5490  -31.8730 C   0  0  0  0  0  0  0  0  0  0  0  0
   -6.9490   18.5440  -33.0270 C   0  0  2  0  0  0  0  0  0  0  0  0
   -5.8210   18.4420  -34.0200 C   0  0  0  0  0  0  0  0  0  0  0  0
   -6.0540   18.5780  -35.2490 O   0  0  0  0  0  0  0  0  0  0  0  0
   -4.5110   18.2540  -33.5910 O   0  0  0  0  0  0  0  0  0  0  0  0
   -7.0790   19.9620  -32.5130 C   0  0  0  0  0  0  0  0  0  0  0  0
   -8.3650   20.5370  -32.3410 C   0  0  0  0  0  0  0  0  0  0  0  0
   -8.5080   21.8490  -31.8540 C   0  0  0  0  0  0  0  0  0  0  0  0
   -7.3540   22.5630  -31.5530 C   0  0  0  0  0  0  0  0  0  0  0  0
   -7.2010   23.8340  -31.0460 C   0  0  0  0  0  0  0  0  0  0  0  0
   -5.8240   24.0230  -30.9280 C   0  0  0  0  0  0  0  0  0  0  0  0
   -5.2050   25.2790  -30.4510 C   0  0  0  0  0  0  0  0  0  0  0  0
   -3.8850   25.6430  -30.8480 N   0  0  0  0  0  0  0  0  0  0  0  0
   -5.8590   26.0510  -29.7010 O   0  0  0  0  0  0  0  0  0  0  0  0
   -5.1550   22.9140  -31.3500 N   0  0  0  0  0  0  0  0  0  0  0  0
   -3.7390   22.6800  -31.3260 C   0  0  0  0  0  0  0  0  0  0  0  0
   -3.0690   23.1140  -30.3520 O   0  0  0  0  0  0  0  0  0  0  0  0
   -3.0930   21.9240  -32.4270 C   0  0  0  0  0  0  0  0  0  0  0  0
   -3.6000   22.0110  -33.5790 O   0  0  0  0  0  0  0  0  0  0  0  0
   -1.9210   21.0960  -32.2390 N   0  0  0  0  0  0  0  0  0  0  0  0
   -1.5750   20.1250  -33.2830 C   0  0  0  0  0  0  0  0  0  0  0  0
   -1.0360   21.2560  -31.0800 C   0  0  0  0  0  0  0  0  0  0  0  0
   -6.1040   22.0280  -31.7230 C   0  0  0  0  0  0  0  0  0  0  0  0
   -5.9290   20.7220  -32.1860 C   0  0  0  0  0  0  0  0  0  0  0  0
   -6.8673   18.0797  -30.9140 H   0  0  0  0  0  0  0  0  0  0  0  0
   -7.5491   16.7713  -31.9387 H   0  0  0  0  0  0  0  0  0  0  0  0
   -5.7800   17.0824  -31.9387 H   0  0  0  0  0  0  0  0  0  0  0  0
   -7.8819   18.2796  -33.5464 H   0  0  0  0  0  0  0  0  0  0  0  0
   -9.2607   19.9497  -32.5915 H   0  0  0  0  0  0  0  0  0  0  0  0
   -9.5033   22.2965  -31.7155 H   0  0  0  0  0  0  0  0  0  0  0  0
   -7.9963   24.5490  -30.7885 H   0  0  0  0  0  0  0  0  0  0  0  0
   -3.0510   25.2800  -30.3360 H   0  0  0  0  0  0  0  0  0  0  0  0
   -1.2408   19.1872  -32.8153 H   0  0  0  0  0  0  0  0  0  0  0  0
   -2.4584   19.9284  -33.9082 H   0  0  0  0  0  0  0  0  0  0  0  0
   -0.7663   20.5314  -33.9082 H   0  0  0  0  0  0  0  0  0  0  0  0
   -1.6211   21.1502  -30.1545 H   0  0  0  0  0  0  0  0  0  0  0  0
   -0.2519   20.4851  -31.1082 H   0  0  0  0  0  0  0  0  0  0  0  0
   -0.5714   22.2527  -31.1082 H   0  0  0  0  0  0  0  0  0  0  0  0
   -4.9217   20.2935  -32.2942 H   0  0  0  0  0  0  0  0  0  0  0  0
  1  2  1  0
  2  3  1  0
  3  4  2  0
  3  5  1  0
  2  6  1  0
  6  7  2  0
  7  8  1  0
  8  9  2  0
  9 10  1  0
 10 11  2  0
 11 12  1  0
 12 13  1  0
 12 14  2  0
 11 15  1  0
 15 16  1  0
 16 17  2  0
 16 18  1  0
 18 19  2  0
 18 20  1  0
 20 21  1  0
 20 22  1  0
 15 23  1  0
 23 24  2  0
 24  6  1  0
 23  9  1  0
  1 25  1  0
  1 26  1  0
  1 27  1  0
  2 28  1  6
  7 29  1  0
  8 30  1  0
 10 31  1  0
 13 32  1  0
 21 33  1  0
 21 34  1  0
 21 35  1  0
 22 36  1  0
 22 37  1  0
 22 38  1  0
 24 39  1  0
M  CHG  2   5  -1  13  -1
M  END
>  <UniqueID>  (25) 
25

>  <SMILES>  (25) 
C[C@H](C(=O)[O-])c1ccc2cc(C([NH-])=O)n(C(=O)C(=O)N(C)C)c2c1

>  <Energy>  (25) 
77.41888190516542

>  <Genealogy>  (25) 
C[C@H](C(=O)[O-])c1ccc2cc(C([NH-])=O)n(C(=O)C(=O)N(C)C)c2c1 (protonated)
C[C@H](C(=O)[O-])c1ccc2cc(C([NH-])=O)n(C(=O)C(=O)N(C)C)c2c1 (3D coordinates assigned)
C[C@H](C(=O)[O-])c1ccc2cc(C([NH-])=O)n(C(=O)C(=O)N(C)C)c2c1 (optimized conformer: 77.41888190516542 kcal/mol)

>  <smiles>  (25) 
C[C@H](C(=O)O)c1ccc2cc(C(N)=O)n(C(=O)C(=O)N(C)C)c2c1

>  <score_type>  (25) 
oracle

>  <origin>  (25) 
adg

>  <m_score__min__energy>  (25) 
-10.720000000000001

>  <m_primary>  (25) 
energy

$$$$
25:0
     RDKit          3D

 44 46  0  0  0  0  0  0  0  0999 V2000
   -9.8590   18.5300  -30.8329 H   0  0  0  0  0  0  0  0  0  0  0  0
   -9.0060   18.5550  -31.5270 C   0  0  0  0  0  0  0  0  0  0  0  0
   -8.4120   17.6457  -31.7014 H   0  0  0  0  0  0  0  0  0  0  0  0
   -8.6930   19.6840  -32.1550 C   0  0  0  0  0  0  0  0  0  0  0  0
   -9.2934   20.5877  -31.9735 H   0  0  0  0  0  0  0  0  0  0  0  0
   -7.5570   19.7460  -33.0890 C   0  0  0  0  0  0  0  0  0  0  0  0
   -7.3888   20.6594  -33.6784 H   0  0  0  0  0  0  0  0  0  0  0  0
   -6.7270   18.7080  -33.2310 C   0  0  0  0  0  0  0  0  0  0  0  0
   -6.9060   17.8034  -32.6312 H   0  0  0  0  0  0  0  0  0  0  0  0
   -5.5810   18.7260  -34.1590 C   0  0  0  0  0  0  0  0  0  0  0  0
   -5.7740   18.4310  -35.3680 O   0  0  0  0  0  0  0  0  0  0  0  0
   -4.2560   19.0770  -33.7240 N   0  0  0  0  0  0  0  0  0  0  0  0
   -3.0880   18.4150  -33.9620 C   0  0  0  0  0  0  0  0  0  0  0  0
   -2.9270   17.2250  -34.8240 C   0  0  0  0  0  0  0  0  0  0  0  0
   -1.8280   17.0330  -35.4110 O   0  0  0  0  0  0  0  0  0  0  0  0
   -4.0020   16.3110  -35.0410 N   0  0  0  0  0  0  0  0  0  0  0  0
   -4.9730   16.5340  -34.7360 H   0  0  0  0  0  0  0  0  0  0  0  0
   -3.8450   15.4430  -35.6020 H   0  0  0  0  0  0  0  0  0  0  0  0
   -2.0350   19.0250  -33.2860 C   0  0  0  0  0  0  0  0  0  0  0  0
   -0.9804   18.7125  -33.2721 H   0  0  0  0  0  0  0  0  0  0  0  0
   -2.5960   20.1040  -32.6380 C   0  0  0  0  0  0  0  0  0  0  0  0
   -2.0110   21.0560  -31.8130 C   0  0  0  0  0  0  0  0  0  0  0  0
   -0.9317   21.0360  -31.6014 H   0  0  0  0  0  0  0  0  0  0  0  0
   -2.8390   22.0450  -31.2570 C   0  0  0  0  0  0  0  0  0  0  0  0
   -2.4000   22.8125  -30.6026 H   0  0  0  0  0  0  0  0  0  0  0  0
   -4.2370   22.0710  -31.5260 C   0  0  0  0  0  0  0  0  0  0  0  0
   -5.0870   23.0920  -30.9440 N   0  0  0  0  0  0  0  0  0  0  0  0
   -6.4270   23.3970  -31.4310 C   0  0  0  0  0  0  0  0  0  0  0  0
   -6.3888   23.7006  -32.4876 H   0  0  0  0  0  0  0  0  0  0  0  0
   -7.0868   22.5193  -31.3651 H   0  0  0  0  0  0  0  0  0  0  0  0
   -6.9410   24.5430  -30.5710 C   0  0  0  0  0  0  0  0  0  0  0  0
   -6.8687   25.4952  -31.1169 H   0  0  0  0  0  0  0  0  0  0  0  0
   -7.9986   24.4067  -30.3009 H   0  0  0  0  0  0  0  0  0  0  0  0
   -6.0430   24.5660  -29.3400 C   0  0  0  0  0  0  0  0  0  0  0  0
   -5.8491   25.6021  -29.0255 H   0  0  0  0  0  0  0  0  0  0  0  0
   -6.5095   24.0527  -28.4862 H   0  0  0  0  0  0  0  0  0  0  0  0
   -4.7430   23.8860  -29.7670 C   0  0  2  0  0  0  0  0  0  0  0  0
   -4.3275   23.2660  -28.9590 H   0  0  0  0  0  0  0  0  0  0  0  0
   -3.6940   24.9070  -30.1130 C   0  0  0  0  0  0  0  0  0  0  0  0
   -3.8590   25.6690  -31.1020 O   0  0  0  0  0  0  0  0  0  0  0  0
   -2.5180   24.9850  -29.3760 O   0  0  0  0  0  0  0  0  0  0  0  0
   -4.7870   21.0760  -32.3730 C   0  0  0  0  0  0  0  0  0  0  0  0
   -5.8643   21.0621  -32.5948 H   0  0  0  0  0  0  0  0  0  0  0  0
   -3.9350   20.1130  -32.9210 C   0  0  0  0  0  0  0  0  0  0  0  0
  1  2  1  0
  2  3  1  0
  2  4  2  0
  4  5  1  0
  4  6  1  0
  6  7  1  0
  6  8  2  0
  8  9  1  0
  8 10  1  0
 10 11  2  0
 10 12  1  0
 12 13  1  0
 13 14  1  0
 14 15  2  0
 14 16  1  0
 16 17  1  0
 16 18  1  0
 13 19  2  0
 19 20  1  0
 19 21  1  0
 21 22  2  0
 22 23  1  0
 22 24  1  0
 24 25  1  0
 24 26  2  0
 26 27  1  0
 27 28  1  0
 28 29  1  0
 28 30  1  0
 28 31  1  0
 31 32  1  0
 31 33  1  0
 31 34  1  0
 34 35  1  0
 34 36  1  0
 34 37  1  0
 37 38  1  1
 37 39  1  0
 39 40  2  0
 39 41  1  0
 26 42  1  0
 42 43  1  0
 42 44  2  0
 44 12  1  0
 44 21  1  0
 37 27  1  0
M  CHG  1  41  -1
M  END
>  <UniqueID>  (26) 
26

>  <SMILES>  (26) 
C=C/C=C/C(=O)n1c(C(N)=O)cc2ccc(N3CCC[C@@H]3C(=O)[O-])cc21

>  <Energy>  (26) 
84.10176953985703

>  <Genealogy>  (26) 
C=C/C=C/C(=O)n1c(C(N)=O)cc2ccc(N3CCCC3C(=O)[O-])cc21 (protonated)
C=C/C=C/C(=O)n1c(C(N)=O)cc2ccc(N3CCC[C@@H]3C(=O)[O-])cc21 (chirality)
C=C/C=C/C(=O)n1c(C(N)=O)cc2ccc(N3CCC[C@@H]3C(=O)[O-])cc21 (cis-trans isomerization)
C=C/C=C/C(=O)n1c(C(N)=O)cc2ccc(N3CCC[C@@H]3C(=O)[O-])cc21 (3D coordinates assigned)
C=C/C=C/C(=O)n1c(C(N)=O)cc2ccc(N3CCC[C@@H]3C(=O)[O-])cc21 (nonaromatic ring conformer: 84.10176953985703 kcal/mol)

>  <smiles>  (26) 
C=C/C=C/C(=O)n1c(C(N)=O)cc2ccc(N3CCCC3C(=O)O)cc21

>  <score_type>  (26) 
oracle

>  <origin>  (26) 
adg

>  <m_score__min__energy>  (26) 
-10.949999999999999

>  <m_primary>  (26) 
energy

$$$$
26:0
     RDKit          3D

 44 45  0  0  0  0  0  0  0  0999 V2000
   -0.8490   26.5480  -28.1170 C   0  0  0  0  0  0  0  0  0  0  0  0
   -1.2320   25.6890  -29.2270 N   0  0  0  0  0  0  0  0  0  0  0  0
   -0.9520   24.2860  -29.2510 C   0  0  0  0  0  0  0  0  0  0  0  0
    0.2400   23.8760  -29.2410 O   0  0  0  0  0  0  0  0  0  0  0  0
   -2.0840   23.2950  -29.2670 C   0  0  2  0  0  0  0  0  0  0  0  0
   -2.8310   23.4970  -30.4720 O   0  0  0  0  0  0  0  0  0  0  0  0
   -3.6600   22.5270  -31.0530 C   0  0  0  0  0  0  0  0  0  0  0  0
   -3.1650   21.4790  -31.5490 O   0  0  0  0  0  0  0  0  0  0  0  0
   -5.0790   22.7490  -31.1240 N   0  0  0  0  0  0  0  0  0  0  0  0
   -5.7530   23.9160  -30.9210 C   0  0  0  0  0  0  0  0  0  0  0  0
   -5.1760   25.1700  -30.4020 C   0  0  0  0  0  0  0  0  0  0  0  0
   -3.8960   25.6040  -30.8540 N   0  0  0  0  0  0  0  0  0  0  0  0
   -5.8220   25.8870  -29.5940 O   0  0  0  0  0  0  0  0  0  0  0  0
   -7.1090   23.7530  -31.1930 C   0  0  0  0  0  0  0  0  0  0  0  0
   -7.2500   22.4370  -31.5680 C   0  0  0  0  0  0  0  0  0  0  0  0
   -8.3840   21.7400  -31.9730 C   0  0  0  0  0  0  0  0  0  0  0  0
   -8.2320   20.3940  -32.3460 C   0  0  0  0  0  0  0  0  0  0  0  0
   -6.9600   19.7670  -32.3000 C   0  0  0  0  0  0  0  0  0  0  0  0
   -6.7990   18.3420  -32.7630 C   0  0  0  0  0  0  0  0  0  0  0  0
   -7.9760   17.6360  -32.5880 F   0  0  0  0  0  0  0  0  0  0  0  0
   -5.8020   17.7050  -32.0460 F   0  0  0  0  0  0  0  0  0  0  0  0
   -6.4650   18.3350  -34.1050 F   0  0  0  0  0  0  0  0  0  0  0  0
   -5.8280   20.5190  -31.9060 C   0  0  0  0  0  0  0  0  0  0  0  0
   -6.0120   21.8520  -31.5190 C   0  0  0  0  0  0  0  0  0  0  0  0
   -2.9890   23.4340  -28.0000 C   0  0  0  0  0  0  0  0  0  0  0  0
   -2.1140   23.6100  -26.7440 C   0  0  0  0  0  0  0  0  0  0  0  0
   -3.8590   22.1760  -27.8030 C   0  0  0  0  0  0  0  0  0  0  0  0
   -3.8200   24.5670  -28.1030 O   0  0  0  0  0  0  0  0  0  0  0  0
   -1.0747   26.0418  -27.1668 H   0  0  0  0  0  0  0  0  0  0  0  0
    0.2289   26.7601  -28.1725 H   0  0  0  0  0  0  0  0  0  0  0  0
   -1.4117   27.4916  -28.1725 H   0  0  0  0  0  0  0  0  0  0  0  0
   -1.6828   22.2710  -29.2436 H   0  0  0  0  0  0  0  0  0  0  0  0
   -3.0230   25.2910  -30.3730 H   0  0  0  0  0  0  0  0  0  0  0  0
   -7.8995   24.5148  -31.1229 H   0  0  0  0  0  0  0  0  0  0  0  0
   -9.3695   22.2279  -32.0003 H   0  0  0  0  0  0  0  0  0  0  0  0
   -9.1095   19.8195  -32.6776 H   0  0  0  0  0  0  0  0  0  0  0  0
   -4.8255   20.0663  -31.9038 H   0  0  0  0  0  0  0  0  0  0  0  0
   -2.7346   23.4852  -25.8444 H   0  0  0  0  0  0  0  0  0  0  0  0
   -1.3143   22.8547  -26.7455 H   0  0  0  0  0  0  0  0  0  0  0  0
   -1.6685   24.6157  -26.7455 H   0  0  0  0  0  0  0  0  0  0  0  0
   -3.9905   21.9859  -26.7276 H   0  0  0  0  0  0  0  0  0  0  0  0
   -4.8422   22.3333  -28.2705 H   0  0  0  0  0  0  0  0  0  0  0  0
   -3.3648   21.3115  -28.2705 H   0  0  0  0  0  0  0  0  0  0  0  0
   -3.5420   25.0800  -28.9060 H   0  0  0  0  0  0  0  0  0  0  0  0
  1  2  1  0
  2  3  1  0
  3  4  2  0
  3  5  1  0
  5  6  1  0
  6  7  1  0
  7  8  2  0
  7  9  1  0
  9 10  1  0
 10 11  1  0
 11 12  1  0
 11 13  2  0
 10 14  2  0
 14 15  1  0
 15 16  2  0
 16 17  1  0
 17 18  2  0
 18 19  1  0
 19 20  1  0
 19 21  1  0
 19 22  1  0
 18 23  1  0
 23 24  2  0
  5 25  1  0
 25 26  1  0
 25 27  1  0
 25 28  1  0
 24  9  1  0
 24 15  1  0
  1 29  1  0
  1 30  1  0
  1 31  1  0
  5 32  1  6
 12 33  1  0
 14 34  1  0
 16 35  1  0
 17 36  1  0
 23 37  1  0
 26 38  1  0
 26 39  1  0
 26 40  1  0
 27 41  1  0
 27 42  1  0
 27 43  1  0
 28 44  1  0
M  CHG  2   2  -1  12  -1
M  END
>  <UniqueID>  (27) 
27

>  <SMILES>  (27) 
C[N-]C(=O)[C@H](OC(=O)n1c(C([NH-])=O)cc2ccc(C(F)(F)F)cc21)C(C)(C)O

>  <Energy>  (27) 
78.46410587258784

>  <Genealogy>  (27) 
C[N-]C(=O)C(OC(=O)n1c(C([NH-])=O)cc2ccc(C(F)(F)F)cc21)C(C)(C)O (protonated)
C[N-]C(=O)[C@H](OC(=O)n1c(C([NH-])=O)cc2ccc(C(F)(F)F)cc21)C(C)(C)O (chirality)
C[N-]C(=O)[C@H](OC(=O)n1c(C([NH-])=O)cc2ccc(C(F)(F)F)cc21)C(C)(C)O (3D coordinates assigned)
C[N-]C(=O)[C@H](OC(=O)n1c(C([NH-])=O)cc2ccc(C(F)(F)F)cc21)C(C)(C)O (optimized conformer: 78.46410587258784 kcal/mol)

>  <smiles>  (27) 
CNC(=O)C(OC(=O)n1c(C(N)=O)cc2ccc(C(F)(F)F)cc21)C(C)(C)O

>  <score_type>  (27) 
oracle

>  <origin>  (27) 
adg

>  <m_score__min__energy>  (27) 
-12

>  <m_primary>  (27) 
energy

$$$$
27:0
     RDKit          3D

 45 46  0  0  0  0  0  0  0  0999 V2000
   -7.5430   18.3250  -32.5790 C   0  0  0  0  0  0  0  0  0  0  0  0
   -7.6250   19.7670  -32.1780 C   0  0  0  0  0  0  0  0  0  0  0  0
   -8.8470   20.4720  -32.3090 C   0  0  0  0  0  0  0  0  0  0  0  0
   -8.9240   21.8370  -31.9840 C   0  0  0  0  0  0  0  0  0  0  0  0
   -7.7660   22.4680  -31.5370 C   0  0  0  0  0  0  0  0  0  0  0  0
   -7.5530   23.7830  -31.1920 C   0  0  0  0  0  0  0  0  0  0  0  0
   -6.2060   23.8590  -30.8470 C   0  0  0  0  0  0  0  0  0  0  0  0
   -5.5680   25.0880  -30.3330 C   0  0  0  0  0  0  0  0  0  0  0  0
   -4.2710   25.4800  -30.7780 N   0  0  0  0  0  0  0  0  0  0  0  0
   -6.1520   25.7740  -29.4530 O   0  0  0  0  0  0  0  0  0  0  0  0
   -5.6070   22.6410  -30.9800 N   0  0  0  0  0  0  0  0  0  0  0  0
   -4.2120   22.3330  -30.8310 C   0  0  0  0  0  0  0  0  0  0  0  0
   -3.5260   22.0290  -31.8450 O   0  0  0  0  0  0  0  0  0  0  0  0
   -3.6250   22.3980  -29.5610 O   0  0  0  0  0  0  0  0  0  0  0  0
   -2.9500   23.5080  -29.0370 C   0  0  0  0  0  0  0  0  0  0  0  0
   -2.0490   24.0930  -29.6990 O   0  0  0  0  0  0  0  0  0  0  0  0
   -3.3200   24.0250  -27.6640 C   0  0  2  0  0  0  0  0  0  0  0  0
   -4.4850   24.9200  -27.7710 N   0  0  0  0  0  0  0  0  0  0  0  0
   -2.0960   24.6800  -26.9180 C   0  0  0  0  0  0  0  0  0  0  0  0
   -2.5910   25.3660  -25.6220 C   0  0  0  0  0  0  0  0  0  0  0  0
   -1.4460   25.7680  -27.8020 C   0  0  0  0  0  0  0  0  0  0  0  0
   -1.0110   23.6450  -26.5360 C   0  0  0  0  0  0  0  0  0  0  0  0
   -6.5770   21.7990  -31.4010 C   0  0  0  0  0  0  0  0  0  0  0  0
   -6.4660   20.4440  -31.7370 C   0  0  0  0  0  0  0  0  0  0  0  0
   -7.5072   17.6953  -31.6778 H   0  0  0  0  0  0  0  0  0  0  0  0
   -8.4275   18.0598  -33.1767 H   0  0  0  0  0  0  0  0  0  0  0  0
   -6.6341   18.1618  -33.1767 H   0  0  0  0  0  0  0  0  0  0  0  0
   -9.7437   19.9460  -32.6684 H   0  0  0  0  0  0  0  0  0  0  0  0
   -9.8700   22.3900  -32.0798 H   0  0  0  0  0  0  0  0  0  0  0  0
   -8.2896   24.5999  -31.1893 H   0  0  0  0  0  0  0  0  0  0  0  0
   -3.5040   25.6700  -30.0960 H   0  0  0  0  0  0  0  0  0  0  0  0
   -3.6079   23.1730  -27.0305 H   0  0  0  0  0  0  0  0  0  0  0  0
   -5.3610   24.3700  -27.9180 H   0  0  0  0  0  0  0  0  0  0  0  0
   -4.5850   25.5250  -26.9270 H   0  0  0  0  0  0  0  0  0  0  0  0
   -4.3740   25.5390  -28.6080 H   0  0  0  0  0  0  0  0  0  0  0  0
   -2.2001   24.8243  -24.7481 H   0  0  0  0  0  0  0  0  0  0  0  0
   -2.2340   26.4062  -25.5984 H   0  0  0  0  0  0  0  0  0  0  0  0
   -3.6907   25.3551  -25.5984 H   0  0  0  0  0  0  0  0  0  0  0  0
   -0.9875   26.5355  -27.1611 H   0  0  0  0  0  0  0  0  0  0  0  0
   -0.6729   25.3109  -28.4371 H   0  0  0  0  0  0  0  0  0  0  0  0
   -2.2149   26.2321  -28.4371 H   0  0  0  0  0  0  0  0  0  0  0  0
   -0.9392   23.5765  -25.4405 H   0  0  0  0  0  0  0  0  0  0  0  0
   -1.2812   22.6615  -26.9480 H   0  0  0  0  0  0  0  0  0  0  0  0
   -0.0413   23.9613  -26.9480 H   0  0  0  0  0  0  0  0  0  0  0  0
   -5.5017   19.9205  -31.6596 H   0  0  0  0  0  0  0  0  0  0  0  0
  1  2  1  0
  2  3  2  0
  3  4  1  0
  4  5  2  0
  5  6  1  0
  6  7  2  0
  7  8  1  0
  8  9  1  0
  8 10  2  0
  7 11  1  0
 11 12  1  0
 12 13  2  0
 12 14  1  0
 14 15  1  0
 15 16  2  0
 15 17  1  0
 17 18  1  0
 17 19  1  0
 19 20  1  0
 19 21  1  0
 19 22  1  0
 11 23  1  0
 23 24  2  0
 24  2  1  0
 23  5  1  0
  1 25  1  0
  1 26  1  0
  1 27  1  0
  3 28  1  0
  4 29  1  0
  6 30  1  0
  9 31  1  0
 17 32  1  1
 18 33  1  0
 18 34  1  0
 18 35  1  0
 20 36  1  0
 20 37  1  0
 20 38  1  0
 21 39  1  0
 21 40  1  0
 21 41  1  0
 22 42  1  0
 22 43  1  0
 22 44  1  0
 24 45  1  0
M  CHG  2   9  -1  18   1
M  END
>  <UniqueID>  (28) 
28

>  <SMILES>  (28) 
Cc1ccc2cc(C([NH-])=O)n(C(=O)OC(=O)[C@H]([NH3+])C(C)(C)C)c2c1

>  <Energy>  (28) 
81.95427977278855

>  <Genealogy>  (28) 
Cc1ccc2cc(C([NH-])=O)n(C(=O)OC(=O)C([NH3+])C(C)(C)C)c2c1 (protonated)
Cc1ccc2cc(C([NH-])=O)n(C(=O)OC(=O)[C@H]([NH3+])C(C)(C)C)c2c1 (chirality)
Cc1ccc2cc(C([NH-])=O)n(C(=O)OC(=O)[C@H]([NH3+])C(C)(C)C)c2c1 (3D coordinates assigned)
Cc1ccc2cc(C([NH-])=O)n(C(=O)OC(=O)[C@H]([NH3+])C(C)(C)C)c2c1 (optimized conformer: 81.95427977278855 kcal/mol)

>  <smiles>  (28) 
Cc1ccc2cc(C(N)=O)n(C(=O)OC(=O)C(N)C(C)(C)C)c2c1

>  <score_type>  (28) 
oracle

>  <origin>  (28) 
adg

>  <m_score__min__energy>  (28) 
-10.34

>  <m_primary>  (28) 
energy

$$$$
28:0
     RDKit          3D

 46 48  0  0  0  0  0  0  0  0999 V2000
   -7.2660   18.1910  -31.4100 C   0  0  0  0  0  0  0  0  0  0  0  0
   -7.4480   18.1570  -32.8700 N   0  0  0  0  0  0  0  0  0  0  0  0
   -6.6110   17.0890  -33.4620 C   0  0  0  0  0  0  0  0  0  0  0  0
   -5.1000   17.3400  -33.2930 C   0  0  0  0  0  0  0  0  0  0  0  0
   -4.5890   18.6530  -33.9260 C   0  0  0  0  0  0  0  0  0  0  0  0
   -4.8040   19.8170  -33.0500 N   0  0  0  0  0  0  0  0  0  0  0  0
   -3.6920   20.4010  -32.3400 C   0  0  0  0  0  0  0  0  0  0  0  0
   -2.4160   19.7780  -32.3700 C   0  0  0  0  0  0  0  0  0  0  0  0
   -1.3250   20.3410  -31.6860 C   0  0  0  0  0  0  0  0  0  0  0  0
   -1.5310   21.5290  -30.9930 C   0  0  0  0  0  0  0  0  0  0  0  0
   -0.6580   22.2740  -30.2310 C   0  0  0  0  0  0  0  0  0  0  0  0
   -1.4040   23.3580  -29.7680 C   0  0  0  0  0  0  0  0  0  0  0  0
   -0.8530   24.4620  -28.9500 C   0  0  0  0  0  0  0  0  0  0  0  0
   -1.7080   25.4680  -28.4030 N   0  0  0  0  0  0  0  0  0  0  0  0
    0.3840   24.5160  -28.7110 O   0  0  0  0  0  0  0  0  0  0  0  0
   -2.6830   23.2870  -30.2330 N   0  0  0  0  0  0  0  0  0  0  0  0
   -3.7670   24.1850  -29.9400 C   0  0  0  0  0  0  0  0  0  0  0  0
   -3.8370   25.2940  -30.5340 O   0  0  0  0  0  0  0  0  0  0  0  0
   -4.8180   23.8200  -28.9390 C   0  0  0  0  0  0  0  0  0  0  0  0
   -4.9390   24.8480  -27.9950 O   0  0  0  0  0  0  0  0  0  0  0  0
   -2.7470   22.1590  -30.9730 C   0  0  0  0  0  0  0  0  0  0  0  0
   -3.8560   21.6100  -31.6240 C   0  0  0  0  0  0  0  0  0  0  0  0
   -6.1580   20.3570  -32.8250 C   0  0  0  0  0  0  0  0  0  0  0  0
   -7.2790   19.5070  -33.4660 C   0  0  0  0  0  0  0  0  0  0  0  0
   -8.2320   18.0105  -30.9158 H   0  0  0  0  0  0  0  0  0  0  0  0
   -6.5500   17.4111  -31.1115 H   0  0  0  0  0  0  0  0  0  0  0  0
   -6.8799   19.1768  -31.1115 H   0  0  0  0  0  0  0  0  0  0  0  0
   -6.8640   16.1357  -32.9749 H   0  0  0  0  0  0  0  0  0  0  0  0
   -6.8209   17.0689  -34.5416 H   0  0  0  0  0  0  0  0  0  0  0  0
   -4.8757   17.3687  -32.2165 H   0  0  0  0  0  0  0  0  0  0  0  0
   -4.5882   16.5213  -33.8201 H   0  0  0  0  0  0  0  0  0  0  0  0
   -3.5116   18.5540  -34.1245 H   0  0  0  0  0  0  0  0  0  0  0  0
   -5.1550   18.8215  -34.8541 H   0  0  0  0  0  0  0  0  0  0  0  0
   -2.2801   18.8441  -32.9351 H   0  0  0  0  0  0  0  0  0  0  0  0
   -0.3376   19.8564  -31.6984 H   0  0  0  0  0  0  0  0  0  0  0  0
    0.4021   22.0596  -30.0303 H   0  0  0  0  0  0  0  0  0  0  0  0
   -2.7260   25.5010  -28.6290 H   0  0  0  0  0  0  0  0  0  0  0  0
   -1.3090   26.2200  -27.7970 H   0  0  0  0  0  0  0  0  0  0  0  0
   -5.7804   23.6783  -29.4525 H   0  0  0  0  0  0  0  0  0  0  0  0
   -4.5332   22.8867  -28.4312 H   0  0  0  0  0  0  0  0  0  0  0  0
   -4.6220   25.6740  -28.4450 H   0  0  0  0  0  0  0  0  0  0  0  0
   -4.8359   22.1080  -31.5803 H   0  0  0  0  0  0  0  0  0  0  0  0
   -6.3365   20.4069  -31.7407 H   0  0  0  0  0  0  0  0  0  0  0  0
   -6.1928   21.3479  -33.3014 H   0  0  0  0  0  0  0  0  0  0  0  0
   -8.2282   20.0519  -33.3563 H   0  0  0  0  0  0  0  0  0  0  0  0
   -6.9905   19.3507  -34.5159 H   0  0  0  0  0  0  0  0  0  0  0  0
  1  2  1  0
  2  3  1  0
  3  4  1  0
  4  5  1  0
  5  6  1  0
  6  7  1  0
  7  8  2  0
  8  9  1  0
  9 10  2  0
 10 11  1  0
 11 12  2  0
 12 13  1  0
 13 14  1  0
 13 15  2  0
 12 16  1  0
 16 17  1  0
 17 18  2  0
 17 19  1  0
 19 20  1  0
 16 21  1  0
 21 22  2  0
  6 23  1  0
 23 24  1  0
 24  2  1  0
 22  7  1  0
 21 10  1  0
  1 25  1  0
  1 26  1  0
  1 27  1  0
  3 28  1  0
  3 29  1  0
  4 30  1  0
  4 31  1  0
  5 32  1  0
  5 33  1  0
  8 34  1  0
  9 35  1  0
 11 36  1  0
 14 37  1  0
 14 38  1  0
 19 39  1  0
 19 40  1  0
 20 41  1  0
 22 42  1  0
 23 43  1  0
 23 44  1  0
 24 45  1  0
 24 46  1  0
M  END
>  <UniqueID>  (29) 
29

>  <SMILES>  (29) 
CN1CCCN(c2ccc3cc(C(N)=O)n(C(=O)CO)c3c2)CC1

>  <Energy>  (29) 
99.39988274376267

>  <Genealogy>  (29) 
CN1CCCN(c2ccc3cc(C(N)=O)n(C(=O)CO)c3c2)CC1 (3D coordinates assigned)
CN1CCCN(c2ccc3cc(C(N)=O)n(C(=O)CO)c3c2)CC1 (nonaromatic ring conformer: 99.39988274376267 kcal/mol)

>  <smiles>  (29) 
CN1CCCN(c2ccc3cc(C(N)=O)n(C(=O)CO)c3c2)CC1

>  <score_type>  (29) 
oracle

>  <origin>  (29) 
adg

>  <m_score__min__energy>  (29) 
-7.1100000000000003

>  <m_primary>  (29) 
energy

$$$$
29:0
     RDKit          3D

 41 42  0  0  0  0  0  0  0  0999 V2000
   -4.9440   16.1760  -32.9570 C   0  0  0  0  0  0  0  0  0  0  0  0
   -5.0850   17.1650  -34.0330 N   0  0  0  0  0  0  0  0  0  0  0  0
   -4.2330   17.0780  -35.2260 C   0  0  0  0  0  0  0  0  0  0  0  0
   -6.0460   18.2400  -33.9390 C   0  0  0  0  0  0  0  0  0  0  0  0
   -6.0930   19.1150  -34.8460 O   0  0  0  0  0  0  0  0  0  0  0  0
   -7.0300   18.3440  -32.8000 C   0  0  0  0  0  0  0  0  0  0  0  0
   -7.2150   19.7740  -32.3600 C   0  0  0  0  0  0  0  0  0  0  0  0
   -8.5090   20.3480  -32.3390 C   0  0  0  0  0  0  0  0  0  0  0  0
   -8.6950   21.6780  -31.9360 C   0  0  0  0  0  0  0  0  0  0  0  0
   -7.5750   22.4050  -31.5480 C   0  0  0  0  0  0  0  0  0  0  0  0
   -7.4880   23.7070  -31.1230 C   0  0  0  0  0  0  0  0  0  0  0  0
   -6.1360   23.9200  -30.8800 C   0  0  0  0  0  0  0  0  0  0  0  0
   -5.6070   25.2250  -30.4470 C   0  0  0  0  0  0  0  0  0  0  0  0
   -4.2450   25.5780  -30.6900 N   0  0  0  0  0  0  0  0  0  0  0  0
   -6.3820   26.0620  -29.9150 O   0  0  0  0  0  0  0  0  0  0  0  0
   -5.4040   22.7890  -31.1150 N   0  0  0  0  0  0  0  0  0  0  0  0
   -4.0000   22.5870  -30.8270 C   0  0  0  0  0  0  0  0  0  0  0  0
   -3.1340   22.7940  -31.7200 O   0  0  0  0  0  0  0  0  0  0  0  0
   -3.5840   22.1970  -29.5480 O   0  0  0  0  0  0  0  0  0  0  0  0
   -3.1350   23.1120  -28.5520 C   0  0  0  0  0  0  0  0  0  0  0  0
   -2.0340   23.9700  -29.0890 C   0  0  0  0  0  0  0  0  0  0  0  0
   -0.8790   23.4950  -29.2430 O   0  0  0  0  0  0  0  0  0  0  0  0
   -2.2780   25.2990  -29.4130 O   0  0  0  0  0  0  0  0  0  0  0  0
   -6.3090   21.8670  -31.5410 C   0  0  0  0  0  0  0  0  0  0  0  0
   -6.1020   20.5390  -31.9430 C   0  0  0  0  0  0  0  0  0  0  0  0
   -5.0161   16.6814  -31.9827 H   0  0  0  0  0  0  0  0  0  0  0  0
   -5.7443   15.4260  -33.0411 H   0  0  0  0  0  0  0  0  0  0  0  0
   -3.9660   15.6796  -33.0411 H   0  0  0  0  0  0  0  0  0  0  0  0
   -3.1822   16.9707  -34.9191 H   0  0  0  0  0  0  0  0  0  0  0  0
   -4.5306   16.2056  -35.8263 H   0  0  0  0  0  0  0  0  0  0  0  0
   -4.3481   17.9926  -35.8263 H   0  0  0  0  0  0  0  0  0  0  0  0
   -8.0002   17.9423  -33.1277 H   0  0  0  0  0  0  0  0  0  0  0  0
   -6.6359   17.7688  -31.9492 H   0  0  0  0  0  0  0  0  0  0  0  0
   -9.3773   19.7444  -32.6419 H   0  0  0  0  0  0  0  0  0  0  0  0
   -9.6966   22.1326  -31.9270 H   0  0  0  0  0  0  0  0  0  0  0  0
   -8.3108   24.4269  -31.0010 H   0  0  0  0  0  0  0  0  0  0  0  0
   -3.6140   24.9440  -31.2300 H   0  0  0  0  0  0  0  0  0  0  0  0
   -3.8720   26.4930  -30.3450 H   0  0  0  0  0  0  0  0  0  0  0  0
   -3.9748   23.7517  -28.2428 H   0  0  0  0  0  0  0  0  0  0  0  0
   -2.7554   22.5430  -27.6905 H   0  0  0  0  0  0  0  0  0  0  0  0
   -5.0928   20.1014  -31.9339 H   0  0  0  0  0  0  0  0  0  0  0  0
  1  2  1  0
  2  3  1  0
  2  4  1  0
  4  5  2  0
  4  6  1  0
  6  7  1  0
  7  8  2  0
  8  9  1  0
  9 10  2  0
 10 11  1  0
 11 12  2  0
 12 13  1  0
 13 14  1  0
 13 15  2  0
 12 16  1  0
 16 17  1  0
 17 18  2  0
 17 19  1  0
 19 20  1  0
 20 21  1  0
 21 22  2  0
 21 23  1  0
 16 24  1  0
 24 25  2  0
 25  7  1  0
 24 10  1  0
  1 26  1  0
  1 27  1  0
  1 28  1  0
  3 29  1  0
  3 30  1  0
  3 31  1  0
  6 32  1  0
  6 33  1  0
  8 34  1  0
  9 35  1  0
 11 36  1  0
 14 37  1  0
 14 38  1  0
 20 39  1  0
 20 40  1  0
 25 41  1  0
M  CHG  1  23  -1
M  END
>  <UniqueID>  (30) 
30

>  <SMILES>  (30) 
CN(C)C(=O)Cc1ccc2cc(C(N)=O)n(C(=O)OCC(=O)[O-])c2c1

>  <Energy>  (30) 
77.03119284798196

>  <Genealogy>  (30) 
CN(C)C(=O)Cc1ccc2cc(C(N)=O)n(C(=O)OCC(=O)[O-])c2c1 (protonated)
CN(C)C(=O)Cc1ccc2cc(C(N)=O)n(C(=O)OCC(=O)[O-])c2c1 (3D coordinates assigned)
CN(C)C(=O)Cc1ccc2cc(C(N)=O)n(C(=O)OCC(=O)[O-])c2c1 (optimized conformer: 77.03119284798196 kcal/mol)

>  <smiles>  (30) 
CN(C)C(=O)Cc1ccc2cc(C(N)=O)n(C(=O)OCC(=O)O)c2c1

>  <score_type>  (30) 
oracle

>  <origin>  (30) 
adg

>  <m_score__min__energy>  (30) 
-11.23

>  <m_primary>  (30) 
energy

$$$$
30:0
     RDKit          3D

 38 39  0  0  0  0  0  0  0  0999 V2000
   -1.1720   25.6900  -28.0180 C   0  0  0  0  0  0  0  0  0  0  0  0
   -1.9420   25.1480  -29.0690 O   0  0  0  0  0  0  0  0  0  0  0  0
   -1.6410   23.7750  -29.2440 C   0  0  0  0  0  0  0  0  0  0  0  0
   -2.7500   22.8910  -28.6440 C   0  0  1  0  0  0  0  0  0  0  0  0
   -3.8240   23.7430  -27.9670 C   0  0  0  0  0  0  0  0  0  0  0  0
   -3.3660   22.1120  -29.6700 O   0  0  0  0  0  0  0  0  0  0  0  0
   -3.8280   22.6480  -30.8780 C   0  0  0  0  0  0  0  0  0  0  0  0
   -3.0280   22.8580  -31.8300 O   0  0  0  0  0  0  0  0  0  0  0  0
   -5.2270   22.9290  -31.0420 N   0  0  0  0  0  0  0  0  0  0  0  0
   -5.8720   24.1070  -30.8070 C   0  0  0  0  0  0  0  0  0  0  0  0
   -5.2290   25.4020  -30.5030 C   0  0  0  0  0  0  0  0  0  0  0  0
   -3.8660   25.6400  -30.8410 N   0  0  0  0  0  0  0  0  0  0  0  0
   -5.9080   26.3290  -29.9850 O   0  0  0  0  0  0  0  0  0  0  0  0
   -7.2460   23.9550  -30.9740 C   0  0  0  0  0  0  0  0  0  0  0  0
   -7.4260   22.6380  -31.3290 C   0  0  0  0  0  0  0  0  0  0  0  0
   -8.5960   21.9410  -31.6160 C   0  0  0  0  0  0  0  0  0  0  0  0
   -8.4900   20.5770  -31.9300 C   0  0  0  0  0  0  0  0  0  0  0  0
   -7.2270   19.9280  -31.9290 C   0  0  0  0  0  0  0  0  0  0  0  0
   -7.1220   18.4710  -32.3060 C   0  0  0  0  0  0  0  0  0  0  0  0
   -6.2140   17.8200  -31.4900 F   0  0  0  0  0  0  0  0  0  0  0  0
   -8.3480   17.8430  -32.1750 F   0  0  0  0  0  0  0  0  0  0  0  0
   -6.7020   18.3700  -33.6190 F   0  0  0  0  0  0  0  0  0  0  0  0
   -6.0590   20.6770  -31.6550 C   0  0  0  0  0  0  0  0  0  0  0  0
   -6.1940   22.0400  -31.3620 C   0  0  0  0  0  0  0  0  0  0  0  0
   -1.6036   25.3862  -27.0529 H   0  0  0  0  0  0  0  0  0  0  0  0
   -0.1391   25.3187  -28.0909 H   0  0  0  0  0  0  0  0  0  0  0  0
   -1.1731   26.7876  -28.0909 H   0  0  0  0  0  0  0  0  0  0  0  0
   -1.5504   23.5599  -30.3189 H   0  0  0  0  0  0  0  0  0  0  0  0
   -0.6953   23.5529  -28.7279 H   0  0  0  0  0  0  0  0  0  0  0  0
   -2.2848   22.2323  -27.8958 H   0  0  0  0  0  0  0  0  0  0  0  0
   -3.7218   23.6619  -26.8748 H   0  0  0  0  0  0  0  0  0  0  0  0
   -3.7033   24.7936  -28.2696 H   0  0  0  0  0  0  0  0  0  0  0  0
   -4.8196   23.3864  -28.2696 H   0  0  0  0  0  0  0  0  0  0  0  0
   -3.1700   24.8610  -30.8530 H   0  0  0  0  0  0  0  0  0  0  0  0
   -8.0223   24.7242  -30.8488 H   0  0  0  0  0  0  0  0  0  0  0  0
   -9.5742   22.4438  -31.5973 H   0  0  0  0  0  0  0  0  0  0  0  0
   -9.3955   20.0044  -32.1796 H   0  0  0  0  0  0  0  0  0  0  0  0
   -5.0678   20.2003  -31.6716 H   0  0  0  0  0  0  0  0  0  0  0  0
  1  2  1  0
  2  3  1  0
  3  4  1  0
  4  5  1  0
  4  6  1  0
  6  7  1  0
  7  8  2  0
  7  9  1  0
  9 10  1  0
 10 11  1  0
 11 12  1  0
 11 13  2  0
 10 14  2  0
 14 15  1  0
 15 16  2  0
 16 17  1  0
 17 18  2  0
 18 19  1  0
 19 20  1  0
 19 21  1  0
 19 22  1  0
 18 23  1  0
 23 24  2  0
 24  9  1  0
 24 15  1  0
  1 25  1  0
  1 26  1  0
  1 27  1  0
  3 28  1  0
  3 29  1  0
  4 30  1  1
  5 31  1  0
  5 32  1  0
  5 33  1  0
 12 34  1  0
 14 35  1  0
 16 36  1  0
 17 37  1  0
 23 38  1  0
M  CHG  1  12  -1
M  END
>  <UniqueID>  (31) 
31

>  <SMILES>  (31) 
COC[C@@H](C)OC(=O)n1c(C([NH-])=O)cc2ccc(C(F)(F)F)cc21

>  <Energy>  (31) 
74.60127716895113

>  <Genealogy>  (31) 
COCC(C)OC(=O)n1c(C([NH-])=O)cc2ccc(C(F)(F)F)cc21 (protonated)
COC[C@@H](C)OC(=O)n1c(C([NH-])=O)cc2ccc(C(F)(F)F)cc21 (chirality)
COC[C@@H](C)OC(=O)n1c(C([NH-])=O)cc2ccc(C(F)(F)F)cc21 (3D coordinates assigned)
COC[C@@H](C)OC(=O)n1c(C([NH-])=O)cc2ccc(C(F)(F)F)cc21 (optimized conformer: 74.60127716895113 kcal/mol)

>  <smiles>  (31) 
COCC(C)OC(=O)n1c(C(N)=O)cc2ccc(C(F)(F)F)cc21

>  <score_type>  (31) 
oracle

>  <origin>  (31) 
adg

>  <m_score__min__energy>  (31) 
-9.9700000000000006

>  <m_primary>  (31) 
energy

$$$$
31:0
     RDKit          3D

 50 51  0  0  0  0  0  0  0  0999 V2000
   -5.5380   17.7920  -35.0370 C   0  0  0  0  0  0  0  0  0  0  0  0
   -5.4090   18.4630  -33.7300 N   0  0  0  0  0  0  0  0  0  0  0  0
   -4.0890   19.1110  -33.6460 C   0  0  0  0  0  0  0  0  0  0  0  0
   -5.5710   17.5000  -32.6200 C   0  0  0  0  0  0  0  0  0  0  0  0
   -6.9820   17.5840  -32.0200 C   0  0  0  0  0  0  0  0  0  0  0  0
   -7.7710   18.6090  -32.7040 N   0  0  0  0  0  0  0  0  0  0  0  0
   -7.8320   19.9940  -32.3100 C   0  0  0  0  0  0  0  0  0  0  0  0
   -9.0300   20.7530  -32.4210 C   0  0  0  0  0  0  0  0  0  0  0  0
   -9.0620   22.1040  -32.0400 C   0  0  0  0  0  0  0  0  0  0  0  0
   -7.8920   22.6730  -31.5490 C   0  0  0  0  0  0  0  0  0  0  0  0
   -7.6410   23.9620  -31.1380 C   0  0  0  0  0  0  0  0  0  0  0  0
   -6.3010   23.9730  -30.7610 C   0  0  0  0  0  0  0  0  0  0  0  0
   -5.6300   25.1560  -30.1850 C   0  0  0  0  0  0  0  0  0  0  0  0
   -4.3110   25.5300  -30.5880 N   0  0  0  0  0  0  0  0  0  0  0  0
   -6.2090   25.8180  -29.2840 O   0  0  0  0  0  0  0  0  0  0  0  0
   -5.7400   22.7450  -30.9460 N   0  0  0  0  0  0  0  0  0  0  0  0
   -4.3600   22.3800  -30.7760 C   0  0  0  0  0  0  0  0  0  0  0  0
   -3.8910   21.4020  -31.4180 O   0  0  0  0  0  0  0  0  0  0  0  0
   -3.5520   23.1210  -29.8990 O   0  0  0  0  0  0  0  0  0  0  0  0
   -2.1640   22.8900  -29.6140 C   0  0  0  0  0  0  0  0  0  0  0  0
   -2.0070   21.9950  -28.3710 C   0  0  0  0  0  0  0  0  0  0  0  0
   -1.4680   22.2570  -30.8360 C   0  0  0  0  0  0  0  0  0  0  0  0
   -1.5190   24.2240  -29.3200 C   0  0  0  0  0  0  0  0  0  0  0  0
   -2.2000   25.2840  -29.3470 O   0  0  0  0  0  0  0  0  0  0  0  0
   -0.1760   24.2920  -28.9650 O   0  0  0  0  0  0  0  0  0  0  0  0
   -6.7290   21.9580  -31.4260 C   0  0  0  0  0  0  0  0  0  0  0  0
   -6.6630   20.6150  -31.8180 C   0  0  0  0  0  0  0  0  0  0  0  0
   -5.7436   16.7226  -34.8815 H   0  0  0  0  0  0  0  0  0  0  0  0
   -6.3653   18.2460  -35.6022 H   0  0  0  0  0  0  0  0  0  0  0  0
   -4.6013   17.9069  -35.6022 H   0  0  0  0  0  0  0  0  0  0  0  0
   -3.8135   19.2463  -32.5897 H   0  0  0  0  0  0  0  0  0  0  0  0
   -3.3381   18.4791  -34.1428 H   0  0  0  0  0  0  0  0  0  0  0  0
   -4.1296   20.0916  -34.1428 H   0  0  0  0  0  0  0  0  0  0  0  0
   -5.4016   16.4816  -32.9997 H   0  0  0  0  0  0  0  0  0  0  0  0
   -4.8410   17.7448  -31.8344 H   0  0  0  0  0  0  0  0  0  0  0  0
   -7.4807   16.6098  -32.1307 H   0  0  0  0  0  0  0  0  0  0  0  0
   -6.9002   17.8501  -30.9558 H   0  0  0  0  0  0  0  0  0  0  0  0
   -8.3200   18.3060  -33.5410 H   0  0  0  0  0  0  0  0  0  0  0  0
   -9.9418   20.2760  -32.8098 H   0  0  0  0  0  0  0  0  0  0  0  0
   -9.9856   22.6951  -32.1274 H   0  0  0  0  0  0  0  0  0  0  0  0
   -8.3483   24.8041  -31.1127 H   0  0  0  0  0  0  0  0  0  0  0  0
   -3.7430   24.9150  -31.2100 H   0  0  0  0  0  0  0  0  0  0  0  0
   -3.8650   26.3860  -30.1910 H   0  0  0  0  0  0  0  0  0  0  0  0
   -2.1143   22.6065  -27.4630 H   0  0  0  0  0  0  0  0  0  0  0  0
   -2.7819   21.2144  -28.3810 H   0  0  0  0  0  0  0  0  0  0  0  0
   -1.0126   21.5247  -28.3810 H   0  0  0  0  0  0  0  0  0  0  0  0
   -0.6946   21.5536  -30.4939 H   0  0  0  0  0  0  0  0  0  0  0  0
   -2.2108   21.7185  -31.4429 H   0  0  0  0  0  0  0  0  0  0  0  0
   -1.0022   23.0474  -31.4429 H   0  0  0  0  0  0  0  0  0  0  0  0
   -5.7191   20.0550  -31.7441 H   0  0  0  0  0  0  0  0  0  0  0  0
  1  2  1  0
  2  3  1  0
  2  4  1  0
  4  5  1  0
  5  6  1  0
  6  7  1  0
  7  8  2  0
  8  9  1  0
  9 10  2  0
 10 11  1  0
 11 12  2  0
 12 13  1  0
 13 14  1  0
 13 15  2  0
 12 16  1  0
 16 17  1  0
 17 18  2  0
 17 19  1  0
 19 20  1  0
 20 21  1  0
 20 22  1  0
 20 23  1  0
 23 24  2  0
 23 25  1  0
 16 26  1  0
 26 27  2  0
 27  7  1  0
 26 10  1  0
  1 28  1  0
  1 29  1  0
  1 30  1  0
  3 31  1  0
  3 32  1  0
  3 33  1  0
  4 34  1  0
  4 35  1  0
  5 36  1  0
  5 37  1  0
  6 38  1  0
  8 39  1  0
  9 40  1  0
 11 41  1  0
 14 42  1  0
 14 43  1  0
 21 44  1  0
 21 45  1  0
 21 46  1  0
 22 47  1  0
 22 48  1  0
 22 49  1  0
 27 50  1  0
M  CHG  1  25  -1
M  END
>  <UniqueID>  (32) 
32

>  <SMILES>  (32) 
CN(C)CCNc1ccc2cc(C(N)=O)n(C(=O)OC(C)(C)C(=O)[O-])c2c1

>  <Energy>  (32) 
84.99392156178679

>  <Genealogy>  (32) 
CN(C)CCNc1ccc2cc(C(N)=O)n(C(=O)OC(C)(C)C(=O)[O-])c2c1 (protonated)
CN(C)CCNc1ccc2cc(C(N)=O)n(C(=O)OC(C)(C)C(=O)[O-])c2c1 (3D coordinates assigned)
CN(C)CCNc1ccc2cc(C(N)=O)n(C(=O)OC(C)(C)C(=O)[O-])c2c1 (optimized conformer: 84.99392156178679 kcal/mol)

>  <smiles>  (32) 
CN(C)CCNc1ccc2cc(C(N)=O)n(C(=O)OC(C)(C)C(=O)O)c2c1

>  <score_type>  (32) 
oracle

>  <origin>  (32) 
adg

>  <m_score__min__energy>  (32) 
-11.039999999999999

>  <m_primary>  (32) 
energy

$$$$
32:0
     RDKit          3D

 37 38  0  0  0  0  0  0  0  0999 V2000
   -6.1570   14.4130  -34.2210 C   0  0  0  0  0  0  0  0  0  0  0  0
   -4.9520   14.6790  -33.4270 N   0  0  0  0  0  0  0  0  0  0  0  0
   -4.5420   13.7410  -32.3790 C   0  0  0  0  0  0  0  0  0  0  0  0
   -4.1500   15.8600  -33.6620 C   0  0  0  0  0  0  0  0  0  0  0  0
   -3.1120   16.0580  -32.9720 O   0  0  0  0  0  0  0  0  0  0  0  0
   -4.5350   16.8950  -34.6800 C   0  0  0  0  0  0  0  0  0  0  0  0
   -5.1260   18.0580  -34.0120 C   0  0  0  0  0  0  0  0  0  0  0  0
   -5.6190   19.0080  -33.4600 C   0  0  0  0  0  0  0  0  0  0  0  0
   -6.2020   20.1490  -32.8040 C   0  0  0  0  0  0  0  0  0  0  0  0
   -7.6050   20.2300  -32.6470 C   0  0  0  0  0  0  0  0  0  0  0  0
   -8.1860   21.3340  -32.0010 C   0  0  0  0  0  0  0  0  0  0  0  0
   -7.3380   22.3380  -31.5360 C   0  0  0  0  0  0  0  0  0  0  0  0
   -7.6320   23.4930  -30.8510 C   0  0  0  0  0  0  0  0  0  0  0  0
   -6.4050   24.1100  -30.6270 C   0  0  0  0  0  0  0  0  0  0  0  0
   -6.2670   25.4240  -29.9710 C   0  0  0  0  0  0  0  0  0  0  0  0
   -5.3560   26.4070  -30.4650 N   0  0  0  0  0  0  0  0  0  0  0  0
   -7.0050   25.7060  -28.9890 O   0  0  0  0  0  0  0  0  0  0  0  0
   -5.3870   23.3620  -31.1420 N   0  0  0  0  0  0  0  0  0  0  0  0
   -3.9760   23.6030  -31.0070 C   0  0  0  0  0  0  0  0  0  0  0  0
   -3.1420   22.7310  -31.3650 O   0  0  0  0  0  0  0  0  0  0  0  0
   -3.5160   24.8020  -30.4740 O   0  0  0  0  0  0  0  0  0  0  0  0
   -5.9760   22.2800  -31.6990 C   0  0  0  0  0  0  0  0  0  0  0  0
   -5.3710   21.1800  -32.3210 C   0  0  0  0  0  0  0  0  0  0  0  0
   -7.0061   14.2256  -33.5473 H   0  0  0  0  0  0  0  0  0  0  0  0
   -6.3777   15.2840  -34.8555 H   0  0  0  0  0  0  0  0  0  0  0  0
   -5.9905   13.5300  -34.8555 H   0  0  0  0  0  0  0  0  0  0  0  0
   -4.7365   14.1860  -31.3920 H   0  0  0  0  0  0  0  0  0  0  0  0
   -5.1138   12.8066  -32.4790 H   0  0  0  0  0  0  0  0  0  0  0  0
   -3.4679   13.5261  -32.4790 H   0  0  0  0  0  0  0  0  0  0  0  0
   -3.6397   17.2100  -35.2361 H   0  0  0  0  0  0  0  0  0  0  0  0
   -5.2716   16.4634  -35.3736 H   0  0  0  0  0  0  0  0  0  0  0  0
   -8.2456   19.4234  -33.0331 H   0  0  0  0  0  0  0  0  0  0  0  0
   -9.2755   21.4040  -31.8664 H   0  0  0  0  0  0  0  0  0  0  0  0
   -8.6255   23.8528  -30.5451 H   0  0  0  0  0  0  0  0  0  0  0  0
   -5.2450   27.3170  -29.9650 H   0  0  0  0  0  0  0  0  0  0  0  0
   -4.8540   26.2690  -31.3710 H   0  0  0  0  0  0  0  0  0  0  0  0
   -4.2779   21.1225  -32.4294 H   0  0  0  0  0  0  0  0  0  0  0  0
  1  2  1  0
  2  3  1  0
  2  4  1  0
  4  5  2  0
  4  6  1  0
  6  7  1  0
  7  8  3  0
  8  9  1  0
  9 10  2  0
 10 11  1  0
 11 12  2  0
 12 13  1  0
 13 14  2  0
 14 15  1  0
 15 16  1  0
 15 17  2  0
 14 18  1  0
 18 19  1  0
 19 20  2  0
 19 21  1  0
 18 22  1  0
 22 23  2  0
 23  9  1  0
 22 12  1  0
  1 24  1  0
  1 25  1  0
  1 26  1  0
  3 27  1  0
  3 28  1  0
  3 29  1  0
  6 30  1  0
  6 31  1  0
 10 32  1  0
 11 33  1  0
 13 34  1  0
 16 35  1  0
 16 36  1  0
 23 37  1  0
M  CHG  1  21  -1
M  END
>  <UniqueID>  (33) 
33

>  <SMILES>  (33) 
CN(C)C(=O)CC#Cc1ccc2cc(C(N)=O)n(C(=O)[O-])c2c1

>  <Energy>  (33) 
69.04399719145516

>  <Genealogy>  (33) 
CN(C)C(=O)CC#Cc1ccc2cc(C(N)=O)n(C(=O)[O-])c2c1 (protonated)
CN(C)C(=O)CC#Cc1ccc2cc(C(N)=O)n(C(=O)[O-])c2c1 (3D coordinates assigned)
CN(C)C(=O)CC#Cc1ccc2cc(C(N)=O)n(C(=O)[O-])c2c1 (optimized conformer: 69.04399719145516 kcal/mol)

>  <smiles>  (33) 
CN(C)C(=O)CC#Cc1ccc2cc(C(N)=O)n(C(=O)O)c2c1

>  <score_type>  (33) 
oracle

>  <origin>  (33) 
adg

>  <m_score__min__energy>  (33) 
-9.1199999999999992

>  <m_primary>  (33) 
energy

$$$$
33:0
     RDKit          3D

 31 32  0  0  0  0  0  0  0  0999 V2000
   -4.1880   25.5290  -30.6430 N   0  0  0  0  0  0  0  0  0  0  0  0
   -5.5340   25.1070  -30.4230 C   0  0  0  0  0  0  0  0  0  0  0  0
   -6.2880   25.8060  -29.6970 O   0  0  0  0  0  0  0  0  0  0  0  0
   -6.0370   23.8340  -30.9770 C   0  0  0  0  0  0  0  0  0  0  0  0
   -7.3880   23.5710  -31.1870 C   0  0  0  0  0  0  0  0  0  0  0  0
   -7.4390   22.2740  -31.6440 C   0  0  0  0  0  0  0  0  0  0  0  0
   -8.5330   21.5040  -32.0240 C   0  0  0  0  0  0  0  0  0  0  0  0
   -8.2910   20.2030  -32.4960 C   0  0  0  0  0  0  0  0  0  0  0  0
   -6.9690   19.7020  -32.5850 C   0  0  0  0  0  0  0  0  0  0  0  0
   -6.7120   18.3190  -33.1120 C   0  0  0  0  0  0  0  0  0  0  0  0
   -6.0890   18.3980  -34.3430 F   0  0  0  0  0  0  0  0  0  0  0  0
   -5.9000   17.6270  -32.2310 F   0  0  0  0  0  0  0  0  0  0  0  0
   -5.8820   20.5150  -32.1950 C   0  0  0  0  0  0  0  0  0  0  0  0
   -6.1540   21.8010  -31.7070 C   0  0  0  0  0  0  0  0  0  0  0  0
   -5.2780   22.7490  -31.3030 N   0  0  0  0  0  0  0  0  0  0  0  0
   -3.8440   22.6600  -31.3300 C   0  0  0  0  0  0  0  0  0  0  0  0
   -3.2540   22.3410  -32.3990 O   0  0  0  0  0  0  0  0  0  0  0  0
   -3.1090   22.9240  -30.1720 O   0  0  0  0  0  0  0  0  0  0  0  0
   -1.6910   23.0470  -30.1710 C   0  0  0  0  0  0  0  0  0  0  0  0
   -1.3010   24.2210  -29.3390 C   0  0  0  0  0  0  0  0  0  0  0  0
   -0.2230   24.2060  -28.6880 O   0  0  0  0  0  0  0  0  0  0  0  0
   -2.0970   25.3590  -29.3270 O   0  0  0  0  0  0  0  0  0  0  0  0
   -3.8600   26.4500  -30.2780 H   0  0  0  0  0  0  0  0  0  0  0  0
   -3.4910   24.8950  -31.0920 H   0  0  0  0  0  0  0  0  0  0  0  0
   -8.2342   24.2543  -31.0226 H   0  0  0  0  0  0  0  0  0  0  0  0
   -9.5565   21.9014  -31.9571 H   0  0  0  0  0  0  0  0  0  0  0  0
   -9.1361   19.5675  -32.7993 H   0  0  0  0  0  0  0  0  0  0  0  0
   -7.6708   17.7905  -33.2191 H   0  0  0  0  0  0  0  0  0  0  0  0
   -4.8477   20.1484  -32.2722 H   0  0  0  0  0  0  0  0  0  0  0  0
   -1.2429   22.1340  -29.7519 H   0  0  0  0  0  0  0  0  0  0  0  0
   -1.3318   23.1885  -31.2010 H   0  0  0  0  0  0  0  0  0  0  0  0
  1  2  1  0
  2  3  2  0
  2  4  1  0
  4  5  2  0
  5  6  1  0
  6  7  2  0
  7  8  1  0
  8  9  2  0
  9 10  1  0
 10 11  1  0
 10 12  1  0
  9 13  1  0
 13 14  2  0
 14 15  1  0
 15 16  1  0
 16 17  2  0
 16 18  1  0
 18 19  1  0
 19 20  1  0
 20 21  2  0
 20 22  1  0
 15  4  1  0
 14  6  1  0
  1 23  1  0
  1 24  1  0
  5 25  1  0
  7 26  1  0
  8 27  1  0
 10 28  1  0
 13 29  1  0
 19 30  1  0
 19 31  1  0
M  CHG  1  22  -1
M  END
>  <UniqueID>  (34) 
34

>  <SMILES>  (34) 
NC(=O)c1cc2ccc(C(F)F)cc2n1C(=O)OCC(=O)[O-]

>  <Energy>  (34) 
67.18281560422164

>  <Genealogy>  (34) 
NC(=O)c1cc2ccc(C(F)F)cc2n1C(=O)OCC(=O)[O-] (protonated)
NC(=O)c1cc2ccc(C(F)F)cc2n1C(=O)OCC(=O)[O-] (3D coordinates assigned)
NC(=O)c1cc2ccc(C(F)F)cc2n1C(=O)OCC(=O)[O-] (optimized conformer: 67.18281560422164 kcal/mol)

>  <smiles>  (34) 
NC(=O)c1cc2ccc(C(F)F)cc2n1C(=O)OCC(=O)O

>  <score_type>  (34) 
oracle

>  <origin>  (34) 
adg

>  <m_score__min__energy>  (34) 
-9.7799999999999994

>  <m_primary>  (34) 
energy

$$$$
34:0
     RDKit          3D

 38 40  0  0  0  0  0  0  0  0999 V2000
   -1.3510   25.8750  -28.8070 N   0  0  0  0  0  0  0  0  0  0  0  0
   -0.6650   24.6250  -28.8900 C   0  0  0  0  0  0  0  0  0  0  0  0
    0.4240   24.4820  -28.2740 O   0  0  0  0  0  0  0  0  0  0  0  0
   -1.2400   23.4970  -29.6560 C   0  0  0  0  0  0  0  0  0  0  0  0
   -0.5110   22.3770  -30.0520 C   0  0  0  0  0  0  0  0  0  0  0  0
   -1.3780   21.6290  -30.8130 C   0  0  0  0  0  0  0  0  0  0  0  0
   -1.1810   20.4120  -31.4520 C   0  0  0  0  0  0  0  0  0  0  0  0
   -2.2610   19.8500  -32.1530 C   0  0  0  0  0  0  0  0  0  0  0  0
   -3.5220   20.5050  -32.2010 C   0  0  0  0  0  0  0  0  0  0  0  0
   -4.6320   19.9130  -32.9170 N   0  0  0  0  0  0  0  0  0  0  0  0
   -4.5520   18.6510  -33.6370 C   0  0  0  0  0  0  0  0  0  0  0  0
   -5.8800   18.4990  -34.3680 C   0  0  0  0  0  0  0  0  0  0  0  0
   -6.8490   19.4730  -33.6850 C   0  0  1  0  0  0  0  0  0  0  0  0
   -7.7870   18.7590  -32.6900 C   0  0  0  0  0  0  0  0  0  0  0  0
   -9.1370   18.9520  -33.0240 O   0  0  0  0  0  0  0  0  0  0  0  0
   -5.9570   20.5120  -32.9960 C   0  0  0  0  0  0  0  0  0  0  0  0
   -3.6770   21.7460  -31.5330 C   0  0  0  0  0  0  0  0  0  0  0  0
   -2.5770   22.2900  -30.8600 C   0  0  0  0  0  0  0  0  0  0  0  0
   -2.5080   23.4420  -30.1530 N   0  0  0  0  0  0  0  0  0  0  0  0
   -3.5810   24.3690  -29.9140 C   0  0  0  0  0  0  0  0  0  0  0  0
   -3.7640   25.3450  -30.6870 O   0  0  0  0  0  0  0  0  0  0  0  0
   -4.4360   24.1890  -28.8330 O   0  0  0  0  0  0  0  0  0  0  0  0
   -2.2280   26.0500  -29.3460 H   0  0  0  0  0  0  0  0  0  0  0  0
   -0.9560   26.6520  -28.2310 H   0  0  0  0  0  0  0  0  0  0  0  0
    0.5354   22.1416  -29.8077 H   0  0  0  0  0  0  0  0  0  0  0  0
   -0.2070   19.9025  -31.4105 H   0  0  0  0  0  0  0  0  0  0  0  0
   -2.1291   18.8893  -32.6723 H   0  0  0  0  0  0  0  0  0  0  0  0
   -3.7202   18.6736  -34.3565 H   0  0  0  0  0  0  0  0  0  0  0  0
   -4.3697   17.8084  -32.9537 H   0  0  0  0  0  0  0  0  0  0  0  0
   -5.7636   18.7572  -35.4309 H   0  0  0  0  0  0  0  0  0  0  0  0
   -6.2495   17.4638  -34.3239 H   0  0  0  0  0  0  0  0  0  0  0  0
   -7.5271   19.9433  -34.4123 H   0  0  0  0  0  0  0  0  0  0  0  0
   -7.5667   17.6814  -32.7019 H   0  0  0  0  0  0  0  0  0  0  0  0
   -7.6156   19.1835  -31.6898 H   0  0  0  0  0  0  0  0  0  0  0  0
   -9.1550   19.5220  -33.8360 H   0  0  0  0  0  0  0  0  0  0  0  0
   -5.9229   21.4390  -33.5872 H   0  0  0  0  0  0  0  0  0  0  0  0
   -6.3406   20.7753  -31.9992 H   0  0  0  0  0  0  0  0  0  0  0  0
   -4.6434   22.2713  -31.5435 H   0  0  0  0  0  0  0  0  0  0  0  0
  1  2  1  0
  2  3  2  0
  2  4  1  0
  4  5  2  0
  5  6  1  0
  6  7  2  0
  7  8  1  0
  8  9  2  0
  9 10  1  0
 10 11  1  0
 11 12  1  0
 12 13  1  0
 13 14  1  0
 14 15  1  0
 13 16  1  0
  9 17  1  0
 17 18  2  0
 18 19  1  0
 19 20  1  0
 20 21  2  0
 20 22  1  0
 19  4  1  0
 18  6  1  0
 16 10  1  0
  1 23  1  0
  1 24  1  0
  5 25  1  0
  7 26  1  0
  8 27  1  0
 11 28  1  0
 11 29  1  0
 12 30  1  0
 12 31  1  0
 13 32  1  6
 14 33  1  0
 14 34  1  0
 15 35  1  0
 16 36  1  0
 16 37  1  0
 17 38  1  0
M  CHG  1  22  -1
M  END
>  <UniqueID>  (35) 
35

>  <SMILES>  (35) 
NC(=O)c1cc2ccc(N3CC[C@@H](CO)C3)cc2n1C(=O)[O-]

>  <Energy>  (35) 
80.18815558042905

>  <Genealogy>  (35) 
NC(=O)c1cc2ccc(N3CCC(CO)C3)cc2n1C(=O)[O-] (protonated)
NC(=O)c1cc2ccc(N3CC[C@@H](CO)C3)cc2n1C(=O)[O-] (chirality)
NC(=O)c1cc2ccc(N3CC[C@@H](CO)C3)cc2n1C(=O)[O-] (3D coordinates assigned)
NC(=O)c1cc2ccc(N3CC[C@@H](CO)C3)cc2n1C(=O)[O-] (nonaromatic ring conformer: 80.18815558042905 kcal/mol)

>  <smiles>  (35) 
NC(=O)c1cc2ccc(N3CCC(CO)C3)cc2n1C(=O)O

>  <score_type>  (35) 
oracle

>  <origin>  (35) 
adg

>  <m_score__min__energy>  (35) 
-9.0199999999999996

>  <m_primary>  (35) 
energy

$$$$
35:0
     RDKit          3D

 31 32  0  0  0  0  0  0  0  0999 V2000
   -4.2510   25.5130  -30.6290 N   0  0  0  0  0  0  0  0  0  0  0  0
   -5.6170   25.1410  -30.4400 C   0  0  0  0  0  0  0  0  0  0  0  0
   -6.4170   25.9690  -29.9290 O   0  0  0  0  0  0  0  0  0  0  0  0
   -6.1230   23.8290  -30.8930 C   0  0  0  0  0  0  0  0  0  0  0  0
   -7.4730   23.5570  -31.0950 C   0  0  0  0  0  0  0  0  0  0  0  0
   -7.5150   22.2660  -31.5710 C   0  0  0  0  0  0  0  0  0  0  0  0
   -8.6060   21.4760  -31.9150 C   0  0  0  0  0  0  0  0  0  0  0  0
   -8.3610   20.1580  -32.3330 C   0  0  0  0  0  0  0  0  0  0  0  0
   -7.0370   19.6550  -32.4070 C   0  0  0  0  0  0  0  0  0  0  0  0
   -6.7920   18.2180  -32.7940 C   0  0  0  0  0  0  0  0  0  0  0  0
   -5.7430   17.7180  -32.0460 F   0  0  0  0  0  0  0  0  0  0  0  0
   -6.4740   18.1220  -34.1380 F   0  0  0  0  0  0  0  0  0  0  0  0
   -7.9190   17.4500  -32.5610 F   0  0  0  0  0  0  0  0  0  0  0  0
   -5.9550   20.4810  -32.0230 C   0  0  0  0  0  0  0  0  0  0  0  0
   -6.2270   21.7980  -31.6320 C   0  0  0  0  0  0  0  0  0  0  0  0
   -5.3600   22.7470  -31.2130 N   0  0  0  0  0  0  0  0  0  0  0  0
   -3.9420   22.5960  -31.0380 C   0  0  0  0  0  0  0  0  0  0  0  0
   -3.1560   22.9030  -31.9760 O   0  0  0  0  0  0  0  0  0  0  0  0
   -3.4370   22.1080  -29.8260 O   0  0  0  0  0  0  0  0  0  0  0  0
   -2.9990   22.9520  -28.7650 C   0  0  0  0  0  0  0  0  0  0  0  0
   -1.9710   23.9180  -29.2600 C   0  0  0  0  0  0  0  0  0  0  0  0
   -0.8460   23.5010  -29.6420 O   0  0  0  0  0  0  0  0  0  0  0  0
   -2.2630   25.2740  -29.3300 O   0  0  0  0  0  0  0  0  0  0  0  0
   -3.9020   26.4270  -30.2650 H   0  0  0  0  0  0  0  0  0  0  0  0
   -3.6050   24.9250  -31.2010 H   0  0  0  0  0  0  0  0  0  0  0  0
   -8.3242   24.2297  -30.9132 H   0  0  0  0  0  0  0  0  0  0  0  0
   -9.6310   21.8717  -31.8613 H   0  0  0  0  0  0  0  0  0  0  0  0
   -9.2056   19.5083  -32.6061 H   0  0  0  0  0  0  0  0  0  0  0  0
   -4.9239   20.0979  -32.0313 H   0  0  0  0  0  0  0  0  0  0  0  0
   -3.8592   23.5101  -28.3668 H   0  0  0  0  0  0  0  0  0  0  0  0
   -2.5539   22.3303  -27.9742 H   0  0  0  0  0  0  0  0  0  0  0  0
  1  2  1  0
  2  3  2  0
  2  4  1  0
  4  5  2  0
  5  6  1  0
  6  7  2  0
  7  8  1  0
  8  9  2  0
  9 10  1  0
 10 11  1  0
 10 12  1  0
 10 13  1  0
  9 14  1  0
 14 15  2  0
 15 16  1  0
 16 17  1  0
 17 18  2  0
 17 19  1  0
 19 20  1  0
 20 21  1  0
 21 22  2  0
 21 23  1  0
 16  4  1  0
 15  6  1  0
  1 24  1  0
  1 25  1  0
  5 26  1  0
  7 27  1  0
  8 28  1  0
 14 29  1  0
 20 30  1  0
 20 31  1  0
M  CHG  1  23  -1
M  END
>  <UniqueID>  (36) 
36

>  <SMILES>  (36) 
NC(=O)c1cc2ccc(C(F)(F)F)cc2n1C(=O)OCC(=O)[O-]

>  <Energy>  (36) 
69.06887820200583

>  <Genealogy>  (36) 
NC(=O)c1cc2ccc(C(F)(F)F)cc2n1C(=O)OCC(=O)[O-] (protonated)
NC(=O)c1cc2ccc(C(F)(F)F)cc2n1C(=O)OCC(=O)[O-] (3D coordinates assigned)
NC(=O)c1cc2ccc(C(F)(F)F)cc2n1C(=O)OCC(=O)[O-] (optimized conformer: 69.06887820200583 kcal/mol)

>  <smiles>  (36) 
NC(=O)c1cc2ccc(C(F)(F)F)cc2n1C(=O)OCC(=O)O

>  <score_type>  (36) 
oracle

>  <origin>  (36) 
adg

>  <m_score__min__energy>  (36) 
-9.7699999999999996

>  <m_primary>  (36) 
energy

$$$$
36:0
     RDKit          3D

 34 35  0  0  0  0  0  0  0  0999 V2000
   -4.1970   17.1890  -35.3110 N   0  0  0  0  0  0  0  0  0  0  0  0
   -5.2290   17.9670  -34.7030 C   0  0  0  0  0  0  0  0  0  0  0  0
   -6.4320   17.6470  -34.8970 O   0  0  0  0  0  0  0  0  0  0  0  0
   -4.8980   19.1560  -33.8870 C   0  0  0  0  0  0  0  0  0  0  0  0
   -5.8470   20.0550  -33.4020 C   0  0  0  0  0  0  0  0  0  0  0  0
   -5.1430   20.9410  -32.6190 C   0  0  0  0  0  0  0  0  0  0  0  0
   -5.5890   22.0420  -31.8920 C   0  0  0  0  0  0  0  0  0  0  0  0
   -4.6370   22.7940  -31.1840 C   0  0  0  0  0  0  0  0  0  0  0  0
   -3.2650   22.4440  -31.2280 C   0  0  0  0  0  0  0  0  0  0  0  0
   -2.2570   23.2410  -30.4490 C   0  0  0  0  0  0  0  0  0  0  0  0
   -3.0590   24.6710  -29.6620 P   0  0  0  0  0  0  0  0  0  0  0  0
   -4.0320   24.1950  -28.6080 O   0  0  0  0  0  0  0  0  0  0  0  0
   -1.8880   25.6570  -28.9420 O   0  0  0  0  0  0  0  0  0  0  0  0
   -3.8920   25.5590  -30.8350 O   0  0  0  0  0  0  0  0  0  0  0  0
   -2.8510   21.3150  -31.9690 C   0  0  0  0  0  0  0  0  0  0  0  0
   -3.8240   20.5720  -32.6480 C   0  0  0  0  0  0  0  0  0  0  0  0
   -3.6560   19.4770  -33.4220 N   0  0  0  0  0  0  0  0  0  0  0  0
   -2.4110   18.8290  -33.7260 C   0  0  0  0  0  0  0  0  0  0  0  0
   -2.1500   17.7000  -33.2280 O   0  0  0  0  0  0  0  0  0  0  0  0
   -1.4970   19.4490  -34.5870 O   0  0  0  0  0  0  0  0  0  0  0  0
   -0.1280   19.6660  -34.2530 C   0  0  0  0  0  0  0  0  0  0  0  0
    0.0970   21.0970  -33.8800 C   0  0  0  0  0  0  0  0  0  0  0  0
    0.2590   21.9650  -34.7790 O   0  0  0  0  0  0  0  0  0  0  0  0
    0.0980   21.4790  -32.5450 O   0  0  0  0  0  0  0  0  0  0  0  0
   -3.1880   17.3880  -35.1300 H   0  0  0  0  0  0  0  0  0  0  0  0
   -4.4420   16.3750  -35.9170 H   0  0  0  0  0  0  0  0  0  0  0  0
   -6.9286   20.0558  -33.6026 H   0  0  0  0  0  0  0  0  0  0  0  0
   -6.6546   22.3145  -31.8728 H   0  0  0  0  0  0  0  0  0  0  0  0
   -4.9596   23.6621  -30.5903 H   0  0  0  0  0  0  0  0  0  0  0  0
   -1.8103   22.6023  -29.6728 H   0  0  0  0  0  0  0  0  0  0  0  0
   -1.4760   23.6004  -31.1352 H   0  0  0  0  0  0  0  0  0  0  0  0
   -1.7903   21.0267  -32.0115 H   0  0  0  0  0  0  0  0  0  0  0  0
    0.1441   19.0228  -33.4032 H   0  0  0  0  0  0  0  0  0  0  0  0
    0.4953   19.4225  -35.1260 H   0  0  0  0  0  0  0  0  0  0  0  0
  1  2  1  0
  2  3  2  0
  2  4  1  0
  4  5  2  0
  5  6  1  0
  6  7  2  0
  7  8  1  0
  8  9  2  0
  9 10  1  0
 10 11  1  0
 11 12  2  0
 11 13  1  0
 11 14  1  0
  9 15  1  0
 15 16  2  0
 16 17  1  0
 17 18  1  0
 18 19  2  0
 18 20  1  0
 20 21  1  0
 21 22  1  0
 22 23  2  0
 22 24  1  0
 17  4  1  0
 16  6  1  0
  1 25  1  0
  1 26  1  0
  5 27  1  0
  7 28  1  0
  8 29  1  0
 10 30  1  0
 10 31  1  0
 15 32  1  0
 21 33  1  0
 21 34  1  0
M  CHG  3  13  -1  14  -1  24  -1
M  END
>  <UniqueID>  (37) 
37

>  <SMILES>  (37) 
NC(=O)c1cc2ccc(CP(=O)([O-])[O-])cc2n1C(=O)OCC(=O)[O-]

>  <Energy>  (37) 
65.66233483865464

>  <Genealogy>  (37) 
NC(=O)c1cc2ccc(CP(=O)([O-])[O-])cc2n1C(=O)OCC(=O)[O-] (protonated)
NC(=O)c1cc2ccc(CP(=O)([O-])[O-])cc2n1C(=O)OCC(=O)[O-] (3D coordinates assigned)
NC(=O)c1cc2ccc(CP(=O)([O-])[O-])cc2n1C(=O)OCC(=O)[O-] (optimized conformer: 65.66233483865464 kcal/mol)

>  <smiles>  (37) 
NC(=O)c1cc2ccc(CP(=O)(O)O)cc2n1C(=O)OCC(=O)O

>  <score_type>  (37) 
oracle

>  <origin>  (37) 
adg

>  <m_score__min__energy>  (37) 
-11.9

>  <m_primary>  (37) 
energy

$$$$
37:0
     RDKit          3D

 36 37  0  0  0  0  0  0  0  0999 V2000
   -7.7220   22.7780  -31.5650 C   0  0  0  0  0  0  0  0  0  0  0  0
   -8.7430   21.8770  -31.9750 O   0  0  0  0  0  0  0  0  0  0  0  0
   -8.5290   20.5000  -32.0890 C   0  0  0  0  0  0  0  0  0  0  0  0
   -9.4000   19.7550  -32.6140 O   0  0  0  0  0  0  0  0  0  0  0  0
   -7.2450   19.9110  -31.5920 C   0  0  0  0  0  0  0  0  0  0  0  0
   -6.4750   19.1910  -32.7090 C   0  0  0  0  0  0  0  0  0  0  0  0
   -5.5510   20.1160  -33.5190 C   0  0  0  0  0  0  0  0  0  0  0  0
   -4.3630   20.5750  -32.7140 C   0  0  0  0  0  0  0  0  0  0  0  0
   -3.1900   19.7780  -32.6650 C   0  0  0  0  0  0  0  0  0  0  0  0
   -2.0690   20.2000  -31.9330 C   0  0  0  0  0  0  0  0  0  0  0  0
   -2.1430   21.4220  -31.2710 C   0  0  0  0  0  0  0  0  0  0  0  0
   -1.2150   22.0560  -30.4770 C   0  0  0  0  0  0  0  0  0  0  0  0
   -1.8220   23.2430  -30.0760 C   0  0  0  0  0  0  0  0  0  0  0  0
   -1.1330   24.2770  -29.2760 C   0  0  0  0  0  0  0  0  0  0  0  0
   -1.7660   25.5180  -28.9780 N   0  0  0  0  0  0  0  0  0  0  0  0
    0.0520   24.0820  -28.8930 O   0  0  0  0  0  0  0  0  0  0  0  0
   -3.0800   23.3370  -30.5930 N   0  0  0  0  0  0  0  0  0  0  0  0
   -4.0590   24.3580  -30.3430 C   0  0  0  0  0  0  0  0  0  0  0  0
   -5.0780   24.1060  -29.6480 O   0  0  0  0  0  0  0  0  0  0  0  0
   -3.8760   25.6430  -30.8410 O   0  0  0  0  0  0  0  0  0  0  0  0
   -3.2600   22.2140  -31.3240 C   0  0  0  0  0  0  0  0  0  0  0  0
   -4.4000   21.8090  -32.0290 C   0  0  0  0  0  0  0  0  0  0  0  0
   -7.6829   22.8125  -30.4662 H   0  0  0  0  0  0  0  0  0  0  0  0
   -6.7524   22.4358  -31.9558 H   0  0  0  0  0  0  0  0  0  0  0  0
   -7.9409   23.7827  -31.9558 H   0  0  0  0  0  0  0  0  0  0  0  0
   -6.6156   20.7184  -31.1896 H   0  0  0  0  0  0  0  0  0  0  0  0
   -7.4875   19.1721  -30.8141 H   0  0  0  0  0  0  0  0  0  0  0  0
   -5.8615   18.3998  -32.2534 H   0  0  0  0  0  0  0  0  0  0  0  0
   -7.2234   18.7914  -33.4091 H   0  0  0  0  0  0  0  0  0  0  0  0
   -5.1908   19.5712  -34.4041 H   0  0  0  0  0  0  0  0  0  0  0  0
   -6.1298   21.0060  -33.8070 H   0  0  0  0  0  0  0  0  0  0  0  0
   -3.1588   18.8205  -33.2057 H   0  0  0  0  0  0  0  0  0  0  0  0
   -1.1594   19.5834  -31.8841 H   0  0  0  0  0  0  0  0  0  0  0  0
   -0.2076   21.7005  -30.2148 H   0  0  0  0  0  0  0  0  0  0  0  0
   -2.7690   25.6820  -29.2220 H   0  0  0  0  0  0  0  0  0  0  0  0
   -5.3028   22.4372  -32.0487 H   0  0  0  0  0  0  0  0  0  0  0  0
  1  2  1  0
  2  3  1  0
  3  4  2  0
  3  5  1  0
  5  6  1  0
  6  7  1  0
  7  8  1  0
  8  9  2  0
  9 10  1  0
 10 11  2  0
 11 12  1  0
 12 13  2  0
 13 14  1  0
 14 15  1  0
 14 16  2  0
 13 17  1  0
 17 18  1  0
 18 19  2  0
 18 20  1  0
 17 21  1  0
 21 22  2  0
 22  8  1  0
 21 11  1  0
  1 23  1  0
  1 24  1  0
  1 25  1  0
  5 26  1  0
  5 27  1  0
  6 28  1  0
  6 29  1  0
  7 30  1  0
  7 31  1  0
  9 32  1  0
 10 33  1  0
 12 34  1  0
 15 35  1  0
 22 36  1  0
M  CHG  2  15  -1  20  -1
M  END
>  <UniqueID>  (38) 
38

>  <SMILES>  (38) 
COC(=O)CCCc1ccc2cc(C([NH-])=O)n(C(=O)[O-])c2c1

>  <Energy>  (38) 
68.435992170065

>  <Genealogy>  (38) 
COC(=O)CCCc1ccc2cc(C([NH-])=O)n(C(=O)[O-])c2c1 (protonated)
COC(=O)CCCc1ccc2cc(C([NH-])=O)n(C(=O)[O-])c2c1 (3D coordinates assigned)
COC(=O)CCCc1ccc2cc(C([NH-])=O)n(C(=O)[O-])c2c1 (optimized conformer: 68.435992170065 kcal/mol)

>  <smiles>  (38) 
COC(=O)CCCc1ccc2cc(C(N)=O)n(C(=O)O)c2c1

>  <score_type>  (38) 
oracle

>  <origin>  (38) 
adg

>  <m_score__min__energy>  (38) 
-10.9

>  <m_primary>  (38) 
energy

$$$$
38:0
     RDKit          3D

 49 51  0  0  0  0  0  0  0  0999 V2000
   -1.4020   20.9570  -31.6000 C   0  0  0  0  0  0  0  0  0  0  0  0
   -2.2130   21.9430  -31.9870 C   0  0  0  0  0  0  0  0  0  0  0  0
   -3.1020   22.6620  -31.0410 C   0  0  0  0  0  0  0  0  0  0  0  0
   -2.6070   23.2940  -30.0680 O   0  0  0  0  0  0  0  0  0  0  0  0
   -4.5290   22.6450  -31.2450 N   0  0  0  0  0  0  0  0  0  0  0  0
   -5.4090   23.6760  -31.0830 C   0  0  0  0  0  0  0  0  0  0  0  0
   -5.1140   25.0120  -30.5280 C   0  0  0  0  0  0  0  0  0  0  0  0
   -3.8860   25.6750  -30.8340 N   0  0  0  0  0  0  0  0  0  0  0  0
   -5.9290   25.5420  -29.7300 O   0  0  0  0  0  0  0  0  0  0  0  0
   -6.6890   23.3020  -31.4880 C   0  0  0  0  0  0  0  0  0  0  0  0
   -6.5710   21.9890  -31.8840 C   0  0  0  0  0  0  0  0  0  0  0  0
   -7.5370   21.1220  -32.3770 C   0  0  0  0  0  0  0  0  0  0  0  0
   -7.1420   19.8190  -32.7170 C   0  0  0  0  0  0  0  0  0  0  0  0
   -5.7980   19.4150  -32.5660 C   0  0  0  0  0  0  0  0  0  0  0  0
   -5.4150   18.0640  -32.8610 N   0  0  0  0  0  0  0  0  0  0  0  0
   -5.8330   16.9920  -31.9560 C   0  0  0  0  0  0  0  0  0  0  0  0
   -5.0320   15.7130  -32.2440 C   0  0  0  0  0  0  0  0  0  0  0  0
   -5.1000   15.2820  -33.6790 N   0  0  0  0  0  0  0  0  0  0  0  0
   -6.0420   14.1890  -33.8510 C   0  0  0  0  0  0  0  0  0  0  0  0
   -7.1950   14.4210  -34.2110 O   0  0  0  0  0  0  0  0  0  0  0  0
   -5.6210   12.7530  -33.6030 C   0  0  0  0  0  0  0  0  0  0  0  0
   -4.2330   12.6750  -33.3260 O   0  0  0  0  0  0  0  0  0  0  0  0
   -4.0220   12.4550  -31.9520 C   0  0  0  0  0  0  0  0  0  0  0  0
   -5.4330   16.3710  -34.6320 C   0  0  0  0  0  0  0  0  0  0  0  0
   -4.8660   17.7210  -34.1770 C   0  0  0  0  0  0  0  0  0  0  0  0
   -4.8410   20.3240  -32.0760 C   0  0  0  0  0  0  0  0  0  0  0  0
   -5.2620   21.6180  -31.7410 C   0  0  0  0  0  0  0  0  0  0  0  0
   -0.7600   20.4518  -32.3366 H   0  0  0  0  0  0  0  0  0  0  0  0
   -1.3753   20.6492  -30.5443 H   0  0  0  0  0  0  0  0  0  0  0  0
   -2.2231   22.2341  -33.0477 H   0  0  0  0  0  0  0  0  0  0  0  0
   -2.9800   25.3030  -30.4660 H   0  0  0  0  0  0  0  0  0  0  0  0
   -7.5975   23.9222  -31.4906 H   0  0  0  0  0  0  0  0  0  0  0  0
   -8.5810   21.4469  -32.4975 H   0  0  0  0  0  0  0  0  0  0  0  0
   -7.8856   19.1069  -33.1042 H   0  0  0  0  0  0  0  0  0  0  0  0
   -5.6569   17.3048  -30.9162 H   0  0  0  0  0  0  0  0  0  0  0  0
   -6.9029   16.7883  -32.1104 H   0  0  0  0  0  0  0  0  0  0  0  0
   -3.9788   15.8942  -31.9832 H   0  0  0  0  0  0  0  0  0  0  0  0
   -5.4753   14.9075  -31.6401 H   0  0  0  0  0  0  0  0  0  0  0  0
   -4.1390   14.9400  -33.9470 H   0  0  0  0  0  0  0  0  0  0  0  0
   -6.1827   12.3558  -32.7447 H   0  0  0  0  0  0  0  0  0  0  0  0
   -5.8335   12.1627  -34.5066 H   0  0  0  0  0  0  0  0  0  0  0  0
   -4.6679   13.1284  -31.3694 H   0  0  0  0  0  0  0  0  0  0  0  0
   -4.2648   11.4106  -31.7063 H   0  0  0  0  0  0  0  0  0  0  0  0
   -2.9684   12.6540  -31.7063 H   0  0  0  0  0  0  0  0  0  0  0  0
   -5.0123   16.1224  -35.6175 H   0  0  0  0  0  0  0  0  0  0  0  0
   -6.5284   16.4596  -34.6798 H   0  0  0  0  0  0  0  0  0  0  0  0
   -3.7700   17.6547  -34.1110 H   0  0  0  0  0  0  0  0  0  0  0  0
   -5.1435   18.4987  -34.9038 H   0  0  0  0  0  0  0  0  0  0  0  0
   -3.7887   20.0258  -31.9590 H   0  0  0  0  0  0  0  0  0  0  0  0
  1  2  2  0
  2  3  1  0
  3  4  2  0
  3  5  1  0
  5  6  1  0
  6  7  1  0
  7  8  1  0
  7  9  2  0
  6 10  2  0
 10 11  1  0
 11 12  2  0
 12 13  1  0
 13 14  2  0
 14 15  1  0
 15 16  1  0
 16 17  1  0
 17 18  1  0
 18 19  1  0
 19 20  2  0
 19 21  1  0
 21 22  1  0
 22 23  1  0
 18 24  1  0
 24 25  1  0
 14 26  1  0
 26 27  2  0
 27  5  1  0
 27 11  1  0
 25 15  1  0
  1 28  1  0
  1 29  1  0
  2 30  1  0
  8 31  1  0
 10 32  1  0
 12 33  1  0
 13 34  1  0
 16 35  1  0
 16 36  1  0
 17 37  1  0
 17 38  1  0
 18 39  1  0
 21 40  1  0
 21 41  1  0
 23 42  1  0
 23 43  1  0
 23 44  1  0
 24 45  1  0
 24 46  1  0
 25 47  1  0
 25 48  1  0
 26 49  1  0
M  CHG  2   8  -1  18   1
M  END
>  <UniqueID>  (39) 
39

>  <SMILES>  (39) 
C=CC(=O)n1c(C([NH-])=O)cc2ccc(N3CC[NH+](C(=O)COC)CC3)cc21

>  <Energy>  (39) 
107.52412638701834

>  <Genealogy>  (39) 
C=CC(=O)n1c(C([NH-])=O)cc2ccc(N3CC[NH+](C(=O)COC)CC3)cc21 (protonated)
C=CC(=O)n1c(C([NH-])=O)cc2ccc(N3CC[NH+](C(=O)COC)CC3)cc21 (3D coordinates assigned)
C=CC(=O)n1c(C([NH-])=O)cc2ccc(N3CC[NH+](C(=O)COC)CC3)cc21 (nonaromatic ring conformer: 107.52412638701834 kcal/mol)

>  <smiles>  (39) 
C=CC(=O)n1c(C(N)=O)cc2ccc(N3CCN(C(=O)COC)CC3)cc21

>  <score_type>  (39) 
oracle

>  <origin>  (39) 
adg

>  <m_score__min__energy>  (39) 
-9.9700000000000006

>  <m_primary>  (39) 
energy

$$$$
39:0
     RDKit          3D

 38 39  0  0  0  0  0  0  0  0999 V2000
   -3.0770   21.1020  -27.6410 C   0  0  0  0  0  0  0  0  0  0  0  0
   -3.1140   22.2830  -28.6240 C   0  0  0  0  0  0  0  0  0  0  0  0
   -4.2060   23.2700  -28.1670 C   0  0  0  0  0  0  0  0  0  0  0  0
   -1.7300   22.9790  -28.6380 C   0  0  0  0  0  0  0  0  0  0  0  0
   -1.6300   23.8830  -29.7070 O   0  0  0  0  0  0  0  0  0  0  0  0
   -3.4350   21.7490  -29.9170 O   0  0  0  0  0  0  0  0  0  0  0  0
   -3.9150   22.4710  -31.0200 C   0  0  0  0  0  0  0  0  0  0  0  0
   -3.1530   22.7710  -31.9780 O   0  0  0  0  0  0  0  0  0  0  0  0
   -5.3010   22.8460  -31.0680 N   0  0  0  0  0  0  0  0  0  0  0  0
   -5.8380   24.0910  -30.9250 C   0  0  0  0  0  0  0  0  0  0  0  0
   -5.1050   25.3160  -30.5440 C   0  0  0  0  0  0  0  0  0  0  0  0
   -3.6820   25.2960  -30.4680 N   0  0  0  0  0  0  0  0  0  0  0  0
   -5.7190   26.3920  -30.3200 O   0  0  0  0  0  0  0  0  0  0  0  0
   -7.2200   24.0490  -31.1040 C   0  0  0  0  0  0  0  0  0  0  0  0
   -7.5150   22.7290  -31.3540 C   0  0  0  0  0  0  0  0  0  0  0  0
   -8.7380   22.1220  -31.6260 C   0  0  0  0  0  0  0  0  0  0  0  0
   -8.7460   20.7400  -31.8790 C   0  0  0  0  0  0  0  0  0  0  0  0
   -7.5430   19.9890  -31.8480 C   0  0  0  0  0  0  0  0  0  0  0  0
   -7.5550   18.5200  -32.1830 C   0  0  0  0  0  0  0  0  0  0  0  0
   -6.6990   17.8220  -31.3500 F   0  0  0  0  0  0  0  0  0  0  0  0
   -8.8380   18.0290  -32.0260 F   0  0  0  0  0  0  0  0  0  0  0  0
   -7.1500   18.3140  -33.4910 F   0  0  0  0  0  0  0  0  0  0  0  0
   -6.3180   20.6490  -31.5930 C   0  0  0  0  0  0  0  0  0  0  0  0
   -6.3420   22.0230  -31.3250 C   0  0  0  0  0  0  0  0  0  0  0  0
   -3.0889   21.4832  -26.6092 H   0  0  0  0  0  0  0  0  0  0  0  0
   -3.9555   20.4607  -27.8051 H   0  0  0  0  0  0  0  0  0  0  0  0
   -2.1601   20.5169  -27.8051 H   0  0  0  0  0  0  0  0  0  0  0  0
   -4.2377   23.2986  -27.0678 H   0  0  0  0  0  0  0  0  0  0  0  0
   -3.9776   24.2742  -28.5535 H   0  0  0  0  0  0  0  0  0  0  0  0
   -5.1821   22.9416  -28.5535 H   0  0  0  0  0  0  0  0  0  0  0  0
   -1.5923   23.5240  -27.6925 H   0  0  0  0  0  0  0  0  0  0  0  0
   -0.9531   22.2095  -28.7572 H   0  0  0  0  0  0  0  0  0  0  0  0
   -2.3850   23.6870  -30.3200 H   0  0  0  0  0  0  0  0  0  0  0  0
   -3.1200   24.6590  -31.0780 H   0  0  0  0  0  0  0  0  0  0  0  0
   -7.9247   24.8923  -31.0556 H   0  0  0  0  0  0  0  0  0  0  0  0
   -9.6697   22.7066  -31.6423 H   0  0  0  0  0  0  0  0  0  0  0  0
   -9.6966   20.2343  -32.1038 H   0  0  0  0  0  0  0  0  0  0  0  0
   -5.3678   20.0950  -31.6050 H   0  0  0  0  0  0  0  0  0  0  0  0
  1  2  1  0
  2  3  1  0
  2  4  1  0
  4  5  1  0
  2  6  1  0
  6  7  1  0
  7  8  2  0
  7  9  1  0
  9 10  1  0
 10 11  1  0
 11 12  1  0
 11 13  2  0
 10 14  2  0
 14 15  1  0
 15 16  2  0
 16 17  1  0
 17 18  2  0
 18 19  1  0
 19 20  1  0
 19 21  1  0
 19 22  1  0
 18 23  1  0
 23 24  2  0
 24  9  1  0
 24 15  1  0
  1 25  1  0
  1 26  1  0
  1 27  1  0
  3 28  1  0
  3 29  1  0
  3 30  1  0
  4 31  1  0
  4 32  1  0
  5 33  1  0
 12 34  1  0
 14 35  1  0
 16 36  1  0
 17 37  1  0
 23 38  1  0
M  CHG  1  12  -1
M  END
>  <UniqueID>  (40) 
40

>  <SMILES>  (40) 
CC(C)(CO)OC(=O)n1c(C([NH-])=O)cc2ccc(C(F)(F)F)cc21

>  <Energy>  (40) 
73.00787305791614

>  <Genealogy>  (40) 
CC(C)(CO)OC(=O)n1c(C([NH-])=O)cc2ccc(C(F)(F)F)cc21 (protonated)
CC(C)(CO)OC(=O)n1c(C([NH-])=O)cc2ccc(C(F)(F)F)cc21 (3D coordinates assigned)
CC(C)(CO)OC(=O)n1c(C([NH-])=O)cc2ccc(C(F)(F)F)cc21 (optimized conformer: 73.00787305791614 kcal/mol)

>  <smiles>  (40) 
CC(C)(CO)OC(=O)n1c(C(N)=O)cc2ccc(C(F)(F)F)cc21

>  <score_type>  (40) 
oracle

>  <origin>  (40) 
adg

>  <m_score__min__energy>  (40) 
-10.539999999999999

>  <m_primary>  (40) 
energy

$$$$
40:0
     RDKit          3D

 48 50  0  0  0  0  0  0  0  0999 V2000
   -0.9710   23.4650  -26.5230 C   0  0  0  0  0  0  0  0  0  0  0  0
   -2.2920   23.9660  -27.1240 C   0  0  0  0  0  0  0  0  0  0  0  0
   -2.7610   25.2480  -26.4270 C   0  0  0  0  0  0  0  0  0  0  0  0
   -2.1270   24.2070  -28.5980 C   0  0  0  0  0  0  0  0  0  0  0  0
   -2.5210   25.2950  -29.1000 O   0  0  0  0  0  0  0  0  0  0  0  0
   -1.5400   23.2180  -29.3990 O   0  0  0  0  0  0  0  0  0  0  0  0
   -2.2720   22.1750  -30.0420 C   0  0  0  0  0  0  0  0  0  0  0  0
   -3.0580   22.7200  -31.0980 O   0  0  0  0  0  0  0  0  0  0  0  0
   -4.0550   22.0020  -31.7650 C   0  0  0  0  0  0  0  0  0  0  0  0
   -3.7520   21.1620  -32.6540 O   0  0  0  0  0  0  0  0  0  0  0  0
   -5.4340   22.2290  -31.4420 N   0  0  0  0  0  0  0  0  0  0  0  0
   -5.9910   23.3470  -30.8940 C   0  0  0  0  0  0  0  0  0  0  0  0
   -5.2430   24.5280  -30.4050 C   0  0  0  0  0  0  0  0  0  0  0  0
   -5.1960   24.8390  -29.0110 N   0  0  0  0  0  0  0  0  0  0  0  0
   -4.6170   25.2590  -31.2170 O   0  0  0  0  0  0  0  0  0  0  0  0
   -7.3740   23.1950  -30.7840 C   0  0  0  0  0  0  0  0  0  0  0  0
   -7.6470   21.9440  -31.2920 C   0  0  0  0  0  0  0  0  0  0  0  0
   -8.8610   21.2800  -31.4380 C   0  0  0  0  0  0  0  0  0  0  0  0
   -8.8470   20.0030  -32.0270 C   0  0  0  0  0  0  0  0  0  0  0  0
   -7.6320   19.4310  -32.4770 C   0  0  0  0  0  0  0  0  0  0  0  0
   -7.6190   18.0580  -33.0890 C   0  0  0  0  0  0  0  0  0  0  0  0
   -6.3010   17.7760  -33.6520 N   0  0  0  0  0  0  0  0  0  0  0  0
   -5.3860   16.9180  -33.1720 C   0  0  0  0  0  0  0  0  0  0  0  0
   -4.3290   16.8950  -34.0540 C   0  0  0  0  0  0  0  0  0  0  0  0
   -4.5830   17.7260  -35.0870 N   0  0  0  0  0  0  0  0  0  0  0  0
   -5.7980   18.2420  -34.8110 C   0  0  0  0  0  0  0  0  0  0  0  0
   -6.4180   20.1300  -32.3000 C   0  0  0  0  0  0  0  0  0  0  0  0
   -6.4590   21.3860  -31.6870 C   0  0  0  0  0  0  0  0  0  0  0  0
   -1.0351   23.4893  -25.4251 H   0  0  0  0  0  0  0  0  0  0  0  0
   -0.7842   22.4336  -26.8566 H   0  0  0  0  0  0  0  0  0  0  0  0
   -0.1472   24.1131  -26.8566 H   0  0  0  0  0  0  0  0  0  0  0  0
   -3.0584   23.1924  -26.9685 H   0  0  0  0  0  0  0  0  0  0  0  0
   -2.7112   25.1118  -25.3366 H   0  0  0  0  0  0  0  0  0  0  0  0
   -2.1107   26.0847  -26.7221 H   0  0  0  0  0  0  0  0  0  0  0  0
   -3.7977   25.4676  -26.7221 H   0  0  0  0  0  0  0  0  0  0  0  0
   -1.5694   21.4353  -30.4534 H   0  0  0  0  0  0  0  0  0  0  0  0
   -2.9332   21.6891  -29.3094 H   0  0  0  0  0  0  0  0  0  0  0  0
   -5.7430   24.2870  -28.3140 H   0  0  0  0  0  0  0  0  0  0  0  0
   -4.6450   25.6610  -28.6760 H   0  0  0  0  0  0  0  0  0  0  0  0
   -8.0938   23.9207  -30.3776 H   0  0  0  0  0  0  0  0  0  0  0  0
   -9.8026   21.7397  -31.1031 H   0  0  0  0  0  0  0  0  0  0  0  0
   -9.7876   19.4438  -32.1391 H   0  0  0  0  0  0  0  0  0  0  0  0
   -7.8521   17.3118  -32.3152 H   0  0  0  0  0  0  0  0  0  0  0  0
   -8.3718   18.0118  -33.8897 H   0  0  0  0  0  0  0  0  0  0  0  0
   -5.4666   16.3376  -32.2410 H   0  0  0  0  0  0  0  0  0  0  0  0
   -3.4169   16.2917  -33.9351 H   0  0  0  0  0  0  0  0  0  0  0  0
   -6.3191   18.9620  -35.4592 H   0  0  0  0  0  0  0  0  0  0  0  0
   -5.4641   19.6973  -32.6359 H   0  0  0  0  0  0  0  0  0  0  0  0
  1  2  1  0
  2  3  1  0
  2  4  1  0
  4  5  2  0
  4  6  1  0
  6  7  1  0
  7  8  1  0
  8  9  1  0
  9 10  2  0
  9 11  1  0
 11 12  1  0
 12 13  1  0
 13 14  1  0
 13 15  2  0
 12 16  2  0
 16 17  1  0
 17 18  2  0
 18 19  1  0
 19 20  2  0
 20 21  1  0
 21 22  1  0
 22 23  1  0
 23 24  2  0
 24 25  1  0
 25 26  2  0
 20 27  1  0
 27 28  2  0
 28 11  1  0
 28 17  1  0
 26 22  1  0
  1 29  1  0
  1 30  1  0
  1 31  1  0
  2 32  1  0
  3 33  1  0
  3 34  1  0
  3 35  1  0
  7 36  1  0
  7 37  1  0
 14 38  1  0
 14 39  1  0
 16 40  1  0
 18 41  1  0
 19 42  1  0
 21 43  1  0
 21 44  1  0
 23 45  1  0
 24 46  1  0
 26 47  1  0
 27 48  1  0
M  END
>  <UniqueID>  (41) 
41

>  <SMILES>  (41) 
CC(C)C(=O)OCOC(=O)n1c(C(N)=O)cc2ccc(Cn3ccnc3)cc21

>  <Energy>  (41) 
108.59651311556371

>  <Genealogy>  (41) 
CC(C)C(=O)OCOC(=O)n1c(C(N)=O)cc2ccc(Cn3ccnc3)cc21 (3D coordinates assigned)
CC(C)C(=O)OCOC(=O)n1c(C(N)=O)cc2ccc(Cn3ccnc3)cc21 (optimized conformer: 108.59651311556371 kcal/mol)

>  <smiles>  (41) 
CC(C)C(=O)OCOC(=O)n1c(C(N)=O)cc2ccc(Cn3ccnc3)cc21

>  <score_type>  (41) 
oracle

>  <origin>  (41) 
adg

>  <m_score__min__energy>  (41) 
-10.09

>  <m_primary>  (41) 
energy

$$$$
41:0
     RDKit          3D

 41 43  0  0  0  0  0  0  0  0999 V2000
   -4.1790   25.5520  -30.7350 N   0  0  0  0  0  0  0  0  0  0  0  0
   -5.5130   25.0910  -30.5070 C   0  0  0  0  0  0  0  0  0  0  0  0
   -6.3480   25.8530  -29.9520 O   0  0  0  0  0  0  0  0  0  0  0  0
   -5.8840   23.7020  -30.8260 C   0  0  0  0  0  0  0  0  0  0  0  0
   -7.1910   23.3330  -31.1270 C   0  0  0  0  0  0  0  0  0  0  0  0
   -7.0970   22.0640  -31.6490 C   0  0  0  0  0  0  0  0  0  0  0  0
   -8.0910   21.2500  -32.1770 C   0  0  0  0  0  0  0  0  0  0  0  0
   -7.7120   20.0150  -32.7260 C   0  0  0  0  0  0  0  0  0  0  0  0
   -6.3510   19.6010  -32.7230 C   0  0  0  0  0  0  0  0  0  0  0  0
   -5.9530   18.3750  -33.3970 N   0  0  0  0  0  0  0  0  0  0  0  0
   -4.6370   18.2660  -34.0450 C   0  0  0  0  0  0  0  0  0  0  0  0
   -4.6430   17.1460  -35.0940 C   0  0  0  0  0  0  0  0  0  0  0  0
   -5.0210   15.8370  -34.5220 N   0  0  0  0  0  0  0  0  0  0  0  0
   -6.0780   15.9040  -33.4820 C   0  0  0  0  0  0  0  0  0  0  0  0
   -6.8690   17.2250  -33.4760 C   0  0  0  0  0  0  0  0  0  0  0  0
   -5.3810   20.4460  -32.1210 C   0  0  0  0  0  0  0  0  0  0  0  0
   -5.7770   21.6930  -31.6230 C   0  0  0  0  0  0  0  0  0  0  0  0
   -5.0110   22.6860  -31.1050 N   0  0  0  0  0  0  0  0  0  0  0  0
   -3.5810   22.6570  -30.8700 C   0  0  0  0  0  0  0  0  0  0  0  0
   -2.7890   22.5210  -31.8490 O   0  0  0  0  0  0  0  0  0  0  0  0
   -3.0050   22.8520  -29.4860 C   0  0  0  0  0  0  0  0  0  0  0  0
   -1.9530   23.9240  -29.4470 C   0  0  0  0  0  0  0  0  0  0  0  0
   -0.7330   23.6190  -29.4720 O   0  0  0  0  0  0  0  0  0  0  0  0
   -2.3270   25.2600  -29.3510 O   0  0  0  0  0  0  0  0  0  0  0  0
   -3.4780   24.9390  -31.2150 H   0  0  0  0  0  0  0  0  0  0  0  0
   -3.8870   26.5080  -30.4250 H   0  0  0  0  0  0  0  0  0  0  0  0
   -8.1040   23.9285  -30.9792 H   0  0  0  0  0  0  0  0  0  0  0  0
   -9.1451   21.5642  -32.1652 H   0  0  0  0  0  0  0  0  0  0  0  0
   -8.4778   19.3583  -33.1645 H   0  0  0  0  0  0  0  0  0  0  0  0
   -4.3957   19.2202  -34.5362 H   0  0  0  0  0  0  0  0  0  0  0  0
   -3.8829   18.0310  -33.2794 H   0  0  0  0  0  0  0  0  0  0  0  0
   -5.3624   17.4067  -35.8842 H   0  0  0  0  0  0  0  0  0  0  0  0
   -3.6213   17.0547  -35.4913 H   0  0  0  0  0  0  0  0  0  0  0  0
   -4.1640   15.4070  -34.0850 H   0  0  0  0  0  0  0  0  0  0  0  0
   -6.7847   15.0787  -33.6536 H   0  0  0  0  0  0  0  0  0  0  0  0
   -5.5710   15.8326  -32.5084 H   0  0  0  0  0  0  0  0  0  0  0  0
   -7.4608   17.2966  -34.4005 H   0  0  0  0  0  0  0  0  0  0  0  0
   -7.5324   17.2381  -32.5987 H   0  0  0  0  0  0  0  0  0  0  0  0
   -4.3316   20.1246  -32.0470 H   0  0  0  0  0  0  0  0  0  0  0  0
   -3.8191   23.1315  -28.8011 H   0  0  0  0  0  0  0  0  0  0  0  0
   -2.5303   21.9064  -29.1850 H   0  0  0  0  0  0  0  0  0  0  0  0
  1  2  1  0
  2  3  2  0
  2  4  1  0
  4  5  2  0
  5  6  1  0
  6  7  2  0
  7  8  1  0
  8  9  2  0
  9 10  1  0
 10 11  1  0
 11 12  1  0
 12 13  1  0
 13 14  1  0
 14 15  1  0
  9 16  1  0
 16 17  2  0
 17 18  1  0
 18 19  1  0
 19 20  2  0
 19 21  1  0
 21 22  1  0
 22 23  2  0
 22 24  1  0
 18  4  1  0
 17  6  1  0
 15 10  1  0
  1 25  1  0
  1 26  1  0
  5 27  1  0
  7 28  1  0
  8 29  1  0
 11 30  1  0
 11 31  1  0
 12 32  1  0
 12 33  1  0
 13 34  1  0
 14 35  1  0
 14 36  1  0
 15 37  1  0
 15 38  1  0
 16 39  1  0
 21 40  1  0
 21 41  1  0
M  CHG  1  24  -1
M  END
>  <UniqueID>  (42) 
42

>  <SMILES>  (42) 
NC(=O)c1cc2ccc(N3CCNCC3)cc2n1C(=O)CC(=O)[O-]

>  <Energy>  (42) 
92.8458869099375

>  <Genealogy>  (42) 
NC(=O)c1cc2ccc(N3CCNCC3)cc2n1C(=O)CC(=O)[O-] (protonated)
NC(=O)c1cc2ccc(N3CCNCC3)cc2n1C(=O)CC(=O)[O-] (3D coordinates assigned)
NC(=O)c1cc2ccc(N3CCNCC3)cc2n1C(=O)CC(=O)[O-] (nonaromatic ring conformer: 92.8458869099375 kcal/mol)

>  <smiles>  (42) 
NC(=O)c1cc2ccc(N3CCNCC3)cc2n1C(=O)CC(=O)O

>  <score_type>  (42) 
oracle

>  <origin>  (42) 
adg

>  <m_score__min__energy>  (42) 
-11.25

>  <m_primary>  (42) 
energy

$$$$
42:0
     RDKit          3D

 30 31  0  0  0  0  0  0  0  0999 V2000
   -1.4760   25.9930  -28.9520 N   0  0  0  0  0  0  0  0  0  0  0  0
   -0.8070   24.7350  -28.9160 C   0  0  0  0  0  0  0  0  0  0  0  0
    0.3240   24.6530  -28.3650 O   0  0  0  0  0  0  0  0  0  0  0  0
   -1.3910   23.5440  -29.5660 C   0  0  0  0  0  0  0  0  0  0  0  0
   -0.6490   22.4100  -29.8930 C   0  0  0  0  0  0  0  0  0  0  0  0
   -1.5230   21.5830  -30.5610 C   0  0  0  0  0  0  0  0  0  0  0  0
   -1.3190   20.3170  -31.1050 C   0  0  0  0  0  0  0  0  0  0  0  0
   -2.4120   19.6790  -31.7150 C   0  0  0  0  0  0  0  0  0  0  0  0
   -3.6750   20.3120  -31.7630 C   0  0  0  0  0  0  0  0  0  0  0  0
   -4.7890   19.6450  -32.3820 C   0  0  0  0  0  0  0  0  0  0  0  0
   -5.7240   19.0880  -32.9010 C   0  0  0  0  0  0  0  0  0  0  0  0
   -6.8650   18.4120  -33.5280 C   0  0  0  0  0  0  0  0  0  0  0  0
   -8.1370   18.5940  -32.6980 C   0  0  0  0  0  0  0  0  0  0  0  0
   -8.8170   19.7610  -33.0780 O   0  0  0  0  0  0  0  0  0  0  0  0
   -3.8500   21.5940  -31.2030 C   0  0  0  0  0  0  0  0  0  0  0  0
   -2.7400   22.2140  -30.6160 C   0  0  0  0  0  0  0  0  0  0  0  0
   -2.6760   23.4190  -30.0060 N   0  0  0  0  0  0  0  0  0  0  0  0
   -3.7710   24.3240  -29.7860 C   0  0  0  0  0  0  0  0  0  0  0  0
   -4.6180   24.0930  -28.8850 O   0  0  0  0  0  0  0  0  0  0  0  0
   -3.8880   25.4810  -30.5500 O   0  0  0  0  0  0  0  0  0  0  0  0
   -2.5180   26.0460  -28.9680 H   0  0  0  0  0  0  0  0  0  0  0  0
    0.4098   22.2172  -29.6655 H   0  0  0  0  0  0  0  0  0  0  0  0
   -0.3328   19.8319  -31.0584 H   0  0  0  0  0  0  0  0  0  0  0  0
   -2.2841   18.6804  -32.1581 H   0  0  0  0  0  0  0  0  0  0  0  0
   -7.0266   18.8350  -34.5305 H   0  0  0  0  0  0  0  0  0  0  0  0
   -6.6413   17.3370  -33.5934 H   0  0  0  0  0  0  0  0  0  0  0  0
   -8.7955   17.7265  -32.8522 H   0  0  0  0  0  0  0  0  0  0  0  0
   -7.8571   18.6784  -31.6376 H   0  0  0  0  0  0  0  0  0  0  0  0
   -8.9530   19.7090  -34.0600 H   0  0  0  0  0  0  0  0  0  0  0  0
   -4.8301   22.0928  -31.2265 H   0  0  0  0  0  0  0  0  0  0  0  0
  1  2  1  0
  2  3  2  0
  2  4  1  0
  4  5  2  0
  5  6  1  0
  6  7  2  0
  7  8  1  0
  8  9  2  0
  9 10  1  0
 10 11  3  0
 11 12  1  0
 12 13  1  0
 13 14  1  0
  9 15  1  0
 15 16  2  0
 16 17  1  0
 17 18  1  0
 18 19  2  0
 18 20  1  0
 17  4  1  0
 16  6  1  0
  1 21  1  0
  5 22  1  0
  7 23  1  0
  8 24  1  0
 12 25  1  0
 12 26  1  0
 13 27  1  0
 13 28  1  0
 14 29  1  0
 15 30  1  0
M  CHG  2   1  -1  20  -1
M  END
>  <UniqueID>  (43) 
43

>  <SMILES>  (43) 
[NH-]C(=O)c1cc2ccc(C#CCCO)cc2n1C(=O)[O-]

>  <Energy>  (43) 
63.60139359508459

>  <Genealogy>  (43) 
[NH-]C(=O)c1cc2ccc(C#CCCO)cc2n1C(=O)[O-] (protonated)
[NH-]C(=O)c1cc2ccc(C#CCCO)cc2n1C(=O)[O-] (3D coordinates assigned)
[NH-]C(=O)c1cc2ccc(C#CCCO)cc2n1C(=O)[O-] (optimized conformer: 63.60139359508459 kcal/mol)

>  <smiles>  (43) 
NC(=O)c1cc2ccc(C#CCCO)cc2n1C(=O)O

>  <score_type>  (43) 
oracle

>  <origin>  (43) 
adg

>  <m_score__min__energy>  (43) 
-10.49

>  <m_primary>  (43) 
energy

$$$$
43:0
     RDKit          3D

 33 34  0  0  0  0  0  0  0  0999 V2000
   -1.8400   22.2910  -30.4590 C   0  0  0  0  0  0  0  0  0  0  0  0
   -3.1920   22.8290  -30.2410 N   0  0  0  0  0  0  0  0  0  0  0  0
   -3.7480   22.3400  -28.9710 C   0  0  0  0  0  0  0  0  0  0  0  0
   -4.0760   22.4680  -31.3280 C   0  0  0  0  0  0  0  0  0  0  0  0
   -3.6450   21.7900  -32.3020 O   0  0  0  0  0  0  0  0  0  0  0  0
   -5.4730   22.8000  -31.2650 N   0  0  0  0  0  0  0  0  0  0  0  0
   -6.0290   23.9720  -30.8510 C   0  0  0  0  0  0  0  0  0  0  0  0
   -5.2890   25.1880  -30.4540 C   0  0  0  0  0  0  0  0  0  0  0  0
   -3.8850   25.2730  -30.6850 N   0  0  0  0  0  0  0  0  0  0  0  0
   -5.8790   26.1490  -29.8950 O   0  0  0  0  0  0  0  0  0  0  0  0
   -7.4200   23.8940  -30.8980 C   0  0  0  0  0  0  0  0  0  0  0  0
   -7.7000   22.6270  -31.3560 C   0  0  0  0  0  0  0  0  0  0  0  0
   -8.9240   22.0040  -31.5780 C   0  0  0  0  0  0  0  0  0  0  0  0
   -8.9150   20.6720  -32.0260 C   0  0  0  0  0  0  0  0  0  0  0  0
   -7.6910   19.9900  -32.2350 C   0  0  0  0  0  0  0  0  0  0  0  0
   -7.7020   18.5610  -32.6990 C   0  0  0  0  0  0  0  0  0  0  0  0
   -8.6500   17.8480  -31.9880 F   0  0  0  0  0  0  0  0  0  0  0  0
   -6.4560   17.9960  -32.4950 F   0  0  0  0  0  0  0  0  0  0  0  0
   -6.4670   20.6540  -31.9960 C   0  0  0  0  0  0  0  0  0  0  0  0
   -6.5070   21.9860  -31.5680 C   0  0  0  0  0  0  0  0  0  0  0  0
   -1.3603   22.1001  -29.4877 H   0  0  0  0  0  0  0  0  0  0  0  0
   -1.9065   21.3508  -31.0261 H   0  0  0  0  0  0  0  0  0  0  0  0
   -1.2424   23.0198  -31.0261 H   0  0  0  0  0  0  0  0  0  0  0  0
   -3.1240   23.8730  -30.1820 H   0  0  0  0  0  0  0  0  0  0  0  0
   -3.2139   22.8097  -28.1319 H   0  0  0  0  0  0  0  0  0  0  0  0
   -4.8162   22.5966  -28.9154 H   0  0  0  0  0  0  0  0  0  0  0  0
   -3.6299   21.2478  -28.9154 H   0  0  0  0  0  0  0  0  0  0  0  0
   -3.4790   26.0490  -31.2530 H   0  0  0  0  0  0  0  0  0  0  0  0
   -8.1411   24.6790  -30.6265 H   0  0  0  0  0  0  0  0  0  0  0  0
   -9.8705   22.5380  -31.4079 H   0  0  0  0  0  0  0  0  0  0  0  0
   -9.8668   20.1544  -32.2161 H   0  0  0  0  0  0  0  0  0  0  0  0
   -7.9479   18.5311  -33.7708 H   0  0  0  0  0  0  0  0  0  0  0  0
   -5.5070   20.1373  -32.1426 H   0  0  0  0  0  0  0  0  0  0  0  0
  1  2  1  0
  2  3  1  0
  2  4  1  0
  4  5  2  0
  4  6  1  0
  6  7  1  0
  7  8  1  0
  8  9  1  0
  8 10  2  0
  7 11  2  0
 11 12  1  0
 12 13  2  0
 13 14  1  0
 14 15  2  0
 15 16  1  0
 16 17  1  0
 16 18  1  0
 15 19  1  0
 19 20  2  0
 20  6  1  0
 20 12  1  0
  1 21  1  0
  1 22  1  0
  1 23  1  0
  2 24  1  0
  3 25  1  0
  3 26  1  0
  3 27  1  0
  9 28  1  0
 11 29  1  0
 13 30  1  0
 14 31  1  0
 16 32  1  0
 19 33  1  0
M  CHG  2   2   1   9  -1
M  END
>  <UniqueID>  (44) 
44

>  <SMILES>  (44) 
C[NH+](C)C(=O)n1c(C([NH-])=O)cc2ccc(C(F)F)cc21

>  <Energy>  (44) 
72.53743445214387

>  <Genealogy>  (44) 
C[NH+](C)C(=O)n1c(C([NH-])=O)cc2ccc(C(F)F)cc21 (protonated)
C[NH+](C)C(=O)n1c(C([NH-])=O)cc2ccc(C(F)F)cc21 (3D coordinates assigned)
C[NH+](C)C(=O)n1c(C([NH-])=O)cc2ccc(C(F)F)cc21 (optimized conformer: 72.53743445214387 kcal/mol)

>  <smiles>  (44) 
CN(C)C(=O)n1c(C(N)=O)cc2ccc(C(F)F)cc21

>  <score_type>  (44) 
oracle

>  <origin>  (44) 
adg

>  <m_score__min__energy>  (44) 
-8.3800000000000008

>  <m_primary>  (44) 
energy

$$$$
44:0
     RDKit          3D

 31 32  0  0  0  0  0  0  0  0999 V2000
   -1.4600   23.1920  -28.5260 C   0  0  0  0  0  0  0  0  0  0  0  0
   -2.2480   23.3010  -29.7480 N   0  0  0  0  0  0  0  0  0  0  0  0
   -3.2410   22.3250  -30.0920 C   0  0  0  0  0  0  0  0  0  0  0  0
   -3.4440   21.3390  -29.3320 O   0  0  0  0  0  0  0  0  0  0  0  0
   -4.0230   22.4550  -31.3350 C   0  0  0  0  0  0  0  0  0  0  0  0
   -3.4650   22.2780  -32.4510 O   0  0  0  0  0  0  0  0  0  0  0  0
   -5.4200   22.7810  -31.2880 N   0  0  0  0  0  0  0  0  0  0  0  0
   -5.9920   23.9420  -30.8610 C   0  0  0  0  0  0  0  0  0  0  0  0
   -5.2680   25.1690  -30.4640 C   0  0  0  0  0  0  0  0  0  0  0  0
   -3.8660   25.2990  -30.6840 N   0  0  0  0  0  0  0  0  0  0  0  0
   -5.9020   26.1290  -29.9500 O   0  0  0  0  0  0  0  0  0  0  0  0
   -7.3820   23.8400  -30.8900 C   0  0  0  0  0  0  0  0  0  0  0  0
   -7.6450   22.5690  -31.3500 C   0  0  0  0  0  0  0  0  0  0  0  0
   -8.8600   21.9240  -31.5570 C   0  0  0  0  0  0  0  0  0  0  0  0
   -8.8320   20.5940  -32.0080 C   0  0  0  0  0  0  0  0  0  0  0  0
   -7.5980   19.9340  -32.2350 C   0  0  0  0  0  0  0  0  0  0  0  0
   -7.5890   18.5070  -32.7030 C   0  0  0  0  0  0  0  0  0  0  0  0
   -8.5990   17.8030  -32.0740 F   0  0  0  0  0  0  0  0  0  0  0  0
   -6.3710   17.9270  -32.4010 F   0  0  0  0  0  0  0  0  0  0  0  0
   -6.3830   20.6210  -32.0100 C   0  0  0  0  0  0  0  0  0  0  0  0
   -6.4440   21.9490  -31.5790 C   0  0  0  0  0  0  0  0  0  0  0  0
   -2.1228   23.2837  -27.6529 H   0  0  0  0  0  0  0  0  0  0  0  0
   -0.9544   22.2154  -28.5016 H   0  0  0  0  0  0  0  0  0  0  0  0
   -0.7083   23.9947  -28.5016 H   0  0  0  0  0  0  0  0  0  0  0  0
   -2.0790   24.1170  -30.3780 H   0  0  0  0  0  0  0  0  0  0  0  0
   -3.4870   26.0430  -31.3100 H   0  0  0  0  0  0  0  0  0  0  0  0
   -8.1133   24.6110  -30.6058 H   0  0  0  0  0  0  0  0  0  0  0  0
   -9.8139   22.4399  -31.3731 H   0  0  0  0  0  0  0  0  0  0  0  0
   -9.7766   20.0594  -32.1868 H   0  0  0  0  0  0  0  0  0  0  0  0
   -7.7486   18.4833  -33.7911 H   0  0  0  0  0  0  0  0  0  0  0  0
   -5.4151   20.1233  -32.1700 H   0  0  0  0  0  0  0  0  0  0  0  0
  1  2  1  0
  2  3  1  0
  3  4  2  0
  3  5  1  0
  5  6  2  0
  5  7  1  0
  7  8  1  0
  8  9  1  0
  9 10  1  0
  9 11  2  0
  8 12  2  0
 12 13  1  0
 13 14  2  0
 14 15  1  0
 15 16  2  0
 16 17  1  0
 17 18  1  0
 17 19  1  0
 16 20  1  0
 20 21  2  0
 21  7  1  0
 21 13  1  0
  1 22  1  0
  1 23  1  0
  1 24  1  0
  2 25  1  0
 10 26  1  0
 12 27  1  0
 14 28  1  0
 15 29  1  0
 17 30  1  0
 20 31  1  0
M  CHG  1  10  -1
M  END
>  <UniqueID>  (45) 
45

>  <SMILES>  (45) 
CNC(=O)C(=O)n1c(C([NH-])=O)cc2ccc(C(F)F)cc21

>  <Energy>  (45) 
67.42222011473734

>  <Genealogy>  (45) 
CNC(=O)C(=O)n1c(C([NH-])=O)cc2ccc(C(F)F)cc21 (protonated)
CNC(=O)C(=O)n1c(C([NH-])=O)cc2ccc(C(F)F)cc21 (3D coordinates assigned)
CNC(=O)C(=O)n1c(C([NH-])=O)cc2ccc(C(F)F)cc21 (optimized conformer: 67.42222011473734 kcal/mol)

>  <smiles>  (45) 
CNC(=O)C(=O)n1c(C(N)=O)cc2ccc(C(F)F)cc21

>  <score_type>  (45) 
oracle

>  <origin>  (45) 
adg

>  <m_score__min__energy>  (45) 
-9.4800000000000004

>  <m_primary>  (45) 
energy

$$$$
45:0
     RDKit          3D

 39 40  0  0  0  0  0  0  0  0999 V2000
   -6.7380   17.8410  -31.5570 C   0  0  0  0  0  0  0  0  0  0  0  0
   -5.8160   18.7790  -31.7690 C   0  0  0  0  0  0  0  0  0  0  0  0
   -6.0750   19.9820  -32.5820 C   0  0  0  0  0  0  0  0  0  0  0  0
   -5.8500   19.9410  -33.8210 O   0  0  0  0  0  0  0  0  0  0  0  0
   -6.5620   21.2000  -31.9940 N   0  0  0  0  0  0  0  0  0  0  0  0
   -7.8620   21.5730  -31.8320 C   0  0  0  0  0  0  0  0  0  0  0  0
   -9.0380   20.8640  -32.3780 C   0  0  0  0  0  0  0  0  0  0  0  0
   -8.9010   19.8740  -33.3990 N   0  0  0  0  0  0  0  0  0  0  0  0
  -10.1890   21.1700  -31.9670 O   0  0  0  0  0  0  0  0  0  0  0  0
   -7.9460   22.7330  -31.0640 C   0  0  0  0  0  0  0  0  0  0  0  0
   -6.6450   23.0600  -30.7560 C   0  0  0  0  0  0  0  0  0  0  0  0
   -6.1410   24.1040  -29.9880 C   0  0  0  0  0  0  0  0  0  0  0  0
   -4.7520   24.1690  -29.7910 C   0  0  0  0  0  0  0  0  0  0  0  0
   -3.8920   23.1840  -30.3520 C   0  0  0  0  0  0  0  0  0  0  0  0
   -2.4670   23.2240  -30.1500 N   0  0  0  0  0  0  0  0  0  0  0  0
   -1.7580   22.3120  -29.2510 C   0  0  0  0  0  0  0  0  0  0  0  0
   -2.3010   22.4150  -27.8610 C   0  0  0  0  0  0  0  0  0  0  0  0
   -3.2630   21.6790  -27.5090 O   0  0  0  0  0  0  0  0  0  0  0  0
   -1.7020   23.2950  -26.9540 O   0  0  0  0  0  0  0  0  0  0  0  0
   -1.8320   24.7130  -27.0380 C   0  0  0  0  0  0  0  0  0  0  0  0
   -1.0110   25.2430  -28.1700 C   0  0  0  0  0  0  0  0  0  0  0  0
    0.2440   25.2770  -28.0830 O   0  0  0  0  0  0  0  0  0  0  0  0
   -1.6320   25.6690  -29.3380 O   0  0  0  0  0  0  0  0  0  0  0  0
   -4.4470   22.1380  -31.1210 C   0  0  0  0  0  0  0  0  0  0  0  0
   -5.8310   22.1150  -31.3210 C   0  0  0  0  0  0  0  0  0  0  0  0
   -6.4963   16.9611  -30.9427 H   0  0  0  0  0  0  0  0  0  0  0  0
   -7.7410   17.9464  -31.9962 H   0  0  0  0  0  0  0  0  0  0  0  0
   -4.8204   18.6510  -31.3191 H   0  0  0  0  0  0  0  0  0  0  0  0
   -9.7390   19.3450  -33.7280 H   0  0  0  0  0  0  0  0  0  0  0  0
   -7.9990   19.7370  -33.9040 H   0  0  0  0  0  0  0  0  0  0  0  0
   -8.8577   23.2722  -30.7673 H   0  0  0  0  0  0  0  0  0  0  0  0
   -6.8109   24.8571  -29.5475 H   0  0  0  0  0  0  0  0  0  0  0  0
   -4.3244   24.9900  -29.1968 H   0  0  0  0  0  0  0  0  0  0  0  0
   -1.9160   23.9430  -30.6750 H   0  0  0  0  0  0  0  0  0  0  0  0
   -1.8814   21.2802  -29.6118 H   0  0  0  0  0  0  0  0  0  0  0  0
   -0.6926   22.5852  -29.2367 H   0  0  0  0  0  0  0  0  0  0  0  0
   -2.8883   24.9714  -27.2036 H   0  0  0  0  0  0  0  0  0  0  0  0
   -1.4775   25.1612  -26.0981 H   0  0  0  0  0  0  0  0  0  0  0  0
   -3.8042   21.3573  -31.5538 H   0  0  0  0  0  0  0  0  0  0  0  0
  1  2  2  0
  2  3  1  0
  3  4  2  0
  3  5  1  0
  5  6  1  0
  6  7  1  0
  7  8  1  0
  7  9  2  0
  6 10  2  0
 10 11  1  0
 11 12  2  0
 12 13  1  0
 13 14  2  0
 14 15  1  0
 15 16  1  0
 16 17  1  0
 17 18  2  0
 17 19  1  0
 19 20  1  0
 20 21  1  0
 21 22  2  0
 21 23  1  0
 14 24  1  0
 24 25  2  0
 25  5  1  0
 25 11  1  0
  1 26  1  0
  1 27  1  0
  2 28  1  0
  8 29  1  0
  8 30  1  0
 10 31  1  0
 12 32  1  0
 13 33  1  0
 15 34  1  0
 16 35  1  0
 16 36  1  0
 20 37  1  0
 20 38  1  0
 24 39  1  0
M  CHG  1  23  -1
M  END
>  <UniqueID>  (46) 
46

>  <SMILES>  (46) 
C=CC(=O)n1c(C(N)=O)cc2ccc(NCC(=O)OCC(=O)[O-])cc21

>  <Energy>  (46) 
74.77533693017834

>  <Genealogy>  (46) 
C=CC(=O)n1c(C(N)=O)cc2ccc(NCC(=O)OCC(=O)[O-])cc21 (protonated)
C=CC(=O)n1c(C(N)=O)cc2ccc(NCC(=O)OCC(=O)[O-])cc21 (3D coordinates assigned)
C=CC(=O)n1c(C(N)=O)cc2ccc(NCC(=O)OCC(=O)[O-])cc21 (optimized conformer: 74.77533693017834 kcal/mol)

>  <smiles>  (46) 
C=CC(=O)n1c(C(N)=O)cc2ccc(NCC(=O)OCC(=O)O)cc21

>  <score_type>  (46) 
oracle

>  <origin>  (46) 
adg

>  <m_score__min__energy>  (46) 
-9.5800000000000001

>  <m_primary>  (46) 
energy

$$$$
46:0
     RDKit          3D

 35 36  0  0  0  0  0  0  0  0999 V2000
   -4.2360   25.5850  -30.6500 N   0  0  0  0  0  0  0  0  0  0  0  0
   -5.5840   25.2120  -30.3620 C   0  0  0  0  0  0  0  0  0  0  0  0
   -6.2790   25.9430  -29.6080 O   0  0  0  0  0  0  0  0  0  0  0  0
   -6.1580   23.9500  -30.8750 C   0  0  0  0  0  0  0  0  0  0  0  0
   -7.5060   23.7930  -31.1820 C   0  0  0  0  0  0  0  0  0  0  0  0
   -7.6400   22.4770  -31.5600 C   0  0  0  0  0  0  0  0  0  0  0  0
   -8.7680   21.7810  -31.9830 C   0  0  0  0  0  0  0  0  0  0  0  0
   -8.6120   20.4330  -32.3450 C   0  0  0  0  0  0  0  0  0  0  0  0
   -7.3400   19.8090  -32.2790 C   0  0  0  0  0  0  0  0  0  0  0  0
   -7.1840   18.3720  -32.6990 C   0  0  0  0  0  0  0  0  0  0  0  0
   -5.9150   18.1680  -33.5330 C   0  0  0  0  0  0  0  0  0  0  0  0
   -6.2380   17.8010  -34.8480 O   0  0  0  0  0  0  0  0  0  0  0  0
   -6.2150   20.5530  -31.8590 C   0  0  0  0  0  0  0  0  0  0  0  0
   -6.4030   21.8890  -31.4840 C   0  0  0  0  0  0  0  0  0  0  0  0
   -5.4790   22.7850  -31.0680 N   0  0  0  0  0  0  0  0  0  0  0  0
   -4.0620   22.5710  -30.9750 C   0  0  0  0  0  0  0  0  0  0  0  0
   -3.3230   22.8000  -31.9700 O   0  0  0  0  0  0  0  0  0  0  0  0
   -3.5090   22.0950  -29.7840 O   0  0  0  0  0  0  0  0  0  0  0  0
   -3.0200   22.9530  -28.7590 C   0  0  0  0  0  0  0  0  0  0  0  0
   -2.0370   23.9070  -29.3510 C   0  0  0  0  0  0  0  0  0  0  0  0
   -0.9450   23.4850  -29.8150 O   0  0  0  0  0  0  0  0  0  0  0  0
   -2.2930   25.2740  -29.3280 O   0  0  0  0  0  0  0  0  0  0  0  0
   -3.8680   26.5080  -30.3260 H   0  0  0  0  0  0  0  0  0  0  0  0
   -3.5820   24.9280  -31.1280 H   0  0  0  0  0  0  0  0  0  0  0  0
   -8.2955   24.5574  -31.1330 H   0  0  0  0  0  0  0  0  0  0  0  0
   -9.7515   22.2713  -32.0324 H   0  0  0  0  0  0  0  0  0  0  0  0
   -9.4850   19.8554  -32.6831 H   0  0  0  0  0  0  0  0  0  0  0  0
   -7.1269   17.7406  -31.8001 H   0  0  0  0  0  0  0  0  0  0  0  0
   -8.0518   18.0954  -33.3158 H   0  0  0  0  0  0  0  0  0  0  0  0
   -5.3403   19.1058  -33.5509 H   0  0  0  0  0  0  0  0  0  0  0  0
   -5.3191   17.3631  -33.0780 H   0  0  0  0  0  0  0  0  0  0  0  0
   -6.5820   18.6170  -35.2980 H   0  0  0  0  0  0  0  0  0  0  0  0
   -5.2158   20.0941  -31.8273 H   0  0  0  0  0  0  0  0  0  0  0  0
   -3.8570   23.5132  -28.3167 H   0  0  0  0  0  0  0  0  0  0  0  0
   -2.5315   22.3549  -27.9757 H   0  0  0  0  0  0  0  0  0  0  0  0
  1  2  1  0
  2  3  2  0
  2  4  1  0
  4  5  2  0
  5  6  1  0
  6  7  2  0
  7  8  1  0
  8  9  2  0
  9 10  1  0
 10 11  1  0
 11 12  1  0
  9 13  1  0
 13 14  2  0
 14 15  1  0
 15 16  1  0
 16 17  2  0
 16 18  1  0
 18 19  1  0
 19 20  1  0
 20 21  2  0
 20 22  1  0
 15  4  1  0
 14  6  1  0
  1 23  1  0
  1 24  1  0
  5 25  1  0
  7 26  1  0
  8 27  1  0
 10 28  1  0
 10 29  1  0
 11 30  1  0
 11 31  1  0
 12 32  1  0
 13 33  1  0
 19 34  1  0
 19 35  1  0
M  CHG  1  22  -1
M  END
>  <UniqueID>  (47) 
47

>  <SMILES>  (47) 
NC(=O)c1cc2ccc(CCO)cc2n1C(=O)OCC(=O)[O-]

>  <Energy>  (47) 
68.85033871563135

>  <Genealogy>  (47) 
NC(=O)c1cc2ccc(CCO)cc2n1C(=O)OCC(=O)[O-] (protonated)
NC(=O)c1cc2ccc(CCO)cc2n1C(=O)OCC(=O)[O-] (3D coordinates assigned)
NC(=O)c1cc2ccc(CCO)cc2n1C(=O)OCC(=O)[O-] (optimized conformer: 68.85033871563135 kcal/mol)

>  <smiles>  (47) 
NC(=O)c1cc2ccc(CCO)cc2n1C(=O)OCC(=O)O

>  <score_type>  (47) 
oracle

>  <origin>  (47) 
adg

>  <m_score__min__energy>  (47) 
-10.51

>  <m_primary>  (47) 
energy

$$$$
47:0
     RDKit          3D

 40 42  0  0  0  0  0  0  0  0999 V2000
   -9.2210   21.6320  -30.9060 C   0  0  0  0  0  0  0  0  0  0  0  0
   -8.3570   22.2060  -31.5190 C   0  0  0  0  0  0  0  0  0  0  0  0
   -7.3240   22.8900  -32.2500 C   0  0  0  0  0  0  0  0  0  0  0  0
   -7.6330   23.8690  -32.9810 O   0  0  0  0  0  0  0  0  0  0  0  0
   -5.9560   22.4640  -32.1570 N   0  0  0  0  0  0  0  0  0  0  0  0
   -4.9480   23.0540  -31.4540 C   0  0  0  0  0  0  0  0  0  0  0  0
   -5.0340   24.3400  -30.7310 C   0  0  0  0  0  0  0  0  0  0  0  0
   -3.9520   25.2670  -30.7990 N   0  0  0  0  0  0  0  0  0  0  0  0
   -6.0650   24.6440  -30.0760 O   0  0  0  0  0  0  0  0  0  0  0  0
   -3.7770   22.3060  -31.5580 C   0  0  0  0  0  0  0  0  0  0  0  0
   -4.1000   21.2290  -32.3520 C   0  0  0  0  0  0  0  0  0  0  0  0
   -3.3140   20.1660  -32.7810 C   0  0  0  0  0  0  0  0  0  0  0  0
   -3.9180   19.1770  -33.5740 C   0  0  0  0  0  0  0  0  0  0  0  0
   -5.3010   19.2460  -33.8990 C   0  0  0  0  0  0  0  0  0  0  0  0
   -5.9250   18.2020  -34.6890 N   0  0  0  0  0  0  0  0  0  0  0  0
   -6.6430   17.1640  -33.9030 C   0  0  2  0  0  0  0  0  0  0  0  0
   -6.8130   17.5290  -32.4170 C   0  0  0  0  0  0  0  0  0  0  0  0
   -5.7120   16.7740  -31.6780 C   0  0  0  0  0  0  0  0  0  0  0  0
   -5.2740   15.7360  -32.5950 N   0  0  0  0  0  0  0  0  0  0  0  0
   -4.3020   14.7380  -32.2580 C   0  0  0  0  0  0  0  0  0  0  0  0
   -4.5860   13.8270  -31.4350 O   0  0  0  0  0  0  0  0  0  0  0  0
   -3.0380   14.7700  -32.8330 O   0  0  0  0  0  0  0  0  0  0  0  0
   -5.9260   15.8090  -33.8900 C   0  0  0  0  0  0  0  0  0  0  0  0
   -6.0530   20.3680  -33.4740 C   0  0  0  0  0  0  0  0  0  0  0  0
   -5.4200   21.3460  -32.7000 C   0  0  0  0  0  0  0  0  0  0  0  0
  -10.0098   21.1080  -30.3464 H   0  0  0  0  0  0  0  0  0  0  0  0
   -3.8670   26.0430  -30.1070 H   0  0  0  0  0  0  0  0  0  0  0  0
   -2.8011   22.5290  -31.1021 H   0  0  0  0  0  0  0  0  0  0  0  0
   -2.2505   20.1014  -32.5075 H   0  0  0  0  0  0  0  0  0  0  0  0
   -3.3136   18.3378  -33.9488 H   0  0  0  0  0  0  0  0  0  0  0  0
   -6.6020   18.6370  -35.3590 H   0  0  0  0  0  0  0  0  0  0  0  0
   -5.1970   17.7330  -35.2770 H   0  0  0  0  0  0  0  0  0  0  0  0
   -7.6136   17.1047  -34.4172 H   0  0  0  0  0  0  0  0  0  0  0  0
   -6.6978   18.6134  -32.2728 H   0  0  0  0  0  0  0  0  0  0  0  0
   -7.8118   17.2582  -32.0440 H   0  0  0  0  0  0  0  0  0  0  0  0
   -4.8786   17.4495  -31.4348 H   0  0  0  0  0  0  0  0  0  0  0  0
   -6.0711   16.3546  -30.7266 H   0  0  0  0  0  0  0  0  0  0  0  0
   -5.1829   15.7580  -34.6995 H   0  0  0  0  0  0  0  0  0  0  0  0
   -6.6236   14.9731  -34.0468 H   0  0  0  0  0  0  0  0  0  0  0  0
   -7.1138   20.4684  -33.7471 H   0  0  0  0  0  0  0  0  0  0  0  0
  1  2  3  0
  2  3  1  0
  3  4  2  0
  3  5  1  0
  5  6  1  0
  6  7  1  0
  7  8  1  0
  7  9  2  0
  6 10  2  0
 10 11  1  0
 11 12  2  0
 12 13  1  0
 13 14  2  0
 14 15  1  0
 15 16  1  0
 16 17  1  0
 17 18  1  0
 18 19  1  0
 19 20  1  0
 20 21  2  0
 20 22  1  0
 19 23  1  0
 14 24  1  0
 24 25  2  0
 25  5  1  0
 25 11  1  0
 23 16  1  0
  1 26  1  0
  8 27  1  0
 10 28  1  0
 12 29  1  0
 13 30  1  0
 15 31  1  0
 15 32  1  0
 16 33  1  6
 17 34  1  0
 17 35  1  0
 18 36  1  0
 18 37  1  0
 23 38  1  0
 23 39  1  0
 24 40  1  0
M  CHG  3   8  -1  15   1  22  -1
M  END
>  <UniqueID>  (48) 
48

>  <SMILES>  (48) 
C#CC(=O)n1c(C([NH-])=O)cc2ccc([NH2+][C@@H]3CCN(C(=O)[O-])C3)cc21

>  <Energy>  (48) 
83.52932378799372

>  <Genealogy>  (48) 
C#CC(=O)n1c(C([NH-])=O)cc2ccc([NH2+]C3CCN(C(=O)[O-])C3)cc21 (protonated)
C#CC(=O)n1c(C([NH-])=O)cc2ccc([NH2+][C@@H]3CCN(C(=O)[O-])C3)cc21 (chirality)
C#CC(=O)n1c(C([NH-])=O)cc2ccc([NH2+][C@@H]3CCN(C(=O)[O-])C3)cc21 (3D coordinates assigned)
C#CC(=O)n1c(C([NH-])=O)cc2ccc([NH2+][C@@H]3CCN(C(=O)[O-])C3)cc21 (nonaromatic ring conformer: 83.52932378799372 kcal/mol)

>  <smiles>  (48) 
C#CC(=O)n1c(C(N)=O)cc2ccc(NC3CCN(C(=O)O)C3)cc21

>  <score_type>  (48) 
oracle

>  <origin>  (48) 
adg

>  <m_score__min__energy>  (48) 
-10.6

>  <m_primary>  (48) 
energy

$$$$
48:0
     RDKit          3D

 36 37  0  0  0  0  0  0  0  0999 V2000
   -2.5670   19.1890  -32.6640 C   0  0  0  0  0  0  0  0  0  0  0  0
   -3.4120   19.0320  -33.9230 C   0  0  0  0  0  0  0  0  0  0  0  0
   -4.5370   18.1920  -33.6720 O   0  0  0  0  0  0  0  0  0  0  0  0
   -5.8390   18.5010  -34.0870 C   0  0  0  0  0  0  0  0  0  0  0  0
   -6.0790   18.7680  -35.2970 O   0  0  0  0  0  0  0  0  0  0  0  0
   -6.9530   18.5770  -33.0780 C   0  0  1  0  0  0  0  0  0  0  0  0
   -6.7600   17.5530  -31.9530 C   0  0  0  0  0  0  0  0  0  0  0  0
   -7.0740   19.9820  -32.5240 C   0  0  0  0  0  0  0  0  0  0  0  0
   -8.3580   20.5380  -32.2890 C   0  0  0  0  0  0  0  0  0  0  0  0
   -8.4960   21.8330  -31.7620 C   0  0  0  0  0  0  0  0  0  0  0  0
   -7.3370   22.5520  -31.4860 C   0  0  0  0  0  0  0  0  0  0  0  0
   -7.1850   23.8090  -30.9490 C   0  0  0  0  0  0  0  0  0  0  0  0
   -5.8090   24.0180  -30.8830 C   0  0  0  0  0  0  0  0  0  0  0  0
   -5.2010   25.2910  -30.4420 C   0  0  0  0  0  0  0  0  0  0  0  0
   -3.8840   25.6550  -30.8450 N   0  0  0  0  0  0  0  0  0  0  0  0
   -5.8740   26.0910  -29.7380 O   0  0  0  0  0  0  0  0  0  0  0  0
   -5.1370   22.9280  -31.3530 N   0  0  0  0  0  0  0  0  0  0  0  0
   -3.7160   22.7090  -31.3780 C   0  0  0  0  0  0  0  0  0  0  0  0
   -3.1770   22.1490  -32.3690 O   0  0  0  0  0  0  0  0  0  0  0  0
   -2.9210   23.1380  -30.3230 O   0  0  0  0  0  0  0  0  0  0  0  0
   -6.0880   22.0400  -31.7200 C   0  0  0  0  0  0  0  0  0  0  0  0
   -5.9210   20.7450  -32.2240 C   0  0  0  0  0  0  0  0  0  0  0  0
   -3.2059   19.0703  -31.7765 H   0  0  0  0  0  0  0  0  0  0  0  0
   -1.7786   18.4220  -32.6535 H   0  0  0  0  0  0  0  0  0  0  0  0
   -2.1067   20.1880  -32.6535 H   0  0  0  0  0  0  0  0  0  0  0  0
   -3.7654   20.0221  -34.2468 H   0  0  0  0  0  0  0  0  0  0  0  0
   -2.7948   18.5721  -34.7088 H   0  0  0  0  0  0  0  0  0  0  0  0
   -7.8934   18.3270  -33.5909 H   0  0  0  0  0  0  0  0  0  0  0  0
   -6.8548   18.0558  -30.9793 H   0  0  0  0  0  0  0  0  0  0  0  0
   -7.5260   16.7680  -32.0364 H   0  0  0  0  0  0  0  0  0  0  0  0
   -5.7608   17.1007  -32.0364 H   0  0  0  0  0  0  0  0  0  0  0  0
   -9.2565   19.9479  -32.5223 H   0  0  0  0  0  0  0  0  0  0  0  0
   -9.4897   22.2653  -31.5733 H   0  0  0  0  0  0  0  0  0  0  0  0
   -7.9806   24.5020  -30.6378 H   0  0  0  0  0  0  0  0  0  0  0  0
   -3.0480   25.3030  -30.3280 H   0  0  0  0  0  0  0  0  0  0  0  0
   -4.9151   20.3295  -32.3834 H   0  0  0  0  0  0  0  0  0  0  0  0
  1  2  1  0
  2  3  1  0
  3  4  1  0
  4  5  2  0
  4  6  1  0
  6  7  1  0
  6  8  1  0
  8  9  2  0
  9 10  1  0
 10 11  2  0
 11 12  1  0
 12 13  2  0
 13 14  1  0
 14 15  1  0
 14 16  2  0
 13 17  1  0
 17 18  1  0
 18 19  2  0
 18 20  1  0
 17 21  1  0
 21 22  2  0
 22  8  1  0
 21 11  1  0
  1 23  1  0
  1 24  1  0
  1 25  1  0
  2 26  1  0
  2 27  1  0
  6 28  1  6
  7 29  1  0
  7 30  1  0
  7 31  1  0
  9 32  1  0
 10 33  1  0
 12 34  1  0
 15 35  1  0
 22 36  1  0
M  CHG  2  15  -1  20  -1
M  END
>  <UniqueID>  (49) 
49

>  <SMILES>  (49) 
CCOC(=O)[C@@H](C)c1ccc2cc(C([NH-])=O)n(C(=O)[O-])c2c1

>  <Energy>  (49) 
69.74352486493808

>  <Genealogy>  (49) 
CCOC(=O)C(C)c1ccc2cc(C([NH-])=O)n(C(=O)[O-])c2c1 (protonated)
CCOC(=O)[C@@H](C)c1ccc2cc(C([NH-])=O)n(C(=O)[O-])c2c1 (chirality)
CCOC(=O)[C@@H](C)c1ccc2cc(C([NH-])=O)n(C(=O)[O-])c2c1 (3D coordinates assigned)
CCOC(=O)[C@@H](C)c1ccc2cc(C([NH-])=O)n(C(=O)[O-])c2c1 (optimized conformer: 69.74352486493808 kcal/mol)

>  <smiles>  (49) 
CCOC(=O)C(C)c1ccc2cc(C(N)=O)n(C(=O)O)c2c1

>  <score_type>  (49) 
oracle

>  <origin>  (49) 
adg

>  <m_score__min__energy>  (49) 
-10.720000000000001

>  <m_primary>  (49) 
energy

$$$$
49:0
     RDKit          3D

 43 45  0  0  0  0  0  0  0  0999 V2000
   -6.9210   14.0800  -34.5440 C   0  0  0  0  0  0  0  0  0  0  0  0
   -7.1440   15.4460  -34.2660 O   0  0  0  0  0  0  0  0  0  0  0  0
   -5.9100   16.1240  -34.1090 C   0  0  2  0  0  0  0  0  0  0  0  0
   -5.3960   15.8940  -32.6880 C   0  0  0  0  0  0  0  0  0  0  0  0
   -5.8740   17.0860  -31.8730 C   0  0  0  0  0  0  0  0  0  0  0  0
   -6.1900   18.1260  -32.8400 N   0  0  0  0  0  0  0  0  0  0  0  0
   -6.5290   19.4850  -32.4820 C   0  0  0  0  0  0  0  0  0  0  0  0
   -7.8650   19.9550  -32.6040 C   0  0  0  0  0  0  0  0  0  0  0  0
   -8.2050   21.2710  -32.2480 C   0  0  0  0  0  0  0  0  0  0  0  0
   -7.1930   22.1030  -31.7810 C   0  0  0  0  0  0  0  0  0  0  0  0
   -7.2490   23.4060  -31.3440 C   0  0  0  0  0  0  0  0  0  0  0  0
   -5.9430   23.7300  -30.9770 C   0  0  0  0  0  0  0  0  0  0  0  0
   -5.5140   25.0630  -30.4940 C   0  0  0  0  0  0  0  0  0  0  0  0
   -4.1690   25.5130  -30.6750 N   0  0  0  0  0  0  0  0  0  0  0  0
   -6.3340   25.8130  -29.9010 O   0  0  0  0  0  0  0  0  0  0  0  0
   -5.1150   22.6680  -31.1880 N   0  0  0  0  0  0  0  0  0  0  0  0
   -3.7100   22.5890  -30.8970 C   0  0  0  0  0  0  0  0  0  0  0  0
   -2.9120   22.1970  -31.7920 O   0  0  0  0  0  0  0  0  0  0  0  0
   -3.1990   22.8690  -29.5140 C   0  0  0  0  0  0  0  0  0  0  0  0
   -2.0530   23.8350  -29.5390 C   0  0  0  0  0  0  0  0  0  0  0  0
   -0.8810   23.4210  -29.7370 O   0  0  0  0  0  0  0  0  0  0  0  0
   -2.2790   25.1920  -29.3480 O   0  0  0  0  0  0  0  0  0  0  0  0
   -5.8960   21.6790  -31.6740 C   0  0  0  0  0  0  0  0  0  0  0  0
   -5.5330   20.3700  -31.9990 C   0  0  0  0  0  0  0  0  0  0  0  0
   -6.1220   17.6370  -34.2090 C   0  0  0  0  0  0  0  0  0  0  0  0
   -6.8302   13.5237  -33.5994 H   0  0  0  0  0  0  0  0  0  0  0  0
   -7.7659   13.6813  -35.1246 H   0  0  0  0  0  0  0  0  0  0  0  0
   -5.9931   13.9707  -35.1246 H   0  0  0  0  0  0  0  0  0  0  0  0
   -5.2195   15.7556  -34.8819 H   0  0  0  0  0  0  0  0  0  0  0  0
   -5.8088   14.9603  -32.2784 H   0  0  0  0  0  0  0  0  0  0  0  0
   -4.3000   15.8028  -32.6651 H   0  0  0  0  0  0  0  0  0  0  0  0
   -6.7688   16.8186  -31.2918 H   0  0  0  0  0  0  0  0  0  0  0  0
   -5.1094   17.4189  -31.1557 H   0  0  0  0  0  0  0  0  0  0  0  0
   -8.6447   19.2779  -32.9830 H   0  0  0  0  0  0  0  0  0  0  0  0
   -9.2402   21.6323  -32.3360 H   0  0  0  0  0  0  0  0  0  0  0  0
   -8.1358   24.0549  -31.2945 H   0  0  0  0  0  0  0  0  0  0  0  0
   -3.8730   26.4400  -30.2970 H   0  0  0  0  0  0  0  0  0  0  0  0
   -3.4760   24.9540  -31.2180 H   0  0  0  0  0  0  0  0  0  0  0  0
   -4.0139   23.2961  -28.9111 H   0  0  0  0  0  0  0  0  0  0  0  0
   -2.8449   21.9233  -29.0779 H   0  0  0  0  0  0  0  0  0  0  0  0
   -4.4927   20.0321  -31.8822 H   0  0  0  0  0  0  0  0  0  0  0  0
   -7.0599   17.8569  -34.7400 H   0  0  0  0  0  0  0  0  0  0  0  0
   -5.3080   18.1209  -34.7688 H   0  0  0  0  0  0  0  0  0  0  0  0
  1  2  1  0
  2  3  1  0
  3  4  1  0
  4  5  1  0
  5  6  1  0
  6  7  1  0
  7  8  2  0
  8  9  1  0
  9 10  2  0
 10 11  1  0
 11 12  2  0
 12 13  1  0
 13 14  1  0
 13 15  2  0
 12 16  1  0
 16 17  1  0
 17 18  2  0
 17 19  1  0
 19 20  1  0
 20 21  2  0
 20 22  1  0
 16 23  1  0
 23 24  2  0
  6 25  1  0
 25  3  1  0
 24  7  1  0
 23 10  1  0
  1 26  1  0
  1 27  1  0
  1 28  1  0
  3 29  1  6
  4 30  1  0
  4 31  1  0
  5 32  1  0
  5 33  1  0
  8 34  1  0
  9 35  1  0
 11 36  1  0
 14 37  1  0
 14 38  1  0
 19 39  1  0
 19 40  1  0
 24 41  1  0
 25 42  1  0
 25 43  1  0
M  CHG  1  22  -1
M  END
>  <UniqueID>  (50) 
50

>  <SMILES>  (50) 
CO[C@@H]1CCN(c2ccc3cc(C(N)=O)n(C(=O)CC(=O)[O-])c3c2)C1

>  <Energy>  (50) 
86.05986010083734

>  <Genealogy>  (50) 
CO[C@@H]1CCN(c2ccc3cc(C(N)=O)n(C(=O)CC(=O)[O-])c3c2)C1 (protonated)
CO[C@@H]1CCN(c2ccc3cc(C(N)=O)n(C(=O)CC(=O)[O-])c3c2)C1 (3D coordinates assigned)
CO[C@@H]1CCN(c2ccc3cc(C(N)=O)n(C(=O)CC(=O)[O-])c3c2)C1 (nonaromatic ring conformer: 86.05986010083734 kcal/mol)

>  <smiles>  (50) 
CO[C@@H]1CCN(c2ccc3cc(C(N)=O)n(C(=O)CC(=O)O)c3c2)C1

>  <score_type>  (50) 
oracle

>  <origin>  (50) 
adg

>  <m_score__min__energy>  (50) 
-10.960000000000001

>  <m_primary>  (50) 
energy

$$$$
50:0
     RDKit          3D

 46 48  0  0  0  0  0  0  0  0999 V2000
   -5.4810   24.9550  -28.9300 N   0  0  0  0  0  0  0  0  0  0  0  0
   -6.6360   24.6870  -29.7270 C   0  0  0  0  0  0  0  0  0  0  0  0
   -7.5730   25.5280  -29.7670 O   0  0  0  0  0  0  0  0  0  0  0  0
   -6.7760   23.4140  -30.4490 C   0  0  0  0  0  0  0  0  0  0  0  0
   -7.9810   22.9820  -30.9860 C   0  0  0  0  0  0  0  0  0  0  0  0
   -7.6920   21.8000  -31.6190 C   0  0  0  0  0  0  0  0  0  0  0  0
   -8.5310   20.9380  -32.3200 C   0  0  0  0  0  0  0  0  0  0  0  0
   -7.9700   19.7810  -32.8800 C   0  0  0  0  0  0  0  0  0  0  0  0
   -6.5880   19.4970  -32.7290 C   0  0  0  0  0  0  0  0  0  0  0  0
   -6.0220   18.3000  -33.3070 N   0  0  0  0  0  0  0  0  0  0  0  0
   -4.8370   18.4070  -34.1710 C   0  0  0  0  0  0  0  0  0  0  0  0
   -4.6470   17.1510  -35.0280 C   0  0  0  0  0  0  0  0  0  0  0  0
   -4.7150   15.9480  -34.1880 N   0  0  0  0  0  0  0  0  0  0  0  0
   -3.8870   14.8070  -34.4860 C   0  0  0  0  0  0  0  0  0  0  0  0
   -3.8860   13.8060  -33.7200 O   0  0  0  0  0  0  0  0  0  0  0  0
   -3.1030   14.7840  -35.6330 O   0  0  0  0  0  0  0  0  0  0  0  0
   -5.7130   15.8550  -33.1110 C   0  0  0  0  0  0  0  0  0  0  0  0
   -6.7160   17.0120  -33.1610 C   0  0  0  0  0  0  0  0  0  0  0  0
   -5.7700   20.3960  -32.0040 C   0  0  0  0  0  0  0  0  0  0  0  0
   -6.3510   21.5550  -31.4670 C   0  0  0  0  0  0  0  0  0  0  0  0
   -5.7660   22.5490  -30.7510 N   0  0  0  0  0  0  0  0  0  0  0  0
   -4.3560   22.7300  -30.4930 C   0  0  0  0  0  0  0  0  0  0  0  0
   -3.6430   23.3820  -31.3020 O   0  0  0  0  0  0  0  0  0  0  0  0
   -3.7840   22.1990  -29.3290 O   0  0  0  0  0  0  0  0  0  0  0  0
   -3.3160   22.9510  -28.2440 C   0  0  0  0  0  0  0  0  0  0  0  0
   -3.9890   23.0450  -27.1780 O   0  0  0  0  0  0  0  0  0  0  0  0
   -1.9600   23.5860  -28.3430 C   0  0  0  0  0  0  0  0  0  0  0  0
   -2.0240   24.9180  -29.0280 C   0  0  0  0  0  0  0  0  0  0  0  0
   -1.0540   25.7210  -28.9440 O   0  0  0  0  0  0  0  0  0  0  0  0
   -3.1710   25.2910  -29.7190 O   0  0  0  0  0  0  0  0  0  0  0  0
   -4.7340   24.2360  -28.8040 H   0  0  0  0  0  0  0  0  0  0  0  0
   -5.3810   25.8750  -28.4480 H   0  0  0  0  0  0  0  0  0  0  0  0
   -8.9589   23.4811  -30.9183 H   0  0  0  0  0  0  0  0  0  0  0  0
   -9.6030   21.1581  -32.4314 H   0  0  0  0  0  0  0  0  0  0  0  0
   -8.6092   19.0852  -33.4432 H   0  0  0  0  0  0  0  0  0  0  0  0
   -4.9562   19.2766  -34.8340 H   0  0  0  0  0  0  0  0  0  0  0  0
   -3.9520   18.5211  -33.5277 H   0  0  0  0  0  0  0  0  0  0  0  0
   -5.4396   17.1076  -35.7895 H   0  0  0  0  0  0  0  0  0  0  0  0
   -3.6610   17.1940  -35.5137 H   0  0  0  0  0  0  0  0  0  0  0  0
   -6.2594   14.9058  -33.2133 H   0  0  0  0  0  0  0  0  0  0  0  0
   -5.1823   15.9049  -32.1488 H   0  0  0  0  0  0  0  0  0  0  0  0
   -7.3910   16.8671  -34.0174 H   0  0  0  0  0  0  0  0  0  0  0  0
   -7.2868   17.0241  -32.2207 H   0  0  0  0  0  0  0  0  0  0  0  0
   -4.6986   20.1900  -31.8640 H   0  0  0  0  0  0  0  0  0  0  0  0
   -1.5557   23.7247  -27.3294 H   0  0  0  0  0  0  0  0  0  0  0  0
   -1.3123   22.9242  -28.9366 H   0  0  0  0  0  0  0  0  0  0  0  0
  1  2  1  0
  2  3  2  0
  2  4  1  0
  4  5  2  0
  5  6  1  0
  6  7  2  0
  7  8  1  0
  8  9  2  0
  9 10  1  0
 10 11  1  0
 11 12  1  0
 12 13  1  0
 13 14  1  0
 14 15  2  0
 14 16  1  0
 13 17  1  0
 17 18  1  0
  9 19  1  0
 19 20  2  0
 20 21  1  0
 21 22  1  0
 22 23  2  0
 22 24  1  0
 24 25  1  0
 25 26  2  0
 25 27  1  0
 27 28  1  0
 28 29  2  0
 28 30  1  0
 21  4  1  0
 20  6  1  0
 18 10  1  0
  1 31  1  0
  1 32  1  0
  5 33  1  0
  7 34  1  0
  8 35  1  0
 11 36  1  0
 11 37  1  0
 12 38  1  0
 12 39  1  0
 17 40  1  0
 17 41  1  0
 18 42  1  0
 18 43  1  0
 19 44  1  0
 27 45  1  0
 27 46  1  0
M  CHG  2  16  -1  30  -1
M  END
>  <UniqueID>  (51) 
51

>  <SMILES>  (51) 
NC(=O)c1cc2ccc(N3CCN(C(=O)[O-])CC3)cc2n1C(=O)OC(=O)CC(=O)[O-]

>  <Energy>  (51) 
92.28295359293894

>  <Genealogy>  (51) 
NC(=O)c1cc2ccc(N3CCN(C(=O)[O-])CC3)cc2n1C(=O)OC(=O)CC(=O)[O-] (protonated)
NC(=O)c1cc2ccc(N3CCN(C(=O)[O-])CC3)cc2n1C(=O)OC(=O)CC(=O)[O-] (3D coordinates assigned)
NC(=O)c1cc2ccc(N3CCN(C(=O)[O-])CC3)cc2n1C(=O)OC(=O)CC(=O)[O-] (nonaromatic ring conformer: 92.28295359293894 kcal/mol)

>  <smiles>  (51) 
NC(=O)c1cc2ccc(N3CCN(C(=O)O)CC3)cc2n1C(=O)OC(=O)CC(=O)O

>  <score_type>  (51) 
oracle

>  <origin>  (51) 
adg

>  <m_score__min__energy>  (51) 
-11.19

>  <m_primary>  (51) 
energy

$$$$
51:0
     RDKit          3D

 34 36  0  0  0  0  0  0  0  0999 V2000
   -3.8890   25.3140  -30.5840 N   0  0  0  0  0  0  0  0  0  0  0  0
   -5.2990   25.1630  -30.4380 C   0  0  0  0  0  0  0  0  0  0  0  0
   -5.9750   26.1130  -29.9640 O   0  0  0  0  0  0  0  0  0  0  0  0
   -5.9440   23.8880  -30.8060 C   0  0  0  0  0  0  0  0  0  0  0  0
   -7.3120   23.7510  -31.0410 C   0  0  0  0  0  0  0  0  0  0  0  0
   -7.4870   22.4380  -31.4190 C   0  0  0  0  0  0  0  0  0  0  0  0
   -8.6440   21.7510  -31.7700 C   0  0  0  0  0  0  0  0  0  0  0  0
   -8.5270   20.3900  -32.1020 C   0  0  0  0  0  0  0  0  0  0  0  0
   -7.2680   19.7350  -32.0530 C   0  0  0  0  0  0  0  0  0  0  0  0
   -7.1500   18.2860  -32.4480 C   0  0  0  0  0  0  0  0  0  0  0  0
   -6.2100   17.6400  -31.6640 F   0  0  0  0  0  0  0  0  0  0  0  0
   -6.7620   18.1710  -33.7720 F   0  0  0  0  0  0  0  0  0  0  0  0
   -8.3750   17.6690  -32.2830 F   0  0  0  0  0  0  0  0  0  0  0  0
   -6.1120   20.4770  -31.7130 C   0  0  0  0  0  0  0  0  0  0  0  0
   -6.2590   21.8310  -31.4020 C   0  0  0  0  0  0  0  0  0  0  0  0
   -5.3050   22.7060  -31.0250 N   0  0  0  0  0  0  0  0  0  0  0  0
   -3.9160   22.3950  -30.8250 C   0  0  0  0  0  0  0  0  0  0  0  0
   -3.1510   22.3310  -31.8240 O   0  0  0  0  0  0  0  0  0  0  0  0
   -3.3510   22.1560  -29.4450 C   0  0  0  0  0  0  0  0  0  0  0  0
   -4.2420   22.7000  -28.3270 C   0  0  0  0  0  0  0  0  0  0  0  0
   -3.1290   23.6440  -27.8940 C   0  0  0  0  0  0  0  0  0  0  0  0
   -2.2440   23.1240  -29.0170 C   0  0  0  0  0  0  0  0  0  0  0  0
   -3.4900   26.0270  -31.2340 H   0  0  0  0  0  0  0  0  0  0  0  0
   -8.0863   24.5264  -30.9449 H   0  0  0  0  0  0  0  0  0  0  0  0
   -9.6206   22.2569  -31.7873 H   0  0  0  0  0  0  0  0  0  0  0  0
   -9.4217   19.8255  -32.4034 H   0  0  0  0  0  0  0  0  0  0  0  0
   -5.1214   19.9991  -31.6940 H   0  0  0  0  0  0  0  0  0  0  0  0
   -3.1318   21.0819  -29.5355 H   0  0  0  0  0  0  0  0  0  0  0  0
   -5.1489   23.2098  -28.6842 H   0  0  0  0  0  0  0  0  0  0  0  0
   -4.7027   22.0144  -27.6006 H   0  0  0  0  0  0  0  0  0  0  0  0
   -3.3856   24.7100  -27.9824 H   0  0  0  0  0  0  0  0  0  0  0  0
   -2.7684   23.6372  -26.8548 H   0  0  0  0  0  0  0  0  0  0  0  0
   -1.9909   23.8796  -29.7752 H   0  0  0  0  0  0  0  0  0  0  0  0
   -1.2324   22.7505  -28.7998 H   0  0  0  0  0  0  0  0  0  0  0  0
  1  2  1  0
  2  3  2  0
  2  4  1  0
  4  5  2  0
  5  6  1  0
  6  7  2  0
  7  8  1  0
  8  9  2  0
  9 10  1  0
 10 11  1  0
 10 12  1  0
 10 13  1  0
  9 14  1  0
 14 15  2  0
 15 16  1  0
 16 17  1  0
 17 18  2  0
 17 19  1  0
 19 20  1  0
 20 21  1  0
 21 22  1  0
 16  4  1  0
 22 19  1  0
 15  6  1  0
  1 23  1  0
  5 24  1  0
  7 25  1  0
  8 26  1  0
 14 27  1  0
 19 28  1  0
 20 29  1  0
 20 30  1  0
 21 31  1  0
 21 32  1  0
 22 33  1  0
 22 34  1  0
M  CHG  1   1  -1
M  END
>  <UniqueID>  (52) 
52

>  <SMILES>  (52) 
[NH-]C(=O)c1cc2ccc(C(F)(F)F)cc2n1C(=O)C1CCC1

>  <Energy>  (52) 
135.38442118710276

>  <Genealogy>  (52) 
[NH-]C(=O)c1cc2ccc(C(F)(F)F)cc2n1C(=O)C1CCC1 (protonated)
[NH-]C(=O)c1cc2ccc(C(F)(F)F)cc2n1C(=O)C1CCC1 (3D coordinates assigned)
[NH-]C(=O)c1cc2ccc(C(F)(F)F)cc2n1C(=O)C1CCC1 (nonaromatic ring conformer: 135.38442118710276 kcal/mol)

>  <smiles>  (52) 
NC(=O)c1cc2ccc(C(F)(F)F)cc2n1C(=O)C1CCC1

>  <score_type>  (52) 
oracle

>  <origin>  (52) 
adg

>  <m_score__min__energy>  (52) 
-10.32

>  <m_primary>  (52) 
energy

$$$$
52:0
     RDKit          3D

 38 40  0  0  0  0  0  0  0  0999 V2000
   -4.2100   25.5760  -30.5640 N   0  0  0  0  0  0  0  0  0  0  0  0
   -5.4940   25.0060  -30.3130 C   0  0  0  0  0  0  0  0  0  0  0  0
   -6.2690   25.5690  -29.4930 O   0  0  0  0  0  0  0  0  0  0  0  0
   -5.9060   23.7370  -30.9460 C   0  0  0  0  0  0  0  0  0  0  0  0
   -7.2140   23.4660  -31.3360 C   0  0  0  0  0  0  0  0  0  0  0  0
   -7.1890   22.1750  -31.8120 C   0  0  0  0  0  0  0  0  0  0  0  0
   -8.2150   21.3990  -32.3420 C   0  0  0  0  0  0  0  0  0  0  0  0
   -7.8990   20.1070  -32.7930 C   0  0  0  0  0  0  0  0  0  0  0  0
   -6.5700   19.6180  -32.7170 C   0  0  0  0  0  0  0  0  0  0  0  0
   -6.2460   18.2590  -33.2070 C   0  0  0  0  0  0  0  0  0  0  0  0
   -5.0400   18.0160  -33.8960 C   0  0  0  0  0  0  0  0  0  0  0  0
   -4.1690   19.0270  -34.1450 F   0  0  0  0  0  0  0  0  0  0  0  0
   -4.7400   16.7320  -34.3600 C   0  0  0  0  0  0  0  0  0  0  0  0
   -5.6330   15.6800  -34.1440 C   0  0  0  0  0  0  0  0  0  0  0  0
   -5.3380   14.4360  -34.5970 F   0  0  0  0  0  0  0  0  0  0  0  0
   -6.8300   15.9100  -33.4640 C   0  0  0  0  0  0  0  0  0  0  0  0
   -7.1400   17.1910  -32.9960 C   0  0  0  0  0  0  0  0  0  0  0  0
   -8.2970   17.3800  -32.3110 F   0  0  0  0  0  0  0  0  0  0  0  0
   -5.5540   20.4380  -32.1730 C   0  0  0  0  0  0  0  0  0  0  0  0
   -5.9020   21.7140  -31.7120 C   0  0  0  0  0  0  0  0  0  0  0  0
   -5.0990   22.6650  -31.1820 N   0  0  0  0  0  0  0  0  0  0  0  0
   -3.6720   22.5900  -31.0240 C   0  0  0  0  0  0  0  0  0  0  0  0
   -2.9140   23.0610  -31.9160 O   0  0  0  0  0  0  0  0  0  0  0  0
   -3.1280   21.9920  -29.8850 O   0  0  0  0  0  0  0  0  0  0  0  0
   -2.6590   22.7390  -28.7690 C   0  0  0  0  0  0  0  0  0  0  0  0
   -1.7670   23.8320  -29.2520 C   0  0  0  0  0  0  0  0  0  0  0  0
   -0.5990   23.5700  -29.6430 O   0  0  0  0  0  0  0  0  0  0  0  0
   -2.2410   25.1350  -29.3260 O   0  0  0  0  0  0  0  0  0  0  0  0
   -3.9510   26.4950  -30.1390 H   0  0  0  0  0  0  0  0  0  0  0  0
   -3.4830   25.0530  -31.1000 H   0  0  0  0  0  0  0  0  0  0  0  0
   -8.0818   24.1393  -31.2766 H   0  0  0  0  0  0  0  0  0  0  0  0
   -9.2428   21.7858  -32.4059 H   0  0  0  0  0  0  0  0  0  0  0  0
   -8.6910   19.4674  -33.2097 H   0  0  0  0  0  0  0  0  0  0  0  0
   -3.7975   16.5495  -34.8970 H   0  0  0  0  0  0  0  0  0  0  0  0
   -7.5324   15.0804  -33.2955 H   0  0  0  0  0  0  0  0  0  0  0  0
   -4.5149   20.0820  -32.1134 H   0  0  0  0  0  0  0  0  0  0  0  0
   -3.5145   23.1729  -28.2307 H   0  0  0  0  0  0  0  0  0  0  0  0
   -2.1003   22.0783  -28.0898 H   0  0  0  0  0  0  0  0  0  0  0  0
  1  2  1  0
  2  3  2  0
  2  4  1  0
  4  5  2  0
  5  6  1  0
  6  7  2  0
  7  8  1  0
  8  9  2  0
  9 10  1  0
 10 11  2  0
 11 12  1  0
 11 13  1  0
 13 14  2  0
 14 15  1  0
 14 16  1  0
 16 17  2  0
 17 18  1  0
  9 19  1  0
 19 20  2  0
 20 21  1  0
 21 22  1  0
 22 23  2  0
 22 24  1  0
 24 25  1  0
 25 26  1  0
 26 27  2  0
 26 28  1  0
 21  4  1  0
 20  6  1  0
 17 10  1  0
  1 29  1  0
  1 30  1  0
  5 31  1  0
  7 32  1  0
  8 33  1  0
 13 34  1  0
 16 35  1  0
 19 36  1  0
 25 37  1  0
 25 38  1  0
M  CHG  1  28  -1
M  END
>  <UniqueID>  (53) 
53

>  <SMILES>  (53) 
NC(=O)c1cc2ccc(-c3c(F)cc(F)cc3F)cc2n1C(=O)OCC(=O)[O-]

>  <Energy>  (53) 
83.8855296223187

>  <Genealogy>  (53) 
NC(=O)c1cc2ccc(-c3c(F)cc(F)cc3F)cc2n1C(=O)OCC(=O)[O-] (protonated)
NC(=O)c1cc2ccc(-c3c(F)cc(F)cc3F)cc2n1C(=O)OCC(=O)[O-] (3D coordinates assigned)
NC(=O)c1cc2ccc(-c3c(F)cc(F)cc3F)cc2n1C(=O)OCC(=O)[O-] (optimized conformer: 83.8855296223187 kcal/mol)

>  <smiles>  (53) 
NC(=O)c1cc2ccc(-c3c(F)cc(F)cc3F)cc2n1C(=O)OCC(=O)O

>  <score_type>  (53) 
oracle

>  <origin>  (53) 
adg

>  <m_score__min__energy>  (53) 
-11.83

>  <m_primary>  (53) 
energy

$$$$
53:0
     RDKit          3D

 36 37  0  0  0  0  0  0  0  0999 V2000
   -4.1780   25.5190  -30.5880 N   0  0  0  0  0  0  0  0  0  0  0  0
   -5.5530   25.1360  -30.5140 C   0  0  0  0  0  0  0  0  0  0  0  0
   -6.3960   25.9530  -30.0560 O   0  0  0  0  0  0  0  0  0  0  0  0
   -6.0130   23.8290  -31.0230 C   0  0  0  0  0  0  0  0  0  0  0  0
   -7.3540   23.5070  -31.2080 C   0  0  0  0  0  0  0  0  0  0  0  0
   -7.3520   22.2430  -31.7500 C   0  0  0  0  0  0  0  0  0  0  0  0
   -8.4180   21.4250  -32.1150 C   0  0  0  0  0  0  0  0  0  0  0  0
   -8.1260   20.1440  -32.6120 C   0  0  0  0  0  0  0  0  0  0  0  0
   -6.7840   19.7040  -32.7290 C   0  0  0  0  0  0  0  0  0  0  0  0
   -6.4830   18.3100  -33.2160 C   0  0  0  0  0  0  0  0  0  0  0  0
   -5.8060   18.3210  -34.5920 C   0  0  0  0  0  0  0  0  0  0  0  0
   -4.3210   18.1660  -34.4790 C   0  0  0  0  0  0  0  0  0  0  0  0
   -3.5980   19.1620  -34.2150 O   0  0  0  0  0  0  0  0  0  0  0  0
   -3.7310   16.9290  -34.7060 O   0  0  0  0  0  0  0  0  0  0  0  0
   -5.7290   20.5580  -32.3390 C   0  0  0  0  0  0  0  0  0  0  0  0
   -6.0470   21.8370  -31.8680 C   0  0  0  0  0  0  0  0  0  0  0  0
   -5.2110   22.8010  -31.4210 N   0  0  0  0  0  0  0  0  0  0  0  0
   -3.7840   22.7040  -31.2890 C   0  0  0  0  0  0  0  0  0  0  0  0
   -3.0780   22.4110  -32.2930 O   0  0  0  0  0  0  0  0  0  0  0  0
   -3.1810   22.9360  -30.0470 O   0  0  0  0  0  0  0  0  0  0  0  0
   -1.7690   22.9700  -29.8570 C   0  0  0  0  0  0  0  0  0  0  0  0
   -1.3480   24.3050  -29.3320 C   0  0  0  0  0  0  0  0  0  0  0  0
   -2.1440   25.2800  -29.3660 O   0  0  0  0  0  0  0  0  0  0  0  0
   -0.0650   24.4800  -28.8310 O   0  0  0  0  0  0  0  0  0  0  0  0
   -3.4860   24.9440  -31.1160 H   0  0  0  0  0  0  0  0  0  0  0  0
   -3.8660   26.4300  -30.1860 H   0  0  0  0  0  0  0  0  0  0  0  0
   -8.2289   24.1303  -30.9713 H   0  0  0  0  0  0  0  0  0  0  0  0
   -9.4574   21.7714  -32.0171 H   0  0  0  0  0  0  0  0  0  0  0  0
   -8.9466   19.4762  -32.9132 H   0  0  0  0  0  0  0  0  0  0  0  0
   -5.8148   17.8173  -32.4944 H   0  0  0  0  0  0  0  0  0  0  0  0
   -7.4352   17.7670  -33.3079 H   0  0  0  0  0  0  0  0  0  0  0  0
   -6.2064   17.4914  -35.1931 H   0  0  0  0  0  0  0  0  0  0  0  0
   -6.0146   19.2898  -35.0694 H   0  0  0  0  0  0  0  0  0  0  0  0
   -4.6823   20.2259  -32.4039 H   0  0  0  0  0  0  0  0  0  0  0  0
   -1.4808   22.1897  -29.1372 H   0  0  0  0  0  0  0  0  0  0  0  0
   -1.2736   22.7931  -30.8231 H   0  0  0  0  0  0  0  0  0  0  0  0
  1  2  1  0
  2  3  2  0
  2  4  1  0
  4  5  2  0
  5  6  1  0
  6  7  2  0
  7  8  1  0
  8  9  2  0
  9 10  1  0
 10 11  1  0
 11 12  1  0
 12 13  2  0
 12 14  1  0
  9 15  1  0
 15 16  2  0
 16 17  1  0
 17 18  1  0
 18 19  2  0
 18 20  1  0
 20 21  1  0
 21 22  1  0
 22 23  2  0
 22 24  1  0
 17  4  1  0
 16  6  1  0
  1 25  1  0
  1 26  1  0
  5 27  1  0
  7 28  1  0
  8 29  1  0
 10 30  1  0
 10 31  1  0
 11 32  1  0
 11 33  1  0
 15 34  1  0
 21 35  1  0
 21 36  1  0
M  CHG  2  14  -1  24  -1
M  END
>  <UniqueID>  (54) 
54

>  <SMILES>  (54) 
NC(=O)c1cc2ccc(CCC(=O)[O-])cc2n1C(=O)OCC(=O)[O-]

>  <Energy>  (54) 
69.76004466064688

>  <Genealogy>  (54) 
NC(=O)c1cc2ccc(CCC(=O)[O-])cc2n1C(=O)OCC(=O)[O-] (protonated)
NC(=O)c1cc2ccc(CCC(=O)[O-])cc2n1C(=O)OCC(=O)[O-] (3D coordinates assigned)
NC(=O)c1cc2ccc(CCC(=O)[O-])cc2n1C(=O)OCC(=O)[O-] (optimized conformer: 69.76004466064688 kcal/mol)

>  <smiles>  (54) 
NC(=O)c1cc2ccc(CCC(=O)O)cc2n1C(=O)OCC(=O)O

>  <score_type>  (54) 
oracle

>  <origin>  (54) 
adg

>  <m_score__min__energy>  (54) 
-10.32

>  <m_primary>  (54) 
energy

$$$$
54:0
     RDKit          3D

 36 38  0  0  0  0  0  0  0  0999 V2000
   -3.9240   25.6490  -30.8470 N   0  0  0  0  0  0  0  0  0  0  0  0
   -5.2330   25.2440  -30.4540 C   0  0  0  0  0  0  0  0  0  0  0  0
   -5.9310   26.0170  -29.7440 O   0  0  0  0  0  0  0  0  0  0  0  0
   -5.8020   23.9580  -30.9100 C   0  0  0  0  0  0  0  0  0  0  0  0
   -7.1690   23.6890  -30.9310 C   0  0  0  0  0  0  0  0  0  0  0  0
   -7.2860   22.4430  -31.5030 C   0  0  0  0  0  0  0  0  0  0  0  0
   -8.4220   21.6820  -31.7610 C   0  0  0  0  0  0  0  0  0  0  0  0
   -8.2470   20.4120  -32.3370 C   0  0  0  0  0  0  0  0  0  0  0  0
   -6.9480   19.9250  -32.6360 C   0  0  0  0  0  0  0  0  0  0  0  0
   -6.7760   18.5830  -33.2300 C   0  0  0  0  0  0  0  0  0  0  0  0
   -6.1160   18.3350  -34.3770 N   0  0  0  0  0  0  0  0  0  0  0  0
   -6.2010   17.0250  -34.5370 N   0  0  0  0  0  0  0  0  0  0  0  0
   -6.8810   16.4930  -33.5340 N   0  0  0  0  0  0  0  0  0  0  0  0
   -7.2560   17.4450  -32.6950 N   0  0  0  0  0  0  0  0  0  0  0  0
   -5.8190   20.7300  -32.3570 C   0  0  0  0  0  0  0  0  0  0  0  0
   -6.0260   21.9970  -31.8010 C   0  0  0  0  0  0  0  0  0  0  0  0
   -5.1020   22.9150  -31.4390 N   0  0  0  0  0  0  0  0  0  0  0  0
   -3.6770   22.7640  -31.5280 C   0  0  0  0  0  0  0  0  0  0  0  0
   -3.1610   22.2820  -32.5740 O   0  0  0  0  0  0  0  0  0  0  0  0
   -2.8670   23.1760  -30.4650 O   0  0  0  0  0  0  0  0  0  0  0  0
   -2.8110   22.4980  -29.2110 C   0  0  0  0  0  0  0  0  0  0  0  0
   -2.7750   23.5080  -28.0570 C   0  0  0  0  0  0  0  0  0  0  0  0
   -1.5980   24.4790  -28.1880 C   0  0  0  0  0  0  0  0  0  0  0  0
   -1.7620   25.3180  -29.2990 O   0  0  0  0  0  0  0  0  0  0  0  0
   -3.0800   25.3040  -30.3390 H   0  0  0  0  0  0  0  0  0  0  0  0
   -7.9817   24.3352  -30.5676 H   0  0  0  0  0  0  0  0  0  0  0  0
   -9.4259   22.0626  -31.5216 H   0  0  0  0  0  0  0  0  0  0  0  0
   -9.1261   19.7890  -32.5584 H   0  0  0  0  0  0  0  0  0  0  0  0
   -4.8026   20.3685  -32.5720 H   0  0  0  0  0  0  0  0  0  0  0  0
   -3.6996   21.8584  -29.1050 H   0  0  0  0  0  0  0  0  0  0  0  0
   -1.8978   21.8857  -29.1774 H   0  0  0  0  0  0  0  0  0  0  0  0
   -3.7128   24.0830  -28.0576 H   0  0  0  0  0  0  0  0  0  0  0  0
   -2.6546   22.9493  -27.1171 H   0  0  0  0  0  0  0  0  0  0  0  0
   -1.5359   25.0943  -27.2783 H   0  0  0  0  0  0  0  0  0  0  0  0
   -0.6749   23.8958  -28.3216 H   0  0  0  0  0  0  0  0  0  0  0  0
   -2.0610   24.7410  -30.0500 H   0  0  0  0  0  0  0  0  0  0  0  0
  1  2  1  0
  2  3  2  0
  2  4  1  0
  4  5  2  0
  5  6  1  0
  6  7  2  0
  7  8  1  0
  8  9  2  0
  9 10  1  0
 10 11  1  0
 11 12  2  0
 12 13  1  0
 13 14  1  0
  9 15  1  0
 15 16  2  0
 16 17  1  0
 17 18  1  0
 18 19  2  0
 18 20  1  0
 20 21  1  0
 21 22  1  0
 22 23  1  0
 23 24  1  0
 17  4  1  0
 16  6  1  0
 14 10  2  0
  1 25  1  0
  5 26  1  0
  7 27  1  0
  8 28  1  0
 15 29  1  0
 21 30  1  0
 21 31  1  0
 22 32  1  0
 22 33  1  0
 23 34  1  0
 23 35  1  0
 24 36  1  0
M  CHG  2   1  -1  13  -1
M  END
>  <UniqueID>  (55) 
55

>  <SMILES>  (55) 
[NH-]C(=O)c1cc2ccc(-c3nn[n-]n3)cc2n1C(=O)OCCCO

>  <Energy>  (55) 
110.74853750003253

>  <Genealogy>  (55) 
[NH-]C(=O)c1cc2ccc(-c3nn[n-]n3)cc2n1C(=O)OCCCO (protonated)
[NH-]C(=O)c1cc2ccc(-c3nn[n-]n3)cc2n1C(=O)OCCCO (3D coordinates assigned)
[NH-]C(=O)c1cc2ccc(-c3nn[n-]n3)cc2n1C(=O)OCCCO (optimized conformer: 110.74853750003253 kcal/mol)

>  <smiles>  (55) 
NC(=O)c1cc2ccc(-c3nn[nH]n3)cc2n1C(=O)OCCCO

>  <score_type>  (55) 
oracle

>  <origin>  (55) 
adg

>  <m_score__min__energy>  (55) 
-10.98

>  <m_primary>  (55) 
energy

$$$$
55:0
     RDKit          3D

 38 39  0  0  0  0  0  0  0  0999 V2000
   -7.2310   17.3970  -32.6470 C   0  0  0  0  0  0  0  0  0  0  0  0
   -6.6700   18.5760  -33.3170 N   0  0  0  0  0  0  0  0  0  0  0  0
   -5.9210   18.3920  -34.5670 C   0  0  0  0  0  0  0  0  0  0  0  0
   -6.8510   19.9020  -32.7550 C   0  0  0  0  0  0  0  0  0  0  0  0
   -8.1560   20.4350  -32.5520 C   0  0  0  0  0  0  0  0  0  0  0  0
   -8.3410   21.7110  -31.9970 C   0  0  0  0  0  0  0  0  0  0  0  0
   -7.2110   22.4470  -31.6600 C   0  0  0  0  0  0  0  0  0  0  0  0
   -7.1080   23.6920  -31.0820 C   0  0  0  0  0  0  0  0  0  0  0  0
   -5.7410   23.9260  -30.9580 C   0  0  0  0  0  0  0  0  0  0  0  0
   -5.1750   25.1960  -30.4550 C   0  0  0  0  0  0  0  0  0  0  0  0
   -3.8730   25.6250  -30.8460 N   0  0  0  0  0  0  0  0  0  0  0  0
   -5.8700   25.9350  -29.7080 O   0  0  0  0  0  0  0  0  0  0  0  0
   -5.0290   22.8660  -31.4340 N   0  0  0  0  0  0  0  0  0  0  0  0
   -3.6060   22.6780  -31.3960 C   0  0  0  0  0  0  0  0  0  0  0  0
   -2.9920   22.3200  -32.4390 O   0  0  0  0  0  0  0  0  0  0  0  0
   -2.9110   22.8750  -30.1970 O   0  0  0  0  0  0  0  0  0  0  0  0
   -3.3360   22.3420  -28.9440 C   0  0  0  0  0  0  0  0  0  0  0  0
   -3.5290   23.4620  -27.9220 C   0  0  0  0  0  0  0  0  0  0  0  0
   -3.0930   24.7370  -28.4830 N   0  0  0  0  0  0  0  0  0  0  0  0
   -5.9450   21.9690  -31.8620 C   0  0  0  0  0  0  0  0  0  0  0  0
   -5.7290   20.6930  -32.3920 C   0  0  0  0  0  0  0  0  0  0  0  0
   -7.1677   17.5300  -31.5569 H   0  0  0  0  0  0  0  0  0  0  0  0
   -8.2839   17.2746  -32.9409 H   0  0  0  0  0  0  0  0  0  0  0  0
   -6.6619   16.5027  -32.9409 H   0  0  0  0  0  0  0  0  0  0  0  0
   -4.8769   18.1355  -34.3345 H   0  0  0  0  0  0  0  0  0  0  0  0
   -6.3768   17.5791  -35.1513 H   0  0  0  0  0  0  0  0  0  0  0  0
   -5.9483   19.3236  -35.1513 H   0  0  0  0  0  0  0  0  0  0  0  0
   -9.0343   19.8363  -32.8351 H   0  0  0  0  0  0  0  0  0  0  0  0
   -9.3504   22.1165  -31.8336 H   0  0  0  0  0  0  0  0  0  0  0  0
   -7.9296   24.3592  -30.7823 H   0  0  0  0  0  0  0  0  0  0  0  0
   -3.0250   25.0730  -30.5860 H   0  0  0  0  0  0  0  0  0  0  0  0
   -4.2888   21.8099  -29.0817 H   0  0  0  0  0  0  0  0  0  0  0  0
   -2.5652   21.6509  -28.5722 H   0  0  0  0  0  0  0  0  0  0  0  0
   -4.5934   23.5286  -27.6526 H   0  0  0  0  0  0  0  0  0  0  0  0
   -2.9285   23.2392  -27.0277 H   0  0  0  0  0  0  0  0  0  0  0  0
   -3.9480   25.3020  -28.6890 H   0  0  0  0  0  0  0  0  0  0  0  0
   -2.6330   24.5490  -29.4030 H   0  0  0  0  0  0  0  0  0  0  0  0
   -4.7071   20.3085  -32.5254 H   0  0  0  0  0  0  0  0  0  0  0  0
  1  2  1  0
  2  3  1  0
  2  4  1  0
  4  5  2  0
  5  6  1  0
  6  7  2  0
  7  8  1  0
  8  9  2  0
  9 10  1  0
 10 11  1  0
 10 12  2  0
  9 13  1  0
 13 14  1  0
 14 15  2  0
 14 16  1  0
 16 17  1  0
 17 18  1  0
 18 19  1  0
 13 20  1  0
 20 21  2  0
 21  4  1  0
 20  7  1  0
  1 22  1  0
  1 23  1  0
  1 24  1  0
  3 25  1  0
  3 26  1  0
  3 27  1  0
  5 28  1  0
  6 29  1  0
  8 30  1  0
 11 31  1  0
 17 32  1  0
 17 33  1  0
 18 34  1  0
 18 35  1  0
 19 36  1  0
 19 37  1  0
 21 38  1  0
M  CHG  1  11  -1
M  END
>  <UniqueID>  (56) 
56

>  <SMILES>  (56) 
CN(C)c1ccc2cc(C([NH-])=O)n(C(=O)OCCN)c2c1

>  <Energy>  (56) 
73.69472752732037

>  <Genealogy>  (56) 
CN(C)c1ccc2cc(C([NH-])=O)n(C(=O)OCCN)c2c1 (protonated)
CN(C)c1ccc2cc(C([NH-])=O)n(C(=O)OCCN)c2c1 (3D coordinates assigned)
CN(C)c1ccc2cc(C([NH-])=O)n(C(=O)OCCN)c2c1 (optimized conformer: 73.69472752732037 kcal/mol)

>  <smiles>  (56) 
CN(C)c1ccc2cc(C(N)=O)n(C(=O)OCCN)c2c1

>  <score_type>  (56) 
oracle

>  <origin>  (56) 
adg

>  <m_score__min__energy>  (56) 
-9.9000000000000004

>  <m_primary>  (56) 
energy

$$$$
56:0
     RDKit          3D

 38 39  0  0  0  0  0  0  0  0999 V2000
   -9.1240   20.4180  -32.3110 C   0  0  0  0  0  0  0  0  0  0  0  0
   -7.7200   20.7950  -32.5350 N   0  0  0  0  0  0  0  0  0  0  0  0
   -7.4070   22.0840  -31.8980 C   0  0  0  0  0  0  0  0  0  0  0  0
   -6.7670   19.7220  -32.1690 C   0  0  0  0  0  0  0  0  0  0  0  0
   -5.7060   19.4180  -33.2470 C   0  0  0  0  0  0  0  0  0  0  0  0
   -4.8720   20.5970  -33.4990 N   0  0  0  0  0  0  0  0  0  0  0  0
   -3.7690   20.9770  -32.6550 C   0  0  0  0  0  0  0  0  0  0  0  0
   -2.5880   20.1900  -32.5740 C   0  0  0  0  0  0  0  0  0  0  0  0
   -1.5280   20.5710  -31.7340 C   0  0  0  0  0  0  0  0  0  0  0  0
   -1.6660   21.7410  -30.9960 C   0  0  0  0  0  0  0  0  0  0  0  0
   -0.8110   22.3160  -30.0850 C   0  0  0  0  0  0  0  0  0  0  0  0
   -1.4640   23.4640  -29.6450 C   0  0  0  0  0  0  0  0  0  0  0  0
   -0.8660   24.4200  -28.6920 C   0  0  0  0  0  0  0  0  0  0  0  0
   -1.6730   25.3670  -27.9900 N   0  0  0  0  0  0  0  0  0  0  0  0
    0.3840   24.4400  -28.5360 O   0  0  0  0  0  0  0  0  0  0  0  0
   -2.6800   23.5890  -30.2460 N   0  0  0  0  0  0  0  0  0  0  0  0
   -3.6940   24.5720  -29.9720 C   0  0  0  0  0  0  0  0  0  0  0  0
   -4.4390   24.4530  -28.9650 O   0  0  0  0  0  0  0  0  0  0  0  0
   -3.8620   25.6640  -30.8150 O   0  0  0  0  0  0  0  0  0  0  0  0
   -2.7880   22.5260  -31.0750 C   0  0  0  0  0  0  0  0  0  0  0  0
   -3.8680   22.1580  -31.8870 C   0  0  0  0  0  0  0  0  0  0  0  0
   -9.3215   20.3650  -31.2302 H   0  0  0  0  0  0  0  0  0  0  0  0
   -9.7832   21.1710  -32.7677 H   0  0  0  0  0  0  0  0  0  0  0  0
   -9.3173   19.4361  -32.7677 H   0  0  0  0  0  0  0  0  0  0  0  0
   -7.4349   21.9689  -30.8044 H   0  0  0  0  0  0  0  0  0  0  0  0
   -6.4033   22.4114  -32.2067 H   0  0  0  0  0  0  0  0  0  0  0  0
   -8.1488   22.8353  -32.2067 H   0  0  0  0  0  0  0  0  0  0  0  0
   -6.2458   20.0238  -31.2485 H   0  0  0  0  0  0  0  0  0  0  0  0
   -7.3601   18.8040  -32.0441 H   0  0  0  0  0  0  0  0  0  0  0  0
   -5.0677   18.5909  -32.9026 H   0  0  0  0  0  0  0  0  0  0  0  0
   -6.2186   19.1409  -34.1800 H   0  0  0  0  0  0  0  0  0  0  0  0
   -5.0830   21.1950  -34.3310 H   0  0  0  0  0  0  0  0  0  0  0  0
   -2.5030   19.2729  -33.1754 H   0  0  0  0  0  0  0  0  0  0  0  0
   -0.6154   19.9611  -31.6624 H   0  0  0  0  0  0  0  0  0  0  0  0
    0.1769   21.9477  -29.7713 H   0  0  0  0  0  0  0  0  0  0  0  0
   -2.6820   25.4910  -28.2210 H   0  0  0  0  0  0  0  0  0  0  0  0
   -1.2380   26.0100  -27.2910 H   0  0  0  0  0  0  0  0  0  0  0  0
   -4.7763   22.7772  -31.9259 H   0  0  0  0  0  0  0  0  0  0  0  0
  1  2  1  0
  2  3  1  0
  2  4  1  0
  4  5  1  0
  5  6  1  0
  6  7  1  0
  7  8  2  0
  8  9  1  0
  9 10  2  0
 10 11  1  0
 11 12  2  0
 12 13  1  0
 13 14  1  0
 13 15  2  0
 12 16  1  0
 16 17  1  0
 17 18  2  0
 17 19  1  0
 16 20  1  0
 20 21  2  0
 21  7  1  0
 20 10  1  0
  1 22  1  0
  1 23  1  0
  1 24  1  0
  3 25  1  0
  3 26  1  0
  3 27  1  0
  4 28  1  0
  4 29  1  0
  5 30  1  0
  5 31  1  0
  6 32  1  0
  8 33  1  0
  9 34  1  0
 11 35  1  0
 14 36  1  0
 14 37  1  0
 21 38  1  0
M  CHG  1  19  -1
M  END
>  <UniqueID>  (57) 
57

>  <SMILES>  (57) 
CN(C)CCNc1ccc2cc(C(N)=O)n(C(=O)[O-])c2c1

>  <Energy>  (57) 
78.96987967535445

>  <Genealogy>  (57) 
CN(C)CCNc1ccc2cc(C(N)=O)n(C(=O)[O-])c2c1 (protonated)
CN(C)CCNc1ccc2cc(C(N)=O)n(C(=O)[O-])c2c1 (3D coordinates assigned)
CN(C)CCNc1ccc2cc(C(N)=O)n(C(=O)[O-])c2c1 (optimized conformer: 78.96987967535445 kcal/mol)

>  <smiles>  (57) 
CN(C)CCNc1ccc2cc(C(N)=O)n(C(=O)O)c2c1

>  <score_type>  (57) 
oracle

>  <origin>  (57) 
adg

>  <m_score__min__energy>  (57) 
-8.2400000000000002

>  <m_primary>  (57) 
energy

$$$$
57:0
     RDKit          3D

 43 45  0  0  0  0  0  0  0  0999 V2000
   -1.8380   19.0120  -34.2300 C   0  0  0  0  0  0  0  0  0  0  0  0
   -2.6200   19.1800  -33.0010 N   0  0  0  0  0  0  0  0  0  0  0  0
   -3.9380   18.5440  -32.8580 C   0  0  0  0  0  0  0  0  0  0  0  0
   -4.9290   19.1300  -33.8800 C   0  0  0  0  0  0  0  0  0  0  0  0
   -6.3010   18.4710  -33.8470 C   0  0  0  0  0  0  0  0  0  0  0  0
   -6.9740   19.7040  -33.4040 N   0  0  0  0  0  0  0  0  0  0  0  0
   -7.5030   19.5880  -32.0310 C   0  0  0  0  0  0  0  0  0  0  0  0
   -8.9800   19.3570  -32.0710 C   0  0  0  0  0  0  0  0  0  0  0  0
   -9.4450   18.1980  -31.9070 O   0  0  0  0  0  0  0  0  0  0  0  0
   -9.8410   20.4160  -32.3270 O   0  0  0  0  0  0  0  0  0  0  0  0
   -5.6670   20.3800  -33.4160 C   0  0  0  0  0  0  0  0  0  0  0  0
   -2.0800   19.9790  -31.9330 C   0  0  0  0  0  0  0  0  0  0  0  0
   -0.9440   19.5290  -31.2140 C   0  0  0  0  0  0  0  0  0  0  0  0
   -0.3770   20.3200  -30.2010 C   0  0  0  0  0  0  0  0  0  0  0  0
   -0.9710   21.5480  -29.9240 C   0  0  0  0  0  0  0  0  0  0  0  0
   -0.6020   22.5260  -29.0290 C   0  0  0  0  0  0  0  0  0  0  0  0
   -1.5390   23.5460  -29.1900 C   0  0  0  0  0  0  0  0  0  0  0  0
   -1.5600   24.7680  -28.3610 C   0  0  0  0  0  0  0  0  0  0  0  0
   -1.3360   26.0490  -28.9420 N   0  0  0  0  0  0  0  0  0  0  0  0
   -1.8280   24.6850  -27.1330 O   0  0  0  0  0  0  0  0  0  0  0  0
   -2.4470   23.2140  -30.1510 N   0  0  0  0  0  0  0  0  0  0  0  0
   -3.5050   24.0300  -30.6770 C   0  0  0  0  0  0  0  0  0  0  0  0
   -3.4980   25.2760  -30.4940 O   0  0  0  0  0  0  0  0  0  0  0  0
   -4.5580   23.4520  -31.3760 O   0  0  0  0  0  0  0  0  0  0  0  0
   -2.0850   21.9870  -30.5900 C   0  0  0  0  0  0  0  0  0  0  0  0
   -2.6620   21.2260  -31.6130 C   0  0  0  0  0  0  0  0  0  0  0  0
   -0.7926   18.7874  -33.9716 H   0  0  0  0  0  0  0  0  0  0  0  0
   -2.2560   18.1832  -34.8202 H   0  0  0  0  0  0  0  0  0  0  0  0
   -1.8787   19.9394  -34.8202 H   0  0  0  0  0  0  0  0  0  0  0  0
   -3.8389   17.4618  -33.0283 H   0  0  0  0  0  0  0  0  0  0  0  0
   -4.3178   18.7331  -31.8431 H   0  0  0  0  0  0  0  0  0  0  0  0
   -4.2695   19.1240  -34.7603 H   0  0  0  0  0  0  0  0  0  0  0  0
   -6.6398   18.1189  -34.8325 H   0  0  0  0  0  0  0  0  0  0  0  0
   -6.4324   17.5551  -33.2522 H   0  0  0  0  0  0  0  0  0  0  0  0
   -7.0156   18.7430  -31.5228 H   0  0  0  0  0  0  0  0  0  0  0  0
   -7.2975   20.5202  -31.4844 H   0  0  0  0  0  0  0  0  0  0  0  0
   -5.6122   21.2111  -34.1345 H   0  0  0  0  0  0  0  0  0  0  0  0
   -5.3256   20.8853  -32.5005 H   0  0  0  0  0  0  0  0  0  0  0  0
   -0.5020   18.5502  -31.4519 H   0  0  0  0  0  0  0  0  0  0  0  0
    0.5085   19.9797  -29.6442 H   0  0  0  0  0  0  0  0  0  0  0  0
    0.2507   22.5071  -28.3344 H   0  0  0  0  0  0  0  0  0  0  0  0
   -1.2260   26.1590  -29.9750 H   0  0  0  0  0  0  0  0  0  0  0  0
   -3.5474   21.5900  -32.1549 H   0  0  0  0  0  0  0  0  0  0  0  0
  1  2  1  0
  2  3  1  0
  3  4  1  0
  4  5  1  0
  5  6  1  0
  6  7  1  0
  7  8  1  0
  8  9  2  0
  8 10  1  0
  6 11  1  0
  2 12  1  0
 12 13  2  0
 13 14  1  0
 14 15  2  0
 15 16  1  0
 16 17  2  0
 17 18  1  0
 18 19  1  0
 18 20  2  0
 17 21  1  0
 21 22  1  0
 22 23  2  0
 22 24  1  0
 21 25  1  0
 25 26  2  0
 11  4  1  0
 26 12  1  0
 25 15  1  0
  1 27  1  0
  1 28  1  0
  1 29  1  0
  3 30  1  0
  3 31  1  0
  4 32  1  0
  5 33  1  0
  5 34  1  0
  7 35  1  0
  7 36  1  0
 11 37  1  0
 11 38  1  0
 13 39  1  0
 14 40  1  0
 16 41  1  0
 19 42  1  0
 26 43  1  0
M  CHG  3  10  -1  19  -1  24  -1
M  END
>  <UniqueID>  (58) 
58

>  <SMILES>  (58) 
CN(CC1CN(CC(=O)[O-])C1)c1ccc2cc(C([NH-])=O)n(C(=O)[O-])c2c1

>  <Energy>  (58) 
153.26918177362813

>  <Genealogy>  (58) 
CN(CC1CN(CC(=O)[O-])C1)c1ccc2cc(C([NH-])=O)n(C(=O)[O-])c2c1 (protonated)
CN(CC1CN(CC(=O)[O-])C1)c1ccc2cc(C([NH-])=O)n(C(=O)[O-])c2c1 (3D coordinates assigned)
CN(CC1CN(CC(=O)[O-])C1)c1ccc2cc(C([NH-])=O)n(C(=O)[O-])c2c1 (nonaromatic ring conformer: 153.26918177362813 kcal/mol)

>  <smiles>  (58) 
CN(CC1CN(CC(=O)O)C1)c1ccc2cc(C(N)=O)n(C(=O)O)c2c1

>  <score_type>  (58) 
oracle

>  <origin>  (58) 
adg

>  <m_score__min__energy>  (58) 
-11.630000000000001

>  <m_primary>  (58) 
energy

$$$$
58:0
     RDKit          3D

 45 46  0  0  0  0  0  0  0  0999 V2000
   -1.1290   20.8440  -33.8740 C   0  0  0  0  0  0  0  0  0  0  0  0
   -1.6820   21.4570  -32.6280 C   0  0  0  0  0  0  0  0  0  0  0  0
   -0.9180   21.6610  -31.6470 O   0  0  0  0  0  0  0  0  0  0  0  0
   -3.0820   21.7640  -32.5480 N   0  0  0  0  0  0  0  0  0  0  0  0
   -3.7060   22.3800  -31.4100 C   0  0  0  0  0  0  0  0  0  0  0  0
   -3.0060   22.8280  -30.4620 O   0  0  0  0  0  0  0  0  0  0  0  0
   -5.1340   22.5240  -31.3650 N   0  0  0  0  0  0  0  0  0  0  0  0
   -5.8530   23.5320  -30.7930 C   0  0  0  0  0  0  0  0  0  0  0  0
   -5.2830   24.7740  -30.2250 C   0  0  0  0  0  0  0  0  0  0  0  0
   -5.7630   25.3000  -28.9870 N   0  0  0  0  0  0  0  0  0  0  0  0
   -4.3790   25.3940  -30.8440 O   0  0  0  0  0  0  0  0  0  0  0  0
   -7.2190   23.2800  -30.9070 C   0  0  0  0  0  0  0  0  0  0  0  0
   -7.3140   22.0800  -31.5750 C   0  0  0  0  0  0  0  0  0  0  0  0
   -8.4380   21.3520  -31.9540 C   0  0  0  0  0  0  0  0  0  0  0  0
   -8.2400   20.1310  -32.6180 C   0  0  0  0  0  0  0  0  0  0  0  0
   -6.9270   19.6550  -32.8920 C   0  0  0  0  0  0  0  0  0  0  0  0
   -6.6960   18.3990  -33.5620 N   0  0  0  0  0  0  0  0  0  0  0  0
   -5.7730   18.2080  -34.6820 C   0  0  0  0  0  0  0  0  0  0  0  0
   -5.1200   16.8210  -34.6150 C   0  0  0  0  0  0  0  0  0  0  0  0
   -5.8120   15.9640  -33.6260 N   0  0  0  0  0  0  0  0  0  0  0  0
   -4.9980   15.7950  -32.4090 C   0  0  0  0  0  0  0  0  0  0  0  0
   -6.0950   14.6420  -34.2100 C   0  0  0  0  0  0  0  0  0  0  0  0
   -5.8150   20.4270  -32.4880 C   0  0  0  0  0  0  0  0  0  0  0  0
   -6.0440   21.6460  -31.8400 C   0  0  0  0  0  0  0  0  0  0  0  0
   -0.4142   20.0517  -33.6068 H   0  0  0  0  0  0  0  0  0  0  0  0
   -1.9498   20.4130  -34.4661 H   0  0  0  0  0  0  0  0  0  0  0  0
   -0.6160   21.6162  -34.4661 H   0  0  0  0  0  0  0  0  0  0  0  0
   -3.6840   21.5330  -33.3700 H   0  0  0  0  0  0  0  0  0  0  0  0
   -6.4670   24.7840  -28.4140 H   0  0  0  0  0  0  0  0  0  0  0  0
   -5.3790   26.1960  -28.6140 H   0  0  0  0  0  0  0  0  0  0  0  0
   -8.0456   23.9068  -30.5410 H   0  0  0  0  0  0  0  0  0  0  0  0
   -9.4514   21.7223  -31.7397 H   0  0  0  0  0  0  0  0  0  0  0  0
   -9.1102   19.5350  -32.9303 H   0  0  0  0  0  0  0  0  0  0  0  0
   -7.2390   17.5640  -33.2470 H   0  0  0  0  0  0  0  0  0  0  0  0
   -6.3279   18.3008  -35.6273 H   0  0  0  0  0  0  0  0  0  0  0  0
   -4.9850   18.9734  -34.6258 H   0  0  0  0  0  0  0  0  0  0  0  0
   -5.1768   16.3469  -35.6060 H   0  0  0  0  0  0  0  0  0  0  0  0
   -4.0704   16.9388  -34.3078 H   0  0  0  0  0  0  0  0  0  0  0  0
   -5.6340   15.9270  -31.5212 H   0  0  0  0  0  0  0  0  0  0  0  0
   -4.5588   14.7865  -32.3987 H   0  0  0  0  0  0  0  0  0  0  0  0
   -4.1937   16.5453  -32.3987 H   0  0  0  0  0  0  0  0  0  0  0  0
   -6.2515   13.9107  -33.4033 H   0  0  0  0  0  0  0  0  0  0  0  0
   -7.0007   14.7019  -34.8314 H   0  0  0  0  0  0  0  0  0  0  0  0
   -5.2442   14.3259  -34.8314 H   0  0  0  0  0  0  0  0  0  0  0  0
   -4.7898   20.0770  -32.6789 H   0  0  0  0  0  0  0  0  0  0  0  0
  1  2  1  0
  2  3  2  0
  2  4  1  0
  4  5  1  0
  5  6  2  0
  5  7  1  0
  7  8  1  0
  8  9  1  0
  9 10  1  0
  9 11  2  0
  8 12  2  0
 12 13  1  0
 13 14  2  0
 14 15  1  0
 15 16  2  0
 16 17  1  0
 17 18  1  0
 18 19  1  0
 19 20  1  0
 20 21  1  0
 20 22  1  0
 16 23  1  0
 23 24  2  0
 24  7  1  0
 24 13  1  0
  1 25  1  0
  1 26  1  0
  1 27  1  0
  4 28  1  0
 10 29  1  0
 10 30  1  0
 12 31  1  0
 14 32  1  0
 15 33  1  0
 17 34  1  0
 18 35  1  0
 18 36  1  0
 19 37  1  0
 19 38  1  0
 21 39  1  0
 21 40  1  0
 21 41  1  0
 22 42  1  0
 22 43  1  0
 22 44  1  0
 23 45  1  0
M  END
>  <UniqueID>  (59) 
59

>  <SMILES>  (59) 
CC(=O)NC(=O)n1c(C(N)=O)cc2ccc(NCCN(C)C)cc21

>  <Energy>  (59) 
80.68623537701252

>  <Genealogy>  (59) 
CC(=O)NC(=O)n1c(C(N)=O)cc2ccc(NCCN(C)C)cc21 (3D coordinates assigned)
CC(=O)NC(=O)n1c(C(N)=O)cc2ccc(NCCN(C)C)cc21 (optimized conformer: 80.68623537701252 kcal/mol)

>  <smiles>  (59) 
CC(=O)NC(=O)n1c(C(N)=O)cc2ccc(NCCN(C)C)cc21

>  <score_type>  (59) 
oracle

>  <origin>  (59) 
adg

>  <m_score__min__energy>  (59) 
-8.9000000000000004

>  <m_primary>  (59) 
energy

$$$$
59:0
     RDKit          3D

 34 35  0  0  0  0  0  0  0  0999 V2000
   -5.7630   16.9700  -32.3390 C   0  0  0  0  0  0  0  0  0  0  0  0
   -6.6180   17.9440  -32.9270 O   0  0  0  0  0  0  0  0  0  0  0  0
   -6.1500   18.9230  -33.8090 C   0  0  0  0  0  0  0  0  0  0  0  0
   -5.7080   18.6000  -34.9450 O   0  0  0  0  0  0  0  0  0  0  0  0
   -6.1210   20.3670  -33.3870 C   0  0  1  0  0  0  0  0  0  0  0  0
   -7.3190   20.7190  -32.4970 C   0  0  0  0  0  0  0  0  0  0  0  0
   -4.8120   20.6920  -32.6950 C   0  0  0  0  0  0  0  0  0  0  0  0
   -3.7180   19.7950  -32.7980 C   0  0  0  0  0  0  0  0  0  0  0  0
   -2.5010   20.0690  -32.1540 C   0  0  0  0  0  0  0  0  0  0  0  0
   -2.3980   21.2480  -31.4250 C   0  0  0  0  0  0  0  0  0  0  0  0
   -1.3490   21.7370  -30.6800 C   0  0  0  0  0  0  0  0  0  0  0  0
   -1.8030   22.9440  -30.1560 C   0  0  0  0  0  0  0  0  0  0  0  0
   -0.9630   23.8380  -29.3330 C   0  0  0  0  0  0  0  0  0  0  0  0
   -1.2730   25.2250  -29.1970 N   0  0  0  0  0  0  0  0  0  0  0  0
    0.0750   23.3790  -28.7870 O   0  0  0  0  0  0  0  0  0  0  0  0
   -3.0850   23.1890  -30.5490 N   0  0  0  0  0  0  0  0  0  0  0  0
   -3.9370   24.2680  -30.1270 C   0  0  0  0  0  0  0  0  0  0  0  0
   -4.7500   24.1020  -29.1780 O   0  0  0  0  0  0  0  0  0  0  0  0
   -3.8770   25.5030  -30.7590 O   0  0  0  0  0  0  0  0  0  0  0  0
   -3.4340   22.1420  -31.3290 C   0  0  0  0  0  0  0  0  0  0  0  0
   -4.6660   21.8830  -31.9420 C   0  0  0  0  0  0  0  0  0  0  0  0
   -5.8254   17.0411  -31.2431 H   0  0  0  0  0  0  0  0  0  0  0  0
   -6.0764   15.9655  -32.6597 H   0  0  0  0  0  0  0  0  0  0  0  0
   -4.7264   17.1506  -32.6597 H   0  0  0  0  0  0  0  0  0  0  0  0
   -6.1965   20.9852  -34.2937 H   0  0  0  0  0  0  0  0  0  0  0  0
   -7.0279   20.6335  -31.4397 H   0  0  0  0  0  0  0  0  0  0  0  0
   -7.6411   21.7497  -32.7064 H   0  0  0  0  0  0  0  0  0  0  0  0
   -8.1474   20.0263  -32.7064 H   0  0  0  0  0  0  0  0  0  0  0  0
   -3.8245   18.8737  -33.3895 H   0  0  0  0  0  0  0  0  0  0  0  0
   -1.6537   19.3711  -32.2243 H   0  0  0  0  0  0  0  0  0  0  0  0
   -0.3628   21.2732  -30.5307 H   0  0  0  0  0  0  0  0  0  0  0  0
   -2.0240   25.6690  -29.7690 H   0  0  0  0  0  0  0  0  0  0  0  0
   -0.6900   25.8330  -28.5800 H   0  0  0  0  0  0  0  0  0  0  0  0
   -5.5030   22.5896  -31.8410 H   0  0  0  0  0  0  0  0  0  0  0  0
  1  2  1  0
  2  3  1  0
  3  4  2  0
  3  5  1  0
  5  6  1  0
  5  7  1  0
  7  8  2  0
  8  9  1  0
  9 10  2  0
 10 11  1  0
 11 12  2  0
 12 13  1  0
 13 14  1  0
 13 15  2  0
 12 16  1  0
 16 17  1  0
 17 18  2  0
 17 19  1  0
 16 20  1  0
 20 21  2  0
 21  7  1  0
 20 10  1  0
  1 22  1  0
  1 23  1  0
  1 24  1  0
  5 25  1  6
  6 26  1  0
  6 27  1  0
  6 28  1  0
  8 29  1  0
  9 30  1  0
 11 31  1  0
 14 32  1  0
 14 33  1  0
 21 34  1  0
M  CHG  1  19  -1
M  END
>  <UniqueID>  (60) 
60

>  <SMILES>  (60) 
COC(=O)[C@@H](C)c1ccc2cc(C(N)=O)n(C(=O)[O-])c2c1

>  <Energy>  (60) 
70.01351308579676

>  <Genealogy>  (60) 
COC(=O)C(C)c1ccc2cc(C(N)=O)n(C(=O)[O-])c2c1 (protonated)
COC(=O)[C@@H](C)c1ccc2cc(C(N)=O)n(C(=O)[O-])c2c1 (chirality)
COC(=O)[C@@H](C)c1ccc2cc(C(N)=O)n(C(=O)[O-])c2c1 (3D coordinates assigned)
COC(=O)[C@@H](C)c1ccc2cc(C(N)=O)n(C(=O)[O-])c2c1 (optimized conformer: 70.01351308579676 kcal/mol)

>  <smiles>  (60) 
COC(=O)C(C)c1ccc2cc(C(N)=O)n(C(=O)O)c2c1

>  <score_type>  (60) 
oracle

>  <origin>  (60) 
adg

>  <m_score__min__energy>  (60) 
-8.6400000000000006

>  <m_primary>  (60) 
energy

$$$$
60:0
     RDKit          3D

 28 29  0  0  0  0  0  0  0  0999 V2000
   -3.2900   22.9660  -28.8870 C   0  0  0  0  0  0  0  0  0  0  0  0
   -2.8860   23.1390  -30.2400 O   0  0  0  0  0  0  0  0  0  0  0  0
   -3.6640   22.7100  -31.3200 C   0  0  0  0  0  0  0  0  0  0  0  0
   -3.1180   22.1890  -32.3310 O   0  0  0  0  0  0  0  0  0  0  0  0
   -5.0890   22.8860  -31.2860 N   0  0  0  0  0  0  0  0  0  0  0  0
   -5.7810   24.0270  -31.0080 C   0  0  0  0  0  0  0  0  0  0  0  0
   -5.2030   25.2910  -30.5080 C   0  0  0  0  0  0  0  0  0  0  0  0
   -3.8710   25.6720  -30.8430 N   0  0  0  0  0  0  0  0  0  0  0  0
   -5.8760   26.0210  -29.7310 O   0  0  0  0  0  0  0  0  0  0  0  0
   -7.1470   23.8240  -31.1790 C   0  0  0  0  0  0  0  0  0  0  0  0
   -7.2760   22.5100  -31.5660 C   0  0  0  0  0  0  0  0  0  0  0  0
   -8.4170   21.7740  -31.8700 C   0  0  0  0  0  0  0  0  0  0  0  0
   -8.2530   20.4370  -32.2640 C   0  0  0  0  0  0  0  0  0  0  0  0
   -6.9580   19.8650  -32.3720 C   0  0  0  0  0  0  0  0  0  0  0  0
   -6.7980   18.4170  -32.7590 C   0  0  0  0  0  0  0  0  0  0  0  0
   -5.7940   17.8510  -31.9960 F   0  0  0  0  0  0  0  0  0  0  0  0
   -7.9740   17.7200  -32.5460 F   0  0  0  0  0  0  0  0  0  0  0  0
   -6.4650   18.3030  -34.0970 F   0  0  0  0  0  0  0  0  0  0  0  0
   -5.8250   20.6400  -32.0310 C   0  0  0  0  0  0  0  0  0  0  0  0
   -6.0200   21.9650  -31.6250 C   0  0  0  0  0  0  0  0  0  0  0  0
   -2.4874   23.3097  -28.2179 H   0  0  0  0  0  0  0  0  0  0  0  0
   -4.2010   23.5529  -28.6985 H   0  0  0  0  0  0  0  0  0  0  0  0
   -3.4939   21.9016  -28.6985 H   0  0  0  0  0  0  0  0  0  0  0  0
   -3.0550   25.2970  -30.3100 H   0  0  0  0  0  0  0  0  0  0  0  0
   -7.9531   24.5586  -31.0352 H   0  0  0  0  0  0  0  0  0  0  0  0
   -9.4174   22.2264  -31.8035 H   0  0  0  0  0  0  0  0  0  0  0  0
   -9.1382   19.8250  -32.4918 H   0  0  0  0  0  0  0  0  0  0  0  0
   -4.8135   20.2110  -32.0837 H   0  0  0  0  0  0  0  0  0  0  0  0
  1  2  1  0
  2  3  1  0
  3  4  2  0
  3  5  1  0
  5  6  1  0
  6  7  1  0
  7  8  1  0
  7  9  2  0
  6 10  2  0
 10 11  1  0
 11 12  2  0
 12 13  1  0
 13 14  2  0
 14 15  1  0
 15 16  1  0
 15 17  1  0
 15 18  1  0
 14 19  1  0
 19 20  2  0
 20  5  1  0
 20 11  1  0
  1 21  1  0
  1 22  1  0
  1 23  1  0
  8 24  1  0
 10 25  1  0
 12 26  1  0
 13 27  1  0
 19 28  1  0
M  CHG  1   8  -1
M  END
>  <UniqueID>  (61) 
61

>  <SMILES>  (61) 
COC(=O)n1c(C([NH-])=O)cc2ccc(C(F)(F)F)cc21

>  <Energy>  (61) 
66.32838425012189

>  <Genealogy>  (61) 
COC(=O)n1c(C([NH-])=O)cc2ccc(C(F)(F)F)cc21 (protonated)
COC(=O)n1c(C([NH-])=O)cc2ccc(C(F)(F)F)cc21 (3D coordinates assigned)
COC(=O)n1c(C([NH-])=O)cc2ccc(C(F)(F)F)cc21 (optimized conformer: 66.32838425012189 kcal/mol)

>  <smiles>  (61) 
COC(=O)n1c(C(N)=O)cc2ccc(C(F)(F)F)cc21

>  <score_type>  (61) 
oracle

>  <origin>  (61) 
adg

>  <m_score__min__energy>  (61) 
-8.8300000000000001

>  <m_primary>  (61) 
energy

$$$$
61:0
     RDKit          3D

 39 40  0  0  0  0  0  0  0  0999 V2000
   -1.3930   25.8080  -28.9670 N   0  0  0  0  0  0  0  0  0  0  0  0
   -0.8660   24.4890  -29.1040 C   0  0  0  0  0  0  0  0  0  0  0  0
    0.2360   24.2070  -28.5660 O   0  0  0  0  0  0  0  0  0  0  0  0
   -1.6380   23.4620  -29.8350 C   0  0  0  0  0  0  0  0  0  0  0  0
   -1.0850   22.2630  -30.2810 C   0  0  0  0  0  0  0  0  0  0  0  0
   -2.0890   21.6380  -30.9850 C   0  0  0  0  0  0  0  0  0  0  0  0
   -2.0900   20.4120  -31.6430 C   0  0  0  0  0  0  0  0  0  0  0  0
   -3.2780   20.0050  -32.2720 C   0  0  0  0  0  0  0  0  0  0  0  0
   -4.4380   20.8180  -32.2230 C   0  0  0  0  0  0  0  0  0  0  0  0
   -5.6980   20.3840  -32.9240 C   0  0  0  0  0  0  0  0  0  0  0  0
   -6.1850   19.0080  -32.4410 C   0  0  0  0  0  0  0  0  0  0  0  0
   -6.7260   18.1280  -33.5730 C   0  0  0  0  0  0  0  0  0  0  0  0
   -6.3080   16.7960  -33.3810 O   0  0  0  0  0  0  0  0  0  0  0  0
   -4.8280   16.5720  -34.1990 P   0  0  1  0  0  0  0  0  0  0  0  0
   -4.6880   15.1150  -34.5780 O   0  0  0  0  0  0  0  0  0  0  0  0
   -4.8610   17.5130  -35.6060 O   0  0  0  0  0  0  0  0  0  0  0  0
   -3.5410   17.0480  -33.1870 O   0  0  0  0  0  0  0  0  0  0  0  0
   -2.1340   17.1310  -34.1420 P   0  0  1  0  0  0  0  0  0  0  0  0
   -1.9250   18.5650  -34.5690 O   0  0  0  0  0  0  0  0  0  0  0  0
   -0.7780   16.6250  -33.2650 O   0  0  0  0  0  0  0  0  0  0  0  0
   -2.3030   16.1700  -35.5250 O   0  0  0  0  0  0  0  0  0  0  0  0
   -4.3970   22.0600  -31.5500 C   0  0  0  0  0  0  0  0  0  0  0  0
   -3.1950   22.4490  -30.9460 C   0  0  0  0  0  0  0  0  0  0  0  0
   -2.9350   23.5730  -30.2410 N   0  0  0  0  0  0  0  0  0  0  0  0
   -3.8670   24.6200  -29.9290 C   0  0  0  0  0  0  0  0  0  0  0  0
   -3.8920   25.6750  -30.6160 O   0  0  0  0  0  0  0  0  0  0  0  0
   -4.7700   24.4680  -28.8830 O   0  0  0  0  0  0  0  0  0  0  0  0
   -2.4230   25.9750  -28.9630 H   0  0  0  0  0  0  0  0  0  0  0  0
   -0.0632   21.8945  -30.1073 H   0  0  0  0  0  0  0  0  0  0  0  0
   -1.1890   19.7816  -31.6697 H   0  0  0  0  0  0  0  0  0  0  0  0
   -3.3085   19.0451  -32.8083 H   0  0  0  0  0  0  0  0  0  0  0  0
   -6.4856   21.1270  -32.7299 H   0  0  0  0  0  0  0  0  0  0  0  0
   -5.4777   20.3068  -33.9989 H   0  0  0  0  0  0  0  0  0  0  0  0
   -5.3419   18.4861  -31.9648 H   0  0  0  0  0  0  0  0  0  0  0  0
   -7.0130   19.1823  -31.7381 H   0  0  0  0  0  0  0  0  0  0  0  0
   -7.8252   18.1695  -33.5748 H   0  0  0  0  0  0  0  0  0  0  0  0
   -6.3406   18.4953  -34.5356 H   0  0  0  0  0  0  0  0  0  0  0  0
   -3.2620   16.2390  -35.7650 H   0  0  0  0  0  0  0  0  0  0  0  0
   -5.2868   22.7049  -31.5018 H   0  0  0  0  0  0  0  0  0  0  0  0
  1  2  1  0
  2  3  2  0
  2  4  1  0
  4  5  2  0
  5  6  1  0
  6  7  2  0
  7  8  1  0
  8  9  2  0
  9 10  1  0
 10 11  1  0
 11 12  1  0
 12 13  1  0
 13 14  1  0
 14 15  2  0
 14 16  1  6
 14 17  1  0
 17 18  1  0
 18 19  2  0
 18 20  1  1
 18 21  1  0
  9 22  1  0
 22 23  2  0
 23 24  1  0
 24 25  1  0
 25 26  2  0
 25 27  1  0
 24  4  1  0
 23  6  1  0
  1 28  1  0
  5 29  1  0
  7 30  1  0
  8 31  1  0
 10 32  1  0
 10 33  1  0
 11 34  1  0
 11 35  1  0
 12 36  1  0
 12 37  1  0
 21 38  1  0
 22 39  1  0
M  CHG  4   1  -1  16  -1  20  -1  27  -1
M  END
>  <UniqueID>  (62) 
62

>  <SMILES>  (62) 
[NH-]C(=O)c1cc2ccc(CCCO[P@@](=O)([O-])O[P@@](=O)([O-])O)cc2n1C(=O)[O-]

>  <Energy>  (62) 
69.47068928687095

>  <Genealogy>  (62) 
[NH-]C(=O)c1cc2ccc(CCCOP(=O)([O-])OP(=O)([O-])O)cc2n1C(=O)[O-] (protonated)
[NH-]C(=O)c1cc2ccc(CCCO[P@@](=O)([O-])O[P@@](=O)([O-])O)cc2n1C(=O)[O-] (chirality)
[NH-]C(=O)c1cc2ccc(CCCO[P@@](=O)([O-])O[P@@](=O)([O-])O)cc2n1C(=O)[O-] (3D coordinates assigned)
[NH-]C(=O)c1cc2ccc(CCCO[P@@](=O)([O-])O[P@@](=O)([O-])O)cc2n1C(=O)[O-] (optimized conformer: 69.47068928687095 kcal/mol)

>  <smiles>  (62) 
NC(=O)c1cc2ccc(CCCOP(=O)(O)OP(=O)(O)O)cc2n1C(=O)O

>  <score_type>  (62) 
oracle

>  <origin>  (62) 
adg

>  <m_score__min__energy>  (62) 
-13.1

>  <m_primary>  (62) 
energy

$$$$
62:0
     RDKit          3D

 58 61  0  0  0  0  0  0  0  0999 V2000
   -5.7250   25.1410  -28.8570 N   0  0  0  0  0  0  0  0  0  0  0  0
   -5.7680   25.0300  -30.2780 C   0  0  0  0  0  0  0  0  0  0  0  0
   -5.5570   26.0490  -30.9880 O   0  0  0  0  0  0  0  0  0  0  0  0
   -6.1270   23.7570  -30.9260 C   0  0  0  0  0  0  0  0  0  0  0  0
   -7.4370   23.3550  -31.1710 C   0  0  0  0  0  0  0  0  0  0  0  0
   -7.3310   22.1320  -31.7970 C   0  0  0  0  0  0  0  0  0  0  0  0
   -8.3200   21.2520  -32.2270 C   0  0  0  0  0  0  0  0  0  0  0  0
   -7.9130   20.0310  -32.7910 C   0  0  0  0  0  0  0  0  0  0  0  0
   -6.5370   19.7090  -32.9140 C   0  0  0  0  0  0  0  0  0  0  0  0
   -6.1420   18.4170  -33.4150 N   0  0  0  0  0  0  0  0  0  0  0  0
   -6.9260   17.2270  -33.0630 C   0  0  0  0  0  0  0  0  0  0  0  0
   -6.0760   15.9700  -33.2450 C   0  0  0  0  0  0  0  0  0  0  0  0
   -5.5300   15.9310  -34.5480 O   0  0  0  0  0  0  0  0  0  0  0  0
   -4.6080   16.9920  -34.7110 C   0  0  0  0  0  0  0  0  0  0  0  0
   -5.3160   18.3510  -34.6280 C   0  0  0  0  0  0  0  0  0  0  0  0
   -5.5640   20.6440  -32.4930 C   0  0  0  0  0  0  0  0  0  0  0  0
   -5.9980   21.8480  -31.9320 C   0  0  0  0  0  0  0  0  0  0  0  0
   -5.2470   22.8370  -31.4070 N   0  0  0  0  0  0  0  0  0  0  0  0
   -3.8220   22.9630  -31.5170 C   0  0  0  0  0  0  0  0  0  0  0  0
   -3.2170   23.8360  -30.8340 O   0  0  0  0  0  0  0  0  0  0  0  0
   -3.1160   22.1400  -32.3990 O   0  0  0  0  0  0  0  0  0  0  0  0
   -1.9920   21.3650  -31.9930 C   0  0  0  0  0  0  0  0  0  0  0  0
   -1.3580   20.6870  -33.2090 C   0  0  0  0  0  0  0  0  0  0  0  0
    0.1730   20.6460  -33.1070 C   0  0  0  0  0  0  0  0  0  0  0  0
    0.7510   20.1490  -34.3780 N   0  0  0  0  0  0  0  0  0  0  0  0
   -0.0990   20.4690  -35.5490 C   0  0  0  0  0  0  0  0  0  0  0  0
    0.2800   21.8130  -36.2070 C   0  0  0  0  0  0  0  0  0  0  0  0
    0.9140   22.6620  -35.2770 O   0  0  0  0  0  0  0  0  0  0  0  0
    2.1790   22.1330  -34.9160 C   0  0  0  0  0  0  0  0  0  0  0  0
    2.1330   20.6210  -34.5900 C   0  0  0  0  0  0  0  0  0  0  0  0
   -5.4390   26.0390  -28.4050 H   0  0  0  0  0  0  0  0  0  0  0  0
   -6.1140   24.3810  -28.2590 H   0  0  0  0  0  0  0  0  0  0  0  0
   -8.3599   23.8978  -30.9187 H   0  0  0  0  0  0  0  0  0  0  0  0
   -9.3861   21.5043  -32.1285 H   0  0  0  0  0  0  0  0  0  0  0  0
   -8.6714   19.3155  -33.1417 H   0  0  0  0  0  0  0  0  0  0  0  0
   -7.2485   17.3002  -32.0139 H   0  0  0  0  0  0  0  0  0  0  0  0
   -7.8062   17.1665  -33.7199 H   0  0  0  0  0  0  0  0  0  0  0  0
   -5.2585   15.9752  -32.5091 H   0  0  0  0  0  0  0  0  0  0  0  0
   -6.7112   15.0842  -33.0967 H   0  0  0  0  0  0  0  0  0  0  0  0
   -3.8476   16.9332  -33.9184 H   0  0  0  0  0  0  0  0  0  0  0  0
   -4.1386   16.9004  -35.7016 H   0  0  0  0  0  0  0  0  0  0  0  0
   -4.5630   19.1523  -34.5994 H   0  0  0  0  0  0  0  0  0  0  0  0
   -5.9614   18.4750  -35.5101 H   0  0  0  0  0  0  0  0  0  0  0  0
   -4.4910   20.4290  -32.6043 H   0  0  0  0  0  0  0  0  0  0  0  0
   -1.2506   22.0215  -31.5141 H   0  0  0  0  0  0  0  0  0  0  0  0
   -2.3226   20.5944  -31.2811 H   0  0  0  0  0  0  0  0  0  0  0  0
   -1.7375   19.6570  -33.2802 H   0  0  0  0  0  0  0  0  0  0  0  0
   -1.6250   21.2702  -34.1027 H   0  0  0  0  0  0  0  0  0  0  0  0
    0.5522   21.6587  -32.9055 H   0  0  0  0  0  0  0  0  0  0  0  0
    0.4631   19.9702  -32.2890 H   0  0  0  0  0  0  0  0  0  0  0  0
    0.0120   19.6679  -36.2946 H   0  0  0  0  0  0  0  0  0  0  0  0
   -1.1371   20.5520  -35.1949 H   0  0  0  0  0  0  0  0  0  0  0  0
    0.9639   21.6234  -37.0475 H   0  0  0  0  0  0  0  0  0  0  0  0
   -0.6377   22.3028  -36.5646 H   0  0  0  0  0  0  0  0  0  0  0  0
    2.8759   22.2899  -35.7525 H   0  0  0  0  0  0  0  0  0  0  0  0
    2.5056   22.6556  -34.0049 H   0  0  0  0  0  0  0  0  0  0  0  0
    2.5757   20.0623  -35.4278 H   0  0  0  0  0  0  0  0  0  0  0  0
    2.6982   20.4536  -33.6613 H   0  0  0  0  0  0  0  0  0  0  0  0
  1  2  1  0
  2  3  2  0
  2  4  1  0
  4  5  2  0
  5  6  1  0
  6  7  2  0
  7  8  1  0
  8  9  2  0
  9 10  1  0
 10 11  1  0
 11 12  1  0
 12 13  1  0
 13 14  1  0
 14 15  1  0
  9 16  1  0
 16 17  2  0
 17 18  1  0
 18 19  1  0
 19 20  2  0
 19 21  1  0
 21 22  1  0
 22 23  1  0
 23 24  1  0
 24 25  1  0
 25 26  1  0
 26 27  1  0
 27 28  1  0
 28 29  1  0
 29 30  1  0
 18  4  1  0
 30 25  1  0
 17  6  1  0
 15 10  1  0
  1 31  1  0
  1 32  1  0
  5 33  1  0
  7 34  1  0
  8 35  1  0
 11 36  1  0
 11 37  1  0
 12 38  1  0
 12 39  1  0
 14 40  1  0
 14 41  1  0
 15 42  1  0
 15 43  1  0
 16 44  1  0
 22 45  1  0
 22 46  1  0
 23 47  1  0
 23 48  1  0
 24 49  1  0
 24 50  1  0
 26 51  1  0
 26 52  1  0
 27 53  1  0
 27 54  1  0
 29 55  1  0
 29 56  1  0
 30 57  1  0
 30 58  1  0
M  END
>  <UniqueID>  (63) 
63

>  <SMILES>  (63) 
NC(=O)c1cc2ccc(N3CCOCC3)cc2n1C(=O)OCCCN1CCOCC1

>  <Energy>  (63) 
115.47976996612071

>  <Genealogy>  (63) 
NC(=O)c1cc2ccc(N3CCOCC3)cc2n1C(=O)OCCCN1CCOCC1 (3D coordinates assigned)
NC(=O)c1cc2ccc(N3CCOCC3)cc2n1C(=O)OCCCN1CCOCC1 (nonaromatic ring conformer: 115.47976996612071 kcal/mol)

>  <smiles>  (63) 
NC(=O)c1cc2ccc(N3CCOCC3)cc2n1C(=O)OCCCN1CCOCC1

>  <score_type>  (63) 
oracle

>  <origin>  (63) 
adg

>  <m_score__min__energy>  (63) 
-9.4399999999999995

>  <m_primary>  (63) 
energy

$$$$
63:0
     RDKit          3D

 33 34  0  0  0  0  0  0  0  0999 V2000
   -4.2290   25.5740  -30.6080 N   0  0  0  0  0  0  0  0  0  0  0  0
   -5.5810   25.1790  -30.3670 C   0  0  0  0  0  0  0  0  0  0  0  0
   -6.3360   25.9550  -29.7250 O   0  0  0  0  0  0  0  0  0  0  0  0
   -6.0890   23.8690  -30.8380 C   0  0  0  0  0  0  0  0  0  0  0  0
   -7.4270   23.5940  -31.1220 C   0  0  0  0  0  0  0  0  0  0  0  0
   -7.4460   22.2950  -31.5780 C   0  0  0  0  0  0  0  0  0  0  0  0
   -8.5150   21.5020  -31.9860 C   0  0  0  0  0  0  0  0  0  0  0  0
   -8.2420   20.1810  -32.3820 C   0  0  0  0  0  0  0  0  0  0  0  0
   -6.9160   19.6790  -32.3600 C   0  0  0  0  0  0  0  0  0  0  0  0
   -6.6490   18.2600  -32.7710 C   0  0  0  0  0  0  0  0  0  0  0  0
   -5.7980   17.6610  -31.8580 F   0  0  0  0  0  0  0  0  0  0  0  0
   -6.0600   18.2420  -34.0220 F   0  0  0  0  0  0  0  0  0  0  0  0
   -5.8570   20.5130  -31.9350 C   0  0  0  0  0  0  0  0  0  0  0  0
   -6.1580   21.8280  -31.5630 C   0  0  0  0  0  0  0  0  0  0  0  0
   -5.3140   22.7840  -31.1190 N   0  0  0  0  0  0  0  0  0  0  0  0
   -3.9000   22.6440  -30.9120 C   0  0  0  0  0  0  0  0  0  0  0  0
   -3.1150   23.4040  -31.5380 O   0  0  0  0  0  0  0  0  0  0  0  0
   -3.3840   21.6050  -29.9900 C   0  0  0  0  0  0  0  0  0  0  0  0
   -3.7520   20.4130  -30.1630 O   0  0  0  0  0  0  0  0  0  0  0  0
   -2.4840   21.8790  -28.9040 N   0  0  0  0  0  0  0  0  0  0  0  0
   -2.3380   23.1220  -28.1510 C   0  0  0  0  0  0  0  0  0  0  0  0
   -1.5740   24.1470  -28.9360 C   0  0  0  0  0  0  0  0  0  0  0  0
   -0.3680   23.9590  -29.2440 O   0  0  0  0  0  0  0  0  0  0  0  0
   -2.2180   25.2980  -29.3730 O   0  0  0  0  0  0  0  0  0  0  0  0
   -3.8690   26.4740  -30.2220 H   0  0  0  0  0  0  0  0  0  0  0  0
   -3.5840   24.9930  -31.1880 H   0  0  0  0  0  0  0  0  0  0  0  0
   -8.2855   24.2719  -31.0061 H   0  0  0  0  0  0  0  0  0  0  0  0
   -9.5416   21.8969  -31.9982 H   0  0  0  0  0  0  0  0  0  0  0  0
   -9.0652   19.5303  -32.7122 H   0  0  0  0  0  0  0  0  0  0  0  0
   -7.6006   17.7091  -32.8025 H   0  0  0  0  0  0  0  0  0  0  0  0
   -4.8235   20.1383  -31.8976 H   0  0  0  0  0  0  0  0  0  0  0  0
   -3.3369   23.5198  -27.9185 H   0  0  0  0  0  0  0  0  0  0  0  0
   -1.7813   22.9056  -27.2273 H   0  0  0  0  0  0  0  0  0  0  0  0
  1  2  1  0
  2  3  2  0
  2  4  1  0
  4  5  2  0
  5  6  1  0
  6  7  2  0
  7  8  1  0
  8  9  2  0
  9 10  1  0
 10 11  1  0
 10 12  1  0
  9 13  1  0
 13 14  2  0
 14 15  1  0
 15 16  1  0
 16 17  2  0
 16 18  1  0
 18 19  2  0
 18 20  1  0
 20 21  1  0
 21 22  1  0
 22 23  2  0
 22 24  1  0
 15  4  1  0
 14  6  1  0
  1 25  1  0
  1 26  1  0
  5 27  1  0
  7 28  1  0
  8 29  1  0
 10 30  1  0
 13 31  1  0
 21 32  1  0
 21 33  1  0
M  CHG  2  20  -1  24  -1
M  END
>  <UniqueID>  (64) 
64

>  <SMILES>  (64) 
NC(=O)c1cc2ccc(C(F)F)cc2n1C(=O)C(=O)[N-]CC(=O)[O-]

>  <Energy>  (64) 
73.50307710797516

>  <Genealogy>  (64) 
NC(=O)c1cc2ccc(C(F)F)cc2n1C(=O)C(=O)[N-]CC(=O)[O-] (protonated)
NC(=O)c1cc2ccc(C(F)F)cc2n1C(=O)C(=O)[N-]CC(=O)[O-] (3D coordinates assigned)
NC(=O)c1cc2ccc(C(F)F)cc2n1C(=O)C(=O)[N-]CC(=O)[O-] (optimized conformer: 73.50307710797516 kcal/mol)

>  <smiles>  (64) 
NC(=O)c1cc2ccc(C(F)F)cc2n1C(=O)C(=O)NCC(=O)O

>  <score_type>  (64) 
oracle

>  <origin>  (64) 
adg

>  <m_score__min__energy>  (64) 
-11.01

>  <m_primary>  (64) 
energy

$$$$
64:0
     RDKit          3D

 48 50  0  0  0  0  0  0  0  0999 V2000
   -3.0000   16.3010  -35.5910 C   0  0  0  0  0  0  0  0  0  0  0  0
   -4.2750   16.0890  -34.7740 C   0  0  2  0  0  0  0  0  0  0  0  0
   -4.5090   17.2730  -33.8040 C   0  0  0  0  0  0  0  0  0  0  0  0
   -5.3670   16.8530  -32.6870 N   0  0  0  0  0  0  0  0  0  0  0  0
   -6.4690   17.6610  -32.2230 C   0  0  0  0  0  0  0  0  0  0  0  0
   -6.7920   17.6220  -31.0030 O   0  0  0  0  0  0  0  0  0  0  0  0
   -7.2240   18.5680  -33.1600 C   0  0  0  0  0  0  0  0  0  0  0  0
   -7.3090   19.9760  -32.6280 C   0  0  0  0  0  0  0  0  0  0  0  0
   -8.5740   20.5870  -32.4440 C   0  0  0  0  0  0  0  0  0  0  0  0
   -8.6710   21.8890  -31.9230 C   0  0  0  0  0  0  0  0  0  0  0  0
   -7.4910   22.5450  -31.5860 C   0  0  0  0  0  0  0  0  0  0  0  0
   -7.2920   23.8070  -31.0710 C   0  0  0  0  0  0  0  0  0  0  0  0
   -5.9110   23.9320  -30.9230 C   0  0  0  0  0  0  0  0  0  0  0  0
   -5.2570   25.1120  -30.3180 C   0  0  0  0  0  0  0  0  0  0  0  0
   -4.0350   25.6220  -30.8430 N   0  0  0  0  0  0  0  0  0  0  0  0
   -5.7650   25.6540  -29.3000 O   0  0  0  0  0  0  0  0  0  0  0  0
   -5.2830   22.7970  -31.3430 N   0  0  0  0  0  0  0  0  0  0  0  0
   -3.8730   22.5360  -31.4130 C   0  0  0  0  0  0  0  0  0  0  0  0
   -3.3450   22.2600  -32.5220 O   0  0  0  0  0  0  0  0  0  0  0  0
   -3.0250   22.6360  -30.2190 C   0  0  0  0  0  0  0  0  0  0  0  0
   -2.2740   23.6310  -30.0460 O   0  0  0  0  0  0  0  0  0  0  0  0
   -6.2630   21.9580  -31.7370 C   0  0  0  0  0  0  0  0  0  0  0  0
   -6.1330   20.6680  -32.2630 C   0  0  0  0  0  0  0  0  0  0  0  0
   -4.9990   15.6480  -31.9330 C   0  0  0  0  0  0  0  0  0  0  0  0
   -3.8970   14.8590  -32.6670 C   0  0  1  0  0  0  0  0  0  0  0  0
   -3.7350   13.4580  -32.0750 C   0  0  0  0  0  0  0  0  0  0  0  0
   -4.2130   14.7690  -34.1020 N   0  0  0  0  0  0  0  0  0  0  0  0
   -2.1476   16.4427  -34.9103 H   0  0  0  0  0  0  0  0  0  0  0  0
   -2.8203   15.4204  -36.2252 H   0  0  0  0  0  0  0  0  0  0  0  0
   -3.1149   17.1924  -36.2252 H   0  0  0  0  0  0  0  0  0  0  0  0
   -5.1537   16.0733  -35.4355 H   0  0  0  0  0  0  0  0  0  0  0  0
   -3.5412   17.6161  -33.4095 H   0  0  0  0  0  0  0  0  0  0  0  0
   -5.0040   18.0905  -34.3487 H   0  0  0  0  0  0  0  0  0  0  0  0
   -6.7087   18.5849  -34.1317 H   0  0  0  0  0  0  0  0  0  0  0  0
   -8.2476   18.1786  -33.2624 H   0  0  0  0  0  0  0  0  0  0  0  0
   -9.4886   20.0375  -32.7113 H   0  0  0  0  0  0  0  0  0  0  0  0
   -9.6488   22.3739  -31.7860 H   0  0  0  0  0  0  0  0  0  0  0  0
   -8.0593   24.5568  -30.8281 H   0  0  0  0  0  0  0  0  0  0  0  0
   -3.1140   25.2840  -30.4860 H   0  0  0  0  0  0  0  0  0  0  0  0
   -3.0461   21.8329  -29.4676 H   0  0  0  0  0  0  0  0  0  0  0  0
   -5.1428   20.2057  -32.3887 H   0  0  0  0  0  0  0  0  0  0  0  0
   -4.6307   15.9427  -30.9393 H   0  0  0  0  0  0  0  0  0  0  0  0
   -5.8876   15.0068  -31.8370 H   0  0  0  0  0  0  0  0  0  0  0  0
   -2.9458   15.3962  -32.5382 H   0  0  0  0  0  0  0  0  0  0  0  0
   -3.7423   13.5209  -30.9768 H   0  0  0  0  0  0  0  0  0  0  0  0
   -4.5653   12.8196  -32.4112 H   0  0  0  0  0  0  0  0  0  0  0  0
   -2.7809   13.0259  -32.4112 H   0  0  0  0  0  0  0  0  0  0  0  0
   -5.1420   14.2950  -34.2110 H   0  0  0  0  0  0  0  0  0  0  0  0
  1  2  1  0
  2  3  1  0
  3  4  1  0
  4  5  1  0
  5  6  2  0
  5  7  1  0
  7  8  1  0
  8  9  2  0
  9 10  1  0
 10 11  2  0
 11 12  1  0
 12 13  2  0
 13 14  1  0
 14 15  1  0
 14 16  2  0
 13 17  1  0
 17 18  1  0
 18 19  2  0
 18 20  1  0
 20 21  2  0
 17 22  1  0
 22 23  2  0
  4 24  1  0
 24 25  1  0
 25 26  1  0
 25 27  1  0
 27  2  1  0
 23  8  1  0
 22 11  1  0
  1 28  1  0
  1 29  1  0
  1 30  1  0
  2 31  1  6
  3 32  1  0
  3 33  1  0
  7 34  1  0
  7 35  1  0
  9 36  1  0
 10 37  1  0
 12 38  1  0
 15 39  1  0
 20 40  1  0
 23 41  1  0
 24 42  1  0
 24 43  1  0
 25 44  1  6
 26 45  1  0
 26 46  1  0
 26 47  1  0
 27 48  1  0
M  CHG  1  15  -1
M  END
>  <UniqueID>  (65) 
65

>  <SMILES>  (65) 
C[C@@H]1CN(C(=O)Cc2ccc3cc(C([NH-])=O)n(C(=O)C=O)c3c2)C[C@@H](C)N1

>  <Energy>  (65) 
90.34581969793975

>  <Genealogy>  (65) 
CC1CN(C(=O)Cc2ccc3cc(C([NH-])=O)n(C(=O)C=O)c3c2)C[C@@H](C)N1 (protonated)
C[C@@H]1CN(C(=O)Cc2ccc3cc(C([NH-])=O)n(C(=O)C=O)c3c2)C[C@@H](C)N1 (chirality)
C[C@@H]1CN(C(=O)Cc2ccc3cc(C([NH-])=O)n(C(=O)C=O)c3c2)C[C@@H](C)N1 (3D coordinates assigned)
C[C@@H]1CN(C(=O)Cc2ccc3cc(C([NH-])=O)n(C(=O)C=O)c3c2)C[C@@H](C)N1 (nonaromatic ring conformer: 90.34581969793975 kcal/mol)

>  <smiles>  (65) 
CC1CN(C(=O)Cc2ccc3cc(C(N)=O)n(C(=O)C=O)c3c2)C[C@@H](C)N1

>  <score_type>  (65) 
oracle

>  <origin>  (65) 
adg

>  <m_score__min__energy>  (65) 
-11.56

>  <m_primary>  (65) 
energy

$$$$
65:0
     RDKit          3D

 42 43  0  0  0  0  0  0  0  0999 V2000
   -1.9180   19.2760  -32.1450 C   0  0  0  0  0  0  0  0  0  0  0  0
   -2.4210   19.8730  -33.3950 N   0  0  0  0  0  0  0  0  0  0  0  0
   -1.3120   20.3980  -34.2120 C   0  0  0  0  0  0  0  0  0  0  0  0
   -3.3000   18.9530  -34.1590 C   0  0  0  0  0  0  0  0  0  0  0  0
   -4.4080   18.2730  -33.3190 C   0  0  0  0  0  0  0  0  0  0  0  0
   -5.7920   18.3730  -33.9940 C   0  0  0  0  0  0  0  0  0  0  0  0
   -6.9520   18.5340  -32.9970 C   0  0  0  0  0  0  0  0  0  0  0  0
   -7.0970   19.9510  -32.5090 C   0  0  0  0  0  0  0  0  0  0  0  0
   -8.3860   20.4940  -32.2810 C   0  0  0  0  0  0  0  0  0  0  0  0
   -8.5340   21.7990  -31.7840 C   0  0  0  0  0  0  0  0  0  0  0  0
   -7.3820   22.5320  -31.5190 C   0  0  0  0  0  0  0  0  0  0  0  0
   -7.2390   23.8160  -31.0480 C   0  0  0  0  0  0  0  0  0  0  0  0
   -5.8650   24.0350  -30.9770 C   0  0  0  0  0  0  0  0  0  0  0  0
   -5.2670   25.2720  -30.4340 C   0  0  0  0  0  0  0  0  0  0  0  0
   -3.9590   25.6650  -30.8400 N   0  0  0  0  0  0  0  0  0  0  0  0
   -5.9150   26.0070  -29.6430 O   0  0  0  0  0  0  0  0  0  0  0  0
   -5.1820   22.9310  -31.3970 N   0  0  0  0  0  0  0  0  0  0  0  0
   -3.7610   22.7760  -31.5440 C   0  0  0  0  0  0  0  0  0  0  0  0
   -2.9830   23.1430  -30.6260 O   0  0  0  0  0  0  0  0  0  0  0  0
   -3.2300   22.2420  -32.7120 O   0  0  0  0  0  0  0  0  0  0  0  0
   -6.1260   22.0180  -31.7220 C   0  0  0  0  0  0  0  0  0  0  0  0
   -5.9490   20.7270  -32.2330 C   0  0  0  0  0  0  0  0  0  0  0  0
   -2.3596   19.8002  -31.2846 H   0  0  0  0  0  0  0  0  0  0  0  0
   -2.1963   18.2124  -32.1087 H   0  0  0  0  0  0  0  0  0  0  0  0
   -0.8226   19.3698  -32.1087 H   0  0  0  0  0  0  0  0  0  0  0  0
   -3.0120   20.6950  -33.1240 H   0  0  0  0  0  0  0  0  0  0  0  0
   -0.5166   20.7745  -33.5520 H   0  0  0  0  0  0  0  0  0  0  0  0
   -0.9116   19.5938  -34.8468 H   0  0  0  0  0  0  0  0  0  0  0  0
   -1.6802   21.2174  -34.8468 H   0  0  0  0  0  0  0  0  0  0  0  0
   -3.7832   19.5285  -34.9623 H   0  0  0  0  0  0  0  0  0  0  0  0
   -2.6542   18.1455  -34.5344 H   0  0  0  0  0  0  0  0  0  0  0  0
   -4.1529   17.2110  -33.1886 H   0  0  0  0  0  0  0  0  0  0  0  0
   -4.4652   18.7915  -32.3506 H   0  0  0  0  0  0  0  0  0  0  0  0
   -5.7887   19.2428  -34.6674 H   0  0  0  0  0  0  0  0  0  0  0  0
   -5.9577   17.4283  -34.5326 H   0  0  0  0  0  0  0  0  0  0  0  0
   -7.8873   18.2333  -33.4917 H   0  0  0  0  0  0  0  0  0  0  0  0
   -6.7352   17.8995  -32.1250 H   0  0  0  0  0  0  0  0  0  0  0  0
   -9.2785   19.8878  -32.4953 H   0  0  0  0  0  0  0  0  0  0  0  0
   -9.5314   22.2288  -31.6094 H   0  0  0  0  0  0  0  0  0  0  0  0
   -8.0404   24.5214  -30.7832 H   0  0  0  0  0  0  0  0  0  0  0  0
   -3.1120   25.2980  -30.3500 H   0  0  0  0  0  0  0  0  0  0  0  0
   -4.9409   20.3264  -32.4152 H   0  0  0  0  0  0  0  0  0  0  0  0
  1  2  1  0
  2  3  1  0
  2  4  1  0
  4  5  1  0
  5  6  1  0
  6  7  1  0
  7  8  1  0
  8  9  2  0
  9 10  1  0
 10 11  2  0
 11 12  1  0
 12 13  2  0
 13 14  1  0
 14 15  1  0
 14 16  2  0
 13 17  1  0
 17 18  1  0
 18 19  2  0
 18 20  1  0
 17 21  1  0
 21 22  2  0
 22  8  1  0
 21 11  1  0
  1 23  1  0
  1 24  1  0
  1 25  1  0
  2 26  1  0
  3 27  1  0
  3 28  1  0
  3 29  1  0
  4 30  1  0
  4 31  1  0
  5 32  1  0
  5 33  1  0
  6 34  1  0
  6 35  1  0
  7 36  1  0
  7 37  1  0
  9 38  1  0
 10 39  1  0
 12 40  1  0
 15 41  1  0
 22 42  1  0
M  CHG  3   2   1  15  -1  20  -1
M  END
>  <UniqueID>  (66) 
66

>  <SMILES>  (66) 
C[NH+](C)CCCCc1ccc2cc(C([NH-])=O)n(C(=O)[O-])c2c1

>  <Energy>  (66) 
78.27821166943214

>  <Genealogy>  (66) 
C[NH+](C)CCCCc1ccc2cc(C([NH-])=O)n(C(=O)[O-])c2c1 (protonated)
C[NH+](C)CCCCc1ccc2cc(C([NH-])=O)n(C(=O)[O-])c2c1 (3D coordinates assigned)
C[NH+](C)CCCCc1ccc2cc(C([NH-])=O)n(C(=O)[O-])c2c1 (optimized conformer: 78.27821166943214 kcal/mol)

>  <smiles>  (66) 
CN(C)CCCCc1ccc2cc(C(N)=O)n(C(=O)O)c2c1

>  <score_type>  (66) 
oracle

>  <origin>  (66) 
adg

>  <m_score__min__energy>  (66) 
-9.9000000000000004

>  <m_primary>  (66) 
energy

$$$$
66:0
     RDKit          3D

 47 49  0  0  0  0  0  0  0  0999 V2000
   -1.0540   26.2260  -28.2370 C   0  0  0  0  0  0  0  0  0  0  0  0
   -1.2590   24.8540  -28.7810 C   0  0  0  0  0  0  0  0  0  0  0  0
   -2.4730   24.3540  -29.0920 N   0  0  0  0  0  0  0  0  0  0  0  0
   -2.1810   23.1210  -29.5510 C   0  0  0  0  0  0  0  0  0  0  0  0
   -3.2070   22.1300  -30.0110 C   0  0  0  0  0  0  0  0  0  0  0  0
   -3.9570   22.6080  -31.2270 C   0  0  0  0  0  0  0  0  0  0  0  0
   -3.3080   22.8900  -32.2680 O   0  0  0  0  0  0  0  0  0  0  0  0
   -5.3890   22.7520  -31.2290 N   0  0  0  0  0  0  0  0  0  0  0  0
   -6.1010   23.8700  -30.9120 C   0  0  0  0  0  0  0  0  0  0  0  0
   -5.5420   25.1400  -30.4020 C   0  0  0  0  0  0  0  0  0  0  0  0
   -4.2170   25.5600  -30.7320 N   0  0  0  0  0  0  0  0  0  0  0  0
   -6.2340   25.8470  -29.6210 O   0  0  0  0  0  0  0  0  0  0  0  0
   -7.4620   23.6620  -31.1240 C   0  0  0  0  0  0  0  0  0  0  0  0
   -7.5660   22.3680  -31.5790 C   0  0  0  0  0  0  0  0  0  0  0  0
   -8.6900   21.6390  -31.9580 C   0  0  0  0  0  0  0  0  0  0  0  0
   -8.4990   20.3260  -32.4210 C   0  0  0  0  0  0  0  0  0  0  0  0
   -7.1960   19.7840  -32.5120 C   0  0  0  0  0  0  0  0  0  0  0  0
   -7.0100   18.4350  -32.9750 C   0  0  0  0  0  0  0  0  0  0  0  0
   -6.8460   17.3010  -33.3480 C   0  0  0  0  0  0  0  0  0  0  0  0
   -6.6290   15.9160  -33.8050 C   0  0  0  0  0  0  0  0  0  0  0  0
   -5.1970   15.5790  -33.9640 N   0  0  0  0  0  0  0  0  0  0  0  0
   -4.4300   16.6860  -34.5610 C   0  0  0  0  0  0  0  0  0  0  0  0
   -4.5870   15.1410  -32.6980 C   0  0  0  0  0  0  0  0  0  0  0  0
   -6.0780   20.5520  -32.1360 C   0  0  0  0  0  0  0  0  0  0  0  0
   -6.3000   21.8440  -31.6450 C   0  0  0  0  0  0  0  0  0  0  0  0
   -0.8180   22.9250  -29.5140 C   0  0  0  0  0  0  0  0  0  0  0  0
   -0.2780   24.0170  -29.0350 O   0  0  0  0  0  0  0  0  0  0  0  0
   -1.0595   26.1891  -27.1376 H   0  0  0  0  0  0  0  0  0  0  0  0
   -0.0873   26.6181  -28.5859 H   0  0  0  0  0  0  0  0  0  0  0  0
   -1.8639   26.8836  -28.5859 H   0  0  0  0  0  0  0  0  0  0  0  0
   -2.7010   21.1846  -30.2562 H   0  0  0  0  0  0  0  0  0  0  0  0
   -3.9348   21.9961  -29.1972 H   0  0  0  0  0  0  0  0  0  0  0  0
   -3.5470   24.9210  -31.2100 H   0  0  0  0  0  0  0  0  0  0  0  0
   -3.8650   26.4850  -30.3980 H   0  0  0  0  0  0  0  0  0  0  0  0
   -8.2796   24.3798  -30.9620 H   0  0  0  0  0  0  0  0  0  0  0  0
   -9.6970   22.0775  -31.8969 H   0  0  0  0  0  0  0  0  0  0  0  0
   -9.3670   19.7171  -32.7140 H   0  0  0  0  0  0  0  0  0  0  0  0
   -7.0711   15.2299  -33.0676 H   0  0  0  0  0  0  0  0  0  0  0  0
   -7.1028   15.8166  -34.7927 H   0  0  0  0  0  0  0  0  0  0  0  0
   -3.9997   17.3070  -33.7615 H   0  0  0  0  0  0  0  0  0  0  0  0
   -3.6205   16.2773  -35.1837 H   0  0  0  0  0  0  0  0  0  0  0  0
   -5.0970   17.3003  -35.1837 H   0  0  0  0  0  0  0  0  0  0  0  0
   -5.1596   15.5521  -31.8535 H   0  0  0  0  0  0  0  0  0  0  0  0
   -4.5966   14.0422  -32.6472 H   0  0  0  0  0  0  0  0  0  0  0  0
   -3.5489   15.5013  -32.6472 H   0  0  0  0  0  0  0  0  0  0  0  0
   -5.0586   20.1484  -32.2254 H   0  0  0  0  0  0  0  0  0  0  0  0
   -0.2819   22.0176  -29.8291 H   0  0  0  0  0  0  0  0  0  0  0  0
  1  2  1  0
  2  3  2  0
  3  4  1  0
  4  5  1  0
  5  6  1  0
  6  7  2  0
  6  8  1  0
  8  9  1  0
  9 10  1  0
 10 11  1  0
 10 12  2  0
  9 13  2  0
 13 14  1  0
 14 15  2  0
 15 16  1  0
 16 17  2  0
 17 18  1  0
 18 19  3  0
 19 20  1  0
 20 21  1  0
 21 22  1  0
 21 23  1  0
 17 24  1  0
 24 25  2  0
  4 26  2  0
 26 27  1  0
 27  2  1  0
 25  8  1  0
 25 14  1  0
  1 28  1  0
  1 29  1  0
  1 30  1  0
  5 31  1  0
  5 32  1  0
 11 33  1  0
 11 34  1  0
 13 35  1  0
 15 36  1  0
 16 37  1  0
 20 38  1  0
 20 39  1  0
 22 40  1  0
 22 41  1  0
 22 42  1  0
 23 43  1  0
 23 44  1  0
 23 45  1  0
 24 46  1  0
 26 47  1  0
M  END
>  <UniqueID>  (67) 
67

>  <SMILES>  (67) 
Cc1nc(CC(=O)n2c(C(N)=O)cc3ccc(C#CCN(C)C)cc32)co1

>  <Energy>  (67) 
111.89977033282257

>  <Genealogy>  (67) 
Cc1nc(CC(=O)n2c(C(N)=O)cc3ccc(C#CCN(C)C)cc32)co1 (3D coordinates assigned)
Cc1nc(CC(=O)n2c(C(N)=O)cc3ccc(C#CCN(C)C)cc32)co1 (optimized conformer: 111.89977033282257 kcal/mol)

>  <smiles>  (67) 
Cc1nc(CC(=O)n2c(C(N)=O)cc3ccc(C#CCN(C)C)cc32)co1

>  <score_type>  (67) 
oracle

>  <origin>  (67) 
adg

>  <m_score__min__energy>  (67) 
-9.7400000000000002

>  <m_primary>  (67) 
energy

$$$$
67:0
     RDKit          3D

 28 29  0  0  0  0  0  0  0  0999 V2000
   -3.2680   22.8430  -29.0180 C   0  0  0  0  0  0  0  0  0  0  0  0
   -2.9160   23.1400  -30.3650 O   0  0  0  0  0  0  0  0  0  0  0  0
   -3.7030   22.7540  -31.4540 C   0  0  0  0  0  0  0  0  0  0  0  0
   -3.1670   22.2610  -32.4820 O   0  0  0  0  0  0  0  0  0  0  0  0
   -5.1260   22.9440  -31.4070 N   0  0  0  0  0  0  0  0  0  0  0  0
   -5.8130   24.0110  -30.9060 C   0  0  0  0  0  0  0  0  0  0  0  0
   -5.2250   25.2870  -30.4480 C   0  0  0  0  0  0  0  0  0  0  0  0
   -3.9110   25.6740  -30.8430 N   0  0  0  0  0  0  0  0  0  0  0  0
   -5.9100   26.0690  -29.7360 O   0  0  0  0  0  0  0  0  0  0  0  0
   -7.1850   23.7770  -30.9590 C   0  0  0  0  0  0  0  0  0  0  0  0
   -7.3210   22.5270  -31.5190 C   0  0  0  0  0  0  0  0  0  0  0  0
   -8.4690   21.7900  -31.7940 C   0  0  0  0  0  0  0  0  0  0  0  0
   -8.3110   20.5080  -32.3480 C   0  0  0  0  0  0  0  0  0  0  0  0
   -7.0180   19.9880  -32.6090 C   0  0  0  0  0  0  0  0  0  0  0  0
   -6.8540   18.6100  -33.1840 C   0  0  0  0  0  0  0  0  0  0  0  0
   -6.2630   17.7830  -32.2460 F   0  0  0  0  0  0  0  0  0  0  0  0
   -6.0550   18.6680  -34.3110 F   0  0  0  0  0  0  0  0  0  0  0  0
   -5.8770   20.7650  -32.3130 C   0  0  0  0  0  0  0  0  0  0  0  0
   -6.0640   22.0460  -31.7800 C   0  0  0  0  0  0  0  0  0  0  0  0
   -2.6087   23.3993  -28.3355 H   0  0  0  0  0  0  0  0  0  0  0  0
   -4.3129   23.1365  -28.8388 H   0  0  0  0  0  0  0  0  0  0  0  0
   -3.1545   21.7636  -28.8388 H   0  0  0  0  0  0  0  0  0  0  0  0
   -3.0690   25.2990  -30.3520 H   0  0  0  0  0  0  0  0  0  0  0  0
   -7.9893   24.4487  -30.6243 H   0  0  0  0  0  0  0  0  0  0  0  0
   -9.4688   22.1980  -31.5843 H   0  0  0  0  0  0  0  0  0  0  0  0
   -9.1990   19.9022  -32.5813 H   0  0  0  0  0  0  0  0  0  0  0  0
   -7.8426   18.2112  -33.4553 H   0  0  0  0  0  0  0  0  0  0  0  0
   -4.8656   20.3734  -32.4967 H   0  0  0  0  0  0  0  0  0  0  0  0
  1  2  1  0
  2  3  1  0
  3  4  2  0
  3  5  1  0
  5  6  1  0
  6  7  1  0
  7  8  1  0
  7  9  2  0
  6 10  2  0
 10 11  1  0
 11 12  2  0
 12 13  1  0
 13 14  2  0
 14 15  1  0
 15 16  1  0
 15 17  1  0
 14 18  1  0
 18 19  2  0
 19  5  1  0
 19 11  1  0
  1 20  1  0
  1 21  1  0
  1 22  1  0
  8 23  1  0
 10 24  1  0
 12 25  1  0
 13 26  1  0
 15 27  1  0
 18 28  1  0
M  CHG  1   8  -1
M  END
>  <UniqueID>  (68) 
68

>  <SMILES>  (68) 
COC(=O)n1c(C([NH-])=O)cc2ccc(C(F)F)cc21

>  <Energy>  (68) 
65.30516903117235

>  <Genealogy>  (68) 
COC(=O)n1c(C([NH-])=O)cc2ccc(C(F)F)cc21 (protonated)
COC(=O)n1c(C([NH-])=O)cc2ccc(C(F)F)cc21 (3D coordinates assigned)
COC(=O)n1c(C([NH-])=O)cc2ccc(C(F)F)cc21 (optimized conformer: 65.30516903117235 kcal/mol)

>  <smiles>  (68) 
COC(=O)n1c(C(N)=O)cc2ccc(C(F)F)cc21

>  <score_type>  (68) 
oracle

>  <origin>  (68) 
adg

>  <m_score__min__energy>  (68) 
-8.7599999999999998

>  <m_primary>  (68) 
energy

$$$$
68:0
     RDKit          3D

 38 39  0  0  0  0  0  0  0  0999 V2000
   -2.5750   20.9390  -29.8310 C   0  0  0  0  0  0  0  0  0  0  0  0
   -3.4070   22.1440  -29.8070 N   0  0  0  0  0  0  0  0  0  0  0  0
   -3.4770   22.9530  -28.5800 C   0  0  0  0  0  0  0  0  0  0  0  0
   -2.0750   23.3030  -28.0700 C   0  0  0  0  0  0  0  0  0  0  0  0
   -1.5790   24.5520  -28.7240 C   0  0  0  0  0  0  0  0  0  0  0  0
   -2.3620   25.2640  -29.4080 O   0  0  0  0  0  0  0  0  0  0  0  0
   -0.2390   24.9070  -28.6230 O   0  0  0  0  0  0  0  0  0  0  0  0
   -4.0590   22.5700  -31.0220 C   0  0  0  0  0  0  0  0  0  0  0  0
   -3.3810   22.7730  -32.0660 O   0  0  0  0  0  0  0  0  0  0  0  0
   -5.4770   22.7760  -31.0630 N   0  0  0  0  0  0  0  0  0  0  0  0
   -6.1560   23.9370  -30.8560 C   0  0  0  0  0  0  0  0  0  0  0  0
   -5.5610   25.2290  -30.4500 C   0  0  0  0  0  0  0  0  0  0  0  0
   -4.2300   25.5920  -30.8230 N   0  0  0  0  0  0  0  0  0  0  0  0
   -6.2310   26.0150  -29.7280 O   0  0  0  0  0  0  0  0  0  0  0  0
   -7.5140   23.7600  -31.1210 C   0  0  0  0  0  0  0  0  0  0  0  0
   -7.6410   22.4430  -31.5030 C   0  0  0  0  0  0  0  0  0  0  0  0
   -8.7650   21.7310  -31.9140 C   0  0  0  0  0  0  0  0  0  0  0  0
   -8.5880   20.3920  -32.3080 C   0  0  0  0  0  0  0  0  0  0  0  0
   -7.2990   19.8010  -32.3000 C   0  0  0  0  0  0  0  0  0  0  0  0
   -7.1100   18.3770  -32.7390 C   0  0  0  0  0  0  0  0  0  0  0  0
   -6.4160   18.3490  -33.9350 F   0  0  0  0  0  0  0  0  0  0  0  0
   -6.3960   17.6830  -31.7800 F   0  0  0  0  0  0  0  0  0  0  0  0
   -6.1830   20.5610  -31.8900 C   0  0  0  0  0  0  0  0  0  0  0  0
   -6.3940   21.8770  -31.4710 C   0  0  0  0  0  0  0  0  0  0  0  0
   -2.3570   20.6233  -28.8001 H   0  0  0  0  0  0  0  0  0  0  0  0
   -3.1106   20.1340  -30.3555 H   0  0  0  0  0  0  0  0  0  0  0  0
   -1.6324   21.1546  -30.3555 H   0  0  0  0  0  0  0  0  0  0  0  0
   -4.0243   23.8830  -28.7935 H   0  0  0  0  0  0  0  0  0  0  0  0
   -3.9952   22.3689  -27.8052 H   0  0  0  0  0  0  0  0  0  0  0  0
   -2.1129   23.4546  -26.9811 H   0  0  0  0  0  0  0  0  0  0  0  0
   -1.3905   22.4770  -28.3133 H   0  0  0  0  0  0  0  0  0  0  0  0
   -3.5670   24.8960  -31.2230 H   0  0  0  0  0  0  0  0  0  0  0  0
   -3.8650   26.5410  -30.5840 H   0  0  0  0  0  0  0  0  0  0  0  0
   -8.3130   24.5119  -31.0418 H   0  0  0  0  0  0  0  0  0  0  0  0
   -9.7596   22.2005  -31.9301 H   0  0  0  0  0  0  0  0  0  0  0  0
   -9.4577   19.7979  -32.6252 H   0  0  0  0  0  0  0  0  0  0  0  0
   -8.0954   17.9069  -32.8728 H   0  0  0  0  0  0  0  0  0  0  0  0
   -5.1719   20.1280  -31.9000 H   0  0  0  0  0  0  0  0  0  0  0  0
  1  2  1  0
  2  3  1  0
  3  4  1  0
  4  5  1  0
  5  6  2  0
  5  7  1  0
  2  8  1  0
  8  9  2  0
  8 10  1  0
 10 11  1  0
 11 12  1  0
 12 13  1  0
 12 14  2  0
 11 15  2  0
 15 16  1  0
 16 17  2  0
 17 18  1  0
 18 19  2  0
 19 20  1  0
 20 21  1  0
 20 22  1  0
 19 23  1  0
 23 24  2  0
 24 10  1  0
 24 16  1  0
  1 25  1  0
  1 26  1  0
  1 27  1  0
  3 28  1  0
  3 29  1  0
  4 30  1  0
  4 31  1  0
 13 32  1  0
 13 33  1  0
 15 34  1  0
 17 35  1  0
 18 36  1  0
 20 37  1  0
 23 38  1  0
M  CHG  1   7  -1
M  END
>  <UniqueID>  (69) 
69

>  <SMILES>  (69) 
CN(CCC(=O)[O-])C(=O)n1c(C(N)=O)cc2ccc(C(F)F)cc21

>  <Energy>  (69) 
73.45268010331641

>  <Genealogy>  (69) 
CN(CCC(=O)[O-])C(=O)n1c(C(N)=O)cc2ccc(C(F)F)cc21 (protonated)
CN(CCC(=O)[O-])C(=O)n1c(C(N)=O)cc2ccc(C(F)F)cc21 (3D coordinates assigned)
CN(CCC(=O)[O-])C(=O)n1c(C(N)=O)cc2ccc(C(F)F)cc21 (optimized conformer: 73.45268010331641 kcal/mol)

>  <smiles>  (69) 
CN(CCC(=O)O)C(=O)n1c(C(N)=O)cc2ccc(C(F)F)cc21

>  <score_type>  (69) 
oracle

>  <origin>  (69) 
adg

>  <m_score__min__energy>  (69) 
-10.85

>  <m_primary>  (69) 
energy

$$$$
69:0
     RDKit          3D

 58 59  0  0  0  0  0  0  0  0999 V2000
    0.6530   23.6120  -36.0640 C   0  0  0  0  0  0  0  0  0  0  0  0
    0.9960   22.6930  -35.0330 O   0  0  0  0  0  0  0  0  0  0  0  0
    1.1850   21.3300  -35.2730 C   0  0  0  0  0  0  0  0  0  0  0  0
    2.3470   20.8380  -35.2730 O   0  0  0  0  0  0  0  0  0  0  0  0
   -0.0060   20.4930  -35.6420 C   0  0  0  0  0  0  0  0  0  0  0  0
    0.2360   18.9780  -35.5290 C   0  0  0  0  0  0  0  0  0  0  0  0
   -0.4030   18.4120  -34.3320 N   0  0  0  0  0  0  0  0  0  0  0  0
    0.3850   17.6340  -33.3710 C   0  0  0  0  0  0  0  0  0  0  0  0
   -1.8370   18.4520  -34.2010 C   0  0  0  0  0  0  0  0  0  0  0  0
   -2.5480   17.5720  -34.7570 O   0  0  0  0  0  0  0  0  0  0  0  0
   -2.4350   19.4950  -33.4850 O   0  0  0  0  0  0  0  0  0  0  0  0
   -1.7230   20.5860  -32.9020 C   0  0  0  0  0  0  0  0  0  0  0  0
   -2.6600   21.7440  -32.5080 C   0  0  1  0  0  0  0  0  0  0  0  0
   -3.8220   21.9060  -33.4930 C   0  0  0  0  0  0  0  0  0  0  0  0
   -3.1720   21.5380  -31.1890 O   0  0  0  0  0  0  0  0  0  0  0  0
   -3.8340   22.5330  -30.4610 C   0  0  0  0  0  0  0  0  0  0  0  0
   -3.2060   23.2230  -29.6120 O   0  0  0  0  0  0  0  0  0  0  0  0
   -5.2230   22.7950  -30.7060 N   0  0  0  0  0  0  0  0  0  0  0  0
   -5.8340   24.0100  -30.7930 C   0  0  0  0  0  0  0  0  0  0  0  0
   -5.2390   25.3050  -30.4040 C   0  0  0  0  0  0  0  0  0  0  0  0
   -3.9190   25.6370  -30.8300 N   0  0  0  0  0  0  0  0  0  0  0  0
   -5.8940   26.1370  -29.7230 O   0  0  0  0  0  0  0  0  0  0  0  0
   -7.1360   23.8700  -31.2700 C   0  0  0  0  0  0  0  0  0  0  0  0
   -7.3030   22.5200  -31.4800 C   0  0  0  0  0  0  0  0  0  0  0  0
   -8.3830   21.8280  -32.0190 C   0  0  0  0  0  0  0  0  0  0  0  0
   -8.2560   20.4400  -32.1890 C   0  0  0  0  0  0  0  0  0  0  0  0
   -7.0620   19.7720  -31.8190 C   0  0  0  0  0  0  0  0  0  0  0  0
   -6.9450   18.2810  -31.9950 C   0  0  0  0  0  0  0  0  0  0  0  0
   -6.0080   17.9240  -33.1530 C   0  0  0  0  0  0  0  0  0  0  0  0
   -4.6710   17.9160  -32.7320 O   0  0  0  0  0  0  0  0  0  0  0  0
   -5.9860   20.5100  -31.2760 C   0  0  0  0  0  0  0  0  0  0  0  0
   -6.1390   21.8920  -31.1200 C   0  0  0  0  0  0  0  0  0  0  0  0
    0.3019   24.5527  -35.6148 H   0  0  0  0  0  0  0  0  0  0  0  0
    1.5374   23.8109  -36.6871 H   0  0  0  0  0  0  0  0  0  0  0  0
   -0.1455   23.1828  -36.6871 H   0  0  0  0  0  0  0  0  0  0  0  0
   -0.8379   20.7614  -34.9742 H   0  0  0  0  0  0  0  0  0  0  0  0
   -0.2275   20.7024  -36.6989 H   0  0  0  0  0  0  0  0  0  0  0  0
   -0.1769   18.4838  -36.4207 H   0  0  0  0  0  0  0  0  0  0  0  0
    1.3202   18.8093  -35.4506 H   0  0  0  0  0  0  0  0  0  0  0  0
    0.0983   17.9170  -32.3474 H   0  0  0  0  0  0  0  0  0  0  0  0
    0.1929   16.5615  -33.5223 H   0  0  0  0  0  0  0  0  0  0  0  0
    1.4549   17.8398  -33.5223 H   0  0  0  0  0  0  0  0  0  0  0  0
   -1.2020   20.2290  -32.0014 H   0  0  0  0  0  0  0  0  0  0  0  0
   -1.0114   20.9651  -33.6503 H   0  0  0  0  0  0  0  0  0  0  0  0
   -2.0647   22.6686  -32.5359 H   0  0  0  0  0  0  0  0  0  0  0  0
   -4.7606   22.0369  -32.9345 H   0  0  0  0  0  0  0  0  0  0  0  0
   -3.6459   22.7883  -34.1259 H   0  0  0  0  0  0  0  0  0  0  0  0
   -3.8939   21.0092  -34.1259 H   0  0  0  0  0  0  0  0  0  0  0  0
   -3.0830   25.2840  -30.3130 H   0  0  0  0  0  0  0  0  0  0  0  0
   -7.8731   24.6682  -31.4420 H   0  0  0  0  0  0  0  0  0  0  0  0
   -9.3075   22.3519  -32.3031 H   0  0  0  0  0  0  0  0  0  0  0  0
   -9.0920   19.8650  -32.6138 H   0  0  0  0  0  0  0  0  0  0  0  0
   -6.5500   17.8415  -31.0672 H   0  0  0  0  0  0  0  0  0  0  0  0
   -7.9439   17.8811  -32.2236 H   0  0  0  0  0  0  0  0  0  0  0  0
   -6.2712   16.9264  -33.5345 H   0  0  0  0  0  0  0  0  0  0  0  0
   -6.1225   18.6807  -33.9431 H   0  0  0  0  0  0  0  0  0  0  0  0
   -4.1370   18.3030  -33.4740 H   0  0  0  0  0  0  0  0  0  0  0  0
   -5.0510   20.0101  -30.9831 H   0  0  0  0  0  0  0  0  0  0  0  0
  1  2  1  0
  2  3  1  0
  3  4  2  0
  3  5  1  0
  5  6  1  0
  6  7  1  0
  7  8  1  0
  7  9  1  0
  9 10  2  0
  9 11  1  0
 11 12  1  0
 12 13  1  0
 13 14  1  0
 13 15  1  0
 15 16  1  0
 16 17  2  0
 16 18  1  0
 18 19  1  0
 19 20  1  0
 20 21  1  0
 20 22  2  0
 19 23  2  0
 23 24  1  0
 24 25  2  0
 25 26  1  0
 26 27  2  0
 27 28  1  0
 28 29  1  0
 29 30  1  0
 27 31  1  0
 31 32  2  0
 32 18  1  0
 32 24  1  0
  1 33  1  0
  1 34  1  0
  1 35  1  0
  5 36  1  0
  5 37  1  0
  6 38  1  0
  6 39  1  0
  8 40  1  0
  8 41  1  0
  8 42  1  0
 12 43  1  0
 12 44  1  0
 13 45  1  1
 14 46  1  0
 14 47  1  0
 14 48  1  0
 21 49  1  0
 23 50  1  0
 25 51  1  0
 26 52  1  0
 28 53  1  0
 28 54  1  0
 29 55  1  0
 29 56  1  0
 30 57  1  0
 31 58  1  0
M  CHG  1  21  -1
M  END
>  <UniqueID>  (70) 
70

>  <SMILES>  (70) 
COC(=O)CCN(C)C(=O)OC[C@@H](C)OC(=O)n1c(C([NH-])=O)cc2ccc(CCO)cc21

>  <Energy>  (70) 
78.05093291150978

>  <Genealogy>  (70) 
COC(=O)CCN(C)C(=O)OCC(C)OC(=O)n1c(C([NH-])=O)cc2ccc(CCO)cc21 (protonated)
COC(=O)CCN(C)C(=O)OC[C@@H](C)OC(=O)n1c(C([NH-])=O)cc2ccc(CCO)cc21 (chirality)
COC(=O)CCN(C)C(=O)OC[C@@H](C)OC(=O)n1c(C([NH-])=O)cc2ccc(CCO)cc21 (3D coordinates assigned)
COC(=O)CCN(C)C(=O)OC[C@@H](C)OC(=O)n1c(C([NH-])=O)cc2ccc(CCO)cc21 (optimized conformer: 78.05093291150978 kcal/mol)

>  <smiles>  (70) 
COC(=O)CCN(C)C(=O)OCC(C)OC(=O)n1c(C(N)=O)cc2ccc(CCO)cc21

>  <score_type>  (70) 
oracle

>  <origin>  (70) 
adg

>  <m_score__min__energy>  (70) 
-10.359999999999999

>  <m_primary>  (70) 
energy

$$$$
70:0
     RDKit          3D

 41 42  0  0  0  0  0  0  0  0999 V2000
   -9.7150   21.2010  -31.9550 C   0  0  0  0  0  0  0  0  0  0  0  0
   -8.4040   21.0120  -31.3140 N   0  0  0  0  0  0  0  0  0  0  0  0
   -7.6620   22.2840  -31.3210 C   0  0  0  0  0  0  0  0  0  0  0  0
   -7.6440   19.9480  -32.0060 C   0  0  0  0  0  0  0  0  0  0  0  0
   -6.8500   20.5140  -33.1920 C   0  0  0  0  0  0  0  0  0  0  0  0
   -5.5240   19.8840  -33.2980 N   0  0  0  0  0  0  0  0  0  0  0  0
   -5.2990   18.8730  -34.3340 C   0  0  0  0  0  0  0  0  0  0  0  0
   -4.4150   20.3670  -32.5080 C   0  0  0  0  0  0  0  0  0  0  0  0
   -3.2470   19.5760  -32.3590 C   0  0  0  0  0  0  0  0  0  0  0  0
   -2.1560   20.0390  -31.6060 C   0  0  0  0  0  0  0  0  0  0  0  0
   -2.2550   21.2970  -31.0200 C   0  0  0  0  0  0  0  0  0  0  0  0
   -1.3580   21.9740  -30.2270 C   0  0  0  0  0  0  0  0  0  0  0  0
   -1.9780   23.1830  -29.9170 C   0  0  0  0  0  0  0  0  0  0  0  0
   -1.3270   24.2710  -29.1540 C   0  0  0  0  0  0  0  0  0  0  0  0
   -2.1050   25.3050  -28.5500 N   0  0  0  0  0  0  0  0  0  0  0  0
   -0.0770   24.2750  -29.0020 O   0  0  0  0  0  0  0  0  0  0  0  0
   -3.2120   23.2480  -30.4950 N   0  0  0  0  0  0  0  0  0  0  0  0
   -4.1840   24.2990  -30.3620 C   0  0  0  0  0  0  0  0  0  0  0  0
   -5.3290   24.0530  -29.8990 O   0  0  0  0  0  0  0  0  0  0  0  0
   -3.8650   25.6020  -30.7260 O   0  0  0  0  0  0  0  0  0  0  0  0
   -3.3660   22.0850  -31.1670 C   0  0  0  0  0  0  0  0  0  0  0  0
   -4.4750   21.6420  -31.8960 C   0  0  0  0  0  0  0  0  0  0  0  0
  -10.4888   21.3126  -31.1812 H   0  0  0  0  0  0  0  0  0  0  0  0
   -9.6899   22.1048  -32.5815 H   0  0  0  0  0  0  0  0  0  0  0  0
   -9.9463   20.3269  -32.5815 H   0  0  0  0  0  0  0  0  0  0  0  0
   -7.4748   22.6050  -30.2857 H   0  0  0  0  0  0  0  0  0  0  0  0
   -6.7027   22.1460  -31.8413 H   0  0  0  0  0  0  0  0  0  0  0  0
   -8.2543   23.0511  -31.8413 H   0  0  0  0  0  0  0  0  0  0  0  0
   -6.9445   19.4857  -31.2939 H   0  0  0  0  0  0  0  0  0  0  0  0
   -8.3573   19.2031  -32.3884 H   0  0  0  0  0  0  0  0  0  0  0  0
   -7.4104   20.3274  -34.1200 H   0  0  0  0  0  0  0  0  0  0  0  0
   -6.7096   21.5932  -33.0321 H   0  0  0  0  0  0  0  0  0  0  0  0
   -5.0834   17.9040  -33.8601 H   0  0  0  0  0  0  0  0  0  0  0  0
   -6.1990   18.7828  -34.9599 H   0  0  0  0  0  0  0  0  0  0  0  0
   -4.4457   19.1730  -34.9599 H   0  0  0  0  0  0  0  0  0  0  0  0
   -3.1953   18.5877  -32.8393 H   0  0  0  0  0  0  0  0  0  0  0  0
   -1.2509   19.4260  -31.4832 H   0  0  0  0  0  0  0  0  0  0  0  0
   -0.3626   21.6335  -29.9057 H   0  0  0  0  0  0  0  0  0  0  0  0
   -3.1370   25.3640  -28.6970 H   0  0  0  0  0  0  0  0  0  0  0  0
   -1.6390   26.0460  -27.9810 H   0  0  0  0  0  0  0  0  0  0  0  0
   -5.3730   22.2701  -31.9914 H   0  0  0  0  0  0  0  0  0  0  0  0
  1  2  1  0
  2  3  1  0
  2  4  1  0
  4  5  1  0
  5  6  1  0
  6  7  1  0
  6  8  1  0
  8  9  2  0
  9 10  1  0
 10 11  2  0
 11 12  1  0
 12 13  2  0
 13 14  1  0
 14 15  1  0
 14 16  2  0
 13 17  1  0
 17 18  1  0
 18 19  2  0
 18 20  1  0
 17 21  1  0
 21 22  2  0
 22  8  1  0
 21 11  1  0
  1 23  1  0
  1 24  1  0
  1 25  1  0
  3 26  1  0
  3 27  1  0
  3 28  1  0
  4 29  1  0
  4 30  1  0
  5 31  1  0
  5 32  1  0
  7 33  1  0
  7 34  1  0
  7 35  1  0
  9 36  1  0
 10 37  1  0
 12 38  1  0
 15 39  1  0
 15 40  1  0
 22 41  1  0
M  CHG  1  20  -1
M  END
>  <UniqueID>  (71) 
71

>  <SMILES>  (71) 
CN(C)CCN(C)c1ccc2cc(C(N)=O)n(C(=O)[O-])c2c1

>  <Energy>  (71) 
80.01405093645437

>  <Genealogy>  (71) 
CN(C)CCN(C)c1ccc2cc(C(N)=O)n(C(=O)[O-])c2c1 (protonated)
CN(C)CCN(C)c1ccc2cc(C(N)=O)n(C(=O)[O-])c2c1 (3D coordinates assigned)
CN(C)CCN(C)c1ccc2cc(C(N)=O)n(C(=O)[O-])c2c1 (optimized conformer: 80.01405093645437 kcal/mol)

>  <smiles>  (71) 
CN(C)CCN(C)c1ccc2cc(C(N)=O)n(C(=O)O)c2c1

>  <score_type>  (71) 
oracle

>  <origin>  (71) 
adg

>  <m_score__min__energy>  (71) 
-8.6500000000000004

>  <m_primary>  (71) 
energy

$$$$
71:0
     RDKit          3D

 26 27  0  0  0  0  0  0  0  0999 V2000
   -3.8930   25.3080  -30.6260 N   0  0  0  0  0  0  0  0  0  0  0  0
   -4.2970   23.9470  -30.7590 C   0  0  0  0  0  0  0  0  0  0  0  0
   -5.5160   23.6520  -30.6460 O   0  0  0  0  0  0  0  0  0  0  0  0
   -3.2840   22.9000  -31.0050 C   0  0  0  0  0  0  0  0  0  0  0  0
   -3.3110   22.0360  -32.1000 C   0  0  0  0  0  0  0  0  0  0  0  0
   -2.1820   21.2570  -31.9770 C   0  0  0  0  0  0  0  0  0  0  0  0
   -1.7190   20.2180  -32.7790 C   0  0  0  0  0  0  0  0  0  0  0  0
   -0.5360   19.5650  -32.3920 C   0  0  0  0  0  0  0  0  0  0  0  0
    0.1530   19.9540  -31.2160 C   0  0  0  0  0  0  0  0  0  0  0  0
    1.4070   19.2430  -30.7960 C   0  0  0  0  0  0  0  0  0  0  0  0
    1.7710   19.6530  -29.5260 F   0  0  0  0  0  0  0  0  0  0  0  0
    2.4280   19.5360  -31.6810 F   0  0  0  0  0  0  0  0  0  0  0  0
   -0.3520   21.0110  -30.4260 C   0  0  0  0  0  0  0  0  0  0  0  0
   -1.5200   21.6540  -30.8460 C   0  0  0  0  0  0  0  0  0  0  0  0
   -2.1810   22.6650  -30.2410 N   0  0  0  0  0  0  0  0  0  0  0  0
   -1.8200   23.3020  -29.0060 C   0  0  0  0  0  0  0  0  0  0  0  0
   -2.1960   22.8010  -27.9130 O   0  0  0  0  0  0  0  0  0  0  0  0
   -1.0230   24.5370  -28.9990 C   0  0  0  0  0  0  0  0  0  0  0  0
   -1.5430   25.6340  -29.3310 O   0  0  0  0  0  0  0  0  0  0  0  0
    0.3100   24.5030  -28.6080 O   0  0  0  0  0  0  0  0  0  0  0  0
   -3.5230   25.6730  -29.7210 H   0  0  0  0  0  0  0  0  0  0  0  0
   -4.0720   21.9873  -32.8928 H   0  0  0  0  0  0  0  0  0  0  0  0
   -2.2619   19.9173  -33.6872 H   0  0  0  0  0  0  0  0  0  0  0  0
   -0.1409   18.7438  -33.0080 H   0  0  0  0  0  0  0  0  0  0  0  0
    1.2232   18.1585  -30.7941 H   0  0  0  0  0  0  0  0  0  0  0  0
    0.1612   21.3202  -29.5035 H   0  0  0  0  0  0  0  0  0  0  0  0
  1  2  1  0
  2  3  2  0
  2  4  1  0
  4  5  2  0
  5  6  1  0
  6  7  2  0
  7  8  1  0
  8  9  2  0
  9 10  1  0
 10 11  1  0
 10 12  1  0
  9 13  1  0
 13 14  2  0
 14 15  1  0
 15 16  1  0
 16 17  2  0
 16 18  1  0
 18 19  2  0
 18 20  1  0
 15  4  1  0
 14  6  1  0
  1 21  1  0
  5 22  1  0
  7 23  1  0
  8 24  1  0
 10 25  1  0
 13 26  1  0
M  CHG  2   1  -1  20  -1
M  END
>  <UniqueID>  (72) 
72

>  <SMILES>  (72) 
[NH-]C(=O)c1cc2ccc(C(F)F)cc2n1C(=O)C(=O)[O-]

>  <Energy>  (72) 
65.23511469556239

>  <Genealogy>  (72) 
[NH-]C(=O)c1cc2ccc(C(F)F)cc2n1C(=O)C(=O)[O-] (protonated)
[NH-]C(=O)c1cc2ccc(C(F)F)cc2n1C(=O)C(=O)[O-] (3D coordinates assigned)
[NH-]C(=O)c1cc2ccc(C(F)F)cc2n1C(=O)C(=O)[O-] (optimized conformer: 65.23511469556239 kcal/mol)

>  <smiles>  (72) 
NC(=O)c1cc2ccc(C(F)F)cc2n1C(=O)C(=O)O

>  <score_type>  (72) 
oracle

>  <origin>  (72) 
adg

>  <m_score__min__energy>  (72) 
-9.5600000000000005

>  <m_primary>  (72) 
energy

$$$$
72:0
     RDKit          3D

 63 65  0  0  0  0  0  0  0  0999 V2000
   -2.7650   12.3240  -32.2710 C   0  0  0  0  0  0  0  0  0  0  0  0
   -3.9890   13.2510  -32.3480 C   0  0  0  0  0  0  0  0  0  0  0  0
   -4.6030   13.3820  -30.9410 C   0  0  0  0  0  0  0  0  0  0  0  0
   -5.0080   12.6490  -33.3330 C   0  0  0  0  0  0  0  0  0  0  0  0
   -3.5250   14.5250  -32.8180 O   0  0  0  0  0  0  0  0  0  0  0  0
   -4.0310   15.2420  -33.9150 C   0  0  0  0  0  0  0  0  0  0  0  0
   -3.7980   14.8660  -35.0980 O   0  0  0  0  0  0  0  0  0  0  0  0
   -4.8240   16.4230  -33.6730 N   0  0  0  0  0  0  0  0  0  0  0  0
   -4.6080   17.4230  -34.7500 C   0  0  0  0  0  0  0  0  0  0  0  0
   -5.7600   18.4440  -34.8590 C   0  0  0  0  0  0  0  0  0  0  0  0
   -6.4950   18.5240  -33.5940 N   0  0  0  0  0  0  0  0  0  0  0  0
   -6.6760   19.7800  -32.9100 C   0  0  0  0  0  0  0  0  0  0  0  0
   -7.9800   20.2930  -32.6910 C   0  0  0  0  0  0  0  0  0  0  0  0
   -8.1690   21.5190  -32.0350 C   0  0  0  0  0  0  0  0  0  0  0  0
   -7.0400   22.2170  -31.6200 C   0  0  0  0  0  0  0  0  0  0  0  0
   -6.9390   23.4130  -30.9480 C   0  0  0  0  0  0  0  0  0  0  0  0
   -5.5730   23.6350  -30.7920 C   0  0  0  0  0  0  0  0  0  0  0  0
   -5.0160   24.8630  -30.1900 C   0  0  0  0  0  0  0  0  0  0  0  0
   -3.9470   25.5480  -30.8390 N   0  0  0  0  0  0  0  0  0  0  0  0
   -5.4470   25.2940  -29.0880 O   0  0  0  0  0  0  0  0  0  0  0  0
   -4.8550   22.6110  -31.3370 N   0  0  0  0  0  0  0  0  0  0  0  0
   -3.4300   22.4290  -31.3090 C   0  0  0  0  0  0  0  0  0  0  0  0
   -2.8930   21.5370  -32.0220 O   0  0  0  0  0  0  0  0  0  0  0  0
   -2.6430   23.2330  -30.4800 O   0  0  0  0  0  0  0  0  0  0  0  0
   -1.6790   22.7020  -29.5760 C   0  0  0  0  0  0  0  0  0  0  0  0
   -2.3480   22.3540  -28.2510 C   0  0  0  0  0  0  0  0  0  0  0  0
   -1.3740   21.8980  -27.3740 F   0  0  0  0  0  0  0  0  0  0  0  0
   -3.2740   21.3440  -28.4780 F   0  0  0  0  0  0  0  0  0  0  0  0
   -2.9790   23.5130  -27.7340 O   0  0  0  0  0  0  0  0  0  0  0  0
   -2.0840   24.6120  -27.7070 C   0  0  0  0  0  0  0  0  0  0  0  0
   -2.2890   25.4310  -28.8250 O   0  0  0  0  0  0  0  0  0  0  0  0
   -5.7700   21.7520  -31.8430 C   0  0  0  0  0  0  0  0  0  0  0  0
   -5.5540   20.5230  -32.4800 C   0  0  0  0  0  0  0  0  0  0  0  0
   -7.0490   17.2860  -33.0290 C   0  0  0  0  0  0  0  0  0  0  0  0
   -6.2490   16.0660  -33.5190 C   0  0  0  0  0  0  0  0  0  0  0  0
   -2.5145   12.1343  -31.2168 H   0  0  0  0  0  0  0  0  0  0  0  0
   -2.9946   11.3712  -32.7705 H   0  0  0  0  0  0  0  0  0  0  0  0
   -1.9101   12.8032  -32.7705 H   0  0  0  0  0  0  0  0  0  0  0  0
   -3.8229   13.2156  -30.1836 H   0  0  0  0  0  0  0  0  0  0  0  0
   -5.0248   14.3904  -30.8175 H   0  0  0  0  0  0  0  0  0  0  0  0
   -5.3996   12.6336  -30.8175 H   0  0  0  0  0  0  0  0  0  0  0  0
   -5.8218   12.1682  -32.7704 H   0  0  0  0  0  0  0  0  0  0  0  0
   -5.4219   13.4477  -33.9661 H   0  0  0  0  0  0  0  0  0  0  0  0
   -4.5082   11.9011  -33.9661 H   0  0  0  0  0  0  0  0  0  0  0  0
   -4.4940   16.8410  -32.7700 H   0  0  0  0  0  0  0  0  0  0  0  0
   -3.6749   17.9671  -34.5422 H   0  0  0  0  0  0  0  0  0  0  0  0
   -4.5587   16.8768  -35.7035 H   0  0  0  0  0  0  0  0  0  0  0  0
   -5.3451   19.4338  -35.1000 H   0  0  0  0  0  0  0  0  0  0  0  0
   -6.4499   18.1193  -35.6518 H   0  0  0  0  0  0  0  0  0  0  0  0
   -8.8538   19.7229  -33.0396 H   0  0  0  0  0  0  0  0  0  0  0  0
   -9.1790   21.9157  -31.8546 H   0  0  0  0  0  0  0  0  0  0  0  0
   -7.7625   24.0574  -30.6063 H   0  0  0  0  0  0  0  0  0  0  0  0
   -2.9530   25.3020  -30.6370 H   0  0  0  0  0  0  0  0  0  0  0  0
   -1.2335   21.7944  -30.0093 H   0  0  0  0  0  0  0  0  0  0  0  0
   -0.8948   23.4530  -29.4000 H   0  0  0  0  0  0  0  0  0  0  0  0
   -2.2551   25.1974  -26.7916 H   0  0  0  0  0  0  0  0  0  0  0  0
   -1.0511   24.2340  -27.7238 H   0  0  0  0  0  0  0  0  0  0  0  0
   -3.2460   25.3300  -29.0740 H   0  0  0  0  0  0  0  0  0  0  0  0
   -4.5337   20.1451  -32.6417 H   0  0  0  0  0  0  0  0  0  0  0  0
   -6.9990   17.3348  -31.9312 H   0  0  0  0  0  0  0  0  0  0  0  0
   -8.0940   17.1815  -33.3562 H   0  0  0  0  0  0  0  0  0  0  0  0
   -6.3429   15.2510  -32.7863 H   0  0  0  0  0  0  0  0  0  0  0  0
   -6.6464   15.7416  -34.4920 H   0  0  0  0  0  0  0  0  0  0  0  0
  1  2  1  0
  2  3  1  0
  2  4  1  0
  2  5  1  0
  5  6  1  0
  6  7  2  0
  6  8  1  0
  8  9  1  0
  9 10  1  0
 10 11  1  0
 11 12  1  0
 12 13  2  0
 13 14  1  0
 14 15  2  0
 15 16  1  0
 16 17  2  0
 17 18  1  0
 18 19  1  0
 18 20  2  0
 17 21  1  0
 21 22  1  0
 22 23  2  0
 22 24  1  0
 24 25  1  0
 25 26  1  0
 26 27  1  0
 26 28  1  0
 26 29  1  0
 29 30  1  0
 30 31  1  0
 21 32  1  0
 32 33  2  0
 11 34  1  0
 34 35  1  0
 35  8  1  0
 33 12  1  0
 32 15  1  0
  1 36  1  0
  1 37  1  0
  1 38  1  0
  3 39  1  0
  3 40  1  0
  3 41  1  0
  4 42  1  0
  4 43  1  0
  4 44  1  0
  8 45  1  0
  9 46  1  0
  9 47  1  0
 10 48  1  0
 10 49  1  0
 13 50  1  0
 14 51  1  0
 16 52  1  0
 19 53  1  0
 25 54  1  0
 25 55  1  0
 30 56  1  0
 30 57  1  0
 31 58  1  0
 33 59  1  0
 34 60  1  0
 34 61  1  0
 35 62  1  0
 35 63  1  0
M  CHG  2   8   1  19  -1
M  END
>  <UniqueID>  (73) 
73

>  <SMILES>  (73) 
CC(C)(C)OC(=O)[NH+]1CCN(c2ccc3cc(C([NH-])=O)n(C(=O)OCC(F)(F)OCO)c3c2)CC1

>  <Energy>  (73) 
108.15479583125702

>  <Genealogy>  (73) 
CC(C)(C)OC(=O)[NH+]1CCN(c2ccc3cc(C([NH-])=O)n(C(=O)OCC(F)(F)OCO)c3c2)CC1 (protonated)
CC(C)(C)OC(=O)[NH+]1CCN(c2ccc3cc(C([NH-])=O)n(C(=O)OCC(F)(F)OCO)c3c2)CC1 (3D coordinates assigned)
CC(C)(C)OC(=O)[NH+]1CCN(c2ccc3cc(C([NH-])=O)n(C(=O)OCC(F)(F)OCO)c3c2)CC1 (nonaromatic ring conformer: 108.15479583125702 kcal/mol)

>  <smiles>  (73) 
CC(C)(C)OC(=O)N1CCN(c2ccc3cc(C(N)=O)n(C(=O)OCC(F)(F)OCO)c3c2)CC1

>  <score_type>  (73) 
oracle

>  <origin>  (73) 
adg

>  <m_score__min__energy>  (73) 
-10.82

>  <m_primary>  (73) 
energy

$$$$
73:0
     RDKit          3D

 33 34  0  0  0  0  0  0  0  0999 V2000
   -4.0050   22.6320  -27.5400 C   0  0  0  0  0  0  0  0  0  0  0  0
   -2.9440   22.5020  -28.6340 C   0  0  2  0  0  0  0  0  0  0  0  0
   -2.4700   23.8330  -29.0280 C   0  0  0  0  0  0  0  0  0  0  0  0
   -2.0960   24.8830  -29.3400 N   0  0  0  0  0  0  0  0  0  0  0  0
   -3.4910   21.8550  -29.7810 O   0  0  0  0  0  0  0  0  0  0  0  0
   -3.9330   22.5380  -30.9190 C   0  0  0  0  0  0  0  0  0  0  0  0
   -3.1010   23.0060  -31.7440 O   0  0  0  0  0  0  0  0  0  0  0  0
   -5.3400   22.7130  -31.1470 N   0  0  0  0  0  0  0  0  0  0  0  0
   -6.0970   23.8080  -30.8590 C   0  0  0  0  0  0  0  0  0  0  0  0
   -5.5870   25.1150  -30.3970 C   0  0  0  0  0  0  0  0  0  0  0  0
   -4.2300   25.5010  -30.6210 N   0  0  0  0  0  0  0  0  0  0  0  0
   -6.3750   25.9260  -29.8420 O   0  0  0  0  0  0  0  0  0  0  0  0
   -7.4430   23.5580  -31.1140 C   0  0  0  0  0  0  0  0  0  0  0  0
   -7.4880   22.2660  -31.5850 C   0  0  0  0  0  0  0  0  0  0  0  0
   -8.5770   21.5020  -31.9910 C   0  0  0  0  0  0  0  0  0  0  0  0
   -8.3370   20.1810  -32.4060 C   0  0  0  0  0  0  0  0  0  0  0  0
   -7.0260   19.6390  -32.3810 C   0  0  0  0  0  0  0  0  0  0  0  0
   -6.7760   18.2320  -32.8610 C   0  0  0  0  0  0  0  0  0  0  0  0
   -7.8960   17.4430  -32.6640 F   0  0  0  0  0  0  0  0  0  0  0  0
   -5.7170   17.6930  -32.1550 F   0  0  0  0  0  0  0  0  0  0  0  0
   -6.4710   18.2220  -34.2100 F   0  0  0  0  0  0  0  0  0  0  0  0
   -5.9420   20.4560  -31.9800 C   0  0  0  0  0  0  0  0  0  0  0  0
   -6.2080   21.7760  -31.5930 C   0  0  0  0  0  0  0  0  0  0  0  0
   -3.5231   22.5730  -26.5530 H   0  0  0  0  0  0  0  0  0  0  0  0
   -4.5183   23.5997  -27.6401 H   0  0  0  0  0  0  0  0  0  0  0  0
   -4.7367   21.8168  -27.6401 H   0  0  0  0  0  0  0  0  0  0  0  0
   -2.1090   21.9055  -28.2379 H   0  0  0  0  0  0  0  0  0  0  0  0
   -3.6000   24.9310  -31.2270 H   0  0  0  0  0  0  0  0  0  0  0  0
   -3.8760   26.4110  -30.2500 H   0  0  0  0  0  0  0  0  0  0  0  0
   -8.2890   24.2461  -30.9698 H   0  0  0  0  0  0  0  0  0  0  0  0
   -9.5949   21.9190  -31.9874 H   0  0  0  0  0  0  0  0  0  0  0  0
   -9.1754   19.5599  -32.7543 H   0  0  0  0  0  0  0  0  0  0  0  0
   -4.9144   20.0636  -31.9724 H   0  0  0  0  0  0  0  0  0  0  0  0
  1  2  1  0
  2  3  1  0
  3  4  3  0
  2  5  1  0
  5  6  1  0
  6  7  2  0
  6  8  1  0
  8  9  1  0
  9 10  1  0
 10 11  1  0
 10 12  2  0
  9 13  2  0
 13 14  1  0
 14 15  2  0
 15 16  1  0
 16 17  2  0
 17 18  1  0
 18 19  1  0
 18 20  1  0
 18 21  1  0
 17 22  1  0
 22 23  2  0
 23  8  1  0
 23 14  1  0
  1 24  1  0
  1 25  1  0
  1 26  1  0
  2 27  1  1
 11 28  1  0
 11 29  1  0
 13 30  1  0
 15 31  1  0
 16 32  1  0
 22 33  1  0
M  END
>  <UniqueID>  (74) 
74

>  <SMILES>  (74) 
C[C@H](C#N)OC(=O)n1c(C(N)=O)cc2ccc(C(F)(F)F)cc21

>  <Energy>  (74) 
68.2058366015364

>  <Genealogy>  (74) 
C[C@H](C#N)OC(=O)n1c(C(N)=O)cc2ccc(C(F)(F)F)cc21 (chirality)
C[C@H](C#N)OC(=O)n1c(C(N)=O)cc2ccc(C(F)(F)F)cc21 (3D coordinates assigned)
C[C@H](C#N)OC(=O)n1c(C(N)=O)cc2ccc(C(F)(F)F)cc21 (optimized conformer: 68.2058366015364 kcal/mol)

>  <smiles>  (74) 
CC(C#N)OC(=O)n1c(C(N)=O)cc2ccc(C(F)(F)F)cc21

>  <score_type>  (74) 
oracle

>  <origin>  (74) 
adg

>  <m_score__min__energy>  (74) 
-8.6500000000000004

>  <m_primary>  (74) 
energy

$$$$
74:0
     RDKit          3D

 38 39  0  0  0  0  0  0  0  0999 V2000
   -1.0860   20.9910  -33.2110 C   0  0  0  0  0  0  0  0  0  0  0  0
   -1.9090   21.3510  -32.0530 N   0  0  0  0  0  0  0  0  0  0  0  0
   -1.4720   20.9710  -30.7040 C   0  0  0  0  0  0  0  0  0  0  0  0
   -3.1890   21.9850  -32.2770 C   0  0  0  0  0  0  0  0  0  0  0  0
   -3.6820   21.9890  -33.4370 O   0  0  0  0  0  0  0  0  0  0  0  0
   -3.9510   22.6460  -31.1940 C   0  0  0  0  0  0  0  0  0  0  0  0
   -3.3520   23.1220  -30.1920 O   0  0  0  0  0  0  0  0  0  0  0  0
   -5.3750   22.8060  -31.3010 N   0  0  0  0  0  0  0  0  0  0  0  0
   -6.1220   23.8650  -30.8820 C   0  0  0  0  0  0  0  0  0  0  0  0
   -5.5930   25.1440  -30.3660 C   0  0  0  0  0  0  0  0  0  0  0  0
   -4.2320   25.5230  -30.5740 N   0  0  0  0  0  0  0  0  0  0  0  0
   -6.3700   25.9390  -29.7730 O   0  0  0  0  0  0  0  0  0  0  0  0
   -7.4800   23.5930  -31.0210 C   0  0  0  0  0  0  0  0  0  0  0  0
   -7.5460   22.3230  -31.5470 C   0  0  0  0  0  0  0  0  0  0  0  0
   -8.6530   21.5400  -31.8650 C   0  0  0  0  0  0  0  0  0  0  0  0
   -8.4220   20.2410  -32.3490 C   0  0  0  0  0  0  0  0  0  0  0  0
   -7.1030   19.7530  -32.4910 C   0  0  0  0  0  0  0  0  0  0  0  0
   -6.8810   18.4160  -32.9750 C   0  0  0  0  0  0  0  0  0  0  0  0
   -6.6930   17.2970  -33.3820 C   0  0  0  0  0  0  0  0  0  0  0  0
   -6.4640   15.9360  -33.8760 C   0  0  0  0  0  0  0  0  0  0  0  0
   -5.2170   15.8610  -34.5130 O   0  0  0  0  0  0  0  0  0  0  0  0
   -6.0040   20.5690  -32.1560 C   0  0  0  0  0  0  0  0  0  0  0  0
   -6.2610   21.8680  -31.7020 C   0  0  0  0  0  0  0  0  0  0  0  0
   -0.1293   20.5725  -32.8650 H   0  0  0  0  0  0  0  0  0  0  0  0
   -1.6154   20.2423  -33.8185 H   0  0  0  0  0  0  0  0  0  0  0  0
   -0.8955   21.8880  -33.8185 H   0  0  0  0  0  0  0  0  0  0  0  0
   -2.0820   21.5014  -29.9580 H   0  0  0  0  0  0  0  0  0  0  0  0
   -1.5926   19.8857  -30.5716 H   0  0  0  0  0  0  0  0  0  0  0  0
   -0.4139   21.2412  -30.5716 H   0  0  0  0  0  0  0  0  0  0  0  0
   -3.8660   26.4080  -30.1570 H   0  0  0  0  0  0  0  0  0  0  0  0
   -3.6110   24.9840  -31.2170 H   0  0  0  0  0  0  0  0  0  0  0  0
   -8.3218   24.2531  -30.7648 H   0  0  0  0  0  0  0  0  0  0  0  0
   -9.6756   21.9260  -31.7413 H   0  0  0  0  0  0  0  0  0  0  0  0
   -9.2737   19.5994  -32.6193 H   0  0  0  0  0  0  0  0  0  0  0  0
   -6.4839   15.2332  -33.0301 H   0  0  0  0  0  0  0  0  0  0  0  0
   -7.2537   15.6753  -34.5960 H   0  0  0  0  0  0  0  0  0  0  0  0
   -4.5350   15.7890  -33.7960 H   0  0  0  0  0  0  0  0  0  0  0  0
   -4.9734   20.1958  -32.2486 H   0  0  0  0  0  0  0  0  0  0  0  0
  1  2  1  0
  2  3  1  0
  2  4  1  0
  4  5  2  0
  4  6  1  0
  6  7  2  0
  6  8  1  0
  8  9  1  0
  9 10  1  0
 10 11  1  0
 10 12  2  0
  9 13  2  0
 13 14  1  0
 14 15  2  0
 15 16  1  0
 16 17  2  0
 17 18  1  0
 18 19  3  0
 19 20  1  0
 20 21  1  0
 17 22  1  0
 22 23  2  0
 23  8  1  0
 23 14  1  0
  1 24  1  0
  1 25  1  0
  1 26  1  0
  3 27  1  0
  3 28  1  0
  3 29  1  0
 11 30  1  0
 11 31  1  0
 13 32  1  0
 15 33  1  0
 16 34  1  0
 20 35  1  0
 20 36  1  0
 21 37  1  0
 22 38  1  0
M  END
>  <UniqueID>  (75) 
75

>  <SMILES>  (75) 
CN(C)C(=O)C(=O)n1c(C(N)=O)cc2ccc(C#CCO)cc21

>  <Energy>  (75) 
73.46991630724075

>  <Genealogy>  (75) 
CN(C)C(=O)C(=O)n1c(C(N)=O)cc2ccc(C#CCO)cc21 (3D coordinates assigned)
CN(C)C(=O)C(=O)n1c(C(N)=O)cc2ccc(C#CCO)cc21 (optimized conformer: 73.46991630724075 kcal/mol)

>  <smiles>  (75) 
CN(C)C(=O)C(=O)n1c(C(N)=O)cc2ccc(C#CCO)cc21

>  <score_type>  (75) 
oracle

>  <origin>  (75) 
adg

>  <m_score__min__energy>  (75) 
-8.6300000000000008

>  <m_primary>  (75) 
energy

$$$$
75:0
     RDKit          3D

 52 54  0  0  0  0  0  0  0  0999 V2000
   -8.4740   20.6790  -32.3580 C   0  0  0  0  0  0  0  0  0  0  0  0
   -7.6150   19.5420  -32.7220 N   0  0  0  0  0  0  0  0  0  0  0  0
   -6.8730   19.0240  -31.5630 C   0  0  0  0  0  0  0  0  0  0  0  0
   -5.5140   18.5350  -32.0570 C   0  0  0  0  0  0  0  0  0  0  0  0
   -5.4170   19.0110  -33.5010 C   0  0  2  0  0  0  0  0  0  0  0  0
   -4.1330   19.6550  -33.8240 N   0  0  0  0  0  0  0  0  0  0  0  0
   -3.1780   20.2490  -32.9130 C   0  0  0  0  0  0  0  0  0  0  0  0
   -1.8880   19.6960  -32.6790 C   0  0  0  0  0  0  0  0  0  0  0  0
   -0.9970   20.2990  -31.7780 C   0  0  0  0  0  0  0  0  0  0  0  0
   -1.4070   21.4570  -31.1270 C   0  0  0  0  0  0  0  0  0  0  0  0
   -0.7530   22.2230  -30.1900 C   0  0  0  0  0  0  0  0  0  0  0  0
   -1.6380   23.2530  -29.8750 C   0  0  0  0  0  0  0  0  0  0  0  0
   -1.3100   24.3720  -28.9640 C   0  0  0  0  0  0  0  0  0  0  0  0
   -2.3340   25.2430  -28.4810 N   0  0  0  0  0  0  0  0  0  0  0  0
   -0.1230   24.5480  -28.5790 O   0  0  0  0  0  0  0  0  0  0  0  0
   -2.7920   23.1260  -30.5880 N   0  0  0  0  0  0  0  0  0  0  0  0
   -3.9700   23.9420  -30.4910 C   0  0  0  0  0  0  0  0  0  0  0  0
   -3.9160   25.1590  -30.8150 O   0  0  0  0  0  0  0  0  0  0  0  0
   -5.1720   23.3690  -30.0480 O   0  0  0  0  0  0  0  0  0  0  0  0
   -6.4960   23.7440  -30.4520 C   0  0  0  0  0  0  0  0  0  0  0  0
   -7.4570   22.6840  -29.8950 C   0  0  0  0  0  0  0  0  0  0  0  0
   -6.6080   23.7600  -31.9890 C   0  0  0  0  0  0  0  0  0  0  0  0
   -6.8750   25.1170  -29.8640 C   0  0  0  0  0  0  0  0  0  0  0  0
   -2.6340   22.0200  -31.3500 C   0  0  0  0  0  0  0  0  0  0  0  0
   -3.5510   21.4300  -32.2280 C   0  0  0  0  0  0  0  0  0  0  0  0
   -6.6210   19.9120  -33.7340 C   0  0  0  0  0  0  0  0  0  0  0  0
   -8.5334   20.7577  -31.2624 H   0  0  0  0  0  0  0  0  0  0  0  0
   -8.0489   21.6063  -32.7697 H   0  0  0  0  0  0  0  0  0  0  0  0
   -9.4821   20.5235  -32.7697 H   0  0  0  0  0  0  0  0  0  0  0  0
   -6.7352   19.8231  -30.8198 H   0  0  0  0  0  0  0  0  0  0  0  0
   -7.4278   18.2006  -31.0894 H   0  0  0  0  0  0  0  0  0  0  0  0
   -4.7047   18.9703  -31.4525 H   0  0  0  0  0  0  0  0  0  0  0  0
   -5.4174   17.4421  -31.9777 H   0  0  0  0  0  0  0  0  0  0  0  0
   -5.4376   18.1532  -34.1893 H   0  0  0  0  0  0  0  0  0  0  0  0
   -3.8920   19.6770  -34.8410 H   0  0  0  0  0  0  0  0  0  0  0  0
   -1.5848   18.7828  -33.2120 H   0  0  0  0  0  0  0  0  0  0  0  0
   -0.0023   19.8676  -31.5921 H   0  0  0  0  0  0  0  0  0  0  0  0
    0.2533   22.0580  -29.7775 H   0  0  0  0  0  0  0  0  0  0  0  0
   -3.3180   25.1630  -28.8170 H   0  0  0  0  0  0  0  0  0  0  0  0
   -2.0970   26.0070  -27.8090 H   0  0  0  0  0  0  0  0  0  0  0  0
   -7.4338   22.7096  -28.7955 H   0  0  0  0  0  0  0  0  0  0  0  0
   -8.4782   22.8947  -30.2452 H   0  0  0  0  0  0  0  0  0  0  0  0
   -7.1475   21.6882  -30.2452 H   0  0  0  0  0  0  0  0  0  0  0  0
   -7.6585   23.9101  -32.2785 H   0  0  0  0  0  0  0  0  0  0  0  0
   -5.9957   24.5798  -32.3927 H   0  0  0  0  0  0  0  0  0  0  0  0
   -6.2497   22.8016  -32.3927 H   0  0  0  0  0  0  0  0  0  0  0  0
   -6.8599   25.0622  -28.7655 H   0  0  0  0  0  0  0  0  0  0  0  0
   -6.1521   25.8734  -30.2034 H   0  0  0  0  0  0  0  0  0  0  0  0
   -7.8836   25.3955  -30.2034 H   0  0  0  0  0  0  0  0  0  0  0  0
   -4.5443   21.8766  -32.3828 H   0  0  0  0  0  0  0  0  0  0  0  0
   -6.3346   20.9677  -33.6181 H   0  0  0  0  0  0  0  0  0  0  0  0
   -7.0214   19.7884  -34.7510 H   0  0  0  0  0  0  0  0  0  0  0  0
  1  2  1  0
  2  3  1  0
  3  4  1  0
  4  5  1  0
  5  6  1  0
  6  7  1  0
  7  8  2  0
  8  9  1  0
  9 10  2  0
 10 11  1  0
 11 12  2  0
 12 13  1  0
 13 14  1  0
 13 15  2  0
 12 16  1  0
 16 17  1  0
 17 18  2  0
 17 19  1  0
 19 20  1  0
 20 21  1  0
 20 22  1  0
 20 23  1  0
 16 24  1  0
 24 25  2  0
  5 26  1  0
 26  2  1  0
 25  7  1  0
 24 10  1  0
  1 27  1  0
  1 28  1  0
  1 29  1  0
  3 30  1  0
  3 31  1  0
  4 32  1  0
  4 33  1  0
  5 34  1  6
  6 35  1  0
  8 36  1  0
  9 37  1  0
 11 38  1  0
 14 39  1  0
 14 40  1  0
 21 41  1  0
 21 42  1  0
 21 43  1  0
 22 44  1  0
 22 45  1  0
 22 46  1  0
 23 47  1  0
 23 48  1  0
 23 49  1  0
 25 50  1  0
 26 51  1  0
 26 52  1  0
M  END
>  <UniqueID>  (76) 
76

>  <SMILES>  (76) 
CN1CC[C@H](Nc2ccc3cc(C(N)=O)n(C(=O)OC(C)(C)C)c3c2)C1

>  <Energy>  (76) 
92.34590980917744

>  <Genealogy>  (76) 
CN1CC[C@H](Nc2ccc3cc(C(N)=O)n(C(=O)OC(C)(C)C)c3c2)C1 (chirality)
CN1CC[C@H](Nc2ccc3cc(C(N)=O)n(C(=O)OC(C)(C)C)c3c2)C1 (3D coordinates assigned)
CN1CC[C@H](Nc2ccc3cc(C(N)=O)n(C(=O)OC(C)(C)C)c3c2)C1 (nonaromatic ring conformer: 92.34590980917744 kcal/mol)

>  <smiles>  (76) 
CN1CCC(Nc2ccc3cc(C(N)=O)n(C(=O)OC(C)(C)C)c3c2)C1

>  <score_type>  (76) 
oracle

>  <origin>  (76) 
adg

>  <m_score__min__energy>  (76) 
-9.8100000000000005

>  <m_primary>  (76) 
energy

$$$$
76:0
     RDKit          3D

 33 34  0  0  0  0  0  0  0  0999 V2000
   -4.9380   17.4510  -34.8790 N   0  0  0  0  0  0  0  0  0  0  0  0
   -6.0890   17.5940  -34.0440 C   0  0  0  0  0  0  0  0  0  0  0  0
   -6.8300   16.5960  -33.8460 O   0  0  0  0  0  0  0  0  0  0  0  0
   -6.4320   18.9050  -33.4500 C   0  0  0  0  0  0  0  0  0  0  0  0
   -7.7250   19.2770  -33.0840 C   0  0  0  0  0  0  0  0  0  0  0  0
   -7.5950   20.5090  -32.4870 C   0  0  0  0  0  0  0  0  0  0  0  0
   -8.5640   21.3430  -31.9380 C   0  0  0  0  0  0  0  0  0  0  0  0
   -8.1490   22.5740  -31.4040 C   0  0  0  0  0  0  0  0  0  0  0  0
   -6.7850   22.9540  -31.4430 C   0  0  0  0  0  0  0  0  0  0  0  0
   -6.3500   24.2650  -30.8460 C   0  0  0  0  0  0  0  0  0  0  0  0
   -5.7920   24.0530  -29.4330 C   0  0  0  0  0  0  0  0  0  0  0  0
   -4.2880   23.7480  -29.4420 C   0  0  0  0  0  0  0  0  0  0  0  0
   -3.4870   24.9220  -29.9170 C   0  0  0  0  0  0  0  0  0  0  0  0
   -3.9150   25.6450  -30.8550 O   0  0  0  0  0  0  0  0  0  0  0  0
   -2.2820   25.2360  -29.3000 O   0  0  0  0  0  0  0  0  0  0  0  0
   -5.8260   22.0760  -31.9960 C   0  0  0  0  0  0  0  0  0  0  0  0
   -6.2660   20.8470  -32.5050 C   0  0  0  0  0  0  0  0  0  0  0  0
   -5.5380   19.8710  -33.0940 N   0  0  0  0  0  0  0  0  0  0  0  0
   -4.1240   19.8930  -33.3560 C   0  0  0  0  0  0  0  0  0  0  0  0
   -3.4180   18.8730  -33.1360 O   0  0  0  0  0  0  0  0  0  0  0  0
   -3.5180   21.0460  -33.8390 O   0  0  0  0  0  0  0  0  0  0  0  0
   -4.7270   16.5310  -35.3260 H   0  0  0  0  0  0  0  0  0  0  0  0
   -4.2710   18.2400  -35.0250 H   0  0  0  0  0  0  0  0  0  0  0  0
   -8.6523   18.7061  -33.2397 H   0  0  0  0  0  0  0  0  0  0  0  0
   -9.6234   21.0471  -31.9226 H   0  0  0  0  0  0  0  0  0  0  0  0
   -8.8901   23.2492  -30.9513 H   0  0  0  0  0  0  0  0  0  0  0  0
   -5.5695   24.7104  -31.4804 H   0  0  0  0  0  0  0  0  0  0  0  0
   -7.2200   24.9356  -30.7880 H   0  0  0  0  0  0  0  0  0  0  0  0
   -5.9646   24.9656  -28.8436 H   0  0  0  0  0  0  0  0  0  0  0  0
   -6.3089   23.1875  -28.9927 H   0  0  0  0  0  0  0  0  0  0  0  0
   -3.9706   23.4896  -28.4210 H   0  0  0  0  0  0  0  0  0  0  0  0
   -4.1121   22.9107  -30.1334 H   0  0  0  0  0  0  0  0  0  0  0  0
   -4.7612   22.3503  -32.0261 H   0  0  0  0  0  0  0  0  0  0  0  0
  1  2  1  0
  2  3  2  0
  2  4  1  0
  4  5  2  0
  5  6  1  0
  6  7  2  0
  7  8  1  0
  8  9  2  0
  9 10  1  0
 10 11  1  0
 11 12  1  0
 12 13  1  0
 13 14  2  0
 13 15  1  0
  9 16  1  0
 16 17  2  0
 17 18  1  0
 18 19  1  0
 19 20  2  0
 19 21  1  0
 18  4  1  0
 17  6  1  0
  1 22  1  0
  1 23  1  0
  5 24  1  0
  7 25  1  0
  8 26  1  0
 10 27  1  0
 10 28  1  0
 11 29  1  0
 11 30  1  0
 12 31  1  0
 12 32  1  0
 16 33  1  0
M  CHG  2  15  -1  21  -1
M  END
>  <UniqueID>  (77) 
77

>  <SMILES>  (77) 
NC(=O)c1cc2ccc(CCCC(=O)[O-])cc2n1C(=O)[O-]

>  <Energy>  (77) 
67.14142739412885

>  <Genealogy>  (77) 
NC(=O)c1cc2ccc(CCCC(=O)[O-])cc2n1C(=O)[O-] (protonated)
NC(=O)c1cc2ccc(CCCC(=O)[O-])cc2n1C(=O)[O-] (3D coordinates assigned)
NC(=O)c1cc2ccc(CCCC(=O)[O-])cc2n1C(=O)[O-] (optimized conformer: 67.14142739412885 kcal/mol)

>  <smiles>  (77) 
NC(=O)c1cc2ccc(CCCC(=O)O)cc2n1C(=O)O

>  <score_type>  (77) 
oracle

>  <origin>  (77) 
adg

>  <m_score__min__energy>  (77) 
-10.119999999999999

>  <m_primary>  (77) 
energy

$$$$
77:0
     RDKit          3D

 41 42  0  0  0  0  0  0  0  0999 V2000
   -9.2110   23.0790  -31.8940 N   0  0  0  0  0  0  0  0  0  0  0  0
   -8.7410   21.7590  -31.6070 C   0  0  0  0  0  0  0  0  0  0  0  0
   -9.4340   21.0070  -30.8720 O   0  0  0  0  0  0  0  0  0  0  0  0
   -7.4360   21.2820  -32.1080 C   0  0  0  0  0  0  0  0  0  0  0  0
   -7.2470   20.0290  -32.6820 C   0  0  0  0  0  0  0  0  0  0  0  0
   -5.9110   19.9740  -33.0050 C   0  0  0  0  0  0  0  0  0  0  0  0
   -5.1840   18.9670  -33.6300 C   0  0  0  0  0  0  0  0  0  0  0  0
   -3.8240   19.2000  -33.8920 C   0  0  0  0  0  0  0  0  0  0  0  0
   -3.2190   20.4380  -33.5430 C   0  0  0  0  0  0  0  0  0  0  0  0
   -1.8300   20.7020  -33.8150 N   0  0  0  0  0  0  0  0  0  0  0  0
   -0.7340   20.0880  -33.0620 C   0  0  0  0  0  0  0  0  0  0  0  0
    0.4540   19.7780  -33.9770 C   0  0  0  0  0  0  0  0  0  0  0  0
    0.3100   20.4660  -35.2560 N   0  0  0  0  0  0  0  0  0  0  0  0
    0.7050   21.8250  -35.4760 C   0  0  0  0  0  0  0  0  0  0  0  0
   -0.1180   22.7640  -35.3070 O   0  0  0  0  0  0  0  0  0  0  0  0
    2.0920   22.1350  -35.9440 C   0  0  0  0  0  0  0  0  0  0  0  0
    2.9730   22.1430  -34.8780 F   0  0  0  0  0  0  0  0  0  0  0  0
    2.1080   23.3780  -36.5520 F   0  0  0  0  0  0  0  0  0  0  0  0
    2.4940   21.1780  -36.8560 F   0  0  0  0  0  0  0  0  0  0  0  0
   -3.9970   21.4390  -32.9190 C   0  0  0  0  0  0  0  0  0  0  0  0
   -5.3420   21.1660  -32.6370 C   0  0  0  0  0  0  0  0  0  0  0  0
   -6.2650   21.9790  -32.0760 N   0  0  0  0  0  0  0  0  0  0  0  0
   -6.0820   23.3480  -31.6750 C   0  0  0  0  0  0  0  0  0  0  0  0
   -6.4760   24.2760  -32.4330 O   0  0  0  0  0  0  0  0  0  0  0  0
   -5.4300   23.6900  -30.3660 C   0  0  0  0  0  0  0  0  0  0  0  0
   -4.0780   24.2900  -30.5890 C   0  0  0  0  0  0  0  0  0  0  0  0
   -3.0930   23.5500  -30.8570 O   0  0  0  0  0  0  0  0  0  0  0  0
   -3.8960   25.6620  -30.4700 O   0  0  0  0  0  0  0  0  0  0  0  0
  -10.1600   23.3770  -31.5770 H   0  0  0  0  0  0  0  0  0  0  0  0
   -8.5890   23.7880  -32.3360 H   0  0  0  0  0  0  0  0  0  0  0  0
   -8.0048   19.2482  -32.8433 H   0  0  0  0  0  0  0  0  0  0  0  0
   -5.6599   18.0159  -33.9110 H   0  0  0  0  0  0  0  0  0  0  0  0
   -3.2204   18.4159  -34.3725 H   0  0  0  0  0  0  0  0  0  0  0  0
   -1.5980   21.3770  -34.5800 H   0  0  0  0  0  0  0  0  0  0  0  0
   -0.4083   20.7804  -32.2717 H   0  0  0  0  0  0  0  0  0  0  0  0
   -1.0944   19.1455  -32.6240 H   0  0  0  0  0  0  0  0  0  0  0  0
    1.3822   20.1111  -33.4897 H   0  0  0  0  0  0  0  0  0  0  0  0
    0.4880   18.6937  -34.1592 H   0  0  0  0  0  0  0  0  0  0  0  0
   -3.5557   22.4127  -32.6599 H   0  0  0  0  0  0  0  0  0  0  0  0
   -6.0607   24.4117  -29.8262 H   0  0  0  0  0  0  0  0  0  0  0  0
   -5.3148   22.7681  -29.7770 H   0  0  0  0  0  0  0  0  0  0  0  0
  1  2  1  0
  2  3  2  0
  2  4  1  0
  4  5  2  0
  5  6  1  0
  6  7  2  0
  7  8  1  0
  8  9  2  0
  9 10  1  0
 10 11  1  0
 11 12  1  0
 12 13  1  0
 13 14  1  0
 14 15  2  0
 14 16  1  0
 16 17  1  0
 16 18  1  0
 16 19  1  0
  9 20  1  0
 20 21  2  0
 21 22  1  0
 22 23  1  0
 23 24  2  0
 23 25  1  0
 25 26  1  0
 26 27  2  0
 26 28  1  0
 22  4  1  0
 21  6  1  0
  1 29  1  0
  1 30  1  0
  5 31  1  0
  7 32  1  0
  8 33  1  0
 10 34  1  0
 11 35  1  0
 11 36  1  0
 12 37  1  0
 12 38  1  0
 20 39  1  0
 25 40  1  0
 25 41  1  0
M  CHG  2  13  -1  28  -1
M  END
>  <UniqueID>  (78) 
78

>  <SMILES>  (78) 
NC(=O)c1cc2ccc(NCC[N-]C(=O)C(F)(F)F)cc2n1C(=O)CC(=O)[O-]

>  <Energy>  (78) 
74.17572468674277

>  <Genealogy>  (78) 
NC(=O)c1cc2ccc(NCC[N-]C(=O)C(F)(F)F)cc2n1C(=O)CC(=O)[O-] (protonated)
NC(=O)c1cc2ccc(NCC[N-]C(=O)C(F)(F)F)cc2n1C(=O)CC(=O)[O-] (3D coordinates assigned)
NC(=O)c1cc2ccc(NCC[N-]C(=O)C(F)(F)F)cc2n1C(=O)CC(=O)[O-] (optimized conformer: 74.17572468674277 kcal/mol)

>  <smiles>  (78) 
NC(=O)c1cc2ccc(NCCNC(=O)C(F)(F)F)cc2n1C(=O)CC(=O)O

>  <score_type>  (78) 
oracle

>  <origin>  (78) 
adg

>  <m_score__min__energy>  (78) 
-9.9399999999999995

>  <m_primary>  (78) 
energy

$$$$
78:0
     RDKit          3D

 37 39  0  0  0  0  0  0  0  0999 V2000
   -3.6950   24.8310  -29.9480 N   0  0  0  0  0  0  0  0  0  0  0  0
   -4.9640   24.9940  -30.5860 C   0  0  0  0  0  0  0  0  0  0  0  0
   -5.3710   26.1560  -30.8530 O   0  0  0  0  0  0  0  0  0  0  0  0
   -5.7760   23.8160  -30.9640 C   0  0  0  0  0  0  0  0  0  0  0  0
   -7.1590   23.7420  -30.8040 C   0  0  0  0  0  0  0  0  0  0  0  0
   -7.5010   22.4630  -31.1830 C   0  0  0  0  0  0  0  0  0  0  0  0
   -8.7480   21.8470  -31.2250 C   0  0  0  0  0  0  0  0  0  0  0  0
   -8.8120   20.5210  -31.6800 C   0  0  0  0  0  0  0  0  0  0  0  0
   -7.6400   19.8460  -32.1020 C   0  0  0  0  0  0  0  0  0  0  0  0
   -7.7180   18.4210  -32.5630 C   0  0  0  0  0  0  0  0  0  0  0  0
   -8.8010   17.8010  -31.9680 F   0  0  0  0  0  0  0  0  0  0  0  0
   -6.3900   20.4970  -32.0300 C   0  0  0  0  0  0  0  0  0  0  0  0
   -6.3520   21.8140  -31.5550 C   0  0  0  0  0  0  0  0  0  0  0  0
   -5.2840   22.6320  -31.4250 N   0  0  0  0  0  0  0  0  0  0  0  0
   -3.9250   22.3320  -31.7840 C   0  0  0  0  0  0  0  0  0  0  0  0
   -3.6140   22.1700  -32.9950 O   0  0  0  0  0  0  0  0  0  0  0  0
   -2.9510   22.2280  -30.7840 O   0  0  0  0  0  0  0  0  0  0  0  0
   -1.5910   21.8870  -31.0450 C   0  0  0  0  0  0  0  0  0  0  0  0
   -0.7020   22.2960  -29.8690 C   0  0  0  0  0  0  0  0  0  0  0  0
   -1.3570   23.3750  -29.0660 C   0  0  0  0  0  0  0  0  0  0  0  0
   -1.1920   24.6910  -29.3110 N   0  0  0  0  0  0  0  0  0  0  0  0
   -1.8710   25.2890  -28.3800 O   0  0  0  0  0  0  0  0  0  0  0  0
   -2.4140   24.3900  -27.6000 C   0  0  0  0  0  0  0  0  0  0  0  0
   -3.1310   24.6690  -26.6040 O   0  0  0  0  0  0  0  0  0  0  0  0
   -2.1210   23.1330  -27.9790 N   0  0  0  0  0  0  0  0  0  0  0  0
   -3.1140   25.6680  -29.7210 H   0  0  0  0  0  0  0  0  0  0  0  0
   -3.3490   23.8900  -29.6630 H   0  0  0  0  0  0  0  0  0  0  0  0
   -7.8332   24.5360  -30.4504 H   0  0  0  0  0  0  0  0  0  0  0  0
   -9.6558   22.3830  -30.9112 H   0  0  0  0  0  0  0  0  0  0  0  0
   -9.7809   20.0010  -31.7093 H   0  0  0  0  0  0  0  0  0  0  0  0
   -7.8365   18.3956  -33.6563 H   0  0  0  0  0  0  0  0  0  0  0  0
   -6.7944   17.8942  -32.2811 H   0  0  0  0  0  0  0  0  0  0  0  0
   -5.4681   19.9827  -32.3393 H   0  0  0  0  0  0  0  0  0  0  0  0
   -1.5129   20.8004  -31.1973 H   0  0  0  0  0  0  0  0  0  0  0  0
   -1.2567   22.4208  -31.9468 H   0  0  0  0  0  0  0  0  0  0  0  0
   -0.5282   21.4210  -29.2255 H   0  0  0  0  0  0  0  0  0  0  0  0
    0.2534   22.6750  -30.2609 H   0  0  0  0  0  0  0  0  0  0  0  0
  1  2  1  0
  2  3  2  0
  2  4  1  0
  4  5  2  0
  5  6  1  0
  6  7  2  0
  7  8  1  0
  8  9  2  0
  9 10  1  0
 10 11  1  0
  9 12  1  0
 12 13  2  0
 13 14  1  0
 14 15  1  0
 15 16  2  0
 15 17  1  0
 17 18  1  0
 18 19  1  0
 19 20  1  0
 20 21  2  0
 21 22  1  0
 22 23  1  0
 23 24  2  0
 23 25  1  0
 14  4  1  0
 25 20  1  0
 13  6  1  0
  1 26  1  0
  1 27  1  0
  5 28  1  0
  7 29  1  0
  8 30  1  0
 10 31  1  0
 10 32  1  0
 12 33  1  0
 18 34  1  0
 18 35  1  0
 19 36  1  0
 19 37  1  0
M  CHG  1  25  -1
M  END
>  <UniqueID>  (79) 
79

>  <SMILES>  (79) 
NC(=O)c1cc2ccc(CF)cc2n1C(=O)OCCc1noc(=O)[n-]1

>  <Energy>  (79) 
106.61477802564193

>  <Genealogy>  (79) 
NC(=O)c1cc2ccc(CF)cc2n1C(=O)OCCc1noc(=O)[n-]1 (protonated)
NC(=O)c1cc2ccc(CF)cc2n1C(=O)OCCc1noc(=O)[n-]1 (3D coordinates assigned)
NC(=O)c1cc2ccc(CF)cc2n1C(=O)OCCc1noc(=O)[n-]1 (optimized conformer: 106.61477802564193 kcal/mol)

>  <smiles>  (79) 
NC(=O)c1cc2ccc(CF)cc2n1C(=O)OCCc1noc(=O)[nH]1

>  <score_type>  (79) 
oracle

>  <origin>  (79) 
adg

>  <m_score__min__energy>  (79) 
-10.18

>  <m_primary>  (79) 
energy

$$$$
79:0
     RDKit          3D

 34 35  0  0  0  0  0  0  0  0999 V2000
   -2.7670   24.5500  -27.8740 C   0  0  0  0  0  0  0  0  0  0  0  0
   -2.0420   24.6760  -29.0770 O   0  0  0  0  0  0  0  0  0  0  0  0
   -1.8290   23.3940  -29.6310 C   0  0  0  0  0  0  0  0  0  0  0  0
   -3.1490   22.6200  -29.6640 C   0  0  0  0  0  0  0  0  0  0  0  0
   -3.7750   22.6130  -31.0330 C   0  0  0  0  0  0  0  0  0  0  0  0
   -3.0800   22.3100  -32.0400 O   0  0  0  0  0  0  0  0  0  0  0  0
   -5.1800   22.8630  -31.1920 N   0  0  0  0  0  0  0  0  0  0  0  0
   -5.8600   24.0030  -30.8840 C   0  0  0  0  0  0  0  0  0  0  0  0
   -5.2590   25.2760  -30.4320 C   0  0  0  0  0  0  0  0  0  0  0  0
   -3.9510   25.6610  -30.8480 N   0  0  0  0  0  0  0  0  0  0  0  0
   -5.9220   26.0520  -29.6920 O   0  0  0  0  0  0  0  0  0  0  0  0
   -7.2250   23.8310  -31.1040 C   0  0  0  0  0  0  0  0  0  0  0  0
   -7.3610   22.5400  -31.5610 C   0  0  0  0  0  0  0  0  0  0  0  0
   -8.5060   21.8300  -31.9140 C   0  0  0  0  0  0  0  0  0  0  0  0
   -8.3530   20.4930  -32.3180 C   0  0  0  0  0  0  0  0  0  0  0  0
   -7.0690   19.8960  -32.3650 C   0  0  0  0  0  0  0  0  0  0  0  0
   -6.9240   18.4540  -32.7510 C   0  0  0  0  0  0  0  0  0  0  0  0
   -6.8840   17.6740  -31.6110 F   0  0  0  0  0  0  0  0  0  0  0  0
   -5.9330   20.6430  -31.9840 C   0  0  0  0  0  0  0  0  0  0  0  0
   -6.1120   21.9760  -31.6020 C   0  0  0  0  0  0  0  0  0  0  0  0
   -2.0839   24.6687  -27.0200 H   0  0  0  0  0  0  0  0  0  0  0  0
   -3.5451   25.3264  -27.8318 H   0  0  0  0  0  0  0  0  0  0  0  0
   -3.2375   23.5566  -27.8318 H   0  0  0  0  0  0  0  0  0  0  0  0
   -1.4406   23.4981  -30.6549 H   0  0  0  0  0  0  0  0  0  0  0  0
   -1.1014   22.8468  -29.0136 H   0  0  0  0  0  0  0  0  0  0  0  0
   -2.9573   21.5810  -29.3577 H   0  0  0  0  0  0  0  0  0  0  0  0
   -3.8484   23.1195  -28.9775 H   0  0  0  0  0  0  0  0  0  0  0  0
   -3.1030   25.3010  -30.3580 H   0  0  0  0  0  0  0  0  0  0  0  0
   -8.0242   24.5701  -30.9460 H   0  0  0  0  0  0  0  0  0  0  0  0
   -9.4993   22.3013  -31.8776 H   0  0  0  0  0  0  0  0  0  0  0  0
   -9.2383   19.9044  -32.6004 H   0  0  0  0  0  0  0  0  0  0  0  0
   -7.7807   18.1526  -33.3717 H   0  0  0  0  0  0  0  0  0  0  0  0
   -5.9929   18.3187  -33.3208 H   0  0  0  0  0  0  0  0  0  0  0  0
   -4.9318   20.1874  -31.9876 H   0  0  0  0  0  0  0  0  0  0  0  0
  1  2  1  0
  2  3  1  0
  3  4  1  0
  4  5  1  0
  5  6  2  0
  5  7  1  0
  7  8  1  0
  8  9  1  0
  9 10  1  0
  9 11  2  0
  8 12  2  0
 12 13  1  0
 13 14  2  0
 14 15  1  0
 15 16  2  0
 16 17  1  0
 17 18  1  0
 16 19  1  0
 19 20  2  0
 20  7  1  0
 20 13  1  0
  1 21  1  0
  1 22  1  0
  1 23  1  0
  3 24  1  0
  3 25  1  0
  4 26  1  0
  4 27  1  0
 10 28  1  0
 12 29  1  0
 14 30  1  0
 15 31  1  0
 17 32  1  0
 17 33  1  0
 19 34  1  0
M  CHG  1  10  -1
M  END
>  <UniqueID>  (80) 
80

>  <SMILES>  (80) 
COCCC(=O)n1c(C([NH-])=O)cc2ccc(CF)cc21

>  <Energy>  (80) 
71.77077693777518

>  <Genealogy>  (80) 
COCCC(=O)n1c(C([NH-])=O)cc2ccc(CF)cc21 (protonated)
COCCC(=O)n1c(C([NH-])=O)cc2ccc(CF)cc21 (3D coordinates assigned)
COCCC(=O)n1c(C([NH-])=O)cc2ccc(CF)cc21 (optimized conformer: 71.77077693777518 kcal/mol)

>  <smiles>  (80) 
COCCC(=O)n1c(C(N)=O)cc2ccc(CF)cc21

>  <score_type>  (80) 
oracle

>  <origin>  (80) 
adg

>  <m_score__min__energy>  (80) 
-9.2100000000000009

>  <m_primary>  (80) 
energy

$$$$
80:0
     RDKit          3D

 42 44  0  0  0  0  0  0  0  0999 V2000
   -5.5810   24.1550  -29.3240 N   0  0  0  0  0  0  0  0  0  0  0  0
   -6.2740   23.8780  -30.5420 C   0  0  0  0  0  0  0  0  0  0  0  0
   -6.6580   24.8380  -31.2600 O   0  0  0  0  0  0  0  0  0  0  0  0
   -6.5710   22.4840  -30.9420 C   0  0  0  0  0  0  0  0  0  0  0  0
   -7.8550   22.0030  -31.1890 C   0  0  0  0  0  0  0  0  0  0  0  0
   -7.6810   20.7080  -31.6230 C   0  0  0  0  0  0  0  0  0  0  0  0
   -8.6220   19.7630  -32.0050 C   0  0  0  0  0  0  0  0  0  0  0  0
   -8.1650   18.4940  -32.3930 C   0  0  0  0  0  0  0  0  0  0  0  0
   -6.7750   18.1680  -32.3860 C   0  0  0  0  0  0  0  0  0  0  0  0
   -6.3090   16.8400  -32.7790 N   0  0  0  0  0  0  0  0  0  0  0  0
   -6.8500   16.2170  -34.0050 C   0  0  0  0  0  0  0  0  0  0  0  0
   -6.3310   14.7990  -34.2540 C   0  0  0  0  0  0  0  0  0  0  0  0
   -4.9710   14.6920  -33.9060 O   0  0  0  0  0  0  0  0  0  0  0  0
   -4.8640   14.7940  -32.5070 C   0  0  0  0  0  0  0  0  0  0  0  0
   -5.2000   16.2100  -32.0300 C   0  0  0  0  0  0  0  0  0  0  0  0
   -5.8540   19.1800  -31.9880 C   0  0  0  0  0  0  0  0  0  0  0  0
   -6.3400   20.4420  -31.6290 C   0  0  0  0  0  0  0  0  0  0  0  0
   -5.6420   21.5230  -31.2130 N   0  0  0  0  0  0  0  0  0  0  0  0
   -4.2190   21.6080  -31.0420 C   0  0  0  0  0  0  0  0  0  0  0  0
   -3.4520   21.0270  -31.8560 O   0  0  0  0  0  0  0  0  0  0  0  0
   -3.6910   22.3550  -29.9820 O   0  0  0  0  0  0  0  0  0  0  0  0
   -2.5270   23.1700  -30.0950 C   0  0  0  0  0  0  0  0  0  0  0  0
   -2.8480   24.8300  -29.4260 P   0  0  0  0  0  0  0  0  0  0  0  0
   -3.5150   24.7090  -28.0750 O   0  0  0  0  0  0  0  0  0  0  0  0
   -1.3960   25.6820  -29.2600 O   0  0  0  0  0  0  0  0  0  0  0  0
   -3.8690   25.6690  -30.4810 O   0  0  0  0  0  0  0  0  0  0  0  0
   -5.1970   23.3880  -28.7300 H   0  0  0  0  0  0  0  0  0  0  0  0
   -5.4110   25.1430  -29.0320 H   0  0  0  0  0  0  0  0  0  0  0  0
   -8.8053   22.5428  -31.0639 H   0  0  0  0  0  0  0  0  0  0  0  0
   -9.6958   20.0015  -32.0038 H   0  0  0  0  0  0  0  0  0  0  0  0
   -8.8941   17.7336  -32.7096 H   0  0  0  0  0  0  0  0  0  0  0  0
   -7.9459   16.1758  -33.9193 H   0  0  0  0  0  0  0  0  0  0  0  0
   -6.5187   16.8345  -34.8529 H   0  0  0  0  0  0  0  0  0  0  0  0
   -6.9145   14.0906  -33.6476 H   0  0  0  0  0  0  0  0  0  0  0  0
   -6.4384   14.5690  -35.3243 H   0  0  0  0  0  0  0  0  0  0  0  0
   -5.5616   14.0828  -32.0406 H   0  0  0  0  0  0  0  0  0  0  0  0
   -3.8276   14.5649  -32.2183 H   0  0  0  0  0  0  0  0  0  0  0  0
   -5.4813   16.1614  -30.9677 H   0  0  0  0  0  0  0  0  0  0  0  0
   -4.3055   16.8277  -32.1983 H   0  0  0  0  0  0  0  0  0  0  0  0
   -4.7742   18.9716  -31.9633 H   0  0  0  0  0  0  0  0  0  0  0  0
   -1.7035   22.7057  -29.5327 H   0  0  0  0  0  0  0  0  0  0  0  0
   -2.2560   23.2597  -31.1573 H   0  0  0  0  0  0  0  0  0  0  0  0
  1  2  1  0
  2  3  2  0
  2  4  1  0
  4  5  2  0
  5  6  1  0
  6  7  2  0
  7  8  1  0
  8  9  2  0
  9 10  1  0
 10 11  1  0
 11 12  1  0
 12 13  1  0
 13 14  1  0
 14 15  1  0
  9 16  1  0
 16 17  2  0
 17 18  1  0
 18 19  1  0
 19 20  2  0
 19 21  1  0
 21 22  1  0
 22 23  1  0
 23 24  2  0
 23 25  1  0
 23 26  1  0
 18  4  1  0
 17  6  1  0
 15 10  1  0
  1 27  1  0
  1 28  1  0
  5 29  1  0
  7 30  1  0
  8 31  1  0
 11 32  1  0
 11 33  1  0
 12 34  1  0
 12 35  1  0
 14 36  1  0
 14 37  1  0
 15 38  1  0
 15 39  1  0
 16 40  1  0
 22 41  1  0
 22 42  1  0
M  CHG  2  25  -1  26  -1
M  END
>  <UniqueID>  (81) 
81

>  <SMILES>  (81) 
NC(=O)c1cc2ccc(N3CCOCC3)cc2n1C(=O)OCP(=O)([O-])[O-]

>  <Energy>  (81) 
84.71433236111523

>  <Genealogy>  (81) 
NC(=O)c1cc2ccc(N3CCOCC3)cc2n1C(=O)OCP(=O)([O-])[O-] (protonated)
NC(=O)c1cc2ccc(N3CCOCC3)cc2n1C(=O)OCP(=O)([O-])[O-] (3D coordinates assigned)
NC(=O)c1cc2ccc(N3CCOCC3)cc2n1C(=O)OCP(=O)([O-])[O-] (nonaromatic ring conformer: 84.71433236111523 kcal/mol)

>  <smiles>  (81) 
NC(=O)c1cc2ccc(N3CCOCC3)cc2n1C(=O)OCP(=O)(O)O

>  <score_type>  (81) 
oracle

>  <origin>  (81) 
adg

>  <m_score__min__energy>  (81) 
-12.550000000000001

>  <m_primary>  (81) 
energy

$$$$
81:0
     RDKit          3D

 29 30  0  0  0  0  0  0  0  0999 V2000
   -4.4890   25.6470  -30.8410 N   0  0  0  0  0  0  0  0  0  0  0  0
   -5.7540   25.0890  -30.4950 C   0  0  0  0  0  0  0  0  0  0  0  0
   -6.5370   25.7450  -29.7590 O   0  0  0  0  0  0  0  0  0  0  0  0
   -6.1250   23.7460  -30.9860 C   0  0  0  0  0  0  0  0  0  0  0  0
   -7.4110   23.3960  -31.3960 C   0  0  0  0  0  0  0  0  0  0  0  0
   -7.3180   22.0870  -31.8130 C   0  0  0  0  0  0  0  0  0  0  0  0
   -8.3000   21.2270  -32.2940 C   0  0  0  0  0  0  0  0  0  0  0  0
   -7.9240   19.9110  -32.6130 C   0  0  0  0  0  0  0  0  0  0  0  0
   -6.5810   19.4810  -32.4580 C   0  0  0  0  0  0  0  0  0  0  0  0
   -6.2040   18.0490  -32.7460 C   0  0  0  0  0  0  0  0  0  0  0  0
   -6.0020   17.3520  -31.5680 F   0  0  0  0  0  0  0  0  0  0  0  0
   -5.0390   18.0260  -33.4900 F   0  0  0  0  0  0  0  0  0  0  0  0
   -7.2070   17.4140  -33.4580 F   0  0  0  0  0  0  0  0  0  0  0  0
   -5.6180   20.3790  -31.9420 C   0  0  0  0  0  0  0  0  0  0  0  0
   -6.0180   21.6870  -31.6510 C   0  0  0  0  0  0  0  0  0  0  0  0
   -5.2740   22.6940  -31.1460 N   0  0  0  0  0  0  0  0  0  0  0  0
   -3.8800   22.6370  -30.8110 C   0  0  0  0  0  0  0  0  0  0  0  0
   -3.0540   22.1830  -31.6480 O   0  0  0  0  0  0  0  0  0  0  0  0
   -3.4040   23.0590  -29.4550 C   0  0  0  0  0  0  0  0  0  0  0  0
   -2.1760   23.9000  -29.5880 C   0  0  0  0  0  0  0  0  0  0  0  0
   -1.0920   23.3820  -29.9650 O   0  0  0  0  0  0  0  0  0  0  0  0
   -2.2380   25.2660  -29.3440 O   0  0  0  0  0  0  0  0  0  0  0  0
   -3.8640   26.0540  -30.1100 H   0  0  0  0  0  0  0  0  0  0  0  0
   -8.3092   24.0309  -31.3880 H   0  0  0  0  0  0  0  0  0  0  0  0
   -9.3386   21.5665  -32.4207 H   0  0  0  0  0  0  0  0  0  0  0  0
   -8.6804   19.2056  -32.9875 H   0  0  0  0  0  0  0  0  0  0  0  0
   -4.5799   20.0565  -31.7737 H   0  0  0  0  0  0  0  0  0  0  0  0
   -4.1928   23.6411  -28.9560 H   0  0  0  0  0  0  0  0  0  0  0  0
   -3.1689   22.1652  -28.8585 H   0  0  0  0  0  0  0  0  0  0  0  0
  1  2  1  0
  2  3  2  0
  2  4  1  0
  4  5  2  0
  5  6  1  0
  6  7  2  0
  7  8  1  0
  8  9  2  0
  9 10  1  0
 10 11  1  0
 10 12  1  0
 10 13  1  0
  9 14  1  0
 14 15  2  0
 15 16  1  0
 16 17  1  0
 17 18  2  0
 17 19  1  0
 19 20  1  0
 20 21  2  0
 20 22  1  0
 16  4  1  0
 15  6  1  0
  1 23  1  0
  5 24  1  0
  7 25  1  0
  8 26  1  0
 14 27  1  0
 19 28  1  0
 19 29  1  0
M  CHG  2   1  -1  22  -1
M  END
>  <UniqueID>  (82) 
82

>  <SMILES>  (82) 
[NH-]C(=O)c1cc2ccc(C(F)(F)F)cc2n1C(=O)CC(=O)[O-]

>  <Energy>  (82) 
67.42058762470961

>  <Genealogy>  (82) 
[NH-]C(=O)c1cc2ccc(C(F)(F)F)cc2n1C(=O)CC(=O)[O-] (protonated)
[NH-]C(=O)c1cc2ccc(C(F)(F)F)cc2n1C(=O)CC(=O)[O-] (3D coordinates assigned)
[NH-]C(=O)c1cc2ccc(C(F)(F)F)cc2n1C(=O)CC(=O)[O-] (optimized conformer: 67.42058762470961 kcal/mol)

>  <smiles>  (82) 
NC(=O)c1cc2ccc(C(F)(F)F)cc2n1C(=O)CC(=O)O

>  <score_type>  (82) 
oracle

>  <origin>  (82) 
adg

>  <m_score__min__energy>  (82) 
-11.029999999999999

>  <m_primary>  (82) 
energy

$$$$
82:0
     RDKit          3D

 35 36  0  0  0  0  0  0  0  0999 V2000
   -4.4810   18.2410  -34.3170 C   0  0  0  0  0  0  0  0  0  0  0  0
   -4.4520   19.5720  -33.8560 O   0  0  0  0  0  0  0  0  0  0  0  0
   -3.3050   19.7990  -33.0550 C   0  0  0  0  0  0  0  0  0  0  0  0
   -2.7430   21.1930  -33.3340 C   0  0  0  0  0  0  0  0  0  0  0  0
   -3.7050   22.2000  -33.0310 O   0  0  0  0  0  0  0  0  0  0  0  0
   -3.9870   22.6280  -31.7290 C   0  0  0  0  0  0  0  0  0  0  0  0
   -3.0560   22.7850  -30.8930 O   0  0  0  0  0  0  0  0  0  0  0  0
   -5.3440   22.9060  -31.3510 N   0  0  0  0  0  0  0  0  0  0  0  0
   -5.8710   24.0930  -30.9370 C   0  0  0  0  0  0  0  0  0  0  0  0
   -5.1120   25.3270  -30.6410 C   0  0  0  0  0  0  0  0  0  0  0  0
   -3.6980   25.2960  -30.4690 N   0  0  0  0  0  0  0  0  0  0  0  0
   -5.7270   26.4170  -30.4910 O   0  0  0  0  0  0  0  0  0  0  0  0
   -7.2450   23.9740  -30.7370 C   0  0  0  0  0  0  0  0  0  0  0  0
   -7.5440   22.6630  -31.0340 C   0  0  0  0  0  0  0  0  0  0  0  0
   -8.7630   21.9940  -31.0000 C   0  0  0  0  0  0  0  0  0  0  0  0
   -8.7820   20.6400  -31.3760 C   0  0  0  0  0  0  0  0  0  0  0  0
   -7.5960   19.9880  -31.8010 C   0  0  0  0  0  0  0  0  0  0  0  0
   -7.6220   18.5260  -32.1650 C   0  0  0  0  0  0  0  0  0  0  0  0
   -8.8900   18.0000  -31.9870 F   0  0  0  0  0  0  0  0  0  0  0  0
   -7.2560   18.3800  -33.4890 F   0  0  0  0  0  0  0  0  0  0  0  0
   -6.7420   17.8090  -31.3710 F   0  0  0  0  0  0  0  0  0  0  0  0
   -6.3710   20.6980  -31.7980 C   0  0  0  0  0  0  0  0  0  0  0  0
   -6.3790   22.0400  -31.4020 C   0  0  0  0  0  0  0  0  0  0  0  0
   -4.4959   17.5553  -33.4570 H   0  0  0  0  0  0  0  0  0  0  0  0
   -5.3828   18.0838  -34.9270 H   0  0  0  0  0  0  0  0  0  0  0  0
   -3.5869   18.0447  -34.9270 H   0  0  0  0  0  0  0  0  0  0  0  0
   -3.5810   19.7229  -31.9929 H   0  0  0  0  0  0  0  0  0  0  0  0
   -2.5405   19.0456  -33.2955 H   0  0  0  0  0  0  0  0  0  0  0  0
   -1.8485   21.3513  -32.7137 H   0  0  0  0  0  0  0  0  0  0  0  0
   -2.4876   21.2614  -34.4017 H   0  0  0  0  0  0  0  0  0  0  0  0
   -3.0720   24.9260  -31.2190 H   0  0  0  0  0  0  0  0  0  0  0  0
   -7.9423   24.7600  -30.4112 H   0  0  0  0  0  0  0  0  0  0  0  0
   -9.6838   22.5089  -30.6884 H   0  0  0  0  0  0  0  0  0  0  0  0
   -9.7276   20.0792  -31.3403 H   0  0  0  0  0  0  0  0  0  0  0  0
   -5.4347   20.2060  -32.1000 H   0  0  0  0  0  0  0  0  0  0  0  0
  1  2  1  0
  2  3  1  0
  3  4  1  0
  4  5  1  0
  5  6  1  0
  6  7  2  0
  6  8  1  0
  8  9  1  0
  9 10  1  0
 10 11  1  0
 10 12  2  0
  9 13  2  0
 13 14  1  0
 14 15  2  0
 15 16  1  0
 16 17  2  0
 17 18  1  0
 18 19  1  0
 18 20  1  0
 18 21  1  0
 17 22  1  0
 22 23  2  0
 23  8  1  0
 23 14  1  0
  1 24  1  0
  1 25  1  0
  1 26  1  0
  3 27  1  0
  3 28  1  0
  4 29  1  0
  4 30  1  0
 11 31  1  0
 13 32  1  0
 15 33  1  0
 16 34  1  0
 22 35  1  0
M  CHG  1  11  -1
M  END
>  <UniqueID>  (83) 
83

>  <SMILES>  (83) 
COCCOC(=O)n1c(C([NH-])=O)cc2ccc(C(F)(F)F)cc21

>  <Energy>  (83) 
73.32318182695124

>  <Genealogy>  (83) 
COCCOC(=O)n1c(C([NH-])=O)cc2ccc(C(F)(F)F)cc21 (protonated)
COCCOC(=O)n1c(C([NH-])=O)cc2ccc(C(F)(F)F)cc21 (3D coordinates assigned)
COCCOC(=O)n1c(C([NH-])=O)cc2ccc(C(F)(F)F)cc21 (optimized conformer: 73.32318182695124 kcal/mol)

>  <smiles>  (83) 
COCCOC(=O)n1c(C(N)=O)cc2ccc(C(F)(F)F)cc21

>  <score_type>  (83) 
oracle

>  <origin>  (83) 
adg

>  <m_score__min__energy>  (83) 
-9.4199999999999999

>  <m_primary>  (83) 
energy

$$$$
83:0
     RDKit          3D

 53 55  0  0  0  0  0  0  0  0999 V2000
   -1.2390   26.0050  -28.9640 N   0  0  0  0  0  0  0  0  0  0  0  0
   -1.6750   24.7100  -28.5550 C   0  0  0  0  0  0  0  0  0  0  0  0
   -1.8580   24.4800  -27.3310 O   0  0  0  0  0  0  0  0  0  0  0  0
   -1.8620   23.6450  -29.5630 C   0  0  0  0  0  0  0  0  0  0  0  0
   -0.9440   22.6160  -29.7700 C   0  0  0  0  0  0  0  0  0  0  0  0
   -1.5210   21.7970  -30.7120 C   0  0  0  0  0  0  0  0  0  0  0  0
   -1.0440   20.6240  -31.2900 C   0  0  0  0  0  0  0  0  0  0  0  0
   -1.8460   19.9910  -32.2540 C   0  0  0  0  0  0  0  0  0  0  0  0
   -3.0940   20.5460  -32.6310 C   0  0  0  0  0  0  0  0  0  0  0  0
   -3.9530   19.8420  -33.6500 C   0  0  0  0  0  0  0  0  0  0  0  0
   -3.2600   18.5950  -34.2190 C   0  0  0  0  0  0  0  0  0  0  0  0
   -3.9860   17.3000  -33.8320 C   0  0  0  0  0  0  0  0  0  0  0  0
   -5.4260   17.3750  -34.2270 C   0  0  0  0  0  0  0  0  0  0  0  0
   -5.7590   17.9810  -35.2820 O   0  0  0  0  0  0  0  0  0  0  0  0
   -6.3850   16.7340  -33.4380 O   0  0  0  0  0  0  0  0  0  0  0  0
   -7.3140   17.4450  -32.6260 C   0  0  0  0  0  0  0  0  0  0  0  0
   -6.6440   18.6820  -32.0110 C   0  0  0  0  0  0  0  0  0  0  0  0
   -7.4130   19.9310  -32.2350 N   0  0  0  0  0  0  0  0  0  0  0  0
   -8.7530   19.8740  -31.5980 C   0  0  0  0  0  0  0  0  0  0  0  0
   -9.3660   21.2790  -31.4240 C   0  0  0  0  0  0  0  0  0  0  0  0
   -8.7730   22.1940  -32.3200 O   0  0  0  0  0  0  0  0  0  0  0  0
   -7.4190   22.4070  -31.9610 C   0  0  0  0  0  0  0  0  0  0  0  0
   -6.6500   21.0860  -31.7210 C   0  0  0  0  0  0  0  0  0  0  0  0
   -3.5460   21.7370  -32.0220 C   0  0  0  0  0  0  0  0  0  0  0  0
   -2.7370   22.3350  -31.0480 C   0  0  0  0  0  0  0  0  0  0  0  0
   -2.9610   23.4720  -30.3520 N   0  0  0  0  0  0  0  0  0  0  0  0
   -4.1030   24.3340  -30.4790 C   0  0  0  0  0  0  0  0  0  0  0  0
   -5.2630   23.8930  -30.2660 O   0  0  0  0  0  0  0  0  0  0  0  0
   -3.9360   25.6720  -30.8180 O   0  0  0  0  0  0  0  0  0  0  0  0
   -1.0900   26.2260  -29.9740 H   0  0  0  0  0  0  0  0  0  0  0  0
    0.0339   22.4868  -29.2832 H   0  0  0  0  0  0  0  0  0  0  0  0
   -0.0687   20.2055  -31.0007 H   0  0  0  0  0  0  0  0  0  0  0  0
   -1.5021   19.0560  -32.7204 H   0  0  0  0  0  0  0  0  0  0  0  0
   -4.8956   19.5379  -33.1715 H   0  0  0  0  0  0  0  0  0  0  0  0
   -4.1372   20.5390  -34.4809 H   0  0  0  0  0  0  0  0  0  0  0  0
   -3.2356   18.6730  -35.3160 H   0  0  0  0  0  0  0  0  0  0  0  0
   -2.2449   18.5514  -33.7976 H   0  0  0  0  0  0  0  0  0  0  0  0
   -3.5123   16.4508  -34.3463 H   0  0  0  0  0  0  0  0  0  0  0  0
   -3.9203   17.1647  -32.7423 H   0  0  0  0  0  0  0  0  0  0  0  0
   -8.1669   17.7632  -33.2435 H   0  0  0  0  0  0  0  0  0  0  0  0
   -7.6609   16.7856  -31.8168 H   0  0  0  0  0  0  0  0  0  0  0  0
   -6.5422   18.5229  -30.9273 H   0  0  0  0  0  0  0  0  0  0  0  0
   -5.6675   18.8050  -32.5022 H   0  0  0  0  0  0  0  0  0  0  0  0
   -7.5360   20.0660  -33.2670 H   0  0  0  0  0  0  0  0  0  0  0  0
   -9.4215   19.2697  -32.2288 H   0  0  0  0  0  0  0  0  0  0  0  0
   -8.6379   19.4257  -30.6001 H   0  0  0  0  0  0  0  0  0  0  0  0
  -10.4470   21.2288  -31.6213 H   0  0  0  0  0  0  0  0  0  0  0  0
   -9.1826   21.6210  -30.3947 H   0  0  0  0  0  0  0  0  0  0  0  0
   -6.9229   22.9607  -32.7717 H   0  0  0  0  0  0  0  0  0  0  0  0
   -7.4104   22.9726  -31.0176 H   0  0  0  0  0  0  0  0  0  0  0  0
   -5.6799   21.1352  -32.2372 H   0  0  0  0  0  0  0  0  0  0  0  0
   -6.5033   20.9565  -30.6385 H   0  0  0  0  0  0  0  0  0  0  0  0
   -4.5101   22.1842  -32.3058 H   0  0  0  0  0  0  0  0  0  0  0  0
  1  2  1  0
  2  3  2  0
  2  4  1  0
  4  5  2  0
  5  6  1  0
  6  7  2  0
  7  8  1  0
  8  9  2  0
  9 10  1  0
 10 11  1  0
 11 12  1  0
 12 13  1  0
 13 14  2  0
 13 15  1  0
 15 16  1  0
 16 17  1  0
 17 18  1  0
 18 19  1  0
 19 20  1  0
 20 21  1  0
 21 22  1  0
 22 23  1  0
  9 24  1  0
 24 25  2  0
 25 26  1  0
 26 27  1  0
 27 28  2  0
 27 29  1  0
 26  4  1  0
 25  6  1  0
 23 18  1  0
  1 30  1  0
  5 31  1  0
  7 32  1  0
  8 33  1  0
 10 34  1  0
 10 35  1  0
 11 36  1  0
 11 37  1  0
 12 38  1  0
 12 39  1  0
 16 40  1  0
 16 41  1  0
 17 42  1  0
 17 43  1  0
 18 44  1  0
 19 45  1  0
 19 46  1  0
 20 47  1  0
 20 48  1  0
 22 49  1  0
 22 50  1  0
 23 51  1  0
 23 52  1  0
 24 53  1  0
M  CHG  3   1  -1  18   1  29  -1
M  END
>  <UniqueID>  (84) 
84

>  <SMILES>  (84) 
[NH-]C(=O)c1cc2ccc(CCCC(=O)OCC[NH+]3CCOCC3)cc2n1C(=O)[O-]

>  <Energy>  (84) 
94.07951360088839

>  <Genealogy>  (84) 
[NH-]C(=O)c1cc2ccc(CCCC(=O)OCC[NH+]3CCOCC3)cc2n1C(=O)[O-] (protonated)
[NH-]C(=O)c1cc2ccc(CCCC(=O)OCC[NH+]3CCOCC3)cc2n1C(=O)[O-] (3D coordinates assigned)
[NH-]C(=O)c1cc2ccc(CCCC(=O)OCC[NH+]3CCOCC3)cc2n1C(=O)[O-] (nonaromatic ring conformer: 94.07951360088839 kcal/mol)

>  <smiles>  (84) 
NC(=O)c1cc2ccc(CCCC(=O)OCCN3CCOCC3)cc2n1C(=O)O

>  <score_type>  (84) 
oracle

>  <origin>  (84) 
adg

>  <m_score__min__energy>  (84) 
-10.93

>  <m_primary>  (84) 
energy

$$$$
84:0
     RDKit          3D

 50 51  0  0  0  0  0  0  0  0999 V2000
   -2.6800   24.8840  -27.6710 C   0  0  0  0  0  0  0  0  0  0  0  0
   -1.8740   25.0970  -28.8240 O   0  0  0  0  0  0  0  0  0  0  0  0
   -0.9650   24.1440  -29.2920 C   0  0  0  0  0  0  0  0  0  0  0  0
    0.2580   24.2190  -28.9920 O   0  0  0  0  0  0  0  0  0  0  0  0
   -1.4570   22.9970  -30.1080 C   0  0  0  0  0  0  0  0  0  0  0  0
   -2.8780   23.0300  -30.1480 O   0  0  0  0  0  0  0  0  0  0  0  0
   -3.6120   22.6590  -31.2780 C   0  0  0  0  0  0  0  0  0  0  0  0
   -3.0320   22.1410  -32.2720 O   0  0  0  0  0  0  0  0  0  0  0  0
   -5.0360   22.8430  -31.2950 N   0  0  0  0  0  0  0  0  0  0  0  0
   -5.7380   23.9800  -31.0230 C   0  0  0  0  0  0  0  0  0  0  0  0
   -5.1820   25.2390  -30.4860 C   0  0  0  0  0  0  0  0  0  0  0  0
   -3.8720   25.6740  -30.8420 N   0  0  0  0  0  0  0  0  0  0  0  0
   -5.8530   25.9160  -29.6610 O   0  0  0  0  0  0  0  0  0  0  0  0
   -7.0990   23.7790  -31.2440 C   0  0  0  0  0  0  0  0  0  0  0  0
   -7.2130   22.4700  -31.6520 C   0  0  0  0  0  0  0  0  0  0  0  0
   -8.3430   21.7410  -32.0180 C   0  0  0  0  0  0  0  0  0  0  0  0
   -8.1610   20.4100  -32.4300 C   0  0  0  0  0  0  0  0  0  0  0  0
   -6.8660   19.8440  -32.4730 C   0  0  0  0  0  0  0  0  0  0  0  0
   -6.6910   18.4920  -32.9300 C   0  0  0  0  0  0  0  0  0  0  0  0
   -6.5490   17.3670  -33.3350 C   0  0  0  0  0  0  0  0  0  0  0  0
   -6.3440   16.0020  -33.8340 C   0  0  0  0  0  0  0  0  0  0  0  0
   -4.9960   15.8730  -34.5510 C   0  0  0  0  0  0  0  0  0  0  0  0
   -3.8790   15.9390  -33.5960 N   0  0  0  0  0  0  0  0  0  0  0  0
   -3.6350   14.8160  -32.6880 C   0  0  0  0  0  0  0  0  0  0  0  0
   -3.0760   17.1310  -33.4840 C   0  0  0  0  0  0  0  0  0  0  0  0
   -1.9930   17.1030  -32.8380 O   0  0  0  0  0  0  0  0  0  0  0  0
   -3.5010   18.3220  -34.0850 O   0  0  0  0  0  0  0  0  0  0  0  0
   -2.8740   19.5740  -33.8400 C   0  0  0  0  0  0  0  0  0  0  0  0
   -5.7430   20.6090  -32.1000 C   0  0  0  0  0  0  0  0  0  0  0  0
   -5.9540   21.9270  -31.6740 C   0  0  0  0  0  0  0  0  0  0  0  0
   -2.0752   25.0438  -26.7662 H   0  0  0  0  0  0  0  0  0  0  0  0
   -3.5234   25.5901  -27.6777 H   0  0  0  0  0  0  0  0  0  0  0  0
   -3.0645   23.8534  -27.6777 H   0  0  0  0  0  0  0  0  0  0  0  0
   -1.0579   23.0741  -31.1301 H   0  0  0  0  0  0  0  0  0  0  0  0
   -1.1208   22.0511  -29.6582 H   0  0  0  0  0  0  0  0  0  0  0  0
   -3.0250   25.1870  -30.4720 H   0  0  0  0  0  0  0  0  0  0  0  0
   -7.9101   24.5114  -31.1188 H   0  0  0  0  0  0  0  0  0  0  0  0
   -9.3453   22.1931  -31.9854 H   0  0  0  0  0  0  0  0  0  0  0  0
   -9.0319   19.8043  -32.7210 H   0  0  0  0  0  0  0  0  0  0  0  0
   -6.3681   15.3021  -32.9858 H   0  0  0  0  0  0  0  0  0  0  0  0
   -7.1447   15.7684  -34.5511 H   0  0  0  0  0  0  0  0  0  0  0  0
   -4.9608   14.9085  -35.0787 H   0  0  0  0  0  0  0  0  0  0  0  0
   -4.8974   16.7068  -35.2617 H   0  0  0  0  0  0  0  0  0  0  0  0
   -3.7104   15.1632  -31.6469 H   0  0  0  0  0  0  0  0  0  0  0  0
   -4.3833   14.0300  -32.8676 H   0  0  0  0  0  0  0  0  0  0  0  0
   -2.6280   14.4114  -32.8676 H   0  0  0  0  0  0  0  0  0  0  0  0
   -2.7923   19.7371  -32.7552 H   0  0  0  0  0  0  0  0  0  0  0  0
   -1.8692   19.5747  -34.2876 H   0  0  0  0  0  0  0  0  0  0  0  0
   -3.4753   20.3790  -34.2876 H   0  0  0  0  0  0  0  0  0  0  0  0
   -4.7295   20.1835  -32.1421 H   0  0  0  0  0  0  0  0  0  0  0  0
  1  2  1  0
  2  3  1  0
  3  4  2  0
  3  5  1  0
  5  6  1  0
  6  7  1  0
  7  8  2  0
  7  9  1  0
  9 10  1  0
 10 11  1  0
 11 12  1  0
 11 13  2  0
 10 14  2  0
 14 15  1  0
 15 16  2  0
 16 17  1  0
 17 18  2  0
 18 19  1  0
 19 20  3  0
 20 21  1  0
 21 22  1  0
 22 23  1  0
 23 24  1  0
 23 25  1  0
 25 26  2  0
 25 27  1  0
 27 28  1  0
 18 29  1  0
 29 30  2  0
 30  9  1  0
 30 15  1  0
  1 31  1  0
  1 32  1  0
  1 33  1  0
  5 34  1  0
  5 35  1  0
 12 36  1  0
 14 37  1  0
 16 38  1  0
 17 39  1  0
 21 40  1  0
 21 41  1  0
 22 42  1  0
 22 43  1  0
 24 44  1  0
 24 45  1  0
 24 46  1  0
 28 47  1  0
 28 48  1  0
 28 49  1  0
 29 50  1  0
M  CHG  1  12  -1
M  END
>  <UniqueID>  (85) 
85

>  <SMILES>  (85) 
COC(=O)COC(=O)n1c(C([NH-])=O)cc2ccc(C#CCCN(C)C(=O)OC)cc21

>  <Energy>  (85) 
70.55874850660581

>  <Genealogy>  (85) 
COC(=O)COC(=O)n1c(C([NH-])=O)cc2ccc(C#CCCN(C)C(=O)OC)cc21 (protonated)
COC(=O)COC(=O)n1c(C([NH-])=O)cc2ccc(C#CCCN(C)C(=O)OC)cc21 (3D coordinates assigned)
COC(=O)COC(=O)n1c(C([NH-])=O)cc2ccc(C#CCCN(C)C(=O)OC)cc21 (optimized conformer: 70.55874850660581 kcal/mol)

>  <smiles>  (85) 
COC(=O)COC(=O)n1c(C(N)=O)cc2ccc(C#CCCN(C)C(=O)OC)cc21

>  <score_type>  (85) 
oracle

>  <origin>  (85) 
adg

>  <m_score__min__energy>  (85) 
-10.529999999999999

>  <m_primary>  (85) 
energy

$$$$
85:0
     RDKit          3D

 32 33  0  0  0  0  0  0  0  0999 V2000
   -3.9210   25.6440  -30.8500 N   0  0  0  0  0  0  0  0  0  0  0  0
   -5.2650   25.3780  -30.4570 C   0  0  0  0  0  0  0  0  0  0  0  0
   -5.8910   26.2360  -29.7800 O   0  0  0  0  0  0  0  0  0  0  0  0
   -5.8920   24.0870  -30.8090 C   0  0  0  0  0  0  0  0  0  0  0  0
   -7.2400   23.9520  -31.1350 C   0  0  0  0  0  0  0  0  0  0  0  0
   -7.4010   22.6290  -31.4790 C   0  0  0  0  0  0  0  0  0  0  0  0
   -8.5410   21.9440  -31.8870 C   0  0  0  0  0  0  0  0  0  0  0  0
   -8.4220   20.5700  -32.1580 C   0  0  0  0  0  0  0  0  0  0  0  0
   -7.1800   19.9030  -31.9940 C   0  0  0  0  0  0  0  0  0  0  0  0
   -7.0570   18.4370  -32.3240 C   0  0  0  0  0  0  0  0  0  0  0  0
   -6.1540   17.8190  -31.4770 F   0  0  0  0  0  0  0  0  0  0  0  0
   -8.2930   17.8330  -32.1810 F   0  0  0  0  0  0  0  0  0  0  0  0
   -6.6190   18.2640  -33.6240 F   0  0  0  0  0  0  0  0  0  0  0  0
   -6.0400   20.6410  -31.6000 C   0  0  0  0  0  0  0  0  0  0  0  0
   -6.1850   22.0120  -31.3530 C   0  0  0  0  0  0  0  0  0  0  0  0
   -5.2460   22.8940  -30.9430 N   0  0  0  0  0  0  0  0  0  0  0  0
   -3.8760   22.5990  -30.6310 C   0  0  0  0  0  0  0  0  0  0  0  0
   -2.9600   22.9590  -31.4210 O   0  0  0  0  0  0  0  0  0  0  0  0
   -3.5640   21.8940  -29.4630 O   0  0  0  0  0  0  0  0  0  0  0  0
   -3.0160   22.5090  -28.3000 C   0  0  0  0  0  0  0  0  0  0  0  0
   -3.2830   23.9820  -28.3140 C   0  0  0  0  0  0  0  0  0  0  0  0
   -4.5800   24.4820  -27.9910 N   0  0  0  0  0  0  0  0  0  0  0  0
   -2.3570   24.7860  -28.6030 O   0  0  0  0  0  0  0  0  0  0  0  0
   -3.1470   24.9940  -30.5890 H   0  0  0  0  0  0  0  0  0  0  0  0
   -8.0114   24.7360  -31.1205 H   0  0  0  0  0  0  0  0  0  0  0  0
   -9.5056   22.4617  -31.9942 H   0  0  0  0  0  0  0  0  0  0  0  0
   -9.3014   20.0052  -32.5011 H   0  0  0  0  0  0  0  0  0  0  0  0
   -5.0620   20.1497  -31.4900 H   0  0  0  0  0  0  0  0  0  0  0  0
   -3.4761   22.0657  -27.4046 H   0  0  0  0  0  0  0  0  0  0  0  0
   -1.9286   22.3434  -28.2874 H   0  0  0  0  0  0  0  0  0  0  0  0
   -4.7660   25.5090  -27.9950 H   0  0  0  0  0  0  0  0  0  0  0  0
   -5.3550   23.8270  -27.7430 H   0  0  0  0  0  0  0  0  0  0  0  0
  1  2  1  0
  2  3  2  0
  2  4  1  0
  4  5  2  0
  5  6  1  0
  6  7  2  0
  7  8  1  0
  8  9  2  0
  9 10  1  0
 10 11  1  0
 10 12  1  0
 10 13  1  0
  9 14  1  0
 14 15  2  0
 15 16  1  0
 16 17  1  0
 17 18  2  0
 17 19  1  0
 19 20  1  0
 20 21  1  0
 21 22  1  0
 21 23  2  0
 16  4  1  0
 15  6  1  0
  1 24  1  0
  5 25  1  0
  7 26  1  0
  8 27  1  0
 14 28  1  0
 20 29  1  0
 20 30  1  0
 22 31  1  0
 22 32  1  0
M  CHG  1   1  -1
M  END
>  <UniqueID>  (86) 
86

>  <SMILES>  (86) 
[NH-]C(=O)c1cc2ccc(C(F)(F)F)cc2n1C(=O)OCC(N)=O

>  <Energy>  (86) 
67.8728081727773

>  <Genealogy>  (86) 
[NH-]C(=O)c1cc2ccc(C(F)(F)F)cc2n1C(=O)OCC(N)=O (protonated)
[NH-]C(=O)c1cc2ccc(C(F)(F)F)cc2n1C(=O)OCC(N)=O (3D coordinates assigned)
[NH-]C(=O)c1cc2ccc(C(F)(F)F)cc2n1C(=O)OCC(N)=O (optimized conformer: 67.8728081727773 kcal/mol)

>  <smiles>  (86) 
NC(=O)COC(=O)n1c(C(N)=O)cc2ccc(C(F)(F)F)cc21

>  <score_type>  (86) 
oracle

>  <origin>  (86) 
adg

>  <m_score__min__energy>  (86) 
-9.8200000000000003

>  <m_primary>  (86) 
energy

$$$$
86:0
     RDKit          3D

 26 27  0  0  0  0  0  0  0  0999 V2000
   -3.7490   25.2970  -30.4710 N   0  0  0  0  0  0  0  0  0  0  0  0
   -4.0120   23.9460  -30.8380 C   0  0  0  0  0  0  0  0  0  0  0  0
   -5.0820   23.6680  -31.4420 O   0  0  0  0  0  0  0  0  0  0  0  0
   -3.0300   22.8760  -30.5570 C   0  0  0  0  0  0  0  0  0  0  0  0
   -2.9050   21.7230  -31.3300 C   0  0  0  0  0  0  0  0  0  0  0  0
   -1.8360   21.0400  -30.7940 C   0  0  0  0  0  0  0  0  0  0  0  0
   -1.2590   19.8320  -31.1760 C   0  0  0  0  0  0  0  0  0  0  0  0
   -0.1620   19.3620  -30.4340 C   0  0  0  0  0  0  0  0  0  0  0  0
    0.3250   20.0910  -29.3170 C   0  0  0  0  0  0  0  0  0  0  0  0
    1.5290   19.5980  -28.5560 C   0  0  0  0  0  0  0  0  0  0  0  0
    1.1380   18.6010  -27.6820 F   0  0  0  0  0  0  0  0  0  0  0  0
    2.4820   19.0890  -29.4230 F   0  0  0  0  0  0  0  0  0  0  0  0
    2.1070   20.6290  -27.8360 F   0  0  0  0  0  0  0  0  0  0  0  0
   -0.2740   21.3260  -28.9770 C   0  0  0  0  0  0  0  0  0  0  0  0
   -1.3570   21.7720  -29.7400 C   0  0  0  0  0  0  0  0  0  0  0  0
   -2.0840   22.8980  -29.5780 N   0  0  0  0  0  0  0  0  0  0  0  0
   -1.9020   23.8720  -28.5390 C   0  0  0  0  0  0  0  0  0  0  0  0
   -2.6190   23.8200  -27.5040 O   0  0  0  0  0  0  0  0  0  0  0  0
   -0.9270   24.9610  -28.6890 C   0  0  0  0  0  0  0  0  0  0  0  0
   -1.2360   26.0120  -29.3100 O   0  0  0  0  0  0  0  0  0  0  0  0
    0.3410   24.8420  -28.1330 O   0  0  0  0  0  0  0  0  0  0  0  0
   -3.3710   25.5340  -29.5270 H   0  0  0  0  0  0  0  0  0  0  0  0
   -3.5275   21.4226  -32.1857 H   0  0  0  0  0  0  0  0  0  0  0  0
   -1.6498   19.2629  -32.0324 H   0  0  0  0  0  0  0  0  0  0  0  0
    0.3250   18.4186  -30.7218 H   0  0  0  0  0  0  0  0  0  0  0  0
    0.1032   21.9214  -28.1325 H   0  0  0  0  0  0  0  0  0  0  0  0
  1  2  1  0
  2  3  2  0
  2  4  1  0
  4  5  2  0
  5  6  1  0
  6  7  2  0
  7  8  1  0
  8  9  2  0
  9 10  1  0
 10 11  1  0
 10 12  1  0
 10 13  1  0
  9 14  1  0
 14 15  2  0
 15 16  1  0
 16 17  1  0
 17 18  2  0
 17 19  1  0
 19 20  2  0
 19 21  1  0
 16  4  1  0
 15  6  1  0
  1 22  1  0
  5 23  1  0
  7 24  1  0
  8 25  1  0
 14 26  1  0
M  CHG  2   1  -1  21  -1
M  END
>  <UniqueID>  (87) 
87

>  <SMILES>  (87) 
[NH-]C(=O)c1cc2ccc(C(F)(F)F)cc2n1C(=O)C(=O)[O-]

>  <Energy>  (87) 
66.97442550100268

>  <Genealogy>  (87) 
[NH-]C(=O)c1cc2ccc(C(F)(F)F)cc2n1C(=O)C(=O)[O-] (protonated)
[NH-]C(=O)c1cc2ccc(C(F)(F)F)cc2n1C(=O)C(=O)[O-] (3D coordinates assigned)
[NH-]C(=O)c1cc2ccc(C(F)(F)F)cc2n1C(=O)C(=O)[O-] (optimized conformer: 66.97442550100268 kcal/mol)

>  <smiles>  (87) 
NC(=O)c1cc2ccc(C(F)(F)F)cc2n1C(=O)C(=O)O

>  <score_type>  (87) 
oracle

>  <origin>  (87) 
adg

>  <m_score__min__energy>  (87) 
-9.6999999999999993

>  <m_primary>  (87) 
energy

$$$$
87:0
     RDKit          3D

 31 32  0  0  0  0  0  0  0  0999 V2000
   -6.8710   16.9730  -33.2640 C   0  0  0  0  0  0  0  0  0  0  0  0
   -6.9960   18.1130  -32.8910 C   0  0  0  0  0  0  0  0  0  0  0  0
   -7.1440   19.4730  -32.4450 C   0  0  0  0  0  0  0  0  0  0  0  0
   -8.4220   20.0810  -32.4490 C   0  0  0  0  0  0  0  0  0  0  0  0
   -8.5790   21.4110  -32.0210 C   0  0  0  0  0  0  0  0  0  0  0  0
   -7.4440   22.0980  -31.5980 C   0  0  0  0  0  0  0  0  0  0  0  0
   -7.3050   23.3910  -31.1420 C   0  0  0  0  0  0  0  0  0  0  0  0
   -5.9460   23.5400  -30.8600 C   0  0  0  0  0  0  0  0  0  0  0  0
   -5.3400   24.7540  -30.2670 C   0  0  0  0  0  0  0  0  0  0  0  0
   -5.8240   25.2890  -29.0340 N   0  0  0  0  0  0  0  0  0  0  0  0
   -4.3760   25.3230  -30.8440 O   0  0  0  0  0  0  0  0  0  0  0  0
   -5.2770   22.3860  -31.1390 N   0  0  0  0  0  0  0  0  0  0  0  0
   -3.8690   22.1330  -31.0200 C   0  0  0  0  0  0  0  0  0  0  0  0
   -3.3240   22.2270  -29.8860 O   0  0  0  0  0  0  0  0  0  0  0  0
   -3.0650   21.7250  -32.2000 C   0  0  0  0  0  0  0  0  0  0  0  0
   -3.5870   21.7800  -33.4300 C   0  0  0  0  0  0  0  0  0  0  0  0
   -1.6690   21.1940  -32.0160 C   0  0  0  0  0  0  0  0  0  0  0  0
   -6.2040   21.5140  -31.5820 C   0  0  0  0  0  0  0  0  0  0  0  0
   -6.0150   20.1960  -32.0100 C   0  0  0  0  0  0  0  0  0  0  0  0
   -6.7570   15.9332  -33.6042 H   0  0  0  0  0  0  0  0  0  0  0  0
   -9.2981   19.5093  -32.7891 H   0  0  0  0  0  0  0  0  0  0  0  0
   -9.5674   21.8937  -32.0203 H   0  0  0  0  0  0  0  0  0  0  0  0
   -8.0969   24.1455  -31.0251 H   0  0  0  0  0  0  0  0  0  0  0  0
   -5.3650   26.1270  -28.6120 H   0  0  0  0  0  0  0  0  0  0  0  0
   -6.6630   24.8910  -28.5570 H   0  0  0  0  0  0  0  0  0  0  0  0
   -2.9834   21.4756  -34.2978 H   0  0  0  0  0  0  0  0  0  0  0  0
   -4.6200   22.1296  -33.5740 H   0  0  0  0  0  0  0  0  0  0  0  0
   -1.4474   21.1097  -30.9419 H   0  0  0  0  0  0  0  0  0  0  0  0
   -1.5889   20.2026  -32.4858 H   0  0  0  0  0  0  0  0  0  0  0  0
   -0.9503   21.8815  -32.4858 H   0  0  0  0  0  0  0  0  0  0  0  0
   -5.0152   19.7374  -32.0072 H   0  0  0  0  0  0  0  0  0  0  0  0
  1  2  3  0
  2  3  1  0
  3  4  2  0
  4  5  1  0
  5  6  2  0
  6  7  1  0
  7  8  2  0
  8  9  1  0
  9 10  1  0
  9 11  2  0
  8 12  1  0
 12 13  1  0
 13 14  2  0
 13 15  1  0
 15 16  2  0
 15 17  1  0
 12 18  1  0
 18 19  2  0
 19  3  1  0
 18  6  1  0
  1 20  1  0
  4 21  1  0
  5 22  1  0
  7 23  1  0
 10 24  1  0
 10 25  1  0
 16 26  1  0
 16 27  1  0
 17 28  1  0
 17 29  1  0
 17 30  1  0
 19 31  1  0
M  END
>  <UniqueID>  (88) 
88

>  <SMILES>  (88) 
C#Cc1ccc2cc(C(N)=O)n(C(=O)C(=C)C)c2c1

>  <Energy>  (88) 
67.87554595904687

>  <Genealogy>  (88) 
C#Cc1ccc2cc(C(N)=O)n(C(=O)C(=C)C)c2c1 (3D coordinates assigned)
C#Cc1ccc2cc(C(N)=O)n(C(=O)C(=C)C)c2c1 (optimized conformer: 67.87554595904687 kcal/mol)

>  <smiles>  (88) 
C#Cc1ccc2cc(C(N)=O)n(C(=O)C(=C)C)c2c1

>  <score_type>  (88) 
oracle

>  <origin>  (88) 
adg

>  <m_score__min__energy>  (88) 
-8.6300000000000008

>  <m_primary>  (88) 
energy

$$$$
88:0
     RDKit          3D

 45 46  0  0  0  0  0  0  0  0999 V2000
   -3.0990   24.5410  -27.2890 C   0  0  0  0  0  0  0  0  0  0  0  0
   -2.1900   24.0000  -28.4100 C   0  0  0  0  0  0  0  0  0  0  0  0
   -0.9000   23.4080  -27.8060 C   0  0  0  0  0  0  0  0  0  0  0  0
   -1.8580   25.0450  -29.2930 O   0  0  0  0  0  0  0  0  0  0  0  0
   -2.9370   22.9230  -29.2190 C   0  0  0  0  0  0  0  0  0  0  0  0
   -2.9670   23.2550  -30.6050 O   0  0  0  0  0  0  0  0  0  0  0  0
   -3.8730   22.6830  -31.5010 C   0  0  0  0  0  0  0  0  0  0  0  0
   -3.4590   21.9980  -32.4770 O   0  0  0  0  0  0  0  0  0  0  0  0
   -5.2810   22.8970  -31.3240 N   0  0  0  0  0  0  0  0  0  0  0  0
   -5.9030   24.0490  -30.9450 C   0  0  0  0  0  0  0  0  0  0  0  0
   -5.2340   25.2690  -30.4510 C   0  0  0  0  0  0  0  0  0  0  0  0
   -3.9270   25.6180  -30.8990 N   0  0  0  0  0  0  0  0  0  0  0  0
   -5.8030   25.9870  -29.5860 O   0  0  0  0  0  0  0  0  0  0  0  0
   -7.2870   23.8980  -30.9970 C   0  0  0  0  0  0  0  0  0  0  0  0
   -7.4970   22.6040  -31.4170 C   0  0  0  0  0  0  0  0  0  0  0  0
   -8.6860   21.9190  -31.6490 C   0  0  0  0  0  0  0  0  0  0  0  0
   -8.6040   20.5930  -32.1040 C   0  0  0  0  0  0  0  0  0  0  0  0
   -7.3450   19.9830  -32.3310 C   0  0  0  0  0  0  0  0  0  0  0  0
   -7.2740   18.5540  -32.8030 C   0  0  0  0  0  0  0  0  0  0  0  0
   -5.8240   18.0740  -32.9610 C   0  0  0  0  0  0  0  0  0  0  0  0
   -5.1850   18.5600  -34.2670 C   0  0  0  0  0  0  0  0  0  0  0  0
   -6.0430   18.3150  -35.3470 O   0  0  0  0  0  0  0  0  0  0  0  0
   -6.1580   20.7090  -32.0810 C   0  0  0  0  0  0  0  0  0  0  0  0
   -6.2700   22.0210  -31.6090 C   0  0  0  0  0  0  0  0  0  0  0  0
   -2.6671   24.2839  -26.3106 H   0  0  0  0  0  0  0  0  0  0  0  0
   -3.1800   25.6344  -27.3782 H   0  0  0  0  0  0  0  0  0  0  0  0
   -4.0987   24.0908  -27.3782 H   0  0  0  0  0  0  0  0  0  0  0  0
   -0.9624   23.4367  -26.7081 H   0  0  0  0  0  0  0  0  0  0  0  0
   -0.7834   22.3663  -28.1396 H   0  0  0  0  0  0  0  0  0  0  0  0
   -0.0342   23.9989  -28.1396 H   0  0  0  0  0  0  0  0  0  0  0  0
   -2.0070   24.7250  -30.2220 H   0  0  0  0  0  0  0  0  0  0  0  0
   -2.4254   21.9576  -29.0912 H   0  0  0  0  0  0  0  0  0  0  0  0
   -3.9717   22.8623  -28.8505 H   0  0  0  0  0  0  0  0  0  0  0  0
   -3.0790   25.2940  -30.3840 H   0  0  0  0  0  0  0  0  0  0  0  0
   -8.0498   24.6524  -30.7541 H   0  0  0  0  0  0  0  0  0  0  0  0
   -9.6602   22.4015  -31.4811 H   0  0  0  0  0  0  0  0  0  0  0  0
   -9.5263   20.0219  -32.2861 H   0  0  0  0  0  0  0  0  0  0  0  0
   -7.7832   17.9116  -32.0695 H   0  0  0  0  0  0  0  0  0  0  0  0
   -7.7613   18.4958  -33.7874 H   0  0  0  0  0  0  0  0  0  0  0  0
   -5.2321   18.4545  -32.1155 H   0  0  0  0  0  0  0  0  0  0  0  0
   -5.8360   16.9743  -32.9831 H   0  0  0  0  0  0  0  0  0  0  0  0
   -4.9900   19.6402  -34.1959 H   0  0  0  0  0  0  0  0  0  0  0  0
   -4.2418   18.0174  -34.4282 H   0  0  0  0  0  0  0  0  0  0  0  0
   -6.7220   19.0400  -35.3400 H   0  0  0  0  0  0  0  0  0  0  0  0
   -5.1715   20.2538  -32.2532 H   0  0  0  0  0  0  0  0  0  0  0  0
  1  2  1  0
  2  3  1  0
  2  4  1  0
  2  5  1  0
  5  6  1  0
  6  7  1  0
  7  8  2  0
  7  9  1  0
  9 10  1  0
 10 11  1  0
 11 12  1  0
 11 13  2  0
 10 14  2  0
 14 15  1  0
 15 16  2  0
 16 17  1  0
 17 18  2  0
 18 19  1  0
 19 20  1  0
 20 21  1  0
 21 22  1  0
 18 23  1  0
 23 24  2  0
 24  9  1  0
 24 15  1  0
  1 25  1  0
  1 26  1  0
  1 27  1  0
  3 28  1  0
  3 29  1  0
  3 30  1  0
  4 31  1  0
  5 32  1  0
  5 33  1  0
 12 34  1  0
 14 35  1  0
 16 36  1  0
 17 37  1  0
 19 38  1  0
 19 39  1  0
 20 40  1  0
 20 41  1  0
 21 42  1  0
 21 43  1  0
 22 44  1  0
 23 45  1  0
M  CHG  1  12  -1
M  END
>  <UniqueID>  (89) 
89

>  <SMILES>  (89) 
CC(C)(O)COC(=O)n1c(C([NH-])=O)cc2ccc(CCCO)cc21

>  <Energy>  (89) 
72.58295636293019

>  <Genealogy>  (89) 
CC(C)(O)COC(=O)n1c(C([NH-])=O)cc2ccc(CCCO)cc21 (protonated)
CC(C)(O)COC(=O)n1c(C([NH-])=O)cc2ccc(CCCO)cc21 (3D coordinates assigned)
CC(C)(O)COC(=O)n1c(C([NH-])=O)cc2ccc(CCCO)cc21 (optimized conformer: 72.58295636293019 kcal/mol)

>  <smiles>  (89) 
CC(C)(O)COC(=O)n1c(C(N)=O)cc2ccc(CCCO)cc21

>  <score_type>  (89) 
oracle

>  <origin>  (89) 
adg

>  <m_score__min__energy>  (89) 
-10.82

>  <m_primary>  (89) 
energy

$$$$
89:0
     RDKit          3D

 38 39  0  0  0  0  0  0  0  0999 V2000
   -5.7330   18.3460  -34.5430 C   0  0  0  0  0  0  0  0  0  0  0  0
   -6.8030   18.2530  -33.4600 C   0  0  0  0  0  0  0  0  0  0  0  0
   -6.9950   19.5840  -32.7850 C   0  0  0  0  0  0  0  0  0  0  0  0
   -8.3010   20.0750  -32.5340 C   0  0  0  0  0  0  0  0  0  0  0  0
   -8.4890   21.3240  -31.9190 C   0  0  0  0  0  0  0  0  0  0  0  0
   -7.3590   22.0680  -31.5920 C   0  0  0  0  0  0  0  0  0  0  0  0
   -7.2520   23.2840  -30.9550 C   0  0  0  0  0  0  0  0  0  0  0  0
   -5.8840   23.5360  -30.8730 C   0  0  0  0  0  0  0  0  0  0  0  0
   -5.3130   24.7550  -30.2620 C   0  0  0  0  0  0  0  0  0  0  0  0
   -5.7400   25.2140  -28.9790 N   0  0  0  0  0  0  0  0  0  0  0  0
   -4.4000   25.3790  -30.8670 O   0  0  0  0  0  0  0  0  0  0  0  0
   -5.1750   22.5190  -31.4340 N   0  0  0  0  0  0  0  0  0  0  0  0
   -3.7480   22.3460  -31.4300 C   0  0  0  0  0  0  0  0  0  0  0  0
   -3.1680   21.9320  -32.4690 O   0  0  0  0  0  0  0  0  0  0  0  0
   -2.9580   22.6280  -30.2210 C   0  0  0  0  0  0  0  0  0  0  0  0
   -3.4520   22.4080  -29.0820 O   0  0  0  0  0  0  0  0  0  0  0  0
   -1.6260   23.1330  -30.3450 N   0  0  0  0  0  0  0  0  0  0  0  0
   -0.7890   23.4870  -29.2040 C   0  0  0  0  0  0  0  0  0  0  0  0
   -1.3090   24.7570  -28.5330 C   0  0  0  0  0  0  0  0  0  0  0  0
   -2.3460   25.2990  -29.3020 O   0  0  0  0  0  0  0  0  0  0  0  0
   -6.0910   21.6230  -31.8620 C   0  0  0  0  0  0  0  0  0  0  0  0
   -5.8720   20.3690  -32.4450 C   0  0  0  0  0  0  0  0  0  0  0  0
   -4.7422   18.4321  -34.0731 H   0  0  0  0  0  0  0  0  0  0  0  0
   -5.7648   17.4417  -35.1685 H   0  0  0  0  0  0  0  0  0  0  0  0
   -5.9204   19.2312  -35.1685 H   0  0  0  0  0  0  0  0  0  0  0  0
   -7.7532   17.9399  -33.9173 H   0  0  0  0  0  0  0  0  0  0  0  0
   -6.4808   17.5184  -32.7073 H   0  0  0  0  0  0  0  0  0  0  0  0
   -9.1748   19.4727  -32.8233 H   0  0  0  0  0  0  0  0  0  0  0  0
   -9.4988   21.7026  -31.7024 H   0  0  0  0  0  0  0  0  0  0  0  0
   -8.0712   23.9204  -30.5891 H   0  0  0  0  0  0  0  0  0  0  0  0
   -5.3650   26.1080  -28.5930 H   0  0  0  0  0  0  0  0  0  0  0  0
   -6.3440   24.6230  -28.3660 H   0  0  0  0  0  0  0  0  0  0  0  0
   -0.8011   22.6621  -28.4764 H   0  0  0  0  0  0  0  0  0  0  0  0
    0.2373   23.6658  -29.5573 H   0  0  0  0  0  0  0  0  0  0  0  0
   -1.6858   24.5133  -27.5287 H   0  0  0  0  0  0  0  0  0  0  0  0
   -0.4922   25.4891  -28.4500 H   0  0  0  0  0  0  0  0  0  0  0  0
   -2.9930   24.5600  -29.4510 H   0  0  0  0  0  0  0  0  0  0  0  0
   -4.8512   20.0049  -32.6332 H   0  0  0  0  0  0  0  0  0  0  0  0
  1  2  1  0
  2  3  1  0
  3  4  2  0
  4  5  1  0
  5  6  2  0
  6  7  1  0
  7  8  2  0
  8  9  1  0
  9 10  1  0
  9 11  2  0
  8 12  1  0
 12 13  1  0
 13 14  2  0
 13 15  1  0
 15 16  2  0
 15 17  1  0
 17 18  1  0
 18 19  1  0
 19 20  1  0
 12 21  1  0
 21 22  2  0
 22  3  1  0
 21  6  1  0
  1 23  1  0
  1 24  1  0
  1 25  1  0
  2 26  1  0
  2 27  1  0
  4 28  1  0
  5 29  1  0
  7 30  1  0
 10 31  1  0
 10 32  1  0
 18 33  1  0
 18 34  1  0
 19 35  1  0
 19 36  1  0
 20 37  1  0
 22 38  1  0
M  CHG  1  17  -1
M  END
>  <UniqueID>  (90) 
90

>  <SMILES>  (90) 
CCc1ccc2cc(C(N)=O)n(C(=O)C(=O)[N-]CCO)c2c1

>  <Energy>  (90) 
69.47310258867331

>  <Genealogy>  (90) 
CCc1ccc2cc(C(N)=O)n(C(=O)C(=O)[N-]CCO)c2c1 (protonated)
CCc1ccc2cc(C(N)=O)n(C(=O)C(=O)[N-]CCO)c2c1 (3D coordinates assigned)
CCc1ccc2cc(C(N)=O)n(C(=O)C(=O)[N-]CCO)c2c1 (optimized conformer: 69.47310258867331 kcal/mol)

>  <smiles>  (90) 
CCc1ccc2cc(C(N)=O)n(C(=O)C(=O)NCCO)c2c1

>  <score_type>  (90) 
oracle

>  <origin>  (90) 
adg

>  <m_score__min__energy>  (90) 
-9.3200000000000003

>  <m_primary>  (90) 
energy

$$$$
90:0
     RDKit          3D

 36 37  0  0  0  0  0  0  0  0999 V2000
   -3.1600   18.7970  -33.8540 C   0  0  0  0  0  0  0  0  0  0  0  0
   -4.2240   17.9260  -34.2190 O   0  0  0  0  0  0  0  0  0  0  0  0
   -5.5560   18.3430  -34.2590 C   0  0  0  0  0  0  0  0  0  0  0  0
   -6.0680   18.7630  -35.3330 O   0  0  0  0  0  0  0  0  0  0  0  0
   -6.3720   18.3210  -33.0060 C   0  0  0  0  0  0  0  0  0  0  0  0
   -6.6190   19.7240  -32.5260 C   0  0  0  0  0  0  0  0  0  0  0  0
   -7.9440   20.2160  -32.4190 C   0  0  0  0  0  0  0  0  0  0  0  0
   -8.1900   21.5120  -31.9370 C   0  0  0  0  0  0  0  0  0  0  0  0
   -7.0960   22.2880  -31.5670 C   0  0  0  0  0  0  0  0  0  0  0  0
   -7.0510   23.5590  -31.0420 C   0  0  0  0  0  0  0  0  0  0  0  0
   -5.6980   23.8290  -30.8420 C   0  0  0  0  0  0  0  0  0  0  0  0
   -5.1930   25.1340  -30.3710 C   0  0  0  0  0  0  0  0  0  0  0  0
   -3.9560   25.6560  -30.8480 N   0  0  0  0  0  0  0  0  0  0  0  0
   -5.8890   25.8220  -29.5770 O   0  0  0  0  0  0  0  0  0  0  0  0
   -4.9370   22.7640  -31.2230 N   0  0  0  0  0  0  0  0  0  0  0  0
   -3.5170   22.6040  -31.0760 C   0  0  0  0  0  0  0  0  0  0  0  0
   -2.8790   21.8750  -31.8840 O   0  0  0  0  0  0  0  0  0  0  0  0
   -2.8530   23.2330  -30.0160 O   0  0  0  0  0  0  0  0  0  0  0  0
   -1.4490   23.1210  -29.7930 C   0  0  0  0  0  0  0  0  0  0  0  0
   -0.9160   24.3740  -29.1770 C   0  0  0  0  0  0  0  0  0  0  0  0
    0.1810   24.3600  -28.5570 O   0  0  0  0  0  0  0  0  0  0  0  0
   -1.6160   25.5660  -29.3090 O   0  0  0  0  0  0  0  0  0  0  0  0
   -5.8070   21.8300  -31.6680 C   0  0  0  0  0  0  0  0  0  0  0  0
   -5.5340   20.5370  -32.1290 C   0  0  0  0  0  0  0  0  0  0  0  0
   -3.0917   18.8529  -32.7576 H   0  0  0  0  0  0  0  0  0  0  0  0
   -2.2139   18.4108  -34.2611 H   0  0  0  0  0  0  0  0  0  0  0  0
   -3.3517   19.8007  -34.2611 H   0  0  0  0  0  0  0  0  0  0  0  0
   -7.3357   17.8305  -33.2079 H   0  0  0  0  0  0  0  0  0  0  0  0
   -5.8250   17.7658  -32.2297 H   0  0  0  0  0  0  0  0  0  0  0  0
   -8.7880   19.5764  -32.7164 H   0  0  0  0  0  0  0  0  0  0  0  0
   -9.2155   21.9014  -31.8546 H   0  0  0  0  0  0  0  0  0  0  0  0
   -7.9021   24.2216  -30.8259 H   0  0  0  0  0  0  0  0  0  0  0  0
   -3.0450   25.3030  -30.4780 H   0  0  0  0  0  0  0  0  0  0  0  0
   -1.2560   22.2748  -29.1172 H   0  0  0  0  0  0  0  0  0  0  0  0
   -0.9471   22.9572  -30.7580 H   0  0  0  0  0  0  0  0  0  0  0  0
   -4.5007   20.1633  -32.1809 H   0  0  0  0  0  0  0  0  0  0  0  0
  1  2  1  0
  2  3  1  0
  3  4  2  0
  3  5  1  0
  5  6  1  0
  6  7  2  0
  7  8  1  0
  8  9  2  0
  9 10  1  0
 10 11  2  0
 11 12  1  0
 12 13  1  0
 12 14  2  0
 11 15  1  0
 15 16  1  0
 16 17  2  0
 16 18  1  0
 18 19  1  0
 19 20  1  0
 20 21  2  0
 20 22  1  0
 15 23  1  0
 23 24  2  0
 24  6  1  0
 23  9  1  0
  1 25  1  0
  1 26  1  0
  1 27  1  0
  5 28  1  0
  5 29  1  0
  7 30  1  0
  8 31  1  0
 10 32  1  0
 13 33  1  0
 19 34  1  0
 19 35  1  0
 24 36  1  0
M  CHG  2  13  -1  22  -1
M  END
>  <UniqueID>  (91) 
91

>  <SMILES>  (91) 
COC(=O)Cc1ccc2cc(C([NH-])=O)n(C(=O)OCC(=O)[O-])c2c1

>  <Energy>  (91) 
68.95476793936976

>  <Genealogy>  (91) 
COC(=O)Cc1ccc2cc(C([NH-])=O)n(C(=O)OCC(=O)[O-])c2c1 (protonated)
COC(=O)Cc1ccc2cc(C([NH-])=O)n(C(=O)OCC(=O)[O-])c2c1 (3D coordinates assigned)
COC(=O)Cc1ccc2cc(C([NH-])=O)n(C(=O)OCC(=O)[O-])c2c1 (optimized conformer: 68.95476793936976 kcal/mol)

>  <smiles>  (91) 
COC(=O)Cc1ccc2cc(C(N)=O)n(C(=O)OCC(=O)O)c2c1

>  <score_type>  (91) 
oracle

>  <origin>  (91) 
adg

>  <m_score__min__energy>  (91) 
-12.08

>  <m_primary>  (91) 
energy

$$$$
91:0
     RDKit          3D

 39 40  0  0  0  0  0  0  0  0999 V2000
   -2.9960   19.3810  -33.6390 C   0  0  0  0  0  0  0  0  0  0  0  0
   -3.8250   18.6670  -34.5480 O   0  0  0  0  0  0  0  0  0  0  0  0
   -5.1840   18.4440  -34.3110 C   0  0  0  0  0  0  0  0  0  0  0  0
   -6.0280   18.5610  -35.2410 O   0  0  0  0  0  0  0  0  0  0  0  0
   -5.6450   18.1120  -32.9260 C   0  0  0  0  0  0  0  0  0  0  0  0
   -7.1040   18.5300  -32.7040 C   0  0  0  0  0  0  0  0  0  0  0  0
   -7.2060   19.9350  -32.1640 C   0  0  0  0  0  0  0  0  0  0  0  0
   -8.4760   20.5100  -31.9120 C   0  0  0  0  0  0  0  0  0  0  0  0
   -8.5850   21.8360  -31.4620 C   0  0  0  0  0  0  0  0  0  0  0  0
   -7.4110   22.5580  -31.2730 C   0  0  0  0  0  0  0  0  0  0  0  0
   -7.2290   23.8640  -30.8790 C   0  0  0  0  0  0  0  0  0  0  0  0
   -5.8500   24.0620  -30.8800 C   0  0  0  0  0  0  0  0  0  0  0  0
   -5.2100   25.3190  -30.4360 C   0  0  0  0  0  0  0  0  0  0  0  0
   -3.8890   25.6550  -30.8520 N   0  0  0  0  0  0  0  0  0  0  0  0
   -5.8170   26.0800  -29.6370 O   0  0  0  0  0  0  0  0  0  0  0  0
   -5.2030   22.9270  -31.2680 N   0  0  0  0  0  0  0  0  0  0  0  0
   -3.7960   22.7530  -31.4940 C   0  0  0  0  0  0  0  0  0  0  0  0
   -3.3940   22.2490  -32.5780 O   0  0  0  0  0  0  0  0  0  0  0  0
   -2.8840   23.1710  -30.5150 O   0  0  0  0  0  0  0  0  0  0  0  0
   -3.1400   23.2050  -29.1380 C   0  0  0  0  0  0  0  0  0  0  0  0
   -3.1380   24.2930  -28.5000 O   0  0  0  0  0  0  0  0  0  0  0  0
   -3.3520   21.9210  -28.4020 C   0  0  0  0  0  0  0  0  0  0  0  0
   -3.4910   20.8890  -29.3110 F   0  0  0  0  0  0  0  0  0  0  0  0
   -2.2710   21.6620  -27.5790 F   0  0  0  0  0  0  0  0  0  0  0  0
   -4.4960   22.0030  -27.6290 F   0  0  0  0  0  0  0  0  0  0  0  0
   -6.1730   22.0140  -31.5010 C   0  0  0  0  0  0  0  0  0  0  0  0
   -6.0370   20.7010  -31.9670 C   0  0  0  0  0  0  0  0  0  0  0  0
   -3.2845   19.1325  -32.6070 H   0  0  0  0  0  0  0  0  0  0  0  0
   -1.9451   19.1008  -33.8035 H   0  0  0  0  0  0  0  0  0  0  0  0
   -3.1173   20.4618  -33.8035 H   0  0  0  0  0  0  0  0  0  0  0  0
   -5.5565   17.0267  -32.7703 H   0  0  0  0  0  0  0  0  0  0  0  0
   -5.0156   18.6627  -32.2114 H   0  0  0  0  0  0  0  0  0  0  0  0
   -7.6399   18.4770  -33.6632 H   0  0  0  0  0  0  0  0  0  0  0  0
   -7.5481   17.8459  -31.9659 H   0  0  0  0  0  0  0  0  0  0  0  0
   -9.3856   19.9121  -32.0703 H   0  0  0  0  0  0  0  0  0  0  0  0
   -9.5677   22.2893  -31.2652 H   0  0  0  0  0  0  0  0  0  0  0  0
   -8.0074   24.5963  -30.6185 H   0  0  0  0  0  0  0  0  0  0  0  0
   -3.0550   25.2990  -30.3340 H   0  0  0  0  0  0  0  0  0  0  0  0
   -5.0436   20.2767  -32.1745 H   0  0  0  0  0  0  0  0  0  0  0  0
  1  2  1  0
  2  3  1  0
  3  4  2  0
  3  5  1  0
  5  6  1  0
  6  7  1  0
  7  8  2  0
  8  9  1  0
  9 10  2  0
 10 11  1  0
 11 12  2  0
 12 13  1  0
 13 14  1  0
 13 15  2  0
 12 16  1  0
 16 17  1  0
 17 18  2  0
 17 19  1  0
 19 20  1  0
 20 21  2  0
 20 22  1  0
 22 23  1  0
 22 24  1  0
 22 25  1  0
 16 26  1  0
 26 27  2  0
 27  7  1  0
 26 10  1  0
  1 28  1  0
  1 29  1  0
  1 30  1  0
  5 31  1  0
  5 32  1  0
  6 33  1  0
  6 34  1  0
  8 35  1  0
  9 36  1  0
 11 37  1  0
 14 38  1  0
 27 39  1  0
M  CHG  1  14  -1
M  END
>  <UniqueID>  (92) 
92

>  <SMILES>  (92) 
COC(=O)CCc1ccc2cc(C([NH-])=O)n(C(=O)OC(=O)C(F)(F)F)c2c1

>  <Energy>  (92) 
71.4194685964144

>  <Genealogy>  (92) 
COC(=O)CCc1ccc2cc(C([NH-])=O)n(C(=O)OC(=O)C(F)(F)F)c2c1 (protonated)
COC(=O)CCc1ccc2cc(C([NH-])=O)n(C(=O)OC(=O)C(F)(F)F)c2c1 (3D coordinates assigned)
COC(=O)CCc1ccc2cc(C([NH-])=O)n(C(=O)OC(=O)C(F)(F)F)c2c1 (optimized conformer: 71.4194685964144 kcal/mol)

>  <smiles>  (92) 
COC(=O)CCc1ccc2cc(C(N)=O)n(C(=O)OC(=O)C(F)(F)F)c2c1

>  <score_type>  (92) 
oracle

>  <origin>  (92) 
adg

>  <m_score__min__energy>  (92) 
-9.7599999999999998

>  <m_primary>  (92) 
energy

$$$$
92:0
     RDKit          3D

 40 41  0  0  0  0  0  0  0  0999 V2000
   -8.2740   22.5340  -31.5960 C   0  0  0  0  0  0  0  0  0  0  0  0
   -8.3610   21.1420  -31.3810 O   0  0  0  0  0  0  0  0  0  0  0  0
   -9.2950   20.5620  -32.2720 C   0  0  0  0  0  0  0  0  0  0  0  0
   -9.0660   19.0490  -32.3550 C   0  0  0  0  0  0  0  0  0  0  0  0
   -7.7570   18.6320  -31.6770 C   0  0  0  0  0  0  0  0  0  0  0  0
   -6.8360   18.1070  -32.6320 O   0  0  0  0  0  0  0  0  0  0  0  0
   -6.0860   18.9110  -33.4960 C   0  0  0  0  0  0  0  0  0  0  0  0
   -5.3720   18.3980  -34.4000 O   0  0  0  0  0  0  0  0  0  0  0  0
   -6.0750   20.3910  -33.2940 C   0  0  0  0  0  0  0  0  0  0  0  0
   -4.7740   20.7960  -32.6600 C   0  0  0  0  0  0  0  0  0  0  0  0
   -3.6460   19.9420  -32.7430 C   0  0  0  0  0  0  0  0  0  0  0  0
   -2.4430   20.2830  -32.1020 C   0  0  0  0  0  0  0  0  0  0  0  0
   -2.4060   21.4670  -31.3730 C   0  0  0  0  0  0  0  0  0  0  0  0
   -1.3770   22.0310  -30.6530 C   0  0  0  0  0  0  0  0  0  0  0  0
   -1.9040   23.2000  -30.1090 C   0  0  0  0  0  0  0  0  0  0  0  0
   -1.1560   24.0660  -29.1740 C   0  0  0  0  0  0  0  0  0  0  0  0
   -1.3670   25.4750  -29.1490 N   0  0  0  0  0  0  0  0  0  0  0  0
   -0.3550   23.5480  -28.3500 O   0  0  0  0  0  0  0  0  0  0  0  0
   -3.2050   23.3600  -30.4860 N   0  0  0  0  0  0  0  0  0  0  0  0
   -4.0830   24.4570  -30.1860 C   0  0  0  0  0  0  0  0  0  0  0  0
   -5.0020   24.3210  -29.3370 O   0  0  0  0  0  0  0  0  0  0  0  0
   -3.9120   25.6840  -30.8140 O   0  0  0  0  0  0  0  0  0  0  0  0
   -3.4960   22.2900  -31.2590 C   0  0  0  0  0  0  0  0  0  0  0  0
   -4.6990   21.9890  -31.9070 C   0  0  0  0  0  0  0  0  0  0  0  0
   -8.2415   23.0534  -30.6269 H   0  0  0  0  0  0  0  0  0  0  0  0
   -7.3599   22.7608  -32.1644 H   0  0  0  0  0  0  0  0  0  0  0  0
   -9.1527   22.8729  -32.1644 H   0  0  0  0  0  0  0  0  0  0  0  0
  -10.3150   20.7572  -31.9093 H   0  0  0  0  0  0  0  0  0  0  0  0
   -9.1650   21.0035  -33.2711 H   0  0  0  0  0  0  0  0  0  0  0  0
   -9.9028   18.5348  -31.8596 H   0  0  0  0  0  0  0  0  0  0  0  0
   -9.0035   18.7711  -33.4175 H   0  0  0  0  0  0  0  0  0  0  0  0
   -7.3086   19.5096  -31.1883 H   0  0  0  0  0  0  0  0  0  0  0  0
   -7.9780   17.8511  -30.9344 H   0  0  0  0  0  0  0  0  0  0  0  0
   -6.1830   20.8953  -34.2656 H   0  0  0  0  0  0  0  0  0  0  0  0
   -6.9100   20.6797  -32.6386 H   0  0  0  0  0  0  0  0  0  0  0  0
   -3.7128   19.0042  -33.3141 H   0  0  0  0  0  0  0  0  0  0  0  0
   -1.5580   19.6338  -32.1745 H   0  0  0  0  0  0  0  0  0  0  0  0
   -0.3554   21.6412  -30.5328 H   0  0  0  0  0  0  0  0  0  0  0  0
   -1.2160   26.0560  -30.0030 H   0  0  0  0  0  0  0  0  0  0  0  0
   -5.5643   22.6640  -31.8321 H   0  0  0  0  0  0  0  0  0  0  0  0
  1  2  1  0
  2  3  1  0
  3  4  1  0
  4  5  1  0
  5  6  1  0
  6  7  1  0
  7  8  2  0
  7  9  1  0
  9 10  1  0
 10 11  2  0
 11 12  1  0
 12 13  2  0
 13 14  1  0
 14 15  2  0
 15 16  1  0
 16 17  1  0
 16 18  2  0
 15 19  1  0
 19 20  1  0
 20 21  2  0
 20 22  1  0
 19 23  1  0
 23 24  2  0
 24 10  1  0
 23 13  1  0
  1 25  1  0
  1 26  1  0
  1 27  1  0
  3 28  1  0
  3 29  1  0
  4 30  1  0
  4 31  1  0
  5 32  1  0
  5 33  1  0
  9 34  1  0
  9 35  1  0
 11 36  1  0
 12 37  1  0
 14 38  1  0
 17 39  1  0
 24 40  1  0
M  CHG  2  17  -1  22  -1
M  END
>  <UniqueID>  (93) 
93

>  <SMILES>  (93) 
COCCCOC(=O)Cc1ccc2cc(C([NH-])=O)n(C(=O)[O-])c2c1

>  <Energy>  (93) 
70.90526473191595

>  <Genealogy>  (93) 
COCCCOC(=O)Cc1ccc2cc(C([NH-])=O)n(C(=O)[O-])c2c1 (protonated)
COCCCOC(=O)Cc1ccc2cc(C([NH-])=O)n(C(=O)[O-])c2c1 (3D coordinates assigned)
COCCCOC(=O)Cc1ccc2cc(C([NH-])=O)n(C(=O)[O-])c2c1 (optimized conformer: 70.90526473191595 kcal/mol)

>  <smiles>  (93) 
COCCCOC(=O)Cc1ccc2cc(C(N)=O)n(C(=O)O)c2c1

>  <score_type>  (93) 
oracle

>  <origin>  (93) 
adg

>  <m_score__min__energy>  (93) 
-10.699999999999999

>  <m_primary>  (93) 
energy

$$$$
93:0
     RDKit          3D

 34 35  0  0  0  0  0  0  0  0999 V2000
   -4.1310   24.1990  -27.4850 C   0  0  0  0  0  0  0  0  0  0  0  0
   -3.0540   24.5640  -28.3400 O   0  0  0  0  0  0  0  0  0  0  0  0
   -2.2550   23.6180  -28.9900 C   0  0  0  0  0  0  0  0  0  0  0  0
   -1.2770   23.9810  -29.6990 O   0  0  0  0  0  0  0  0  0  0  0  0
   -2.5480   22.1620  -28.8140 C   0  0  0  0  0  0  0  0  0  0  0  0
   -3.4570   21.7120  -29.8150 O   0  0  0  0  0  0  0  0  0  0  0  0
   -3.8800   22.5120  -30.8840 C   0  0  0  0  0  0  0  0  0  0  0  0
   -3.0450   22.9490  -31.7230 O   0  0  0  0  0  0  0  0  0  0  0  0
   -5.2740   22.8200  -31.0340 N   0  0  0  0  0  0  0  0  0  0  0  0
   -5.8780   24.0380  -30.9290 C   0  0  0  0  0  0  0  0  0  0  0  0
   -5.2280   25.2950  -30.5000 C   0  0  0  0  0  0  0  0  0  0  0  0
   -3.8660   25.5400  -30.8390 N   0  0  0  0  0  0  0  0  0  0  0  0
   -5.8730   26.1710  -29.8660 O   0  0  0  0  0  0  0  0  0  0  0  0
   -7.2410   23.9320  -31.2000 C   0  0  0  0  0  0  0  0  0  0  0  0
   -7.4570   22.6000  -31.4680 C   0  0  0  0  0  0  0  0  0  0  0  0
   -8.6320   21.9310  -31.7940 C   0  0  0  0  0  0  0  0  0  0  0  0
   -8.5590   20.5490  -32.0360 C   0  0  0  0  0  0  0  0  0  0  0  0
   -7.3170   19.8650  -31.9710 C   0  0  0  0  0  0  0  0  0  0  0  0
   -7.2580   18.3750  -32.1940 C   0  0  0  0  0  0  0  0  0  0  0  0
   -6.8540   18.0900  -33.4850 F   0  0  0  0  0  0  0  0  0  0  0  0
   -8.5010   17.8010  -31.9920 F   0  0  0  0  0  0  0  0  0  0  0  0
   -6.3570   17.8190  -31.3050 F   0  0  0  0  0  0  0  0  0  0  0  0
   -6.1490   20.5770  -31.6120 C   0  0  0  0  0  0  0  0  0  0  0  0
   -6.2540   21.9500  -31.3610 C   0  0  0  0  0  0  0  0  0  0  0  0
   -3.8183   24.3050  -26.4357 H   0  0  0  0  0  0  0  0  0  0  0  0
   -4.9920   24.8555  -27.6791 H   0  0  0  0  0  0  0  0  0  0  0  0
   -4.4154   23.1543  -27.6791 H   0  0  0  0  0  0  0  0  0  0  0  0
   -1.6107   21.5918  -28.8933 H   0  0  0  0  0  0  0  0  0  0  0  0
   -3.0029   22.0074  -27.8245 H   0  0  0  0  0  0  0  0  0  0  0  0
   -3.1110   24.8820  -30.5410 H   0  0  0  0  0  0  0  0  0  0  0  0
   -7.9859   24.7414  -31.1997 H   0  0  0  0  0  0  0  0  0  0  0  0
   -9.5898   22.4679  -31.8604 H   0  0  0  0  0  0  0  0  0  0  0  0
   -9.4751   19.9905  -32.2787 H   0  0  0  0  0  0  0  0  0  0  0  0
   -5.1797   20.0633  -31.5318 H   0  0  0  0  0  0  0  0  0  0  0  0
  1  2  1  0
  2  3  1  0
  3  4  2  0
  3  5  1  0
  5  6  1  0
  6  7  1  0
  7  8  2  0
  7  9  1  0
  9 10  1  0
 10 11  1  0
 11 12  1  0
 11 13  2  0
 10 14  2  0
 14 15  1  0
 15 16  2  0
 16 17  1  0
 17 18  2  0
 18 19  1  0
 19 20  1  0
 19 21  1  0
 19 22  1  0
 18 23  1  0
 23 24  2  0
 24  9  1  0
 24 15  1  0
  1 25  1  0
  1 26  1  0
  1 27  1  0
  5 28  1  0
  5 29  1  0
 12 30  1  0
 14 31  1  0
 16 32  1  0
 17 33  1  0
 23 34  1  0
M  CHG  1  12  -1
M  END
>  <UniqueID>  (94) 
94

>  <SMILES>  (94) 
COC(=O)COC(=O)n1c(C([NH-])=O)cc2ccc(C(F)(F)F)cc21

>  <Energy>  (94) 
68.89019312277753

>  <Genealogy>  (94) 
COC(=O)COC(=O)n1c(C([NH-])=O)cc2ccc(C(F)(F)F)cc21 (protonated)
COC(=O)COC(=O)n1c(C([NH-])=O)cc2ccc(C(F)(F)F)cc21 (3D coordinates assigned)
COC(=O)COC(=O)n1c(C([NH-])=O)cc2ccc(C(F)(F)F)cc21 (optimized conformer: 68.89019312277753 kcal/mol)

>  <smiles>  (94) 
COC(=O)COC(=O)n1c(C(N)=O)cc2ccc(C(F)(F)F)cc21

>  <score_type>  (94) 
oracle

>  <origin>  (94) 
adg

>  <m_score__min__energy>  (94) 
-9.6699999999999999

>  <m_primary>  (94) 
energy

$$$$
94:0
     RDKit          3D

 41 43  0  0  0  0  0  0  0  0999 V2000
   -1.5940   25.8440  -28.9430 N   0  0  0  0  0  0  0  0  0  0  0  0
   -1.0260   24.5370  -28.9690 C   0  0  0  0  0  0  0  0  0  0  0  0
   -0.0010   24.2970  -28.2750 O   0  0  0  0  0  0  0  0  0  0  0  0
   -1.5850   23.4790  -29.8360 C   0  0  0  0  0  0  0  0  0  0  0  0
   -0.8640   22.3570  -30.2340 C   0  0  0  0  0  0  0  0  0  0  0  0
   -1.6940   21.6750  -31.0940 C   0  0  0  0  0  0  0  0  0  0  0  0
   -1.4890   20.4810  -31.7760 C   0  0  0  0  0  0  0  0  0  0  0  0
   -2.5350   19.9900  -32.5740 C   0  0  0  0  0  0  0  0  0  0  0  0
   -3.7640   20.6890  -32.6740 C   0  0  0  0  0  0  0  0  0  0  0  0
   -4.8140   20.1430  -33.4960 N   0  0  0  0  0  0  0  0  0  0  0  0
   -5.3100   18.7720  -33.3560 C   0  0  0  0  0  0  0  0  0  0  0  0
   -6.8450   18.7290  -33.3810 C   0  0  0  0  0  0  0  0  0  0  0  0
   -7.4020   19.0140  -32.0380 N   0  0  0  0  0  0  0  0  0  0  0  0
   -7.1260   20.3990  -31.6190 C   0  0  0  0  0  0  0  0  0  0  0  0
   -8.3440   21.2540  -31.9550 C   0  0  0  0  0  0  0  0  0  0  0  0
   -9.4290   20.2780  -32.3630 C   0  0  0  0  0  0  0  0  0  0  0  0
   -8.8670   18.9080  -32.0330 C   0  0  0  0  0  0  0  0  0  0  0  0
   -3.9340   21.9030  -31.9620 C   0  0  0  0  0  0  0  0  0  0  0  0
   -2.8670   22.3770  -31.1890 C   0  0  0  0  0  0  0  0  0  0  0  0
   -2.8180   23.4880  -30.4200 N   0  0  0  0  0  0  0  0  0  0  0  0
   -3.8890   24.4220  -30.2050 C   0  0  0  0  0  0  0  0  0  0  0  0
   -4.8720   24.1080  -29.4850 O   0  0  0  0  0  0  0  0  0  0  0  0
   -3.8600   25.6710  -30.8110 O   0  0  0  0  0  0  0  0  0  0  0  0
   -2.6280   25.9810  -28.9770 H   0  0  0  0  0  0  0  0  0  0  0  0
    0.1538   22.0751  -29.9263 H   0  0  0  0  0  0  0  0  0  0  0  0
   -0.5363   19.9374  -31.6930 H   0  0  0  0  0  0  0  0  0  0  0  0
   -2.3987   19.0501  -33.1290 H   0  0  0  0  0  0  0  0  0  0  0  0
   -5.2370   20.7630  -34.2240 H   0  0  0  0  0  0  0  0  0  0  0  0
   -4.9209   18.1636  -34.1857 H   0  0  0  0  0  0  0  0  0  0  0  0
   -4.9671   18.3756  -32.3889 H   0  0  0  0  0  0  0  0  0  0  0  0
   -7.2152   19.4822  -34.0921 H   0  0  0  0  0  0  0  0  0  0  0  0
   -7.1642   17.7222  -33.6884 H   0  0  0  0  0  0  0  0  0  0  0  0
   -6.9380   20.4292  -30.5356 H   0  0  0  0  0  0  0  0  0  0  0  0
   -6.2379   20.7830  -32.1424 H   0  0  0  0  0  0  0  0  0  0  0  0
   -8.6604   21.8337  -31.0753 H   0  0  0  0  0  0  0  0  0  0  0  0
   -8.1252   21.9763  -32.7553 H   0  0  0  0  0  0  0  0  0  0  0  0
  -10.3516   20.4650  -31.7939 H   0  0  0  0  0  0  0  0  0  0  0  0
   -9.6915   20.3722  -33.4270 H   0  0  0  0  0  0  0  0  0  0  0  0
   -9.2163   18.5889  -31.0399 H   0  0  0  0  0  0  0  0  0  0  0  0
   -9.2024   18.1655  -32.7720 H   0  0  0  0  0  0  0  0  0  0  0  0
   -4.8814   22.4593  -32.0155 H   0  0  0  0  0  0  0  0  0  0  0  0
  1  2  1  0
  2  3  2  0
  2  4  1  0
  4  5  2  0
  5  6  1  0
  6  7  2  0
  7  8  1  0
  8  9  2  0
  9 10  1  0
 10 11  1  0
 11 12  1  0
 12 13  1  0
 13 14  1  0
 14 15  1  0
 15 16  1  0
 16 17  1  0
  9 18  1  0
 18 19  2  0
 19 20  1  0
 20 21  1  0
 21 22  2  0
 21 23  1  0
 20  4  1  0
 19  6  1  0
 17 13  1  0
  1 24  1  0
  5 25  1  0
  7 26  1  0
  8 27  1  0
 10 28  1  0
 11 29  1  0
 11 30  1  0
 12 31  1  0
 12 32  1  0
 14 33  1  0
 14 34  1  0
 15 35  1  0
 15 36  1  0
 16 37  1  0
 16 38  1  0
 17 39  1  0
 17 40  1  0
 18 41  1  0
M  CHG  2   1  -1  23  -1
M  END
>  <UniqueID>  (95) 
95

>  <SMILES>  (95) 
[NH-]C(=O)c1cc2ccc(NCCN3CCCC3)cc2n1C(=O)[O-]

>  <Energy>  (95) 
83.35273164284983

>  <Genealogy>  (95) 
[NH-]C(=O)c1cc2ccc(NCCN3CCCC3)cc2n1C(=O)[O-] (protonated)
[NH-]C(=O)c1cc2ccc(NCCN3CCCC3)cc2n1C(=O)[O-] (3D coordinates assigned)
[NH-]C(=O)c1cc2ccc(NCCN3CCCC3)cc2n1C(=O)[O-] (nonaromatic ring conformer: 83.35273164284983 kcal/mol)

>  <smiles>  (95) 
NC(=O)c1cc2ccc(NCCN3CCCC3)cc2n1C(=O)O

>  <score_type>  (95) 
oracle

>  <origin>  (95) 
adg

>  <m_score__min__energy>  (95) 
-11.869999999999999

>  <m_primary>  (95) 
energy

$$$$
95:0
     RDKit          3D

 35 36  0  0  0  0  0  0  0  0999 V2000
   -3.4670   20.9250  -33.4270 C   0  0  0  0  0  0  0  0  0  0  0  0
   -2.4560   21.4330  -32.4060 C   0  0  0  0  0  0  0  0  0  0  0  0
   -3.0040   22.5060  -31.6460 O   0  0  0  0  0  0  0  0  0  0  0  0
   -3.9870   22.3350  -30.6650 C   0  0  0  0  0  0  0  0  0  0  0  0
   -3.6850   21.8590  -29.5360 O   0  0  0  0  0  0  0  0  0  0  0  0
   -5.3520   22.6790  -30.9560 N   0  0  0  0  0  0  0  0  0  0  0  0
   -5.9590   23.8920  -30.8210 C   0  0  0  0  0  0  0  0  0  0  0  0
   -5.2930   25.1620  -30.4610 C   0  0  0  0  0  0  0  0  0  0  0  0
   -3.8840   25.2970  -30.6350 N   0  0  0  0  0  0  0  0  0  0  0  0
   -5.9480   26.1170  -29.9690 O   0  0  0  0  0  0  0  0  0  0  0  0
   -7.3080   23.8020  -31.1550 C   0  0  0  0  0  0  0  0  0  0  0  0
   -7.5100   22.4870  -31.5100 C   0  0  0  0  0  0  0  0  0  0  0  0
   -8.6680   21.8420  -31.9310 C   0  0  0  0  0  0  0  0  0  0  0  0
   -8.5910   20.4680  -32.2160 C   0  0  0  0  0  0  0  0  0  0  0  0
   -7.3680   19.7670  -32.0600 C   0  0  0  0  0  0  0  0  0  0  0  0
   -7.2900   18.3040  -32.3910 C   0  0  0  0  0  0  0  0  0  0  0  0
   -6.0630   18.0240  -33.7040 P   0  0  2  0  0  0  0  0  0  0  0  0
   -6.3660   16.7190  -34.4040 O   0  0  0  0  0  0  0  0  0  0  0  0
   -4.5160   17.9470  -33.0250 O   0  0  0  0  0  0  0  0  0  0  0  0
   -6.1200   19.2920  -34.8240 O   0  0  0  0  0  0  0  0  0  0  0  0
   -6.2110   20.4580  -31.6390 C   0  0  0  0  0  0  0  0  0  0  0  0
   -6.3140   21.8310  -31.3810 C   0  0  0  0  0  0  0  0  0  0  0  0
   -4.3311   20.4908  -32.9027 H   0  0  0  0  0  0  0  0  0  0  0  0
   -3.8031   21.7613  -34.0576 H   0  0  0  0  0  0  0  0  0  0  0  0
   -2.9966   20.1562  -34.0576 H   0  0  0  0  0  0  0  0  0  0  0  0
   -2.1845   20.6113  -31.7270 H   0  0  0  0  0  0  0  0  0  0  0  0
   -1.5658   21.7964  -32.9403 H   0  0  0  0  0  0  0  0  0  0  0  0
   -3.4890   26.0290  -31.2660 H   0  0  0  0  0  0  0  0  0  0  0  0
   -8.0541   24.6102  -31.1387 H   0  0  0  0  0  0  0  0  0  0  0  0
   -9.6154   22.3907  -32.0377 H   0  0  0  0  0  0  0  0  0  0  0  0
   -9.4866   19.9318  -32.5629 H   0  0  0  0  0  0  0  0  0  0  0  0
   -6.9951   17.7429  -31.4920 H   0  0  0  0  0  0  0  0  0  0  0  0
   -8.2751   17.9611  -32.7402 H   0  0  0  0  0  0  0  0  0  0  0  0
   -7.0800   19.3940  -35.0430 H   0  0  0  0  0  0  0  0  0  0  0  0
   -5.2529   19.9315  -31.5167 H   0  0  0  0  0  0  0  0  0  0  0  0
  1  2  1  0
  2  3  1  0
  3  4  1  0
  4  5  2  0
  4  6  1  0
  6  7  1  0
  7  8  1  0
  8  9  1  0
  8 10  2  0
  7 11  2  0
 11 12  1  0
 12 13  2  0
 13 14  1  0
 14 15  2  0
 15 16  1  0
 16 17  1  0
 17 18  2  0
 17 19  1  1
 17 20  1  0
 15 21  1  0
 21 22  2  0
 22  6  1  0
 22 12  1  0
  1 23  1  0
  1 24  1  0
  1 25  1  0
  2 26  1  0
  2 27  1  0
  9 28  1  0
 11 29  1  0
 13 30  1  0
 14 31  1  0
 16 32  1  0
 16 33  1  0
 20 34  1  0
 21 35  1  0
M  CHG  2   9  -1  19  -1
M  END
>  <UniqueID>  (96) 
96

>  <SMILES>  (96) 
CCOC(=O)n1c(C([NH-])=O)cc2ccc(C[P@](=O)([O-])O)cc21

>  <Energy>  (96) 
63.66347815608455

>  <Genealogy>  (96) 
CCOC(=O)n1c(C([NH-])=O)cc2ccc(CP(=O)([O-])O)cc21 (protonated)
CCOC(=O)n1c(C([NH-])=O)cc2ccc(C[P@](=O)([O-])O)cc21 (chirality)
CCOC(=O)n1c(C([NH-])=O)cc2ccc(C[P@](=O)([O-])O)cc21 (3D coordinates assigned)
CCOC(=O)n1c(C([NH-])=O)cc2ccc(C[P@](=O)([O-])O)cc21 (optimized conformer: 63.66347815608455 kcal/mol)

>  <smiles>  (96) 
CCOC(=O)n1c(C(N)=O)cc2ccc(CP(=O)(O)O)cc21

>  <score_type>  (96) 
oracle

>  <origin>  (96) 
adg

>  <m_score__min__energy>  (96) 
-10.02

>  <m_primary>  (96) 
energy

$$$$
96:0
     RDKit          3D

 44 45  0  0  0  0  0  0  0  0999 V2000
   -3.1450   23.5990  -30.3010 C   0  0  0  0  0  0  0  0  0  0  0  0
   -3.6500   24.9180  -30.4750 O   0  0  0  0  0  0  0  0  0  0  0  0
   -4.9830   25.2520  -30.2200 C   0  0  0  0  0  0  0  0  0  0  0  0
   -5.4240   26.4020  -30.4940 O   0  0  0  0  0  0  0  0  0  0  0  0
   -5.9090   24.2110  -29.6720 C   0  0  0  0  0  0  0  0  0  0  0  0
   -7.1560   24.0500  -30.5490 C   0  0  0  0  0  0  0  0  0  0  0  0
   -7.1620   22.7270  -31.2710 C   0  0  0  0  0  0  0  0  0  0  0  0
   -8.3410   21.9440  -31.3180 C   0  0  0  0  0  0  0  0  0  0  0  0
   -8.3630   20.7220  -32.0110 C   0  0  0  0  0  0  0  0  0  0  0  0
   -7.2000   20.3230  -32.6640 C   0  0  0  0  0  0  0  0  0  0  0  0
   -6.9280   19.1690  -33.3640 C   0  0  0  0  0  0  0  0  0  0  0  0
   -5.6030   19.2900  -33.7730 C   0  0  0  0  0  0  0  0  0  0  0  0
   -4.8870   18.2650  -34.5590 C   0  0  0  0  0  0  0  0  0  0  0  0
   -3.6860   17.6620  -34.0760 N   0  0  0  0  0  0  0  0  0  0  0  0
   -5.3240   17.9410  -35.6950 O   0  0  0  0  0  0  0  0  0  0  0  0
   -5.0740   20.4700  -33.3430 N   0  0  0  0  0  0  0  0  0  0  0  0
   -3.7100   20.9070  -33.4560 C   0  0  0  0  0  0  0  0  0  0  0  0
   -3.4630   22.0900  -33.8080 O   0  0  0  0  0  0  0  0  0  0  0  0
   -2.5990   19.9950  -33.1520 C   0  0  0  0  0  0  0  0  0  0  0  0
   -2.3890   19.6310  -31.9640 O   0  0  0  0  0  0  0  0  0  0  0  0
   -1.7690   19.5510  -34.1890 O   0  0  0  0  0  0  0  0  0  0  0  0
   -0.3440   19.5750  -34.1180 C   0  0  0  0  0  0  0  0  0  0  0  0
    0.2150   20.7800  -34.8730 C   0  0  0  0  0  0  0  0  0  0  0  0
   -0.5500   21.9170  -34.5840 O   0  0  0  0  0  0  0  0  0  0  0  0
   -6.0610   21.0860  -32.6560 C   0  0  0  0  0  0  0  0  0  0  0  0
   -6.0020   22.2930  -31.9510 C   0  0  0  0  0  0  0  0  0  0  0  0
   -3.0602   23.3776  -29.2269 H   0  0  0  0  0  0  0  0  0  0  0  0
   -3.8310   22.8788  -30.7708 H   0  0  0  0  0  0  0  0  0  0  0  0
   -2.1534   23.5211  -30.7708 H   0  0  0  0  0  0  0  0  0  0  0  0
   -5.3779   23.2488  -29.6259 H   0  0  0  0  0  0  0  0  0  0  0  0
   -6.2311   24.5291  -28.6695 H   0  0  0  0  0  0  0  0  0  0  0  0
   -8.0505   24.1126  -29.9119 H   0  0  0  0  0  0  0  0  0  0  0  0
   -7.1518   24.8519  -31.3020 H   0  0  0  0  0  0  0  0  0  0  0  0
   -9.2490   22.2962  -30.8066 H   0  0  0  0  0  0  0  0  0  0  0  0
   -9.2702   20.1004  -32.0368 H   0  0  0  0  0  0  0  0  0  0  0  0
   -7.6122   18.3300  -33.5586 H   0  0  0  0  0  0  0  0  0  0  0  0
   -3.1820   18.0510  -33.2490 H   0  0  0  0  0  0  0  0  0  0  0  0
   -3.2430   16.8820  -34.6080 H   0  0  0  0  0  0  0  0  0  0  0  0
   -0.0361   19.6351  -33.0637 H   0  0  0  0  0  0  0  0  0  0  0  0
    0.0482   18.6564  -34.5788 H   0  0  0  0  0  0  0  0  0  0  0  0
    1.2568   20.9528  -34.5651 H   0  0  0  0  0  0  0  0  0  0  0  0
    0.1764   20.5812  -35.9542 H   0  0  0  0  0  0  0  0  0  0  0  0
   -1.5000   21.6220  -34.6070 H   0  0  0  0  0  0  0  0  0  0  0  0
   -5.0773   22.8882  -31.9267 H   0  0  0  0  0  0  0  0  0  0  0  0
  1  2  1  0
  2  3  1  0
  3  4  2  0
  3  5  1  0
  5  6  1  0
  6  7  1  0
  7  8  2  0
  8  9  1  0
  9 10  2  0
 10 11  1  0
 11 12  2  0
 12 13  1  0
 13 14  1  0
 13 15  2  0
 12 16  1  0
 16 17  1  0
 17 18  2  0
 17 19  1  0
 19 20  2  0
 19 21  1  0
 21 22  1  0
 22 23  1  0
 23 24  1  0
 16 25  1  0
 25 26  2  0
 26  7  1  0
 25 10  1  0
  1 27  1  0
  1 28  1  0
  1 29  1  0
  5 30  1  0
  5 31  1  0
  6 32  1  0
  6 33  1  0
  8 34  1  0
  9 35  1  0
 11 36  1  0
 14 37  1  0
 14 38  1  0
 22 39  1  0
 22 40  1  0
 23 41  1  0
 23 42  1  0
 24 43  1  0
 26 44  1  0
M  END
>  <UniqueID>  (97) 
97

>  <SMILES>  (97) 
COC(=O)CCc1ccc2cc(C(N)=O)n(C(=O)C(=O)OCCO)c2c1

>  <Energy>  (97) 
72.64504416975409

>  <Genealogy>  (97) 
COC(=O)CCc1ccc2cc(C(N)=O)n(C(=O)C(=O)OCCO)c2c1 (3D coordinates assigned)
COC(=O)CCc1ccc2cc(C(N)=O)n(C(=O)C(=O)OCCO)c2c1 (optimized conformer: 72.64504416975409 kcal/mol)

>  <smiles>  (97) 
COC(=O)CCc1ccc2cc(C(N)=O)n(C(=O)C(=O)OCCO)c2c1

>  <score_type>  (97) 
oracle

>  <origin>  (97) 
adg

>  <m_score__min__energy>  (97) 
-8.1300000000000008

>  <m_primary>  (97) 
energy

$$$$
