0:0
     RDKit          3D

 44 46  0  0  0  0  0  0  0  0999 V2000
   -4.1940   25.6740  -30.6320 N   0  0  0  0  0  0  0  0  0  0  0  0
   -5.4820   25.0710  -30.5450 C   0  0  0  0  0  0  0  0  0  0  0  0
   -6.4130   25.6920  -29.9680 O   0  0  0  0  0  0  0  0  0  0  0  0
   -5.7330   23.7180  -31.0910 C   0  0  0  0  0  0  0  0  0  0  0  0
   -6.9250   23.3500  -31.7090 C   0  0  0  0  0  0  0  0  0  0  0  0
   -6.7730   22.0220  -32.0370 C   0  0  0  0  0  0  0  0  0  0  0  0
   -7.6450   21.1560  -32.6890 C   0  0  0  0  0  0  0  0  0  0  0  0
   -7.2080   19.8450  -32.9390 C   0  0  0  0  0  0  0  0  0  0  0  0
   -5.9060   19.4320  -32.5540 C   0  0  0  0  0  0  0  0  0  0  0  0
   -5.4460   18.0560  -32.8450 C   0  0  0  0  0  0  0  0  0  0  0  0
   -5.5580   17.0480  -31.8720 C   0  0  0  0  0  0  0  0  0  0  0  0
   -6.0680   17.3280  -30.6450 F   0  0  0  0  0  0  0  0  0  0  0  0
   -5.1220   15.7480  -32.1450 C   0  0  0  0  0  0  0  0  0  0  0  0
   -5.2590   14.7950  -31.1880 F   0  0  0  0  0  0  0  0  0  0  0  0
   -4.5540   15.4300  -33.3960 C   0  0  0  0  0  0  0  0  0  0  0  0
   -4.1240   14.0060  -33.6750 C   0  0  0  0  0  0  0  0  0  0  0  0
   -2.7940   13.7910  -33.3620 F   0  0  0  0  0  0  0  0  0  0  0  0
   -4.8830   13.1270  -32.9210 F   0  0  0  0  0  0  0  0  0  0  0  0
   -4.3140   13.7280  -35.0160 F   0  0  0  0  0  0  0  0  0  0  0  0
   -4.4710   16.4370  -34.3810 C   0  0  0  0  0  0  0  0  0  0  0  0
   -3.9950   16.1680  -35.6230 F   0  0  0  0  0  0  0  0  0  0  0  0
   -4.9020   17.7380  -34.1010 C   0  0  0  0  0  0  0  0  0  0  0  0
   -4.8230   18.6830  -35.0740 F   0  0  0  0  0  0  0  0  0  0  0  0
   -5.0470   20.3440  -31.9010 C   0  0  0  0  0  0  0  0  0  0  0  0
   -5.5250   21.6310  -31.6290 C   0  0  0  0  0  0  0  0  0  0  0  0
   -4.8800   22.6560  -31.0270 N   0  0  0  0  0  0  0  0  0  0  0  0
   -3.5490   22.6370  -30.4910 C   0  0  0  0  0  0  0  0  0  0  0  0
   -2.5800   22.9810  -31.2190 O   0  0  0  0  0  0  0  0  0  0  0  0
   -3.2970   22.2650  -29.0550 C   0  0  0  0  0  0  0  0  0  0  0  0
   -3.1180   23.5040  -28.1630 C   0  0  0  0  0  0  0  0  0  0  0  0
   -1.7830   24.2300  -28.3930 C   0  0  0  0  0  0  0  0  0  0  0  0
   -1.9170   25.2620  -29.3330 O   0  0  0  0  0  0  0  0  0  0  0  0
   -3.3490   25.1060  -30.8660 H   0  0  0  0  0  0  0  0  0  0  0  0
   -7.8028   23.9861  -31.8957 H   0  0  0  0  0  0  0  0  0  0  0  0
   -8.6467   21.4882  -32.9994 H   0  0  0  0  0  0  0  0  0  0  0  0
   -7.8809   19.1319  -33.4377 H   0  0  0  0  0  0  0  0  0  0  0  0
   -4.0269   20.0496  -31.6132 H   0  0  0  0  0  0  0  0  0  0  0  0
   -4.1520   21.6807  -28.6841 H   0  0  0  0  0  0  0  0  0  0  0  0
   -2.3671   21.6789  -29.0136 H   0  0  0  0  0  0  0  0  0  0  0  0
   -3.9382   24.2065  -28.3723 H   0  0  0  0  0  0  0  0  0  0  0  0
   -3.1254   23.1580  -27.1189 H   0  0  0  0  0  0  0  0  0  0  0  0
   -1.4389   24.6569  -27.4394 H   0  0  0  0  0  0  0  0  0  0  0  0
   -1.0551   23.5017  -28.7799 H   0  0  0  0  0  0  0  0  0  0  0  0
   -2.2390   24.8410  -30.1730 H   0  0  0  0  0  0  0  0  0  0  0  0
  1  2  1  0
  2  3  2  0
  2  4  1  0
  4  5  2  0
  5  6  1  0
  6  7  2  0
  7  8  1  0
  8  9  2  0
  9 10  1  0
 10 11  2  0
 11 12  1  0
 11 13  1  0
 13 14  1  0
 13 15  2  0
 15 16  1  0
 16 17  1  0
 16 18  1  0
 16 19  1  0
 15 20  1  0
 20 21  1  0
 20 22  2  0
 22 23  1  0
  9 24  1  0
 24 25  2  0
 25 26  1  0
 26 27  1  0
 27 28  2  0
 27 29  1  0
 29 30  1  0
 30 31  1  0
 31 32  1  0
 26  4  1  0
 25  6  1  0
 22 10  1  0
  1 33  1  0
  5 34  1  0
  7 35  1  0
  8 36  1  0
 24 37  1  0
 29 38  1  0
 29 39  1  0
 30 40  1  0
 30 41  1  0
 31 42  1  0
 31 43  1  0
 32 44  1  0
M  CHG  1   1  -1
M  END
>  <UniqueID>  (1) 
1

>  <SMILES>  (1) 
[NH-]C(=O)c1cc2ccc(-c3c(F)c(F)c(C(F)(F)F)c(F)c3F)cc2n1C(=O)CCCO

>  <Energy>  (1) 
91.73419573976877

>  <Genealogy>  (1) 
[NH-]C(=O)c1cc2ccc(-c3c(F)c(F)c(C(F)(F)F)c(F)c3F)cc2n1C(=O)CCCO (protonated)
[NH-]C(=O)c1cc2ccc(-c3c(F)c(F)c(C(F)(F)F)c(F)c3F)cc2n1C(=O)CCCO (3D coordinates assigned)
[NH-]C(=O)c1cc2ccc(-c3c(F)c(F)c(C(F)(F)F)c(F)c3F)cc2n1C(=O)CCCO (optimized conformer: 91.73419573976877 kcal/mol)

>  <smiles>  (1) 
NC(=O)c1cc2ccc(-c3c(F)c(F)c(C(F)(F)F)c(F)c3F)cc2n1C(=O)CCCO

>  <score_type>  (1) 
oracle

>  <origin>  (1) 
adg

>  <m_score__min__energy>  (1) 
-10.449999999999999

>  <m_primary>  (1) 
energy

$$$$
1:0
     RDKit          3D

 38 39  0  0  0  0  0  0  0  0999 V2000
   -3.0220   19.1080  -33.7700 C   0  0  0  0  0  0  0  0  0  0  0  0
   -2.3050   20.4630  -33.8010 C   0  0  0  0  0  0  0  0  0  0  0  0
   -0.8880   20.3130  -34.3690 C   0  0  0  0  0  0  0  0  0  0  0  0
   -2.2810   21.1110  -32.4070 C   0  0  0  0  0  0  0  0  0  0  0  0
   -3.0890   22.2850  -32.3860 O   0  0  0  0  0  0  0  0  0  0  0  0
   -3.8260   22.6770  -31.2640 C   0  0  0  0  0  0  0  0  0  0  0  0
   -3.2360   22.9750  -30.1900 O   0  0  0  0  0  0  0  0  0  0  0  0
   -5.2580   22.7560  -31.3460 N   0  0  0  0  0  0  0  0  0  0  0  0
   -6.0500   23.7880  -30.9440 C   0  0  0  0  0  0  0  0  0  0  0  0
   -5.5680   25.1150  -30.5020 C   0  0  0  0  0  0  0  0  0  0  0  0
   -4.2080   25.5020  -30.7040 N   0  0  0  0  0  0  0  0  0  0  0  0
   -6.3500   25.9070  -29.9120 O   0  0  0  0  0  0  0  0  0  0  0  0
   -7.3960   23.4620  -31.0980 C   0  0  0  0  0  0  0  0  0  0  0  0
   -7.4030   22.1860  -31.6140 C   0  0  0  0  0  0  0  0  0  0  0  0
   -8.4750   21.3640  -31.9510 C   0  0  0  0  0  0  0  0  0  0  0  0
   -8.1910   20.0770  -32.4370 C   0  0  0  0  0  0  0  0  0  0  0  0
   -6.8510   19.6350  -32.5720 C   0  0  0  0  0  0  0  0  0  0  0  0
   -6.5700   18.2500  -33.0780 C   0  0  0  0  0  0  0  0  0  0  0  0
   -5.4130   17.7670  -32.4950 F   0  0  0  0  0  0  0  0  0  0  0  0
   -7.6250   17.4140  -32.7610 F   0  0  0  0  0  0  0  0  0  0  0  0
   -5.7890   20.4980  -32.2180 C   0  0  0  0  0  0  0  0  0  0  0  0
   -6.1010   21.7810  -31.7530 C   0  0  0  0  0  0  0  0  0  0  0  0
   -3.1837   18.8025  -32.7257 H   0  0  0  0  0  0  0  0  0  0  0  0
   -3.9922   19.1948  -34.2810 H   0  0  0  0  0  0  0  0  0  0  0  0
   -2.4045   18.3546  -34.2810 H   0  0  0  0  0  0  0  0  0  0  0  0
   -2.8692   21.1327  -34.4667 H   0  0  0  0  0  0  0  0  0  0  0  0
   -0.1674   20.2367  -33.5414 H   0  0  0  0  0  0  0  0  0  0  0  0
   -0.8348   19.4042  -34.9865 H   0  0  0  0  0  0  0  0  0  0  0  0
   -0.6457   21.1905  -34.9865 H   0  0  0  0  0  0  0  0  0  0  0  0
   -2.6667   20.3933  -31.6680 H   0  0  0  0  0  0  0  0  0  0  0  0
   -1.2451   21.3888  -32.1626 H   0  0  0  0  0  0  0  0  0  0  0  0
   -3.8700   26.4270  -30.3590 H   0  0  0  0  0  0  0  0  0  0  0  0
   -3.5440   24.8930  -31.2310 H   0  0  0  0  0  0  0  0  0  0  0  0
   -8.2667   24.0901  -30.8584 H   0  0  0  0  0  0  0  0  0  0  0  0
   -9.5127   21.7118  -31.8401 H   0  0  0  0  0  0  0  0  0  0  0  0
   -9.0166   19.4056  -32.7155 H   0  0  0  0  0  0  0  0  0  0  0  0
   -6.4447   18.2845  -34.1703 H   0  0  0  0  0  0  0  0  0  0  0  0
   -4.7429   20.1695  -32.3058 H   0  0  0  0  0  0  0  0  0  0  0  0
  1  2  1  0
  2  3  1  0
  2  4  1  0
  4  5  1  0
  5  6  1  0
  6  7  2  0
  6  8  1  0
  8  9  1  0
  9 10  1  0
 10 11  1  0
 10 12  2  0
  9 13  2  0
 13 14  1  0
 14 15  2  0
 15 16  1  0
 16 17  2  0
 17 18  1  0
 18 19  1  0
 18 20  1  0
 17 21  1  0
 21 22  2  0
 22  8  1  0
 22 14  1  0
  1 23  1  0
  1 24  1  0
  1 25  1  0
  2 26  1  0
  3 27  1  0
  3 28  1  0
  3 29  1  0
  4 30  1  0
  4 31  1  0
 11 32  1  0
 11 33  1  0
 13 34  1  0
 15 35  1  0
 16 36  1  0
 18 37  1  0
 21 38  1  0
M  END
>  <UniqueID>  (2) 
2

>  <SMILES>  (2) 
CC(C)COC(=O)n1c(C(N)=O)cc2ccc(C(F)F)cc21

>  <Energy>  (2) 
67.60001493917453

>  <Genealogy>  (2) 
CC(C)COC(=O)n1c(C(N)=O)cc2ccc(C(F)F)cc21 (3D coordinates assigned)
CC(C)COC(=O)n1c(C(N)=O)cc2ccc(C(F)F)cc21 (optimized conformer: 67.60001493917453 kcal/mol)

>  <smiles>  (2) 
CC(C)COC(=O)n1c(C(N)=O)cc2ccc(C(F)F)cc21

>  <score_type>  (2) 
oracle

>  <origin>  (2) 
adg

>  <m_score__min__energy>  (2) 
-8.1999999999999993

>  <m_primary>  (2) 
energy

$$$$
2:0
     RDKit          3D

 46 48  0  0  0  0  0  0  0  0999 V2000
   -6.2370   23.2390  -32.2190 C   0  0  0  0  0  0  0  0  0  0  0  0
   -7.3080   22.1330  -32.3410 C   0  0  2  0  0  0  0  0  0  0  0  0
   -8.3340   22.3130  -31.1860 C   0  0  0  0  0  0  0  0  0  0  0  0
   -9.0690   21.0150  -30.8270 C   0  0  0  0  0  0  0  0  0  0  0  0
   -9.2000   20.1180  -32.0490 C   0  0  0  0  0  0  0  0  0  0  0  0
   -7.8160   19.7430  -32.6160 C   0  0  0  0  0  0  0  0  0  0  0  0
   -6.7450   20.7480  -32.3360 N   0  0  1  0  0  0  0  0  0  0  0  0
   -5.6260   20.5880  -33.3070 C   0  0  0  0  0  0  0  0  0  0  0  0
   -4.5440   19.6010  -32.8250 C   0  0  0  0  0  0  0  0  0  0  0  0
   -3.4340   20.3340  -32.1210 C   0  0  0  0  0  0  0  0  0  0  0  0
   -2.1390   19.7650  -32.0480 C   0  0  0  0  0  0  0  0  0  0  0  0
   -1.1010   20.4290  -31.3750 C   0  0  0  0  0  0  0  0  0  0  0  0
   -1.3930   21.6490  -30.7700 C   0  0  0  0  0  0  0  0  0  0  0  0
   -0.5750   22.5070  -30.0710 C   0  0  0  0  0  0  0  0  0  0  0  0
   -1.3920   23.5720  -29.6970 C   0  0  0  0  0  0  0  0  0  0  0  0
   -0.9280   24.6910  -28.8480 C   0  0  0  0  0  0  0  0  0  0  0  0
   -1.6000   25.9480  -28.9050 N   0  0  0  0  0  0  0  0  0  0  0  0
    0.0750   24.5600  -28.0990 O   0  0  0  0  0  0  0  0  0  0  0  0
   -2.6640   23.3830  -30.1510 N   0  0  0  0  0  0  0  0  0  0  0  0
   -3.7860   24.2720  -30.0290 C   0  0  0  0  0  0  0  0  0  0  0  0
   -4.7270   24.0070  -29.2350 O   0  0  0  0  0  0  0  0  0  0  0  0
   -3.8330   25.4490  -30.7670 O   0  0  0  0  0  0  0  0  0  0  0  0
   -2.6480   22.2000  -30.8040 C   0  0  0  0  0  0  0  0  0  0  0  0
   -3.6960   21.5690  -31.4850 C   0  0  0  0  0  0  0  0  0  0  0  0
   -6.0397   23.4427  -31.1562 H   0  0  0  0  0  0  0  0  0  0  0  0
   -5.3090   22.9062  -32.7070 H   0  0  0  0  0  0  0  0  0  0  0  0
   -6.5994   24.1558  -32.7070 H   0  0  0  0  0  0  0  0  0  0  0  0
   -7.7954   22.2452  -33.3207 H   0  0  0  0  0  0  0  0  0  0  0  0
   -7.7982   22.6702  -30.2942 H   0  0  0  0  0  0  0  0  0  0  0  0
   -9.0904   23.0346  -31.5283 H   0  0  0  0  0  0  0  0  0  0  0  0
   -8.5039   20.4834  -30.0473 H   0  0  0  0  0  0  0  0  0  0  0  0
  -10.0758   21.2669  -30.4625 H   0  0  0  0  0  0  0  0  0  0  0  0
   -9.7321   19.1985  -31.7638 H   0  0  0  0  0  0  0  0  0  0  0  0
   -9.7577   20.6642  -32.8240 H   0  0  0  0  0  0  0  0  0  0  0  0
   -7.5114   18.7825  -32.1748 H   0  0  0  0  0  0  0  0  0  0  0  0
   -7.9254   19.6947  -33.7095 H   0  0  0  0  0  0  0  0  0  0  0  0
   -6.3580   20.5590  -31.3790 H   0  0  0  0  0  0  0  0  0  0  0  0
   -6.0377   20.2192  -34.2581 H   0  0  0  0  0  0  0  0  0  0  0  0
   -5.1463   21.5714  -33.4199 H   0  0  0  0  0  0  0  0  0  0  0  0
   -4.9974   18.8784  -32.1305 H   0  0  0  0  0  0  0  0  0  0  0  0
   -4.1261   19.0788  -33.6983 H   0  0  0  0  0  0  0  0  0  0  0  0
   -1.9444   18.7924  -32.5237 H   0  0  0  0  0  0  0  0  0  0  0  0
   -0.0895   19.9994  -31.3271 H   0  0  0  0  0  0  0  0  0  0  0  0
    0.4957   22.3793  -29.8538 H   0  0  0  0  0  0  0  0  0  0  0  0
   -2.6400   25.9980  -28.9700 H   0  0  0  0  0  0  0  0  0  0  0  0
   -4.6974   22.0225  -31.5241 H   0  0  0  0  0  0  0  0  0  0  0  0
  1  2  1  0
  2  3  1  0
  3  4  1  0
  4  5  1  0
  5  6  1  0
  6  7  1  0
  7  8  1  0
  8  9  1  0
  9 10  1  0
 10 11  2  0
 11 12  1  0
 12 13  2  0
 13 14  1  0
 14 15  2  0
 15 16  1  0
 16 17  1  0
 16 18  2  0
 15 19  1  0
 19 20  1  0
 20 21  2  0
 20 22  1  0
 19 23  1  0
 23 24  2  0
  7  2  1  0
 24 10  1  0
 23 13  1  0
  1 25  1  0
  1 26  1  0
  1 27  1  0
  2 28  1  6
  3 29  1  0
  3 30  1  0
  4 31  1  0
  4 32  1  0
  5 33  1  0
  5 34  1  0
  6 35  1  0
  6 36  1  0
  7 37  1  1
  8 38  1  0
  8 39  1  0
  9 40  1  0
  9 41  1  0
 11 42  1  0
 12 43  1  0
 14 44  1  0
 17 45  1  0
 24 46  1  0
M  CHG  3   7   1  17  -1  22  -1
M  END
>  <UniqueID>  (3) 
3

>  <SMILES>  (3) 
C[C@@H]1CCCC[N@H+]1CCc1ccc2cc(C([NH-])=O)n(C(=O)[O-])c2c1

>  <Energy>  (3) 
94.27117014240157

>  <Genealogy>  (3) 
CC1CCCC[NH+]1CCc1ccc2cc(C([NH-])=O)n(C(=O)[O-])c2c1 (protonated)
C[C@@H]1CCCC[N@H+]1CCc1ccc2cc(C([NH-])=O)n(C(=O)[O-])c2c1 (chirality)
C[C@@H]1CCCC[N@H+]1CCc1ccc2cc(C([NH-])=O)n(C(=O)[O-])c2c1 (3D coordinates assigned)
C[C@@H]1CCCC[N@H+]1CCc1ccc2cc(C([NH-])=O)n(C(=O)[O-])c2c1 (nonaromatic ring conformer: 94.27117014240157 kcal/mol)

>  <smiles>  (3) 
CC1CCCCN1CCc1ccc2cc(C(N)=O)n(C(=O)O)c2c1

>  <score_type>  (3) 
oracle

>  <origin>  (3) 
adg

>  <m_score__min__energy>  (3) 
-11.91

>  <m_primary>  (3) 
energy

$$$$
3:0
     RDKit          3D

 44 46  0  0  0  0  0  0  0  0999 V2000
   -1.9730   20.8760  -31.7700 C   0  0  0  0  0  0  0  0  0  0  0  0
   -2.7040   21.9300  -32.1260 C   0  0  0  0  0  0  0  0  0  0  0  0
   -3.6020   22.6330  -31.1910 C   0  0  0  0  0  0  0  0  0  0  0  0
   -3.1050   23.2120  -30.1880 O   0  0  0  0  0  0  0  0  0  0  0  0
   -5.0240   22.6750  -31.3950 N   0  0  0  0  0  0  0  0  0  0  0  0
   -5.8770   23.6840  -31.0640 C   0  0  0  0  0  0  0  0  0  0  0  0
   -5.4690   25.0050  -30.5330 C   0  0  0  0  0  0  0  0  0  0  0  0
   -4.1460   25.5050  -30.7410 N   0  0  0  0  0  0  0  0  0  0  0  0
   -6.2880   25.7010  -29.8780 O   0  0  0  0  0  0  0  0  0  0  0  0
   -7.1930   23.3160  -31.3480 C   0  0  0  0  0  0  0  0  0  0  0  0
   -7.1150   22.0380  -31.8540 C   0  0  0  0  0  0  0  0  0  0  0  0
   -8.1210   21.1800  -32.2850 C   0  0  0  0  0  0  0  0  0  0  0  0
   -7.7510   19.9020  -32.7350 C   0  0  0  0  0  0  0  0  0  0  0  0
   -6.3890   19.4990  -32.7400 C   0  0  0  0  0  0  0  0  0  0  0  0
   -6.0080   18.1440  -33.2150 C   0  0  0  0  0  0  0  0  0  0  0  0
   -4.6620   17.8300  -33.4720 C   0  0  0  0  0  0  0  0  0  0  0  0
   -4.3000   16.5550  -33.9180 C   0  0  0  0  0  0  0  0  0  0  0  0
   -2.9910   16.2820  -34.1450 F   0  0  0  0  0  0  0  0  0  0  0  0
   -5.2830   15.5710  -34.1260 C   0  0  0  0  0  0  0  0  0  0  0  0
   -4.8880   14.1880  -34.5730 C   0  0  0  0  0  0  0  0  0  0  0  0
   -3.9830   13.5890  -33.5850 N   0  0  0  0  0  0  0  0  0  0  0  0
   -4.6090   13.5830  -32.2610 C   0  0  0  0  0  0  0  0  0  0  0  0
   -6.6280   15.8760  -33.8510 C   0  0  0  0  0  0  0  0  0  0  0  0
   -7.5950   14.9370  -34.0050 F   0  0  0  0  0  0  0  0  0  0  0  0
   -6.9850   17.1530  -33.4070 C   0  0  0  0  0  0  0  0  0  0  0  0
   -5.3960   20.4020  -32.2890 C   0  0  0  0  0  0  0  0  0  0  0  0
   -5.7960   21.6720  -31.8650 C   0  0  0  0  0  0  0  0  0  0  0  0
   -1.3182   20.3868  -32.5062 H   0  0  0  0  0  0  0  0  0  0  0  0
   -2.0237   20.4942  -30.7396 H   0  0  0  0  0  0  0  0  0  0  0  0
   -2.6353   22.2922  -33.1624 H   0  0  0  0  0  0  0  0  0  0  0  0
   -3.8650   26.4230  -30.3300 H   0  0  0  0  0  0  0  0  0  0  0  0
   -3.4550   24.9960  -31.3330 H   0  0  0  0  0  0  0  0  0  0  0  0
   -8.1006   23.9194  -31.1990 H   0  0  0  0  0  0  0  0  0  0  0  0
   -9.1755   21.4930  -32.2738 H   0  0  0  0  0  0  0  0  0  0  0  0
   -8.5253   19.2048  -33.0878 H   0  0  0  0  0  0  0  0  0  0  0  0
   -3.8859   18.5948  -33.3208 H   0  0  0  0  0  0  0  0  0  0  0  0
   -5.7885   13.5638  -34.6699 H   0  0  0  0  0  0  0  0  0  0  0  0
   -4.3764   14.2512  -35.5447 H   0  0  0  0  0  0  0  0  0  0  0  0
   -3.1270   14.1900  -33.5220 H   0  0  0  0  0  0  0  0  0  0  0  0
   -3.8282   13.5905  -31.4862 H   0  0  0  0  0  0  0  0  0  0  0  0
   -5.2431   14.4751  -32.1512 H   0  0  0  0  0  0  0  0  0  0  0  0
   -5.2259   12.6789  -32.1512 H   0  0  0  0  0  0  0  0  0  0  0  0
   -8.0415   17.3839  -33.2060 H   0  0  0  0  0  0  0  0  0  0  0  0
   -4.3354   20.1108  -32.2728 H   0  0  0  0  0  0  0  0  0  0  0  0
  1  2  2  0
  2  3  1  0
  3  4  2  0
  3  5  1  0
  5  6  1  0
  6  7  1  0
  7  8  1  0
  7  9  2  0
  6 10  2  0
 10 11  1  0
 11 12  2  0
 12 13  1  0
 13 14  2  0
 14 15  1  0
 15 16  2  0
 16 17  1  0
 17 18  1  0
 17 19  2  0
 19 20  1  0
 20 21  1  0
 21 22  1  0
 19 23  1  0
 23 24  1  0
 23 25  2  0
 14 26  1  0
 26 27  2  0
 27  5  1  0
 27 11  1  0
 25 15  1  0
  1 28  1  0
  1 29  1  0
  2 30  1  0
  8 31  1  0
  8 32  1  0
 10 33  1  0
 12 34  1  0
 13 35  1  0
 16 36  1  0
 20 37  1  0
 20 38  1  0
 21 39  1  0
 22 40  1  0
 22 41  1  0
 22 42  1  0
 25 43  1  0
 26 44  1  0
M  END
>  <UniqueID>  (4) 
4

>  <SMILES>  (4) 
C=CC(=O)n1c(C(N)=O)cc2ccc(-c3cc(F)c(CNC)c(F)c3)cc21

>  <Energy>  (4) 
88.09095661189379

>  <Genealogy>  (4) 
C=CC(=O)n1c(C(N)=O)cc2ccc(-c3cc(F)c(CNC)c(F)c3)cc21 (3D coordinates assigned)
C=CC(=O)n1c(C(N)=O)cc2ccc(-c3cc(F)c(CNC)c(F)c3)cc21 (optimized conformer: 88.09095661189379 kcal/mol)

>  <smiles>  (4) 
C=CC(=O)n1c(C(N)=O)cc2ccc(-c3cc(F)c(CNC)c(F)c3)cc21

>  <score_type>  (4) 
oracle

>  <origin>  (4) 
adg

>  <m_score__min__energy>  (4) 
-8.9399999999999995

>  <m_primary>  (4) 
energy

$$$$
4:0
     RDKit          3D

 49 50  0  0  0  0  0  0  0  0999 V2000
   -7.5680   23.4540  -32.3610 C   0  0  0  0  0  0  0  0  0  0  0  0
   -8.3100   22.8230  -31.2570 N   0  0  0  0  0  0  0  0  0  0  0  0
   -7.4090   22.4460  -30.1560 C   0  0  0  0  0  0  0  0  0  0  0  0
   -9.1750   21.7050  -31.7030 C   0  0  0  0  0  0  0  0  0  0  0  0
   -8.9940   20.4000  -30.9010 C   0  0  0  0  0  0  0  0  0  0  0  0
   -8.8980   19.1930  -31.8400 C   0  0  0  0  0  0  0  0  0  0  0  0
   -8.2150   19.5490  -33.0850 N   0  0  0  0  0  0  0  0  0  0  0  0
   -6.7870   19.4730  -33.2480 C   0  0  0  0  0  0  0  0  0  0  0  0
   -6.1730   18.3910  -33.9350 C   0  0  0  0  0  0  0  0  0  0  0  0
   -4.7800   18.3490  -34.1100 C   0  0  0  0  0  0  0  0  0  0  0  0
   -4.0250   19.3940  -33.5880 C   0  0  0  0  0  0  0  0  0  0  0  0
   -2.6690   19.6260  -33.6520 C   0  0  0  0  0  0  0  0  0  0  0  0
   -2.4680   20.8380  -32.9890 C   0  0  0  0  0  0  0  0  0  0  0  0
   -1.1400   21.4510  -32.7500 C   0  0  0  0  0  0  0  0  0  0  0  0
   -0.7520   21.8810  -31.4410 N   0  0  0  0  0  0  0  0  0  0  0  0
   -0.3410   21.6220  -33.7100 O   0  0  0  0  0  0  0  0  0  0  0  0
   -3.6550   21.3260  -32.5310 N   0  0  0  0  0  0  0  0  0  0  0  0
   -3.8860   22.5710  -31.8530 C   0  0  0  0  0  0  0  0  0  0  0  0
   -4.7190   23.3940  -32.3210 O   0  0  0  0  0  0  0  0  0  0  0  0
   -3.1830   22.8610  -30.6780 O   0  0  0  0  0  0  0  0  0  0  0  0
   -3.8070   23.2710  -29.4610 C   0  0  0  0  0  0  0  0  0  0  0  0
   -4.5890   24.5690  -29.6500 C   0  0  0  0  0  0  0  0  0  0  0  0
   -3.8700   25.4430  -30.4710 O   0  0  0  0  0  0  0  0  0  0  0  0
   -4.5950   20.4340  -32.9050 C   0  0  0  0  0  0  0  0  0  0  0  0
   -5.9810   20.5070  -32.7220 C   0  0  0  0  0  0  0  0  0  0  0  0
   -6.7908   24.1150  -31.9498 H   0  0  0  0  0  0  0  0  0  0  0  0
   -7.0976   22.6751  -32.9790 H   0  0  0  0  0  0  0  0  0  0  0  0
   -8.2613   24.0434  -32.9790 H   0  0  0  0  0  0  0  0  0  0  0  0
   -7.9002   22.6515  -29.1935 H   0  0  0  0  0  0  0  0  0  0  0  0
   -7.1734   21.3738  -30.2258 H   0  0  0  0  0  0  0  0  0  0  0  0
   -6.4800   23.0309  -30.2258 H   0  0  0  0  0  0  0  0  0  0  0  0
  -10.2238   22.0233  -31.6099 H   0  0  0  0  0  0  0  0  0  0  0  0
   -8.8858   21.4788  -32.7399 H   0  0  0  0  0  0  0  0  0  0  0  0
   -8.0717   20.4678  -30.3054 H   0  0  0  0  0  0  0  0  0  0  0  0
   -9.8656   20.2666  -30.2434 H   0  0  0  0  0  0  0  0  0  0  0  0
   -8.3365   18.3910  -31.3385 H   0  0  0  0  0  0  0  0  0  0  0  0
   -9.9167   18.8567  -32.0833 H   0  0  0  0  0  0  0  0  0  0  0  0
   -8.7900   19.8190  -33.9160 H   0  0  0  0  0  0  0  0  0  0  0  0
   -6.7959   17.5770  -34.3343 H   0  0  0  0  0  0  0  0  0  0  0  0
   -4.3007   17.5150  -34.6437 H   0  0  0  0  0  0  0  0  0  0  0  0
   -1.9058   18.9908  -34.1253 H   0  0  0  0  0  0  0  0  0  0  0  0
   -1.3570   21.7130  -30.6060 H   0  0  0  0  0  0  0  0  0  0  0  0
    0.1850   22.3200  -31.2920 H   0  0  0  0  0  0  0  0  0  0  0  0
   -4.4972   22.4817  -29.1283 H   0  0  0  0  0  0  0  0  0  0  0  0
   -3.0229   23.4437  -28.7091 H   0  0  0  0  0  0  0  0  0  0  0  0
   -5.5595   24.3453  -30.1170 H   0  0  0  0  0  0  0  0  0  0  0  0
   -4.7481   25.0418  -28.6696 H   0  0  0  0  0  0  0  0  0  0  0  0
   -3.5400   24.8970  -31.2300 H   0  0  0  0  0  0  0  0  0  0  0  0
   -6.4326   21.3512  -32.1804 H   0  0  0  0  0  0  0  0  0  0  0  0
  1  2  1  0
  2  3  1  0
  2  4  1  0
  4  5  1  0
  5  6  1  0
  6  7  1  0
  7  8  1  0
  8  9  2  0
  9 10  1  0
 10 11  2  0
 11 12  1  0
 12 13  2  0
 13 14  1  0
 14 15  1  0
 14 16  2  0
 13 17  1  0
 17 18  1  0
 18 19  2  0
 18 20  1  0
 20 21  1  0
 21 22  1  0
 22 23  1  0
 17 24  1  0
 24 25  2  0
 25  8  1  0
 24 11  1  0
  1 26  1  0
  1 27  1  0
  1 28  1  0
  3 29  1  0
  3 30  1  0
  3 31  1  0
  4 32  1  0
  4 33  1  0
  5 34  1  0
  5 35  1  0
  6 36  1  0
  6 37  1  0
  7 38  1  0
  9 39  1  0
 10 40  1  0
 12 41  1  0
 15 42  1  0
 15 43  1  0
 21 44  1  0
 21 45  1  0
 22 46  1  0
 22 47  1  0
 23 48  1  0
 25 49  1  0
M  END
>  <UniqueID>  (5) 
5

>  <SMILES>  (5) 
CN(C)CCCNc1ccc2cc(C(N)=O)n(C(=O)OCCO)c2c1

>  <Energy>  (5) 
82.25301688225012

>  <Genealogy>  (5) 
CN(C)CCCNc1ccc2cc(C(N)=O)n(C(=O)OCCO)c2c1 (3D coordinates assigned)
CN(C)CCCNc1ccc2cc(C(N)=O)n(C(=O)OCCO)c2c1 (optimized conformer: 82.25301688225012 kcal/mol)

>  <smiles>  (5) 
CN(C)CCCNc1ccc2cc(C(N)=O)n(C(=O)OCCO)c2c1

>  <score_type>  (5) 
oracle

>  <origin>  (5) 
adg

>  <m_score__min__energy>  (5) 
-9.1300000000000008

>  <m_primary>  (5) 
energy

$$$$
5:0
     RDKit          3D

 45 46  0  0  0  0  0  0  0  0999 V2000
   -5.6700   15.6690  -33.4770 C   0  0  0  0  0  0  0  0  0  0  0  0
   -6.2010   16.7650  -34.2740 N   0  0  0  0  0  0  0  0  0  0  0  0
   -6.3890   18.1000  -33.7900 C   0  0  0  0  0  0  0  0  0  0  0  0
   -6.0860   19.0640  -34.5450 O   0  0  0  0  0  0  0  0  0  0  0  0
   -7.0130   18.3680  -32.4420 C   0  0  0  0  0  0  0  0  0  0  0  0
   -7.1310   19.8450  -32.1630 C   0  0  0  0  0  0  0  0  0  0  0  0
   -8.3900   20.4870  -32.2570 C   0  0  0  0  0  0  0  0  0  0  0  0
   -8.5170   21.8580  -31.9760 C   0  0  0  0  0  0  0  0  0  0  0  0
   -7.3760   22.5520  -31.5870 C   0  0  0  0  0  0  0  0  0  0  0  0
   -7.2160   23.8810  -31.2660 C   0  0  0  0  0  0  0  0  0  0  0  0
   -5.8670   24.0240  -30.9500 C   0  0  0  0  0  0  0  0  0  0  0  0
   -5.2830   25.2820  -30.4420 C   0  0  0  0  0  0  0  0  0  0  0  0
   -3.9670   25.6630  -30.8370 N   0  0  0  0  0  0  0  0  0  0  0  0
   -5.9500   26.0490  -29.6990 O   0  0  0  0  0  0  0  0  0  0  0  0
   -5.2150   22.8330  -31.0780 N   0  0  0  0  0  0  0  0  0  0  0  0
   -3.8110   22.5710  -30.9150 C   0  0  0  0  0  0  0  0  0  0  0  0
   -2.9660   23.2530  -31.5570 O   0  0  0  0  0  0  0  0  0  0  0  0
   -3.3700   21.5750  -29.9850 N   0  0  0  0  0  0  0  0  0  0  0  0
   -2.8330   21.8760  -28.6610 C   0  0  0  0  0  0  0  0  0  0  0  0
   -1.8210   23.0280  -28.7180 C   0  0  0  0  0  0  0  0  0  0  0  0
   -2.4880   24.3400  -28.5560 N   0  0  0  0  0  0  0  0  0  0  0  0
   -3.6740   24.2000  -27.6970 C   0  0  0  0  0  0  0  0  0  0  0  0
   -1.5720   25.3340  -27.9700 C   0  0  0  0  0  0  0  0  0  0  0  0
   -6.1540   21.9410  -31.4650 C   0  0  0  0  0  0  0  0  0  0  0  0
   -5.9950   20.5810  -31.7590 C   0  0  0  0  0  0  0  0  0  0  0  0
   -5.7838   15.9040  -32.4084 H   0  0  0  0  0  0  0  0  0  0  0  0
   -6.2207   14.7457  -33.7101 H   0  0  0  0  0  0  0  0  0  0  0  0
   -4.6041   15.5290  -33.7101 H   0  0  0  0  0  0  0  0  0  0  0  0
   -8.0174   17.9200  -32.4193 H   0  0  0  0  0  0  0  0  0  0  0  0
   -6.3649   17.9253  -31.6713 H   0  0  0  0  0  0  0  0  0  0  0  0
   -9.2766   19.9070  -32.5527 H   0  0  0  0  0  0  0  0  0  0  0  0
   -9.4886   22.3666  -32.0610 H   0  0  0  0  0  0  0  0  0  0  0  0
   -7.9890   24.6636  -31.2603 H   0  0  0  0  0  0  0  0  0  0  0  0
   -3.1300   25.1570  -30.4720 H   0  0  0  0  0  0  0  0  0  0  0  0
   -3.6610   22.1592  -27.9945 H   0  0  0  0  0  0  0  0  0  0  0  0
   -2.3182   20.9802  -28.2835 H   0  0  0  0  0  0  0  0  0  0  0  0
   -1.0850   22.8984  -27.9109 H   0  0  0  0  0  0  0  0  0  0  0  0
   -1.3285   23.0085  -29.7014 H   0  0  0  0  0  0  0  0  0  0  0  0
   -3.3682   24.2361  -26.6410 H   0  0  0  0  0  0  0  0  0  0  0  0
   -4.3756   25.0216  -27.9039 H   0  0  0  0  0  0  0  0  0  0  0  0
   -4.1650   23.2377  -27.9039 H   0  0  0  0  0  0  0  0  0  0  0  0
   -1.6236   25.2780  -26.8726 H   0  0  0  0  0  0  0  0  0  0  0  0
   -0.5438   25.1244  -28.2999 H   0  0  0  0  0  0  0  0  0  0  0  0
   -1.8647   26.3417  -28.2999 H   0  0  0  0  0  0  0  0  0  0  0  0
   -5.0101   20.0980  -31.6774 H   0  0  0  0  0  0  0  0  0  0  0  0
  1  2  1  0
  2  3  1  0
  3  4  2  0
  3  5  1  0
  5  6  1  0
  6  7  2  0
  7  8  1  0
  8  9  2  0
  9 10  1  0
 10 11  2  0
 11 12  1  0
 12 13  1  0
 12 14  2  0
 11 15  1  0
 15 16  1  0
 16 17  2  0
 16 18  1  0
 18 19  1  0
 19 20  1  0
 20 21  1  0
 21 22  1  0
 21 23  1  0
 15 24  1  0
 24 25  2  0
 25  6  1  0
 24  9  1  0
  1 26  1  0
  1 27  1  0
  1 28  1  0
  5 29  1  0
  5 30  1  0
  7 31  1  0
  8 32  1  0
 10 33  1  0
 13 34  1  0
 19 35  1  0
 19 36  1  0
 20 37  1  0
 20 38  1  0
 22 39  1  0
 22 40  1  0
 22 41  1  0
 23 42  1  0
 23 43  1  0
 23 44  1  0
 25 45  1  0
M  CHG  3   2  -1  13  -1  18  -1
M  END
>  <UniqueID>  (6) 
6

>  <SMILES>  (6) 
C[N-]C(=O)Cc1ccc2cc(C([NH-])=O)n(C(=O)[N-]CCN(C)C)c2c1

>  <Energy>  (6) 
78.04730574812325

>  <Genealogy>  (6) 
C[N-]C(=O)Cc1ccc2cc(C([NH-])=O)n(C(=O)[N-]CCN(C)C)c2c1 (protonated)
C[N-]C(=O)Cc1ccc2cc(C([NH-])=O)n(C(=O)[N-]CCN(C)C)c2c1 (3D coordinates assigned)
C[N-]C(=O)Cc1ccc2cc(C([NH-])=O)n(C(=O)[N-]CCN(C)C)c2c1 (optimized conformer: 78.04730574812325 kcal/mol)

>  <smiles>  (6) 
CNC(=O)Cc1ccc2cc(C(N)=O)n(C(=O)NCCN(C)C)c2c1

>  <score_type>  (6) 
oracle

>  <origin>  (6) 
adg

>  <m_score__min__energy>  (6) 
-10.630000000000001

>  <m_primary>  (6) 
energy

$$$$
6:0
     RDKit          3D

 46 48  0  0  0  0  0  0  0  0999 V2000
   -1.6050   20.4340  -25.5930 C   0  0  0  0  0  0  0  0  0  0  0  0
   -2.0410   19.8260  -26.9390 C   0  0  0  0  0  0  0  0  0  0  0  0
   -0.8940   18.9350  -27.4670 C   0  0  0  0  0  0  0  0  0  0  0  0
   -3.2870   18.9440  -26.7380 C   0  0  0  0  0  0  0  0  0  0  0  0
   -2.3520   20.9120  -27.8970 N   0  0  0  0  0  0  0  0  0  0  0  0
   -3.1880   20.8180  -29.0970 C   0  0  0  0  0  0  0  0  0  0  0  0
   -3.1630   22.2080  -29.6740 C   0  0  0  0  0  0  0  0  0  0  0  0
   -3.8610   22.5970  -30.9130 C   0  0  0  0  0  0  0  0  0  0  0  0
   -3.1880   22.8450  -31.9490 O   0  0  0  0  0  0  0  0  0  0  0  0
   -5.2910   22.7150  -30.9560 N   0  0  0  0  0  0  0  0  0  0  0  0
   -6.0300   23.8500  -30.8110 C   0  0  0  0  0  0  0  0  0  0  0  0
   -5.5060   25.1770  -30.4270 C   0  0  0  0  0  0  0  0  0  0  0  0
   -4.1940   25.5970  -30.8060 N   0  0  0  0  0  0  0  0  0  0  0  0
   -6.2140   25.9390  -29.7160 O   0  0  0  0  0  0  0  0  0  0  0  0
   -7.3740   23.5970  -31.0770 C   0  0  0  0  0  0  0  0  0  0  0  0
   -7.4370   22.2580  -31.3890 C   0  0  0  0  0  0  0  0  0  0  0  0
   -8.5220   21.4770  -31.7750 C   0  0  0  0  0  0  0  0  0  0  0  0
   -8.2840   20.1290  -32.0960 C   0  0  0  0  0  0  0  0  0  0  0  0
   -6.9740   19.5860  -32.0240 C   0  0  0  0  0  0  0  0  0  0  0  0
   -6.7220   18.1570  -32.4320 C   0  0  0  0  0  0  0  0  0  0  0  0
   -6.2540   18.0960  -33.7330 F   0  0  0  0  0  0  0  0  0  0  0  0
   -7.8890   17.4160  -32.3580 F   0  0  0  0  0  0  0  0  0  0  0  0
   -5.7810   17.6020  -31.5870 F   0  0  0  0  0  0  0  0  0  0  0  0
   -5.8940   20.4220  -31.6580 C   0  0  0  0  0  0  0  0  0  0  0  0
   -6.1650   21.7510  -31.3170 C   0  0  0  0  0  0  0  0  0  0  0  0
   -2.4070   23.0250  -28.9470 C   0  0  0  0  0  0  0  0  0  0  0  0
   -1.8930   22.2600  -27.8390 C   0  0  0  0  0  0  0  0  0  0  0  0
   -1.1400   22.7210  -26.9410 O   0  0  0  0  0  0  0  0  0  0  0  0
   -2.0294   19.8421  -24.7687 H   0  0  0  0  0  0  0  0  0  0  0  0
   -0.5072   20.4237  -25.5244 H   0  0  0  0  0  0  0  0  0  0  0  0
   -1.9669   21.4705  -25.5244 H   0  0  0  0  0  0  0  0  0  0  0  0
   -0.3420   18.5062  -26.6176 H   0  0  0  0  0  0  0  0  0  0  0  0
   -1.3127   18.1230  -28.0796 H   0  0  0  0  0  0  0  0  0  0  0  0
   -0.2108   19.5416  -28.0796 H   0  0  0  0  0  0  0  0  0  0  0  0
   -3.4732   18.8122  -25.6619 H   0  0  0  0  0  0  0  0  0  0  0  0
   -4.1579   19.4279  -27.2042 H   0  0  0  0  0  0  0  0  0  0  0  0
   -3.1201   17.9618  -27.2042 H   0  0  0  0  0  0  0  0  0  0  0  0
   -2.7681   20.0923  -29.8091 H   0  0  0  0  0  0  0  0  0  0  0  0
   -4.2083   20.4727  -28.8738 H   0  0  0  0  0  0  0  0  0  0  0  0
   -3.5080   24.9280  -31.2180 H   0  0  0  0  0  0  0  0  0  0  0  0
   -3.8680   26.5610  -30.5740 H   0  0  0  0  0  0  0  0  0  0  0  0
   -8.2072   24.3145  -31.0446 H   0  0  0  0  0  0  0  0  0  0  0  0
   -9.5355   21.9015  -31.8274 H   0  0  0  0  0  0  0  0  0  0  0  0
   -9.1221   19.4878  -32.4064 H   0  0  0  0  0  0  0  0  0  0  0  0
   -4.8641   20.0359  -31.6418 H   0  0  0  0  0  0  0  0  0  0  0  0
   -2.2103   24.0875  -29.1529 H   0  0  0  0  0  0  0  0  0  0  0  0
  1  2  1  0
  2  3  1  0
  2  4  1  0
  2  5  1  0
  5  6  1  0
  6  7  1  0
  7  8  1  0
  8  9  2  0
  8 10  1  0
 10 11  1  0
 11 12  1  0
 12 13  1  0
 12 14  2  0
 11 15  2  0
 15 16  1  0
 16 17  2  0
 17 18  1  0
 18 19  2  0
 19 20  1  0
 20 21  1  0
 20 22  1  0
 20 23  1  0
 19 24  1  0
 24 25  2  0
  7 26  2  0
 26 27  1  0
 27 28  2  0
 27  5  1  0
 25 10  1  0
 25 16  1  0
  1 29  1  0
  1 30  1  0
  1 31  1  0
  3 32  1  0
  3 33  1  0
  3 34  1  0
  4 35  1  0
  4 36  1  0
  4 37  1  0
  6 38  1  0
  6 39  1  0
 13 40  1  0
 13 41  1  0
 15 42  1  0
 17 43  1  0
 18 44  1  0
 24 45  1  0
 26 46  1  0
M  END
>  <UniqueID>  (7) 
7

>  <SMILES>  (7) 
CC(C)(C)N1CC(C(=O)n2c(C(N)=O)cc3ccc(C(F)(F)F)cc32)=CC1=O

>  <Energy>  (7) 
100.32395064871345

>  <Genealogy>  (7) 
CC(C)(C)N1CC(C(=O)n2c(C(N)=O)cc3ccc(C(F)(F)F)cc32)=CC1=O (3D coordinates assigned)
CC(C)(C)N1CC(C(=O)n2c(C(N)=O)cc3ccc(C(F)(F)F)cc32)=CC1=O (nonaromatic ring conformer: 100.32395064871345 kcal/mol)

>  <smiles>  (7) 
CC(C)(C)N1CC(C(=O)n2c(C(N)=O)cc3ccc(C(F)(F)F)cc32)=CC1=O

>  <score_type>  (7) 
oracle

>  <origin>  (7) 
adg

>  <m_score__min__energy>  (7) 
-9.5800000000000001

>  <m_primary>  (7) 
energy

$$$$
7:0
     RDKit          3D

 62 65  0  0  0  0  0  0  0  0999 V2000
   -2.1680   24.6870  -27.6640 C   0  0  0  0  0  0  0  0  0  0  0  0
   -3.6300   24.4930  -27.6780 N   0  0  0  0  0  0  0  0  0  0  0  0
   -4.2330   24.9260  -26.4060 C   0  0  0  0  0  0  0  0  0  0  0  0
   -4.0220   23.1150  -28.0610 C   0  0  0  0  0  0  0  0  0  0  0  0
   -2.8600   22.0920  -28.1340 C   0  0  0  0  0  0  0  0  0  0  0  0
   -2.2180   22.0250  -29.5230 C   0  0  0  0  0  0  0  0  0  0  0  0
   -2.7980   23.0250  -30.3510 O   0  0  0  0  0  0  0  0  0  0  0  0
   -3.5970   22.7250  -31.4580 C   0  0  0  0  0  0  0  0  0  0  0  0
   -3.0750   22.3120  -32.5290 O   0  0  0  0  0  0  0  0  0  0  0  0
   -5.0230   22.8540  -31.3580 N   0  0  0  0  0  0  0  0  0  0  0  0
   -5.7420   23.9220  -30.9070 C   0  0  0  0  0  0  0  0  0  0  0  0
   -5.1920   25.1330  -30.2630 C   0  0  0  0  0  0  0  0  0  0  0  0
   -3.9060   25.6310  -30.6180 N   0  0  0  0  0  0  0  0  0  0  0  0
   -5.8440   25.7060  -29.3520 O   0  0  0  0  0  0  0  0  0  0  0  0
   -7.1080   23.6850  -31.0530 C   0  0  0  0  0  0  0  0  0  0  0  0
   -7.2050   22.4260  -31.6010 C   0  0  0  0  0  0  0  0  0  0  0  0
   -8.3290   21.6890  -31.9600 C   0  0  0  0  0  0  0  0  0  0  0  0
   -8.1290   20.4190  -32.5280 C   0  0  0  0  0  0  0  0  0  0  0  0
   -6.8190   19.9150  -32.7380 C   0  0  0  0  0  0  0  0  0  0  0  0
   -6.6250   18.6080  -33.3140 N   0  0  0  0  0  0  0  0  0  0  0  0
   -6.9480   17.3900  -32.5580 C   0  0  0  0  0  0  0  0  0  0  0  0
   -5.7470   16.4220  -32.5500 C   0  0  0  0  0  0  0  0  0  0  0  0
   -4.9460   16.4570  -33.8040 N   0  0  0  0  0  0  0  0  0  0  0  0
   -3.5030   16.7610  -33.5670 C   0  0  0  0  0  0  0  0  0  0  0  0
   -3.1950   18.1740  -33.1090 C   0  0  0  0  0  0  0  0  0  0  0  0
   -2.3900   18.4400  -34.2340 O   0  0  0  0  0  0  0  0  0  0  0  0
   -2.6190   17.1470  -34.7440 C   0  0  0  0  0  0  0  0  0  0  0  0
   -5.6670   17.0370  -34.9590 C   0  0  0  0  0  0  0  0  0  0  0  0
   -6.1030   18.4790  -34.6820 C   0  0  0  0  0  0  0  0  0  0  0  0
   -5.7050   20.6940  -32.3550 C   0  0  0  0  0  0  0  0  0  0  0  0
   -5.9330   21.9470  -31.7730 C   0  0  0  0  0  0  0  0  0  0  0  0
   -1.8143   24.7339  -26.6235 H   0  0  0  0  0  0  0  0  0  0  0  0
   -1.6815   23.8455  -28.1790 H   0  0  0  0  0  0  0  0  0  0  0  0
   -1.9178   25.6262  -28.1790 H   0  0  0  0  0  0  0  0  0  0  0  0
   -4.0080   25.1270  -28.4230 H   0  0  0  0  0  0  0  0  0  0  0  0
   -3.6556   24.5114  -25.5666 H   0  0  0  0  0  0  0  0  0  0  0  0
   -4.2230   26.0246  -26.3507 H   0  0  0  0  0  0  0  0  0  0  0  0
   -5.2708   24.5655  -26.3507 H   0  0  0  0  0  0  0  0  0  0  0  0
   -4.7496   22.7506  -27.3209 H   0  0  0  0  0  0  0  0  0  0  0  0
   -4.4287   23.1867  -29.0806 H   0  0  0  0  0  0  0  0  0  0  0  0
   -2.0898   22.3815  -27.4039 H   0  0  0  0  0  0  0  0  0  0  0  0
   -3.2774   21.0986  -27.9126 H   0  0  0  0  0  0  0  0  0  0  0  0
   -1.1353   22.1997  -29.4375 H   0  0  0  0  0  0  0  0  0  0  0  0
   -2.3903   21.0321  -29.9640 H   0  0  0  0  0  0  0  0  0  0  0  0
   -3.0360   25.1860  -30.2520 H   0  0  0  0  0  0  0  0  0  0  0  0
   -7.9338   24.3611  -30.7866 H   0  0  0  0  0  0  0  0  0  0  0  0
   -9.3423   22.0876  -31.8042 H   0  0  0  0  0  0  0  0  0  0  0  0
   -8.9983   19.8083  -32.8132 H   0  0  0  0  0  0  0  0  0  0  0  0
   -7.1992   17.6631  -31.5225 H   0  0  0  0  0  0  0  0  0  0  0  0
   -7.8028   16.8909  -33.0377 H   0  0  0  0  0  0  0  0  0  0  0  0
   -5.0897   16.6901  -31.7097 H   0  0  0  0  0  0  0  0  0  0  0  0
   -6.1532   15.4042  -32.4547 H   0  0  0  0  0  0  0  0  0  0  0  0
   -3.3333   15.8464  -32.9798 H   0  0  0  0  0  0  0  0  0  0  0  0
   -4.0851   18.8173  -33.0459 H   0  0  0  0  0  0  0  0  0  0  0  0
   -2.7710   18.3258  -32.1054 H   0  0  0  0  0  0  0  0  0  0  0  0
   -3.1474   17.1436  -35.7088 H   0  0  0  0  0  0  0  0  0  0  0  0
   -1.7558   16.5120  -34.9922 H   0  0  0  0  0  0  0  0  0  0  0  0
   -5.0036   17.0264  -35.8364 H   0  0  0  0  0  0  0  0  0  0  0  0
   -6.5680   16.4331  -35.1420 H   0  0  0  0  0  0  0  0  0  0  0  0
   -5.2382   19.1478  -34.8035 H   0  0  0  0  0  0  0  0  0  0  0  0
   -6.8977   18.7518  -35.3920 H   0  0  0  0  0  0  0  0  0  0  0  0
   -4.6806   20.3245  -32.5105 H   0  0  0  0  0  0  0  0  0  0  0  0
  1  2  1  0
  2  3  1  0
  2  4  1  0
  4  5  1  0
  5  6  1  0
  6  7  1  0
  7  8  1  0
  8  9  2  0
  8 10  1  0
 10 11  1  0
 11 12  1  0
 12 13  1  0
 12 14  2  0
 11 15  2  0
 15 16  1  0
 16 17  2  0
 17 18  1  0
 18 19  2  0
 19 20  1  0
 20 21  1  0
 21 22  1  0
 22 23  1  0
 23 24  1  0
 24 25  1  0
 25 26  1  0
 26 27  1  0
 23 28  1  0
 28 29  1  0
 19 30  1  0
 30 31  2  0
 31 10  1  0
 31 16  1  0
 29 20  1  0
 27 24  1  0
  1 32  1  0
  1 33  1  0
  1 34  1  0
  2 35  1  0
  3 36  1  0
  3 37  1  0
  3 38  1  0
  4 39  1  0
  4 40  1  0
  5 41  1  0
  5 42  1  0
  6 43  1  0
  6 44  1  0
 13 45  1  0
 15 46  1  0
 17 47  1  0
 18 48  1  0
 21 49  1  0
 21 50  1  0
 22 51  1  0
 22 52  1  0
 24 53  1  0
 25 54  1  0
 25 55  1  0
 27 56  1  0
 27 57  1  0
 28 58  1  0
 28 59  1  0
 29 60  1  0
 29 61  1  0
 30 62  1  0
M  CHG  2   2   1  13  -1
M  END
>  <UniqueID>  (8) 
8

>  <SMILES>  (8) 
C[NH+](C)CCCOC(=O)n1c(C([NH-])=O)cc2ccc(N3CCN(C4COC4)CC3)cc21

>  <Energy>  (8) 
191.21955889852052

>  <Genealogy>  (8) 
C[NH+](C)CCCOC(=O)n1c(C([NH-])=O)cc2ccc(N3CCN(C4COC4)CC3)cc21 (protonated)
C[NH+](C)CCCOC(=O)n1c(C([NH-])=O)cc2ccc(N3CCN(C4COC4)CC3)cc21 (3D coordinates assigned)
C[NH+](C)CCCOC(=O)n1c(C([NH-])=O)cc2ccc(N3CCN(C4COC4)CC3)cc21 (nonaromatic ring conformer: 191.21955889852052 kcal/mol)

>  <smiles>  (8) 
CN(C)CCCOC(=O)n1c(C(N)=O)cc2ccc(N3CCN(C4COC4)CC3)cc21

>  <score_type>  (8) 
oracle

>  <origin>  (8) 
adg

>  <m_score__min__energy>  (8) 
-10.15

>  <m_primary>  (8) 
energy

$$$$
8:0
     RDKit          3D

 34 35  0  0  0  0  0  0  0  0999 V2000
   -3.4970   22.1020  -29.1760 C   0  0  0  0  0  0  0  0  0  0  0  0
   -2.9880   22.7550  -30.3920 N   0  0  0  0  0  0  0  0  0  0  0  0
   -1.6360   22.2690  -30.7150 C   0  0  0  0  0  0  0  0  0  0  0  0
   -3.9000   22.5210  -31.4880 C   0  0  0  0  0  0  0  0  0  0  0  0
   -3.4930   21.9710  -32.5500 O   0  0  0  0  0  0  0  0  0  0  0  0
   -5.2960   22.8370  -31.3510 N   0  0  0  0  0  0  0  0  0  0  0  0
   -5.8450   23.9900  -30.8740 C   0  0  0  0  0  0  0  0  0  0  0  0
   -5.1070   25.2130  -30.4870 C   0  0  0  0  0  0  0  0  0  0  0  0
   -3.6830   25.2350  -30.4520 N   0  0  0  0  0  0  0  0  0  0  0  0
   -5.7450   26.2630  -30.2060 O   0  0  0  0  0  0  0  0  0  0  0  0
   -7.2350   23.8890  -30.8410 C   0  0  0  0  0  0  0  0  0  0  0  0
   -7.5210   22.6280  -31.3120 C   0  0  0  0  0  0  0  0  0  0  0  0
   -8.7480   21.9920  -31.4800 C   0  0  0  0  0  0  0  0  0  0  0  0
   -8.7440   20.6710  -31.9590 C   0  0  0  0  0  0  0  0  0  0  0  0
   -7.5240   20.0090  -32.2430 C   0  0  0  0  0  0  0  0  0  0  0  0
   -7.5330   18.6040  -32.7730 C   0  0  0  0  0  0  0  0  0  0  0  0
   -6.4670   18.4370  -33.7650 C   0  0  0  0  0  0  0  0  0  0  0  0
   -5.6270   18.3050  -34.5500 N   0  0  0  0  0  0  0  0  0  0  0  0
   -6.2990   20.6910  -32.0680 C   0  0  0  0  0  0  0  0  0  0  0  0
   -6.3340   22.0120  -31.6090 C   0  0  0  0  0  0  0  0  0  0  0  0
   -3.0968   22.6154  -28.2892 H   0  0  0  0  0  0  0  0  0  0  0  0
   -4.5957   22.1533  -29.1648 H   0  0  0  0  0  0  0  0  0  0  0  0
   -3.1790   21.0490  -29.1648 H   0  0  0  0  0  0  0  0  0  0  0  0
   -2.9300   23.7830  -30.2020 H   0  0  0  0  0  0  0  0  0  0  0  0
   -1.0853   22.0710  -29.7836 H   0  0  0  0  0  0  0  0  0  0  0  0
   -1.7102   21.3413  -31.3013 H   0  0  0  0  0  0  0  0  0  0  0  0
   -1.1026   23.0317  -31.3013 H   0  0  0  0  0  0  0  0  0  0  0  0
   -3.1330   25.6750  -31.2240 H   0  0  0  0  0  0  0  0  0  0  0  0
   -7.9513   24.6549  -30.5089 H   0  0  0  0  0  0  0  0  0  0  0  0
   -9.6910   22.5074  -31.2451 H   0  0  0  0  0  0  0  0  0  0  0  0
   -9.6977   20.1456  -32.1150 H   0  0  0  0  0  0  0  0  0  0  0  0
   -7.3721   17.9003  -31.9430 H   0  0  0  0  0  0  0  0  0  0  0  0
   -8.5043   18.4031  -33.2486 H   0  0  0  0  0  0  0  0  0  0  0  0
   -5.3417   20.1956  -32.2872 H   0  0  0  0  0  0  0  0  0  0  0  0
  1  2  1  0
  2  3  1  0
  2  4  1  0
  4  5  2  0
  4  6  1  0
  6  7  1  0
  7  8  1  0
  8  9  1  0
  8 10  2  0
  7 11  2  0
 11 12  1  0
 12 13  2  0
 13 14  1  0
 14 15  2  0
 15 16  1  0
 16 17  1  0
 17 18  3  0
 15 19  1  0
 19 20  2  0
 20  6  1  0
 20 12  1  0
  1 21  1  0
  1 22  1  0
  1 23  1  0
  2 24  1  0
  3 25  1  0
  3 26  1  0
  3 27  1  0
  9 28  1  0
 11 29  1  0
 13 30  1  0
 14 31  1  0
 16 32  1  0
 16 33  1  0
 19 34  1  0
M  CHG  2   2   1   9  -1
M  END
>  <UniqueID>  (9) 
9

>  <SMILES>  (9) 
C[NH+](C)C(=O)n1c(C([NH-])=O)cc2ccc(CC#N)cc21

>  <Energy>  (9) 
72.38936269757265

>  <Genealogy>  (9) 
C[NH+](C)C(=O)n1c(C([NH-])=O)cc2ccc(CC#N)cc21 (protonated)
C[NH+](C)C(=O)n1c(C([NH-])=O)cc2ccc(CC#N)cc21 (3D coordinates assigned)
C[NH+](C)C(=O)n1c(C([NH-])=O)cc2ccc(CC#N)cc21 (optimized conformer: 72.38936269757265 kcal/mol)

>  <smiles>  (9) 
CN(C)C(=O)n1c(C(N)=O)cc2ccc(CC#N)cc21

>  <score_type>  (9) 
oracle

>  <origin>  (9) 
adg

>  <m_score__min__energy>  (9) 
-9.1999999999999993

>  <m_primary>  (9) 
energy

$$$$
9:0
     RDKit          3D

 42 44  0  0  0  0  0  0  0  0999 V2000
   -4.0090   24.4480  -27.1920 C   0  0  0  0  0  0  0  0  0  0  0  0
   -2.9400   23.3640  -27.2490 C   0  0  0  0  0  0  0  0  0  0  0  0
   -2.4100   23.0710  -28.9310 S   0  0  0  0  0  0  0  0  0  0  0  0
   -1.0530   22.4230  -28.9290 O   0  0  0  0  0  0  0  0  0  0  0  0
   -2.3150   24.3860  -29.6540 O   0  0  0  0  0  0  0  0  0  0  0  0
   -3.5650   22.0000  -29.7840 C   0  0  0  0  0  0  0  0  0  0  0  0
   -4.0860   22.6030  -31.0620 C   0  0  0  0  0  0  0  0  0  0  0  0
   -3.3130   22.7980  -32.0390 O   0  0  0  0  0  0  0  0  0  0  0  0
   -5.4950   22.8160  -31.2330 N   0  0  0  0  0  0  0  0  0  0  0  0
   -6.1990   23.9400  -30.9240 C   0  0  0  0  0  0  0  0  0  0  0  0
   -5.6300   25.2120  -30.4270 C   0  0  0  0  0  0  0  0  0  0  0  0
   -4.2520   25.5380  -30.6120 N   0  0  0  0  0  0  0  0  0  0  0  0
   -6.3870   26.0460  -29.8620 O   0  0  0  0  0  0  0  0  0  0  0  0
   -7.5620   23.7320  -31.1110 C   0  0  0  0  0  0  0  0  0  0  0  0
   -7.6740   22.4310  -31.5460 C   0  0  0  0  0  0  0  0  0  0  0  0
   -8.8090   21.6860  -31.8450 C   0  0  0  0  0  0  0  0  0  0  0  0
   -8.6370   20.3390  -32.2000 C   0  0  0  0  0  0  0  0  0  0  0  0
   -7.3460   19.7550  -32.2360 C   0  0  0  0  0  0  0  0  0  0  0  0
   -7.2160   18.2850  -32.5870 C   0  0  0  0  0  0  0  0  0  0  0  0
   -6.3180   17.9970  -33.7840 C   0  0  0  0  0  0  0  0  0  0  0  0
   -5.1500   16.9480  -32.8640 S   0  0  0  0  0  0  0  0  0  0  0  0
   -6.3590   17.4850  -31.6140 C   0  0  0  0  0  0  0  0  0  0  0  0
   -6.2140   20.5470  -31.9170 C   0  0  0  0  0  0  0  0  0  0  0  0
   -6.4130   21.8960  -31.6000 C   0  0  0  0  0  0  0  0  0  0  0  0
   -4.2390   24.6813  -26.1419 H   0  0  0  0  0  0  0  0  0  0  0  0
   -3.6404   25.3533  -27.6965 H   0  0  0  0  0  0  0  0  0  0  0  0
   -4.9194   24.0921  -27.6965 H   0  0  0  0  0  0  0  0  0  0  0  0
   -2.0740   23.6815  -26.6496 H   0  0  0  0  0  0  0  0  0  0  0  0
   -3.3659   22.4318  -26.8494 H   0  0  0  0  0  0  0  0  0  0  0  0
   -3.0564   21.0545  -30.0234 H   0  0  0  0  0  0  0  0  0  0  0  0
   -4.4256   21.8432  -29.1170 H   0  0  0  0  0  0  0  0  0  0  0  0
   -3.6460   24.9840  -31.2540 H   0  0  0  0  0  0  0  0  0  0  0  0
   -3.8610   26.4090  -30.1900 H   0  0  0  0  0  0  0  0  0  0  0  0
   -8.3761   24.4532  -30.9464 H   0  0  0  0  0  0  0  0  0  0  0  0
   -9.8109   22.1382  -31.8046 H   0  0  0  0  0  0  0  0  0  0  0  0
   -9.5160   19.7283  -32.4537 H   0  0  0  0  0  0  0  0  0  0  0  0
   -8.2827   18.0299  -32.6716 H   0  0  0  0  0  0  0  0  0  0  0  0
   -6.8373   17.4560  -34.5888 H   0  0  0  0  0  0  0  0  0  0  0  0
   -5.9073   18.8579  -34.3318 H   0  0  0  0  0  0  0  0  0  0  0  0
   -6.9021   16.6457  -31.1549 H   0  0  0  0  0  0  0  0  0  0  0  0
   -5.9753   18.0068  -30.7249 H   0  0  0  0  0  0  0  0  0  0  0  0
   -5.2037   20.1119  -31.9186 H   0  0  0  0  0  0  0  0  0  0  0  0
  1  2  1  0
  2  3  1  0
  3  4  2  0
  3  5  2  0
  3  6  1  0
  6  7  1  0
  7  8  2  0
  7  9  1  0
  9 10  1  0
 10 11  1  0
 11 12  1  0
 11 13  2  0
 10 14  2  0
 14 15  1  0
 15 16  2  0
 16 17  1  0
 17 18  2  0
 18 19  1  0
 19 20  1  0
 20 21  1  0
 21 22  1  0
 18 23  1  0
 23 24  2  0
 24  9  1  0
 24 15  1  0
 22 19  1  0
  1 25  1  0
  1 26  1  0
  1 27  1  0
  2 28  1  0
  2 29  1  0
  6 30  1  0
  6 31  1  0
 12 32  1  0
 12 33  1  0
 14 34  1  0
 16 35  1  0
 17 36  1  0
 19 37  1  0
 20 38  1  0
 20 39  1  0
 22 40  1  0
 22 41  1  0
 23 42  1  0
M  END
>  <UniqueID>  (10) 
10

>  <SMILES>  (10) 
CCS(=O)(=O)CC(=O)n1c(C(N)=O)cc2ccc(C3CSC3)cc21

>  <Energy>  (10) 
109.08097661588617

>  <Genealogy>  (10) 
CCS(=O)(=O)CC(=O)n1c(C(N)=O)cc2ccc(C3CSC3)cc21 (3D coordinates assigned)
CCS(=O)(=O)CC(=O)n1c(C(N)=O)cc2ccc(C3CSC3)cc21 (nonaromatic ring conformer: 109.08097661588617 kcal/mol)

>  <smiles>  (10) 
CCS(=O)(=O)CC(=O)n1c(C(N)=O)cc2ccc(C3CSC3)cc21

>  <score_type>  (10) 
oracle

>  <origin>  (10) 
adg

>  <m_score__min__energy>  (10) 
-9.7899999999999991

>  <m_primary>  (10) 
energy

$$$$
10:0
     RDKit          3D

 33 34  0  0  0  0  0  0  0  0999 V2000
   -4.2190   24.5470  -27.1110 C   0  0  0  0  0  0  0  0  0  0  0  0
   -3.3800   23.4440  -27.4320 O   0  0  0  0  0  0  0  0  0  0  0  0
   -2.8570   23.2420  -28.7130 C   0  0  0  0  0  0  0  0  0  0  0  0
   -2.0300   24.0570  -29.2060 O   0  0  0  0  0  0  0  0  0  0  0  0
   -3.3340   22.0810  -29.5230 C   0  0  0  0  0  0  0  0  0  0  0  0
   -3.8480   22.5740  -30.8400 C   0  0  0  0  0  0  0  0  0  0  0  0
   -3.0410   22.8380  -31.7710 O   0  0  0  0  0  0  0  0  0  0  0  0
   -5.2430   22.8610  -31.0050 N   0  0  0  0  0  0  0  0  0  0  0  0
   -5.8660   24.0660  -30.9020 C   0  0  0  0  0  0  0  0  0  0  0  0
   -5.2240   25.3300  -30.4860 C   0  0  0  0  0  0  0  0  0  0  0  0
   -3.8650   25.5850  -30.8330 N   0  0  0  0  0  0  0  0  0  0  0  0
   -5.8680   26.1950  -29.8360 O   0  0  0  0  0  0  0  0  0  0  0  0
   -7.2180   23.9400  -31.2150 C   0  0  0  0  0  0  0  0  0  0  0  0
   -7.3990   22.6080  -31.5210 C   0  0  0  0  0  0  0  0  0  0  0  0
   -8.5440   21.9240  -31.9170 C   0  0  0  0  0  0  0  0  0  0  0  0
   -8.4280   20.5510  -32.1930 C   0  0  0  0  0  0  0  0  0  0  0  0
   -7.1740   19.8920  -32.0900 C   0  0  0  0  0  0  0  0  0  0  0  0
   -7.0690   18.4110  -32.3530 C   0  0  0  0  0  0  0  0  0  0  0  0
   -6.2600   17.8050  -31.4070 F   0  0  0  0  0  0  0  0  0  0  0  0
   -8.3170   17.8150  -32.3000 F   0  0  0  0  0  0  0  0  0  0  0  0
   -6.5240   18.2090  -33.6070 F   0  0  0  0  0  0  0  0  0  0  0  0
   -6.0400   20.6190  -31.6560 C   0  0  0  0  0  0  0  0  0  0  0  0
   -6.1900   21.9810  -31.3840 C   0  0  0  0  0  0  0  0  0  0  0  0
   -4.2936   24.6450  -26.0179 H   0  0  0  0  0  0  0  0  0  0  0  0
   -3.7913   25.4682  -27.5334 H   0  0  0  0  0  0  0  0  0  0  0  0
   -5.2209   24.3807  -27.5334 H   0  0  0  0  0  0  0  0  0  0  0  0
   -2.5003   21.3835  -29.6918 H   0  0  0  0  0  0  0  0  0  0  0  0
   -4.1402   21.5621  -28.9838 H   0  0  0  0  0  0  0  0  0  0  0  0
   -3.1630   24.8110  -30.8580 H   0  0  0  0  0  0  0  0  0  0  0  0
   -7.9789   24.7343  -31.2174 H   0  0  0  0  0  0  0  0  0  0  0  0
   -9.5099   22.4418  -32.0111 H   0  0  0  0  0  0  0  0  0  0  0  0
   -9.3191   19.9798  -32.4924 H   0  0  0  0  0  0  0  0  0  0  0  0
   -5.0650   20.1241  -31.5359 H   0  0  0  0  0  0  0  0  0  0  0  0
  1  2  1  0
  2  3  1  0
  3  4  2  0
  3  5  1  0
  5  6  1  0
  6  7  2  0
  6  8  1  0
  8  9  1  0
  9 10  1  0
 10 11  1  0
 10 12  2  0
  9 13  2  0
 13 14  1  0
 14 15  2  0
 15 16  1  0
 16 17  2  0
 17 18  1  0
 18 19  1  0
 18 20  1  0
 18 21  1  0
 17 22  1  0
 22 23  2  0
 23  8  1  0
 23 14  1  0
  1 24  1  0
  1 25  1  0
  1 26  1  0
  5 27  1  0
  5 28  1  0
 11 29  1  0
 13 30  1  0
 15 31  1  0
 16 32  1  0
 22 33  1  0
M  CHG  1  11  -1
M  END
>  <UniqueID>  (11) 
11

>  <SMILES>  (11) 
COC(=O)CC(=O)n1c(C([NH-])=O)cc2ccc(C(F)(F)F)cc21

>  <Energy>  (11) 
68.03441219180183

>  <Genealogy>  (11) 
COC(=O)CC(=O)n1c(C([NH-])=O)cc2ccc(C(F)(F)F)cc21 (protonated)
COC(=O)CC(=O)n1c(C([NH-])=O)cc2ccc(C(F)(F)F)cc21 (3D coordinates assigned)
COC(=O)CC(=O)n1c(C([NH-])=O)cc2ccc(C(F)(F)F)cc21 (optimized conformer: 68.03441219180183 kcal/mol)

>  <smiles>  (11) 
COC(=O)CC(=O)n1c(C(N)=O)cc2ccc(C(F)(F)F)cc21

>  <score_type>  (11) 
oracle

>  <origin>  (11) 
adg

>  <m_score__min__energy>  (11) 
-9.2100000000000009

>  <m_primary>  (11) 
energy

$$$$
11:0
     RDKit          3D

 45 47  0  0  0  0  0  0  0  0999 V2000
   -3.5420   15.2680  -33.9240 C   0  0  0  0  0  0  0  0  0  0  0  0
   -4.3470   16.4750  -33.6740 N   0  0  0  0  0  0  0  0  0  0  0  0
   -5.2630   16.2570  -32.5240 C   0  0  0  0  0  0  0  0  0  0  0  0
   -6.4800   17.2070  -32.5240 C   0  0  0  0  0  0  0  0  0  0  0  0
   -6.2070   18.4070  -33.3230 N   0  0  0  0  0  0  0  0  0  0  0  0
   -6.4720   19.7240  -32.8000 C   0  0  0  0  0  0  0  0  0  0  0  0
   -7.8050   20.1940  -32.6910 C   0  0  0  0  0  0  0  0  0  0  0  0
   -8.0770   21.4750  -32.1800 C   0  0  0  0  0  0  0  0  0  0  0  0
   -7.0000   22.2560  -31.7740 C   0  0  0  0  0  0  0  0  0  0  0  0
   -6.9760   23.5330  -31.2640 C   0  0  0  0  0  0  0  0  0  0  0  0
   -5.6300   23.8180  -31.0380 C   0  0  0  0  0  0  0  0  0  0  0  0
   -5.1560   25.0660  -30.4060 C   0  0  0  0  0  0  0  0  0  0  0  0
   -3.9290   25.6550  -30.8330 N   0  0  0  0  0  0  0  0  0  0  0  0
   -5.8380   25.6390  -29.5180 O   0  0  0  0  0  0  0  0  0  0  0  0
   -4.8520   22.7570  -31.4020 N   0  0  0  0  0  0  0  0  0  0  0  0
   -3.4180   22.6640  -31.3770 C   0  0  0  0  0  0  0  0  0  0  0  0
   -2.7630   23.2770  -30.4900 O   0  0  0  0  0  0  0  0  0  0  0  0
   -2.7560   21.9150  -32.3550 O   0  0  0  0  0  0  0  0  0  0  0  0
   -2.1190   20.6680  -32.0900 C   0  0  0  0  0  0  0  0  0  0  0  0
   -2.5420   19.6450  -33.0960 C   0  0  0  0  0  0  0  0  0  0  0  0
   -2.7630   19.9800  -34.2890 O   0  0  0  0  0  0  0  0  0  0  0  0
   -2.6670   18.3150  -32.7190 O   0  0  0  0  0  0  0  0  0  0  0  0
   -5.7060   21.8100  -31.8470 C   0  0  0  0  0  0  0  0  0  0  0  0
   -5.4060   20.5460  -32.3690 C   0  0  0  0  0  0  0  0  0  0  0  0
   -5.7320   18.2430  -34.7030 C   0  0  0  0  0  0  0  0  0  0  0  0
   -5.0840   16.8640  -34.8950 C   0  0  0  0  0  0  0  0  0  0  0  0
   -3.2438   14.8209  -32.9642 H   0  0  0  0  0  0  0  0  0  0  0  0
   -4.1376   14.5423  -34.4973 H   0  0  0  0  0  0  0  0  0  0  0  0
   -2.6432   15.5390  -34.4973 H   0  0  0  0  0  0  0  0  0  0  0  0
   -3.6810   17.2460  -33.4270 H   0  0  0  0  0  0  0  0  0  0  0  0
   -5.6292   15.2204  -32.5610 H   0  0  0  0  0  0  0  0  0  0  0  0
   -4.6899   16.4617  -31.6077 H   0  0  0  0  0  0  0  0  0  0  0  0
   -7.3476   16.6810  -32.9489 H   0  0  0  0  0  0  0  0  0  0  0  0
   -6.6866   17.5138  -31.4880 H   0  0  0  0  0  0  0  0  0  0  0  0
   -8.6365   19.5485  -33.0101 H   0  0  0  0  0  0  0  0  0  0  0  0
   -9.1090   21.8480  -32.1036 H   0  0  0  0  0  0  0  0  0  0  0  0
   -7.8370   24.1908  -31.0744 H   0  0  0  0  0  0  0  0  0  0  0  0
   -3.0130   25.2940  -30.4870 H   0  0  0  0  0  0  0  0  0  0  0  0
   -1.0281   20.7993  -32.1426 H   0  0  0  0  0  0  0  0  0  0  0  0
   -2.4091   20.3241  -31.0862 H   0  0  0  0  0  0  0  0  0  0  0  0
   -4.3642   20.2004  -32.4420 H   0  0  0  0  0  0  0  0  0  0  0  0
   -6.5840   18.3404  -35.3919 H   0  0  0  0  0  0  0  0  0  0  0  0
   -4.9805   19.0186  -34.9124 H   0  0  0  0  0  0  0  0  0  0  0  0
   -5.8672   16.1193  -35.1001 H   0  0  0  0  0  0  0  0  0  0  0  0
   -4.3816   16.9106  -35.7402 H   0  0  0  0  0  0  0  0  0  0  0  0
  1  2  1  0
  2  3  1  0
  3  4  1  0
  4  5  1  0
  5  6  1  0
  6  7  2  0
  7  8  1  0
  8  9  2  0
  9 10  1  0
 10 11  2  0
 11 12  1  0
 12 13  1  0
 12 14  2  0
 11 15  1  0
 15 16  1  0
 16 17  2  0
 16 18  1  0
 18 19  1  0
 19 20  1  0
 20 21  2  0
 20 22  1  0
 15 23  1  0
 23 24  2  0
  5 25  1  0
 25 26  1  0
 26  2  1  0
 24  6  1  0
 23  9  1  0
  1 27  1  0
  1 28  1  0
  1 29  1  0
  2 30  1  0
  3 31  1  0
  3 32  1  0
  4 33  1  0
  4 34  1  0
  7 35  1  0
  8 36  1  0
 10 37  1  0
 13 38  1  0
 19 39  1  0
 19 40  1  0
 24 41  1  0
 25 42  1  0
 25 43  1  0
 26 44  1  0
 26 45  1  0
M  CHG  3   2   1  13  -1  22  -1
M  END
>  <UniqueID>  (12) 
12

>  <SMILES>  (12) 
C[NH+]1CCN(c2ccc3cc(C([NH-])=O)n(C(=O)OCC(=O)[O-])c3c2)CC1

>  <Energy>  (12) 
92.08626127769928

>  <Genealogy>  (12) 
C[NH+]1CCN(c2ccc3cc(C([NH-])=O)n(C(=O)OCC(=O)[O-])c3c2)CC1 (protonated)
C[NH+]1CCN(c2ccc3cc(C([NH-])=O)n(C(=O)OCC(=O)[O-])c3c2)CC1 (3D coordinates assigned)
C[NH+]1CCN(c2ccc3cc(C([NH-])=O)n(C(=O)OCC(=O)[O-])c3c2)CC1 (nonaromatic ring conformer: 92.08626127769928 kcal/mol)

>  <smiles>  (12) 
CN1CCN(c2ccc3cc(C(N)=O)n(C(=O)OCC(=O)O)c3c2)CC1

>  <score_type>  (12) 
oracle

>  <origin>  (12) 
adg

>  <m_score__min__energy>  (12) 
-12.31

>  <m_primary>  (12) 
energy

$$$$
12:0
     RDKit          3D

 43 44  0  0  0  0  0  0  0  0999 V2000
   -3.5260   26.0500  -31.2250 H   0  0  0  0  0  0  0  0  0  0  0  0
   -3.5760   25.2930  -30.5070 N   0  0  0  0  0  0  0  0  0  0  0  0
   -4.8010   24.6170  -30.2420 C   0  0  0  0  0  0  0  0  0  0  0  0
   -4.9040   23.8740  -29.2290 O   0  0  0  0  0  0  0  0  0  0  0  0
   -5.9810   24.8310  -31.1370 C   0  0  0  0  0  0  0  0  0  0  0  0
   -5.6607   25.3752  -32.0377 H   0  0  0  0  0  0  0  0  0  0  0  0
   -6.7411   25.4152  -30.5976 H   0  0  0  0  0  0  0  0  0  0  0  0
   -6.5710   23.5070  -31.5390 C   0  0  0  0  0  0  0  0  0  0  0  0
   -7.9680   23.2870  -31.4450 C   0  0  0  0  0  0  0  0  0  0  0  0
   -8.6240   24.0932  -31.0848 H   0  0  0  0  0  0  0  0  0  0  0  0
   -8.5220   22.0480  -31.8080 C   0  0  0  0  0  0  0  0  0  0  0  0
   -9.6074   21.8763  -31.7580 H   0  0  0  0  0  0  0  0  0  0  0  0
   -7.6560   21.0440  -32.2330 C   0  0  0  0  0  0  0  0  0  0  0  0
   -7.9260   19.7660  -32.6700 C   0  0  0  0  0  0  0  0  0  0  0  0
   -8.9114   19.2855  -32.7597 H   0  0  0  0  0  0  0  0  0  0  0  0
   -6.6850   19.2120  -32.9740 C   0  0  0  0  0  0  0  0  0  0  0  0
   -6.5050   17.8260  -33.4550 C   0  0  0  0  0  0  0  0  0  0  0  0
   -6.9030   16.8690  -32.7400 O   0  0  0  0  0  0  0  0  0  0  0  0
   -5.8390   17.5480  -34.6870 N   0  0  0  0  0  0  0  0  0  0  0  0
   -5.7670   16.5650  -35.0320 H   0  0  0  0  0  0  0  0  0  0  0  0
   -5.3300   18.2950  -35.2090 H   0  0  0  0  0  0  0  0  0  0  0  0
   -5.6880   20.1100  -32.7400 N   0  0  0  0  0  0  0  0  0  0  0  0
   -4.2870   19.9560  -33.0200 C   0  0  0  0  0  0  0  0  0  0  0  0
   -3.9200   19.5240  -34.1470 O   0  0  0  0  0  0  0  0  0  0  0  0
   -3.2890   20.2920  -31.9900 C   0  0  0  0  0  0  0  0  0  0  0  0
   -3.1873   19.6303  -31.1172 H   0  0  0  0  0  0  0  0  0  0  0  0
   -2.5030   21.3680  -32.0740 C   0  0  0  0  0  0  0  0  0  0  0  0
   -2.5482   22.0037  -32.9706 H   0  0  0  0  0  0  0  0  0  0  0  0
   -1.5580   21.7230  -30.9620 C   0  0  0  0  0  0  0  0  0  0  0  0
   -0.7308   22.3222  -31.3702 H   0  0  0  0  0  0  0  0  0  0  0  0
   -1.1759   20.7930  -30.5159 H   0  0  0  0  0  0  0  0  0  0  0  0
   -2.2470   22.5020  -29.9110 N   0  0  0  0  0  0  0  0  0  0  0  0
   -1.3180   23.4370  -29.2530 C   0  0  0  0  0  0  0  0  0  0  0  0
   -1.4133   23.3411  -28.1613 H   0  0  0  0  0  0  0  0  0  0  0  0
   -0.2864   23.2010  -29.5532 H   0  0  0  0  0  0  0  0  0  0  0  0
   -1.5607   24.4671  -29.5532 H   0  0  0  0  0  0  0  0  0  0  0  0
   -2.8270   21.5950  -28.9090 C   0  0  0  0  0  0  0  0  0  0  0  0
   -2.5909   21.9641  -27.9000 H   0  0  0  0  0  0  0  0  0  0  0  0
   -3.9186   21.5551  -29.0388 H   0  0  0  0  0  0  0  0  0  0  0  0
   -2.4053   20.5874  -29.0388 H   0  0  0  0  0  0  0  0  0  0  0  0
   -6.2990   21.2300  -32.2920 C   0  0  0  0  0  0  0  0  0  0  0  0
   -5.7240   22.4640  -31.9710 C   0  0  0  0  0  0  0  0  0  0  0  0
   -4.6379   22.6178  -32.0533 H   0  0  0  0  0  0  0  0  0  0  0  0
  1  2  1  0
  2  3  1  0
  3  4  2  0
  3  5  1  0
  5  6  1  0
  5  7  1  0
  5  8  1  0
  8  9  2  0
  9 10  1  0
  9 11  1  0
 11 12  1  0
 11 13  2  0
 13 14  1  0
 14 15  1  0
 14 16  2  0
 16 17  1  0
 17 18  2  0
 17 19  1  0
 19 20  1  0
 19 21  1  0
 16 22  1  0
 22 23  1  0
 23 24  2  0
 23 25  1  0
 25 26  1  0
 25 27  2  0
 27 28  1  0
 27 29  1  0
 29 30  1  0
 29 31  1  0
 29 32  1  0
 32 33  1  0
 33 34  1  0
 33 35  1  0
 33 36  1  0
 32 37  1  0
 37 38  1  0
 37 39  1  0
 37 40  1  0
 22 41  1  0
 41 42  2  0
 42 43  1  0
 42  8  1  0
 41 13  1  0
M  CHG  1   2  -1
M  END
>  <UniqueID>  (13) 
13

>  <SMILES>  (13) 
CN(C)C/C=C/C(=O)n1c(C(N)=O)cc2ccc(CC([NH-])=O)cc21

>  <Energy>  (13) 
76.62255055892126

>  <Genealogy>  (13) 
CN(C)C/C=C/C(=O)n1c(C(N)=O)cc2ccc(CC([NH-])=O)cc21 (protonated)
CN(C)C/C=C/C(=O)n1c(C(N)=O)cc2ccc(CC([NH-])=O)cc21 (cis-trans isomerization)
CN(C)C/C=C/C(=O)n1c(C(N)=O)cc2ccc(CC([NH-])=O)cc21 (3D coordinates assigned)
CN(C)C/C=C/C(=O)n1c(C(N)=O)cc2ccc(CC([NH-])=O)cc21 (optimized conformer: 76.62255055892126 kcal/mol)

>  <smiles>  (13) 
CN(C)C/C=C/C(=O)n1c(C(N)=O)cc2ccc(CC(N)=O)cc21

>  <score_type>  (13) 
oracle

>  <origin>  (13) 
adg

>  <m_score__min__energy>  (13) 
-10.369999999999999

>  <m_primary>  (13) 
energy

$$$$
13:0
     RDKit          3D

 42 43  0  0  0  0  0  0  0  0999 V2000
   -3.1140   25.3000  -29.4990 H   0  0  0  0  0  0  0  0  0  0  0  0
   -3.5060   24.9510  -30.4010 N   0  0  0  0  0  0  0  0  0  0  0  0
   -4.9020   25.0570  -30.6810 C   0  0  0  0  0  0  0  0  0  0  0  0
   -5.4290   26.2010  -30.7490 O   0  0  0  0  0  0  0  0  0  0  0  0
   -5.7320   23.8550  -30.9160 C   0  0  0  0  0  0  0  0  0  0  0  0
   -7.0590   23.7440  -30.5010 C   0  0  0  0  0  0  0  0  0  0  0  0
   -7.6429   24.4821  -29.9316 H   0  0  0  0  0  0  0  0  0  0  0  0
   -7.4830   22.5170  -30.9540 C   0  0  0  0  0  0  0  0  0  0  0  0
   -8.7140   21.8830  -30.8100 C   0  0  0  0  0  0  0  0  0  0  0  0
   -9.5474   22.3758  -30.2878 H   0  0  0  0  0  0  0  0  0  0  0  0
   -8.8600   20.5940  -31.3520 C   0  0  0  0  0  0  0  0  0  0  0  0
   -9.8232   20.0706  -31.2612 H   0  0  0  0  0  0  0  0  0  0  0  0
   -7.7780   19.9630  -32.0140 C   0  0  0  0  0  0  0  0  0  0  0  0
   -7.9390   18.5880  -32.5970 C   0  0  0  0  0  0  0  0  0  0  0  0
   -8.1256   18.6739  -33.6777 H   0  0  0  0  0  0  0  0  0  0  0  0
   -6.7860   17.8550  -32.3820 F   0  0  0  0  0  0  0  0  0  0  0  0
   -9.0070   17.9470  -31.9940 F   0  0  0  0  0  0  0  0  0  0  0  0
   -6.5440   20.6360  -32.1420 C   0  0  0  0  0  0  0  0  0  0  0  0
   -5.6911   20.1589  -32.6470 H   0  0  0  0  0  0  0  0  0  0  0  0
   -6.4330   21.9260  -31.6100 C   0  0  0  0  0  0  0  0  0  0  0  0
   -5.3520   22.7370  -31.6000 N   0  0  0  0  0  0  0  0  0  0  0  0
   -4.0550   22.4280  -32.1310 C   0  0  0  0  0  0  0  0  0  0  0  0
   -3.9060   22.3000  -33.3770 O   0  0  0  0  0  0  0  0  0  0  0  0
   -2.9070   22.2620  -31.2180 C   0  0  0  0  0  0  0  0  0  0  0  0
   -2.2423   23.1208  -31.0429 H   0  0  0  0  0  0  0  0  0  0  0  0
   -2.6440   21.1090  -30.5960 C   0  0  0  0  0  0  0  0  0  0  0  0
   -3.3056   20.2464  -30.7639 H   0  0  0  0  0  0  0  0  0  0  0  0
   -1.4700   20.9610  -29.6750 C   0  0  0  0  0  0  0  0  0  0  0  0
   -1.8326   20.8002  -28.6490 H   0  0  0  0  0  0  0  0  0  0  0  0
   -0.8666   20.1016  -30.0026 H   0  0  0  0  0  0  0  0  0  0  0  0
   -0.6590   22.1340  -29.7080 O   0  0  0  0  0  0  0  0  0  0  0  0
   -0.9330   23.2930  -28.9740 C   0  0  0  0  0  0  0  0  0  0  0  0
   -2.1110   23.5590  -28.6080 O   0  0  0  0  0  0  0  0  0  0  0  0
    0.1410   24.1790  -28.6510 N   0  0  0  0  0  0  0  0  0  0  0  0
    0.1560   25.0550  -27.4820 C   0  0  0  0  0  0  0  0  0  0  0  0
   -0.0982   24.4671  -26.5877 H   0  0  0  0  0  0  0  0  0  0  0  0
    1.1609   25.4909  -27.3815 H   0  0  0  0  0  0  0  0  0  0  0  0
   -0.8580   26.1920  -27.6400 C   0  0  0  0  0  0  0  0  0  0  0  0
   -1.7054   26.0145  -26.9615 H   0  0  0  0  0  0  0  0  0  0  0  0
   -0.3592   27.1414  -27.3954 H   0  0  0  0  0  0  0  0  0  0  0  0
   -1.3330   26.2650  -28.9560 O   0  0  0  0  0  0  0  0  0  0  0  0
   -1.6130   25.3470  -29.2070 H   0  0  0  0  0  0  0  0  0  0  0  0
  1  2  1  0
  2  3  1  0
  3  4  2  0
  3  5  1  0
  5  6  2  0
  6  7  1  0
  6  8  1  0
  8  9  2  0
  9 10  1  0
  9 11  1  0
 11 12  1  0
 11 13  2  0
 13 14  1  0
 14 15  1  0
 14 16  1  0
 14 17  1  0
 13 18  1  0
 18 19  1  0
 18 20  2  0
 20 21  1  0
 21 22  1  0
 22 23  2  0
 22 24  1  0
 24 25  1  0
 24 26  2  0
 26 27  1  0
 26 28  1  0
 28 29  1  0
 28 30  1  0
 28 31  1  0
 31 32  1  0
 32 33  2  0
 32 34  1  0
 34 35  1  0
 35 36  1  0
 35 37  1  0
 35 38  1  0
 38 39  1  0
 38 40  1  0
 38 41  1  0
 41 42  1  0
 21  5  1  0
 20  8  1  0
M  CHG  2   2  -1  34  -1
M  END
>  <UniqueID>  (14) 
14

>  <SMILES>  (14) 
[NH-]C(=O)c1cc2ccc(C(F)F)cc2n1C(=O)/C=C/COC(=O)[N-]CCO

>  <Energy>  (14) 
74.77158173068331

>  <Genealogy>  (14) 
[NH-]C(=O)c1cc2ccc(C(F)F)cc2n1C(=O)/C=C/COC(=O)[N-]CCO (protonated)
[NH-]C(=O)c1cc2ccc(C(F)F)cc2n1C(=O)/C=C/COC(=O)[N-]CCO (cis-trans isomerization)
[NH-]C(=O)c1cc2ccc(C(F)F)cc2n1C(=O)/C=C/COC(=O)[N-]CCO (3D coordinates assigned)
[NH-]C(=O)c1cc2ccc(C(F)F)cc2n1C(=O)/C=C/COC(=O)[N-]CCO (optimized conformer: 74.77158173068331 kcal/mol)

>  <smiles>  (14) 
NC(=O)c1cc2ccc(C(F)F)cc2n1C(=O)/C=C/COC(=O)NCCO

>  <score_type>  (14) 
oracle

>  <origin>  (14) 
adg

>  <m_score__min__energy>  (14) 
-11.06

>  <m_primary>  (14) 
energy

$$$$
14:0
     RDKit          3D

 48 50  0  0  0  0  0  0  0  0999 V2000
   -3.3570   20.8510  -29.7970 C   0  0  0  0  0  0  0  0  0  0  0  0
   -3.0440   21.8360  -30.8300 N   0  0  0  0  0  0  0  0  0  0  0  0
   -1.6690   22.3070  -31.0110 C   0  0  0  0  0  0  0  0  0  0  0  0
   -1.0080   22.5700  -29.6540 C   0  0  0  0  0  0  0  0  0  0  0  0
   -1.8000   23.6020  -28.8490 C   0  0  0  0  0  0  0  0  0  0  0  0
   -1.8890   24.8070  -29.5600 O   0  0  0  0  0  0  0  0  0  0  0  0
   -4.0700   22.2300  -31.7530 C   0  0  0  0  0  0  0  0  0  0  0  0
   -3.8110   22.3010  -32.9830 O   0  0  0  0  0  0  0  0  0  0  0  0
   -5.3690   22.6020  -31.2780 N   0  0  0  0  0  0  0  0  0  0  0  0
   -5.7160   23.7090  -30.5650 C   0  0  0  0  0  0  0  0  0  0  0  0
   -4.7800   24.7070  -30.0070 C   0  0  0  0  0  0  0  0  0  0  0  0
   -4.1550   25.6730  -30.8460 N   0  0  0  0  0  0  0  0  0  0  0  0
   -4.5030   24.6830  -28.7780 O   0  0  0  0  0  0  0  0  0  0  0  0
   -7.0990   23.7680  -30.4050 C   0  0  0  0  0  0  0  0  0  0  0  0
   -7.5860   22.6390  -31.0280 C   0  0  0  0  0  0  0  0  0  0  0  0
   -8.8920   22.1810  -31.1660 C   0  0  0  0  0  0  0  0  0  0  0  0
   -9.0980   20.9690  -31.8460 C   0  0  0  0  0  0  0  0  0  0  0  0
   -7.9990   20.2250  -32.3540 C   0  0  0  0  0  0  0  0  0  0  0  0
   -8.1780   18.9790  -33.0580 N   0  0  0  0  0  0  0  0  0  0  0  0
   -7.2500   17.8360  -33.0950 C   0  0  0  0  0  0  0  0  0  0  0  0
   -6.4370   17.6510  -31.8200 C   0  0  0  0  0  0  0  0  0  0  0  0
   -5.1520   17.8240  -32.6260 C   0  0  0  0  0  0  0  0  0  0  0  0
   -5.9660   18.0410  -33.8980 C   0  0  0  0  0  0  0  0  0  0  0  0
   -6.6920   20.7350  -32.2020 C   0  0  0  0  0  0  0  0  0  0  0  0
   -6.5210   21.9520  -31.5390 C   0  0  0  0  0  0  0  0  0  0  0  0
   -3.2135   21.3026  -28.8043 H   0  0  0  0  0  0  0  0  0  0  0  0
   -4.4025   20.5265  -29.9046 H   0  0  0  0  0  0  0  0  0  0  0  0
   -2.6906   19.9825  -29.9046 H   0  0  0  0  0  0  0  0  0  0  0  0
   -1.0927   21.5420  -31.5520 H   0  0  0  0  0  0  0  0  0  0  0  0
   -1.6873   23.2451  -31.5852 H   0  0  0  0  0  0  0  0  0  0  0  0
   -0.9638   21.6285  -29.0870 H   0  0  0  0  0  0  0  0  0  0  0  0
    0.0045   22.9632  -29.8278 H   0  0  0  0  0  0  0  0  0  0  0  0
   -2.8126   23.2160  -28.6602 H   0  0  0  0  0  0  0  0  0  0  0  0
   -1.2838   23.7857  -27.8952 H   0  0  0  0  0  0  0  0  0  0  0  0
   -2.7350   24.7660  -30.0820 H   0  0  0  0  0  0  0  0  0  0  0  0
   -3.1730   25.5400  -31.1780 H   0  0  0  0  0  0  0  0  0  0  0  0
   -7.6785   24.5490  -29.8911 H   0  0  0  0  0  0  0  0  0  0  0  0
   -9.7384   22.7508  -30.7550 H   0  0  0  0  0  0  0  0  0  0  0  0
  -10.1216   20.5917  -31.9868 H   0  0  0  0  0  0  0  0  0  0  0  0
   -8.9030   18.9760  -33.8130 H   0  0  0  0  0  0  0  0  0  0  0  0
   -7.9707   17.0717  -33.4212 H   0  0  0  0  0  0  0  0  0  0  0  0
   -6.6025   18.4317  -31.0629 H   0  0  0  0  0  0  0  0  0  0  0  0
   -6.5848   16.7649  -31.1852 H   0  0  0  0  0  0  0  0  0  0  0  0
   -4.5496   18.6942  -32.3264 H   0  0  0  0  0  0  0  0  0  0  0  0
   -4.3710   17.0501  -32.5945 H   0  0  0  0  0  0  0  0  0  0  0  0
   -5.8622   19.0455  -34.3341 H   0  0  0  0  0  0  0  0  0  0  0  0
   -5.7670   17.4441  -34.8003 H   0  0  0  0  0  0  0  0  0  0  0  0
   -5.8255   20.1850  -32.5978 H   0  0  0  0  0  0  0  0  0  0  0  0
  1  2  1  0
  2  3  1  0
  3  4  1  0
  4  5  1  0
  5  6  1  0
  2  7  1  0
  7  8  2  0
  7  9  1  0
  9 10  1  0
 10 11  1  0
 11 12  1  0
 11 13  2  0
 10 14  2  0
 14 15  1  0
 15 16  2  0
 16 17  1  0
 17 18  2  0
 18 19  1  0
 19 20  1  0
 20 21  1  0
 21 22  1  0
 22 23  1  0
 18 24  1  0
 24 25  2  0
 25  9  1  0
 25 15  1  0
 23 20  1  0
  1 26  1  0
  1 27  1  0
  1 28  1  0
  3 29  1  0
  3 30  1  0
  4 31  1  0
  4 32  1  0
  5 33  1  0
  5 34  1  0
  6 35  1  0
 12 36  1  0
 14 37  1  0
 16 38  1  0
 17 39  1  0
 19 40  1  0
 20 41  1  0
 21 42  1  0
 21 43  1  0
 22 44  1  0
 22 45  1  0
 23 46  1  0
 23 47  1  0
 24 48  1  0
M  CHG  1  12  -1
M  END
>  <UniqueID>  (15) 
15

>  <SMILES>  (15) 
CN(CCCO)C(=O)n1c(C([NH-])=O)cc2ccc(NC3CCC3)cc21

>  <Energy>  (15) 
155.69407700800429

>  <Genealogy>  (15) 
CN(CCCO)C(=O)n1c(C([NH-])=O)cc2ccc(NC3CCC3)cc21 (protonated)
CN(CCCO)C(=O)n1c(C([NH-])=O)cc2ccc(NC3CCC3)cc21 (3D coordinates assigned)
CN(CCCO)C(=O)n1c(C([NH-])=O)cc2ccc(NC3CCC3)cc21 (nonaromatic ring conformer: 155.69407700800429 kcal/mol)

>  <smiles>  (15) 
CN(CCCO)C(=O)n1c(C(N)=O)cc2ccc(NC3CCC3)cc21

>  <score_type>  (15) 
oracle

>  <origin>  (15) 
adg

>  <m_score__min__energy>  (15) 
-11.029999999999999

>  <m_primary>  (15) 
energy

$$$$
15:0
     RDKit          3D

 43 45  0  0  0  0  0  0  0  0999 V2000
   -3.9390   25.6390  -30.8420 N   0  0  0  0  0  0  0  0  0  0  0  0
   -5.1640   25.0660  -30.3900 C   0  0  0  0  0  0  0  0  0  0  0  0
   -5.8110   25.6370  -29.4720 O   0  0  0  0  0  0  0  0  0  0  0  0
   -5.6510   23.8040  -30.9850 C   0  0  0  0  0  0  0  0  0  0  0  0
   -6.9920   23.5420  -31.2630 C   0  0  0  0  0  0  0  0  0  0  0  0
   -7.0060   22.2890  -31.8350 C   0  0  0  0  0  0  0  0  0  0  0  0
   -8.0720   21.5230  -32.2820 C   0  0  0  0  0  0  0  0  0  0  0  0
   -7.8000   20.2470  -32.8000 C   0  0  0  0  0  0  0  0  0  0  0  0
   -6.4650   19.7370  -32.8680 C   0  0  0  0  0  0  0  0  0  0  0  0
   -6.1890   18.4030  -33.4070 N   0  0  0  0  0  0  0  0  0  0  0  0
   -7.1670   17.3190  -33.1510 C   0  0  0  0  0  0  0  0  0  0  0  0
   -6.8580   15.9790  -33.8280 C   0  0  0  0  0  0  0  0  0  0  0  0
   -5.3610   15.6720  -33.8330 C   0  0  0  0  0  0  0  0  0  0  0  0
   -5.1080   14.3490  -34.4410 N   0  0  0  0  0  0  0  0  0  0  0  0
   -5.7170   13.3720  -33.7070 O   0  0  0  0  0  0  0  0  0  0  0  0
   -3.7700   14.1040  -34.4230 O   0  0  0  0  0  0  0  0  0  0  0  0
   -4.6930   16.7690  -34.6610 C   0  0  0  0  0  0  0  0  0  0  0  0
   -4.8620   18.1470  -34.0160 C   0  0  0  0  0  0  0  0  0  0  0  0
   -5.4130   20.5640  -32.3810 C   0  0  0  0  0  0  0  0  0  0  0  0
   -5.7180   21.8370  -31.8890 C   0  0  0  0  0  0  0  0  0  0  0  0
   -4.8730   22.7580  -31.3770 N   0  0  0  0  0  0  0  0  0  0  0  0
   -3.4520   22.6200  -31.2190 C   0  0  0  0  0  0  0  0  0  0  0  0
   -2.7350   22.3910  -32.2310 O   0  0  0  0  0  0  0  0  0  0  0  0
   -2.8070   22.7400  -29.8690 C   0  0  0  0  0  0  0  0  0  0  0  0
   -3.7540   23.0000  -28.8940 F   0  0  0  0  0  0  0  0  0  0  0  0
   -1.8820   23.7660  -29.8880 F   0  0  0  0  0  0  0  0  0  0  0  0
   -1.9800   21.2160  -29.4620 Cl  0  0  0  0  0  0  0  0  0  0  0  0
   -3.0210   25.2980  -30.4780 H   0  0  0  0  0  0  0  0  0  0  0  0
   -7.8544   24.1961  -31.0673 H   0  0  0  0  0  0  0  0  0  0  0  0
   -9.1024   21.9048  -32.2320 H   0  0  0  0  0  0  0  0  0  0  0  0
   -8.6321   19.6251  -33.1618 H   0  0  0  0  0  0  0  0  0  0  0  0
   -7.2078   17.1487  -32.0650 H   0  0  0  0  0  0  0  0  0  0  0  0
   -8.1190   17.6628  -33.5816 H   0  0  0  0  0  0  0  0  0  0  0  0
   -7.3830   15.1782  -33.2866 H   0  0  0  0  0  0  0  0  0  0  0  0
   -7.1958   16.0404  -34.8731 H   0  0  0  0  0  0  0  0  0  0  0  0
   -4.9607   15.6466  -32.8087 H   0  0  0  0  0  0  0  0  0  0  0  0
   -5.0450   13.0080  -33.0680 H   0  0  0  0  0  0  0  0  0  0  0  0
   -3.6960   13.1160  -34.4470 H   0  0  0  0  0  0  0  0  0  0  0  0
   -3.6195   16.5457  -34.7488 H   0  0  0  0  0  0  0  0  0  0  0  0
   -5.1729   16.7922  -35.6505 H   0  0  0  0  0  0  0  0  0  0  0  0
   -4.1011   18.2491  -33.2282 H   0  0  0  0  0  0  0  0  0  0  0  0
   -4.7546   18.8790  -34.8300 H   0  0  0  0  0  0  0  0  0  0  0  0
   -4.3730   20.2058  -32.3917 H   0  0  0  0  0  0  0  0  0  0  0  0
  1  2  1  0
  2  3  2  0
  2  4  1  0
  4  5  2  0
  5  6  1  0
  6  7  2  0
  7  8  1  0
  8  9  2  0
  9 10  1  0
 10 11  1  0
 11 12  1  0
 12 13  1  0
 13 14  1  0
 14 15  1  0
 14 16  1  0
 13 17  1  0
 17 18  1  0
  9 19  1  0
 19 20  2  0
 20 21  1  0
 21 22  1  0
 22 23  2  0
 22 24  1  0
 24 25  1  0
 24 26  1  0
 24 27  1  0
 21  4  1  0
 20  6  1  0
 18 10  1  0
  1 28  1  0
  5 29  1  0
  7 30  1  0
  8 31  1  0
 11 32  1  0
 11 33  1  0
 12 34  1  0
 12 35  1  0
 13 36  1  0
 15 37  1  0
 16 38  1  0
 17 39  1  0
 17 40  1  0
 18 41  1  0
 18 42  1  0
 19 43  1  0
M  CHG  1   1  -1
M  END
>  <UniqueID>  (16) 
16

>  <SMILES>  (16) 
[NH-]C(=O)c1cc2ccc(N3CCC(N(O)O)CC3)cc2n1C(=O)C(F)(F)Cl

>  <Energy>  (16) 
92.23089649445369

>  <Genealogy>  (16) 
[NH-]C(=O)c1cc2ccc(N3CCC(N(O)O)CC3)cc2n1C(=O)C(F)(F)Cl (protonated)
[NH-]C(=O)c1cc2ccc(N3CCC(N(O)O)CC3)cc2n1C(=O)C(F)(F)Cl (3D coordinates assigned)
[NH-]C(=O)c1cc2ccc(N3CCC(N(O)O)CC3)cc2n1C(=O)C(F)(F)Cl (nonaromatic ring conformer: 92.23089649445369 kcal/mol)

>  <smiles>  (16) 
NC(=O)c1cc2ccc(N3CCC(N(O)O)CC3)cc2n1C(=O)C(F)(F)Cl

>  <score_type>  (16) 
oracle

>  <origin>  (16) 
adg

>  <m_score__min__energy>  (16) 
-9.9000000000000004

>  <m_primary>  (16) 
energy

$$$$
16:0
     RDKit          3D

 38 39  0  0  0  0  0  0  0  0999 V2000
   -9.1260   21.8770  -31.6010 C   0  0  0  0  0  0  0  0  0  0  0  0
   -9.0350   20.3620  -31.7530 C   0  0  0  0  0  0  0  0  0  0  0  0
   -8.3680   20.0070  -33.0070 N   0  0  0  0  0  0  0  0  0  0  0  0
   -6.9410   19.8860  -33.1730 C   0  0  0  0  0  0  0  0  0  0  0  0
   -6.3620   18.8560  -33.9630 C   0  0  0  0  0  0  0  0  0  0  0  0
   -4.9690   18.7700  -34.1230 C   0  0  0  0  0  0  0  0  0  0  0  0
   -4.1780   19.7180  -33.4820 C   0  0  0  0  0  0  0  0  0  0  0  0
   -2.8130   19.8850  -33.5000 C   0  0  0  0  0  0  0  0  0  0  0  0
   -2.5700   21.0000  -32.7000 C   0  0  0  0  0  0  0  0  0  0  0  0
   -1.2150   21.4960  -32.3920 C   0  0  0  0  0  0  0  0  0  0  0  0
   -0.8400   21.8480  -31.0590 N   0  0  0  0  0  0  0  0  0  0  0  0
   -0.3550   21.5610  -33.3100 O   0  0  0  0  0  0  0  0  0  0  0  0
   -3.7380   21.5110  -32.2190 N   0  0  0  0  0  0  0  0  0  0  0  0
   -3.9150   22.7210  -31.4620 C   0  0  0  0  0  0  0  0  0  0  0  0
   -3.1830   22.9540  -30.4620 O   0  0  0  0  0  0  0  0  0  0  0  0
   -4.9290   23.6570  -31.8390 N   0  0  0  0  0  0  0  0  0  0  0  0
   -5.8260   24.2810  -30.8780 C   0  0  0  0  0  0  0  0  0  0  0  0
   -5.2870   25.6520  -30.4910 C   0  0  0  0  0  0  0  0  0  0  0  0
   -3.8910   25.6530  -30.5910 O   0  0  0  0  0  0  0  0  0  0  0  0
   -4.7150   20.7110  -32.7060 C   0  0  0  0  0  0  0  0  0  0  0  0
   -6.1000   20.8330  -32.5460 C   0  0  0  0  0  0  0  0  0  0  0  0
   -9.1417   22.1380  -30.5325 H   0  0  0  0  0  0  0  0  0  0  0  0
   -8.2544   22.3466  -32.0804 H   0  0  0  0  0  0  0  0  0  0  0  0
  -10.0475   22.2389  -32.0804 H   0  0  0  0  0  0  0  0  0  0  0  0
   -8.4625   19.9482  -30.9098 H   0  0  0  0  0  0  0  0  0  0  0  0
  -10.0532   19.9458  -31.7638 H   0  0  0  0  0  0  0  0  0  0  0  0
   -8.9800   19.8200  -33.8320 H   0  0  0  0  0  0  0  0  0  0  0  0
   -7.0123   18.1176  -34.4548 H   0  0  0  0  0  0  0  0  0  0  0  0
   -4.5172   17.9768  -34.7368 H   0  0  0  0  0  0  0  0  0  0  0  0
   -2.0719   19.2703  -34.0318 H   0  0  0  0  0  0  0  0  0  0  0  0
   -1.4720   21.6520  -30.2520 H   0  0  0  0  0  0  0  0  0  0  0  0
    0.1080   22.2390  -30.8670 H   0  0  0  0  0  0  0  0  0  0  0  0
   -6.8235   24.3935  -31.3278 H   0  0  0  0  0  0  0  0  0  0  0  0
   -5.8959   23.6493  -29.9802 H   0  0  0  0  0  0  0  0  0  0  0  0
   -5.7030   26.4132  -31.1674 H   0  0  0  0  0  0  0  0  0  0  0  0
   -5.5792   25.8804  -29.4554 H   0  0  0  0  0  0  0  0  0  0  0  0
   -3.6600   24.9230  -31.2230 H   0  0  0  0  0  0  0  0  0  0  0  0
   -6.5255   21.6496  -31.9443 H   0  0  0  0  0  0  0  0  0  0  0  0
  1  2  1  0
  2  3  1  0
  3  4  1  0
  4  5  2  0
  5  6  1  0
  6  7  2  0
  7  8  1  0
  8  9  2  0
  9 10  1  0
 10 11  1  0
 10 12  2  0
  9 13  1  0
 13 14  1  0
 14 15  2  0
 14 16  1  0
 16 17  1  0
 17 18  1  0
 18 19  1  0
 13 20  1  0
 20 21  2  0
 21  4  1  0
 20  7  1  0
  1 22  1  0
  1 23  1  0
  1 24  1  0
  2 25  1  0
  2 26  1  0
  3 27  1  0
  5 28  1  0
  6 29  1  0
  8 30  1  0
 11 31  1  0
 11 32  1  0
 17 33  1  0
 17 34  1  0
 18 35  1  0
 18 36  1  0
 19 37  1  0
 21 38  1  0
M  CHG  1  16  -1
M  END
>  <UniqueID>  (17) 
17

>  <SMILES>  (17) 
CCNc1ccc2cc(C(N)=O)n(C(=O)[N-]CCO)c2c1

>  <Energy>  (17) 
69.25808755482726

>  <Genealogy>  (17) 
CCNc1ccc2cc(C(N)=O)n(C(=O)[N-]CCO)c2c1 (protonated)
CCNc1ccc2cc(C(N)=O)n(C(=O)[N-]CCO)c2c1 (3D coordinates assigned)
CCNc1ccc2cc(C(N)=O)n(C(=O)[N-]CCO)c2c1 (optimized conformer: 69.25808755482726 kcal/mol)

>  <smiles>  (17) 
CCNc1ccc2cc(C(N)=O)n(C(=O)NCCO)c2c1

>  <score_type>  (17) 
oracle

>  <origin>  (17) 
adg

>  <m_score__min__energy>  (17) 
-9.6400000000000006

>  <m_primary>  (17) 
energy

$$$$
17:0
     RDKit          3D

 38 39  0  0  0  0  0  0  0  0999 V2000
   -1.1550   25.9450  -27.6330 C   0  0  0  0  0  0  0  0  0  0  0  0
   -1.5040   25.6370  -28.9640 O   0  0  0  0  0  0  0  0  0  0  0  0
   -1.6650   24.2850  -29.0270 N   0  0  0  0  0  0  0  0  0  0  0  0
   -0.4770   23.4440  -29.2020 C   0  0  0  0  0  0  0  0  0  0  0  0
   -2.9550   23.7160  -28.7350 C   0  0  0  0  0  0  0  0  0  0  0  0
   -3.7680   24.3660  -28.0190 O   0  0  0  0  0  0  0  0  0  0  0  0
   -3.4120   22.4200  -29.3430 C   0  0  0  0  0  0  0  0  0  0  0  0
   -3.9640   22.6790  -30.7140 C   0  0  0  0  0  0  0  0  0  0  0  0
   -3.1820   22.8210  -31.6940 O   0  0  0  0  0  0  0  0  0  0  0  0
   -5.3750   22.8600  -30.8970 N   0  0  0  0  0  0  0  0  0  0  0  0
   -6.0910   24.0140  -30.7880 C   0  0  0  0  0  0  0  0  0  0  0  0
   -5.5630   25.3080  -30.3090 C   0  0  0  0  0  0  0  0  0  0  0  0
   -4.1990   25.6530  -30.5450 N   0  0  0  0  0  0  0  0  0  0  0  0
   -6.3110   26.1240  -29.7090 O   0  0  0  0  0  0  0  0  0  0  0  0
   -7.4230   23.7940  -31.1450 C   0  0  0  0  0  0  0  0  0  0  0  0
   -7.4940   22.4560  -31.4780 C   0  0  0  0  0  0  0  0  0  0  0  0
   -8.5680   21.6990  -31.9370 C   0  0  0  0  0  0  0  0  0  0  0  0
   -8.3360   20.3450  -32.2430 C   0  0  0  0  0  0  0  0  0  0  0  0
   -7.0480   19.7700  -32.0740 C   0  0  0  0  0  0  0  0  0  0  0  0
   -6.8070   18.3350  -32.4720 C   0  0  0  0  0  0  0  0  0  0  0  0
   -5.8160   17.8050  -31.6700 F   0  0  0  0  0  0  0  0  0  0  0  0
   -7.9570   17.5760  -32.3260 F   0  0  0  0  0  0  0  0  0  0  0  0
   -6.4080   18.2630  -33.7940 F   0  0  0  0  0  0  0  0  0  0  0  0
   -5.9800   20.5800  -31.6190 C   0  0  0  0  0  0  0  0  0  0  0  0
   -6.2430   21.9180  -31.3160 C   0  0  0  0  0  0  0  0  0  0  0  0
   -1.7982   25.3773  -26.9445 H   0  0  0  0  0  0  0  0  0  0  0  0
   -0.1030   25.6756  -27.4581 H   0  0  0  0  0  0  0  0  0  0  0  0
   -1.2915   27.0224  -27.4581 H   0  0  0  0  0  0  0  0  0  0  0  0
   -0.0788   23.1621  -28.2161 H   0  0  0  0  0  0  0  0  0  0  0  0
   -0.7493   22.5364  -29.7606 H   0  0  0  0  0  0  0  0  0  0  0  0
    0.2885   24.0025  -29.7606 H   0  0  0  0  0  0  0  0  0  0  0  0
   -2.5599   21.7281  -29.4153 H   0  0  0  0  0  0  0  0  0  0  0  0
   -4.1937   21.9735  -28.7109 H   0  0  0  0  0  0  0  0  0  0  0  0
   -3.5080   25.6740  -29.7620 H   0  0  0  0  0  0  0  0  0  0  0  0
   -8.2408   24.5295  -31.1581 H   0  0  0  0  0  0  0  0  0  0  0  0
   -9.5664   22.1448  -32.0568 H   0  0  0  0  0  0  0  0  0  0  0  0
   -9.1628   19.7238  -32.6179 H   0  0  0  0  0  0  0  0  0  0  0  0
   -4.9672   20.1657  -31.5067 H   0  0  0  0  0  0  0  0  0  0  0  0
  1  2  1  0
  2  3  1  0
  3  4  1  0
  3  5  1  0
  5  6  2  0
  5  7  1  0
  7  8  1  0
  8  9  2  0
  8 10  1  0
 10 11  1  0
 11 12  1  0
 12 13  1  0
 12 14  2  0
 11 15  2  0
 15 16  1  0
 16 17  2  0
 17 18  1  0
 18 19  2  0
 19 20  1  0
 20 21  1  0
 20 22  1  0
 20 23  1  0
 19 24  1  0
 24 25  2  0
 25 10  1  0
 25 16  1  0
  1 26  1  0
  1 27  1  0
  1 28  1  0
  4 29  1  0
  4 30  1  0
  4 31  1  0
  7 32  1  0
  7 33  1  0
 13 34  1  0
 15 35  1  0
 17 36  1  0
 18 37  1  0
 24 38  1  0
M  CHG  1  13  -1
M  END
>  <UniqueID>  (18) 
18

>  <SMILES>  (18) 
CON(C)C(=O)CC(=O)n1c(C([NH-])=O)cc2ccc(C(F)(F)F)cc21

>  <Energy>  (18) 
73.19844393776886

>  <Genealogy>  (18) 
CON(C)C(=O)CC(=O)n1c(C([NH-])=O)cc2ccc(C(F)(F)F)cc21 (protonated)
CON(C)C(=O)CC(=O)n1c(C([NH-])=O)cc2ccc(C(F)(F)F)cc21 (3D coordinates assigned)
CON(C)C(=O)CC(=O)n1c(C([NH-])=O)cc2ccc(C(F)(F)F)cc21 (optimized conformer: 73.19844393776886 kcal/mol)

>  <smiles>  (18) 
CON(C)C(=O)CC(=O)n1c(C(N)=O)cc2ccc(C(F)(F)F)cc21

>  <score_type>  (18) 
oracle

>  <origin>  (18) 
adg

>  <m_score__min__energy>  (18) 
-10.19

>  <m_primary>  (18) 
energy

$$$$
18:0
     RDKit          3D

 30 31  0  0  0  0  0  0  0  0999 V2000
   -7.2990   17.8300  -32.4090 C   0  0  0  0  0  0  0  0  0  0  0  0
   -6.8390   17.4790  -33.6150 C   0  0  0  0  0  0  0  0  0  0  0  0
   -6.0860   18.4430  -34.4830 C   0  0  0  0  0  0  0  0  0  0  0  0
   -5.0570   19.1420  -33.7050 C   0  0  0  0  0  0  0  0  0  0  0  0
   -4.2130   19.7170  -33.0640 C   0  0  0  0  0  0  0  0  0  0  0  0
   -3.2040   20.4020  -32.3010 C   0  0  0  0  0  0  0  0  0  0  0  0
   -1.9040   19.8530  -32.2020 C   0  0  0  0  0  0  0  0  0  0  0  0
   -0.9130   20.5060  -31.4490 C   0  0  0  0  0  0  0  0  0  0  0  0
   -1.2520   21.7000  -30.8200 C   0  0  0  0  0  0  0  0  0  0  0  0
   -0.4980   22.5200  -30.0120 C   0  0  0  0  0  0  0  0  0  0  0  0
   -1.3450   23.5650  -29.6520 C   0  0  0  0  0  0  0  0  0  0  0  0
   -0.9050   24.7270  -28.8520 C   0  0  0  0  0  0  0  0  0  0  0  0
   -1.5660   25.9850  -28.9600 N   0  0  0  0  0  0  0  0  0  0  0  0
    0.1020   24.6210  -28.1000 O   0  0  0  0  0  0  0  0  0  0  0  0
   -2.5790   23.3960  -30.2080 N   0  0  0  0  0  0  0  0  0  0  0  0
   -3.7520   24.1990  -30.0020 C   0  0  0  0  0  0  0  0  0  0  0  0
   -4.6660   23.8060  -29.2310 O   0  0  0  0  0  0  0  0  0  0  0  0
   -3.8760   25.4320  -30.6320 O   0  0  0  0  0  0  0  0  0  0  0  0
   -2.5040   22.2500  -30.9230 C   0  0  0  0  0  0  0  0  0  0  0  0
   -3.5160   21.6120  -31.6510 C   0  0  0  0  0  0  0  0  0  0  0  0
   -7.8479   17.1001  -31.7959 H   0  0  0  0  0  0  0  0  0  0  0  0
   -7.1284   18.8486  -32.0304 H   0  0  0  0  0  0  0  0  0  0  0  0
   -7.0176   16.4567  -33.9797 H   0  0  0  0  0  0  0  0  0  0  0  0
   -5.6057   17.8910  -35.3043 H   0  0  0  0  0  0  0  0  0  0  0  0
   -6.7919   19.1846  -34.8851 H   0  0  0  0  0  0  0  0  0  0  0  0
   -1.6675   18.9102  -32.7170 H   0  0  0  0  0  0  0  0  0  0  0  0
    0.0997   20.0860  -31.3596 H   0  0  0  0  0  0  0  0  0  0  0  0
    0.5514   22.3797  -29.7137 H   0  0  0  0  0  0  0  0  0  0  0  0
   -2.6080   26.0450  -28.9580 H   0  0  0  0  0  0  0  0  0  0  0  0
   -4.5259   22.0436  -31.7134 H   0  0  0  0  0  0  0  0  0  0  0  0
  1  2  2  0
  2  3  1  0
  3  4  1  0
  4  5  3  0
  5  6  1  0
  6  7  2  0
  7  8  1  0
  8  9  2  0
  9 10  1  0
 10 11  2  0
 11 12  1  0
 12 13  1  0
 12 14  2  0
 11 15  1  0
 15 16  1  0
 16 17  2  0
 16 18  1  0
 15 19  1  0
 19 20  2  0
 20  6  1  0
 19  9  1  0
  1 21  1  0
  1 22  1  0
  2 23  1  0
  3 24  1  0
  3 25  1  0
  7 26  1  0
  8 27  1  0
 10 28  1  0
 13 29  1  0
 20 30  1  0
M  CHG  2  13  -1  18  -1
M  END
>  <UniqueID>  (19) 
19

>  <SMILES>  (19) 
C=CCC#Cc1ccc2cc(C([NH-])=O)n(C(=O)[O-])c2c1

>  <Energy>  (19) 
62.59445078274608

>  <Genealogy>  (19) 
C=CCC#Cc1ccc2cc(C([NH-])=O)n(C(=O)[O-])c2c1 (protonated)
C=CCC#Cc1ccc2cc(C([NH-])=O)n(C(=O)[O-])c2c1 (3D coordinates assigned)
C=CCC#Cc1ccc2cc(C([NH-])=O)n(C(=O)[O-])c2c1 (optimized conformer: 62.59445078274608 kcal/mol)

>  <smiles>  (19) 
C=CCC#Cc1ccc2cc(C(N)=O)n(C(=O)O)c2c1

>  <score_type>  (19) 
oracle

>  <origin>  (19) 
adg

>  <m_score__min__energy>  (19) 
-10.94

>  <m_primary>  (19) 
energy

$$$$
19:0
     RDKit          3D

 41 43  0  0  0  0  0  0  0  0999 V2000
   -3.8770   25.6740  -30.8350 N   0  0  0  0  0  0  0  0  0  0  0  0
   -5.2470   25.3870  -30.5710 C   0  0  0  0  0  0  0  0  0  0  0  0
   -5.9630   26.2630  -30.0150 O   0  0  0  0  0  0  0  0  0  0  0  0
   -5.8400   24.0810  -30.9360 C   0  0  0  0  0  0  0  0  0  0  0  0
   -7.1800   23.9110  -31.2850 C   0  0  0  0  0  0  0  0  0  0  0  0
   -7.3160   22.5710  -31.5680 C   0  0  0  0  0  0  0  0  0  0  0  0
   -8.4330   21.8490  -31.9730 C   0  0  0  0  0  0  0  0  0  0  0  0
   -8.2840   20.4670  -32.1870 C   0  0  0  0  0  0  0  0  0  0  0  0
   -7.0330   19.8310  -31.9720 C   0  0  0  0  0  0  0  0  0  0  0  0
   -6.8750   18.3570  -32.2430 C   0  0  0  0  0  0  0  0  0  0  0  0
   -6.0940   17.7620  -31.2670 F   0  0  0  0  0  0  0  0  0  0  0  0
   -8.1070   17.7260  -32.2550 F   0  0  0  0  0  0  0  0  0  0  0  0
   -6.2680   18.1840  -33.4730 F   0  0  0  0  0  0  0  0  0  0  0  0
   -5.9170   20.6050  -31.5810 C   0  0  0  0  0  0  0  0  0  0  0  0
   -6.0930   21.9790  -31.3900 C   0  0  0  0  0  0  0  0  0  0  0  0
   -5.1780   22.8930  -31.0060 N   0  0  0  0  0  0  0  0  0  0  0  0
   -3.7850   22.6540  -30.7610 C   0  0  0  0  0  0  0  0  0  0  0  0
   -2.9590   22.8430  -31.6960 O   0  0  0  0  0  0  0  0  0  0  0  0
   -3.3550   22.1290  -29.4800 N   0  0  1  0  0  0  0  0  0  0  0  0
   -2.5160   20.9280  -29.6050 C   0  0  0  0  0  0  0  0  0  0  0  0
   -1.6650   20.8420  -28.3410 C   0  0  0  0  0  0  0  0  0  0  0  0
   -1.8500   22.1700  -27.6180 C   0  0  0  0  0  0  0  0  0  0  0  0
   -2.6210   23.0610  -28.5950 C   0  0  1  0  0  0  0  0  0  0  0  0
   -1.6620   24.0440  -29.3160 C   0  0  0  0  0  0  0  0  0  0  0  0
   -2.0080   25.3770  -29.0540 O   0  0  0  0  0  0  0  0  0  0  0  0
   -3.1630   24.9130  -30.8590 H   0  0  0  0  0  0  0  0  0  0  0  0
   -7.9618   24.6838  -31.3254 H   0  0  0  0  0  0  0  0  0  0  0  0
   -9.4041   22.3438  -32.1216 H   0  0  0  0  0  0  0  0  0  0  0  0
   -9.1458   19.8726  -32.5245 H   0  0  0  0  0  0  0  0  0  0  0  0
   -4.9328   20.1374  -31.4304 H   0  0  0  0  0  0  0  0  0  0  0  0
   -4.2190   21.8380  -28.9620 H   0  0  0  0  0  0  0  0  0  0  0  0
   -3.1492   20.0330  -29.6953 H   0  0  0  0  0  0  0  0  0  0  0  0
   -1.8811   20.9853  -30.5015 H   0  0  0  0  0  0  0  0  0  0  0  0
   -2.0063   20.0108  -27.7065 H   0  0  0  0  0  0  0  0  0  0  0  0
   -0.6072   20.6576  -28.5797 H   0  0  0  0  0  0  0  0  0  0  0  0
   -2.4255   22.0269  -26.6915 H   0  0  0  0  0  0  0  0  0  0  0  0
   -0.8868   22.6166  -27.3301 H   0  0  0  0  0  0  0  0  0  0  0  0
   -3.3444   23.7289  -28.1045 H   0  0  0  0  0  0  0  0  0  0  0  0
   -0.6349   23.8648  -28.9653 H   0  0  0  0  0  0  0  0  0  0  0  0
   -1.7386   23.8719  -30.3997 H   0  0  0  0  0  0  0  0  0  0  0  0
   -2.5690   25.6710  -29.8170 H   0  0  0  0  0  0  0  0  0  0  0  0
  1  2  1  0
  2  3  2  0
  2  4  1  0
  4  5  2  0
  5  6  1  0
  6  7  2  0
  7  8  1  0
  8  9  2  0
  9 10  1  0
 10 11  1  0
 10 12  1  0
 10 13  1  0
  9 14  1  0
 14 15  2  0
 15 16  1  0
 16 17  1  0
 17 18  2  0
 17 19  1  0
 19 20  1  0
 20 21  1  0
 21 22  1  0
 22 23  1  0
 23 24  1  0
 24 25  1  0
 16  4  1  0
 23 19  1  0
 15  6  1  0
  1 26  1  0
  5 27  1  0
  7 28  1  0
  8 29  1  0
 14 30  1  0
 19 31  1  1
 20 32  1  0
 20 33  1  0
 21 34  1  0
 21 35  1  0
 22 36  1  0
 22 37  1  0
 23 38  1  1
 24 39  1  0
 24 40  1  0
 25 41  1  0
M  CHG  2   1  -1  19   1
M  END
>  <UniqueID>  (20) 
20

>  <SMILES>  (20) 
[NH-]C(=O)c1cc2ccc(C(F)(F)F)cc2n1C(=O)[N@H+]1CCC[C@H]1CO

>  <Energy>  (20) 
92.71646367480446

>  <Genealogy>  (20) 
[NH-]C(=O)c1cc2ccc(C(F)(F)F)cc2n1C(=O)[NH+]1CCCC1CO (protonated)
[NH-]C(=O)c1cc2ccc(C(F)(F)F)cc2n1C(=O)[N@H+]1CCC[C@H]1CO (chirality)
[NH-]C(=O)c1cc2ccc(C(F)(F)F)cc2n1C(=O)[N@H+]1CCC[C@H]1CO (3D coordinates assigned)
[NH-]C(=O)c1cc2ccc(C(F)(F)F)cc2n1C(=O)[N@H+]1CCC[C@H]1CO (nonaromatic ring conformer: 92.71646367480446 kcal/mol)

>  <smiles>  (20) 
NC(=O)c1cc2ccc(C(F)(F)F)cc2n1C(=O)N1CCCC1CO

>  <score_type>  (20) 
oracle

>  <origin>  (20) 
adg

>  <m_score__min__energy>  (20) 
-9.8200000000000003

>  <m_primary>  (20) 
energy

$$$$
20:0
     RDKit          3D

 37 38  0  0  0  0  0  0  0  0999 V2000
   -1.2720   25.7580  -27.9540 C   0  0  0  0  0  0  0  0  0  0  0  0
   -1.9750   25.1590  -29.0360 O   0  0  0  0  0  0  0  0  0  0  0  0
   -1.8990   23.7930  -29.3200 C   0  0  0  0  0  0  0  0  0  0  0  0
   -1.0100   23.3480  -30.0980 O   0  0  0  0  0  0  0  0  0  0  0  0
   -2.9100   22.8600  -28.7260 C   0  0  1  0  0  0  0  0  0  0  0  0
   -3.9970   23.6620  -28.0090 C   0  0  0  0  0  0  0  0  0  0  0  0
   -3.4830   22.0670  -29.7660 O   0  0  0  0  0  0  0  0  0  0  0  0
   -3.9460   22.5920  -30.9760 C   0  0  0  0  0  0  0  0  0  0  0  0
   -3.1590   22.7390  -31.9520 O   0  0  0  0  0  0  0  0  0  0  0  0
   -5.3320   22.9430  -31.1140 N   0  0  0  0  0  0  0  0  0  0  0  0
   -5.9080   24.1700  -30.9630 C   0  0  0  0  0  0  0  0  0  0  0  0
   -5.2310   25.3950  -30.4840 C   0  0  0  0  0  0  0  0  0  0  0  0
   -3.8650   25.6270  -30.8190 N   0  0  0  0  0  0  0  0  0  0  0  0
   -5.8560   26.2570  -29.8120 O   0  0  0  0  0  0  0  0  0  0  0  0
   -7.2710   24.1080  -31.2470 C   0  0  0  0  0  0  0  0  0  0  0  0
   -7.5170   22.7930  -31.5710 C   0  0  0  0  0  0  0  0  0  0  0  0
   -8.7010   22.1740  -31.9540 C   0  0  0  0  0  0  0  0  0  0  0  0
   -8.6580   20.8030  -32.2640 C   0  0  0  0  0  0  0  0  0  0  0  0
   -7.4400   20.0810  -32.1800 C   0  0  0  0  0  0  0  0  0  0  0  0
   -7.3990   18.6950  -32.5480 N   0  0  0  0  0  0  0  0  0  0  0  0
   -8.0290   17.9810  -31.5890 F   0  0  0  0  0  0  0  0  0  0  0  0
   -6.2540   20.7510  -31.8030 C   0  0  0  0  0  0  0  0  0  0  0  0
   -6.3310   22.1110  -31.4830 C   0  0  0  0  0  0  0  0  0  0  0  0
   -1.6912   25.4008  -27.0018 H   0  0  0  0  0  0  0  0  0  0  0  0
   -0.2081   25.4845  -28.0118 H   0  0  0  0  0  0  0  0  0  0  0  0
   -1.3731   26.8518  -28.0118 H   0  0  0  0  0  0  0  0  0  0  0  0
   -2.4219   22.1997  -27.9940 H   0  0  0  0  0  0  0  0  0  0  0  0
   -3.8664   23.5656  -26.9210 H   0  0  0  0  0  0  0  0  0  0  0  0
   -3.9200   24.7213  -28.2951 H   0  0  0  0  0  0  0  0  0  0  0  0
   -4.9865   23.2759  -28.2951 H   0  0  0  0  0  0  0  0  0  0  0  0
   -3.1750   24.8440  -30.8320 H   0  0  0  0  0  0  0  0  0  0  0  0
   -7.9963   24.9345  -31.2183 H   0  0  0  0  0  0  0  0  0  0  0  0
   -9.6429   22.7392  -32.0128 H   0  0  0  0  0  0  0  0  0  0  0  0
   -9.5777   20.2856  -32.5746 H   0  0  0  0  0  0  0  0  0  0  0  0
   -7.8850   18.5380  -33.4610 H   0  0  0  0  0  0  0  0  0  0  0  0
   -6.4110   18.3590  -32.6250 H   0  0  0  0  0  0  0  0  0  0  0  0
   -5.2936   20.2162  -31.7621 H   0  0  0  0  0  0  0  0  0  0  0  0
  1  2  1  0
  2  3  1  0
  3  4  2  0
  3  5  1  0
  5  6  1  0
  5  7  1  0
  7  8  1  0
  8  9  2  0
  8 10  1  0
 10 11  1  0
 11 12  1  0
 12 13  1  0
 12 14  2  0
 11 15  2  0
 15 16  1  0
 16 17  2  0
 17 18  1  0
 18 19  2  0
 19 20  1  0
 20 21  1  0
 19 22  1  0
 22 23  2  0
 23 10  1  0
 23 16  1  0
  1 24  1  0
  1 25  1  0
  1 26  1  0
  5 27  1  1
  6 28  1  0
  6 29  1  0
  6 30  1  0
 13 31  1  0
 15 32  1  0
 17 33  1  0
 18 34  1  0
 20 35  1  0
 20 36  1  0
 22 37  1  0
M  CHG  2  13  -1  20   1
M  END
>  <UniqueID>  (21) 
21

>  <SMILES>  (21) 
COC(=O)[C@@H](C)OC(=O)n1c(C([NH-])=O)cc2ccc([NH2+]F)cc21

>  <Energy>  (21) 
70.0682713846476

>  <Genealogy>  (21) 
COC(=O)C(C)OC(=O)n1c(C([NH-])=O)cc2ccc([NH2+]F)cc21 (protonated)
COC(=O)[C@@H](C)OC(=O)n1c(C([NH-])=O)cc2ccc([NH2+]F)cc21 (chirality)
COC(=O)[C@@H](C)OC(=O)n1c(C([NH-])=O)cc2ccc([NH2+]F)cc21 (3D coordinates assigned)
COC(=O)[C@@H](C)OC(=O)n1c(C([NH-])=O)cc2ccc([NH2+]F)cc21 (optimized conformer: 70.0682713846476 kcal/mol)

>  <smiles>  (21) 
COC(=O)C(C)OC(=O)n1c(C(N)=O)cc2ccc(NF)cc21

>  <score_type>  (21) 
oracle

>  <origin>  (21) 
adg

>  <m_score__min__energy>  (21) 
-9.9199999999999999

>  <m_primary>  (21) 
energy

$$$$
21:0
     RDKit          3D

 42 44  0  0  0  0  0  0  0  0999 V2000
   -1.9410   25.6460  -28.9750 N   0  0  0  0  0  0  0  0  0  0  0  0
   -1.1220   24.4890  -29.1260 C   0  0  0  0  0  0  0  0  0  0  0  0
    0.0110   24.4590  -28.5740 O   0  0  0  0  0  0  0  0  0  0  0  0
   -1.5600   23.3530  -29.9610 C   0  0  0  0  0  0  0  0  0  0  0  0
   -0.7310   22.2860  -30.3040 C   0  0  0  0  0  0  0  0  0  0  0  0
   -1.4700   21.5150  -31.1730 C   0  0  0  0  0  0  0  0  0  0  0  0
   -1.1360   20.3370  -31.8340 C   0  0  0  0  0  0  0  0  0  0  0  0
   -2.1030   19.7540  -32.6700 C   0  0  0  0  0  0  0  0  0  0  0  0
   -3.3810   20.3480  -32.8190 C   0  0  0  0  0  0  0  0  0  0  0  0
   -4.3930   19.7360  -33.7450 C   0  0  0  0  0  0  0  0  0  0  0  0
   -5.6860   19.6400  -33.0740 N   0  0  0  0  0  0  0  0  0  0  0  0
   -6.0680   18.7060  -32.1890 C   0  0  0  0  0  0  0  0  0  0  0  0
   -7.3250   19.0410  -31.7400 C   0  0  0  0  0  0  0  0  0  0  0  0
   -7.7280   20.1860  -32.3310 N   0  0  0  0  0  0  0  0  0  0  0  0
   -6.6980   20.5250  -33.1350 C   0  0  0  0  0  0  0  0  0  0  0  0
   -3.6780   21.5530  -32.1460 C   0  0  0  0  0  0  0  0  0  0  0  0
   -2.6930   22.1140  -31.3270 C   0  0  0  0  0  0  0  0  0  0  0  0
   -2.7690   23.2360  -30.5810 N   0  0  0  0  0  0  0  0  0  0  0  0
   -3.9280   24.0720  -30.4290 C   0  0  0  0  0  0  0  0  0  0  0  0
   -3.8870   25.2700  -30.8170 O   0  0  0  0  0  0  0  0  0  0  0  0
   -5.2160   23.5140  -29.8890 C   0  0  0  0  0  0  0  0  0  0  0  0
   -5.0120   22.7950  -28.5460 C   0  0  0  0  0  0  0  0  0  0  0  0
   -3.9270   23.4380  -27.6710 C   0  0  0  0  0  0  0  0  0  0  0  0
   -4.0670   24.8920  -27.6460 N   0  0  0  0  0  0  0  0  0  0  0  0
   -2.9170   25.6640  -29.3430 H   0  0  0  0  0  0  0  0  0  0  0  0
    0.2953   22.0997  -29.9547 H   0  0  0  0  0  0  0  0  0  0  0  0
   -0.1453   19.8764  -31.7059 H   0  0  0  0  0  0  0  0  0  0  0  0
   -1.8659   18.8278  -33.2140 H   0  0  0  0  0  0  0  0  0  0  0  0
   -4.4934   20.3644  -34.6423 H   0  0  0  0  0  0  0  0  0  0  0  0
   -4.0583   18.7283  -34.0324 H   0  0  0  0  0  0  0  0  0  0  0  0
   -5.4810   17.8292  -31.8781 H   0  0  0  0  0  0  0  0  0  0  0  0
   -7.9121   18.4637  -31.0106 H   0  0  0  0  0  0  0  0  0  0  0  0
   -6.6871   21.4239  -33.7690 H   0  0  0  0  0  0  0  0  0  0  0  0
   -4.6584   22.0379  -32.2628 H   0  0  0  0  0  0  0  0  0  0  0  0
   -5.9285   24.3397  -29.7455 H   0  0  0  0  0  0  0  0  0  0  0  0
   -5.5992   22.7801  -30.6133 H   0  0  0  0  0  0  0  0  0  0  0  0
   -5.9625   22.8128  -27.9927 H   0  0  0  0  0  0  0  0  0  0  0  0
   -4.6828   21.7701  -28.7722 H   0  0  0  0  0  0  0  0  0  0  0  0
   -4.0158   23.0505  -26.6453 H   0  0  0  0  0  0  0  0  0  0  0  0
   -2.9427   23.1883  -28.0938 H   0  0  0  0  0  0  0  0  0  0  0  0
   -3.2060   25.2960  -27.2090 H   0  0  0  0  0  0  0  0  0  0  0  0
   -4.0820   25.2270  -28.6370 H   0  0  0  0  0  0  0  0  0  0  0  0
  1  2  1  0
  2  3  2  0
  2  4  1  0
  4  5  2  0
  5  6  1  0
  6  7  2  0
  7  8  1  0
  8  9  2  0
  9 10  1  0
 10 11  1  0
 11 12  1  0
 12 13  2  0
 13 14  1  0
 14 15  2  0
  9 16  1  0
 16 17  2  0
 17 18  1  0
 18 19  1  0
 19 20  2  0
 19 21  1  0
 21 22  1  0
 22 23  1  0
 23 24  1  0
 18  4  1  0
 17  6  1  0
 15 11  1  0
  1 25  1  0
  5 26  1  0
  7 27  1  0
  8 28  1  0
 10 29  1  0
 10 30  1  0
 12 31  1  0
 13 32  1  0
 15 33  1  0
 16 34  1  0
 21 35  1  0
 21 36  1  0
 22 37  1  0
 22 38  1  0
 23 39  1  0
 23 40  1  0
 24 41  1  0
 24 42  1  0
M  CHG  1   1  -1
M  END
>  <UniqueID>  (22) 
22

>  <SMILES>  (22) 
[NH-]C(=O)c1cc2ccc(Cn3ccnc3)cc2n1C(=O)CCCN

>  <Energy>  (22) 
104.7591879769661

>  <Genealogy>  (22) 
[NH-]C(=O)c1cc2ccc(Cn3ccnc3)cc2n1C(=O)CCCN (protonated)
[NH-]C(=O)c1cc2ccc(Cn3ccnc3)cc2n1C(=O)CCCN (3D coordinates assigned)
[NH-]C(=O)c1cc2ccc(Cn3ccnc3)cc2n1C(=O)CCCN (optimized conformer: 104.7591879769661 kcal/mol)

>  <smiles>  (22) 
NCCCC(=O)n1c(C(N)=O)cc2ccc(Cn3ccnc3)cc21

>  <score_type>  (22) 
oracle

>  <origin>  (22) 
adg

>  <m_score__min__energy>  (22) 
-10.960000000000001

>  <m_primary>  (22) 
energy

$$$$
22:0
     RDKit          3D

 36 37  0  0  0  0  0  0  0  0999 V2000
   -4.1210   24.5120  -27.0440 C   0  0  0  0  0  0  0  0  0  0  0  0
   -2.9730   23.5790  -27.4100 C   0  0  0  0  0  0  0  0  0  0  0  0
   -2.8550   23.4350  -28.9040 C   0  0  0  0  0  0  0  0  0  0  0  0
   -2.3420   24.3320  -29.5560 O   0  0  0  0  0  0  0  0  0  0  0  0
   -3.3580   22.2060  -29.6120 C   0  0  0  0  0  0  0  0  0  0  0  0
   -3.9660   22.5910  -30.9260 C   0  0  0  0  0  0  0  0  0  0  0  0
   -3.2170   22.8440  -31.9070 O   0  0  0  0  0  0  0  0  0  0  0  0
   -5.3870   22.7430  -31.0570 N   0  0  0  0  0  0  0  0  0  0  0  0
   -6.1150   23.8840  -30.8940 C   0  0  0  0  0  0  0  0  0  0  0  0
   -5.5700   25.1890  -30.4500 C   0  0  0  0  0  0  0  0  0  0  0  0
   -4.2260   25.5660  -30.7570 N   0  0  0  0  0  0  0  0  0  0  0  0
   -6.2960   25.9890  -29.8030 O   0  0  0  0  0  0  0  0  0  0  0  0
   -7.4650   23.6360  -31.1510 C   0  0  0  0  0  0  0  0  0  0  0  0
   -7.5340   22.3020  -31.4890 C   0  0  0  0  0  0  0  0  0  0  0  0
   -8.6270   21.5310  -31.8710 C   0  0  0  0  0  0  0  0  0  0  0  0
   -8.3980   20.1860  -32.2060 C   0  0  0  0  0  0  0  0  0  0  0  0
   -7.0910   19.6340  -32.1470 C   0  0  0  0  0  0  0  0  0  0  0  0
   -6.8500   18.2090  -32.5720 C   0  0  0  0  0  0  0  0  0  0  0  0
   -7.9970   17.4680  -32.3550 F   0  0  0  0  0  0  0  0  0  0  0  0
   -5.8100   17.6520  -31.8470 F   0  0  0  0  0  0  0  0  0  0  0  0
   -6.5220   18.1480  -33.9160 F   0  0  0  0  0  0  0  0  0  0  0  0
   -6.0040   20.4600  -31.7780 C   0  0  0  0  0  0  0  0  0  0  0  0
   -6.2660   21.7890  -31.4290 C   0  0  0  0  0  0  0  0  0  0  0  0
   -4.2039   24.5794  -25.9492 H   0  0  0  0  0  0  0  0  0  0  0  0
   -3.9274   25.5120  -27.4593 H   0  0  0  0  0  0  0  0  0  0  0  0
   -5.0603   24.1180  -27.4593 H   0  0  0  0  0  0  0  0  0  0  0  0
   -2.0335   23.9903  -27.0123 H   0  0  0  0  0  0  0  0  0  0  0  0
   -3.1723   22.5883  -26.9755 H   0  0  0  0  0  0  0  0  0  0  0  0
   -2.5194   21.5157  -29.7858 H   0  0  0  0  0  0  0  0  0  0  0  0
   -4.1198   21.7141  -28.9893 H   0  0  0  0  0  0  0  0  0  0  0  0
   -3.8690   26.5040  -30.4670 H   0  0  0  0  0  0  0  0  0  0  0  0
   -3.5660   24.9110  -31.2280 H   0  0  0  0  0  0  0  0  0  0  0  0
   -8.2969   24.3535  -31.0954 H   0  0  0  0  0  0  0  0  0  0  0  0
   -9.6388   21.9609  -31.9096 H   0  0  0  0  0  0  0  0  0  0  0  0
   -9.2416   19.5527  -32.5179 H   0  0  0  0  0  0  0  0  0  0  0  0
   -4.9768   20.0667  -31.7657 H   0  0  0  0  0  0  0  0  0  0  0  0
  1  2  1  0
  2  3  1  0
  3  4  2  0
  3  5  1  0
  5  6  1  0
  6  7  2  0
  6  8  1  0
  8  9  1  0
  9 10  1  0
 10 11  1  0
 10 12  2  0
  9 13  2  0
 13 14  1  0
 14 15  2  0
 15 16  1  0
 16 17  2  0
 17 18  1  0
 18 19  1  0
 18 20  1  0
 18 21  1  0
 17 22  1  0
 22 23  2  0
 23  8  1  0
 23 14  1  0
  1 24  1  0
  1 25  1  0
  1 26  1  0
  2 27  1  0
  2 28  1  0
  5 29  1  0
  5 30  1  0
 11 31  1  0
 11 32  1  0
 13 33  1  0
 15 34  1  0
 16 35  1  0
 22 36  1  0
M  END
>  <UniqueID>  (23) 
23

>  <SMILES>  (23) 
CCC(=O)CC(=O)n1c(C(N)=O)cc2ccc(C(F)(F)F)cc21

>  <Energy>  (23) 
68.93239223644514

>  <Genealogy>  (23) 
CCC(=O)CC(=O)n1c(C(N)=O)cc2ccc(C(F)(F)F)cc21 (3D coordinates assigned)
CCC(=O)CC(=O)n1c(C(N)=O)cc2ccc(C(F)(F)F)cc21 (optimized conformer: 68.93239223644514 kcal/mol)

>  <smiles>  (23) 
CCC(=O)CC(=O)n1c(C(N)=O)cc2ccc(C(F)(F)F)cc21

>  <score_type>  (23) 
oracle

>  <origin>  (23) 
adg

>  <m_score__min__energy>  (23) 
-8.2300000000000004

>  <m_primary>  (23) 
energy

$$$$
23:0
     RDKit          3D

 30 31  0  0  0  0  0  0  0  0999 V2000
   -6.2120   18.1640  -32.9430 C   0  0  0  0  0  0  0  0  0  0  0  0
   -6.5030   19.5500  -32.4490 C   0  0  0  0  0  0  0  0  0  0  0  0
   -7.8260   20.0530  -32.4900 C   0  0  0  0  0  0  0  0  0  0  0  0
   -8.1050   21.3660  -32.0760 C   0  0  0  0  0  0  0  0  0  0  0  0
   -7.0430   22.1500  -31.6340 C   0  0  0  0  0  0  0  0  0  0  0  0
   -7.0280   23.4580  -31.2050 C   0  0  0  0  0  0  0  0  0  0  0  0
   -5.6950   23.7310  -30.9030 C   0  0  0  0  0  0  0  0  0  0  0  0
   -5.2390   25.0110  -30.3210 C   0  0  0  0  0  0  0  0  0  0  0  0
   -4.0860   25.6610  -30.8520 N   0  0  0  0  0  0  0  0  0  0  0  0
   -5.8780   25.5580  -29.3830 O   0  0  0  0  0  0  0  0  0  0  0  0
   -4.9160   22.6370  -31.1430 N   0  0  0  0  0  0  0  0  0  0  0  0
   -3.4900   22.5240  -31.0160 C   0  0  0  0  0  0  0  0  0  0  0  0
   -2.8950   21.5090  -31.4740 O   0  0  0  0  0  0  0  0  0  0  0  0
   -2.7690   23.5300  -30.3630 O   0  0  0  0  0  0  0  0  0  0  0  0
   -1.7510   23.2660  -29.4000 C   0  0  0  0  0  0  0  0  0  0  0  0
   -1.0040   24.5200  -29.0780 C   0  0  0  0  0  0  0  0  0  0  0  0
   -1.5380   25.6430  -29.2760 O   0  0  0  0  0  0  0  0  0  0  0  0
    0.2930   24.4530  -28.5840 O   0  0  0  0  0  0  0  0  0  0  0  0
   -5.7570   21.6770  -31.5870 C   0  0  0  0  0  0  0  0  0  0  0  0
   -5.4480   20.3790  -32.0090 C   0  0  0  0  0  0  0  0  0  0  0  0
   -6.0707   17.4909  -32.0845 H   0  0  0  0  0  0  0  0  0  0  0  0
   -7.0549   17.8078  -33.5534 H   0  0  0  0  0  0  0  0  0  0  0  0
   -5.2970   18.1769  -33.5534 H   0  0  0  0  0  0  0  0  0  0  0  0
   -8.6427   19.4097  -32.8493 H   0  0  0  0  0  0  0  0  0  0  0  0
   -9.1308   21.7624  -32.1003 H   0  0  0  0  0  0  0  0  0  0  0  0
   -7.8853   24.1419  -31.1189 H   0  0  0  0  0  0  0  0  0  0  0  0
   -3.1270   25.3060  -30.6420 H   0  0  0  0  0  0  0  0  0  0  0  0
   -2.2128   22.8728  -28.4823 H   0  0  0  0  0  0  0  0  0  0  0  0
   -1.0489   22.5277  -29.8146 H   0  0  0  0  0  0  0  0  0  0  0  0
   -4.4104   20.0141  -31.9982 H   0  0  0  0  0  0  0  0  0  0  0  0
  1  2  1  0
  2  3  2  0
  3  4  1  0
  4  5  2  0
  5  6  1  0
  6  7  2  0
  7  8  1  0
  8  9  1  0
  8 10  2  0
  7 11  1  0
 11 12  1  0
 12 13  2  0
 12 14  1  0
 14 15  1  0
 15 16  1  0
 16 17  2  0
 16 18  1  0
 11 19  1  0
 19 20  2  0
 20  2  1  0
 19  5  1  0
  1 21  1  0
  1 22  1  0
  1 23  1  0
  3 24  1  0
  4 25  1  0
  6 26  1  0
  9 27  1  0
 15 28  1  0
 15 29  1  0
 20 30  1  0
M  CHG  2   9  -1  18  -1
M  END
>  <UniqueID>  (24) 
24

>  <SMILES>  (24) 
Cc1ccc2cc(C([NH-])=O)n(C(=O)OCC(=O)[O-])c2c1

>  <Energy>  (24) 
66.16950098844184

>  <Genealogy>  (24) 
Cc1ccc2cc(C([NH-])=O)n(C(=O)OCC(=O)[O-])c2c1 (protonated)
Cc1ccc2cc(C([NH-])=O)n(C(=O)OCC(=O)[O-])c2c1 (3D coordinates assigned)
Cc1ccc2cc(C([NH-])=O)n(C(=O)OCC(=O)[O-])c2c1 (optimized conformer: 66.16950098844184 kcal/mol)

>  <smiles>  (24) 
Cc1ccc2cc(C(N)=O)n(C(=O)OCC(=O)O)c2c1

>  <score_type>  (24) 
oracle

>  <origin>  (24) 
adg

>  <m_score__min__energy>  (24) 
-11.76

>  <m_primary>  (24) 
energy

$$$$
24:0
     RDKit          3D

 34 36  0  0  0  0  0  0  0  0999 V2000
   -7.1780   17.2300  -32.7180 C   0  0  0  0  0  0  0  0  0  0  0  0
   -5.9680   17.6920  -33.3900 N   0  0  0  0  0  0  0  0  0  0  0  0
   -5.1560   16.8780  -34.0450 N   0  0  0  0  0  0  0  0  0  0  0  0
   -4.1340   17.6230  -34.5040 C   0  0  0  0  0  0  0  0  0  0  0  0
   -3.0480   17.0950  -35.2610 N   0  0  0  0  0  0  0  0  0  0  0  0
   -4.2880   18.9440  -34.1400 C   0  0  0  0  0  0  0  0  0  0  0  0
   -5.4800   18.9570  -33.4400 C   0  0  0  0  0  0  0  0  0  0  0  0
   -6.0960   20.1570  -32.8320 C   0  0  0  0  0  0  0  0  0  0  0  0
   -7.5080   20.2690  -32.7740 C   0  0  0  0  0  0  0  0  0  0  0  0
   -8.1160   21.3860  -32.1780 C   0  0  0  0  0  0  0  0  0  0  0  0
   -7.2900   22.3740  -31.6510 C   0  0  0  0  0  0  0  0  0  0  0  0
   -7.6160   23.5350  -30.9890 C   0  0  0  0  0  0  0  0  0  0  0  0
   -6.3980   24.1250  -30.6630 C   0  0  0  0  0  0  0  0  0  0  0  0
   -6.2860   25.4350  -29.9930 C   0  0  0  0  0  0  0  0  0  0  0  0
   -5.3770   26.4320  -30.4650 N   0  0  0  0  0  0  0  0  0  0  0  0
   -7.0440   25.7020  -29.0230 O   0  0  0  0  0  0  0  0  0  0  0  0
   -5.3590   23.3560  -31.0930 N   0  0  0  0  0  0  0  0  0  0  0  0
   -3.9580   23.5670  -30.8430 C   0  0  0  0  0  0  0  0  0  0  0  0
   -3.1450   22.6080  -30.9140 O   0  0  0  0  0  0  0  0  0  0  0  0
   -3.4870   24.8320  -30.5150 O   0  0  0  0  0  0  0  0  0  0  0  0
   -5.9220   22.2870  -31.7010 C   0  0  0  0  0  0  0  0  0  0  0  0
   -5.2910   21.1730  -32.2660 C   0  0  0  0  0  0  0  0  0  0  0  0
   -7.0358   17.2843  -31.6286 H   0  0  0  0  0  0  0  0  0  0  0  0
   -8.0255   17.8678  -33.0094 H   0  0  0  0  0  0  0  0  0  0  0  0
   -7.3848   16.1897  -33.0094 H   0  0  0  0  0  0  0  0  0  0  0  0
   -3.1750   16.8480  -36.2680 H   0  0  0  0  0  0  0  0  0  0  0  0
   -2.1160   16.9520  -34.8150 H   0  0  0  0  0  0  0  0  0  0  0  0
   -3.6188   19.7898  -34.3561 H   0  0  0  0  0  0  0  0  0  0  0  0
   -8.1346   19.4719  -33.2007 H   0  0  0  0  0  0  0  0  0  0  0  0
   -9.2112   21.4770  -32.1293 H   0  0  0  0  0  0  0  0  0  0  0  0
   -8.6235   23.9157  -30.7652 H   0  0  0  0  0  0  0  0  0  0  0  0
   -5.2850   27.3400  -29.9580 H   0  0  0  0  0  0  0  0  0  0  0  0
   -4.8570   26.3050  -31.3610 H   0  0  0  0  0  0  0  0  0  0  0  0
   -4.1942   21.0894  -32.2698 H   0  0  0  0  0  0  0  0  0  0  0  0
  1  2  1  0
  2  3  1  0
  3  4  2  0
  4  5  1  0
  4  6  1  0
  6  7  2  0
  7  8  1  0
  8  9  2  0
  9 10  1  0
 10 11  2  0
 11 12  1  0
 12 13  2  0
 13 14  1  0
 14 15  1  0
 14 16  2  0
 13 17  1  0
 17 18  1  0
 18 19  2  0
 18 20  1  0
 17 21  1  0
 21 22  2  0
  7  2  1  0
 22  8  1  0
 21 11  1  0
  1 23  1  0
  1 24  1  0
  1 25  1  0
  5 26  1  0
  5 27  1  0
  6 28  1  0
  9 29  1  0
 10 30  1  0
 12 31  1  0
 15 32  1  0
 15 33  1  0
 22 34  1  0
M  CHG  1  20  -1
M  END
>  <UniqueID>  (25) 
25

>  <SMILES>  (25) 
Cn1nc(N)cc1-c1ccc2cc(C(N)=O)n(C(=O)[O-])c2c1

>  <Energy>  (25) 
109.89620652213168

>  <Genealogy>  (25) 
Cn1nc(N)cc1-c1ccc2cc(C(N)=O)n(C(=O)[O-])c2c1 (protonated)
Cn1nc(N)cc1-c1ccc2cc(C(N)=O)n(C(=O)[O-])c2c1 (3D coordinates assigned)
Cn1nc(N)cc1-c1ccc2cc(C(N)=O)n(C(=O)[O-])c2c1 (optimized conformer: 109.89620652213168 kcal/mol)

>  <smiles>  (25) 
Cn1nc(N)cc1-c1ccc2cc(C(N)=O)n(C(=O)O)c2c1

>  <score_type>  (25) 
oracle

>  <origin>  (25) 
adg

>  <m_score__min__energy>  (25) 
-8.9700000000000006

>  <m_primary>  (25) 
energy

$$$$
25:0
     RDKit          3D

 49 51  0  0  0  0  0  0  0  0999 V2000
   -4.5160   12.7310  -31.8310 C   0  0  0  0  0  0  0  0  0  0  0  0
   -4.3860   13.3390  -33.1120 O   0  0  0  0  0  0  0  0  0  0  0  0
   -5.4400   14.0120  -33.7380 C   0  0  0  0  0  0  0  0  0  0  0  0
   -6.1500   13.4150  -34.5950 O   0  0  0  0  0  0  0  0  0  0  0  0
   -5.7200   15.4240  -33.3960 C   0  0  0  0  0  0  0  0  0  0  0  0
   -5.1540   16.0120  -32.2510 C   0  0  0  0  0  0  0  0  0  0  0  0
   -5.4210   17.3460  -31.9320 C   0  0  0  0  0  0  0  0  0  0  0  0
   -6.2600   18.1220  -32.7490 C   0  0  0  0  0  0  0  0  0  0  0  0
   -6.5460   19.5390  -32.4100 C   0  0  0  0  0  0  0  0  0  0  0  0
   -7.8300   20.0910  -32.6570 C   0  0  0  0  0  0  0  0  0  0  0  0
   -8.1070   21.4340  -32.3500 C   0  0  0  0  0  0  0  0  0  0  0  0
   -7.0890   22.1990  -31.7910 C   0  0  0  0  0  0  0  0  0  0  0  0
   -7.0780   23.5260  -31.4240 C   0  0  0  0  0  0  0  0  0  0  0  0
   -5.7950   23.7640  -30.9370 C   0  0  0  0  0  0  0  0  0  0  0  0
   -5.3730   25.0550  -30.3530 C   0  0  0  0  0  0  0  0  0  0  0  0
   -4.1520   25.6590  -30.7750 N   0  0  0  0  0  0  0  0  0  0  0  0
   -6.0960   25.6490  -29.5120 O   0  0  0  0  0  0  0  0  0  0  0  0
   -5.0400   22.6310  -31.0060 N   0  0  0  0  0  0  0  0  0  0  0  0
   -3.6510   22.4830  -30.6730 C   0  0  0  0  0  0  0  0  0  0  0  0
   -2.7810   23.1650  -31.2800 O   0  0  0  0  0  0  0  0  0  0  0  0
   -3.2710   21.5960  -29.6590 O   0  0  0  0  0  0  0  0  0  0  0  0
   -2.7000   22.0210  -28.4240 C   0  0  1  0  0  0  0  0  0  0  0  0
   -2.1070   20.7980  -27.7310 C   0  0  0  0  0  0  0  0  0  0  0  0
   -1.6680   22.9510  -28.6950 O   0  0  0  0  0  0  0  0  0  0  0  0
   -2.1400   24.5170  -28.2020 P   0  0  1  0  0  0  0  0  0  0  0  0
   -1.5320   24.8350  -26.8550 O   0  0  0  0  0  0  0  0  0  0  0  0
   -1.6420   25.6750  -29.3310 O   0  0  0  0  0  0  0  0  0  0  0  0
   -3.8260   24.5660  -28.0700 O   0  0  0  0  0  0  0  0  0  0  0  0
   -5.8470   21.6820  -31.5280 C   0  0  0  0  0  0  0  0  0  0  0  0
   -5.5370   20.3530  -31.8410 C   0  0  0  0  0  0  0  0  0  0  0  0
   -6.8260   17.5330  -33.8940 C   0  0  0  0  0  0  0  0  0  0  0  0
   -6.5590   16.1990  -34.2140 C   0  0  0  0  0  0  0  0  0  0  0  0
   -4.3544   13.4868  -31.0483 H   0  0  0  0  0  0  0  0  0  0  0  0
   -5.5253   12.3060  -31.7276 H   0  0  0  0  0  0  0  0  0  0  0  0
   -3.7687   11.9305  -31.7276 H   0  0  0  0  0  0  0  0  0  0  0  0
   -4.4956   15.4170  -31.6010 H   0  0  0  0  0  0  0  0  0  0  0  0
   -4.9703   17.7924  -31.0333 H   0  0  0  0  0  0  0  0  0  0  0  0
   -8.6178   19.4599  -33.0940 H   0  0  0  0  0  0  0  0  0  0  0  0
   -9.0990   21.8671  -32.5459 H   0  0  0  0  0  0  0  0  0  0  0  0
   -7.9066   24.2455  -31.4994 H   0  0  0  0  0  0  0  0  0  0  0  0
   -3.2310   25.2210  -30.5480 H   0  0  0  0  0  0  0  0  0  0  0  0
   -3.4610   22.4907  -27.7835 H   0  0  0  0  0  0  0  0  0  0  0  0
   -2.1700   20.9280  -26.6405 H   0  0  0  0  0  0  0  0  0  0  0  0
   -2.6699   19.9003  -28.0264 H   0  0  0  0  0  0  0  0  0  0  0  0
   -1.0536   20.6840  -28.0264 H   0  0  0  0  0  0  0  0  0  0  0  0
   -4.1000   25.3210  -28.6490 H   0  0  0  0  0  0  0  0  0  0  0  0
   -4.5316   19.9502  -31.6490 H   0  0  0  0  0  0  0  0  0  0  0  0
   -7.4849   18.1278  -34.5436 H   0  0  0  0  0  0  0  0  0  0  0  0
   -7.0091   15.7526  -35.1130 H   0  0  0  0  0  0  0  0  0  0  0  0
  1  2  1  0
  2  3  1  0
  3  4  2  0
  3  5  1  0
  5  6  2  0
  6  7  1  0
  7  8  2  0
  8  9  1  0
  9 10  2  0
 10 11  1  0
 11 12  2  0
 12 13  1  0
 13 14  2  0
 14 15  1  0
 15 16  1  0
 15 17  2  0
 14 18  1  0
 18 19  1  0
 19 20  2  0
 19 21  1  0
 21 22  1  0
 22 23  1  0
 22 24  1  0
 24 25  1  0
 25 26  2  0
 25 27  1  6
 25 28  1  0
 18 29  1  0
 29 30  2  0
  8 31  1  0
 31 32  2  0
 32  5  1  0
 30  9  1  0
 29 12  1  0
  1 33  1  0
  1 34  1  0
  1 35  1  0
  6 36  1  0
  7 37  1  0
 10 38  1  0
 11 39  1  0
 13 40  1  0
 16 41  1  0
 22 42  1  1
 23 43  1  0
 23 44  1  0
 23 45  1  0
 28 46  1  0
 30 47  1  0
 31 48  1  0
 32 49  1  0
M  CHG  2  16  -1  27  -1
M  END
>  <UniqueID>  (26) 
26

>  <SMILES>  (26) 
COC(=O)c1ccc(-c2ccc3cc(C([NH-])=O)n(C(=O)O[C@@H](C)O[P@@](=O)([O-])O)c3c2)cc1

>  <Energy>  (26) 
89.23766563133182

>  <Genealogy>  (26) 
COC(=O)c1ccc(-c2ccc3cc(C([NH-])=O)n(C(=O)OC(C)OP(=O)([O-])O)c3c2)cc1 (protonated)
COC(=O)c1ccc(-c2ccc3cc(C([NH-])=O)n(C(=O)O[C@@H](C)O[P@@](=O)([O-])O)c3c2)cc1 (chirality)
COC(=O)c1ccc(-c2ccc3cc(C([NH-])=O)n(C(=O)O[C@@H](C)O[P@@](=O)([O-])O)c3c2)cc1 (3D coordinates assigned)
COC(=O)c1ccc(-c2ccc3cc(C([NH-])=O)n(C(=O)O[C@@H](C)O[P@@](=O)([O-])O)c3c2)cc1 (optimized conformer: 89.23766563133182 kcal/mol)

>  <smiles>  (26) 
COC(=O)c1ccc(-c2ccc3cc(C(N)=O)n(C(=O)OC(C)OP(=O)(O)O)c3c2)cc1

>  <score_type>  (26) 
oracle

>  <origin>  (26) 
adg

>  <m_score__min__energy>  (26) 
-13.35

>  <m_primary>  (26) 
energy

$$$$
26:0
     RDKit          3D

 34 36  0  0  0  0  0  0  0  0999 V2000
   -1.2710   25.3170  -29.2520 N   0  0  0  0  0  0  0  0  0  0  0  0
   -0.8630   23.9540  -29.3790 C   0  0  0  0  0  0  0  0  0  0  0  0
    0.2590   23.6010  -28.9270 O   0  0  0  0  0  0  0  0  0  0  0  0
   -1.7020   22.9670  -30.0890 C   0  0  0  0  0  0  0  0  0  0  0  0
   -1.2120   21.7630  -30.5840 C   0  0  0  0  0  0  0  0  0  0  0  0
   -2.2810   21.1720  -31.2190 C   0  0  0  0  0  0  0  0  0  0  0  0
   -2.3620   19.9490  -31.8700 C   0  0  0  0  0  0  0  0  0  0  0  0
   -3.6030   19.5640  -32.3990 C   0  0  0  0  0  0  0  0  0  0  0  0
   -4.7540   20.3990  -32.2730 C   0  0  0  0  0  0  0  0  0  0  0  0
   -6.1120   19.9400  -32.8390 C   0  0  0  0  0  0  0  0  0  0  0  0
   -7.3070   20.9080  -32.6650 C   0  0  0  0  0  0  0  0  0  0  0  0
   -8.4930   20.2850  -33.0770 O   0  0  0  0  0  0  0  0  0  0  0  0
   -6.4680   18.5060  -32.4680 C   0  0  0  0  0  0  0  0  0  0  0  0
   -6.3660   18.0600  -33.8010 O   0  0  0  0  0  0  0  0  0  0  0  0
   -6.0480   19.3570  -34.2470 C   0  0  0  0  0  0  0  0  0  0  0  0
   -4.6190   21.6330  -31.5820 C   0  0  0  0  0  0  0  0  0  0  0  0
   -3.3620   22.0010  -31.0870 C   0  0  0  0  0  0  0  0  0  0  0  0
   -3.0240   23.1100  -30.3900 N   0  0  0  0  0  0  0  0  0  0  0  0
   -3.9080   24.1590  -29.9600 C   0  0  0  0  0  0  0  0  0  0  0  0
   -4.7260   23.9570  -29.0250 O   0  0  0  0  0  0  0  0  0  0  0  0
   -3.8710   25.4080  -30.5690 O   0  0  0  0  0  0  0  0  0  0  0  0
   -2.1080   25.6790  -29.7600 H   0  0  0  0  0  0  0  0  0  0  0  0
   -0.6840   25.9910  -28.7130 H   0  0  0  0  0  0  0  0  0  0  0  0
   -0.1898   21.3679  -30.4886 H   0  0  0  0  0  0  0  0  0  0  0  0
   -1.4790   19.3005  -31.9683 H   0  0  0  0  0  0  0  0  0  0  0  0
   -3.6909   18.5998  -32.9211 H   0  0  0  0  0  0  0  0  0  0  0  0
   -7.3940   21.1926  -31.6060 H   0  0  0  0  0  0  0  0  0  0  0  0
   -7.1378   21.8044  -33.2797 H   0  0  0  0  0  0  0  0  0  0  0  0
   -8.2180   19.4800  -33.5870 H   0  0  0  0  0  0  0  0  0  0  0  0
   -5.7391   18.0351  -31.7920 H   0  0  0  0  0  0  0  0  0  0  0  0
   -7.3999   18.3167  -31.9150 H   0  0  0  0  0  0  0  0  0  0  0  0
   -5.0510   19.4298  -34.7059 H   0  0  0  0  0  0  0  0  0  0  0  0
   -6.6622   19.8117  -35.0382 H   0  0  0  0  0  0  0  0  0  0  0  0
   -5.4895   22.2899  -31.4379 H   0  0  0  0  0  0  0  0  0  0  0  0
  1  2  1  0
  2  3  2  0
  2  4  1  0
  4  5  2  0
  5  6  1  0
  6  7  2  0
  7  8  1  0
  8  9  2  0
  9 10  1  0
 10 11  1  0
 11 12  1  0
 10 13  1  0
 13 14  1  0
 14 15  1  0
  9 16  1  0
 16 17  2  0
 17 18  1  0
 18 19  1  0
 19 20  2  0
 19 21  1  0
 18  4  1  0
 17  6  1  0
 15 10  1  0
  1 22  1  0
  1 23  1  0
  5 24  1  0
  7 25  1  0
  8 26  1  0
 11 27  1  0
 11 28  1  0
 12 29  1  0
 13 30  1  0
 13 31  1  0
 15 32  1  0
 15 33  1  0
 16 34  1  0
M  CHG  1  21  -1
M  END
>  <UniqueID>  (27) 
27

>  <SMILES>  (27) 
NC(=O)c1cc2ccc(C3(CO)COC3)cc2n1C(=O)[O-]

>  <Energy>  (27) 
145.0671540682572

>  <Genealogy>  (27) 
NC(=O)c1cc2ccc(C3(CO)COC3)cc2n1C(=O)[O-] (protonated)
NC(=O)c1cc2ccc(C3(CO)COC3)cc2n1C(=O)[O-] (3D coordinates assigned)
NC(=O)c1cc2ccc(C3(CO)COC3)cc2n1C(=O)[O-] (nonaromatic ring conformer: 145.0671540682572 kcal/mol)

>  <smiles>  (27) 
NC(=O)c1cc2ccc(C3(CO)COC3)cc2n1C(=O)O

>  <score_type>  (27) 
oracle

>  <origin>  (27) 
adg

>  <m_score__min__energy>  (27) 
-8.4399999999999995

>  <m_primary>  (27) 
energy

$$$$
27:0
     RDKit          3D

 31 32  0  0  0  0  0  0  0  0999 V2000
   -2.1376   22.4344  -27.8375 H   0  0  0  0  0  0  0  0  0  0  0  0
   -2.3820   22.8310  -28.8340 C   0  0  0  0  0  0  0  0  0  0  0  0
   -1.6940   24.0660  -29.2500 C   0  0  0  0  0  0  0  0  0  0  0  0
   -0.4870   24.0070  -29.6040 O   0  0  0  0  0  0  0  0  0  0  0  0
   -2.3690   25.2740  -29.3460 O   0  0  0  0  0  0  0  0  0  0  0  0
   -3.2790   22.1460  -29.5590 C   0  0  0  0  0  0  0  0  0  0  0  0
   -3.5802   21.1617  -29.1710 H   0  0  0  0  0  0  0  0  0  0  0  0
   -3.9040   22.5800  -30.8270 C   0  0  0  0  0  0  0  0  0  0  0  0
   -3.1560   22.7600  -31.8270 O   0  0  0  0  0  0  0  0  0  0  0  0
   -5.3280   22.7270  -30.9830 N   0  0  0  0  0  0  0  0  0  0  0  0
   -6.0500   23.8820  -30.9030 C   0  0  0  0  0  0  0  0  0  0  0  0
   -5.5290   25.2110  -30.5130 C   0  0  0  0  0  0  0  0  0  0  0  0
   -6.2680   25.9920  -29.8560 O   0  0  0  0  0  0  0  0  0  0  0  0
   -4.1930   25.6140  -30.8190 N   0  0  0  0  0  0  0  0  0  0  0  0
   -3.8700   26.5770  -30.5750 H   0  0  0  0  0  0  0  0  0  0  0  0
   -3.4930   24.9430  -31.2020 H   0  0  0  0  0  0  0  0  0  0  0  0
   -7.3780   23.6570  -31.2540 C   0  0  0  0  0  0  0  0  0  0  0  0
   -8.1948   24.3933  -31.2802 H   0  0  0  0  0  0  0  0  0  0  0  0
   -7.4520   22.3190  -31.5610 C   0  0  0  0  0  0  0  0  0  0  0  0
   -8.5310   21.5680  -32.0170 C   0  0  0  0  0  0  0  0  0  0  0  0
   -9.5272   22.0197  -32.1335 H   0  0  0  0  0  0  0  0  0  0  0  0
   -8.3090   20.2150  -32.3240 C   0  0  0  0  0  0  0  0  0  0  0  0
   -9.1427   19.5956  -32.6863 H   0  0  0  0  0  0  0  0  0  0  0  0
   -7.0220   19.6390  -32.1720 C   0  0  0  0  0  0  0  0  0  0  0  0
   -6.7800   18.2050  -32.5700 C   0  0  0  0  0  0  0  0  0  0  0  0
   -6.4610   18.1540  -33.9150 F   0  0  0  0  0  0  0  0  0  0  0  0
   -5.7370   17.6660  -31.8380 F   0  0  0  0  0  0  0  0  0  0  0  0
   -7.9100   17.4370  -32.3450 F   0  0  0  0  0  0  0  0  0  0  0  0
   -5.9450   20.4450  -31.7370 C   0  0  0  0  0  0  0  0  0  0  0  0
   -4.9281   20.0321  -31.6632 H   0  0  0  0  0  0  0  0  0  0  0  0
   -6.2010   21.7810  -31.4020 C   0  0  0  0  0  0  0  0  0  0  0  0
  1  2  1  0
  2  3  1  0
  3  4  2  0
  3  5  1  0
  2  6  2  0
  6  7  1  0
  6  8  1  0
  8  9  2  0
  8 10  1  0
 10 11  1  0
 11 12  1  0
 12 13  2  0
 12 14  1  0
 14 15  1  0
 14 16  1  0
 11 17  2  0
 17 18  1  0
 17 19  1  0
 19 20  2  0
 20 21  1  0
 20 22  1  0
 22 23  1  0
 22 24  2  0
 24 25  1  0
 25 26  1  0
 25 27  1  0
 25 28  1  0
 24 29  1  0
 29 30  1  0
 29 31  2  0
 31 10  1  0
 31 19  1  0
M  CHG  1   5  -1
M  END
>  <UniqueID>  (28) 
28

>  <SMILES>  (28) 
NC(=O)c1cc2ccc(C(F)(F)F)cc2n1C(=O)/C=C\C(=O)[O-]

>  <Energy>  (28) 
77.56888629876815

>  <Genealogy>  (28) 
NC(=O)c1cc2ccc(C(F)(F)F)cc2n1C(=O)/C=C\C(=O)[O-] (protonated)
NC(=O)c1cc2ccc(C(F)(F)F)cc2n1C(=O)/C=C\C(=O)[O-] (cis-trans isomerization)
NC(=O)c1cc2ccc(C(F)(F)F)cc2n1C(=O)/C=C\C(=O)[O-] (3D coordinates assigned)
NC(=O)c1cc2ccc(C(F)(F)F)cc2n1C(=O)/C=C\C(=O)[O-] (optimized conformer: 77.56888629876815 kcal/mol)

>  <smiles>  (28) 
NC(=O)c1cc2ccc(C(F)(F)F)cc2n1C(=O)/C=C\C(=O)O

>  <score_type>  (28) 
oracle

>  <origin>  (28) 
adg

>  <m_score__min__energy>  (28) 
-10.27

>  <m_primary>  (28) 
energy

$$$$
28:0
     RDKit          3D

 31 32  0  0  0  0  0  0  0  0999 V2000
   -6.4050   18.1860  -33.7130 C   0  0  0  0  0  0  0  0  0  0  0  0
   -7.0450   18.3800  -32.3420 C   0  0  0  0  0  0  0  0  0  0  0  0
   -8.2980   17.7910  -32.3400 F   0  0  0  0  0  0  0  0  0  0  0  0
   -6.2730   17.7400  -31.3850 F   0  0  0  0  0  0  0  0  0  0  0  0
   -7.1600   19.8540  -32.0220 C   0  0  0  0  0  0  0  0  0  0  0  0
   -8.4350   20.4740  -31.9480 C   0  0  0  0  0  0  0  0  0  0  0  0
   -8.5540   21.8360  -31.6210 C   0  0  0  0  0  0  0  0  0  0  0  0
   -7.3900   22.5460  -31.3480 C   0  0  0  0  0  0  0  0  0  0  0  0
   -7.2160   23.8730  -31.0260 C   0  0  0  0  0  0  0  0  0  0  0  0
   -5.8410   24.0370  -30.8660 C   0  0  0  0  0  0  0  0  0  0  0  0
   -5.2100   25.3120  -30.4600 C   0  0  0  0  0  0  0  0  0  0  0  0
   -3.8760   25.6290  -30.8470 N   0  0  0  0  0  0  0  0  0  0  0  0
   -5.8500   26.1200  -29.7350 O   0  0  0  0  0  0  0  0  0  0  0  0
   -5.1930   22.8570  -31.0800 N   0  0  0  0  0  0  0  0  0  0  0  0
   -3.7770   22.6210  -31.0750 C   0  0  0  0  0  0  0  0  0  0  0  0
   -3.1750   22.4030  -32.1600 O   0  0  0  0  0  0  0  0  0  0  0  0
   -3.0020   22.6360  -29.7910 C   0  0  0  0  0  0  0  0  0  0  0  0
   -2.0820   23.6920  -29.7960 O   0  0  0  0  0  0  0  0  0  0  0  0
   -6.1540   21.9560  -31.3780 C   0  0  0  0  0  0  0  0  0  0  0  0
   -6.0010   20.6080  -31.7210 C   0  0  0  0  0  0  0  0  0  0  0  0
   -5.3591   17.8690  -33.5879 H   0  0  0  0  0  0  0  0  0  0  0  0
   -6.9577   17.4150  -34.2699 H   0  0  0  0  0  0  0  0  0  0  0  0
   -6.4366   19.1341  -34.2699 H   0  0  0  0  0  0  0  0  0  0  0  0
   -9.3400   19.8819  -32.1488 H   0  0  0  0  0  0  0  0  0  0  0  0
   -9.5384   22.3254  -31.5823 H   0  0  0  0  0  0  0  0  0  0  0  0
   -7.9962   24.6408  -30.9179 H   0  0  0  0  0  0  0  0  0  0  0  0
   -3.0610   25.3000  -30.2830 H   0  0  0  0  0  0  0  0  0  0  0  0
   -3.6971   22.7632  -28.9480 H   0  0  0  0  0  0  0  0  0  0  0  0
   -2.4582   21.6854  -29.6878 H   0  0  0  0  0  0  0  0  0  0  0  0
   -2.2590   24.2210  -30.6180 H   0  0  0  0  0  0  0  0  0  0  0  0
   -5.0036   20.1455  -31.7558 H   0  0  0  0  0  0  0  0  0  0  0  0
  1  2  1  0
  2  3  1  0
  2  4  1  0
  2  5  1  0
  5  6  2  0
  6  7  1  0
  7  8  2  0
  8  9  1  0
  9 10  2  0
 10 11  1  0
 11 12  1  0
 11 13  2  0
 10 14  1  0
 14 15  1  0
 15 16  2  0
 15 17  1  0
 17 18  1  0
 14 19  1  0
 19 20  2  0
 20  5  1  0
 19  8  1  0
  1 21  1  0
  1 22  1  0
  1 23  1  0
  6 24  1  0
  7 25  1  0
  9 26  1  0
 12 27  1  0
 17 28  1  0
 17 29  1  0
 18 30  1  0
 20 31  1  0
M  CHG  1  12  -1
M  END
>  <UniqueID>  (29) 
29

>  <SMILES>  (29) 
CC(F)(F)c1ccc2cc(C([NH-])=O)n(C(=O)CO)c2c1

>  <Energy>  (29) 
68.27384860530114

>  <Genealogy>  (29) 
CC(F)(F)c1ccc2cc(C([NH-])=O)n(C(=O)CO)c2c1 (protonated)
CC(F)(F)c1ccc2cc(C([NH-])=O)n(C(=O)CO)c2c1 (3D coordinates assigned)
CC(F)(F)c1ccc2cc(C([NH-])=O)n(C(=O)CO)c2c1 (optimized conformer: 68.27384860530114 kcal/mol)

>  <smiles>  (29) 
CC(F)(F)c1ccc2cc(C(N)=O)n(C(=O)CO)c2c1

>  <score_type>  (29) 
oracle

>  <origin>  (29) 
adg

>  <m_score__min__energy>  (29) 
-8.9000000000000004

>  <m_primary>  (29) 
energy

$$$$
29:0
     RDKit          3D

 43 46  0  0  0  0  0  0  0  0999 V2000
   -3.5060   18.5610  -25.9770 C   0  0  0  0  0  0  0  0  0  0  0  0
   -2.4830   18.8140  -26.9320 O   0  0  0  0  0  0  0  0  0  0  0  0
   -1.9400   20.0850  -27.1340 C   0  0  0  0  0  0  0  0  0  0  0  0
   -0.8760   20.4290  -26.5500 O   0  0  0  0  0  0  0  0  0  0  0  0
   -2.6060   21.0280  -28.0350 C   0  0  0  0  0  0  0  0  0  0  0  0
   -2.8730   22.3570  -27.7940 C   0  0  0  0  0  0  0  0  0  0  0  0
   -3.5030   22.8740  -28.8670 N   0  0  0  0  0  0  0  0  0  0  0  0
   -3.5930   21.8240  -29.7130 C   0  0  0  0  0  0  0  0  0  0  0  0
   -4.2270   21.8950  -31.0370 C   0  0  0  0  0  0  0  0  0  0  0  0
   -3.5430   21.6650  -32.0700 O   0  0  0  0  0  0  0  0  0  0  0  0
   -5.6190   22.2240  -31.1590 N   0  0  0  0  0  0  0  0  0  0  0  0
   -6.2180   23.4170  -30.8850 C   0  0  0  0  0  0  0  0  0  0  0  0
   -5.5140   24.6520  -30.4680 C   0  0  0  0  0  0  0  0  0  0  0  0
   -5.8550   25.3170  -29.2500 N   0  0  0  0  0  0  0  0  0  0  0  0
   -4.6110   25.1410  -31.1980 O   0  0  0  0  0  0  0  0  0  0  0  0
   -7.5900   23.3390  -31.1300 C   0  0  0  0  0  0  0  0  0  0  0  0
   -7.8120   22.0500  -31.5600 C   0  0  0  0  0  0  0  0  0  0  0  0
   -8.9920   21.4230  -31.9530 C   0  0  0  0  0  0  0  0  0  0  0  0
   -8.9240   20.0750  -32.3450 C   0  0  0  0  0  0  0  0  0  0  0  0
   -7.6900   19.3760  -32.3150 C   0  0  0  0  0  0  0  0  0  0  0  0
   -7.6160   17.9380  -32.7470 C   0  0  0  0  0  0  0  0  0  0  0  0
   -6.3790   17.7020  -33.4850 N   0  0  0  0  0  0  0  0  0  0  0  0
   -5.3030   17.0210  -33.0610 C   0  0  0  0  0  0  0  0  0  0  0  0
   -4.3190   17.0490  -33.9800 N   0  0  0  0  0  0  0  0  0  0  0  0
   -4.8630   17.7930  -34.9680 C   0  0  0  0  0  0  0  0  0  0  0  0
   -6.1140   18.2020  -34.6780 N   0  0  0  0  0  0  0  0  0  0  0  0
   -6.5160   20.0460  -31.9110 C   0  0  0  0  0  0  0  0  0  0  0  0
   -6.6080   21.3960  -31.5590 C   0  0  0  0  0  0  0  0  0  0  0  0
   -3.0570   20.7280  -29.2250 O   0  0  0  0  0  0  0  0  0  0  0  0
   -3.0937   18.6630  -24.9623 H   0  0  0  0  0  0  0  0  0  0  0  0
   -4.3234   19.2841  -26.1150 H   0  0  0  0  0  0  0  0  0  0  0  0
   -3.8922   17.5403  -26.1150 H   0  0  0  0  0  0  0  0  0  0  0  0
   -2.6146   22.9062  -26.8766 H   0  0  0  0  0  0  0  0  0  0  0  0
   -6.5480   24.9120  -28.5830 H   0  0  0  0  0  0  0  0  0  0  0  0
   -5.3740   26.2060  -28.9870 H   0  0  0  0  0  0  0  0  0  0  0  0
   -8.3358   24.1380  -31.0058 H   0  0  0  0  0  0  0  0  0  0  0  0
   -9.9484   21.9665  -31.9565 H   0  0  0  0  0  0  0  0  0  0  0  0
   -9.8357   19.5575  -32.6780 H   0  0  0  0  0  0  0  0  0  0  0  0
   -7.6400   17.2891  -31.8591 H   0  0  0  0  0  0  0  0  0  0  0  0
   -8.4736   17.7116  -33.3975 H   0  0  0  0  0  0  0  0  0  0  0  0
   -5.2340   16.5076  -32.0906 H   0  0  0  0  0  0  0  0  0  0  0  0
   -4.3423   18.0378  -35.9055 H   0  0  0  0  0  0  0  0  0  0  0  0
   -5.5513   19.5189  -31.8738 H   0  0  0  0  0  0  0  0  0  0  0  0
  1  2  1  0
  2  3  1  0
  3  4  2  0
  3  5  1  0
  5  6  2  0
  6  7  1  0
  7  8  2  0
  8  9  1  0
  9 10  2  0
  9 11  1  0
 11 12  1  0
 12 13  1  0
 13 14  1  0
 13 15  2  0
 12 16  2  0
 16 17  1  0
 17 18  2  0
 18 19  1  0
 19 20  2  0
 20 21  1  0
 21 22  1  0
 22 23  1  0
 23 24  2  0
 24 25  1  0
 25 26  2  0
 20 27  1  0
 27 28  2  0
  8 29  1  0
 29  5  1  0
 28 11  1  0
 28 17  1  0
 26 22  1  0
  1 30  1  0
  1 31  1  0
  1 32  1  0
  6 33  1  0
 14 34  1  0
 14 35  1  0
 16 36  1  0
 18 37  1  0
 19 38  1  0
 21 39  1  0
 21 40  1  0
 23 41  1  0
 25 42  1  0
 27 43  1  0
M  END
>  <UniqueID>  (30) 
30

>  <SMILES>  (30) 
COC(=O)c1cnc(C(=O)n2c(C(N)=O)cc3ccc(Cn4cncn4)cc32)o1

>  <Energy>  (30) 
140.85092710666717

>  <Genealogy>  (30) 
COC(=O)c1cnc(C(=O)n2c(C(N)=O)cc3ccc(Cn4cncn4)cc32)o1 (3D coordinates assigned)
COC(=O)c1cnc(C(=O)n2c(C(N)=O)cc3ccc(Cn4cncn4)cc32)o1 (optimized conformer: 140.85092710666717 kcal/mol)

>  <smiles>  (30) 
COC(=O)c1cnc(C(=O)n2c(C(N)=O)cc3ccc(Cn4cncn4)cc32)o1

>  <score_type>  (30) 
oracle

>  <origin>  (30) 
adg

>  <m_score__min__energy>  (30) 
-10.43

>  <m_primary>  (30) 
energy

$$$$
30:0
     RDKit          3D

 33 35  0  0  0  0  0  0  0  0999 V2000
   -3.8530   25.2990  -30.5820 N   0  0  0  0  0  0  0  0  0  0  0  0
   -5.2490   25.1690  -30.3300 C   0  0  0  0  0  0  0  0  0  0  0  0
   -5.8710   26.1270  -29.7970 O   0  0  0  0  0  0  0  0  0  0  0  0
   -5.9820   23.9420  -30.7100 C   0  0  0  0  0  0  0  0  0  0  0  0
   -7.2970   23.9370  -31.1690 C   0  0  0  0  0  0  0  0  0  0  0  0
   -7.5760   22.6210  -31.4650 C   0  0  0  0  0  0  0  0  0  0  0  0
   -8.7350   22.0380  -31.9670 C   0  0  0  0  0  0  0  0  0  0  0  0
   -8.7390   20.6470  -32.1710 C   0  0  0  0  0  0  0  0  0  0  0  0
   -7.5990   19.8630  -31.8520 C   0  0  0  0  0  0  0  0  0  0  0  0
   -7.6000   18.3790  -32.1170 C   0  0  0  0  0  0  0  0  0  0  0  0
   -8.8850   17.8910  -31.9640 F   0  0  0  0  0  0  0  0  0  0  0  0
   -7.1650   18.1120  -33.4030 F   0  0  0  0  0  0  0  0  0  0  0  0
   -6.7600   17.7250  -31.2310 F   0  0  0  0  0  0  0  0  0  0  0  0
   -6.4310   20.4980  -31.3670 C   0  0  0  0  0  0  0  0  0  0  0  0
   -6.4560   21.8840  -31.1830 C   0  0  0  0  0  0  0  0  0  0  0  0
   -5.4740   22.6780  -30.7130 N   0  0  0  0  0  0  0  0  0  0  0  0
   -4.1760   22.2420  -30.2800 C   0  0  0  0  0  0  0  0  0  0  0  0
   -3.9060   22.2550  -29.0470 O   0  0  0  0  0  0  0  0  0  0  0  0
   -3.1460   21.8140  -31.2580 C   0  0  0  0  0  0  0  0  0  0  0  0
   -3.5030   21.5270  -32.5870 C   0  0  0  0  0  0  0  0  0  0  0  0
   -2.5220   21.1260  -33.4960 C   0  0  0  0  0  0  0  0  0  0  0  0
   -1.2280   21.0090  -33.0970 N   0  0  0  0  0  0  0  0  0  0  0  0
   -0.8530   21.2740  -31.8170 C   0  0  0  0  0  0  0  0  0  0  0  0
   -1.8010   21.6770  -30.8760 C   0  0  0  0  0  0  0  0  0  0  0  0
   -3.4890   26.0440  -31.2160 H   0  0  0  0  0  0  0  0  0  0  0  0
   -7.9700   24.8008  -31.2731 H   0  0  0  0  0  0  0  0  0  0  0  0
   -9.6216   22.6470  -32.1974 H   0  0  0  0  0  0  0  0  0  0  0  0
   -9.6356   20.1604  -32.5825 H   0  0  0  0  0  0  0  0  0  0  0  0
   -5.5257   19.9157  -31.1403 H   0  0  0  0  0  0  0  0  0  0  0  0
   -4.5507   21.6180  -32.9094 H   0  0  0  0  0  0  0  0  0  0  0  0
   -2.7971   20.9042  -34.5377 H   0  0  0  0  0  0  0  0  0  0  0  0
    0.2017   21.1702  -31.5224 H   0  0  0  0  0  0  0  0  0  0  0  0
   -1.4967   21.8865  -29.8399 H   0  0  0  0  0  0  0  0  0  0  0  0
  1  2  1  0
  2  3  2  0
  2  4  1  0
  4  5  2  0
  5  6  1  0
  6  7  2  0
  7  8  1  0
  8  9  2  0
  9 10  1  0
 10 11  1  0
 10 12  1  0
 10 13  1  0
  9 14  1  0
 14 15  2  0
 15 16  1  0
 16 17  1  0
 17 18  2  0
 17 19  1  0
 19 20  2  0
 20 21  1  0
 21 22  2  0
 22 23  1  0
 23 24  2  0
 16  4  1  0
 24 19  1  0
 15  6  1  0
  1 25  1  0
  5 26  1  0
  7 27  1  0
  8 28  1  0
 14 29  1  0
 20 30  1  0
 21 31  1  0
 23 32  1  0
 24 33  1  0
M  CHG  1   1  -1
M  END
>  <UniqueID>  (31) 
31

>  <SMILES>  (31) 
[NH-]C(=O)c1cc2ccc(C(F)(F)F)cc2n1C(=O)c1ccncc1

>  <Energy>  (31) 
78.42515913324685

>  <Genealogy>  (31) 
[NH-]C(=O)c1cc2ccc(C(F)(F)F)cc2n1C(=O)c1ccncc1 (protonated)
[NH-]C(=O)c1cc2ccc(C(F)(F)F)cc2n1C(=O)c1ccncc1 (3D coordinates assigned)
[NH-]C(=O)c1cc2ccc(C(F)(F)F)cc2n1C(=O)c1ccncc1 (optimized conformer: 78.42515913324685 kcal/mol)

>  <smiles>  (31) 
NC(=O)c1cc2ccc(C(F)(F)F)cc2n1C(=O)c1ccncc1

>  <score_type>  (31) 
oracle

>  <origin>  (31) 
adg

>  <m_score__min__energy>  (31) 
-10.31

>  <m_primary>  (31) 
energy

$$$$
31:0
     RDKit          3D

 51 53  0  0  0  0  0  0  0  0999 V2000
   -3.5470   14.9770  -34.9620 C   0  0  0  0  0  0  0  0  0  0  0  0
   -3.9020   15.7820  -33.7830 N   0  0  0  0  0  0  0  0  0  0  0  0
   -5.1530   15.2990  -33.1440 C   0  0  0  0  0  0  0  0  0  0  0  0
   -6.4570   15.7670  -33.8160 C   0  0  0  0  0  0  0  0  0  0  0  0
   -7.0050   17.1360  -33.3380 C   0  0  0  0  0  0  0  0  0  0  0  0
   -6.0830   18.3590  -33.5740 C   0  0  1  0  0  0  0  0  0  0  0  0
   -6.6540   19.6010  -32.9070 C   0  0  0  0  0  0  0  0  0  0  0  0
   -8.0580   19.7880  -32.7910 C   0  0  0  0  0  0  0  0  0  0  0  0
   -8.5830   20.9370  -32.1800 C   0  0  0  0  0  0  0  0  0  0  0  0
   -7.6890   21.8780  -31.6800 C   0  0  0  0  0  0  0  0  0  0  0  0
   -7.9320   23.0780  -31.0560 C   0  0  0  0  0  0  0  0  0  0  0  0
   -6.6760   23.6080  -30.7840 C   0  0  0  0  0  0  0  0  0  0  0  0
   -6.4820   24.8910  -30.0890 C   0  0  0  0  0  0  0  0  0  0  0  0
   -5.2010   25.5220  -30.0670 N   0  0  0  0  0  0  0  0  0  0  0  0
   -7.4710   25.4730  -29.5710 O   0  0  0  0  0  0  0  0  0  0  0  0
   -5.6880   22.7620  -31.1950 N   0  0  0  0  0  0  0  0  0  0  0  0
   -4.2750   22.8770  -30.9280 C   0  0  0  0  0  0  0  0  0  0  0  0
   -3.5090   23.4120  -31.7730 O   0  0  0  0  0  0  0  0  0  0  0  0
   -3.7390   22.4160  -29.6840 N   0  0  0  0  0  0  0  0  0  0  0  0
   -3.8250   23.1820  -28.4480 C   0  0  0  0  0  0  0  0  0  0  0  0
   -2.7110   24.2200  -28.4140 C   0  0  0  0  0  0  0  0  0  0  0  0
   -2.6870   24.9200  -29.6260 O   0  0  0  0  0  0  0  0  0  0  0  0
   -6.3300   21.7090  -31.7560 C   0  0  0  0  0  0  0  0  0  0  0  0
   -5.7790   20.5830  -32.3820 C   0  0  0  0  0  0  0  0  0  0  0  0
   -4.6250   18.1350  -33.1160 C   0  0  0  0  0  0  0  0  0  0  0  0
   -3.7710   17.2370  -34.0320 C   0  0  0  0  0  0  0  0  0  0  0  0
   -3.1231   14.0158  -34.6356 H   0  0  0  0  0  0  0  0  0  0  0  0
   -4.4480   14.7942  -35.5660 H   0  0  0  0  0  0  0  0  0  0  0  0
   -2.8044   15.5190  -35.5660 H   0  0  0  0  0  0  0  0  0  0  0  0
   -5.1391   14.1992  -33.1577 H   0  0  0  0  0  0  0  0  0  0  0  0
   -5.1621   15.7265  -32.1305 H   0  0  0  0  0  0  0  0  0  0  0  0
   -6.2738   15.8355  -34.8985 H   0  0  0  0  0  0  0  0  0  0  0  0
   -7.2204   15.0249  -33.5392 H   0  0  0  0  0  0  0  0  0  0  0  0
   -7.9519   17.3220  -33.8661 H   0  0  0  0  0  0  0  0  0  0  0  0
   -7.1068   17.0488  -32.2462 H   0  0  0  0  0  0  0  0  0  0  0  0
   -6.0505   18.5035  -34.6640 H   0  0  0  0  0  0  0  0  0  0  0  0
   -8.7421   19.0221  -33.1853 H   0  0  0  0  0  0  0  0  0  0  0  0
   -9.6694   21.0890  -32.0989 H   0  0  0  0  0  0  0  0  0  0  0  0
   -8.9102   23.5234  -30.8220 H   0  0  0  0  0  0  0  0  0  0  0  0
   -4.4010   25.1220  -30.6050 H   0  0  0  0  0  0  0  0  0  0  0  0
   -5.0680   26.4250  -29.5590 H   0  0  0  0  0  0  0  0  0  0  0  0
   -4.7999   23.6890  -28.3982 H   0  0  0  0  0  0  0  0  0  0  0  0
   -3.7196   22.5035  -27.5886 H   0  0  0  0  0  0  0  0  0  0  0  0
   -2.8909   24.9237  -27.5879 H   0  0  0  0  0  0  0  0  0  0  0  0
   -1.7451   23.7158  -28.2631 H   0  0  0  0  0  0  0  0  0  0  0  0
   -2.7020   24.2320  -30.3410 H   0  0  0  0  0  0  0  0  0  0  0  0
   -4.6885   20.4642  -32.4640 H   0  0  0  0  0  0  0  0  0  0  0  0
   -4.1350   19.1178  -33.0530 H   0  0  0  0  0  0  0  0  0  0  0  0
   -4.6893   17.6082  -32.1525 H   0  0  0  0  0  0  0  0  0  0  0  0
   -4.0666   17.4328  -35.0733 H   0  0  0  0  0  0  0  0  0  0  0  0
   -2.7221   17.4915  -33.8200 H   0  0  0  0  0  0  0  0  0  0  0  0
  1  2  1  0
  2  3  1  0
  3  4  1  0
  4  5  1  0
  5  6  1  0
  6  7  1  0
  7  8  2  0
  8  9  1  0
  9 10  2  0
 10 11  1  0
 11 12  2  0
 12 13  1  0
 13 14  1  0
 13 15  2  0
 12 16  1  0
 16 17  1  0
 17 18  2  0
 17 19  1  0
 19 20  1  0
 20 21  1  0
 21 22  1  0
 16 23  1  0
 23 24  2  0
  6 25  1  0
 25 26  1  0
 26  2  1  0
 24  7  1  0
 23 10  1  0
  1 27  1  0
  1 28  1  0
  1 29  1  0
  3 30  1  0
  3 31  1  0
  4 32  1  0
  4 33  1  0
  5 34  1  0
  5 35  1  0
  6 36  1  6
  8 37  1  0
  9 38  1  0
 11 39  1  0
 14 40  1  0
 14 41  1  0
 20 42  1  0
 20 43  1  0
 21 44  1  0
 21 45  1  0
 22 46  1  0
 24 47  1  0
 25 48  1  0
 25 49  1  0
 26 50  1  0
 26 51  1  0
M  CHG  1  19  -1
M  END
>  <UniqueID>  (32) 
32

>  <SMILES>  (32) 
CN1CCC[C@@H](c2ccc3cc(C(N)=O)n(C(=O)[N-]CCO)c3c2)CC1

>  <Energy>  (32) 
105.39056642548378

>  <Genealogy>  (32) 
CN1CCCC(c2ccc3cc(C(N)=O)n(C(=O)[N-]CCO)c3c2)CC1 (protonated)
CN1CCC[C@@H](c2ccc3cc(C(N)=O)n(C(=O)[N-]CCO)c3c2)CC1 (chirality)
CN1CCC[C@@H](c2ccc3cc(C(N)=O)n(C(=O)[N-]CCO)c3c2)CC1 (3D coordinates assigned)
CN1CCC[C@@H](c2ccc3cc(C(N)=O)n(C(=O)[N-]CCO)c3c2)CC1 (nonaromatic ring conformer: 105.39056642548378 kcal/mol)

>  <smiles>  (32) 
CN1CCCC(c2ccc3cc(C(N)=O)n(C(=O)NCCO)c3c2)CC1

>  <score_type>  (32) 
oracle

>  <origin>  (32) 
adg

>  <m_score__min__energy>  (32) 
-8.2400000000000002

>  <m_primary>  (32) 
energy

$$$$
32:0
     RDKit          3D

 42 43  0  0  0  0  0  0  0  0999 V2000
   -3.7700   16.3520  -35.3710 C   0  0  0  0  0  0  0  0  0  0  0  0
   -4.5940   17.2530  -34.5530 N   0  0  0  0  0  0  0  0  0  0  0  0
   -3.8120   18.4070  -34.0770 C   0  0  0  0  0  0  0  0  0  0  0  0
   -5.3300   16.5590  -33.4710 C   0  0  0  0  0  0  0  0  0  0  0  0
   -6.6430   17.2440  -33.0270 C   0  0  0  0  0  0  0  0  0  0  0  0
   -6.8560   18.5240  -33.7110 N   0  0  0  0  0  0  0  0  0  0  0  0
   -7.0540   19.7690  -33.0140 C   0  0  0  0  0  0  0  0  0  0  0  0
   -8.3690   20.1580  -32.6610 C   0  0  0  0  0  0  0  0  0  0  0  0
   -8.6050   21.3560  -31.9690 C   0  0  0  0  0  0  0  0  0  0  0  0
   -7.5110   22.1530  -31.6520 C   0  0  0  0  0  0  0  0  0  0  0  0
   -7.4560   23.3420  -30.9600 C   0  0  0  0  0  0  0  0  0  0  0  0
   -6.1060   23.6830  -30.9270 C   0  0  0  0  0  0  0  0  0  0  0  0
   -5.6010   24.9330  -30.3250 C   0  0  0  0  0  0  0  0  0  0  0  0
   -5.9380   25.2990  -28.9870 N   0  0  0  0  0  0  0  0  0  0  0  0
   -4.8120   25.6620  -30.9840 O   0  0  0  0  0  0  0  0  0  0  0  0
   -5.3540   22.7410  -31.5620 N   0  0  0  0  0  0  0  0  0  0  0  0
   -3.9200   22.6780  -31.6310 C   0  0  0  0  0  0  0  0  0  0  0  0
   -3.3570   21.6990  -32.1920 O   0  0  0  0  0  0  0  0  0  0  0  0
   -3.1530   23.7060  -31.0730 O   0  0  0  0  0  0  0  0  0  0  0  0
   -2.6930   23.6760  -29.7270 C   0  0  0  0  0  0  0  0  0  0  0  0
   -2.3720   24.9590  -29.3280 F   0  0  0  0  0  0  0  0  0  0  0  0
   -6.2310   21.8100  -32.0020 C   0  0  0  0  0  0  0  0  0  0  0  0
   -5.9640   20.6090  -32.6740 C   0  0  0  0  0  0  0  0  0  0  0  0
   -3.1749   15.7012  -34.7135 H   0  0  0  0  0  0  0  0  0  0  0  0
   -4.4220   15.7341  -36.0059 H   0  0  0  0  0  0  0  0  0  0  0  0
   -3.0964   16.9463  -36.0059 H   0  0  0  0  0  0  0  0  0  0  0  0
   -3.8053   18.4168  -32.9771 H   0  0  0  0  0  0  0  0  0  0  0  0
   -2.7798   18.3291  -34.4492 H   0  0  0  0  0  0  0  0  0  0  0  0
   -4.2669   19.3368  -34.4492 H   0  0  0  0  0  0  0  0  0  0  0  0
   -5.5759   15.5458  -33.8216 H   0  0  0  0  0  0  0  0  0  0  0  0
   -4.6668   16.5700  -32.5935 H   0  0  0  0  0  0  0  0  0  0  0  0
   -7.4864   16.5755  -33.2546 H   0  0  0  0  0  0  0  0  0  0  0  0
   -6.5725   17.4442  -31.9477 H   0  0  0  0  0  0  0  0  0  0  0  0
   -6.8570   18.5460  -34.7560 H   0  0  0  0  0  0  0  0  0  0  0  0
   -9.2171   19.5124  -32.9329 H   0  0  0  0  0  0  0  0  0  0  0  0
   -9.6250   21.6553  -31.6860 H   0  0  0  0  0  0  0  0  0  0  0  0
   -8.2975   23.9023  -30.5264 H   0  0  0  0  0  0  0  0  0  0  0  0
   -6.4500   24.6390  -28.3600 H   0  0  0  0  0  0  0  0  0  0  0  0
   -5.6050   26.2060  -28.5910 H   0  0  0  0  0  0  0  0  0  0  0  0
   -3.4846   23.2756  -29.0765 H   0  0  0  0  0  0  0  0  0  0  0  0
   -1.8034   23.0330  -29.6547 H   0  0  0  0  0  0  0  0  0  0  0  0
   -4.9329   20.3252  -32.9314 H   0  0  0  0  0  0  0  0  0  0  0  0
  1  2  1  0
  2  3  1  0
  2  4  1  0
  4  5  1  0
  5  6  1  0
  6  7  1  0
  7  8  2  0
  8  9  1  0
  9 10  2  0
 10 11  1  0
 11 12  2  0
 12 13  1  0
 13 14  1  0
 13 15  2  0
 12 16  1  0
 16 17  1  0
 17 18  2  0
 17 19  1  0
 19 20  1  0
 20 21  1  0
 16 22  1  0
 22 23  2  0
 23  7  1  0
 22 10  1  0
  1 24  1  0
  1 25  1  0
  1 26  1  0
  3 27  1  0
  3 28  1  0
  3 29  1  0
  4 30  1  0
  4 31  1  0
  5 32  1  0
  5 33  1  0
  6 34  1  0
  8 35  1  0
  9 36  1  0
 11 37  1  0
 14 38  1  0
 14 39  1  0
 20 40  1  0
 20 41  1  0
 23 42  1  0
M  END
>  <UniqueID>  (33) 
33

>  <SMILES>  (33) 
CN(C)CCNc1ccc2cc(C(N)=O)n(C(=O)OCF)c2c1

>  <Energy>  (33) 
81.61811466078905

>  <Genealogy>  (33) 
CN(C)CCNc1ccc2cc(C(N)=O)n(C(=O)OCF)c2c1 (3D coordinates assigned)
CN(C)CCNc1ccc2cc(C(N)=O)n(C(=O)OCF)c2c1 (optimized conformer: 81.61811466078905 kcal/mol)

>  <smiles>  (33) 
CN(C)CCNc1ccc2cc(C(N)=O)n(C(=O)OCF)c2c1

>  <score_type>  (33) 
oracle

>  <origin>  (33) 
adg

>  <m_score__min__energy>  (33) 
-8.1999999999999993

>  <m_primary>  (33) 
energy

$$$$
33:0
     RDKit          3D

 33 34  0  0  0  0  0  0  0  0999 V2000
   -3.8610   25.2930  -30.6100 N   0  0  0  0  0  0  0  0  0  0  0  0
   -5.2470   25.1200  -30.3270 C   0  0  0  0  0  0  0  0  0  0  0  0
   -5.8650   26.0180  -29.6960 O   0  0  0  0  0  0  0  0  0  0  0  0
   -5.9520   23.9140  -30.8080 C   0  0  0  0  0  0  0  0  0  0  0  0
   -7.2680   23.9210  -31.2670 C   0  0  0  0  0  0  0  0  0  0  0  0
   -7.5780   22.6020  -31.5080 C   0  0  0  0  0  0  0  0  0  0  0  0
   -8.7510   22.0290  -31.9880 C   0  0  0  0  0  0  0  0  0  0  0  0
   -8.7820   20.6340  -32.1570 C   0  0  0  0  0  0  0  0  0  0  0  0
   -7.6530   19.8370  -31.8300 C   0  0  0  0  0  0  0  0  0  0  0  0
   -7.6790   18.3490  -32.0700 C   0  0  0  0  0  0  0  0  0  0  0  0
   -8.9670   17.8570  -31.9580 F   0  0  0  0  0  0  0  0  0  0  0  0
   -7.2060   18.0860  -33.3420 F   0  0  0  0  0  0  0  0  0  0  0  0
   -6.8830   17.6920  -31.1490 F   0  0  0  0  0  0  0  0  0  0  0  0
   -6.4720   20.4620  -31.3650 C   0  0  0  0  0  0  0  0  0  0  0  0
   -6.4740   21.8500  -31.2010 C   0  0  0  0  0  0  0  0  0  0  0  0
   -5.4640   22.6420  -30.7820 N   0  0  0  0  0  0  0  0  0  0  0  0
   -4.1390   22.2080  -30.4360 C   0  0  0  0  0  0  0  0  0  0  0  0
   -3.5460   21.3720  -31.1680 O   0  0  0  0  0  0  0  0  0  0  0  0
   -3.4200   22.8000  -29.2550 C   0  0  0  0  0  0  0  0  0  0  0  0
   -4.3740   23.0550  -28.0790 C   0  0  0  0  0  0  0  0  0  0  0  0
   -4.5900   24.4860  -27.8560 N   0  0  0  0  0  0  0  0  0  0  0  0
   -3.5340   26.0480  -31.2530 H   0  0  0  0  0  0  0  0  0  0  0  0
   -7.9205   24.7954  -31.4070 H   0  0  0  0  0  0  0  0  0  0  0  0
   -9.6276   22.6487  -32.2280 H   0  0  0  0  0  0  0  0  0  0  0  0
   -9.6915   20.1539  -32.5472 H   0  0  0  0  0  0  0  0  0  0  0  0
   -5.5734   19.8695  -31.1379 H   0  0  0  0  0  0  0  0  0  0  0  0
   -2.6329   22.1033  -28.9309 H   0  0  0  0  0  0  0  0  0  0  0  0
   -2.9901   23.7644  -29.5633 H   0  0  0  0  0  0  0  0  0  0  0  0
   -5.3414   22.5781  -28.2951 H   0  0  0  0  0  0  0  0  0  0  0  0
   -3.9193   22.6318  -27.1712 H   0  0  0  0  0  0  0  0  0  0  0  0
   -4.2320   24.7640  -26.9140 H   0  0  0  0  0  0  0  0  0  0  0  0
   -5.6070   24.7150  -27.9300 H   0  0  0  0  0  0  0  0  0  0  0  0
   -4.0730   25.0260  -28.5850 H   0  0  0  0  0  0  0  0  0  0  0  0
  1  2  1  0
  2  3  2  0
  2  4  1  0
  4  5  2  0
  5  6  1  0
  6  7  2  0
  7  8  1  0
  8  9  2  0
  9 10  1  0
 10 11  1  0
 10 12  1  0
 10 13  1  0
  9 14  1  0
 14 15  2  0
 15 16  1  0
 16 17  1  0
 17 18  2  0
 17 19  1  0
 19 20  1  0
 20 21  1  0
 16  4  1  0
 15  6  1  0
  1 22  1  0
  5 23  1  0
  7 24  1  0
  8 25  1  0
 14 26  1  0
 19 27  1  0
 19 28  1  0
 20 29  1  0
 20 30  1  0
 21 31  1  0
 21 32  1  0
 21 33  1  0
M  CHG  2   1  -1  21   1
M  END
>  <UniqueID>  (34) 
34

>  <SMILES>  (34) 
[NH-]C(=O)c1cc2ccc(C(F)(F)F)cc2n1C(=O)CC[NH3+]

>  <Energy>  (34) 
69.15366855488085

>  <Genealogy>  (34) 
[NH-]C(=O)c1cc2ccc(C(F)(F)F)cc2n1C(=O)CC[NH3+] (protonated)
[NH-]C(=O)c1cc2ccc(C(F)(F)F)cc2n1C(=O)CC[NH3+] (3D coordinates assigned)
[NH-]C(=O)c1cc2ccc(C(F)(F)F)cc2n1C(=O)CC[NH3+] (optimized conformer: 69.15366855488085 kcal/mol)

>  <smiles>  (34) 
NCCC(=O)n1c(C(N)=O)cc2ccc(C(F)(F)F)cc21

>  <score_type>  (34) 
oracle

>  <origin>  (34) 
adg

>  <m_score__min__energy>  (34) 
-8.8100000000000005

>  <m_primary>  (34) 
energy

$$$$
34:0
     RDKit          3D

 47 48  0  0  0  0  0  0  0  0999 V2000
   -2.9820   18.0810  -33.6510 C   0  0  0  0  0  0  0  0  0  0  0  0
   -3.9570   18.4760  -34.6100 O   0  0  0  0  0  0  0  0  0  0  0  0
   -5.3310   18.3630  -34.3770 C   0  0  0  0  0  0  0  0  0  0  0  0
   -6.1190   19.2530  -34.8030 O   0  0  0  0  0  0  0  0  0  0  0  0
   -5.8490   17.2400  -33.6350 N   0  0  0  0  0  0  0  0  0  0  0  0
   -5.7710   15.8960  -34.2120 C   0  0  0  0  0  0  0  0  0  0  0  0
   -6.5320   17.4400  -32.3490 C   0  0  0  0  0  0  0  0  0  0  0  0
   -7.9190   18.0640  -32.5490 C   0  0  0  0  0  0  0  0  0  0  0  0
   -7.9300   19.5160  -32.1530 C   0  0  0  0  0  0  0  0  0  0  0  0
   -9.1260   20.2720  -32.2390 C   0  0  0  0  0  0  0  0  0  0  0  0
   -9.1260   21.6470  -31.9510 C   0  0  0  0  0  0  0  0  0  0  0  0
   -7.9160   22.2390  -31.5990 C   0  0  0  0  0  0  0  0  0  0  0  0
   -7.6340   23.5380  -31.2400 C   0  0  0  0  0  0  0  0  0  0  0  0
   -6.2690   23.5550  -30.9640 C   0  0  0  0  0  0  0  0  0  0  0  0
   -5.5370   24.7590  -30.5150 C   0  0  0  0  0  0  0  0  0  0  0  0
   -5.8520   25.4060  -29.2810 N   0  0  0  0  0  0  0  0  0  0  0  0
   -4.5900   25.2040  -31.2170 O   0  0  0  0  0  0  0  0  0  0  0  0
   -5.7290   22.3200  -31.1490 N   0  0  0  0  0  0  0  0  0  0  0  0
   -4.4030   21.8880  -30.8090 C   0  0  0  0  0  0  0  0  0  0  0  0
   -4.0040   22.0120  -29.6190 O   0  0  0  0  0  0  0  0  0  0  0  0
   -3.5250   21.3370  -31.8100 N   0  0  0  0  0  0  0  0  0  0  0  0
   -3.8120   21.5390  -33.2330 C   0  0  0  0  0  0  0  0  0  0  0  0
   -2.2990   20.6520  -31.3910 C   0  0  0  0  0  0  0  0  0  0  0  0
   -6.7510   21.5240  -31.5260 C   0  0  0  0  0  0  0  0  0  0  0  0
   -6.7250   20.1490  -31.7770 C   0  0  0  0  0  0  0  0  0  0  0  0
   -3.3784   18.2416  -32.6376 H   0  0  0  0  0  0  0  0  0  0  0  0
   -2.7443   17.0157  -33.7872 H   0  0  0  0  0  0  0  0  0  0  0  0
   -2.0698   18.6805  -33.7872 H   0  0  0  0  0  0  0  0  0  0  0  0
   -5.7278   15.1517  -33.4032 H   0  0  0  0  0  0  0  0  0  0  0  0
   -6.6599   15.7114  -34.8331 H   0  0  0  0  0  0  0  0  0  0  0  0
   -4.8667   15.8155  -34.8331 H   0  0  0  0  0  0  0  0  0  0  0  0
   -6.6450   16.4675  -31.8476 H   0  0  0  0  0  0  0  0  0  0  0  0
   -5.9271   18.1243  -31.7360 H   0  0  0  0  0  0  0  0  0  0  0  0
   -8.1998   17.9800  -33.6092 H   0  0  0  0  0  0  0  0  0  0  0  0
   -8.6360   17.5258  -31.9116 H   0  0  0  0  0  0  0  0  0  0  0  0
  -10.0631   19.7773  -32.5341 H   0  0  0  0  0  0  0  0  0  0  0  0
  -10.0528   22.2373  -32.0020 H   0  0  0  0  0  0  0  0  0  0  0  0
   -8.3369   24.3823  -31.1833 H   0  0  0  0  0  0  0  0  0  0  0  0
   -6.4830   24.9620  -28.5800 H   0  0  0  0  0  0  0  0  0  0  0  0
   -5.3630   26.2900  -29.0170 H   0  0  0  0  0  0  0  0  0  0  0  0
   -4.7072   22.1691  -33.3407 H   0  0  0  0  0  0  0  0  0  0  0  0
   -2.9552   22.0342  -33.7132 H   0  0  0  0  0  0  0  0  0  0  0  0
   -3.9890   20.5653  -33.7132 H   0  0  0  0  0  0  0  0  0  0  0  0
   -2.2511   20.6252  -30.2924 H   0  0  0  0  0  0  0  0  0  0  0  0
   -2.3009   19.6242  -31.7831 H   0  0  0  0  0  0  0  0  0  0  0  0
   -1.4248   21.1924  -31.7831 H   0  0  0  0  0  0  0  0  0  0  0  0
   -5.7909   19.5755  -31.6841 H   0  0  0  0  0  0  0  0  0  0  0  0
  1  2  1  0
  2  3  1  0
  3  4  2  0
  3  5  1  0
  5  6  1  0
  5  7  1  0
  7  8  1  0
  8  9  1  0
  9 10  2  0
 10 11  1  0
 11 12  2  0
 12 13  1  0
 13 14  2  0
 14 15  1  0
 15 16  1  0
 15 17  2  0
 14 18  1  0
 18 19  1  0
 19 20  2  0
 19 21  1  0
 21 22  1  0
 21 23  1  0
 18 24  1  0
 24 25  2  0
 25  9  1  0
 24 12  1  0
  1 26  1  0
  1 27  1  0
  1 28  1  0
  6 29  1  0
  6 30  1  0
  6 31  1  0
  7 32  1  0
  7 33  1  0
  8 34  1  0
  8 35  1  0
 10 36  1  0
 11 37  1  0
 13 38  1  0
 16 39  1  0
 16 40  1  0
 22 41  1  0
 22 42  1  0
 22 43  1  0
 23 44  1  0
 23 45  1  0
 23 46  1  0
 25 47  1  0
M  END
>  <UniqueID>  (35) 
35

>  <SMILES>  (35) 
COC(=O)N(C)CCc1ccc2cc(C(N)=O)n(C(=O)N(C)C)c2c1

>  <Energy>  (35) 
73.76668068860198

>  <Genealogy>  (35) 
COC(=O)N(C)CCc1ccc2cc(C(N)=O)n(C(=O)N(C)C)c2c1 (3D coordinates assigned)
COC(=O)N(C)CCc1ccc2cc(C(N)=O)n(C(=O)N(C)C)c2c1 (optimized conformer: 73.76668068860198 kcal/mol)

>  <smiles>  (35) 
COC(=O)N(C)CCc1ccc2cc(C(N)=O)n(C(=O)N(C)C)c2c1

>  <score_type>  (35) 
oracle

>  <origin>  (35) 
adg

>  <m_score__min__energy>  (35) 
-8.6699999999999999

>  <m_primary>  (35) 
energy

$$$$
35:0
     RDKit          3D

 27 28  0  0  0  0  0  0  0  0999 V2000
   -7.4210   18.4820  -32.7100 C   0  0  0  0  0  0  0  0  0  0  0  0
   -7.4530   19.9340  -32.3390 C   0  0  0  0  0  0  0  0  0  0  0  0
   -8.6840   20.6370  -32.3350 C   0  0  0  0  0  0  0  0  0  0  0  0
   -8.7360   21.9860  -31.9420 C   0  0  0  0  0  0  0  0  0  0  0  0
   -7.5470   22.5990  -31.5550 C   0  0  0  0  0  0  0  0  0  0  0  0
   -7.3150   23.8770  -31.0990 C   0  0  0  0  0  0  0  0  0  0  0  0
   -5.9490   23.9330  -30.8340 C   0  0  0  0  0  0  0  0  0  0  0  0
   -5.2520   25.1480  -30.3620 C   0  0  0  0  0  0  0  0  0  0  0  0
   -3.8530   25.3000  -30.5920 N   0  0  0  0  0  0  0  0  0  0  0  0
   -5.8750   26.0480  -29.7390 O   0  0  0  0  0  0  0  0  0  0  0  0
   -5.3600   22.7380  -31.1180 N   0  0  0  0  0  0  0  0  0  0  0  0
   -3.9810   22.3770  -30.9380 C   0  0  0  0  0  0  0  0  0  0  0  0
   -3.1440   22.6290  -31.8460 O   0  0  0  0  0  0  0  0  0  0  0  0
   -3.5290   21.6870  -29.6890 C   0  0  0  0  0  0  0  0  0  0  0  0
   -3.6950   22.7880  -28.3000 Cl  0  0  0  0  0  0  0  0  0  0  0  0
   -6.3500   21.9310  -31.5550 C   0  0  0  0  0  0  0  0  0  0  0  0
   -6.2710   20.5840  -31.9230 C   0  0  0  0  0  0  0  0  0  0  0  0
   -7.4075   17.8702  -31.7959 H   0  0  0  0  0  0  0  0  0  0  0  0
   -8.3139   18.2353  -33.3032 H   0  0  0  0  0  0  0  0  0  0  0  0
   -6.5181   18.2749  -33.3032 H   0  0  0  0  0  0  0  0  0  0  0  0
   -9.6066   20.1226  -32.6420 H   0  0  0  0  0  0  0  0  0  0  0  0
   -9.6863   22.5399  -31.9403 H   0  0  0  0  0  0  0  0  0  0  0  0
   -8.0524   24.6832  -30.9711 H   0  0  0  0  0  0  0  0  0  0  0  0
   -3.4910   26.0530  -31.2180 H   0  0  0  0  0  0  0  0  0  0  0  0
   -4.1466   20.7922  -29.5219 H   0  0  0  0  0  0  0  0  0  0  0  0
   -2.4743   21.3937  -29.7967 H   0  0  0  0  0  0  0  0  0  0  0  0
   -5.3127   20.0451  -31.8891 H   0  0  0  0  0  0  0  0  0  0  0  0
  1  2  1  0
  2  3  2  0
  3  4  1  0
  4  5  2  0
  5  6  1  0
  6  7  2  0
  7  8  1  0
  8  9  1  0
  8 10  2  0
  7 11  1  0
 11 12  1  0
 12 13  2  0
 12 14  1  0
 14 15  1  0
 11 16  1  0
 16 17  2  0
 17  2  1  0
 16  5  1  0
  1 18  1  0
  1 19  1  0
  1 20  1  0
  3 21  1  0
  4 22  1  0
  6 23  1  0
  9 24  1  0
 14 25  1  0
 14 26  1  0
 17 27  1  0
M  CHG  1   9  -1
M  END
>  <UniqueID>  (36) 
36

>  <SMILES>  (36) 
Cc1ccc2cc(C([NH-])=O)n(C(=O)CCl)c2c1

>  <Energy>  (36) 
64.72048048829627

>  <Genealogy>  (36) 
Cc1ccc2cc(C([NH-])=O)n(C(=O)CCl)c2c1 (protonated)
Cc1ccc2cc(C([NH-])=O)n(C(=O)CCl)c2c1 (3D coordinates assigned)
Cc1ccc2cc(C([NH-])=O)n(C(=O)CCl)c2c1 (optimized conformer: 64.72048048829627 kcal/mol)

>  <smiles>  (36) 
Cc1ccc2cc(C(N)=O)n(C(=O)CCl)c2c1

>  <score_type>  (36) 
oracle

>  <origin>  (36) 
adg

>  <m_score__min__energy>  (36) 
-9.75

>  <m_primary>  (36) 
energy

$$$$
36:0
     RDKit          3D

 54 58  0  0  0  0  0  0  0  0999 V2000
    0.3950   15.4890  -31.3200 C   0  0  0  0  0  0  0  0  0  0  0  0
   -0.4560   16.5050  -32.0040 C   0  0  0  0  0  0  0  0  0  0  0  0
   -1.1850   16.2560  -33.1100 N   0  0  0  0  0  0  0  0  0  0  0  0
   -1.7710   17.4280  -33.4080 C   0  0  0  0  0  0  0  0  0  0  0  0
   -1.3680   18.3510  -32.4630 C   0  0  0  0  0  0  0  0  0  0  0  0
   -1.7510   19.7650  -32.3840 C   0  0  0  0  0  0  0  0  0  0  0  0
   -1.3520   20.7720  -33.2430 C   0  0  0  0  0  0  0  0  0  0  0  0
   -1.9530   21.9220  -32.7770 C   0  0  0  0  0  0  0  0  0  0  0  0
   -2.6780   21.5410  -31.6620 C   0  0  0  0  0  0  0  0  0  0  0  0
   -3.4930   22.4250  -30.8160 C   0  0  0  0  0  0  0  0  0  0  0  0
   -2.9530   23.0660  -29.8750 O   0  0  0  0  0  0  0  0  0  0  0  0
   -4.8920   22.6030  -31.0860 N   0  0  0  0  0  0  0  0  0  0  0  0
   -5.6560   23.7120  -30.8680 C   0  0  0  0  0  0  0  0  0  0  0  0
   -5.1580   25.0300  -30.4220 C   0  0  0  0  0  0  0  0  0  0  0  0
   -3.8710   25.4810  -30.8380 N   0  0  0  0  0  0  0  0  0  0  0  0
   -5.8460   25.7510  -29.6530 O   0  0  0  0  0  0  0  0  0  0  0  0
   -6.9860   23.4580  -31.1990 C   0  0  0  0  0  0  0  0  0  0  0  0
   -7.0100   22.1540  -31.6400 C   0  0  0  0  0  0  0  0  0  0  0  0
   -8.0730   21.3790  -32.0930 C   0  0  0  0  0  0  0  0  0  0  0  0
   -7.8070   20.0520  -32.4690 C   0  0  0  0  0  0  0  0  0  0  0  0
   -6.4930   19.5220  -32.3810 C   0  0  0  0  0  0  0  0  0  0  0  0
   -6.2320   18.1620  -32.7750 N   0  0  0  0  0  0  0  0  0  0  0  0
   -6.4100   17.7420  -34.1700 C   0  0  0  0  0  0  0  0  0  0  0  0
   -5.1340   17.0590  -34.6670 C   0  0  0  0  0  0  0  0  0  0  0  0
   -4.6370   16.0700  -33.6950 N   0  0  0  0  0  0  0  0  0  0  0  0
   -3.5170   15.2380  -34.0480 C   0  0  0  0  0  0  0  0  0  0  0  0
   -2.8910   15.4370  -35.1230 O   0  0  0  0  0  0  0  0  0  0  0  0
   -3.1120   14.2010  -33.2150 O   0  0  0  0  0  0  0  0  0  0  0  0
   -5.3510   15.8600  -32.4260 C   0  0  0  0  0  0  0  0  0  0  0  0
   -5.7170   17.2060  -31.7840 C   0  0  0  0  0  0  0  0  0  0  0  0
   -5.4390   20.3430  -31.9210 C   0  0  0  0  0  0  0  0  0  0  0  0
   -5.7330   21.6640  -31.5640 C   0  0  0  0  0  0  0  0  0  0  0  0
   -2.5400   20.2510  -31.4550 O   0  0  0  0  0  0  0  0  0  0  0  0
   -0.5600   17.7570  -31.6150 O   0  0  0  0  0  0  0  0  0  0  0  0
    0.2988   15.6038  -30.2302 H   0  0  0  0  0  0  0  0  0  0  0  0
    0.0684   14.4802  -31.6126 H   0  0  0  0  0  0  0  0  0  0  0  0
    1.4455   15.6336  -31.6126 H   0  0  0  0  0  0  0  0  0  0  0  0
   -1.2730   15.3540  -33.6280 H   0  0  0  0  0  0  0  0  0  0  0  0
   -2.4496   17.6180  -34.2526 H   0  0  0  0  0  0  0  0  0  0  0  0
   -0.6916   20.6757  -34.1174 H   0  0  0  0  0  0  0  0  0  0  0  0
   -1.8727   22.9328  -33.2033 H   0  0  0  0  0  0  0  0  0  0  0  0
   -3.0150   25.2320  -30.2960 H   0  0  0  0  0  0  0  0  0  0  0  0
   -7.8360   24.1521  -31.1238 H   0  0  0  0  0  0  0  0  0  0  0  0
   -9.0904   21.7927  -32.1548 H   0  0  0  0  0  0  0  0  0  0  0  0
   -8.6263   19.4162  -32.8358 H   0  0  0  0  0  0  0  0  0  0  0  0
   -7.2519   17.0371  -34.2355 H   0  0  0  0  0  0  0  0  0  0  0  0
   -6.6189   18.6239  -34.7933 H   0  0  0  0  0  0  0  0  0  0  0  0
   -5.3487   16.5490  -35.6177 H   0  0  0  0  0  0  0  0  0  0  0  0
   -4.3604   17.8293  -34.8016 H   0  0  0  0  0  0  0  0  0  0  0  0
   -6.2713   15.2891  -32.6189 H   0  0  0  0  0  0  0  0  0  0  0  0
   -4.6966   15.3047  -31.7380 H   0  0  0  0  0  0  0  0  0  0  0  0
   -6.4883   17.0371  -31.0181 H   0  0  0  0  0  0  0  0  0  0  0  0
   -4.8052   17.6320  -31.3400 H   0  0  0  0  0  0  0  0  0  0  0  0
   -4.4130   19.9536  -31.8454 H   0  0  0  0  0  0  0  0  0  0  0  0
  1  2  1  0
  2  3  2  0
  3  4  1  0
  4  5  2  0
  5  6  1  0
  6  7  2  0
  7  8  1  0
  8  9  2  0
  9 10  1  0
 10 11  2  0
 10 12  1  0
 12 13  1  0
 13 14  1  0
 14 15  1  0
 14 16  2  0
 13 17  2  0
 17 18  1  0
 18 19  2  0
 19 20  1  0
 20 21  2  0
 21 22  1  0
 22 23  1  0
 23 24  1  0
 24 25  1  0
 25 26  1  0
 26 27  2  0
 26 28  1  0
 25 29  1  0
 29 30  1  0
 21 31  1  0
 31 32  2  0
  9 33  1  0
  5 34  1  0
 34  2  1  0
 33  6  1  0
 32 12  1  0
 32 18  1  0
 30 22  1  0
  1 35  1  0
  1 36  1  0
  1 37  1  0
  3 38  1  0
  4 39  1  0
  7 40  1  0
  8 41  1  0
 15 42  1  0
 17 43  1  0
 19 44  1  0
 20 45  1  0
 23 46  1  0
 23 47  1  0
 24 48  1  0
 24 49  1  0
 29 50  1  0
 29 51  1  0
 30 52  1  0
 30 53  1  0
 31 54  1  0
M  CHG  3   3   1  15  -1  28  -1
M  END
>  <UniqueID>  (37) 
37

>  <SMILES>  (37) 
Cc1[nH+]cc(-c2ccc(C(=O)n3c(C([NH-])=O)cc4ccc(N5CCN(C(=O)[O-])CC5)cc43)o2)o1

>  <Energy>  (37) 
156.57631238058948

>  <Genealogy>  (37) 
Cc1[nH+]cc(-c2ccc(C(=O)n3c(C([NH-])=O)cc4ccc(N5CCN(C(=O)[O-])CC5)cc43)o2)o1 (protonated)
Cc1[nH+]cc(-c2ccc(C(=O)n3c(C([NH-])=O)cc4ccc(N5CCN(C(=O)[O-])CC5)cc43)o2)o1 (3D coordinates assigned)
Cc1[nH+]cc(-c2ccc(C(=O)n3c(C([NH-])=O)cc4ccc(N5CCN(C(=O)[O-])CC5)cc43)o2)o1 (nonaromatic ring conformer: 156.57631238058948 kcal/mol)

>  <smiles>  (37) 
Cc1ncc(-c2ccc(C(=O)n3c(C(N)=O)cc4ccc(N5CCN(C(=O)O)CC5)cc43)o2)o1

>  <score_type>  (37) 
oracle

>  <origin>  (37) 
adg

>  <m_score__min__energy>  (37) 
-12.109999999999999

>  <m_primary>  (37) 
energy

$$$$
37:0
     RDKit          3D

 31 33  0  0  0  0  0  0  0  0999 V2000
   -8.9590   19.3500  -32.7270 C   0  0  0  0  0  0  0  0  0  0  0  0
   -7.5220   19.5230  -32.8870 N   0  0  0  0  0  0  0  0  0  0  0  0
   -6.7100   20.1830  -32.0400 C   0  0  0  0  0  0  0  0  0  0  0  0
   -5.4120   20.0630  -32.5070 C   0  0  0  0  0  0  0  0  0  0  0  0
   -4.1760   20.6240  -31.9050 C   0  0  0  0  0  0  0  0  0  0  0  0
   -2.9600   19.8890  -31.9460 C   0  0  0  0  0  0  0  0  0  0  0  0
   -1.7870   20.4050  -31.3700 C   0  0  0  0  0  0  0  0  0  0  0  0
   -1.8510   21.6560  -30.7660 C   0  0  0  0  0  0  0  0  0  0  0  0
   -0.8750   22.3740  -30.1140 C   0  0  0  0  0  0  0  0  0  0  0  0
   -1.4960   23.5500  -29.6990 C   0  0  0  0  0  0  0  0  0  0  0  0
   -0.7810   24.6550  -29.0290 C   0  0  0  0  0  0  0  0  0  0  0  0
   -1.2080   26.0000  -29.2290 N   0  0  0  0  0  0  0  0  0  0  0  0
    0.1810   24.4220  -28.2510 O   0  0  0  0  0  0  0  0  0  0  0  0
   -2.8080   23.5560  -30.0740 N   0  0  0  0  0  0  0  0  0  0  0  0
   -3.8020   24.5500  -29.7770 C   0  0  0  0  0  0  0  0  0  0  0  0
   -4.5150   24.4470  -28.7440 O   0  0  0  0  0  0  0  0  0  0  0  0
   -3.9690   25.6480  -30.6100 O   0  0  0  0  0  0  0  0  0  0  0  0
   -3.0080   22.3890  -30.7300 C   0  0  0  0  0  0  0  0  0  0  0  0
   -4.1960   21.8930  -31.2790 C   0  0  0  0  0  0  0  0  0  0  0  0
   -5.5240   19.2900  -33.6560 C   0  0  0  0  0  0  0  0  0  0  0  0
   -6.8150   18.9690  -33.8580 N   0  0  0  0  0  0  0  0  0  0  0  0
   -9.2077   19.3201  -31.6559 H   0  0  0  0  0  0  0  0  0  0  0  0
   -9.4848   20.1913  -33.2021 H   0  0  0  0  0  0  0  0  0  0  0  0
   -9.2701   18.4079  -33.2021 H   0  0  0  0  0  0  0  0  0  0  0  0
   -7.0232   20.7235  -31.1346 H   0  0  0  0  0  0  0  0  0  0  0  0
   -2.9371   18.9039  -32.4348 H   0  0  0  0  0  0  0  0  0  0  0  0
   -0.8458   19.8363  -31.3960 H   0  0  0  0  0  0  0  0  0  0  0  0
    0.1733   22.0815  -29.9543 H   0  0  0  0  0  0  0  0  0  0  0  0
   -0.8830   26.5490  -30.0550 H   0  0  0  0  0  0  0  0  0  0  0  0
   -5.1262   22.4776  -31.2250 H   0  0  0  0  0  0  0  0  0  0  0  0
   -4.6862   18.9870  -34.3013 H   0  0  0  0  0  0  0  0  0  0  0  0
  1  2  1  0
  2  3  1  0
  3  4  2  0
  4  5  1  0
  5  6  2  0
  6  7  1  0
  7  8  2  0
  8  9  1  0
  9 10  2  0
 10 11  1  0
 11 12  1  0
 11 13  2  0
 10 14  1  0
 14 15  1  0
 15 16  2  0
 15 17  1  0
 14 18  1  0
 18 19  2  0
  4 20  1  0
 20 21  2  0
 21  2  1  0
 19  5  1  0
 18  8  1  0
  1 22  1  0
  1 23  1  0
  1 24  1  0
  3 25  1  0
  6 26  1  0
  7 27  1  0
  9 28  1  0
 12 29  1  0
 19 30  1  0
 20 31  1  0
M  CHG  2  12  -1  17  -1
M  END
>  <UniqueID>  (38) 
38

>  <SMILES>  (38) 
Cn1cc(-c2ccc3cc(C([NH-])=O)n(C(=O)[O-])c3c2)cn1

>  <Energy>  (38) 
103.99095729936464

>  <Genealogy>  (38) 
Cn1cc(-c2ccc3cc(C([NH-])=O)n(C(=O)[O-])c3c2)cn1 (protonated)
Cn1cc(-c2ccc3cc(C([NH-])=O)n(C(=O)[O-])c3c2)cn1 (3D coordinates assigned)
Cn1cc(-c2ccc3cc(C([NH-])=O)n(C(=O)[O-])c3c2)cn1 (optimized conformer: 103.99095729936464 kcal/mol)

>  <smiles>  (38) 
Cn1cc(-c2ccc3cc(C(N)=O)n(C(=O)O)c3c2)cn1

>  <score_type>  (38) 
oracle

>  <origin>  (38) 
adg

>  <m_score__min__energy>  (38) 
-11.09

>  <m_primary>  (38) 
energy

$$$$
39:0
     RDKit          3D

 38 40  0  0  0  0  0  0  0  0999 V2000
   -5.3000   24.6900  -29.0330 N   0  0  0  0  0  0  0  0  0  0  0  0
   -4.6710   24.6000  -30.3130 C   0  0  0  0  0  0  0  0  0  0  0  0
   -4.1940   25.6420  -30.8350 O   0  0  0  0  0  0  0  0  0  0  0  0
   -4.5600   23.3010  -31.0170 C   0  0  0  0  0  0  0  0  0  0  0  0
   -3.3650   22.7640  -31.4970 C   0  0  0  0  0  0  0  0  0  0  0  0
   -3.7180   21.5890  -32.1220 C   0  0  0  0  0  0  0  0  0  0  0  0
   -2.9220   20.6360  -32.7490 C   0  0  0  0  0  0  0  0  0  0  0  0
   -3.5510   19.4940  -33.2760 C   0  0  0  0  0  0  0  0  0  0  0  0
   -4.9570   19.3310  -33.1740 C   0  0  0  0  0  0  0  0  0  0  0  0
   -5.6240   18.0800  -33.6880 C   0  0  0  0  0  0  0  0  0  0  0  0
   -6.1230   18.2890  -34.9610 F   0  0  0  0  0  0  0  0  0  0  0  0
   -4.7280   17.0270  -33.7410 F   0  0  0  0  0  0  0  0  0  0  0  0
   -6.6660   17.7410  -32.8450 F   0  0  0  0  0  0  0  0  0  0  0  0
   -5.7250   20.3120  -32.5060 C   0  0  0  0  0  0  0  0  0  0  0  0
   -5.0750   21.4460  -32.0110 C   0  0  0  0  0  0  0  0  0  0  0  0
   -5.6070   22.4910  -31.3410 N   0  0  0  0  0  0  0  0  0  0  0  0
   -6.9850   22.6710  -30.9800 C   0  0  0  0  0  0  0  0  0  0  0  0
   -7.2730   23.0810  -29.8220 O   0  0  0  0  0  0  0  0  0  0  0  0
   -8.0700   22.5100  -32.0130 C   0  0  0  0  0  0  0  0  0  0  0  0
   -9.3830   21.9640  -31.4340 C   0  0  0  0  0  0  0  0  0  0  0  0
   -9.7370   20.5890  -32.0210 C   0  0  0  0  0  0  0  0  0  0  0  0
   -8.7250   20.0430  -33.0170 C   0  0  0  0  0  0  0  0  0  0  0  0
   -8.8190   19.4430  -31.6230 C   0  0  0  0  0  0  0  0  0  0  0  0
   -5.7680   23.8680  -28.5940 H   0  0  0  0  0  0  0  0  0  0  0  0
   -5.3380   25.6070  -28.5340 H   0  0  0  0  0  0  0  0  0  0  0  0
   -2.3554   23.1891  -31.3973 H   0  0  0  0  0  0  0  0  0  0  0  0
   -1.8334   20.7716  -32.8301 H   0  0  0  0  0  0  0  0  0  0  0  0
   -2.9474   18.7197  -33.7720 H   0  0  0  0  0  0  0  0  0  0  0  0
   -6.8103   20.1856  -32.3786 H   0  0  0  0  0  0  0  0  0  0  0  0
   -8.2698   23.4924  -32.4656 H   0  0  0  0  0  0  0  0  0  0  0  0
   -7.7106   21.7788  -32.7520 H   0  0  0  0  0  0  0  0  0  0  0  0
   -9.2790   21.8694  -30.3430 H   0  0  0  0  0  0  0  0  0  0  0  0
  -10.1895   22.6651  -31.6948 H   0  0  0  0  0  0  0  0  0  0  0  0
  -10.8256   20.7468  -32.0130 H   0  0  0  0  0  0  0  0  0  0  0  0
   -9.0674   19.4657  -33.8885 H   0  0  0  0  0  0  0  0  0  0  0  0
   -7.9173   20.4790  -33.6232 H   0  0  0  0  0  0  0  0  0  0  0  0
   -9.2295   18.4317  -31.4861 H   0  0  0  0  0  0  0  0  0  0  0  0
   -8.1074   19.2653  -30.8032 H   0  0  0  0  0  0  0  0  0  0  0  0
  1  2  1  0
  2  3  2  0
  2  4  1  0
  4  5  2  0
  5  6  1  0
  6  7  2  0
  7  8  1  0
  8  9  2  0
  9 10  1  0
 10 11  1  0
 10 12  1  0
 10 13  1  0
  9 14  1  0
 14 15  2  0
 15 16  1  0
 16 17  1  0
 17 18  2  0
 17 19  1  0
 19 20  1  0
 20 21  1  0
 21 22  1  0
 22 23  1  0
 16  4  1  0
 23 21  1  0
 15  6  1  0
  1 24  1  0
  1 25  1  0
  5 26  1  0
  7 27  1  0
  8 28  1  0
 14 29  1  0
 19 30  1  0
 19 31  1  0
 20 32  1  0
 20 33  1  0
 21 34  1  0
 22 35  1  0
 22 36  1  0
 23 37  1  0
 23 38  1  0
M  END
>  <UniqueID>  (39) 
39

>  <SMILES>  (39) 
NC(=O)c1cc2ccc(C(F)(F)F)cc2n1C(=O)CCC1CC1

>  <Energy>  (39) 
339.3006596172568

>  <Genealogy>  (39) 
NC(=O)c1cc2ccc(C(F)(F)F)cc2n1C(=O)CCC1CC1 (3D coordinates assigned)
NC(=O)c1cc2ccc(C(F)(F)F)cc2n1C(=O)CCC1CC1 (nonaromatic ring conformer: 339.3006596172568 kcal/mol)

>  <smiles>  (39) 
NC(=O)c1cc2ccc(C(F)(F)F)cc2n1C(=O)CCC1CC1

>  <score_type>  (39) 
oracle

>  <origin>  (39) 
adg

>  <m_score__min__energy>  (39) 
-8.75

>  <m_primary>  (39) 
energy

$$$$
40:0
     RDKit          3D

 46 48  0  0  0  0  0  0  0  0999 V2000
   -4.2160   24.9100  -26.3570 C   0  0  0  0  0  0  0  0  0  0  0  0
   -2.6960   24.9950  -26.4990 C   0  0  0  0  0  0  0  0  0  0  0  0
   -2.0620   23.6600  -26.9130 C   0  0  0  0  0  0  0  0  0  0  0  0
   -1.9370   23.4730  -28.6910 S   0  0  0  0  0  0  0  0  0  0  0  0
   -0.6240   22.8260  -29.0290 O   0  0  0  0  0  0  0  0  0  0  0  0
   -2.0130   24.8120  -29.3670 O   0  0  0  0  0  0  0  0  0  0  0  0
   -3.2540   22.4110  -29.2780 C   0  0  0  0  0  0  0  0  0  0  0  0
   -3.6350   22.6840  -30.7050 C   0  0  0  0  0  0  0  0  0  0  0  0
   -2.7590   22.9160  -31.5810 O   0  0  0  0  0  0  0  0  0  0  0  0
   -5.0200   22.7770  -31.0580 N   0  0  0  0  0  0  0  0  0  0  0  0
   -5.8410   23.8560  -30.9500 C   0  0  0  0  0  0  0  0  0  0  0  0
   -5.4500   25.1950  -30.4590 C   0  0  0  0  0  0  0  0  0  0  0  0
   -4.1170   25.6750  -30.6160 N   0  0  0  0  0  0  0  0  0  0  0  0
   -6.3070   25.9270  -29.8960 O   0  0  0  0  0  0  0  0  0  0  0  0
   -7.1260   23.5300  -31.3850 C   0  0  0  0  0  0  0  0  0  0  0  0
   -7.0600   22.2040  -31.7590 C   0  0  0  0  0  0  0  0  0  0  0  0
   -8.0500   21.3590  -32.2500 C   0  0  0  0  0  0  0  0  0  0  0  0
   -7.6990   20.0280  -32.5290 C   0  0  0  0  0  0  0  0  0  0  0  0
   -6.3740   19.5620  -32.3130 C   0  0  0  0  0  0  0  0  0  0  0  0
   -6.0180   18.1490  -32.6020 C   0  0  0  0  0  0  0  0  0  0  0  0
   -5.9450   17.6790  -33.9250 C   0  0  0  0  0  0  0  0  0  0  0  0
   -5.6190   16.3460  -34.1780 C   0  0  0  0  0  0  0  0  0  0  0  0
   -5.3690   15.4860  -33.1090 C   0  0  0  0  0  0  0  0  0  0  0  0
   -5.4400   15.9480  -31.8310 N   0  0  0  0  0  0  0  0  0  0  0  0
   -5.7520   17.2450  -31.5570 C   0  0  0  0  0  0  0  0  0  0  0  0
   -5.3980   20.4570  -31.8130 C   0  0  0  0  0  0  0  0  0  0  0  0
   -5.7780   21.7760  -31.5500 C   0  0  0  0  0  0  0  0  0  0  0  0
   -4.4843   24.8950  -25.2903 H   0  0  0  0  0  0  0  0  0  0  0  0
   -4.6787   25.7837  -26.8393 H   0  0  0  0  0  0  0  0  0  0  0  0
   -4.5785   23.9902  -26.8393 H   0  0  0  0  0  0  0  0  0  0  0  0
   -2.4559   25.7498  -27.2623 H   0  0  0  0  0  0  0  0  0  0  0  0
   -2.2859   25.2654  -25.5148 H   0  0  0  0  0  0  0  0  0  0  0  0
   -1.0518   23.6018  -26.4815 H   0  0  0  0  0  0  0  0  0  0  0  0
   -2.7118   22.8547  -26.5399 H   0  0  0  0  0  0  0  0  0  0  0  0
   -2.9233   21.3650  -29.1973 H   0  0  0  0  0  0  0  0  0  0  0  0
   -4.1396   22.6104  -28.6567 H   0  0  0  0  0  0  0  0  0  0  0  0
   -3.3340   25.0230  -30.8420 H   0  0  0  0  0  0  0  0  0  0  0  0
   -8.0050   24.1903  -31.4219 H   0  0  0  0  0  0  0  0  0  0  0  0
   -9.0753   21.7218  -32.4145 H   0  0  0  0  0  0  0  0  0  0  0  0
   -8.4601   19.3368  -32.9201 H   0  0  0  0  0  0  0  0  0  0  0  0
   -6.1453   18.3635  -34.7625 H   0  0  0  0  0  0  0  0  0  0  0  0
   -5.5597   15.9765  -35.2124 H   0  0  0  0  0  0  0  0  0  0  0  0
   -5.1141   14.4330  -33.2991 H   0  0  0  0  0  0  0  0  0  0  0  0
   -5.2540   15.2900  -31.0400 H   0  0  0  0  0  0  0  0  0  0  0  0
   -5.7963   17.5879  -30.5128 H   0  0  0  0  0  0  0  0  0  0  0  0
   -4.3652   20.1224  -31.6357 H   0  0  0  0  0  0  0  0  0  0  0  0
  1  2  1  0
  2  3  1  0
  3  4  1  0
  4  5  2  0
  4  6  2  0
  4  7  1  0
  7  8  1  0
  8  9  2  0
  8 10  1  0
 10 11  1  0
 11 12  1  0
 12 13  1  0
 12 14  2  0
 11 15  2  0
 15 16  1  0
 16 17  2  0
 17 18  1  0
 18 19  2  0
 19 20  1  0
 20 21  2  0
 21 22  1  0
 22 23  2  0
 23 24  1  0
 24 25  2  0
 19 26  1  0
 26 27  2  0
 27 10  1  0
 27 16  1  0
 25 20  1  0
  1 28  1  0
  1 29  1  0
  1 30  1  0
  2 31  1  0
  2 32  1  0
  3 33  1  0
  3 34  1  0
  7 35  1  0
  7 36  1  0
 13 37  1  0
 15 38  1  0
 17 39  1  0
 18 40  1  0
 21 41  1  0
 22 42  1  0
 23 43  1  0
 24 44  1  0
 25 45  1  0
 26 46  1  0
M  CHG  2  13  -1  24   1
M  END
>  <UniqueID>  (40) 
40

>  <SMILES>  (40) 
CCCS(=O)(=O)CC(=O)n1c(C([NH-])=O)cc2ccc(-c3ccc[nH+]c3)cc21

>  <Energy>  (40) 
84.02464200310683

>  <Genealogy>  (40) 
CCCS(=O)(=O)CC(=O)n1c(C([NH-])=O)cc2ccc(-c3ccc[nH+]c3)cc21 (protonated)
CCCS(=O)(=O)CC(=O)n1c(C([NH-])=O)cc2ccc(-c3ccc[nH+]c3)cc21 (3D coordinates assigned)
CCCS(=O)(=O)CC(=O)n1c(C([NH-])=O)cc2ccc(-c3ccc[nH+]c3)cc21 (optimized conformer: 84.02464200310683 kcal/mol)

>  <smiles>  (40) 
CCCS(=O)(=O)CC(=O)n1c(C(N)=O)cc2ccc(-c3cccnc3)cc21

>  <score_type>  (40) 
oracle

>  <origin>  (40) 
adg

>  <m_score__min__energy>  (40) 
-11.800000000000001

>  <m_primary>  (40) 
energy

$$$$
41:0
     RDKit          3D

 35 37  0  0  0  0  0  0  0  0999 V2000
   -9.3480   19.3840  -32.7130 C   0  0  0  0  0  0  0  0  0  0  0  0
   -7.8930   19.3210  -32.7580 N   0  0  0  0  0  0  0  0  0  0  0  0
   -7.2090   18.4440  -33.4770 N   0  0  0  0  0  0  0  0  0  0  0  0
   -5.8970   18.6860  -33.2750 C   0  0  0  0  0  0  0  0  0  0  0  0
   -5.7480   19.7560  -32.4040 C   0  0  0  0  0  0  0  0  0  0  0  0
   -4.4790   20.3430  -31.9110 C   0  0  0  0  0  0  0  0  0  0  0  0
   -3.2480   19.6560  -32.0780 C   0  0  0  0  0  0  0  0  0  0  0  0
   -2.0430   20.2150  -31.6210 C   0  0  0  0  0  0  0  0  0  0  0  0
   -2.0960   21.4520  -30.9890 C   0  0  0  0  0  0  0  0  0  0  0  0
   -1.0820   22.2310  -30.4780 C   0  0  0  0  0  0  0  0  0  0  0  0
   -1.7090   23.3710  -29.9790 C   0  0  0  0  0  0  0  0  0  0  0  0
   -0.9890   24.4630  -29.2870 C   0  0  0  0  0  0  0  0  0  0  0  0
   -1.6430   25.6890  -28.9690 N   0  0  0  0  0  0  0  0  0  0  0  0
    0.2110   24.2980  -28.9410 O   0  0  0  0  0  0  0  0  0  0  0  0
   -3.0540   23.2990  -30.1740 N   0  0  0  0  0  0  0  0  0  0  0  0
   -4.0410   24.2960  -29.8640 C   0  0  0  0  0  0  0  0  0  0  0  0
   -4.2310   25.2570  -30.6560 O   0  0  0  0  0  0  0  0  0  0  0  0
   -4.8490   24.2080  -28.6040 C   0  0  0  0  0  0  0  0  0  0  0  0
   -4.1740   24.8410  -27.5520 O   0  0  0  0  0  0  0  0  0  0  0  0
   -3.2750   22.1210  -30.7960 C   0  0  0  0  0  0  0  0  0  0  0  0
   -4.4880   21.5990  -31.2590 C   0  0  0  0  0  0  0  0  0  0  0  0
   -7.0450   20.1300  -32.1010 C   0  0  0  0  0  0  0  0  0  0  0  0
   -7.4340   21.1070  -31.2430 F   0  0  0  0  0  0  0  0  0  0  0  0
   -9.6821   19.3985  -31.6651 H   0  0  0  0  0  0  0  0  0  0  0  0
   -9.6913   20.2979  -33.2200 H   0  0  0  0  0  0  0  0  0  0  0  0
   -9.7690   18.5032  -33.2200 H   0  0  0  0  0  0  0  0  0  0  0  0
   -5.0710   18.1209  -33.7314 H   0  0  0  0  0  0  0  0  0  0  0  0
   -3.2376   18.6731  -32.5717 H   0  0  0  0  0  0  0  0  0  0  0  0
   -1.0864   19.6898  -31.7591 H   0  0  0  0  0  0  0  0  0  0  0  0
   -0.0061   22.0021  -30.4662 H   0  0  0  0  0  0  0  0  0  0  0  0
   -2.6830   25.7670  -29.0010 H   0  0  0  0  0  0  0  0  0  0  0  0
   -5.8207   24.6993  -28.7603 H   0  0  0  0  0  0  0  0  0  0  0  0
   -5.0009   23.1491  -28.3478 H   0  0  0  0  0  0  0  0  0  0  0  0
   -3.5470   25.4900  -27.9670 H   0  0  0  0  0  0  0  0  0  0  0  0
   -5.4280   22.1529  -31.1192 H   0  0  0  0  0  0  0  0  0  0  0  0
  1  2  1  0
  2  3  1  0
  3  4  2  0
  4  5  1  0
  5  6  1  0
  6  7  2  0
  7  8  1  0
  8  9  2  0
  9 10  1  0
 10 11  2  0
 11 12  1  0
 12 13  1  0
 12 14  2  0
 11 15  1  0
 15 16  1  0
 16 17  2  0
 16 18  1  0
 18 19  1  0
 15 20  1  0
 20 21  2  0
  5 22  2  0
 22 23  1  0
 22  2  1  0
 21  6  1  0
 20  9  1  0
  1 24  1  0
  1 25  1  0
  1 26  1  0
  4 27  1  0
  7 28  1  0
  8 29  1  0
 10 30  1  0
 13 31  1  0
 18 32  1  0
 18 33  1  0
 19 34  1  0
 21 35  1  0
M  CHG  1  13  -1
M  END
>  <UniqueID>  (41) 
41

>  <SMILES>  (41) 
Cn1ncc(-c2ccc3cc(C([NH-])=O)n(C(=O)CO)c3c2)c1F

>  <Energy>  (41) 
109.30336062343775

>  <Genealogy>  (41) 
Cn1ncc(-c2ccc3cc(C([NH-])=O)n(C(=O)CO)c3c2)c1F (protonated)
Cn1ncc(-c2ccc3cc(C([NH-])=O)n(C(=O)CO)c3c2)c1F (3D coordinates assigned)
Cn1ncc(-c2ccc3cc(C([NH-])=O)n(C(=O)CO)c3c2)c1F (optimized conformer: 109.30336062343775 kcal/mol)

>  <smiles>  (41) 
Cn1ncc(-c2ccc3cc(C(N)=O)n(C(=O)CO)c3c2)c1F

>  <score_type>  (41) 
oracle

>  <origin>  (41) 
adg

>  <m_score__min__energy>  (41) 
-9.9700000000000006

>  <m_primary>  (41) 
energy

$$$$
42:0
     RDKit          3D

 34 36  0  0  0  0  0  0  0  0999 V2000
   -3.9930   25.3240  -30.5320 N   0  0  0  0  0  0  0  0  0  0  0  0
   -5.4080   25.1570  -30.5280 C   0  0  0  0  0  0  0  0  0  0  0  0
   -6.1370   26.0980  -30.1140 O   0  0  0  0  0  0  0  0  0  0  0  0
   -6.0280   23.8900  -30.9700 C   0  0  0  0  0  0  0  0  0  0  0  0
   -7.3840   23.7520  -31.2620 C   0  0  0  0  0  0  0  0  0  0  0  0
   -7.5570   22.4250  -31.5820 C   0  0  0  0  0  0  0  0  0  0  0  0
   -8.7010   21.7380  -31.9770 C   0  0  0  0  0  0  0  0  0  0  0  0
   -8.5770   20.3710  -32.2760 C   0  0  0  0  0  0  0  0  0  0  0  0
   -7.3240   19.7120  -32.1670 C   0  0  0  0  0  0  0  0  0  0  0  0
   -7.1930   18.2590  -32.5450 C   0  0  0  0  0  0  0  0  0  0  0  0
   -6.8710   18.1650  -33.8860 F   0  0  0  0  0  0  0  0  0  0  0  0
   -8.3800   17.5860  -32.3170 F   0  0  0  0  0  0  0  0  0  0  0  0
   -6.2000   17.6490  -31.7990 F   0  0  0  0  0  0  0  0  0  0  0  0
   -6.1800   20.4540  -31.7890 C   0  0  0  0  0  0  0  0  0  0  0  0
   -6.3370   21.8090  -31.4810 C   0  0  0  0  0  0  0  0  0  0  0  0
   -5.3900   22.6930  -31.1020 N   0  0  0  0  0  0  0  0  0  0  0  0
   -3.9850   22.4270  -30.9720 C   0  0  0  0  0  0  0  0  0  0  0  0
   -3.3050   22.2010  -32.0110 O   0  0  0  0  0  0  0  0  0  0  0  0
   -3.3340   22.4030  -29.6410 C   0  0  0  0  0  0  0  0  0  0  0  0
   -2.7250   21.2260  -29.1720 C   0  0  0  0  0  0  0  0  0  0  0  0
   -2.1230   21.2160  -27.9140 C   0  0  0  0  0  0  0  0  0  0  0  0
   -2.1250   22.3710  -27.1340 C   0  0  0  0  0  0  0  0  0  0  0  0
   -2.7290   23.5280  -27.6290 C   0  0  0  0  0  0  0  0  0  0  0  0
   -3.3120   23.5240  -28.8590 N   0  0  0  0  0  0  0  0  0  0  0  0
   -3.4900   25.6720  -29.6860 H   0  0  0  0  0  0  0  0  0  0  0  0
   -8.1533   24.5380  -31.2410 H   0  0  0  0  0  0  0  0  0  0  0  0
   -9.6720   22.2494  -32.0527 H   0  0  0  0  0  0  0  0  0  0  0  0
   -9.4623   19.8036  -32.5989 H   0  0  0  0  0  0  0  0  0  0  0  0
   -5.1905   19.9762  -31.7386 H   0  0  0  0  0  0  0  0  0  0  0  0
   -2.7233   20.3184  -29.7935 H   0  0  0  0  0  0  0  0  0  0  0  0
   -1.6474   20.2981  -27.5381 H   0  0  0  0  0  0  0  0  0  0  0  0
   -1.6557   22.3708  -26.1391 H   0  0  0  0  0  0  0  0  0  0  0  0
   -2.7339   24.4460  -27.0231 H   0  0  0  0  0  0  0  0  0  0  0  0
   -3.7390   24.4150  -29.1980 H   0  0  0  0  0  0  0  0  0  0  0  0
  1  2  1  0
  2  3  2  0
  2  4  1  0
  4  5  2  0
  5  6  1  0
  6  7  2  0
  7  8  1  0
  8  9  2  0
  9 10  1  0
 10 11  1  0
 10 12  1  0
 10 13  1  0
  9 14  1  0
 14 15  2  0
 15 16  1  0
 16 17  1  0
 17 18  2  0
 17 19  1  0
 19 20  2  0
 20 21  1  0
 21 22  2  0
 22 23  1  0
 23 24  2  0
 16  4  1  0
 24 19  1  0
 15  6  1  0
  1 25  1  0
  5 26  1  0
  7 27  1  0
  8 28  1  0
 14 29  1  0
 20 30  1  0
 21 31  1  0
 22 32  1  0
 23 33  1  0
 24 34  1  0
M  CHG  2   1  -1  24   1
M  END
>  <UniqueID>  (42) 
42

>  <SMILES>  (42) 
[NH-]C(=O)c1cc2ccc(C(F)(F)F)cc2n1C(=O)c1cccc[nH+]1

>  <Energy>  (42) 
78.05020904089841

>  <Genealogy>  (42) 
[NH-]C(=O)c1cc2ccc(C(F)(F)F)cc2n1C(=O)c1cccc[nH+]1 (protonated)
[NH-]C(=O)c1cc2ccc(C(F)(F)F)cc2n1C(=O)c1cccc[nH+]1 (3D coordinates assigned)
[NH-]C(=O)c1cc2ccc(C(F)(F)F)cc2n1C(=O)c1cccc[nH+]1 (optimized conformer: 78.05020904089841 kcal/mol)

>  <smiles>  (42) 
NC(=O)c1cc2ccc(C(F)(F)F)cc2n1C(=O)c1ccccn1

>  <score_type>  (42) 
oracle

>  <origin>  (42) 
adg

>  <m_score__min__energy>  (42) 
-9.1199999999999992

>  <m_primary>  (42) 
energy

$$$$
43:0
     RDKit          3D

 36 38  0  0  0  0  0  0  0  0999 V2000
   -5.7370   24.9530  -28.9730 C   0  0  0  0  0  0  0  0  0  0  0  0
   -5.0500   23.7050  -29.5410 C   0  0  0  0  0  0  0  0  0  0  0  0
   -4.7530   22.7120  -28.4050 C   0  0  0  0  0  0  0  0  0  0  0  0
   -6.2950   22.8400  -30.7720 Br  0  0  0  0  0  0  0  0  0  0  0  0
   -3.7640   24.1020  -30.2440 C   0  0  0  0  0  0  0  0  0  0  0  0
   -3.6950   25.2080  -30.8460 O   0  0  0  0  0  0  0  0  0  0  0  0
   -2.6510   23.1990  -30.3300 N   0  0  0  0  0  0  0  0  0  0  0  0
   -1.4170   23.3420  -29.7730 C   0  0  0  0  0  0  0  0  0  0  0  0
   -0.9670   24.4950  -28.9660 C   0  0  0  0  0  0  0  0  0  0  0  0
   -1.7560   25.6820  -28.9210 N   0  0  0  0  0  0  0  0  0  0  0  0
    0.1040   24.4400  -28.3090 O   0  0  0  0  0  0  0  0  0  0  0  0
   -0.6120   22.2500  -30.0930 C   0  0  0  0  0  0  0  0  0  0  0  0
   -1.3940   21.4430  -30.8890 C   0  0  0  0  0  0  0  0  0  0  0  0
   -1.0940   20.2380  -31.5160 C   0  0  0  0  0  0  0  0  0  0  0  0
   -2.0900   19.6390  -32.3050 C   0  0  0  0  0  0  0  0  0  0  0  0
   -3.3620   20.2510  -32.4650 C   0  0  0  0  0  0  0  0  0  0  0  0
   -4.4000   19.6070  -33.3080 C   0  0  0  0  0  0  0  0  0  0  0  0
   -5.7300   20.0060  -33.4590 C   0  0  0  0  0  0  0  0  0  0  0  0
   -6.4740   19.2310  -34.2950 N   0  0  0  0  0  0  0  0  0  0  0  0
   -5.7620   18.2120  -34.8220 C   0  0  0  0  0  0  0  0  0  0  0  0
   -4.1800   18.2340  -34.2630 S   0  0  0  0  0  0  0  0  0  0  0  0
   -3.6210   21.4840  -31.8160 C   0  0  0  0  0  0  0  0  0  0  0  0
   -2.6160   22.0440  -31.0240 C   0  0  0  0  0  0  0  0  0  0  0  0
   -5.7160   24.9149  -27.8739 H   0  0  0  0  0  0  0  0  0  0  0  0
   -5.2071   25.8527  -29.3189 H   0  0  0  0  0  0  0  0  0  0  0  0
   -6.7807   24.9865  -29.3189 H   0  0  0  0  0  0  0  0  0  0  0  0
   -4.9017   23.2092  -27.4351 H   0  0  0  0  0  0  0  0  0  0  0  0
   -5.4329   21.8509  -28.4836 H   0  0  0  0  0  0  0  0  0  0  0  0
   -3.7119   22.3656  -28.4836 H   0  0  0  0  0  0  0  0  0  0  0  0
   -2.7440   25.6830  -29.2570 H   0  0  0  0  0  0  0  0  0  0  0  0
    0.4264   22.0710  -29.7771 H   0  0  0  0  0  0  0  0  0  0  0  0
   -0.1064   19.7683  -31.3975 H   0  0  0  0  0  0  0  0  0  0  0  0
   -1.8820   18.6822  -32.8062 H   0  0  0  0  0  0  0  0  0  0  0  0
   -6.1458   20.8824  -32.9403 H   0  0  0  0  0  0  0  0  0  0  0  0
   -6.1651   17.4671  -35.5239 H   0  0  0  0  0  0  0  0  0  0  0  0
   -4.5914   21.9885  -31.9333 H   0  0  0  0  0  0  0  0  0  0  0  0
  1  2  1  0
  2  3  1  0
  2  4  1  0
  2  5  1  0
  5  6  2  0
  5  7  1  0
  7  8  1  0
  8  9  1  0
  9 10  1  0
  9 11  2  0
  8 12  2  0
 12 13  1  0
 13 14  2  0
 14 15  1  0
 15 16  2  0
 16 17  1  0
 17 18  2  0
 18 19  1  0
 19 20  2  0
 20 21  1  0
 16 22  1  0
 22 23  2  0
 23  7  1  0
 23 13  1  0
 21 17  1  0
  1 24  1  0
  1 25  1  0
  1 26  1  0
  3 27  1  0
  3 28  1  0
  3 29  1  0
 10 30  1  0
 12 31  1  0
 14 32  1  0
 15 33  1  0
 18 34  1  0
 20 35  1  0
 22 36  1  0
M  CHG  1  10  -1
M  END
>  <UniqueID>  (43) 
43

>  <SMILES>  (43) 
CC(C)(Br)C(=O)n1c(C([NH-])=O)cc2ccc(-c3cncs3)cc21

>  <Energy>  (43) 
107.50519889002125

>  <Genealogy>  (43) 
CC(C)(Br)C(=O)n1c(C([NH-])=O)cc2ccc(-c3cncs3)cc21 (protonated)
CC(C)(Br)C(=O)n1c(C([NH-])=O)cc2ccc(-c3cncs3)cc21 (3D coordinates assigned)
CC(C)(Br)C(=O)n1c(C([NH-])=O)cc2ccc(-c3cncs3)cc21 (optimized conformer: 107.50519889002125 kcal/mol)

>  <smiles>  (43) 
CC(C)(Br)C(=O)n1c(C(N)=O)cc2ccc(-c3cncs3)cc21

>  <score_type>  (43) 
oracle

>  <origin>  (43) 
adg

>  <m_score__min__energy>  (43) 
-11.289999999999999

>  <m_primary>  (43) 
energy

$$$$
44:0
     RDKit          3D

 34 35  0  0  0  0  0  0  0  0999 V2000
   -2.1240   22.3500  -27.4320 C   0  0  0  0  0  0  0  0  0  0  0  0
   -2.4410   22.8570  -28.8120 C   0  0  0  0  0  0  0  0  0  0  0  0
   -3.3110   22.1600  -29.5710 C   0  0  0  0  0  0  0  0  0  0  0  0
   -3.8870   22.6150  -30.8540 C   0  0  0  0  0  0  0  0  0  0  0  0
   -3.1100   22.8040  -31.8270 O   0  0  0  0  0  0  0  0  0  0  0  0
   -5.3070   22.7720  -31.0420 N   0  0  0  0  0  0  0  0  0  0  0  0
   -6.0420   23.9210  -30.9830 C   0  0  0  0  0  0  0  0  0  0  0  0
   -5.5430   25.2480  -30.5750 C   0  0  0  0  0  0  0  0  0  0  0  0
   -4.1990   25.6490  -30.8430 N   0  0  0  0  0  0  0  0  0  0  0  0
   -6.3010   26.0240  -29.9350 O   0  0  0  0  0  0  0  0  0  0  0  0
   -7.3690   23.6720  -31.3190 C   0  0  0  0  0  0  0  0  0  0  0  0
   -7.4360   22.3200  -31.5620 C   0  0  0  0  0  0  0  0  0  0  0  0
   -8.5140   21.5330  -31.9560 C   0  0  0  0  0  0  0  0  0  0  0  0
   -8.2850   20.1650  -32.1760 C   0  0  0  0  0  0  0  0  0  0  0  0
   -6.9950   19.6040  -31.9900 C   0  0  0  0  0  0  0  0  0  0  0  0
   -6.7490   18.1480  -32.2920 C   0  0  0  0  0  0  0  0  0  0  0  0
   -6.0690   17.5730  -31.2350 F   0  0  0  0  0  0  0  0  0  0  0  0
   -7.9470   17.4790  -32.4760 F   0  0  0  0  0  0  0  0  0  0  0  0
   -5.9950   18.0090  -33.4430 F   0  0  0  0  0  0  0  0  0  0  0  0
   -5.9200   20.4430  -31.6130 C   0  0  0  0  0  0  0  0  0  0  0  0
   -6.1810   21.7990  -31.3830 C   0  0  0  0  0  0  0  0  0  0  0  0
   -1.7970   24.1120  -29.2590 C   0  0  0  0  0  0  0  0  0  0  0  0
   -2.4550   25.1820  -29.3420 O   0  0  0  0  0  0  0  0  0  0  0  0
   -0.4660   24.1040  -29.6580 O   0  0  0  0  0  0  0  0  0  0  0  0
   -2.5512   23.0333  -26.6832 H   0  0  0  0  0  0  0  0  0  0  0  0
   -2.5560   21.3468  -27.3017 H   0  0  0  0  0  0  0  0  0  0  0  0
   -1.0329   22.2991  -27.3017 H   0  0  0  0  0  0  0  0  0  0  0  0
   -3.6178   21.1693  -29.2044 H   0  0  0  0  0  0  0  0  0  0  0  0
   -3.8780   26.6090  -30.5890 H   0  0  0  0  0  0  0  0  0  0  0  0
   -3.5000   24.9720  -31.2230 H   0  0  0  0  0  0  0  0  0  0  0  0
   -8.1901   24.4016  -31.3778 H   0  0  0  0  0  0  0  0  0  0  0  0
   -9.5148   21.9691  -32.0910 H   0  0  0  0  0  0  0  0  0  0  0  0
   -9.1164   19.5201  -32.4966 H   0  0  0  0  0  0  0  0  0  0  0  0
   -4.9027   20.0392  -31.5032 H   0  0  0  0  0  0  0  0  0  0  0  0
  1  2  1  0
  2  3  2  3
  3  4  1  0
  4  5  2  0
  4  6  1  0
  6  7  1  0
  7  8  1  0
  8  9  1  0
  8 10  2  0
  7 11  2  0
 11 12  1  0
 12 13  2  0
 13 14  1  0
 14 15  2  0
 15 16  1  0
 16 17  1  0
 16 18  1  0
 16 19  1  0
 15 20  1  0
 20 21  2  0
  2 22  1  0
 22 23  2  0
 22 24  1  0
 21  6  1  0
 21 12  1  0
  1 25  1  0
  1 26  1  0
  1 27  1  0
  3 28  1  0
  9 29  1  0
  9 30  1  0
 11 31  1  0
 13 32  1  0
 14 33  1  0
 20 34  1  0
M  CHG  1  24  -1
M  END
>  <UniqueID>  (44) 
44

>  <SMILES>  (44) 
CC(=CC(=O)n1c(C(N)=O)cc2ccc(C(F)(F)F)cc21)C(=O)[O-]

>  <Energy>  (44) 
80.55430914175972

>  <Genealogy>  (44) 
CC(=CC(=O)n1c(C(N)=O)cc2ccc(C(F)(F)F)cc21)C(=O)[O-] (protonated)
CC(=CC(=O)n1c(C(N)=O)cc2ccc(C(F)(F)F)cc21)C(=O)[O-] (3D coordinates assigned)
CC(=CC(=O)n1c(C(N)=O)cc2ccc(C(F)(F)F)cc21)C(=O)[O-] (optimized conformer: 80.55430914175972 kcal/mol)

>  <smiles>  (44) 
CC(=CC(=O)n1c(C(N)=O)cc2ccc(C(F)(F)F)cc21)C(=O)O

>  <score_type>  (44) 
oracle

>  <origin>  (44) 
adg

>  <m_score__min__energy>  (44) 
-11.539999999999999

>  <m_primary>  (44) 
energy

$$$$
45:0
     RDKit          3D

 33 34  0  0  0  0  0  0  0  0999 V2000
   -4.1940   25.5130  -30.6740 N   0  0  0  0  0  0  0  0  0  0  0  0
   -5.5570   25.1140  -30.5200 C   0  0  0  0  0  0  0  0  0  0  0  0
   -6.3550   25.8770  -29.9160 O   0  0  0  0  0  0  0  0  0  0  0  0
   -6.0240   23.8060  -31.0320 C   0  0  0  0  0  0  0  0  0  0  0  0
   -7.3650   23.4780  -31.2190 C   0  0  0  0  0  0  0  0  0  0  0  0
   -7.3570   22.2250  -31.7890 C   0  0  0  0  0  0  0  0  0  0  0  0
   -8.4190   21.4080  -32.1640 C   0  0  0  0  0  0  0  0  0  0  0  0
   -8.1210   20.1420  -32.6950 C   0  0  0  0  0  0  0  0  0  0  0  0
   -6.7760   19.7200  -32.8530 C   0  0  0  0  0  0  0  0  0  0  0  0
   -6.4710   18.3340  -33.3640 C   0  0  0  0  0  0  0  0  0  0  0  0
   -5.4320   17.7680  -32.6450 F   0  0  0  0  0  0  0  0  0  0  0  0
   -7.5960   17.5420  -33.2300 F   0  0  0  0  0  0  0  0  0  0  0  0
   -6.1020   18.3760  -34.6970 F   0  0  0  0  0  0  0  0  0  0  0  0
   -5.7250   20.5710  -32.4370 C   0  0  0  0  0  0  0  0  0  0  0  0
   -6.0520   21.8340  -31.9290 C   0  0  0  0  0  0  0  0  0  0  0  0
   -5.2190   22.7950  -31.4680 N   0  0  0  0  0  0  0  0  0  0  0  0
   -3.7880   22.7190  -31.3810 C   0  0  0  0  0  0  0  0  0  0  0  0
   -3.1160   22.3410  -32.3790 O   0  0  0  0  0  0  0  0  0  0  0  0
   -3.1460   23.0600  -30.1850 O   0  0  0  0  0  0  0  0  0  0  0  0
   -1.7330   23.0040  -30.0000 C   0  0  0  0  0  0  0  0  0  0  0  0
   -1.2400   24.2130  -29.2080 C   0  0  0  0  0  0  0  0  0  0  0  0
   -2.1500   25.2710  -29.3220 O   0  0  0  0  0  0  0  0  0  0  0  0
   -3.5160   24.9330  -31.2160 H   0  0  0  0  0  0  0  0  0  0  0  0
   -3.8670   26.4210  -30.2760 H   0  0  0  0  0  0  0  0  0  0  0  0
   -8.2432   24.0899  -30.9652 H   0  0  0  0  0  0  0  0  0  0  0  0
   -9.4603   21.7432  -32.0482 H   0  0  0  0  0  0  0  0  0  0  0  0
   -8.9400   19.4703  -32.9916 H   0  0  0  0  0  0  0  0  0  0  0  0
   -4.6761   20.2480  -32.5109 H   0  0  0  0  0  0  0  0  0  0  0  0
   -1.4775   22.0853  -29.4516 H   0  0  0  0  0  0  0  0  0  0  0  0
   -1.2483   23.0086  -30.9874 H   0  0  0  0  0  0  0  0  0  0  0  0
   -1.1366   23.9355  -28.1486 H   0  0  0  0  0  0  0  0  0  0  0  0
   -0.2671   24.5322  -29.6099 H   0  0  0  0  0  0  0  0  0  0  0  0
   -3.0280   24.9100  -29.0330 H   0  0  0  0  0  0  0  0  0  0  0  0
  1  2  1  0
  2  3  2  0
  2  4  1  0
  4  5  2  0
  5  6  1  0
  6  7  2  0
  7  8  1  0
  8  9  2  0
  9 10  1  0
 10 11  1  0
 10 12  1  0
 10 13  1  0
  9 14  1  0
 14 15  2  0
 15 16  1  0
 16 17  1  0
 17 18  2  0
 17 19  1  0
 19 20  1  0
 20 21  1  0
 21 22  1  0
 16  4  1  0
 15  6  1  0
  1 23  1  0
  1 24  1  0
  5 25  1  0
  7 26  1  0
  8 27  1  0
 14 28  1  0
 20 29  1  0
 20 30  1  0
 21 31  1  0
 21 32  1  0
 22 33  1  0
M  END
>  <UniqueID>  (45) 
45

>  <SMILES>  (45) 
NC(=O)c1cc2ccc(C(F)(F)F)cc2n1C(=O)OCCO

>  <Energy>  (45) 
68.99011163974154

>  <Genealogy>  (45) 
NC(=O)c1cc2ccc(C(F)(F)F)cc2n1C(=O)OCCO (3D coordinates assigned)
NC(=O)c1cc2ccc(C(F)(F)F)cc2n1C(=O)OCCO (optimized conformer: 68.99011163974154 kcal/mol)

>  <smiles>  (45) 
NC(=O)c1cc2ccc(C(F)(F)F)cc2n1C(=O)OCCO

>  <score_type>  (45) 
oracle

>  <origin>  (45) 
adg

>  <m_score__min__energy>  (45) 
-8.1999999999999993

>  <m_primary>  (45) 
energy

$$$$
46:0
     RDKit          3D

 32 33  0  0  0  0  0  0  0  0999 V2000
   -9.4330   20.9760  -31.9650 C   0  0  0  0  0  0  0  0  0  0  0  0
   -9.4910   22.3350  -31.5910 O   0  0  0  0  0  0  0  0  0  0  0  0
   -8.2870   22.9960  -31.9330 C   0  0  0  0  0  0  0  0  0  0  0  0
   -7.2170   22.7970  -30.8920 C   0  0  0  0  0  0  0  0  0  0  0  0
   -7.5170   22.9530  -29.6770 O   0  0  0  0  0  0  0  0  0  0  0  0
   -5.8710   22.4310  -31.2460 N   0  0  0  0  0  0  0  0  0  0  0  0
   -4.7390   23.1650  -31.0490 C   0  0  0  0  0  0  0  0  0  0  0  0
   -4.6490   24.4650  -30.3490 C   0  0  0  0  0  0  0  0  0  0  0  0
   -5.3980   24.7360  -29.1620 N   0  0  0  0  0  0  0  0  0  0  0  0
   -3.8620   25.3460  -30.7870 O   0  0  0  0  0  0  0  0  0  0  0  0
   -3.6430   22.5380  -31.6370 C   0  0  0  0  0  0  0  0  0  0  0  0
   -4.1400   21.3910  -32.2090 C   0  0  0  0  0  0  0  0  0  0  0  0
   -3.4910   20.4100  -32.9540 C   0  0  0  0  0  0  0  0  0  0  0  0
   -4.2660   19.3620  -33.4800 C   0  0  0  0  0  0  0  0  0  0  0  0
   -5.6670   19.3330  -33.2800 C   0  0  0  0  0  0  0  0  0  0  0  0
   -6.4820   18.2020  -33.8330 C   0  0  0  0  0  0  0  0  0  0  0  0
   -6.0540   17.9090  -35.1140 F   0  0  0  0  0  0  0  0  0  0  0  0
   -6.2900   20.3410  -32.5130 C   0  0  0  0  0  0  0  0  0  0  0  0
   -5.4900   21.3540  -31.9710 C   0  0  0  0  0  0  0  0  0  0  0  0
   -9.4062   20.3481  -31.0622 H   0  0  0  0  0  0  0  0  0  0  0  0
  -10.3211   20.7218  -32.5622 H   0  0  0  0  0  0  0  0  0  0  0  0
   -8.5265   20.7984  -32.5622 H   0  0  0  0  0  0  0  0  0  0  0  0
   -7.9255   22.6003  -32.8936 H   0  0  0  0  0  0  0  0  0  0  0  0
   -8.4988   24.0733  -31.9999 H   0  0  0  0  0  0  0  0  0  0  0  0
   -5.3530   25.6830  -28.7240 H   0  0  0  0  0  0  0  0  0  0  0  0
   -5.9170   23.9870  -28.6570 H   0  0  0  0  0  0  0  0  0  0  0  0
   -2.5998   22.8870  -31.6425 H   0  0  0  0  0  0  0  0  0  0  0  0
   -2.4054   20.4538  -33.1256 H   0  0  0  0  0  0  0  0  0  0  0  0
   -3.7798   18.5578  -34.0517 H   0  0  0  0  0  0  0  0  0  0  0  0
   -6.3598   17.3152  -33.1938 H   0  0  0  0  0  0  0  0  0  0  0  0
   -7.5427   18.4925  -33.8583 H   0  0  0  0  0  0  0  0  0  0  0  0
   -7.3771   20.3308  -32.3453 H   0  0  0  0  0  0  0  0  0  0  0  0
  1  2  1  0
  2  3  1  0
  3  4  1  0
  4  5  2  0
  4  6  1  0
  6  7  1  0
  7  8  1  0
  8  9  1  0
  8 10  2  0
  7 11  2  0
 11 12  1  0
 12 13  2  0
 13 14  1  0
 14 15  2  0
 15 16  1  0
 16 17  1  0
 15 18  1  0
 18 19  2  0
 19  6  1  0
 19 12  1  0
  1 20  1  0
  1 21  1  0
  1 22  1  0
  3 23  1  0
  3 24  1  0
  9 25  1  0
  9 26  1  0
 11 27  1  0
 13 28  1  0
 14 29  1  0
 16 30  1  0
 16 31  1  0
 18 32  1  0
M  END
>  <UniqueID>  (46) 
46

>  <SMILES>  (46) 
COCC(=O)n1c(C(N)=O)cc2ccc(CF)cc21

>  <Energy>  (46) 
73.50024030188325

>  <Genealogy>  (46) 
COCC(=O)n1c(C(N)=O)cc2ccc(CF)cc21 (3D coordinates assigned)
COCC(=O)n1c(C(N)=O)cc2ccc(CF)cc21 (optimized conformer: 73.50024030188325 kcal/mol)

>  <smiles>  (46) 
COCC(=O)n1c(C(N)=O)cc2ccc(CF)cc21

>  <score_type>  (46) 
oracle

>  <origin>  (46) 
adg

>  <m_score__min__energy>  (46) 
-7.0199999999999996

>  <m_primary>  (46) 
energy

$$$$
47:0
     RDKit          3D

 50 54  0  0  0  0  0  0  0  0999 V2000
   -0.9610   19.7800  -34.8940 C   0  0  0  0  0  0  0  0  0  0  0  0
   -2.2490   19.7980  -34.0580 C   0  0  2  0  0  0  0  0  0  0  0  0
   -2.0530   20.3230  -32.6430 C   0  0  0  0  0  0  0  0  0  0  0  0
   -1.2160   19.5910  -31.7590 C   0  0  0  0  0  0  0  0  0  0  0  0
   -0.9690   20.0450  -30.4550 C   0  0  0  0  0  0  0  0  0  0  0  0
   -1.5510   21.2450  -30.0610 C   0  0  0  0  0  0  0  0  0  0  0  0
   -1.4910   21.9030  -28.8540 C   0  0  0  0  0  0  0  0  0  0  0  0
   -2.2540   23.0560  -29.0230 C   0  0  0  0  0  0  0  0  0  0  0  0
   -2.3870   24.1000  -27.9860 C   0  0  0  0  0  0  0  0  0  0  0  0
   -1.9330   25.4310  -28.2210 N   0  0  0  0  0  0  0  0  0  0  0  0
   -2.8620   23.8010  -26.8590 O   0  0  0  0  0  0  0  0  0  0  0  0
   -2.7730   23.1050  -30.2840 N   0  0  0  0  0  0  0  0  0  0  0  0
   -3.6740   24.0820  -30.8290 C   0  0  0  0  0  0  0  0  0  0  0  0
   -3.5080   25.3070  -30.5850 O   0  0  0  0  0  0  0  0  0  0  0  0
   -4.7520   23.6850  -31.6100 O   0  0  0  0  0  0  0  0  0  0  0  0
   -2.3310   21.9900  -30.9070 C   0  0  0  0  0  0  0  0  0  0  0  0
   -2.6110   21.5520  -32.2060 C   0  0  0  0  0  0  0  0  0  0  0  0
   -2.8490   18.4530  -34.0200 N   0  0  0  0  0  0  0  0  0  0  0  0
   -2.1610   17.3590  -34.3540 N   0  0  0  0  0  0  0  0  0  0  0  0
   -2.6940   16.2490  -33.8560 N   0  0  0  0  0  0  0  0  0  0  0  0
   -3.7880   16.6590  -33.1970 C   0  0  0  0  0  0  0  0  0  0  0  0
   -4.6310   15.9370  -32.3790 C   0  0  0  0  0  0  0  0  0  0  0  0
   -4.4980   14.6950  -32.2250 O   0  0  0  0  0  0  0  0  0  0  0  0
   -5.5910   16.6230  -31.7030 N   0  0  0  0  0  0  0  0  0  0  0  0
   -5.7680   17.9710  -31.8710 C   0  0  0  0  0  0  0  0  0  0  0  0
   -6.6490   18.5470  -31.1770 O   0  0  0  0  0  0  0  0  0  0  0  0
   -4.9900   18.6850  -32.7750 N   0  0  0  0  0  0  0  0  0  0  0  0
   -5.3650   20.0380  -33.2640 C   0  0  1  0  0  0  0  0  0  0  0  0
   -6.8490   20.2490  -33.5920 C   0  0  0  0  0  0  0  0  0  0  0  0
   -6.9310   21.2940  -32.4780 C   0  0  2  0  0  0  0  0  0  0  0  0
   -7.1730   22.5810  -32.9790 O   0  0  0  0  0  0  0  0  0  0  0  0
   -5.4520   21.0870  -32.1580 C   0  0  0  0  0  0  0  0  0  0  0  0
   -3.9240   18.0050  -33.3190 C   0  0  0  0  0  0  0  0  0  0  0  0
   -0.0889   19.7678  -34.2237 H   0  0  0  0  0  0  0  0  0  0  0  0
   -0.9483   18.8816  -35.5286 H   0  0  0  0  0  0  0  0  0  0  0  0
   -0.9232   20.6777  -35.5286 H   0  0  0  0  0  0  0  0  0  0  0  0
   -2.9300   20.5026  -34.5577 H   0  0  0  0  0  0  0  0  0  0  0  0
   -0.7543   18.6535  -32.1024 H   0  0  0  0  0  0  0  0  0  0  0  0
   -0.3343   19.4694  -29.7651 H   0  0  0  0  0  0  0  0  0  0  0  0
   -0.9543   21.5857  -27.9478 H   0  0  0  0  0  0  0  0  0  0  0  0
   -2.3700   26.0240  -28.9600 H   0  0  0  0  0  0  0  0  0  0  0  0
   -3.2501   22.1478  -32.8742 H   0  0  0  0  0  0  0  0  0  0  0  0
   -1.2530   17.3700  -34.8700 H   0  0  0  0  0  0  0  0  0  0  0  0
   -4.6226   20.1202  -34.0715 H   0  0  0  0  0  0  0  0  0  0  0  0
   -7.0361   20.6481  -34.5998 H   0  0  0  0  0  0  0  0  0  0  0  0
   -7.5455   19.3979  -33.6162 H   0  0  0  0  0  0  0  0  0  0  0  0
   -7.6942   21.2049  -31.6908 H   0  0  0  0  0  0  0  0  0  0  0  0
   -6.2840   23.0160  -33.0520 H   0  0  0  0  0  0  0  0  0  0  0  0
   -4.8260   21.9750  -32.3300 H   0  0  0  0  0  0  0  0  0  0  0  0
   -5.1305   20.8468  -31.1338 H   0  0  0  0  0  0  0  0  0  0  0  0
  1  2  1  0
  2  3  1  0
  3  4  2  0
  4  5  1  0
  5  6  2  0
  6  7  1  0
  7  8  2  0
  8  9  1  0
  9 10  1  0
  9 11  2  0
  8 12  1  0
 12 13  1  0
 13 14  2  0
 13 15  1  0
 12 16  1  0
 16 17  2  0
  2 18  1  0
 18 19  1  0
 19 20  2  0
 20 21  1  0
 21 22  1  0
 22 23  2  0
 22 24  1  0
 24 25  1  0
 25 26  2  0
 25 27  1  0
 27 28  1  0
 28 29  1  0
 29 30  1  0
 30 31  1  0
 30 32  1  0
 27 33  1  0
 17  3  1  0
 33 18  1  0
 16  6  1  0
 33 21  2  0
 32 28  1  0
  1 34  1  0
  1 35  1  0
  1 36  1  0
  2 37  1  6
  4 38  1  0
  5 39  1  0
  7 40  1  0
 10 41  1  0
 17 42  1  0
 19 43  1  0
 28 44  1  6
 29 45  1  0
 29 46  1  0
 30 47  1  1
 31 48  1  0
 32 49  1  0
 32 50  1  0
M  CHG  4  10  -1  15  -1  19   1  24  -1
M  END
>  <UniqueID>  (47) 
47

>  <SMILES>  (47) 
C[C@H](c1ccc2cc(C([NH-])=O)n(C(=O)[O-])c2c1)n1[nH+]nc2c(=O)[n-]c(=O)n(C3CC(O)C3)c21

>  <Energy>  (47) 
222.03910185310463

>  <Genealogy>  (47) 
CC(c1ccc2cc(C([NH-])=O)n(C(=O)[O-])c2c1)n1[nH+]nc2c(=O)[n-]c(=O)n(C3CC(O)C3)c21 (protonated)
C[C@H](c1ccc2cc(C([NH-])=O)n(C(=O)[O-])c2c1)n1[nH+]nc2c(=O)[n-]c(=O)n(C3CC(O)C3)c21 (chirality)
C[C@H](c1ccc2cc(C([NH-])=O)n(C(=O)[O-])c2c1)n1[nH+]nc2c(=O)[n-]c(=O)n(C3CC(O)C3)c21 (3D coordinates assigned)
C[C@H](c1ccc2cc(C([NH-])=O)n(C(=O)[O-])c2c1)n1[nH+]nc2c(=O)[n-]c(=O)n(C3CC(O)C3)c21 (nonaromatic ring conformer: 222.03910185310463 kcal/mol)

>  <smiles>  (47) 
CC(c1ccc2cc(C(N)=O)n(C(=O)O)c2c1)n1nnc2c(=O)[nH]c(=O)n(C3CC(O)C3)c21

>  <score_type>  (47) 
oracle

>  <origin>  (47) 
adg

>  <m_score__min__energy>  (47) 
-11.17

>  <m_primary>  (47) 
energy

$$$$
48:0
     RDKit          3D

 35 36  0  0  0  0  0  0  0  0999 V2000
   -9.1710   18.1410  -31.8950 C   0  0  0  0  0  0  0  0  0  0  0  0
   -7.9830   18.8770  -32.3310 N   0  0  0  0  0  0  0  0  0  0  0  0
   -6.9790   18.2210  -33.1790 C   0  0  0  0  0  0  0  0  0  0  0  0
   -7.8060   20.2530  -31.9470 C   0  0  0  0  0  0  0  0  0  0  0  0
   -8.9310   21.0990  -31.7860 C   0  0  0  0  0  0  0  0  0  0  0  0
   -8.7740   22.4310  -31.4240 C   0  0  0  0  0  0  0  0  0  0  0  0
   -7.4720   22.9040  -31.2240 C   0  0  0  0  0  0  0  0  0  0  0  0
   -7.0590   24.1480  -30.8690 C   0  0  0  0  0  0  0  0  0  0  0  0
   -5.6800   24.0980  -30.7950 C   0  0  0  0  0  0  0  0  0  0  0  0
   -4.8860   25.3350  -30.4370 C   0  0  0  0  0  0  0  0  0  0  0  0
   -3.5110   25.2950  -30.0940 N   0  0  0  0  0  0  0  0  0  0  0  0
   -5.4540   26.4310  -30.4920 O   0  0  0  0  0  0  0  0  0  0  0  0
   -5.2290   22.8400  -31.1160 N   0  0  0  0  0  0  0  0  0  0  0  0
   -3.8810   22.3180  -31.1950 C   0  0  0  0  0  0  0  0  0  0  0  0
   -2.9120   23.0950  -31.3930 O   0  0  0  0  0  0  0  0  0  0  0  0
   -3.6340   20.9780  -31.0330 O   0  0  0  0  0  0  0  0  0  0  0  0
   -3.2350   20.1050  -32.0800 C   0  0  0  0  0  0  0  0  0  0  0  0
   -2.1370   21.0330  -33.2730 P   0  0  0  0  0  0  0  0  0  0  0  0
   -6.3810   22.1260  -31.3690 C   0  0  0  0  0  0  0  0  0  0  0  0
   -6.5050   20.7740  -31.7320 C   0  0  0  0  0  0  0  0  0  0  0  0
   -9.2060   18.1193  -30.7958 H   0  0  0  0  0  0  0  0  0  0  0  0
  -10.0728   18.6388  -32.2808 H   0  0  0  0  0  0  0  0  0  0  0  0
   -9.1268   17.1118  -32.2808 H   0  0  0  0  0  0  0  0  0  0  0  0
   -6.2271   17.7297  -32.5439 H   0  0  0  0  0  0  0  0  0  0  0  0
   -7.4703   17.4691  -33.8141 H   0  0  0  0  0  0  0  0  0  0  0  0
   -6.4877   18.9729  -33.8141 H   0  0  0  0  0  0  0  0  0  0  0  0
   -9.9414   20.6961  -31.9497 H   0  0  0  0  0  0  0  0  0  0  0  0
   -9.6442   23.0921  -31.2987 H   0  0  0  0  0  0  0  0  0  0  0  0
   -7.6969   25.0235  -30.6779 H   0  0  0  0  0  0  0  0  0  0  0  0
   -2.7640   25.2070  -30.8240 H   0  0  0  0  0  0  0  0  0  0  0  0
   -2.6815   19.2535  -31.6575 H   0  0  0  0  0  0  0  0  0  0  0  0
   -4.1248   19.7346  -32.6101 H   0  0  0  0  0  0  0  0  0  0  0  0
   -1.4300   22.1340  -32.6470 H   0  0  0  0  0  0  0  0  0  0  0  0
   -2.7150   21.1680  -34.5890 H   0  0  0  0  0  0  0  0  0  0  0  0
   -5.6158   20.1366  -31.8463 H   0  0  0  0  0  0  0  0  0  0  0  0
  1  2  1  0
  2  3  1  0
  2  4  1  0
  4  5  2  0
  5  6  1  0
  6  7  2  0
  7  8  1  0
  8  9  2  0
  9 10  1  0
 10 11  1  0
 10 12  2  0
  9 13  1  0
 13 14  1  0
 14 15  2  0
 14 16  1  0
 16 17  1  0
 17 18  1  0
 13 19  1  0
 19 20  2  0
 20  4  1  0
 19  7  1  0
  1 21  1  0
  1 22  1  0
  1 23  1  0
  3 24  1  0
  3 25  1  0
  3 26  1  0
  5 27  1  0
  6 28  1  0
  8 29  1  0
 11 30  1  0
 17 31  1  0
 17 32  1  0
 18 33  1  0
 18 34  1  0
 20 35  1  0
M  CHG  1  11  -1
M  END
>  <UniqueID>  (48) 
48

>  <SMILES>  (48) 
CN(C)c1ccc2cc(C([NH-])=O)n(C(=O)OC[P@H2])c2c1

>  <Energy>  (48) 
117.72991746748879

>  <Genealogy>  (48) 
CN(C)c1ccc2cc(C([NH-])=O)n(C(=O)OCP)c2c1 (protonated)
CN(C)c1ccc2cc(C([NH-])=O)n(C(=O)OC[P@H2])c2c1 (chirality)
CN(C)c1ccc2cc(C([NH-])=O)n(C(=O)OC[P@H2])c2c1 (3D coordinates assigned)
CN(C)c1ccc2cc(C([NH-])=O)n(C(=O)OC[P@H2])c2c1 (optimized conformer: 117.72991746748879 kcal/mol)

>  <smiles>  (48) 
CN(C)c1ccc2cc(C(N)=O)n(C(=O)OCP)c2c1

>  <score_type>  (48) 
oracle

>  <origin>  (48) 
adg

>  <m_score__min__energy>  (48) 
-9.5

>  <m_primary>  (48) 
energy

$$$$
49:0
     RDKit          3D

 36 37  0  0  0  0  0  0  0  0999 V2000
   -4.3910   16.8650  -34.2380 C   0  0  0  0  0  0  0  0  0  0  0  0
   -5.3510   17.7760  -33.5310 C   0  0  0  0  0  0  0  0  0  0  0  0
   -6.6980   17.3790  -33.3460 C   0  0  0  0  0  0  0  0  0  0  0  0
   -7.6140   18.2320  -32.7080 C   0  0  0  0  0  0  0  0  0  0  0  0
   -7.1590   19.4790  -32.2870 C   0  0  0  0  0  0  0  0  0  0  0  0
   -7.8250   20.4830  -31.6220 C   0  0  0  0  0  0  0  0  0  0  0  0
   -6.8850   21.4950  -31.4520 C   0  0  0  0  0  0  0  0  0  0  0  0
   -7.2030   22.8000  -30.8400 C   0  0  0  0  0  0  0  0  0  0  0  0
   -6.4980   23.2660  -29.6880 N   0  0  0  0  0  0  0  0  0  0  0  0
   -8.0700   23.5410  -31.3730 O   0  0  0  0  0  0  0  0  0  0  0  0
   -5.6810   21.1310  -31.9760 N   0  0  0  0  0  0  0  0  0  0  0  0
   -4.4370   21.8460  -31.8860 C   0  0  0  0  0  0  0  0  0  0  0  0
   -3.7490   22.0510  -32.9230 O   0  0  0  0  0  0  0  0  0  0  0  0
   -3.9690   22.3100  -30.6140 N   0  0  0  0  0  0  0  0  0  0  0  0
   -3.1130   23.4810  -30.4430 C   0  0  2  0  0  0  0  0  0  0  0  0
   -2.0710   23.1860  -29.3520 C   0  0  0  0  0  0  0  0  0  0  0  0
   -1.0990   24.3160  -29.1970 C   0  0  0  0  0  0  0  0  0  0  0  0
    0.1240   24.0790  -29.0140 O   0  0  0  0  0  0  0  0  0  0  0  0
   -1.5370   25.6300  -29.2990 O   0  0  0  0  0  0  0  0  0  0  0  0
   -3.9520   24.6790  -30.0900 C   0  0  0  0  0  0  0  0  0  0  0  0
   -3.9860   25.6810  -30.8510 O   0  0  0  0  0  0  0  0  0  0  0  0
   -4.6920   24.6860  -28.9150 O   0  0  0  0  0  0  0  0  0  0  0  0
   -5.8660   19.8930  -32.4880 C   0  0  0  0  0  0  0  0  0  0  0  0
   -4.9290   19.0540  -33.1040 C   0  0  0  0  0  0  0  0  0  0  0  0
   -3.8019   16.3060  -33.4960 H   0  0  0  0  0  0  0  0  0  0  0  0
   -4.9519   16.1591  -34.8681 H   0  0  0  0  0  0  0  0  0  0  0  0
   -3.7154   17.4621  -34.8681 H   0  0  0  0  0  0  0  0  0  0  0  0
   -7.0299   16.3937  -33.7052 H   0  0  0  0  0  0  0  0  0  0  0  0
   -8.6577   17.9246  -32.5461 H   0  0  0  0  0  0  0  0  0  0  0  0
   -8.8752   20.4851  -31.2949 H   0  0  0  0  0  0  0  0  0  0  0  0
   -5.6650   22.7540  -29.3250 H   0  0  0  0  0  0  0  0  0  0  0  0
   -6.7630   24.1710  -29.2410 H   0  0  0  0  0  0  0  0  0  0  0  0
   -2.5845   23.7049  -31.3814 H   0  0  0  0  0  0  0  0  0  0  0  0
   -2.5907   23.0285  -28.3954 H   0  0  0  0  0  0  0  0  0  0  0  0
   -1.5094   22.2873  -29.6468 H   0  0  0  0  0  0  0  0  0  0  0  0
   -3.8897   19.3826  -33.2516 H   0  0  0  0  0  0  0  0  0  0  0  0
  1  2  1  0
  2  3  2  0
  3  4  1  0
  4  5  2  0
  5  6  1  0
  6  7  2  0
  7  8  1  0
  8  9  1  0
  8 10  2  0
  7 11  1  0
 11 12  1  0
 12 13  2  0
 12 14  1  0
 14 15  1  0
 15 16  1  0
 16 17  1  0
 17 18  2  0
 17 19  1  0
 15 20  1  0
 20 21  2  0
 20 22  1  0
 11 23  1  0
 23 24  2  0
 24  2  1  0
 23  5  1  0
  1 25  1  0
  1 26  1  0
  1 27  1  0
  3 28  1  0
  4 29  1  0
  6 30  1  0
  9 31  1  0
  9 32  1  0
 15 33  1  6
 16 34  1  0
 16 35  1  0
 24 36  1  0
M  CHG  3  14  -1  19  -1  22  -1
M  END
>  <UniqueID>  (49) 
49

>  <SMILES>  (49) 
Cc1ccc2cc(C(N)=O)n(C(=O)[N-][C@H](CC(=O)[O-])C(=O)[O-])c2c1

>  <Energy>  (49) 
70.38380199428589

>  <Genealogy>  (49) 
Cc1ccc2cc(C(N)=O)n(C(=O)[N-]C(CC(=O)[O-])C(=O)[O-])c2c1 (protonated)
Cc1ccc2cc(C(N)=O)n(C(=O)[N-][C@H](CC(=O)[O-])C(=O)[O-])c2c1 (chirality)
Cc1ccc2cc(C(N)=O)n(C(=O)[N-][C@H](CC(=O)[O-])C(=O)[O-])c2c1 (3D coordinates assigned)
Cc1ccc2cc(C(N)=O)n(C(=O)[N-][C@H](CC(=O)[O-])C(=O)[O-])c2c1 (optimized conformer: 70.38380199428589 kcal/mol)

>  <smiles>  (49) 
Cc1ccc2cc(C(N)=O)n(C(=O)NC(CC(=O)O)C(=O)O)c2c1

>  <score_type>  (49) 
oracle

>  <origin>  (49) 
adg

>  <m_score__min__energy>  (49) 
-11.43

>  <m_primary>  (49) 
energy

$$$$
50:0
     RDKit          3D

 55 57  0  0  0  0  0  0  0  0999 V2000
   -5.4290   16.2500  -31.9370 C   0  0  0  0  0  0  0  0  0  0  0  0
   -6.2560   17.3150  -31.2160 C   0  0  0  0  0  0  0  0  0  0  0  0
   -6.4790   18.5230  -32.0490 N   0  0  0  0  0  0  0  0  0  0  0  0
   -7.6910   19.2730  -31.6210 C   0  0  0  0  0  0  0  0  0  0  0  0
   -8.9420   18.7640  -32.3440 C   0  0  0  0  0  0  0  0  0  0  0  0
   -6.5880   18.1240  -33.4740 C   0  0  0  0  0  0  0  0  0  0  0  0
   -5.4180   18.6610  -34.3060 C   0  0  0  0  0  0  0  0  0  0  0  0
   -5.0760   20.0250  -33.8990 N   0  0  0  0  0  0  0  0  0  0  0  0
   -4.0290   20.4100  -32.9840 C   0  0  0  0  0  0  0  0  0  0  0  0
   -2.8600   19.6230  -32.7840 C   0  0  0  0  0  0  0  0  0  0  0  0
   -1.8730   20.0230  -31.8700 C   0  0  0  0  0  0  0  0  0  0  0  0
   -2.0710   21.2040  -31.1660 C   0  0  0  0  0  0  0  0  0  0  0  0
   -1.2880   21.7920  -30.2020 C   0  0  0  0  0  0  0  0  0  0  0  0
   -1.9860   22.9280  -29.8100 C   0  0  0  0  0  0  0  0  0  0  0  0
   -1.5010   23.8330  -28.7550 C   0  0  0  0  0  0  0  0  0  0  0  0
   -1.5430   25.2490  -28.9290 N   0  0  0  0  0  0  0  0  0  0  0  0
   -1.1320   23.3540  -27.6480 O   0  0  0  0  0  0  0  0  0  0  0  0
   -3.1420   23.0660  -30.5240 N   0  0  0  0  0  0  0  0  0  0  0  0
   -4.0540   24.1850  -30.5140 C   0  0  0  0  0  0  0  0  0  0  0  0
   -3.8540   25.1630  -29.7450 O   0  0  0  0  0  0  0  0  0  0  0  0
   -5.1180   24.2290  -31.4240 O   0  0  0  0  0  0  0  0  0  0  0  0
   -6.3320   23.5400  -31.2850 C   0  0  0  0  0  0  0  0  0  0  0  0
   -6.6440   22.9820  -30.0390 C   0  0  0  0  0  0  0  0  0  0  0  0
   -7.8480   22.2970  -29.8500 C   0  0  0  0  0  0  0  0  0  0  0  0
   -8.7590   22.1790  -30.9030 C   0  0  0  0  0  0  0  0  0  0  0  0
   -8.4670   22.7490  -32.1450 C   0  0  0  0  0  0  0  0  0  0  0  0
   -7.2610   23.4320  -32.3380 C   0  0  0  0  0  0  0  0  0  0  0  0
   -3.1830   21.9860  -31.3450 C   0  0  0  0  0  0  0  0  0  0  0  0
   -4.1890   21.6030  -32.2420 C   0  0  0  0  0  0  0  0  0  0  0  0
   -4.9308   15.6084  -31.1953 H   0  0  0  0  0  0  0  0  0  0  0  0
   -6.0900   15.6369  -32.5672 H   0  0  0  0  0  0  0  0  0  0  0  0
   -4.6713   16.7386  -32.5672 H   0  0  0  0  0  0  0  0  0  0  0  0
   -7.2328   16.8838  -30.9516 H   0  0  0  0  0  0  0  0  0  0  0  0
   -5.6949   17.6248  -30.3220 H   0  0  0  0  0  0  0  0  0  0  0  0
   -7.8269   19.1465  -30.5368 H   0  0  0  0  0  0  0  0  0  0  0  0
   -7.5507   20.3344  -31.8733 H   0  0  0  0  0  0  0  0  0  0  0  0
   -9.6948   18.4577  -31.6027 H   0  0  0  0  0  0  0  0  0  0  0  0
   -9.3532   19.5663  -32.9742 H   0  0  0  0  0  0  0  0  0  0  0  0
   -8.6763   17.9025  -32.9742 H   0  0  0  0  0  0  0  0  0  0  0  0
   -6.5952   17.0258  -33.5368 H   0  0  0  0  0  0  0  0  0  0  0  0
   -7.5186   18.5490  -33.8781 H   0  0  0  0  0  0  0  0  0  0  0  0
   -4.5429   18.0106  -34.1602 H   0  0  0  0  0  0  0  0  0  0  0  0
   -5.7135   18.6719  -35.3655 H   0  0  0  0  0  0  0  0  0  0  0  0
   -5.5950   20.7890  -34.3920 H   0  0  0  0  0  0  0  0  0  0  0  0
   -2.7287   18.6905  -33.3524 H   0  0  0  0  0  0  0  0  0  0  0  0
   -0.9675   19.4179  -31.7153 H   0  0  0  0  0  0  0  0  0  0  0  0
   -0.3177   21.4395  -29.8223 H   0  0  0  0  0  0  0  0  0  0  0  0
   -1.1970   25.8830  -28.1760 H   0  0  0  0  0  0  0  0  0  0  0  0
   -1.9890   25.6700  -29.7760 H   0  0  0  0  0  0  0  0  0  0  0  0
   -5.9365   23.0834  -29.2028 H   0  0  0  0  0  0  0  0  0  0  0  0
   -8.0784   21.8505  -28.8715 H   0  0  0  0  0  0  0  0  0  0  0  0
   -9.7051   21.6379  -30.7544 H   0  0  0  0  0  0  0  0  0  0  0  0
   -9.1864   22.6606  -32.9724 H   0  0  0  0  0  0  0  0  0  0  0  0
   -7.0380   23.8858  -33.3149 H   0  0  0  0  0  0  0  0  0  0  0  0
   -5.0901   22.2214  -32.3671 H   0  0  0  0  0  0  0  0  0  0  0  0
  1  2  1  0
  2  3  1  0
  3  4  1  0
  4  5  1  0
  3  6  1  0
  6  7  1  0
  7  8  1  0
  8  9  1  0
  9 10  2  0
 10 11  1  0
 11 12  2  0
 12 13  1  0
 13 14  2  0
 14 15  1  0
 15 16  1  0
 15 17  2  0
 14 18  1  0
 18 19  1  0
 19 20  2  0
 19 21  1  0
 21 22  1  0
 22 23  2  0
 23 24  1  0
 24 25  2  0
 25 26  1  0
 26 27  2  0
 18 28  1  0
 28 29  2  0
 29  9  1  0
 28 12  1  0
 27 22  1  0
  1 30  1  0
  1 31  1  0
  1 32  1  0
  2 33  1  0
  2 34  1  0
  4 35  1  0
  4 36  1  0
  5 37  1  0
  5 38  1  0
  5 39  1  0
  6 40  1  0
  6 41  1  0
  7 42  1  0
  7 43  1  0
  8 44  1  0
 10 45  1  0
 11 46  1  0
 13 47  1  0
 16 48  1  0
 16 49  1  0
 23 50  1  0
 24 51  1  0
 25 52  1  0
 26 53  1  0
 27 54  1  0
 29 55  1  0
M  END
>  <UniqueID>  (50) 
50

>  <SMILES>  (50) 
CCN(CC)CCNc1ccc2cc(C(N)=O)n(C(=O)Oc3ccccc3)c2c1

>  <Energy>  (50) 
105.13481086878015

>  <Genealogy>  (50) 
CCN(CC)CCNc1ccc2cc(C(N)=O)n(C(=O)Oc3ccccc3)c2c1 (3D coordinates assigned)
CCN(CC)CCNc1ccc2cc(C(N)=O)n(C(=O)Oc3ccccc3)c2c1 (optimized conformer: 105.13481086878015 kcal/mol)

>  <smiles>  (50) 
CCN(CC)CCNc1ccc2cc(C(N)=O)n(C(=O)Oc3ccccc3)c2c1

>  <score_type>  (50) 
oracle

>  <origin>  (50) 
adg

>  <m_score__min__energy>  (50) 
-9.3800000000000008

>  <m_primary>  (50) 
energy

$$$$
51:0
     RDKit          3D

 35 36  0  0  0  0  0  0  0  0999 V2000
   -6.8240   18.1840  -32.5760 C   0  0  0  0  0  0  0  0  0  0  0  0
   -7.0550   19.6270  -32.2350 C   0  0  0  0  0  0  0  0  0  0  0  0
   -8.3670   20.1600  -32.2570 C   0  0  0  0  0  0  0  0  0  0  0  0
   -8.6030   21.4970  -31.8960 C   0  0  0  0  0  0  0  0  0  0  0  0
   -7.5120   22.2700  -31.5110 C   0  0  0  0  0  0  0  0  0  0  0  0
   -7.4560   23.5790  -31.0850 C   0  0  0  0  0  0  0  0  0  0  0  0
   -6.1110   23.8220  -30.8170 C   0  0  0  0  0  0  0  0  0  0  0  0
   -5.5920   25.1280  -30.3610 C   0  0  0  0  0  0  0  0  0  0  0  0
   -4.2390   25.5170  -30.6010 N   0  0  0  0  0  0  0  0  0  0  0  0
   -6.3690   25.9330  -29.7800 O   0  0  0  0  0  0  0  0  0  0  0  0
   -5.3680   22.7030  -31.0470 N   0  0  0  0  0  0  0  0  0  0  0  0
   -3.9640   22.5030  -30.8100 C   0  0  0  0  0  0  0  0  0  0  0  0
   -3.1270   22.9870  -31.6170 O   0  0  0  0  0  0  0  0  0  0  0  0
   -3.4700   21.7380  -29.6480 C   0  0  0  0  0  0  0  0  0  0  0  0
   -3.0350   22.3250  -28.5300 C   0  0  0  0  0  0  0  0  0  0  0  0
   -2.5450   21.5020  -27.3730 C   0  0  0  0  0  0  0  0  0  0  0  0
   -2.2770   20.0510  -27.7760 C   0  0  0  0  0  0  0  0  0  0  0  0
   -2.7180   18.9270  -26.4630 Cl  0  0  0  0  0  0  0  0  0  0  0  0
   -6.2380   21.7660  -31.4810 C   0  0  0  0  0  0  0  0  0  0  0  0
   -5.9740   20.4360  -31.8220 C   0  0  0  0  0  0  0  0  0  0  0  0
   -6.7303   17.5987  -31.6494 H   0  0  0  0  0  0  0  0  0  0  0  0
   -7.6730   17.8058  -33.1643 H   0  0  0  0  0  0  0  0  0  0  0  0
   -5.8993   18.0897  -33.1643 H   0  0  0  0  0  0  0  0  0  0  0  0
   -9.2095   19.5208  -32.5597 H   0  0  0  0  0  0  0  0  0  0  0  0
   -9.6184   21.9195  -31.9170 H   0  0  0  0  0  0  0  0  0  0  0  0
   -8.2950   24.2825  -30.9791 H   0  0  0  0  0  0  0  0  0  0  0  0
   -3.6230   24.9700  -31.2410 H   0  0  0  0  0  0  0  0  0  0  0  0
   -3.8770   26.4170  -30.2130 H   0  0  0  0  0  0  0  0  0  0  0  0
   -3.4598   20.6395  -29.7054 H   0  0  0  0  0  0  0  0  0  0  0  0
   -3.0356   23.4225  -28.4557 H   0  0  0  0  0  0  0  0  0  0  0  0
   -1.6118   21.9434  -26.9930 H   0  0  0  0  0  0  0  0  0  0  0  0
   -3.3279   21.5014  -26.6003 H   0  0  0  0  0  0  0  0  0  0  0  0
   -2.8720   19.8107  -28.6694 H   0  0  0  0  0  0  0  0  0  0  0  0
   -1.2028   19.9395  -27.9849 H   0  0  0  0  0  0  0  0  0  0  0  0
   -4.9525   20.0312  -31.7700 H   0  0  0  0  0  0  0  0  0  0  0  0
  1  2  1  0
  2  3  2  0
  3  4  1  0
  4  5  2  0
  5  6  1  0
  6  7  2  0
  7  8  1  0
  8  9  1  0
  8 10  2  0
  7 11  1  0
 11 12  1  0
 12 13  2  0
 12 14  1  0
 14 15  2  3
 15 16  1  0
 16 17  1  0
 17 18  1  0
 11 19  1  0
 19 20  2  0
 20  2  1  0
 19  5  1  0
  1 21  1  0
  1 22  1  0
  1 23  1  0
  3 24  1  0
  4 25  1  0
  6 26  1  0
  9 27  1  0
  9 28  1  0
 14 29  1  0
 15 30  1  0
 16 31  1  0
 16 32  1  0
 17 33  1  0
 17 34  1  0
 20 35  1  0
M  END
>  <UniqueID>  (51) 
51

>  <SMILES>  (51) 
Cc1ccc2cc(C(N)=O)n(C(=O)C=CCCCl)c2c1

>  <Energy>  (51) 
69.49907870281595

>  <Genealogy>  (51) 
Cc1ccc2cc(C(N)=O)n(C(=O)C=CCCCl)c2c1 (3D coordinates assigned)
Cc1ccc2cc(C(N)=O)n(C(=O)C=CCCCl)c2c1 (optimized conformer: 69.49907870281595 kcal/mol)

>  <smiles>  (51) 
Cc1ccc2cc(C(N)=O)n(C(=O)C=CCCCl)c2c1

>  <score_type>  (51) 
oracle

>  <origin>  (51) 
adg

>  <m_score__min__energy>  (51) 
-8.6999999999999993

>  <m_primary>  (51) 
energy

$$$$
52:0
     RDKit          3D

 35 37  0  0  0  0  0  0  0  0999 V2000
   -5.7340   25.1690  -28.9860 N   0  0  0  0  0  0  0  0  0  0  0  0
   -5.2360   24.6690  -30.2280 C   0  0  0  0  0  0  0  0  0  0  0  0
   -4.3440   25.3180  -30.8350 O   0  0  0  0  0  0  0  0  0  0  0  0
   -5.7660   23.4150  -30.8110 C   0  0  0  0  0  0  0  0  0  0  0  0
   -7.1170   23.1720  -31.0650 C   0  0  0  0  0  0  0  0  0  0  0  0
   -7.1580   21.9360  -31.6690 C   0  0  0  0  0  0  0  0  0  0  0  0
   -8.2420   21.2060  -32.1470 C   0  0  0  0  0  0  0  0  0  0  0  0
   -7.9880   19.9510  -32.7250 C   0  0  0  0  0  0  0  0  0  0  0  0
   -6.6650   19.4390  -32.7990 C   0  0  0  0  0  0  0  0  0  0  0  0
   -6.4020   18.1110  -33.4600 C   0  0  0  0  0  0  0  0  0  0  0  0
   -5.3230   17.4750  -32.8690 F   0  0  0  0  0  0  0  0  0  0  0  0
   -7.5050   17.2820  -33.3490 F   0  0  0  0  0  0  0  0  0  0  0  0
   -6.1250   18.3160  -34.7990 F   0  0  0  0  0  0  0  0  0  0  0  0
   -5.5880   20.2240  -32.3250 C   0  0  0  0  0  0  0  0  0  0  0  0
   -5.8730   21.4720  -31.7630 C   0  0  0  0  0  0  0  0  0  0  0  0
   -5.0100   22.3640  -31.2370 N   0  0  0  0  0  0  0  0  0  0  0  0
   -3.5850   22.2050  -31.1370 C   0  0  0  0  0  0  0  0  0  0  0  0
   -2.9000   22.1540  -32.1940 O   0  0  0  0  0  0  0  0  0  0  0  0
   -2.9170   22.0730  -29.8190 C   0  0  0  0  0  0  0  0  0  0  0  0
   -2.1080   23.1130  -29.3270 C   0  0  0  0  0  0  0  0  0  0  0  0
   -1.4800   22.9920  -28.0830 C   0  0  0  0  0  0  0  0  0  0  0  0
   -1.6480   21.8340  -27.3210 C   0  0  0  0  0  0  0  0  0  0  0  0
   -1.0350   21.7280  -26.1150 F   0  0  0  0  0  0  0  0  0  0  0  0
   -2.4440   20.7880  -27.8040 C   0  0  0  0  0  0  0  0  0  0  0  0
   -2.6570   19.3260  -26.8570 Cl  0  0  0  0  0  0  0  0  0  0  0  0
   -3.0720   20.9060  -29.0490 C   0  0  0  0  0  0  0  0  0  0  0  0
   -6.4230   24.6290  -28.4180 H   0  0  0  0  0  0  0  0  0  0  0  0
   -5.3740   26.0710  -28.6040 H   0  0  0  0  0  0  0  0  0  0  0  0
   -7.9680   23.8289  -30.8319 H   0  0  0  0  0  0  0  0  0  0  0  0
   -9.2666   21.5996  -32.0745 H   0  0  0  0  0  0  0  0  0  0  0  0
   -8.8235   19.3578  -33.1250 H   0  0  0  0  0  0  0  0  0  0  0  0
   -4.5519   19.8615  -32.3968 H   0  0  0  0  0  0  0  0  0  0  0  0
   -1.9684   24.0265  -29.9237 H   0  0  0  0  0  0  0  0  0  0  0  0
   -0.8519   23.8116  -27.7038 H   0  0  0  0  0  0  0  0  0  0  0  0
   -3.6915   20.0800  -29.4284 H   0  0  0  0  0  0  0  0  0  0  0  0
  1  2  1  0
  2  3  2  0
  2  4  1  0
  4  5  2  0
  5  6  1  0
  6  7  2  0
  7  8  1  0
  8  9  2  0
  9 10  1  0
 10 11  1  0
 10 12  1  0
 10 13  1  0
  9 14  1  0
 14 15  2  0
 15 16  1  0
 16 17  1  0
 17 18  2  0
 17 19  1  0
 19 20  2  0
 20 21  1  0
 21 22  2  0
 22 23  1  0
 22 24  1  0
 24 25  1  0
 24 26  2  0
 16  4  1  0
 26 19  1  0
 15  6  1  0
  1 27  1  0
  1 28  1  0
  5 29  1  0
  7 30  1  0
  8 31  1  0
 14 32  1  0
 20 33  1  0
 21 34  1  0
 26 35  1  0
M  END
>  <UniqueID>  (52) 
52

>  <SMILES>  (52) 
NC(=O)c1cc2ccc(C(F)(F)F)cc2n1C(=O)c1ccc(F)c(Cl)c1

>  <Energy>  (52) 
79.18680937365366

>  <Genealogy>  (52) 
NC(=O)c1cc2ccc(C(F)(F)F)cc2n1C(=O)c1ccc(F)c(Cl)c1 (3D coordinates assigned)
NC(=O)c1cc2ccc(C(F)(F)F)cc2n1C(=O)c1ccc(F)c(Cl)c1 (optimized conformer: 79.18680937365366 kcal/mol)

>  <smiles>  (52) 
NC(=O)c1cc2ccc(C(F)(F)F)cc2n1C(=O)c1ccc(F)c(Cl)c1

>  <score_type>  (52) 
oracle

>  <origin>  (52) 
adg

>  <m_score__min__energy>  (52) 
-9.25

>  <m_primary>  (52) 
energy

$$$$
53:0
     RDKit          3D

 33 35  0  0  0  0  0  0  0  0999 V2000
   -4.0490   25.6470  -30.8410 N   0  0  0  0  0  0  0  0  0  0  0  0
   -5.2150   24.9730  -30.3740 C   0  0  0  0  0  0  0  0  0  0  0  0
   -5.8490   25.4470  -29.3930 O   0  0  0  0  0  0  0  0  0  0  0  0
   -5.6590   23.7020  -30.9860 C   0  0  0  0  0  0  0  0  0  0  0  0
   -6.9720   23.4600  -31.3860 C   0  0  0  0  0  0  0  0  0  0  0  0
   -6.9860   22.1550  -31.8210 C   0  0  0  0  0  0  0  0  0  0  0  0
   -8.0310   21.3930  -32.3330 C   0  0  0  0  0  0  0  0  0  0  0  0
   -7.7550   20.0700  -32.7210 C   0  0  0  0  0  0  0  0  0  0  0  0
   -6.4440   19.5380  -32.6030 C   0  0  0  0  0  0  0  0  0  0  0  0
   -6.1650   18.1430  -33.0060 C   0  0  0  0  0  0  0  0  0  0  0  0
   -5.8940   17.1480  -32.1370 N   0  0  0  0  0  0  0  0  0  0  0  0
   -5.7340   16.0930  -32.9570 C   0  0  0  0  0  0  0  0  0  0  0  0
   -5.9020   16.4220  -34.2500 N   0  0  0  0  0  0  0  0  0  0  0  0
   -6.1730   17.7150  -34.2830 N   0  0  0  0  0  0  0  0  0  0  0  0
   -5.4070   20.3480  -32.0860 C   0  0  0  0  0  0  0  0  0  0  0  0
   -5.7190   21.6530  -31.6830 C   0  0  0  0  0  0  0  0  0  0  0  0
   -4.8910   22.5910  -31.1710 N   0  0  0  0  0  0  0  0  0  0  0  0
   -3.4790   22.4480  -30.9520 C   0  0  0  0  0  0  0  0  0  0  0  0
   -2.8350   21.5650  -31.5810 O   0  0  0  0  0  0  0  0  0  0  0  0
   -2.8040   23.3070  -30.0210 N   0  0  0  0  0  0  0  0  0  0  0  0
   -1.3780   23.1910  -29.7320 C   0  0  0  0  0  0  0  0  0  0  0  0
   -0.8560   24.4860  -29.1980 C   0  0  0  0  0  0  0  0  0  0  0  0
    0.2650   24.5320  -28.6240 O   0  0  0  0  0  0  0  0  0  0  0  0
   -1.6090   25.6470  -29.3280 O   0  0  0  0  0  0  0  0  0  0  0  0
   -3.0950   25.2930  -30.6090 H   0  0  0  0  0  0  0  0  0  0  0  0
   -7.8175   24.1632  -31.3595 H   0  0  0  0  0  0  0  0  0  0  0  0
   -9.0430   21.8128  -32.4314 H   0  0  0  0  0  0  0  0  0  0  0  0
   -8.5637   19.4403  -33.1203 H   0  0  0  0  0  0  0  0  0  0  0  0
   -5.4933   15.0775  -32.6093 H   0  0  0  0  0  0  0  0  0  0  0  0
   -4.3800   19.9629  -32.0022 H   0  0  0  0  0  0  0  0  0  0  0  0
   -3.3310   24.1070  -29.6010 H   0  0  0  0  0  0  0  0  0  0  0  0
   -1.2213   22.3994  -28.9844 H   0  0  0  0  0  0  0  0  0  0  0  0
   -0.8415   22.9410  -30.6592 H   0  0  0  0  0  0  0  0  0  0  0  0
  1  2  1  0
  2  3  2  0
  2  4  1  0
  4  5  2  0
  5  6  1  0
  6  7  2  0
  7  8  1  0
  8  9  2  0
  9 10  1  0
 10 11  2  0
 11 12  1  0
 12 13  2  0
 13 14  1  0
  9 15  1  0
 15 16  2  0
 16 17  1  0
 17 18  1  0
 18 19  2  0
 18 20  1  0
 20 21  1  0
 21 22  1  0
 22 23  2  0
 22 24  1  0
 17  4  1  0
 16  6  1  0
 14 10  1  0
  1 25  1  0
  5 26  1  0
  7 27  1  0
  8 28  1  0
 12 29  1  0
 15 30  1  0
 20 31  1  0
 21 32  1  0
 21 33  1  0
M  CHG  3   1  -1  14  -1  24  -1
M  END
>  <UniqueID>  (53) 
53

>  <SMILES>  (53) 
[NH-]C(=O)c1cc2ccc(-c3ncn[n-]3)cc2n1C(=O)NCC(=O)[O-]

>  <Energy>  (53) 
104.63677556243388

>  <Genealogy>  (53) 
[NH-]C(=O)c1cc2ccc(-c3ncn[n-]3)cc2n1C(=O)NCC(=O)[O-] (protonated)
[NH-]C(=O)c1cc2ccc(-c3ncn[n-]3)cc2n1C(=O)NCC(=O)[O-] (3D coordinates assigned)
[NH-]C(=O)c1cc2ccc(-c3ncn[n-]3)cc2n1C(=O)NCC(=O)[O-] (optimized conformer: 104.63677556243388 kcal/mol)

>  <smiles>  (53) 
NC(=O)c1cc2ccc(-c3ncn[nH]3)cc2n1C(=O)NCC(=O)O

>  <score_type>  (53) 
oracle

>  <origin>  (53) 
adg

>  <m_score__min__energy>  (53) 
-12.4

>  <m_primary>  (53) 
energy

$$$$
54:0
     RDKit          3D

 43 44  0  0  0  0  0  0  0  0999 V2000
    3.4070   22.8360  -36.4140 C   0  0  0  0  0  0  0  0  0  0  0  0
    2.6840   21.8020  -35.6680 N   0  0  0  0  0  0  0  0  0  0  0  0
    3.3740   20.5730  -35.2600 C   0  0  0  0  0  0  0  0  0  0  0  0
    1.2920   22.0180  -35.3440 C   0  0  0  0  0  0  0  0  0  0  0  0
    0.7310   23.0950  -35.6870 O   0  0  0  0  0  0  0  0  0  0  0  0
    0.4670   20.9830  -34.6260 C   0  0  0  0  0  0  0  0  0  0  0  0
   -0.8440   21.5230  -34.2740 N   0  0  0  0  0  0  0  0  0  0  0  0
   -1.7220   20.8790  -33.3410 C   0  0  0  0  0  0  0  0  0  0  0  0
   -1.4010   19.7660  -32.8400 O   0  0  0  0  0  0  0  0  0  0  0  0
   -2.9580   21.5130  -32.9790 N   0  0  0  0  0  0  0  0  0  0  0  0
   -3.9010   20.9650  -32.0460 C   0  0  0  0  0  0  0  0  0  0  0  0
   -3.7660   19.7880  -31.6130 O   0  0  0  0  0  0  0  0  0  0  0  0
   -5.0050   21.7630  -31.5950 N   0  0  0  0  0  0  0  0  0  0  0  0
   -4.9760   23.0340  -31.1030 C   0  0  0  0  0  0  0  0  0  0  0  0
   -3.7600   23.8190  -30.8000 C   0  0  0  0  0  0  0  0  0  0  0  0
   -3.8230   25.2310  -30.6230 N   0  0  0  0  0  0  0  0  0  0  0  0
   -2.6430   23.2380  -30.7330 O   0  0  0  0  0  0  0  0  0  0  0  0
   -6.2700   23.4900  -30.8540 C   0  0  0  0  0  0  0  0  0  0  0  0
   -7.0990   22.4490  -31.2080 C   0  0  0  0  0  0  0  0  0  0  0  0
   -8.4870   22.3610  -31.1810 C   0  0  0  0  0  0  0  0  0  0  0  0
   -9.0800   21.1720  -31.6410 C   0  0  0  0  0  0  0  0  0  0  0  0
   -8.2820   20.1050  -32.1210 C   0  0  0  0  0  0  0  0  0  0  0  0
   -8.9370   18.8520  -32.6270 C   0  0  0  0  0  0  0  0  0  0  0  0
   -9.6240   18.2380  -31.5960 F   0  0  0  0  0  0  0  0  0  0  0  0
   -7.9740   17.9870  -33.1140 F   0  0  0  0  0  0  0  0  0  0  0  0
   -6.8750   20.2340  -32.1380 C   0  0  0  0  0  0  0  0  0  0  0  0
   -6.3110   21.4210  -31.6540 C   0  0  0  0  0  0  0  0  0  0  0  0
    3.8903   23.5272  -35.7079 H   0  0  0  0  0  0  0  0  0  0  0  0
    4.1727   22.3637  -37.0470 H   0  0  0  0  0  0  0  0  0  0  0  0
    2.7006   23.3930  -37.0470 H   0  0  0  0  0  0  0  0  0  0  0  0
    3.4052   20.5173  -34.1619 H   0  0  0  0  0  0  0  0  0  0  0  0
    2.8339   19.7005  -35.6561 H   0  0  0  0  0  0  0  0  0  0  0  0
    4.4002   20.5798  -35.6561 H   0  0  0  0  0  0  0  0  0  0  0  0
    0.3339   20.1091  -35.2807 H   0  0  0  0  0  0  0  0  0  0  0  0
    0.9895   20.6914  -33.7030 H   0  0  0  0  0  0  0  0  0  0  0  0
   -1.1610   22.4020  -34.7420 H   0  0  0  0  0  0  0  0  0  0  0  0
   -3.1770   22.4410  -33.4070 H   0  0  0  0  0  0  0  0  0  0  0  0
   -3.5560   25.6710  -29.7150 H   0  0  0  0  0  0  0  0  0  0  0  0
   -6.5659   24.4729  -30.4586 H   0  0  0  0  0  0  0  0  0  0  0  0
   -9.1013   23.1953  -30.8114 H   0  0  0  0  0  0  0  0  0  0  0  0
  -10.1751   21.0695  -31.6279 H   0  0  0  0  0  0  0  0  0  0  0  0
   -9.6387   19.1115  -33.4334 H   0  0  0  0  0  0  0  0  0  0  0  0
   -6.2389   19.4227  -32.5216 H   0  0  0  0  0  0  0  0  0  0  0  0
  1  2  1  0
  2  3  1  0
  2  4  1  0
  4  5  2  0
  4  6  1  0
  6  7  1  0
  7  8  1  0
  8  9  2  0
  8 10  1  0
 10 11  1  0
 11 12  2  0
 11 13  1  0
 13 14  1  0
 14 15  1  0
 15 16  1  0
 15 17  2  0
 14 18  2  0
 18 19  1  0
 19 20  2  0
 20 21  1  0
 21 22  2  0
 22 23  1  0
 23 24  1  0
 23 25  1  0
 22 26  1  0
 26 27  2  0
 27 13  1  0
 27 19  1  0
  1 28  1  0
  1 29  1  0
  1 30  1  0
  3 31  1  0
  3 32  1  0
  3 33  1  0
  6 34  1  0
  6 35  1  0
  7 36  1  0
 10 37  1  0
 16 38  1  0
 18 39  1  0
 20 40  1  0
 21 41  1  0
 23 42  1  0
 26 43  1  0
M  CHG  1  16  -1
M  END
>  <UniqueID>  (54) 
54

>  <SMILES>  (54) 
CN(C)C(=O)CNC(=O)NC(=O)n1c(C([NH-])=O)cc2ccc(C(F)F)cc21

>  <Energy>  (54) 
76.18784843657428

>  <Genealogy>  (54) 
CN(C)C(=O)CNC(=O)NC(=O)n1c(C([NH-])=O)cc2ccc(C(F)F)cc21 (protonated)
CN(C)C(=O)CNC(=O)NC(=O)n1c(C([NH-])=O)cc2ccc(C(F)F)cc21 (3D coordinates assigned)
CN(C)C(=O)CNC(=O)NC(=O)n1c(C([NH-])=O)cc2ccc(C(F)F)cc21 (optimized conformer: 76.18784843657428 kcal/mol)

>  <smiles>  (54) 
CN(C)C(=O)CNC(=O)NC(=O)n1c(C(N)=O)cc2ccc(C(F)F)cc21

>  <score_type>  (54) 
oracle

>  <origin>  (54) 
adg

>  <m_score__min__energy>  (54) 
-11.039999999999999

>  <m_primary>  (54) 
energy

$$$$
55:0
     RDKit          3D

 50 51  0  0  0  0  0  0  0  0999 V2000
   -0.8850   26.5140  -27.8350 C   0  0  0  0  0  0  0  0  0  0  0  0
   -1.9410   25.6050  -28.0880 O   0  0  0  0  0  0  0  0  0  0  0  0
   -2.2470   24.9020  -26.8930 C   0  0  0  0  0  0  0  0  0  0  0  0
   -1.3040   23.6970  -26.7730 C   0  0  0  0  0  0  0  0  0  0  0  0
   -0.5300   23.2600  -28.3310 S   0  0  0  0  0  0  0  0  0  0  0  0
   -0.0210   21.8540  -28.2040 O   0  0  0  0  0  0  0  0  0  0  0  0
    0.6430   24.1620  -28.6000 O   0  0  0  0  0  0  0  0  0  0  0  0
   -1.6620   23.2850  -29.7290 C   0  0  0  0  0  0  0  0  0  0  0  0
   -2.2750   21.9150  -30.0750 C   0  0  1  0  0  0  0  0  0  0  0  0
   -3.1120   21.3960  -28.9340 C   0  0  0  0  0  0  0  0  0  0  0  0
   -3.9380   22.1600  -28.3570 O   0  0  0  0  0  0  0  0  0  0  0  0
   -2.9710   20.0640  -28.5330 O   0  0  0  0  0  0  0  0  0  0  0  0
   -2.7140   19.6860  -27.1840 C   0  0  0  0  0  0  0  0  0  0  0  0
   -3.0900   21.9750  -31.3560 C   0  0  0  0  0  0  0  0  0  0  0  0
   -2.5130   21.8360  -32.4680 O   0  0  0  0  0  0  0  0  0  0  0  0
   -4.5210   22.1390  -31.3300 N   0  0  0  0  0  0  0  0  0  0  0  0
   -5.2160   23.2040  -30.8410 C   0  0  0  0  0  0  0  0  0  0  0  0
   -4.6320   24.3850  -30.1760 C   0  0  0  0  0  0  0  0  0  0  0  0
   -4.6400   24.5170  -28.7520 N   0  0  0  0  0  0  0  0  0  0  0  0
   -4.1400   25.3090  -30.8770 O   0  0  0  0  0  0  0  0  0  0  0  0
   -6.5830   23.0370  -31.0500 C   0  0  0  0  0  0  0  0  0  0  0  0
   -6.7090   21.8270  -31.6930 C   0  0  0  0  0  0  0  0  0  0  0  0
   -7.8470   21.1620  -32.1380 C   0  0  0  0  0  0  0  0  0  0  0  0
   -7.6800   19.9270  -32.7850 C   0  0  0  0  0  0  0  0  0  0  0  0
   -6.3840   19.3870  -32.9870 C   0  0  0  0  0  0  0  0  0  0  0  0
   -6.2200   18.0730  -33.6950 C   0  0  0  0  0  0  0  0  0  0  0  0
   -6.1020   18.2890  -35.0570 F   0  0  0  0  0  0  0  0  0  0  0  0
   -7.3190   17.2700  -33.4520 F   0  0  0  0  0  0  0  0  0  0  0  0
   -5.2500   20.1010  -32.5370 C   0  0  0  0  0  0  0  0  0  0  0  0
   -5.4500   21.3100  -31.8610 C   0  0  0  0  0  0  0  0  0  0  0  0
   -0.7520   26.6285  -26.7491 H   0  0  0  0  0  0  0  0  0  0  0  0
    0.0446   26.1291  -28.2797 H   0  0  0  0  0  0  0  0  0  0  0  0
   -1.1273   27.4905  -28.2797 H   0  0  0  0  0  0  0  0  0  0  0  0
   -2.1095   25.5667  -26.0274 H   0  0  0  0  0  0  0  0  0  0  0  0
   -3.2916   24.5582  -26.9186 H   0  0  0  0  0  0  0  0  0  0  0  0
   -0.5157   23.9391  -26.0450 H   0  0  0  0  0  0  0  0  0  0  0  0
   -1.9076   22.8357  -26.4507 H   0  0  0  0  0  0  0  0  0  0  0  0
   -2.4821   23.9799  -29.4954 H   0  0  0  0  0  0  0  0  0  0  0  0
   -1.0732   23.5960  -30.6046 H   0  0  0  0  0  0  0  0  0  0  0  0
   -1.4435   21.2143  -30.2411 H   0  0  0  0  0  0  0  0  0  0  0  0
   -3.2001   20.4010  -26.5039 H   0  0  0  0  0  0  0  0  0  0  0  0
   -3.1144   18.6776  -27.0031 H   0  0  0  0  0  0  0  0  0  0  0  0
   -1.6290   19.6875  -27.0031 H   0  0  0  0  0  0  0  0  0  0  0  0
   -5.2670   23.9230  -28.1630 H   0  0  0  0  0  0  0  0  0  0  0  0
   -4.1160   25.2960  -28.2920 H   0  0  0  0  0  0  0  0  0  0  0  0
   -7.3905   23.7262  -30.7621 H   0  0  0  0  0  0  0  0  0  0  0  0
   -8.8486   21.5912  -31.9874 H   0  0  0  0  0  0  0  0  0  0  0  0
   -8.5623   19.3732  -33.1384 H   0  0  0  0  0  0  0  0  0  0  0  0
   -5.3133   17.5743  -33.3220 H   0  0  0  0  0  0  0  0  0  0  0  0
   -4.2350   19.7157  -32.7139 H   0  0  0  0  0  0  0  0  0  0  0  0
  1  2  1  0
  2  3  1  0
  3  4  1  0
  4  5  1  0
  5  6  2  0
  5  7  2  0
  5  8  1  0
  8  9  1  0
  9 10  1  0
 10 11  2  0
 10 12  1  0
 12 13  1  0
  9 14  1  0
 14 15  2  0
 14 16  1  0
 16 17  1  0
 17 18  1  0
 18 19  1  0
 18 20  2  0
 17 21  2  0
 21 22  1  0
 22 23  2  0
 23 24  1  0
 24 25  2  0
 25 26  1  0
 26 27  1  0
 26 28  1  0
 25 29  1  0
 29 30  2  0
 30 16  1  0
 30 22  1  0
  1 31  1  0
  1 32  1  0
  1 33  1  0
  3 34  1  0
  3 35  1  0
  4 36  1  0
  4 37  1  0
  8 38  1  0
  8 39  1  0
  9 40  1  6
 13 41  1  0
 13 42  1  0
 13 43  1  0
 19 44  1  0
 19 45  1  0
 21 46  1  0
 23 47  1  0
 24 48  1  0
 26 49  1  0
 29 50  1  0
M  END
>  <UniqueID>  (55) 
55

>  <SMILES>  (55) 
COCCS(=O)(=O)C[C@@H](C(=O)OC)C(=O)n1c(C(N)=O)cc2ccc(C(F)F)cc21

>  <Energy>  (55) 
79.20775814869823

>  <Genealogy>  (55) 
COCCS(=O)(=O)C[C@@H](C(=O)OC)C(=O)n1c(C(N)=O)cc2ccc(C(F)F)cc21 (3D coordinates assigned)
COCCS(=O)(=O)C[C@@H](C(=O)OC)C(=O)n1c(C(N)=O)cc2ccc(C(F)F)cc21 (optimized conformer: 79.20775814869823 kcal/mol)

>  <smiles>  (55) 
COCCS(=O)(=O)C[C@@H](C(=O)OC)C(=O)n1c(C(N)=O)cc2ccc(C(F)F)cc21

>  <score_type>  (55) 
oracle

>  <origin>  (55) 
adg

>  <m_score__min__energy>  (55) 
-8.8599999999999994

>  <m_primary>  (55) 
energy

$$$$
56:0
     RDKit          3D

 57 58  0  0  0  0  0  0  0  0999 V2000
   -7.2470   17.3790  -32.7580 C   0  0  0  0  0  0  0  0  0  0  0  0
   -6.7470   18.5820  -33.4330 N   0  0  0  0  0  0  0  0  0  0  0  0
   -6.0750   18.4400  -34.7320 C   0  0  0  0  0  0  0  0  0  0  0  0
   -6.9070   19.8910  -32.8260 C   0  0  0  0  0  0  0  0  0  0  0  0
   -8.2040   20.4120  -32.5530 C   0  0  0  0  0  0  0  0  0  0  0  0
   -8.3660   21.6790  -31.9670 C   0  0  0  0  0  0  0  0  0  0  0  0
   -7.2250   22.4060  -31.6520 C   0  0  0  0  0  0  0  0  0  0  0  0
   -7.0990   23.6580  -31.0960 C   0  0  0  0  0  0  0  0  0  0  0  0
   -5.7280   23.8880  -31.0090 C   0  0  0  0  0  0  0  0  0  0  0  0
   -5.1460   25.0930  -30.3810 C   0  0  0  0  0  0  0  0  0  0  0  0
   -3.8970   25.6010  -30.8440 N   0  0  0  0  0  0  0  0  0  0  0  0
   -5.7550   25.7010  -29.4620 O   0  0  0  0  0  0  0  0  0  0  0  0
   -5.0330   22.8230  -31.5020 N   0  0  0  0  0  0  0  0  0  0  0  0
   -3.6090   22.6730  -31.6340 C   0  0  0  0  0  0  0  0  0  0  0  0
   -3.1190   22.1440  -32.6700 O   0  0  0  0  0  0  0  0  0  0  0  0
   -2.7760   23.0750  -30.5870 O   0  0  0  0  0  0  0  0  0  0  0  0
   -1.9940   22.1700  -29.8200 C   0  0  0  0  0  0  0  0  0  0  0  0
   -0.7000   22.0870  -30.3990 O   0  0  0  0  0  0  0  0  0  0  0  0
   -0.3950   21.2420  -31.4710 C   0  0  0  0  0  0  0  0  0  0  0  0
   -0.3750   21.6950  -32.6500 O   0  0  0  0  0  0  0  0  0  0  0  0
   -0.1790   19.7630  -31.2090 C   0  0  0  0  0  0  0  0  0  0  0  0
   -0.2280   19.4550  -29.6940 C   0  0  0  0  0  0  0  0  0  0  0  0
    1.2230   19.3940  -31.7360 C   0  0  0  0  0  0  0  0  0  0  0  0
   -1.2410   18.9100  -31.9740 C   0  0  0  0  0  0  0  0  0  0  0  0
   -1.7300   19.5450  -33.2370 N   0  0  0  0  0  0  0  0  0  0  0  0
   -3.1100   19.1210  -33.5470 C   0  0  0  0  0  0  0  0  0  0  0  0
   -0.8500   19.2100  -34.3720 C   0  0  0  0  0  0  0  0  0  0  0  0
   -5.9660   21.9230  -31.8890 C   0  0  0  0  0  0  0  0  0  0  0  0
   -5.7730   20.6750  -32.4950 C   0  0  0  0  0  0  0  0  0  0  0  0
   -7.1888   17.5189  -31.6685 H   0  0  0  0  0  0  0  0  0  0  0  0
   -8.2929   17.2028  -33.0497 H   0  0  0  0  0  0  0  0  0  0  0  0
   -6.6341   16.5134  -33.0497 H   0  0  0  0  0  0  0  0  0  0  0  0
   -5.0103   18.2150  -34.5714 H   0  0  0  0  0  0  0  0  0  0  0  0
   -6.5415   17.6206  -35.2985 H   0  0  0  0  0  0  0  0  0  0  0  0
   -6.1701   19.3781  -35.2985 H   0  0  0  0  0  0  0  0  0  0  0  0
   -9.0922   19.8138  -32.8046 H   0  0  0  0  0  0  0  0  0  0  0  0
   -9.3684   22.0837  -31.7634 H   0  0  0  0  0  0  0  0  0  0  0  0
   -7.9093   24.3342  -30.7858 H   0  0  0  0  0  0  0  0  0  0  0  0
   -2.9940   25.2400  -30.4620 H   0  0  0  0  0  0  0  0  0  0  0  0
   -1.9144   22.5340  -28.7850 H   0  0  0  0  0  0  0  0  0  0  0  0
   -2.4671   21.1770  -29.8127 H   0  0  0  0  0  0  0  0  0  0  0  0
   -0.0800   20.3852  -29.1258 H   0  0  0  0  0  0  0  0  0  0  0  0
   -1.2064   19.0215  -29.4394 H   0  0  0  0  0  0  0  0  0  0  0  0
    0.5676   18.7393  -29.4394 H   0  0  0  0  0  0  0  0  0  0  0  0
    1.8989   19.2161  -30.8866 H   0  0  0  0  0  0  0  0  0  0  0  0
    1.1563   18.4828  -32.3486 H   0  0  0  0  0  0  0  0  0  0  0  0
    1.6135   20.2199  -32.3486 H   0  0  0  0  0  0  0  0  0  0  0  0
   -0.7895   17.9392  -32.2263 H   0  0  0  0  0  0  0  0  0  0  0  0
   -2.1110   18.8098  -31.3084 H   0  0  0  0  0  0  0  0  0  0  0  0
   -1.7330   20.5870  -33.1550 H   0  0  0  0  0  0  0  0  0  0  0  0
   -3.6608   18.9518  -32.6100 H   0  0  0  0  0  0  0  0  0  0  0  0
   -3.6124   19.9062  -34.1310 H   0  0  0  0  0  0  0  0  0  0  0  0
   -3.0848   18.1891  -34.1310 H   0  0  0  0  0  0  0  0  0  0  0  0
    0.1147   18.8427  -33.9920 H   0  0  0  0  0  0  0  0  0  0  0  0
   -1.3237   18.4293  -34.9853 H   0  0  0  0  0  0  0  0  0  0  0  0
   -0.6846   20.1081  -34.9853 H   0  0  0  0  0  0  0  0  0  0  0  0
   -4.7583   20.3092  -32.7106 H   0  0  0  0  0  0  0  0  0  0  0  0
  1  2  1  0
  2  3  1  0
  2  4  1  0
  4  5  2  0
  5  6  1  0
  6  7  2  0
  7  8  1  0
  8  9  2  0
  9 10  1  0
 10 11  1  0
 10 12  2  0
  9 13  1  0
 13 14  1  0
 14 15  2  0
 14 16  1  0
 16 17  1  0
 17 18  1  0
 18 19  1  0
 19 20  2  0
 19 21  1  0
 21 22  1  0
 21 23  1  0
 21 24  1  0
 24 25  1  0
 25 26  1  0
 25 27  1  0
 13 28  1  0
 28 29  2  0
 29  4  1  0
 28  7  1  0
  1 30  1  0
  1 31  1  0
  1 32  1  0
  3 33  1  0
  3 34  1  0
  3 35  1  0
  5 36  1  0
  6 37  1  0
  8 38  1  0
 11 39  1  0
 17 40  1  0
 17 41  1  0
 22 42  1  0
 22 43  1  0
 22 44  1  0
 23 45  1  0
 23 46  1  0
 23 47  1  0
 24 48  1  0
 24 49  1  0
 25 50  1  0
 26 51  1  0
 26 52  1  0
 26 53  1  0
 27 54  1  0
 27 55  1  0
 27 56  1  0
 29 57  1  0
M  CHG  2  11  -1  25   1
M  END
>  <UniqueID>  (56) 
56

>  <SMILES>  (56) 
CN(C)c1ccc2cc(C([NH-])=O)n(C(=O)OCOC(=O)C(C)(C)C[NH+](C)C)c2c1

>  <Energy>  (56) 
93.67170083921488

>  <Genealogy>  (56) 
CN(C)c1ccc2cc(C([NH-])=O)n(C(=O)OCOC(=O)C(C)(C)C[NH+](C)C)c2c1 (protonated)
CN(C)c1ccc2cc(C([NH-])=O)n(C(=O)OCOC(=O)C(C)(C)C[NH+](C)C)c2c1 (3D coordinates assigned)
CN(C)c1ccc2cc(C([NH-])=O)n(C(=O)OCOC(=O)C(C)(C)C[NH+](C)C)c2c1 (optimized conformer: 93.67170083921488 kcal/mol)

>  <smiles>  (56) 
CN(C)CC(C)(C)C(=O)OCOC(=O)n1c(C(N)=O)cc2ccc(N(C)C)cc21

>  <score_type>  (56) 
oracle

>  <origin>  (56) 
adg

>  <m_score__min__energy>  (56) 
-11.24

>  <m_primary>  (56) 
energy

$$$$
57:0
     RDKit          3D

 47 49  0  0  0  0  0  0  0  0999 V2000
   -3.6510   25.2230  -30.4730 N   0  0  0  0  0  0  0  0  0  0  0  0
   -5.0690   25.3270  -30.5830 C   0  0  0  0  0  0  0  0  0  0  0  0
   -5.6160   26.4530  -30.4430 O   0  0  0  0  0  0  0  0  0  0  0  0
   -5.8790   24.1150  -30.8170 C   0  0  0  0  0  0  0  0  0  0  0  0
   -7.2420   24.1470  -31.1040 C   0  0  0  0  0  0  0  0  0  0  0  0
   -7.5970   22.8380  -31.3410 C   0  0  0  0  0  0  0  0  0  0  0  0
   -8.8370   22.2900  -31.6520 C   0  0  0  0  0  0  0  0  0  0  0  0
   -8.9210   20.8960  -31.8100 C   0  0  0  0  0  0  0  0  0  0  0  0
   -7.7680   20.0790  -31.6630 C   0  0  0  0  0  0  0  0  0  0  0  0
   -7.8600   18.5790  -31.7830 C   0  0  0  0  0  0  0  0  0  0  0  0
   -7.9340   18.1850  -33.1080 F   0  0  0  0  0  0  0  0  0  0  0  0
   -6.7430   17.9890  -31.2170 F   0  0  0  0  0  0  0  0  0  0  0  0
   -8.9890   18.1370  -31.1200 F   0  0  0  0  0  0  0  0  0  0  0  0
   -6.5330   20.6760  -31.3240 C   0  0  0  0  0  0  0  0  0  0  0  0
   -6.4750   22.0670  -31.1910 C   0  0  0  0  0  0  0  0  0  0  0  0
   -5.4110   22.8340  -30.8650 N   0  0  0  0  0  0  0  0  0  0  0  0
   -4.0850   22.3650  -30.5730 C   0  0  0  0  0  0  0  0  0  0  0  0
   -3.8640   21.7220  -29.5100 O   0  0  0  0  0  0  0  0  0  0  0  0
   -3.0480   22.6000  -31.4810 O   0  0  0  0  0  0  0  0  0  0  0  0
   -2.0510   21.6270  -31.7790 C   0  0  0  0  0  0  0  0  0  0  0  0
   -2.3180   21.0010  -33.1500 C   0  0  0  0  0  0  0  0  0  0  0  0
   -3.8150   20.7750  -33.4230 C   0  0  0  0  0  0  0  0  0  0  0  0
   -4.0720   19.4280  -33.9770 N   0  0  0  0  0  0  0  0  0  0  0  0
   -3.5020   18.3870  -33.0960 C   0  0  0  0  0  0  0  0  0  0  0  0
   -4.0010   16.9840  -33.4940 C   0  0  0  0  0  0  0  0  0  0  0  0
   -4.5600   17.0000  -34.7910 O   0  0  0  0  0  0  0  0  0  0  0  0
   -5.7360   17.7910  -34.7960 C   0  0  0  0  0  0  0  0  0  0  0  0
   -5.5140   19.1850  -34.1700 C   0  0  0  0  0  0  0  0  0  0  0  0
   -3.0870   24.7560  -31.2170 H   0  0  0  0  0  0  0  0  0  0  0  0
   -7.8960   25.0309  -31.1347 H   0  0  0  0  0  0  0  0  0  0  0  0
   -9.7250   22.9283  -31.7707 H   0  0  0  0  0  0  0  0  0  0  0  0
   -9.8894   20.4327  -32.0499 H   0  0  0  0  0  0  0  0  0  0  0  0
   -5.6356   20.0593  -31.1679 H   0  0  0  0  0  0  0  0  0  0  0  0
   -1.0626   22.1097  -31.7860 H   0  0  0  0  0  0  0  0  0  0  0  0
   -2.0779   20.8385  -31.0125 H   0  0  0  0  0  0  0  0  0  0  0  0
   -1.9168   21.6700  -33.9256 H   0  0  0  0  0  0  0  0  0  0  0  0
   -1.8272   20.0167  -33.1649 H   0  0  0  0  0  0  0  0  0  0  0  0
   -4.3700   20.8845  -32.4796 H   0  0  0  0  0  0  0  0  0  0  0  0
   -4.1451   21.5191  -34.1628 H   0  0  0  0  0  0  0  0  0  0  0  0
   -2.4050   18.4128  -33.1736 H   0  0  0  0  0  0  0  0  0  0  0  0
   -3.8233   18.5907  -32.0639 H   0  0  0  0  0  0  0  0  0  0  0  0
   -3.1549   16.2813  -33.4745 H   0  0  0  0  0  0  0  0  0  0  0  0
   -4.7762   16.6696  -32.7797 H   0  0  0  0  0  0  0  0  0  0  0  0
   -6.0695   17.9205  -35.8362 H   0  0  0  0  0  0  0  0  0  0  0  0
   -6.4920   17.2695  -34.1907 H   0  0  0  0  0  0  0  0  0  0  0  0
   -5.9267   19.9545  -34.8390 H   0  0  0  0  0  0  0  0  0  0  0  0
   -6.0208   19.2275  -33.1946 H   0  0  0  0  0  0  0  0  0  0  0  0
  1  2  1  0
  2  3  2  0
  2  4  1  0
  4  5  2  0
  5  6  1  0
  6  7  2  0
  7  8  1  0
  8  9  2  0
  9 10  1  0
 10 11  1  0
 10 12  1  0
 10 13  1  0
  9 14  1  0
 14 15  2  0
 15 16  1  0
 16 17  1  0
 17 18  2  0
 17 19  1  0
 19 20  1  0
 20 21  1  0
 21 22  1  0
 22 23  1  0
 23 24  1  0
 24 25  1  0
 25 26  1  0
 26 27  1  0
 27 28  1  0
 16  4  1  0
 28 23  1  0
 15  6  1  0
  1 29  1  0
  5 30  1  0
  7 31  1  0
  8 32  1  0
 14 33  1  0
 20 34  1  0
 20 35  1  0
 21 36  1  0
 21 37  1  0
 22 38  1  0
 22 39  1  0
 24 40  1  0
 24 41  1  0
 25 42  1  0
 25 43  1  0
 27 44  1  0
 27 45  1  0
 28 46  1  0
 28 47  1  0
M  CHG  1   1  -1
M  END
>  <UniqueID>  (57) 
57

>  <SMILES>  (57) 
[NH-]C(=O)c1cc2ccc(C(F)(F)F)cc2n1C(=O)OCCCN1CCOCC1

>  <Energy>  (57) 
89.690512327389

>  <Genealogy>  (57) 
[NH-]C(=O)c1cc2ccc(C(F)(F)F)cc2n1C(=O)OCCCN1CCOCC1 (protonated)
[NH-]C(=O)c1cc2ccc(C(F)(F)F)cc2n1C(=O)OCCCN1CCOCC1 (3D coordinates assigned)
[NH-]C(=O)c1cc2ccc(C(F)(F)F)cc2n1C(=O)OCCCN1CCOCC1 (nonaromatic ring conformer: 89.690512327389 kcal/mol)

>  <smiles>  (57) 
NC(=O)c1cc2ccc(C(F)(F)F)cc2n1C(=O)OCCCN1CCOCC1

>  <score_type>  (57) 
oracle

>  <origin>  (57) 
adg

>  <m_score__min__energy>  (57) 
-10.76

>  <m_primary>  (57) 
energy

$$$$
58:0
     RDKit          3D

 50 53  0  0  0  0  0  0  0  0999 V2000
   -6.1210   17.1060  -30.7390 C   0  0  0  0  0  0  0  0  0  0  0  0
   -5.7510   17.1730  -32.1890 C   0  0  0  0  0  0  0  0  0  0  0  0
   -4.5920   16.6670  -32.7430 C   0  0  0  0  0  0  0  0  0  0  0  0
   -4.7450   16.8790  -34.0980 C   0  0  0  0  0  0  0  0  0  0  0  0
   -3.4920   16.3910  -35.4490 Br  0  0  0  0  0  0  0  0  0  0  0  0
   -5.9310   17.4650  -34.3460 N   0  0  0  0  0  0  0  0  0  0  0  0
   -6.5360   17.6450  -33.1830 N   0  0  0  0  0  0  0  0  0  0  0  0
   -7.8850   18.1950  -33.0620 C   0  0  0  0  0  0  0  0  0  0  0  0
   -7.8260   19.6030  -32.5360 C   0  0  0  0  0  0  0  0  0  0  0  0
   -9.0230   20.3430  -32.3690 C   0  0  0  0  0  0  0  0  0  0  0  0
   -8.9880   21.6540  -31.8650 C   0  0  0  0  0  0  0  0  0  0  0  0
   -7.7500   22.1890  -31.5220 C   0  0  0  0  0  0  0  0  0  0  0  0
   -7.4280   23.4390  -31.0450 C   0  0  0  0  0  0  0  0  0  0  0  0
   -6.0440   23.4280  -30.8940 C   0  0  0  0  0  0  0  0  0  0  0  0
   -5.2760   24.5680  -30.3530 C   0  0  0  0  0  0  0  0  0  0  0  0
   -5.3130   24.8930  -28.9620 N   0  0  0  0  0  0  0  0  0  0  0  0
   -4.6170   25.2990  -31.1390 O   0  0  0  0  0  0  0  0  0  0  0  0
   -5.5270   22.2250  -31.2700 N   0  0  0  0  0  0  0  0  0  0  0  0
   -4.1410   21.8650  -31.3730 C   0  0  0  0  0  0  0  0  0  0  0  0
   -3.4450   22.3080  -32.3280 O   0  0  0  0  0  0  0  0  0  0  0  0
   -3.5730   21.0160  -30.4160 O   0  0  0  0  0  0  0  0  0  0  0  0
   -2.7370   21.4650  -29.3500 C   0  0  0  0  0  0  0  0  0  0  0  0
   -3.0760   22.9180  -28.9730 C   0  0  1  0  0  0  0  0  0  0  0  0
   -2.7440   23.2420  -27.5440 C   0  0  0  0  0  0  0  0  0  0  0  0
   -2.4420   24.7300  -27.5970 C   0  0  0  0  0  0  0  0  0  0  0  0
   -2.1750   25.1140  -28.9290 O   0  0  0  0  0  0  0  0  0  0  0  0
   -2.2680   23.9580  -29.7280 C   0  0  0  0  0  0  0  0  0  0  0  0
   -6.5850   21.4760  -31.6530 C   0  0  0  0  0  0  0  0  0  0  0  0
   -6.5880   20.1780  -32.1780 C   0  0  0  0  0  0  0  0  0  0  0  0
   -5.2237   17.2685  -30.1237 H   0  0  0  0  0  0  0  0  0  0  0  0
   -6.8655   17.8839  -30.5142 H   0  0  0  0  0  0  0  0  0  0  0  0
   -6.5454   16.1164  -30.5142 H   0  0  0  0  0  0  0  0  0  0  0  0
   -3.7415   16.2015  -32.2234 H   0  0  0  0  0  0  0  0  0  0  0  0
   -8.3670   18.1963  -34.0508 H   0  0  0  0  0  0  0  0  0  0  0  0
   -8.4646   17.5743  -32.3628 H   0  0  0  0  0  0  0  0  0  0  0  0
   -9.9877   19.8871  -32.6362 H   0  0  0  0  0  0  0  0  0  0  0  0
   -9.9113   22.2398  -31.7452 H   0  0  0  0  0  0  0  0  0  0  0  0
   -8.1167   24.2692  -30.8292 H   0  0  0  0  0  0  0  0  0  0  0  0
   -4.7270   25.6730  -28.5920 H   0  0  0  0  0  0  0  0  0  0  0  0
   -5.9790   24.4170  -28.3150 H   0  0  0  0  0  0  0  0  0  0  0  0
   -2.8902   20.8186  -28.4732 H   0  0  0  0  0  0  0  0  0  0  0  0
   -1.6879   21.4185  -29.6775 H   0  0  0  0  0  0  0  0  0  0  0  0
   -4.1505   22.9659  -29.2035 H   0  0  0  0  0  0  0  0  0  0  0  0
   -3.5977   23.0344  -26.8821 H   0  0  0  0  0  0  0  0  0  0  0  0
   -1.9126   22.6431  -27.1438 H   0  0  0  0  0  0  0  0  0  0  0  0
   -3.3092   25.2927  -27.2210 H   0  0  0  0  0  0  0  0  0  0  0  0
   -1.5627   24.9458  -26.9724 H   0  0  0  0  0  0  0  0  0  0  0  0
   -2.7692   24.2012  -30.6765 H   0  0  0  0  0  0  0  0  0  0  0  0
   -1.2630   23.5690  -29.9487 H   0  0  0  0  0  0  0  0  0  0  0  0
   -5.6488   19.6204  -32.3082 H   0  0  0  0  0  0  0  0  0  0  0  0
  1  2  1  0
  2  3  2  0
  3  4  1  0
  4  5  1  0
  4  6  2  0
  6  7  1  0
  7  8  1  0
  8  9  1  0
  9 10  2  0
 10 11  1  0
 11 12  2  0
 12 13  1  0
 13 14  2  0
 14 15  1  0
 15 16  1  0
 15 17  2  0
 14 18  1  0
 18 19  1  0
 19 20  2  0
 19 21  1  0
 21 22  1  0
 22 23  1  0
 23 24  1  0
 24 25  1  0
 25 26  1  0
 26 27  1  0
 18 28  1  0
 28 29  2  0
  7  2  1  0
 29  9  1  0
 28 12  1  0
 27 23  1  0
  1 30  1  0
  1 31  1  0
  1 32  1  0
  3 33  1  0
  8 34  1  0
  8 35  1  0
 10 36  1  0
 11 37  1  0
 13 38  1  0
 16 39  1  0
 16 40  1  0
 22 41  1  0
 22 42  1  0
 23 43  1  1
 24 44  1  0
 24 45  1  0
 25 46  1  0
 25 47  1  0
 27 48  1  0
 27 49  1  0
 29 50  1  0
M  END
>  <UniqueID>  (58) 
58

>  <SMILES>  (58) 
Cc1cc(Br)nn1Cc1ccc2cc(C(N)=O)n(C(=O)OC[C@H]3CCOC3)c2c1

>  <Energy>  (58) 
117.3286514091301

>  <Genealogy>  (58) 
Cc1cc(Br)nn1Cc1ccc2cc(C(N)=O)n(C(=O)OC[C@H]3CCOC3)c2c1 (chirality)
Cc1cc(Br)nn1Cc1ccc2cc(C(N)=O)n(C(=O)OC[C@H]3CCOC3)c2c1 (3D coordinates assigned)
Cc1cc(Br)nn1Cc1ccc2cc(C(N)=O)n(C(=O)OC[C@H]3CCOC3)c2c1 (nonaromatic ring conformer: 117.3286514091301 kcal/mol)

>  <smiles>  (58) 
Cc1cc(Br)nn1Cc1ccc2cc(C(N)=O)n(C(=O)OCC3CCOC3)c2c1

>  <score_type>  (58) 
oracle

>  <origin>  (58) 
adg

>  <m_score__min__energy>  (58) 
-10.44

>  <m_primary>  (58) 
energy

$$$$
59:0
     RDKit          3D

 42 43  0  0  0  0  0  0  0  0999 V2000
   -3.8410   15.4330  -34.9270 C   0  0  0  0  0  0  0  0  0  0  0  0
   -3.0700   16.6610  -34.7290 N   0  0  0  0  0  0  0  0  0  0  0  0
   -2.9710   16.9740  -33.2980 C   0  0  0  0  0  0  0  0  0  0  0  0
   -2.8510   18.4890  -33.0930 C   0  0  0  0  0  0  0  0  0  0  0  0
   -2.6690   19.1740  -34.3200 O   0  0  0  0  0  0  0  0  0  0  0  0
   -1.9130   20.3600  -34.1540 C   0  0  0  0  0  0  0  0  0  0  0  0
   -2.5290   21.1790  -33.1080 C   0  0  0  0  0  0  0  0  0  0  0  0
   -3.0520   21.8360  -32.2430 C   0  0  0  0  0  0  0  0  0  0  0  0
   -3.6960   22.6280  -31.2310 C   0  0  0  0  0  0  0  0  0  0  0  0
   -3.0020   23.1360  -30.3110 O   0  0  0  0  0  0  0  0  0  0  0  0
   -5.1160   22.8460  -31.2720 N   0  0  0  0  0  0  0  0  0  0  0  0
   -5.7920   23.9980  -30.9950 C   0  0  0  0  0  0  0  0  0  0  0  0
   -5.2020   25.2500  -30.4750 C   0  0  0  0  0  0  0  0  0  0  0  0
   -3.8870   25.6530  -30.8460 N   0  0  0  0  0  0  0  0  0  0  0  0
   -5.8540   25.9530  -29.6580 O   0  0  0  0  0  0  0  0  0  0  0  0
   -7.1600   23.8200  -31.1920 C   0  0  0  0  0  0  0  0  0  0  0  0
   -7.3060   22.5120  -31.5940 C   0  0  0  0  0  0  0  0  0  0  0  0
   -8.4540   21.7960  -31.9200 C   0  0  0  0  0  0  0  0  0  0  0  0
   -8.3060   20.4580  -32.3170 C   0  0  0  0  0  0  0  0  0  0  0  0
   -7.0200   19.8680  -32.4020 C   0  0  0  0  0  0  0  0  0  0  0  0
   -6.8650   18.4330  -32.8260 C   0  0  0  0  0  0  0  0  0  0  0  0
   -6.1420   18.3580  -34.0990 C   0  0  0  0  0  0  0  0  0  0  0  0
   -5.5730   18.2980  -35.1050 N   0  0  0  0  0  0  0  0  0  0  0  0
   -5.8780   20.6260  -32.0620 C   0  0  0  0  0  0  0  0  0  0  0  0
   -6.0570   21.9490  -31.6410 C   0  0  0  0  0  0  0  0  0  0  0  0
   -4.1088   15.0065  -33.9491 H   0  0  0  0  0  0  0  0  0  0  0  0
   -4.7575   15.6623  -35.4904 H   0  0  0  0  0  0  0  0  0  0  0  0
   -3.2362   14.7072  -35.4904 H   0  0  0  0  0  0  0  0  0  0  0  0
   -3.5880   17.4400  -35.1980 H   0  0  0  0  0  0  0  0  0  0  0  0
   -3.8716   16.6081  -32.7831 H   0  0  0  0  0  0  0  0  0  0  0  0
   -2.0766   16.4845  -32.8851 H   0  0  0  0  0  0  0  0  0  0  0  0
   -3.7697   18.8570  -32.6128 H   0  0  0  0  0  0  0  0  0  0  0  0
   -1.9707   18.6796  -32.4616 H   0  0  0  0  0  0  0  0  0  0  0  0
   -0.8840   20.1030  -33.8623 H   0  0  0  0  0  0  0  0  0  0  0  0
   -1.8921   20.9214  -35.0998 H   0  0  0  0  0  0  0  0  0  0  0  0
   -3.0500   25.2900  -30.3380 H   0  0  0  0  0  0  0  0  0  0  0  0
   -7.9554   24.5674  -31.0551 H   0  0  0  0  0  0  0  0  0  0  0  0
   -9.4478   22.2648  -31.8681 H   0  0  0  0  0  0  0  0  0  0  0  0
   -9.1965   19.8615  -32.5645 H   0  0  0  0  0  0  0  0  0  0  0  0
   -6.3027   17.8849  -32.0556 H   0  0  0  0  0  0  0  0  0  0  0  0
   -7.8620   17.9856  -32.9518 H   0  0  0  0  0  0  0  0  0  0  0  0
   -4.8714   20.1871  -32.1265 H   0  0  0  0  0  0  0  0  0  0  0  0
  1  2  1  0
  2  3  1  0
  3  4  1  0
  4  5  1  0
  5  6  1  0
  6  7  1  0
  7  8  3  0
  8  9  1  0
  9 10  2  0
  9 11  1  0
 11 12  1  0
 12 13  1  0
 13 14  1  0
 13 15  2  0
 12 16  2  0
 16 17  1  0
 17 18  2  0
 18 19  1  0
 19 20  2  0
 20 21  1  0
 21 22  1  0
 22 23  3  0
 20 24  1  0
 24 25  2  0
 25 11  1  0
 25 17  1  0
  1 26  1  0
  1 27  1  0
  1 28  1  0
  2 29  1  0
  3 30  1  0
  3 31  1  0
  4 32  1  0
  4 33  1  0
  6 34  1  0
  6 35  1  0
 14 36  1  0
 16 37  1  0
 18 38  1  0
 19 39  1  0
 21 40  1  0
 21 41  1  0
 24 42  1  0
M  CHG  1  14  -1
M  END
>  <UniqueID>  (59) 
59

>  <SMILES>  (59) 
CNCCOCC#CC(=O)n1c(C([NH-])=O)cc2ccc(CC#N)cc21

>  <Energy>  (59) 
72.1849134945701

>  <Genealogy>  (59) 
CNCCOCC#CC(=O)n1c(C([NH-])=O)cc2ccc(CC#N)cc21 (protonated)
CNCCOCC#CC(=O)n1c(C([NH-])=O)cc2ccc(CC#N)cc21 (3D coordinates assigned)
CNCCOCC#CC(=O)n1c(C([NH-])=O)cc2ccc(CC#N)cc21 (optimized conformer: 72.1849134945701 kcal/mol)

>  <smiles>  (59) 
CNCCOCC#CC(=O)n1c(C(N)=O)cc2ccc(CC#N)cc21

>  <score_type>  (59) 
oracle

>  <origin>  (59) 
adg

>  <m_score__min__energy>  (59) 
-11.33

>  <m_primary>  (59) 
energy

$$$$
60:0
     RDKit          3D

 30 31  0  0  0  0  0  0  0  0999 V2000
   -4.0290   25.6690  -30.8360 N   0  0  0  0  0  0  0  0  0  0  0  0
   -5.2500   25.0740  -30.4030 C   0  0  0  0  0  0  0  0  0  0  0  0
   -5.9830   25.6960  -29.5880 O   0  0  0  0  0  0  0  0  0  0  0  0
   -5.6910   23.7670  -30.9340 C   0  0  0  0  0  0  0  0  0  0  0  0
   -7.0270   23.4430  -31.1640 C   0  0  0  0  0  0  0  0  0  0  0  0
   -7.0070   22.1890  -31.7300 C   0  0  0  0  0  0  0  0  0  0  0  0
   -8.0570   21.3740  -32.1380 C   0  0  0  0  0  0  0  0  0  0  0  0
   -7.7460   20.1050  -32.6540 C   0  0  0  0  0  0  0  0  0  0  0  0
   -6.3970   19.6770  -32.7620 C   0  0  0  0  0  0  0  0  0  0  0  0
   -6.0800   18.2900  -33.2590 C   0  0  0  0  0  0  0  0  0  0  0  0
   -7.0770   17.4230  -32.8530 F   0  0  0  0  0  0  0  0  0  0  0  0
   -4.8680   17.8530  -32.7500 F   0  0  0  0  0  0  0  0  0  0  0  0
   -6.0010   18.2710  -34.6410 F   0  0  0  0  0  0  0  0  0  0  0  0
   -5.3580   20.5260  -32.3130 C   0  0  0  0  0  0  0  0  0  0  0  0
   -5.6980   21.7910  -31.8210 C   0  0  0  0  0  0  0  0  0  0  0  0
   -4.8770   22.7490  -31.3330 N   0  0  0  0  0  0  0  0  0  0  0  0
   -3.4520   22.6580  -31.1970 C   0  0  0  0  0  0  0  0  0  0  0  0
   -2.7790   22.0160  -32.0500 O   0  0  0  0  0  0  0  0  0  0  0  0
   -2.7950   23.3080  -30.1040 N   0  0  0  0  0  0  0  0  0  0  0  0
   -1.3590   23.2310  -29.8660 C   0  0  0  0  0  0  0  0  0  0  0  0
   -0.8840   24.4650  -29.1690 C   0  0  0  0  0  0  0  0  0  0  0  0
    0.1410   24.4280  -28.4390 O   0  0  0  0  0  0  0  0  0  0  0  0
   -1.5960   25.6510  -29.2970 O   0  0  0  0  0  0  0  0  0  0  0  0
   -3.1080   25.3030  -30.5080 H   0  0  0  0  0  0  0  0  0  0  0  0
   -7.9103   24.0593  -30.9404 H   0  0  0  0  0  0  0  0  0  0  0  0
   -9.1005   21.7129  -32.0591 H   0  0  0  0  0  0  0  0  0  0  0  0
   -8.5567   19.4358  -32.9779 H   0  0  0  0  0  0  0  0  0  0  0  0
   -4.3082   20.1994  -32.3498 H   0  0  0  0  0  0  0  0  0  0  0  0
   -1.1411   22.3533  -29.2397 H   0  0  0  0  0  0  0  0  0  0  0  0
   -0.8396   23.1419  -30.8315 H   0  0  0  0  0  0  0  0  0  0  0  0
  1  2  1  0
  2  3  2  0
  2  4  1  0
  4  5  2  0
  5  6  1  0
  6  7  2  0
  7  8  1  0
  8  9  2  0
  9 10  1  0
 10 11  1  0
 10 12  1  0
 10 13  1  0
  9 14  1  0
 14 15  2  0
 15 16  1  0
 16 17  1  0
 17 18  2  0
 17 19  1  0
 19 20  1  0
 20 21  1  0
 21 22  2  0
 21 23  1  0
 16  4  1  0
 15  6  1  0
  1 24  1  0
  5 25  1  0
  7 26  1  0
  8 27  1  0
 14 28  1  0
 20 29  1  0
 20 30  1  0
M  CHG  3   1  -1  19  -1  23  -1
M  END
>  <UniqueID>  (60) 
60

>  <SMILES>  (60) 
[NH-]C(=O)c1cc2ccc(C(F)(F)F)cc2n1C(=O)[N-]CC(=O)[O-]

>  <Energy>  (60) 
67.71950880043667

>  <Genealogy>  (60) 
[NH-]C(=O)c1cc2ccc(C(F)(F)F)cc2n1C(=O)[N-]CC(=O)[O-] (protonated)
[NH-]C(=O)c1cc2ccc(C(F)(F)F)cc2n1C(=O)[N-]CC(=O)[O-] (3D coordinates assigned)
[NH-]C(=O)c1cc2ccc(C(F)(F)F)cc2n1C(=O)[N-]CC(=O)[O-] (optimized conformer: 67.71950880043667 kcal/mol)

>  <smiles>  (60) 
NC(=O)c1cc2ccc(C(F)(F)F)cc2n1C(=O)NCC(=O)O

>  <score_type>  (60) 
oracle

>  <origin>  (60) 
adg

>  <m_score__min__energy>  (60) 
-12.4

>  <m_primary>  (60) 
energy

$$$$
61:0
     RDKit          3D

 30 31  0  0  0  0  0  0  0  0999 V2000
   -3.8730   25.5570  -30.8780 N   0  0  0  0  0  0  0  0  0  0  0  0
   -5.2060   25.3050  -30.4430 C   0  0  0  0  0  0  0  0  0  0  0  0
   -5.8060   26.1720  -29.7550 O   0  0  0  0  0  0  0  0  0  0  0  0
   -5.8570   24.0210  -30.7710 C   0  0  0  0  0  0  0  0  0  0  0  0
   -7.2380   23.8290  -30.7640 C   0  0  0  0  0  0  0  0  0  0  0  0
   -7.4290   22.5380  -31.2010 C   0  0  0  0  0  0  0  0  0  0  0  0
   -8.6030   21.8130  -31.3720 C   0  0  0  0  0  0  0  0  0  0  0  0
   -8.4980   20.4830  -31.8150 C   0  0  0  0  0  0  0  0  0  0  0  0
   -7.2300   19.9070  -32.0910 C   0  0  0  0  0  0  0  0  0  0  0  0
   -7.1280   18.4620  -32.5100 C   0  0  0  0  0  0  0  0  0  0  0  0
   -8.3380   17.8140  -32.3310 F   0  0  0  0  0  0  0  0  0  0  0  0
   -6.7760   18.4000  -33.8450 F   0  0  0  0  0  0  0  0  0  0  0  0
   -6.1690   17.8030  -31.7590 F   0  0  0  0  0  0  0  0  0  0  0  0
   -6.0590   20.6700  -31.8810 C   0  0  0  0  0  0  0  0  0  0  0  0
   -6.1960   21.9950  -31.4510 C   0  0  0  0  0  0  0  0  0  0  0  0
   -5.2220   22.8890  -31.1870 N   0  0  0  0  0  0  0  0  0  0  0  0
   -3.8100   22.6440  -31.2750 C   0  0  0  0  0  0  0  0  0  0  0  0
   -3.0400   23.1330  -30.4040 O   0  0  0  0  0  0  0  0  0  0  0  0
   -3.2340   21.9520  -32.4810 C   0  0  0  0  0  0  0  0  0  0  0  0
   -2.0720   21.0300  -32.1120 C   0  0  0  0  0  0  0  0  0  0  0  0
   -0.7660   21.1750  -33.3130 S   0  0  0  0  0  0  0  0  0  0  0  0
   -3.0560   25.2990  -30.2810 H   0  0  0  0  0  0  0  0  0  0  0  0
   -8.0107   24.5551  -30.4714 H   0  0  0  0  0  0  0  0  0  0  0  0
   -9.5840   22.2663  -31.1669 H   0  0  0  0  0  0  0  0  0  0  0  0
   -9.4091   19.8814  -31.9494 H   0  0  0  0  0  0  0  0  0  0  0  0
   -5.0640   20.2331  -32.0514 H   0  0  0  0  0  0  0  0  0  0  0  0
   -4.0242   21.3538  -32.9583 H   0  0  0  0  0  0  0  0  0  0  0  0
   -2.8511   22.7239  -33.1649 H   0  0  0  0  0  0  0  0  0  0  0  0
   -1.6866   21.3103  -31.1206 H   0  0  0  0  0  0  0  0  0  0  0  0
   -2.4304   19.9902  -32.0956 H   0  0  0  0  0  0  0  0  0  0  0  0
  1  2  1  0
  2  3  2  0
  2  4  1  0
  4  5  2  0
  5  6  1  0
  6  7  2  0
  7  8  1  0
  8  9  2  0
  9 10  1  0
 10 11  1  0
 10 12  1  0
 10 13  1  0
  9 14  1  0
 14 15  2  0
 15 16  1  0
 16 17  1  0
 17 18  2  0
 17 19  1  0
 19 20  1  0
 20 21  1  0
 16  4  1  0
 15  6  1  0
  1 22  1  0
  5 23  1  0
  7 24  1  0
  8 25  1  0
 14 26  1  0
 19 27  1  0
 19 28  1  0
 20 29  1  0
 20 30  1  0
M  CHG  2   1  -1  21  -1
M  END
>  <UniqueID>  (61) 
61

>  <SMILES>  (61) 
[NH-]C(=O)c1cc2ccc(C(F)(F)F)cc2n1C(=O)CC[S-]

>  <Energy>  (61) 
68.09693583298888

>  <Genealogy>  (61) 
[NH-]C(=O)c1cc2ccc(C(F)(F)F)cc2n1C(=O)CC[S-] (protonated)
[NH-]C(=O)c1cc2ccc(C(F)(F)F)cc2n1C(=O)CC[S-] (3D coordinates assigned)
[NH-]C(=O)c1cc2ccc(C(F)(F)F)cc2n1C(=O)CC[S-] (optimized conformer: 68.09693583298888 kcal/mol)

>  <smiles>  (61) 
NC(=O)c1cc2ccc(C(F)(F)F)cc2n1C(=O)CCS

>  <score_type>  (61) 
oracle

>  <origin>  (61) 
adg

>  <m_score__min__energy>  (61) 
-10.74

>  <m_primary>  (61) 
energy

$$$$
62:0
     RDKit          3D

 34 35  0  0  0  0  0  0  0  0999 V2000
   -6.8070   17.3870  -33.1210 C   0  0  0  0  0  0  0  0  0  0  0  0
   -6.9190   18.5350  -32.7700 C   0  0  0  0  0  0  0  0  0  0  0  0
   -7.0510   19.9050  -32.3510 C   0  0  0  0  0  0  0  0  0  0  0  0
   -8.3310   20.5060  -32.2980 C   0  0  0  0  0  0  0  0  0  0  0  0
   -8.4750   21.8390  -31.8780 C   0  0  0  0  0  0  0  0  0  0  0  0
   -7.3240   22.5400  -31.5270 C   0  0  0  0  0  0  0  0  0  0  0  0
   -7.1760   23.8280  -31.0630 C   0  0  0  0  0  0  0  0  0  0  0  0
   -5.8070   23.9930  -30.8600 C   0  0  0  0  0  0  0  0  0  0  0  0
   -5.1890   25.2620  -30.4210 C   0  0  0  0  0  0  0  0  0  0  0  0
   -3.8660   25.5890  -30.8410 N   0  0  0  0  0  0  0  0  0  0  0  0
   -5.8070   26.0500  -29.6580 O   0  0  0  0  0  0  0  0  0  0  0  0
   -5.1370   22.8520  -31.1850 N   0  0  0  0  0  0  0  0  0  0  0  0
   -3.7290   22.5990  -31.0750 C   0  0  0  0  0  0  0  0  0  0  0  0
   -3.1800   21.7710  -31.8510 O   0  0  0  0  0  0  0  0  0  0  0  0
   -2.9500   23.2840  -30.0830 N   0  0  0  0  0  0  0  0  0  0  0  0
   -1.5160   23.0650  -29.9260 C   0  0  0  0  0  0  0  0  0  0  0  0
   -0.9100   24.1740  -29.1280 C   0  0  0  0  0  0  0  0  0  0  0  0
    0.3270   24.1650  -28.8770 O   0  0  0  0  0  0  0  0  0  0  0  0
   -1.7230   25.2100  -28.6610 O   0  0  0  0  0  0  0  0  0  0  0  0
   -2.2180   25.2550  -27.3290 C   0  0  0  0  0  0  0  0  0  0  0  0
   -6.0770   21.9730  -31.5910 C   0  0  0  0  0  0  0  0  0  0  0  0
   -5.9060   20.6410  -31.9880 C   0  0  0  0  0  0  0  0  0  0  0  0
   -6.7048   16.3396  -33.4412 H   0  0  0  0  0  0  0  0  0  0  0  0
   -9.2194   19.9256  -32.5876 H   0  0  0  0  0  0  0  0  0  0  0  0
   -9.4659   22.3141  -31.8280 H   0  0  0  0  0  0  0  0  0  0  0  0
   -7.9698   24.5694  -30.8894 H   0  0  0  0  0  0  0  0  0  0  0  0
   -3.0370   25.2940  -30.2800 H   0  0  0  0  0  0  0  0  0  0  0  0
   -3.4300   23.9460  -29.4310 H   0  0  0  0  0  0  0  0  0  0  0  0
   -1.3488   22.1099  -29.4066 H   0  0  0  0  0  0  0  0  0  0  0  0
   -1.0455   23.0387  -30.9199 H   0  0  0  0  0  0  0  0  0  0  0  0
   -1.3780   25.1786  -26.6229 H   0  0  0  0  0  0  0  0  0  0  0  0
   -2.7482   26.2050  -27.1668 H   0  0  0  0  0  0  0  0  0  0  0  0
   -2.9108   24.4161  -27.1668 H   0  0  0  0  0  0  0  0  0  0  0  0
   -4.9064   20.1826  -32.0156 H   0  0  0  0  0  0  0  0  0  0  0  0
  1  2  3  0
  2  3  1  0
  3  4  2  0
  4  5  1  0
  5  6  2  0
  6  7  1  0
  7  8  2  0
  8  9  1  0
  9 10  1  0
  9 11  2  0
  8 12  1  0
 12 13  1  0
 13 14  2  0
 13 15  1  0
 15 16  1  0
 16 17  1  0
 17 18  2  0
 17 19  1  0
 19 20  1  0
 12 21  1  0
 21 22  2  0
 22  3  1  0
 21  6  1  0
  1 23  1  0
  4 24  1  0
  5 25  1  0
  7 26  1  0
 10 27  1  0
 15 28  1  0
 16 29  1  0
 16 30  1  0
 20 31  1  0
 20 32  1  0
 20 33  1  0
 22 34  1  0
M  CHG  1  10  -1
M  END
>  <UniqueID>  (62) 
62

>  <SMILES>  (62) 
C#Cc1ccc2cc(C([NH-])=O)n(C(=O)NCC(=O)OC)c2c1

>  <Energy>  (62) 
65.8935416648893

>  <Genealogy>  (62) 
C#Cc1ccc2cc(C([NH-])=O)n(C(=O)NCC(=O)OC)c2c1 (protonated)
C#Cc1ccc2cc(C([NH-])=O)n(C(=O)NCC(=O)OC)c2c1 (3D coordinates assigned)
C#Cc1ccc2cc(C([NH-])=O)n(C(=O)NCC(=O)OC)c2c1 (optimized conformer: 65.8935416648893 kcal/mol)

>  <smiles>  (62) 
C#Cc1ccc2cc(C(N)=O)n(C(=O)NCC(=O)OC)c2c1

>  <score_type>  (62) 
oracle

>  <origin>  (62) 
adg

>  <m_score__min__energy>  (62) 
-10.52

>  <m_primary>  (62) 
energy

$$$$
63:0
     RDKit          3D

 48 49  0  0  0  0  0  0  0  0999 V2000
   -1.2080   23.9080  -27.6700 C   0  0  0  0  0  0  0  0  0  0  0  0
   -2.4730   24.2020  -28.4930 C   0  0  0  0  0  0  0  0  0  0  0  0
   -3.6320   24.5400  -27.5360 C   0  0  0  0  0  0  0  0  0  0  0  0
   -2.2080   25.3070  -29.3240 O   0  0  0  0  0  0  0  0  0  0  0  0
   -2.8400   22.9710  -29.3500 C   0  0  0  0  0  0  0  0  0  0  0  0
   -2.9790   23.3490  -30.7170 O   0  0  0  0  0  0  0  0  0  0  0  0
   -3.8910   22.7380  -31.5830 C   0  0  0  0  0  0  0  0  0  0  0  0
   -3.4840   22.1500  -32.6230 O   0  0  0  0  0  0  0  0  0  0  0  0
   -5.2970   22.8030  -31.2970 N   0  0  0  0  0  0  0  0  0  0  0  0
   -5.9990   23.8710  -30.8240 C   0  0  0  0  0  0  0  0  0  0  0  0
   -5.4220   25.1390  -30.3300 C   0  0  0  0  0  0  0  0  0  0  0  0
   -4.2330   25.6750  -30.9030 N   0  0  0  0  0  0  0  0  0  0  0  0
   -5.9570   25.7290  -29.3540 O   0  0  0  0  0  0  0  0  0  0  0  0
   -7.3610   23.5840  -30.7890 C   0  0  0  0  0  0  0  0  0  0  0  0
   -7.4740   22.2930  -31.2510 C   0  0  0  0  0  0  0  0  0  0  0  0
   -8.6070   21.5090  -31.4450 C   0  0  0  0  0  0  0  0  0  0  0  0
   -8.4330   20.2200  -31.9760 C   0  0  0  0  0  0  0  0  0  0  0  0
   -7.1380   19.7410  -32.2990 C   0  0  0  0  0  0  0  0  0  0  0  0
   -6.9700   18.3800  -32.9130 C   0  0  0  0  0  0  0  0  0  0  0  0
   -5.9770   18.4420  -34.0280 C   0  0  0  0  0  0  0  0  0  0  0  0
   -6.1310   19.2800  -34.9580 O   0  0  0  0  0  0  0  0  0  0  0  0
   -4.9160   17.5290  -34.0520 O   0  0  0  0  0  0  0  0  0  0  0  0
   -3.8190   17.5770  -33.1420 C   0  0  0  0  0  0  0  0  0  0  0  0
   -2.6870   18.4450  -33.6960 C   0  0  0  0  0  0  0  0  0  0  0  0
   -3.1870   19.6730  -34.1520 O   0  0  0  0  0  0  0  0  0  0  0  0
   -6.0120   20.5700  -32.0980 C   0  0  0  0  0  0  0  0  0  0  0  0
   -6.2140   21.8430  -31.5520 C   0  0  0  0  0  0  0  0  0  0  0  0
   -1.4470   23.9636  -26.5977 H   0  0  0  0  0  0  0  0  0  0  0  0
   -0.8393   22.9002  -27.9117 H   0  0  0  0  0  0  0  0  0  0  0  0
   -0.4326   24.6499  -27.9117 H   0  0  0  0  0  0  0  0  0  0  0  0
   -3.2894   24.4401  -26.4955 H   0  0  0  0  0  0  0  0  0  0  0  0
   -3.9656   25.5729  -27.7146 H   0  0  0  0  0  0  0  0  0  0  0  0
   -4.4685   23.8484  -27.7146 H   0  0  0  0  0  0  0  0  0  0  0  0
   -3.0700   25.6140  -29.7100 H   0  0  0  0  0  0  0  0  0  0  0  0
   -2.0454   22.2156  -29.2605 H   0  0  0  0  0  0  0  0  0  0  0  0
   -3.7938   22.5555  -28.9929 H   0  0  0  0  0  0  0  0  0  0  0  0
   -3.3280   25.1570  -30.8480 H   0  0  0  0  0  0  0  0  0  0  0  0
   -8.1741   24.2485  -30.4615 H   0  0  0  0  0  0  0  0  0  0  0  0
   -9.6082   21.8868  -31.1904 H   0  0  0  0  0  0  0  0  0  0  0  0
   -9.3094   19.5764  -32.1427 H   0  0  0  0  0  0  0  0  0  0  0  0
   -6.6138   17.6759  -32.1466 H   0  0  0  0  0  0  0  0  0  0  0  0
   -7.9382   18.0406  -33.3098 H   0  0  0  0  0  0  0  0  0  0  0  0
   -4.1622   17.9998  -32.1863 H   0  0  0  0  0  0  0  0  0  0  0  0
   -3.4388   16.5552  -32.9959 H   0  0  0  0  0  0  0  0  0  0  0  0
   -1.9488   18.6276  -32.9012 H   0  0  0  0  0  0  0  0  0  0  0  0
   -2.2151   17.9184  -34.5386 H   0  0  0  0  0  0  0  0  0  0  0  0
   -4.1040   19.4990  -34.4890 H   0  0  0  0  0  0  0  0  0  0  0  0
   -5.0022   20.2240  -32.3638 H   0  0  0  0  0  0  0  0  0  0  0  0
  1  2  1  0
  2  3  1  0
  2  4  1  0
  2  5  1  0
  5  6  1  0
  6  7  1  0
  7  8  2  0
  7  9  1  0
  9 10  1  0
 10 11  1  0
 11 12  1  0
 11 13  2  0
 10 14  2  0
 14 15  1  0
 15 16  2  0
 16 17  1  0
 17 18  2  0
 18 19  1  0
 19 20  1  0
 20 21  2  0
 20 22  1  0
 22 23  1  0
 23 24  1  0
 24 25  1  0
 18 26  1  0
 26 27  2  0
 27  9  1  0
 27 15  1  0
  1 28  1  0
  1 29  1  0
  1 30  1  0
  3 31  1  0
  3 32  1  0
  3 33  1  0
  4 34  1  0
  5 35  1  0
  5 36  1  0
 12 37  1  0
 14 38  1  0
 16 39  1  0
 17 40  1  0
 19 41  1  0
 19 42  1  0
 23 43  1  0
 23 44  1  0
 24 45  1  0
 24 46  1  0
 25 47  1  0
 26 48  1  0
M  CHG  1  12  -1
M  END
>  <UniqueID>  (63) 
63

>  <SMILES>  (63) 
CC(C)(O)COC(=O)n1c(C([NH-])=O)cc2ccc(CC(=O)OCCO)cc21

>  <Energy>  (63) 
74.49758975834692

>  <Genealogy>  (63) 
CC(C)(O)COC(=O)n1c(C([NH-])=O)cc2ccc(CC(=O)OCCO)cc21 (protonated)
CC(C)(O)COC(=O)n1c(C([NH-])=O)cc2ccc(CC(=O)OCCO)cc21 (3D coordinates assigned)
CC(C)(O)COC(=O)n1c(C([NH-])=O)cc2ccc(CC(=O)OCCO)cc21 (optimized conformer: 74.49758975834692 kcal/mol)

>  <smiles>  (63) 
CC(C)(O)COC(=O)n1c(C(N)=O)cc2ccc(CC(=O)OCCO)cc21

>  <score_type>  (63) 
oracle

>  <origin>  (63) 
adg

>  <m_score__min__energy>  (63) 
-10.49

>  <m_primary>  (63) 
energy

$$$$
64:0
     RDKit          3D

 33 34  0  0  0  0  0  0  0  0999 V2000
   -1.5730   25.6760  -28.9590 N   0  0  0  0  0  0  0  0  0  0  0  0
   -0.9040   24.4230  -29.0710 C   0  0  0  0  0  0  0  0  0  0  0  0
    0.2540   24.2970  -28.5920 O   0  0  0  0  0  0  0  0  0  0  0  0
   -1.5370   23.2840  -29.7680 C   0  0  0  0  0  0  0  0  0  0  0  0
   -0.8420   22.3850  -30.5770 C   0  0  0  0  0  0  0  0  0  0  0  0
   -1.7970   21.5210  -31.0670 C   0  0  0  0  0  0  0  0  0  0  0  0
   -1.6650   20.4150  -31.9020 C   0  0  0  0  0  0  0  0  0  0  0  0
   -2.8250   19.6840  -32.2120 C   0  0  0  0  0  0  0  0  0  0  0  0
   -4.0850   20.0710  -31.6920 C   0  0  0  0  0  0  0  0  0  0  0  0
   -5.3120   19.2510  -31.9930 C   0  0  0  0  0  0  0  0  0  0  0  0
   -6.2870   20.0180  -32.8840 C   0  0  0  0  0  0  0  0  0  0  0  0
   -6.8510   19.1580  -33.8350 O   0  0  0  0  0  0  0  0  0  0  0  0
   -4.1780   21.1960  -30.8420 C   0  0  0  0  0  0  0  0  0  0  0  0
   -3.0080   21.9070  -30.5580 C   0  0  0  0  0  0  0  0  0  0  0  0
   -2.8650   22.9830  -29.7590 N   0  0  0  0  0  0  0  0  0  0  0  0
   -3.9060   23.5990  -28.9900 C   0  0  0  0  0  0  0  0  0  0  0  0
   -3.6830   23.9450  -27.7990 O   0  0  0  0  0  0  0  0  0  0  0  0
   -5.2140   23.9460  -29.6330 C   0  0  0  0  0  0  0  0  0  0  0  0
   -4.9750   24.8280  -30.8140 C   0  0  0  0  0  0  0  0  0  0  0  0
   -5.7500   24.7830  -31.8050 O   0  0  0  0  0  0  0  0  0  0  0  0
   -3.8650   25.6640  -30.8450 O   0  0  0  0  0  0  0  0  0  0  0  0
   -2.6100   25.7420  -29.0560 H   0  0  0  0  0  0  0  0  0  0  0  0
    0.2389   22.3692  -30.7806 H   0  0  0  0  0  0  0  0  0  0  0  0
   -0.6846   20.1225  -32.3062 H   0  0  0  0  0  0  0  0  0  0  0  0
   -2.7538   18.8019  -32.8654 H   0  0  0  0  0  0  0  0  0  0  0  0
   -5.0083   18.3269  -32.5066 H   0  0  0  0  0  0  0  0  0  0  0  0
   -5.8171   19.0204  -31.0434 H   0  0  0  0  0  0  0  0  0  0  0  0
   -7.0867   20.4473  -32.2625 H   0  0  0  0  0  0  0  0  0  0  0  0
   -5.7435   20.8211  -33.4033 H   0  0  0  0  0  0  0  0  0  0  0  0
   -7.2460   19.7420  -34.5350 H   0  0  0  0  0  0  0  0  0  0  0  0
   -5.1441   21.5039  -30.4155 H   0  0  0  0  0  0  0  0  0  0  0  0
   -5.7165   23.0240  -29.9608 H   0  0  0  0  0  0  0  0  0  0  0  0
   -5.8489   24.4739  -28.9062 H   0  0  0  0  0  0  0  0  0  0  0  0
  1  2  1  0
  2  3  2  0
  2  4  1  0
  4  5  2  0
  5  6  1  0
  6  7  2  0
  7  8  1  0
  8  9  2  0
  9 10  1  0
 10 11  1  0
 11 12  1  0
  9 13  1  0
 13 14  2  0
 14 15  1  0
 15 16  1  0
 16 17  2  0
 16 18  1  0
 18 19  1  0
 19 20  2  0
 19 21  1  0
 15  4  1  0
 14  6  1  0
  1 22  1  0
  5 23  1  0
  7 24  1  0
  8 25  1  0
 10 26  1  0
 10 27  1  0
 11 28  1  0
 11 29  1  0
 12 30  1  0
 13 31  1  0
 18 32  1  0
 18 33  1  0
M  CHG  2   1  -1  21  -1
M  END
>  <UniqueID>  (64) 
64

>  <SMILES>  (64) 
[NH-]C(=O)c1cc2ccc(CCO)cc2n1C(=O)CC(=O)[O-]

>  <Energy>  (64) 
67.71261931655326

>  <Genealogy>  (64) 
[NH-]C(=O)c1cc2ccc(CCO)cc2n1C(=O)CC(=O)[O-] (protonated)
[NH-]C(=O)c1cc2ccc(CCO)cc2n1C(=O)CC(=O)[O-] (3D coordinates assigned)
[NH-]C(=O)c1cc2ccc(CCO)cc2n1C(=O)CC(=O)[O-] (optimized conformer: 67.71261931655326 kcal/mol)

>  <smiles>  (64) 
NC(=O)c1cc2ccc(CCO)cc2n1C(=O)CC(=O)O

>  <score_type>  (64) 
oracle

>  <origin>  (64) 
adg

>  <m_score__min__energy>  (64) 
-11.390000000000001

>  <m_primary>  (64) 
energy

$$$$
65:0
     RDKit          3D

 30 32  0  0  0  0  0  0  0  0999 V2000
   -3.5710   22.3510  -28.7910 C   0  0  0  0  0  0  0  0  0  0  0  0
   -2.9680   22.5250  -29.9650 C   0  0  0  0  0  0  0  0  0  0  0  0
   -3.7040   22.5130  -31.2440 C   0  0  0  0  0  0  0  0  0  0  0  0
   -3.0890   22.3370  -32.3320 O   0  0  0  0  0  0  0  0  0  0  0  0
   -5.1260   22.7070  -31.2580 N   0  0  0  0  0  0  0  0  0  0  0  0
   -5.8160   23.8240  -30.8930 C   0  0  0  0  0  0  0  0  0  0  0  0
   -5.2310   25.0460  -30.3010 C   0  0  0  0  0  0  0  0  0  0  0  0
   -3.8450   25.3310  -30.4830 N   0  0  0  0  0  0  0  0  0  0  0  0
   -5.9460   25.8540  -29.6530 O   0  0  0  0  0  0  0  0  0  0  0  0
   -7.1820   23.6420  -31.0990 C   0  0  0  0  0  0  0  0  0  0  0  0
   -7.3080   22.3700  -31.6080 C   0  0  0  0  0  0  0  0  0  0  0  0
   -8.4430   21.6740  -32.0100 C   0  0  0  0  0  0  0  0  0  0  0  0
   -8.2750   20.3790  -32.5290 C   0  0  0  0  0  0  0  0  0  0  0  0
   -6.9810   19.8050  -32.6450 C   0  0  0  0  0  0  0  0  0  0  0  0
   -6.7930   18.4430  -33.2020 C   0  0  0  0  0  0  0  0  0  0  0  0
   -6.1190   18.1750  -34.3380 N   0  0  0  0  0  0  0  0  0  0  0  0
   -6.1840   16.8590  -34.4770 N   0  0  0  0  0  0  0  0  0  0  0  0
   -6.8700   16.3320  -33.4740 N   0  0  0  0  0  0  0  0  0  0  0  0
   -7.2600   17.3000  -32.6650 N   0  0  0  0  0  0  0  0  0  0  0  0
   -5.8520   20.5480  -32.2260 C   0  0  0  0  0  0  0  0  0  0  0  0
   -6.0540   21.8270  -31.6950 C   0  0  0  0  0  0  0  0  0  0  0  0
   -2.9818   22.3676  -27.8623 H   0  0  0  0  0  0  0  0  0  0  0  0
   -4.6585   22.1906  -28.7497 H   0  0  0  0  0  0  0  0  0  0  0  0
   -1.8797   22.6838  -29.9824 H   0  0  0  0  0  0  0  0  0  0  0  0
   -3.5270   25.9970  -31.2200 H   0  0  0  0  0  0  0  0  0  0  0  0
   -7.9885   24.3624  -30.8975 H   0  0  0  0  0  0  0  0  0  0  0  0
   -9.4430   22.1241  -31.9242 H   0  0  0  0  0  0  0  0  0  0  0  0
   -9.1558   19.8031  -32.8491 H   0  0  0  0  0  0  0  0  0  0  0  0
   -7.8170   17.1600  -31.7950 H   0  0  0  0  0  0  0  0  0  0  0  0
   -4.8386   20.1298  -32.3156 H   0  0  0  0  0  0  0  0  0  0  0  0
  1  2  2  0
  2  3  1  0
  3  4  2  0
  3  5  1  0
  5  6  1  0
  6  7  1  0
  7  8  1  0
  7  9  2  0
  6 10  2  0
 10 11  1  0
 11 12  2  0
 12 13  1  0
 13 14  2  0
 14 15  1  0
 15 16  2  0
 16 17  1  0
 17 18  1  0
 18 19  2  0
 14 20  1  0
 20 21  2  0
 21  5  1  0
 21 11  1  0
 19 15  1  0
  1 22  1  0
  1 23  1  0
  2 24  1  0
  8 25  1  0
 10 26  1  0
 12 27  1  0
 13 28  1  0
 19 29  1  0
 20 30  1  0
M  CHG  3   8  -1  17  -1  19   1
M  END
>  <UniqueID>  (65) 
65

>  <SMILES>  (65) 
C=CC(=O)n1c(C([NH-])=O)cc2ccc(-c3n[n-]n[nH+]3)cc21

>  <Energy>  (65) 
111.22187163013403

>  <Genealogy>  (65) 
C=CC(=O)n1c(C([NH-])=O)cc2ccc(-c3n[n-]n[nH+]3)cc21 (protonated)
C=CC(=O)n1c(C([NH-])=O)cc2ccc(-c3n[n-]n[nH+]3)cc21 (3D coordinates assigned)
C=CC(=O)n1c(C([NH-])=O)cc2ccc(-c3n[n-]n[nH+]3)cc21 (optimized conformer: 111.22187163013403 kcal/mol)

>  <smiles>  (65) 
C=CC(=O)n1c(C(N)=O)cc2ccc(-c3nn[nH]n3)cc21

>  <score_type>  (65) 
oracle

>  <origin>  (65) 
adg

>  <m_score__min__energy>  (65) 
-10.94

>  <m_primary>  (65) 
energy

$$$$
66:0
     RDKit          3D

 36 37  0  0  0  0  0  0  0  0999 V2000
   -0.9970   24.9580  -28.9450 C   0  0  0  0  0  0  0  0  0  0  0  0
   -2.3460   24.9090  -29.3490 O   0  0  0  0  0  0  0  0  0  0  0  0
   -3.0350   23.9590  -28.5650 C   0  0  0  0  0  0  0  0  0  0  0  0
   -2.5980   22.5560  -28.9800 C   0  0  0  0  0  0  0  0  0  0  0  0
   -3.5810   21.9500  -29.8160 O   0  0  0  0  0  0  0  0  0  0  0  0
   -4.0730   22.5430  -30.9840 C   0  0  0  0  0  0  0  0  0  0  0  0
   -3.2850   22.8700  -31.9140 O   0  0  0  0  0  0  0  0  0  0  0  0
   -5.4850   22.7630  -31.1320 N   0  0  0  0  0  0  0  0  0  0  0  0
   -6.1700   23.9300  -30.9590 C   0  0  0  0  0  0  0  0  0  0  0  0
   -5.5980   25.1920  -30.4380 C   0  0  0  0  0  0  0  0  0  0  0  0
   -4.2400   25.5460  -30.7120 N   0  0  0  0  0  0  0  0  0  0  0  0
   -6.3150   25.9840  -29.7720 O   0  0  0  0  0  0  0  0  0  0  0  0
   -7.5200   23.7520  -31.2540 C   0  0  0  0  0  0  0  0  0  0  0  0
   -7.6440   22.4280  -31.6120 C   0  0  0  0  0  0  0  0  0  0  0  0
   -8.7680   21.7130  -32.0160 C   0  0  0  0  0  0  0  0  0  0  0  0
   -8.5990   20.3600  -32.3550 C   0  0  0  0  0  0  0  0  0  0  0  0
   -7.3220   19.7520  -32.2810 C   0  0  0  0  0  0  0  0  0  0  0  0
   -7.1470   18.3210  -32.6960 C   0  0  0  0  0  0  0  0  0  0  0  0
   -6.4700   18.2690  -33.9000 F   0  0  0  0  0  0  0  0  0  0  0  0
   -6.2020   20.5120  -31.8800 C   0  0  0  0  0  0  0  0  0  0  0  0
   -6.4020   21.8530  -31.5300 C   0  0  0  0  0  0  0  0  0  0  0  0
   -0.9431   24.9600  -27.8463 H   0  0  0  0  0  0  0  0  0  0  0  0
   -0.4648   24.0786  -29.3366 H   0  0  0  0  0  0  0  0  0  0  0  0
   -0.5300   25.8737  -29.3366 H   0  0  0  0  0  0  0  0  0  0  0  0
   -2.8000   24.1186  -27.5023 H   0  0  0  0  0  0  0  0  0  0  0  0
   -4.1188   24.0694  -28.7173 H   0  0  0  0  0  0  0  0  0  0  0  0
   -1.6472   22.6214  -29.5292 H   0  0  0  0  0  0  0  0  0  0  0  0
   -2.4744   21.9416  -28.0760 H   0  0  0  0  0  0  0  0  0  0  0  0
   -3.8590   26.4570  -30.3740 H   0  0  0  0  0  0  0  0  0  0  0  0
   -3.5990   24.8920  -31.2130 H   0  0  0  0  0  0  0  0  0  0  0  0
   -8.3175   24.5084  -31.2102 H   0  0  0  0  0  0  0  0  0  0  0  0
   -9.7569   22.1920  -32.0682 H   0  0  0  0  0  0  0  0  0  0  0  0
   -9.4666   19.7674  -32.6809 H   0  0  0  0  0  0  0  0  0  0  0  0
   -6.5705   17.7845  -31.9279 H   0  0  0  0  0  0  0  0  0  0  0  0
   -8.1342   17.8494  -32.8102 H   0  0  0  0  0  0  0  0  0  0  0  0
   -5.1986   20.0626  -31.8434 H   0  0  0  0  0  0  0  0  0  0  0  0
  1  2  1  0
  2  3  1  0
  3  4  1  0
  4  5  1  0
  5  6  1  0
  6  7  2  0
  6  8  1  0
  8  9  1  0
  9 10  1  0
 10 11  1  0
 10 12  2  0
  9 13  2  0
 13 14  1  0
 14 15  2  0
 15 16  1  0
 16 17  2  0
 17 18  1  0
 18 19  1  0
 17 20  1  0
 20 21  2  0
 21  8  1  0
 21 14  1  0
  1 22  1  0
  1 23  1  0
  1 24  1  0
  3 25  1  0
  3 26  1  0
  4 27  1  0
  4 28  1  0
 11 29  1  0
 11 30  1  0
 13 31  1  0
 15 32  1  0
 16 33  1  0
 18 34  1  0
 18 35  1  0
 20 36  1  0
M  END
>  <UniqueID>  (66) 
66

>  <SMILES>  (66) 
COCCOC(=O)n1c(C(N)=O)cc2ccc(CF)cc21

>  <Energy>  (66) 
70.94579113210008

>  <Genealogy>  (66) 
COCCOC(=O)n1c(C(N)=O)cc2ccc(CF)cc21 (3D coordinates assigned)
COCCOC(=O)n1c(C(N)=O)cc2ccc(CF)cc21 (optimized conformer: 70.94579113210008 kcal/mol)

>  <smiles>  (66) 
COCCOC(=O)n1c(C(N)=O)cc2ccc(CF)cc21

>  <score_type>  (66) 
oracle

>  <origin>  (66) 
adg

>  <m_score__min__energy>  (66) 
-8.1600000000000001

>  <m_primary>  (66) 
energy

$$$$
67:0
     RDKit          3D

 37 38  0  0  0  0  0  0  0  0999 V2000
   -9.0470   19.2240  -31.5650 C   0  0  0  0  0  0  0  0  0  0  0  0
   -9.4350   20.4430  -32.3960 C   0  0  0  0  0  0  0  0  0  0  0  0
   -9.4250   21.7200  -31.5480 C   0  0  0  0  0  0  0  0  0  0  0  0
   -8.2580   21.7080  -30.5530 C   0  0  0  0  0  0  0  0  0  0  0  0
   -7.2560   22.7870  -30.8630 C   0  0  0  0  0  0  0  0  0  0  0  0
   -7.6160   23.9940  -30.8270 O   0  0  0  0  0  0  0  0  0  0  0  0
   -5.9000   22.4620  -31.2160 N   0  0  0  0  0  0  0  0  0  0  0  0
   -4.7920   23.2310  -31.0150 C   0  0  0  0  0  0  0  0  0  0  0  0
   -4.7470   24.5100  -30.2780 C   0  0  0  0  0  0  0  0  0  0  0  0
   -5.7370   24.8410  -29.3040 N   0  0  0  0  0  0  0  0  0  0  0  0
   -3.7910   25.3050  -30.4790 O   0  0  0  0  0  0  0  0  0  0  0  0
   -3.6760   22.6530  -31.6140 C   0  0  0  0  0  0  0  0  0  0  0  0
   -4.1350   21.4940  -32.1950 C   0  0  0  0  0  0  0  0  0  0  0  0
   -3.4540   20.5490  -32.9580 C   0  0  0  0  0  0  0  0  0  0  0  0
   -4.1910   19.4810  -33.4950 C   0  0  0  0  0  0  0  0  0  0  0  0
   -5.5880   19.3860  -33.2750 C   0  0  0  0  0  0  0  0  0  0  0  0
   -6.3790   18.2620  -33.8810 C   0  0  0  0  0  0  0  0  0  0  0  0
   -6.5390   17.2520  -32.9500 F   0  0  0  0  0  0  0  0  0  0  0  0
   -5.7130   17.7640  -34.9860 F   0  0  0  0  0  0  0  0  0  0  0  0
   -6.2460   20.3700  -32.5040 C   0  0  0  0  0  0  0  0  0  0  0  0
   -5.4810   21.4050  -31.9510 C   0  0  0  0  0  0  0  0  0  0  0  0
   -9.1251   19.4693  -30.4956 H   0  0  0  0  0  0  0  0  0  0  0  0
   -9.7239   18.3894  -31.8001 H   0  0  0  0  0  0  0  0  0  0  0  0
   -8.0122   18.9342  -31.8001 H   0  0  0  0  0  0  0  0  0  0  0  0
   -8.7184   20.5561  -33.2228 H   0  0  0  0  0  0  0  0  0  0  0  0
  -10.4535   20.2904  -32.7825 H   0  0  0  0  0  0  0  0  0  0  0  0
   -9.3237   22.5917  -32.2112 H   0  0  0  0  0  0  0  0  0  0  0  0
  -10.3674   21.7738  -30.9832 H   0  0  0  0  0  0  0  0  0  0  0  0
   -8.6520   21.8673  -29.5384 H   0  0  0  0  0  0  0  0  0  0  0  0
   -7.7508   20.7348  -30.6286 H   0  0  0  0  0  0  0  0  0  0  0  0
   -5.7190   25.7740  -28.8360 H   0  0  0  0  0  0  0  0  0  0  0  0
   -6.4220   24.1300  -28.9700 H   0  0  0  0  0  0  0  0  0  0  0  0
   -2.6466   23.0407  -31.6211 H   0  0  0  0  0  0  0  0  0  0  0  0
   -2.3718   20.6364  -33.1347 H   0  0  0  0  0  0  0  0  0  0  0  0
   -3.6796   18.7113  -34.0917 H   0  0  0  0  0  0  0  0  0  0  0  0
   -7.3653   18.6401  -34.1878 H   0  0  0  0  0  0  0  0  0  0  0  0
   -7.3330   20.3245  -32.3418 H   0  0  0  0  0  0  0  0  0  0  0  0
  1  2  1  0
  2  3  1  0
  3  4  1  0
  4  5  1  0
  5  6  2  0
  5  7  1  0
  7  8  1  0
  8  9  1  0
  9 10  1  0
  9 11  2  0
  8 12  2  0
 12 13  1  0
 13 14  2  0
 14 15  1  0
 15 16  2  0
 16 17  1  0
 17 18  1  0
 17 19  1  0
 16 20  1  0
 20 21  2  0
 21  7  1  0
 21 13  1  0
  1 22  1  0
  1 23  1  0
  1 24  1  0
  2 25  1  0
  2 26  1  0
  3 27  1  0
  3 28  1  0
  4 29  1  0
  4 30  1  0
 10 31  1  0
 10 32  1  0
 12 33  1  0
 14 34  1  0
 15 35  1  0
 17 36  1  0
 20 37  1  0
M  END
>  <UniqueID>  (67) 
67

>  <SMILES>  (67) 
CCCCC(=O)n1c(C(N)=O)cc2ccc(C(F)F)cc21

>  <Energy>  (67) 
69.31828973146685

>  <Genealogy>  (67) 
CCCCC(=O)n1c(C(N)=O)cc2ccc(C(F)F)cc21 (3D coordinates assigned)
CCCCC(=O)n1c(C(N)=O)cc2ccc(C(F)F)cc21 (optimized conformer: 69.31828973146685 kcal/mol)

>  <smiles>  (67) 
CCCCC(=O)n1c(C(N)=O)cc2ccc(C(F)F)cc21

>  <score_type>  (67) 
oracle

>  <origin>  (67) 
adg

>  <m_score__min__energy>  (67) 
-8.0800000000000001

>  <m_primary>  (67) 
energy

$$$$
68:0
     RDKit          3D

 28 29  0  0  0  0  0  0  0  0999 V2000
   -3.6470   25.2980  -30.4860 N   0  0  0  0  0  0  0  0  0  0  0  0
   -5.0690   25.3350  -30.5650 C   0  0  0  0  0  0  0  0  0  0  0  0
   -5.6690   26.4240  -30.3720 O   0  0  0  0  0  0  0  0  0  0  0  0
   -5.8200   24.1050  -30.8950 C   0  0  0  0  0  0  0  0  0  0  0  0
   -7.2110   24.0370  -30.9530 C   0  0  0  0  0  0  0  0  0  0  0  0
   -7.5020   22.7200  -31.2320 C   0  0  0  0  0  0  0  0  0  0  0  0
   -8.7290   22.0910  -31.4050 C   0  0  0  0  0  0  0  0  0  0  0  0
   -8.7310   20.7190  -31.7080 C   0  0  0  0  0  0  0  0  0  0  0  0
   -7.5110   20.0090  -31.8600 C   0  0  0  0  0  0  0  0  0  0  0  0
   -7.5260   18.5290  -32.1490 C   0  0  0  0  0  0  0  0  0  0  0  0
   -8.7980   18.0100  -31.9770 F   0  0  0  0  0  0  0  0  0  0  0  0
   -6.6670   17.8570  -31.2970 F   0  0  0  0  0  0  0  0  0  0  0  0
   -7.1250   18.3160  -33.4540 F   0  0  0  0  0  0  0  0  0  0  0  0
   -6.2830   20.6810  -31.6540 C   0  0  0  0  0  0  0  0  0  0  0  0
   -6.3160   22.0430  -31.3350 C   0  0  0  0  0  0  0  0  0  0  0  0
   -5.2750   22.8780  -31.1270 N   0  0  0  0  0  0  0  0  0  0  0  0
   -3.8810   22.5390  -31.1940 C   0  0  0  0  0  0  0  0  0  0  0  0
   -3.2980   22.5060  -32.3120 O   0  0  0  0  0  0  0  0  0  0  0  0
   -3.1050   22.2310  -29.9490 C   0  0  0  0  0  0  0  0  0  0  0  0
   -2.0450   23.1370  -29.8040 O   0  0  0  0  0  0  0  0  0  0  0  0
   -3.0970   24.5980  -31.0310 H   0  0  0  0  0  0  0  0  0  0  0  0
   -7.9252   24.8608  -30.8069 H   0  0  0  0  0  0  0  0  0  0  0  0
   -9.6709   22.6507  -31.3076 H   0  0  0  0  0  0  0  0  0  0  0  0
   -9.6876   20.1896  -31.8287 H   0  0  0  0  0  0  0  0  0  0  0  0
   -5.3260   20.1459  -31.7424 H   0  0  0  0  0  0  0  0  0  0  0  0
   -3.7711   22.3081  -29.0770 H   0  0  0  0  0  0  0  0  0  0  0  0
   -2.6989   21.2113  -30.0216 H   0  0  0  0  0  0  0  0  0  0  0  0
   -2.1140   23.7760  -30.5610 H   0  0  0  0  0  0  0  0  0  0  0  0
  1  2  1  0
  2  3  2  0
  2  4  1  0
  4  5  2  0
  5  6  1  0
  6  7  2  0
  7  8  1  0
  8  9  2  0
  9 10  1  0
 10 11  1  0
 10 12  1  0
 10 13  1  0
  9 14  1  0
 14 15  2  0
 15 16  1  0
 16 17  1  0
 17 18  2  0
 17 19  1  0
 19 20  1  0
 16  4  1  0
 15  6  1  0
  1 21  1  0
  5 22  1  0
  7 23  1  0
  8 24  1  0
 14 25  1  0
 19 26  1  0
 19 27  1  0
 20 28  1  0
M  CHG  1   1  -1
M  END
>  <UniqueID>  (68) 
68

>  <SMILES>  (68) 
[NH-]C(=O)c1cc2ccc(C(F)(F)F)cc2n1C(=O)CO

>  <Energy>  (68) 
67.51637030427091

>  <Genealogy>  (68) 
[NH-]C(=O)c1cc2ccc(C(F)(F)F)cc2n1C(=O)CO (protonated)
[NH-]C(=O)c1cc2ccc(C(F)(F)F)cc2n1C(=O)CO (3D coordinates assigned)
[NH-]C(=O)c1cc2ccc(C(F)(F)F)cc2n1C(=O)CO (optimized conformer: 67.51637030427091 kcal/mol)

>  <smiles>  (68) 
NC(=O)c1cc2ccc(C(F)(F)F)cc2n1C(=O)CO

>  <score_type>  (68) 
oracle

>  <origin>  (68) 
adg

>  <m_score__min__energy>  (68) 
-8.4600000000000009

>  <m_primary>  (68) 
energy

$$$$
69:0
     RDKit          3D

 34 35  0  0  0  0  0  0  0  0999 V2000
   -2.5920   22.0400  -29.0620 C   0  0  0  0  0  0  0  0  0  0  0  0
   -1.9010   23.0030  -30.0290 C   0  0  1  0  0  0  0  0  0  0  0  0
   -2.7150   23.2180  -31.1830 O   0  0  0  0  0  0  0  0  0  0  0  0
   -3.5200   22.2290  -31.7600 C   0  0  0  0  0  0  0  0  0  0  0  0
   -3.0040   21.3200  -32.4670 O   0  0  0  0  0  0  0  0  0  0  0  0
   -4.9400   22.2520  -31.5470 N   0  0  0  0  0  0  0  0  0  0  0  0
   -5.6890   23.2720  -31.0420 C   0  0  0  0  0  0  0  0  0  0  0  0
   -5.1650   24.5220  -30.4550 C   0  0  0  0  0  0  0  0  0  0  0  0
   -5.2120   24.7530  -29.0460 N   0  0  0  0  0  0  0  0  0  0  0  0
   -4.7200   25.4230  -31.2150 O   0  0  0  0  0  0  0  0  0  0  0  0
   -7.0450   22.9650  -31.1050 C   0  0  0  0  0  0  0  0  0  0  0  0
   -7.1070   21.7060  -31.6570 C   0  0  0  0  0  0  0  0  0  0  0  0
   -8.2120   20.9230  -31.9730 C   0  0  0  0  0  0  0  0  0  0  0  0
   -7.9850   19.6770  -32.5820 C   0  0  0  0  0  0  0  0  0  0  0  0
   -6.6660   19.2330  -32.8570 C   0  0  0  0  0  0  0  0  0  0  0  0
   -6.4380   17.9250  -33.5690 C   0  0  0  0  0  0  0  0  0  0  0  0
   -7.5590   17.1180  -33.4790 F   0  0  0  0  0  0  0  0  0  0  0  0
   -5.3700   17.2440  -33.0120 F   0  0  0  0  0  0  0  0  0  0  0  0
   -6.1690   18.1740  -34.9020 F   0  0  0  0  0  0  0  0  0  0  0  0
   -5.5700   20.0710  -32.5450 C   0  0  0  0  0  0  0  0  0  0  0  0
   -5.8240   21.2970  -31.9170 C   0  0  0  0  0  0  0  0  0  0  0  0
   -1.6560   24.3170  -29.3520 C   0  0  0  0  0  0  0  0  0  0  0  0
   -0.5370   24.5660  -28.8300 O   0  0  0  0  0  0  0  0  0  0  0  0
   -2.6500   25.2870  -29.3400 O   0  0  0  0  0  0  0  0  0  0  0  0
   -2.3754   22.3418  -28.0266 H   0  0  0  0  0  0  0  0  0  0  0  0
   -3.6785   22.0664  -29.2320 H   0  0  0  0  0  0  0  0  0  0  0  0
   -2.2190   21.0192  -29.2320 H   0  0  0  0  0  0  0  0  0  0  0  0
   -0.9431   22.5587  -30.3373 H   0  0  0  0  0  0  0  0  0  0  0  0
   -4.8010   25.6260  -28.6460 H   0  0  0  0  0  0  0  0  0  0  0  0
   -5.7270   24.1070  -28.4100 H   0  0  0  0  0  0  0  0  0  0  0  0
   -7.8874   23.5945  -30.7824 H   0  0  0  0  0  0  0  0  0  0  0  0
   -9.2329   21.2685  -31.7529 H   0  0  0  0  0  0  0  0  0  0  0  0
   -8.8401   19.0385  -32.8486 H   0  0  0  0  0  0  0  0  0  0  0  0
   -4.5417   19.7668  -32.7900 H   0  0  0  0  0  0  0  0  0  0  0  0
  1  2  1  0
  2  3  1  0
  3  4  1  0
  4  5  2  0
  4  6  1  0
  6  7  1  0
  7  8  1  0
  8  9  1  0
  8 10  2  0
  7 11  2  0
 11 12  1  0
 12 13  2  0
 13 14  1  0
 14 15  2  0
 15 16  1  0
 16 17  1  0
 16 18  1  0
 16 19  1  0
 15 20  1  0
 20 21  2  0
  2 22  1  0
 22 23  2  0
 22 24  1  0
 21  6  1  0
 21 12  1  0
  1 25  1  0
  1 26  1  0
  1 27  1  0
  2 28  1  6
  9 29  1  0
  9 30  1  0
 11 31  1  0
 13 32  1  0
 14 33  1  0
 20 34  1  0
M  CHG  1  24  -1
M  END
>  <UniqueID>  (69) 
69

>  <SMILES>  (69) 
C[C@@H](OC(=O)n1c(C(N)=O)cc2ccc(C(F)(F)F)cc21)C(=O)[O-]

>  <Energy>  (69) 
69.81815674416579

>  <Genealogy>  (69) 
CC(OC(=O)n1c(C(N)=O)cc2ccc(C(F)(F)F)cc21)C(=O)[O-] (protonated)
C[C@@H](OC(=O)n1c(C(N)=O)cc2ccc(C(F)(F)F)cc21)C(=O)[O-] (chirality)
C[C@@H](OC(=O)n1c(C(N)=O)cc2ccc(C(F)(F)F)cc21)C(=O)[O-] (3D coordinates assigned)
C[C@@H](OC(=O)n1c(C(N)=O)cc2ccc(C(F)(F)F)cc21)C(=O)[O-] (optimized conformer: 69.81815674416579 kcal/mol)

>  <smiles>  (69) 
CC(OC(=O)n1c(C(N)=O)cc2ccc(C(F)(F)F)cc21)C(=O)O

>  <score_type>  (69) 
oracle

>  <origin>  (69) 
adg

>  <m_score__min__energy>  (69) 
-10.27

>  <m_primary>  (69) 
energy

$$$$
70:0
     RDKit          3D

 31 32  0  0  0  0  0  0  0  0999 V2000
   -3.8630   23.5370  -27.6870 C   0  0  0  0  0  0  0  0  0  0  0  0
   -2.4840   23.1260  -28.8050 S   0  0  0  0  0  0  0  0  0  0  0  0
   -3.3700   21.8180  -29.7210 C   0  0  0  0  0  0  0  0  0  0  0  0
   -3.9290   22.3660  -31.0000 C   0  0  0  0  0  0  0  0  0  0  0  0
   -3.1510   22.5980  -31.9650 O   0  0  0  0  0  0  0  0  0  0  0  0
   -5.3210   22.6940  -31.1140 N   0  0  0  0  0  0  0  0  0  0  0  0
   -5.9210   23.9030  -30.9170 C   0  0  0  0  0  0  0  0  0  0  0  0
   -5.2610   25.1180  -30.3960 C   0  0  0  0  0  0  0  0  0  0  0  0
   -3.8590   25.3000  -30.5820 N   0  0  0  0  0  0  0  0  0  0  0  0
   -5.9280   26.0140  -29.8150 O   0  0  0  0  0  0  0  0  0  0  0  0
   -7.2840   23.8210  -31.1920 C   0  0  0  0  0  0  0  0  0  0  0  0
   -7.5060   22.5110  -31.5530 C   0  0  0  0  0  0  0  0  0  0  0  0
   -8.6810   21.8710  -31.9380 C   0  0  0  0  0  0  0  0  0  0  0  0
   -8.6080   20.5090  -32.2770 C   0  0  0  0  0  0  0  0  0  0  0  0
   -7.3720   19.8150  -32.2260 C   0  0  0  0  0  0  0  0  0  0  0  0
   -7.2950   18.3670  -32.6120 C   0  0  0  0  0  0  0  0  0  0  0  0
   -8.3660   17.6780  -32.0710 F   0  0  0  0  0  0  0  0  0  0  0  0
   -6.1150   17.8230  -32.1380 F   0  0  0  0  0  0  0  0  0  0  0  0
   -6.2000   20.5000  -31.8340 C   0  0  0  0  0  0  0  0  0  0  0  0
   -6.3050   21.8520  -31.4930 C   0  0  0  0  0  0  0  0  0  0  0  0
   -3.5307   23.4380  -26.6431 H   0  0  0  0  0  0  0  0  0  0  0  0
   -4.1888   24.5713  -27.8715 H   0  0  0  0  0  0  0  0  0  0  0  0
   -4.7019   22.8498  -27.8715 H   0  0  0  0  0  0  0  0  0  0  0  0
   -2.6719   20.9997  -29.9512 H   0  0  0  0  0  0  0  0  0  0  0  0
   -4.1973   21.4439  -29.1001 H   0  0  0  0  0  0  0  0  0  0  0  0
   -3.4960   26.0290  -31.2350 H   0  0  0  0  0  0  0  0  0  0  0  0
   -8.0258   24.6311  -31.1332 H   0  0  0  0  0  0  0  0  0  0  0  0
   -9.6367   22.4144  -31.9757 H   0  0  0  0  0  0  0  0  0  0  0  0
   -9.5192   19.9755  -32.5852 H   0  0  0  0  0  0  0  0  0  0  0  0
   -7.3257   18.2854  -33.7085 H   0  0  0  0  0  0  0  0  0  0  0  0
   -5.2298   19.9829  -31.7980 H   0  0  0  0  0  0  0  0  0  0  0  0
  1  2  1  0
  2  3  1  0
  3  4  1  0
  4  5  2  0
  4  6  1  0
  6  7  1  0
  7  8  1  0
  8  9  1  0
  8 10  2  0
  7 11  2  0
 11 12  1  0
 12 13  2  0
 13 14  1  0
 14 15  2  0
 15 16  1  0
 16 17  1  0
 16 18  1  0
 15 19  1  0
 19 20  2  0
 20  6  1  0
 20 12  1  0
  1 21  1  0
  1 22  1  0
  1 23  1  0
  3 24  1  0
  3 25  1  0
  9 26  1  0
 11 27  1  0
 13 28  1  0
 14 29  1  0
 16 30  1  0
 19 31  1  0
M  CHG  1   9  -1
M  END
>  <UniqueID>  (70) 
70

>  <SMILES>  (70) 
CSCC(=O)n1c(C([NH-])=O)cc2ccc(C(F)F)cc21

>  <Energy>  (70) 
65.29115081252057

>  <Genealogy>  (70) 
CSCC(=O)n1c(C([NH-])=O)cc2ccc(C(F)F)cc21 (protonated)
CSCC(=O)n1c(C([NH-])=O)cc2ccc(C(F)F)cc21 (3D coordinates assigned)
CSCC(=O)n1c(C([NH-])=O)cc2ccc(C(F)F)cc21 (optimized conformer: 65.29115081252057 kcal/mol)

>  <smiles>  (70) 
CSCC(=O)n1c(C(N)=O)cc2ccc(C(F)F)cc21

>  <score_type>  (70) 
oracle

>  <origin>  (70) 
adg

>  <m_score__min__energy>  (70) 
-9.5999999999999996

>  <m_primary>  (70) 
energy

$$$$
71:0
     RDKit          3D

 49 50  0  0  0  0  0  0  0  0999 V2000
   -0.8270   20.1050  -32.9760 C   0  0  0  0  0  0  0  0  0  0  0  0
   -2.2430   20.4270  -32.4760 C   0  0  0  0  0  0  0  0  0  0  0  0
   -2.9020   21.4170  -33.4540 C   0  0  0  0  0  0  0  0  0  0  0  0
   -2.1460   21.0390  -31.0650 C   0  0  0  0  0  0  0  0  0  0  0  0
   -2.9700   19.1910  -32.4420 O   0  0  0  0  0  0  0  0  0  0  0  0
   -3.7360   18.6460  -33.4840 C   0  0  0  0  0  0  0  0  0  0  0  0
   -3.2120   18.3730  -34.5970 O   0  0  0  0  0  0  0  0  0  0  0  0
   -5.1320   18.3830  -33.2690 N   0  0  0  0  0  0  0  0  0  0  0  0
   -5.7640   17.1740  -33.2800 C   0  0  0  0  0  0  0  0  0  0  0  0
   -5.1470   15.8850  -33.6630 C   0  0  0  0  0  0  0  0  0  0  0  0
   -4.2830   15.7990  -34.7980 N   0  0  0  0  0  0  0  0  0  0  0  0
   -5.3530   14.8540  -32.9700 O   0  0  0  0  0  0  0  0  0  0  0  0
   -7.1140   17.3300  -32.9700 C   0  0  0  0  0  0  0  0  0  0  0  0
   -7.2890   18.6790  -32.7690 C   0  0  0  0  0  0  0  0  0  0  0  0
   -8.4340   19.3910  -32.4300 C   0  0  0  0  0  0  0  0  0  0  0  0
   -8.3240   20.7810  -32.2620 C   0  0  0  0  0  0  0  0  0  0  0  0
   -7.0700   21.4360  -32.4250 C   0  0  0  0  0  0  0  0  0  0  0  0
   -6.9270   22.8590  -32.2490 N   0  0  0  0  0  0  0  0  0  0  0  0
   -7.4590   23.6160  -31.1160 C   0  0  0  0  0  0  0  0  0  0  0  0
   -6.4910   24.7330  -30.7170 C   0  0  0  0  0  0  0  0  0  0  0  0
   -4.8090   24.1350  -30.6450 S   0  0  0  0  0  0  0  0  0  0  0  0
   -4.6000   23.0380  -29.2600 C   0  0  0  0  0  0  0  0  0  0  0  0
   -4.5020   23.3870  -31.9120 O   0  0  0  0  0  0  0  0  0  0  0  0
   -3.8600   25.2930  -30.5160 O   0  0  0  0  0  0  0  0  0  0  0  0
   -5.9340   20.6730  -32.7760 C   0  0  0  0  0  0  0  0  0  0  0  0
   -6.0790   19.2930  -32.9560 C   0  0  0  0  0  0  0  0  0  0  0  0
   -0.1597   19.9533  -32.1148 H   0  0  0  0  0  0  0  0  0  0  0  0
   -0.8527   19.1898  -33.5857 H   0  0  0  0  0  0  0  0  0  0  0  0
   -0.4544   20.9413  -33.5857 H   0  0  0  0  0  0  0  0  0  0  0  0
   -3.4239   22.2011  -32.8859 H   0  0  0  0  0  0  0  0  0  0  0  0
   -2.1288   21.8763  -34.0874 H   0  0  0  0  0  0  0  0  0  0  0  0
   -3.6241   20.8809  -34.0874 H   0  0  0  0  0  0  0  0  0  0  0  0
   -2.2716   20.2468  -30.3123 H   0  0  0  0  0  0  0  0  0  0  0  0
   -1.1615   21.5129  -30.9378 H   0  0  0  0  0  0  0  0  0  0  0  0
   -2.9357   21.7941  -30.9378 H   0  0  0  0  0  0  0  0  0  0  0  0
   -3.8210   14.8920  -35.0370 H   0  0  0  0  0  0  0  0  0  0  0  0
   -4.1320   16.6160  -35.4300 H   0  0  0  0  0  0  0  0  0  0  0  0
   -7.8775   16.5412  -32.9008 H   0  0  0  0  0  0  0  0  0  0  0  0
   -9.3990   18.8800  -32.2971 H   0  0  0  0  0  0  0  0  0  0  0  0
   -9.2158   21.3700  -32.0018 H   0  0  0  0  0  0  0  0  0  0  0  0
   -6.4190   23.4010  -32.9860 H   0  0  0  0  0  0  0  0  0  0  0  0
   -8.4260   24.0582  -31.3979 H   0  0  0  0  0  0  0  0  0  0  0  0
   -7.5886   22.9350  -30.2619 H   0  0  0  0  0  0  0  0  0  0  0  0
   -6.5524   25.5430  -31.4587 H   0  0  0  0  0  0  0  0  0  0  0  0
   -6.7737   25.0989  -29.7189 H   0  0  0  0  0  0  0  0  0  0  0  0
   -4.7080   23.6050  -28.3236 H   0  0  0  0  0  0  0  0  0  0  0  0
   -5.3637   22.2473  -29.3000 H   0  0  0  0  0  0  0  0  0  0  0  0
   -3.5991   22.5835  -29.3000 H   0  0  0  0  0  0  0  0  0  0  0  0
   -4.9537   21.1549  -32.9054 H   0  0  0  0  0  0  0  0  0  0  0  0
  1  2  1  0
  2  3  1  0
  2  4  1  0
  2  5  1  0
  5  6  1  0
  6  7  2  0
  6  8  1  0
  8  9  1  0
  9 10  1  0
 10 11  1  0
 10 12  2  0
  9 13  2  0
 13 14  1  0
 14 15  2  0
 15 16  1  0
 16 17  2  0
 17 18  1  0
 18 19  1  0
 19 20  1  0
 20 21  1  0
 21 22  1  0
 21 23  2  0
 21 24  2  0
 17 25  1  0
 25 26  2  0
 26  8  1  0
 26 14  1  0
  1 27  1  0
  1 28  1  0
  1 29  1  0
  3 30  1  0
  3 31  1  0
  3 32  1  0
  4 33  1  0
  4 34  1  0
  4 35  1  0
 11 36  1  0
 11 37  1  0
 13 38  1  0
 15 39  1  0
 16 40  1  0
 18 41  1  0
 19 42  1  0
 19 43  1  0
 20 44  1  0
 20 45  1  0
 22 46  1  0
 22 47  1  0
 22 48  1  0
 25 49  1  0
M  END
>  <UniqueID>  (71) 
71

>  <SMILES>  (71) 
CC(C)(C)OC(=O)n1c(C(N)=O)cc2ccc(NCCS(C)(=O)=O)cc21

>  <Energy>  (71) 
72.26264096367358

>  <Genealogy>  (71) 
CC(C)(C)OC(=O)n1c(C(N)=O)cc2ccc(NCCS(C)(=O)=O)cc21 (3D coordinates assigned)
CC(C)(C)OC(=O)n1c(C(N)=O)cc2ccc(NCCS(C)(=O)=O)cc21 (optimized conformer: 72.26264096367358 kcal/mol)

>  <smiles>  (71) 
CC(C)(C)OC(=O)n1c(C(N)=O)cc2ccc(NCCS(C)(=O)=O)cc21

>  <score_type>  (71) 
oracle

>  <origin>  (71) 
adg

>  <m_score__min__energy>  (71) 
-9.2899999999999991

>  <m_primary>  (71) 
energy

$$$$
72:0
     RDKit          3D

 38 39  0  0  0  0  0  0  0  0999 V2000
   -4.2480   25.5370  -30.6750 N   0  0  0  0  0  0  0  0  0  0  0  0
   -5.5930   25.1600  -30.3760 C   0  0  0  0  0  0  0  0  0  0  0  0
   -6.3240   25.9560  -29.7300 O   0  0  0  0  0  0  0  0  0  0  0  0
   -6.1220   23.8420  -30.7950 C   0  0  0  0  0  0  0  0  0  0  0  0
   -7.4730   23.5700  -31.0140 C   0  0  0  0  0  0  0  0  0  0  0  0
   -7.5130   22.2760  -31.4840 C   0  0  0  0  0  0  0  0  0  0  0  0
   -8.5970   21.4910  -31.8600 C   0  0  0  0  0  0  0  0  0  0  0  0
   -8.3430   20.1760  -32.2880 C   0  0  0  0  0  0  0  0  0  0  0  0
   -7.0180   19.6650  -32.3150 C   0  0  0  0  0  0  0  0  0  0  0  0
   -6.7540   18.2660  -32.8090 C   0  0  0  0  0  0  0  0  0  0  0  0
   -5.6960   17.6960  -32.1220 F   0  0  0  0  0  0  0  0  0  0  0  0
   -6.4380   18.2760  -34.1580 F   0  0  0  0  0  0  0  0  0  0  0  0
   -7.8840   17.4940  -32.6170 F   0  0  0  0  0  0  0  0  0  0  0  0
   -5.9410   20.5060  -31.9530 C   0  0  0  0  0  0  0  0  0  0  0  0
   -6.2260   21.8120  -31.5410 C   0  0  0  0  0  0  0  0  0  0  0  0
   -5.3640   22.7570  -31.1150 N   0  0  0  0  0  0  0  0  0  0  0  0
   -3.9430   22.5990  -30.9730 C   0  0  0  0  0  0  0  0  0  0  0  0
   -3.1870   22.8630  -31.9450 O   0  0  0  0  0  0  0  0  0  0  0  0
   -3.3570   22.0210  -29.7200 C   0  0  0  0  0  0  0  0  0  0  0  0
   -2.1600   23.1410  -29.0160 S   0  0  0  0  0  0  0  0  0  0  0  0
   -0.7710   22.7080  -29.3980 O   0  0  0  0  0  0  0  0  0  0  0  0
   -2.4120   24.5220  -29.5530 O   0  0  0  0  0  0  0  0  0  0  0  0
   -2.3190   23.1610  -27.2360 C   0  0  0  0  0  0  0  0  0  0  0  0
   -3.0900   24.3950  -26.7690 C   0  0  0  0  0  0  0  0  0  0  0  0
   -4.2570   24.5530  -27.5280 O   0  0  0  0  0  0  0  0  0  0  0  0
   -3.6310   24.9340  -31.2630 H   0  0  0  0  0  0  0  0  0  0  0  0
   -3.8750   26.4520  -30.3390 H   0  0  0  0  0  0  0  0  0  0  0  0
   -8.3249   24.2455  -30.8468 H   0  0  0  0  0  0  0  0  0  0  0  0
   -9.6227   21.8868  -31.8238 H   0  0  0  0  0  0  0  0  0  0  0  0
   -9.1795   19.5360  -32.6054 H   0  0  0  0  0  0  0  0  0  0  0  0
   -4.9037   20.1421  -31.9943 H   0  0  0  0  0  0  0  0  0  0  0  0
   -4.1620   21.8463  -28.9909 H   0  0  0  0  0  0  0  0  0  0  0  0
   -2.8559   21.0731  -29.9658 H   0  0  0  0  0  0  0  0  0  0  0  0
   -2.8564   22.2573  -26.9127 H   0  0  0  0  0  0  0  0  0  0  0  0
   -1.3119   23.1891  -26.7944 H   0  0  0  0  0  0  0  0  0  0  0  0
   -3.3594   24.2755  -25.7092 H   0  0  0  0  0  0  0  0  0  0  0  0
   -2.4554   25.2843  -26.8975 H   0  0  0  0  0  0  0  0  0  0  0  0
   -4.0330   25.1810  -28.2640 H   0  0  0  0  0  0  0  0  0  0  0  0
  1  2  1  0
  2  3  2  0
  2  4  1  0
  4  5  2  0
  5  6  1  0
  6  7  2  0
  7  8  1  0
  8  9  2  0
  9 10  1  0
 10 11  1  0
 10 12  1  0
 10 13  1  0
  9 14  1  0
 14 15  2  0
 15 16  1  0
 16 17  1  0
 17 18  2  0
 17 19  1  0
 19 20  1  0
 20 21  2  0
 20 22  2  0
 20 23  1  0
 23 24  1  0
 24 25  1  0
 16  4  1  0
 15  6  1  0
  1 26  1  0
  1 27  1  0
  5 28  1  0
  7 29  1  0
  8 30  1  0
 14 31  1  0
 19 32  1  0
 19 33  1  0
 23 34  1  0
 23 35  1  0
 24 36  1  0
 24 37  1  0
 25 38  1  0
M  END
>  <UniqueID>  (72) 
72

>  <SMILES>  (72) 
NC(=O)c1cc2ccc(C(F)(F)F)cc2n1C(=O)CS(=O)(=O)CCO

>  <Energy>  (72) 
66.04361456365342

>  <Genealogy>  (72) 
NC(=O)c1cc2ccc(C(F)(F)F)cc2n1C(=O)CS(=O)(=O)CCO (3D coordinates assigned)
NC(=O)c1cc2ccc(C(F)(F)F)cc2n1C(=O)CS(=O)(=O)CCO (optimized conformer: 66.04361456365342 kcal/mol)

>  <smiles>  (72) 
NC(=O)c1cc2ccc(C(F)(F)F)cc2n1C(=O)CS(=O)(=O)CCO

>  <score_type>  (72) 
oracle

>  <origin>  (72) 
adg

>  <m_score__min__energy>  (72) 
-9.2300000000000004

>  <m_primary>  (72) 
energy

$$$$
73:0
     RDKit          3D

 46 48  0  0  0  0  0  0  0  0999 V2000
    0.1280   21.4760  -28.1780 C   0  0  0  0  0  0  0  0  0  0  0  0
    0.3950   22.9380  -27.8550 C   0  0  0  0  0  0  0  0  0  0  0  0
   -0.0270   23.7520  -28.9440 O   0  0  0  0  0  0  0  0  0  0  0  0
   -1.2430   24.4440  -28.9460 C   0  0  0  0  0  0  0  0  0  0  0  0
   -1.2940   25.6530  -29.3030 O   0  0  0  0  0  0  0  0  0  0  0  0
   -2.4970   23.7340  -28.5420 C   0  0  0  0  0  0  0  0  0  0  0  0
   -2.6620   22.5210  -29.3350 N   0  0  0  0  0  0  0  0  0  0  0  0
   -3.0150   22.5360  -30.7200 C   0  0  0  0  0  0  0  0  0  0  0  0
   -2.1230   22.5850  -31.6090 O   0  0  0  0  0  0  0  0  0  0  0  0
   -4.3940   22.5730  -31.0970 N   0  0  0  0  0  0  0  0  0  0  0  0
   -5.2820   23.5920  -30.9510 C   0  0  0  0  0  0  0  0  0  0  0  0
   -5.0080   24.8870  -30.2920 C   0  0  0  0  0  0  0  0  0  0  0  0
   -3.8720   25.6700  -30.6550 N   0  0  0  0  0  0  0  0  0  0  0  0
   -5.7900   25.3130  -29.4000 O   0  0  0  0  0  0  0  0  0  0  0  0
   -6.5100   23.2440  -31.5130 C   0  0  0  0  0  0  0  0  0  0  0  0
   -6.3350   21.9730  -32.0220 C   0  0  0  0  0  0  0  0  0  0  0  0
   -7.2080   21.1560  -32.7330 C   0  0  0  0  0  0  0  0  0  0  0  0
   -6.7270   19.9110  -33.1800 C   0  0  0  0  0  0  0  0  0  0  0  0
   -5.3960   19.5090  -32.9070 C   0  0  0  0  0  0  0  0  0  0  0  0
   -4.8890   18.2130  -33.4020 C   0  0  0  0  0  0  0  0  0  0  0  0
   -3.6180   17.9060  -33.8560 C   0  0  0  0  0  0  0  0  0  0  0  0
   -2.4550   18.8370  -33.9770 C   0  0  0  0  0  0  0  0  0  0  0  0
   -3.5620   16.6010  -34.1830 N   0  0  0  0  0  0  0  0  0  0  0  0
   -4.7370   16.0950  -33.9400 O   0  0  0  0  0  0  0  0  0  0  0  0
   -5.5620   17.0050  -33.4780 C   0  0  0  0  0  0  0  0  0  0  0  0
   -6.9830   16.7300  -33.1050 C   0  0  0  0  0  0  0  0  0  0  0  0
   -4.5440   20.3640  -32.1770 C   0  0  0  0  0  0  0  0  0  0  0  0
   -5.0490   21.5920  -31.7500 C   0  0  0  0  0  0  0  0  0  0  0  0
    0.0241   20.9069  -27.2424 H   0  0  0  0  0  0  0  0  0  0  0  0
   -0.8001   21.3932  -28.7626 H   0  0  0  0  0  0  0  0  0  0  0  0
    0.9669   21.0705  -28.7626 H   0  0  0  0  0  0  0  0  0  0  0  0
   -0.1618   23.2205  -26.9494 H   0  0  0  0  0  0  0  0  0  0  0  0
    1.4720   23.0841  -27.6854 H   0  0  0  0  0  0  0  0  0  0  0  0
   -2.4372   23.4672  -27.4765 H   0  0  0  0  0  0  0  0  0  0  0  0
   -3.3580   24.3968  -28.7133 H   0  0  0  0  0  0  0  0  0  0  0  0
   -2.9040   25.3030  -30.5230 H   0  0  0  0  0  0  0  0  0  0  0  0
   -7.4250   23.8538  -31.5441 H   0  0  0  0  0  0  0  0  0  0  0  0
   -8.2410   21.4727  -32.9393 H   0  0  0  0  0  0  0  0  0  0  0  0
   -7.3916   19.2429  -33.7474 H   0  0  0  0  0  0  0  0  0  0  0  0
   -2.1042   19.1179  -32.9730 H   0  0  0  0  0  0  0  0  0  0  0  0
   -1.6412   18.3380  -34.5235 H   0  0  0  0  0  0  0  0  0  0  0  0
   -2.7638   19.7403  -34.5235 H   0  0  0  0  0  0  0  0  0  0  0  0
   -7.0775   16.7117  -32.0092 H   0  0  0  0  0  0  0  0  0  0  0  0
   -7.6293   17.5197  -33.5156 H   0  0  0  0  0  0  0  0  0  0  0  0
   -7.2880   15.7562  -33.5156 H   0  0  0  0  0  0  0  0  0  0  0  0
   -3.5085   20.0700  -31.9504 H   0  0  0  0  0  0  0  0  0  0  0  0
  1  2  1  0
  2  3  1  0
  3  4  1  0
  4  5  2  0
  4  6  1  0
  6  7  1  0
  7  8  1  0
  8  9  2  0
  8 10  1  0
 10 11  1  0
 11 12  1  0
 12 13  1  0
 12 14  2  0
 11 15  2  0
 15 16  1  0
 16 17  2  0
 17 18  1  0
 18 19  2  0
 19 20  1  0
 20 21  1  0
 21 22  1  0
 21 23  2  0
 23 24  1  0
 24 25  1  0
 25 26  1  0
 19 27  1  0
 27 28  2  0
 28 10  1  0
 28 16  1  0
 25 20  2  0
  1 29  1  0
  1 30  1  0
  1 31  1  0
  2 32  1  0
  2 33  1  0
  6 34  1  0
  6 35  1  0
 13 36  1  0
 15 37  1  0
 17 38  1  0
 18 39  1  0
 22 40  1  0
 22 41  1  0
 22 42  1  0
 26 43  1  0
 26 44  1  0
 26 45  1  0
 27 46  1  0
M  CHG  2   7  -1  13  -1
M  END
>  <UniqueID>  (73) 
73

>  <SMILES>  (73) 
CCOC(=O)C[N-]C(=O)n1c(C([NH-])=O)cc2ccc(-c3c(C)noc3C)cc21

>  <Energy>  (73) 
111.36885476172321

>  <Genealogy>  (73) 
CCOC(=O)C[N-]C(=O)n1c(C([NH-])=O)cc2ccc(-c3c(C)noc3C)cc21 (protonated)
CCOC(=O)C[N-]C(=O)n1c(C([NH-])=O)cc2ccc(-c3c(C)noc3C)cc21 (3D coordinates assigned)
CCOC(=O)C[N-]C(=O)n1c(C([NH-])=O)cc2ccc(-c3c(C)noc3C)cc21 (optimized conformer: 111.36885476172321 kcal/mol)

>  <smiles>  (73) 
CCOC(=O)CNC(=O)n1c(C(N)=O)cc2ccc(-c3c(C)noc3C)cc21

>  <score_type>  (73) 
oracle

>  <origin>  (73) 
adg

>  <m_score__min__energy>  (73) 
-11.640000000000001

>  <m_primary>  (73) 
energy

$$$$
74:0
     RDKit          3D

 43 45  0  0  0  0  0  0  0  0999 V2000
   -1.8680   19.5650  -27.2070 C   0  0  0  0  0  0  0  0  0  0  0  0
   -2.6050   20.8150  -27.4680 N   0  0  1  0  0  0  0  0  0  0  0  0
   -1.7970   22.0020  -27.0680 C   0  0  0  0  0  0  0  0  0  0  0  0
   -1.0540   22.6360  -28.2510 C   0  0  0  0  0  0  0  0  0  0  0  0
   -2.0400   23.1170  -29.3310 C   0  0  0  0  0  0  0  0  0  0  0  0
   -3.3420   22.2820  -29.3690 C   0  0  1  0  0  0  0  0  0  0  0  0
   -3.9720   22.3330  -30.7440 C   0  0  0  0  0  0  0  0  0  0  0  0
   -3.2560   22.1180  -31.7590 O   0  0  0  0  0  0  0  0  0  0  0  0
   -5.3550   22.6730  -30.9260 N   0  0  0  0  0  0  0  0  0  0  0  0
   -5.9350   23.8960  -30.7790 C   0  0  0  0  0  0  0  0  0  0  0  0
   -5.2460   25.1350  -30.3580 C   0  0  0  0  0  0  0  0  0  0  0  0
   -3.8480   25.3080  -30.5750 N   0  0  0  0  0  0  0  0  0  0  0  0
   -5.8980   26.0490  -29.7870 O   0  0  0  0  0  0  0  0  0  0  0  0
   -7.2970   23.8240  -31.0700 C   0  0  0  0  0  0  0  0  0  0  0  0
   -7.5290   22.5070  -31.4050 C   0  0  0  0  0  0  0  0  0  0  0  0
   -8.7030   21.8740  -31.7980 C   0  0  0  0  0  0  0  0  0  0  0  0
   -8.6420   20.5030  -32.1030 C   0  0  0  0  0  0  0  0  0  0  0  0
   -7.4200   19.7880  -31.9970 C   0  0  0  0  0  0  0  0  0  0  0  0
   -7.3680   18.3290  -32.3700 C   0  0  0  0  0  0  0  0  0  0  0  0
   -6.8660   18.1620  -33.6480 F   0  0  0  0  0  0  0  0  0  0  0  0
   -6.5540   17.6370  -31.4920 F   0  0  0  0  0  0  0  0  0  0  0  0
   -8.6440   17.7990  -32.3140 F   0  0  0  0  0  0  0  0  0  0  0  0
   -6.2430   20.4770  -31.6200 C   0  0  0  0  0  0  0  0  0  0  0  0
   -6.3380   21.8380  -31.3150 C   0  0  0  0  0  0  0  0  0  0  0  0
   -3.0700   20.8440  -28.8810 C   0  0  0  0  0  0  0  0  0  0  0  0
   -1.7780   19.4123  -26.1214 H   0  0  0  0  0  0  0  0  0  0  0  0
   -2.4118   18.7189  -27.6524 H   0  0  0  0  0  0  0  0  0  0  0  0
   -0.8644   19.6312  -27.6524 H   0  0  0  0  0  0  0  0  0  0  0  0
   -3.4550   20.7970  -26.8550 H   0  0  0  0  0  0  0  0  0  0  0  0
   -2.4694   22.7545  -26.6302 H   0  0  0  0  0  0  0  0  0  0  0  0
   -1.0419   21.6622  -26.3439 H   0  0  0  0  0  0  0  0  0  0  0  0
   -0.4698   23.4951  -27.8896 H   0  0  0  0  0  0  0  0  0  0  0  0
   -0.3921   21.8777  -28.6948 H   0  0  0  0  0  0  0  0  0  0  0  0
   -2.3010   24.1658  -29.1265 H   0  0  0  0  0  0  0  0  0  0  0  0
   -1.5445   23.0024  -30.3064 H   0  0  0  0  0  0  0  0  0  0  0  0
   -4.0759   22.7197  -28.6763 H   0  0  0  0  0  0  0  0  0  0  0  0
   -3.4910   26.0350  -31.2330 H   0  0  0  0  0  0  0  0  0  0  0  0
   -8.0301   24.6435  -31.0389 H   0  0  0  0  0  0  0  0  0  0  0  0
   -9.6502   22.4288  -31.8681 H   0  0  0  0  0  0  0  0  0  0  0  0
   -9.5523   19.9777  -32.4278 H   0  0  0  0  0  0  0  0  0  0  0  0
   -5.2765   19.9543  -31.5682 H   0  0  0  0  0  0  0  0  0  0  0  0
   -3.9985   20.2597  -28.9617 H   0  0  0  0  0  0  0  0  0  0  0  0
   -2.2754   20.4158  -29.5097 H   0  0  0  0  0  0  0  0  0  0  0  0
  1  2  1  0
  2  3  1  0
  3  4  1  0
  4  5  1  0
  5  6  1  0
  6  7  1  0
  7  8  2  0
  7  9  1  0
  9 10  1  0
 10 11  1  0
 11 12  1  0
 11 13  2  0
 10 14  2  0
 14 15  1  0
 15 16  2  0
 16 17  1  0
 17 18  2  0
 18 19  1  0
 19 20  1  0
 19 21  1  0
 19 22  1  0
 18 23  1  0
 23 24  2  0
  6 25  1  0
 25  2  1  0
 24  9  1  0
 24 15  1  0
  1 26  1  0
  1 27  1  0
  1 28  1  0
  2 29  1  1
  3 30  1  0
  3 31  1  0
  4 32  1  0
  4 33  1  0
  5 34  1  0
  5 35  1  0
  6 36  1  1
 12 37  1  0
 14 38  1  0
 16 39  1  0
 17 40  1  0
 23 41  1  0
 25 42  1  0
 25 43  1  0
M  CHG  2   2   1  12  -1
M  END
>  <UniqueID>  (74) 
74

>  <SMILES>  (74) 
C[N@H+]1CCC[C@@H](C(=O)n2c(C([NH-])=O)cc3ccc(C(F)(F)F)cc32)C1

>  <Energy>  (74) 
92.51072347397158

>  <Genealogy>  (74) 
C[NH+]1CCC[C@@H](C(=O)n2c(C([NH-])=O)cc3ccc(C(F)(F)F)cc32)C1 (protonated)
C[N@H+]1CCC[C@@H](C(=O)n2c(C([NH-])=O)cc3ccc(C(F)(F)F)cc32)C1 (chirality)
C[N@H+]1CCC[C@@H](C(=O)n2c(C([NH-])=O)cc3ccc(C(F)(F)F)cc32)C1 (3D coordinates assigned)
C[N@H+]1CCC[C@@H](C(=O)n2c(C([NH-])=O)cc3ccc(C(F)(F)F)cc32)C1 (nonaromatic ring conformer: 92.51072347397158 kcal/mol)

>  <smiles>  (74) 
CN1CCC[C@@H](C(=O)n2c(C(N)=O)cc3ccc(C(F)(F)F)cc32)C1

>  <score_type>  (74) 
oracle

>  <origin>  (74) 
adg

>  <m_score__min__energy>  (74) 
-10.43

>  <m_primary>  (74) 
energy

$$$$
75:0
     RDKit          3D

 47 49  0  0  0  0  0  0  0  0999 V2000
   -2.7100   21.0450  -28.1650 C   0  0  0  0  0  0  0  0  0  0  0  0
   -1.7310   22.2160  -28.0660 C   0  0  0  0  0  0  0  0  0  0  0  0
   -1.6380   23.0150  -29.3760 C   0  0  1  0  0  0  0  0  0  0  0  0
   -2.9580   23.2540  -29.8650 O   0  0  0  0  0  0  0  0  0  0  0  0
   -3.4730   22.6610  -31.0240 C   0  0  0  0  0  0  0  0  0  0  0  0
   -2.7120   22.0250  -31.8040 O   0  0  0  0  0  0  0  0  0  0  0  0
   -4.8780   22.7500  -31.3080 N   0  0  0  0  0  0  0  0  0  0  0  0
   -5.7230   23.7790  -31.0150 C   0  0  0  0  0  0  0  0  0  0  0  0
   -5.3300   25.1070  -30.5010 C   0  0  0  0  0  0  0  0  0  0  0  0
   -4.0670   25.6750  -30.8330 N   0  0  0  0  0  0  0  0  0  0  0  0
   -6.1410   25.7710  -29.8030 O   0  0  0  0  0  0  0  0  0  0  0  0
   -7.0350   23.4440  -31.3410 C   0  0  0  0  0  0  0  0  0  0  0  0
   -6.9680   22.1700  -31.8530 C   0  0  0  0  0  0  0  0  0  0  0  0
   -7.9820   21.3420  -32.3220 C   0  0  0  0  0  0  0  0  0  0  0  0
   -7.6330   20.0570  -32.7650 C   0  0  0  0  0  0  0  0  0  0  0  0
   -6.2840   19.6100  -32.7250 C   0  0  0  0  0  0  0  0  0  0  0  0
   -5.9370   18.2770  -33.1710 N   0  0  0  0  0  0  0  0  0  0  0  0
   -5.7390   17.1470  -32.2740 C   0  0  0  0  0  0  0  0  0  0  0  0
   -5.5900   15.9280  -33.1720 C   0  0  0  0  0  0  0  0  0  0  0  0
   -5.2270   16.4710  -34.5570 C   0  0  2  0  0  0  0  0  0  0  0  0
   -3.7750   16.4550  -34.7450 N   0  0  0  0  0  0  0  0  0  0  0  0
   -5.7530   17.9080  -34.5670 C   0  0  0  0  0  0  0  0  0  0  0  0
   -5.2840   20.4880  -32.2370 C   0  0  0  0  0  0  0  0  0  0  0  0
   -5.6580   21.7710  -31.8220 C   0  0  0  0  0  0  0  0  0  0  0  0
   -0.9190   24.3190  -29.1660 C   0  0  0  0  0  0  0  0  0  0  0  0
    0.3080   24.3340  -28.8860 O   0  0  0  0  0  0  0  0  0  0  0  0
   -1.6070   25.5190  -29.2990 O   0  0  0  0  0  0  0  0  0  0  0  0
   -2.9877   20.7128  -27.1538 H   0  0  0  0  0  0  0  0  0  0  0  0
   -3.6122   21.3661  -28.7062 H   0  0  0  0  0  0  0  0  0  0  0  0
   -2.2341   20.2140  -28.7062 H   0  0  0  0  0  0  0  0  0  0  0  0
   -2.0666   22.8901  -27.2642 H   0  0  0  0  0  0  0  0  0  0  0  0
   -0.7340   21.8024  -27.8541 H   0  0  0  0  0  0  0  0  0  0  0  0
   -1.0640   22.4321  -30.1113 H   0  0  0  0  0  0  0  0  0  0  0  0
   -3.1790   25.2470  -30.4890 H   0  0  0  0  0  0  0  0  0  0  0  0
   -7.9334   24.0663  -31.2155 H   0  0  0  0  0  0  0  0  0  0  0  0
   -9.0271   21.6843  -32.3451 H   0  0  0  0  0  0  0  0  0  0  0  0
   -8.4150   19.3854  -33.1490 H   0  0  0  0  0  0  0  0  0  0  0  0
   -4.8310   17.2915  -31.6701 H   0  0  0  0  0  0  0  0  0  0  0  0
   -6.5790   17.0338  -31.5729 H   0  0  0  0  0  0  0  0  0  0  0  0
   -4.7913   15.2713  -32.7968 H   0  0  0  0  0  0  0  0  0  0  0  0
   -6.5137   15.3314  -33.2007 H   0  0  0  0  0  0  0  0  0  0  0  0
   -5.6599   15.8667  -35.3678 H   0  0  0  0  0  0  0  0  0  0  0  0
   -3.5550   15.8100  -35.5390 H   0  0  0  0  0  0  0  0  0  0  0  0
   -3.4770   17.4060  -35.0630 H   0  0  0  0  0  0  0  0  0  0  0  0
   -5.0247   18.5784  -35.0468 H   0  0  0  0  0  0  0  0  0  0  0  0
   -6.6928   17.9894  -35.1328 H   0  0  0  0  0  0  0  0  0  0  0  0
   -4.2332   20.1667  -32.1854 H   0  0  0  0  0  0  0  0  0  0  0  0
  1  2  1  0
  2  3  1  0
  3  4  1  0
  4  5  1  0
  5  6  2  0
  5  7  1  0
  7  8  1  0
  8  9  1  0
  9 10  1  0
  9 11  2  0
  8 12  2  0
 12 13  1  0
 13 14  2  0
 14 15  1  0
 15 16  2  0
 16 17  1  0
 17 18  1  0
 18 19  1  0
 19 20  1  0
 20 21  1  0
 20 22  1  0
 16 23  1  0
 23 24  2  0
  3 25  1  0
 25 26  2  0
 25 27  1  0
 24  7  1  0
 24 13  1  0
 22 17  1  0
  1 28  1  0
  1 29  1  0
  1 30  1  0
  2 31  1  0
  2 32  1  0
  3 33  1  6
 10 34  1  0
 12 35  1  0
 14 36  1  0
 15 37  1  0
 18 38  1  0
 18 39  1  0
 19 40  1  0
 19 41  1  0
 20 42  1  6
 21 43  1  0
 21 44  1  0
 22 45  1  0
 22 46  1  0
 23 47  1  0
M  CHG  2  10  -1  27  -1
M  END
>  <UniqueID>  (75) 
75

>  <SMILES>  (75) 
CC[C@@H](OC(=O)n1c(C([NH-])=O)cc2ccc(N3CC[C@H](N)C3)cc21)C(=O)[O-]

>  <Energy>  (75) 
82.89837669209737

>  <Genealogy>  (75) 
CCC(OC(=O)n1c(C([NH-])=O)cc2ccc(N3CCC(N)C3)cc21)C(=O)[O-] (protonated)
CC[C@@H](OC(=O)n1c(C([NH-])=O)cc2ccc(N3CC[C@H](N)C3)cc21)C(=O)[O-] (chirality)
CC[C@@H](OC(=O)n1c(C([NH-])=O)cc2ccc(N3CC[C@H](N)C3)cc21)C(=O)[O-] (3D coordinates assigned)
CC[C@@H](OC(=O)n1c(C([NH-])=O)cc2ccc(N3CC[C@H](N)C3)cc21)C(=O)[O-] (nonaromatic ring conformer: 82.89837669209737 kcal/mol)

>  <smiles>  (75) 
CCC(OC(=O)n1c(C(N)=O)cc2ccc(N3CCC(N)C3)cc21)C(=O)O

>  <score_type>  (75) 
oracle

>  <origin>  (75) 
adg

>  <m_score__min__energy>  (75) 
-13.220000000000001

>  <m_primary>  (75) 
energy

$$$$
76:0
     RDKit          3D

 40 41  0  0  0  0  0  0  0  0999 V2000
   -0.9930   25.1280  -28.9350 C   0  0  0  0  0  0  0  0  0  0  0  0
   -2.3710   25.0070  -29.2060 O   0  0  0  0  0  0  0  0  0  0  0  0
   -3.0650   24.5390  -28.0610 C   0  0  0  0  0  0  0  0  0  0  0  0
   -2.7190   23.0700  -27.8060 C   0  0  0  0  0  0  0  0  0  0  0  0
   -2.4210   22.3720  -29.0650 N   0  0  0  0  0  0  0  0  0  0  0  0
   -3.6220   21.7470  -29.6310 C   0  0  0  0  0  0  0  0  0  0  0  0
   -4.1110   22.5550  -30.7950 C   0  0  0  0  0  0  0  0  0  0  0  0
   -3.2760   23.0560  -31.5950 O   0  0  0  0  0  0  0  0  0  0  0  0
   -5.5140   22.7810  -30.9960 N   0  0  0  0  0  0  0  0  0  0  0  0
   -6.1890   23.9560  -30.8590 C   0  0  0  0  0  0  0  0  0  0  0  0
   -5.6050   25.2220  -30.3590 C   0  0  0  0  0  0  0  0  0  0  0  0
   -4.2520   25.5750  -30.6570 N   0  0  0  0  0  0  0  0  0  0  0  0
   -6.3050   26.0150  -29.6750 O   0  0  0  0  0  0  0  0  0  0  0  0
   -7.5330   23.7850  -31.1920 C   0  0  0  0  0  0  0  0  0  0  0  0
   -7.6560   22.4610  -31.5470 C   0  0  0  0  0  0  0  0  0  0  0  0
   -8.7720   21.7460  -31.9700 C   0  0  0  0  0  0  0  0  0  0  0  0
   -8.6020   20.3890  -32.2930 C   0  0  0  0  0  0  0  0  0  0  0  0
   -7.3230   19.7790  -32.2160 C   0  0  0  0  0  0  0  0  0  0  0  0
   -7.1610   18.3130  -32.5300 C   0  0  0  0  0  0  0  0  0  0  0  0
   -6.1640   17.7540  -31.7510 F   0  0  0  0  0  0  0  0  0  0  0  0
   -8.3510   17.6580  -32.2780 F   0  0  0  0  0  0  0  0  0  0  0  0
   -6.8200   18.1340  -33.8600 F   0  0  0  0  0  0  0  0  0  0  0  0
   -6.2190   20.5340  -31.7590 C   0  0  0  0  0  0  0  0  0  0  0  0
   -6.4220   21.8780  -31.4240 C   0  0  0  0  0  0  0  0  0  0  0  0
   -0.8332   25.1420  -27.8468 H   0  0  0  0  0  0  0  0  0  0  0  0
   -0.4567   24.2735  -29.3734 H   0  0  0  0  0  0  0  0  0  0  0  0
   -0.6138   26.0629  -29.3734 H   0  0  0  0  0  0  0  0  0  0  0  0
   -2.7730   25.1395  -27.1868 H   0  0  0  0  0  0  0  0  0  0  0  0
   -4.1478   24.6316  -28.2310 H   0  0  0  0  0  0  0  0  0  0  0  0
   -1.8389   23.0168  -27.1483 H   0  0  0  0  0  0  0  0  0  0  0  0
   -3.5845   22.5836  -27.3323 H   0  0  0  0  0  0  0  0  0  0  0  0
   -2.0850   23.0870  -29.7530 H   0  0  0  0  0  0  0  0  0  0  0  0
   -3.3796   20.7286  -29.9688 H   0  0  0  0  0  0  0  0  0  0  0  0
   -4.4072   21.7039  -28.8619 H   0  0  0  0  0  0  0  0  0  0  0  0
   -3.8660   26.4870  -30.3290 H   0  0  0  0  0  0  0  0  0  0  0  0
   -3.6150   24.9200  -31.1620 H   0  0  0  0  0  0  0  0  0  0  0  0
   -8.3262   24.5469  -31.1745 H   0  0  0  0  0  0  0  0  0  0  0  0
   -9.7575   22.2283  -32.0492 H   0  0  0  0  0  0  0  0  0  0  0  0
   -9.4705   19.7926  -32.6092 H   0  0  0  0  0  0  0  0  0  0  0  0
   -5.2230   20.0760  -31.6686 H   0  0  0  0  0  0  0  0  0  0  0  0
  1  2  1  0
  2  3  1  0
  3  4  1  0
  4  5  1  0
  5  6  1  0
  6  7  1  0
  7  8  2  0
  7  9  1  0
  9 10  1  0
 10 11  1  0
 11 12  1  0
 11 13  2  0
 10 14  2  0
 14 15  1  0
 15 16  2  0
 16 17  1  0
 17 18  2  0
 18 19  1  0
 19 20  1  0
 19 21  1  0
 19 22  1  0
 18 23  1  0
 23 24  2  0
 24  9  1  0
 24 15  1  0
  1 25  1  0
  1 26  1  0
  1 27  1  0
  3 28  1  0
  3 29  1  0
  4 30  1  0
  4 31  1  0
  5 32  1  0
  6 33  1  0
  6 34  1  0
 12 35  1  0
 12 36  1  0
 14 37  1  0
 16 38  1  0
 17 39  1  0
 23 40  1  0
M  END
>  <UniqueID>  (76) 
76

>  <SMILES>  (76) 
COCCNCC(=O)n1c(C(N)=O)cc2ccc(C(F)(F)F)cc21

>  <Energy>  (76) 
78.58849755231692

>  <Genealogy>  (76) 
COCCNCC(=O)n1c(C(N)=O)cc2ccc(C(F)(F)F)cc21 (3D coordinates assigned)
COCCNCC(=O)n1c(C(N)=O)cc2ccc(C(F)(F)F)cc21 (optimized conformer: 78.58849755231692 kcal/mol)

>  <smiles>  (76) 
COCCNCC(=O)n1c(C(N)=O)cc2ccc(C(F)(F)F)cc21

>  <score_type>  (76) 
oracle

>  <origin>  (76) 
adg

>  <m_score__min__energy>  (76) 
-7.6100000000000003

>  <m_primary>  (76) 
energy

$$$$
77:0
     RDKit          3D

 49 51  0  0  0  0  0  0  0  0999 V2000
    0.7170   23.6840  -27.7300 C   0  0  0  0  0  0  0  0  0  0  0  0
    1.2110   24.9020  -26.9640 C   0  0  0  0  0  0  0  0  0  0  0  0
    0.6430   26.0810  -27.5250 O   0  0  0  0  0  0  0  0  0  0  0  0
   -0.7250   26.2110  -27.7760 C   0  0  0  0  0  0  0  0  0  0  0  0
   -1.1470   26.4570  -28.9400 O   0  0  0  0  0  0  0  0  0  0  0  0
   -1.6990   26.0130  -26.6610 C   0  0  0  0  0  0  0  0  0  0  0  0
   -2.6860   24.9540  -27.0310 C   0  0  0  0  0  0  0  0  0  0  0  0
   -3.9090   24.8480  -26.4760 N   0  0  0  0  0  0  0  0  0  0  0  0
   -4.4300   23.7930  -27.0250 O   0  0  0  0  0  0  0  0  0  0  0  0
   -3.5740   23.2650  -27.8640 C   0  0  0  0  0  0  0  0  0  0  0  0
   -3.8500   22.0540  -28.6940 C   0  0  0  0  0  0  0  0  0  0  0  0
   -3.1390   22.1550  -29.9740 N   0  0  0  0  0  0  0  0  0  0  0  0
   -1.7370   21.7360  -30.0630 C   0  0  0  0  0  0  0  0  0  0  0  0
   -3.8490   22.5420  -31.1680 C   0  0  0  0  0  0  0  0  0  0  0  0
   -3.2600   22.5500  -32.2840 O   0  0  0  0  0  0  0  0  0  0  0  0
   -5.2240   22.9440  -31.1040 N   0  0  0  0  0  0  0  0  0  0  0  0
   -5.7110   24.1870  -30.8380 C   0  0  0  0  0  0  0  0  0  0  0  0
   -4.8970   25.3730  -30.5050 C   0  0  0  0  0  0  0  0  0  0  0  0
   -3.5010   25.2300  -30.2500 N   0  0  0  0  0  0  0  0  0  0  0  0
   -5.4200   26.5180  -30.4510 O   0  0  0  0  0  0  0  0  0  0  0  0
   -7.1040   24.1820  -30.8990 C   0  0  0  0  0  0  0  0  0  0  0  0
   -7.4510   22.8860  -31.2160 C   0  0  0  0  0  0  0  0  0  0  0  0
   -8.7030   22.3140  -31.4240 C   0  0  0  0  0  0  0  0  0  0  0  0
   -8.7560   20.9510  -31.7650 C   0  0  0  0  0  0  0  0  0  0  0  0
   -7.5670   20.1820  -31.8760 C   0  0  0  0  0  0  0  0  0  0  0  0
   -7.6250   18.7360  -32.2950 C   0  0  0  0  0  0  0  0  0  0  0  0
   -6.9660   17.9290  -31.3830 F   0  0  0  0  0  0  0  0  0  0  0  0
   -7.0260   18.5690  -33.5320 F   0  0  0  0  0  0  0  0  0  0  0  0
   -8.9460   18.3380  -32.3760 F   0  0  0  0  0  0  0  0  0  0  0  0
   -6.3140   20.8070  -31.6790 C   0  0  0  0  0  0  0  0  0  0  0  0
   -6.2960   22.1610  -31.3350 C   0  0  0  0  0  0  0  0  0  0  0  0
   -2.4250   23.9660  -27.9130 N   0  0  0  0  0  0  0  0  0  0  0  0
    0.4017   22.9065  -27.0186 H   0  0  0  0  0  0  0  0  0  0  0  0
   -0.1362   23.9700  -28.3626 H   0  0  0  0  0  0  0  0  0  0  0  0
    1.5284   23.2948  -28.3626 H   0  0  0  0  0  0  0  0  0  0  0  0
    0.9114   24.8174  -25.9090 H   0  0  0  0  0  0  0  0  0  0  0  0
    2.3076   24.9565  -27.0318 H   0  0  0  0  0  0  0  0  0  0  0  0
   -1.1577   25.7064  -25.7538 H   0  0  0  0  0  0  0  0  0  0  0  0
   -2.2327   26.9565  -26.4741 H   0  0  0  0  0  0  0  0  0  0  0  0
   -3.5082   21.1573  -28.1563 H   0  0  0  0  0  0  0  0  0  0  0  0
   -4.9311   21.9831  -28.8841 H   0  0  0  0  0  0  0  0  0  0  0  0
   -1.3260   21.6132  -29.0501 H   0  0  0  0  0  0  0  0  0  0  0  0
   -1.6737   20.7797  -30.6028 H   0  0  0  0  0  0  0  0  0  0  0  0
   -1.1593   22.5008  -30.6028 H   0  0  0  0  0  0  0  0  0  0  0  0
   -3.0870   25.5330  -29.3420 H   0  0  0  0  0  0  0  0  0  0  0  0
   -7.7820   25.0316  -30.7301 H   0  0  0  0  0  0  0  0  0  0  0  0
   -9.6223   22.9099  -31.3247 H   0  0  0  0  0  0  0  0  0  0  0  0
   -9.7303   20.4743  -31.9481 H   0  0  0  0  0  0  0  0  0  0  0  0
   -5.3774   20.2416  -31.7937 H   0  0  0  0  0  0  0  0  0  0  0  0
  1  2  1  0
  2  3  1  0
  3  4  1  0
  4  5  2  0
  4  6  1  0
  6  7  1  0
  7  8  2  0
  8  9  1  0
  9 10  1  0
 10 11  1  0
 11 12  1  0
 12 13  1  0
 12 14  1  0
 14 15  2  0
 14 16  1  0
 16 17  1  0
 17 18  1  0
 18 19  1  0
 18 20  2  0
 17 21  2  0
 21 22  1  0
 22 23  2  0
 23 24  1  0
 24 25  2  0
 25 26  1  0
 26 27  1  0
 26 28  1  0
 26 29  1  0
 25 30  1  0
 30 31  2  0
 10 32  2  0
 32  7  1  0
 31 16  1  0
 31 22  1  0
  1 33  1  0
  1 34  1  0
  1 35  1  0
  2 36  1  0
  2 37  1  0
  6 38  1  0
  6 39  1  0
 11 40  1  0
 11 41  1  0
 13 42  1  0
 13 43  1  0
 13 44  1  0
 19 45  1  0
 21 46  1  0
 23 47  1  0
 24 48  1  0
 30 49  1  0
M  CHG  1  19  -1
M  END
>  <UniqueID>  (77) 
77

>  <SMILES>  (77) 
CCOC(=O)Cc1noc(CN(C)C(=O)n2c(C([NH-])=O)cc3ccc(C(F)(F)F)cc32)n1

>  <Energy>  (77) 
112.3248785963327

>  <Genealogy>  (77) 
CCOC(=O)Cc1noc(CN(C)C(=O)n2c(C([NH-])=O)cc3ccc(C(F)(F)F)cc32)n1 (protonated)
CCOC(=O)Cc1noc(CN(C)C(=O)n2c(C([NH-])=O)cc3ccc(C(F)(F)F)cc32)n1 (3D coordinates assigned)
CCOC(=O)Cc1noc(CN(C)C(=O)n2c(C([NH-])=O)cc3ccc(C(F)(F)F)cc32)n1 (optimized conformer: 112.3248785963327 kcal/mol)

>  <smiles>  (77) 
CCOC(=O)Cc1noc(CN(C)C(=O)n2c(C(N)=O)cc3ccc(C(F)(F)F)cc32)n1

>  <score_type>  (77) 
oracle

>  <origin>  (77) 
adg

>  <m_score__min__energy>  (77) 
-10.99

>  <m_primary>  (77) 
energy

$$$$
78:0
     RDKit          3D

 41 43  0  0  0  0  0  0  0  0999 V2000
   -5.8000   25.2270  -28.9790 N   0  0  0  0  0  0  0  0  0  0  0  0
   -5.3500   24.7570  -30.2500 C   0  0  0  0  0  0  0  0  0  0  0  0
   -4.4430   25.3910  -30.8510 O   0  0  0  0  0  0  0  0  0  0  0  0
   -5.8850   23.5170  -30.8510 C   0  0  0  0  0  0  0  0  0  0  0  0
   -7.2480   23.2590  -30.9750 C   0  0  0  0  0  0  0  0  0  0  0  0
   -7.3320   22.0120  -31.5450 C   0  0  0  0  0  0  0  0  0  0  0  0
   -8.4520   21.2460  -31.8510 C   0  0  0  0  0  0  0  0  0  0  0  0
   -8.2490   19.9550  -32.3650 C   0  0  0  0  0  0  0  0  0  0  0  0
   -6.9390   19.4390  -32.5450 C   0  0  0  0  0  0  0  0  0  0  0  0
   -6.7420   18.0260  -33.0760 C   0  0  0  0  0  0  0  0  0  0  0  0
   -7.8970   17.2570  -33.0370 F   0  0  0  0  0  0  0  0  0  0  0  0
   -6.0780   17.9450  -34.4520 C   0  0  0  0  0  0  0  0  0  0  0  0
   -4.8990   17.2020  -33.8340 C   0  0  0  0  0  0  0  0  0  0  0  0
   -5.5600   17.2740  -32.4620 C   0  0  0  0  0  0  0  0  0  0  0  0
   -5.8260   20.2520  -32.2080 C   0  0  0  0  0  0  0  0  0  0  0  0
   -6.0560   21.5510  -31.7390 C   0  0  0  0  0  0  0  0  0  0  0  0
   -5.1510   22.4720  -31.3310 N   0  0  0  0  0  0  0  0  0  0  0  0
   -3.7210   22.3170  -31.2760 C   0  0  0  0  0  0  0  0  0  0  0  0
   -3.0220   22.6150  -32.2810 O   0  0  0  0  0  0  0  0  0  0  0  0
   -3.0360   21.8090  -30.0380 C   0  0  0  0  0  0  0  0  0  0  0  0
   -2.0840   22.7610  -29.5710 O   0  0  0  0  0  0  0  0  0  0  0  0
   -2.4360   23.9030  -28.8440 C   0  0  0  0  0  0  0  0  0  0  0  0
   -2.2140   25.0550  -29.3070 O   0  0  0  0  0  0  0  0  0  0  0  0
   -3.0260   23.7570  -27.4780 C   0  0  0  0  0  0  0  0  0  0  0  0
   -2.2640   22.8810  -26.7260 F   0  0  0  0  0  0  0  0  0  0  0  0
   -4.3160   23.2650  -27.5720 F   0  0  0  0  0  0  0  0  0  0  0  0
   -3.0520   24.9890  -26.8540 F   0  0  0  0  0  0  0  0  0  0  0  0
   -6.4050   24.6380  -28.3700 H   0  0  0  0  0  0  0  0  0  0  0  0
   -5.4440   26.1330  -28.6000 H   0  0  0  0  0  0  0  0  0  0  0  0
   -8.0804   23.9145  -30.6793 H   0  0  0  0  0  0  0  0  0  0  0  0
   -9.4671   21.6400  -31.6949 H   0  0  0  0  0  0  0  0  0  0  0  0
   -9.1175   19.3349  -32.6319 H   0  0  0  0  0  0  0  0  0  0  0  0
   -6.6431   17.3571  -35.1902 H   0  0  0  0  0  0  0  0  0  0  0  0
   -5.9142   18.8553  -35.0473 H   0  0  0  0  0  0  0  0  0  0  0  0
   -4.7664   16.1782  -34.2138 H   0  0  0  0  0  0  0  0  0  0  0  0
   -3.8741   17.5757  -33.9748 H   0  0  0  0  0  0  0  0  0  0  0  0
   -5.8223   16.2938  -32.0372 H   0  0  0  0  0  0  0  0  0  0  0  0
   -5.0172   17.6937  -31.6022 H   0  0  0  0  0  0  0  0  0  0  0  0
   -4.8004   19.8684  -32.3134 H   0  0  0  0  0  0  0  0  0  0  0  0
   -3.7875   21.6334  -29.2541 H   0  0  0  0  0  0  0  0  0  0  0  0
   -2.5142   20.8709  -30.2783 H   0  0  0  0  0  0  0  0  0  0  0  0
  1  2  1  0
  2  3  2  0
  2  4  1  0
  4  5  2  0
  5  6  1  0
  6  7  2  0
  7  8  1  0
  8  9  2  0
  9 10  1  0
 10 11  1  0
 10 12  1  0
 12 13  1  0
 13 14  1  0
  9 15  1  0
 15 16  2  0
 16 17  1  0
 17 18  1  0
 18 19  2  0
 18 20  1  0
 20 21  1  0
 21 22  1  0
 22 23  2  0
 22 24  1  0
 24 25  1  0
 24 26  1  0
 24 27  1  0
 17  4  1  0
 16  6  1  0
 14 10  1  0
  1 28  1  0
  1 29  1  0
  5 30  1  0
  7 31  1  0
  8 32  1  0
 12 33  1  0
 12 34  1  0
 13 35  1  0
 13 36  1  0
 14 37  1  0
 14 38  1  0
 15 39  1  0
 20 40  1  0
 20 41  1  0
M  END
>  <UniqueID>  (78) 
78

>  <SMILES>  (78) 
NC(=O)c1cc2ccc(C3(F)CCC3)cc2n1C(=O)COC(=O)C(F)(F)F

>  <Energy>  (78) 
141.58348246448392

>  <Genealogy>  (78) 
NC(=O)c1cc2ccc(C3(F)CCC3)cc2n1C(=O)COC(=O)C(F)(F)F (3D coordinates assigned)
NC(=O)c1cc2ccc(C3(F)CCC3)cc2n1C(=O)COC(=O)C(F)(F)F (nonaromatic ring conformer: 141.58348246448392 kcal/mol)

>  <smiles>  (78) 
NC(=O)c1cc2ccc(C3(F)CCC3)cc2n1C(=O)COC(=O)C(F)(F)F

>  <score_type>  (78) 
oracle

>  <origin>  (78) 
adg

>  <m_score__min__energy>  (78) 
-8.8599999999999994

>  <m_primary>  (78) 
energy

$$$$
79:0
     RDKit          3D

 33 34  0  0  0  0  0  0  0  0999 V2000
   -4.2380   25.5740  -30.8360 N   0  0  0  0  0  0  0  0  0  0  0  0
   -5.5600   25.2360  -30.4250 C   0  0  0  0  0  0  0  0  0  0  0  0
   -6.2110   26.0430  -29.7120 O   0  0  0  0  0  0  0  0  0  0  0  0
   -6.1380   23.9310  -30.8070 C   0  0  0  0  0  0  0  0  0  0  0  0
   -7.4710   23.7550  -31.1750 C   0  0  0  0  0  0  0  0  0  0  0  0
   -7.5770   22.4330  -31.5420 C   0  0  0  0  0  0  0  0  0  0  0  0
   -8.6830   21.7090  -31.9760 C   0  0  0  0  0  0  0  0  0  0  0  0
   -8.5070   20.3430  -32.2590 C   0  0  0  0  0  0  0  0  0  0  0  0
   -7.2360   19.7300  -32.1160 C   0  0  0  0  0  0  0  0  0  0  0  0
   -7.0750   18.2510  -32.3640 C   0  0  0  0  0  0  0  0  0  0  0  0
   -8.3020   17.6130  -32.3270 F   0  0  0  0  0  0  0  0  0  0  0  0
   -6.5020   18.0580  -33.6060 F   0  0  0  0  0  0  0  0  0  0  0  0
   -6.2630   17.6810  -31.3980 F   0  0  0  0  0  0  0  0  0  0  0  0
   -6.1420   20.4960  -31.6480 C   0  0  0  0  0  0  0  0  0  0  0  0
   -6.3440   21.8560  -31.3890 C   0  0  0  0  0  0  0  0  0  0  0  0
   -5.4520   22.7610  -30.9330 N   0  0  0  0  0  0  0  0  0  0  0  0
   -4.0790   22.5030  -30.5960 C   0  0  0  0  0  0  0  0  0  0  0  0
   -3.5730   21.3790  -30.8620 O   0  0  0  0  0  0  0  0  0  0  0  0
   -3.3050   23.5020  -29.9190 N   0  0  0  0  0  0  0  0  0  0  0  0
   -1.8870   23.3310  -29.6070 C   0  0  0  0  0  0  0  0  0  0  0  0
   -1.3970   24.4380  -28.6740 C   0  0  0  0  0  0  0  0  0  0  0  0
   -2.0600   25.6390  -28.9540 O   0  0  0  0  0  0  0  0  0  0  0  0
   -3.4730   25.6940  -30.1360 H   0  0  0  0  0  0  0  0  0  0  0  0
   -8.2689   24.5122  -31.1725 H   0  0  0  0  0  0  0  0  0  0  0  0
   -9.6650   22.1905  -32.0941 H   0  0  0  0  0  0  0  0  0  0  0  0
   -9.3652   19.7427  -32.5953 H   0  0  0  0  0  0  0  0  0  0  0  0
   -5.1564   20.0332  -31.4916 H   0  0  0  0  0  0  0  0  0  0  0  0
   -3.7890   24.3600  -29.5710 H   0  0  0  0  0  0  0  0  0  0  0  0
   -1.7407   22.3566  -29.1179 H   0  0  0  0  0  0  0  0  0  0  0  0
   -1.3124   23.3806  -30.5437 H   0  0  0  0  0  0  0  0  0  0  0  0
   -1.5958   24.1483  -27.6316 H   0  0  0  0  0  0  0  0  0  0  0  0
   -0.3171   24.5818  -28.8260 H   0  0  0  0  0  0  0  0  0  0  0  0
   -2.1640   25.6730  -29.9400 H   0  0  0  0  0  0  0  0  0  0  0  0
  1  2  1  0
  2  3  2  0
  2  4  1  0
  4  5  2  0
  5  6  1  0
  6  7  2  0
  7  8  1  0
  8  9  2  0
  9 10  1  0
 10 11  1  0
 10 12  1  0
 10 13  1  0
  9 14  1  0
 14 15  2  0
 15 16  1  0
 16 17  1  0
 17 18  2  0
 17 19  1  0
 19 20  1  0
 20 21  1  0
 21 22  1  0
 16  4  1  0
 15  6  1  0
  1 23  1  0
  5 24  1  0
  7 25  1  0
  8 26  1  0
 14 27  1  0
 19 28  1  0
 20 29  1  0
 20 30  1  0
 21 31  1  0
 21 32  1  0
 22 33  1  0
M  CHG  1   1  -1
M  END
>  <UniqueID>  (79) 
79

>  <SMILES>  (79) 
[NH-]C(=O)c1cc2ccc(C(F)(F)F)cc2n1C(=O)NCCO

>  <Energy>  (79) 
68.31742127495518

>  <Genealogy>  (79) 
[NH-]C(=O)c1cc2ccc(C(F)(F)F)cc2n1C(=O)NCCO (protonated)
[NH-]C(=O)c1cc2ccc(C(F)(F)F)cc2n1C(=O)NCCO (3D coordinates assigned)
[NH-]C(=O)c1cc2ccc(C(F)(F)F)cc2n1C(=O)NCCO (optimized conformer: 68.31742127495518 kcal/mol)

>  <smiles>  (79) 
NC(=O)c1cc2ccc(C(F)(F)F)cc2n1C(=O)NCCO

>  <score_type>  (79) 
oracle

>  <origin>  (79) 
adg

>  <m_score__min__energy>  (79) 
-10.06

>  <m_primary>  (79) 
energy

$$$$
80:0
     RDKit          3D

 37 38  0  0  0  0  0  0  0  0999 V2000
   -4.2630   22.1640  -27.4310 N   0  0  0  0  0  0  0  0  0  0  0  0
   -3.8930   23.3150  -27.2120 N   0  0  0  0  0  0  0  0  0  0  0  0
   -3.5210   24.4690  -26.9930 N   0  0  0  0  0  0  0  0  0  0  0  0
   -2.1270   24.8550  -27.1620 C   0  0  0  0  0  0  0  0  0  0  0  0
   -1.8520   25.1850  -28.5940 C   0  0  0  0  0  0  0  0  0  0  0  0
   -1.2090   26.2310  -28.8810 O   0  0  0  0  0  0  0  0  0  0  0  0
   -2.3450   24.3500  -29.6010 O   0  0  0  0  0  0  0  0  0  0  0  0
   -2.0590   22.9580  -29.6550 C   0  0  0  0  0  0  0  0  0  0  0  0
   -3.2400   22.2480  -30.0160 O   0  0  0  0  0  0  0  0  0  0  0  0
   -3.7830   22.2870  -31.3040 C   0  0  0  0  0  0  0  0  0  0  0  0
   -3.0240   22.2730  -32.3110 O   0  0  0  0  0  0  0  0  0  0  0  0
   -5.2110   22.3350  -31.4740 N   0  0  0  0  0  0  0  0  0  0  0  0
   -6.0620   23.3010  -31.0280 C   0  0  0  0  0  0  0  0  0  0  0  0
   -5.6710   24.5930  -30.4320 C   0  0  0  0  0  0  0  0  0  0  0  0
   -4.7820   24.6520  -29.3170 N   0  0  0  0  0  0  0  0  0  0  0  0
   -6.0800   25.6650  -30.9550 O   0  0  0  0  0  0  0  0  0  0  0  0
   -7.3860   22.9370  -31.2540 C   0  0  0  0  0  0  0  0  0  0  0  0
   -7.3240   21.7090  -31.8700 C   0  0  0  0  0  0  0  0  0  0  0  0
   -8.3520   20.8760  -32.3040 C   0  0  0  0  0  0  0  0  0  0  0  0
   -8.0030   19.6410  -32.8730 C   0  0  0  0  0  0  0  0  0  0  0  0
   -6.6430   19.2580  -32.9890 C   0  0  0  0  0  0  0  0  0  0  0  0
   -6.2750   17.9290  -33.5850 C   0  0  0  0  0  0  0  0  0  0  0  0
   -7.2840   17.0150  -33.3420 F   0  0  0  0  0  0  0  0  0  0  0  0
   -6.0990   18.0640  -34.9500 F   0  0  0  0  0  0  0  0  0  0  0  0
   -5.6270   20.1280  -32.5340 C   0  0  0  0  0  0  0  0  0  0  0  0
   -6.0020   21.3650  -31.9900 C   0  0  0  0  0  0  0  0  0  0  0  0
   -1.9162   25.7368  -26.5391 H   0  0  0  0  0  0  0  0  0  0  0  0
   -1.4832   24.0168  -26.8571 H   0  0  0  0  0  0  0  0  0  0  0  0
   -1.2754   22.7727  -30.4045 H   0  0  0  0  0  0  0  0  0  0  0  0
   -1.7098   22.6152  -28.6698 H   0  0  0  0  0  0  0  0  0  0  0  0
   -4.5280   25.5750  -28.8990 H   0  0  0  0  0  0  0  0  0  0  0  0
   -4.3160   23.7920  -28.9530 H   0  0  0  0  0  0  0  0  0  0  0  0
   -8.2891   23.5092  -30.9952 H   0  0  0  0  0  0  0  0  0  0  0  0
   -9.4054   21.1765  -32.2040 H   0  0  0  0  0  0  0  0  0  0  0  0
   -8.7922   18.9641  -33.2322 H   0  0  0  0  0  0  0  0  0  0  0  0
   -5.3397   17.5743  -33.1273 H   0  0  0  0  0  0  0  0  0  0  0  0
   -4.5672   19.8419  -32.6048 H   0  0  0  0  0  0  0  0  0  0  0  0
  1  2  2  0
  2  3  2  0
  3  4  1  0
  4  5  1  0
  5  6  2  0
  5  7  1  0
  7  8  1  0
  8  9  1  0
  9 10  1  0
 10 11  2  0
 10 12  1  0
 12 13  1  0
 13 14  1  0
 14 15  1  0
 14 16  2  0
 13 17  2  0
 17 18  1  0
 18 19  2  0
 19 20  1  0
 20 21  2  0
 21 22  1  0
 22 23  1  0
 22 24  1  0
 21 25  1  0
 25 26  2  0
 26 12  1  0
 26 18  1  0
  4 27  1  0
  4 28  1  0
  8 29  1  0
  8 30  1  0
 15 31  1  0
 15 32  1  0
 17 33  1  0
 19 34  1  0
 20 35  1  0
 22 36  1  0
 25 37  1  0
M  CHG  2   1  -1   2   1
M  END
>  <UniqueID>  (80) 
80

>  <SMILES>  (80) 
[N-]=[N+]=NCC(=O)OCOC(=O)n1c(C(N)=O)cc2ccc(C(F)F)cc21

>  <Energy>  (80) 
68.99095080112653

>  <Genealogy>  (80) 
[N-]=[N+]=NCC(=O)OCOC(=O)n1c(C(N)=O)cc2ccc(C(F)F)cc21 (3D coordinates assigned)
[N-]=[N+]=NCC(=O)OCOC(=O)n1c(C(N)=O)cc2ccc(C(F)F)cc21 (optimized conformer: 68.99095080112653 kcal/mol)

>  <smiles>  (80) 
[N-]=[N+]=NCC(=O)OCOC(=O)n1c(C(N)=O)cc2ccc(C(F)F)cc21

>  <score_type>  (80) 
oracle

>  <origin>  (80) 
adg

>  <m_score__min__energy>  (80) 
-8.2100000000000009

>  <m_primary>  (80) 
energy

$$$$
81:0
     RDKit          3D

 37 39  0  0  0  0  0  0  0  0999 V2000
   -9.0650   20.3840  -32.2940 C   0  0  0  0  0  0  0  0  0  0  0  0
   -7.7340   19.7050  -32.4210 C   0  0  0  0  0  0  0  0  0  0  0  0
   -7.6340   18.4600  -33.0510 C   0  0  0  0  0  0  0  0  0  0  0  0
   -6.3780   17.8560  -33.1990 C   0  0  0  0  0  0  0  0  0  0  0  0
   -6.2690   16.5010  -33.8340 C   0  0  0  0  0  0  0  0  0  0  0  0
   -5.2640   18.4770  -32.7120 N   0  0  0  0  0  0  0  0  0  0  0  0
   -5.3270   19.7030  -32.1100 C   0  0  0  0  0  0  0  0  0  0  0  0
   -4.0910   20.3510  -31.6050 C   0  0  0  0  0  0  0  0  0  0  0  0
   -2.8370   19.6920  -31.7090 C   0  0  0  0  0  0  0  0  0  0  0  0
   -1.6630   20.3050  -31.2420 C   0  0  0  0  0  0  0  0  0  0  0  0
   -1.7690   21.5670  -30.6680 C   0  0  0  0  0  0  0  0  0  0  0  0
   -0.7930   22.3940  -30.1620 C   0  0  0  0  0  0  0  0  0  0  0  0
   -1.4620   23.5360  -29.7310 C   0  0  0  0  0  0  0  0  0  0  0  0
   -0.7920   24.6570  -29.0380 C   0  0  0  0  0  0  0  0  0  0  0  0
   -1.3960   25.9450  -28.9690 N   0  0  0  0  0  0  0  0  0  0  0  0
    0.3090   24.4590  -28.4550 O   0  0  0  0  0  0  0  0  0  0  0  0
   -2.8010   23.4250  -29.9690 N   0  0  0  0  0  0  0  0  0  0  0  0
   -3.8210   24.4130  -29.7500 C   0  0  0  0  0  0  0  0  0  0  0  0
   -4.6640   24.2640  -28.8260 O   0  0  0  0  0  0  0  0  0  0  0  0
   -3.8700   25.5570  -30.5370 O   0  0  0  0  0  0  0  0  0  0  0  0
   -2.9720   22.2120  -30.5390 C   0  0  0  0  0  0  0  0  0  0  0  0
   -4.1550   21.6340  -31.0150 C   0  0  0  0  0  0  0  0  0  0  0  0
   -6.5720   20.3380  -31.9660 C   0  0  0  0  0  0  0  0  0  0  0  0
   -9.3122   20.5101  -31.2296 H   0  0  0  0  0  0  0  0  0  0  0  0
   -9.0214   21.3700  -32.7796 H   0  0  0  0  0  0  0  0  0  0  0  0
   -9.8377   19.7699  -32.7796 H   0  0  0  0  0  0  0  0  0  0  0  0
   -8.5368   17.9575  -33.4284 H   0  0  0  0  0  0  0  0  0  0  0  0
   -6.2072   15.7324  -33.0496 H   0  0  0  0  0  0  0  0  0  0  0  0
   -7.1552   16.3166  -34.4590 H   0  0  0  0  0  0  0  0  0  0  0  0
   -5.3647   16.4606  -34.4590 H   0  0  0  0  0  0  0  0  0  0  0  0
   -4.3380   18.0090  -32.8300 H   0  0  0  0  0  0  0  0  0  0  0  0
   -2.7849   18.6902  -32.1604 H   0  0  0  0  0  0  0  0  0  0  0  0
   -0.6886   19.8018  -31.3277 H   0  0  0  0  0  0  0  0  0  0  0  0
    0.2875   22.1949  -30.1092 H   0  0  0  0  0  0  0  0  0  0  0  0
   -2.4350   26.0510  -28.9650 H   0  0  0  0  0  0  0  0  0  0  0  0
   -5.1137   22.1668  -30.9317 H   0  0  0  0  0  0  0  0  0  0  0  0
   -6.6331   21.3309  -31.4965 H   0  0  0  0  0  0  0  0  0  0  0  0
  1  2  1  0
  2  3  2  0
  3  4  1  0
  4  5  1  0
  4  6  2  0
  6  7  1  0
  7  8  1  0
  8  9  2  0
  9 10  1  0
 10 11  2  0
 11 12  1  0
 12 13  2  0
 13 14  1  0
 14 15  1  0
 14 16  2  0
 13 17  1  0
 17 18  1  0
 18 19  2  0
 18 20  1  0
 17 21  1  0
 21 22  2  0
  7 23  2  0
 23  2  1  0
 22  8  1  0
 21 11  1  0
  1 24  1  0
  1 25  1  0
  1 26  1  0
  3 27  1  0
  5 28  1  0
  5 29  1  0
  5 30  1  0
  6 31  1  0
  9 32  1  0
 10 33  1  0
 12 34  1  0
 15 35  1  0
 22 36  1  0
 23 37  1  0
M  CHG  3   6   1  15  -1  20  -1
M  END
>  <UniqueID>  (81) 
81

>  <SMILES>  (81) 
Cc1cc(C)[nH+]c(-c2ccc3cc(C([NH-])=O)n(C(=O)[O-])c3c2)c1

>  <Energy>  (81) 
82.85323793119296

>  <Genealogy>  (81) 
Cc1cc(C)[nH+]c(-c2ccc3cc(C([NH-])=O)n(C(=O)[O-])c3c2)c1 (protonated)
Cc1cc(C)[nH+]c(-c2ccc3cc(C([NH-])=O)n(C(=O)[O-])c3c2)c1 (3D coordinates assigned)
Cc1cc(C)[nH+]c(-c2ccc3cc(C([NH-])=O)n(C(=O)[O-])c3c2)c1 (optimized conformer: 82.85323793119296 kcal/mol)

>  <smiles>  (81) 
Cc1cc(C)nc(-c2ccc3cc(C(N)=O)n(C(=O)O)c3c2)c1

>  <score_type>  (81) 
oracle

>  <origin>  (81) 
adg

>  <m_score__min__energy>  (81) 
-11.470000000000001

>  <m_primary>  (81) 
energy

$$$$
82:0
     RDKit          3D

 32 33  0  0  0  0  0  0  0  0999 V2000
   -1.6020   22.5320  -29.8220 C   0  0  0  0  0  0  0  0  0  0  0  0
   -3.0670   22.5350  -29.8730 N   0  0  0  0  0  0  0  0  0  0  0  0
   -3.8550   22.5090  -28.6370 C   0  0  0  0  0  0  0  0  0  0  0  0
   -3.7310   22.5040  -31.1510 C   0  0  0  0  0  0  0  0  0  0  0  0
   -3.0700   22.2930  -32.2040 O   0  0  0  0  0  0  0  0  0  0  0  0
   -5.1480   22.7070  -31.2450 N   0  0  0  0  0  0  0  0  0  0  0  0
   -5.8490   23.8270  -30.9190 C   0  0  0  0  0  0  0  0  0  0  0  0
   -5.2640   25.1050  -30.4640 C   0  0  0  0  0  0  0  0  0  0  0  0
   -3.8620   25.3300  -30.5880 N   0  0  0  0  0  0  0  0  0  0  0  0
   -5.9900   25.9990  -29.9560 O   0  0  0  0  0  0  0  0  0  0  0  0
   -7.2150   23.6160  -31.1090 C   0  0  0  0  0  0  0  0  0  0  0  0
   -7.3240   22.3170  -31.5570 C   0  0  0  0  0  0  0  0  0  0  0  0
   -8.4490   21.5770  -31.9030 C   0  0  0  0  0  0  0  0  0  0  0  0
   -8.2610   20.2490  -32.3230 C   0  0  0  0  0  0  0  0  0  0  0  0
   -6.9620   19.6780  -32.3670 C   0  0  0  0  0  0  0  0  0  0  0  0
   -6.7680   18.2670  -32.8640 C   0  0  0  0  0  0  0  0  0  0  0  0
   -6.4480   18.2640  -34.2110 F   0  0  0  0  0  0  0  0  0  0  0  0
   -5.7420   17.6430  -32.1750 F   0  0  0  0  0  0  0  0  0  0  0  0
   -7.9370   17.5540  -32.6770 F   0  0  0  0  0  0  0  0  0  0  0  0
   -5.8410   20.4710  -32.0260 C   0  0  0  0  0  0  0  0  0  0  0  0
   -6.0610   21.7910  -31.6250 C   0  0  0  0  0  0  0  0  0  0  0  0
   -1.2716   22.5313  -28.7728 H   0  0  0  0  0  0  0  0  0  0  0  0
   -1.2194   21.6331  -30.3275 H   0  0  0  0  0  0  0  0  0  0  0  0
   -1.2157   23.4294  -30.3275 H   0  0  0  0  0  0  0  0  0  0  0  0
   -3.1782   22.5313  -27.7701 H   0  0  0  0  0  0  0  0  0  0  0  0
   -4.5186   23.3857  -28.6067 H   0  0  0  0  0  0  0  0  0  0  0  0
   -4.4594   21.5904  -28.6067 H   0  0  0  0  0  0  0  0  0  0  0  0
   -3.4900   26.0460  -31.2500 H   0  0  0  0  0  0  0  0  0  0  0  0
   -8.0311   24.3334  -30.9378 H   0  0  0  0  0  0  0  0  0  0  0  0
   -9.4556   22.0175  -31.8497 H   0  0  0  0  0  0  0  0  0  0  0  0
   -9.1306   19.6450  -32.6211 H   0  0  0  0  0  0  0  0  0  0  0  0
   -4.8224   20.0587  -32.0754 H   0  0  0  0  0  0  0  0  0  0  0  0
  1  2  1  0
  2  3  1  0
  2  4  1  0
  4  5  2  0
  4  6  1  0
  6  7  1  0
  7  8  1  0
  8  9  1  0
  8 10  2  0
  7 11  2  0
 11 12  1  0
 12 13  2  0
 13 14  1  0
 14 15  2  0
 15 16  1  0
 16 17  1  0
 16 18  1  0
 16 19  1  0
 15 20  1  0
 20 21  2  0
 21  6  1  0
 21 12  1  0
  1 22  1  0
  1 23  1  0
  1 24  1  0
  3 25  1  0
  3 26  1  0
  3 27  1  0
  9 28  1  0
 11 29  1  0
 13 30  1  0
 14 31  1  0
 20 32  1  0
M  CHG  1   9  -1
M  END
>  <UniqueID>  (82) 
82

>  <SMILES>  (82) 
CN(C)C(=O)n1c(C([NH-])=O)cc2ccc(C(F)(F)F)cc21

>  <Energy>  (82) 
69.42724744848354

>  <Genealogy>  (82) 
CN(C)C(=O)n1c(C([NH-])=O)cc2ccc(C(F)(F)F)cc21 (protonated)
CN(C)C(=O)n1c(C([NH-])=O)cc2ccc(C(F)(F)F)cc21 (3D coordinates assigned)
CN(C)C(=O)n1c(C([NH-])=O)cc2ccc(C(F)(F)F)cc21 (optimized conformer: 69.42724744848354 kcal/mol)

>  <smiles>  (82) 
CN(C)C(=O)n1c(C(N)=O)cc2ccc(C(F)(F)F)cc21

>  <score_type>  (82) 
oracle

>  <origin>  (82) 
adg

>  <m_score__min__energy>  (82) 
-9.8399999999999999

>  <m_primary>  (82) 
energy

$$$$
83:0
     RDKit          3D

 36 37  0  0  0  0  0  0  0  0999 V2000
   -6.2310   23.3670  -29.8520 C   0  0  0  0  0  0  0  0  0  0  0  0
   -5.8690   24.3320  -30.9860 C   0  0  1  0  0  0  0  0  0  0  0  0
   -5.2590   25.6440  -30.4600 C   0  0  0  0  0  0  0  0  0  0  0  0
   -3.8620   25.6220  -30.5770 O   0  0  0  0  0  0  0  0  0  0  0  0
   -4.9770   23.6890  -31.9530 N   0  0  0  0  0  0  0  0  0  0  0  0
   -4.0030   22.6760  -31.6640 C   0  0  0  0  0  0  0  0  0  0  0  0
   -3.1150   22.8730  -30.7930 O   0  0  0  0  0  0  0  0  0  0  0  0
   -4.0460   21.4260  -32.3710 N   0  0  0  0  0  0  0  0  0  0  0  0
   -3.0000   20.7510  -32.9280 C   0  0  0  0  0  0  0  0  0  0  0  0
   -1.6120   21.2550  -33.0310 C   0  0  0  0  0  0  0  0  0  0  0  0
   -0.8860   21.6420  -31.8620 N   0  0  0  0  0  0  0  0  0  0  0  0
   -1.0460   21.3210  -34.1540 O   0  0  0  0  0  0  0  0  0  0  0  0
   -3.4360   19.5440  -33.4730 C   0  0  0  0  0  0  0  0  0  0  0  0
   -4.7890   19.5010  -33.2300 C   0  0  0  0  0  0  0  0  0  0  0  0
   -5.7220   18.5140  -33.5340 C   0  0  0  0  0  0  0  0  0  0  0  0
   -7.0520   18.7160  -33.1290 C   0  0  0  0  0  0  0  0  0  0  0  0
   -7.4290   19.8980  -32.4400 C   0  0  0  0  0  0  0  0  0  0  0  0
   -8.8460   20.0740  -31.9550 C   0  0  0  0  0  0  0  0  0  0  0  0
   -9.0810   21.3910  -31.6020 F   0  0  0  0  0  0  0  0  0  0  0  0
   -9.0520   19.2670  -30.8510 F   0  0  0  0  0  0  0  0  0  0  0  0
   -9.7480   19.7230  -32.9450 F   0  0  0  0  0  0  0  0  0  0  0  0
   -6.4460   20.8660  -32.1290 C   0  0  0  0  0  0  0  0  0  0  0  0
   -5.1330   20.6480  -32.5630 C   0  0  0  0  0  0  0  0  0  0  0  0
   -6.0481   23.8547  -28.8831 H   0  0  0  0  0  0  0  0  0  0  0  0
   -7.2933   23.0923  -29.9294 H   0  0  0  0  0  0  0  0  0  0  0  0
   -5.6115   22.4614  -29.9294 H   0  0  0  0  0  0  0  0  0  0  0  0
   -6.8056   24.5958  -31.4990 H   0  0  0  0  0  0  0  0  0  0  0  0
   -5.6572   26.4870  -31.0437 H   0  0  0  0  0  0  0  0  0  0  0  0
   -5.5236   25.7568  -29.3983 H   0  0  0  0  0  0  0  0  0  0  0  0
   -3.6430   24.9200  -31.2450 H   0  0  0  0  0  0  0  0  0  0  0  0
   -1.3370   21.6580  -30.9220 H   0  0  0  0  0  0  0  0  0  0  0  0
    0.1050   21.9590  -31.9450 H   0  0  0  0  0  0  0  0  0  0  0  0
   -2.8269   18.7866  -33.9882 H   0  0  0  0  0  0  0  0  0  0  0  0
   -5.4269   17.6030  -34.0752 H   0  0  0  0  0  0  0  0  0  0  0  0
   -7.8097   17.9493  -33.3484 H   0  0  0  0  0  0  0  0  0  0  0  0
   -6.7072   21.7698  -31.5590 H   0  0  0  0  0  0  0  0  0  0  0  0
  1  2  1  0
  2  3  1  0
  3  4  1  0
  2  5  1  0
  5  6  1  0
  6  7  2  0
  6  8  1  0
  8  9  1  0
  9 10  1  0
 10 11  1  0
 10 12  2  0
  9 13  2  0
 13 14  1  0
 14 15  2  0
 15 16  1  0
 16 17  2  0
 17 18  1  0
 18 19  1  0
 18 20  1  0
 18 21  1  0
 17 22  1  0
 22 23  2  0
 23  8  1  0
 23 14  1  0
  1 24  1  0
  1 25  1  0
  1 26  1  0
  2 27  1  6
  3 28  1  0
  3 29  1  0
  4 30  1  0
 11 31  1  0
 11 32  1  0
 13 33  1  0
 15 34  1  0
 16 35  1  0
 22 36  1  0
M  CHG  1   5  -1
M  END
>  <UniqueID>  (83) 
83

>  <SMILES>  (83) 
C[C@@H](CO)[N-]C(=O)n1c(C(N)=O)cc2ccc(C(F)(F)F)cc21

>  <Energy>  (83) 
71.22349348899787

>  <Genealogy>  (83) 
CC(CO)[N-]C(=O)n1c(C(N)=O)cc2ccc(C(F)(F)F)cc21 (protonated)
C[C@@H](CO)[N-]C(=O)n1c(C(N)=O)cc2ccc(C(F)(F)F)cc21 (chirality)
C[C@@H](CO)[N-]C(=O)n1c(C(N)=O)cc2ccc(C(F)(F)F)cc21 (3D coordinates assigned)
C[C@@H](CO)[N-]C(=O)n1c(C(N)=O)cc2ccc(C(F)(F)F)cc21 (optimized conformer: 71.22349348899787 kcal/mol)

>  <smiles>  (83) 
CC(CO)NC(=O)n1c(C(N)=O)cc2ccc(C(F)(F)F)cc21

>  <score_type>  (83) 
oracle

>  <origin>  (83) 
adg

>  <m_score__min__energy>  (83) 
-9.0899999999999999

>  <m_primary>  (83) 
energy

$$$$
84:0
     RDKit          3D

 48 50  0  0  0  0  0  0  0  0999 V2000
   -1.9490   24.3780  -26.6190 C   0  0  0  0  0  0  0  0  0  0  0  0
   -1.3800   24.1120  -28.0140 C   0  0  1  0  0  0  0  0  0  0  0  0
   -1.8240   22.8450  -28.4980 O   0  0  0  0  0  0  0  0  0  0  0  0
   -3.1740   22.5060  -28.6530 C   0  0  0  0  0  0  0  0  0  0  0  0
   -4.0190   22.8110  -27.7670 O   0  0  0  0  0  0  0  0  0  0  0  0
   -3.6140   21.7320  -29.8570 C   0  0  0  0  0  0  0  0  0  0  0  0
   -4.3320   22.6070  -30.8450 C   0  0  0  0  0  0  0  0  0  0  0  0
   -3.6690   23.4040  -31.5640 O   0  0  0  0  0  0  0  0  0  0  0  0
   -5.7500   22.4850  -31.0450 N   0  0  0  0  0  0  0  0  0  0  0  0
   -6.7220   23.2960  -30.5420 C   0  0  0  0  0  0  0  0  0  0  0  0
   -6.4990   24.5480  -29.7900 C   0  0  0  0  0  0  0  0  0  0  0  0
   -5.2440   24.8280  -29.1670 N   0  0  0  0  0  0  0  0  0  0  0  0
   -7.4180   25.4070  -29.7340 O   0  0  0  0  0  0  0  0  0  0  0  0
   -7.9850   22.7930  -30.8410 C   0  0  0  0  0  0  0  0  0  0  0  0
   -7.7560   21.6380  -31.5540 C   0  0  0  0  0  0  0  0  0  0  0  0
   -8.6570   20.7200  -32.0790 C   0  0  0  0  0  0  0  0  0  0  0  0
   -8.1410   19.5840  -32.7240 C   0  0  0  0  0  0  0  0  0  0  0  0
   -6.7380   19.3700  -32.8200 C   0  0  0  0  0  0  0  0  0  0  0  0
   -6.2150   18.1870  -33.4680 N   0  0  0  0  0  0  0  0  0  0  0  0
   -4.9710   18.1580  -34.2250 C   0  0  0  0  0  0  0  0  0  0  0  0
   -4.9020   16.7750  -34.8600 C   0  0  0  0  0  0  0  0  0  0  0  0
   -5.8950   15.9150  -34.0870 C   0  0  0  0  0  0  0  0  0  0  0  0
   -6.8710   16.8870  -33.4420 C   0  0  0  0  0  0  0  0  0  0  0  0
   -5.8580   20.3320  -32.2630 C   0  0  0  0  0  0  0  0  0  0  0  0
   -6.4000   21.4690  -31.6560 C   0  0  0  0  0  0  0  0  0  0  0  0
   -1.8250   25.1840  -28.9600 C   0  0  0  0  0  0  0  0  0  0  0  0
   -2.8100   24.9940  -29.7220 O   0  0  0  0  0  0  0  0  0  0  0  0
   -1.1790   26.4140  -28.9700 O   0  0  0  0  0  0  0  0  0  0  0  0
   -1.2287   24.0413  -25.8589 H   0  0  0  0  0  0  0  0  0  0  0  0
   -2.1333   25.4556  -26.4976 H   0  0  0  0  0  0  0  0  0  0  0  0
   -2.8941   23.8284  -26.4976 H   0  0  0  0  0  0  0  0  0  0  0  0
   -0.2820   24.1098  -27.9478 H   0  0  0  0  0  0  0  0  0  0  0  0
   -2.7293   21.2955  -30.3437 H   0  0  0  0  0  0  0  0  0  0  0  0
   -4.3082   20.9457  -29.5257 H   0  0  0  0  0  0  0  0  0  0  0  0
   -4.4030   24.2410  -29.3560 H   0  0  0  0  0  0  0  0  0  0  0  0
   -5.1270   25.6930  -28.5920 H   0  0  0  0  0  0  0  0  0  0  0  0
   -8.9582   23.2260  -30.5662 H   0  0  0  0  0  0  0  0  0  0  0  0
   -9.7421   20.8781  -31.9921 H   0  0  0  0  0  0  0  0  0  0  0  0
   -8.8323   18.8487  -33.1615 H   0  0  0  0  0  0  0  0  0  0  0  0
   -4.9777   18.9362  -35.0024 H   0  0  0  0  0  0  0  0  0  0  0  0
   -4.1008   18.3507  -33.5803 H   0  0  0  0  0  0  0  0  0  0  0  0
   -5.1845   16.8262  -35.9219 H   0  0  0  0  0  0  0  0  0  0  0  0
   -3.8847   16.3588  -34.8159 H   0  0  0  0  0  0  0  0  0  0  0  0
   -6.4261   15.2356  -34.7699 H   0  0  0  0  0  0  0  0  0  0  0  0
   -5.3902   15.2899  -33.3357 H   0  0  0  0  0  0  0  0  0  0  0  0
   -7.8107   16.9211  -34.0128 H   0  0  0  0  0  0  0  0  0  0  0  0
   -7.1251   16.5831  -32.4158 H   0  0  0  0  0  0  0  0  0  0  0  0
   -4.7686   20.1865  -32.3076 H   0  0  0  0  0  0  0  0  0  0  0  0
  1  2  1  0
  2  3  1  0
  3  4  1  0
  4  5  2  0
  4  6  1  0
  6  7  1  0
  7  8  2  0
  7  9  1  0
  9 10  1  0
 10 11  1  0
 11 12  1  0
 11 13  2  0
 10 14  2  0
 14 15  1  0
 15 16  2  0
 16 17  1  0
 17 18  2  0
 18 19  1  0
 19 20  1  0
 20 21  1  0
 21 22  1  0
 22 23  1  0
 18 24  1  0
 24 25  2  0
  2 26  1  0
 26 27  2  0
 26 28  1  0
 25  9  1  0
 25 15  1  0
 23 19  1  0
  1 29  1  0
  1 30  1  0
  1 31  1  0
  2 32  1  1
  6 33  1  0
  6 34  1  0
 12 35  1  0
 12 36  1  0
 14 37  1  0
 16 38  1  0
 17 39  1  0
 20 40  1  0
 20 41  1  0
 21 42  1  0
 21 43  1  0
 22 44  1  0
 22 45  1  0
 23 46  1  0
 23 47  1  0
 24 48  1  0
M  CHG  1  28  -1
M  END
>  <UniqueID>  (84) 
84

>  <SMILES>  (84) 
C[C@@H](OC(=O)CC(=O)n1c(C(N)=O)cc2ccc(N3CCCC3)cc21)C(=O)[O-]

>  <Energy>  (84) 
83.61564348357422

>  <Genealogy>  (84) 
CC(OC(=O)CC(=O)n1c(C(N)=O)cc2ccc(N3CCCC3)cc21)C(=O)[O-] (protonated)
C[C@@H](OC(=O)CC(=O)n1c(C(N)=O)cc2ccc(N3CCCC3)cc21)C(=O)[O-] (chirality)
C[C@@H](OC(=O)CC(=O)n1c(C(N)=O)cc2ccc(N3CCCC3)cc21)C(=O)[O-] (3D coordinates assigned)
C[C@@H](OC(=O)CC(=O)n1c(C(N)=O)cc2ccc(N3CCCC3)cc21)C(=O)[O-] (nonaromatic ring conformer: 83.61564348357422 kcal/mol)

>  <smiles>  (84) 
CC(OC(=O)CC(=O)n1c(C(N)=O)cc2ccc(N3CCCC3)cc21)C(=O)O

>  <score_type>  (84) 
oracle

>  <origin>  (84) 
adg

>  <m_score__min__energy>  (84) 
-11.699999999999999

>  <m_primary>  (84) 
energy

$$$$
85:0
     RDKit          3D

 25 26  0  0  0  0  0  0  0  0999 V2000
   -7.7700   21.2140  -32.0930 N   0  0  0  0  0  0  0  0  0  0  0  0
   -6.8170   20.7930  -32.5980 C   0  0  0  0  0  0  0  0  0  0  0  0
   -5.6100   20.2610  -33.2380 C   0  0  0  0  0  0  0  0  0  0  0  0
   -4.3890   20.7320  -32.5000 C   0  0  0  0  0  0  0  0  0  0  0  0
   -3.2460   19.8990  -32.4150 C   0  0  0  0  0  0  0  0  0  0  0  0
   -2.1120   20.3110  -31.6950 C   0  0  0  0  0  0  0  0  0  0  0  0
   -2.1510   21.5550  -31.0710 C   0  0  0  0  0  0  0  0  0  0  0  0
   -1.2100   22.1810  -30.2870 C   0  0  0  0  0  0  0  0  0  0  0  0
   -1.7870   23.3930  -29.9150 C   0  0  0  0  0  0  0  0  0  0  0  0
   -1.0740   24.4250  -29.1340 C   0  0  0  0  0  0  0  0  0  0  0  0
   -1.6210   25.7310  -28.9730 N   0  0  0  0  0  0  0  0  0  0  0  0
    0.0580   24.1660  -28.6440 O   0  0  0  0  0  0  0  0  0  0  0  0
   -3.0400   23.5100  -30.4390 N   0  0  0  0  0  0  0  0  0  0  0  0
   -3.9950   24.5590  -30.2110 C   0  0  0  0  0  0  0  0  0  0  0  0
   -3.8640   25.6730  -30.7810 O   0  0  0  0  0  0  0  0  0  0  0  0
   -5.0880   24.3430  -29.3800 O   0  0  0  0  0  0  0  0  0  0  0  0
   -3.2470   22.3760  -31.1470 C   0  0  0  0  0  0  0  0  0  0  0  0
   -4.3970   21.9830  -31.8440 C   0  0  0  0  0  0  0  0  0  0  0  0
   -5.6437   19.1616  -33.2229 H   0  0  0  0  0  0  0  0  0  0  0  0
   -5.5645   20.6177  -34.2776 H   0  0  0  0  0  0  0  0  0  0  0  0
   -3.2464   18.9205  -32.9175 H   0  0  0  0  0  0  0  0  0  0  0  0
   -1.2205   19.6702  -31.6264 H   0  0  0  0  0  0  0  0  0  0  0  0
   -0.2136   21.8045  -30.0122 H   0  0  0  0  0  0  0  0  0  0  0  0
   -2.6540   25.8850  -28.9790 H   0  0  0  0  0  0  0  0  0  0  0  0
   -5.2841   22.6324  -31.8795 H   0  0  0  0  0  0  0  0  0  0  0  0
  1  2  3  0
  2  3  1  0
  3  4  1  0
  4  5  2  0
  5  6  1  0
  6  7  2  0
  7  8  1  0
  8  9  2  0
  9 10  1  0
 10 11  1  0
 10 12  2  0
  9 13  1  0
 13 14  1  0
 14 15  2  0
 14 16  1  0
 13 17  1  0
 17 18  2  0
 18  4  1  0
 17  7  1  0
  3 19  1  0
  3 20  1  0
  5 21  1  0
  6 22  1  0
  8 23  1  0
 11 24  1  0
 18 25  1  0
M  CHG  2  11  -1  16  -1
M  END
>  <UniqueID>  (85) 
85

>  <SMILES>  (85) 
N#CCc1ccc2cc(C([NH-])=O)n(C(=O)[O-])c2c1

>  <Energy>  (85) 
63.60280389827821

>  <Genealogy>  (85) 
N#CCc1ccc2cc(C([NH-])=O)n(C(=O)[O-])c2c1 (protonated)
N#CCc1ccc2cc(C([NH-])=O)n(C(=O)[O-])c2c1 (3D coordinates assigned)
N#CCc1ccc2cc(C([NH-])=O)n(C(=O)[O-])c2c1 (optimized conformer: 63.60280389827821 kcal/mol)

>  <smiles>  (85) 
N#CCc1ccc2cc(C(N)=O)n(C(=O)O)c2c1

>  <score_type>  (85) 
oracle

>  <origin>  (85) 
adg

>  <m_score__min__energy>  (85) 
-10.300000000000001

>  <m_primary>  (85) 
energy

$$$$
86:0
     RDKit          3D

 40 41  0  0  0  0  0  0  0  0999 V2000
   -3.3620   24.1680  -27.4330 C   0  0  0  0  0  0  0  0  0  0  0  0
   -1.9620   24.0610  -28.0610 C   0  0  0  0  0  0  0  0  0  0  0  0
   -1.1470   23.0260  -27.2560 C   0  0  0  0  0  0  0  0  0  0  0  0
   -1.2980   25.4570  -28.0170 C   0  0  0  0  0  0  0  0  0  0  0  0
   -1.2510   26.0410  -29.2890 O   0  0  0  0  0  0  0  0  0  0  0  0
   -2.1430   23.6180  -29.4500 N   0  0  0  0  0  0  0  0  0  0  0  0
   -2.8380   22.4560  -29.9240 C   0  0  0  0  0  0  0  0  0  0  0  0
   -2.8620   21.3940  -29.2470 O   0  0  0  0  0  0  0  0  0  0  0  0
   -3.5330   22.5090  -31.2180 C   0  0  0  0  0  0  0  0  0  0  0  0
   -2.8780   22.3560  -32.2840 O   0  0  0  0  0  0  0  0  0  0  0  0
   -4.9560   22.6880  -31.2820 N   0  0  0  0  0  0  0  0  0  0  0  0
   -5.6900   23.7550  -30.8570 C   0  0  0  0  0  0  0  0  0  0  0  0
   -5.1470   25.0340  -30.3490 C   0  0  0  0  0  0  0  0  0  0  0  0
   -3.9230   25.5620  -30.8500 N   0  0  0  0  0  0  0  0  0  0  0  0
   -5.7920   25.6860  -29.4850 O   0  0  0  0  0  0  0  0  0  0  0  0
   -7.0510   23.5110  -31.0360 C   0  0  0  0  0  0  0  0  0  0  0  0
   -7.1260   22.2560  -31.5970 C   0  0  0  0  0  0  0  0  0  0  0  0
   -8.2340   21.5140  -31.9940 C   0  0  0  0  0  0  0  0  0  0  0  0
   -8.0130   20.2380  -32.5390 C   0  0  0  0  0  0  0  0  0  0  0  0
   -6.6970   19.7180  -32.6580 C   0  0  0  0  0  0  0  0  0  0  0  0
   -6.4710   18.3650  -33.2830 C   0  0  0  0  0  0  0  0  0  0  0  0
   -7.6120   17.5870  -33.1900 F   0  0  0  0  0  0  0  0  0  0  0  0
   -5.4350   17.7270  -32.6240 F   0  0  0  0  0  0  0  0  0  0  0  0
   -6.1420   18.4930  -34.6210 F   0  0  0  0  0  0  0  0  0  0  0  0
   -5.5960   20.5140  -32.2650 C   0  0  0  0  0  0  0  0  0  0  0  0
   -5.8480   21.7830  -31.7360 C   0  0  0  0  0  0  0  0  0  0  0  0
   -3.2735   24.1612  -26.3366 H   0  0  0  0  0  0  0  0  0  0  0  0
   -3.8384   25.1052  -27.7566 H   0  0  0  0  0  0  0  0  0  0  0  0
   -3.9753   23.3141  -27.7566 H   0  0  0  0  0  0  0  0  0  0  0  0
   -1.2880   23.2050  -26.1799 H   0  0  0  0  0  0  0  0  0  0  0  0
   -1.4918   22.0121  -27.5073 H   0  0  0  0  0  0  0  0  0  0  0  0
   -0.0805   23.1234  -27.5073 H   0  0  0  0  0  0  0  0  0  0  0  0
   -1.8773   26.1078  -27.3456 H   0  0  0  0  0  0  0  0  0  0  0  0
   -0.2670   25.3385  -27.6522 H   0  0  0  0  0  0  0  0  0  0  0  0
   -2.0200   25.6700  -29.7930 H   0  0  0  0  0  0  0  0  0  0  0  0
   -3.0090   25.3020  -30.4200 H   0  0  0  0  0  0  0  0  0  0  0  0
   -7.8872   24.1793  -30.7828 H   0  0  0  0  0  0  0  0  0  0  0  0
   -9.2527   21.9144  -31.8844 H   0  0  0  0  0  0  0  0  0  0  0  0
   -8.8687   19.6352  -32.8772 H   0  0  0  0  0  0  0  0  0  0  0  0
   -4.5660   20.1433  -32.3731 H   0  0  0  0  0  0  0  0  0  0  0  0
  1  2  1  0
  2  3  1  0
  2  4  1  0
  4  5  1  0
  2  6  1  0
  6  7  1  0
  7  8  2  0
  7  9  1  0
  9 10  2  0
  9 11  1  0
 11 12  1  0
 12 13  1  0
 13 14  1  0
 13 15  2  0
 12 16  2  0
 16 17  1  0
 17 18  2  0
 18 19  1  0
 19 20  2  0
 20 21  1  0
 21 22  1  0
 21 23  1  0
 21 24  1  0
 20 25  1  0
 25 26  2  0
 26 11  1  0
 26 17  1  0
  1 27  1  0
  1 28  1  0
  1 29  1  0
  3 30  1  0
  3 31  1  0
  3 32  1  0
  4 33  1  0
  4 34  1  0
  5 35  1  0
 14 36  1  0
 16 37  1  0
 18 38  1  0
 19 39  1  0
 25 40  1  0
M  CHG  2   6  -1  14  -1
M  END
>  <UniqueID>  (86) 
86

>  <SMILES>  (86) 
CC(C)(CO)[N-]C(=O)C(=O)n1c(C([NH-])=O)cc2ccc(C(F)(F)F)cc21

>  <Energy>  (86) 
76.44721837645407

>  <Genealogy>  (86) 
CC(C)(CO)[N-]C(=O)C(=O)n1c(C([NH-])=O)cc2ccc(C(F)(F)F)cc21 (protonated)
CC(C)(CO)[N-]C(=O)C(=O)n1c(C([NH-])=O)cc2ccc(C(F)(F)F)cc21 (3D coordinates assigned)
CC(C)(CO)[N-]C(=O)C(=O)n1c(C([NH-])=O)cc2ccc(C(F)(F)F)cc21 (optimized conformer: 76.44721837645407 kcal/mol)

>  <smiles>  (86) 
CC(C)(CO)NC(=O)C(=O)n1c(C(N)=O)cc2ccc(C(F)(F)F)cc21

>  <score_type>  (86) 
oracle

>  <origin>  (86) 
adg

>  <m_score__min__energy>  (86) 
-11.539999999999999

>  <m_primary>  (86) 
energy

$$$$
87:0
     RDKit          3D

 41 43  0  0  0  0  0  0  0  0999 V2000
   -4.2450   25.5560  -30.5430 N   0  0  0  0  0  0  0  0  0  0  0  0
   -5.5540   25.1020  -30.1940 C   0  0  0  0  0  0  0  0  0  0  0  0
   -6.2600   25.8060  -29.4230 O   0  0  0  0  0  0  0  0  0  0  0  0
   -6.0690   23.8060  -30.6990 C   0  0  0  0  0  0  0  0  0  0  0  0
   -7.4200   23.5200  -30.9070 C   0  0  0  0  0  0  0  0  0  0  0  0
   -7.4470   22.2610  -31.4680 C   0  0  0  0  0  0  0  0  0  0  0  0
   -8.5250   21.4870  -31.8870 C   0  0  0  0  0  0  0  0  0  0  0  0
   -8.2550   20.2170  -32.4320 C   0  0  0  0  0  0  0  0  0  0  0  0
   -6.9220   19.7370  -32.5220 C   0  0  0  0  0  0  0  0  0  0  0  0
   -6.6340   18.3910  -33.1430 C   0  0  0  0  0  0  0  0  0  0  0  0
   -7.7150   17.5460  -33.0000 F   0  0  0  0  0  0  0  0  0  0  0  0
   -5.5380   17.8260  -32.5200 F   0  0  0  0  0  0  0  0  0  0  0  0
   -6.3670   18.5200  -34.4900 F   0  0  0  0  0  0  0  0  0  0  0  0
   -5.8540   20.5610  -32.1000 C   0  0  0  0  0  0  0  0  0  0  0  0
   -6.1540   21.8260  -31.5830 C   0  0  0  0  0  0  0  0  0  0  0  0
   -5.2970   22.7620  -31.1190 N   0  0  0  0  0  0  0  0  0  0  0  0
   -3.8710   22.6230  -31.0280 C   0  0  0  0  0  0  0  0  0  0  0  0
   -3.1400   23.0440  -31.9650 O   0  0  0  0  0  0  0  0  0  0  0  0
   -3.2440   21.8740  -29.8860 C   0  0  0  0  0  0  0  0  0  0  0  0
   -2.8340   22.8120  -28.7400 C   0  0  2  0  0  0  0  0  0  0  0  0
   -4.0080   23.0730  -27.7560 C   0  0  0  0  0  0  0  0  0  0  0  0
   -4.1340   24.4940  -27.4070 N   0  0  0  0  0  0  0  0  0  0  0  0
   -2.8220   25.0780  -27.1190 C   0  0  0  0  0  0  0  0  0  0  0  0
   -1.8300   24.8450  -28.2810 C   0  0  0  0  0  0  0  0  0  0  0  0
   -2.3800   24.0300  -29.2980 O   0  0  0  0  0  0  0  0  0  0  0  0
   -3.6350   25.0260  -31.2060 H   0  0  0  0  0  0  0  0  0  0  0  0
   -3.8690   26.4280  -30.1140 H   0  0  0  0  0  0  0  0  0  0  0  0
   -8.2809   24.1634  -30.6727 H   0  0  0  0  0  0  0  0  0  0  0  0
   -9.5571   21.8563  -31.7952 H   0  0  0  0  0  0  0  0  0  0  0  0
   -9.0849   19.5908  -32.7914 H   0  0  0  0  0  0  0  0  0  0  0  0
   -4.8122   20.2161  -32.1762 H   0  0  0  0  0  0  0  0  0  0  0  0
   -3.9678   21.1398  -29.5026 H   0  0  0  0  0  0  0  0  0  0  0  0
   -2.3365   21.3785  -30.2614 H   0  0  0  0  0  0  0  0  0  0  0  0
   -2.0315   22.3331  -28.1599 H   0  0  0  0  0  0  0  0  0  0  0  0
   -4.9449   22.7392  -28.2259 H   0  0  0  0  0  0  0  0  0  0  0  0
   -3.8033   22.5149  -26.8305 H   0  0  0  0  0  0  0  0  0  0  0  0
   -4.5570   25.0020  -28.2190 H   0  0  0  0  0  0  0  0  0  0  0  0
   -2.9395   26.1602  -26.9611 H   0  0  0  0  0  0  0  0  0  0  0  0
   -2.4184   24.5920  -26.2185 H   0  0  0  0  0  0  0  0  0  0  0  0
   -1.5583   25.8184  -28.7153 H   0  0  0  0  0  0  0  0  0  0  0  0
   -0.9485   24.3281  -27.8739 H   0  0  0  0  0  0  0  0  0  0  0  0
  1  2  1  0
  2  3  2  0
  2  4  1  0
  4  5  2  0
  5  6  1  0
  6  7  2  0
  7  8  1  0
  8  9  2  0
  9 10  1  0
 10 11  1  0
 10 12  1  0
 10 13  1  0
  9 14  1  0
 14 15  2  0
 15 16  1  0
 16 17  1  0
 17 18  2  0
 17 19  1  0
 19 20  1  0
 20 21  1  0
 21 22  1  0
 22 23  1  0
 23 24  1  0
 24 25  1  0
 16  4  1  0
 25 20  1  0
 15  6  1  0
  1 26  1  0
  1 27  1  0
  5 28  1  0
  7 29  1  0
  8 30  1  0
 14 31  1  0
 19 32  1  0
 19 33  1  0
 20 34  1  1
 21 35  1  0
 21 36  1  0
 22 37  1  0
 23 38  1  0
 23 39  1  0
 24 40  1  0
 24 41  1  0
M  END
>  <UniqueID>  (87) 
87

>  <SMILES>  (87) 
NC(=O)c1cc2ccc(C(F)(F)F)cc2n1C(=O)C[C@@H]1CNCCO1

>  <Energy>  (87) 
87.86496894112423

>  <Genealogy>  (87) 
NC(=O)c1cc2ccc(C(F)(F)F)cc2n1C(=O)C[C@@H]1CNCCO1 (3D coordinates assigned)
NC(=O)c1cc2ccc(C(F)(F)F)cc2n1C(=O)C[C@@H]1CNCCO1 (nonaromatic ring conformer: 87.86496894112423 kcal/mol)

>  <smiles>  (87) 
NC(=O)c1cc2ccc(C(F)(F)F)cc2n1C(=O)C[C@@H]1CNCCO1

>  <score_type>  (87) 
oracle

>  <origin>  (87) 
adg

>  <m_score__min__energy>  (87) 
-9.3100000000000005

>  <m_primary>  (87) 
energy

$$$$
88:0
     RDKit          3D

 46 48  0  0  0  0  0  0  0  0999 V2000
   -0.3540   27.4920  -26.5000 C   0  0  0  0  0  0  0  0  0  0  0  0
   -0.6900   26.4130  -27.4980 C   0  0  0  0  0  0  0  0  0  0  0  0
   -1.1130   26.7680  -28.5900 O   0  0  0  0  0  0  0  0  0  0  0  0
   -0.5130   24.9880  -27.2450 N   0  0  0  0  0  0  0  0  0  0  0  0
   -0.1980   24.1490  -28.4280 C   0  0  0  0  0  0  0  0  0  0  0  0
   -1.4210   23.7930  -29.2970 C   0  0  0  0  0  0  0  0  0  0  0  0
   -2.5690   23.4110  -28.4690 N   0  0  0  0  0  0  0  0  0  0  0  0
   -3.4920   22.3920  -28.9000 C   0  0  0  0  0  0  0  0  0  0  0  0
   -4.0230   21.6380  -28.0400 O   0  0  0  0  0  0  0  0  0  0  0  0
   -3.8450   22.2080  -30.3210 C   0  0  0  0  0  0  0  0  0  0  0  0
   -2.9970   21.7700  -31.1430 O   0  0  0  0  0  0  0  0  0  0  0  0
   -5.1600   22.5370  -30.7810 N   0  0  0  0  0  0  0  0  0  0  0  0
   -5.7700   23.7540  -30.7710 C   0  0  0  0  0  0  0  0  0  0  0  0
   -5.1710   25.0180  -30.2930 C   0  0  0  0  0  0  0  0  0  0  0  0
   -3.7930   25.3080  -30.5110 N   0  0  0  0  0  0  0  0  0  0  0  0
   -5.8880   25.8600  -29.6890 O   0  0  0  0  0  0  0  0  0  0  0  0
   -7.0600   23.6510  -31.2950 C   0  0  0  0  0  0  0  0  0  0  0  0
   -7.2140   22.3220  -31.6280 C   0  0  0  0  0  0  0  0  0  0  0  0
   -8.2950   21.6550  -32.1940 C   0  0  0  0  0  0  0  0  0  0  0  0
   -8.1680   20.2740  -32.4260 C   0  0  0  0  0  0  0  0  0  0  0  0
   -6.9780   19.5830  -32.0790 C   0  0  0  0  0  0  0  0  0  0  0  0
   -6.8580   18.1110  -32.3760 C   0  0  0  0  0  0  0  0  0  0  0  0
   -8.1140   17.5350  -32.3380 F   0  0  0  0  0  0  0  0  0  0  0  0
   -6.0500   17.4980  -31.4330 F   0  0  0  0  0  0  0  0  0  0  0  0
   -6.3040   17.8960  -33.6280 F   0  0  0  0  0  0  0  0  0  0  0  0
   -5.8940   20.3030  -31.5240 C   0  0  0  0  0  0  0  0  0  0  0  0
   -6.0510   21.6740  -31.3060 C   0  0  0  0  0  0  0  0  0  0  0  0
   -2.8880   24.2320  -27.3010 C   0  0  0  0  0  0  0  0  0  0  0  0
   -1.6320   24.4330  -26.4540 C   0  0  0  0  0  0  0  0  0  0  0  0
   -0.4764   27.0990  -25.4799 H   0  0  0  0  0  0  0  0  0  0  0  0
    0.6873   27.8151  -26.6460 H   0  0  0  0  0  0  0  0  0  0  0  0
   -1.0278   28.3492  -26.6460 H   0  0  0  0  0  0  0  0  0  0  0  0
    0.3360   24.9220  -26.6320 H   0  0  0  0  0  0  0  0  0  0  0  0
    0.5231   24.6941  -29.0548 H   0  0  0  0  0  0  0  0  0  0  0  0
    0.2023   23.1994  -28.0432 H   0  0  0  0  0  0  0  0  0  0  0  0
   -1.6939   24.6668  -29.9069 H   0  0  0  0  0  0  0  0  0  0  0  0
   -1.1553   22.9393  -29.9377 H   0  0  0  0  0  0  0  0  0  0  0  0
   -3.4990   26.0200  -31.2160 H   0  0  0  0  0  0  0  0  0  0  0  0
   -7.7969   24.4586  -31.4164 H   0  0  0  0  0  0  0  0  0  0  0  0
   -9.2203   22.1909  -32.4521 H   0  0  0  0  0  0  0  0  0  0  0  0
   -9.0025   19.7217  -32.8827 H   0  0  0  0  0  0  0  0  0  0  0  0
   -4.9512   19.7961  -31.2705 H   0  0  0  0  0  0  0  0  0  0  0  0
   -3.2650   25.2103  -27.6337 H   0  0  0  0  0  0  0  0  0  0  0  0
   -3.6564   23.7254  -26.6985 H   0  0  0  0  0  0  0  0  0  0  0  0
   -1.8648   25.1269  -25.6328 H   0  0  0  0  0  0  0  0  0  0  0  0
   -1.3212   23.4505  -26.0690 H   0  0  0  0  0  0  0  0  0  0  0  0
  1  2  1  0
  2  3  2  0
  2  4  1  0
  4  5  1  0
  5  6  1  0
  6  7  1  0
  7  8  1  0
  8  9  2  0
  8 10  1  0
 10 11  2  0
 10 12  1  0
 12 13  1  0
 13 14  1  0
 14 15  1  0
 14 16  2  0
 13 17  2  0
 17 18  1  0
 18 19  2  0
 19 20  1  0
 20 21  2  0
 21 22  1  0
 22 23  1  0
 22 24  1  0
 22 25  1  0
 21 26  1  0
 26 27  2  0
  7 28  1  0
 28 29  1  0
 29  4  1  0
 27 12  1  0
 27 18  1  0
  1 30  1  0
  1 31  1  0
  1 32  1  0
  4 33  1  0
  5 34  1  0
  5 35  1  0
  6 36  1  0
  6 37  1  0
 15 38  1  0
 17 39  1  0
 19 40  1  0
 20 41  1  0
 26 42  1  0
 28 43  1  0
 28 44  1  0
 29 45  1  0
 29 46  1  0
M  CHG  2   4   1  15  -1
M  END
>  <UniqueID>  (88) 
88

>  <SMILES>  (88) 
CC(=O)[NH+]1CCN(C(=O)C(=O)n2c(C([NH-])=O)cc3ccc(C(F)(F)F)cc32)CC1

>  <Energy>  (88) 
98.87888516343328

>  <Genealogy>  (88) 
CC(=O)[NH+]1CCN(C(=O)C(=O)n2c(C([NH-])=O)cc3ccc(C(F)(F)F)cc32)CC1 (protonated)
CC(=O)[NH+]1CCN(C(=O)C(=O)n2c(C([NH-])=O)cc3ccc(C(F)(F)F)cc32)CC1 (3D coordinates assigned)
CC(=O)[NH+]1CCN(C(=O)C(=O)n2c(C([NH-])=O)cc3ccc(C(F)(F)F)cc32)CC1 (nonaromatic ring conformer: 98.87888516343328 kcal/mol)

>  <smiles>  (88) 
CC(=O)N1CCN(C(=O)C(=O)n2c(C(N)=O)cc3ccc(C(F)(F)F)cc32)CC1

>  <score_type>  (88) 
oracle

>  <origin>  (88) 
adg

>  <m_score__min__energy>  (88) 
-10.19

>  <m_primary>  (88) 
energy

$$$$
89:0
     RDKit          3D

 48 50  0  0  0  0  0  0  0  0999 V2000
   -4.2620   15.2680  -34.7830 C   0  0  0  0  0  0  0  0  0  0  0  0
   -3.8580   16.5110  -34.1040 N   0  0  0  0  0  0  0  0  0  0  0  0
   -4.2030   17.7250  -34.8560 C   0  0  0  0  0  0  0  0  0  0  0  0
   -5.7160   17.9860  -34.9500 C   0  0  0  0  0  0  0  0  0  0  0  0
   -6.5850   17.4140  -33.7960 C   0  0  0  0  0  0  0  0  0  0  0  0
   -7.5750   18.4010  -33.3370 N   0  0  0  0  0  0  0  0  0  0  0  0
   -7.2930   19.6590  -32.6870 C   0  0  0  0  0  0  0  0  0  0  0  0
   -8.3260   20.5300  -32.2440 C   0  0  0  0  0  0  0  0  0  0  0  0
   -8.0210   21.7450  -31.6080 C   0  0  0  0  0  0  0  0  0  0  0  0
   -6.6820   22.0720  -31.4300 C   0  0  0  0  0  0  0  0  0  0  0  0
   -6.1050   23.1710  -30.8350 C   0  0  0  0  0  0  0  0  0  0  0  0
   -4.7310   22.9670  -30.9360 C   0  0  0  0  0  0  0  0  0  0  0  0
   -3.7220   23.9500  -30.4910 C   0  0  0  0  0  0  0  0  0  0  0  0
   -3.8980   25.3330  -30.7870 N   0  0  0  0  0  0  0  0  0  0  0  0
   -2.6890   23.5760  -29.8750 O   0  0  0  0  0  0  0  0  0  0  0  0
   -4.4700   21.7840  -31.5600 N   0  0  0  0  0  0  0  0  0  0  0  0
   -3.1950   21.1710  -31.8070 C   0  0  0  0  0  0  0  0  0  0  0  0
   -2.6690   20.4600  -30.9100 O   0  0  0  0  0  0  0  0  0  0  0  0
   -2.4180   21.5240  -33.0450 C   0  0  0  0  0  0  0  0  0  0  0  0
   -1.0420   20.3670  -33.3480 P   0  0  2  0  0  0  0  0  0  0  0  0
    0.1250   20.7200  -32.4550 O   0  0  0  0  0  0  0  0  0  0  0  0
   -0.5620   20.4890  -34.9650 O   0  0  0  0  0  0  0  0  0  0  0  0
   -1.5360   18.7800  -33.0290 O   0  0  0  0  0  0  0  0  0  0  0  0
   -5.6730   21.2520  -31.8600 C   0  0  0  0  0  0  0  0  0  0  0  0
   -5.9450   20.0320  -32.4850 C   0  0  0  0  0  0  0  0  0  0  0  0
   -5.8600   16.7460  -32.5950 C   0  0  0  0  0  0  0  0  0  0  0  0
   -4.3340   16.6000  -32.7170 C   0  0  0  0  0  0  0  0  0  0  0  0
   -4.5104   14.5039  -34.0317 H   0  0  0  0  0  0  0  0  0  0  0  0
   -5.1428   15.4635  -35.4122 H   0  0  0  0  0  0  0  0  0  0  0  0
   -3.4345   14.9083  -35.4122 H   0  0  0  0  0  0  0  0  0  0  0  0
   -3.7323   18.5864  -34.3595 H   0  0  0  0  0  0  0  0  0  0  0  0
   -3.8375   17.5810  -35.8835 H   0  0  0  0  0  0  0  0  0  0  0  0
   -5.8675   19.0752  -34.9757 H   0  0  0  0  0  0  0  0  0  0  0  0
   -6.0491   17.4603  -35.8570 H   0  0  0  0  0  0  0  0  0  0  0  0
   -7.0812   16.5581  -34.2769 H   0  0  0  0  0  0  0  0  0  0  0  0
   -8.5800   18.1600  -33.5020 H   0  0  0  0  0  0  0  0  0  0  0  0
   -9.3777   20.2488  -32.4013 H   0  0  0  0  0  0  0  0  0  0  0  0
   -8.8189   22.4180  -31.2610 H   0  0  0  0  0  0  0  0  0  0  0  0
   -6.6198   24.0284  -30.3770 H   0  0  0  0  0  0  0  0  0  0  0  0
   -3.9020   26.0480  -30.0260 H   0  0  0  0  0  0  0  0  0  0  0  0
   -3.0982   21.4995  -33.9091 H   0  0  0  0  0  0  0  0  0  0  0  0
   -1.9901   22.5270  -32.9005 H   0  0  0  0  0  0  0  0  0  0  0  0
   -2.1130   18.8520  -32.2270 H   0  0  0  0  0  0  0  0  0  0  0  0
   -5.1260   19.3751  -32.8132 H   0  0  0  0  0  0  0  0  0  0  0  0
   -6.0685   17.3498  -31.6995 H   0  0  0  0  0  0  0  0  0  0  0  0
   -6.2507   15.7187  -32.5506 H   0  0  0  0  0  0  0  0  0  0  0  0
   -3.8626   17.4739  -32.2435 H   0  0  0  0  0  0  0  0  0  0  0  0
   -4.0609   15.6562  -32.2224 H   0  0  0  0  0  0  0  0  0  0  0  0
  1  2  1  0
  2  3  1  0
  3  4  1  0
  4  5  1  0
  5  6  1  0
  6  7  1  0
  7  8  2  0
  8  9  1  0
  9 10  2  0
 10 11  1  0
 11 12  2  0
 12 13  1  0
 13 14  1  0
 13 15  2  0
 12 16  1  0
 16 17  1  0
 17 18  2  0
 17 19  1  0
 19 20  1  0
 20 21  2  0
 20 22  1  6
 20 23  1  0
 16 24  1  0
 24 25  2  0
  5 26  1  0
 26 27  1  0
 27  2  1  0
 25  7  1  0
 24 10  1  0
  1 28  1  0
  1 29  1  0
  1 30  1  0
  3 31  1  0
  3 32  1  0
  4 33  1  0
  4 34  1  0
  5 35  1  0
  6 36  1  0
  8 37  1  0
  9 38  1  0
 11 39  1  0
 14 40  1  0
 19 41  1  0
 19 42  1  0
 23 43  1  0
 25 44  1  0
 26 45  1  0
 26 46  1  0
 27 47  1  0
 27 48  1  0
M  CHG  2  14  -1  22  -1
M  END
>  <UniqueID>  (89) 
89

>  <SMILES>  (89) 
CN1CCC(Nc2ccc3cc(C([NH-])=O)n(C(=O)C[P@](=O)([O-])O)c3c2)CC1

>  <Energy>  (89) 
99.53442101544552

>  <Genealogy>  (89) 
CN1CCC(Nc2ccc3cc(C([NH-])=O)n(C(=O)CP(=O)([O-])O)c3c2)CC1 (protonated)
CN1CCC(Nc2ccc3cc(C([NH-])=O)n(C(=O)C[P@](=O)([O-])O)c3c2)CC1 (chirality)
CN1CCC(Nc2ccc3cc(C([NH-])=O)n(C(=O)C[P@](=O)([O-])O)c3c2)CC1 (3D coordinates assigned)
CN1CCC(Nc2ccc3cc(C([NH-])=O)n(C(=O)C[P@](=O)([O-])O)c3c2)CC1 (nonaromatic ring conformer: 99.53442101544552 kcal/mol)

>  <smiles>  (89) 
CN1CCC(Nc2ccc3cc(C(N)=O)n(C(=O)CP(=O)(O)O)c3c2)CC1

>  <score_type>  (89) 
oracle

>  <origin>  (89) 
adg

>  <m_score__min__energy>  (89) 
-12.84

>  <m_primary>  (89) 
energy

$$$$
90:0
     RDKit          3D

 34 35  0  0  0  0  0  0  0  0999 V2000
   -3.9590   24.5350  -27.0820 C   0  0  0  0  0  0  0  0  0  0  0  0
   -3.3120   23.5710  -27.7390 C   0  0  0  0  0  0  0  0  0  0  0  0
   -4.0660   22.4500  -28.4040 C   0  0  0  0  0  0  0  0  0  0  0  0
   -3.3310   21.9040  -29.6340 C   0  0  0  0  0  0  0  0  0  0  0  0
   -3.8860   22.4810  -30.9060 C   0  0  0  0  0  0  0  0  0  0  0  0
   -3.1170   22.7090  -31.8780 O   0  0  0  0  0  0  0  0  0  0  0  0
   -5.2740   22.8280  -31.0020 N   0  0  0  0  0  0  0  0  0  0  0  0
   -5.8360   24.0590  -30.8420 C   0  0  0  0  0  0  0  0  0  0  0  0
   -5.1130   25.3010  -30.4950 C   0  0  0  0  0  0  0  0  0  0  0  0
   -3.6880   25.3010  -30.4410 N   0  0  0  0  0  0  0  0  0  0  0  0
   -5.7390   26.3660  -30.2520 O   0  0  0  0  0  0  0  0  0  0  0  0
   -7.2170   23.9890  -31.0220 C   0  0  0  0  0  0  0  0  0  0  0  0
   -7.4820   22.6670  -31.3040 C   0  0  0  0  0  0  0  0  0  0  0  0
   -8.6860   22.0370  -31.6010 C   0  0  0  0  0  0  0  0  0  0  0  0
   -8.6570   20.6640  -31.8920 C   0  0  0  0  0  0  0  0  0  0  0  0
   -7.4350   19.9430  -31.8750 C   0  0  0  0  0  0  0  0  0  0  0  0
   -7.4080   18.4830  -32.2520 C   0  0  0  0  0  0  0  0  0  0  0  0
   -6.9690   18.3250  -33.5550 F   0  0  0  0  0  0  0  0  0  0  0  0
   -8.6710   17.9290  -32.1500 F   0  0  0  0  0  0  0  0  0  0  0  0
   -6.5500   17.8100  -31.4030 F   0  0  0  0  0  0  0  0  0  0  0  0
   -6.2290   20.6260  -31.5950 C   0  0  0  0  0  0  0  0  0  0  0  0
   -6.2920   21.9890  -31.2880 C   0  0  0  0  0  0  0  0  0  0  0  0
   -3.3943   25.3474  -26.6012 H   0  0  0  0  0  0  0  0  0  0  0  0
   -5.0572   24.5175  -27.0210 H   0  0  0  0  0  0  0  0  0  0  0  0
   -2.2137   23.5953  -27.7957 H   0  0  0  0  0  0  0  0  0  0  0  0
   -4.1976   21.6332  -27.6790 H   0  0  0  0  0  0  0  0  0  0  0  0
   -5.0346   22.8486  -28.7401 H   0  0  0  0  0  0  0  0  0  0  0  0
   -2.2649   22.1641  -29.5584 H   0  0  0  0  0  0  0  0  0  0  0  0
   -3.4658   20.8126  -29.6614 H   0  0  0  0  0  0  0  0  0  0  0  0
   -3.1260   24.7660  -31.1390 H   0  0  0  0  0  0  0  0  0  0  0  0
   -7.9410   24.8143  -30.9534 H   0  0  0  0  0  0  0  0  0  0  0  0
   -9.6323   22.5977  -31.6077 H   0  0  0  0  0  0  0  0  0  0  0  0
   -9.5932   20.1406  -32.1362 H   0  0  0  0  0  0  0  0  0  0  0  0
   -5.2643   20.0979  -31.6181 H   0  0  0  0  0  0  0  0  0  0  0  0
  1  2  2  0
  2  3  1  0
  3  4  1  0
  4  5  1  0
  5  6  2  0
  5  7  1  0
  7  8  1  0
  8  9  1  0
  9 10  1  0
  9 11  2  0
  8 12  2  0
 12 13  1  0
 13 14  2  0
 14 15  1  0
 15 16  2  0
 16 17  1  0
 17 18  1  0
 17 19  1  0
 17 20  1  0
 16 21  1  0
 21 22  2  0
 22  7  1  0
 22 13  1  0
  1 23  1  0
  1 24  1  0
  2 25  1  0
  3 26  1  0
  3 27  1  0
  4 28  1  0
  4 29  1  0
 10 30  1  0
 12 31  1  0
 14 32  1  0
 15 33  1  0
 21 34  1  0
M  CHG  1  10  -1
M  END
>  <UniqueID>  (90) 
90

>  <SMILES>  (90) 
C=CCCC(=O)n1c(C([NH-])=O)cc2ccc(C(F)(F)F)cc21

>  <Energy>  (90) 
68.40948825062735

>  <Genealogy>  (90) 
C=CCCC(=O)n1c(C([NH-])=O)cc2ccc(C(F)(F)F)cc21 (protonated)
C=CCCC(=O)n1c(C([NH-])=O)cc2ccc(C(F)(F)F)cc21 (3D coordinates assigned)
C=CCCC(=O)n1c(C([NH-])=O)cc2ccc(C(F)(F)F)cc21 (optimized conformer: 68.40948825062735 kcal/mol)

>  <smiles>  (90) 
C=CCCC(=O)n1c(C(N)=O)cc2ccc(C(F)(F)F)cc21

>  <score_type>  (90) 
oracle

>  <origin>  (90) 
adg

>  <m_score__min__energy>  (90) 
-10.119999999999999

>  <m_primary>  (90) 
energy

$$$$
91:0
     RDKit          3D

 41 43  0  0  0  0  0  0  0  0999 V2000
   -6.6500   17.4510  -32.7680 C   0  0  0  0  0  0  0  0  0  0  0  0
   -8.0080   18.0820  -32.4790 C   0  0  0  0  0  0  0  0  0  0  0  0
   -7.8590   19.5440  -32.1600 C   0  0  0  0  0  0  0  0  0  0  0  0
   -8.9530   20.4260  -32.3410 C   0  0  0  0  0  0  0  0  0  0  0  0
   -8.8320   21.7900  -32.0270 C   0  0  0  0  0  0  0  0  0  0  0  0
   -7.6150   22.2380  -31.5220 C   0  0  0  0  0  0  0  0  0  0  0  0
   -7.2200   23.5040  -31.1540 C   0  0  0  0  0  0  0  0  0  0  0  0
   -5.9000   23.3700  -30.7250 C   0  0  0  0  0  0  0  0  0  0  0  0
   -5.1010   24.4750  -30.1550 C   0  0  0  0  0  0  0  0  0  0  0  0
   -5.3190   24.9150  -28.8140 N   0  0  0  0  0  0  0  0  0  0  0  0
   -4.1970   25.0200  -30.8420 O   0  0  0  0  0  0  0  0  0  0  0  0
   -5.4950   22.0720  -30.8290 N   0  0  0  0  0  0  0  0  0  0  0  0
   -4.1900   21.5260  -30.5570 C   0  0  0  0  0  0  0  0  0  0  0  0
   -3.8520   21.3080  -29.3620 O   0  0  0  0  0  0  0  0  0  0  0  0
   -3.2340   21.2070  -31.6630 C   0  0  0  0  0  0  0  0  0  0  0  0
   -3.7510   20.3570  -32.6540 C   0  0  0  0  0  0  0  0  0  0  0  0
   -3.1450   19.8230  -33.7820 C   0  0  0  0  0  0  0  0  0  0  0  0
   -1.8390   19.9660  -34.2140 C   0  0  0  0  0  0  0  0  0  0  0  0
   -0.8310   20.7160  -33.6390 C   0  0  0  0  0  0  0  0  0  0  0  0
   -0.8830   21.5330  -32.5180 C   0  0  0  0  0  0  0  0  0  0  0  0
   -1.9400   21.7910  -31.6280 C   0  0  0  0  0  0  0  0  0  0  0  0
   -1.7030   22.6570  -30.6860 N   0  0  0  0  0  0  0  0  0  0  0  0
   -6.5570   21.3920  -31.3150 C   0  0  0  0  0  0  0  0  0  0  0  0
   -6.6420   20.0330  -31.6340 C   0  0  0  0  0  0  0  0  0  0  0  0
   -6.1453   17.2165  -31.8192 H   0  0  0  0  0  0  0  0  0  0  0  0
   -6.7911   16.5262  -33.3466 H   0  0  0  0  0  0  0  0  0  0  0  0
   -6.0341   18.1552  -33.3466 H   0  0  0  0  0  0  0  0  0  0  0  0
   -8.6536   17.9694  -33.3625 H   0  0  0  0  0  0  0  0  0  0  0  0
   -8.4555   17.5751  -31.6114 H   0  0  0  0  0  0  0  0  0  0  0  0
   -9.9060   20.0391  -32.7310 H   0  0  0  0  0  0  0  0  0  0  0  0
   -9.6735   22.4827  -32.1758 H   0  0  0  0  0  0  0  0  0  0  0  0
   -7.8187   24.4261  -31.1905 H   0  0  0  0  0  0  0  0  0  0  0  0
   -6.0930   24.5230  -28.2330 H   0  0  0  0  0  0  0  0  0  0  0  0
   -4.7250   25.6730  -28.4080 H   0  0  0  0  0  0  0  0  0  0  0  0
   -4.8033   20.0689  -32.5137 H   0  0  0  0  0  0  0  0  0  0  0  0
   -3.7911   19.2014  -34.4194 H   0  0  0  0  0  0  0  0  0  0  0  0
   -1.5697   19.4152  -35.1273 H   0  0  0  0  0  0  0  0  0  0  0  0
    0.1474   20.6576  -34.1383 H   0  0  0  0  0  0  0  0  0  0  0  0
    0.0531   22.0636  -32.2895 H   0  0  0  0  0  0  0  0  0  0  0  0
   -0.7920   23.1540  -30.5580 H   0  0  0  0  0  0  0  0  0  0  0  0
   -5.7839   19.3623  -31.4795 H   0  0  0  0  0  0  0  0  0  0  0  0
  1  2  1  0
  2  3  1  0
  3  4  2  0
  4  5  1  0
  5  6  2  0
  6  7  1  0
  7  8  2  0
  8  9  1  0
  9 10  1  0
  9 11  2  0
  8 12  1  0
 12 13  1  0
 13 14  2  0
 13 15  1  0
 15 16  2  0
 16 17  1  0
 17 18  2  0
 18 19  1  0
 19 20  2  0
 20 21  1  0
 21 22  2  3
 12 23  1  0
 23 24  2  0
 24  3  1  0
 23  6  1  0
 21 15  1  0
  1 25  1  0
  1 26  1  0
  1 27  1  0
  2 28  1  0
  2 29  1  0
  4 30  1  0
  5 31  1  0
  7 32  1  0
 10 33  1  0
 10 34  1  0
 16 35  1  0
 17 36  1  0
 18 37  1  0
 19 38  1  0
 20 39  1  0
 22 40  1  0
 24 41  1  0
M  END
>  <UniqueID>  (91) 
91

>  <SMILES>  (91) 
CCc1ccc2cc(C(N)=O)n(C(=O)c3cccccc3=N)c2c1

>  <Energy>  (91) 
105.338082070375

>  <Genealogy>  (91) 
CCc1ccc2cc(C(N)=O)n(C(=O)c3cccccc3=N)c2c1 (3D coordinates assigned)
CCc1ccc2cc(C(N)=O)n(C(=O)c3cccccc3=N)c2c1 (optimized conformer: 105.338082070375 kcal/mol)

>  <smiles>  (91) 
CCc1ccc2cc(C(N)=O)n(C(=O)c3cccccc3=N)c2c1

>  <score_type>  (91) 
oracle

>  <origin>  (91) 
adg

>  <m_score__min__energy>  (91) 
-10.1

>  <m_primary>  (91) 
energy

$$$$
92:0
     RDKit          3D

 37 38  0  0  0  0  0  0  0  0999 V2000
   -8.3710   18.1720  -32.0960 C   0  0  0  0  0  0  0  0  0  0  0  0
   -8.3830   19.2850  -33.0470 N   0  0  0  0  0  0  0  0  0  0  0  0
   -8.0420   20.5140  -32.3780 C   0  0  0  0  0  0  0  0  0  0  0  0
   -9.0200   21.5290  -32.2070 C   0  0  0  0  0  0  0  0  0  0  0  0
   -8.6900   22.7480  -31.5910 C   0  0  0  0  0  0  0  0  0  0  0  0
   -7.3800   22.9240  -31.1550 C   0  0  0  0  0  0  0  0  0  0  0  0
   -6.7820   24.0120  -30.5590 C   0  0  0  0  0  0  0  0  0  0  0  0
   -5.4510   23.6450  -30.3680 C   0  0  0  0  0  0  0  0  0  0  0  0
   -4.4480   24.5080  -29.7090 C   0  0  0  0  0  0  0  0  0  0  0  0
   -3.5320   25.2870  -30.4730 N   0  0  0  0  0  0  0  0  0  0  0  0
   -4.3810   24.5380  -28.4500 O   0  0  0  0  0  0  0  0  0  0  0  0
   -5.2380   22.3800  -30.8250 N   0  0  0  0  0  0  0  0  0  0  0  0
   -3.9940   21.6650  -30.8800 C   0  0  0  0  0  0  0  0  0  0  0  0
   -3.5220   21.1530  -29.8300 O   0  0  0  0  0  0  0  0  0  0  0  0
   -3.2680   21.5120  -32.1480 C   0  0  0  0  0  0  0  0  0  0  0  0
   -2.0910   21.9550  -32.2570 O   0  0  0  0  0  0  0  0  0  0  0  0
   -3.8970   20.8890  -33.2300 O   0  0  0  0  0  0  0  0  0  0  0  0
   -3.8610   19.4800  -33.4480 C   0  0  0  0  0  0  0  0  0  0  0  0
   -5.4080   18.9040  -34.2310 S   0  0  0  0  0  0  0  0  0  0  0  0
   -5.3090   17.2090  -33.5740 C   0  0  0  0  0  0  0  0  0  0  0  0
   -6.4250   21.9540  -31.3070 C   0  0  0  0  0  0  0  0  0  0  0  0
   -6.7190   20.7390  -31.9330 C   0  0  0  0  0  0  0  0  0  0  0  0
   -8.3753   18.5669  -31.0693 H   0  0  0  0  0  0  0  0  0  0  0  0
   -9.2625   17.5467  -32.2521 H   0  0  0  0  0  0  0  0  0  0  0  0
   -7.4663   17.5661  -32.2521 H   0  0  0  0  0  0  0  0  0  0  0  0
   -7.6960   19.0890  -33.8140 H   0  0  0  0  0  0  0  0  0  0  0  0
   -9.3340   19.3600  -33.4770 H   0  0  0  0  0  0  0  0  0  0  0  0
  -10.0476   21.3591  -32.5608 H   0  0  0  0  0  0  0  0  0  0  0  0
   -9.4433   23.5384  -31.4575 H   0  0  0  0  0  0  0  0  0  0  0  0
   -7.2547   24.9683  -30.2905 H   0  0  0  0  0  0  0  0  0  0  0  0
   -3.8670   26.0630  -31.0870 H   0  0  0  0  0  0  0  0  0  0  0  0
   -3.0127   19.2385  -34.1053 H   0  0  0  0  0  0  0  0  0  0  0  0
   -3.7489   18.9760  -32.4767 H   0  0  0  0  0  0  0  0  0  0  0  0
   -5.3109   17.2413  -32.4745 H   0  0  0  0  0  0  0  0  0  0  0  0
   -6.1748   16.6284  -33.9253 H   0  0  0  0  0  0  0  0  0  0  0  0
   -4.3815   16.7332  -33.9253 H   0  0  0  0  0  0  0  0  0  0  0  0
   -5.9395   19.9762  -32.0759 H   0  0  0  0  0  0  0  0  0  0  0  0
  1  2  1  0
  2  3  1  0
  3  4  2  0
  4  5  1  0
  5  6  2  0
  6  7  1  0
  7  8  2  0
  8  9  1  0
  9 10  1  0
  9 11  2  0
  8 12  1  0
 12 13  1  0
 13 14  2  0
 13 15  1  0
 15 16  2  0
 15 17  1  0
 17 18  1  0
 18 19  1  0
 19 20  1  0
 12 21  1  0
 21 22  2  0
 22  3  1  0
 21  6  1  0
  1 23  1  0
  1 24  1  0
  1 25  1  0
  2 26  1  0
  2 27  1  0
  4 28  1  0
  5 29  1  0
  7 30  1  0
 10 31  1  0
 18 32  1  0
 18 33  1  0
 20 34  1  0
 20 35  1  0
 20 36  1  0
 22 37  1  0
M  CHG  2   2   1  10  -1
M  END
>  <UniqueID>  (92) 
92

>  <SMILES>  (92) 
C[NH2+]c1ccc2cc(C([NH-])=O)n(C(=O)C(=O)OCSC)c2c1

>  <Energy>  (92) 
70.78989678745437

>  <Genealogy>  (92) 
C[NH2+]c1ccc2cc(C([NH-])=O)n(C(=O)C(=O)OCSC)c2c1 (protonated)
C[NH2+]c1ccc2cc(C([NH-])=O)n(C(=O)C(=O)OCSC)c2c1 (3D coordinates assigned)
C[NH2+]c1ccc2cc(C([NH-])=O)n(C(=O)C(=O)OCSC)c2c1 (optimized conformer: 70.78989678745437 kcal/mol)

>  <smiles>  (92) 
CNc1ccc2cc(C(N)=O)n(C(=O)C(=O)OCSC)c2c1

>  <score_type>  (92) 
oracle

>  <origin>  (92) 
adg

>  <m_score__min__energy>  (92) 
-9.3399999999999999

>  <m_primary>  (92) 
energy

$$$$
93:0
     RDKit          3D

 39 41  0  0  0  0  0  0  0  0999 V2000
   -4.2460   25.5060  -30.5850 N   0  0  0  0  0  0  0  0  0  0  0  0
   -5.5670   25.1030  -30.2220 C   0  0  0  0  0  0  0  0  0  0  0  0
   -6.2720   25.8700  -29.5130 O   0  0  0  0  0  0  0  0  0  0  0  0
   -6.0970   23.7880  -30.6370 C   0  0  0  0  0  0  0  0  0  0  0  0
   -7.4480   23.5340  -30.8620 C   0  0  0  0  0  0  0  0  0  0  0  0
   -7.4980   22.2610  -31.3790 C   0  0  0  0  0  0  0  0  0  0  0  0
   -8.5910   21.5030  -31.7870 C   0  0  0  0  0  0  0  0  0  0  0  0
   -8.3510   20.2070  -32.2700 C   0  0  0  0  0  0  0  0  0  0  0  0
   -7.0320   19.6860  -32.3240 C   0  0  0  0  0  0  0  0  0  0  0  0
   -6.7810   18.3030  -32.8710 C   0  0  0  0  0  0  0  0  0  0  0  0
   -6.4270   18.3630  -34.2080 F   0  0  0  0  0  0  0  0  0  0  0  0
   -7.9170   17.5220  -32.7590 F   0  0  0  0  0  0  0  0  0  0  0  0
   -5.7530   17.7120  -32.1590 F   0  0  0  0  0  0  0  0  0  0  0  0
   -5.9450   20.5010  -31.9330 C   0  0  0  0  0  0  0  0  0  0  0  0
   -6.2140   21.7870  -31.4540 C   0  0  0  0  0  0  0  0  0  0  0  0
   -5.3410   22.7060  -30.9820 N   0  0  0  0  0  0  0  0  0  0  0  0
   -3.9270   22.5150  -30.7950 C   0  0  0  0  0  0  0  0  0  0  0  0
   -3.1140   23.3550  -31.2650 O   0  0  0  0  0  0  0  0  0  0  0  0
   -3.3910   21.2860  -30.1150 C   0  0  0  0  0  0  0  0  0  0  0  0
   -1.6250   21.4710  -29.6860 S   0  0  0  0  0  0  0  0  0  0  0  0
   -1.8500   22.9280  -28.6570 C   0  0  0  0  0  0  0  0  0  0  0  0
   -2.9480   23.0070  -27.7930 C   0  0  0  0  0  0  0  0  0  0  0  0
   -3.1520   24.1530  -27.0180 C   0  0  0  0  0  0  0  0  0  0  0  0
   -2.2490   25.2180  -27.0950 C   0  0  0  0  0  0  0  0  0  0  0  0
   -1.1340   25.1300  -27.9350 C   0  0  0  0  0  0  0  0  0  0  0  0
   -0.9280   23.9830  -28.7080 C   0  0  0  0  0  0  0  0  0  0  0  0
   -3.8670   26.4210  -30.2540 H   0  0  0  0  0  0  0  0  0  0  0  0
   -3.6570   24.9200  -31.2170 H   0  0  0  0  0  0  0  0  0  0  0  0
   -8.2948   24.2085  -30.6674 H   0  0  0  0  0  0  0  0  0  0  0  0
   -9.6126   21.9072  -31.7327 H   0  0  0  0  0  0  0  0  0  0  0  0
   -9.1945   19.5885  -32.6104 H   0  0  0  0  0  0  0  0  0  0  0  0
   -4.9112   20.1320  -32.0039 H   0  0  0  0  0  0  0  0  0  0  0  0
   -3.9654   21.1085  -29.1938 H   0  0  0  0  0  0  0  0  0  0  0  0
   -3.4895   20.4382  -30.8089 H   0  0  0  0  0  0  0  0  0  0  0  0
   -3.6526   22.1652  -27.7233 H   0  0  0  0  0  0  0  0  0  0  0  0
   -4.0222   24.2167  -26.3482 H   0  0  0  0  0  0  0  0  0  0  0  0
   -2.4155   26.1248  -26.4951 H   0  0  0  0  0  0  0  0  0  0  0  0
   -0.4185   25.9638  -27.9876 H   0  0  0  0  0  0  0  0  0  0  0  0
   -0.0424   23.9085  -29.3562 H   0  0  0  0  0  0  0  0  0  0  0  0
  1  2  1  0
  2  3  2  0
  2  4  1  0
  4  5  2  0
  5  6  1  0
  6  7  2  0
  7  8  1  0
  8  9  2  0
  9 10  1  0
 10 11  1  0
 10 12  1  0
 10 13  1  0
  9 14  1  0
 14 15  2  0
 15 16  1  0
 16 17  1  0
 17 18  2  0
 17 19  1  0
 19 20  1  0
 20 21  1  0
 21 22  2  0
 22 23  1  0
 23 24  2  0
 24 25  1  0
 25 26  2  0
 16  4  1  0
 26 21  1  0
 15  6  1  0
  1 27  1  0
  1 28  1  0
  5 29  1  0
  7 30  1  0
  8 31  1  0
 14 32  1  0
 19 33  1  0
 19 34  1  0
 22 35  1  0
 23 36  1  0
 24 37  1  0
 25 38  1  0
 26 39  1  0
M  END
>  <UniqueID>  (93) 
93

>  <SMILES>  (93) 
NC(=O)c1cc2ccc(C(F)(F)F)cc2n1C(=O)CSc1ccccc1

>  <Energy>  (93) 
74.01613972852071

>  <Genealogy>  (93) 
NC(=O)c1cc2ccc(C(F)(F)F)cc2n1C(=O)CSc1ccccc1 (3D coordinates assigned)
NC(=O)c1cc2ccc(C(F)(F)F)cc2n1C(=O)CSc1ccccc1 (optimized conformer: 74.01613972852071 kcal/mol)

>  <smiles>  (93) 
NC(=O)c1cc2ccc(C(F)(F)F)cc2n1C(=O)CSc1ccccc1

>  <score_type>  (93) 
oracle

>  <origin>  (93) 
adg

>  <m_score__min__energy>  (93) 
-9.2100000000000009

>  <m_primary>  (93) 
energy

$$$$
94:0
     RDKit          3D

 49 51  0  0  0  0  0  0  0  0999 V2000
   -3.7200   25.1690  -30.2570 N   0  0  0  0  0  0  0  0  0  0  0  0
   -5.0640   24.6820  -30.2730 C   0  0  0  0  0  0  0  0  0  0  0  0
   -5.9560   25.3240  -29.6570 O   0  0  0  0  0  0  0  0  0  0  0  0
   -5.4140   23.4620  -31.0320 C   0  0  0  0  0  0  0  0  0  0  0  0
   -6.7230   23.0810  -31.3260 C   0  0  0  0  0  0  0  0  0  0  0  0
   -6.6160   21.8570  -31.9460 C   0  0  0  0  0  0  0  0  0  0  0  0
   -7.6060   21.0190  -32.4510 C   0  0  0  0  0  0  0  0  0  0  0  0
   -7.2040   19.8190  -33.0610 C   0  0  0  0  0  0  0  0  0  0  0  0
   -5.8320   19.4820  -33.1630 C   0  0  0  0  0  0  0  0  0  0  0  0
   -5.4340   18.2520  -33.7960 N   0  0  0  0  0  0  0  0  0  0  0  0
   -6.4850   17.2830  -34.1700 C   0  0  0  0  0  0  0  0  0  0  0  0
   -6.2270   15.8620  -33.6380 C   0  0  0  0  0  0  0  0  0  0  0  0
   -4.8080   15.6700  -33.0660 C   0  0  0  0  0  0  0  0  0  0  0  0
   -3.8160   15.5700  -34.0720 O   0  0  0  0  0  0  0  0  0  0  0  0
   -3.8010   16.7210  -34.8950 C   0  0  0  0  0  0  0  0  0  0  0  0
   -4.0110   18.0250  -34.1020 C   0  0  0  0  0  0  0  0  0  0  0  0
   -4.8570   20.3570  -32.6380 C   0  0  0  0  0  0  0  0  0  0  0  0
   -5.2840   21.5370  -32.0160 C   0  0  0  0  0  0  0  0  0  0  0  0
   -4.5330   22.5130  -31.4580 N   0  0  0  0  0  0  0  0  0  0  0  0
   -3.0970   22.5400  -31.3750 C   0  0  0  0  0  0  0  0  0  0  0  0
   -2.4030   22.2570  -32.3890 O   0  0  0  0  0  0  0  0  0  0  0  0
   -2.4870   22.8530  -30.1540 O   0  0  0  0  0  0  0  0  0  0  0  0
   -2.5910   22.0970  -28.9800 C   0  0  0  0  0  0  0  0  0  0  0  0
   -3.3790   21.1160  -28.8990 O   0  0  0  0  0  0  0  0  0  0  0  0
   -1.7170   22.4450  -27.8140 C   0  0  0  0  0  0  0  0  0  0  0  0
   -1.7340   23.9490  -27.5270 C   0  0  0  0  0  0  0  0  0  0  0  0
   -0.9110   24.7120  -28.5210 C   0  0  0  0  0  0  0  0  0  0  0  0
    0.3300   24.5230  -28.5920 O   0  0  0  0  0  0  0  0  0  0  0  0
   -1.5110   25.6560  -29.3450 O   0  0  0  0  0  0  0  0  0  0  0  0
   -2.9430   24.6320  -30.7020 H   0  0  0  0  0  0  0  0  0  0  0  0
   -3.4890   26.0510  -29.7470 H   0  0  0  0  0  0  0  0  0  0  0  0
   -7.6451   23.6400  -31.1085 H   0  0  0  0  0  0  0  0  0  0  0  0
   -8.6699   21.2879  -32.3749 H   0  0  0  0  0  0  0  0  0  0  0  0
   -7.9636   19.1331  -33.4641 H   0  0  0  0  0  0  0  0  0  0  0  0
   -7.4449   17.6371  -33.7660 H   0  0  0  0  0  0  0  0  0  0  0  0
   -6.4922   17.2211  -35.2682 H   0  0  0  0  0  0  0  0  0  0  0  0
   -6.9555   15.6504  -32.8415 H   0  0  0  0  0  0  0  0  0  0  0  0
   -6.3296   15.1731  -34.4894 H   0  0  0  0  0  0  0  0  0  0  0  0
   -4.5698   16.5299  -32.4227 H   0  0  0  0  0  0  0  0  0  0  0  0
   -4.8042   14.7243  -32.5042 H   0  0  0  0  0  0  0  0  0  0  0  0
   -2.8291   16.7740  -35.4074 H   0  0  0  0  0  0  0  0  0  0  0  0
   -4.6338   16.6292  -35.6078 H   0  0  0  0  0  0  0  0  0  0  0  0
   -3.4487   17.9633  -33.1586 H   0  0  0  0  0  0  0  0  0  0  0  0
   -3.6543   18.8632  -34.7186 H   0  0  0  0  0  0  0  0  0  0  0  0
   -3.7862   20.1177  -32.7156 H   0  0  0  0  0  0  0  0  0  0  0  0
   -2.0775   21.9076  -26.9245 H   0  0  0  0  0  0  0  0  0  0  0  0
   -0.6850   22.1525  -28.0577 H   0  0  0  0  0  0  0  0  0  0  0  0
   -2.7724   24.3090  -27.5726 H   0  0  0  0  0  0  0  0  0  0  0  0
   -1.3039   24.1125  -26.5279 H   0  0  0  0  0  0  0  0  0  0  0  0
  1  2  1  0
  2  3  2  0
  2  4  1  0
  4  5  2  0
  5  6  1  0
  6  7  2  0
  7  8  1  0
  8  9  2  0
  9 10  1  0
 10 11  1  0
 11 12  1  0
 12 13  1  0
 13 14  1  0
 14 15  1  0
 15 16  1  0
  9 17  1  0
 17 18  2  0
 18 19  1  0
 19 20  1  0
 20 21  2  0
 20 22  1  0
 22 23  1  0
 23 24  2  0
 23 25  1  0
 25 26  1  0
 26 27  1  0
 27 28  2  0
 27 29  1  0
 19  4  1  0
 18  6  1  0
 16 10  1  0
  1 30  1  0
  1 31  1  0
  5 32  1  0
  7 33  1  0
  8 34  1  0
 11 35  1  0
 11 36  1  0
 12 37  1  0
 12 38  1  0
 13 39  1  0
 13 40  1  0
 15 41  1  0
 15 42  1  0
 16 43  1  0
 16 44  1  0
 17 45  1  0
 25 46  1  0
 25 47  1  0
 26 48  1  0
 26 49  1  0
M  CHG  1  29  -1
M  END
>  <UniqueID>  (94) 
94

>  <SMILES>  (94) 
NC(=O)c1cc2ccc(N3CCCOCC3)cc2n1C(=O)OC(=O)CCC(=O)[O-]

>  <Energy>  (94) 
98.40666500099094

>  <Genealogy>  (94) 
NC(=O)c1cc2ccc(N3CCCOCC3)cc2n1C(=O)OC(=O)CCC(=O)[O-] (protonated)
NC(=O)c1cc2ccc(N3CCCOCC3)cc2n1C(=O)OC(=O)CCC(=O)[O-] (3D coordinates assigned)
NC(=O)c1cc2ccc(N3CCCOCC3)cc2n1C(=O)OC(=O)CCC(=O)[O-] (nonaromatic ring conformer: 98.40666500099094 kcal/mol)

>  <smiles>  (94) 
NC(=O)c1cc2ccc(N3CCCOCC3)cc2n1C(=O)OC(=O)CCC(=O)O

>  <score_type>  (94) 
oracle

>  <origin>  (94) 
adg

>  <m_score__min__energy>  (94) 
-9.2300000000000004

>  <m_primary>  (94) 
energy

$$$$
95:0
     RDKit          3D

 45 47  0  0  0  0  0  0  0  0999 V2000
   -6.1060   25.6760  -29.1430 N   0  0  0  0  0  0  0  0  0  0  0  0
   -5.4930   25.1160  -30.3070 C   0  0  0  0  0  0  0  0  0  0  0  0
   -4.4970   25.6960  -30.8160 O   0  0  0  0  0  0  0  0  0  0  0  0
   -5.9690   23.8450  -30.8910 C   0  0  0  0  0  0  0  0  0  0  0  0
   -7.3100   23.5760  -31.1510 C   0  0  0  0  0  0  0  0  0  0  0  0
   -7.3260   22.3140  -31.7010 C   0  0  0  0  0  0  0  0  0  0  0  0
   -8.3990   21.5390  -32.1300 C   0  0  0  0  0  0  0  0  0  0  0  0
   -8.1280   20.2490  -32.6130 C   0  0  0  0  0  0  0  0  0  0  0  0
   -6.8020   19.7500  -32.6420 C   0  0  0  0  0  0  0  0  0  0  0  0
   -6.5350   18.4240  -33.1400 N   0  0  0  0  0  0  0  0  0  0  0  0
   -5.8440   18.2550  -34.4290 C   0  0  0  0  0  0  0  0  0  0  0  0
   -5.2680   16.8390  -34.5770 C   0  0  0  0  0  0  0  0  0  0  0  0
   -4.6180   16.3860  -33.2630 C   0  0  0  0  0  0  0  0  0  0  0  0
   -5.6020   16.4050  -32.0710 C   0  0  0  0  0  0  0  0  0  0  0  0
   -6.8660   17.2370  -32.3400 C   0  0  0  0  0  0  0  0  0  0  0  0
   -5.7390   20.5710  -32.2010 C   0  0  0  0  0  0  0  0  0  0  0  0
   -6.0320   21.8610  -31.7490 C   0  0  0  0  0  0  0  0  0  0  0  0
   -5.1850   22.7940  -31.2590 N   0  0  0  0  0  0  0  0  0  0  0  0
   -3.7740   22.6450  -31.0240 C   0  0  0  0  0  0  0  0  0  0  0  0
   -3.0080   22.4030  -31.9960 O   0  0  0  0  0  0  0  0  0  0  0  0
   -3.2170   22.6560  -29.6250 C   0  0  0  0  0  0  0  0  0  0  0  0
   -1.6980   22.8870  -29.5960 C   0  0  0  0  0  0  0  0  0  0  0  0
   -1.3580   24.3100  -29.2720 C   0  0  0  0  0  0  0  0  0  0  0  0
   -0.1890   24.6180  -28.9190 O   0  0  0  0  0  0  0  0  0  0  0  0
   -2.3370   25.2930  -29.3430 O   0  0  0  0  0  0  0  0  0  0  0  0
   -5.7880   26.6020  -28.7800 H   0  0  0  0  0  0  0  0  0  0  0  0
   -6.8000   25.1340  -28.5840 H   0  0  0  0  0  0  0  0  0  0  0  0
   -8.1721   24.2314  -30.9583 H   0  0  0  0  0  0  0  0  0  0  0  0
   -9.4282   21.9253  -32.0919 H   0  0  0  0  0  0  0  0  0  0  0  0
   -8.9543   19.6184  -32.9730 H   0  0  0  0  0  0  0  0  0  0  0  0
   -6.5593   18.4371  -35.2446 H   0  0  0  0  0  0  0  0  0  0  0  0
   -5.0114   18.9726  -34.4711 H   0  0  0  0  0  0  0  0  0  0  0  0
   -6.0789   16.1434  -34.8389 H   0  0  0  0  0  0  0  0  0  0  0  0
   -4.5048   16.8452  -35.3691 H   0  0  0  0  0  0  0  0  0  0  0  0
   -4.2419   15.3604  -33.3921 H   0  0  0  0  0  0  0  0  0  0  0  0
   -3.8063   17.0922  -33.0340 H   0  0  0  0  0  0  0  0  0  0  0  0
   -5.9049   15.3705  -31.8517 H   0  0  0  0  0  0  0  0  0  0  0  0
   -5.0786   16.8718  -31.2236 H   0  0  0  0  0  0  0  0  0  0  0  0
   -7.5953   16.6221  -32.8878 H   0  0  0  0  0  0  0  0  0  0  0  0
   -7.2922   17.5609  -31.3790 H   0  0  0  0  0  0  0  0  0  0  0  0
   -4.7027   20.2024  -32.2133 H   0  0  0  0  0  0  0  0  0  0  0  0
   -3.7067   23.4607  -29.0570 H   0  0  0  0  0  0  0  0  0  0  0  0
   -3.4126   21.6690  -29.1805 H   0  0  0  0  0  0  0  0  0  0  0  0
   -1.2526   22.2318  -28.8329 H   0  0  0  0  0  0  0  0  0  0  0  0
   -1.2981   22.6587  -30.5950 H   0  0  0  0  0  0  0  0  0  0  0  0
  1  2  1  0
  2  3  2  0
  2  4  1  0
  4  5  2  0
  5  6  1  0
  6  7  2  0
  7  8  1  0
  8  9  2  0
  9 10  1  0
 10 11  1  0
 11 12  1  0
 12 13  1  0
 13 14  1  0
 14 15  1  0
  9 16  1  0
 16 17  2  0
 17 18  1  0
 18 19  1  0
 19 20  2  0
 19 21  1  0
 21 22  1  0
 22 23  1  0
 23 24  2  0
 23 25  1  0
 18  4  1  0
 17  6  1  0
 15 10  1  0
  1 26  1  0
  1 27  1  0
  5 28  1  0
  7 29  1  0
  8 30  1  0
 11 31  1  0
 11 32  1  0
 12 33  1  0
 12 34  1  0
 13 35  1  0
 13 36  1  0
 14 37  1  0
 14 38  1  0
 15 39  1  0
 15 40  1  0
 16 41  1  0
 21 42  1  0
 21 43  1  0
 22 44  1  0
 22 45  1  0
M  CHG  1  25  -1
M  END
>  <UniqueID>  (95) 
95

>  <SMILES>  (95) 
NC(=O)c1cc2ccc(N3CCCCC3)cc2n1C(=O)CCC(=O)[O-]

>  <Energy>  (95) 
88.65544472201839

>  <Genealogy>  (95) 
NC(=O)c1cc2ccc(N3CCCCC3)cc2n1C(=O)CCC(=O)[O-] (protonated)
NC(=O)c1cc2ccc(N3CCCCC3)cc2n1C(=O)CCC(=O)[O-] (3D coordinates assigned)
NC(=O)c1cc2ccc(N3CCCCC3)cc2n1C(=O)CCC(=O)[O-] (nonaromatic ring conformer: 88.65544472201839 kcal/mol)

>  <smiles>  (95) 
NC(=O)c1cc2ccc(N3CCCCC3)cc2n1C(=O)CCC(=O)O

>  <score_type>  (95) 
oracle

>  <origin>  (95) 
adg

>  <m_score__min__energy>  (95) 
-12.18

>  <m_primary>  (95) 
energy

$$$$
96:0
     RDKit          3D

 46 48  0  0  0  0  0  0  0  0999 V2000
   -5.7580   25.1620  -28.9660 N   0  0  0  0  0  0  0  0  0  0  0  0
   -5.8860   24.9820  -30.3770 C   0  0  0  0  0  0  0  0  0  0  0  0
   -5.5800   25.9330  -31.1450 O   0  0  0  0  0  0  0  0  0  0  0  0
   -6.3510   23.6930  -30.9400 C   0  0  0  0  0  0  0  0  0  0  0  0
   -7.6770   23.4110  -31.2640 C   0  0  0  0  0  0  0  0  0  0  0  0
   -7.6810   22.0990  -31.6780 C   0  0  0  0  0  0  0  0  0  0  0  0
   -8.7350   21.2990  -32.1100 C   0  0  0  0  0  0  0  0  0  0  0  0
   -8.4480   19.9770  -32.4880 C   0  0  0  0  0  0  0  0  0  0  0  0
   -7.1160   19.4870  -32.4590 C   0  0  0  0  0  0  0  0  0  0  0  0
   -6.8220   18.0540  -32.8240 C   0  0  0  0  0  0  0  0  0  0  0  0
   -7.9290   17.2550  -32.5990 F   0  0  0  0  0  0  0  0  0  0  0  0
   -6.4830   17.9880  -34.1630 F   0  0  0  0  0  0  0  0  0  0  0  0
   -5.7720   17.5640  -32.0680 F   0  0  0  0  0  0  0  0  0  0  0  0
   -6.0780   20.3290  -31.9970 C   0  0  0  0  0  0  0  0  0  0  0  0
   -6.3970   21.6300  -31.6010 C   0  0  0  0  0  0  0  0  0  0  0  0
   -5.5690   22.5950  -31.1410 N   0  0  0  0  0  0  0  0  0  0  0  0
   -4.1480   22.4940  -30.9500 C   0  0  0  0  0  0  0  0  0  0  0  0
   -3.3730   22.6770  -31.9280 O   0  0  0  0  0  0  0  0  0  0  0  0
   -3.5730   22.2700  -29.5810 C   0  0  0  0  0  0  0  0  0  0  0  0
   -3.0280   23.8110  -28.8410 S   0  0  0  0  0  0  0  0  0  0  0  0
   -3.9610   24.1400  -27.7090 O   0  0  0  0  0  0  0  0  0  0  0  0
   -3.1050   24.9210  -29.8510 O   0  0  0  0  0  0  0  0  0  0  0  0
   -1.4000   23.7050  -28.2030 N   0  0  0  0  0  0  0  0  0  0  0  0
   -1.3380   23.9940  -26.7500 C   0  0  0  0  0  0  0  0  0  0  0  0
   -0.4600   23.0100  -25.9710 C   0  0  0  0  0  0  0  0  0  0  0  0
   -0.8910   21.5800  -26.2840 C   0  0  0  0  0  0  0  0  0  0  0  0
   -0.8170   21.2710  -27.7880 C   0  0  0  0  0  0  0  0  0  0  0  0
   -0.6520   22.5200  -28.6760 C   0  0  0  0  0  0  0  0  0  0  0  0
   -5.3930   26.0630  -28.5850 H   0  0  0  0  0  0  0  0  0  0  0  0
   -6.0620   24.4260  -28.2910 H   0  0  0  0  0  0  0  0  0  0  0  0
   -8.5379   24.0930  -31.2019 H   0  0  0  0  0  0  0  0  0  0  0  0
   -9.7621   21.6904  -32.1541 H   0  0  0  0  0  0  0  0  0  0  0  0
   -9.2645   19.3140  -32.8101 H   0  0  0  0  0  0  0  0  0  0  0  0
   -5.0404   19.9668  -31.9504 H   0  0  0  0  0  0  0  0  0  0  0  0
   -4.3428   21.8170  -28.9390 H   0  0  0  0  0  0  0  0  0  0  0  0
   -2.7027   21.6039  -29.6753 H   0  0  0  0  0  0  0  0  0  0  0  0
   -0.9323   25.0072  -26.6130 H   0  0  0  0  0  0  0  0  0  0  0  0
   -2.3606   23.8989  -26.3561 H   0  0  0  0  0  0  0  0  0  0  0  0
    0.5916   23.1475  -26.2630 H   0  0  0  0  0  0  0  0  0  0  0  0
   -0.5705   23.1969  -24.8926 H   0  0  0  0  0  0  0  0  0  0  0  0
   -0.2303   20.8844  -25.7458 H   0  0  0  0  0  0  0  0  0  0  0  0
   -1.9372   21.4635  -25.9649 H   0  0  0  0  0  0  0  0  0  0  0  0
    0.0416   20.6061  -27.9629 H   0  0  0  0  0  0  0  0  0  0  0  0
   -1.7748   20.8068  -28.0656 H   0  0  0  0  0  0  0  0  0  0  0  0
    0.4166   22.7786  -28.7120 H   0  0  0  0  0  0  0  0  0  0  0  0
   -1.0622   22.2615  -29.6634 H   0  0  0  0  0  0  0  0  0  0  0  0
  1  2  1  0
  2  3  2  0
  2  4  1  0
  4  5  2  0
  5  6  1  0
  6  7  2  0
  7  8  1  0
  8  9  2  0
  9 10  1  0
 10 11  1  0
 10 12  1  0
 10 13  1  0
  9 14  1  0
 14 15  2  0
 15 16  1  0
 16 17  1  0
 17 18  2  0
 17 19  1  0
 19 20  1  0
 20 21  2  0
 20 22  2  0
 20 23  1  0
 23 24  1  0
 24 25  1  0
 25 26  1  0
 26 27  1  0
 27 28  1  0
 16  4  1  0
 28 23  1  0
 15  6  1  0
  1 29  1  0
  1 30  1  0
  5 31  1  0
  7 32  1  0
  8 33  1  0
 14 34  1  0
 19 35  1  0
 19 36  1  0
 24 37  1  0
 24 38  1  0
 25 39  1  0
 25 40  1  0
 26 41  1  0
 26 42  1  0
 27 43  1  0
 27 44  1  0
 28 45  1  0
 28 46  1  0
M  END
>  <UniqueID>  (96) 
96

>  <SMILES>  (96) 
NC(=O)c1cc2ccc(C(F)(F)F)cc2n1C(=O)CS(=O)(=O)N1CCCCC1

>  <Energy>  (96) 
89.80672303031656

>  <Genealogy>  (96) 
NC(=O)c1cc2ccc(C(F)(F)F)cc2n1C(=O)CS(=O)(=O)N1CCCCC1 (3D coordinates assigned)
NC(=O)c1cc2ccc(C(F)(F)F)cc2n1C(=O)CS(=O)(=O)N1CCCCC1 (nonaromatic ring conformer: 89.80672303031656 kcal/mol)

>  <smiles>  (96) 
NC(=O)c1cc2ccc(C(F)(F)F)cc2n1C(=O)CS(=O)(=O)N1CCCCC1

>  <score_type>  (96) 
oracle

>  <origin>  (96) 
adg

>  <m_score__min__energy>  (96) 
-9.4900000000000002

>  <m_primary>  (96) 
energy

$$$$
97:0
     RDKit          3D

 38 40  0  0  0  0  0  0  0  0999 V2000
   -3.7240   25.2050  -30.7780 N   0  0  0  0  0  0  0  0  0  0  0  0
   -4.6100   24.3120  -30.1090 C   0  0  0  0  0  0  0  0  0  0  0  0
   -4.9510   24.5540  -28.9220 O   0  0  0  0  0  0  0  0  0  0  0  0
   -5.1240   23.1170  -30.8140 C   0  0  0  0  0  0  0  0  0  0  0  0
   -6.4760   22.8190  -30.9660 C   0  0  0  0  0  0  0  0  0  0  0  0
   -6.5120   21.6230  -31.6500 C   0  0  0  0  0  0  0  0  0  0  0  0
   -7.5940   20.8530  -32.0600 C   0  0  0  0  0  0  0  0  0  0  0  0
   -7.3290   19.6520  -32.7400 C   0  0  0  0  0  0  0  0  0  0  0  0
   -5.9930   19.2410  -33.0010 C   0  0  0  0  0  0  0  0  0  0  0  0
   -5.7060   17.9860  -33.7380 C   0  0  0  0  0  0  0  0  0  0  0  0
   -6.5130   16.8650  -33.8250 C   0  0  0  0  0  0  0  0  0  0  0  0
   -5.8950   15.9910  -34.5780 O   0  0  0  0  0  0  0  0  0  0  0  0
   -4.7600   16.5400  -34.9420 C   0  0  0  0  0  0  0  0  0  0  0  0
   -3.9180   15.9620  -35.6780 O   0  0  0  0  0  0  0  0  0  0  0  0
   -4.5810   17.7800  -34.4530 N   0  0  0  0  0  0  0  0  0  0  0  0
   -4.9220   20.0530  -32.5580 C   0  0  0  0  0  0  0  0  0  0  0  0
   -5.2190   21.2400  -31.8870 C   0  0  0  0  0  0  0  0  0  0  0  0
   -4.3590   22.1480  -31.3850 N   0  0  0  0  0  0  0  0  0  0  0  0
   -2.9300   22.0450  -31.3560 C   0  0  0  0  0  0  0  0  0  0  0  0
   -2.2930   21.9360  -32.4390 O   0  0  0  0  0  0  0  0  0  0  0  0
   -2.2170   22.1240  -30.0750 C   0  0  0  0  0  0  0  0  0  0  0  0
   -1.6350   21.0970  -29.6360 O   0  0  0  0  0  0  0  0  0  0  0  0
   -2.1920   23.3460  -29.3210 N   0  0  0  0  0  0  0  0  0  0  0  0
   -1.6170   23.4250  -27.9790 C   0  0  0  0  0  0  0  0  0  0  0  0
   -1.5830   24.8740  -27.4910 C   0  0  0  0  0  0  0  0  0  0  0  0
   -2.0160   25.7410  -28.5060 O   0  0  0  0  0  0  0  0  0  0  0  0
   -2.7190   25.2790  -30.5060 H   0  0  0  0  0  0  0  0  0  0  0  0
   -7.3331   23.4123  -30.6147 H   0  0  0  0  0  0  0  0  0  0  0  0
   -8.6266   21.1740  -31.8583 H   0  0  0  0  0  0  0  0  0  0  0  0
   -8.1660   19.0217  -33.0747 H   0  0  0  0  0  0  0  0  0  0  0  0
   -7.4953   16.7327  -33.3480 H   0  0  0  0  0  0  0  0  0  0  0  0
   -3.8786   19.7551  -32.7386 H   0  0  0  0  0  0  0  0  0  0  0  0
   -2.6210   24.2110  -29.7280 H   0  0  0  0  0  0  0  0  0  0  0  0
   -2.2281   22.8254  -27.2883 H   0  0  0  0  0  0  0  0  0  0  0  0
   -0.5878   23.0381  -28.0114 H   0  0  0  0  0  0  0  0  0  0  0  0
   -2.2443   24.9784  -26.6182 H   0  0  0  0  0  0  0  0  0  0  0  0
   -0.5504   25.1341  -27.2152 H   0  0  0  0  0  0  0  0  0  0  0  0
   -2.9470   25.4750  -28.7310 H   0  0  0  0  0  0  0  0  0  0  0  0
  1  2  1  0
  2  3  2  0
  2  4  1  0
  4  5  2  0
  5  6  1  0
  6  7  2  0
  7  8  1  0
  8  9  2  0
  9 10  1  0
 10 11  2  0
 11 12  1  0
 12 13  1  0
 13 14  2  0
 13 15  1  0
  9 16  1  0
 16 17  2  0
 17 18  1  0
 18 19  1  0
 19 20  2  0
 19 21  1  0
 21 22  2  0
 21 23  1  0
 23 24  1  0
 24 25  1  0
 25 26  1  0
 18  4  1  0
 17  6  1  0
 15 10  1  0
  1 27  1  0
  5 28  1  0
  7 29  1  0
  8 30  1  0
 11 31  1  0
 16 32  1  0
 23 33  1  0
 24 34  1  0
 24 35  1  0
 25 36  1  0
 25 37  1  0
 26 38  1  0
M  CHG  2   1  -1  15  -1
M  END
>  <UniqueID>  (97) 
97

>  <SMILES>  (97) 
[NH-]C(=O)c1cc2ccc(-c3coc(=O)[n-]3)cc2n1C(=O)C(=O)NCCO

>  <Energy>  (97) 
108.19150169097259

>  <Genealogy>  (97) 
[NH-]C(=O)c1cc2ccc(-c3coc(=O)[n-]3)cc2n1C(=O)C(=O)NCCO (protonated)
[NH-]C(=O)c1cc2ccc(-c3coc(=O)[n-]3)cc2n1C(=O)C(=O)NCCO (3D coordinates assigned)
[NH-]C(=O)c1cc2ccc(-c3coc(=O)[n-]3)cc2n1C(=O)C(=O)NCCO (optimized conformer: 108.19150169097259 kcal/mol)

>  <smiles>  (97) 
NC(=O)c1cc2ccc(-c3coc(=O)[nH]3)cc2n1C(=O)C(=O)NCCO

>  <score_type>  (97) 
oracle

>  <origin>  (97) 
adg

>  <m_score__min__energy>  (97) 
-11.109999999999999

>  <m_primary>  (97) 
energy

$$$$
