0:0
     RDKit          3D

 38 39  0  0  0  0  0  0  0  0999 V2000
   -1.5890   22.4330  -28.7740 C   0  0  0  0  0  0  0  0  0  0  0  0
   -2.9350   21.7190  -28.5740 C   0  0  0  0  0  0  0  0  0  0  0  0
   -3.8840   22.6530  -27.8010 C   0  0  0  0  0  0  0  0  0  0  0  0
   -2.6950   20.4140  -27.7900 C   0  0  0  0  0  0  0  0  0  0  0  0
   -3.4600   21.4340  -29.8780 O   0  0  0  0  0  0  0  0  0  0  0  0
   -3.9440   22.3700  -30.8050 C   0  0  0  0  0  0  0  0  0  0  0  0
   -3.1530   23.0130  -31.5460 O   0  0  0  0  0  0  0  0  0  0  0  0
   -5.3590   22.5940  -30.9080 N   0  0  0  0  0  0  0  0  0  0  0  0
   -6.0350   23.7520  -30.6620 C   0  0  0  0  0  0  0  0  0  0  0  0
   -5.4620   24.9820  -30.0800 C   0  0  0  0  0  0  0  0  0  0  0  0
   -4.2450   25.5390  -30.5780 N   0  0  0  0  0  0  0  0  0  0  0  0
   -6.0270   25.5200  -29.0910 O   0  0  0  0  0  0  0  0  0  0  0  0
   -7.3810   23.6130  -30.9880 C   0  0  0  0  0  0  0  0  0  0  0  0
   -7.5150   22.3170  -31.4320 C   0  0  0  0  0  0  0  0  0  0  0  0
   -8.6400   21.6450  -31.9000 C   0  0  0  0  0  0  0  0  0  0  0  0
   -8.4810   20.3180  -32.3330 C   0  0  0  0  0  0  0  0  0  0  0  0
   -7.2090   19.6940  -32.3000 C   0  0  0  0  0  0  0  0  0  0  0  0
   -7.0580   18.2820  -32.7870 C   0  0  0  0  0  0  0  0  0  0  0  0
   -6.4800   17.5080  -31.7970 F   0  0  0  0  0  0  0  0  0  0  0  0
   -6.2530   18.2600  -33.9130 F   0  0  0  0  0  0  0  0  0  0  0  0
   -6.0880   20.4100  -31.8230 C   0  0  0  0  0  0  0  0  0  0  0  0
   -6.2790   21.7230  -31.3760 C   0  0  0  0  0  0  0  0  0  0  0  0
   -1.1486   22.6666  -27.7934 H   0  0  0  0  0  0  0  0  0  0  0  0
   -0.9066   21.7783  -29.3359 H   0  0  0  0  0  0  0  0  0  0  0  0
   -1.7483   23.3652  -29.3359 H   0  0  0  0  0  0  0  0  0  0  0  0
   -3.7389   22.5102  -26.7200 H   0  0  0  0  0  0  0  0  0  0  0  0
   -3.6656   23.6982  -28.0654 H   0  0  0  0  0  0  0  0  0  0  0  0
   -4.9256   22.4179  -28.0654 H   0  0  0  0  0  0  0  0  0  0  0  0
   -2.7333   20.6224  -26.7106 H   0  0  0  0  0  0  0  0  0  0  0  0
   -3.4735   19.6816  -28.0499 H   0  0  0  0  0  0  0  0  0  0  0  0
   -1.7069   20.0065  -28.0499 H   0  0  0  0  0  0  0  0  0  0  0  0
   -3.8780   26.4340  -30.1830 H   0  0  0  0  0  0  0  0  0  0  0  0
   -3.6610   25.0270  -31.2760 H   0  0  0  0  0  0  0  0  0  0  0  0
   -8.1694   24.3759  -30.9079 H   0  0  0  0  0  0  0  0  0  0  0  0
   -9.6232   22.1374  -31.9300 H   0  0  0  0  0  0  0  0  0  0  0  0
   -9.3528   19.7575  -32.7015 H   0  0  0  0  0  0  0  0  0  0  0  0
   -8.0504   17.8789  -33.0373 H   0  0  0  0  0  0  0  0  0  0  0  0
   -5.0902   19.9473  -31.8034 H   0  0  0  0  0  0  0  0  0  0  0  0
  1  2  1  0
  2  3  1  0
  2  4  1  0
  2  5  1  0
  5  6  1  0
  6  7  2  0
  6  8  1  0
  8  9  1  0
  9 10  1  0
 10 11  1  0
 10 12  2  0
  9 13  2  0
 13 14  1  0
 14 15  2  0
 15 16  1  0
 16 17  2  0
 17 18  1  0
 18 19  1  0
 18 20  1  0
 17 21  1  0
 21 22  2  0
 22  8  1  0
 22 14  1  0
  1 23  1  0
  1 24  1  0
  1 25  1  0
  3 26  1  0
  3 27  1  0
  3 28  1  0
  4 29  1  0
  4 30  1  0
  4 31  1  0
 11 32  1  0
 11 33  1  0
 13 34  1  0
 15 35  1  0
 16 36  1  0
 18 37  1  0
 21 38  1  0
M  END
>  <UniqueID>  (1) 
1

>  <SMILES>  (1) 
CC(C)(C)OC(=O)n1c(C(N)=O)cc2ccc(C(F)F)cc21

>  <Energy>  (1) 
71.8906292128669

>  <Genealogy>  (1) 
CC(C)(C)OC(=O)n1c(C(N)=O)cc2ccc(C(F)F)cc21 (3D coordinates assigned)
CC(C)(C)OC(=O)n1c(C(N)=O)cc2ccc(C(F)F)cc21 (optimized conformer: 71.8906292128669 kcal/mol)

>  <smiles>  (1) 
CC(C)(C)OC(=O)n1c(C(N)=O)cc2ccc(C(F)F)cc21

>  <score_type>  (1) 
oracle

>  <origin>  (1) 
adg

>  <m_score__min__energy>  (1) 
-8.1899999999999995

>  <m_primary>  (1) 
energy

$$$$
1:0
     RDKit          3D

 30 31  0  0  0  0  0  0  0  0999 V2000
   -4.1400   23.0330  -27.8470 C   0  0  0  0  0  0  0  0  0  0  0  0
   -3.4260   22.2690  -28.8120 O   0  0  0  0  0  0  0  0  0  0  0  0
   -2.9780   22.8110  -30.0190 C   0  0  0  0  0  0  0  0  0  0  0  0
   -1.8970   23.4610  -30.0690 O   0  0  0  0  0  0  0  0  0  0  0  0
   -3.7830   22.6330  -31.2360 C   0  0  0  0  0  0  0  0  0  0  0  0
   -3.2240   22.2570  -32.3000 O   0  0  0  0  0  0  0  0  0  0  0  0
   -5.1980   22.8790  -31.2250 N   0  0  0  0  0  0  0  0  0  0  0  0
   -5.8430   24.0110  -30.8280 C   0  0  0  0  0  0  0  0  0  0  0  0
   -5.2000   25.2840  -30.4360 C   0  0  0  0  0  0  0  0  0  0  0  0
   -3.8690   25.5910  -30.8430 N   0  0  0  0  0  0  0  0  0  0  0  0
   -5.8430   26.1240  -29.7530 O   0  0  0  0  0  0  0  0  0  0  0  0
   -7.2240   23.8300  -30.8860 C   0  0  0  0  0  0  0  0  0  0  0  0
   -7.4050   22.5400  -31.3310 C   0  0  0  0  0  0  0  0  0  0  0  0
   -8.5760   21.8200  -31.5430 C   0  0  0  0  0  0  0  0  0  0  0  0
   -8.4620   20.4850  -31.9660 C   0  0  0  0  0  0  0  0  0  0  0  0
   -7.1880   19.8970  -32.1790 C   0  0  0  0  0  0  0  0  0  0  0  0
   -7.0780   18.4470  -32.5750 C   0  0  0  0  0  0  0  0  0  0  0  0
   -6.2000   17.8070  -31.7180 F   0  0  0  0  0  0  0  0  0  0  0  0
   -6.6100   18.3270  -33.8720 F   0  0  0  0  0  0  0  0  0  0  0  0
   -8.3120   17.8260  -32.5020 F   0  0  0  0  0  0  0  0  0  0  0  0
   -6.0210   20.6550  -31.9280 C   0  0  0  0  0  0  0  0  0  0  0  0
   -6.1670   21.9870  -31.5260 C   0  0  0  0  0  0  0  0  0  0  0  0
   -3.8438   22.7160  -26.8362 H   0  0  0  0  0  0  0  0  0  0  0  0
   -3.9079   24.1001  -27.9794 H   0  0  0  0  0  0  0  0  0  0  0  0
   -5.2203   22.8736  -27.9794 H   0  0  0  0  0  0  0  0  0  0  0  0
   -3.0490   25.2860  -30.2730 H   0  0  0  0  0  0  0  0  0  0  0  0
   -8.0037   24.5626  -30.6304 H   0  0  0  0  0  0  0  0  0  0  0  0
   -9.5617   22.2818  -31.3843 H   0  0  0  0  0  0  0  0  0  0  0  0
   -9.3709   19.8886  -32.1340 H   0  0  0  0  0  0  0  0  0  0  0  0
   -5.0228   20.2082  -32.0459 H   0  0  0  0  0  0  0  0  0  0  0  0
  1  2  1  0
  2  3  1  0
  3  4  2  0
  3  5  1  0
  5  6  2  0
  5  7  1  0
  7  8  1  0
  8  9  1  0
  9 10  1  0
  9 11  2  0
  8 12  2  0
 12 13  1  0
 13 14  2  0
 14 15  1  0
 15 16  2  0
 16 17  1  0
 17 18  1  0
 17 19  1  0
 17 20  1  0
 16 21  1  0
 21 22  2  0
 22  7  1  0
 22 13  1  0
  1 23  1  0
  1 24  1  0
  1 25  1  0
 10 26  1  0
 12 27  1  0
 14 28  1  0
 15 29  1  0
 21 30  1  0
M  CHG  1  10  -1
M  END
>  <UniqueID>  (2) 
2

>  <SMILES>  (2) 
COC(=O)C(=O)n1c(C([NH-])=O)cc2ccc(C(F)(F)F)cc21

>  <Energy>  (2) 
68.03084914284457

>  <Genealogy>  (2) 
COC(=O)C(=O)n1c(C([NH-])=O)cc2ccc(C(F)(F)F)cc21 (protonated)
COC(=O)C(=O)n1c(C([NH-])=O)cc2ccc(C(F)(F)F)cc21 (3D coordinates assigned)
COC(=O)C(=O)n1c(C([NH-])=O)cc2ccc(C(F)(F)F)cc21 (optimized conformer: 68.03084914284457 kcal/mol)

>  <smiles>  (2) 
COC(=O)C(=O)n1c(C(N)=O)cc2ccc(C(F)(F)F)cc21

>  <score_type>  (2) 
oracle

>  <origin>  (2) 
adg

>  <m_score__min__energy>  (2) 
-8.8300000000000001

>  <m_primary>  (2) 
energy

$$$$
2:0
     RDKit          3D

 35 37  0  0  0  0  0  0  0  0999 V2000
   -1.5070   25.6620  -29.0360 N   0  0  0  0  0  0  0  0  0  0  0  0
   -0.8850   24.3800  -29.0720 C   0  0  0  0  0  0  0  0  0  0  0  0
    0.1500   24.1760  -28.3850 O   0  0  0  0  0  0  0  0  0  0  0  0
   -1.4850   23.2940  -29.8760 C   0  0  0  0  0  0  0  0  0  0  0  0
   -0.7710   22.1830  -30.3180 C   0  0  0  0  0  0  0  0  0  0  0  0
   -1.6510   21.4690  -31.0970 C   0  0  0  0  0  0  0  0  0  0  0  0
   -1.4730   20.2680  -31.7750 C   0  0  0  0  0  0  0  0  0  0  0  0
   -2.5690   19.7400  -32.4780 C   0  0  0  0  0  0  0  0  0  0  0  0
   -3.8160   20.4150  -32.4920 C   0  0  0  0  0  0  0  0  0  0  0  0
   -4.9400   19.8530  -33.1960 N   0  0  0  0  0  0  0  0  0  0  0  0
   -4.7550   18.6910  -34.0750 C   0  0  0  0  0  0  0  0  0  0  0  0
   -6.1030   18.0200  -34.3760 C   0  0  0  0  0  0  0  0  0  0  0  0
   -6.9450   17.9970  -33.1730 N   0  0  0  0  0  0  0  0  0  0  0  0
   -7.3140   19.3520  -32.7120 C   0  0  0  0  0  0  0  0  0  0  0  0
   -6.2810   20.4370  -33.0760 C   0  0  0  0  0  0  0  0  0  0  0  0
   -3.9580   21.6310  -31.7820 C   0  0  0  0  0  0  0  0  0  0  0  0
   -2.8450   22.1420  -31.1050 C   0  0  0  0  0  0  0  0  0  0  0  0
   -2.7610   23.2640  -30.3560 N   0  0  0  0  0  0  0  0  0  0  0  0
   -3.8280   24.1840  -30.0730 C   0  0  0  0  0  0  0  0  0  0  0  0
   -4.6890   23.9110  -29.1940 O   0  0  0  0  0  0  0  0  0  0  0  0
   -3.9060   25.3980  -30.7450 O   0  0  0  0  0  0  0  0  0  0  0  0
   -1.2390   26.4080  -29.7150 H   0  0  0  0  0  0  0  0  0  0  0  0
    0.2754   21.9301  -30.0919 H   0  0  0  0  0  0  0  0  0  0  0  0
   -0.5041   19.7474  -31.7614 H   0  0  0  0  0  0  0  0  0  0  0  0
   -2.4584   18.7916  -33.0241 H   0  0  0  0  0  0  0  0  0  0  0  0
   -4.2970   19.0213  -35.0190 H   0  0  0  0  0  0  0  0  0  0  0  0
   -4.1026   17.9642  -33.5689 H   0  0  0  0  0  0  0  0  0  0  0  0
   -6.6186   18.5825  -35.1683 H   0  0  0  0  0  0  0  0  0  0  0  0
   -5.9208   16.9857  -34.7031 H   0  0  0  0  0  0  0  0  0  0  0  0
   -6.4180   17.5120  -32.4080 H   0  0  0  0  0  0  0  0  0  0  0  0
   -8.2772   19.6232  -33.1689 H   0  0  0  0  0  0  0  0  0  0  0  0
   -7.3642   19.3137  -31.6138 H   0  0  0  0  0  0  0  0  0  0  0  0
   -6.5623   20.8970  -34.0348 H   0  0  0  0  0  0  0  0  0  0  0  0
   -6.2677   21.1958  -32.2797 H   0  0  0  0  0  0  0  0  0  0  0  0
   -4.9210   22.1622  -31.7628 H   0  0  0  0  0  0  0  0  0  0  0  0
  1  2  1  0
  2  3  2  0
  2  4  1  0
  4  5  2  0
  5  6  1  0
  6  7  2  0
  7  8  1  0
  8  9  2  0
  9 10  1  0
 10 11  1  0
 11 12  1  0
 12 13  1  0
 13 14  1  0
 14 15  1  0
  9 16  1  0
 16 17  2  0
 17 18  1  0
 18 19  1  0
 19 20  2  0
 19 21  1  0
 18  4  1  0
 17  6  1  0
 15 10  1  0
  1 22  1  0
  5 23  1  0
  7 24  1  0
  8 25  1  0
 11 26  1  0
 11 27  1  0
 12 28  1  0
 12 29  1  0
 13 30  1  0
 14 31  1  0
 14 32  1  0
 15 33  1  0
 15 34  1  0
 16 35  1  0
M  CHG  2   1  -1  21  -1
M  END
>  <UniqueID>  (3) 
3

>  <SMILES>  (3) 
[NH-]C(=O)c1cc2ccc(N3CCNCC3)cc2n1C(=O)[O-]

>  <Energy>  (3) 
84.18946343560555

>  <Genealogy>  (3) 
[NH-]C(=O)c1cc2ccc(N3CCNCC3)cc2n1C(=O)[O-] (protonated)
[NH-]C(=O)c1cc2ccc(N3CCNCC3)cc2n1C(=O)[O-] (3D coordinates assigned)
[NH-]C(=O)c1cc2ccc(N3CCNCC3)cc2n1C(=O)[O-] (nonaromatic ring conformer: 84.18946343560555 kcal/mol)

>  <smiles>  (3) 
NC(=O)c1cc2ccc(N3CCNCC3)cc2n1C(=O)O

>  <score_type>  (3) 
oracle

>  <origin>  (3) 
adg

>  <m_score__min__energy>  (3) 
-11.199999999999999

>  <m_primary>  (3) 
energy

$$$$
3:0
     RDKit          3D

 31 32  0  0  0  0  0  0  0  0999 V2000
   -1.9152   22.3473  -27.9782 H   0  0  0  0  0  0  0  0  0  0  0  0
   -2.2800   22.8590  -28.8810 C   0  0  0  0  0  0  0  0  0  0  0  0
   -1.6420   24.1430  -29.2230 C   0  0  0  0  0  0  0  0  0  0  0  0
   -2.3160   25.1950  -29.3670 O   0  0  0  0  0  0  0  0  0  0  0  0
   -0.2570   24.2090  -29.3030 O   0  0  0  0  0  0  0  0  0  0  0  0
   -3.2640   22.2540  -29.5660 C   0  0  0  0  0  0  0  0  0  0  0  0
   -3.7320   21.3787  -29.0919 H   0  0  0  0  0  0  0  0  0  0  0  0
   -3.7810   22.6480  -30.8950 C   0  0  0  0  0  0  0  0  0  0  0  0
   -2.9500   22.9660  -31.7870 O   0  0  0  0  0  0  0  0  0  0  0  0
   -5.1890   22.7560  -31.1790 N   0  0  0  0  0  0  0  0  0  0  0  0
   -5.9860   23.8470  -30.9840 C   0  0  0  0  0  0  0  0  0  0  0  0
   -5.5340   25.1900  -30.5620 C   0  0  0  0  0  0  0  0  0  0  0  0
   -6.3790   26.0090  -30.1100 O   0  0  0  0  0  0  0  0  0  0  0  0
   -4.1740   25.6030  -30.7000 N   0  0  0  0  0  0  0  0  0  0  0  0
   -3.8740   26.5380  -30.3470 H   0  0  0  0  0  0  0  0  0  0  0  0
   -3.4800   25.0310  -31.2290 H   0  0  0  0  0  0  0  0  0  0  0  0
   -7.3180   23.5330  -31.2350 C   0  0  0  0  0  0  0  0  0  0  0  0
   -8.1858   24.2054  -31.1651 H   0  0  0  0  0  0  0  0  0  0  0  0
   -7.3200   22.2040  -31.5890 C   0  0  0  0  0  0  0  0  0  0  0  0
   -8.3840   21.3680  -31.9110 C   0  0  0  0  0  0  0  0  0  0  0  0
   -9.4135   21.7528  -31.9560 H   0  0  0  0  0  0  0  0  0  0  0  0
   -8.1040   20.0170  -32.1770 C   0  0  0  0  0  0  0  0  0  0  0  0
   -8.9228   19.3335  -32.4460 H   0  0  0  0  0  0  0  0  0  0  0  0
   -6.7770   19.5270  -32.1020 C   0  0  0  0  0  0  0  0  0  0  0  0
   -6.5030   18.0740  -32.3640 C   0  0  0  0  0  0  0  0  0  0  0  0
   -5.8863   17.6705  -31.5474 H   0  0  0  0  0  0  0  0  0  0  0  0
   -7.6970   17.3800  -32.4280 F   0  0  0  0  0  0  0  0  0  0  0  0
   -5.8280   17.9350  -33.5630 F   0  0  0  0  0  0  0  0  0  0  0  0
   -5.7230   20.4040  -31.7620 C   0  0  0  0  0  0  0  0  0  0  0  0
   -4.6897   20.0367  -31.6768 H   0  0  0  0  0  0  0  0  0  0  0  0
   -6.0260   21.7530  -31.5360 C   0  0  0  0  0  0  0  0  0  0  0  0
  1  2  1  0
  2  3  1  0
  3  4  2  0
  3  5  1  0
  2  6  2  0
  6  7  1  0
  6  8  1  0
  8  9  2  0
  8 10  1  0
 10 11  1  0
 11 12  1  0
 12 13  2  0
 12 14  1  0
 14 15  1  0
 14 16  1  0
 11 17  2  0
 17 18  1  0
 17 19  1  0
 19 20  2  0
 20 21  1  0
 20 22  1  0
 22 23  1  0
 22 24  2  0
 24 25  1  0
 25 26  1  0
 25 27  1  0
 25 28  1  0
 24 29  1  0
 29 30  1  0
 29 31  2  0
 31 10  1  0
 31 19  1  0
M  CHG  1   5  -1
M  END
>  <UniqueID>  (4) 
4

>  <SMILES>  (4) 
NC(=O)c1cc2ccc(C(F)F)cc2n1C(=O)/C=C\C(=O)[O-]

>  <Energy>  (4) 
76.58238804659683

>  <Genealogy>  (4) 
NC(=O)c1cc2ccc(C(F)F)cc2n1C(=O)/C=C\C(=O)[O-] (protonated)
NC(=O)c1cc2ccc(C(F)F)cc2n1C(=O)/C=C\C(=O)[O-] (cis-trans isomerization)
NC(=O)c1cc2ccc(C(F)F)cc2n1C(=O)/C=C\C(=O)[O-] (3D coordinates assigned)
NC(=O)c1cc2ccc(C(F)F)cc2n1C(=O)/C=C\C(=O)[O-] (optimized conformer: 76.58238804659683 kcal/mol)

>  <smiles>  (4) 
NC(=O)c1cc2ccc(C(F)F)cc2n1C(=O)/C=C\C(=O)O

>  <score_type>  (4) 
oracle

>  <origin>  (4) 
adg

>  <m_score__min__energy>  (4) 
-11.029999999999999

>  <m_primary>  (4) 
energy

$$$$
4:0
     RDKit          3D

 63 65  0  0  0  0  0  0  0  0999 V2000
   -2.4990   21.0530  -29.5300 C   0  0  0  0  0  0  0  0  0  0  0  0
   -2.5220   22.5690  -29.2810 C   0  0  0  0  0  0  0  0  0  0  0  0
   -1.1620   22.9980  -28.6980 C   0  0  0  0  0  0  0  0  0  0  0  0
   -3.6620   22.8950  -28.2980 C   0  0  0  0  0  0  0  0  0  0  0  0
   -2.7530   23.2020  -30.5480 O   0  0  0  0  0  0  0  0  0  0  0  0
   -3.5430   22.7050  -31.5970 C   0  0  0  0  0  0  0  0  0  0  0  0
   -3.0130   22.2190  -32.6320 O   0  0  0  0  0  0  0  0  0  0  0  0
   -4.9730   22.7710  -31.4960 N   0  0  0  0  0  0  0  0  0  0  0  0
   -5.7270   23.8030  -31.0190 C   0  0  0  0  0  0  0  0  0  0  0  0
   -5.2110   25.0220  -30.3600 C   0  0  0  0  0  0  0  0  0  0  0  0
   -4.0050   25.6230  -30.8250 N   0  0  0  0  0  0  0  0  0  0  0  0
   -5.8440   25.5610  -29.4150 O   0  0  0  0  0  0  0  0  0  0  0  0
   -7.0840   23.5210  -31.1580 C   0  0  0  0  0  0  0  0  0  0  0  0
   -7.1400   22.2720  -31.7330 C   0  0  0  0  0  0  0  0  0  0  0  0
   -8.2400   21.5060  -32.0990 C   0  0  0  0  0  0  0  0  0  0  0  0
   -8.0050   20.2570  -32.6960 C   0  0  0  0  0  0  0  0  0  0  0  0
   -6.6810   19.7970  -32.9280 C   0  0  0  0  0  0  0  0  0  0  0  0
   -6.4440   18.4800  -33.5690 C   0  0  0  0  0  0  0  0  0  0  0  0
   -5.5250   18.1710  -34.5620 C   0  0  0  0  0  0  0  0  0  0  0  0
   -5.6320   16.8670  -34.8830 N   0  0  0  0  0  0  0  0  0  0  0  0
   -6.5740   16.3430  -34.1170 N   0  0  0  0  0  0  0  0  0  0  0  0
   -7.0160   14.9570  -34.2010 C   0  0  0  0  0  0  0  0  0  0  0  0
   -6.0470   14.1280  -33.5920 O   0  0  0  0  0  0  0  0  0  0  0  0
   -5.2920   13.4390  -34.5710 C   0  0  0  0  0  0  0  0  0  0  0  0
   -3.9910   12.9210  -33.9570 C   0  0  0  0  0  0  0  0  0  0  0  0
   -3.5160   13.8770  -32.4140 Si  0  0  0  0  0  4  0  0  0  0  0  0
   -4.6140   13.3920  -30.9830 C   0  0  0  0  0  0  0  0  0  0  0  0
   -1.7450   13.4790  -31.9810 C   0  0  0  0  0  0  0  0  0  0  0  0
   -3.6670   15.7150  -32.7180 C   0  0  0  0  0  0  0  0  0  0  0  0
   -7.0990   17.2880  -33.3160 C   0  0  0  0  0  0  0  0  0  0  0  0
   -5.5890   20.6100  -32.5400 C   0  0  0  0  0  0  0  0  0  0  0  0
   -5.8540   21.8410  -31.9280 C   0  0  0  0  0  0  0  0  0  0  0  0
   -2.4910   20.5232  -28.5660 H   0  0  0  0  0  0  0  0  0  0  0  0
   -3.3928   20.7616  -30.1011 H   0  0  0  0  0  0  0  0  0  0  0  0
   -1.5967   20.7889  -30.1011 H   0  0  0  0  0  0  0  0  0  0  0  0
   -1.2126   22.9820  -27.5993 H   0  0  0  0  0  0  0  0  0  0  0  0
   -0.3810   22.3026  -29.0392 H   0  0  0  0  0  0  0  0  0  0  0  0
   -0.9214   24.0157  -29.0392 H   0  0  0  0  0  0  0  0  0  0  0  0
   -3.2970   22.7906  -27.2656 H   0  0  0  0  0  0  0  0  0  0  0  0
   -4.0047   23.9271  -28.4632 H   0  0  0  0  0  0  0  0  0  0  0  0
   -4.4985   22.2001  -28.4632 H   0  0  0  0  0  0  0  0  0  0  0  0
   -3.0750   25.2930  -30.4850 H   0  0  0  0  0  0  0  0  0  0  0  0
   -7.9310   24.1608  -30.8694 H   0  0  0  0  0  0  0  0  0  0  0  0
   -9.2645   21.8673  -31.9262 H   0  0  0  0  0  0  0  0  0  0  0  0
   -8.8575   19.6262  -32.9880 H   0  0  0  0  0  0  0  0  0  0  0  0
   -4.8185   18.8810  -35.0166 H   0  0  0  0  0  0  0  0  0  0  0  0
   -7.9780   14.8443  -33.6797 H   0  0  0  0  0  0  0  0  0  0  0  0
   -7.1413   14.6699  -35.2554 H   0  0  0  0  0  0  0  0  0  0  0  0
   -5.8783   12.5901  -34.9527 H   0  0  0  0  0  0  0  0  0  0  0  0
   -5.0540   14.1277  -35.3950 H   0  0  0  0  0  0  0  0  0  0  0  0
   -4.1198   11.8609  -33.6930 H   0  0  0  0  0  0  0  0  0  0  0  0
   -3.1889   13.0505  -34.6986 H   0  0  0  0  0  0  0  0  0  0  0  0
   -4.1027   13.6178  -30.0356 H   0  0  0  0  0  0  0  0  0  0  0  0
   -5.5559   13.9578  -31.0353 H   0  0  0  0  0  0  0  0  0  0  0  0
   -4.8301   12.3147  -31.0353 H   0  0  0  0  0  0  0  0  0  0  0  0
   -1.6318   13.4536  -30.8871 H   0  0  0  0  0  0  0  0  0  0  0  0
   -1.4766   12.4981  -32.4003 H   0  0  0  0  0  0  0  0  0  0  0  0
   -1.0827   14.2507  -32.4003 H   0  0  0  0  0  0  0  0  0  0  0  0
   -3.7104   16.2437  -31.7544 H   0  0  0  0  0  0  0  0  0  0  0  0
   -2.7946   16.0651  -33.2893 H   0  0  0  0  0  0  0  0  0  0  0  0
   -4.5848   15.9180  -33.2893 H   0  0  0  0  0  0  0  0  0  0  0  0
   -7.9086   17.1387  -32.5865 H   0  0  0  0  0  0  0  0  0  0  0  0
   -4.5540   20.2815  -32.7157 H   0  0  0  0  0  0  0  0  0  0  0  0
  1  2  1  0
  2  3  1  0
  2  4  1  0
  2  5  1  0
  5  6  1  0
  6  7  2  0
  6  8  1  0
  8  9  1  0
  9 10  1  0
 10 11  1  0
 10 12  2  0
  9 13  2  0
 13 14  1  0
 14 15  2  0
 15 16  1  0
 16 17  2  0
 17 18  1  0
 18 19  1  0
 19 20  2  0
 20 21  1  0
 21 22  1  0
 22 23  1  0
 23 24  1  0
 24 25  1  0
 25 26  1  0
 26 27  1  0
 26 28  1  0
 26 29  1  0
 21 30  1  0
 17 31  1  0
 31 32  2  0
 32  8  1  0
 32 14  1  0
 30 18  2  0
  1 33  1  0
  1 34  1  0
  1 35  1  0
  3 36  1  0
  3 37  1  0
  3 38  1  0
  4 39  1  0
  4 40  1  0
  4 41  1  0
 11 42  1  0
 13 43  1  0
 15 44  1  0
 16 45  1  0
 19 46  1  0
 22 47  1  0
 22 48  1  0
 24 49  1  0
 24 50  1  0
 25 51  1  0
 25 52  1  0
 27 53  1  0
 27 54  1  0
 27 55  1  0
 28 56  1  0
 28 57  1  0
 28 58  1  0
 29 59  1  0
 29 60  1  0
 29 61  1  0
 30 62  1  0
 31 63  1  0
M  CHG  1  11  -1
M  END
>  <UniqueID>  (5) 
5

>  <SMILES>  (5) 
CC(C)(C)OC(=O)n1c(C([NH-])=O)cc2ccc(-c3cnn(COCC[Si](C)(C)C)c3)cc21

>  <Energy>  (5) 
114.07726143350162

>  <Genealogy>  (5) 
CC(C)(C)OC(=O)n1c(C([NH-])=O)cc2ccc(-c3cnn(COCC[Si](C)(C)C)c3)cc21 (protonated)
CC(C)(C)OC(=O)n1c(C([NH-])=O)cc2ccc(-c3cnn(COCC[Si](C)(C)C)c3)cc21 (3D coordinates assigned)
CC(C)(C)OC(=O)n1c(C([NH-])=O)cc2ccc(-c3cnn(COCC[Si](C)(C)C)c3)cc21 (optimized conformer: 114.07726143350162 kcal/mol)

>  <smiles>  (5) 
CC(C)(C)OC(=O)n1c(C(N)=O)cc2ccc(-c3cnn(COCC[Si](C)(C)C)c3)cc21

>  <score_type>  (5) 
oracle

>  <origin>  (5) 
adg

>  <m_score__min__energy>  (5) 
-10.83

>  <m_primary>  (5) 
energy

$$$$
5:0
     RDKit          3D

 40 41  0  0  0  0  0  0  0  0999 V2000
   -0.0090   24.4720  -27.8760 C   0  0  0  0  0  0  0  0  0  0  0  0
   -1.4520   24.5380  -28.3880 C   0  0  1  0  0  0  0  0  0  0  0  0
   -1.5610   23.9410  -29.7240 N   0  0  0  0  0  0  0  0  0  0  0  0
   -2.3810   23.8500  -27.4250 C   0  0  0  0  0  0  0  0  0  0  0  0
   -2.8660   24.4870  -26.4500 O   0  0  0  0  0  0  0  0  0  0  0  0
   -2.7110   22.5070  -27.6310 O   0  0  0  0  0  0  0  0  0  0  0  0
   -3.9070   22.0950  -28.2830 C   0  0  0  0  0  0  0  0  0  0  0  0
   -3.6070   21.6660  -29.6080 O   0  0  0  0  0  0  0  0  0  0  0  0
   -3.8870   22.4430  -30.7350 C   0  0  0  0  0  0  0  0  0  0  0  0
   -2.9600   22.7900  -31.5160 O   0  0  0  0  0  0  0  0  0  0  0  0
   -5.2430   22.8250  -31.0200 N   0  0  0  0  0  0  0  0  0  0  0  0
   -5.8050   24.0600  -30.8820 C   0  0  0  0  0  0  0  0  0  0  0  0
   -5.0830   25.3090  -30.5690 C   0  0  0  0  0  0  0  0  0  0  0  0
   -3.6650   25.2940  -30.4320 N   0  0  0  0  0  0  0  0  0  0  0  0
   -5.7110   26.3840  -30.3830 O   0  0  0  0  0  0  0  0  0  0  0  0
   -7.1690   24.0100  -31.1610 C   0  0  0  0  0  0  0  0  0  0  0  0
   -7.4270   22.6970  -31.4830 C   0  0  0  0  0  0  0  0  0  0  0  0
   -8.6270   22.0790  -31.8210 C   0  0  0  0  0  0  0  0  0  0  0  0
   -8.6100   20.6960  -32.0680 C   0  0  0  0  0  0  0  0  0  0  0  0
   -7.4000   19.9590  -31.9830 C   0  0  0  0  0  0  0  0  0  0  0  0
   -7.4060   18.4650  -32.1850 C   0  0  0  0  0  0  0  0  0  0  0  0
   -6.5710   17.8430  -31.2740 F   0  0  0  0  0  0  0  0  0  0  0  0
   -6.9700   18.1780  -33.4660 F   0  0  0  0  0  0  0  0  0  0  0  0
   -8.6820   17.9560  -32.0200 F   0  0  0  0  0  0  0  0  0  0  0  0
   -6.2070   20.6210  -31.6120 C   0  0  0  0  0  0  0  0  0  0  0  0
   -6.2500   22.0020  -31.3910 C   0  0  0  0  0  0  0  0  0  0  0  0
   -0.0099   24.4720  -26.7760 H   0  0  0  0  0  0  0  0  0  0  0  0
    0.4683   23.5511  -28.2423 H   0  0  0  0  0  0  0  0  0  0  0  0
    0.5503   25.3455  -28.2423 H   0  0  0  0  0  0  0  0  0  0  0  0
   -1.7434   25.5961  -28.4622 H   0  0  0  0  0  0  0  0  0  0  0  0
   -2.2650   24.4540  -30.3030 H   0  0  0  0  0  0  0  0  0  0  0  0
   -0.6310   23.9740  -30.2030 H   0  0  0  0  0  0  0  0  0  0  0  0
   -1.8520   22.9390  -29.6410 H   0  0  0  0  0  0  0  0  0  0  0  0
   -4.3611   21.2640  -27.7234 H   0  0  0  0  0  0  0  0  0  0  0  0
   -4.6100   22.9401  -28.3236 H   0  0  0  0  0  0  0  0  0  0  0  0
   -3.0560   24.9310  -31.1990 H   0  0  0  0  0  0  0  0  0  0  0  0
   -7.8870   24.8428  -31.1304 H   0  0  0  0  0  0  0  0  0  0  0  0
   -9.5609   22.6559  -31.8927 H   0  0  0  0  0  0  0  0  0  0  0  0
   -9.5447   20.1787  -32.3301 H   0  0  0  0  0  0  0  0  0  0  0  0
   -5.2659   20.0627  -31.4996 H   0  0  0  0  0  0  0  0  0  0  0  0
  1  2  1  0
  2  3  1  0
  2  4  1  0
  4  5  2  0
  4  6  1  0
  6  7  1  0
  7  8  1  0
  8  9  1  0
  9 10  2  0
  9 11  1  0
 11 12  1  0
 12 13  1  0
 13 14  1  0
 13 15  2  0
 12 16  2  0
 16 17  1  0
 17 18  2  0
 18 19  1  0
 19 20  2  0
 20 21  1  0
 21 22  1  0
 21 23  1  0
 21 24  1  0
 20 25  1  0
 25 26  2  0
 26 11  1  0
 26 17  1  0
  1 27  1  0
  1 28  1  0
  1 29  1  0
  2 30  1  6
  3 31  1  0
  3 32  1  0
  3 33  1  0
  7 34  1  0
  7 35  1  0
 14 36  1  0
 16 37  1  0
 18 38  1  0
 19 39  1  0
 25 40  1  0
M  CHG  2   3   1  14  -1
M  END
>  <UniqueID>  (6) 
6

>  <SMILES>  (6) 
C[C@@H]([NH3+])C(=O)OCOC(=O)n1c(C([NH-])=O)cc2ccc(C(F)(F)F)cc21

>  <Energy>  (6) 
72.35476661779765

>  <Genealogy>  (6) 
CC([NH3+])C(=O)OCOC(=O)n1c(C([NH-])=O)cc2ccc(C(F)(F)F)cc21 (protonated)
C[C@@H]([NH3+])C(=O)OCOC(=O)n1c(C([NH-])=O)cc2ccc(C(F)(F)F)cc21 (chirality)
C[C@@H]([NH3+])C(=O)OCOC(=O)n1c(C([NH-])=O)cc2ccc(C(F)(F)F)cc21 (3D coordinates assigned)
C[C@@H]([NH3+])C(=O)OCOC(=O)n1c(C([NH-])=O)cc2ccc(C(F)(F)F)cc21 (optimized conformer: 72.35476661779765 kcal/mol)

>  <smiles>  (6) 
CC(N)C(=O)OCOC(=O)n1c(C(N)=O)cc2ccc(C(F)(F)F)cc21

>  <score_type>  (6) 
oracle

>  <origin>  (6) 
adg

>  <m_score__min__energy>  (6) 
-9.3900000000000006

>  <m_primary>  (6) 
energy

$$$$
6:0
     RDKit          3D

 38 40  0  0  0  0  0  0  0  0999 V2000
   -6.8870   13.6330  -34.5720 C   0  0  0  0  0  0  0  0  0  0  0  0
   -7.2200   14.9820  -34.2600 O   0  0  0  0  0  0  0  0  0  0  0  0
   -6.2860   15.9650  -33.9020 C   0  0  0  0  0  0  0  0  0  0  0  0
   -4.9270   15.6530  -33.9700 C   0  0  0  0  0  0  0  0  0  0  0  0
   -3.9880   16.5790  -33.6330 N   0  0  0  0  0  0  0  0  0  0  0  0
   -4.3350   17.8290  -33.2220 C   0  0  0  0  0  0  0  0  0  0  0  0
   -5.6870   18.2000  -33.1330 C   0  0  0  0  0  0  0  0  0  0  0  0
   -6.0740   19.5630  -32.6900 C   0  0  0  0  0  0  0  0  0  0  0  0
   -7.4250   19.9900  -32.7760 C   0  0  0  0  0  0  0  0  0  0  0  0
   -7.8030   21.2750  -32.3500 C   0  0  0  0  0  0  0  0  0  0  0  0
   -6.8110   22.1150  -31.8530 C   0  0  0  0  0  0  0  0  0  0  0  0
   -6.9040   23.3940  -31.3540 C   0  0  0  0  0  0  0  0  0  0  0  0
   -5.6050   23.7440  -30.9930 C   0  0  0  0  0  0  0  0  0  0  0  0
   -5.2360   25.0830  -30.4870 C   0  0  0  0  0  0  0  0  0  0  0  0
   -3.9870   25.6790  -30.8310 N   0  0  0  0  0  0  0  0  0  0  0  0
   -6.0550   25.7310  -29.7820 O   0  0  0  0  0  0  0  0  0  0  0  0
   -4.7440   22.7170  -31.2500 N   0  0  0  0  0  0  0  0  0  0  0  0
   -3.3400   22.6470  -30.9560 C   0  0  0  0  0  0  0  0  0  0  0  0
   -2.5540   22.1130  -31.7850 O   0  0  0  0  0  0  0  0  0  0  0  0
   -2.8580   23.1970  -29.7590 O   0  0  0  0  0  0  0  0  0  0  0  0
   -1.6290   23.8510  -29.6130 C   0  0  0  0  0  0  0  0  0  0  0  0
   -0.5370   23.2340  -29.7360 O   0  0  0  0  0  0  0  0  0  0  0  0
   -1.6140   25.2090  -29.3260 O   0  0  0  0  0  0  0  0  0  0  0  0
   -5.4990   21.7300  -31.7800 C   0  0  0  0  0  0  0  0  0  0  0  0
   -5.0990   20.4490  -32.1750 C   0  0  0  0  0  0  0  0  0  0  0  0
   -6.6630   17.2520  -33.4780 C   0  0  0  0  0  0  0  0  0  0  0  0
   -6.7468   13.0651  -33.6404 H   0  0  0  0  0  0  0  0  0  0  0  0
   -7.7005   13.1807  -35.1583 H   0  0  0  0  0  0  0  0  0  0  0  0
   -5.9565   13.6112  -35.1583 H   0  0  0  0  0  0  0  0  0  0  0  0
   -4.6126   14.6513  -34.2984 H   0  0  0  0  0  0  0  0  0  0  0  0
   -2.9780   16.3240  -33.6960 H   0  0  0  0  0  0  0  0  0  0  0  0
   -3.5512   18.5541  -32.9576 H   0  0  0  0  0  0  0  0  0  0  0  0
   -8.1858   19.3066  -33.1812 H   0  0  0  0  0  0  0  0  0  0  0  0
   -8.8503   21.6064  -32.4077 H   0  0  0  0  0  0  0  0  0  0  0  0
   -7.8111   24.0091  -31.2602 H   0  0  0  0  0  0  0  0  0  0  0  0
   -3.0870   25.2540  -30.5190 H   0  0  0  0  0  0  0  0  0  0  0  0
   -4.0478   20.1371  -32.0869 H   0  0  0  0  0  0  0  0  0  0  0  0
   -7.7288   17.5171  -33.4164 H   0  0  0  0  0  0  0  0  0  0  0  0
  1  2  1  0
  2  3  1  0
  3  4  2  0
  4  5  1  0
  5  6  2  0
  6  7  1  0
  7  8  1  0
  8  9  2  0
  9 10  1  0
 10 11  2  0
 11 12  1  0
 12 13  2  0
 13 14  1  0
 14 15  1  0
 14 16  2  0
 13 17  1  0
 17 18  1  0
 18 19  2  0
 18 20  1  0
 20 21  1  0
 21 22  2  0
 21 23  1  0
 17 24  1  0
 24 25  2  0
  7 26  2  0
 26  3  1  0
 25  8  1  0
 24 11  1  0
  1 27  1  0
  1 28  1  0
  1 29  1  0
  4 30  1  0
  5 31  1  0
  6 32  1  0
  9 33  1  0
 10 34  1  0
 12 35  1  0
 15 36  1  0
 25 37  1  0
 26 38  1  0
M  CHG  3   5   1  15  -1  23  -1
M  END
>  <UniqueID>  (7) 
7

>  <SMILES>  (7) 
COc1c[nH+]cc(-c2ccc3cc(C([NH-])=O)n(C(=O)OC(=O)[O-])c3c2)c1

>  <Energy>  (7) 
85.37211923879839

>  <Genealogy>  (7) 
COc1c[nH+]cc(-c2ccc3cc(C([NH-])=O)n(C(=O)OC(=O)[O-])c3c2)c1 (protonated)
COc1c[nH+]cc(-c2ccc3cc(C([NH-])=O)n(C(=O)OC(=O)[O-])c3c2)c1 (3D coordinates assigned)
COc1c[nH+]cc(-c2ccc3cc(C([NH-])=O)n(C(=O)OC(=O)[O-])c3c2)c1 (optimized conformer: 85.37211923879839 kcal/mol)

>  <smiles>  (7) 
COc1cncc(-c2ccc3cc(C(N)=O)n(C(=O)OC(=O)O)c3c2)c1

>  <score_type>  (7) 
oracle

>  <origin>  (7) 
adg

>  <m_score__min__energy>  (7) 
-11.050000000000001

>  <m_primary>  (7) 
energy

$$$$
7:0
     RDKit          3D

 39 40  0  0  0  0  0  0  0  0999 V2000
   -3.2900   21.3910  -33.1030 C   0  0  0  0  0  0  0  0  0  0  0  0
   -3.8270   20.1390  -32.6970 O   0  0  0  0  0  0  0  0  0  0  0  0
   -4.6980   19.3960  -33.4980 C   0  0  0  0  0  0  0  0  0  0  0  0
   -4.2910   18.8890  -34.5780 O   0  0  0  0  0  0  0  0  0  0  0  0
   -6.0670   19.2240  -33.0940 N   0  0  0  0  0  0  0  0  0  0  0  0
   -6.8030   18.0770  -33.1320 C   0  0  0  0  0  0  0  0  0  0  0  0
   -6.3760   16.8030  -33.7530 C   0  0  0  0  0  0  0  0  0  0  0  0
   -4.9980   16.4240  -33.7690 N   0  0  0  0  0  0  0  0  0  0  0  0
   -7.2320   16.0240  -34.2490 O   0  0  0  0  0  0  0  0  0  0  0  0
   -8.0660   18.2890  -32.5840 C   0  0  0  0  0  0  0  0  0  0  0  0
   -8.0820   19.6120  -32.2070 C   0  0  0  0  0  0  0  0  0  0  0  0
   -9.0850   20.3520  -31.5900 C   0  0  0  0  0  0  0  0  0  0  0  0
   -8.8160   21.6960  -31.2830 C   0  0  0  0  0  0  0  0  0  0  0  0
   -7.5620   22.2790  -31.5920 C   0  0  0  0  0  0  0  0  0  0  0  0
   -7.3320   23.6570  -31.2360 N   0  0  0  0  0  0  0  0  0  0  0  0
   -6.1130   24.4110  -31.5340 C   0  0  0  0  0  0  0  0  0  0  0  0
   -5.7230   25.3210  -30.3530 C   0  0  1  0  0  0  0  0  0  0  0  0
   -6.8480   25.4680  -29.4260 N   0  0  0  0  0  0  0  0  0  0  0  0
   -4.5130   24.7400  -29.6090 C   0  0  0  0  0  0  0  0  0  0  0  0
   -3.3380   25.2890  -30.0920 F   0  0  0  0  0  0  0  0  0  0  0  0
   -6.5640   21.4870  -32.2150 C   0  0  0  0  0  0  0  0  0  0  0  0
   -6.8670   20.1560  -32.5260 C   0  0  0  0  0  0  0  0  0  0  0  0
   -3.0347   21.9862  -32.2138 H   0  0  0  0  0  0  0  0  0  0  0  0
   -2.3844   21.2238  -33.7047 H   0  0  0  0  0  0  0  0  0  0  0  0
   -4.0353   21.9319  -33.7047 H   0  0  0  0  0  0  0  0  0  0  0  0
   -4.7140   15.5060  -34.1740 H   0  0  0  0  0  0  0  0  0  0  0  0
   -4.2560   17.0670  -33.4170 H   0  0  0  0  0  0  0  0  0  0  0  0
   -8.8779   17.5548  -32.4757 H   0  0  0  0  0  0  0  0  0  0  0  0
  -10.0583   19.8990  -31.3500 H   0  0  0  0  0  0  0  0  0  0  0  0
   -9.5909   22.3055  -30.7951 H   0  0  0  0  0  0  0  0  0  0  0  0
   -8.0930   24.1730  -30.7380 H   0  0  0  0  0  0  0  0  0  0  0  0
   -5.2925   23.7051  -31.7303 H   0  0  0  0  0  0  0  0  0  0  0  0
   -6.2983   25.0419  -32.4158 H   0  0  0  0  0  0  0  0  0  0  0  0
   -5.4581   26.3108  -30.7531 H   0  0  0  0  0  0  0  0  0  0  0  0
   -6.6810   24.8530  -28.5960 H   0  0  0  0  0  0  0  0  0  0  0  0
   -6.8410   26.4440  -29.0490 H   0  0  0  0  0  0  0  0  0  0  0  0
   -4.6044   24.9666  -28.5365 H   0  0  0  0  0  0  0  0  0  0  0  0
   -4.4880   23.6515  -29.7656 H   0  0  0  0  0  0  0  0  0  0  0  0
   -5.5751   21.9086  -32.4484 H   0  0  0  0  0  0  0  0  0  0  0  0
  1  2  1  0
  2  3  1  0
  3  4  2  0
  3  5  1  0
  5  6  1  0
  6  7  1  0
  7  8  1  0
  7  9  2  0
  6 10  2  0
 10 11  1  0
 11 12  2  0
 12 13  1  0
 13 14  2  0
 14 15  1  0
 15 16  1  0
 16 17  1  0
 17 18  1  0
 17 19  1  0
 19 20  1  0
 14 21  1  0
 21 22  2  0
 22  5  1  0
 22 11  1  0
  1 23  1  0
  1 24  1  0
  1 25  1  0
  8 26  1  0
  8 27  1  0
 10 28  1  0
 12 29  1  0
 13 30  1  0
 15 31  1  0
 16 32  1  0
 16 33  1  0
 17 34  1  6
 18 35  1  0
 18 36  1  0
 19 37  1  0
 19 38  1  0
 21 39  1  0
M  END
>  <UniqueID>  (8) 
8

>  <SMILES>  (8) 
COC(=O)n1c(C(N)=O)cc2ccc(NC[C@@H](N)CF)cc21

>  <Energy>  (8) 
72.48221015835672

>  <Genealogy>  (8) 
COC(=O)n1c(C(N)=O)cc2ccc(NC[C@@H](N)CF)cc21 (chirality)
COC(=O)n1c(C(N)=O)cc2ccc(NC[C@@H](N)CF)cc21 (3D coordinates assigned)
COC(=O)n1c(C(N)=O)cc2ccc(NC[C@@H](N)CF)cc21 (optimized conformer: 72.48221015835672 kcal/mol)

>  <smiles>  (8) 
COC(=O)n1c(C(N)=O)cc2ccc(NCC(N)CF)cc21

>  <score_type>  (8) 
oracle

>  <origin>  (8) 
adg

>  <m_score__min__energy>  (8) 
-8.2200000000000006

>  <m_primary>  (8) 
energy

$$$$
8:0
     RDKit          3D

 49 51  0  0  0  0  0  0  0  0999 V2000
   -3.2680   15.3440  -32.7440 C   0  0  0  0  0  0  0  0  0  0  0  0
   -4.0990   16.4130  -33.3120 N   0  0  0  0  0  0  0  0  0  0  0  0
   -3.6610   17.0990  -34.4050 C   0  0  0  0  0  0  0  0  0  0  0  0
   -4.4410   18.1010  -34.9630 C   0  0  0  0  0  0  0  0  0  0  0  0
   -5.6770   18.3880  -34.3950 C   0  0  0  0  0  0  0  0  0  0  0  0
   -6.3890   19.2930  -34.9120 O   0  0  0  0  0  0  0  0  0  0  0  0
   -6.1120   17.6930  -33.2940 N   0  0  0  0  0  0  0  0  0  0  0  0
   -7.4460   17.9800  -32.7240 C   0  0  0  0  0  0  0  0  0  0  0  0
   -7.5300   19.4170  -32.2820 C   0  0  0  0  0  0  0  0  0  0  0  0
   -8.7900   20.0450  -32.1230 C   0  0  0  0  0  0  0  0  0  0  0  0
   -8.8770   21.3790  -31.6940 C   0  0  0  0  0  0  0  0  0  0  0  0
   -7.6920   22.0550  -31.4190 C   0  0  0  0  0  0  0  0  0  0  0  0
   -7.4920   23.3460  -30.9920 C   0  0  0  0  0  0  0  0  0  0  0  0
   -6.1140   23.4880  -30.8890 C   0  0  0  0  0  0  0  0  0  0  0  0
   -5.4660   24.7250  -30.4300 C   0  0  0  0  0  0  0  0  0  0  0  0
   -5.8340   25.3210  -29.1870 N   0  0  0  0  0  0  0  0  0  0  0  0
   -4.5410   25.2340  -31.1170 O   0  0  0  0  0  0  0  0  0  0  0  0
   -5.4760   22.3270  -31.2120 N   0  0  0  0  0  0  0  0  0  0  0  0
   -4.0670   22.0420  -31.0800 C   0  0  0  0  0  0  0  0  0  0  0  0
   -3.5500   21.0940  -31.7340 O   0  0  0  0  0  0  0  0  0  0  0  0
   -3.2770   22.7860  -30.1980 O   0  0  0  0  0  0  0  0  0  0  0  0
   -1.9410   22.4340  -29.8500 C   0  0  0  0  0  0  0  0  0  0  0  0
   -1.5100   23.1670  -28.5730 C   0  0  0  0  0  0  0  0  0  0  0  0
   -1.2770   24.6560  -28.8240 C   0  0  0  0  0  0  0  0  0  0  0  0
   -2.4330   25.2420  -29.3610 O   0  0  0  0  0  0  0  0  0  0  0  0
   -6.4610   21.4590  -31.5470 C   0  0  0  0  0  0  0  0  0  0  0  0
   -6.3480   20.1350  -31.9950 C   0  0  0  0  0  0  0  0  0  0  0  0
   -5.3210   16.7030  -32.7590 C   0  0  0  0  0  0  0  0  0  0  0  0
   -5.7160   16.0520  -31.7500 O   0  0  0  0  0  0  0  0  0  0  0  0
   -3.3067   15.3938  -31.6458 H   0  0  0  0  0  0  0  0  0  0  0  0
   -3.6465   14.3675  -33.0803 H   0  0  0  0  0  0  0  0  0  0  0  0
   -2.2283   15.4699  -33.0803 H   0  0  0  0  0  0  0  0  0  0  0  0
   -2.6834   16.8567  -34.8472 H   0  0  0  0  0  0  0  0  0  0  0  0
   -4.0870   18.6601  -35.8417 H   0  0  0  0  0  0  0  0  0  0  0  0
   -8.2148   17.7901  -33.4874 H   0  0  0  0  0  0  0  0  0  0  0  0
   -7.6094   17.3286  -31.8528 H   0  0  0  0  0  0  0  0  0  0  0  0
   -9.7099   19.4814  -32.3380 H   0  0  0  0  0  0  0  0  0  0  0  0
   -9.8521   21.8748  -31.5787 H   0  0  0  0  0  0  0  0  0  0  0  0
   -8.2591   24.1046  -30.7776 H   0  0  0  0  0  0  0  0  0  0  0  0
   -5.3930   26.2180  -28.8800 H   0  0  0  0  0  0  0  0  0  0  0  0
   -6.5330   24.8580  -28.5650 H   0  0  0  0  0  0  0  0  0  0  0  0
   -1.8844   21.3485  -29.6814 H   0  0  0  0  0  0  0  0  0  0  0  0
   -1.2700   22.7244  -30.6718 H   0  0  0  0  0  0  0  0  0  0  0  0
   -2.2980   23.0530  -27.8140 H   0  0  0  0  0  0  0  0  0  0  0  0
   -0.5627   22.7261  -28.2292 H   0  0  0  0  0  0  0  0  0  0  0  0
   -1.0267   25.1502  -27.8737 H   0  0  0  0  0  0  0  0  0  0  0  0
   -0.4486   24.7750  -29.5379 H   0  0  0  0  0  0  0  0  0  0  0  0
   -2.7820   24.5950  -30.0270 H   0  0  0  0  0  0  0  0  0  0  0  0
   -5.3609   19.6661  -32.1201 H   0  0  0  0  0  0  0  0  0  0  0  0
  1  2  1  0
  2  3  1  0
  3  4  2  0
  4  5  1  0
  5  6  2  0
  5  7  1  0
  7  8  1  0
  8  9  1  0
  9 10  2  0
 10 11  1  0
 11 12  2  0
 12 13  1  0
 13 14  2  0
 14 15  1  0
 15 16  1  0
 15 17  2  0
 14 18  1  0
 18 19  1  0
 19 20  2  0
 19 21  1  0
 21 22  1  0
 22 23  1  0
 23 24  1  0
 24 25  1  0
 18 26  1  0
 26 27  2  0
  7 28  1  0
 28 29  2  0
 28  2  1  0
 27  9  1  0
 26 12  1  0
  1 30  1  0
  1 31  1  0
  1 32  1  0
  3 33  1  0
  4 34  1  0
  8 35  1  0
  8 36  1  0
 10 37  1  0
 11 38  1  0
 13 39  1  0
 16 40  1  0
 16 41  1  0
 22 42  1  0
 22 43  1  0
 23 44  1  0
 23 45  1  0
 24 46  1  0
 24 47  1  0
 25 48  1  0
 27 49  1  0
M  END
>  <UniqueID>  (9) 
9

>  <SMILES>  (9) 
Cn1ccc(=O)n(Cc2ccc3cc(C(N)=O)n(C(=O)OCCCO)c3c2)c1=O

>  <Energy>  (9) 
92.24129579391861

>  <Genealogy>  (9) 
Cn1ccc(=O)n(Cc2ccc3cc(C(N)=O)n(C(=O)OCCCO)c3c2)c1=O (3D coordinates assigned)
Cn1ccc(=O)n(Cc2ccc3cc(C(N)=O)n(C(=O)OCCCO)c3c2)c1=O (optimized conformer: 92.24129579391861 kcal/mol)

>  <smiles>  (9) 
Cn1ccc(=O)n(Cc2ccc3cc(C(N)=O)n(C(=O)OCCCO)c3c2)c1=O

>  <score_type>  (9) 
oracle

>  <origin>  (9) 
adg

>  <m_score__min__energy>  (9) 
-9.1199999999999992

>  <m_primary>  (9) 
energy

$$$$
9:0
     RDKit          3D

 40 41  0  0  0  0  0  0  0  0999 V2000
   -4.1630   14.4790  -33.6470 C   0  0  0  0  0  0  0  0  0  0  0  0
   -5.5420   14.8290  -34.0190 N   0  0  0  0  0  0  0  0  0  0  0  0
   -6.5140   13.7670  -34.3030 C   0  0  0  0  0  0  0  0  0  0  0  0
   -5.9780   16.2060  -34.0840 C   0  0  0  0  0  0  0  0  0  0  0  0
   -7.2090   16.4660  -34.2150 O   0  0  0  0  0  0  0  0  0  0  0  0
   -5.0130   17.3670  -34.0430 C   0  0  0  0  0  0  0  0  0  0  0  0
   -5.7440   18.7110  -34.1730 C   0  0  0  0  0  0  0  0  0  0  0  0
   -6.9870   18.7360  -33.3840 N   0  0  0  0  0  0  0  0  0  0  0  0
   -7.1060   20.0000  -32.7020 C   0  0  0  0  0  0  0  0  0  0  0  0
   -8.3860   20.5480  -32.4320 C   0  0  0  0  0  0  0  0  0  0  0  0
   -8.5130   21.8160  -31.8410 C   0  0  0  0  0  0  0  0  0  0  0  0
   -7.3470   22.5100  -31.5330 C   0  0  0  0  0  0  0  0  0  0  0  0
   -7.1810   23.7710  -31.0050 C   0  0  0  0  0  0  0  0  0  0  0  0
   -5.8020   23.9680  -30.9460 C   0  0  0  0  0  0  0  0  0  0  0  0
   -5.1750   25.1800  -30.3720 C   0  0  0  0  0  0  0  0  0  0  0  0
   -3.9160   25.6480  -30.8460 N   0  0  0  0  0  0  0  0  0  0  0  0
   -5.7440   25.7920  -29.4290 O   0  0  0  0  0  0  0  0  0  0  0  0
   -5.1430   22.8750  -31.4220 N   0  0  0  0  0  0  0  0  0  0  0  0
   -3.7280   22.7140  -31.6080 C   0  0  0  0  0  0  0  0  0  0  0  0
   -3.2840   22.1820  -32.6590 O   0  0  0  0  0  0  0  0  0  0  0  0
   -2.8370   23.1510  -30.6330 O   0  0  0  0  0  0  0  0  0  0  0  0
   -6.1020   21.9910  -31.7760 C   0  0  0  0  0  0  0  0  0  0  0  0
   -5.9450   20.7380  -32.3760 C   0  0  0  0  0  0  0  0  0  0  0  0
   -4.0735   14.4563  -32.5509 H   0  0  0  0  0  0  0  0  0  0  0  0
   -3.9130   13.4889  -34.0559 H   0  0  0  0  0  0  0  0  0  0  0  0
   -3.4711   15.2300  -34.0559 H   0  0  0  0  0  0  0  0  0  0  0  0
   -6.8924   13.3536  -33.3565 H   0  0  0  0  0  0  0  0  0  0  0  0
   -7.3517   14.1821  -34.8827 H   0  0  0  0  0  0  0  0  0  0  0  0
   -6.0266   12.9693  -34.8827 H   0  0  0  0  0  0  0  0  0  0  0  0
   -4.4697   17.3466  -33.0868 H   0  0  0  0  0  0  0  0  0  0  0  0
   -4.3183   17.2685  -34.8902 H   0  0  0  0  0  0  0  0  0  0  0  0
   -5.0804   19.5131  -33.8175 H   0  0  0  0  0  0  0  0  0  0  0  0
   -6.0077   18.8558  -35.2311 H   0  0  0  0  0  0  0  0  0  0  0  0
   -7.8100   18.5920  -34.0170 H   0  0  0  0  0  0  0  0  0  0  0  0
   -6.9820   17.9640  -32.6760 H   0  0  0  0  0  0  0  0  0  0  0  0
   -9.2888   19.9740  -32.6881 H   0  0  0  0  0  0  0  0  0  0  0  0
   -9.5027   22.2466  -31.6285 H   0  0  0  0  0  0  0  0  0  0  0  0
   -7.9689   24.4735  -30.6956 H   0  0  0  0  0  0  0  0  0  0  0  0
   -3.0200   25.2950  -30.4360 H   0  0  0  0  0  0  0  0  0  0  0  0
   -4.9433   20.3364  -32.5891 H   0  0  0  0  0  0  0  0  0  0  0  0
  1  2  1  0
  2  3  1  0
  2  4  1  0
  4  5  2  0
  4  6  1  0
  6  7  1  0
  7  8  1  0
  8  9  1  0
  9 10  2  0
 10 11  1  0
 11 12  2  0
 12 13  1  0
 13 14  2  0
 14 15  1  0
 15 16  1  0
 15 17  2  0
 14 18  1  0
 18 19  1  0
 19 20  2  0
 19 21  1  0
 18 22  1  0
 22 23  2  0
 23  9  1  0
 22 12  1  0
  1 24  1  0
  1 25  1  0
  1 26  1  0
  3 27  1  0
  3 28  1  0
  3 29  1  0
  6 30  1  0
  6 31  1  0
  7 32  1  0
  7 33  1  0
  8 34  1  0
  8 35  1  0
 10 36  1  0
 11 37  1  0
 13 38  1  0
 16 39  1  0
 23 40  1  0
M  CHG  3   8   1  16  -1  21  -1
M  END
>  <UniqueID>  (10) 
10

>  <SMILES>  (10) 
CN(C)C(=O)CC[NH2+]c1ccc2cc(C([NH-])=O)n(C(=O)[O-])c2c1

>  <Energy>  (10) 
76.1765736785742

>  <Genealogy>  (10) 
CN(C)C(=O)CC[NH2+]c1ccc2cc(C([NH-])=O)n(C(=O)[O-])c2c1 (protonated)
CN(C)C(=O)CC[NH2+]c1ccc2cc(C([NH-])=O)n(C(=O)[O-])c2c1 (3D coordinates assigned)
CN(C)C(=O)CC[NH2+]c1ccc2cc(C([NH-])=O)n(C(=O)[O-])c2c1 (optimized conformer: 76.1765736785742 kcal/mol)

>  <smiles>  (10) 
CN(C)C(=O)CCNc1ccc2cc(C(N)=O)n(C(=O)O)c2c1

>  <score_type>  (10) 
oracle

>  <origin>  (10) 
adg

>  <m_score__min__energy>  (10) 
-10.369999999999999

>  <m_primary>  (10) 
energy

$$$$
10:0
     RDKit          3D

 33 35  0  0  0  0  0  0  0  0999 V2000
   -5.1690   18.8880  -33.9970 C   0  0  0  0  0  0  0  0  0  0  0  0
   -5.2490   20.1830  -33.3200 N   0  0  0  0  0  0  0  0  0  0  0  0
   -4.1140   20.6500  -32.5700 C   0  0  0  0  0  0  0  0  0  0  0  0
   -2.9360   19.8640  -32.4810 C   0  0  0  0  0  0  0  0  0  0  0  0
   -1.8250   20.3180  -31.7530 C   0  0  0  0  0  0  0  0  0  0  0  0
   -1.9200   21.5570  -31.1240 C   0  0  0  0  0  0  0  0  0  0  0  0
   -1.0140   22.2110  -30.3200 C   0  0  0  0  0  0  0  0  0  0  0  0
   -1.6520   23.3890  -29.9300 C   0  0  0  0  0  0  0  0  0  0  0  0
   -0.9940   24.4430  -29.1340 C   0  0  0  0  0  0  0  0  0  0  0  0
   -1.6090   25.7150  -28.9650 N   0  0  0  0  0  0  0  0  0  0  0  0
    0.1550   24.2400  -28.6530 O   0  0  0  0  0  0  0  0  0  0  0  0
   -2.9020   23.4550  -30.4690 N   0  0  0  0  0  0  0  0  0  0  0  0
   -3.9220   24.4230  -30.1810 C   0  0  0  0  0  0  0  0  0  0  0  0
   -4.8410   24.1550  -29.3620 O   0  0  0  0  0  0  0  0  0  0  0  0
   -3.8880   25.6750  -30.7850 O   0  0  0  0  0  0  0  0  0  0  0  0
   -3.0480   22.3300  -31.2030 C   0  0  0  0  0  0  0  0  0  0  0  0
   -4.1720   21.9000  -31.9170 C   0  0  0  0  0  0  0  0  0  0  0  0
   -6.5770   20.7410  -33.0420 C   0  0  0  0  0  0  0  0  0  0  0  0
   -7.6890   19.7020  -33.0010 C   0  0  0  0  0  0  0  0  0  0  0  0
   -7.1590   20.2970  -31.7080 C   0  0  0  0  0  0  0  0  0  0  0  0
   -5.1194   18.0847  -33.2472 H   0  0  0  0  0  0  0  0  0  0  0  0
   -6.0602   18.7476  -34.6263 H   0  0  0  0  0  0  0  0  0  0  0  0
   -4.2673   18.8583  -34.6263 H   0  0  0  0  0  0  0  0  0  0  0  0
   -2.8930   18.8887  -32.9878 H   0  0  0  0  0  0  0  0  0  0  0  0
   -0.9083   19.7143  -31.6816 H   0  0  0  0  0  0  0  0  0  0  0  0
   -0.0031   21.8764  -30.0440 H   0  0  0  0  0  0  0  0  0  0  0  0
   -2.6460   25.8200  -29.0120 H   0  0  0  0  0  0  0  0  0  0  0  0
   -5.0786   22.5209  -31.9681 H   0  0  0  0  0  0  0  0  0  0  0  0
   -6.4292   21.7052  -33.5503 H   0  0  0  0  0  0  0  0  0  0  0  0
   -8.6981   19.9624  -33.3531 H   0  0  0  0  0  0  0  0  0  0  0  0
   -7.8151   18.6821  -33.3933 H   0  0  0  0  0  0  0  0  0  0  0  0
   -7.7845   20.9880  -31.1238 H   0  0  0  0  0  0  0  0  0  0  0  0
   -6.7426   19.8859  -30.7765 H   0  0  0  0  0  0  0  0  0  0  0  0
  1  2  1  0
  2  3  1  0
  3  4  2  0
  4  5  1  0
  5  6  2  0
  6  7  1  0
  7  8  2  0
  8  9  1  0
  9 10  1  0
  9 11  2  0
  8 12  1  0
 12 13  1  0
 13 14  2  0
 13 15  1  0
 12 16  1  0
 16 17  2  0
  2 18  1  0
 18 19  1  0
 19 20  1  0
 17  3  1  0
 20 18  1  0
 16  6  1  0
  1 21  1  0
  1 22  1  0
  1 23  1  0
  4 24  1  0
  5 25  1  0
  7 26  1  0
 10 27  1  0
 17 28  1  0
 18 29  1  0
 19 30  1  0
 19 31  1  0
 20 32  1  0
 20 33  1  0
M  CHG  2  10  -1  15  -1
M  END
>  <UniqueID>  (11) 
11

>  <SMILES>  (11) 
CN(c1ccc2cc(C([NH-])=O)n(C(=O)[O-])c2c1)C1CC1

>  <Energy>  (11) 
342.10935443556144

>  <Genealogy>  (11) 
CN(c1ccc2cc(C([NH-])=O)n(C(=O)[O-])c2c1)C1CC1 (protonated)
CN(c1ccc2cc(C([NH-])=O)n(C(=O)[O-])c2c1)C1CC1 (3D coordinates assigned)
CN(c1ccc2cc(C([NH-])=O)n(C(=O)[O-])c2c1)C1CC1 (nonaromatic ring conformer: 342.10935443556144 kcal/mol)

>  <smiles>  (11) 
CN(c1ccc2cc(C(N)=O)n(C(=O)O)c2c1)C1CC1

>  <score_type>  (11) 
oracle

>  <origin>  (11) 
adg

>  <m_score__min__energy>  (11) 
-10.91

>  <m_primary>  (11) 
energy

$$$$
11:0
     RDKit          3D

 35 37  0  0  0  0  0  0  0  0999 V2000
   -3.8690   25.5690  -30.8370 N   0  0  0  0  0  0  0  0  0  0  0  0
   -5.1350   25.0250  -30.4700 C   0  0  0  0  0  0  0  0  0  0  0  0
   -5.8790   25.6740  -29.6870 O   0  0  0  0  0  0  0  0  0  0  0  0
   -5.5990   23.7340  -31.0190 C   0  0  0  0  0  0  0  0  0  0  0  0
   -6.9340   23.4510  -31.3020 C   0  0  0  0  0  0  0  0  0  0  0  0
   -6.9330   22.1850  -31.8420 C   0  0  0  0  0  0  0  0  0  0  0  0
   -7.9910   21.4000  -32.2880 C   0  0  0  0  0  0  0  0  0  0  0  0
   -7.7010   20.1120  -32.7690 C   0  0  0  0  0  0  0  0  0  0  0  0
   -6.3670   19.6270  -32.7890 C   0  0  0  0  0  0  0  0  0  0  0  0
   -6.0730   18.2600  -33.2870 C   0  0  0  0  0  0  0  0  0  0  0  0
   -7.0950   17.2940  -33.3700 C   0  0  0  0  0  0  0  0  0  0  0  0
   -6.8160   16.0080  -33.8420 C   0  0  0  0  0  0  0  0  0  0  0  0
   -5.5200   15.6700  -34.2340 C   0  0  0  0  0  0  0  0  0  0  0  0
   -5.2520   14.4210  -34.6910 F   0  0  0  0  0  0  0  0  0  0  0  0
   -4.4970   16.6190  -34.1570 C   0  0  0  0  0  0  0  0  0  0  0  0
   -4.7700   17.9070  -33.6860 C   0  0  0  0  0  0  0  0  0  0  0  0
   -5.3190   20.4580  -32.3230 C   0  0  0  0  0  0  0  0  0  0  0  0
   -5.6370   21.7420  -31.8690 C   0  0  0  0  0  0  0  0  0  0  0  0
   -4.8060   22.6830  -31.3720 N   0  0  0  0  0  0  0  0  0  0  0  0
   -3.3890   22.5510  -31.1760 C   0  0  0  0  0  0  0  0  0  0  0  0
   -2.6390   22.3390  -32.1660 O   0  0  0  0  0  0  0  0  0  0  0  0
   -2.7900   22.6660  -29.8090 C   0  0  0  0  0  0  0  0  0  0  0  0
   -1.9570   23.7880  -29.7590 O   0  0  0  0  0  0  0  0  0  0  0  0
   -2.9940   25.2670  -30.3550 H   0  0  0  0  0  0  0  0  0  0  0  0
   -7.8042   24.1016  -31.1302 H   0  0  0  0  0  0  0  0  0  0  0  0
   -9.0243   21.7764  -32.2649 H   0  0  0  0  0  0  0  0  0  0  0  0
   -8.5175   19.4718  -33.1344 H   0  0  0  0  0  0  0  0  0  0  0  0
   -8.1186   17.5531  -33.0616 H   0  0  0  0  0  0  0  0  0  0  0  0
   -7.6204   15.2603  -33.9046 H   0  0  0  0  0  0  0  0  0  0  0  0
   -3.4759   16.3525  -34.4673 H   0  0  0  0  0  0  0  0  0  0  0  0
   -3.9608   18.6497  -33.6268 H   0  0  0  0  0  0  0  0  0  0  0  0
   -4.2784   20.1015  -32.3183 H   0  0  0  0  0  0  0  0  0  0  0  0
   -3.5928   22.7716  -29.0644 H   0  0  0  0  0  0  0  0  0  0  0  0
   -2.2025   21.7625  -29.5884 H   0  0  0  0  0  0  0  0  0  0  0  0
   -2.1210   24.2900  -30.5990 H   0  0  0  0  0  0  0  0  0  0  0  0
  1  2  1  0
  2  3  2  0
  2  4  1  0
  4  5  2  0
  5  6  1  0
  6  7  2  0
  7  8  1  0
  8  9  2  0
  9 10  1  0
 10 11  2  0
 11 12  1  0
 12 13  2  0
 13 14  1  0
 13 15  1  0
 15 16  2  0
  9 17  1  0
 17 18  2  0
 18 19  1  0
 19 20  1  0
 20 21  2  0
 20 22  1  0
 22 23  1  0
 19  4  1  0
 18  6  1  0
 16 10  1  0
  1 24  1  0
  5 25  1  0
  7 26  1  0
  8 27  1  0
 11 28  1  0
 12 29  1  0
 15 30  1  0
 16 31  1  0
 17 32  1  0
 22 33  1  0
 22 34  1  0
 23 35  1  0
M  CHG  1   1  -1
M  END
>  <UniqueID>  (12) 
12

>  <SMILES>  (12) 
[NH-]C(=O)c1cc2ccc(-c3ccc(F)cc3)cc2n1C(=O)CO

>  <Energy>  (12) 
81.56111315337212

>  <Genealogy>  (12) 
[NH-]C(=O)c1cc2ccc(-c3ccc(F)cc3)cc2n1C(=O)CO (protonated)
[NH-]C(=O)c1cc2ccc(-c3ccc(F)cc3)cc2n1C(=O)CO (3D coordinates assigned)
[NH-]C(=O)c1cc2ccc(-c3ccc(F)cc3)cc2n1C(=O)CO (optimized conformer: 81.56111315337212 kcal/mol)

>  <smiles>  (12) 
NC(=O)c1cc2ccc(-c3ccc(F)cc3)cc2n1C(=O)CO

>  <score_type>  (12) 
oracle

>  <origin>  (12) 
adg

>  <m_score__min__energy>  (12) 
-9.9800000000000004

>  <m_primary>  (12) 
energy

$$$$
12:0
     RDKit          3D

 42 43  0  0  0  0  0  0  0  0999 V2000
   -7.1090   23.7400  -30.8600 C   0  0  0  0  0  0  0  0  0  0  0  0
   -7.4350   22.8270  -31.8850 O   0  0  0  0  0  0  0  0  0  0  0  0
   -7.9690   21.6370  -31.3350 C   0  0  0  0  0  0  0  0  0  0  0  0
   -8.3720   20.6720  -32.4530 C   0  0  0  0  0  0  0  0  0  0  0  0
   -7.6580   19.3940  -32.3090 N   0  0  0  0  0  0  0  0  0  0  0  0
   -8.4050   18.1790  -31.9640 C   0  0  0  0  0  0  0  0  0  0  0  0
   -6.2320   19.3400  -32.5490 C   0  0  0  0  0  0  0  0  0  0  0  0
   -5.5740   18.3360  -32.1600 O   0  0  0  0  0  0  0  0  0  0  0  0
   -5.4950   20.4950  -33.1880 C   0  0  0  0  0  0  0  0  0  0  0  0
   -4.2760   20.8860  -32.3960 C   0  0  0  0  0  0  0  0  0  0  0  0
   -3.0990   20.0980  -32.4600 C   0  0  0  0  0  0  0  0  0  0  0  0
   -1.9420   20.4830  -31.7650 C   0  0  0  0  0  0  0  0  0  0  0  0
   -1.9890   21.6540  -31.0160 C   0  0  0  0  0  0  0  0  0  0  0  0
   -1.0030   22.2740  -30.2850 C   0  0  0  0  0  0  0  0  0  0  0  0
   -1.5970   23.4220  -29.7660 C   0  0  0  0  0  0  0  0  0  0  0  0
   -0.8990   24.3580  -28.8640 C   0  0  0  0  0  0  0  0  0  0  0  0
   -1.6000   25.4180  -28.2130 N   0  0  0  0  0  0  0  0  0  0  0  0
    0.3250   24.1880  -28.6200 O   0  0  0  0  0  0  0  0  0  0  0  0
   -2.8940   23.5180  -30.1690 N   0  0  0  0  0  0  0  0  0  0  0  0
   -3.8030   24.6080  -29.9370 C   0  0  0  0  0  0  0  0  0  0  0  0
   -4.5360   24.6190  -28.9130 O   0  0  0  0  0  0  0  0  0  0  0  0
   -3.8820   25.6640  -30.8370 O   0  0  0  0  0  0  0  0  0  0  0  0
   -3.1220   22.4250  -30.9320 C   0  0  0  0  0  0  0  0  0  0  0  0
   -4.2820   22.0760  -31.6340 C   0  0  0  0  0  0  0  0  0  0  0  0
   -7.2776   23.2677  -29.8810 H   0  0  0  0  0  0  0  0  0  0  0  0
   -6.0517   24.0301  -30.9499 H   0  0  0  0  0  0  0  0  0  0  0  0
   -7.7434   24.6341  -30.9499 H   0  0  0  0  0  0  0  0  0  0  0  0
   -7.2103   21.1587  -30.6982 H   0  0  0  0  0  0  0  0  0  0  0  0
   -8.8585   21.8855  -30.7375 H   0  0  0  0  0  0  0  0  0  0  0  0
   -9.4556   20.4897  -32.4014 H   0  0  0  0  0  0  0  0  0  0  0  0
   -8.1100   21.1200  -33.4229 H   0  0  0  0  0  0  0  0  0  0  0  0
   -8.4640   18.0831  -30.8698 H   0  0  0  0  0  0  0  0  0  0  0  0
   -9.4206   18.2419  -32.3818 H   0  0  0  0  0  0  0  0  0  0  0  0
   -7.8904   17.3011  -32.3818 H   0  0  0  0  0  0  0  0  0  0  0  0
   -5.1826   20.2014  -34.2010 H   0  0  0  0  0  0  0  0  0  0  0  0
   -6.1746   21.3594  -33.2192 H   0  0  0  0  0  0  0  0  0  0  0  0
   -3.0926   19.1761  -33.0601 H   0  0  0  0  0  0  0  0  0  0  0  0
   -1.0254   19.8767  -31.8113 H   0  0  0  0  0  0  0  0  0  0  0  0
    0.0337   21.9355  -30.1409 H   0  0  0  0  0  0  0  0  0  0  0  0
   -2.6420   25.4840  -28.2580 H   0  0  0  0  0  0  0  0  0  0  0  0
   -1.0830   26.0970  -27.6110 H   0  0  0  0  0  0  0  0  0  0  0  0
   -5.1775   22.7135  -31.5933 H   0  0  0  0  0  0  0  0  0  0  0  0
  1  2  1  0
  2  3  1  0
  3  4  1  0
  4  5  1  0
  5  6  1  0
  5  7  1  0
  7  8  2  0
  7  9  1  0
  9 10  1  0
 10 11  2  0
 11 12  1  0
 12 13  2  0
 13 14  1  0
 14 15  2  0
 15 16  1  0
 16 17  1  0
 16 18  2  0
 15 19  1  0
 19 20  1  0
 20 21  2  0
 20 22  1  0
 19 23  1  0
 23 24  2  0
 24 10  1  0
 23 13  1  0
  1 25  1  0
  1 26  1  0
  1 27  1  0
  3 28  1  0
  3 29  1  0
  4 30  1  0
  4 31  1  0
  6 32  1  0
  6 33  1  0
  6 34  1  0
  9 35  1  0
  9 36  1  0
 11 37  1  0
 12 38  1  0
 14 39  1  0
 17 40  1  0
 17 41  1  0
 24 42  1  0
M  CHG  1  22  -1
M  END
>  <UniqueID>  (13) 
13

>  <SMILES>  (13) 
COCCN(C)C(=O)Cc1ccc2cc(C(N)=O)n(C(=O)[O-])c2c1

>  <Energy>  (13) 
80.11765655274671

>  <Genealogy>  (13) 
COCCN(C)C(=O)Cc1ccc2cc(C(N)=O)n(C(=O)[O-])c2c1 (protonated)
COCCN(C)C(=O)Cc1ccc2cc(C(N)=O)n(C(=O)[O-])c2c1 (3D coordinates assigned)
COCCN(C)C(=O)Cc1ccc2cc(C(N)=O)n(C(=O)[O-])c2c1 (optimized conformer: 80.11765655274671 kcal/mol)

>  <smiles>  (13) 
COCCN(C)C(=O)Cc1ccc2cc(C(N)=O)n(C(=O)O)c2c1

>  <score_type>  (13) 
oracle

>  <origin>  (13) 
adg

>  <m_score__min__energy>  (13) 
-9.3100000000000005

>  <m_primary>  (13) 
energy

$$$$
13:0
     RDKit          3D

 39 41  0  0  0  0  0  0  0  0999 V2000
   -5.1310   25.4750  -30.0430 N   0  0  0  0  0  0  0  0  0  0  0  0
   -6.4430   24.9210  -30.1520 C   0  0  0  0  0  0  0  0  0  0  0  0
   -7.4310   25.5850  -29.7380 O   0  0  0  0  0  0  0  0  0  0  0  0
   -6.6670   23.6140  -30.8000 C   0  0  0  0  0  0  0  0  0  0  0  0
   -7.9280   23.1380  -31.1490 C   0  0  0  0  0  0  0  0  0  0  0  0
   -7.7000   21.9360  -31.7780 C   0  0  0  0  0  0  0  0  0  0  0  0
   -8.6040   21.0250  -32.3150 C   0  0  0  0  0  0  0  0  0  0  0  0
   -8.0940   19.8410  -32.8710 C   0  0  0  0  0  0  0  0  0  0  0  0
   -6.6990   19.5800  -32.8730 C   0  0  0  0  0  0  0  0  0  0  0  0
   -6.1720   18.3170  -33.4510 C   0  0  0  0  0  0  0  0  0  0  0  0
   -6.8780   17.1110  -33.3030 C   0  0  0  0  0  0  0  0  0  0  0  0
   -6.3630   15.9350  -33.8530 C   0  0  0  0  0  0  0  0  0  0  0  0
   -5.1850   15.9570  -34.5300 N   0  0  0  0  0  0  0  0  0  0  0  0
   -4.4780   17.1060  -34.6910 C   0  0  0  0  0  0  0  0  0  0  0  0
   -3.3080   17.0870  -35.3770 F   0  0  0  0  0  0  0  0  0  0  0  0
   -4.9560   18.3050  -34.1560 C   0  0  0  0  0  0  0  0  0  0  0  0
   -5.8130   20.5330  -32.3130 C   0  0  0  0  0  0  0  0  0  0  0  0
   -6.3470   21.7150  -31.7860 C   0  0  0  0  0  0  0  0  0  0  0  0
   -5.6970   22.7380  -31.1840 N   0  0  0  0  0  0  0  0  0  0  0  0
   -4.2920   22.8160  -30.8940 C   0  0  0  0  0  0  0  0  0  0  0  0
   -3.4460   22.6010  -31.8050 O   0  0  0  0  0  0  0  0  0  0  0  0
   -3.8680   23.1170  -29.5940 O   0  0  0  0  0  0  0  0  0  0  0  0
   -2.5380   22.8940  -29.1280 C   0  0  0  0  0  0  0  0  0  0  0  0
   -1.7420   24.1990  -29.1260 C   0  0  0  0  0  0  0  0  0  0  0  0
   -2.5970   25.2870  -29.3530 O   0  0  0  0  0  0  0  0  0  0  0  0
   -4.9840   26.3800  -29.5430 H   0  0  0  0  0  0  0  0  0  0  0  0
   -4.3180   25.0310  -30.5220 H   0  0  0  0  0  0  0  0  0  0  0  0
   -8.8989   23.6200  -30.9618 H   0  0  0  0  0  0  0  0  0  0  0  0
   -9.6854   21.2262  -32.3043 H   0  0  0  0  0  0  0  0  0  0  0  0
   -8.7845   19.1062  -33.3107 H   0  0  0  0  0  0  0  0  0  0  0  0
   -7.8323   17.0933  -32.7562 H   0  0  0  0  0  0  0  0  0  0  0  0
   -6.9122   14.9889  -33.7379 H   0  0  0  0  0  0  0  0  0  0  0  0
   -4.3834   19.2352  -34.2859 H   0  0  0  0  0  0  0  0  0  0  0  0
   -4.7288   20.3483  -32.2927 H   0  0  0  0  0  0  0  0  0  0  0  0
   -2.5762   22.4924  -28.1046 H   0  0  0  0  0  0  0  0  0  0  0  0
   -2.0425   22.1778  -29.7999 H   0  0  0  0  0  0  0  0  0  0  0  0
   -1.2481   24.3221  -28.1509 H   0  0  0  0  0  0  0  0  0  0  0  0
   -0.9881   24.1613  -29.9262 H   0  0  0  0  0  0  0  0  0  0  0  0
   -3.4270   25.1070  -28.8380 H   0  0  0  0  0  0  0  0  0  0  0  0
  1  2  1  0
  2  3  2  0
  2  4  1  0
  4  5  2  0
  5  6  1  0
  6  7  2  0
  7  8  1  0
  8  9  2  0
  9 10  1  0
 10 11  2  0
 11 12  1  0
 12 13  2  0
 13 14  1  0
 14 15  1  0
 14 16  2  0
  9 17  1  0
 17 18  2  0
 18 19  1  0
 19 20  1  0
 20 21  2  0
 20 22  1  0
 22 23  1  0
 23 24  1  0
 24 25  1  0
 19  4  1  0
 18  6  1  0
 16 10  1  0
  1 26  1  0
  1 27  1  0
  5 28  1  0
  7 29  1  0
  8 30  1  0
 11 31  1  0
 12 32  1  0
 16 33  1  0
 17 34  1  0
 23 35  1  0
 23 36  1  0
 24 37  1  0
 24 38  1  0
 25 39  1  0
M  END
>  <UniqueID>  (14) 
14

>  <SMILES>  (14) 
NC(=O)c1cc2ccc(-c3ccnc(F)c3)cc2n1C(=O)OCCO

>  <Energy>  (14) 
82.95455420673954

>  <Genealogy>  (14) 
NC(=O)c1cc2ccc(-c3ccnc(F)c3)cc2n1C(=O)OCCO (3D coordinates assigned)
NC(=O)c1cc2ccc(-c3ccnc(F)c3)cc2n1C(=O)OCCO (optimized conformer: 82.95455420673954 kcal/mol)

>  <smiles>  (14) 
NC(=O)c1cc2ccc(-c3ccnc(F)c3)cc2n1C(=O)OCCO

>  <score_type>  (14) 
oracle

>  <origin>  (14) 
adg

>  <m_score__min__energy>  (14) 
-10.109999999999999

>  <m_primary>  (14) 
energy

$$$$
14:0
     RDKit          3D

 48 49  0  0  0  0  0  0  0  0999 V2000
   -2.7720   21.1670  -33.3910 C   0  0  0  0  0  0  0  0  0  0  0  0
   -3.3550   19.9720  -32.8870 O   0  0  0  0  0  0  0  0  0  0  0  0
   -4.3350   19.2570  -33.5830 C   0  0  0  0  0  0  0  0  0  0  0  0
   -4.0240   18.5940  -34.6110 O   0  0  0  0  0  0  0  0  0  0  0  0
   -5.6990   19.2810  -33.1300 N   0  0  0  0  0  0  0  0  0  0  0  0
   -6.5850   18.2450  -33.1040 C   0  0  0  0  0  0  0  0  0  0  0  0
   -6.2740   16.8300  -33.3960 C   0  0  0  0  0  0  0  0  0  0  0  0
   -4.9250   16.3640  -33.4510 N   0  0  0  0  0  0  0  0  0  0  0  0
   -7.2170   16.0080  -33.5430 O   0  0  0  0  0  0  0  0  0  0  0  0
   -7.8440   18.6830  -32.7040 C   0  0  0  0  0  0  0  0  0  0  0  0
   -7.7020   20.0300  -32.4660 C   0  0  0  0  0  0  0  0  0  0  0  0
   -8.6430   20.9700  -32.0570 C   0  0  0  0  0  0  0  0  0  0  0  0
   -8.2280   22.3050  -31.9270 C   0  0  0  0  0  0  0  0  0  0  0  0
   -6.8920   22.6760  -32.2140 C   0  0  0  0  0  0  0  0  0  0  0  0
   -6.4720   24.1200  -32.1190 C   0  0  0  0  0  0  0  0  0  0  0  0
   -6.5380   24.6530  -30.6780 C   0  0  0  0  0  0  0  0  0  0  0  0
   -6.2010   23.5940  -29.6180 C   0  0  0  0  0  0  0  0  0  0  0  0
   -4.9110   23.0270  -29.8370 O   0  0  0  0  0  0  0  0  0  0  0  0
   -3.7220   23.7630  -29.8020 C   0  0  0  0  0  0  0  0  0  0  0  0
   -3.5980   24.8050  -30.5040 O   0  0  0  0  0  0  0  0  0  0  0  0
   -2.6350   23.3240  -28.9660 N   0  0  0  0  0  0  0  0  0  0  0  0
   -2.9220   22.6120  -27.7170 C   0  0  0  0  0  0  0  0  0  0  0  0
   -1.2490   23.6020  -29.3610 C   0  0  0  0  0  0  0  0  0  0  0  0
   -0.8110   24.9230  -28.8120 C   0  0  0  0  0  0  0  0  0  0  0  0
    0.2710   25.0150  -28.1770 O   0  0  0  0  0  0  0  0  0  0  0  0
   -1.6200   26.0430  -28.9620 O   0  0  0  0  0  0  0  0  0  0  0  0
   -5.9660   21.6950  -32.6340 C   0  0  0  0  0  0  0  0  0  0  0  0
   -6.3990   20.3680  -32.7320 C   0  0  0  0  0  0  0  0  0  0  0  0
   -2.4605   21.8055  -32.5512 H   0  0  0  0  0  0  0  0  0  0  0  0
   -1.8950   20.9162  -34.0058 H   0  0  0  0  0  0  0  0  0  0  0  0
   -3.5095   21.7038  -34.0058 H   0  0  0  0  0  0  0  0  0  0  0  0
   -4.1300   16.9770  -33.1610 H   0  0  0  0  0  0  0  0  0  0  0  0
   -4.7240   15.3710  -33.6990 H   0  0  0  0  0  0  0  0  0  0  0  0
   -8.7582   18.0800  -32.6003 H   0  0  0  0  0  0  0  0  0  0  0  0
   -9.6809   20.6760  -31.8420 H   0  0  0  0  0  0  0  0  0  0  0  0
   -8.9474   23.0698  -31.5991 H   0  0  0  0  0  0  0  0  0  0  0  0
   -5.4383   24.2125  -32.4835 H   0  0  0  0  0  0  0  0  0  0  0  0
   -7.1678   24.7139  -32.7299 H   0  0  0  0  0  0  0  0  0  0  0  0
   -5.8230   25.4832  -30.5806 H   0  0  0  0  0  0  0  0  0  0  0  0
   -7.5750   24.9728  -30.4981 H   0  0  0  0  0  0  0  0  0  0  0  0
   -6.2205   24.0645  -28.6239 H   0  0  0  0  0  0  0  0  0  0  0  0
   -6.9476   22.7890  -29.6851 H   0  0  0  0  0  0  0  0  0  0  0  0
   -2.6635   23.2534  -26.8616 H   0  0  0  0  0  0  0  0  0  0  0  0
   -3.9920   22.3600  -27.6761 H   0  0  0  0  0  0  0  0  0  0  0  0
   -2.3259   21.6884  -27.6761 H   0  0  0  0  0  0  0  0  0  0  0  0
   -0.5936   22.8102  -28.9692 H   0  0  0  0  0  0  0  0  0  0  0  0
   -1.1873   23.6310  -30.4589 H   0  0  0  0  0  0  0  0  0  0  0  0
   -4.9288   21.9681  -32.8783 H   0  0  0  0  0  0  0  0  0  0  0  0
  1  2  1  0
  2  3  1  0
  3  4  2  0
  3  5  1  0
  5  6  1  0
  6  7  1  0
  7  8  1  0
  7  9  2  0
  6 10  2  0
 10 11  1  0
 11 12  2  0
 12 13  1  0
 13 14  2  0
 14 15  1  0
 15 16  1  0
 16 17  1  0
 17 18  1  0
 18 19  1  0
 19 20  2  0
 19 21  1  0
 21 22  1  0
 21 23  1  0
 23 24  1  0
 24 25  2  0
 24 26  1  0
 14 27  1  0
 27 28  2  0
 28  5  1  0
 28 11  1  0
  1 29  1  0
  1 30  1  0
  1 31  1  0
  8 32  1  0
  8 33  1  0
 10 34  1  0
 12 35  1  0
 13 36  1  0
 15 37  1  0
 15 38  1  0
 16 39  1  0
 16 40  1  0
 17 41  1  0
 17 42  1  0
 22 43  1  0
 22 44  1  0
 22 45  1  0
 23 46  1  0
 23 47  1  0
 27 48  1  0
M  CHG  1  26  -1
M  END
>  <UniqueID>  (15) 
15

>  <SMILES>  (15) 
COC(=O)n1c(C(N)=O)cc2ccc(CCCOC(=O)N(C)CC(=O)[O-])cc21

>  <Energy>  (15) 
73.24392479878216

>  <Genealogy>  (15) 
COC(=O)n1c(C(N)=O)cc2ccc(CCCOC(=O)N(C)CC(=O)[O-])cc21 (protonated)
COC(=O)n1c(C(N)=O)cc2ccc(CCCOC(=O)N(C)CC(=O)[O-])cc21 (3D coordinates assigned)
COC(=O)n1c(C(N)=O)cc2ccc(CCCOC(=O)N(C)CC(=O)[O-])cc21 (optimized conformer: 73.24392479878216 kcal/mol)

>  <smiles>  (15) 
COC(=O)n1c(C(N)=O)cc2ccc(CCCOC(=O)N(C)CC(=O)O)cc21

>  <score_type>  (15) 
oracle

>  <origin>  (15) 
adg

>  <m_score__min__energy>  (15) 
-10.890000000000001

>  <m_primary>  (15) 
energy

$$$$
15:0
     RDKit          3D

 40 43  0  0  0  0  0  0  0  0999 V2000
    0.4330   21.6670  -28.1790 C   0  0  0  0  0  0  0  0  0  0  0  0
   -0.5250   22.7740  -28.4760 C   0  0  0  0  0  0  0  0  0  0  0  0
   -0.1970   24.0440  -28.5430 O   0  0  0  0  0  0  0  0  0  0  0  0
   -1.3100   24.6860  -28.8200 C   0  0  0  0  0  0  0  0  0  0  0  0
   -1.3780   25.9340  -28.9610 O   0  0  0  0  0  0  0  0  0  0  0  0
   -2.3420   23.8830  -28.9340 O   0  0  0  0  0  0  0  0  0  0  0  0
   -1.8820   22.6720  -28.7250 C   0  0  0  0  0  0  0  0  0  0  0  0
   -2.7200   21.4300  -28.7600 C   0  0  0  0  0  0  0  0  0  0  0  0
   -3.3140   21.2710  -30.0460 O   0  0  0  0  0  0  0  0  0  0  0  0
   -3.7350   22.3460  -30.8390 C   0  0  0  0  0  0  0  0  0  0  0  0
   -2.8860   23.0950  -31.3960 O   0  0  0  0  0  0  0  0  0  0  0  0
   -5.1380   22.5830  -31.0330 N   0  0  0  0  0  0  0  0  0  0  0  0
   -5.8590   23.6670  -30.6270 C   0  0  0  0  0  0  0  0  0  0  0  0
   -5.2940   24.9020  -30.0400 C   0  0  0  0  0  0  0  0  0  0  0  0
   -3.9070   25.2080  -30.1820 N   0  0  0  0  0  0  0  0  0  0  0  0
   -6.0300   25.6820  -29.3790 O   0  0  0  0  0  0  0  0  0  0  0  0
   -7.2090   23.4980  -30.9290 C   0  0  0  0  0  0  0  0  0  0  0  0
   -7.2950   22.2680  -31.5400 C   0  0  0  0  0  0  0  0  0  0  0  0
   -8.4040   21.5920  -32.0380 C   0  0  0  0  0  0  0  0  0  0  0  0
   -8.2060   20.3190  -32.5950 C   0  0  0  0  0  0  0  0  0  0  0  0
   -6.9110   19.7420  -32.6390 C   0  0  0  0  0  0  0  0  0  0  0  0
   -6.7240   18.3970  -33.2170 C   0  0  0  0  0  0  0  0  0  0  0  0
   -7.2350   17.2650  -32.6960 N   0  0  0  0  0  0  0  0  0  0  0  0
   -6.8480   16.2820  -33.4940 N   0  0  0  0  0  0  0  0  0  0  0  0
   -6.1160   16.8480  -34.4720 C   0  0  0  0  0  0  0  0  0  0  0  0
   -6.0370   18.1460  -34.3060 O   0  0  0  0  0  0  0  0  0  0  0  0
   -5.8070   20.4590  -32.1230 C   0  0  0  0  0  0  0  0  0  0  0  0
   -6.0330   21.7350  -31.5910 C   0  0  0  0  0  0  0  0  0  0  0  0
    0.5332   21.5512  -27.0897 H   0  0  0  0  0  0  0  0  0  0  0  0
    0.0565   20.7296  -28.6143 H   0  0  0  0  0  0  0  0  0  0  0  0
    1.4148   21.9050  -28.6143 H   0  0  0  0  0  0  0  0  0  0  0  0
   -2.0858   20.5579  -28.5427 H   0  0  0  0  0  0  0  0  0  0  0  0
   -3.5162   21.5137  -28.0056 H   0  0  0  0  0  0  0  0  0  0  0  0
   -3.2770   24.6150  -30.7660 H   0  0  0  0  0  0  0  0  0  0  0  0
   -3.5100   26.0630  -29.7310 H   0  0  0  0  0  0  0  0  0  0  0  0
   -8.0312   24.1990  -30.7227 H   0  0  0  0  0  0  0  0  0  0  0  0
   -9.4069   22.0420  -31.9965 H   0  0  0  0  0  0  0  0  0  0  0  0
   -9.0638   19.7632  -33.0015 H   0  0  0  0  0  0  0  0  0  0  0  0
   -5.6471   16.2954  -35.2995 H   0  0  0  0  0  0  0  0  0  0  0  0
   -4.7961   20.0257  -32.1389 H   0  0  0  0  0  0  0  0  0  0  0  0
  1  2  1  0
  2  3  1  0
  3  4  1  0
  4  5  2  0
  4  6  1  0
  6  7  1  0
  7  8  1  0
  8  9  1  0
  9 10  1  0
 10 11  2  0
 10 12  1  0
 12 13  1  0
 13 14  1  0
 14 15  1  0
 14 16  2  0
 13 17  2  0
 17 18  1  0
 18 19  2  0
 19 20  1  0
 20 21  2  0
 21 22  1  0
 22 23  2  0
 23 24  1  0
 24 25  2  0
 25 26  1  0
 21 27  1  0
 27 28  2  0
  7  2  2  0
 28 12  1  0
 28 18  1  0
 26 22  1  0
  1 29  1  0
  1 30  1  0
  1 31  1  0
  8 32  1  0
  8 33  1  0
 15 34  1  0
 15 35  1  0
 17 36  1  0
 19 37  1  0
 20 38  1  0
 25 39  1  0
 27 40  1  0
M  END
>  <UniqueID>  (16) 
16

>  <SMILES>  (16) 
Cc1oc(=O)oc1COC(=O)n1c(C(N)=O)cc2ccc(-c3nnco3)cc21

>  <Energy>  (16) 
146.97983205492585

>  <Genealogy>  (16) 
Cc1oc(=O)oc1COC(=O)n1c(C(N)=O)cc2ccc(-c3nnco3)cc21 (3D coordinates assigned)
Cc1oc(=O)oc1COC(=O)n1c(C(N)=O)cc2ccc(-c3nnco3)cc21 (optimized conformer: 146.97983205492585 kcal/mol)

>  <smiles>  (16) 
Cc1oc(=O)oc1COC(=O)n1c(C(N)=O)cc2ccc(-c3nnco3)cc21

>  <score_type>  (16) 
oracle

>  <origin>  (16) 
adg

>  <m_score__min__energy>  (16) 
-9.5399999999999991

>  <m_primary>  (16) 
energy

$$$$
16:0
     RDKit          3D

 32 33  0  0  0  0  0  0  0  0999 V2000
   -3.9460   25.6640  -30.9070 N   0  0  0  0  0  0  0  0  0  0  0  0
   -5.2440   25.2950  -30.4480 C   0  0  0  0  0  0  0  0  0  0  0  0
   -5.8970   26.1020  -29.7330 O   0  0  0  0  0  0  0  0  0  0  0  0
   -5.8500   24.0030  -30.8320 C   0  0  0  0  0  0  0  0  0  0  0  0
   -7.1960   23.8520  -31.1640 C   0  0  0  0  0  0  0  0  0  0  0  0
   -7.3370   22.5310  -31.5240 C   0  0  0  0  0  0  0  0  0  0  0  0
   -8.4660   21.8320  -31.9410 C   0  0  0  0  0  0  0  0  0  0  0  0
   -8.3250   20.4630  -32.2260 C   0  0  0  0  0  0  0  0  0  0  0  0
   -7.0730   19.8120  -32.0630 C   0  0  0  0  0  0  0  0  0  0  0  0
   -6.9260   18.3530  -32.4070 C   0  0  0  0  0  0  0  0  0  0  0  0
   -6.0600   17.7270  -31.5270 F   0  0  0  0  0  0  0  0  0  0  0  0
   -8.1490   17.7080  -32.3410 F   0  0  0  0  0  0  0  0  0  0  0  0
   -6.4240   18.2360  -33.6900 F   0  0  0  0  0  0  0  0  0  0  0  0
   -5.9460   20.5640  -31.6570 C   0  0  0  0  0  0  0  0  0  0  0  0
   -6.1130   21.9300  -31.4010 C   0  0  0  0  0  0  0  0  0  0  0  0
   -5.1880   22.8200  -30.9800 N   0  0  0  0  0  0  0  0  0  0  0  0
   -3.8140   22.5350  -30.6750 C   0  0  0  0  0  0  0  0  0  0  0  0
   -3.2990   21.4580  -31.0760 O   0  0  0  0  0  0  0  0  0  0  0  0
   -3.0400   23.4800  -29.9200 N   0  0  0  0  0  0  0  0  0  0  0  0
   -1.6230   23.3710  -29.7080 C   0  0  0  0  0  0  0  0  0  0  0  0
   -0.9650   22.4260  -30.2200 O   0  0  0  0  0  0  0  0  0  0  0  0
   -0.9050   24.4210  -28.9170 C   0  0  0  0  0  0  0  0  0  0  0  0
   -1.6020   25.6350  -28.9910 O   0  0  0  0  0  0  0  0  0  0  0  0
   -3.0870   25.3000  -30.4390 H   0  0  0  0  0  0  0  0  0  0  0  0
   -7.9788   24.6245  -31.1427 H   0  0  0  0  0  0  0  0  0  0  0  0
   -9.4386   22.3355  -32.0443 H   0  0  0  0  0  0  0  0  0  0  0  0
   -9.1942   19.8890  -32.5794 H   0  0  0  0  0  0  0  0  0  0  0  0
   -4.9613   20.0866  -31.5450 H   0  0  0  0  0  0  0  0  0  0  0  0
   -3.5370   24.2990  -29.5060 H   0  0  0  0  0  0  0  0  0  0  0  0
   -0.8371   24.1030  -27.8661 H   0  0  0  0  0  0  0  0  0  0  0  0
    0.1051   24.5579  -29.3305 H   0  0  0  0  0  0  0  0  0  0  0  0
   -2.0120   25.6740  -29.8950 H   0  0  0  0  0  0  0  0  0  0  0  0
  1  2  1  0
  2  3  2  0
  2  4  1  0
  4  5  2  0
  5  6  1  0
  6  7  2  0
  7  8  1  0
  8  9  2  0
  9 10  1  0
 10 11  1  0
 10 12  1  0
 10 13  1  0
  9 14  1  0
 14 15  2  0
 15 16  1  0
 16 17  1  0
 17 18  2  0
 17 19  1  0
 19 20  1  0
 20 21  2  0
 20 22  1  0
 22 23  1  0
 16  4  1  0
 15  6  1  0
  1 24  1  0
  5 25  1  0
  7 26  1  0
  8 27  1  0
 14 28  1  0
 19 29  1  0
 22 30  1  0
 22 31  1  0
 23 32  1  0
M  CHG  1   1  -1
M  END
>  <UniqueID>  (17) 
17

>  <SMILES>  (17) 
[NH-]C(=O)c1cc2ccc(C(F)(F)F)cc2n1C(=O)NC(=O)CO

>  <Energy>  (17) 
70.81359354534526

>  <Genealogy>  (17) 
[NH-]C(=O)c1cc2ccc(C(F)(F)F)cc2n1C(=O)NC(=O)CO (protonated)
[NH-]C(=O)c1cc2ccc(C(F)(F)F)cc2n1C(=O)NC(=O)CO (3D coordinates assigned)
[NH-]C(=O)c1cc2ccc(C(F)(F)F)cc2n1C(=O)NC(=O)CO (optimized conformer: 70.81359354534526 kcal/mol)

>  <smiles>  (17) 
NC(=O)c1cc2ccc(C(F)(F)F)cc2n1C(=O)NC(=O)CO

>  <score_type>  (17) 
oracle

>  <origin>  (17) 
adg

>  <m_score__min__energy>  (17) 
-10.25

>  <m_primary>  (17) 
energy

$$$$
17:0
     RDKit          3D

 37 38  0  0  0  0  0  0  0  0999 V2000
   -1.0720   25.5060  -28.0590 C   0  0  0  0  0  0  0  0  0  0  0  0
   -1.9940   25.0140  -29.0050 O   0  0  0  0  0  0  0  0  0  0  0  0
   -2.9200   24.1340  -28.3920 C   0  0  0  0  0  0  0  0  0  0  0  0
   -3.0760   22.8720  -29.2350 C   0  0  2  0  0  0  0  0  0  0  0  0
   -2.1230   21.9400  -28.8600 F   0  0  0  0  0  0  0  0  0  0  0  0
   -2.9180   23.1960  -30.6120 O   0  0  0  0  0  0  0  0  0  0  0  0
   -3.8150   22.7850  -31.6030 C   0  0  0  0  0  0  0  0  0  0  0  0
   -3.3880   22.2830  -32.6790 O   0  0  0  0  0  0  0  0  0  0  0  0
   -5.2250   22.9650  -31.4030 N   0  0  0  0  0  0  0  0  0  0  0  0
   -5.8640   24.0270  -30.8340 C   0  0  0  0  0  0  0  0  0  0  0  0
   -5.2420   25.3070  -30.4360 C   0  0  0  0  0  0  0  0  0  0  0  0
   -3.9370   25.6590  -30.8880 N   0  0  0  0  0  0  0  0  0  0  0  0
   -5.8900   26.1230  -29.7290 O   0  0  0  0  0  0  0  0  0  0  0  0
   -7.2340   23.7840  -30.7490 C   0  0  0  0  0  0  0  0  0  0  0  0
   -7.4180   22.5350  -31.2980 C   0  0  0  0  0  0  0  0  0  0  0  0
   -8.5830   21.7910  -31.4600 C   0  0  0  0  0  0  0  0  0  0  0  0
   -8.4750   20.5130  -32.0340 C   0  0  0  0  0  0  0  0  0  0  0  0
   -7.2130   20.0080  -32.4340 C   0  0  0  0  0  0  0  0  0  0  0  0
   -7.1030   18.6240  -33.0110 C   0  0  0  0  0  0  0  0  0  0  0  0
   -5.9200   18.5390  -33.9200 C   0  0  0  0  0  0  0  0  0  0  0  0
   -4.8190   18.1060  -33.4890 O   0  0  0  0  0  0  0  0  0  0  0  0
   -6.0440   18.8930  -35.2580 O   0  0  0  0  0  0  0  0  0  0  0  0
   -6.0500   20.7850  -32.2390 C   0  0  0  0  0  0  0  0  0  0  0  0
   -6.1910   22.0620  -31.6840 C   0  0  0  0  0  0  0  0  0  0  0  0
   -1.4462   25.3063  -27.0441 H   0  0  0  0  0  0  0  0  0  0  0  0
   -0.1023   25.0054  -28.1974 H   0  0  0  0  0  0  0  0  0  0  0  0
   -0.9480   26.5902  -28.1974 H   0  0  0  0  0  0  0  0  0  0  0  0
   -2.5552   23.8607  -27.3909 H   0  0  0  0  0  0  0  0  0  0  0  0
   -3.8952   24.6361  -28.3091 H   0  0  0  0  0  0  0  0  0  0  0  0
   -4.0781   22.4476  -29.0749 H   0  0  0  0  0  0  0  0  0  0  0  0
   -3.0860   25.2960  -30.4040 H   0  0  0  0  0  0  0  0  0  0  0  0
   -8.0045   24.4491  -30.3318 H   0  0  0  0  0  0  0  0  0  0  0  0
   -9.5589   22.1914  -31.1481 H   0  0  0  0  0  0  0  0  0  0  0  0
   -9.3774   19.8997  -32.1739 H   0  0  0  0  0  0  0  0  0  0  0  0
   -6.9866   17.8972  -32.1935 H   0  0  0  0  0  0  0  0  0  0  0  0
   -8.0145   18.3996  -33.5845 H   0  0  0  0  0  0  0  0  0  0  0  0
   -5.0589   20.3966  -32.5162 H   0  0  0  0  0  0  0  0  0  0  0  0
  1  2  1  0
  2  3  1  0
  3  4  1  0
  4  5  1  0
  4  6  1  0
  6  7  1  0
  7  8  2  0
  7  9  1  0
  9 10  1  0
 10 11  1  0
 11 12  1  0
 11 13  2  0
 10 14  2  0
 14 15  1  0
 15 16  2  0
 16 17  1  0
 17 18  2  0
 18 19  1  0
 19 20  1  0
 20 21  2  0
 20 22  1  0
 18 23  1  0
 23 24  2  0
 24  9  1  0
 24 15  1  0
  1 25  1  0
  1 26  1  0
  1 27  1  0
  3 28  1  0
  3 29  1  0
  4 30  1  6
 12 31  1  0
 14 32  1  0
 16 33  1  0
 17 34  1  0
 19 35  1  0
 19 36  1  0
 23 37  1  0
M  CHG  2  12  -1  22  -1
M  END
>  <UniqueID>  (18) 
18

>  <SMILES>  (18) 
COC[C@H](F)OC(=O)n1c(C([NH-])=O)cc2ccc(CC(=O)[O-])cc21

>  <Energy>  (18) 
71.95217025184948

>  <Genealogy>  (18) 
COCC(F)OC(=O)n1c(C([NH-])=O)cc2ccc(CC(=O)[O-])cc21 (protonated)
COC[C@H](F)OC(=O)n1c(C([NH-])=O)cc2ccc(CC(=O)[O-])cc21 (chirality)
COC[C@H](F)OC(=O)n1c(C([NH-])=O)cc2ccc(CC(=O)[O-])cc21 (3D coordinates assigned)
COC[C@H](F)OC(=O)n1c(C([NH-])=O)cc2ccc(CC(=O)[O-])cc21 (optimized conformer: 71.95217025184948 kcal/mol)

>  <smiles>  (18) 
COCC(F)OC(=O)n1c(C(N)=O)cc2ccc(CC(=O)O)cc21

>  <score_type>  (18) 
oracle

>  <origin>  (18) 
adg

>  <m_score__min__energy>  (18) 
-9.8000000000000007

>  <m_primary>  (18) 
energy

$$$$
18:0
     RDKit          3D

 46 47  0  0  0  0  0  0  0  0999 V2000
   -2.5930   19.2260  -33.7880 C   0  0  0  0  0  0  0  0  0  0  0  0
   -3.9780   19.4520  -34.0190 O   0  0  0  0  0  0  0  0  0  0  0  0
   -4.9030   18.4130  -34.1350 C   0  0  0  0  0  0  0  0  0  0  0  0
   -5.1350   17.8770  -35.2540 O   0  0  0  0  0  0  0  0  0  0  0  0
   -5.6680   17.9690  -32.9260 C   0  0  0  0  0  0  0  0  0  0  0  0
   -7.1330   18.4180  -32.9920 C   0  0  0  0  0  0  0  0  0  0  0  0
   -7.3160   19.8130  -32.4520 C   0  0  0  0  0  0  0  0  0  0  0  0
   -8.6130   20.3770  -32.3570 C   0  0  0  0  0  0  0  0  0  0  0  0
   -8.7880   21.6950  -31.9080 C   0  0  0  0  0  0  0  0  0  0  0  0
   -7.6540   22.4230  -31.5600 C   0  0  0  0  0  0  0  0  0  0  0  0
   -7.5380   23.7220  -31.1230 C   0  0  0  0  0  0  0  0  0  0  0  0
   -6.1710   23.9300  -30.9430 C   0  0  0  0  0  0  0  0  0  0  0  0
   -5.5960   25.1740  -30.3830 C   0  0  0  0  0  0  0  0  0  0  0  0
   -4.2530   25.5570  -30.6840 N   0  0  0  0  0  0  0  0  0  0  0  0
   -6.3010   25.9280  -29.6620 O   0  0  0  0  0  0  0  0  0  0  0  0
   -5.4700   22.8040  -31.2600 N   0  0  0  0  0  0  0  0  0  0  0  0
   -4.0440   22.6290  -31.2630 C   0  0  0  0  0  0  0  0  0  0  0  0
   -3.4810   22.0410  -32.2270 O   0  0  0  0  0  0  0  0  0  0  0  0
   -3.2860   23.0950  -30.1850 O   0  0  0  0  0  0  0  0  0  0  0  0
   -2.9990   22.2990  -29.0400 C   0  0  0  0  0  0  0  0  0  0  0  0
   -2.2210   23.1220  -28.0080 C   0  0  0  0  0  0  0  0  0  0  0  0
   -1.5290   24.3650  -28.5980 C   0  0  0  0  0  0  0  0  0  0  0  0
   -2.4760   25.3040  -29.0390 O   0  0  0  0  0  0  0  0  0  0  0  0
   -0.6590   24.0140  -29.6470 O   0  0  0  0  0  0  0  0  0  0  0  0
   -6.3930   21.8900  -31.6350 C   0  0  0  0  0  0  0  0  0  0  0  0
   -6.1870   20.5840  -32.0970 C   0  0  0  0  0  0  0  0  0  0  0  0
   -2.4022   19.1949  -32.7051 H   0  0  0  0  0  0  0  0  0  0  0  0
   -2.2974   18.2677  -34.2401 H   0  0  0  0  0  0  0  0  0  0  0  0
   -2.0082   20.0406  -34.2401 H   0  0  0  0  0  0  0  0  0  0  0  0
   -5.6330   16.8713  -32.8640 H   0  0  0  0  0  0  0  0  0  0  0  0
   -5.2065   18.4261  -32.0383 H   0  0  0  0  0  0  0  0  0  0  0  0
   -7.4653   18.3956  -34.0404 H   0  0  0  0  0  0  0  0  0  0  0  0
   -7.7292   17.7311  -32.3734 H   0  0  0  0  0  0  0  0  0  0  0  0
   -9.4904   19.7760  -32.6378 H   0  0  0  0  0  0  0  0  0  0  0  0
   -9.7914   22.1394  -31.8333 H   0  0  0  0  0  0  0  0  0  0  0  0
   -8.3507   24.4433  -30.9519 H   0  0  0  0  0  0  0  0  0  0  0  0
   -3.6230   24.9330  -31.2340 H   0  0  0  0  0  0  0  0  0  0  0  0
   -3.8710   26.4570  -30.3190 H   0  0  0  0  0  0  0  0  0  0  0  0
   -3.9420   21.9520  -28.5925 H   0  0  0  0  0  0  0  0  0  0  0  0
   -2.3896   21.4356  -29.3454 H   0  0  0  0  0  0  0  0  0  0  0  0
   -2.9226   23.4531  -27.2282 H   0  0  0  0  0  0  0  0  0  0  0  0
   -1.4275   22.4714  -27.6117 H   0  0  0  0  0  0  0  0  0  0  0  0
   -0.9307   24.8244  -27.7973 H   0  0  0  0  0  0  0  0  0  0  0  0
   -3.3760   24.8950  -28.9420 H   0  0  0  0  0  0  0  0  0  0  0  0
   -1.2300   23.7650  -30.4200 H   0  0  0  0  0  0  0  0  0  0  0  0
   -5.1717   20.1692  -32.1813 H   0  0  0  0  0  0  0  0  0  0  0  0
  1  2  1  0
  2  3  1  0
  3  4  2  0
  3  5  1  0
  5  6  1  0
  6  7  1  0
  7  8  2  0
  8  9  1  0
  9 10  2  0
 10 11  1  0
 11 12  2  0
 12 13  1  0
 13 14  1  0
 13 15  2  0
 12 16  1  0
 16 17  1  0
 17 18  2  0
 17 19  1  0
 19 20  1  0
 20 21  1  0
 21 22  1  0
 22 23  1  0
 22 24  1  0
 16 25  1  0
 25 26  2  0
 26  7  1  0
 25 10  1  0
  1 27  1  0
  1 28  1  0
  1 29  1  0
  5 30  1  0
  5 31  1  0
  6 32  1  0
  6 33  1  0
  8 34  1  0
  9 35  1  0
 11 36  1  0
 14 37  1  0
 14 38  1  0
 20 39  1  0
 20 40  1  0
 21 41  1  0
 21 42  1  0
 22 43  1  0
 23 44  1  0
 24 45  1  0
 26 46  1  0
M  END
>  <UniqueID>  (19) 
19

>  <SMILES>  (19) 
COC(=O)CCc1ccc2cc(C(N)=O)n(C(=O)OCCC(O)O)c2c1

>  <Energy>  (19) 
73.33863420164874

>  <Genealogy>  (19) 
COC(=O)CCc1ccc2cc(C(N)=O)n(C(=O)OCCC(O)O)c2c1 (3D coordinates assigned)
COC(=O)CCc1ccc2cc(C(N)=O)n(C(=O)OCCC(O)O)c2c1 (optimized conformer: 73.33863420164874 kcal/mol)

>  <smiles>  (19) 
COC(=O)CCc1ccc2cc(C(N)=O)n(C(=O)OCCC(O)O)c2c1

>  <score_type>  (19) 
oracle

>  <origin>  (19) 
adg

>  <m_score__min__energy>  (19) 
-8.5399999999999991

>  <m_primary>  (19) 
energy

$$$$
19:0
     RDKit          3D

 43 44  0  0  0  0  0  0  0  0999 V2000
   -5.0950   17.4200  -34.5670 C   0  0  0  0  0  0  0  0  0  0  0  0
   -6.1100   18.2140  -34.2120 C   0  0  0  0  0  0  0  0  0  0  0  0
   -6.6860   18.1980  -32.8200 C   0  0  0  0  0  0  0  0  0  0  0  0
   -5.7810   17.5880  -31.9670 F   0  0  0  0  0  0  0  0  0  0  0  0
   -7.8480   17.4420  -32.8100 F   0  0  0  0  0  0  0  0  0  0  0  0
   -6.9530   19.6090  -32.3440 C   0  0  0  0  0  0  0  0  0  0  0  0
   -8.2710   20.1350  -32.3320 C   0  0  0  0  0  0  0  0  0  0  0  0
   -8.5110   21.4610  -31.9380 C   0  0  0  0  0  0  0  0  0  0  0  0
   -7.4210   22.2410  -31.5650 C   0  0  0  0  0  0  0  0  0  0  0  0
   -7.3690   23.5600  -31.1800 C   0  0  0  0  0  0  0  0  0  0  0  0
   -6.0220   23.8220  -30.9460 C   0  0  0  0  0  0  0  0  0  0  0  0
   -5.5220   25.1190  -30.4490 C   0  0  0  0  0  0  0  0  0  0  0  0
   -4.1930   25.5580  -30.7370 N   0  0  0  0  0  0  0  0  0  0  0  0
   -6.2590   25.8260  -29.7110 O   0  0  0  0  0  0  0  0  0  0  0  0
   -5.2670   22.7140  -31.1910 N   0  0  0  0  0  0  0  0  0  0  0  0
   -3.8340   22.6100  -31.1710 C   0  0  0  0  0  0  0  0  0  0  0  0
   -3.1800   22.6870  -32.2470 O   0  0  0  0  0  0  0  0  0  0  0  0
   -3.1680   22.4220  -29.9570 O   0  0  0  0  0  0  0  0  0  0  0  0
   -1.8800   22.9620  -29.6900 C   0  0  0  0  0  0  0  0  0  0  0  0
   -2.0200   24.1610  -28.7980 C   0  0  0  0  0  0  0  0  0  0  0  0
   -2.2920   25.2740  -29.3260 O   0  0  0  0  0  0  0  0  0  0  0  0
   -1.8230   24.0730  -27.3690 N   0  0  0  0  0  0  0  0  0  0  0  0
   -1.5260   22.7870  -26.7280 C   0  0  0  0  0  0  0  0  0  0  0  0
   -1.9300   25.2900  -26.5600 C   0  0  0  0  0  0  0  0  0  0  0  0
   -6.1400   21.7520  -31.5650 C   0  0  0  0  0  0  0  0  0  0  0  0
   -5.8690   20.4400  -31.9730 C   0  0  0  0  0  0  0  0  0  0  0  0
   -4.6994   17.4583  -35.5927 H   0  0  0  0  0  0  0  0  0  0  0  0
   -4.6553   16.7282  -33.8334 H   0  0  0  0  0  0  0  0  0  0  0  0
   -6.5375   18.8996  -34.9585 H   0  0  0  0  0  0  0  0  0  0  0  0
   -9.1141   19.4966  -32.6348 H   0  0  0  0  0  0  0  0  0  0  0  0
   -9.5315   21.8714  -31.9246 H   0  0  0  0  0  0  0  0  0  0  0  0
   -8.2121   24.2592  -31.0785 H   0  0  0  0  0  0  0  0  0  0  0  0
   -3.5030   24.9230  -31.1950 H   0  0  0  0  0  0  0  0  0  0  0  0
   -3.8720   26.4990  -30.4190 H   0  0  0  0  0  0  0  0  0  0  0  0
   -1.2596   22.2031  -29.1908 H   0  0  0  0  0  0  0  0  0  0  0  0
   -1.4020   23.2595  -30.6350 H   0  0  0  0  0  0  0  0  0  0  0  0
   -1.5537   22.9071  -25.6349 H   0  0  0  0  0  0  0  0  0  0  0  0
   -2.2759   22.0428  -27.0343 H   0  0  0  0  0  0  0  0  0  0  0  0
   -0.5257   22.4470  -27.0343 H   0  0  0  0  0  0  0  0  0  0  0  0
   -1.9066   25.0241  -25.4929 H   0  0  0  0  0  0  0  0  0  0  0  0
   -1.0872   25.9584  -26.7899 H   0  0  0  0  0  0  0  0  0  0  0  0
   -2.8765   25.8011  -26.7899 H   0  0  0  0  0  0  0  0  0  0  0  0
   -4.8359   20.0634  -32.0045 H   0  0  0  0  0  0  0  0  0  0  0  0
  1  2  2  0
  2  3  1  0
  3  4  1  0
  3  5  1  0
  3  6  1  0
  6  7  2  0
  7  8  1  0
  8  9  2  0
  9 10  1  0
 10 11  2  0
 11 12  1  0
 12 13  1  0
 12 14  2  0
 11 15  1  0
 15 16  1  0
 16 17  2  0
 16 18  1  0
 18 19  1  0
 19 20  1  0
 20 21  2  0
 20 22  1  0
 22 23  1  0
 22 24  1  0
 15 25  1  0
 25 26  2  0
 26  6  1  0
 25  9  1  0
  1 27  1  0
  1 28  1  0
  2 29  1  0
  7 30  1  0
  8 31  1  0
 10 32  1  0
 13 33  1  0
 13 34  1  0
 19 35  1  0
 19 36  1  0
 23 37  1  0
 23 38  1  0
 23 39  1  0
 24 40  1  0
 24 41  1  0
 24 42  1  0
 26 43  1  0
M  END
>  <UniqueID>  (20) 
20

>  <SMILES>  (20) 
C=CC(F)(F)c1ccc2cc(C(N)=O)n(C(=O)OCC(=O)N(C)C)c2c1

>  <Energy>  (20) 
74.70087082127917

>  <Genealogy>  (20) 
C=CC(F)(F)c1ccc2cc(C(N)=O)n(C(=O)OCC(=O)N(C)C)c2c1 (3D coordinates assigned)
C=CC(F)(F)c1ccc2cc(C(N)=O)n(C(=O)OCC(=O)N(C)C)c2c1 (optimized conformer: 74.70087082127917 kcal/mol)

>  <smiles>  (20) 
C=CC(F)(F)c1ccc2cc(C(N)=O)n(C(=O)OCC(=O)N(C)C)c2c1

>  <score_type>  (20) 
oracle

>  <origin>  (20) 
adg

>  <m_score__min__energy>  (20) 
-8.9100000000000001

>  <m_primary>  (20) 
energy

$$$$
20:0
     RDKit          3D

 30 31  0  0  0  0  0  0  0  0999 V2000
   -4.0310   25.6640  -30.8550 N   0  0  0  0  0  0  0  0  0  0  0  0
   -5.3050   25.1860  -30.4300 C   0  0  0  0  0  0  0  0  0  0  0  0
   -6.0500   25.9390  -29.7490 O   0  0  0  0  0  0  0  0  0  0  0  0
   -5.7860   23.8460  -30.8260 C   0  0  0  0  0  0  0  0  0  0  0  0
   -7.0220   23.6220  -31.4290 C   0  0  0  0  0  0  0  0  0  0  0  0
   -7.0480   22.2780  -31.7210 C   0  0  0  0  0  0  0  0  0  0  0  0
   -8.0380   21.5130  -32.3290 C   0  0  0  0  0  0  0  0  0  0  0  0
   -7.8040   20.1370  -32.4870 C   0  0  0  0  0  0  0  0  0  0  0  0
   -6.6030   19.5450  -32.0130 C   0  0  0  0  0  0  0  0  0  0  0  0
   -6.3490   18.0740  -32.2210 C   0  0  0  0  0  0  0  0  0  0  0  0
   -7.4910   17.4410  -32.6800 F   0  0  0  0  0  0  0  0  0  0  0  0
   -5.9690   17.5040  -31.0200 F   0  0  0  0  0  0  0  0  0  0  0  0
   -5.3420   17.8780  -33.1510 F   0  0  0  0  0  0  0  0  0  0  0  0
   -5.6120   20.3620  -31.4210 C   0  0  0  0  0  0  0  0  0  0  0  0
   -5.8650   21.7320  -31.2940 C   0  0  0  0  0  0  0  0  0  0  0  0
   -5.0800   22.6820  -30.7390 N   0  0  0  0  0  0  0  0  0  0  0  0
   -3.8030   22.4710  -30.1180 C   0  0  0  0  0  0  0  0  0  0  0  0
   -3.6950   21.6530  -29.1630 O   0  0  0  0  0  0  0  0  0  0  0  0
   -2.6780   23.1580  -30.5920 O   0  0  0  0  0  0  0  0  0  0  0  0
   -1.3940   23.0720  -29.9800 C   0  0  0  0  0  0  0  0  0  0  0  0
   -1.0650   24.3510  -29.2810 C   0  0  0  0  0  0  0  0  0  0  0  0
   -1.8860   25.3060  -29.2890 O   0  0  0  0  0  0  0  0  0  0  0  0
    0.1360   24.4820  -28.5940 O   0  0  0  0  0  0  0  0  0  0  0  0
   -3.1500   25.2620  -30.4660 H   0  0  0  0  0  0  0  0  0  0  0  0
   -7.8100   24.3629  -31.6291 H   0  0  0  0  0  0  0  0  0  0  0  0
   -8.9758   21.9717  -32.6756 H   0  0  0  0  0  0  0  0  0  0  0  0
   -8.5597   19.5106  -32.9836 H   0  0  0  0  0  0  0  0  0  0  0  0
   -4.6638   19.9300  -31.0684 H   0  0  0  0  0  0  0  0  0  0  0  0
   -1.3946   22.2493  -29.2498 H   0  0  0  0  0  0  0  0  0  0  0  0
   -0.6390   22.8854  -30.7579 H   0  0  0  0  0  0  0  0  0  0  0  0
  1  2  1  0
  2  3  2  0
  2  4  1  0
  4  5  2  0
  5  6  1  0
  6  7  2  0
  7  8  1  0
  8  9  2  0
  9 10  1  0
 10 11  1  0
 10 12  1  0
 10 13  1  0
  9 14  1  0
 14 15  2  0
 15 16  1  0
 16 17  1  0
 17 18  2  0
 17 19  1  0
 19 20  1  0
 20 21  1  0
 21 22  2  0
 21 23  1  0
 16  4  1  0
 15  6  1  0
  1 24  1  0
  5 25  1  0
  7 26  1  0
  8 27  1  0
 14 28  1  0
 20 29  1  0
 20 30  1  0
M  CHG  2   1  -1  23  -1
M  END
>  <UniqueID>  (21) 
21

>  <SMILES>  (21) 
[NH-]C(=O)c1cc2ccc(C(F)(F)F)cc2n1C(=O)OCC(=O)[O-]

>  <Energy>  (21) 
68.09438770174685

>  <Genealogy>  (21) 
[NH-]C(=O)c1cc2ccc(C(F)(F)F)cc2n1C(=O)OCC(=O)[O-] (protonated)
[NH-]C(=O)c1cc2ccc(C(F)(F)F)cc2n1C(=O)OCC(=O)[O-] (3D coordinates assigned)
[NH-]C(=O)c1cc2ccc(C(F)(F)F)cc2n1C(=O)OCC(=O)[O-] (optimized conformer: 68.09438770174685 kcal/mol)

>  <smiles>  (21) 
NC(=O)c1cc2ccc(C(F)(F)F)cc2n1C(=O)OCC(=O)O

>  <score_type>  (21) 
oracle

>  <origin>  (21) 
adg

>  <m_score__min__energy>  (21) 
-11.65

>  <m_primary>  (21) 
energy

$$$$
21:0
     RDKit          3D

 48 50  0  0  0  0  0  0  0  0999 V2000
   -2.3490   16.2720  -35.3340 C   0  0  0  0  0  0  0  0  0  0  0  0
   -3.8400   16.3860  -35.2400 C   0  0  0  0  0  0  0  0  0  0  0  0
   -4.4080   17.4010  -35.7210 O   0  0  0  0  0  0  0  0  0  0  0  0
   -4.6430   15.3600  -34.6440 N   0  0  0  0  0  0  0  0  0  0  0  0
   -5.6130   15.5510  -33.5660 C   0  0  0  0  0  0  0  0  0  0  0  0
   -4.9140   16.2400  -32.3770 C   0  0  0  0  0  0  0  0  0  0  0  0
   -4.9310   17.7680  -32.5080 C   0  0  0  0  0  0  0  0  0  0  0  0
   -6.3080   18.2700  -32.6470 N   0  0  0  0  0  0  0  0  0  0  0  0
   -6.6140   19.6370  -32.2940 C   0  0  0  0  0  0  0  0  0  0  0  0
   -7.9260   20.1510  -32.4770 C   0  0  0  0  0  0  0  0  0  0  0  0
   -8.2300   21.4820  -32.1500 C   0  0  0  0  0  0  0  0  0  0  0  0
   -7.2130   22.2770  -31.6340 C   0  0  0  0  0  0  0  0  0  0  0  0
   -7.2270   23.6020  -31.2600 C   0  0  0  0  0  0  0  0  0  0  0  0
   -5.9300   23.8780  -30.8300 C   0  0  0  0  0  0  0  0  0  0  0  0
   -5.5260   25.1780  -30.2560 C   0  0  0  0  0  0  0  0  0  0  0  0
   -4.2170   25.7000  -30.4710 N   0  0  0  0  0  0  0  0  0  0  0  0
   -6.3310   25.8160  -29.5270 O   0  0  0  0  0  0  0  0  0  0  0  0
   -5.1440   22.7700  -30.9430 N   0  0  0  0  0  0  0  0  0  0  0  0
   -3.7370   22.6530  -30.6810 C   0  0  0  0  0  0  0  0  0  0  0  0
   -2.9200   22.5870  -31.6400 O   0  0  0  0  0  0  0  0  0  0  0  0
   -3.2820   22.5830  -29.3600 O   0  0  0  0  0  0  0  0  0  0  0  0
   -2.8010   23.7180  -28.6390 C   0  0  0  0  0  0  0  0  0  0  0  0
   -3.8600   24.3880  -28.0060 O   0  0  0  0  0  0  0  0  0  0  0  0
   -2.1280   24.5880  -29.5080 O   0  0  0  0  0  0  0  0  0  0  0  0
   -5.9450   21.7990  -31.4340 C   0  0  0  0  0  0  0  0  0  0  0  0
   -5.6070   20.4830  -31.7710 C   0  0  0  0  0  0  0  0  0  0  0  0
   -7.3780   17.3520  -33.0660 C   0  0  0  0  0  0  0  0  0  0  0  0
   -6.8430   16.3400  -34.0850 C   0  0  0  0  0  0  0  0  0  0  0  0
   -1.9193   16.2391  -34.3220 H   0  0  0  0  0  0  0  0  0  0  0  0
   -2.0850   15.3510  -35.8745 H   0  0  0  0  0  0  0  0  0  0  0  0
   -1.9481   17.1421  -35.8745 H   0  0  0  0  0  0  0  0  0  0  0  0
   -5.9931   14.5811  -33.2128 H   0  0  0  0  0  0  0  0  0  0  0  0
   -5.4315   15.9573  -31.4484 H   0  0  0  0  0  0  0  0  0  0  0  0
   -3.8642   15.9117  -32.3631 H   0  0  0  0  0  0  0  0  0  0  0  0
   -4.4754   18.2112  -31.6102 H   0  0  0  0  0  0  0  0  0  0  0  0
   -4.3629   18.0491  -33.4070 H   0  0  0  0  0  0  0  0  0  0  0  0
   -8.7137   19.4975  -32.8801 H   0  0  0  0  0  0  0  0  0  0  0  0
   -9.2432   21.8840  -32.2977 H   0  0  0  0  0  0  0  0  0  0  0  0
   -8.0803   24.2954  -31.2934 H   0  0  0  0  0  0  0  0  0  0  0  0
   -3.4930   25.6630  -29.7190 H   0  0  0  0  0  0  0  0  0  0  0  0
   -2.1000   23.3703  -27.8659 H   0  0  0  0  0  0  0  0  0  0  0  0
   -4.1390   25.1230  -28.6120 H   0  0  0  0  0  0  0  0  0  0  0  0
   -2.4810   24.4140  -30.4200 H   0  0  0  0  0  0  0  0  0  0  0  0
   -4.5801   20.1140  -31.6322 H   0  0  0  0  0  0  0  0  0  0  0  0
   -7.7592   16.8135  -32.1858 H   0  0  0  0  0  0  0  0  0  0  0  0
   -8.1868   17.9344  -33.5315 H   0  0  0  0  0  0  0  0  0  0  0  0
   -7.6440   15.6244  -34.3222 H   0  0  0  0  0  0  0  0  0  0  0  0
   -6.5214   16.9049  -34.9724 H   0  0  0  0  0  0  0  0  0  0  0  0
  1  2  1  0
  2  3  2  0
  2  4  1  0
  4  5  1  0
  5  6  1  0
  6  7  1  0
  7  8  1  0
  8  9  1  0
  9 10  2  0
 10 11  1  0
 11 12  2  0
 12 13  1  0
 13 14  2  0
 14 15  1  0
 15 16  1  0
 15 17  2  0
 14 18  1  0
 18 19  1  0
 19 20  2  0
 19 21  1  0
 21 22  1  0
 22 23  1  0
 22 24  1  0
 18 25  1  0
 25 26  2  0
  8 27  1  0
 27 28  1  0
 28  5  1  0
 26  9  1  0
 25 12  1  0
  1 29  1  0
  1 30  1  0
  1 31  1  0
  5 32  1  0
  6 33  1  0
  6 34  1  0
  7 35  1  0
  7 36  1  0
 10 37  1  0
 11 38  1  0
 13 39  1  0
 16 40  1  0
 22 41  1  0
 23 42  1  0
 24 43  1  0
 26 44  1  0
 27 45  1  0
 27 46  1  0
 28 47  1  0
 28 48  1  0
M  CHG  2   4  -1  16  -1
M  END
>  <UniqueID>  (22) 
22

>  <SMILES>  (22) 
CC(=O)[N-]C1CCN(c2ccc3cc(C([NH-])=O)n(C(=O)OC(O)O)c3c2)CC1

>  <Energy>  (22) 
89.1871364969859

>  <Genealogy>  (22) 
CC(=O)[N-]C1CCN(c2ccc3cc(C([NH-])=O)n(C(=O)OC(O)O)c3c2)CC1 (protonated)
CC(=O)[N-]C1CCN(c2ccc3cc(C([NH-])=O)n(C(=O)OC(O)O)c3c2)CC1 (3D coordinates assigned)
CC(=O)[N-]C1CCN(c2ccc3cc(C([NH-])=O)n(C(=O)OC(O)O)c3c2)CC1 (nonaromatic ring conformer: 89.1871364969859 kcal/mol)

>  <smiles>  (22) 
CC(=O)NC1CCN(c2ccc3cc(C(N)=O)n(C(=O)OC(O)O)c3c2)CC1

>  <score_type>  (22) 
oracle

>  <origin>  (22) 
adg

>  <m_score__min__energy>  (22) 
-10.35

>  <m_primary>  (22) 
energy

$$$$
22:0
     RDKit          3D

 36 38  0  0  0  0  0  0  0  0999 V2000
   -3.0540   21.0620  -29.0920 C   0  0  0  0  0  0  0  0  0  0  0  0
   -3.1150   22.2260  -29.7500 C   0  0  0  0  0  0  0  0  0  0  0  0
   -3.8190   22.3380  -31.0480 C   0  0  0  0  0  0  0  0  0  0  0  0
   -3.2190   22.0990  -32.1320 O   0  0  0  0  0  0  0  0  0  0  0  0
   -5.2000   22.7140  -31.0830 N   0  0  0  0  0  0  0  0  0  0  0  0
   -5.7350   23.9550  -30.9210 C   0  0  0  0  0  0  0  0  0  0  0  0
   -4.9830   25.1820  -30.5850 C   0  0  0  0  0  0  0  0  0  0  0  0
   -3.5840   25.2790  -30.8420 N   0  0  0  0  0  0  0  0  0  0  0  0
   -5.5780   26.1510  -30.0410 O   0  0  0  0  0  0  0  0  0  0  0  0
   -7.1190   23.9110  -31.0900 C   0  0  0  0  0  0  0  0  0  0  0  0
   -7.4100   22.5940  -31.3680 C   0  0  0  0  0  0  0  0  0  0  0  0
   -8.6300   21.9790  -31.6360 C   0  0  0  0  0  0  0  0  0  0  0  0
   -8.6260   20.6010  -31.9140 C   0  0  0  0  0  0  0  0  0  0  0  0
   -7.4110   19.8660  -31.9360 C   0  0  0  0  0  0  0  0  0  0  0  0
   -7.4370   18.3820  -32.2020 C   0  0  0  0  0  0  0  0  0  0  0  0
   -8.7150   17.8840  -32.0200 F   0  0  0  0  0  0  0  0  0  0  0  0
   -7.0430   18.1020  -33.4990 F   0  0  0  0  0  0  0  0  0  0  0  0
   -6.5770   17.7480  -31.3250 F   0  0  0  0  0  0  0  0  0  0  0  0
   -6.1950   20.5230  -31.6310 C   0  0  0  0  0  0  0  0  0  0  0  0
   -6.2340   21.8940  -31.3590 C   0  0  0  0  0  0  0  0  0  0  0  0
   -2.4380   23.3730  -29.2210 N   0  0  0  0  0  0  0  0  0  0  0  0
   -1.3160   23.8720  -29.7090 N   0  0  0  0  0  0  0  0  0  0  0  0
   -0.9970   24.9550  -29.0180 N   0  0  0  0  0  0  0  0  0  0  0  0
   -1.9060   25.1800  -28.0780 N   0  0  0  0  0  0  0  0  0  0  0  0
   -2.7980   24.1780  -28.2020 C   0  0  0  0  0  0  0  0  0  0  0  0
   -4.0830   24.1120  -27.4390 C   0  0  0  0  0  0  0  0  0  0  0  0
   -2.5257   21.0016  -28.1291 H   0  0  0  0  0  0  0  0  0  0  0  0
   -3.5322   20.1658  -29.5142 H   0  0  0  0  0  0  0  0  0  0  0  0
   -2.8930   25.2890  -30.0590 H   0  0  0  0  0  0  0  0  0  0  0  0
   -7.8271   24.7496  -31.0168 H   0  0  0  0  0  0  0  0  0  0  0  0
   -9.5680   22.5536  -31.6304 H   0  0  0  0  0  0  0  0  0  0  0  0
   -9.5762   20.0854  -32.1171 H   0  0  0  0  0  0  0  0  0  0  0  0
   -5.2445   19.9697  -31.6085 H   0  0  0  0  0  0  0  0  0  0  0  0
   -3.8697   24.1230  -26.3599 H   0  0  0  0  0  0  0  0  0  0  0  0
   -4.7082   24.9792  -27.6980 H   0  0  0  0  0  0  0  0  0  0  0  0
   -4.6160   23.1853  -27.6980 H   0  0  0  0  0  0  0  0  0  0  0  0
  1  2  2  0
  2  3  1  0
  3  4  2  0
  3  5  1  0
  5  6  1  0
  6  7  1  0
  7  8  1  0
  7  9  2  0
  6 10  2  0
 10 11  1  0
 11 12  2  0
 12 13  1  0
 13 14  2  0
 14 15  1  0
 15 16  1  0
 15 17  1  0
 15 18  1  0
 14 19  1  0
 19 20  2  0
  2 21  1  0
 21 22  1  0
 22 23  2  0
 23 24  1  0
 24 25  2  0
 25 26  1  0
 20  5  1  0
 25 21  1  0
 20 11  1  0
  1 27  1  0
  1 28  1  0
  8 29  1  0
 10 30  1  0
 12 31  1  0
 13 32  1  0
 19 33  1  0
 26 34  1  0
 26 35  1  0
 26 36  1  0
M  CHG  1   8  -1
M  END
>  <UniqueID>  (23) 
23

>  <SMILES>  (23) 
C=C(C(=O)n1c(C([NH-])=O)cc2ccc(C(F)(F)F)cc21)n1nnnc1C

>  <Energy>  (23) 
122.59777631421181

>  <Genealogy>  (23) 
C=C(C(=O)n1c(C([NH-])=O)cc2ccc(C(F)(F)F)cc21)n1nnnc1C (protonated)
C=C(C(=O)n1c(C([NH-])=O)cc2ccc(C(F)(F)F)cc21)n1nnnc1C (3D coordinates assigned)
C=C(C(=O)n1c(C([NH-])=O)cc2ccc(C(F)(F)F)cc21)n1nnnc1C (optimized conformer: 122.59777631421181 kcal/mol)

>  <smiles>  (23) 
C=C(C(=O)n1c(C(N)=O)cc2ccc(C(F)(F)F)cc21)n1nnnc1C

>  <score_type>  (23) 
oracle

>  <origin>  (23) 
adg

>  <m_score__min__energy>  (23) 
-11.1

>  <m_primary>  (23) 
energy

$$$$
23:0
     RDKit          3D

 39 40  0  0  0  0  0  0  0  0999 V2000
   -7.5860   17.3920  -32.7370 C   0  0  0  0  0  0  0  0  0  0  0  0
   -7.5430   18.5390  -32.3680 C   0  0  0  0  0  0  0  0  0  0  0  0
   -7.4910   19.9070  -31.9270 C   0  0  0  0  0  0  0  0  0  0  0  0
   -8.6740   20.5570  -31.5050 C   0  0  0  0  0  0  0  0  0  0  0  0
   -8.6350   21.8910  -31.0610 C   0  0  0  0  0  0  0  0  0  0  0  0
   -7.4040   22.5420  -31.0620 C   0  0  0  0  0  0  0  0  0  0  0  0
   -7.0740   23.8180  -30.6600 C   0  0  0  0  0  0  0  0  0  0  0  0
   -5.6990   23.9240  -30.8620 C   0  0  0  0  0  0  0  0  0  0  0  0
   -4.9220   25.1530  -30.5990 C   0  0  0  0  0  0  0  0  0  0  0  0
   -3.5160   25.1690  -30.8350 N   0  0  0  0  0  0  0  0  0  0  0  0
   -5.4830   26.1870  -30.1500 O   0  0  0  0  0  0  0  0  0  0  0  0
   -5.2010   22.7630  -31.3720 N   0  0  0  0  0  0  0  0  0  0  0  0
   -3.8310   22.4530  -31.6670 C   0  0  0  0  0  0  0  0  0  0  0  0
   -3.4520   22.3970  -32.8680 O   0  0  0  0  0  0  0  0  0  0  0  0
   -2.8670   22.1940  -30.5800 C   0  0  0  0  0  0  0  0  0  0  0  0
   -2.9370   21.1110  -29.9360 O   0  0  0  0  0  0  0  0  0  0  0  0
   -1.8510   23.1530  -30.2600 N   0  0  0  0  0  0  0  0  0  0  0  0
   -0.8860   22.9080  -29.1880 C   0  0  0  0  0  0  0  0  0  0  0  0
   -0.2800   24.1930  -28.7210 C   0  0  0  0  0  0  0  0  0  0  0  0
    0.8900   24.1980  -28.2490 O   0  0  0  0  0  0  0  0  0  0  0  0
   -1.0350   25.3660  -28.7690 O   0  0  0  0  0  0  0  0  0  0  0  0
   -1.5940   25.9670  -27.6060 C   0  0  0  0  0  0  0  0  0  0  0  0
   -2.4960   24.9670  -26.8990 C   0  0  0  0  0  0  0  0  0  0  0  0
   -6.2550   21.9260  -31.4840 C   0  0  0  0  0  0  0  0  0  0  0  0
   -6.2610   20.5930  -31.9130 C   0  0  0  0  0  0  0  0  0  0  0  0
   -7.6252   16.3455  -33.0737 H   0  0  0  0  0  0  0  0  0  0  0  0
   -9.6313   20.0155  -31.5241 H   0  0  0  0  0  0  0  0  0  0  0  0
   -9.5479   22.4038  -30.7237 H   0  0  0  0  0  0  0  0  0  0  0  0
   -7.7515   24.5888  -30.2640 H   0  0  0  0  0  0  0  0  0  0  0  0
   -2.8410   25.2980  -30.0500 H   0  0  0  0  0  0  0  0  0  0  0  0
   -1.8070   24.0470  -30.8010 H   0  0  0  0  0  0  0  0  0  0  0  0
   -1.3984   22.4224  -28.3444 H   0  0  0  0  0  0  0  0  0  0  0  0
   -0.0862   22.2581  -29.5727 H   0  0  0  0  0  0  0  0  0  0  0  0
   -0.7846   26.2737  -26.9272 H   0  0  0  0  0  0  0  0  0  0  0  0
   -2.1836   26.8487  -27.8976 H   0  0  0  0  0  0  0  0  0  0  0  0
   -2.3906   25.0839  -25.8103 H   0  0  0  0  0  0  0  0  0  0  0  0
   -3.5418   25.1485  -27.1877 H   0  0  0  0  0  0  0  0  0  0  0  0
   -2.2080   23.9454  -27.1877 H   0  0  0  0  0  0  0  0  0  0  0  0
   -5.3321   20.0962  -32.2298 H   0  0  0  0  0  0  0  0  0  0  0  0
  1  2  3  0
  2  3  1  0
  3  4  2  0
  4  5  1  0
  5  6  2  0
  6  7  1  0
  7  8  2  0
  8  9  1  0
  9 10  1  0
  9 11  2  0
  8 12  1  0
 12 13  1  0
 13 14  2  0
 13 15  1  0
 15 16  2  0
 15 17  1  0
 17 18  1  0
 18 19  1  0
 19 20  2  0
 19 21  1  0
 21 22  1  0
 22 23  1  0
 12 24  1  0
 24 25  2  0
 25  3  1  0
 24  6  1  0
  1 26  1  0
  4 27  1  0
  5 28  1  0
  7 29  1  0
 10 30  1  0
 17 31  1  0
 18 32  1  0
 18 33  1  0
 22 34  1  0
 22 35  1  0
 23 36  1  0
 23 37  1  0
 23 38  1  0
 25 39  1  0
M  CHG  1  10  -1
M  END
>  <UniqueID>  (24) 
24

>  <SMILES>  (24) 
C#Cc1ccc2cc(C([NH-])=O)n(C(=O)C(=O)NCC(=O)OCC)c2c1

>  <Energy>  (24) 
68.37481143674403

>  <Genealogy>  (24) 
C#Cc1ccc2cc(C([NH-])=O)n(C(=O)C(=O)NCC(=O)OCC)c2c1 (protonated)
C#Cc1ccc2cc(C([NH-])=O)n(C(=O)C(=O)NCC(=O)OCC)c2c1 (3D coordinates assigned)
C#Cc1ccc2cc(C([NH-])=O)n(C(=O)C(=O)NCC(=O)OCC)c2c1 (optimized conformer: 68.37481143674403 kcal/mol)

>  <smiles>  (24) 
C#Cc1ccc2cc(C(N)=O)n(C(=O)C(=O)NCC(=O)OCC)c2c1

>  <score_type>  (24) 
oracle

>  <origin>  (24) 
adg

>  <m_score__min__energy>  (24) 
-11.210000000000001

>  <m_primary>  (24) 
energy

$$$$
24:0
     RDKit          3D

 36 38  0  0  0  0  0  0  0  0999 V2000
   -1.6650   25.6560  -29.0050 N   0  0  0  0  0  0  0  0  0  0  0  0
   -1.1720   24.3340  -29.2100 C   0  0  0  0  0  0  0  0  0  0  0  0
   -0.1220   23.9690  -28.6180 O   0  0  0  0  0  0  0  0  0  0  0  0
   -1.9060   23.3720  -30.0560 C   0  0  0  0  0  0  0  0  0  0  0  0
   -1.3460   22.1850  -30.5280 C   0  0  0  0  0  0  0  0  0  0  0  0
   -2.3630   21.5390  -31.1890 C   0  0  0  0  0  0  0  0  0  0  0  0
   -2.3600   20.3210  -31.8640 C   0  0  0  0  0  0  0  0  0  0  0  0
   -3.5520   19.9090  -32.4850 C   0  0  0  0  0  0  0  0  0  0  0  0
   -4.7120   20.7180  -32.4280 C   0  0  0  0  0  0  0  0  0  0  0  0
   -5.9200   20.2920  -33.0840 N   0  0  0  0  0  0  0  0  0  0  0  0
   -5.8940   19.0910  -33.9330 C   0  0  0  0  0  0  0  0  0  0  0  0
   -5.9740   17.8270  -33.0780 C   0  0  0  0  0  0  0  0  0  0  0  0
   -7.3010   17.6510  -32.4950 N   0  0  0  0  0  0  0  0  0  0  0  0
   -8.1930   18.6850  -32.0540 C   0  0  0  0  0  0  0  0  0  0  0  0
   -8.9180   18.4600  -31.0480 O   0  0  0  0  0  0  0  0  0  0  0  0
   -8.3850   19.9760  -32.8060 C   0  0  0  0  0  0  0  0  0  0  0  0
   -7.1890   20.9260  -32.6910 C   0  0  0  0  0  0  0  0  0  0  0  0
   -4.6760   21.9500  -31.7370 C   0  0  0  0  0  0  0  0  0  0  0  0
   -3.4830   22.3260  -31.1100 C   0  0  0  0  0  0  0  0  0  0  0  0
   -3.2180   23.4580  -30.4200 N   0  0  0  0  0  0  0  0  0  0  0  0
   -4.1230   24.5530  -30.2060 C   0  0  0  0  0  0  0  0  0  0  0  0
   -3.9300   25.6590  -30.7770 O   0  0  0  0  0  0  0  0  0  0  0  0
   -5.2330   24.3950  -29.3860 O   0  0  0  0  0  0  0  0  0  0  0  0
   -2.6910   25.8490  -28.9860 H   0  0  0  0  0  0  0  0  0  0  0  0
   -0.3098   21.8392  -30.3986 H   0  0  0  0  0  0  0  0  0  0  0  0
   -1.4529   19.7004  -31.9099 H   0  0  0  0  0  0  0  0  0  0  0  0
   -3.5835   18.9486  -33.0204 H   0  0  0  0  0  0  0  0  0  0  0  0
   -6.7512   19.1165  -34.6219 H   0  0  0  0  0  0  0  0  0  0  0  0
   -4.9512   19.0772  -34.4996 H   0  0  0  0  0  0  0  0  0  0  0  0
   -5.7433   16.9554  -33.7082 H   0  0  0  0  0  0  0  0  0  0  0  0
   -5.2491   17.9231  -32.2563 H   0  0  0  0  0  0  0  0  0  0  0  0
   -8.5437   19.7410  -33.8688 H   0  0  0  0  0  0  0  0  0  0  0  0
   -9.2517   20.4870  -32.3614 H   0  0  0  0  0  0  0  0  0  0  0  0
   -7.3653   21.7943  -33.3430 H   0  0  0  0  0  0  0  0  0  0  0  0
   -7.0998   21.2215  -31.6352 H   0  0  0  0  0  0  0  0  0  0  0  0
   -5.5641   22.5976  -31.6931 H   0  0  0  0  0  0  0  0  0  0  0  0
  1  2  1  0
  2  3  2  0
  2  4  1  0
  4  5  2  0
  5  6  1  0
  6  7  2  0
  7  8  1  0
  8  9  2  0
  9 10  1  0
 10 11  1  0
 11 12  1  0
 12 13  1  0
 13 14  1  0
 14 15  2  0
 14 16  1  0
 16 17  1  0
  9 18  1  0
 18 19  2  0
 19 20  1  0
 20 21  1  0
 21 22  2  0
 21 23  1  0
 20  4  1  0
 19  6  1  0
 17 10  1  0
  1 24  1  0
  5 25  1  0
  7 26  1  0
  8 27  1  0
 11 28  1  0
 11 29  1  0
 12 30  1  0
 12 31  1  0
 16 32  1  0
 16 33  1  0
 17 34  1  0
 17 35  1  0
 18 36  1  0
M  CHG  3   1  -1  13  -1  23  -1
M  END
>  <UniqueID>  (25) 
25

>  <SMILES>  (25) 
[NH-]C(=O)c1cc2ccc(N3CC[N-]C(=O)CC3)cc2n1C(=O)[O-]

>  <Energy>  (25) 
85.82706670964454

>  <Genealogy>  (25) 
[NH-]C(=O)c1cc2ccc(N3CC[N-]C(=O)CC3)cc2n1C(=O)[O-] (protonated)
[NH-]C(=O)c1cc2ccc(N3CC[N-]C(=O)CC3)cc2n1C(=O)[O-] (3D coordinates assigned)
[NH-]C(=O)c1cc2ccc(N3CC[N-]C(=O)CC3)cc2n1C(=O)[O-] (nonaromatic ring conformer: 85.82706670964454 kcal/mol)

>  <smiles>  (25) 
NC(=O)c1cc2ccc(N3CCNC(=O)CC3)cc2n1C(=O)O

>  <score_type>  (25) 
oracle

>  <origin>  (25) 
adg

>  <m_score__min__energy>  (25) 
-9.8499999999999996

>  <m_primary>  (25) 
energy

$$$$
25:0
     RDKit          3D

 44 46  0  0  0  0  0  0  0  0999 V2000
   -4.1630   25.5040  -30.7400 N   0  0  0  0  0  0  0  0  0  0  0  0
   -5.4680   24.9970  -30.4520 C   0  0  0  0  0  0  0  0  0  0  0  0
   -6.2090   25.6230  -29.6500 O   0  0  0  0  0  0  0  0  0  0  0  0
   -5.9370   23.7210  -31.0280 C   0  0  0  0  0  0  0  0  0  0  0  0
   -7.2810   23.4230  -31.2290 C   0  0  0  0  0  0  0  0  0  0  0  0
   -7.2980   22.1380  -31.7210 C   0  0  0  0  0  0  0  0  0  0  0  0
   -8.3740   21.3430  -32.0990 C   0  0  0  0  0  0  0  0  0  0  0  0
   -8.1020   20.0610  -32.6040 C   0  0  0  0  0  0  0  0  0  0  0  0
   -6.7650   19.6090  -32.7500 C   0  0  0  0  0  0  0  0  0  0  0  0
   -6.4850   18.2170  -33.2610 C   0  0  0  0  0  0  0  0  0  0  0  0
   -5.4460   17.6380  -32.5550 F   0  0  0  0  0  0  0  0  0  0  0  0
   -7.6200   17.4420  -33.1130 F   0  0  0  0  0  0  0  0  0  0  0  0
   -6.1340   18.2500  -34.6000 F   0  0  0  0  0  0  0  0  0  0  0  0
   -5.6980   20.4390  -32.3330 C   0  0  0  0  0  0  0  0  0  0  0  0
   -6.0000   21.7040  -31.8130 C   0  0  0  0  0  0  0  0  0  0  0  0
   -5.1490   22.6690  -31.3900 N   0  0  0  0  0  0  0  0  0  0  0  0
   -3.7120   22.6410  -31.4440 C   0  0  0  0  0  0  0  0  0  0  0  0
   -3.1290   22.2320  -32.4850 O   0  0  0  0  0  0  0  0  0  0  0  0
   -2.9750   23.0620  -30.3300 O   0  0  0  0  0  0  0  0  0  0  0  0
   -3.1350   22.5870  -29.0210 C   0  0  0  0  0  0  0  0  0  0  0  0
   -4.0660   23.0230  -28.2910 O   0  0  0  0  0  0  0  0  0  0  0  0
   -2.2290   21.5930  -28.5100 N   0  0  0  0  0  0  0  0  0  0  0  0
   -2.3010   21.1960  -27.0940 C   0  0  0  0  0  0  0  0  0  0  0  0
   -1.0040   20.5130  -26.6410 C   0  0  0  0  0  0  0  0  0  0  0  0
   -0.6210   19.3230  -27.5430 C   0  0  0  0  0  0  0  0  0  0  0  0
   -1.2630   18.1650  -27.0720 O   0  0  0  0  0  0  0  0  0  0  0  0
   -0.9700   19.5490  -29.0350 C   0  0  0  0  0  0  0  0  0  0  0  0
   -1.1860   21.0250  -29.3770 C   0  0  0  0  0  0  0  0  0  0  0  0
   -3.4680   24.9330  -31.2690 H   0  0  0  0  0  0  0  0  0  0  0  0
   -3.8660   26.4300  -30.3610 H   0  0  0  0  0  0  0  0  0  0  0  0
   -8.1454   24.0753  -31.0359 H   0  0  0  0  0  0  0  0  0  0  0  0
   -9.4077   21.7072  -32.0053 H   0  0  0  0  0  0  0  0  0  0  0  0
   -8.9341   19.4005  -32.8893 H   0  0  0  0  0  0  0  0  0  0  0  0
   -4.6552   20.0988  -32.4152 H   0  0  0  0  0  0  0  0  0  0  0  0
   -2.4682   22.0922  -26.4785 H   0  0  0  0  0  0  0  0  0  0  0  0
   -3.1296   20.4825  -26.9747 H   0  0  0  0  0  0  0  0  0  0  0  0
   -0.1889   21.2513  -26.6650 H   0  0  0  0  0  0  0  0  0  0  0  0
   -1.1663   20.1250  -25.6246 H   0  0  0  0  0  0  0  0  0  0  0  0
    0.4723   19.2127  -27.4925 H   0  0  0  0  0  0  0  0  0  0  0  0
   -0.6040   17.6830  -26.5080 H   0  0  0  0  0  0  0  0  0  0  0  0
   -0.1448   19.1626  -29.6513 H   0  0  0  0  0  0  0  0  0  0  0  0
   -1.9133   19.0207  -29.2380 H   0  0  0  0  0  0  0  0  0  0  0  0
   -0.2460   21.5757  -29.2253 H   0  0  0  0  0  0  0  0  0  0  0  0
   -1.5022   21.1106  -30.4271 H   0  0  0  0  0  0  0  0  0  0  0  0
  1  2  1  0
  2  3  2  0
  2  4  1  0
  4  5  2  0
  5  6  1  0
  6  7  2  0
  7  8  1  0
  8  9  2  0
  9 10  1  0
 10 11  1  0
 10 12  1  0
 10 13  1  0
  9 14  1  0
 14 15  2  0
 15 16  1  0
 16 17  1  0
 17 18  2  0
 17 19  1  0
 19 20  1  0
 20 21  2  0
 20 22  1  0
 22 23  1  0
 23 24  1  0
 24 25  1  0
 25 26  1  0
 25 27  1  0
 27 28  1  0
 16  4  1  0
 28 22  1  0
 15  6  1  0
  1 29  1  0
  1 30  1  0
  5 31  1  0
  7 32  1  0
  8 33  1  0
 14 34  1  0
 23 35  1  0
 23 36  1  0
 24 37  1  0
 24 38  1  0
 25 39  1  0
 26 40  1  0
 27 41  1  0
 27 42  1  0
 28 43  1  0
 28 44  1  0
M  END
>  <UniqueID>  (26) 
26

>  <SMILES>  (26) 
NC(=O)c1cc2ccc(C(F)(F)F)cc2n1C(=O)OC(=O)N1CCC(O)CC1

>  <Energy>  (26) 
86.85252020166189

>  <Genealogy>  (26) 
NC(=O)c1cc2ccc(C(F)(F)F)cc2n1C(=O)OC(=O)N1CCC(O)CC1 (3D coordinates assigned)
NC(=O)c1cc2ccc(C(F)(F)F)cc2n1C(=O)OC(=O)N1CCC(O)CC1 (nonaromatic ring conformer: 86.85252020166189 kcal/mol)

>  <smiles>  (26) 
NC(=O)c1cc2ccc(C(F)(F)F)cc2n1C(=O)OC(=O)N1CCC(O)CC1

>  <score_type>  (26) 
oracle

>  <origin>  (26) 
adg

>  <m_score__min__energy>  (26) 
-9.1099999999999994

>  <m_primary>  (26) 
energy

$$$$
26:0
     RDKit          3D

 28 29  0  0  0  0  0  0  0  0999 V2000
   -3.9170   25.6690  -30.8400 N   0  0  0  0  0  0  0  0  0  0  0  0
   -5.2380   25.2550  -30.4980 C   0  0  0  0  0  0  0  0  0  0  0  0
   -5.9130   25.9490  -29.6920 O   0  0  0  0  0  0  0  0  0  0  0  0
   -5.8030   24.0000  -31.0340 C   0  0  0  0  0  0  0  0  0  0  0  0
   -7.1710   23.7800  -31.1870 C   0  0  0  0  0  0  0  0  0  0  0  0
   -7.2860   22.4780  -31.6180 C   0  0  0  0  0  0  0  0  0  0  0  0
   -8.4210   21.7350  -31.9290 C   0  0  0  0  0  0  0  0  0  0  0  0
   -8.2420   20.4130  -32.3720 C   0  0  0  0  0  0  0  0  0  0  0  0
   -6.9410   19.8700  -32.5100 C   0  0  0  0  0  0  0  0  0  0  0  0
   -6.7640   18.4500  -32.9620 C   0  0  0  0  0  0  0  0  0  0  0  0
   -5.7730   18.4090  -34.4410 Cl  0  0  0  0  0  0  0  0  0  0  0  0
   -5.8130   20.6490  -32.1720 C   0  0  0  0  0  0  0  0  0  0  0  0
   -6.0220   21.9560  -31.7160 C   0  0  0  0  0  0  0  0  0  0  0  0
   -5.1000   22.8790  -31.3650 N   0  0  0  0  0  0  0  0  0  0  0  0
   -3.6750   22.7160  -31.4170 C   0  0  0  0  0  0  0  0  0  0  0  0
   -3.1400   22.1700  -32.4210 O   0  0  0  0  0  0  0  0  0  0  0  0
   -2.8880   23.1440  -30.3410 O   0  0  0  0  0  0  0  0  0  0  0  0
   -2.8740   22.4860  -29.0780 C   0  0  0  0  0  0  0  0  0  0  0  0
   -3.8850   23.3730  -27.9090 Cl  0  0  0  0  0  0  0  0  0  0  0  0
   -3.0880   25.2960  -30.3260 H   0  0  0  0  0  0  0  0  0  0  0  0
   -7.9859   24.4954  -31.0024 H   0  0  0  0  0  0  0  0  0  0  0  0
   -9.4271   22.1689  -31.8312 H   0  0  0  0  0  0  0  0  0  0  0  0
   -9.1194   19.7951  -32.6135 H   0  0  0  0  0  0  0  0  0  0  0  0
   -6.2627   17.8741  -32.1701 H   0  0  0  0  0  0  0  0  0  0  0  0
   -7.7498   18.0094  -33.1721 H   0  0  0  0  0  0  0  0  0  0  0  0
   -4.7963   20.2395  -32.2646 H   0  0  0  0  0  0  0  0  0  0  0  0
   -3.2662   21.4651  -29.1961 H   0  0  0  0  0  0  0  0  0  0  0  0
   -1.8403   22.4509  -28.7036 H   0  0  0  0  0  0  0  0  0  0  0  0
  1  2  1  0
  2  3  2  0
  2  4  1  0
  4  5  2  0
  5  6  1  0
  6  7  2  0
  7  8  1  0
  8  9  2  0
  9 10  1  0
 10 11  1  0
  9 12  1  0
 12 13  2  0
 13 14  1  0
 14 15  1  0
 15 16  2  0
 15 17  1  0
 17 18  1  0
 18 19  1  0
 14  4  1  0
 13  6  1  0
  1 20  1  0
  5 21  1  0
  7 22  1  0
  8 23  1  0
 10 24  1  0
 10 25  1  0
 12 26  1  0
 18 27  1  0
 18 28  1  0
M  CHG  1   1  -1
M  END
>  <UniqueID>  (27) 
27

>  <SMILES>  (27) 
[NH-]C(=O)c1cc2ccc(CCl)cc2n1C(=O)OCCl

>  <Energy>  (27) 
64.9254436375127

>  <Genealogy>  (27) 
[NH-]C(=O)c1cc2ccc(CCl)cc2n1C(=O)OCCl (protonated)
[NH-]C(=O)c1cc2ccc(CCl)cc2n1C(=O)OCCl (3D coordinates assigned)
[NH-]C(=O)c1cc2ccc(CCl)cc2n1C(=O)OCCl (optimized conformer: 64.9254436375127 kcal/mol)

>  <smiles>  (27) 
NC(=O)c1cc2ccc(CCl)cc2n1C(=O)OCCl

>  <score_type>  (27) 
oracle

>  <origin>  (27) 
adg

>  <m_score__min__energy>  (27) 
-9.4600000000000009

>  <m_primary>  (27) 
energy

$$$$
27:0
     RDKit          3D

 50 53  0  0  0  0  0  0  0  0999 V2000
   -2.7710   20.1780  -31.3620 C   0  0  0  0  0  0  0  0  0  0  0  0
   -2.5590   20.8610  -32.7210 C   0  0  0  0  0  0  0  0  0  0  0  0
   -1.0690   21.2240  -32.8670 C   0  0  0  0  0  0  0  0  0  0  0  0
   -2.9950   19.8940  -33.8400 C   0  0  0  0  0  0  0  0  0  0  0  0
   -3.3690   22.0440  -32.7310 O   0  0  0  0  0  0  0  0  0  0  0  0
   -3.8300   22.7480  -31.6100 C   0  0  0  0  0  0  0  0  0  0  0  0
   -3.0300   23.1510  -30.7220 O   0  0  0  0  0  0  0  0  0  0  0  0
   -5.2380   22.9830  -31.4570 N   0  0  0  0  0  0  0  0  0  0  0  0
   -5.8530   24.0490  -30.8710 C   0  0  0  0  0  0  0  0  0  0  0  0
   -5.1910   25.2860  -30.4060 C   0  0  0  0  0  0  0  0  0  0  0  0
   -3.8770   25.6250  -30.8440 N   0  0  0  0  0  0  0  0  0  0  0  0
   -5.8110   26.0780  -29.6480 O   0  0  0  0  0  0  0  0  0  0  0  0
   -7.2320   23.8590  -30.8380 C   0  0  0  0  0  0  0  0  0  0  0  0
   -7.4460   22.6370  -31.4350 C   0  0  0  0  0  0  0  0  0  0  0  0
   -8.6320   21.9570  -31.6840 C   0  0  0  0  0  0  0  0  0  0  0  0
   -8.5540   20.7010  -32.3070 C   0  0  0  0  0  0  0  0  0  0  0  0
   -7.2970   20.1190  -32.6300 C   0  0  0  0  0  0  0  0  0  0  0  0
   -7.2200   18.7880  -33.3710 C   0  0  1  0  0  0  0  0  0  0  0  0
   -5.9040   18.5360  -34.1590 C   0  0  0  0  0  0  0  0  0  0  0  0
   -5.4510   17.1800  -33.7650 N   0  0  0  0  0  0  0  0  0  0  0  0
   -4.9030   17.2850  -32.3930 C   0  0  0  0  0  0  0  0  0  0  0  0
   -6.1220   17.5130  -31.4820 C   0  0  0  0  0  0  0  0  0  0  0  0
   -7.2720   17.5140  -32.5030 C   0  0  2  0  0  0  0  0  0  0  0  0
   -6.7250   16.5240  -33.4930 C   0  0  0  0  0  0  0  0  0  0  0  0
   -6.1180   20.8720  -32.4040 C   0  0  0  0  0  0  0  0  0  0  0  0
   -6.2280   22.1290  -31.7980 C   0  0  0  0  0  0  0  0  0  0  0  0
   -2.5495   20.8914  -30.5546 H   0  0  0  0  0  0  0  0  0  0  0  0
   -3.8154   19.8429  -31.2790 H   0  0  0  0  0  0  0  0  0  0  0  0
   -2.0999   19.3104  -31.2790 H   0  0  0  0  0  0  0  0  0  0  0  0
   -0.6189   21.3337  -31.8693 H   0  0  0  0  0  0  0  0  0  0  0  0
   -0.5495   20.4261  -33.4180 H   0  0  0  0  0  0  0  0  0  0  0  0
   -0.9747   22.1714  -33.4180 H   0  0  0  0  0  0  0  0  0  0  0  0
   -3.4081   18.9779  -33.3926 H   0  0  0  0  0  0  0  0  0  0  0  0
   -3.7628   20.3763  -34.4628 H   0  0  0  0  0  0  0  0  0  0  0  0
   -2.1252   19.6379  -34.4628 H   0  0  0  0  0  0  0  0  0  0  0  0
   -3.0350   25.2750  -30.3360 H   0  0  0  0  0  0  0  0  0  0  0  0
   -7.9894   24.5404  -30.4231 H   0  0  0  0  0  0  0  0  0  0  0  0
   -9.6030   22.3898  -31.4015 H   0  0  0  0  0  0  0  0  0  0  0  0
   -9.4798   20.1585  -32.5491 H   0  0  0  0  0  0  0  0  0  0  0  0
   -8.1100   18.9228  -34.0032 H   0  0  0  0  0  0  0  0  0  0  0  0
   -6.0920   18.5775  -35.2420 H   0  0  0  0  0  0  0  0  0  0  0  0
   -5.1441   19.2985  -33.9328 H   0  0  0  0  0  0  0  0  0  0  0  0
   -4.3827   16.3568  -32.1144 H   0  0  0  0  0  0  0  0  0  0  0  0
   -4.1699   18.1005  -32.3068 H   0  0  0  0  0  0  0  0  0  0  0  0
   -6.2348   16.6992  -30.7506 H   0  0  0  0  0  0  0  0  0  0  0  0
   -6.0621   18.4272  -30.8731 H   0  0  0  0  0  0  0  0  0  0  0  0
   -8.2527   17.3713  -32.0257 H   0  0  0  0  0  0  0  0  0  0  0  0
   -6.5920   15.5253  -33.0515 H   0  0  0  0  0  0  0  0  0  0  0  0
   -7.3579   16.3227  -34.3699 H   0  0  0  0  0  0  0  0  0  0  0  0
   -5.1350   20.4762  -32.6992 H   0  0  0  0  0  0  0  0  0  0  0  0
  1  2  1  0
  2  3  1  0
  2  4  1  0
  2  5  1  0
  5  6  1  0
  6  7  2  0
  6  8  1  0
  8  9  1  0
  9 10  1  0
 10 11  1  0
 10 12  2  0
  9 13  2  0
 13 14  1  0
 14 15  2  0
 15 16  1  0
 16 17  2  0
 17 18  1  0
 18 19  1  0
 20 19  1  0
 20 21  1  0
 21 22  1  0
 22 23  1  0
 23 24  1  0
 17 25  1  0
 25 26  2  0
 26  8  1  0
 26 14  1  0
 23 18  1  0
 24 20  1  0
  1 27  1  0
  1 28  1  0
  1 29  1  0
  3 30  1  0
  3 31  1  0
  3 32  1  0
  4 33  1  0
  4 34  1  0
  4 35  1  0
 11 36  1  0
 13 37  1  0
 15 38  1  0
 16 39  1  0
 18 40  1  6
 19 41  1  0
 19 42  1  0
 21 43  1  0
 21 44  1  0
 22 45  1  0
 22 46  1  0
 23 47  1  1
 24 48  1  0
 24 49  1  0
 25 50  1  0
M  CHG  1  11  -1
M  END
>  <UniqueID>  (28) 
28

>  <SMILES>  (28) 
CC(C)(C)OC(=O)n1c(C([NH-])=O)cc2ccc([C@H]3C[N@@]4CCC3C4)cc21

>  <Energy>  (28) 
119.42663133292842

>  <Genealogy>  (28) 
CC(C)(C)OC(=O)n1c(C([NH-])=O)cc2ccc(C3CN4CCC3C4)cc21 (protonated)
CC(C)(C)OC(=O)n1c(C([NH-])=O)cc2ccc([C@H]3C[N@@]4CCC3C4)cc21 (chirality)
CC(C)(C)OC(=O)n1c(C([NH-])=O)cc2ccc([C@H]3C[N@@]4CCC3C4)cc21 (3D coordinates assigned)
CC(C)(C)OC(=O)n1c(C([NH-])=O)cc2ccc([C@H]3C[N@@]4CCC3C4)cc21 (nonaromatic ring conformer: 119.42663133292842 kcal/mol)

>  <smiles>  (28) 
CC(C)(C)OC(=O)n1c(C(N)=O)cc2ccc(C3CN4CCC3C4)cc21

>  <score_type>  (28) 
oracle

>  <origin>  (28) 
adg

>  <m_score__min__energy>  (28) 
-11.81

>  <m_primary>  (28) 
energy

$$$$
28:0
     RDKit          3D

 46 47  0  0  0  0  0  0  0  0999 V2000
   -5.9930   16.9740  -31.4580 C   0  0  0  0  0  0  0  0  0  0  0  0
   -6.4920   17.8780  -32.4970 N   0  0  0  0  0  0  0  0  0  0  0  0
   -7.8180   18.5100  -32.3780 C   0  0  0  0  0  0  0  0  0  0  0  0
   -7.7410   20.0570  -32.5210 C   0  0  0  0  0  0  0  0  0  0  0  0
   -9.1030   20.6950  -32.1870 C   0  0  0  0  0  0  0  0  0  0  0  0
   -6.6760   20.6140  -31.5500 C   0  0  0  0  0  0  0  0  0  0  0  0
   -7.4020   20.4100  -33.8410 O   0  0  0  0  0  0  0  0  0  0  0  0
   -5.6670   18.1160  -33.6490 C   0  0  0  0  0  0  0  0  0  0  0  0
   -6.1790   18.0530  -34.8010 O   0  0  0  0  0  0  0  0  0  0  0  0
   -4.2260   18.4090  -33.5030 C   0  0  0  0  0  0  0  0  0  0  0  0
   -3.4480   17.5220  -33.0580 O   0  0  0  0  0  0  0  0  0  0  0  0
   -3.6730   19.7620  -33.8500 C   0  0  0  0  0  0  0  0  0  0  0  0
   -3.0240   20.3730  -32.6380 C   0  0  0  0  0  0  0  0  0  0  0  0
   -1.8890   19.7590  -32.0500 C   0  0  0  0  0  0  0  0  0  0  0  0
   -1.2180   20.3740  -30.9790 C   0  0  0  0  0  0  0  0  0  0  0  0
   -1.7040   21.5960  -30.5190 C   0  0  0  0  0  0  0  0  0  0  0  0
   -1.2200   22.4270  -29.5330 C   0  0  0  0  0  0  0  0  0  0  0  0
   -2.0840   23.5230  -29.5170 C   0  0  0  0  0  0  0  0  0  0  0  0
   -1.9750   24.6280  -28.5430 C   0  0  0  0  0  0  0  0  0  0  0  0
   -1.5630   25.9290  -28.9570 N   0  0  0  0  0  0  0  0  0  0  0  0
   -2.3000   24.4360  -27.3400 O   0  0  0  0  0  0  0  0  0  0  0  0
   -3.0560   23.3800  -30.4620 N   0  0  0  0  0  0  0  0  0  0  0  0
   -4.0700   24.3300  -30.8290 C   0  0  0  0  0  0  0  0  0  0  0  0
   -3.8780   25.5630  -30.6590 O   0  0  0  0  0  0  0  0  0  0  0  0
   -5.2840   23.8930  -31.3420 O   0  0  0  0  0  0  0  0  0  0  0  0
   -2.8120   22.1940  -31.0650 C   0  0  0  0  0  0  0  0  0  0  0  0
   -3.4890   21.6130  -32.1430 C   0  0  0  0  0  0  0  0  0  0  0  0
   -6.2236   17.3917  -30.4669 H   0  0  0  0  0  0  0  0  0  0  0  0
   -6.4767   15.9917  -31.5635 H   0  0  0  0  0  0  0  0  0  0  0  0
   -4.9040   16.8597  -31.5635 H   0  0  0  0  0  0  0  0  0  0  0  0
   -8.4730   18.1125  -33.1673 H   0  0  0  0  0  0  0  0  0  0  0  0
   -8.2153   18.2805  -31.3783 H   0  0  0  0  0  0  0  0  0  0  0  0
   -9.2235   20.7515  -31.0951 H   0  0  0  0  0  0  0  0  0  0  0  0
   -9.1480   21.7079  -32.6137 H   0  0  0  0  0  0  0  0  0  0  0  0
   -9.9099   20.0812  -32.6137 H   0  0  0  0  0  0  0  0  0  0  0  0
   -7.0008   20.4441  -30.5129 H   0  0  0  0  0  0  0  0  0  0  0  0
   -5.7183   20.1013  -31.7229 H   0  0  0  0  0  0  0  0  0  0  0  0
   -6.5507   21.6931  -31.7229 H   0  0  0  0  0  0  0  0  0  0  0  0
   -7.5480   19.6130  -34.4170 H   0  0  0  0  0  0  0  0  0  0  0  0
   -2.9259   19.6569  -34.6505 H   0  0  0  0  0  0  0  0  0  0  0  0
   -4.4918   20.4128  -34.1906 H   0  0  0  0  0  0  0  0  0  0  0  0
   -1.5306   18.7931  -32.4354 H   0  0  0  0  0  0  0  0  0  0  0  0
   -0.3362   19.9049  -30.5181 H   0  0  0  0  0  0  0  0  0  0  0  0
   -0.3399   22.2620  -28.8941 H   0  0  0  0  0  0  0  0  0  0  0  0
   -1.1860   26.0920  -29.9160 H   0  0  0  0  0  0  0  0  0  0  0  0
   -4.3613   22.1087  -32.5941 H   0  0  0  0  0  0  0  0  0  0  0  0
  1  2  1  0
  2  3  1  0
  3  4  1  0
  4  5  1  0
  4  6  1  0
  4  7  1  0
  2  8  1  0
  8  9  2  0
  8 10  1  0
 10 11  2  0
 10 12  1  0
 12 13  1  0
 13 14  2  0
 14 15  1  0
 15 16  2  0
 16 17  1  0
 17 18  2  0
 18 19  1  0
 19 20  1  0
 19 21  2  0
 18 22  1  0
 22 23  1  0
 23 24  2  0
 23 25  1  0
 22 26  1  0
 26 27  2  0
 27 13  1  0
 26 16  1  0
  1 28  1  0
  1 29  1  0
  1 30  1  0
  3 31  1  0
  3 32  1  0
  5 33  1  0
  5 34  1  0
  5 35  1  0
  6 36  1  0
  6 37  1  0
  6 38  1  0
  7 39  1  0
 12 40  1  0
 12 41  1  0
 14 42  1  0
 15 43  1  0
 17 44  1  0
 20 45  1  0
 27 46  1  0
M  CHG  2  20  -1  25  -1
M  END
>  <UniqueID>  (29) 
29

>  <SMILES>  (29) 
CN(CC(C)(C)O)C(=O)C(=O)Cc1ccc2cc(C([NH-])=O)n(C(=O)[O-])c2c1

>  <Energy>  (29) 
80.28561090498229

>  <Genealogy>  (29) 
CN(CC(C)(C)O)C(=O)C(=O)Cc1ccc2cc(C([NH-])=O)n(C(=O)[O-])c2c1 (protonated)
CN(CC(C)(C)O)C(=O)C(=O)Cc1ccc2cc(C([NH-])=O)n(C(=O)[O-])c2c1 (3D coordinates assigned)
CN(CC(C)(C)O)C(=O)C(=O)Cc1ccc2cc(C([NH-])=O)n(C(=O)[O-])c2c1 (optimized conformer: 80.28561090498229 kcal/mol)

>  <smiles>  (29) 
CN(CC(C)(C)O)C(=O)C(=O)Cc1ccc2cc(C(N)=O)n(C(=O)O)c2c1

>  <score_type>  (29) 
oracle

>  <origin>  (29) 
adg

>  <m_score__min__energy>  (29) 
-11.630000000000001

>  <m_primary>  (29) 
energy

$$$$
29:0
     RDKit          3D

 33 35  0  0  0  0  0  0  0  0999 V2000
   -3.9970   25.6760  -30.8600 N   0  0  0  0  0  0  0  0  0  0  0  0
   -5.2420   25.0850  -30.4980 C   0  0  0  0  0  0  0  0  0  0  0  0
   -5.9620   25.6480  -29.6290 O   0  0  0  0  0  0  0  0  0  0  0  0
   -5.6730   23.8000  -31.0840 C   0  0  0  0  0  0  0  0  0  0  0  0
   -7.0040   23.4900  -31.3590 C   0  0  0  0  0  0  0  0  0  0  0  0
   -6.9900   22.1890  -31.8050 C   0  0  0  0  0  0  0  0  0  0  0  0
   -8.0380   21.3790  -32.2300 C   0  0  0  0  0  0  0  0  0  0  0  0
   -7.7310   20.0800  -32.6710 C   0  0  0  0  0  0  0  0  0  0  0  0
   -6.3870   19.6160  -32.6880 C   0  0  0  0  0  0  0  0  0  0  0  0
   -6.0560   18.2510  -33.1650 C   0  0  0  0  0  0  0  0  0  0  0  0
   -6.1510   17.0700  -32.4510 C   0  0  0  0  0  0  0  0  0  0  0  0
   -5.7300   16.1020  -33.3360 C   0  0  0  0  0  0  0  0  0  0  0  0
   -5.4050   16.6760  -34.5080 N   0  0  0  0  0  0  0  0  0  0  0  0
   -5.6030   17.9810  -34.4050 N   0  0  0  0  0  0  0  0  0  0  0  0
   -5.3530   20.4740  -32.2480 C   0  0  0  0  0  0  0  0  0  0  0  0
   -5.6910   21.7560  -31.7960 C   0  0  0  0  0  0  0  0  0  0  0  0
   -4.8680   22.7340  -31.3570 N   0  0  0  0  0  0  0  0  0  0  0  0
   -3.4340   22.6810  -31.3010 C   0  0  0  0  0  0  0  0  0  0  0  0
   -2.7830   22.2270  -32.2800 O   0  0  0  0  0  0  0  0  0  0  0  0
   -2.7670   23.1520  -30.1640 O   0  0  0  0  0  0  0  0  0  0  0  0
   -1.3490   23.2750  -30.0820 C   0  0  0  0  0  0  0  0  0  0  0  0
   -0.9780   24.4300  -29.2070 C   0  0  0  0  0  0  0  0  0  0  0  0
   -0.0390   24.3190  -28.3750 O   0  0  0  0  0  0  0  0  0  0  0  0
   -1.6520   25.6370  -29.3290 O   0  0  0  0  0  0  0  0  0  0  0  0
   -3.0930   25.2690  -30.5300 H   0  0  0  0  0  0  0  0  0  0  0  0
   -7.8792   24.1463  -31.2438 H   0  0  0  0  0  0  0  0  0  0  0  0
   -9.0757   21.7439  -32.2213 H   0  0  0  0  0  0  0  0  0  0  0  0
   -8.5400   19.4146  -33.0069 H   0  0  0  0  0  0  0  0  0  0  0  0
   -6.4866   16.9346  -31.4122 H   0  0  0  0  0  0  0  0  0  0  0  0
   -5.6690   15.0256  -33.1178 H   0  0  0  0  0  0  0  0  0  0  0  0
   -4.3045   20.1416  -32.2604 H   0  0  0  0  0  0  0  0  0  0  0  0
   -0.9283   22.3503  -29.6601 H   0  0  0  0  0  0  0  0  0  0  0  0
   -0.9457   23.4464  -31.0910 H   0  0  0  0  0  0  0  0  0  0  0  0
  1  2  1  0
  2  3  2  0
  2  4  1  0
  4  5  2  0
  5  6  1  0
  6  7  2  0
  7  8  1  0
  8  9  2  0
  9 10  1  0
 10 11  2  0
 11 12  1  0
 12 13  2  0
 13 14  1  0
  9 15  1  0
 15 16  2  0
 16 17  1  0
 17 18  1  0
 18 19  2  0
 18 20  1  0
 20 21  1  0
 21 22  1  0
 22 23  2  0
 22 24  1  0
 17  4  1  0
 16  6  1  0
 14 10  1  0
  1 25  1  0
  5 26  1  0
  7 27  1  0
  8 28  1  0
 11 29  1  0
 12 30  1  0
 15 31  1  0
 21 32  1  0
 21 33  1  0
M  CHG  3   1  -1  14  -1  24  -1
M  END
>  <UniqueID>  (30) 
30

>  <SMILES>  (30) 
[NH-]C(=O)c1cc2ccc(-c3ccn[n-]3)cc2n1C(=O)OCC(=O)[O-]

>  <Energy>  (30) 
103.20651876505792

>  <Genealogy>  (30) 
[NH-]C(=O)c1cc2ccc(-c3ccn[n-]3)cc2n1C(=O)OCC(=O)[O-] (protonated)
[NH-]C(=O)c1cc2ccc(-c3ccn[n-]3)cc2n1C(=O)OCC(=O)[O-] (3D coordinates assigned)
[NH-]C(=O)c1cc2ccc(-c3ccn[n-]3)cc2n1C(=O)OCC(=O)[O-] (optimized conformer: 103.20651876505792 kcal/mol)

>  <smiles>  (30) 
NC(=O)c1cc2ccc(-c3ccn[nH]3)cc2n1C(=O)OCC(=O)O

>  <score_type>  (30) 
oracle

>  <origin>  (30) 
adg

>  <m_score__min__energy>  (30) 
-12.57

>  <m_primary>  (30) 
energy

$$$$
30:0
     RDKit          3D

 31 32  0  0  0  0  0  0  0  0999 V2000
   -7.0210   18.2880  -32.8050 C   0  0  0  0  0  0  0  0  0  0  0  0
   -7.2050   19.7210  -32.4030 C   0  0  0  0  0  0  0  0  0  0  0  0
   -8.4880   20.3180  -32.4570 C   0  0  0  0  0  0  0  0  0  0  0  0
   -8.6690   21.6550  -32.0660 C   0  0  0  0  0  0  0  0  0  0  0  0
   -7.5590   22.3590  -31.6090 C   0  0  0  0  0  0  0  0  0  0  0  0
   -7.4500   23.6680  -31.2040 C   0  0  0  0  0  0  0  0  0  0  0  0
   -6.1110   23.8380  -30.8640 C   0  0  0  0  0  0  0  0  0  0  0  0
   -5.5660   25.0940  -30.3110 C   0  0  0  0  0  0  0  0  0  0  0  0
   -4.2240   25.5010  -30.5780 N   0  0  0  0  0  0  0  0  0  0  0  0
   -6.2800   25.7920  -29.5420 O   0  0  0  0  0  0  0  0  0  0  0  0
   -5.4120   22.6840  -31.0640 N   0  0  0  0  0  0  0  0  0  0  0  0
   -3.9910   22.4990  -30.9490 C   0  0  0  0  0  0  0  0  0  0  0  0
   -3.3630   21.8580  -31.8350 O   0  0  0  0  0  0  0  0  0  0  0  0
   -3.3080   23.0340  -29.8520 O   0  0  0  0  0  0  0  0  0  0  0  0
   -1.8960   22.9480  -29.7080 C   0  0  0  0  0  0  0  0  0  0  0  0
   -1.3540   24.2860  -29.3310 C   0  0  0  0  0  0  0  0  0  0  0  0
   -2.1040   25.2980  -29.3450 O   0  0  0  0  0  0  0  0  0  0  0  0
   -0.0240   24.4190  -28.9530 O   0  0  0  0  0  0  0  0  0  0  0  0
   -6.3150   21.7850  -31.5200 C   0  0  0  0  0  0  0  0  0  0  0  0
   -6.1030   20.4600  -31.9220 C   0  0  0  0  0  0  0  0  0  0  0  0
   -6.9406   17.6619  -31.9042 H   0  0  0  0  0  0  0  0  0  0  0  0
   -7.8845   17.9611  -33.4029 H   0  0  0  0  0  0  0  0  0  0  0  0
   -6.1029   18.1899  -33.4029 H   0  0  0  0  0  0  0  0  0  0  0  0
   -9.3492   19.7304  -32.8077 H   0  0  0  0  0  0  0  0  0  0  0  0
   -9.6590   22.1315  -32.1195 H   0  0  0  0  0  0  0  0  0  0  0  0
   -8.2506   24.4210  -31.1583 H   0  0  0  0  0  0  0  0  0  0  0  0
   -3.5540   24.8650  -31.0670 H   0  0  0  0  0  0  0  0  0  0  0  0
   -3.8670   26.4080  -30.2050 H   0  0  0  0  0  0  0  0  0  0  0  0
   -1.6510   22.2181  -28.9224 H   0  0  0  0  0  0  0  0  0  0  0  0
   -1.4486   22.6251  -30.6596 H   0  0  0  0  0  0  0  0  0  0  0  0
   -5.1024   20.0067  -31.8642 H   0  0  0  0  0  0  0  0  0  0  0  0
  1  2  1  0
  2  3  2  0
  3  4  1  0
  4  5  2  0
  5  6  1  0
  6  7  2  0
  7  8  1  0
  8  9  1  0
  8 10  2  0
  7 11  1  0
 11 12  1  0
 12 13  2  0
 12 14  1  0
 14 15  1  0
 15 16  1  0
 16 17  2  0
 16 18  1  0
 11 19  1  0
 19 20  2  0
 20  2  1  0
 19  5  1  0
  1 21  1  0
  1 22  1  0
  1 23  1  0
  3 24  1  0
  4 25  1  0
  6 26  1  0
  9 27  1  0
  9 28  1  0
 15 29  1  0
 15 30  1  0
 20 31  1  0
M  CHG  1  18  -1
M  END
>  <UniqueID>  (31) 
31

>  <SMILES>  (31) 
Cc1ccc2cc(C(N)=O)n(C(=O)OCC(=O)[O-])c2c1

>  <Energy>  (31) 
66.73928974355238

>  <Genealogy>  (31) 
Cc1ccc2cc(C(N)=O)n(C(=O)OCC(=O)[O-])c2c1 (protonated)
Cc1ccc2cc(C(N)=O)n(C(=O)OCC(=O)[O-])c2c1 (3D coordinates assigned)
Cc1ccc2cc(C(N)=O)n(C(=O)OCC(=O)[O-])c2c1 (optimized conformer: 66.73928974355238 kcal/mol)

>  <smiles>  (31) 
Cc1ccc2cc(C(N)=O)n(C(=O)OCC(=O)O)c2c1

>  <score_type>  (31) 
oracle

>  <origin>  (31) 
adg

>  <m_score__min__energy>  (31) 
-9.9499999999999993

>  <m_primary>  (31) 
energy

$$$$
31:0
     RDKit          3D

 50 51  0  0  0  0  0  0  0  0999 V2000
   -4.6960   17.3060  -34.8450 C   0  0  0  0  0  0  0  0  0  0  0  0
   -5.2830   16.8660  -33.4920 C   0  0  0  0  0  0  0  0  0  0  0  0
   -5.3160   15.3330  -33.3930 C   0  0  0  0  0  0  0  0  0  0  0  0
   -6.6780   17.4820  -33.1830 C   0  0  2  0  0  0  0  0  0  0  0  0
   -6.8620   18.7990  -33.8150 N   0  0  0  0  0  0  0  0  0  0  0  0
   -6.9680   20.0410  -33.0900 C   0  0  0  0  0  0  0  0  0  0  0  0
   -8.2540   20.5080  -32.7170 C   0  0  0  0  0  0  0  0  0  0  0  0
   -8.4100   21.7030  -31.9970 C   0  0  0  0  0  0  0  0  0  0  0  0
   -7.2650   22.4220  -31.6700 C   0  0  0  0  0  0  0  0  0  0  0  0
   -7.1270   23.5920  -30.9590 C   0  0  0  0  0  0  0  0  0  0  0  0
   -5.7570   23.8450  -30.9260 C   0  0  0  0  0  0  0  0  0  0  0  0
   -5.1670   25.0590  -30.3250 C   0  0  0  0  0  0  0  0  0  0  0  0
   -3.9600   25.6190  -30.8340 N   0  0  0  0  0  0  0  0  0  0  0  0
   -5.7610   25.6370  -29.3770 O   0  0  0  0  0  0  0  0  0  0  0  0
   -5.0760   22.8640  -31.5850 N   0  0  0  0  0  0  0  0  0  0  0  0
   -3.6560   22.7140  -31.7180 C   0  0  0  0  0  0  0  0  0  0  0  0
   -2.8960   23.1760  -30.8270 O   0  0  0  0  0  0  0  0  0  0  0  0
   -3.1390   22.0310  -32.8300 O   0  0  0  0  0  0  0  0  0  0  0  0
   -2.3150   20.8570  -32.7960 C   0  0  0  0  0  0  0  0  0  0  0  0
   -2.8940   19.8700  -33.8200 C   0  0  0  0  0  0  0  0  0  0  0  0
   -2.3570   20.2090  -31.4010 C   0  0  0  0  0  0  0  0  0  0  0  0
   -0.8660   21.1940  -33.1970 C   0  0  0  0  0  0  0  0  0  0  0  0
   -6.0140   22.0020  -32.0380 C   0  0  0  0  0  0  0  0  0  0  0  0
   -5.8250   20.8060  -32.7390 C   0  0  0  0  0  0  0  0  0  0  0  0
   -6.9110   17.5600  -31.6960 C   0  0  0  0  0  0  0  0  0  0  0  0
   -6.0330   17.1690  -30.8830 O   0  0  0  0  0  0  0  0  0  0  0  0
   -8.1210   18.0440  -31.2140 O   0  0  0  0  0  0  0  0  0  0  0  0
   -3.8266   17.9576  -34.6730 H   0  0  0  0  0  0  0  0  0  0  0  0
   -4.3822   16.4188  -35.4145 H   0  0  0  0  0  0  0  0  0  0  0  0
   -5.4596   17.8561  -35.4145 H   0  0  0  0  0  0  0  0  0  0  0  0
   -4.6091   17.2627  -32.7184 H   0  0  0  0  0  0  0  0  0  0  0  0
   -5.3224   15.0340  -32.3344 H   0  0  0  0  0  0  0  0  0  0  0  0
   -6.2225   14.9531  -33.8868 H   0  0  0  0  0  0  0  0  0  0  0  0
   -4.4267   14.9144  -33.8868 H   0  0  0  0  0  0  0  0  0  0  0  0
   -7.4310   16.8103  -33.6209 H   0  0  0  0  0  0  0  0  0  0  0  0
   -6.9370   18.8530  -34.8560 H   0  0  0  0  0  0  0  0  0  0  0  0
   -9.1436   19.9245  -32.9963 H   0  0  0  0  0  0  0  0  0  0  0  0
   -9.4073   22.0599  -31.7004 H   0  0  0  0  0  0  0  0  0  0  0  0
   -7.9280   24.1988  -30.5116 H   0  0  0  0  0  0  0  0  0  0  0  0
   -3.0300   25.2950  -30.4900 H   0  0  0  0  0  0  0  0  0  0  0  0
   -3.3822   19.0378  -33.2917 H   0  0  0  0  0  0  0  0  0  0  0  0
   -3.6320   20.3870  -34.4509 H   0  0  0  0  0  0  0  0  0  0  0  0
   -2.0826   19.4781  -34.4509 H   0  0  0  0  0  0  0  0  0  0  0  0
   -2.3062   20.9928  -30.6309 H   0  0  0  0  0  0  0  0  0  0  0  0
   -3.2937   19.6436  -31.2874 H   0  0  0  0  0  0  0  0  0  0  0  0
   -1.5012   19.5274  -31.2874 H   0  0  0  0  0  0  0  0  0  0  0  0
   -0.2583   21.3353  -32.2911 H   0  0  0  0  0  0  0  0  0  0  0  0
   -0.4492   20.3688  -33.7931 H   0  0  0  0  0  0  0  0  0  0  0  0
   -0.8561   22.1184  -33.7931 H   0  0  0  0  0  0  0  0  0  0  0  0
   -4.8148   20.4666  -33.0116 H   0  0  0  0  0  0  0  0  0  0  0  0
  1  2  1  0
  2  3  1  0
  2  4  1  0
  4  5  1  0
  5  6  1  0
  6  7  2  0
  7  8  1  0
  8  9  2  0
  9 10  1  0
 10 11  2  0
 11 12  1  0
 12 13  1  0
 12 14  2  0
 11 15  1  0
 15 16  1  0
 16 17  2  0
 16 18  1  0
 18 19  1  0
 19 20  1  0
 19 21  1  0
 19 22  1  0
 15 23  1  0
 23 24  2  0
  4 25  1  0
 25 26  2  0
 25 27  1  0
 24  6  1  0
 23  9  1  0
  1 28  1  0
  1 29  1  0
  1 30  1  0
  2 31  1  0
  3 32  1  0
  3 33  1  0
  3 34  1  0
  4 35  1  6
  5 36  1  0
  7 37  1  0
  8 38  1  0
 10 39  1  0
 13 40  1  0
 20 41  1  0
 20 42  1  0
 20 43  1  0
 21 44  1  0
 21 45  1  0
 21 46  1  0
 22 47  1  0
 22 48  1  0
 22 49  1  0
 24 50  1  0
M  CHG  2  13  -1  27  -1
M  END
>  <UniqueID>  (32) 
32

>  <SMILES>  (32) 
CC(C)[C@H](Nc1ccc2cc(C([NH-])=O)n(C(=O)OC(C)(C)C)c2c1)C(=O)[O-]

>  <Energy>  (32) 
80.73710146989126

>  <Genealogy>  (32) 
CC(C)C(Nc1ccc2cc(C([NH-])=O)n(C(=O)OC(C)(C)C)c2c1)C(=O)[O-] (protonated)
CC(C)[C@H](Nc1ccc2cc(C([NH-])=O)n(C(=O)OC(C)(C)C)c2c1)C(=O)[O-] (chirality)
CC(C)[C@H](Nc1ccc2cc(C([NH-])=O)n(C(=O)OC(C)(C)C)c2c1)C(=O)[O-] (3D coordinates assigned)
CC(C)[C@H](Nc1ccc2cc(C([NH-])=O)n(C(=O)OC(C)(C)C)c2c1)C(=O)[O-] (optimized conformer: 80.73710146989126 kcal/mol)

>  <smiles>  (32) 
CC(C)C(Nc1ccc2cc(C(N)=O)n(C(=O)OC(C)(C)C)c2c1)C(=O)O

>  <score_type>  (32) 
oracle

>  <origin>  (32) 
adg

>  <m_score__min__energy>  (32) 
-10.779999999999999

>  <m_primary>  (32) 
energy

$$$$
32:0
     RDKit          3D

 34 35  0  0  0  0  0  0  0  0999 V2000
   -4.1420   22.8000  -28.0350 C   0  0  0  0  0  0  0  0  0  0  0  0
   -3.2330   23.2190  -29.1130 N   0  0  0  0  0  0  0  0  0  0  0  0
   -1.8590   23.3720  -28.6080 C   0  0  0  0  0  0  0  0  0  0  0  0
   -3.2750   22.2530  -30.1910 C   0  0  0  0  0  0  0  0  0  0  0  0
   -2.6150   21.1790  -30.1030 O   0  0  0  0  0  0  0  0  0  0  0  0
   -4.1250   22.4690  -31.3800 C   0  0  0  0  0  0  0  0  0  0  0  0
   -3.6370   22.3600  -32.5370 O   0  0  0  0  0  0  0  0  0  0  0  0
   -5.5100   22.8140  -31.2310 N   0  0  0  0  0  0  0  0  0  0  0  0
   -6.0350   24.0090  -30.8400 C   0  0  0  0  0  0  0  0  0  0  0  0
   -5.2660   25.1770  -30.3600 C   0  0  0  0  0  0  0  0  0  0  0  0
   -3.8670   25.2880  -30.6080 N   0  0  0  0  0  0  0  0  0  0  0  0
   -5.8460   26.0770  -29.6950 O   0  0  0  0  0  0  0  0  0  0  0  0
   -7.4270   23.9730  -30.9010 C   0  0  0  0  0  0  0  0  0  0  0  0
   -7.7420   22.7080  -31.3470 C   0  0  0  0  0  0  0  0  0  0  0  0
   -8.9800   22.1290  -31.6070 C   0  0  0  0  0  0  0  0  0  0  0  0
   -9.0020   20.8090  -32.0920 C   0  0  0  0  0  0  0  0  0  0  0  0
   -7.7940   20.1040  -32.3130 C   0  0  0  0  0  0  0  0  0  0  0  0
   -7.8280   18.7660  -32.8160 N   0  0  0  0  0  0  0  0  0  0  0  0
   -6.5550   20.7230  -32.0400 C   0  0  0  0  0  0  0  0  0  0  0  0
   -6.5660   22.0300  -31.5410 C   0  0  0  0  0  0  0  0  0  0  0  0
   -3.6784   23.0137  -27.0606 H   0  0  0  0  0  0  0  0  0  0  0  0
   -5.0897   23.3521  -28.1191 H   0  0  0  0  0  0  0  0  0  0  0  0
   -4.3377   21.7208  -28.1191 H   0  0  0  0  0  0  0  0  0  0  0  0
   -3.5460   24.1570  -29.4570 H   0  0  0  0  0  0  0  0  0  0  0  0
   -1.8704   23.3707  -27.5081 H   0  0  0  0  0  0  0  0  0  0  0  0
   -1.2405   22.5372  -28.9693 H   0  0  0  0  0  0  0  0  0  0  0  0
   -1.4393   24.3224  -28.9693 H   0  0  0  0  0  0  0  0  0  0  0  0
   -3.4880   26.0420  -31.2230 H   0  0  0  0  0  0  0  0  0  0  0  0
   -8.1262   24.7832  -30.6468 H   0  0  0  0  0  0  0  0  0  0  0  0
   -9.9131   22.6865  -31.4384 H   0  0  0  0  0  0  0  0  0  0  0  0
   -9.9651   20.3205  -32.3013 H   0  0  0  0  0  0  0  0  0  0  0  0
   -7.1110   18.0660  -32.5210 H   0  0  0  0  0  0  0  0  0  0  0  0
   -8.5680   18.4670  -33.4890 H   0  0  0  0  0  0  0  0  0  0  0  0
   -5.6073   20.1925  -32.2147 H   0  0  0  0  0  0  0  0  0  0  0  0
  1  2  1  0
  2  3  1  0
  2  4  1  0
  4  5  2  0
  4  6  1  0
  6  7  2  0
  6  8  1  0
  8  9  1  0
  9 10  1  0
 10 11  1  0
 10 12  2  0
  9 13  2  0
 13 14  1  0
 14 15  2  0
 15 16  1  0
 16 17  2  0
 17 18  1  0
 17 19  1  0
 19 20  2  0
 20  8  1  0
 20 14  1  0
  1 21  1  0
  1 22  1  0
  1 23  1  0
  2 24  1  0
  3 25  1  0
  3 26  1  0
  3 27  1  0
 11 28  1  0
 13 29  1  0
 15 30  1  0
 16 31  1  0
 18 32  1  0
 18 33  1  0
 19 34  1  0
M  CHG  2   2   1  11  -1
M  END
>  <UniqueID>  (33) 
33

>  <SMILES>  (33) 
C[NH+](C)C(=O)C(=O)n1c(C([NH-])=O)cc2ccc(N)cc21

>  <Energy>  (33) 
73.709581633033

>  <Genealogy>  (33) 
C[NH+](C)C(=O)C(=O)n1c(C([NH-])=O)cc2ccc(N)cc21 (protonated)
C[NH+](C)C(=O)C(=O)n1c(C([NH-])=O)cc2ccc(N)cc21 (3D coordinates assigned)
C[NH+](C)C(=O)C(=O)n1c(C([NH-])=O)cc2ccc(N)cc21 (optimized conformer: 73.709581633033 kcal/mol)

>  <smiles>  (33) 
CN(C)C(=O)C(=O)n1c(C(N)=O)cc2ccc(N)cc21

>  <score_type>  (33) 
oracle

>  <origin>  (33) 
adg

>  <m_score__min__energy>  (33) 
-7.9900000000000002

>  <m_primary>  (33) 
energy

$$$$
33:0
     RDKit          3D

 45 46  0  0  0  0  0  0  0  0999 V2000
   -7.2530   17.4120  -32.7030 C   0  0  0  0  0  0  0  0  0  0  0  0
   -6.6580   18.5910  -33.3440 N   0  0  0  0  0  0  0  0  0  0  0  0
   -5.8590   18.4240  -34.5700 C   0  0  0  0  0  0  0  0  0  0  0  0
   -4.5590   17.6770  -34.2710 C   0  0  0  0  0  0  0  0  0  0  0  0
   -3.2800   18.8290  -33.8140 Cl  0  0  0  0  0  0  0  0  0  0  0  0
   -6.8400   19.8960  -32.7450 C   0  0  0  0  0  0  0  0  0  0  0  0
   -8.1430   20.3910  -32.4680 C   0  0  0  0  0  0  0  0  0  0  0  0
   -8.3260   21.6520  -31.8800 C   0  0  0  0  0  0  0  0  0  0  0  0
   -7.1940   22.4040  -31.5830 C   0  0  0  0  0  0  0  0  0  0  0  0
   -7.0850   23.6400  -30.9860 C   0  0  0  0  0  0  0  0  0  0  0  0
   -5.7180   23.9000  -30.9240 C   0  0  0  0  0  0  0  0  0  0  0  0
   -5.1540   25.1690  -30.4220 C   0  0  0  0  0  0  0  0  0  0  0  0
   -3.8650   25.6140  -30.8380 N   0  0  0  0  0  0  0  0  0  0  0  0
   -5.8380   25.8940  -29.6510 O   0  0  0  0  0  0  0  0  0  0  0  0
   -5.0100   22.8630  -31.4550 N   0  0  0  0  0  0  0  0  0  0  0  0
   -3.5830   22.7000  -31.4850 C   0  0  0  0  0  0  0  0  0  0  0  0
   -3.0390   22.1400  -32.4740 O   0  0  0  0  0  0  0  0  0  0  0  0
   -2.8160   23.1500  -30.3990 O   0  0  0  0  0  0  0  0  0  0  0  0
   -2.6560   22.4840  -29.1380 C   0  0  0  0  0  0  0  0  0  0  0  0
   -3.8180   22.9310  -28.2390 C   0  0  0  0  0  0  0  0  0  0  0  0
   -1.3280   22.8910  -28.4710 C   0  0  0  0  0  0  0  0  0  0  0  0
   -2.7260   20.9560  -29.3200 C   0  0  0  0  0  0  0  0  0  0  0  0
   -5.9290   21.9560  -31.8540 C   0  0  0  0  0  0  0  0  0  0  0  0
   -5.7160   20.6950  -32.4230 C   0  0  0  0  0  0  0  0  0  0  0  0
   -7.1976   17.5218  -31.6099 H   0  0  0  0  0  0  0  0  0  0  0  0
   -8.3055   17.3200  -33.0094 H   0  0  0  0  0  0  0  0  0  0  0  0
   -6.7018   16.5107  -33.0094 H   0  0  0  0  0  0  0  0  0  0  0  0
   -6.4428   17.8521  -35.3062 H   0  0  0  0  0  0  0  0  0  0  0  0
   -5.6113   19.4189  -34.9686 H   0  0  0  0  0  0  0  0  0  0  0  0
   -4.7267   16.9727  -33.4429 H   0  0  0  0  0  0  0  0  0  0  0  0
   -4.2441   17.1292  -35.1714 H   0  0  0  0  0  0  0  0  0  0  0  0
   -9.0207   19.7769  -32.7181 H   0  0  0  0  0  0  0  0  0  0  0  0
   -9.3339   22.0342  -31.6606 H   0  0  0  0  0  0  0  0  0  0  0  0
   -7.9033   24.2848  -30.6331 H   0  0  0  0  0  0  0  0  0  0  0  0
   -3.0020   25.2990  -30.3440 H   0  0  0  0  0  0  0  0  0  0  0  0
   -3.5288   22.8197  -27.1835 H   0  0  0  0  0  0  0  0  0  0  0  0
   -4.0563   23.9850  -28.4447 H   0  0  0  0  0  0  0  0  0  0  0  0
   -4.7012   22.3085  -28.4447 H   0  0  0  0  0  0  0  0  0  0  0  0
   -1.4412   22.8563  -27.3774 H   0  0  0  0  0  0  0  0  0  0  0  0
   -0.5342   22.1949  -28.7797 H   0  0  0  0  0  0  0  0  0  0  0  0
   -1.0605   23.9124  -28.7797 H   0  0  0  0  0  0  0  0  0  0  0  0
   -2.7483   20.4699  -28.3335 H   0  0  0  0  0  0  0  0  0  0  0  0
   -3.6371   20.6946  -29.8782 H   0  0  0  0  0  0  0  0  0  0  0  0
   -1.8427   20.6124  -29.8782 H   0  0  0  0  0  0  0  0  0  0  0  0
   -4.6958   20.3319  -32.6162 H   0  0  0  0  0  0  0  0  0  0  0  0
  1  2  1  0
  2  3  1  0
  3  4  1  0
  4  5  1  0
  2  6  1  0
  6  7  2  0
  7  8  1  0
  8  9  2  0
  9 10  1  0
 10 11  2  0
 11 12  1  0
 12 13  1  0
 12 14  2  0
 11 15  1  0
 15 16  1  0
 16 17  2  0
 16 18  1  0
 18 19  1  0
 19 20  1  0
 19 21  1  0
 19 22  1  0
 15 23  1  0
 23 24  2  0
 24  6  1  0
 23  9  1  0
  1 25  1  0
  1 26  1  0
  1 27  1  0
  3 28  1  0
  3 29  1  0
  4 30  1  0
  4 31  1  0
  7 32  1  0
  8 33  1  0
 10 34  1  0
 13 35  1  0
 20 36  1  0
 20 37  1  0
 20 38  1  0
 21 39  1  0
 21 40  1  0
 21 41  1  0
 22 42  1  0
 22 43  1  0
 22 44  1  0
 24 45  1  0
M  CHG  1  13  -1
M  END
>  <UniqueID>  (34) 
34

>  <SMILES>  (34) 
CN(CCCl)c1ccc2cc(C([NH-])=O)n(C(=O)OC(C)(C)C)c2c1

>  <Energy>  (34) 
78.43215187556883

>  <Genealogy>  (34) 
CN(CCCl)c1ccc2cc(C([NH-])=O)n(C(=O)OC(C)(C)C)c2c1 (protonated)
CN(CCCl)c1ccc2cc(C([NH-])=O)n(C(=O)OC(C)(C)C)c2c1 (3D coordinates assigned)
CN(CCCl)c1ccc2cc(C([NH-])=O)n(C(=O)OC(C)(C)C)c2c1 (optimized conformer: 78.43215187556883 kcal/mol)

>  <smiles>  (34) 
CN(CCCl)c1ccc2cc(C(N)=O)n(C(=O)OC(C)(C)C)c2c1

>  <score_type>  (34) 
oracle

>  <origin>  (34) 
adg

>  <m_score__min__energy>  (34) 
-10.23

>  <m_primary>  (34) 
energy

$$$$
34:0
     RDKit          3D

 36 38  0  0  0  0  0  0  0  0999 V2000
   -5.1770   25.7550  -30.4960 N   0  0  0  0  0  0  0  0  0  0  0  0
   -6.4060   25.0490  -30.2180 C   0  0  0  0  0  0  0  0  0  0  0  0
   -7.2150   25.6600  -29.5020 O   0  0  0  0  0  0  0  0  0  0  0  0
   -6.5820   23.7270  -30.7830 C   0  0  0  0  0  0  0  0  0  0  0  0
   -7.8250   23.2260  -31.1950 C   0  0  0  0  0  0  0  0  0  0  0  0
   -7.6770   21.9650  -31.6800 C   0  0  0  0  0  0  0  0  0  0  0  0
   -8.5840   21.0660  -32.1960 C   0  0  0  0  0  0  0  0  0  0  0  0
   -8.1780   19.8260  -32.6300 C   0  0  0  0  0  0  0  0  0  0  0  0
   -6.8400   19.5130  -32.5320 C   0  0  0  0  0  0  0  0  0  0  0  0
   -6.4090   18.1980  -32.9920 C   0  0  0  0  0  0  0  0  0  0  0  0
   -6.4740   17.6620  -34.2240 N   0  0  0  0  0  0  0  0  0  0  0  0
   -5.9720   16.4460  -34.2030 O   0  0  0  0  0  0  0  0  0  0  0  0
   -5.5810   16.1870  -32.9740 C   0  0  0  0  0  0  0  0  0  0  0  0
   -5.0530   15.1180  -32.5770 O   0  0  0  0  0  0  0  0  0  0  0  0
   -5.8480   17.2700  -32.2160 N   0  0  0  0  0  0  0  0  0  0  0  0
   -5.9380   20.4280  -32.0110 C   0  0  0  0  0  0  0  0  0  0  0  0
   -6.3190   21.6790  -31.5680 C   0  0  0  0  0  0  0  0  0  0  0  0
   -5.6930   22.7510  -31.0290 N   0  0  0  0  0  0  0  0  0  0  0  0
   -4.3030   22.7780  -30.7840 C   0  0  0  0  0  0  0  0  0  0  0  0
   -3.5670   23.4360  -31.5950 O   0  0  0  0  0  0  0  0  0  0  0  0
   -3.6430   22.1640  -29.7510 O   0  0  0  0  0  0  0  0  0  0  0  0
   -3.4540   22.6930  -28.4680 C   0  0  0  0  0  0  0  0  0  0  0  0
   -3.6390   24.1890  -28.4370 C   0  0  0  0  0  0  0  0  0  0  0  0
   -2.7720   24.7160  -29.4100 O   0  0  0  0  0  0  0  0  0  0  0  0
   -4.9820   26.0680  -31.4610 H   0  0  0  0  0  0  0  0  0  0  0  0
   -4.5440   25.9060  -29.6790 H   0  0  0  0  0  0  0  0  0  0  0  0
   -8.7780   23.7721  -31.1347 H   0  0  0  0  0  0  0  0  0  0  0  0
   -9.6464   21.3434  -32.2617 H   0  0  0  0  0  0  0  0  0  0  0  0
   -8.8997   19.1058  -33.0429 H   0  0  0  0  0  0  0  0  0  0  0  0
   -5.6280   17.3130  -31.1870 H   0  0  0  0  0  0  0  0  0  0  0  0
   -4.8766   20.1461  -31.9481 H   0  0  0  0  0  0  0  0  0  0  0  0
   -4.1813   22.2317  -27.7837 H   0  0  0  0  0  0  0  0  0  0  0  0
   -2.4209   22.4736  -28.1606 H   0  0  0  0  0  0  0  0  0  0  0  0
   -4.6811   24.4486  -28.6752 H   0  0  0  0  0  0  0  0  0  0  0  0
   -3.4161   24.5980  -27.4405 H   0  0  0  0  0  0  0  0  0  0  0  0
   -2.4660   23.9840  -30.0130 H   0  0  0  0  0  0  0  0  0  0  0  0
  1  2  1  0
  2  3  2  0
  2  4  1  0
  4  5  2  0
  5  6  1  0
  6  7  2  0
  7  8  1  0
  8  9  2  0
  9 10  1  0
 10 11  2  0
 11 12  1  0
 12 13  1  0
 13 14  2  0
 13 15  1  0
  9 16  1  0
 16 17  2  0
 17 18  1  0
 18 19  1  0
 19 20  2  0
 19 21  1  0
 21 22  1  0
 22 23  1  0
 23 24  1  0
 18  4  1  0
 17  6  1  0
 15 10  1  0
  1 25  1  0
  1 26  1  0
  5 27  1  0
  7 28  1  0
  8 29  1  0
 15 30  1  0
 16 31  1  0
 22 32  1  0
 22 33  1  0
 23 34  1  0
 23 35  1  0
 24 36  1  0
M  END
>  <smiles>  (35) 
NC(=O)c1cc2ccc(-c3noc(=O)[nH]3)cc2n1C(=O)OCCO

>  <score_type>  (35) 
oracle

>  <origin>  (35) 
adg

>  <m_score__min__energy>  (35) 
-9.1799999999999997

>  <m_primary>  (35) 
energy

$$$$
35:0
     RDKit          3D

 35 37  0  0  0  0  0  0  0  0999 V2000
   -5.8130   25.1250  -29.2310 N   0  0  0  0  0  0  0  0  0  0  0  0
   -5.5160   24.5160  -30.4880 C   0  0  0  0  0  0  0  0  0  0  0  0
   -4.6140   25.0100  -31.2160 O   0  0  0  0  0  0  0  0  0  0  0  0
   -6.2010   23.2800  -30.9200 C   0  0  0  0  0  0  0  0  0  0  0  0
   -7.5700   23.2080  -31.1610 C   0  0  0  0  0  0  0  0  0  0  0  0
   -7.7920   21.9230  -31.6000 C   0  0  0  0  0  0  0  0  0  0  0  0
   -8.9810   21.2980  -31.9680 C   0  0  0  0  0  0  0  0  0  0  0  0
   -8.9260   19.9450  -32.3440 C   0  0  0  0  0  0  0  0  0  0  0  0
   -7.6930   19.2450  -32.3360 C   0  0  0  0  0  0  0  0  0  0  0  0
   -7.6410   17.7920  -32.7160 C   0  0  0  0  0  0  0  0  0  0  0  0
   -7.0180   17.0700  -31.7150 F   0  0  0  0  0  0  0  0  0  0  0  0
   -6.9330   17.6430  -33.8950 F   0  0  0  0  0  0  0  0  0  0  0  0
   -6.5080   19.9110  -31.9510 C   0  0  0  0  0  0  0  0  0  0  0  0
   -6.5890   21.2640  -31.6040 C   0  0  0  0  0  0  0  0  0  0  0  0
   -5.6000   22.0850  -31.1840 N   0  0  0  0  0  0  0  0  0  0  0  0
   -4.2290   21.7230  -30.9550 C   0  0  0  0  0  0  0  0  0  0  0  0
   -3.4750   21.4760  -31.9340 O   0  0  0  0  0  0  0  0  0  0  0  0
   -3.7570   21.6040  -29.6410 O   0  0  0  0  0  0  0  0  0  0  0  0
   -3.0190   22.5740  -28.9530 C   0  0  0  0  0  0  0  0  0  0  0  0
   -2.9580   22.7720  -27.5720 C   0  0  0  0  0  0  0  0  0  0  0  0
   -2.0970   23.8140  -27.2070 C   0  0  0  0  0  0  0  0  0  0  0  0
   -1.4850   24.4180  -28.2980 C   0  0  0  0  0  0  0  0  0  0  0  0
   -0.5520   25.5000  -28.2280 N   0  0  0  0  0  0  0  0  0  0  0  0
    0.6160   25.2980  -27.8360 O   0  0  0  0  0  0  0  0  0  0  0  0
   -0.9330   26.7710  -28.5900 O   0  0  0  0  0  0  0  0  0  0  0  0
   -1.9970   23.6700  -29.7170 S   0  0  0  0  0  0  0  0  0  0  0  0
   -5.3470   26.0190  -28.9600 H   0  0  0  0  0  0  0  0  0  0  0  0
   -6.4270   24.6500  -28.5330 H   0  0  0  0  0  0  0  0  0  0  0  0
   -8.3146   24.0069  -31.0289 H   0  0  0  0  0  0  0  0  0  0  0  0
   -9.9343   21.8468  -31.9644 H   0  0  0  0  0  0  0  0  0  0  0  0
   -9.8468   19.4250  -32.6469 H   0  0  0  0  0  0  0  0  0  0  0  0
   -8.6668   17.4195  -32.8537 H   0  0  0  0  0  0  0  0  0  0  0  0
   -5.5456   19.3790  -31.9247 H   0  0  0  0  0  0  0  0  0  0  0  0
   -3.5270   22.1719  -26.8466 H   0  0  0  0  0  0  0  0  0  0  0  0
   -1.9234   24.1221  -26.1654 H   0  0  0  0  0  0  0  0  0  0  0  0
  1  2  1  0
  2  3  2  0
  2  4  1  0
  4  5  2  0
  5  6  1  0
  6  7  2  0
  7  8  1  0
  8  9  2  0
  9 10  1  0
 10 11  1  0
 10 12  1  0
  9 13  1  0
 13 14  2  0
 14 15  1  0
 15 16  1  0
 16 17  2  0
 16 18  1  0
 18 19  1  0
 19 20  2  0
 20 21  1  0
 21 22  2  0
 22 23  1  0
 23 24  2  0
 23 25  1  0
 22 26  1  0
 15  4  1  0
 26 19  1  0
 14  6  1  0
  1 27  1  0
  1 28  1  0
  5 29  1  0
  7 30  1  0
  8 31  1  0
 10 32  1  0
 13 33  1  0
 20 34  1  0
 21 35  1  0
M  CHG  2  23   1  25  -1
M  END
>  <UniqueID>  (36) 
35

>  <SMILES>  (36) 
NC(=O)c1cc2ccc(C(F)F)cc2n1C(=O)Oc1ccc([N+](=O)[O-])s1

>  <Energy>  (36) 
106.66216007526526

>  <Genealogy>  (36) 
NC(=O)c1cc2ccc(C(F)F)cc2n1C(=O)Oc1ccc([N+](=O)[O-])s1 (3D coordinates assigned)
NC(=O)c1cc2ccc(C(F)F)cc2n1C(=O)Oc1ccc([N+](=O)[O-])s1 (optimized conformer: 106.66216007526526 kcal/mol)

>  <smiles>  (36) 
NC(=O)c1cc2ccc(C(F)F)cc2n1C(=O)Oc1ccc([N+](=O)[O-])s1

>  <score_type>  (36) 
oracle

>  <origin>  (36) 
adg

>  <m_score__min__energy>  (36) 
-9.1699999999999999

>  <m_primary>  (36) 
energy

$$$$
36:0
     RDKit          3D

 42 43  0  0  0  0  0  0  0  0999 V2000
   -2.5710   24.5330  -27.6550 C   0  0  0  0  0  0  0  0  0  0  0  0
   -1.4860   24.9150  -28.5720 N   0  0  0  0  0  0  0  0  0  0  0  0
   -0.6080   25.9230  -27.9570 C   0  0  0  0  0  0  0  0  0  0  0  0
   -0.7330   23.7450  -29.0780 C   0  0  0  0  0  0  0  0  0  0  0  0
   -1.4860   22.9400  -30.1070 C   0  0  0  0  0  0  0  0  0  0  0  0
   -0.8640   22.0880  -30.8000 O   0  0  0  0  0  0  0  0  0  0  0  0
   -2.8970   23.1440  -30.2890 N   0  0  0  0  0  0  0  0  0  0  0  0
   -3.6980   22.4270  -31.2420 C   0  0  0  0  0  0  0  0  0  0  0  0
   -3.1700   21.5960  -32.0290 O   0  0  0  0  0  0  0  0  0  0  0  0
   -5.1150   22.6560  -31.3010 N   0  0  0  0  0  0  0  0  0  0  0  0
   -5.7890   23.8040  -31.0100 C   0  0  0  0  0  0  0  0  0  0  0  0
   -5.1940   25.0420  -30.4640 C   0  0  0  0  0  0  0  0  0  0  0  0
   -3.8620   25.4070  -30.8200 N   0  0  0  0  0  0  0  0  0  0  0  0
   -5.8570   25.7970  -29.7050 O   0  0  0  0  0  0  0  0  0  0  0  0
   -7.1550   23.6390  -31.2370 C   0  0  0  0  0  0  0  0  0  0  0  0
   -7.2980   22.3430  -31.6770 C   0  0  0  0  0  0  0  0  0  0  0  0
   -8.4420   21.6460  -32.0610 C   0  0  0  0  0  0  0  0  0  0  0  0
   -8.2870   20.3190  -32.5010 C   0  0  0  0  0  0  0  0  0  0  0  0
   -7.0030   19.7280  -32.5550 C   0  0  0  0  0  0  0  0  0  0  0  0
   -6.8530   18.3720  -33.0150 C   0  0  0  0  0  0  0  0  0  0  0  0
   -6.7230   17.2370  -33.3960 C   0  0  0  0  0  0  0  0  0  0  0  0
   -6.5630   15.8570  -33.8640 C   0  0  0  0  0  0  0  0  0  0  0  0
   -5.4060   15.2940  -33.3090 O   0  0  0  0  0  0  0  0  0  0  0  0
   -5.8670   20.4620  -32.1650 C   0  0  0  0  0  0  0  0  0  0  0  0
   -6.0510   21.7720  -31.7100 C   0  0  0  0  0  0  0  0  0  0  0  0
   -2.2316   24.6525  -26.6155 H   0  0  0  0  0  0  0  0  0  0  0  0
   -3.4446   25.1776  -27.8319 H   0  0  0  0  0  0  0  0  0  0  0  0
   -2.8481   23.4833  -27.8319 H   0  0  0  0  0  0  0  0  0  0  0  0
   -0.6739   25.8473  -26.8616 H   0  0  0  0  0  0  0  0  0  0  0  0
    0.4304   25.7477  -28.2748 H   0  0  0  0  0  0  0  0  0  0  0  0
   -0.9241   26.9275  -28.2748 H   0  0  0  0  0  0  0  0  0  0  0  0
    0.2018   24.1038  -29.5335 H   0  0  0  0  0  0  0  0  0  0  0  0
   -0.5530   23.0819  -28.2190 H   0  0  0  0  0  0  0  0  0  0  0  0
   -3.3680   23.8740  -29.7090 H   0  0  0  0  0  0  0  0  0  0  0  0
   -3.0780   25.3040  -30.1390 H   0  0  0  0  0  0  0  0  0  0  0  0
   -7.9496   24.3862  -31.0946 H   0  0  0  0  0  0  0  0  0  0  0  0
   -9.4346   22.1185  -32.0213 H   0  0  0  0  0  0  0  0  0  0  0  0
   -9.1697   19.7373  -32.8050 H   0  0  0  0  0  0  0  0  0  0  0  0
   -7.4386   15.2651  -33.5590 H   0  0  0  0  0  0  0  0  0  0  0  0
   -6.4752   15.8554  -34.9605 H   0  0  0  0  0  0  0  0  0  0  0  0
   -5.5990   14.3310  -33.1640 H   0  0  0  0  0  0  0  0  0  0  0  0
   -4.8621   20.0177  -32.2166 H   0  0  0  0  0  0  0  0  0  0  0  0
  1  2  1  0
  2  3  1  0
  2  4  1  0
  4  5  1  0
  5  6  2  0
  5  7  1  0
  7  8  1  0
  8  9  2  0
  8 10  1  0
 10 11  1  0
 11 12  1  0
 12 13  1  0
 12 14  2  0
 11 15  2  0
 15 16  1  0
 16 17  2  0
 17 18  1  0
 18 19  2  0
 19 20  1  0
 20 21  3  0
 21 22  1  0
 22 23  1  0
 19 24  1  0
 24 25  2  0
 25 10  1  0
 25 16  1  0
  1 26  1  0
  1 27  1  0
  1 28  1  0
  3 29  1  0
  3 30  1  0
  3 31  1  0
  4 32  1  0
  4 33  1  0
  7 34  1  0
 13 35  1  0
 15 36  1  0
 17 37  1  0
 18 38  1  0
 22 39  1  0
 22 40  1  0
 23 41  1  0
 24 42  1  0
M  CHG  1  13  -1
M  END
>  <UniqueID>  (37) 
36

>  <SMILES>  (37) 
CN(C)CC(=O)NC(=O)n1c(C([NH-])=O)cc2ccc(C#CCO)cc21

>  <Energy>  (37) 
76.41700956702888

>  <Genealogy>  (37) 
CN(C)CC(=O)NC(=O)n1c(C([NH-])=O)cc2ccc(C#CCO)cc21 (protonated)
CN(C)CC(=O)NC(=O)n1c(C([NH-])=O)cc2ccc(C#CCO)cc21 (3D coordinates assigned)
CN(C)CC(=O)NC(=O)n1c(C([NH-])=O)cc2ccc(C#CCO)cc21 (optimized conformer: 76.41700956702888 kcal/mol)

>  <smiles>  (37) 
CN(C)CC(=O)NC(=O)n1c(C(N)=O)cc2ccc(C#CCO)cc21

>  <score_type>  (37) 
oracle

>  <origin>  (37) 
adg

>  <m_score__min__energy>  (37) 
-10.59

>  <m_primary>  (37) 
energy

$$$$
37:0
     RDKit          3D

 35 36  0  0  0  0  0  0  0  0999 V2000
   -1.2370   26.1030  -28.0030 C   0  0  0  0  0  0  0  0  0  0  0  0
   -1.7770   25.0180  -28.8100 N   0  0  0  0  0  0  0  0  0  0  0  0
   -0.9570   23.9310  -29.2610 C   0  0  0  0  0  0  0  0  0  0  0  0
    0.2720   23.9040  -28.9810 O   0  0  0  0  0  0  0  0  0  0  0  0
   -1.5470   22.8490  -30.1050 C   0  0  0  0  0  0  0  0  0  0  0  0
   -2.9530   23.0480  -30.2010 O   0  0  0  0  0  0  0  0  0  0  0  0
   -3.6860   22.7210  -31.3460 C   0  0  0  0  0  0  0  0  0  0  0  0
   -3.1070   22.2250  -32.3510 O   0  0  0  0  0  0  0  0  0  0  0  0
   -5.1070   22.9330  -31.3680 N   0  0  0  0  0  0  0  0  0  0  0  0
   -5.7920   24.0180  -30.9100 C   0  0  0  0  0  0  0  0  0  0  0  0
   -5.1970   25.2920  -30.4560 C   0  0  0  0  0  0  0  0  0  0  0  0
   -3.8800   25.6690  -30.8490 N   0  0  0  0  0  0  0  0  0  0  0  0
   -5.8800   26.0820  -29.7490 O   0  0  0  0  0  0  0  0  0  0  0  0
   -7.1650   23.8040  -31.0000 C   0  0  0  0  0  0  0  0  0  0  0  0
   -7.3030   22.5460  -31.5410 C   0  0  0  0  0  0  0  0  0  0  0  0
   -8.4540   21.8180  -31.8300 C   0  0  0  0  0  0  0  0  0  0  0  0
   -8.3000   20.5210  -32.3490 C   0  0  0  0  0  0  0  0  0  0  0  0
   -7.0090   19.9830  -32.5720 C   0  0  0  0  0  0  0  0  0  0  0  0
   -6.8580   18.5790  -33.0760 C   0  0  0  0  0  0  0  0  0  0  0  0
   -5.8630   20.7440  -32.2510 C   0  0  0  0  0  0  0  0  0  0  0  0
   -6.0460   22.0400  -31.7530 C   0  0  0  0  0  0  0  0  0  0  0  0
   -1.3571   25.8616  -26.9366 H   0  0  0  0  0  0  0  0  0  0  0  0
   -0.1689   26.2333  -28.2314 H   0  0  0  0  0  0  0  0  0  0  0  0
   -1.7770   27.0337  -28.2314 H   0  0  0  0  0  0  0  0  0  0  0  0
   -2.7890   25.0360  -29.0700 H   0  0  0  0  0  0  0  0  0  0  0  0
   -1.1009   22.8811  -31.1100 H   0  0  0  0  0  0  0  0  0  0  0  0
   -1.3416   21.8694  -29.6488 H   0  0  0  0  0  0  0  0  0  0  0  0
   -3.0420   25.2020  -30.4390 H   0  0  0  0  0  0  0  0  0  0  0  0
   -7.9685   24.4937  -30.7021 H   0  0  0  0  0  0  0  0  0  0  0  0
   -9.4531   22.2447  -31.6575 H   0  0  0  0  0  0  0  0  0  0  0  0
   -9.1898   19.9185  -32.5840 H   0  0  0  0  0  0  0  0  0  0  0  0
   -6.7838   17.8890  -32.2225 H   0  0  0  0  0  0  0  0  0  0  0  0
   -7.7327   18.3129  -33.6876 H   0  0  0  0  0  0  0  0  0  0  0  0
   -5.9467   18.5050  -33.6876 H   0  0  0  0  0  0  0  0  0  0  0  0
   -4.8534   20.3295  -32.3886 H   0  0  0  0  0  0  0  0  0  0  0  0
  1  2  1  0
  2  3  1  0
  3  4  2  0
  3  5  1  0
  5  6  1  0
  6  7  1  0
  7  8  2  0
  7  9  1  0
  9 10  1  0
 10 11  1  0
 11 12  1  0
 11 13  2  0
 10 14  2  0
 14 15  1  0
 15 16  2  0
 16 17  1  0
 17 18  2  0
 18 19  1  0
 18 20  1  0
 20 21  2  0
 21  9  1  0
 21 15  1  0
  1 22  1  0
  1 23  1  0
  1 24  1  0
  2 25  1  0
  5 26  1  0
  5 27  1  0
 12 28  1  0
 14 29  1  0
 16 30  1  0
 17 31  1  0
 19 32  1  0
 19 33  1  0
 19 34  1  0
 20 35  1  0
M  CHG  1  12  -1
M  END
>  <UniqueID>  (38) 
37

>  <SMILES>  (38) 
CNC(=O)COC(=O)n1c(C([NH-])=O)cc2ccc(C)cc21

>  <Energy>  (38) 
66.9706720762968

>  <Genealogy>  (38) 
CNC(=O)COC(=O)n1c(C([NH-])=O)cc2ccc(C)cc21 (protonated)
CNC(=O)COC(=O)n1c(C([NH-])=O)cc2ccc(C)cc21 (3D coordinates assigned)
CNC(=O)COC(=O)n1c(C([NH-])=O)cc2ccc(C)cc21 (optimized conformer: 66.9706720762968 kcal/mol)

>  <smiles>  (38) 
CNC(=O)COC(=O)n1c(C(N)=O)cc2ccc(C)cc21

>  <score_type>  (38) 
oracle

>  <origin>  (38) 
adg

>  <m_score__min__energy>  (38) 
-9.75

>  <m_primary>  (38) 
energy

$$$$
38:0
     RDKit          3D

 31 32  0  0  0  0  0  0  0  0999 V2000
   -4.1740   25.5120  -30.7020 N   0  0  0  0  0  0  0  0  0  0  0  0
   -5.5000   25.0450  -30.4500 C   0  0  0  0  0  0  0  0  0  0  0  0
   -6.2640   25.7200  -29.7100 O   0  0  0  0  0  0  0  0  0  0  0  0
   -5.9650   23.7500  -30.9880 C   0  0  0  0  0  0  0  0  0  0  0  0
   -7.2960   23.4840  -31.2980 C   0  0  0  0  0  0  0  0  0  0  0  0
   -7.3130   22.1730  -31.7150 C   0  0  0  0  0  0  0  0  0  0  0  0
   -8.3760   21.3920  -32.1600 C   0  0  0  0  0  0  0  0  0  0  0  0
   -8.1010   20.0760  -32.5650 C   0  0  0  0  0  0  0  0  0  0  0  0
   -6.7800   19.5680  -32.5220 C   0  0  0  0  0  0  0  0  0  0  0  0
   -6.5050   18.1620  -32.9790 C   0  0  0  0  0  0  0  0  0  0  0  0
   -7.6660   17.5900  -33.4630 F   0  0  0  0  0  0  0  0  0  0  0  0
   -5.5520   18.1780  -33.9820 F   0  0  0  0  0  0  0  0  0  0  0  0
   -5.7240   20.3930  -32.0730 C   0  0  0  0  0  0  0  0  0  0  0  0
   -6.0280   21.6940  -31.6570 C   0  0  0  0  0  0  0  0  0  0  0  0
   -5.1860   22.6540  -31.2110 N   0  0  0  0  0  0  0  0  0  0  0  0
   -3.7520   22.5800  -31.1420 C   0  0  0  0  0  0  0  0  0  0  0  0
   -3.0980   22.0800  -32.0980 O   0  0  0  0  0  0  0  0  0  0  0  0
   -3.0860   23.0880  -30.0200 O   0  0  0  0  0  0  0  0  0  0  0  0
   -1.6670   23.0750  -29.8760 C   0  0  0  0  0  0  0  0  0  0  0  0
   -1.1810   24.3810  -29.3340 C   0  0  0  0  0  0  0  0  0  0  0  0
   -1.9440   25.3830  -29.3280 O   0  0  0  0  0  0  0  0  0  0  0  0
    0.1070   24.4910  -28.8270 O   0  0  0  0  0  0  0  0  0  0  0  0
   -3.4720   24.8990  -31.1700 H   0  0  0  0  0  0  0  0  0  0  0  0
   -3.8650   26.4410  -30.3360 H   0  0  0  0  0  0  0  0  0  0  0  0
   -8.1500   24.1735  -31.2252 H   0  0  0  0  0  0  0  0  0  0  0  0
   -9.3996   21.7934  -32.1933 H   0  0  0  0  0  0  0  0  0  0  0  0
   -8.9202   19.4331  -32.9193 H   0  0  0  0  0  0  0  0  0  0  0  0
   -6.1354   17.5733  -32.1265 H   0  0  0  0  0  0  0  0  0  0  0  0
   -4.6888   20.0216  -32.0511 H   0  0  0  0  0  0  0  0  0  0  0  0
   -1.3811   22.2681  -29.1852 H   0  0  0  0  0  0  0  0  0  0  0  0
   -1.2119   22.9095  -30.8637 H   0  0  0  0  0  0  0  0  0  0  0  0
  1  2  1  0
  2  3  2  0
  2  4  1  0
  4  5  2  0
  5  6  1  0
  6  7  2  0
  7  8  1  0
  8  9  2  0
  9 10  1  0
 10 11  1  0
 10 12  1  0
  9 13  1  0
 13 14  2  0
 14 15  1  0
 15 16  1  0
 16 17  2  0
 16 18  1  0
 18 19  1  0
 19 20  1  0
 20 21  2  0
 20 22  1  0
 15  4  1  0
 14  6  1  0
  1 23  1  0
  1 24  1  0
  5 25  1  0
  7 26  1  0
  8 27  1  0
 10 28  1  0
 13 29  1  0
 19 30  1  0
 19 31  1  0
M  CHG  1  22  -1
M  END
>  <UniqueID>  (39) 
38

>  <SMILES>  (39) 
NC(=O)c1cc2ccc(C(F)F)cc2n1C(=O)OCC(=O)[O-]

>  <Energy>  (39) 
67.88927914770846

>  <Genealogy>  (39) 
NC(=O)c1cc2ccc(C(F)F)cc2n1C(=O)OCC(=O)[O-] (protonated)
NC(=O)c1cc2ccc(C(F)F)cc2n1C(=O)OCC(=O)[O-] (3D coordinates assigned)
NC(=O)c1cc2ccc(C(F)F)cc2n1C(=O)OCC(=O)[O-] (optimized conformer: 67.88927914770846 kcal/mol)

>  <smiles>  (39) 
NC(=O)c1cc2ccc(C(F)F)cc2n1C(=O)OCC(=O)O

>  <score_type>  (39) 
oracle

>  <origin>  (39) 
adg

>  <m_score__min__energy>  (39) 
-9.9499999999999993

>  <m_primary>  (39) 
energy

$$$$
39:0
     RDKit          3D

 42 43  0  0  0  0  0  0  0  0999 V2000
   -3.2190   17.2930  -33.4790 C   0  0  0  0  0  0  0  0  0  0  0  0
   -3.5040   18.4420  -34.2670 O   0  0  0  0  0  0  0  0  0  0  0  0
   -3.9090   19.6580  -33.7070 C   0  0  0  0  0  0  0  0  0  0  0  0
   -5.0630   20.1160  -33.9300 O   0  0  0  0  0  0  0  0  0  0  0  0
   -2.9800   20.3940  -32.7950 C   0  0  0  0  0  0  0  0  0  0  0  0
   -3.0790   21.9020  -33.0120 C   0  0  0  0  0  0  0  0  0  0  0  0
   -3.1370   22.5670  -31.7550 O   0  0  0  0  0  0  0  0  0  0  0  0
   -4.1230   22.3060  -30.7990 C   0  0  0  0  0  0  0  0  0  0  0  0
   -3.8550   21.6030  -29.7870 O   0  0  0  0  0  0  0  0  0  0  0  0
   -5.4510   22.8180  -30.9900 N   0  0  0  0  0  0  0  0  0  0  0  0
   -5.8880   24.0990  -30.8290 C   0  0  0  0  0  0  0  0  0  0  0  0
   -5.0430   25.2820  -30.5640 C   0  0  0  0  0  0  0  0  0  0  0  0
   -3.6240   25.1660  -30.4800 N   0  0  0  0  0  0  0  0  0  0  0  0
   -5.5750   26.4190  -30.4630 O   0  0  0  0  0  0  0  0  0  0  0  0
   -7.2630   24.1770  -31.0440 C   0  0  0  0  0  0  0  0  0  0  0  0
   -7.6560   22.8970  -31.3570 C   0  0  0  0  0  0  0  0  0  0  0  0
   -8.9180   22.4010  -31.6740 C   0  0  0  0  0  0  0  0  0  0  0  0
   -9.0370   21.0280  -31.9470 C   0  0  0  0  0  0  0  0  0  0  0  0
   -7.9030   20.1790  -31.8810 C   0  0  0  0  0  0  0  0  0  0  0  0
   -8.0390   18.7130  -32.1990 C   0  0  0  0  0  0  0  0  0  0  0  0
   -6.6950   18.0900  -32.5910 C   0  0  0  0  0  0  0  0  0  0  0  0
   -6.5420   18.0510  -34.0430 N   0  0  0  0  0  0  0  0  0  0  0  0
   -6.6390   20.7190  -31.5580 C   0  0  0  0  0  0  0  0  0  0  0  0
   -6.5460   22.0950  -31.3150 C   0  0  0  0  0  0  0  0  0  0  0  0
   -3.2839   17.5545  -32.4125 H   0  0  0  0  0  0  0  0  0  0  0  0
   -3.9481   16.5016  -33.7075 H   0  0  0  0  0  0  0  0  0  0  0  0
   -2.2046   16.9341  -33.7075 H   0  0  0  0  0  0  0  0  0  0  0  0
   -3.2421   20.1629  -31.7520 H   0  0  0  0  0  0  0  0  0  0  0  0
   -1.9500   20.0759  -33.0137 H   0  0  0  0  0  0  0  0  0  0  0  0
   -2.1962   22.2496  -33.5687 H   0  0  0  0  0  0  0  0  0  0  0  0
   -3.9907   22.1275  -33.5847 H   0  0  0  0  0  0  0  0  0  0  0  0
   -3.0820   24.6620  -31.2160 H   0  0  0  0  0  0  0  0  0  0  0  0
   -7.8986   25.0723  -30.9774 H   0  0  0  0  0  0  0  0  0  0  0  0
   -9.7950   23.0640  -31.7096 H   0  0  0  0  0  0  0  0  0  0  0  0
  -10.0179   20.6080  -32.2142 H   0  0  0  0  0  0  0  0  0  0  0  0
   -8.4288   18.1908  -31.3128 H   0  0  0  0  0  0  0  0  0  0  0  0
   -8.7260   18.6099  -33.0519 H   0  0  0  0  0  0  0  0  0  0  0  0
   -5.8804   18.6899  -32.1591 H   0  0  0  0  0  0  0  0  0  0  0  0
   -6.6596   17.0601  -32.2062 H   0  0  0  0  0  0  0  0  0  0  0  0
   -6.8770   18.9660  -34.4230 H   0  0  0  0  0  0  0  0  0  0  0  0
   -5.5220   18.0000  -34.2650 H   0  0  0  0  0  0  0  0  0  0  0  0
   -5.7493   20.0748  -31.4987 H   0  0  0  0  0  0  0  0  0  0  0  0
  1  2  1  0
  2  3  1  0
  3  4  2  0
  3  5  1  0
  5  6  1  0
  6  7  1  0
  7  8  1  0
  8  9  2  0
  8 10  1  0
 10 11  1  0
 11 12  1  0
 12 13  1  0
 12 14  2  0
 11 15  2  0
 15 16  1  0
 16 17  2  0
 17 18  1  0
 18 19  2  0
 19 20  1  0
 20 21  1  0
 21 22  1  0
 19 23  1  0
 23 24  2  0
 24 10  1  0
 24 16  1  0
  1 25  1  0
  1 26  1  0
  1 27  1  0
  5 28  1  0
  5 29  1  0
  6 30  1  0
  6 31  1  0
 13 32  1  0
 15 33  1  0
 17 34  1  0
 18 35  1  0
 20 36  1  0
 20 37  1  0
 21 38  1  0
 21 39  1  0
 22 40  1  0
 22 41  1  0
 23 42  1  0
M  CHG  1  13  -1
M  END
>  <UniqueID>  (40) 
39

>  <SMILES>  (40) 
COC(=O)CCOC(=O)n1c(C([NH-])=O)cc2ccc(CCN)cc21

>  <Energy>  (40) 
68.20973513710285

>  <Genealogy>  (40) 
COC(=O)CCOC(=O)n1c(C([NH-])=O)cc2ccc(CCN)cc21 (protonated)
COC(=O)CCOC(=O)n1c(C([NH-])=O)cc2ccc(CCN)cc21 (3D coordinates assigned)
COC(=O)CCOC(=O)n1c(C([NH-])=O)cc2ccc(CCN)cc21 (optimized conformer: 68.20973513710285 kcal/mol)

>  <smiles>  (40) 
COC(=O)CCOC(=O)n1c(C(N)=O)cc2ccc(CCN)cc21

>  <score_type>  (40) 
oracle

>  <origin>  (40) 
adg

>  <m_score__min__energy>  (40) 
-10.779999999999999

>  <m_primary>  (40) 
energy

$$$$
40:0
     RDKit          3D

 34 35  0  0  0  0  0  0  0  0999 V2000
   -3.9880   25.6730  -30.8480 N   0  0  0  0  0  0  0  0  0  0  0  0
   -5.3110   25.2870  -30.4820 C   0  0  0  0  0  0  0  0  0  0  0  0
   -5.9960   26.0520  -29.7540 O   0  0  0  0  0  0  0  0  0  0  0  0
   -5.8750   24.0180  -30.9900 C   0  0  0  0  0  0  0  0  0  0  0  0
   -7.2350   23.8190  -31.2140 C   0  0  0  0  0  0  0  0  0  0  0  0
   -7.3540   22.5000  -31.5870 C   0  0  0  0  0  0  0  0  0  0  0  0
   -8.4860   21.7650  -31.9270 C   0  0  0  0  0  0  0  0  0  0  0  0
   -8.3130   20.4190  -32.2900 C   0  0  0  0  0  0  0  0  0  0  0  0
   -7.0190   19.8420  -32.3230 C   0  0  0  0  0  0  0  0  0  0  0  0
   -6.8480   18.3940  -32.6900 C   0  0  0  0  0  0  0  0  0  0  0  0
   -5.7280   18.2410  -33.6710 C   0  0  0  0  0  0  0  0  0  0  0  0
   -5.9130   18.5940  -35.0420 N   0  0  0  0  0  0  0  0  0  0  0  0
   -4.6010   17.8350  -33.2760 O   0  0  0  0  0  0  0  0  0  0  0  0
   -5.8940   20.6160  -31.9620 C   0  0  0  0  0  0  0  0  0  0  0  0
   -6.0990   21.9490  -31.5850 C   0  0  0  0  0  0  0  0  0  0  0  0
   -5.1780   22.8700  -31.2230 N   0  0  0  0  0  0  0  0  0  0  0  0
   -3.7580   22.6670  -31.1560 C   0  0  0  0  0  0  0  0  0  0  0  0
   -3.1520   22.1350  -32.1250 O   0  0  0  0  0  0  0  0  0  0  0  0
   -3.0580   23.0380  -30.0020 O   0  0  0  0  0  0  0  0  0  0  0  0
   -1.6780   23.3930  -30.0030 C   0  0  0  0  0  0  0  0  0  0  0  0
   -1.4170   24.4640  -28.9930 C   0  0  0  0  0  0  0  0  0  0  0  0
   -1.5910   25.6760  -29.2920 O   0  0  0  0  0  0  0  0  0  0  0  0
   -1.0070   24.1240  -27.7100 O   0  0  0  0  0  0  0  0  0  0  0  0
   -3.1570   25.1710  -30.4650 H   0  0  0  0  0  0  0  0  0  0  0  0
   -8.0426   24.5591  -31.1140 H   0  0  0  0  0  0  0  0  0  0  0  0
   -9.4855   22.2240  -31.9119 H   0  0  0  0  0  0  0  0  0  0  0  0
   -9.1894   19.8076  -32.5509 H   0  0  0  0  0  0  0  0  0  0  0  0
   -6.6199   17.8135  -31.7839 H   0  0  0  0  0  0  0  0  0  0  0  0
   -7.7789   18.0257  -33.1459 H   0  0  0  0  0  0  0  0  0  0  0  0
   -5.1250   18.5020  -35.7200 H   0  0  0  0  0  0  0  0  0  0  0  0
   -6.8330   18.9490  -35.3810 H   0  0  0  0  0  0  0  0  0  0  0  0
   -4.8830   20.1829  -31.9766 H   0  0  0  0  0  0  0  0  0  0  0  0
   -1.0751   22.5067  -29.7561 H   0  0  0  0  0  0  0  0  0  0  0  0
   -1.4057   23.7680  -31.0006 H   0  0  0  0  0  0  0  0  0  0  0  0
  1  2  1  0
  2  3  2  0
  2  4  1  0
  4  5  2  0
  5  6  1  0
  6  7  2  0
  7  8  1  0
  8  9  2  0
  9 10  1  0
 10 11  1  0
 11 12  1  0
 11 13  2  0
  9 14  1  0
 14 15  2  0
 15 16  1  0
 16 17  1  0
 17 18  2  0
 17 19  1  0
 19 20  1  0
 20 21  1  0
 21 22  2  0
 21 23  1  0
 16  4  1  0
 15  6  1  0
  1 24  1  0
  5 25  1  0
  7 26  1  0
  8 27  1  0
 10 28  1  0
 10 29  1  0
 12 30  1  0
 12 31  1  0
 14 32  1  0
 20 33  1  0
 20 34  1  0
M  CHG  2   1  -1  23  -1
M  END
>  <UniqueID>  (41) 
40

>  <SMILES>  (41) 
[NH-]C(=O)c1cc2ccc(CC(N)=O)cc2n1C(=O)OCC(=O)[O-]

>  <Energy>  (41) 
67.30405275779297

>  <Genealogy>  (41) 
[NH-]C(=O)c1cc2ccc(CC(N)=O)cc2n1C(=O)OCC(=O)[O-] (protonated)
[NH-]C(=O)c1cc2ccc(CC(N)=O)cc2n1C(=O)OCC(=O)[O-] (3D coordinates assigned)
[NH-]C(=O)c1cc2ccc(CC(N)=O)cc2n1C(=O)OCC(=O)[O-] (optimized conformer: 67.30405275779297 kcal/mol)

>  <smiles>  (41) 
NC(=O)Cc1ccc2cc(C(N)=O)n(C(=O)OCC(=O)O)c2c1

>  <score_type>  (41) 
oracle

>  <origin>  (41) 
adg

>  <m_score__min__energy>  (41) 
-12.26

>  <m_primary>  (41) 
energy

$$$$
41:0
     RDKit          3D

 38 39  0  0  0  0  0  0  0  0999 V2000
   -4.5690   15.2530  -32.8650 C   0  0  0  0  0  0  0  0  0  0  0  0
   -5.8220   15.8380  -33.4300 C   0  0  0  0  0  0  0  0  0  0  0  0
   -6.5110   15.1730  -34.2470 O   0  0  0  0  0  0  0  0  0  0  0  0
   -6.2500   17.1570  -33.0500 C   0  0  0  0  0  0  0  0  0  0  0  0
   -6.6070   18.2630  -32.7300 C   0  0  0  0  0  0  0  0  0  0  0  0
   -7.0240   19.5850  -32.3450 C   0  0  0  0  0  0  0  0  0  0  0  0
   -8.3830   19.9580  -32.4660 C   0  0  0  0  0  0  0  0  0  0  0  0
   -8.8010   21.2510  -32.1050 C   0  0  0  0  0  0  0  0  0  0  0  0
   -7.8400   22.1350  -31.6200 C   0  0  0  0  0  0  0  0  0  0  0  0
   -7.9640   23.4500  -31.2330 C   0  0  0  0  0  0  0  0  0  0  0  0
   -6.6830   23.8430  -30.8540 C   0  0  0  0  0  0  0  0  0  0  0  0
   -6.3730   25.1790  -30.3080 C   0  0  0  0  0  0  0  0  0  0  0  0
   -5.2090   25.8960  -30.7200 N   0  0  0  0  0  0  0  0  0  0  0  0
   -7.1200   25.6730  -29.4210 O   0  0  0  0  0  0  0  0  0  0  0  0
   -5.7970   22.8200  -31.0110 N   0  0  0  0  0  0  0  0  0  0  0  0
   -4.3720   22.8590  -30.8390 C   0  0  0  0  0  0  0  0  0  0  0  0
   -3.6470   23.4110  -31.7110 O   0  0  0  0  0  0  0  0  0  0  0  0
   -3.7940   22.2810  -29.7030 O   0  0  0  0  0  0  0  0  0  0  0  0
   -3.1630   23.0320  -28.6660 C   0  0  2  0  0  0  0  0  0  0  0  0
   -4.2120   23.5910  -27.7020 C   0  0  0  0  0  0  0  0  0  0  0  0
   -2.3840   24.1570  -29.2770 C   0  0  0  0  0  0  0  0  0  0  0  0
   -1.1370   24.0590  -29.4310 O   0  0  0  0  0  0  0  0  0  0  0  0
   -3.0420   25.2970  -29.7200 O   0  0  0  0  0  0  0  0  0  0  0  0
   -6.5210   21.7780  -31.4790 C   0  0  0  0  0  0  0  0  0  0  0  0
   -6.0760   20.5040  -31.8530 C   0  0  0  0  0  0  0  0  0  0  0  0
   -4.6169   15.2754  -31.7663 H   0  0  0  0  0  0  0  0  0  0  0  0
   -4.4637   14.2126  -33.2063 H   0  0  0  0  0  0  0  0  0  0  0  0
   -3.7038   15.8403  -33.2063 H   0  0  0  0  0  0  0  0  0  0  0  0
   -9.1174   19.2320  -32.8449 H   0  0  0  0  0  0  0  0  0  0  0  0
   -9.8537   21.5549  -32.2025 H   0  0  0  0  0  0  0  0  0  0  0  0
   -8.8793   24.0601  -31.2248 H   0  0  0  0  0  0  0  0  0  0  0  0
   -5.0300   26.8580  -30.3560 H   0  0  0  0  0  0  0  0  0  0  0  0
   -4.4830   25.4460  -31.3210 H   0  0  0  0  0  0  0  0  0  0  0  0
   -2.4848   22.3737  -28.1032 H   0  0  0  0  0  0  0  0  0  0  0  0
   -3.8868   23.4177  -26.6656 H   0  0  0  0  0  0  0  0  0  0  0  0
   -4.3292   24.6712  -27.8738 H   0  0  0  0  0  0  0  0  0  0  0  0
   -5.1740   23.0859  -27.8738 H   0  0  0  0  0  0  0  0  0  0  0  0
   -5.0148   20.2281  -31.7650 H   0  0  0  0  0  0  0  0  0  0  0  0
  1  2  1  0
  2  3  2  0
  2  4  1  0
  4  5  3  0
  5  6  1  0
  6  7  2  0
  7  8  1  0
  8  9  2  0
  9 10  1  0
 10 11  2  0
 11 12  1  0
 12 13  1  0
 12 14  2  0
 11 15  1  0
 15 16  1  0
 16 17  2  0
 16 18  1  0
 18 19  1  0
 19 20  1  0
 19 21  1  0
 21 22  2  0
 21 23  1  0
 15 24  1  0
 24 25  2  0
 25  6  1  0
 24  9  1  0
  1 26  1  0
  1 27  1  0
  1 28  1  0
  7 29  1  0
  8 30  1  0
 10 31  1  0
 13 32  1  0
 13 33  1  0
 19 34  1  1
 20 35  1  0
 20 36  1  0
 20 37  1  0
 25 38  1  0
M  CHG  1  23  -1
M  END
>  <UniqueID>  (42) 
41

>  <SMILES>  (42) 
CC(=O)C#Cc1ccc2cc(C(N)=O)n(C(=O)O[C@H](C)C(=O)[O-])c2c1

>  <Energy>  (42) 
66.46668380202735

>  <Genealogy>  (42) 
CC(=O)C#Cc1ccc2cc(C(N)=O)n(C(=O)OC(C)C(=O)[O-])c2c1 (protonated)
CC(=O)C#Cc1ccc2cc(C(N)=O)n(C(=O)O[C@H](C)C(=O)[O-])c2c1 (chirality)
CC(=O)C#Cc1ccc2cc(C(N)=O)n(C(=O)O[C@H](C)C(=O)[O-])c2c1 (3D coordinates assigned)
CC(=O)C#Cc1ccc2cc(C(N)=O)n(C(=O)O[C@H](C)C(=O)[O-])c2c1 (optimized conformer: 66.46668380202735 kcal/mol)

>  <smiles>  (42) 
CC(=O)C#Cc1ccc2cc(C(N)=O)n(C(=O)OC(C)C(=O)O)c2c1

>  <score_type>  (42) 
oracle

>  <origin>  (42) 
adg

>  <m_score__min__energy>  (42) 
-12.02

>  <m_primary>  (42) 
energy

$$$$
42:0
     RDKit          3D

 44 45  0  0  0  0  0  0  0  0999 V2000
   -1.8220   24.8520  -26.2570 C   0  0  0  0  0  0  0  0  0  0  0  0
   -1.9790   23.8060  -27.3820 C   0  0  0  0  0  0  0  0  0  0  0  0
   -3.4480   23.3550  -27.4620 C   0  0  0  0  0  0  0  0  0  0  0  0
   -1.0860   22.5920  -27.0580 C   0  0  0  0  0  0  0  0  0  0  0  0
   -1.5830   24.4000  -28.7190 C   0  0  0  0  0  0  0  0  0  0  0  0
   -1.7590   25.6310  -28.9450 O   0  0  0  0  0  0  0  0  0  0  0  0
   -1.1090   23.5630  -29.7370 O   0  0  0  0  0  0  0  0  0  0  0  0
   -1.7100   22.3130  -30.0530 C   0  0  0  0  0  0  0  0  0  0  0  0
   -3.1250   22.4660  -30.0940 O   0  0  0  0  0  0  0  0  0  0  0  0
   -3.8550   22.5160  -31.2830 C   0  0  0  0  0  0  0  0  0  0  0  0
   -3.2720   22.3590  -32.3910 O   0  0  0  0  0  0  0  0  0  0  0  0
   -5.2760   22.7350  -31.2410 N   0  0  0  0  0  0  0  0  0  0  0  0
   -5.9300   23.8820  -30.8990 C   0  0  0  0  0  0  0  0  0  0  0  0
   -5.3080   25.1010  -30.3460 C   0  0  0  0  0  0  0  0  0  0  0  0
   -3.9000   25.1730  -30.1150 N   0  0  0  0  0  0  0  0  0  0  0  0
   -6.0390   26.0730  -30.0170 O   0  0  0  0  0  0  0  0  0  0  0  0
   -7.3020   23.7420  -31.0840 C   0  0  0  0  0  0  0  0  0  0  0  0
   -7.4770   22.4540  -31.5360 C   0  0  0  0  0  0  0  0  0  0  0  0
   -8.6460   21.7820  -31.8830 C   0  0  0  0  0  0  0  0  0  0  0  0
   -8.5330   20.4600  -32.3440 C   0  0  0  0  0  0  0  0  0  0  0  0
   -7.2640   19.8410  -32.4570 C   0  0  0  0  0  0  0  0  0  0  0  0
   -7.1460   18.4320  -32.9630 C   0  0  0  0  0  0  0  0  0  0  0  0
   -6.7670   17.5940  -31.9300 F   0  0  0  0  0  0  0  0  0  0  0  0
   -6.1960   18.3750  -33.9670 F   0  0  0  0  0  0  0  0  0  0  0  0
   -6.0990   20.5570  -32.1020 C   0  0  0  0  0  0  0  0  0  0  0  0
   -6.2410   21.8670  -31.6240 C   0  0  0  0  0  0  0  0  0  0  0  0
   -1.8969   24.3532  -25.2795 H   0  0  0  0  0  0  0  0  0  0  0  0
   -0.8404   25.3407  -26.3451 H   0  0  0  0  0  0  0  0  0  0  0  0
   -2.6168   25.6073  -26.3451 H   0  0  0  0  0  0  0  0  0  0  0  0
   -3.8496   23.2317  -26.4454 H   0  0  0  0  0  0  0  0  0  0  0  0
   -4.0359   24.1140  -27.9989 H   0  0  0  0  0  0  0  0  0  0  0  0
   -3.5087   22.3969  -27.9989 H   0  0  0  0  0  0  0  0  0  0  0  0
   -1.0028   22.4788  -25.9670 H   0  0  0  0  0  0  0  0  0  0  0  0
   -1.5325   21.6832  -27.4879 H   0  0  0  0  0  0  0  0  0  0  0  0
   -0.0855   22.7476  -27.4879 H   0  0  0  0  0  0  0  0  0  0  0  0
   -1.3493   21.9698  -31.0339 H   0  0  0  0  0  0  0  0  0  0  0  0
   -1.4425   21.5719  -29.2854 H   0  0  0  0  0  0  0  0  0  0  0  0
   -3.4720   26.0560  -29.7590 H   0  0  0  0  0  0  0  0  0  0  0  0
   -3.2940   24.3300  -30.2190 H   0  0  0  0  0  0  0  0  0  0  0  0
   -8.0803   24.4989  -30.9069 H   0  0  0  0  0  0  0  0  0  0  0  0
   -9.6276   22.2712  -31.7987 H   0  0  0  0  0  0  0  0  0  0  0  0
   -9.4387   19.9000  -32.6199 H   0  0  0  0  0  0  0  0  0  0  0  0
   -8.1207   18.1103  -33.3586 H   0  0  0  0  0  0  0  0  0  0  0  0
   -5.1043   20.0974  -32.1984 H   0  0  0  0  0  0  0  0  0  0  0  0
  1  2  1  0
  2  3  1  0
  2  4  1  0
  2  5  1  0
  5  6  2  0
  5  7  1  0
  7  8  1  0
  8  9  1  0
  9 10  1  0
 10 11  2  0
 10 12  1  0
 12 13  1  0
 13 14  1  0
 14 15  1  0
 14 16  2  0
 13 17  2  0
 17 18  1  0
 18 19  2  0
 19 20  1  0
 20 21  2  0
 21 22  1  0
 22 23  1  0
 22 24  1  0
 21 25  1  0
 25 26  2  0
 26 12  1  0
 26 18  1  0
  1 27  1  0
  1 28  1  0
  1 29  1  0
  3 30  1  0
  3 31  1  0
  3 32  1  0
  4 33  1  0
  4 34  1  0
  4 35  1  0
  8 36  1  0
  8 37  1  0
 15 38  1  0
 15 39  1  0
 17 40  1  0
 19 41  1  0
 20 42  1  0
 22 43  1  0
 25 44  1  0
M  END
>  <UniqueID>  (43) 
42

>  <SMILES>  (43) 
CC(C)(C)C(=O)OCOC(=O)n1c(C(N)=O)cc2ccc(C(F)F)cc21

>  <Energy>  (43) 
74.42551126812106

>  <Genealogy>  (43) 
CC(C)(C)C(=O)OCOC(=O)n1c(C(N)=O)cc2ccc(C(F)F)cc21 (3D coordinates assigned)
CC(C)(C)C(=O)OCOC(=O)n1c(C(N)=O)cc2ccc(C(F)F)cc21 (optimized conformer: 74.42551126812106 kcal/mol)

>  <smiles>  (43) 
CC(C)(C)C(=O)OCOC(=O)n1c(C(N)=O)cc2ccc(C(F)F)cc21

>  <score_type>  (43) 
oracle

>  <origin>  (43) 
adg

>  <m_score__min__energy>  (43) 
-8.7100000000000009

>  <m_primary>  (43) 
energy

$$$$
43:0
     RDKit          3D

 34 35  0  0  0  0  0  0  0  0999 V2000
   -4.0430   18.2760  -34.2270 C   0  0  0  0  0  0  0  0  0  0  0  0
   -3.6210   19.3270  -33.2930 N   0  0  0  0  0  0  0  0  0  0  0  0
   -2.2100   19.3680  -32.8800 C   0  0  0  0  0  0  0  0  0  0  0  0
   -1.3690   20.1550  -33.8900 C   0  0  0  0  0  0  0  0  0  0  0  0
   -1.6410   21.5260  -33.7840 O   0  0  0  0  0  0  0  0  0  0  0  0
   -4.5770   20.3140  -32.8240 C   0  0  0  0  0  0  0  0  0  0  0  0
   -5.9610   20.1820  -33.1320 C   0  0  0  0  0  0  0  0  0  0  0  0
   -6.8950   21.1360  -32.7010 C   0  0  0  0  0  0  0  0  0  0  0  0
   -6.4310   22.2130  -31.9540 C   0  0  0  0  0  0  0  0  0  0  0  0
   -7.1150   23.2930  -31.4470 C   0  0  0  0  0  0  0  0  0  0  0  0
   -6.1540   24.0660  -30.8040 C   0  0  0  0  0  0  0  0  0  0  0  0
   -6.4690   25.3040  -30.0640 C   0  0  0  0  0  0  0  0  0  0  0  0
   -5.6720   26.4800  -30.2140 N   0  0  0  0  0  0  0  0  0  0  0  0
   -7.4240   25.3060  -29.2410 O   0  0  0  0  0  0  0  0  0  0  0  0
   -4.9200   23.4960  -30.9200 N   0  0  0  0  0  0  0  0  0  0  0  0
   -3.6620   24.0420  -30.4900 C   0  0  0  0  0  0  0  0  0  0  0  0
   -3.4870   25.2890  -30.4580 O   0  0  0  0  0  0  0  0  0  0  0  0
   -2.6230   23.2030  -30.1070 O   0  0  0  0  0  0  0  0  0  0  0  0
   -5.1100   22.3580  -31.6260 C   0  0  0  0  0  0  0  0  0  0  0  0
   -4.1530   21.4330  -32.0620 C   0  0  0  0  0  0  0  0  0  0  0  0
   -4.3943   17.4012  -33.6602 H   0  0  0  0  0  0  0  0  0  0  0  0
   -4.8589   18.6543  -34.8603 H   0  0  0  0  0  0  0  0  0  0  0  0
   -3.1920   17.9850  -34.8603 H   0  0  0  0  0  0  0  0  0  0  0  0
   -2.1367   19.8522  -31.8950 H   0  0  0  0  0  0  0  0  0  0  0  0
   -1.8276   18.3378  -32.8303 H   0  0  0  0  0  0  0  0  0  0  0  0
   -0.3019   19.9799  -33.6887 H   0  0  0  0  0  0  0  0  0  0  0  0
   -1.6204   19.8172  -34.9062 H   0  0  0  0  0  0  0  0  0  0  0  0
   -2.2760   21.7470  -34.5150 H   0  0  0  0  0  0  0  0  0  0  0  0
   -6.3039   19.3167  -33.7182 H   0  0  0  0  0  0  0  0  0  0  0  0
   -7.9624   21.0350  -32.9467 H   0  0  0  0  0  0  0  0  0  0  0  0
   -8.1918   23.5010  -31.5319 H   0  0  0  0  0  0  0  0  0  0  0  0
   -5.9340   27.3570  -29.7110 H   0  0  0  0  0  0  0  0  0  0  0  0
   -4.7790   26.4600  -30.7530 H   0  0  0  0  0  0  0  0  0  0  0  0
   -3.0896   21.5719  -31.8175 H   0  0  0  0  0  0  0  0  0  0  0  0
  1  2  1  0
  2  3  1  0
  3  4  1  0
  4  5  1  0
  2  6  1  0
  6  7  2  0
  7  8  1  0
  8  9  2  0
  9 10  1  0
 10 11  2  0
 11 12  1  0
 12 13  1  0
 12 14  2  0
 11 15  1  0
 15 16  1  0
 16 17  2  0
 16 18  1  0
 15 19  1  0
 19 20  2  0
 20  6  1  0
 19  9  1  0
  1 21  1  0
  1 22  1  0
  1 23  1  0
  3 24  1  0
  3 25  1  0
  4 26  1  0
  4 27  1  0
  5 28  1  0
  7 29  1  0
  8 30  1  0
 10 31  1  0
 13 32  1  0
 13 33  1  0
 20 34  1  0
M  CHG  1  18  -1
M  END
>  <UniqueID>  (44) 
43

>  <SMILES>  (44) 
CN(CCO)c1ccc2cc(C(N)=O)n(C(=O)[O-])c2c1

>  <Energy>  (44) 
74.27990518416968

>  <Genealogy>  (44) 
CN(CCO)c1ccc2cc(C(N)=O)n(C(=O)[O-])c2c1 (protonated)
CN(CCO)c1ccc2cc(C(N)=O)n(C(=O)[O-])c2c1 (3D coordinates assigned)
CN(CCO)c1ccc2cc(C(N)=O)n(C(=O)[O-])c2c1 (optimized conformer: 74.27990518416968 kcal/mol)

>  <smiles>  (44) 
CN(CCO)c1ccc2cc(C(N)=O)n(C(=O)O)c2c1

>  <score_type>  (44) 
oracle

>  <origin>  (44) 
adg

>  <m_score__min__energy>  (44) 
-8.2699999999999996

>  <m_primary>  (44) 
energy

$$$$
44:0
     RDKit          3D

 32 34  0  0  0  0  0  0  0  0999 V2000
   -3.8650   25.3210  -30.5610 N   0  0  0  0  0  0  0  0  0  0  0  0
   -5.2670   25.1250  -30.4040 C   0  0  0  0  0  0  0  0  0  0  0  0
   -5.9570   26.0280  -29.8590 O   0  0  0  0  0  0  0  0  0  0  0  0
   -5.9140   23.8690  -30.8370 C   0  0  0  0  0  0  0  0  0  0  0  0
   -7.2390   23.7870  -31.2640 C   0  0  0  0  0  0  0  0  0  0  0  0
   -7.4560   22.4540  -31.5300 C   0  0  0  0  0  0  0  0  0  0  0  0
   -8.5940   21.8030  -31.9970 C   0  0  0  0  0  0  0  0  0  0  0  0
   -8.5230   20.4150  -32.2050 C   0  0  0  0  0  0  0  0  0  0  0  0
   -7.3200   19.7080  -31.9490 C   0  0  0  0  0  0  0  0  0  0  0  0
   -7.2440   18.2260  -32.1800 C   0  0  0  0  0  0  0  0  0  0  0  0
   -8.4880   17.6570  -31.9730 F   0  0  0  0  0  0  0  0  0  0  0  0
   -6.3340   17.6650  -31.3050 F   0  0  0  0  0  0  0  0  0  0  0  0
   -6.1850   20.4030  -31.4800 C   0  0  0  0  0  0  0  0  0  0  0  0
   -6.2920   21.7810  -31.2680 C   0  0  0  0  0  0  0  0  0  0  0  0
   -5.3390   22.6340  -30.8360 N   0  0  0  0  0  0  0  0  0  0  0  0
   -3.9750   22.2990  -30.5490 C   0  0  0  0  0  0  0  0  0  0  0  0
   -3.5520   22.3780  -29.3640 O   0  0  0  0  0  0  0  0  0  0  0  0
   -3.0780   21.9060  -31.5980 N   0  0  0  0  0  0  0  0  0  0  0  0
   -1.6620   21.5970  -31.4240 C   0  0  0  0  0  0  0  0  0  0  0  0
   -1.2520   21.2060  -32.8090 C   0  0  0  0  0  0  0  0  0  0  0  0
   -0.0850   20.8690  -33.1390 O   0  0  0  0  0  0  0  0  0  0  0  0
   -2.3100   21.2520  -33.7030 O   0  0  0  0  0  0  0  0  0  0  0  0
   -3.4020   21.6630  -32.9660 C   0  0  0  0  0  0  0  0  0  0  0  0
   -4.5590   21.7730  -33.4490 O   0  0  0  0  0  0  0  0  0  0  0  0
   -3.4930   26.0320  -31.2300 H   0  0  0  0  0  0  0  0  0  0  0  0
   -7.9585   24.6128  -31.3665 H   0  0  0  0  0  0  0  0  0  0  0  0
   -9.5219   22.3587  -32.1974 H   0  0  0  0  0  0  0  0  0  0  0  0
   -9.4076   19.8722  -32.5694 H   0  0  0  0  0  0  0  0  0  0  0  0
   -6.9224   18.0388  -33.2151 H   0  0  0  0  0  0  0  0  0  0  0  0
   -5.2401   19.8742  -31.2861 H   0  0  0  0  0  0  0  0  0  0  0  0
   -1.1015   22.4770  -31.0755 H   0  0  0  0  0  0  0  0  0  0  0  0
   -1.4688   20.8197  -30.6700 H   0  0  0  0  0  0  0  0  0  0  0  0
  1  2  1  0
  2  3  2  0
  2  4  1  0
  4  5  2  0
  5  6  1  0
  6  7  2  0
  7  8  1  0
  8  9  2  0
  9 10  1  0
 10 11  1  0
 10 12  1  0
  9 13  1  0
 13 14  2  0
 14 15  1  0
 15 16  1  0
 16 17  2  0
 16 18  1  0
 18 19  1  0
 19 20  1  0
 20 21  2  0
 20 22  1  0
 22 23  1  0
 23 24  2  0
 15  4  1  0
 23 18  1  0
 14  6  1  0
  1 25  1  0
  5 26  1  0
  7 27  1  0
  8 28  1  0
 10 29  1  0
 13 30  1  0
 19 31  1  0
 19 32  1  0
M  CHG  1   1  -1
M  END
>  <UniqueID>  (45) 
44

>  <SMILES>  (45) 
[NH-]C(=O)c1cc2ccc(C(F)F)cc2n1C(=O)N1CC(=O)OC1=O

>  <Energy>  (45) 
92.85108712744096

>  <Genealogy>  (45) 
[NH-]C(=O)c1cc2ccc(C(F)F)cc2n1C(=O)N1CC(=O)OC1=O (protonated)
[NH-]C(=O)c1cc2ccc(C(F)F)cc2n1C(=O)N1CC(=O)OC1=O (3D coordinates assigned)
[NH-]C(=O)c1cc2ccc(C(F)F)cc2n1C(=O)N1CC(=O)OC1=O (nonaromatic ring conformer: 92.85108712744096 kcal/mol)

>  <smiles>  (45) 
NC(=O)c1cc2ccc(C(F)F)cc2n1C(=O)N1CC(=O)OC1=O

>  <score_type>  (45) 
oracle

>  <origin>  (45) 
adg

>  <m_score__min__energy>  (45) 
-9.9700000000000006

>  <m_primary>  (45) 
energy

$$$$
45:0
     RDKit          3D

 43 44  0  0  0  0  0  0  0  0999 V2000
   -1.1220   20.3910  -30.8070 C   0  0  0  0  0  0  0  0  0  0  0  0
   -1.8410   21.6580  -30.6520 N   0  0  0  0  0  0  0  0  0  0  0  0
   -3.1340   21.8600  -31.3190 C   0  0  0  0  0  0  0  0  0  0  0  0
   -4.1900   22.1690  -30.3000 C   0  0  0  0  0  0  0  0  0  0  0  0
   -3.9560   21.9960  -29.0750 O   0  0  0  0  0  0  0  0  0  0  0  0
   -5.4900   22.5980  -30.7220 N   0  0  0  0  0  0  0  0  0  0  0  0
   -5.9430   23.8740  -30.8620 C   0  0  0  0  0  0  0  0  0  0  0  0
   -5.2220   25.0900  -30.4390 C   0  0  0  0  0  0  0  0  0  0  0  0
   -3.8690   25.2930  -30.8420 N   0  0  0  0  0  0  0  0  0  0  0  0
   -5.7960   25.9670  -29.7390 O   0  0  0  0  0  0  0  0  0  0  0  0
   -7.2150   23.8790  -31.4350 C   0  0  0  0  0  0  0  0  0  0  0  0
   -7.5230   22.5520  -31.6460 C   0  0  0  0  0  0  0  0  0  0  0  0
   -8.6530   21.9700  -32.2140 C   0  0  0  0  0  0  0  0  0  0  0  0
   -8.6810   20.5690  -32.3370 C   0  0  0  0  0  0  0  0  0  0  0  0
   -7.5810   19.7850  -31.9080 C   0  0  0  0  0  0  0  0  0  0  0  0
   -7.6290   18.2910  -32.0250 C   0  0  0  0  0  0  0  0  0  0  0  0
   -6.2060   17.6330  -33.4760 I   0  0  0  0  0  0  0  0  0  0  0  0
   -6.4600   20.4100  -31.3210 C   0  0  0  0  0  0  0  0  0  0  0  0
   -6.4650   21.8030  -31.2060 C   0  0  0  0  0  0  0  0  0  0  0  0
   -1.3230   22.6510  -29.7500 C   0  0  0  0  0  0  0  0  0  0  0  0
   -1.3550   23.8730  -30.0670 O   0  0  0  0  0  0  0  0  0  0  0  0
   -0.8010   22.2620  -28.5120 O   0  0  0  0  0  0  0  0  0  0  0  0
   -1.2290   22.8290  -27.2780 C   0  0  0  0  0  0  0  0  0  0  0  0
   -2.0130   23.9690  -27.5380 O   0  0  0  0  0  0  0  0  0  0  0  0
   -0.9710   25.3060  -27.7310 P   0  0  2  0  0  0  0  0  0  0  0  0
   -0.8880   26.0870  -26.4390 O   0  0  0  0  0  0  0  0  0  0  0  0
   -1.5880   26.3110  -28.9420 O   0  0  0  0  0  0  0  0  0  0  0  0
    0.5770   24.7900  -28.1780 O   0  0  0  0  0  0  0  0  0  0  0  0
   -0.8879   19.9785  -29.8145 H   0  0  0  0  0  0  0  0  0  0  0  0
   -1.7503   19.6783  -31.3614 H   0  0  0  0  0  0  0  0  0  0  0  0
   -0.1880   20.5649  -31.3614 H   0  0  0  0  0  0  0  0  0  0  0  0
   -3.0527   22.6986  -32.0262 H   0  0  0  0  0  0  0  0  0  0  0  0
   -3.4098   20.9431  -31.8605 H   0  0  0  0  0  0  0  0  0  0  0  0
   -3.0910   25.2650  -30.1460 H   0  0  0  0  0  0  0  0  0  0  0  0
   -7.8387   24.7545  -31.6685 H   0  0  0  0  0  0  0  0  0  0  0  0
   -9.4975   22.5864  -32.5559 H   0  0  0  0  0  0  0  0  0  0  0  0
   -9.5647   20.0775  -32.7701 H   0  0  0  0  0  0  0  0  0  0  0  0
   -7.3914   17.8405  -31.0500 H   0  0  0  0  0  0  0  0  0  0  0  0
   -8.6372   17.9834  -32.3395 H   0  0  0  0  0  0  0  0  0  0  0  0
   -5.6054   19.8168  -30.9636 H   0  0  0  0  0  0  0  0  0  0  0  0
   -1.8260   22.0912  -26.7219 H   0  0  0  0  0  0  0  0  0  0  0  0
   -0.3516   23.1135  -26.6787 H   0  0  0  0  0  0  0  0  0  0  0  0
    0.4210   24.0350  -28.8020 H   0  0  0  0  0  0  0  0  0  0  0  0
  1  2  1  0
  2  3  1  0
  3  4  1  0
  4  5  2  0
  4  6  1  0
  6  7  1  0
  7  8  1  0
  8  9  1  0
  8 10  2  0
  7 11  2  0
 11 12  1  0
 12 13  2  0
 13 14  1  0
 14 15  2  0
 15 16  1  0
 16 17  1  0
 15 18  1  0
 18 19  2  0
  2 20  1  0
 20 21  2  0
 20 22  1  0
 22 23  1  0
 23 24  1  0
 24 25  1  0
 25 26  2  0
 25 27  1  6
 25 28  1  0
 19  6  1  0
 19 12  1  0
  1 29  1  0
  1 30  1  0
  1 31  1  0
  3 32  1  0
  3 33  1  0
  9 34  1  0
 11 35  1  0
 13 36  1  0
 14 37  1  0
 16 38  1  0
 16 39  1  0
 18 40  1  0
 23 41  1  0
 23 42  1  0
 28 43  1  0
M  CHG  2   9  -1  27  -1
M  END
>  <UniqueID>  (46) 
45

>  <SMILES>  (46) 
CN(CC(=O)n1c(C([NH-])=O)cc2ccc(CI)cc21)C(=O)OCO[P@](=O)([O-])O

>  <Energy>  (46) 
71.68969616167159

>  <Genealogy>  (46) 
CN(CC(=O)n1c(C([NH-])=O)cc2ccc(CI)cc21)C(=O)OCOP(=O)([O-])O (protonated)
CN(CC(=O)n1c(C([NH-])=O)cc2ccc(CI)cc21)C(=O)OCO[P@](=O)([O-])O (chirality)
CN(CC(=O)n1c(C([NH-])=O)cc2ccc(CI)cc21)C(=O)OCO[P@](=O)([O-])O (3D coordinates assigned)
CN(CC(=O)n1c(C([NH-])=O)cc2ccc(CI)cc21)C(=O)OCO[P@](=O)([O-])O (optimized conformer: 71.68969616167159 kcal/mol)

>  <smiles>  (46) 
CN(CC(=O)n1c(C(N)=O)cc2ccc(CI)cc21)C(=O)OCOP(=O)(O)O

>  <score_type>  (46) 
oracle

>  <origin>  (46) 
adg

>  <m_score__min__energy>  (46) 
-13.16

>  <m_primary>  (46) 
energy

$$$$
46:0
     RDKit          3D

 38 39  0  0  0  0  0  0  0  0999 V2000
    0.7010   23.6860  -27.5080 C   0  0  0  0  0  0  0  0  0  0  0  0
    0.1050   24.4130  -28.5750 O   0  0  0  0  0  0  0  0  0  0  0  0
   -1.2420   24.7870  -28.5710 C   0  0  0  0  0  0  0  0  0  0  0  0
   -1.5900   25.9380  -28.9550 O   0  0  0  0  0  0  0  0  0  0  0  0
   -2.2820   23.7920  -28.1440 C   0  0  1  0  0  0  0  0  0  0  0  0
   -3.5140   24.4390  -27.9590 O   0  0  0  0  0  0  0  0  0  0  0  0
   -2.4210   22.6930  -29.2040 C   0  0  0  0  0  0  0  0  0  0  0  0
   -2.6090   23.2630  -30.4990 O   0  0  0  0  0  0  0  0  0  0  0  0
   -3.3760   22.6660  -31.5070 C   0  0  0  0  0  0  0  0  0  0  0  0
   -2.8160   22.0870  -32.4770 O   0  0  0  0  0  0  0  0  0  0  0  0
   -4.8100   22.7280  -31.4420 N   0  0  0  0  0  0  0  0  0  0  0  0
   -5.5800   23.7560  -30.9870 C   0  0  0  0  0  0  0  0  0  0  0  0
   -5.0870   24.9780  -30.3170 C   0  0  0  0  0  0  0  0  0  0  0  0
   -3.9080   25.6220  -30.7940 N   0  0  0  0  0  0  0  0  0  0  0  0
   -5.7180   25.4820  -29.3510 O   0  0  0  0  0  0  0  0  0  0  0  0
   -6.9310   23.4700  -31.1670 C   0  0  0  0  0  0  0  0  0  0  0  0
   -6.9660   22.2230  -31.7470 C   0  0  0  0  0  0  0  0  0  0  0  0
   -8.0520   21.4610  -32.1670 C   0  0  0  0  0  0  0  0  0  0  0  0
   -7.7920   20.2190  -32.7710 C   0  0  0  0  0  0  0  0  0  0  0  0
   -6.4610   19.7560  -32.9340 C   0  0  0  0  0  0  0  0  0  0  0  0
   -6.1940   18.4520  -33.6410 C   0  0  0  0  0  0  0  0  0  0  0  0
   -5.0140   17.9110  -33.1690 F   0  0  0  0  0  0  0  0  0  0  0  0
   -7.2240   17.5550  -33.4150 F   0  0  0  0  0  0  0  0  0  0  0  0
   -6.0860   18.6500  -35.0070 F   0  0  0  0  0  0  0  0  0  0  0  0
   -5.3840   20.5720  -32.5160 C   0  0  0  0  0  0  0  0  0  0  0  0
   -5.6740   21.7960  -31.9010 C   0  0  0  0  0  0  0  0  0  0  0  0
    0.3613   24.1003  -26.5473 H   0  0  0  0  0  0  0  0  0  0  0  0
    0.4068   22.6282  -27.5757 H   0  0  0  0  0  0  0  0  0  0  0  0
    1.7959   23.7671  -27.5757 H   0  0  0  0  0  0  0  0  0  0  0  0
   -1.9716   23.3338  -27.1934 H   0  0  0  0  0  0  0  0  0  0  0  0
   -3.6100   25.0910  -28.7020 H   0  0  0  0  0  0  0  0  0  0  0  0
   -1.5088   22.0783  -29.2088 H   0  0  0  0  0  0  0  0  0  0  0  0
   -3.2966   22.0738  -28.9593 H   0  0  0  0  0  0  0  0  0  0  0  0
   -2.9620   25.3120  -30.4770 H   0  0  0  0  0  0  0  0  0  0  0  0
   -7.7883   24.1062  -30.9017 H   0  0  0  0  0  0  0  0  0  0  0  0
   -9.0828   21.8199  -32.0304 H   0  0  0  0  0  0  0  0  0  0  0  0
   -8.6302   19.5987  -33.1214 H   0  0  0  0  0  0  0  0  0  0  0  0
   -4.3428   20.2525  -32.6705 H   0  0  0  0  0  0  0  0  0  0  0  0
  1  2  1  0
  2  3  1  0
  3  4  2  0
  3  5  1  0
  5  6  1  0
  5  7  1  0
  7  8  1  0
  8  9  1  0
  9 10  2  0
  9 11  1  0
 11 12  1  0
 12 13  1  0
 13 14  1  0
 13 15  2  0
 12 16  2  0
 16 17  1  0
 17 18  2  0
 18 19  1  0
 19 20  2  0
 20 21  1  0
 21 22  1  0
 21 23  1  0
 21 24  1  0
 20 25  1  0
 25 26  2  0
 26 11  1  0
 26 17  1  0
  1 27  1  0
  1 28  1  0
  1 29  1  0
  5 30  1  1
  6 31  1  0
  7 32  1  0
  7 33  1  0
 14 34  1  0
 16 35  1  0
 18 36  1  0
 19 37  1  0
 25 38  1  0
M  CHG  1  14  -1
M  END
>  <UniqueID>  (47) 
46

>  <SMILES>  (47) 
COC(=O)[C@@H](O)COC(=O)n1c(C([NH-])=O)cc2ccc(C(F)(F)F)cc21

>  <Energy>  (47) 
72.158872911

>  <Genealogy>  (47) 
COC(=O)[C@@H](O)COC(=O)n1c(C([NH-])=O)cc2ccc(C(F)(F)F)cc21 (protonated)
COC(=O)[C@@H](O)COC(=O)n1c(C([NH-])=O)cc2ccc(C(F)(F)F)cc21 (3D coordinates assigned)
COC(=O)[C@@H](O)COC(=O)n1c(C([NH-])=O)cc2ccc(C(F)(F)F)cc21 (optimized conformer: 72.158872911 kcal/mol)

>  <smiles>  (47) 
COC(=O)[C@@H](O)COC(=O)n1c(C(N)=O)cc2ccc(C(F)(F)F)cc21

>  <score_type>  (47) 
oracle

>  <origin>  (47) 
adg

>  <m_score__min__energy>  (47) 
-9.8900000000000006

>  <m_primary>  (47) 
energy

$$$$
47:0
     RDKit          3D

 35 36  0  0  0  0  0  0  0  0999 V2000
   -6.7550   24.0320  -30.4980 C   0  0  0  0  0  0  0  0  0  0  0  0
   -7.9060   23.4150  -31.2860 C   0  0  0  0  0  0  0  0  0  0  0  0
   -7.4810   22.1180  -31.9220 C   0  0  0  0  0  0  0  0  0  0  0  0
   -8.4340   21.1000  -32.1690 C   0  0  0  0  0  0  0  0  0  0  0  0
   -8.0370   19.8710  -32.7250 C   0  0  0  0  0  0  0  0  0  0  0  0
   -6.6880   19.6910  -33.0160 C   0  0  0  0  0  0  0  0  0  0  0  0
   -6.0350   18.5940  -33.5260 C   0  0  0  0  0  0  0  0  0  0  0  0
   -4.6920   18.9610  -33.5890 C   0  0  0  0  0  0  0  0  0  0  0  0
   -3.6450   18.0970  -34.1720 C   0  0  0  0  0  0  0  0  0  0  0  0
   -2.2780   18.2520  -33.8040 N   0  0  0  0  0  0  0  0  0  0  0  0
   -3.9540   17.2460  -35.0500 O   0  0  0  0  0  0  0  0  0  0  0  0
   -4.5180   20.2300  -33.1220 N   0  0  0  0  0  0  0  0  0  0  0  0
   -3.2780   20.9290  -32.9130 C   0  0  0  0  0  0  0  0  0  0  0  0
   -2.5480   21.2230  -33.8980 O   0  0  0  0  0  0  0  0  0  0  0  0
   -2.8720   21.2550  -31.6150 O   0  0  0  0  0  0  0  0  0  0  0  0
   -3.3620   22.3930  -30.9040 C   0  0  0  0  0  0  0  0  0  0  0  0
   -2.3110   23.1330  -30.3240 O   0  0  0  0  0  0  0  0  0  0  0  0
   -2.9120   24.6150  -29.7190 P   0  0  0  0  0  0  0  0  0  0  0  0
   -3.7010   24.3520  -28.4560 O   0  0  0  0  0  0  0  0  0  0  0  0
   -1.6040   25.6180  -29.3450 O   0  0  0  0  0  0  0  0  0  0  0  0
   -3.9030   25.4060  -30.8420 O   0  0  0  0  0  0  0  0  0  0  0  0
   -5.7530   20.6670  -32.7820 C   0  0  0  0  0  0  0  0  0  0  0  0
   -6.1190   21.8960  -32.2200 C   0  0  0  0  0  0  0  0  0  0  0  0
   -6.9505   23.9272  -29.4206 H   0  0  0  0  0  0  0  0  0  0  0  0
   -5.8179   23.5153  -30.7525 H   0  0  0  0  0  0  0  0  0  0  0  0
   -6.6665   25.0985  -30.7525 H   0  0  0  0  0  0  0  0  0  0  0  0
   -8.7484   23.2241  -30.6049 H   0  0  0  0  0  0  0  0  0  0  0  0
   -8.2072   24.1155  -32.0788 H   0  0  0  0  0  0  0  0  0  0  0  0
   -9.4925   21.2720  -31.9241 H   0  0  0  0  0  0  0  0  0  0  0  0
   -8.7705   19.0758  -32.9240 H   0  0  0  0  0  0  0  0  0  0  0  0
   -6.4781   17.6315  -33.8214 H   0  0  0  0  0  0  0  0  0  0  0  0
   -1.8840   19.1930  -33.5820 H   0  0  0  0  0  0  0  0  0  0  0  0
   -3.9122   23.0409  -31.6023 H   0  0  0  0  0  0  0  0  0  0  0  0
   -4.0200   22.0382  -30.0971 H   0  0  0  0  0  0  0  0  0  0  0  0
   -5.3640   22.6695  -32.0157 H   0  0  0  0  0  0  0  0  0  0  0  0
  1  2  1  0
  2  3  1  0
  3  4  2  0
  4  5  1  0
  5  6  2  0
  6  7  1  0
  7  8  2  0
  8  9  1  0
  9 10  1  0
  9 11  2  0
  8 12  1  0
 12 13  1  0
 13 14  2  0
 13 15  1  0
 15 16  1  0
 16 17  1  0
 17 18  1  0
 18 19  2  0
 18 20  1  0
 18 21  1  0
 12 22  1  0
 22 23  2  0
 23  3  1  0
 22  6  1  0
  1 24  1  0
  1 25  1  0
  1 26  1  0
  2 27  1  0
  2 28  1  0
  4 29  1  0
  5 30  1  0
  7 31  1  0
 10 32  1  0
 16 33  1  0
 16 34  1  0
 23 35  1  0
M  CHG  3  10  -1  20  -1  21  -1
M  END
>  <UniqueID>  (48) 
47

>  <SMILES>  (48) 
CCc1ccc2cc(C([NH-])=O)n(C(=O)OCOP(=O)([O-])[O-])c2c1

>  <Energy>  (48) 
69.0494555795653

>  <Genealogy>  (48) 
CCc1ccc2cc(C([NH-])=O)n(C(=O)OCOP(=O)([O-])[O-])c2c1 (protonated)
CCc1ccc2cc(C([NH-])=O)n(C(=O)OCOP(=O)([O-])[O-])c2c1 (3D coordinates assigned)
CCc1ccc2cc(C([NH-])=O)n(C(=O)OCOP(=O)([O-])[O-])c2c1 (optimized conformer: 69.0494555795653 kcal/mol)

>  <smiles>  (48) 
CCc1ccc2cc(C(N)=O)n(C(=O)OCOP(=O)(O)O)c2c1

>  <score_type>  (48) 
oracle

>  <origin>  (48) 
adg

>  <m_score__min__energy>  (48) 
-13.82

>  <m_primary>  (48) 
energy

$$$$
48:0
     RDKit          3D

 34 35  0  0  0  0  0  0  0  0999 V2000
   -1.6020   25.6800  -28.9950 N   0  0  0  0  0  0  0  0  0  0  0  0
   -1.0680   24.3950  -29.3020 C   0  0  0  0  0  0  0  0  0  0  0  0
    0.0870   24.0940  -28.8970 O   0  0  0  0  0  0  0  0  0  0  0  0
   -1.8710   23.3930  -30.0330 C   0  0  0  0  0  0  0  0  0  0  0  0
   -1.3630   22.1660  -30.4550 C   0  0  0  0  0  0  0  0  0  0  0  0
   -2.4330   21.4970  -31.0020 C   0  0  0  0  0  0  0  0  0  0  0  0
   -2.4970   20.2330  -31.5790 C   0  0  0  0  0  0  0  0  0  0  0  0
   -3.7330   19.8020  -32.0860 C   0  0  0  0  0  0  0  0  0  0  0  0
   -4.8750   20.6430  -32.0250 C   0  0  0  0  0  0  0  0  0  0  0  0
   -6.1440   20.1820  -32.5320 N   0  0  0  0  0  0  0  0  0  0  0  0
   -6.3540   18.7760  -32.1510 C   0  0  0  0  0  0  0  0  0  0  0  0
   -7.7460   18.5490  -31.5350 C   0  0  0  0  0  0  0  0  0  0  0  0
   -8.8750   19.1330  -32.3910 C   0  0  0  0  0  0  0  0  0  0  0  0
   -8.3490   20.0110  -33.3500 O   0  0  0  0  0  0  0  0  0  0  0  0
   -4.7710   21.9180  -31.4200 C   0  0  0  0  0  0  0  0  0  0  0  0
   -3.5310   22.3130  -30.9060 C   0  0  0  0  0  0  0  0  0  0  0  0
   -3.2010   23.4830  -30.3150 N   0  0  0  0  0  0  0  0  0  0  0  0
   -4.0630   24.6170  -30.1270 C   0  0  0  0  0  0  0  0  0  0  0  0
   -3.8850   25.6700  -30.7950 O   0  0  0  0  0  0  0  0  0  0  0  0
   -5.0860   24.5730  -29.1870 O   0  0  0  0  0  0  0  0  0  0  0  0
   -2.6320   25.8510  -29.0080 H   0  0  0  0  0  0  0  0  0  0  0  0
   -0.3263   21.8084  -30.3689 H   0  0  0  0  0  0  0  0  0  0  0  0
   -1.6060   19.5905  -31.6363 H   0  0  0  0  0  0  0  0  0  0  0  0
   -3.8176   18.8016  -32.5355 H   0  0  0  0  0  0  0  0  0  0  0  0
   -6.1510   20.2770  -33.5730 H   0  0  0  0  0  0  0  0  0  0  0  0
   -6.9140   20.7760  -32.1460 H   0  0  0  0  0  0  0  0  0  0  0  0
   -6.2550   18.1462  -33.0474 H   0  0  0  0  0  0  0  0  0  0  0  0
   -5.5999   18.5119  -31.3949 H   0  0  0  0  0  0  0  0  0  0  0  0
   -7.9105   17.4668  -31.4267 H   0  0  0  0  0  0  0  0  0  0  0  0
   -7.7666   19.0634  -30.5629 H   0  0  0  0  0  0  0  0  0  0  0  0
   -9.4063   18.3149  -32.8995 H   0  0  0  0  0  0  0  0  0  0  0  0
   -9.5704   19.6847  -31.7413 H   0  0  0  0  0  0  0  0  0  0  0  0
   -8.8330   19.8280  -34.1980 H   0  0  0  0  0  0  0  0  0  0  0  0
   -5.6447   22.5831  -31.3553 H   0  0  0  0  0  0  0  0  0  0  0  0
  1  2  1  0
  2  3  2  0
  2  4  1  0
  4  5  2  0
  5  6  1  0
  6  7  2  0
  7  8  1  0
  8  9  2  0
  9 10  1  0
 10 11  1  0
 11 12  1  0
 12 13  1  0
 13 14  1  0
  9 15  1  0
 15 16  2  0
 16 17  1  0
 17 18  1  0
 18 19  2  0
 18 20  1  0
 17  4  1  0
 16  6  1  0
  1 21  1  0
  5 22  1  0
  7 23  1  0
  8 24  1  0
 10 25  1  0
 10 26  1  0
 11 27  1  0
 11 28  1  0
 12 29  1  0
 12 30  1  0
 13 31  1  0
 13 32  1  0
 14 33  1  0
 15 34  1  0
M  CHG  3   1  -1  10   1  20  -1
M  END
>  <UniqueID>  (49) 
48

>  <SMILES>  (49) 
[NH-]C(=O)c1cc2ccc([NH2+]CCCO)cc2n1C(=O)[O-]

>  <Energy>  (49) 
71.08534703075296

>  <Genealogy>  (49) 
[NH-]C(=O)c1cc2ccc([NH2+]CCCO)cc2n1C(=O)[O-] (protonated)
[NH-]C(=O)c1cc2ccc([NH2+]CCCO)cc2n1C(=O)[O-] (3D coordinates assigned)
[NH-]C(=O)c1cc2ccc([NH2+]CCCO)cc2n1C(=O)[O-] (optimized conformer: 71.08534703075296 kcal/mol)

>  <smiles>  (49) 
NC(=O)c1cc2ccc(NCCCO)cc2n1C(=O)O

>  <score_type>  (49) 
oracle

>  <origin>  (49) 
adg

>  <m_score__min__energy>  (49) 
-9.2699999999999996

>  <m_primary>  (49) 
energy

$$$$
49:0
     RDKit          3D

 39 40  0  0  0  0  0  0  0  0999 V2000
   -1.9580   21.3650  -27.2220 C   0  0  0  0  0  0  0  0  0  0  0  0
   -1.7710   22.6740  -27.8560 N   0  0  0  0  0  0  0  0  0  0  0  0
   -0.9080   23.6790  -27.2260 C   0  0  0  0  0  0  0  0  0  0  0  0
   -2.4520   23.0060  -29.0850 C   0  0  0  0  0  0  0  0  0  0  0  0
   -2.4060   24.1900  -29.5200 O   0  0  0  0  0  0  0  0  0  0  0  0
   -3.2850   21.9820  -29.8200 C   0  0  0  0  0  0  0  0  0  0  0  0
   -3.9180   22.5580  -31.0570 C   0  0  0  0  0  0  0  0  0  0  0  0
   -3.1840   22.9900  -31.9860 O   0  0  0  0  0  0  0  0  0  0  0  0
   -5.3440   22.7010  -31.1510 N   0  0  0  0  0  0  0  0  0  0  0  0
   -6.0860   23.8240  -30.9460 C   0  0  0  0  0  0  0  0  0  0  0  0
   -5.5650   25.1080  -30.4260 C   0  0  0  0  0  0  0  0  0  0  0  0
   -4.2280   25.5250  -30.7100 N   0  0  0  0  0  0  0  0  0  0  0  0
   -6.3120   25.8620  -29.7480 O   0  0  0  0  0  0  0  0  0  0  0  0
   -7.4320   23.5720  -31.2140 C   0  0  0  0  0  0  0  0  0  0  0  0
   -7.4860   22.2470  -31.5890 C   0  0  0  0  0  0  0  0  0  0  0  0
   -8.5720   21.4710  -31.9830 C   0  0  0  0  0  0  0  0  0  0  0  0
   -8.3280   20.1330  -32.3430 C   0  0  0  0  0  0  0  0  0  0  0  0
   -7.0160   19.6000  -32.2960 C   0  0  0  0  0  0  0  0  0  0  0  0
   -6.7600   18.1820  -32.7230 C   0  0  0  0  0  0  0  0  0  0  0  0
   -6.1110   18.1650  -34.0370 C   0  0  0  0  0  0  0  0  0  0  0  0
   -5.5990   18.1500  -35.0750 N   0  0  0  0  0  0  0  0  0  0  0  0
   -5.9390   20.4220  -31.8970 C   0  0  0  0  0  0  0  0  0  0  0  0
   -6.2130   21.7440  -31.5370 C   0  0  0  0  0  0  0  0  0  0  0  0
   -1.9413   21.4816  -26.1283 H   0  0  0  0  0  0  0  0  0  0  0  0
   -2.9256   20.9428  -27.5311 H   0  0  0  0  0  0  0  0  0  0  0  0
   -1.1473   20.6887  -27.5311 H   0  0  0  0  0  0  0  0  0  0  0  0
   -0.9825   23.5923  -26.1320 H   0  0  0  0  0  0  0  0  0  0  0  0
    0.1342   23.5141  -27.5368 H   0  0  0  0  0  0  0  0  0  0  0  0
   -1.2286   24.6843  -27.5368 H   0  0  0  0  0  0  0  0  0  0  0  0
   -2.6393   21.1400  -30.1099 H   0  0  0  0  0  0  0  0  0  0  0  0
   -4.0900   21.6508  -29.1475 H   0  0  0  0  0  0  0  0  0  0  0  0
   -3.8830   26.4480  -30.3610 H   0  0  0  0  0  0  0  0  0  0  0  0
   -3.5640   24.9100  -31.2260 H   0  0  0  0  0  0  0  0  0  0  0  0
   -8.2709   24.2798  -31.1414 H   0  0  0  0  0  0  0  0  0  0  0  0
   -9.5885   21.8903  -32.0120 H   0  0  0  0  0  0  0  0  0  0  0  0
   -9.1641   19.4943  -32.6641 H   0  0  0  0  0  0  0  0  0  0  0  0
   -6.1057   17.6921  -31.9869 H   0  0  0  0  0  0  0  0  0  0  0  0
   -7.7178   17.6447  -32.7857 H   0  0  0  0  0  0  0  0  0  0  0  0
   -4.9110   20.0315  -31.8703 H   0  0  0  0  0  0  0  0  0  0  0  0
  1  2  1  0
  2  3  1  0
  2  4  1  0
  4  5  2  0
  4  6  1  0
  6  7  1  0
  7  8  2  0
  7  9  1  0
  9 10  1  0
 10 11  1  0
 11 12  1  0
 11 13  2  0
 10 14  2  0
 14 15  1  0
 15 16  2  0
 16 17  1  0
 17 18  2  0
 18 19  1  0
 19 20  1  0
 20 21  3  0
 18 22  1  0
 22 23  2  0
 23  9  1  0
 23 15  1  0
  1 24  1  0
  1 25  1  0
  1 26  1  0
  3 27  1  0
  3 28  1  0
  3 29  1  0
  6 30  1  0
  6 31  1  0
 12 32  1  0
 12 33  1  0
 14 34  1  0
 16 35  1  0
 17 36  1  0
 19 37  1  0
 19 38  1  0
 22 39  1  0
M  END
>  <UniqueID>  (50) 
49

>  <SMILES>  (50) 
CN(C)C(=O)CC(=O)n1c(C(N)=O)cc2ccc(CC#N)cc21

>  <Energy>  (50) 
73.54025277594621

>  <Genealogy>  (50) 
CN(C)C(=O)CC(=O)n1c(C(N)=O)cc2ccc(CC#N)cc21 (3D coordinates assigned)
CN(C)C(=O)CC(=O)n1c(C(N)=O)cc2ccc(CC#N)cc21 (optimized conformer: 73.54025277594621 kcal/mol)

>  <smiles>  (50) 
CN(C)C(=O)CC(=O)n1c(C(N)=O)cc2ccc(CC#N)cc21

>  <score_type>  (50) 
oracle

>  <origin>  (50) 
adg

>  <m_score__min__energy>  (50) 
-9.0500000000000007

>  <m_primary>  (50) 
energy

$$$$
50:0
     RDKit          3D

 40 42  0  0  0  0  0  0  0  0999 V2000
   -4.4490   15.6940  -34.6150 C   0  0  0  0  0  0  0  0  0  0  0  0
   -5.4330   16.5450  -33.9570 N   0  0  0  0  0  0  0  0  0  0  0  0
   -5.2790   17.8470  -33.6600 C   0  0  0  0  0  0  0  0  0  0  0  0
   -6.4430   18.2880  -33.0590 C   0  0  0  0  0  0  0  0  0  0  0  0
   -6.7320   19.6440  -32.5360 C   0  0  0  0  0  0  0  0  0  0  0  0
   -8.0620   20.1340  -32.5110 C   0  0  0  0  0  0  0  0  0  0  0  0
   -8.3440   21.4170  -32.0160 C   0  0  0  0  0  0  0  0  0  0  0  0
   -7.2790   22.1940  -31.5670 C   0  0  0  0  0  0  0  0  0  0  0  0
   -7.2860   23.4650  -31.0460 C   0  0  0  0  0  0  0  0  0  0  0  0
   -5.9530   23.7590  -30.7860 C   0  0  0  0  0  0  0  0  0  0  0  0
   -5.5110   25.0710  -30.2760 C   0  0  0  0  0  0  0  0  0  0  0  0
   -6.1380   25.6640  -29.1360 N   0  0  0  0  0  0  0  0  0  0  0  0
   -4.5320   25.6530  -30.8200 O   0  0  0  0  0  0  0  0  0  0  0  0
   -5.1430   22.7040  -31.1030 N   0  0  0  0  0  0  0  0  0  0  0  0
   -3.7250   22.5890  -30.8470 C   0  0  0  0  0  0  0  0  0  0  0  0
   -2.8990   22.7560  -31.7860 O   0  0  0  0  0  0  0  0  0  0  0  0
   -3.2550   22.3360  -29.5480 O   0  0  0  0  0  0  0  0  0  0  0  0
   -3.5370   23.1800  -28.4350 C   0  0  0  0  0  0  0  0  0  0  0  0
   -2.5000   24.3040  -28.3740 C   0  0  0  0  0  0  0  0  0  0  0  0
   -2.3800   24.9300  -29.6270 O   0  0  0  0  0  0  0  0  0  0  0  0
   -5.9800   21.7510  -31.5920 C   0  0  0  0  0  0  0  0  0  0  0  0
   -5.6790   20.4620  -32.0620 C   0  0  0  0  0  0  0  0  0  0  0  0
   -7.2760   17.1810  -33.0410 C   0  0  0  0  0  0  0  0  0  0  0  0
   -6.6400   16.1340  -33.6010 N   0  0  0  0  0  0  0  0  0  0  0  0
   -3.8475   15.1738  -33.8550 H   0  0  0  0  0  0  0  0  0  0  0  0
   -4.9661   14.9537  -35.2432 H   0  0  0  0  0  0  0  0  0  0  0  0
   -3.7910   16.3124  -35.2432 H   0  0  0  0  0  0  0  0  0  0  0  0
   -4.3841   18.4546  -33.8601 H   0  0  0  0  0  0  0  0  0  0  0  0
   -8.8818   19.5021  -32.8835 H   0  0  0  0  0  0  0  0  0  0  0  0
   -9.3756   21.7974  -31.9837 H   0  0  0  0  0  0  0  0  0  0  0  0
   -8.1591   24.1111  -30.8720 H   0  0  0  0  0  0  0  0  0  0  0  0
   -6.8790   25.1590  -28.6050 H   0  0  0  0  0  0  0  0  0  0  0  0
   -5.7960   26.5780  -28.7650 H   0  0  0  0  0  0  0  0  0  0  0  0
   -4.5417   23.6133  -28.5482 H   0  0  0  0  0  0  0  0  0  0  0  0
   -3.4953   22.5908  -27.5071 H   0  0  0  0  0  0  0  0  0  0  0  0
   -2.8148   25.0471  -27.6265 H   0  0  0  0  0  0  0  0  0  0  0  0
   -1.5261   23.8755  -28.0950 H   0  0  0  0  0  0  0  0  0  0  0  0
   -2.8660   24.3580  -30.2770 H   0  0  0  0  0  0  0  0  0  0  0  0
   -4.6422   20.0946  -32.0616 H   0  0  0  0  0  0  0  0  0  0  0  0
   -8.2973   17.1604  -32.6330 H   0  0  0  0  0  0  0  0  0  0  0  0
  1  2  1  0
  2  3  1  0
  3  4  2  0
  4  5  1  0
  5  6  2  0
  6  7  1  0
  7  8  2  0
  8  9  1  0
  9 10  2  0
 10 11  1  0
 11 12  1  0
 11 13  2  0
 10 14  1  0
 14 15  1  0
 15 16  2  0
 15 17  1  0
 17 18  1  0
 18 19  1  0
 19 20  1  0
 14 21  1  0
 21 22  2  0
  4 23  1  0
 23 24  2  0
 24  2  1  0
 22  5  1  0
 21  8  1  0
  1 25  1  0
  1 26  1  0
  1 27  1  0
  3 28  1  0
  6 29  1  0
  7 30  1  0
  9 31  1  0
 12 32  1  0
 12 33  1  0
 18 34  1  0
 18 35  1  0
 19 36  1  0
 19 37  1  0
 20 38  1  0
 22 39  1  0
 23 40  1  0
M  END
>  <UniqueID>  (51) 
50

>  <SMILES>  (51) 
Cn1cc(-c2ccc3cc(C(N)=O)n(C(=O)OCCO)c3c2)cn1

>  <Energy>  (51) 
109.47137960780202

>  <Genealogy>  (51) 
Cn1cc(-c2ccc3cc(C(N)=O)n(C(=O)OCCO)c3c2)cn1 (3D coordinates assigned)
Cn1cc(-c2ccc3cc(C(N)=O)n(C(=O)OCCO)c3c2)cn1 (optimized conformer: 109.47137960780202 kcal/mol)

>  <smiles>  (51) 
Cn1cc(-c2ccc3cc(C(N)=O)n(C(=O)OCCO)c3c2)cn1

>  <score_type>  (51) 
oracle

>  <origin>  (51) 
adg

>  <m_score__min__energy>  (51) 
-9.9900000000000002

>  <m_primary>  (51) 
energy

$$$$
51:0
     RDKit          3D

 36 37  0  0  0  0  0  0  0  0999 V2000
   -2.9300   21.1990  -33.1930 C   0  0  0  0  0  0  0  0  0  0  0  0
   -3.7570   21.0850  -32.1160 C   0  0  0  0  0  0  0  0  0  0  0  0
   -3.9370   19.8130  -31.6650 O   0  0  0  0  0  0  0  0  0  0  0  0
   -4.2910   22.3280  -31.6370 C   0  0  0  0  0  0  0  0  0  0  0  0
   -3.3610   23.2170  -31.4370 O   0  0  0  0  0  0  0  0  0  0  0  0
   -5.6030   22.7260  -31.3480 N   0  0  0  0  0  0  0  0  0  0  0  0
   -6.1340   23.8940  -30.9700 C   0  0  0  0  0  0  0  0  0  0  0  0
   -5.5080   25.0860  -30.4090 C   0  0  0  0  0  0  0  0  0  0  0  0
   -6.1080   25.6800  -29.2440 N   0  0  0  0  0  0  0  0  0  0  0  0
   -4.4940   25.6510  -30.8380 O   0  0  0  0  0  0  0  0  0  0  0  0
   -7.5400   23.8220  -31.0060 C   0  0  0  0  0  0  0  0  0  0  0  0
   -7.8540   22.5620  -31.4140 C   0  0  0  0  0  0  0  0  0  0  0  0
   -9.0990   21.9940  -31.6060 C   0  0  0  0  0  0  0  0  0  0  0  0
   -9.2010   20.6900  -32.0290 C   0  0  0  0  0  0  0  0  0  0  0  0
   -8.0340   19.9960  -32.2440 C   0  0  0  0  0  0  0  0  0  0  0  0
   -8.1490   18.5850  -32.7000 C   0  0  0  0  0  0  0  0  0  0  0  0
   -6.8500   17.8770  -32.6210 C   0  0  0  0  0  0  0  0  0  0  0  0
   -6.2610   17.6950  -31.5380 O   0  0  0  0  0  0  0  0  0  0  0  0
   -6.2890   17.4150  -33.7850 O   0  0  0  0  0  0  0  0  0  0  0  0
   -5.7360   18.3430  -34.6890 C   0  0  0  0  0  0  0  0  0  0  0  0
   -6.7780   20.5840  -32.0450 C   0  0  0  0  0  0  0  0  0  0  0  0
   -6.6720   21.9060  -31.6170 C   0  0  0  0  0  0  0  0  0  0  0  0
   -2.7251   22.1889  -33.6268 H   0  0  0  0  0  0  0  0  0  0  0  0
   -2.4673   20.3011  -33.6286 H   0  0  0  0  0  0  0  0  0  0  0  0
   -4.7300   19.2150  -31.8390 H   0  0  0  0  0  0  0  0  0  0  0  0
   -6.1600   25.1610  -28.3560 H   0  0  0  0  0  0  0  0  0  0  0  0
   -6.4730   26.6530  -29.3760 H   0  0  0  0  0  0  0  0  0  0  0  0
   -8.2463   24.6267  -30.7537 H   0  0  0  0  0  0  0  0  0  0  0  0
  -10.0080   22.5850  -31.4205 H   0  0  0  0  0  0  0  0  0  0  0  0
  -10.1818   20.2186  -32.1898 H   0  0  0  0  0  0  0  0  0  0  0  0
   -8.8790   18.0630  -32.0639 H   0  0  0  0  0  0  0  0  0  0  0  0
   -8.4744   18.5892  -33.7508 H   0  0  0  0  0  0  0  0  0  0  0  0
   -5.2513   19.1563  -34.1290 H   0  0  0  0  0  0  0  0  0  0  0  0
   -4.9909   17.8389  -35.3220 H   0  0  0  0  0  0  0  0  0  0  0  0
   -6.5339   18.7585  -35.3220 H   0  0  0  0  0  0  0  0  0  0  0  0
   -5.8664   19.9963  -32.2284 H   0  0  0  0  0  0  0  0  0  0  0  0
  1  2  2  0
  2  3  1  0
  2  4  1  0
  4  5  2  0
  4  6  1  0
  6  7  1  0
  7  8  1  0
  8  9  1  0
  8 10  2  0
  7 11  2  0
 11 12  1  0
 12 13  2  0
 13 14  1  0
 14 15  2  0
 15 16  1  0
 16 17  1  0
 17 18  2  0
 17 19  1  0
 19 20  1  0
 15 21  1  0
 21 22  2  0
 22  6  1  0
 22 12  1  0
  1 23  1  0
  1 24  1  0
  3 25  1  0
  9 26  1  0
  9 27  1  0
 11 28  1  0
 13 29  1  0
 14 30  1  0
 16 31  1  0
 16 32  1  0
 20 33  1  0
 20 34  1  0
 20 35  1  0
 21 36  1  0
M  END
>  <smiles>  (52) 
C=C(O)C(=O)n1c(C(N)=O)cc2ccc(CC(=O)OC)cc21

>  <score_type>  (52) 
oracle

>  <origin>  (52) 
adg

>  <m_score__min__energy>  (52) 
-8.6500000000000004

>  <m_primary>  (52) 
energy

$$$$
52:0
     RDKit          3D

 43 44  0  0  0  0  0  0  0  0999 V2000
   -0.3720   18.6850  -34.7350 C   0  0  0  0  0  0  0  0  0  0  0  0
    0.0390   19.9810  -35.2880 N   0  0  0  0  0  0  0  0  0  0  0  0
    0.6420   20.0510  -36.6230 C   0  0  0  0  0  0  0  0  0  0  0  0
   -0.1250   21.1990  -34.5280 C   0  0  0  0  0  0  0  0  0  0  0  0
    0.3710   22.2740  -34.9680 O   0  0  0  0  0  0  0  0  0  0  0  0
   -0.8190   21.2030  -33.1850 C   0  0  0  0  0  0  0  0  0  0  0  0
   -2.3200   21.5030  -33.3010 C   0  0  0  0  0  0  0  0  0  0  0  0
   -3.1250   20.3070  -32.8830 C   0  0  0  0  0  0  0  0  0  0  0  0
   -2.5340   19.2270  -32.6100 O   0  0  0  0  0  0  0  0  0  0  0  0
   -4.5460   20.4030  -32.7110 N   0  0  0  0  0  0  0  0  0  0  0  0
   -5.5250   19.7400  -33.3870 C   0  0  0  0  0  0  0  0  0  0  0  0
   -5.3170   18.6560  -34.3720 C   0  0  0  0  0  0  0  0  0  0  0  0
   -4.2670   17.7000  -34.2220 N   0  0  0  0  0  0  0  0  0  0  0  0
   -6.1120   18.5460  -35.3440 O   0  0  0  0  0  0  0  0  0  0  0  0
   -6.7830   20.2040  -33.0090 C   0  0  0  0  0  0  0  0  0  0  0  0
   -6.5430   21.1730  -32.0620 C   0  0  0  0  0  0  0  0  0  0  0  0
   -7.4330   21.9770  -31.3580 C   0  0  0  0  0  0  0  0  0  0  0  0
   -6.9010   22.9220  -30.4640 C   0  0  0  0  0  0  0  0  0  0  0  0
   -5.4980   23.0590  -30.3080 C   0  0  0  0  0  0  0  0  0  0  0  0
   -4.9400   24.0580  -29.3340 C   0  0  0  0  0  0  0  0  0  0  0  0
   -3.9210   24.9190  -30.0080 C   0  0  0  0  0  0  0  0  0  0  0  0
   -4.1520   25.4010  -31.1500 O   0  0  0  0  0  0  0  0  0  0  0  0
   -2.7330   25.2340  -29.3550 O   0  0  0  0  0  0  0  0  0  0  0  0
   -4.6250   22.2190  -31.0370 C   0  0  0  0  0  0  0  0  0  0  0  0
   -5.1860   21.2740  -31.9010 C   0  0  0  0  0  0  0  0  0  0  0  0
   -0.3566   18.7337  -33.6362 H   0  0  0  0  0  0  0  0  0  0  0  0
   -1.3899   18.4465  -35.0772 H   0  0  0  0  0  0  0  0  0  0  0  0
    0.3224   17.9035  -35.0772 H   0  0  0  0  0  0  0  0  0  0  0  0
    1.7305   20.1774  -36.5275 H   0  0  0  0  0  0  0  0  0  0  0  0
    0.4274   19.1219  -37.1714 H   0  0  0  0  0  0  0  0  0  0  0  0
    0.2203   20.9062  -37.1714 H   0  0  0  0  0  0  0  0  0  0  0  0
   -0.6916   20.2148  -32.7189 H   0  0  0  0  0  0  0  0  0  0  0  0
   -0.3648   21.9985  -32.5759 H   0  0  0  0  0  0  0  0  0  0  0  0
   -2.5710   22.3543  -32.6512 H   0  0  0  0  0  0  0  0  0  0  0  0
   -2.5563   21.7449  -34.3477 H   0  0  0  0  0  0  0  0  0  0  0  0
   -4.1380   16.9500  -34.9350 H   0  0  0  0  0  0  0  0  0  0  0  0
   -3.6990   17.6470  -33.3470 H   0  0  0  0  0  0  0  0  0  0  0  0
   -7.7597   19.8675  -33.3869 H   0  0  0  0  0  0  0  0  0  0  0  0
   -8.5196   21.8764  -31.4966 H   0  0  0  0  0  0  0  0  0  0  0  0
   -7.5792   23.5614  -29.8798 H   0  0  0  0  0  0  0  0  0  0  0  0
   -5.7560   24.6900  -28.9536 H   0  0  0  0  0  0  0  0  0  0  0  0
   -4.4630   23.5208  -28.5010 H   0  0  0  0  0  0  0  0  0  0  0  0
   -3.5340   22.3067  -30.9273 H   0  0  0  0  0  0  0  0  0  0  0  0
  1  2  1  0
  2  3  1  0
  2  4  1  0
  4  5  2  0
  4  6  1  0
  6  7  1  0
  7  8  1  0
  8  9  2  0
  8 10  1  0
 10 11  1  0
 11 12  1  0
 12 13  1  0
 12 14  2  0
 11 15  2  0
 15 16  1  0
 16 17  2  0
 17 18  1  0
 18 19  2  0
 19 20  1  0
 20 21  1  0
 21 22  2  0
 21 23  1  0
 19 24  1  0
 24 25  2  0
 25 10  1  0
 25 16  1  0
  1 26  1  0
  1 27  1  0
  1 28  1  0
  3 29  1  0
  3 30  1  0
  3 31  1  0
  6 32  1  0
  6 33  1  0
  7 34  1  0
  7 35  1  0
 13 36  1  0
 13 37  1  0
 15 38  1  0
 17 39  1  0
 18 40  1  0
 20 41  1  0
 20 42  1  0
 24 43  1  0
M  CHG  1  23  -1
M  END
>  <UniqueID>  (53) 
51

>  <SMILES>  (53) 
CN(C)C(=O)CCC(=O)n1c(C(N)=O)cc2ccc(CC(=O)[O-])cc21

>  <Energy>  (53) 
76.69669745009787

>  <Genealogy>  (53) 
CN(C)C(=O)CCC(=O)n1c(C(N)=O)cc2ccc(CC(=O)[O-])cc21 (protonated)
CN(C)C(=O)CCC(=O)n1c(C(N)=O)cc2ccc(CC(=O)[O-])cc21 (3D coordinates assigned)
CN(C)C(=O)CCC(=O)n1c(C(N)=O)cc2ccc(CC(=O)[O-])cc21 (optimized conformer: 76.69669745009787 kcal/mol)

>  <smiles>  (53) 
CN(C)C(=O)CCC(=O)n1c(C(N)=O)cc2ccc(CC(=O)O)cc21

>  <score_type>  (53) 
oracle

>  <origin>  (53) 
adg

>  <m_score__min__energy>  (53) 
-10.16

>  <m_primary>  (53) 
energy

$$$$
53:0
     RDKit          3D

 45 46  0  0  0  0  0  0  0  0999 V2000
   -3.9690   25.6480  -30.8470 N   0  0  0  0  0  0  0  0  0  0  0  0
   -5.2440   25.2170  -30.3760 C   0  0  0  0  0  0  0  0  0  0  0  0
   -5.8320   25.8930  -29.4900 O   0  0  0  0  0  0  0  0  0  0  0  0
   -5.8560   23.9680  -30.8720 C   0  0  0  0  0  0  0  0  0  0  0  0
   -7.2100   23.8490  -31.1750 C   0  0  0  0  0  0  0  0  0  0  0  0
   -7.3940   22.5280  -31.5130 C   0  0  0  0  0  0  0  0  0  0  0  0
   -8.5500   21.8580  -31.9010 C   0  0  0  0  0  0  0  0  0  0  0  0
   -8.4480   20.4930  -32.2120 C   0  0  0  0  0  0  0  0  0  0  0  0
   -7.1960   19.8280  -32.1550 C   0  0  0  0  0  0  0  0  0  0  0  0
   -7.0920   18.3530  -32.4460 C   0  0  0  0  0  0  0  0  0  0  0  0
   -8.3320   17.7670  -32.2720 F   0  0  0  0  0  0  0  0  0  0  0  0
   -6.1860   17.7560  -31.5860 F   0  0  0  0  0  0  0  0  0  0  0  0
   -6.6670   18.1270  -33.7450 F   0  0  0  0  0  0  0  0  0  0  0  0
   -6.0470   20.5410  -31.7440 C   0  0  0  0  0  0  0  0  0  0  0  0
   -6.1800   21.8970  -31.4180 C   0  0  0  0  0  0  0  0  0  0  0  0
   -5.2230   22.7710  -31.0320 N   0  0  0  0  0  0  0  0  0  0  0  0
   -3.8150   22.5020  -30.9250 C   0  0  0  0  0  0  0  0  0  0  0  0
   -2.9830   23.3380  -31.3720 O   0  0  0  0  0  0  0  0  0  0  0  0
   -3.3820   21.2890  -30.3740 O   0  0  0  0  0  0  0  0  0  0  0  0
   -2.4780   21.1680  -29.3130 C   0  0  0  0  0  0  0  0  0  0  0  0
   -1.2330   21.1390  -29.5140 O   0  0  0  0  0  0  0  0  0  0  0  0
   -3.0060   21.1000  -27.9120 C   0  0  0  0  0  0  0  0  0  0  0  0
   -1.9470   20.6030  -26.9210 C   0  0  0  0  0  0  0  0  0  0  0  0
   -1.1570   21.7350  -26.3240 C   0  0  0  0  0  0  0  0  0  0  0  0
   -0.8660   21.7060  -25.0970 O   0  0  0  0  0  0  0  0  0  0  0  0
   -0.7450   22.8400  -27.1430 N   0  0  0  0  0  0  0  0  0  0  0  0
   -0.2150   24.0820  -26.5790 C   0  0  0  0  0  0  0  0  0  0  0  0
   -1.1000   25.2780  -26.9370 C   0  0  0  0  0  0  0  0  0  0  0  0
   -1.6490   25.1540  -28.3240 C   0  0  0  0  0  0  0  0  0  0  0  0
   -2.4950   24.2620  -28.5930 O   0  0  0  0  0  0  0  0  0  0  0  0
   -1.2260   26.0250  -29.3210 O   0  0  0  0  0  0  0  0  0  0  0  0
   -3.0910   25.3030  -30.4050 H   0  0  0  0  0  0  0  0  0  0  0  0
   -7.9711   24.6428  -31.1495 H   0  0  0  0  0  0  0  0  0  0  0  0
   -9.5151   22.3823  -31.9622 H   0  0  0  0  0  0  0  0  0  0  0  0
   -9.3487   19.9327  -32.5031 H   0  0  0  0  0  0  0  0  0  0  0  0
   -5.0688   20.0417  -31.6814 H   0  0  0  0  0  0  0  0  0  0  0  0
   -3.3335   22.1049  -27.6071 H   0  0  0  0  0  0  0  0  0  0  0  0
   -3.8434   20.3868  -27.8994 H   0  0  0  0  0  0  0  0  0  0  0  0
   -2.4491   20.0544  -26.1105 H   0  0  0  0  0  0  0  0  0  0  0  0
   -1.2483   19.9535  -27.4686 H   0  0  0  0  0  0  0  0  0  0  0  0
   -0.9440   22.8130  -28.1690 H   0  0  0  0  0  0  0  0  0  0  0  0
   -0.1674   23.9866  -25.4842 H   0  0  0  0  0  0  0  0  0  0  0  0
    0.7871   24.2539  -26.9989 H   0  0  0  0  0  0  0  0  0  0  0  0
   -1.9362   25.3308  -26.2243 H   0  0  0  0  0  0  0  0  0  0  0  0
   -0.4871   26.1901  -26.8870 H   0  0  0  0  0  0  0  0  0  0  0  0
  1  2  1  0
  2  3  2  0
  2  4  1  0
  4  5  2  0
  5  6  1  0
  6  7  2  0
  7  8  1  0
  8  9  2  0
  9 10  1  0
 10 11  1  0
 10 12  1  0
 10 13  1  0
  9 14  1  0
 14 15  2  0
 15 16  1  0
 16 17  1  0
 17 18  2  0
 17 19  1  0
 19 20  1  0
 20 21  2  0
 20 22  1  0
 22 23  1  0
 23 24  1  0
 24 25  2  0
 24 26  1  0
 26 27  1  0
 27 28  1  0
 28 29  1  0
 29 30  2  0
 29 31  1  0
 16  4  1  0
 15  6  1  0
  1 32  1  0
  5 33  1  0
  7 34  1  0
  8 35  1  0
 14 36  1  0
 22 37  1  0
 22 38  1  0
 23 39  1  0
 23 40  1  0
 26 41  1  0
 27 42  1  0
 27 43  1  0
 28 44  1  0
 28 45  1  0
M  CHG  2   1  -1  31  -1
M  END
>  <UniqueID>  (54) 
52

>  <SMILES>  (54) 
[NH-]C(=O)c1cc2ccc(C(F)(F)F)cc2n1C(=O)OC(=O)CCC(=O)NCCC(=O)[O-]

>  <Energy>  (54) 
74.48874914765163

>  <Genealogy>  (54) 
[NH-]C(=O)c1cc2ccc(C(F)(F)F)cc2n1C(=O)OC(=O)CCC(=O)NCCC(=O)[O-] (protonated)
[NH-]C(=O)c1cc2ccc(C(F)(F)F)cc2n1C(=O)OC(=O)CCC(=O)NCCC(=O)[O-] (3D coordinates assigned)
[NH-]C(=O)c1cc2ccc(C(F)(F)F)cc2n1C(=O)OC(=O)CCC(=O)NCCC(=O)[O-] (optimized conformer: 74.48874914765163 kcal/mol)

>  <smiles>  (54) 
NC(=O)c1cc2ccc(C(F)(F)F)cc2n1C(=O)OC(=O)CCC(=O)NCCC(=O)O

>  <score_type>  (54) 
oracle

>  <origin>  (54) 
adg

>  <m_score__min__energy>  (54) 
-12.26

>  <m_primary>  (54) 
energy

$$$$
54:0
     RDKit          3D

 48 49  0  0  0  0  0  0  0  0999 V2000
   -1.6920   22.3570  -30.5990 C   0  0  0  0  0  0  0  0  0  0  0  0
   -1.3140   21.0800  -29.8470 C   0  0  0  0  0  0  0  0  0  0  0  0
   -2.3520   20.7650  -28.7730 C   0  0  0  0  0  0  0  0  0  0  0  0
   -1.2360   19.9790  -30.7540 O   0  0  0  0  0  0  0  0  0  0  0  0
   -0.5660   20.0300  -31.9800 C   0  0  0  0  0  0  0  0  0  0  0  0
    0.4770   20.7250  -32.1180 O   0  0  0  0  0  0  0  0  0  0  0  0
   -1.0890   19.2430  -33.1350 C   0  0  0  0  0  0  0  0  0  0  0  0
   -2.5140   19.2200  -33.1180 O   0  0  0  0  0  0  0  0  0  0  0  0
   -3.3040   20.3750  -33.1800 C   0  0  0  0  0  0  0  0  0  0  0  0
   -2.7700   21.5030  -33.3620 O   0  0  0  0  0  0  0  0  0  0  0  0
   -4.7260   20.2730  -33.0080 N   0  0  0  0  0  0  0  0  0  0  0  0
   -5.5830   19.4190  -33.6380 C   0  0  0  0  0  0  0  0  0  0  0  0
   -5.1870   18.3150  -34.5430 C   0  0  0  0  0  0  0  0  0  0  0  0
   -4.1590   17.3980  -34.1670 N   0  0  0  0  0  0  0  0  0  0  0  0
   -5.7370   18.1930  -35.6690 O   0  0  0  0  0  0  0  0  0  0  0  0
   -6.8970   19.6720  -33.2480 C   0  0  0  0  0  0  0  0  0  0  0  0
   -6.8170   20.7140  -32.3530 C   0  0  0  0  0  0  0  0  0  0  0  0
   -7.8230   21.3760  -31.6620 C   0  0  0  0  0  0  0  0  0  0  0  0
   -7.4570   22.4400  -30.8210 C   0  0  0  0  0  0  0  0  0  0  0  0
   -6.0970   22.8370  -30.6870 C   0  0  0  0  0  0  0  0  0  0  0  0
   -5.7240   23.9400  -29.8210 N   0  0  0  0  0  0  0  0  0  0  0  0
   -6.6160   25.0970  -29.6730 C   0  0  0  0  0  0  0  0  0  0  0  0
   -4.4400   23.9510  -29.1040 C   0  0  0  0  0  0  0  0  0  0  0  0
   -3.4950   24.9360  -29.7190 C   0  0  0  0  0  0  0  0  0  0  0  0
   -2.3470   25.1100  -29.2290 O   0  0  0  0  0  0  0  0  0  0  0  0
   -3.8640   25.6300  -30.8660 O   0  0  0  0  0  0  0  0  0  0  0  0
   -5.1060   22.1290  -31.4150 C   0  0  0  0  0  0  0  0  0  0  0  0
   -5.4990   21.0600  -32.2270 C   0  0  0  0  0  0  0  0  0  0  0  0
   -1.9274   23.1521  -29.8762 H   0  0  0  0  0  0  0  0  0  0  0  0
   -0.8490   22.6736  -31.2308 H   0  0  0  0  0  0  0  0  0  0  0  0
   -2.5715   22.1638  -31.2308 H   0  0  0  0  0  0  0  0  0  0  0  0
   -0.3346   21.2395  -29.3722 H   0  0  0  0  0  0  0  0  0  0  0  0
   -1.9031   20.9012  -27.7780 H   0  0  0  0  0  0  0  0  0  0  0  0
   -3.2113   21.4428  -28.8835 H   0  0  0  0  0  0  0  0  0  0  0  0
   -2.6896   19.7239  -28.8835 H   0  0  0  0  0  0  0  0  0  0  0  0
   -0.7454   19.7041  -34.0727 H   0  0  0  0  0  0  0  0  0  0  0  0
   -0.7153   18.2111  -33.0612 H   0  0  0  0  0  0  0  0  0  0  0  0
   -3.8730   16.6350  -34.8200 H   0  0  0  0  0  0  0  0  0  0  0  0
   -3.7110   17.4390  -33.2250 H   0  0  0  0  0  0  0  0  0  0  0  0
   -7.8049   19.1497  -33.5842 H   0  0  0  0  0  0  0  0  0  0  0  0
   -8.8758   21.0761  -31.7699 H   0  0  0  0  0  0  0  0  0  0  0  0
   -8.2347   22.9753  -30.2565 H   0  0  0  0  0  0  0  0  0  0  0  0
   -6.7749   25.3031  -28.6042 H   0  0  0  0  0  0  0  0  0  0  0  0
   -6.1594   25.9757  -30.1519 H   0  0  0  0  0  0  0  0  0  0  0  0
   -7.5819   24.8789  -30.1519 H   0  0  0  0  0  0  0  0  0  0  0  0
   -4.6159   24.2275  -28.0539 H   0  0  0  0  0  0  0  0  0  0  0  0
   -3.9931   22.9478  -29.1666 H   0  0  0  0  0  0  0  0  0  0  0  0
   -4.0466   22.4159  -31.3420 H   0  0  0  0  0  0  0  0  0  0  0  0
  1  2  1  0
  2  3  1  0
  2  4  1  0
  4  5  1  0
  5  6  2  0
  5  7  1  0
  7  8  1  0
  8  9  1  0
  9 10  2  0
  9 11  1  0
 11 12  1  0
 12 13  1  0
 13 14  1  0
 13 15  2  0
 12 16  2  0
 16 17  1  0
 17 18  2  0
 18 19  1  0
 19 20  2  0
 20 21  1  0
 21 22  1  0
 21 23  1  0
 23 24  1  0
 24 25  2  0
 24 26  1  0
 20 27  1  0
 27 28  2  0
 28 11  1  0
 28 17  1  0
  1 29  1  0
  1 30  1  0
  1 31  1  0
  2 32  1  0
  3 33  1  0
  3 34  1  0
  3 35  1  0
  7 36  1  0
  7 37  1  0
 14 38  1  0
 14 39  1  0
 16 40  1  0
 18 41  1  0
 19 42  1  0
 22 43  1  0
 22 44  1  0
 22 45  1  0
 23 46  1  0
 23 47  1  0
 27 48  1  0
M  CHG  1  26  -1
M  END
>  <UniqueID>  (55) 
53

>  <SMILES>  (55) 
CC(C)OC(=O)COC(=O)n1c(C(N)=O)cc2ccc(N(C)CC(=O)[O-])cc21

>  <Energy>  (55) 
78.75798954387591

>  <Genealogy>  (55) 
CC(C)OC(=O)COC(=O)n1c(C(N)=O)cc2ccc(N(C)CC(=O)[O-])cc21 (protonated)
CC(C)OC(=O)COC(=O)n1c(C(N)=O)cc2ccc(N(C)CC(=O)[O-])cc21 (3D coordinates assigned)
CC(C)OC(=O)COC(=O)n1c(C(N)=O)cc2ccc(N(C)CC(=O)[O-])cc21 (optimized conformer: 78.75798954387591 kcal/mol)

>  <smiles>  (55) 
CC(C)OC(=O)COC(=O)n1c(C(N)=O)cc2ccc(N(C)CC(=O)O)cc21

>  <score_type>  (55) 
oracle

>  <origin>  (55) 
adg

>  <m_score__min__energy>  (55) 
-9.7200000000000006

>  <m_primary>  (55) 
energy

$$$$
55:0
     RDKit          3D

 39 40  0  0  0  0  0  0  0  0999 V2000
   -1.6230   22.6440  -26.8360 C   0  0  0  0  0  0  0  0  0  0  0  0
   -1.9370   23.9470  -27.4350 N   0  0  0  0  0  0  0  0  0  0  0  0
   -2.0960   25.1290  -26.5830 C   0  0  0  0  0  0  0  0  0  0  0  0
   -2.0890   24.0880  -28.8650 C   0  0  0  0  0  0  0  0  0  0  0  0
   -2.3200   25.2250  -29.3610 O   0  0  0  0  0  0  0  0  0  0  0  0
   -2.0030   22.9070  -29.7940 C   0  0  0  0  0  0  0  0  0  0  0  0
   -3.3020   22.3840  -30.0620 O   0  0  0  0  0  0  0  0  0  0  0  0
   -4.0050   22.6360  -31.2450 C   0  0  0  0  0  0  0  0  0  0  0  0
   -3.3880   22.7370  -32.3420 O   0  0  0  0  0  0  0  0  0  0  0  0
   -5.4340   22.7840  -31.2060 N   0  0  0  0  0  0  0  0  0  0  0  0
   -6.1370   23.9150  -30.9190 C   0  0  0  0  0  0  0  0  0  0  0  0
   -5.5700   25.1810  -30.4140 C   0  0  0  0  0  0  0  0  0  0  0  0
   -4.2340   25.5730  -30.7310 N   0  0  0  0  0  0  0  0  0  0  0  0
   -6.2600   25.9060  -29.6470 O   0  0  0  0  0  0  0  0  0  0  0  0
   -7.4990   23.7130  -31.1210 C   0  0  0  0  0  0  0  0  0  0  0  0
   -7.6140   22.4060  -31.5360 C   0  0  0  0  0  0  0  0  0  0  0  0
   -8.7450   21.6810  -31.8980 C   0  0  0  0  0  0  0  0  0  0  0  0
   -8.5680   20.3570  -32.3310 C   0  0  0  0  0  0  0  0  0  0  0  0
   -7.2720   19.7880  -32.4030 C   0  0  0  0  0  0  0  0  0  0  0  0
   -7.1040   18.3770  -32.8900 C   0  0  0  0  0  0  0  0  0  0  0  0
   -8.0590   17.5660  -32.3050 F   0  0  0  0  0  0  0  0  0  0  0  0
   -5.8450   17.9140  -32.5540 F   0  0  0  0  0  0  0  0  0  0  0  0
   -6.1460   20.5560  -32.0310 C   0  0  0  0  0  0  0  0  0  0  0  0
   -6.3540   21.8670  -31.5820 C   0  0  0  0  0  0  0  0  0  0  0  0
   -1.6437   22.7299  -25.7396 H   0  0  0  0  0  0  0  0  0  0  0  0
   -2.3682   21.9025  -27.1598 H   0  0  0  0  0  0  0  0  0  0  0  0
   -0.6219   22.3233  -27.1598 H   0  0  0  0  0  0  0  0  0  0  0  0
   -2.0554   24.8272  -25.5260 H   0  0  0  0  0  0  0  0  0  0  0  0
   -1.2858   25.8432  -26.7918 H   0  0  0  0  0  0  0  0  0  0  0  0
   -3.0661   25.6037  -26.7918 H   0  0  0  0  0  0  0  0  0  0  0  0
   -1.5387   23.2238  -30.7395 H   0  0  0  0  0  0  0  0  0  0  0  0
   -1.3967   22.1233  -29.3163 H   0  0  0  0  0  0  0  0  0  0  0  0
   -3.5820   24.9220  -31.2230 H   0  0  0  0  0  0  0  0  0  0  0  0
   -3.8640   26.4920  -30.4000 H   0  0  0  0  0  0  0  0  0  0  0  0
   -8.3103   24.4422  -30.9792 H   0  0  0  0  0  0  0  0  0  0  0  0
   -9.7473   22.1313  -31.8466 H   0  0  0  0  0  0  0  0  0  0  0  0
   -9.4436   19.7557  -32.6170 H   0  0  0  0  0  0  0  0  0  0  0  0
   -7.2232   18.3571  -33.9833 H   0  0  0  0  0  0  0  0  0  0  0  0
   -5.1315   20.1354  -32.0923 H   0  0  0  0  0  0  0  0  0  0  0  0
  1  2  1  0
  2  3  1  0
  2  4  1  0
  4  5  2  0
  4  6  1  0
  6  7  1  0
  7  8  1  0
  8  9  2  0
  8 10  1  0
 10 11  1  0
 11 12  1  0
 12 13  1  0
 12 14  2  0
 11 15  2  0
 15 16  1  0
 16 17  2  0
 17 18  1  0
 18 19  2  0
 19 20  1  0
 20 21  1  0
 20 22  1  0
 19 23  1  0
 23 24  2  0
 24 10  1  0
 24 16  1  0
  1 25  1  0
  1 26  1  0
  1 27  1  0
  3 28  1  0
  3 29  1  0
  3 30  1  0
  6 31  1  0
  6 32  1  0
 13 33  1  0
 13 34  1  0
 15 35  1  0
 17 36  1  0
 18 37  1  0
 20 38  1  0
 23 39  1  0
M  END
>  <UniqueID>  (56) 
54

>  <SMILES>  (56) 
CN(C)C(=O)COC(=O)n1c(C(N)=O)cc2ccc(C(F)F)cc21

>  <Energy>  (56) 
72.88758037945357

>  <Genealogy>  (56) 
CN(C)C(=O)COC(=O)n1c(C(N)=O)cc2ccc(C(F)F)cc21 (3D coordinates assigned)
CN(C)C(=O)COC(=O)n1c(C(N)=O)cc2ccc(C(F)F)cc21 (optimized conformer: 72.88758037945357 kcal/mol)

>  <smiles>  (56) 
CN(C)C(=O)COC(=O)n1c(C(N)=O)cc2ccc(C(F)F)cc21

>  <score_type>  (56) 
oracle

>  <origin>  (56) 
adg

>  <m_score__min__energy>  (56) 
-8.6799999999999997

>  <m_primary>  (56) 
energy

$$$$
56:0
     RDKit          3D

 47 49  0  0  0  0  0  0  0  0999 V2000
    1.0980   24.3560  -27.0040 C   0  0  0  0  0  0  0  0  0  0  0  0
    0.4860   24.8220  -28.2010 O   0  0  0  0  0  0  0  0  0  0  0  0
   -0.8000   24.4330  -28.5880 C   0  0  0  0  0  0  0  0  0  0  0  0
   -1.5760   25.2490  -29.1550 O   0  0  0  0  0  0  0  0  0  0  0  0
   -1.2730   23.0510  -28.2800 C   0  0  0  0  0  0  0  0  0  0  0  0
   -2.6300   22.8870  -28.7830 N   0  0  0  0  0  0  0  0  0  0  0  0
   -3.0350   22.0090  -29.8430 C   0  0  0  0  0  0  0  0  0  0  0  0
   -2.8650   20.7710  -29.6890 O   0  0  0  0  0  0  0  0  0  0  0  0
   -3.6430   22.4930  -31.1060 C   0  0  0  0  0  0  0  0  0  0  0  0
   -2.9270   22.7080  -32.1190 O   0  0  0  0  0  0  0  0  0  0  0  0
   -5.0650   22.6640  -31.2050 N   0  0  0  0  0  0  0  0  0  0  0  0
   -5.8080   23.7450  -30.8330 C   0  0  0  0  0  0  0  0  0  0  0  0
   -5.2590   25.0320  -30.3500 C   0  0  0  0  0  0  0  0  0  0  0  0
   -3.8610   25.1840  -30.0940 N   0  0  0  0  0  0  0  0  0  0  0  0
   -6.0280   26.0080  -30.1380 O   0  0  0  0  0  0  0  0  0  0  0  0
   -7.1630   23.5030  -31.0560 C   0  0  0  0  0  0  0  0  0  0  0  0
   -7.2240   22.2340  -31.5880 C   0  0  0  0  0  0  0  0  0  0  0  0
   -8.3240   21.4850  -31.9990 C   0  0  0  0  0  0  0  0  0  0  0  0
   -8.0890   20.1930  -32.5000 C   0  0  0  0  0  0  0  0  0  0  0  0
   -6.7720   19.6810  -32.5780 C   0  0  0  0  0  0  0  0  0  0  0  0
   -6.5470   18.3640  -33.0830 N   0  0  0  0  0  0  0  0  0  0  0  0
   -6.2710   17.7280  -34.3840 C   0  0  0  0  0  0  0  0  0  0  0  0
   -6.2020   16.3250  -33.8630 C   0  0  0  0  0  0  0  0  0  0  0  0
   -4.8960   15.7880  -33.9010 O   0  0  0  0  0  0  0  0  0  0  0  0
   -4.1900   16.2150  -32.7590 C   0  0  0  0  0  0  0  0  0  0  0  0
   -6.4830   16.9890  -32.5530 C   0  0  0  0  0  0  0  0  0  0  0  0
   -5.6820   20.4670  -32.1540 C   0  0  0  0  0  0  0  0  0  0  0  0
   -5.9450   21.7520  -31.6700 C   0  0  0  0  0  0  0  0  0  0  0  0
    0.5616   24.7645  -26.1349 H   0  0  0  0  0  0  0  0  0  0  0  0
    1.0587   23.2571  -26.9759 H   0  0  0  0  0  0  0  0  0  0  0  0
    2.1469   24.6862  -26.9759 H   0  0  0  0  0  0  0  0  0  0  0  0
   -0.6101   22.3187  -28.7639 H   0  0  0  0  0  0  0  0  0  0  0  0
   -1.2597   22.8893  -27.1920 H   0  0  0  0  0  0  0  0  0  0  0  0
   -3.1820   24.4230  -30.3170 H   0  0  0  0  0  0  0  0  0  0  0  0
   -3.4920   26.0850  -29.7190 H   0  0  0  0  0  0  0  0  0  0  0  0
   -8.0043   24.1813  -30.8507 H   0  0  0  0  0  0  0  0  0  0  0  0
   -9.3440   21.8916  -31.9336 H   0  0  0  0  0  0  0  0  0  0  0  0
   -8.9354   19.5750  -32.8341 H   0  0  0  0  0  0  0  0  0  0  0  0
   -7.0859   17.8723  -35.1086 H   0  0  0  0  0  0  0  0  0  0  0  0
   -5.4012   18.0967  -34.9476 H   0  0  0  0  0  0  0  0  0  0  0  0
   -6.7797   15.4881  -34.2825 H   0  0  0  0  0  0  0  0  0  0  0  0
   -4.7256   15.8911  -31.8544 H   0  0  0  0  0  0  0  0  0  0  0  0
   -3.1818   15.7751  -32.7655 H   0  0  0  0  0  0  0  0  0  0  0  0
   -4.1114   17.3122  -32.7655 H   0  0  0  0  0  0  0  0  0  0  0  0
   -7.4336   16.6616  -32.1067 H   0  0  0  0  0  0  0  0  0  0  0  0
   -5.7728   16.8010  -31.7343 H   0  0  0  0  0  0  0  0  0  0  0  0
   -4.6533   20.0805  -32.2025 H   0  0  0  0  0  0  0  0  0  0  0  0
  1  2  1  0
  2  3  1  0
  3  4  2  0
  3  5  1  0
  5  6  1  0
  6  7  1  0
  7  8  2  0
  7  9  1  0
  9 10  2  0
  9 11  1  0
 11 12  1  0
 12 13  1  0
 13 14  1  0
 13 15  2  0
 12 16  2  0
 16 17  1  0
 17 18  2  0
 18 19  1  0
 19 20  2  0
 20 21  1  0
 21 22  1  0
 22 23  1  0
 23 24  1  0
 24 25  1  0
 23 26  1  0
 20 27  1  0
 27 28  2  0
 28 11  1  0
 28 17  1  0
 26 21  1  0
  1 29  1  0
  1 30  1  0
  1 31  1  0
  5 32  1  0
  5 33  1  0
 14 34  1  0
 14 35  1  0
 16 36  1  0
 18 37  1  0
 19 38  1  0
 22 39  1  0
 22 40  1  0
 23 41  1  0
 25 42  1  0
 25 43  1  0
 25 44  1  0
 26 45  1  0
 26 46  1  0
 27 47  1  0
M  CHG  1   6  -1
M  END
>  <UniqueID>  (57) 
55

>  <SMILES>  (57) 
COC(=O)C[N-]C(=O)C(=O)n1c(C(N)=O)cc2ccc(N3CC(OC)C3)cc21

>  <Energy>  (57) 
128.25135877648106

>  <Genealogy>  (57) 
COC(=O)C[N-]C(=O)C(=O)n1c(C(N)=O)cc2ccc(N3CC(OC)C3)cc21 (protonated)
COC(=O)C[N-]C(=O)C(=O)n1c(C(N)=O)cc2ccc(N3CC(OC)C3)cc21 (3D coordinates assigned)
COC(=O)C[N-]C(=O)C(=O)n1c(C(N)=O)cc2ccc(N3CC(OC)C3)cc21 (nonaromatic ring conformer: 128.25135877648106 kcal/mol)

>  <smiles>  (57) 
COC(=O)CNC(=O)C(=O)n1c(C(N)=O)cc2ccc(N3CC(OC)C3)cc21

>  <score_type>  (57) 
oracle

>  <origin>  (57) 
adg

>  <m_score__min__energy>  (57) 
-10.17

>  <m_primary>  (57) 
energy

$$$$
57:0
     RDKit          3D

 39 41  0  0  0  0  0  0  0  0999 V2000
   -3.7160   15.6090  -33.2050 C   0  0  0  0  0  0  0  0  0  0  0  0
   -4.9330   16.4660  -33.2800 C   0  0  0  0  0  0  0  0  0  0  0  0
   -4.9840   17.7330  -32.8170 N   0  0  0  0  0  0  0  0  0  0  0  0
   -6.2260   18.2810  -32.9380 C   0  0  0  0  0  0  0  0  0  0  0  0
   -6.5060   19.6700  -32.4910 C   0  0  0  0  0  0  0  0  0  0  0  0
   -7.8470   20.1360  -32.4430 C   0  0  0  0  0  0  0  0  0  0  0  0
   -8.1440   21.4400  -32.0130 C   0  0  0  0  0  0  0  0  0  0  0  0
   -7.0860   22.2610  -31.6410 C   0  0  0  0  0  0  0  0  0  0  0  0
   -7.0950   23.5500  -31.1620 C   0  0  0  0  0  0  0  0  0  0  0  0
   -5.7580   23.8710  -30.9380 C   0  0  0  0  0  0  0  0  0  0  0  0
   -5.3080   25.2070  -30.4920 C   0  0  0  0  0  0  0  0  0  0  0  0
   -4.0070   25.6700  -30.8460 N   0  0  0  0  0  0  0  0  0  0  0  0
   -6.0460   25.9290  -29.7720 O   0  0  0  0  0  0  0  0  0  0  0  0
   -4.9540   22.8160  -31.2590 N   0  0  0  0  0  0  0  0  0  0  0  0
   -3.5260   22.7200  -31.1250 C   0  0  0  0  0  0  0  0  0  0  0  0
   -2.8330   22.2760  -32.0800 O   0  0  0  0  0  0  0  0  0  0  0  0
   -2.9110   23.1570  -29.9460 O   0  0  0  0  0  0  0  0  0  0  0  0
   -1.8530   22.4540  -29.2930 C   0  0  0  0  0  0  0  0  0  0  0  0
   -0.5230   23.1960  -29.4490 C   0  0  0  0  0  0  0  0  0  0  0  0
   -0.5940   24.5850  -28.8970 C   0  0  0  0  0  0  0  0  0  0  0  0
    0.2590   24.9790  -28.0600 O   0  0  0  0  0  0  0  0  0  0  0  0
   -1.5910   25.4530  -29.3250 O   0  0  0  0  0  0  0  0  0  0  0  0
   -5.7830   21.8390  -31.6900 C   0  0  0  0  0  0  0  0  0  0  0  0
   -5.4590   20.5390  -32.0940 C   0  0  0  0  0  0  0  0  0  0  0  0
   -7.1820   17.4220  -33.4890 C   0  0  0  0  0  0  0  0  0  0  0  0
   -6.4350   15.9530  -33.8250 S   0  0  0  0  0  0  0  0  0  0  0  0
   -3.4593   15.4282  -32.1508 H   0  0  0  0  0  0  0  0  0  0  0  0
   -3.9124   14.6488  -33.7044 H   0  0  0  0  0  0  0  0  0  0  0  0
   -2.8781   16.1175  -33.7044 H   0  0  0  0  0  0  0  0  0  0  0  0
   -8.6648   19.4661  -32.7469 H   0  0  0  0  0  0  0  0  0  0  0  0
   -9.1825   21.8004  -31.9720 H   0  0  0  0  0  0  0  0  0  0  0  0
   -7.9721   24.1917  -30.9918 H   0  0  0  0  0  0  0  0  0  0  0  0
   -3.1530   25.2450  -30.4230 H   0  0  0  0  0  0  0  0  0  0  0  0
   -2.0897   22.3611  -28.2228 H   0  0  0  0  0  0  0  0  0  0  0  0
   -1.7559   21.4600  -29.7540 H   0  0  0  0  0  0  0  0  0  0  0  0
    0.2602   22.6395  -28.9134 H   0  0  0  0  0  0  0  0  0  0  0  0
   -0.2941   23.2658  -30.5227 H   0  0  0  0  0  0  0  0  0  0  0  0
   -4.4131   20.1985  -32.1033 H   0  0  0  0  0  0  0  0  0  0  0  0
   -8.2393   17.6649  -33.6711 H   0  0  0  0  0  0  0  0  0  0  0  0
  1  2  1  0
  2  3  2  0
  3  4  1  0
  4  5  1  0
  5  6  2  0
  6  7  1  0
  7  8  2  0
  8  9  1  0
  9 10  2  0
 10 11  1  0
 11 12  1  0
 11 13  2  0
 10 14  1  0
 14 15  1  0
 15 16  2  0
 15 17  1  0
 17 18  1  0
 18 19  1  0
 19 20  1  0
 20 21  2  0
 20 22  1  0
 14 23  1  0
 23 24  2  0
  4 25  2  0
 25 26  1  0
 26  2  1  0
 24  5  1  0
 23  8  1  0
  1 27  1  0
  1 28  1  0
  1 29  1  0
  6 30  1  0
  7 31  1  0
  9 32  1  0
 12 33  1  0
 18 34  1  0
 18 35  1  0
 19 36  1  0
 19 37  1  0
 24 38  1  0
 25 39  1  0
M  CHG  2  12  -1  22  -1
M  END
>  <UniqueID>  (58) 
56

>  <SMILES>  (58) 
Cc1nc(-c2ccc3cc(C([NH-])=O)n(C(=O)OCCC(=O)[O-])c3c2)cs1

>  <Energy>  (58) 
106.68791096428994

>  <Genealogy>  (58) 
Cc1nc(-c2ccc3cc(C([NH-])=O)n(C(=O)OCCC(=O)[O-])c3c2)cs1 (protonated)
Cc1nc(-c2ccc3cc(C([NH-])=O)n(C(=O)OCCC(=O)[O-])c3c2)cs1 (3D coordinates assigned)
Cc1nc(-c2ccc3cc(C([NH-])=O)n(C(=O)OCCC(=O)[O-])c3c2)cs1 (optimized conformer: 106.68791096428994 kcal/mol)

>  <smiles>  (58) 
Cc1nc(-c2ccc3cc(C(N)=O)n(C(=O)OCCC(=O)O)c3c2)cs1

>  <score_type>  (58) 
oracle

>  <origin>  (58) 
adg

>  <m_score__min__energy>  (58) 
-13.539999999999999

>  <m_primary>  (58) 
energy

$$$$
58:0
     RDKit          3D

 29 30  0  0  0  0  0  0  0  0999 V2000
   -4.1940   25.5100  -30.6870 N   0  0  0  0  0  0  0  0  0  0  0  0
   -5.5020   25.0280  -30.3760 C   0  0  0  0  0  0  0  0  0  0  0  0
   -6.2190   25.6720  -29.5650 O   0  0  0  0  0  0  0  0  0  0  0  0
   -6.0030   23.7580  -30.9370 C   0  0  0  0  0  0  0  0  0  0  0  0
   -7.3560   23.4710  -31.0920 C   0  0  0  0  0  0  0  0  0  0  0  0
   -7.4010   22.1850  -31.5800 C   0  0  0  0  0  0  0  0  0  0  0  0
   -8.4960   21.4040  -31.9380 C   0  0  0  0  0  0  0  0  0  0  0  0
   -8.2500   20.1230  -32.4570 C   0  0  0  0  0  0  0  0  0  0  0  0
   -6.9230   19.6490  -32.6070 C   0  0  0  0  0  0  0  0  0  0  0  0
   -6.6730   18.2990  -33.2120 C   0  0  0  0  0  0  0  0  0  0  0  0
   -7.5640   17.3850  -32.6840 F   0  0  0  0  0  0  0  0  0  0  0  0
   -5.8360   20.4760  -32.2510 C   0  0  0  0  0  0  0  0  0  0  0  0
   -6.1100   21.7410  -31.7160 C   0  0  0  0  0  0  0  0  0  0  0  0
   -5.2380   22.6990  -31.3260 N   0  0  0  0  0  0  0  0  0  0  0  0
   -3.8040   22.6560  -31.4300 C   0  0  0  0  0  0  0  0  0  0  0  0
   -3.2560   22.0350  -32.3820 O   0  0  0  0  0  0  0  0  0  0  0  0
   -3.0200   23.3040  -30.4720 O   0  0  0  0  0  0  0  0  0  0  0  0
   -2.6010   22.6750  -29.2670 C   0  0  0  0  0  0  0  0  0  0  0  0
   -2.7790   24.0630  -27.6600 I   0  0  0  0  0  0  0  0  0  0  0  0
   -3.8730   26.4310  -30.3150 H   0  0  0  0  0  0  0  0  0  0  0  0
   -3.5150   24.9220  -31.2190 H   0  0  0  0  0  0  0  0  0  0  0  0
   -8.2077   24.1312  -30.8715 H   0  0  0  0  0  0  0  0  0  0  0  0
   -9.5231   21.7791  -31.8179 H   0  0  0  0  0  0  0  0  0  0  0  0
   -9.0945   19.4818  -32.7497 H   0  0  0  0  0  0  0  0  0  0  0  0
   -6.8084   18.3551  -34.3022 H   0  0  0  0  0  0  0  0  0  0  0  0
   -5.6446   17.9809  -32.9858 H   0  0  0  0  0  0  0  0  0  0  0  0
   -4.7994   20.1354  -32.3903 H   0  0  0  0  0  0  0  0  0  0  0  0
   -3.2353   21.7984  -29.0689 H   0  0  0  0  0  0  0  0  0  0  0  0
   -1.5545   22.3498  -29.3624 H   0  0  0  0  0  0  0  0  0  0  0  0
  1  2  1  0
  2  3  2  0
  2  4  1  0
  4  5  2  0
  5  6  1  0
  6  7  2  0
  7  8  1  0
  8  9  2  0
  9 10  1  0
 10 11  1  0
  9 12  1  0
 12 13  2  0
 13 14  1  0
 14 15  1  0
 15 16  2  0
 15 17  1  0
 17 18  1  0
 18 19  1  0
 14  4  1  0
 13  6  1  0
  1 20  1  0
  1 21  1  0
  5 22  1  0
  7 23  1  0
  8 24  1  0
 10 25  1  0
 10 26  1  0
 12 27  1  0
 18 28  1  0
 18 29  1  0
M  END
>  <UniqueID>  (59) 
57

>  <SMILES>  (59) 
NC(=O)c1cc2ccc(CF)cc2n1C(=O)OCI

>  <Energy>  (59) 
65.1954116404626

>  <Genealogy>  (59) 
NC(=O)c1cc2ccc(CF)cc2n1C(=O)OCI (3D coordinates assigned)
NC(=O)c1cc2ccc(CF)cc2n1C(=O)OCI (optimized conformer: 65.1954116404626 kcal/mol)

>  <smiles>  (59) 
NC(=O)c1cc2ccc(CF)cc2n1C(=O)OCI

>  <score_type>  (59) 
oracle

>  <origin>  (59) 
adg

>  <m_score__min__energy>  (59) 
-8.0999999999999996

>  <m_primary>  (59) 
energy

$$$$
59:0
     RDKit          3D

 41 43  0  0  0  0  0  0  0  0999 V2000
   -3.8750   25.3780  -30.5220 N   0  0  0  0  0  0  0  0  0  0  0  0
   -4.6880   24.2070  -30.5100 C   0  0  0  0  0  0  0  0  0  0  0  0
   -5.7700   24.2170  -29.8640 O   0  0  0  0  0  0  0  0  0  0  0  0
   -4.2750   22.9800  -31.2240 C   0  0  0  0  0  0  0  0  0  0  0  0
   -5.1110   22.2740  -32.0900 C   0  0  0  0  0  0  0  0  0  0  0  0
   -4.3730   21.1920  -32.5110 C   0  0  0  0  0  0  0  0  0  0  0  0
   -4.7090   20.1600  -33.3850 C   0  0  0  0  0  0  0  0  0  0  0  0
   -3.7360   19.1820  -33.6530 C   0  0  0  0  0  0  0  0  0  0  0  0
   -2.4480   19.2630  -33.0660 C   0  0  0  0  0  0  0  0  0  0  0  0
   -1.4220   18.1970  -33.3330 C   0  0  0  0  0  0  0  0  0  0  0  0
   -0.5380   18.6090  -34.4790 C   0  0  0  0  0  0  0  0  0  0  0  0
   -0.2120   17.6950  -35.4920 C   0  0  0  0  0  0  0  0  0  0  0  0
    0.5480   18.0850  -36.5490 N   0  0  0  0  0  0  0  0  0  0  0  0
    0.9980   19.3620  -36.6740 C   0  0  0  0  0  0  0  0  0  0  0  0
    0.6820   20.3250  -35.7000 C   0  0  0  0  0  0  0  0  0  0  0  0
    1.1330   21.7240  -35.8460 C   0  0  0  0  0  0  0  0  0  0  0  0
    0.6540   22.6290  -35.1140 O   0  0  0  0  0  0  0  0  0  0  0  0
    2.1060   22.0560  -36.7830 O   0  0  0  0  0  0  0  0  0  0  0  0
   -0.0900   19.9320  -34.5950 C   0  0  0  0  0  0  0  0  0  0  0  0
   -2.1470   20.3230  -32.1790 C   0  0  0  0  0  0  0  0  0  0  0  0
   -3.1430   21.2670  -31.9120 C   0  0  0  0  0  0  0  0  0  0  0  0
   -3.0700   22.3550  -31.1140 N   0  0  0  0  0  0  0  0  0  0  0  0
   -1.9210   22.7770  -30.3630 C   0  0  0  0  0  0  0  0  0  0  0  0
   -0.7650   22.5670  -30.8200 O   0  0  0  0  0  0  0  0  0  0  0  0
   -2.0830   23.4550  -29.0320 C   0  0  0  0  0  0  0  0  0  0  0  0
   -1.1110   24.5840  -28.9090 C   0  0  0  0  0  0  0  0  0  0  0  0
    0.1170   24.3490  -28.7440 O   0  0  0  0  0  0  0  0  0  0  0  0
   -1.5590   25.8980  -28.9690 O   0  0  0  0  0  0  0  0  0  0  0  0
   -2.8340   25.3070  -30.5490 H   0  0  0  0  0  0  0  0  0  0  0  0
   -6.1422   22.5288  -32.3757 H   0  0  0  0  0  0  0  0  0  0  0  0
   -5.7045   20.1123  -33.8505 H   0  0  0  0  0  0  0  0  0  0  0  0
   -3.9762   18.3450  -34.3251 H   0  0  0  0  0  0  0  0  0  0  0  0
   -0.8068   18.0499  -32.4330 H   0  0  0  0  0  0  0  0  0  0  0  0
   -1.9349   17.2589  -33.5917 H   0  0  0  0  0  0  0  0  0  0  0  0
   -0.5732   16.6578  -35.4305 H   0  0  0  0  0  0  0  0  0  0  0  0
    0.7820   17.3880  -37.2900 H   0  0  0  0  0  0  0  0  0  0  0  0
    1.6126   19.6430  -37.5419 H   0  0  0  0  0  0  0  0  0  0  0  0
   -0.3445   20.6662  -33.8164 H   0  0  0  0  0  0  0  0  0  0  0  0
   -1.1546   20.4025  -31.7113 H   0  0  0  0  0  0  0  0  0  0  0  0
   -3.1075   23.8459  -28.9451 H   0  0  0  0  0  0  0  0  0  0  0  0
   -1.8913   22.7260  -28.2309 H   0  0  0  0  0  0  0  0  0  0  0  0
  1  2  1  0
  2  3  2  0
  2  4  1  0
  4  5  2  0
  5  6  1  0
  6  7  2  0
  7  8  1  0
  8  9  2  0
  9 10  1  0
 10 11  1  0
 11 12  2  0
 12 13  1  0
 13 14  2  0
 14 15  1  0
 15 16  1  0
 16 17  2  0
 16 18  1  0
 15 19  2  0
  9 20  1  0
 20 21  2  0
 21 22  1  0
 22 23  1  0
 23 24  2  0
 23 25  1  0
 25 26  1  0
 26 27  2  0
 26 28  1  0
 22  4  1  0
 21  6  1  0
 19 11  1  0
  1 29  1  0
  5 30  1  0
  7 31  1  0
  8 32  1  0
 10 33  1  0
 10 34  1  0
 12 35  1  0
 13 36  1  0
 14 37  1  0
 19 38  1  0
 20 39  1  0
 25 40  1  0
 25 41  1  0
M  CHG  4   1  -1  13   1  18  -1  28  -1
M  END
>  <UniqueID>  (60) 
58

>  <SMILES>  (60) 
[NH-]C(=O)c1cc2ccc(Cc3c[nH+]cc(C(=O)[O-])c3)cc2n1C(=O)CC(=O)[O-]

>  <Energy>  (60) 
80.25853141205893

>  <Genealogy>  (60) 
[NH-]C(=O)c1cc2ccc(Cc3c[nH+]cc(C(=O)[O-])c3)cc2n1C(=O)CC(=O)[O-] (protonated)
[NH-]C(=O)c1cc2ccc(Cc3c[nH+]cc(C(=O)[O-])c3)cc2n1C(=O)CC(=O)[O-] (3D coordinates assigned)
[NH-]C(=O)c1cc2ccc(Cc3c[nH+]cc(C(=O)[O-])c3)cc2n1C(=O)CC(=O)[O-] (optimized conformer: 80.25853141205893 kcal/mol)

>  <smiles>  (60) 
NC(=O)c1cc2ccc(Cc3cncc(C(=O)O)c3)cc2n1C(=O)CC(=O)O

>  <score_type>  (60) 
oracle

>  <origin>  (60) 
adg

>  <m_score__min__energy>  (60) 
-12.380000000000001

>  <m_primary>  (60) 
energy

$$$$
60:0
     RDKit          3D

 36 37  0  0  0  0  0  0  0  0999 V2000
   -3.8600   26.0490  -30.0810 H   0  0  0  0  0  0  0  0  0  0  0  0
   -3.4870   25.2920  -30.6950 N   0  0  0  0  0  0  0  0  0  0  0  0
   -3.2760   23.9760  -30.1880 C   0  0  0  0  0  0  0  0  0  0  0  0
   -2.8780   23.8280  -29.0030 O   0  0  0  0  0  0  0  0  0  0  0  0
   -3.4910   22.8070  -31.0670 C   0  0  0  0  0  0  0  0  0  0  0  0
   -2.5260   21.8310  -31.3010 C   0  0  0  0  0  0  0  0  0  0  0  0
   -1.4915   21.8142  -30.9274 H   0  0  0  0  0  0  0  0  0  0  0  0
   -3.1390   20.8920  -32.0980 C   0  0  0  0  0  0  0  0  0  0  0  0
   -2.6360   19.7140  -32.6420 C   0  0  0  0  0  0  0  0  0  0  0  0
   -1.6033   19.3926  -32.4416 H   0  0  0  0  0  0  0  0  0  0  0  0
   -3.4880   18.9480  -33.4550 C   0  0  0  0  0  0  0  0  0  0  0  0
   -3.1224   18.0077  -33.8933 H   0  0  0  0  0  0  0  0  0  0  0  0
   -4.8140   19.3750  -33.7160 C   0  0  0  0  0  0  0  0  0  0  0  0
   -5.7030   18.5510  -34.6020 C   0  0  0  0  0  0  0  0  0  0  0  0
   -6.2797   19.2207  -35.2569 H   0  0  0  0  0  0  0  0  0  0  0  0
   -6.5720   17.8040  -33.8280 F   0  0  0  0  0  0  0  0  0  0  0  0
   -4.9310   17.7010  -35.3720 F   0  0  0  0  0  0  0  0  0  0  0  0
   -5.2880   20.5800  -33.1500 C   0  0  0  0  0  0  0  0  0  0  0  0
   -6.3090   20.9353  -33.3533 H   0  0  0  0  0  0  0  0  0  0  0  0
   -4.4250   21.3100  -32.3240 C   0  0  0  0  0  0  0  0  0  0  0  0
   -4.6600   22.4820  -31.6900 N   0  0  0  0  0  0  0  0  0  0  0  0
   -5.8740   23.2560  -31.7340 C   0  0  0  0  0  0  0  0  0  0  0  0
   -6.1690   23.8800  -32.7880 O   0  0  0  0  0  0  0  0  0  0  0  0
   -6.8340   23.2650  -30.6020 C   0  0  0  0  0  0  0  0  0  0  0  0
   -8.0050   22.5950  -30.6330 C   0  0  0  0  0  0  0  0  0  0  0  0
   -8.6927   22.7273  -29.7847 H   0  0  0  0  0  0  0  0  0  0  0  0
   -8.4280   21.6960  -31.7270 C   0  0  0  0  0  0  0  0  0  0  0  0
   -8.7328   22.1234  -32.6937 H   0  0  0  0  0  0  0  0  0  0  0  0
   -8.4450   20.3770  -31.5580 C   0  0  0  0  0  0  0  0  0  0  0  0
   -8.7624   19.7210  -32.3820 H   0  0  0  0  0  0  0  0  0  0  0  0
   -8.1417   19.9420  -30.5943 H   0  0  0  0  0  0  0  0  0  0  0  0
   -6.4580   23.9900  -29.4160 N   0  0  0  0  0  0  0  0  0  0  0  0
   -6.2940   23.4550  -28.5350 H   0  0  0  0  0  0  0  0  0  0  0  0
   -6.1220   25.3840  -29.3990 C   0  0  0  0  0  0  0  0  0  0  0  0
   -5.9563   25.8874  -28.4351 H   0  0  0  0  0  0  0  0  0  0  0  0
   -6.0130   26.0430  -30.4670 O   0  0  0  0  0  0  0  0  0  0  0  0
  1  2  1  0
  2  3  1  0
  3  4  2  0
  3  5  1  0
  5  6  2  0
  6  7  1  0
  6  8  1  0
  8  9  2  0
  9 10  1  0
  9 11  1  0
 11 12  1  0
 11 13  2  0
 13 14  1  0
 14 15  1  0
 14 16  1  0
 14 17  1  0
 13 18  1  0
 18 19  1  0
 18 20  2  0
 20 21  1  0
 21 22  1  0
 22 23  2  0
 22 24  1  0
 24 25  2  0
 25 26  1  0
 25 27  1  0
 27 28  1  0
 27 29  2  0
 29 30  1  0
 29 31  1  0
 24 32  1  0
 32 33  1  0
 32 34  1  0
 34 35  1  0
 34 36  2  0
 21  5  1  0
 20  8  1  0
M  CHG  1   2  -1
M  END
>  <UniqueID>  (61) 
59

>  <SMILES>  (61) 
C=C/C=C(/NC=O)C(=O)n1c(C([NH-])=O)cc2ccc(C(F)F)cc21

>  <Energy>  (61) 
80.4133714238592

>  <Genealogy>  (61) 
C=C/C=C(/NC=O)C(=O)n1c(C([NH-])=O)cc2ccc(C(F)F)cc21 (protonated)
C=C/C=C(/NC=O)C(=O)n1c(C([NH-])=O)cc2ccc(C(F)F)cc21 (cis-trans isomerization)
C=C/C=C(/NC=O)C(=O)n1c(C([NH-])=O)cc2ccc(C(F)F)cc21 (3D coordinates assigned)
C=C/C=C(/NC=O)C(=O)n1c(C([NH-])=O)cc2ccc(C(F)F)cc21 (optimized conformer: 80.4133714238592 kcal/mol)

>  <smiles>  (61) 
C=C/C=C(/NC=O)C(=O)n1c(C(N)=O)cc2ccc(C(F)F)cc21

>  <score_type>  (61) 
oracle

>  <origin>  (61) 
adg

>  <m_score__min__energy>  (61) 
-10.039999999999999

>  <m_primary>  (61) 
energy

$$$$
61:0
     RDKit          3D

 35 36  0  0  0  0  0  0  0  0999 V2000
   -1.8490   23.7900  -28.2560 C   0  0  0  0  0  0  0  0  0  0  0  0
   -3.2590   23.6190  -28.6350 N   0  0  0  0  0  0  0  0  0  0  0  0
   -4.1270   23.6610  -27.4460 C   0  0  0  0  0  0  0  0  0  0  0  0
   -3.4290   22.3680  -29.3430 C   0  0  0  0  0  0  0  0  0  0  0  0
   -3.0980   21.2800  -28.7910 O   0  0  0  0  0  0  0  0  0  0  0  0
   -3.9350   22.3360  -30.7310 C   0  0  0  0  0  0  0  0  0  0  0  0
   -3.1670   22.0180  -31.6780 O   0  0  0  0  0  0  0  0  0  0  0  0
   -5.3060   22.6580  -31.0130 N   0  0  0  0  0  0  0  0  0  0  0  0
   -5.9310   23.8570  -30.8490 C   0  0  0  0  0  0  0  0  0  0  0  0
   -5.2810   25.1270  -30.4580 C   0  0  0  0  0  0  0  0  0  0  0  0
   -3.8730   25.3020  -30.5870 N   0  0  0  0  0  0  0  0  0  0  0  0
   -5.9840   26.0810  -30.0300 O   0  0  0  0  0  0  0  0  0  0  0  0
   -7.2850   23.7450  -31.1590 C   0  0  0  0  0  0  0  0  0  0  0  0
   -7.4700   22.4280  -31.5180 C   0  0  0  0  0  0  0  0  0  0  0  0
   -8.6240   21.7610  -31.9170 C   0  0  0  0  0  0  0  0  0  0  0  0
   -8.5240   20.3890  -32.2060 C   0  0  0  0  0  0  0  0  0  0  0  0
   -7.2870   19.7050  -32.0690 C   0  0  0  0  0  0  0  0  0  0  0  0
   -7.1840   18.2440  -32.4220 C   0  0  0  0  0  0  0  0  0  0  0  0
   -6.7940   18.0870  -33.7420 F   0  0  0  0  0  0  0  0  0  0  0  0
   -8.4040   17.6130  -32.2540 F   0  0  0  0  0  0  0  0  0  0  0  0
   -6.2480   17.6430  -31.6020 F   0  0  0  0  0  0  0  0  0  0  0  0
   -6.1340   20.4260  -31.6810 C   0  0  0  0  0  0  0  0  0  0  0  0
   -6.2610   21.7940  -31.4170 C   0  0  0  0  0  0  0  0  0  0  0  0
   -1.7627   23.8005  -27.1594 H   0  0  0  0  0  0  0  0  0  0  0  0
   -1.2565   22.9571  -28.6625 H   0  0  0  0  0  0  0  0  0  0  0  0
   -1.4727   24.7404  -28.6625 H   0  0  0  0  0  0  0  0  0  0  0  0
   -3.5330   24.4220  -29.2490 H   0  0  0  0  0  0  0  0  0  0  0  0
   -3.5068   23.6310  -26.5380 H   0  0  0  0  0  0  0  0  0  0  0  0
   -4.7179   24.5888  -27.4559 H   0  0  0  0  0  0  0  0  0  0  0  0
   -4.8047   22.7946  -27.4559 H   0  0  0  0  0  0  0  0  0  0  0  0
   -3.4780   26.0320  -31.2200 H   0  0  0  0  0  0  0  0  0  0  0  0
   -8.0448   24.5396  -31.1244 H   0  0  0  0  0  0  0  0  0  0  0  0
   -9.5842   22.2906  -32.0036 H   0  0  0  0  0  0  0  0  0  0  0  0
   -9.4149   19.8384  -32.5424 H   0  0  0  0  0  0  0  0  0  0  0  0
   -5.1601   19.9230  -31.5889 H   0  0  0  0  0  0  0  0  0  0  0  0
  1  2  1  0
  2  3  1  0
  2  4  1  0
  4  5  2  0
  4  6  1  0
  6  7  2  0
  6  8  1  0
  8  9  1  0
  9 10  1  0
 10 11  1  0
 10 12  2  0
  9 13  2  0
 13 14  1  0
 14 15  2  0
 15 16  1  0
 16 17  2  0
 17 18  1  0
 18 19  1  0
 18 20  1  0
 18 21  1  0
 17 22  1  0
 22 23  2  0
 23  8  1  0
 23 14  1  0
  1 24  1  0
  1 25  1  0
  1 26  1  0
  2 27  1  0
  3 28  1  0
  3 29  1  0
  3 30  1  0
 11 31  1  0
 13 32  1  0
 15 33  1  0
 16 34  1  0
 22 35  1  0
M  CHG  2   2   1  11  -1
M  END
>  <UniqueID>  (62) 
60

>  <SMILES>  (62) 
C[NH+](C)C(=O)C(=O)n1c(C([NH-])=O)cc2ccc(C(F)(F)F)cc21

>  <Energy>  (62) 
76.09516842735457

>  <Genealogy>  (62) 
C[NH+](C)C(=O)C(=O)n1c(C([NH-])=O)cc2ccc(C(F)(F)F)cc21 (protonated)
C[NH+](C)C(=O)C(=O)n1c(C([NH-])=O)cc2ccc(C(F)(F)F)cc21 (3D coordinates assigned)
C[NH+](C)C(=O)C(=O)n1c(C([NH-])=O)cc2ccc(C(F)(F)F)cc21 (optimized conformer: 76.09516842735457 kcal/mol)

>  <smiles>  (62) 
CN(C)C(=O)C(=O)n1c(C(N)=O)cc2ccc(C(F)(F)F)cc21

>  <score_type>  (62) 
oracle

>  <origin>  (62) 
adg

>  <m_score__min__energy>  (62) 
-8.3900000000000006

>  <m_primary>  (62) 
energy

$$$$
62:0
     RDKit          3D

 49 50  0  0  0  0  0  0  0  0999 V2000
    0.8210   24.2070  -27.8400 C   0  0  0  0  0  0  0  0  0  0  0  0
   -0.1390   24.9260  -28.6050 O   0  0  0  0  0  0  0  0  0  0  0  0
   -1.4980   24.6010  -28.6040 C   0  0  0  0  0  0  0  0  0  0  0  0
   -2.3230   25.2760  -29.2790 O   0  0  0  0  0  0  0  0  0  0  0  0
   -1.9790   23.4700  -27.7600 C   0  0  0  0  0  0  0  0  0  0  0  0
   -3.1260   22.8430  -28.4040 N   0  0  0  0  0  0  0  0  0  0  0  0
   -3.1330   21.5010  -28.9020 C   0  0  0  0  0  0  0  0  0  0  0  0
   -2.9350   20.5560  -28.0910 O   0  0  0  0  0  0  0  0  0  0  0  0
   -3.3190   21.2160  -30.3710 C   0  0  0  0  0  0  0  0  0  0  0  0
   -4.1010   22.2950  -31.0680 C   0  0  0  0  0  0  0  0  0  0  0  0
   -3.4920   23.2830  -31.5610 O   0  0  0  0  0  0  0  0  0  0  0  0
   -5.5340   22.2480  -31.1130 N   0  0  0  0  0  0  0  0  0  0  0  0
   -6.4160   23.2300  -30.7740 C   0  0  0  0  0  0  0  0  0  0  0  0
   -6.0570   24.5200  -30.1450 C   0  0  0  0  0  0  0  0  0  0  0  0
   -4.7460   24.7410  -29.6200 N   0  0  0  0  0  0  0  0  0  0  0  0
   -6.9050   25.4500  -30.0820 O   0  0  0  0  0  0  0  0  0  0  0  0
   -7.7260   22.8100  -31.0130 C   0  0  0  0  0  0  0  0  0  0  0  0
   -7.6140   21.5300  -31.5090 C   0  0  0  0  0  0  0  0  0  0  0  0
   -8.5990   20.6350  -31.9190 C   0  0  0  0  0  0  0  0  0  0  0  0
   -8.1900   19.3790  -32.4010 C   0  0  0  0  0  0  0  0  0  0  0  0
   -6.8150   19.0510  -32.4640 C   0  0  0  0  0  0  0  0  0  0  0  0
   -6.4080   17.7660  -32.9690 C   0  0  0  0  0  0  0  0  0  0  0  0
   -6.0680   16.6910  -33.3940 C   0  0  0  0  0  0  0  0  0  0  0  0
   -5.6520   15.3730  -33.9130 C   0  0  0  0  0  0  0  0  0  0  0  0
   -6.8830   14.6020  -34.4150 C   0  0  0  0  0  0  0  0  0  0  0  0
   -4.9680   14.5880  -32.7880 C   0  0  0  0  0  0  0  0  0  0  0  0
   -4.7290   15.5470  -34.9610 O   0  0  0  0  0  0  0  0  0  0  0  0
   -5.8420   19.9770  -32.0400 C   0  0  0  0  0  0  0  0  0  0  0  0
   -6.2800   21.2140  -31.5570 C   0  0  0  0  0  0  0  0  0  0  0  0
    0.6221   24.3560  -26.7685 H   0  0  0  0  0  0  0  0  0  0  0  0
    0.7532   23.1356  -28.0800 H   0  0  0  0  0  0  0  0  0  0  0  0
    1.8300   24.5734  -28.0800 H   0  0  0  0  0  0  0  0  0  0  0  0
   -1.1734   22.7302  -27.6430 H   0  0  0  0  0  0  0  0  0  0  0  0
   -2.2732   23.8480  -26.7698 H   0  0  0  0  0  0  0  0  0  0  0  0
   -2.3290   21.1354  -30.8437 H   0  0  0  0  0  0  0  0  0  0  0  0
   -3.8858   20.2777  -30.4623 H   0  0  0  0  0  0  0  0  0  0  0  0
   -4.4960   25.6690  -29.2120 H   0  0  0  0  0  0  0  0  0  0  0  0
   -4.0360   23.9780  -29.5900 H   0  0  0  0  0  0  0  0  0  0  0  0
   -8.6509   23.3802  -30.8416 H   0  0  0  0  0  0  0  0  0  0  0  0
   -9.6647   20.9025  -31.8673 H   0  0  0  0  0  0  0  0  0  0  0  0
   -8.9427   18.6478  -32.7307 H   0  0  0  0  0  0  0  0  0  0  0  0
   -7.4638   14.2382  -33.5546 H   0  0  0  0  0  0  0  0  0  0  0  0
   -7.5099   15.2691  -35.0249 H   0  0  0  0  0  0  0  0  0  0  0  0
   -6.5564   13.7468  -35.0249 H   0  0  0  0  0  0  0  0  0  0  0  0
   -5.3044   14.9741  -31.8145 H   0  0  0  0  0  0  0  0  0  0  0  0
   -5.2315   13.5233  -32.8711 H   0  0  0  0  0  0  0  0  0  0  0  0
   -3.8772   14.7033  -32.8711 H   0  0  0  0  0  0  0  0  0  0  0  0
   -3.8180   15.5900  -34.5650 H   0  0  0  0  0  0  0  0  0  0  0  0
   -4.7701   19.7344  -32.0874 H   0  0  0  0  0  0  0  0  0  0  0  0
  1  2  1  0
  2  3  1  0
  3  4  2  0
  3  5  1  0
  5  6  1  0
  6  7  1  0
  7  8  2  0
  7  9  1  0
  9 10  1  0
 10 11  2  0
 10 12  1  0
 12 13  1  0
 13 14  1  0
 14 15  1  0
 14 16  2  0
 13 17  2  0
 17 18  1  0
 18 19  2  0
 19 20  1  0
 20 21  2  0
 21 22  1  0
 22 23  3  0
 23 24  1  0
 24 25  1  0
 24 26  1  0
 24 27  1  0
 21 28  1  0
 28 29  2  0
 29 12  1  0
 29 18  1  0
  1 30  1  0
  1 31  1  0
  1 32  1  0
  5 33  1  0
  5 34  1  0
  9 35  1  0
  9 36  1  0
 15 37  1  0
 15 38  1  0
 17 39  1  0
 19 40  1  0
 20 41  1  0
 25 42  1  0
 25 43  1  0
 25 44  1  0
 26 45  1  0
 26 46  1  0
 26 47  1  0
 27 48  1  0
 28 49  1  0
M  CHG  1   6  -1
M  END
>  <UniqueID>  (63) 
61

>  <SMILES>  (63) 
COC(=O)C[N-]C(=O)CC(=O)n1c(C(N)=O)cc2ccc(C#CC(C)(C)O)cc21

>  <Energy>  (63) 
74.52595617191268

>  <Genealogy>  (63) 
COC(=O)C[N-]C(=O)CC(=O)n1c(C(N)=O)cc2ccc(C#CC(C)(C)O)cc21 (protonated)
COC(=O)C[N-]C(=O)CC(=O)n1c(C(N)=O)cc2ccc(C#CC(C)(C)O)cc21 (3D coordinates assigned)
COC(=O)C[N-]C(=O)CC(=O)n1c(C(N)=O)cc2ccc(C#CC(C)(C)O)cc21 (optimized conformer: 74.52595617191268 kcal/mol)

>  <smiles>  (63) 
COC(=O)CNC(=O)CC(=O)n1c(C(N)=O)cc2ccc(C#CC(C)(C)O)cc21

>  <score_type>  (63) 
oracle

>  <origin>  (63) 
adg

>  <m_score__min__energy>  (63) 
-10.82

>  <m_primary>  (63) 
energy

$$$$
63:0
     RDKit          3D

 42 43  0  0  0  0  0  0  0  0999 V2000
   -3.1150   19.8880  -33.7460 C   0  0  0  0  0  0  0  0  0  0  0  0
   -2.5150   20.9050  -32.7570 C   0  0  0  0  0  0  0  0  0  0  0  0
   -1.1220   21.3200  -33.2540 C   0  0  0  0  0  0  0  0  0  0  0  0
   -2.3780   20.2840  -31.3530 C   0  0  0  0  0  0  0  0  0  0  0  0
   -3.3160   22.0940  -32.7030 O   0  0  0  0  0  0  0  0  0  0  0  0
   -3.7770   22.7360  -31.5440 C   0  0  0  0  0  0  0  0  0  0  0  0
   -2.9690   23.1690  -30.6790 O   0  0  0  0  0  0  0  0  0  0  0  0
   -5.1870   22.9330  -31.3640 N   0  0  0  0  0  0  0  0  0  0  0  0
   -5.8310   24.0560  -30.9340 C   0  0  0  0  0  0  0  0  0  0  0  0
   -5.1870   25.2810  -30.4150 C   0  0  0  0  0  0  0  0  0  0  0  0
   -3.8710   25.6260  -30.8440 N   0  0  0  0  0  0  0  0  0  0  0  0
   -5.7990   26.0470  -29.6260 O   0  0  0  0  0  0  0  0  0  0  0  0
   -7.2120   23.8720  -30.9730 C   0  0  0  0  0  0  0  0  0  0  0  0
   -7.3970   22.5890  -31.4370 C   0  0  0  0  0  0  0  0  0  0  0  0
   -8.5720   21.8900  -31.6940 C   0  0  0  0  0  0  0  0  0  0  0  0
   -8.4640   20.5860  -32.2080 C   0  0  0  0  0  0  0  0  0  0  0  0
   -7.1930   20.0090  -32.4520 C   0  0  0  0  0  0  0  0  0  0  0  0
   -7.0920   18.6280  -33.0480 C   0  0  0  0  0  0  0  0  0  0  0  0
   -6.1100   18.5890  -34.2240 C   0  0  0  0  0  0  0  0  0  0  0  0
   -5.6430   17.1940  -34.5090 C   0  0  0  0  0  0  0  0  0  0  0  0
   -4.5210   16.9990  -35.0460 O   0  0  0  0  0  0  0  0  0  0  0  0
   -6.4650   16.1110  -34.2230 O   0  0  0  0  0  0  0  0  0  0  0  0
   -6.0230   20.7530  -32.1870 C   0  0  0  0  0  0  0  0  0  0  0  0
   -6.1590   22.0430  -31.6630 C   0  0  0  0  0  0  0  0  0  0  0  0
   -3.5962   19.0724  -33.1864 H   0  0  0  0  0  0  0  0  0  0  0  0
   -3.8622   20.3890  -34.3790 H   0  0  0  0  0  0  0  0  0  0  0  0
   -2.3151   19.4763  -34.3790 H   0  0  0  0  0  0  0  0  0  0  0  0
   -0.4679   21.5149  -32.3913 H   0  0  0  0  0  0  0  0  0  0  0  0
   -0.6938   20.5104  -33.8633 H   0  0  0  0  0  0  0  0  0  0  0  0
   -1.2067   22.2319  -33.8633 H   0  0  0  0  0  0  0  0  0  0  0  0
   -2.5489   21.0588  -30.5911 H   0  0  0  0  0  0  0  0  0  0  0  0
   -3.1207   19.4815  -31.2329 H   0  0  0  0  0  0  0  0  0  0  0  0
   -1.3666   19.8685  -31.2329 H   0  0  0  0  0  0  0  0  0  0  0  0
   -3.0320   25.2980  -30.3180 H   0  0  0  0  0  0  0  0  0  0  0  0
   -7.9894   24.5980  -30.6925 H   0  0  0  0  0  0  0  0  0  0  0  0
   -9.5553   22.3437  -31.5010 H   0  0  0  0  0  0  0  0  0  0  0  0
   -9.3749   20.0080  -32.4228 H   0  0  0  0  0  0  0  0  0  0  0  0
   -6.7468   17.9291  -32.2719 H   0  0  0  0  0  0  0  0  0  0  0  0
   -8.0863   18.3421  -33.4217 H   0  0  0  0  0  0  0  0  0  0  0  0
   -6.6096   18.9877  -35.1192 H   0  0  0  0  0  0  0  0  0  0  0  0
   -5.2327   19.1973  -33.9589 H   0  0  0  0  0  0  0  0  0  0  0  0
   -5.0282   20.3286  -32.3877 H   0  0  0  0  0  0  0  0  0  0  0  0
  1  2  1  0
  2  3  1  0
  2  4  1  0
  2  5  1  0
  5  6  1  0
  6  7  2  0
  6  8  1  0
  8  9  1  0
  9 10  1  0
 10 11  1  0
 10 12  2  0
  9 13  2  0
 13 14  1  0
 14 15  2  0
 15 16  1  0
 16 17  2  0
 17 18  1  0
 18 19  1  0
 19 20  1  0
 20 21  2  0
 20 22  1  0
 17 23  1  0
 23 24  2  0
 24  8  1  0
 24 14  1  0
  1 25  1  0
  1 26  1  0
  1 27  1  0
  3 28  1  0
  3 29  1  0
  3 30  1  0
  4 31  1  0
  4 32  1  0
  4 33  1  0
 11 34  1  0
 13 35  1  0
 15 36  1  0
 16 37  1  0
 18 38  1  0
 18 39  1  0
 19 40  1  0
 19 41  1  0
 23 42  1  0
M  CHG  2  11  -1  22  -1
M  END
>  <UniqueID>  (64) 
62

>  <SMILES>  (64) 
CC(C)(C)OC(=O)n1c(C([NH-])=O)cc2ccc(CCC(=O)[O-])cc21

>  <Energy>  (64) 
71.7655459546036

>  <Genealogy>  (64) 
CC(C)(C)OC(=O)n1c(C([NH-])=O)cc2ccc(CCC(=O)[O-])cc21 (protonated)
CC(C)(C)OC(=O)n1c(C([NH-])=O)cc2ccc(CCC(=O)[O-])cc21 (3D coordinates assigned)
CC(C)(C)OC(=O)n1c(C([NH-])=O)cc2ccc(CCC(=O)[O-])cc21 (optimized conformer: 71.7655459546036 kcal/mol)

>  <smiles>  (64) 
CC(C)(C)OC(=O)n1c(C(N)=O)cc2ccc(CCC(=O)O)cc21

>  <score_type>  (64) 
oracle

>  <origin>  (64) 
adg

>  <m_score__min__energy>  (64) 
-10.24

>  <m_primary>  (64) 
energy

$$$$
64:0
     RDKit          3D

 32 33  0  0  0  0  0  0  0  0999 V2000
   -6.8860   16.0470  -33.4820 C   0  0  0  0  0  0  0  0  0  0  0  0
   -7.0870   17.1490  -33.1310 N   0  0  0  0  0  0  0  0  0  0  0  0
   -7.3020   18.4560  -32.7180 C   0  0  0  0  0  0  0  0  0  0  0  0
   -8.5850   18.9440  -32.6980 C   0  0  0  0  0  0  0  0  0  0  0  0
   -8.7910   20.2430  -32.2870 C   0  0  0  0  0  0  0  0  0  0  0  0
   -7.7200   21.0250  -31.9030 C   0  0  0  0  0  0  0  0  0  0  0  0
   -7.6440   22.3200  -31.4610 C   0  0  0  0  0  0  0  0  0  0  0  0
   -6.3070   22.6470  -31.2000 C   0  0  0  0  0  0  0  0  0  0  0  0
   -5.9040   23.9510  -30.7170 C   0  0  0  0  0  0  0  0  0  0  0  0
   -5.7290   24.1390  -29.2920 N   0  0  0  0  0  0  0  0  0  0  0  0
   -5.6860   24.9620  -31.4050 O   0  0  0  0  0  0  0  0  0  0  0  0
   -5.5920   21.5520  -31.4870 N   0  0  0  0  0  0  0  0  0  0  0  0
   -4.1870   21.4070  -31.3760 C   0  0  0  0  0  0  0  0  0  0  0  0
   -3.5870   20.3340  -31.1400 O   0  0  0  0  0  0  0  0  0  0  0  0
   -3.3450   22.5240  -31.5340 O   0  0  0  0  0  0  0  0  0  0  0  0
   -2.2330   22.7050  -30.6440 C   0  0  0  0  0  0  0  0  0  0  0  0
   -2.4680   24.0810  -29.5130 P   0  0  0  0  0  0  0  0  0  0  0  0
   -3.0190   23.6830  -28.1750 O   0  0  0  0  0  0  0  0  0  0  0  0
   -0.9930   24.8710  -29.2440 O   0  0  0  0  0  0  0  0  0  0  0  0
   -3.4860   25.2240  -30.2750 O   0  0  0  0  0  0  0  0  0  0  0  0
   -6.4130   20.5670  -31.9090 C   0  0  0  0  0  0  0  0  0  0  0  0
   -6.2430   19.2550  -32.3290 C   0  0  0  0  0  0  0  0  0  0  0  0
   -9.4311   18.3111  -33.0038 H   0  0  0  0  0  0  0  0  0  0  0  0
   -9.8098   20.6573  -32.2648 H   0  0  0  0  0  0  0  0  0  0  0  0
   -8.5005   22.9979  -31.3312 H   0  0  0  0  0  0  0  0  0  0  0  0
   -6.5950   24.2480  -28.7130 H   0  0  0  0  0  0  0  0  0  0  0  0
   -4.7650   24.1590  -28.8920 H   0  0  0  0  0  0  0  0  0  0  0  0
   -2.0993   21.7850  -30.0561 H   0  0  0  0  0  0  0  0  0  0  0  0
   -1.3480   22.9270  -31.2584 H   0  0  0  0  0  0  0  0  0  0  0  0
   -0.4960   24.8730  -30.0790 H   0  0  0  0  0  0  0  0  0  0  0  0
   -3.6520   24.9330  -31.2180 H   0  0  0  0  0  0  0  0  0  0  0  0
   -5.2267   18.8349  -32.3533 H   0  0  0  0  0  0  0  0  0  0  0  0
  1  2  3  0
  2  3  1  0
  3  4  2  0
  4  5  1  0
  5  6  2  0
  6  7  1  0
  7  8  2  0
  8  9  1  0
  9 10  1  0
  9 11  2  0
  8 12  1  0
 12 13  1  0
 13 14  2  0
 13 15  1  0
 15 16  1  0
 16 17  1  0
 17 18  2  0
 17 19  1  0
 17 20  1  0
 12 21  1  0
 21 22  2  0
 22  3  1  0
 21  6  1  0
  4 23  1  0
  5 24  1  0
  7 25  1  0
 10 26  1  0
 10 27  1  0
 16 28  1  0
 16 29  1  0
 19 30  1  0
 20 31  1  0
 22 32  1  0
M  CHG  2   1  -1   2   1
M  END
>  <smiles>  (65) 
[C-]#[N+]c1ccc2cc(C(N)=O)n(C(=O)OCP(=O)(O)O)c2c1

>  <score_type>  (65) 
oracle

>  <origin>  (65) 
adg

>  <m_score__min__energy>  (65) 
-7.96

>  <m_primary>  (65) 
energy

$$$$
65:0
     RDKit          3D

 36 38  0  0  0  0  0  0  0  0999 V2000
   -4.0400   25.6380  -30.9130 N   0  0  0  0  0  0  0  0  0  0  0  0
   -5.3230   25.3010  -30.3920 C   0  0  0  0  0  0  0  0  0  0  0  0
   -5.8980   26.0970  -29.6040 O   0  0  0  0  0  0  0  0  0  0  0  0
   -5.9430   24.0070  -30.7450 C   0  0  0  0  0  0  0  0  0  0  0  0
   -7.2470   23.8850  -31.2240 C   0  0  0  0  0  0  0  0  0  0  0  0
   -7.4060   22.5480  -31.5090 C   0  0  0  0  0  0  0  0  0  0  0  0
   -8.5170   21.8630  -31.9930 C   0  0  0  0  0  0  0  0  0  0  0  0
   -8.4120   20.4710  -32.1580 C   0  0  0  0  0  0  0  0  0  0  0  0
   -7.2080   19.7960  -31.8410 C   0  0  0  0  0  0  0  0  0  0  0  0
   -7.1260   18.3000  -31.9690 C   0  0  0  0  0  0  0  0  0  0  0  0
   -6.3620   17.9350  -33.2000 C   0  0  0  0  0  0  0  0  0  0  0  0
   -6.1060   18.8110  -34.1940 N   0  0  0  0  0  0  0  0  0  0  0  0
   -5.3600   18.1050  -35.0600 C   0  0  0  0  0  0  0  0  0  0  0  0
   -5.1750   16.8340  -34.5690 C   0  0  0  0  0  0  0  0  0  0  0  0
   -5.8020   16.7210  -33.3860 N   0  0  0  0  0  0  0  0  0  0  0  0
   -6.1050   20.5220  -31.3400 C   0  0  0  0  0  0  0  0  0  0  0  0
   -6.2320   21.9100  -31.2020 C   0  0  0  0  0  0  0  0  0  0  0  0
   -5.3240   22.7920  -30.7290 N   0  0  0  0  0  0  0  0  0  0  0  0
   -4.0140   22.4810  -30.2310 C   0  0  0  0  0  0  0  0  0  0  0  0
   -3.6620   21.2770  -30.0960 O   0  0  0  0  0  0  0  0  0  0  0  0
   -3.1390   23.5160  -29.8780 O   0  0  0  0  0  0  0  0  0  0  0  0
   -2.1030   23.3710  -28.9100 C   0  0  0  0  0  0  0  0  0  0  0  0
   -1.1700   24.5370  -28.9670 C   0  0  0  0  0  0  0  0  0  0  0  0
   -1.5990   25.6740  -29.2920 O   0  0  0  0  0  0  0  0  0  0  0  0
    0.1690   24.3760  -28.6340 O   0  0  0  0  0  0  0  0  0  0  0  0
   -3.1670   25.2970  -30.4530 H   0  0  0  0  0  0  0  0  0  0  0  0
   -7.9901   24.6866  -31.3477 H   0  0  0  0  0  0  0  0  0  0  0  0
   -9.4482   22.3945  -32.2387 H   0  0  0  0  0  0  0  0  0  0  0  0
   -9.2730   19.9007  -32.5368 H   0  0  0  0  0  0  0  0  0  0  0  0
   -6.6154   17.8861  -31.0870 H   0  0  0  0  0  0  0  0  0  0  0  0
   -8.1430   17.8867  -32.0386 H   0  0  0  0  0  0  0  0  0  0  0  0
   -4.9601   18.4841  -36.0120 H   0  0  0  0  0  0  0  0  0  0  0  0
   -4.6040   16.0360  -35.0661 H   0  0  0  0  0  0  0  0  0  0  0  0
   -5.1706   20.0107  -31.0653 H   0  0  0  0  0  0  0  0  0  0  0  0
   -2.5500   23.3132  -27.9066 H   0  0  0  0  0  0  0  0  0  0  0  0
   -1.5389   22.4517  -29.1260 H   0  0  0  0  0  0  0  0  0  0  0  0
  1  2  1  0
  2  3  2  0
  2  4  1  0
  4  5  2  0
  5  6  1  0
  6  7  2  0
  7  8  1  0
  8  9  2  0
  9 10  1  0
 10 11  1  0
 11 12  2  0
 12 13  1  0
 13 14  2  0
 14 15  1  0
  9 16  1  0
 16 17  2  0
 17 18  1  0
 18 19  1  0
 19 20  2  0
 19 21  1  0
 21 22  1  0
 22 23  1  0
 23 24  2  0
 23 25  1  0
 18  4  1  0
 17  6  1  0
 15 11  1  0
  1 26  1  0
  5 27  1  0
  7 28  1  0
  8 29  1  0
 10 30  1  0
 10 31  1  0
 13 32  1  0
 14 33  1  0
 16 34  1  0
 22 35  1  0
 22 36  1  0
M  CHG  3   1  -1  15  -1  25  -1
M  END
>  <UniqueID>  (66) 
63

>  <SMILES>  (66) 
[NH-]C(=O)c1cc2ccc(Cc3ncc[n-]3)cc2n1C(=O)OCC(=O)[O-]

>  <Energy>  (66) 
100.04177543339534

>  <Genealogy>  (66) 
[NH-]C(=O)c1cc2ccc(Cc3ncc[n-]3)cc2n1C(=O)OCC(=O)[O-] (protonated)
[NH-]C(=O)c1cc2ccc(Cc3ncc[n-]3)cc2n1C(=O)OCC(=O)[O-] (3D coordinates assigned)
[NH-]C(=O)c1cc2ccc(Cc3ncc[n-]3)cc2n1C(=O)OCC(=O)[O-] (optimized conformer: 100.04177543339534 kcal/mol)

>  <smiles>  (66) 
NC(=O)c1cc2ccc(Cc3ncc[nH]3)cc2n1C(=O)OCC(=O)O

>  <score_type>  (66) 
oracle

>  <origin>  (66) 
adg

>  <m_score__min__energy>  (66) 
-12.34

>  <m_primary>  (66) 
energy

$$$$
66:0
     RDKit          3D

 31 33  0  0  0  0  0  0  0  0999 V2000
   -9.0590   19.4410  -32.7060 C   0  0  0  0  0  0  0  0  0  0  0  0
   -7.6040   19.4060  -32.7280 N   0  0  0  0  0  0  0  0  0  0  0  0
   -6.7870   20.1820  -31.9920 C   0  0  0  0  0  0  0  0  0  0  0  0
   -5.4810   19.8940  -32.3490 C   0  0  0  0  0  0  0  0  0  0  0  0
   -4.2380   20.4980  -31.8070 C   0  0  0  0  0  0  0  0  0  0  0  0
   -3.0000   19.8070  -31.9050 C   0  0  0  0  0  0  0  0  0  0  0  0
   -1.8150   20.3740  -31.4050 C   0  0  0  0  0  0  0  0  0  0  0  0
   -1.8940   21.6250  -30.8040 C   0  0  0  0  0  0  0  0  0  0  0  0
   -0.9010   22.4080  -30.2640 C   0  0  0  0  0  0  0  0  0  0  0  0
   -1.5430   23.5610  -29.8160 C   0  0  0  0  0  0  0  0  0  0  0  0
   -0.8530   24.6430  -29.0840 C   0  0  0  0  0  0  0  0  0  0  0  0
   -1.4630   25.9200  -28.9170 N   0  0  0  0  0  0  0  0  0  0  0  0
    0.2680   24.4200  -28.5550 O   0  0  0  0  0  0  0  0  0  0  0  0
   -2.8800   23.4960  -30.0780 N   0  0  0  0  0  0  0  0  0  0  0  0
   -3.8680   24.5170  -29.8600 C   0  0  0  0  0  0  0  0  0  0  0  0
   -4.7550   24.3660  -28.9800 O   0  0  0  0  0  0  0  0  0  0  0  0
   -3.8690   25.6690  -30.6370 O   0  0  0  0  0  0  0  0  0  0  0  0
   -3.0780   22.3010  -30.6810 C   0  0  0  0  0  0  0  0  0  0  0  0
   -4.2700   21.7700  -31.1860 C   0  0  0  0  0  0  0  0  0  0  0  0
   -5.5940   18.9240  -33.3360 C   0  0  0  0  0  0  0  0  0  0  0  0
   -6.8960   18.6530  -33.5530 N   0  0  0  0  0  0  0  0  0  0  0  0
   -9.4098   19.4494  -31.6635 H   0  0  0  0  0  0  0  0  0  0  0  0
   -9.4118   20.3479  -33.2189 H   0  0  0  0  0  0  0  0  0  0  0  0
   -9.4550   18.5521  -33.2189 H   0  0  0  0  0  0  0  0  0  0  0  0
   -7.1025   20.9177  -31.2375 H   0  0  0  0  0  0  0  0  0  0  0  0
   -2.9687   18.8147  -32.3787 H   0  0  0  0  0  0  0  0  0  0  0  0
   -0.8545   19.8440  -31.4868 H   0  0  0  0  0  0  0  0  0  0  0  0
    0.1719   22.1741  -30.1994 H   0  0  0  0  0  0  0  0  0  0  0  0
   -2.5000   26.0300  -28.9620 H   0  0  0  0  0  0  0  0  0  0  0  0
   -5.2132   22.3297  -31.1022 H   0  0  0  0  0  0  0  0  0  0  0  0
   -4.7509   18.4500  -33.8599 H   0  0  0  0  0  0  0  0  0  0  0  0
  1  2  1  0
  2  3  1  0
  3  4  2  0
  4  5  1  0
  5  6  2  0
  6  7  1  0
  7  8  2  0
  8  9  1  0
  9 10  2  0
 10 11  1  0
 11 12  1  0
 11 13  2  0
 10 14  1  0
 14 15  1  0
 15 16  2  0
 15 17  1  0
 14 18  1  0
 18 19  2  0
  4 20  1  0
 20 21  2  0
 21  2  1  0
 19  5  1  0
 18  8  1  0
  1 22  1  0
  1 23  1  0
  1 24  1  0
  3 25  1  0
  6 26  1  0
  7 27  1  0
  9 28  1  0
 12 29  1  0
 19 30  1  0
 20 31  1  0
M  CHG  2  12  -1  17  -1
M  END
>  <UniqueID>  (67) 
64

>  <SMILES>  (67) 
Cn1cc(-c2ccc3cc(C([NH-])=O)n(C(=O)[O-])c3c2)cn1

>  <Energy>  (67) 
104.51586513391156

>  <Genealogy>  (67) 
Cn1cc(-c2ccc3cc(C([NH-])=O)n(C(=O)[O-])c3c2)cn1 (protonated)
Cn1cc(-c2ccc3cc(C([NH-])=O)n(C(=O)[O-])c3c2)cn1 (3D coordinates assigned)
Cn1cc(-c2ccc3cc(C([NH-])=O)n(C(=O)[O-])c3c2)cn1 (optimized conformer: 104.51586513391156 kcal/mol)

>  <smiles>  (67) 
Cn1cc(-c2ccc3cc(C(N)=O)n(C(=O)O)c3c2)cn1

>  <score_type>  (67) 
oracle

>  <origin>  (67) 
adg

>  <m_score__min__energy>  (67) 
-11.01

>  <m_primary>  (67) 
energy

$$$$
67:0
     RDKit          3D

 51 52  0  0  0  0  0  0  0  0999 V2000
   -0.8880   19.7580  -34.3620 C   0  0  0  0  0  0  0  0  0  0  0  0
   -2.2060   19.4530  -33.6350 C   0  0  0  0  0  0  0  0  0  0  0  0
   -1.9060   19.2230  -32.1410 C   0  0  0  0  0  0  0  0  0  0  0  0
   -3.1620   20.6490  -33.8150 C   0  0  0  0  0  0  0  0  0  0  0  0
   -2.7570   18.2700  -34.2340 O   0  0  0  0  0  0  0  0  0  0  0  0
   -3.9320   17.6100  -33.8420 C   0  0  0  0  0  0  0  0  0  0  0  0
   -4.0130   17.0180  -32.7320 O   0  0  0  0  0  0  0  0  0  0  0  0
   -5.1070   17.5970  -34.7700 C   0  0  0  0  0  0  0  0  0  0  0  0
   -6.4370   17.5250  -34.0150 C   0  0  0  0  0  0  0  0  0  0  0  0
   -6.3140   18.1110  -32.6770 N   0  0  0  0  0  0  0  0  0  0  0  0
   -6.5910   19.4850  -32.3420 C   0  0  0  0  0  0  0  0  0  0  0  0
   -7.9320   19.9430  -32.3930 C   0  0  0  0  0  0  0  0  0  0  0  0
   -8.2580   21.2650  -32.0490 C   0  0  0  0  0  0  0  0  0  0  0  0
   -7.2260   22.1090  -31.6570 C   0  0  0  0  0  0  0  0  0  0  0  0
   -7.2700   23.4130  -31.2180 C   0  0  0  0  0  0  0  0  0  0  0  0
   -5.9510   23.7430  -30.9090 C   0  0  0  0  0  0  0  0  0  0  0  0
   -5.5190   25.0860  -30.4640 C   0  0  0  0  0  0  0  0  0  0  0  0
   -4.1750   25.5270  -30.6690 N   0  0  0  0  0  0  0  0  0  0  0  0
   -6.3290   25.8460  -29.8710 O   0  0  0  0  0  0  0  0  0  0  0  0
   -5.1250   22.6850  -31.1480 N   0  0  0  0  0  0  0  0  0  0  0  0
   -3.7210   22.5820  -30.8600 C   0  0  0  0  0  0  0  0  0  0  0  0
   -2.8720   22.8620  -31.7510 O   0  0  0  0  0  0  0  0  0  0  0  0
   -3.2990   22.2020  -29.5830 O   0  0  0  0  0  0  0  0  0  0  0  0
   -2.9120   23.1420  -28.5880 C   0  0  0  0  0  0  0  0  0  0  0  0
   -1.9160   24.0870  -29.1700 C   0  0  0  0  0  0  0  0  0  0  0  0
   -2.2250   25.2930  -29.3600 O   0  0  0  0  0  0  0  0  0  0  0  0
   -0.6290   23.6520  -29.4590 O   0  0  0  0  0  0  0  0  0  0  0  0
   -5.9210   21.6940  -31.6100 C   0  0  0  0  0  0  0  0  0  0  0  0
   -5.5700   20.3790  -31.9370 C   0  0  0  0  0  0  0  0  0  0  0  0
   -0.0950   19.9415  -33.6220 H   0  0  0  0  0  0  0  0  0  0  0  0
   -0.6100   18.9005  -34.9923 H   0  0  0  0  0  0  0  0  0  0  0  0
   -1.0150   20.6505  -34.9923 H   0  0  0  0  0  0  0  0  0  0  0  0
   -2.6325   19.7800  -31.5311 H   0  0  0  0  0  0  0  0  0  0  0  0
   -1.9821   18.1496  -31.9127 H   0  0  0  0  0  0  0  0  0  0  0  0
   -0.8892   19.5752  -31.9127 H   0  0  0  0  0  0  0  0  0  0  0  0
   -3.4650   21.0280  -32.8278 H   0  0  0  0  0  0  0  0  0  0  0  0
   -2.6500   21.4469  -34.3728 H   0  0  0  0  0  0  0  0  0  0  0  0
   -4.0531   20.3254  -34.3728 H   0  0  0  0  0  0  0  0  0  0  0  0
   -5.0917   18.5159  -35.3744 H   0  0  0  0  0  0  0  0  0  0  0  0
   -5.0283   16.7011  -35.4033 H   0  0  0  0  0  0  0  0  0  0  0  0
   -7.2020   18.0771  -34.5806 H   0  0  0  0  0  0  0  0  0  0  0  0
   -6.7234   16.4682  -33.9097 H   0  0  0  0  0  0  0  0  0  0  0  0
   -6.0030   17.4690  -31.9130 H   0  0  0  0  0  0  0  0  0  0  0  0
   -8.7288   19.2526  -32.7067 H   0  0  0  0  0  0  0  0  0  0  0  0
   -9.2979   21.6213  -32.0886 H   0  0  0  0  0  0  0  0  0  0  0  0
   -8.1570   24.0575  -31.1298 H   0  0  0  0  0  0  0  0  0  0  0  0
   -3.8700   26.4600  -30.3160 H   0  0  0  0  0  0  0  0  0  0  0  0
   -3.4900   24.9490  -31.2050 H   0  0  0  0  0  0  0  0  0  0  0  0
   -3.7953   23.7019  -28.2469 H   0  0  0  0  0  0  0  0  0  0  0  0
   -2.4655   22.6135  -27.7328 H   0  0  0  0  0  0  0  0  0  0  0  0
   -4.5229   20.0469  -31.8806 H   0  0  0  0  0  0  0  0  0  0  0  0
  1  2  1  0
  2  3  1  0
  2  4  1  0
  2  5  1  0
  5  6  1  0
  6  7  2  0
  6  8  1  0
  8  9  1  0
  9 10  1  0
 10 11  1  0
 11 12  2  0
 12 13  1  0
 13 14  2  0
 14 15  1  0
 15 16  2  0
 16 17  1  0
 17 18  1  0
 17 19  2  0
 16 20  1  0
 20 21  1  0
 21 22  2  0
 21 23  1  0
 23 24  1  0
 24 25  1  0
 25 26  2  0
 25 27  1  0
 20 28  1  0
 28 29  2  0
 29 11  1  0
 28 14  1  0
  1 30  1  0
  1 31  1  0
  1 32  1  0
  3 33  1  0
  3 34  1  0
  3 35  1  0
  4 36  1  0
  4 37  1  0
  4 38  1  0
  8 39  1  0
  8 40  1  0
  9 41  1  0
  9 42  1  0
 10 43  1  0
 12 44  1  0
 13 45  1  0
 15 46  1  0
 18 47  1  0
 18 48  1  0
 24 49  1  0
 24 50  1  0
 29 51  1  0
M  CHG  1  27  -1
M  END
>  <UniqueID>  (68) 
65

>  <SMILES>  (68) 
CC(C)(C)OC(=O)CCNc1ccc2cc(C(N)=O)n(C(=O)OCC(=O)[O-])c2c1

>  <Energy>  (68) 
75.0718487180119

>  <Genealogy>  (68) 
CC(C)(C)OC(=O)CCNc1ccc2cc(C(N)=O)n(C(=O)OCC(=O)[O-])c2c1 (protonated)
CC(C)(C)OC(=O)CCNc1ccc2cc(C(N)=O)n(C(=O)OCC(=O)[O-])c2c1 (3D coordinates assigned)
CC(C)(C)OC(=O)CCNc1ccc2cc(C(N)=O)n(C(=O)OCC(=O)[O-])c2c1 (optimized conformer: 75.0718487180119 kcal/mol)

>  <smiles>  (68) 
CC(C)(C)OC(=O)CCNc1ccc2cc(C(N)=O)n(C(=O)OCC(=O)O)c2c1

>  <score_type>  (68) 
oracle

>  <origin>  (68) 
adg

>  <m_score__min__energy>  (68) 
-10.359999999999999

>  <m_primary>  (68) 
energy

$$$$
68:0
     RDKit          3D

 41 42  0  0  0  0  0  0  0  0999 V2000
   -4.2550   24.6890  -26.8150 C   0  0  0  0  0  0  0  0  0  0  0  0
   -3.6250   24.5830  -28.1280 N   0  0  0  0  0  0  0  0  0  0  0  0
   -1.8820   24.7670  -27.9580 P   0  0  2  0  0  0  0  0  0  0  0  0
   -1.5660   25.5270  -26.6880 O   0  0  0  0  0  0  0  0  0  0  0  0
   -1.2780   25.6290  -29.2840 O   0  0  0  0  0  0  0  0  0  0  0  0
   -1.1360   23.2340  -27.9190 O   0  0  0  0  0  0  0  0  0  0  0  0
   -1.1680   22.6880  -29.2170 C   0  0  0  0  0  0  0  0  0  0  0  0
   -2.6130   22.4080  -29.6020 C   0  0  0  0  0  0  0  0  0  0  0  0
   -2.9270   23.1020  -30.8050 O   0  0  0  0  0  0  0  0  0  0  0  0
   -3.8650   22.6310  -31.7270 C   0  0  0  0  0  0  0  0  0  0  0  0
   -3.4860   22.0470  -32.7800 O   0  0  0  0  0  0  0  0  0  0  0  0
   -5.2670   22.7960  -31.4630 N   0  0  0  0  0  0  0  0  0  0  0  0
   -5.8750   23.8330  -30.8200 C   0  0  0  0  0  0  0  0  0  0  0  0
   -5.2320   25.0970  -30.4100 C   0  0  0  0  0  0  0  0  0  0  0  0
   -3.9100   25.4200  -30.8370 N   0  0  0  0  0  0  0  0  0  0  0  0
   -5.8750   25.9290  -29.7150 O   0  0  0  0  0  0  0  0  0  0  0  0
   -7.2360   23.5790  -30.6600 C   0  0  0  0  0  0  0  0  0  0  0  0
   -7.4480   22.3490  -31.2390 C   0  0  0  0  0  0  0  0  0  0  0  0
   -8.6180   21.6050  -31.3530 C   0  0  0  0  0  0  0  0  0  0  0  0
   -8.5400   20.3470  -31.9720 C   0  0  0  0  0  0  0  0  0  0  0  0
   -7.3020   19.8550  -32.4560 C   0  0  0  0  0  0  0  0  0  0  0  0
   -7.2380   18.4990  -33.1000 C   0  0  0  0  0  0  0  0  0  0  0  0
   -6.2380   18.4840  -34.0550 F   0  0  0  0  0  0  0  0  0  0  0  0
   -6.9680   17.5400  -32.1400 F   0  0  0  0  0  0  0  0  0  0  0  0
   -6.1340   20.6370  -32.3200 C   0  0  0  0  0  0  0  0  0  0  0  0
   -6.2440   21.8960  -31.7160 C   0  0  0  0  0  0  0  0  0  0  0  0
   -3.4936   24.5609  -26.0315 H   0  0  0  0  0  0  0  0  0  0  0  0
   -4.7240   25.6787  -26.7122 H   0  0  0  0  0  0  0  0  0  0  0  0
   -5.0220   23.9073  -26.7122 H   0  0  0  0  0  0  0  0  0  0  0  0
   -3.9600   25.3870  -28.7080 H   0  0  0  0  0  0  0  0  0  0  0  0
   -2.0360   25.6750  -29.9210 H   0  0  0  0  0  0  0  0  0  0  0  0
   -0.7288   23.4027  -29.9285 H   0  0  0  0  0  0  0  0  0  0  0  0
   -0.5895   21.7527  -29.2407 H   0  0  0  0  0  0  0  0  0  0  0  0
   -2.7485   21.3273  -29.7561 H   0  0  0  0  0  0  0  0  0  0  0  0
   -3.2797   22.7501  -28.7968 H   0  0  0  0  0  0  0  0  0  0  0  0
   -3.0840   25.2000  -30.2390 H   0  0  0  0  0  0  0  0  0  0  0  0
   -7.9822   24.2247  -30.1740 H   0  0  0  0  0  0  0  0  0  0  0  0
   -9.5745   21.9902  -30.9701 H   0  0  0  0  0  0  0  0  0  0  0  0
   -9.4488   19.7372  -32.0824 H   0  0  0  0  0  0  0  0  0  0  0  0
   -8.2048   18.2799  -33.5768 H   0  0  0  0  0  0  0  0  0  0  0  0
   -5.1625   20.2668  -32.6793 H   0  0  0  0  0  0  0  0  0  0  0  0
  1  2  1  0
  2  3  1  0
  3  4  2  0
  3  5  1  6
  3  6  1  0
  6  7  1  0
  7  8  1  0
  8  9  1  0
  9 10  1  0
 10 11  2  0
 10 12  1  0
 12 13  1  0
 13 14  1  0
 14 15  1  0
 14 16  2  0
 13 17  2  0
 17 18  1  0
 18 19  2  0
 19 20  1  0
 20 21  2  0
 21 22  1  0
 22 23  1  0
 22 24  1  0
 21 25  1  0
 25 26  2  0
 26 12  1  0
 26 18  1  0
  1 27  1  0
  1 28  1  0
  1 29  1  0
  2 30  1  0
  5 31  1  0
  7 32  1  0
  7 33  1  0
  8 34  1  0
  8 35  1  0
 15 36  1  0
 17 37  1  0
 19 38  1  0
 20 39  1  0
 22 40  1  0
 25 41  1  0
M  CHG  1  15  -1
M  END
>  <UniqueID>  (69) 
66

>  <SMILES>  (69) 
CN[P@](=O)(O)OCCOC(=O)n1c(C([NH-])=O)cc2ccc(C(F)F)cc21

>  <Energy>  (69) 
69.48831430403398

>  <Genealogy>  (69) 
CNP(=O)(O)OCCOC(=O)n1c(C([NH-])=O)cc2ccc(C(F)F)cc21 (protonated)
CN[P@](=O)(O)OCCOC(=O)n1c(C([NH-])=O)cc2ccc(C(F)F)cc21 (chirality)
CN[P@](=O)(O)OCCOC(=O)n1c(C([NH-])=O)cc2ccc(C(F)F)cc21 (3D coordinates assigned)
CN[P@](=O)(O)OCCOC(=O)n1c(C([NH-])=O)cc2ccc(C(F)F)cc21 (optimized conformer: 69.48831430403398 kcal/mol)

>  <smiles>  (69) 
CNP(=O)(O)OCCOC(=O)n1c(C(N)=O)cc2ccc(C(F)F)cc21

>  <score_type>  (69) 
oracle

>  <origin>  (69) 
adg

>  <m_score__min__energy>  (69) 
-10.24

>  <m_primary>  (69) 
energy

$$$$
69:0
     RDKit          3D

 31 33  0  0  0  0  0  0  0  0999 V2000
   -3.1700   22.9110  -28.9060 C   0  0  0  0  0  0  0  0  0  0  0  0
   -2.8060   23.1480  -30.2610 O   0  0  0  0  0  0  0  0  0  0  0  0
   -3.5680   22.6880  -31.3380 C   0  0  0  0  0  0  0  0  0  0  0  0
   -3.0080   22.1250  -32.3190 O   0  0  0  0  0  0  0  0  0  0  0  0
   -4.9970   22.8350  -31.3170 N   0  0  0  0  0  0  0  0  0  0  0  0
   -5.7210   23.9420  -30.9830 C   0  0  0  0  0  0  0  0  0  0  0  0
   -5.1770   25.2020  -30.4340 C   0  0  0  0  0  0  0  0  0  0  0  0
   -3.8760   25.6400  -30.8200 N   0  0  0  0  0  0  0  0  0  0  0  0
   -5.8620   25.9160  -29.6560 O   0  0  0  0  0  0  0  0  0  0  0  0
   -7.0830   23.7020  -31.1500 C   0  0  0  0  0  0  0  0  0  0  0  0
   -7.1730   22.4020  -31.5920 C   0  0  0  0  0  0  0  0  0  0  0  0
   -8.2920   21.6490  -31.9290 C   0  0  0  0  0  0  0  0  0  0  0  0
   -8.0890   20.3360  -32.3860 C   0  0  0  0  0  0  0  0  0  0  0  0
   -6.7800   19.7990  -32.5060 C   0  0  0  0  0  0  0  0  0  0  0  0
   -6.5970   18.4140  -33.0030 C   0  0  0  0  0  0  0  0  0  0  0  0
   -6.5220   17.3350  -32.1960 N   0  0  0  0  0  0  0  0  0  0  0  0
   -6.3600   16.3190  -32.9930 O   0  0  0  0  0  0  0  0  0  0  0  0
   -6.3330   16.7260  -34.2400 C   0  0  0  0  0  0  0  0  0  0  0  0
   -6.4810   18.0600  -34.2990 N   0  0  0  0  0  0  0  0  0  0  0  0
   -5.6670   20.6030  -32.1550 C   0  0  0  0  0  0  0  0  0  0  0  0
   -5.9020   21.9000  -31.6850 C   0  0  0  0  0  0  0  0  0  0  0  0
   -2.4362   23.3888  -28.2403 H   0  0  0  0  0  0  0  0  0  0  0  0
   -4.1677   23.3332  -28.7151 H   0  0  0  0  0  0  0  0  0  0  0  0
   -3.1875   21.8278  -28.7151 H   0  0  0  0  0  0  0  0  0  0  0  0
   -3.0250   25.2980  -30.3210 H   0  0  0  0  0  0  0  0  0  0  0  0
   -7.9108   24.4029  -30.9673 H   0  0  0  0  0  0  0  0  0  0  0  0
   -9.3051   22.0683  -31.8406 H   0  0  0  0  0  0  0  0  0  0  0  0
   -8.9564   19.7152  -32.6547 H   0  0  0  0  0  0  0  0  0  0  0  0
   -6.2071   16.0686  -35.1129 H   0  0  0  0  0  0  0  0  0  0  0  0
   -6.4920   18.6530  -35.1570 H   0  0  0  0  0  0  0  0  0  0  0  0
   -4.6416   20.2163  -32.2498 H   0  0  0  0  0  0  0  0  0  0  0  0
  1  2  1  0
  2  3  1  0
  3  4  2  0
  3  5  1  0
  5  6  1  0
  6  7  1  0
  7  8  1  0
  7  9  2  0
  6 10  2  0
 10 11  1  0
 11 12  2  0
 12 13  1  0
 13 14  2  0
 14 15  1  0
 15 16  2  0
 16 17  1  0
 17 18  1  0
 18 19  2  0
 14 20  1  0
 20 21  2  0
 21  5  1  0
 21 11  1  0
 19 15  1  0
  1 22  1  0
  1 23  1  0
  1 24  1  0
  8 25  1  0
 10 26  1  0
 12 27  1  0
 13 28  1  0
 18 29  1  0
 19 30  1  0
 20 31  1  0
M  CHG  2   8  -1  19   1
M  END
>  <UniqueID>  (70) 
67

>  <SMILES>  (70) 
COC(=O)n1c(C([NH-])=O)cc2ccc(-c3noc[nH+]3)cc21

>  <Energy>  (70) 
106.33348939292274

>  <Genealogy>  (70) 
COC(=O)n1c(C([NH-])=O)cc2ccc(-c3noc[nH+]3)cc21 (protonated)
COC(=O)n1c(C([NH-])=O)cc2ccc(-c3noc[nH+]3)cc21 (3D coordinates assigned)
COC(=O)n1c(C([NH-])=O)cc2ccc(-c3noc[nH+]3)cc21 (optimized conformer: 106.33348939292274 kcal/mol)

>  <smiles>  (70) 
COC(=O)n1c(C(N)=O)cc2ccc(-c3ncon3)cc21

>  <score_type>  (70) 
oracle

>  <origin>  (70) 
adg

>  <m_score__min__energy>  (70) 
-9.5399999999999991

>  <m_primary>  (70) 
energy

$$$$
70:0
     RDKit          3D

 41 43  0  0  0  0  0  0  0  0999 V2000
   -3.5230   25.1740  -30.1220 N   0  0  0  0  0  0  0  0  0  0  0  0
   -4.8880   25.3330  -30.5020 C   0  0  0  0  0  0  0  0  0  0  0  0
   -5.3790   26.4890  -30.5690 O   0  0  0  0  0  0  0  0  0  0  0  0
   -5.7180   24.1400  -30.7750 C   0  0  0  0  0  0  0  0  0  0  0  0
   -7.0770   24.0660  -30.4700 C   0  0  0  0  0  0  0  0  0  0  0  0
   -7.4970   22.8510  -30.9640 C   0  0  0  0  0  0  0  0  0  0  0  0
   -8.7590   22.2640  -30.9460 C   0  0  0  0  0  0  0  0  0  0  0  0
   -8.9010   20.9910  -31.5250 C   0  0  0  0  0  0  0  0  0  0  0  0
   -7.7840   20.3260  -32.0890 C   0  0  0  0  0  0  0  0  0  0  0  0
   -7.9400   18.9710  -32.7190 C   0  0  0  0  0  0  0  0  0  0  0  0
   -6.6360   18.4580  -33.1220 N   0  0  0  0  0  0  0  0  0  0  0  0
   -5.9740   17.4230  -32.5710 C   0  0  0  0  0  0  0  0  0  0  0  0
   -4.8340   17.2510  -33.3270 C   0  0  0  0  0  0  0  0  0  0  0  0
   -3.7280   16.2730  -33.0830 C   0  0  0  0  0  0  0  0  0  0  0  0
   -2.5880   16.6460  -33.8080 O   0  0  0  0  0  0  0  0  0  0  0  0
   -4.8400   18.1860  -34.2970 N   0  0  0  0  0  0  0  0  0  0  0  0
   -5.9470   18.9010  -34.1640 N   0  0  0  0  0  0  0  0  0  0  0  0
   -6.5190   20.9550  -32.0900 C   0  0  0  0  0  0  0  0  0  0  0  0
   -6.4130   22.2340  -31.5320 C   0  0  0  0  0  0  0  0  0  0  0  0
   -5.3130   23.0110  -31.4240 N   0  0  0  0  0  0  0  0  0  0  0  0
   -3.9960   22.6790  -31.8900 C   0  0  0  0  0  0  0  0  0  0  0  0
   -2.9820   23.0620  -31.2440 O   0  0  0  0  0  0  0  0  0  0  0  0
   -3.8470   21.9060  -33.0450 O   0  0  0  0  0  0  0  0  0  0  0  0
   -2.5950   21.3820  -33.4690 C   0  0  0  0  0  0  0  0  0  0  0  0
   -2.6550   19.8920  -33.4370 C   0  0  0  0  0  0  0  0  0  0  0  0
   -2.9240   19.2910  -32.3630 O   0  0  0  0  0  0  0  0  0  0  0  0
   -2.3620   19.1600  -34.5800 O   0  0  0  0  0  0  0  0  0  0  0  0
   -2.7580   25.2410  -30.8300 H   0  0  0  0  0  0  0  0  0  0  0  0
   -7.6845   24.8185  -29.9460 H   0  0  0  0  0  0  0  0  0  0  0  0
   -9.6183   22.7801  -30.4929 H   0  0  0  0  0  0  0  0  0  0  0  0
   -9.8884   20.5065  -31.5404 H   0  0  0  0  0  0  0  0  0  0  0  0
   -8.3947   18.2813  -31.9927 H   0  0  0  0  0  0  0  0  0  0  0  0
   -8.5855   19.0560  -33.6056 H   0  0  0  0  0  0  0  0  0  0  0  0
   -6.2809   16.8336  -31.6944 H   0  0  0  0  0  0  0  0  0  0  0  0
   -3.4874   16.2559  -32.0098 H   0  0  0  0  0  0  0  0  0  0  0  0
   -4.0519   15.2737  -33.4094 H   0  0  0  0  0  0  0  0  0  0  0  0
   -2.4460   17.6130  -33.6360 H   0  0  0  0  0  0  0  0  0  0  0  0
   -4.1150   18.3410  -35.0310 H   0  0  0  0  0  0  0  0  0  0  0  0
   -5.6395   20.4521  -32.5186 H   0  0  0  0  0  0  0  0  0  0  0  0
   -2.3818   21.7204  -34.4937 H   0  0  0  0  0  0  0  0  0  0  0  0
   -1.7982   21.7359  -32.7983 H   0  0  0  0  0  0  0  0  0  0  0  0
  1  2  1  0
  2  3  2  0
  2  4  1  0
  4  5  2  0
  5  6  1  0
  6  7  2  0
  7  8  1  0
  8  9  2  0
  9 10  1  0
 10 11  1  0
 11 12  1  0
 12 13  2  0
 13 14  1  0
 14 15  1  0
 13 16  1  0
 16 17  2  0
  9 18  1  0
 18 19  2  0
 19 20  1  0
 20 21  1  0
 21 22  2  0
 21 23  1  0
 23 24  1  0
 24 25  1  0
 25 26  2  0
 25 27  1  0
 20  4  1  0
 19  6  1  0
 17 11  1  0
  1 28  1  0
  5 29  1  0
  7 30  1  0
  8 31  1  0
 10 32  1  0
 10 33  1  0
 12 34  1  0
 14 35  1  0
 14 36  1  0
 15 37  1  0
 16 38  1  0
 18 39  1  0
 24 40  1  0
 24 41  1  0
M  CHG  3   1  -1  16   1  27  -1
M  END
>  <UniqueID>  (71) 
68

>  <SMILES>  (71) 
[NH-]C(=O)c1cc2ccc(Cn3cc(CO)[nH+]n3)cc2n1C(=O)OCC(=O)[O-]

>  <Energy>  (71) 
110.98423241672512

>  <Genealogy>  (71) 
[NH-]C(=O)c1cc2ccc(Cn3cc(CO)[nH+]n3)cc2n1C(=O)OCC(=O)[O-] (protonated)
[NH-]C(=O)c1cc2ccc(Cn3cc(CO)[nH+]n3)cc2n1C(=O)OCC(=O)[O-] (3D coordinates assigned)
[NH-]C(=O)c1cc2ccc(Cn3cc(CO)[nH+]n3)cc2n1C(=O)OCC(=O)[O-] (optimized conformer: 110.98423241672512 kcal/mol)

>  <smiles>  (71) 
NC(=O)c1cc2ccc(Cn3cc(CO)nn3)cc2n1C(=O)OCC(=O)O

>  <score_type>  (71) 
oracle

>  <origin>  (71) 
adg

>  <m_score__min__energy>  (71) 
-9.0700000000000003

>  <m_primary>  (71) 
energy

$$$$
71:0
     RDKit          3D

 37 38  0  0  0  0  0  0  0  0999 V2000
   -6.6790   17.1890  -32.3410 C   0  0  0  0  0  0  0  0  0  0  0  0
   -6.3340   18.3590  -33.1610 N   0  0  0  0  0  0  0  0  0  0  0  0
   -5.7450   18.1450  -34.4890 C   0  0  0  0  0  0  0  0  0  0  0  0
   -6.5750   19.7020  -32.6670 C   0  0  0  0  0  0  0  0  0  0  0  0
   -7.8970   20.2290  -32.6010 C   0  0  0  0  0  0  0  0  0  0  0  0
   -8.1360   21.5290  -32.1270 C   0  0  0  0  0  0  0  0  0  0  0  0
   -7.0470   22.2860  -31.7140 C   0  0  0  0  0  0  0  0  0  0  0  0
   -6.9910   23.5770  -31.2380 C   0  0  0  0  0  0  0  0  0  0  0  0
   -5.6410   23.8250  -30.9970 C   0  0  0  0  0  0  0  0  0  0  0  0
   -5.1290   25.0880  -30.4260 C   0  0  0  0  0  0  0  0  0  0  0  0
   -3.8800   25.6330  -30.8460 N   0  0  0  0  0  0  0  0  0  0  0  0
   -5.7900   25.6820  -29.5320 O   0  0  0  0  0  0  0  0  0  0  0  0
   -4.8940   22.7280  -31.3100 N   0  0  0  0  0  0  0  0  0  0  0  0
   -3.4650   22.5970  -31.2720 C   0  0  0  0  0  0  0  0  0  0  0  0
   -2.8260   22.4090  -32.3420 O   0  0  0  0  0  0  0  0  0  0  0  0
   -2.7380   22.6590  -29.9970 C   0  0  0  0  0  0  0  0  0  0  0  0
   -1.8170   21.8320  -29.7580 O   0  0  0  0  0  0  0  0  0  0  0  0
   -3.0740   23.6410  -29.0590 O   0  0  0  0  0  0  0  0  0  0  0  0
   -2.1580   24.1320  -28.0820 C   0  0  0  0  0  0  0  0  0  0  0  0
   -1.0270   24.8490  -28.7490 C   0  0  0  0  0  0  0  0  0  0  0  0
   -1.2220   25.9600  -29.3090 O   0  0  0  0  0  0  0  0  0  0  0  0
    0.2510   24.3090  -28.7190 O   0  0  0  0  0  0  0  0  0  0  0  0
   -5.7690   21.7990  -31.7520 C   0  0  0  0  0  0  0  0  0  0  0  0
   -5.4950   20.5180  -32.2410 C   0  0  0  0  0  0  0  0  0  0  0  0
   -6.6014   17.4521  -31.2757 H   0  0  0  0  0  0  0  0  0  0  0  0
   -7.7084   16.8737  -32.5668 H   0  0  0  0  0  0  0  0  0  0  0  0
   -5.9854   16.3656  -32.5668 H   0  0  0  0  0  0  0  0  0  0  0  0
   -4.7164   17.7713  -34.3780 H   0  0  0  0  0  0  0  0  0  0  0  0
   -6.3454   17.4076  -35.0419 H   0  0  0  0  0  0  0  0  0  0  0  0
   -5.7320   19.0959  -35.0419 H   0  0  0  0  0  0  0  0  0  0  0  0
   -8.7442   19.6075  -32.9266 H   0  0  0  0  0  0  0  0  0  0  0  0
   -9.1569   21.9364  -32.0839 H   0  0  0  0  0  0  0  0  0  0  0  0
   -7.8336   24.2666  -31.0812 H   0  0  0  0  0  0  0  0  0  0  0  0
   -2.9830   25.3050  -30.4250 H   0  0  0  0  0  0  0  0  0  0  0  0
   -2.6821   24.8265  -27.4090 H   0  0  0  0  0  0  0  0  0  0  0  0
   -1.7567   23.2839  -27.5078 H   0  0  0  0  0  0  0  0  0  0  0  0
   -4.4601   20.1491  -32.2946 H   0  0  0  0  0  0  0  0  0  0  0  0
  1  2  1  0
  2  3  1  0
  2  4  1  0
  4  5  2  0
  5  6  1  0
  6  7  2  0
  7  8  1  0
  8  9  2  0
  9 10  1  0
 10 11  1  0
 10 12  2  0
  9 13  1  0
 13 14  1  0
 14 15  2  0
 14 16  1  0
 16 17  2  0
 16 18  1  0
 18 19  1  0
 19 20  1  0
 20 21  2  0
 20 22  1  0
 13 23  1  0
 23 24  2  0
 24  4  1  0
 23  7  1  0
  1 25  1  0
  1 26  1  0
  1 27  1  0
  3 28  1  0
  3 29  1  0
  3 30  1  0
  5 31  1  0
  6 32  1  0
  8 33  1  0
 11 34  1  0
 19 35  1  0
 19 36  1  0
 24 37  1  0
M  CHG  2  11  -1  22  -1
M  END
>  <UniqueID>  (72) 
69

>  <SMILES>  (72) 
CN(C)c1ccc2cc(C([NH-])=O)n(C(=O)C(=O)OCC(=O)[O-])c2c1

>  <Energy>  (72) 
74.83448682091813

>  <Genealogy>  (72) 
CN(C)c1ccc2cc(C([NH-])=O)n(C(=O)C(=O)OCC(=O)[O-])c2c1 (protonated)
CN(C)c1ccc2cc(C([NH-])=O)n(C(=O)C(=O)OCC(=O)[O-])c2c1 (3D coordinates assigned)
CN(C)c1ccc2cc(C([NH-])=O)n(C(=O)C(=O)OCC(=O)[O-])c2c1 (optimized conformer: 74.83448682091813 kcal/mol)

>  <smiles>  (72) 
CN(C)c1ccc2cc(C(N)=O)n(C(=O)C(=O)OCC(=O)O)c2c1

>  <score_type>  (72) 
oracle

>  <origin>  (72) 
adg

>  <m_score__min__energy>  (72) 
-11.890000000000001

>  <m_primary>  (72) 
energy

$$$$
72:0
     RDKit          3D

 46 48  0  0  0  0  0  0  0  0999 V2000
   -2.6570   18.2150  -33.3630 C   0  0  0  0  0  0  0  0  0  0  0  0
   -3.2150   19.3920  -33.9050 O   0  0  0  0  0  0  0  0  0  0  0  0
   -2.2690   20.4460  -33.8920 C   0  0  0  0  0  0  0  0  0  0  0  0
   -2.1320   21.0030  -32.4700 C   0  0  1  0  0  0  0  0  0  0  0  0
   -0.6550   21.1330  -32.0840 C   0  0  0  0  0  0  0  0  0  0  0  0
   -2.7690   22.2790  -32.4070 O   0  0  0  0  0  0  0  0  0  0  0  0
   -3.4890   22.7350  -31.2970 C   0  0  0  0  0  0  0  0  0  0  0  0
   -2.8890   23.0390  -30.2300 O   0  0  0  0  0  0  0  0  0  0  0  0
   -4.9210   22.8230  -31.3660 N   0  0  0  0  0  0  0  0  0  0  0  0
   -5.7000   23.9090  -31.0970 C   0  0  0  0  0  0  0  0  0  0  0  0
   -5.2370   25.1840  -30.5100 C   0  0  0  0  0  0  0  0  0  0  0  0
   -3.9340   25.6740  -30.8170 N   0  0  0  0  0  0  0  0  0  0  0  0
   -5.9940   25.8660  -29.7710 O   0  0  0  0  0  0  0  0  0  0  0  0
   -7.0370   23.6350  -31.3760 C   0  0  0  0  0  0  0  0  0  0  0  0
   -7.0540   22.3340  -31.8260 C   0  0  0  0  0  0  0  0  0  0  0  0
   -8.1220   21.5490  -32.2500 C   0  0  0  0  0  0  0  0  0  0  0  0
   -7.8470   20.2440  -32.6910 C   0  0  0  0  0  0  0  0  0  0  0  0
   -6.5160   19.7550  -32.7170 C   0  0  0  0  0  0  0  0  0  0  0  0
   -6.2520   18.3780  -33.1880 C   0  0  0  0  0  0  0  0  0  0  0  0
   -6.1000   18.0040  -34.5130 C   0  0  0  0  0  0  0  0  0  0  0  0
   -5.8760   16.6410  -34.4750 C   0  0  0  0  0  0  0  0  0  0  0  0
   -5.8840   16.2340  -33.1930 N   0  0  0  0  0  0  0  0  0  0  0  0
   -6.0980   17.2800  -32.4110 N   0  0  0  0  0  0  0  0  0  0  0  0
   -6.1290   17.2010  -30.9530 C   0  0  0  0  0  0  0  0  0  0  0  0
   -5.4600   20.5770  -32.2620 C   0  0  0  0  0  0  0  0  0  0  0  0
   -5.7660   21.8670  -31.8130 C   0  0  0  0  0  0  0  0  0  0  0  0
   -2.6827   18.2691  -32.2646 H   0  0  0  0  0  0  0  0  0  0  0  0
   -3.2382   17.3443  -33.7009 H   0  0  0  0  0  0  0  0  0  0  0  0
   -1.6151   18.1138  -33.7009 H   0  0  0  0  0  0  0  0  0  0  0  0
   -1.2940   20.0659  -34.2309 H   0  0  0  0  0  0  0  0  0  0  0  0
   -2.6085   21.2472  -34.5649 H   0  0  0  0  0  0  0  0  0  0  0  0
   -2.6128   20.3124  -31.7616 H   0  0  0  0  0  0  0  0  0  0  0  0
   -0.5618   21.1412  -30.9880 H   0  0  0  0  0  0  0  0  0  0  0  0
   -0.0926   20.2809  -32.4934 H   0  0  0  0  0  0  0  0  0  0  0  0
   -0.2501   22.0703  -32.4934 H   0  0  0  0  0  0  0  0  0  0  0  0
   -3.0810   25.1980  -30.4520 H   0  0  0  0  0  0  0  0  0  0  0  0
   -7.8955   24.3131  -31.2613 H   0  0  0  0  0  0  0  0  0  0  0  0
   -9.1506   21.9387  -32.2401 H   0  0  0  0  0  0  0  0  0  0  0  0
   -8.6721   19.5949  -33.0194 H   0  0  0  0  0  0  0  0  0  0  0  0
   -6.1473   18.6508  -35.4015 H   0  0  0  0  0  0  0  0  0  0  0  0
   -5.7170   15.9942  -35.3505 H   0  0  0  0  0  0  0  0  0  0  0  0
   -5.7330   15.2560  -32.8590 H   0  0  0  0  0  0  0  0  0  0  0  0
   -5.7586   18.1450  -30.5267 H   0  0  0  0  0  0  0  0  0  0  0  0
   -7.1620   17.0274  -30.6171 H   0  0  0  0  0  0  0  0  0  0  0  0
   -5.4898   16.3712  -30.6171 H   0  0  0  0  0  0  0  0  0  0  0  0
   -4.4224   20.2117  -32.2608 H   0  0  0  0  0  0  0  0  0  0  0  0
  1  2  1  0
  2  3  1  0
  3  4  1  0
  4  5  1  0
  4  6  1  0
  6  7  1  0
  7  8  2  0
  7  9  1  0
  9 10  1  0
 10 11  1  0
 11 12  1  0
 11 13  2  0
 10 14  2  0
 14 15  1  0
 15 16  2  0
 16 17  1  0
 17 18  2  0
 18 19  1  0
 19 20  2  0
 20 21  1  0
 21 22  2  0
 22 23  1  0
 23 24  1  0
 18 25  1  0
 25 26  2  0
 26  9  1  0
 26 15  1  0
 23 19  1  0
  1 27  1  0
  1 28  1  0
  1 29  1  0
  3 30  1  0
  3 31  1  0
  4 32  1  1
  5 33  1  0
  5 34  1  0
  5 35  1  0
 12 36  1  0
 14 37  1  0
 16 38  1  0
 17 39  1  0
 20 40  1  0
 21 41  1  0
 22 42  1  0
 24 43  1  0
 24 44  1  0
 24 45  1  0
 25 46  1  0
M  CHG  2  12  -1  22   1
M  END
>  <UniqueID>  (73) 
70

>  <SMILES>  (73) 
COC[C@@H](C)OC(=O)n1c(C([NH-])=O)cc2ccc(-c3cc[nH+]n3C)cc21

>  <Energy>  (73) 
117.71097170801912

>  <Genealogy>  (73) 
COCC(C)OC(=O)n1c(C([NH-])=O)cc2ccc(-c3cc[nH+]n3C)cc21 (protonated)
COC[C@@H](C)OC(=O)n1c(C([NH-])=O)cc2ccc(-c3cc[nH+]n3C)cc21 (chirality)
COC[C@@H](C)OC(=O)n1c(C([NH-])=O)cc2ccc(-c3cc[nH+]n3C)cc21 (3D coordinates assigned)
COC[C@@H](C)OC(=O)n1c(C([NH-])=O)cc2ccc(-c3cc[nH+]n3C)cc21 (optimized conformer: 117.71097170801912 kcal/mol)

>  <smiles>  (73) 
COCC(C)OC(=O)n1c(C(N)=O)cc2ccc(-c3ccnn3C)cc21

>  <score_type>  (73) 
oracle

>  <origin>  (73) 
adg

>  <m_score__min__energy>  (73) 
-10.74

>  <m_primary>  (73) 
energy

$$$$
73:0
     RDKit          3D

 45 47  0  0  0  0  0  0  0  0999 V2000
   -8.5610   23.4440  -31.9880 C   0  0  0  0  0  0  0  0  0  0  0  0
   -6.9010   23.0840  -31.4540 S   0  0  0  0  0  0  0  0  0  0  0  0
   -6.0670   22.7480  -32.6580 O   0  0  0  0  0  0  0  0  0  0  0  0
   -6.8950   21.9020  -30.5270 O   0  0  0  0  0  0  0  0  0  0  0  0
   -6.2090   24.4680  -30.6690 N   0  0  0  0  0  0  0  0  0  0  0  0
   -4.8270   24.6630  -30.3440 C   0  0  0  0  0  0  0  0  0  0  0  0
   -4.2400   25.6710  -30.8180 O   0  0  0  0  0  0  0  0  0  0  0  0
   -4.0610   23.7390  -29.4790 C   0  0  0  0  0  0  0  0  0  0  0  0
   -4.3760   23.5740  -28.2720 O   0  0  0  0  0  0  0  0  0  0  0  0
   -2.9500   23.0100  -30.0140 N   0  0  0  0  0  0  0  0  0  0  0  0
   -1.6220   23.2810  -29.8810 C   0  0  0  0  0  0  0  0  0  0  0  0
   -1.0470   24.3790  -29.0780 C   0  0  0  0  0  0  0  0  0  0  0  0
   -1.7450   25.6180  -28.9620 N   0  0  0  0  0  0  0  0  0  0  0  0
    0.0650   24.2420  -28.5030 O   0  0  0  0  0  0  0  0  0  0  0  0
   -0.8640   22.3380  -30.5740 C   0  0  0  0  0  0  0  0  0  0  0  0
   -1.7780   21.4720  -31.1320 C   0  0  0  0  0  0  0  0  0  0  0  0
   -1.5860   20.3400  -31.9180 C   0  0  0  0  0  0  0  0  0  0  0  0
   -2.7230   19.6390  -32.3540 C   0  0  0  0  0  0  0  0  0  0  0  0
   -4.0270   20.0790  -32.0040 C   0  0  0  0  0  0  0  0  0  0  0  0
   -5.1860   19.3460  -32.4480 N   0  0  0  0  0  0  0  0  0  0  0  0
   -5.8590   19.6890  -33.7080 C   0  0  0  0  0  0  0  0  0  0  0  0
   -7.3310   20.0440  -33.4490 C   0  0  0  0  0  0  0  0  0  0  0  0
   -7.9810   19.1890  -32.3380 C   0  0  0  0  0  0  0  0  0  0  0  0
   -7.1780   17.9200  -32.0220 C   0  0  0  0  0  0  0  0  0  0  0  0
   -5.7470   18.2840  -31.5970 C   0  0  0  0  0  0  0  0  0  0  0  0
   -4.1790   21.2280  -31.1950 C   0  0  0  0  0  0  0  0  0  0  0  0
   -3.0290   21.9000  -30.7740 C   0  0  0  0  0  0  0  0  0  0  0  0
   -9.2068   23.5841  -31.1086 H   0  0  0  0  0  0  0  0  0  0  0  0
   -8.5605   24.3629  -32.5926 H   0  0  0  0  0  0  0  0  0  0  0  0
   -8.9412   22.6074  -32.5926 H   0  0  0  0  0  0  0  0  0  0  0  0
   -2.7490   25.6950  -29.2370 H   0  0  0  0  0  0  0  0  0  0  0  0
    0.2320   22.2949  -30.6574 H   0  0  0  0  0  0  0  0  0  0  0  0
   -0.5745   20.0040  -32.1899 H   0  0  0  0  0  0  0  0  0  0  0  0
   -2.6015   18.7385  -32.9739 H   0  0  0  0  0  0  0  0  0  0  0  0
   -5.3532   20.5518  -34.1660 H   0  0  0  0  0  0  0  0  0  0  0  0
   -5.8144   18.8224  -34.3840 H   0  0  0  0  0  0  0  0  0  0  0  0
   -7.3879   21.1020  -33.1534 H   0  0  0  0  0  0  0  0  0  0  0  0
   -7.8826   19.8425  -34.3791 H   0  0  0  0  0  0  0  0  0  0  0  0
   -8.0539   19.7962  -31.4237 H   0  0  0  0  0  0  0  0  0  0  0  0
   -8.9720   18.8746  -32.6972 H   0  0  0  0  0  0  0  0  0  0  0  0
   -7.6709   17.3733  -31.2046 H   0  0  0  0  0  0  0  0  0  0  0  0
   -7.1336   17.2918  -32.9239 H   0  0  0  0  0  0  0  0  0  0  0  0
   -5.7615   18.6321  -30.5536 H   0  0  0  0  0  0  0  0  0  0  0  0
   -5.1171   17.3883  -31.7019 H   0  0  0  0  0  0  0  0  0  0  0  0
   -5.1782   21.5842  -30.9041 H   0  0  0  0  0  0  0  0  0  0  0  0
  1  2  1  0
  2  3  2  0
  2  4  2  0
  2  5  1  0
  5  6  1  0
  6  7  2  0
  6  8  1  0
  8  9  2  0
  8 10  1  0
 10 11  1  0
 11 12  1  0
 12 13  1  0
 12 14  2  0
 11 15  2  0
 15 16  1  0
 16 17  2  0
 17 18  1  0
 18 19  2  0
 19 20  1  0
 20 21  1  0
 21 22  1  0
 22 23  1  0
 23 24  1  0
 24 25  1  0
 19 26  1  0
 26 27  2  0
 27 10  1  0
 27 16  1  0
 25 20  1  0
  1 28  1  0
  1 29  1  0
  1 30  1  0
 13 31  1  0
 15 32  1  0
 17 33  1  0
 18 34  1  0
 21 35  1  0
 21 36  1  0
 22 37  1  0
 22 38  1  0
 23 39  1  0
 23 40  1  0
 24 41  1  0
 24 42  1  0
 25 43  1  0
 25 44  1  0
 26 45  1  0
M  CHG  2   5  -1  13  -1
M  END
>  <UniqueID>  (74) 
71

>  <SMILES>  (74) 
CS(=O)(=O)[N-]C(=O)C(=O)n1c(C([NH-])=O)cc2ccc(N3CCCCC3)cc21

>  <Energy>  (74) 
92.03144513028295

>  <Genealogy>  (74) 
CS(=O)(=O)[N-]C(=O)C(=O)n1c(C([NH-])=O)cc2ccc(N3CCCCC3)cc21 (protonated)
CS(=O)(=O)[N-]C(=O)C(=O)n1c(C([NH-])=O)cc2ccc(N3CCCCC3)cc21 (3D coordinates assigned)
CS(=O)(=O)[N-]C(=O)C(=O)n1c(C([NH-])=O)cc2ccc(N3CCCCC3)cc21 (nonaromatic ring conformer: 92.03144513028295 kcal/mol)

>  <smiles>  (74) 
CS(=O)(=O)NC(=O)C(=O)n1c(C(N)=O)cc2ccc(N3CCCCC3)cc21

>  <score_type>  (74) 
oracle

>  <origin>  (74) 
adg

>  <m_score__min__energy>  (74) 
-13.09

>  <m_primary>  (74) 
energy

$$$$
74:0
     RDKit          3D

 38 39  0  0  0  0  0  0  0  0999 V2000
   -7.5340   18.3340  -32.5850 C   0  0  0  0  0  0  0  0  0  0  0  0
   -7.5990   19.7870  -32.2160 C   0  0  0  0  0  0  0  0  0  0  0  0
   -8.8160   20.5000  -32.3470 C   0  0  0  0  0  0  0  0  0  0  0  0
   -8.8830   21.8660  -32.0270 C   0  0  0  0  0  0  0  0  0  0  0  0
   -7.7160   22.4940  -31.6000 C   0  0  0  0  0  0  0  0  0  0  0  0
   -7.5030   23.7950  -31.2040 C   0  0  0  0  0  0  0  0  0  0  0  0
   -6.1500   23.8640  -30.8750 C   0  0  0  0  0  0  0  0  0  0  0  0
   -5.4760   25.1110  -30.4560 C   0  0  0  0  0  0  0  0  0  0  0  0
   -4.0630   25.2570  -30.5720 N   0  0  0  0  0  0  0  0  0  0  0  0
   -6.1600   26.0760  -30.0220 O   0  0  0  0  0  0  0  0  0  0  0  0
   -5.5530   22.6530  -31.0590 N   0  0  0  0  0  0  0  0  0  0  0  0
   -4.1950   22.2880  -30.7670 C   0  0  0  0  0  0  0  0  0  0  0  0
   -3.5010   21.7160  -31.6510 O   0  0  0  0  0  0  0  0  0  0  0  0
   -3.6380   22.5790  -29.4760 N   0  0  0  0  0  0  0  0  0  0  0  0
   -2.2620   22.3810  -29.1280 C   0  0  0  0  0  0  0  0  0  0  0  0
   -1.4390   21.9420  -29.9780 O   0  0  0  0  0  0  0  0  0  0  0  0
   -1.8410   22.6870  -27.8280 O   0  0  0  0  0  0  0  0  0  0  0  0
   -1.6020   24.0190  -27.3720 C   0  0  2  0  0  0  0  0  0  0  0  0
   -2.9200   24.6450  -26.9020 C   0  0  0  0  0  0  0  0  0  0  0  0
   -3.8970   24.5830  -27.9080 O   0  0  0  0  0  0  0  0  0  0  0  0
   -0.9860   24.8460  -28.4650 C   0  0  0  0  0  0  0  0  0  0  0  0
   -1.6200   25.8180  -28.9550 O   0  0  0  0  0  0  0  0  0  0  0  0
    0.2640   24.5160  -28.9730 O   0  0  0  0  0  0  0  0  0  0  0  0
   -6.5230   21.8250  -31.5010 C   0  0  0  0  0  0  0  0  0  0  0  0
   -6.4320   20.4610  -31.7940 C   0  0  0  0  0  0  0  0  0  0  0  0
   -7.5067   17.7242  -31.6699 H   0  0  0  0  0  0  0  0  0  0  0  0
   -8.4211   18.0662  -33.1778 H   0  0  0  0  0  0  0  0  0  0  0  0
   -6.6266   18.1465  -33.1778 H   0  0  0  0  0  0  0  0  0  0  0  0
   -9.7171   19.9789  -32.7027 H   0  0  0  0  0  0  0  0  0  0  0  0
   -9.8282   22.4224  -32.1111 H   0  0  0  0  0  0  0  0  0  0  0  0
   -8.2430   24.6075  -31.1571 H   0  0  0  0  0  0  0  0  0  0  0  0
   -3.4980   25.6640  -29.7930 H   0  0  0  0  0  0  0  0  0  0  0  0
   -4.2750   22.9570  -28.7380 H   0  0  0  0  0  0  0  0  0  0  0  0
   -0.8977   23.9894  -26.5275 H   0  0  0  0  0  0  0  0  0  0  0  0
   -3.2808   24.1003  -26.0170 H   0  0  0  0  0  0  0  0  0  0  0  0
   -2.7369   25.7019  -26.6580 H   0  0  0  0  0  0  0  0  0  0  0  0
   -3.6950   25.3140  -28.5490 H   0  0  0  0  0  0  0  0  0  0  0  0
   -5.4755   19.9263  -31.6982 H   0  0  0  0  0  0  0  0  0  0  0  0
  1  2  1  0
  2  3  2  0
  3  4  1  0
  4  5  2  0
  5  6  1  0
  6  7  2  0
  7  8  1  0
  8  9  1  0
  8 10  2  0
  7 11  1  0
 11 12  1  0
 12 13  2  0
 12 14  1  0
 14 15  1  0
 15 16  2  0
 15 17  1  0
 17 18  1  0
 18 19  1  0
 19 20  1  0
 18 21  1  0
 21 22  2  0
 21 23  1  0
 11 24  1  0
 24 25  2  0
 25  2  1  0
 24  5  1  0
  1 26  1  0
  1 27  1  0
  1 28  1  0
  3 29  1  0
  4 30  1  0
  6 31  1  0
  9 32  1  0
 14 33  1  0
 18 34  1  1
 19 35  1  0
 19 36  1  0
 20 37  1  0
 25 38  1  0
M  CHG  2   9  -1  23  -1
M  END
>  <UniqueID>  (75) 
72

>  <SMILES>  (75) 
Cc1ccc2cc(C([NH-])=O)n(C(=O)NC(=O)O[C@H](CO)C(=O)[O-])c2c1

>  <Energy>  (75) 
73.25585331358958

>  <Genealogy>  (75) 
Cc1ccc2cc(C([NH-])=O)n(C(=O)NC(=O)OC(CO)C(=O)[O-])c2c1 (protonated)
Cc1ccc2cc(C([NH-])=O)n(C(=O)NC(=O)O[C@H](CO)C(=O)[O-])c2c1 (chirality)
Cc1ccc2cc(C([NH-])=O)n(C(=O)NC(=O)O[C@H](CO)C(=O)[O-])c2c1 (3D coordinates assigned)
Cc1ccc2cc(C([NH-])=O)n(C(=O)NC(=O)O[C@H](CO)C(=O)[O-])c2c1 (optimized conformer: 73.25585331358958 kcal/mol)

>  <smiles>  (75) 
Cc1ccc2cc(C(N)=O)n(C(=O)NC(=O)OC(CO)C(=O)O)c2c1

>  <score_type>  (75) 
oracle

>  <origin>  (75) 
adg

>  <m_score__min__energy>  (75) 
-12.25

>  <m_primary>  (75) 
energy

$$$$
75:0
     RDKit          3D

 31 32  0  0  0  0  0  0  0  0999 V2000
   -5.8960   17.9150  -32.6000 C   0  0  0  0  0  0  0  0  0  0  0  0
   -6.3210   19.3300  -32.3430 C   0  0  0  0  0  0  0  0  0  0  0  0
   -7.6710   19.7070  -32.5550 C   0  0  0  0  0  0  0  0  0  0  0  0
   -8.0920   21.0260  -32.3140 C   0  0  0  0  0  0  0  0  0  0  0  0
   -7.1490   21.9340  -31.8440 C   0  0  0  0  0  0  0  0  0  0  0  0
   -7.2810   23.2670  -31.5180 C   0  0  0  0  0  0  0  0  0  0  0  0
   -6.0120   23.6730  -31.1090 C   0  0  0  0  0  0  0  0  0  0  0  0
   -5.6940   25.0260  -30.6080 C   0  0  0  0  0  0  0  0  0  0  0  0
   -4.4030   25.5830  -30.8400 N   0  0  0  0  0  0  0  0  0  0  0  0
   -6.5640   25.7090  -30.0010 O   0  0  0  0  0  0  0  0  0  0  0  0
   -5.1420   22.6300  -31.1560 N   0  0  0  0  0  0  0  0  0  0  0  0
   -3.7310   22.6610  -30.9010 C   0  0  0  0  0  0  0  0  0  0  0  0
   -2.9380   22.3350  -31.8270 O   0  0  0  0  0  0  0  0  0  0  0  0
   -3.2280   23.0840  -29.6140 N   0  0  0  0  0  0  0  0  0  0  0  0
   -3.8900   22.6050  -28.3950 C   0  0  0  0  0  0  0  0  0  0  0  0
   -2.0160   23.8650  -29.5120 C   0  0  0  0  0  0  0  0  0  0  0  0
   -0.8900   23.3030  -29.5710 O   0  0  0  0  0  0  0  0  0  0  0  0
   -2.0660   25.2420  -29.3410 O   0  0  0  0  0  0  0  0  0  0  0  0
   -5.8460   21.5780  -31.6150 C   0  0  0  0  0  0  0  0  0  0  0  0
   -5.3930   20.2790  -31.8640 C   0  0  0  0  0  0  0  0  0  0  0  0
   -5.7410   17.3988  -31.6411 H   0  0  0  0  0  0  0  0  0  0  0  0
   -6.6778   17.3958  -33.1737 H   0  0  0  0  0  0  0  0  0  0  0  0
   -4.9575   17.9125  -33.1737 H   0  0  0  0  0  0  0  0  0  0  0  0
   -8.3958   18.9602  -32.9114 H   0  0  0  0  0  0  0  0  0  0  0  0
   -9.1340   21.3306  -32.4914 H   0  0  0  0  0  0  0  0  0  0  0  0
   -8.1932   23.8795  -31.5697 H   0  0  0  0  0  0  0  0  0  0  0  0
   -3.8670   26.0330  -30.0670 H   0  0  0  0  0  0  0  0  0  0  0  0
   -3.3575   22.9903  -27.5130 H   0  0  0  0  0  0  0  0  0  0  0  0
   -4.9309   22.9605  -28.3792 H   0  0  0  0  0  0  0  0  0  0  0  0
   -3.8779   21.5052  -28.3792 H   0  0  0  0  0  0  0  0  0  0  0  0
   -4.3420   20.0042  -31.6913 H   0  0  0  0  0  0  0  0  0  0  0  0
  1  2  1  0
  2  3  2  0
  3  4  1  0
  4  5  2  0
  5  6  1  0
  6  7  2  0
  7  8  1  0
  8  9  1  0
  8 10  2  0
  7 11  1  0
 11 12  1  0
 12 13  2  0
 12 14  1  0
 14 15  1  0
 14 16  1  0
 16 17  2  0
 16 18  1  0
 11 19  1  0
 19 20  2  0
 20  2  1  0
 19  5  1  0
  1 21  1  0
  1 22  1  0
  1 23  1  0
  3 24  1  0
  4 25  1  0
  6 26  1  0
  9 27  1  0
 15 28  1  0
 15 29  1  0
 15 30  1  0
 20 31  1  0
M  CHG  2   9  -1  18  -1
M  END
>  <UniqueID>  (76) 
73

>  <SMILES>  (76) 
Cc1ccc2cc(C([NH-])=O)n(C(=O)N(C)C(=O)[O-])c2c1

>  <Energy>  (76) 
71.79926684770595

>  <Genealogy>  (76) 
Cc1ccc2cc(C([NH-])=O)n(C(=O)N(C)C(=O)[O-])c2c1 (protonated)
Cc1ccc2cc(C([NH-])=O)n(C(=O)N(C)C(=O)[O-])c2c1 (3D coordinates assigned)
Cc1ccc2cc(C([NH-])=O)n(C(=O)N(C)C(=O)[O-])c2c1 (optimized conformer: 71.79926684770595 kcal/mol)

>  <smiles>  (76) 
Cc1ccc2cc(C(N)=O)n(C(=O)N(C)C(=O)O)c2c1

>  <score_type>  (76) 
oracle

>  <origin>  (76) 
adg

>  <m_score__min__energy>  (76) 
-11.130000000000001

>  <m_primary>  (76) 
energy

$$$$
76:0
     RDKit          3D

 51 53  0  0  0  0  0  0  0  0999 V2000
   -1.0440   21.6100  -31.4200 C   0  0  0  0  0  0  0  0  0  0  0  0
   -0.7490   21.1950  -32.8260 C   0  0  0  0  0  0  0  0  0  0  0  0
    0.4380   21.4170  -33.4230 N   0  0  0  0  0  0  0  0  0  0  0  0
    0.3570   20.9510  -34.6580 N   0  0  0  0  0  0  0  0  0  0  0  0
    1.4280   21.0670  -35.6440 C   0  0  0  0  0  0  0  0  0  0  0  0
    1.8270   22.5280  -35.8190 C   0  0  0  0  0  0  0  0  0  0  0  0
    0.6800   23.3350  -35.6970 O   0  0  0  0  0  0  0  0  0  0  0  0
    1.0480   24.8980  -36.2460 S   0  0  0  0  0  0  0  0  0  0  0  0
   -0.4450   25.8310  -36.5170 C   0  0  0  0  0  0  0  0  0  0  0  0
    1.7810   24.7820  -37.5530 O   0  0  0  0  0  0  0  0  0  0  0  0
    1.9280   25.6180  -35.2630 O   0  0  0  0  0  0  0  0  0  0  0  0
   -0.8700   20.4430  -34.8830 C   0  0  0  0  0  0  0  0  0  0  0  0
   -1.6080   20.5630  -33.7220 C   0  0  0  0  0  0  0  0  0  0  0  0
   -3.0160   20.1470  -33.5300 C   0  0  0  0  0  0  0  0  0  0  0  0
   -3.4060   18.8190  -33.8440 C   0  0  0  0  0  0  0  0  0  0  0  0
   -4.7330   18.3970  -33.6610 C   0  0  0  0  0  0  0  0  0  0  0  0
   -5.6480   19.3210  -33.1650 C   0  0  0  0  0  0  0  0  0  0  0  0
   -6.9850   19.1710  -32.8770 C   0  0  0  0  0  0  0  0  0  0  0  0
   -7.4000   20.4130  -32.4000 C   0  0  0  0  0  0  0  0  0  0  0  0
   -8.8030   20.7360  -32.0560 C   0  0  0  0  0  0  0  0  0  0  0  0
   -9.1070   21.5640  -30.9310 N   0  0  0  0  0  0  0  0  0  0  0  0
   -9.7490   20.2570  -32.7360 O   0  0  0  0  0  0  0  0  0  0  0  0
   -6.3580   21.2940  -32.3900 N   0  0  0  0  0  0  0  0  0  0  0  0
   -6.3600   22.6560  -31.9320 C   0  0  0  0  0  0  0  0  0  0  0  0
   -7.4460   23.2960  -31.8600 O   0  0  0  0  0  0  0  0  0  0  0  0
   -5.1590   23.2640  -31.5530 O   0  0  0  0  0  0  0  0  0  0  0  0
   -4.7950   23.4700  -30.1940 C   0  0  0  0  0  0  0  0  0  0  0  0
   -3.7390   24.5190  -30.1200 C   0  0  0  0  0  0  0  0  0  0  0  0
   -2.7450   24.3640  -29.3640 O   0  0  0  0  0  0  0  0  0  0  0  0
   -3.8680   25.6900  -30.8560 O   0  0  0  0  0  0  0  0  0  0  0  0
   -5.2940   20.6090  -32.8640 C   0  0  0  0  0  0  0  0  0  0  0  0
   -3.9730   21.0490  -33.0130 C   0  0  0  0  0  0  0  0  0  0  0  0
   -0.5514   20.9170  -30.7221 H   0  0  0  0  0  0  0  0  0  0  0  0
   -0.6668   22.6295  -31.2518 H   0  0  0  0  0  0  0  0  0  0  0  0
   -2.1309   21.5888  -31.2518 H   0  0  0  0  0  0  0  0  0  0  0  0
    2.3004   20.4906  -35.3023 H   0  0  0  0  0  0  0  0  0  0  0  0
    1.0723   20.6743  -36.6080 H   0  0  0  0  0  0  0  0  0  0  0  0
    2.5573   22.8060  -35.0448 H   0  0  0  0  0  0  0  0  0  0  0  0
    2.2792   22.6731  -36.8112 H   0  0  0  0  0  0  0  0  0  0  0  0
   -0.8861   26.1067  -35.5478 H   0  0  0  0  0  0  0  0  0  0  0  0
   -0.2095   26.7429  -37.0853 H   0  0  0  0  0  0  0  0  0  0  0  0
   -1.1614   25.2196  -37.0853 H   0  0  0  0  0  0  0  0  0  0  0  0
   -1.2235   20.0073  -35.8292 H   0  0  0  0  0  0  0  0  0  0  0  0
   -2.6600   18.1117  -34.2354 H   0  0  0  0  0  0  0  0  0  0  0  0
   -5.0395   17.3685  -33.9021 H   0  0  0  0  0  0  0  0  0  0  0  0
   -7.5960   18.2643  -32.9975 H   0  0  0  0  0  0  0  0  0  0  0  0
   -8.3530   22.0190  -30.3720 H   0  0  0  0  0  0  0  0  0  0  0  0
  -10.1010   21.7530  -30.6730 H   0  0  0  0  0  0  0  0  0  0  0  0
   -5.6769   23.7956  -29.6228 H   0  0  0  0  0  0  0  0  0  0  0  0
   -4.4114   22.5307  -29.7690 H   0  0  0  0  0  0  0  0  0  0  0  0
   -3.6867   22.0738  -32.7339 H   0  0  0  0  0  0  0  0  0  0  0  0
  1  2  1  0
  2  3  2  0
  3  4  1  0
  4  5  1  0
  5  6  1  0
  6  7  1  0
  7  8  1  0
  8  9  1  0
  8 10  2  0
  8 11  2  0
  4 12  1  0
 12 13  2  0
 13 14  1  0
 14 15  2  0
 15 16  1  0
 16 17  2  0
 17 18  1  0
 18 19  2  0
 19 20  1  0
 20 21  1  0
 20 22  2  0
 19 23  1  0
 23 24  1  0
 24 25  2  0
 24 26  1  0
 26 27  1  0
 27 28  1  0
 28 29  2  0
 28 30  1  0
 23 31  1  0
 31 32  2  0
 13  2  1  0
 32 14  1  0
 31 17  1  0
  1 33  1  0
  1 34  1  0
  1 35  1  0
  5 36  1  0
  5 37  1  0
  6 38  1  0
  6 39  1  0
  9 40  1  0
  9 41  1  0
  9 42  1  0
 12 43  1  0
 15 44  1  0
 16 45  1  0
 18 46  1  0
 21 47  1  0
 21 48  1  0
 27 49  1  0
 27 50  1  0
 32 51  1  0
M  CHG  1  30  -1
M  END
>  <UniqueID>  (77) 
74

>  <SMILES>  (77) 
Cc1nn(CCOS(C)(=O)=O)cc1-c1ccc2cc(C(N)=O)n(C(=O)OCC(=O)[O-])c2c1

>  <Energy>  (77) 
114.51004418331596

>  <Genealogy>  (77) 
Cc1nn(CCOS(C)(=O)=O)cc1-c1ccc2cc(C(N)=O)n(C(=O)OCC(=O)[O-])c2c1 (protonated)
Cc1nn(CCOS(C)(=O)=O)cc1-c1ccc2cc(C(N)=O)n(C(=O)OCC(=O)[O-])c2c1 (3D coordinates assigned)
Cc1nn(CCOS(C)(=O)=O)cc1-c1ccc2cc(C(N)=O)n(C(=O)OCC(=O)[O-])c2c1 (optimized conformer: 114.51004418331596 kcal/mol)

>  <smiles>  (77) 
Cc1nn(CCOS(C)(=O)=O)cc1-c1ccc2cc(C(N)=O)n(C(=O)OCC(=O)O)c2c1

>  <score_type>  (77) 
oracle

>  <origin>  (77) 
adg

>  <m_score__min__energy>  (77) 
-12.1

>  <m_primary>  (77) 
energy

$$$$
77:0
     RDKit          3D

 43 45  0  0  0  0  0  0  0  0999 V2000
   -4.4680   17.0680  -33.5510 C   0  0  0  0  0  0  0  0  0  0  0  0
   -3.7340   18.2440  -34.0440 N   0  0  0  0  0  0  0  0  0  0  0  0
   -2.4190   18.3810  -33.4040 C   0  0  0  0  0  0  0  0  0  0  0  0
   -2.1520   19.8710  -33.2120 C   0  0  0  0  0  0  0  0  0  0  0  0
   -3.4000   20.5800  -33.7240 C   0  0  2  0  0  0  0  0  0  0  0  0
   -3.8080   21.6180  -32.8510 O   0  0  0  0  0  0  0  0  0  0  0  0
   -3.3730   21.3470  -31.5350 C   0  0  0  0  0  0  0  0  0  0  0  0
   -4.1010   22.2540  -30.5950 C   0  0  0  0  0  0  0  0  0  0  0  0
   -3.5590   22.5870  -29.5070 O   0  0  0  0  0  0  0  0  0  0  0  0
   -5.4510   22.6540  -30.8690 N   0  0  0  0  0  0  0  0  0  0  0  0
   -5.9760   23.9090  -30.8470 C   0  0  0  0  0  0  0  0  0  0  0  0
   -5.2770   25.1330  -30.4010 C   0  0  0  0  0  0  0  0  0  0  0  0
   -3.8730   25.2860  -30.5890 N   0  0  0  0  0  0  0  0  0  0  0  0
   -5.9240   26.0460  -29.8190 O   0  0  0  0  0  0  0  0  0  0  0  0
   -7.3110   23.8840  -31.2490 C   0  0  0  0  0  0  0  0  0  0  0  0
   -7.5870   22.5610  -31.5150 C   0  0  0  0  0  0  0  0  0  0  0  0
   -8.7630   21.9570  -31.9470 C   0  0  0  0  0  0  0  0  0  0  0  0
   -8.7540   20.5670  -32.1500 C   0  0  0  0  0  0  0  0  0  0  0  0
   -7.5710   19.8090  -31.9420 C   0  0  0  0  0  0  0  0  0  0  0  0
   -7.5840   18.3130  -32.1240 C   0  0  0  0  0  0  0  0  0  0  0  0
   -8.8560   17.8350  -31.8700 F   0  0  0  0  0  0  0  0  0  0  0  0
   -7.2250   17.9740  -33.4170 F   0  0  0  0  0  0  0  0  0  0  0  0
   -6.6930   17.7080  -31.2550 F   0  0  0  0  0  0  0  0  0  0  0  0
   -6.4020   20.4590  -31.4790 C   0  0  0  0  0  0  0  0  0  0  0  0
   -6.4470   21.8410  -31.2760 C   0  0  0  0  0  0  0  0  0  0  0  0
   -4.4510   19.4870  -33.7580 C   0  0  0  0  0  0  0  0  0  0  0  0
   -4.4669   17.0697  -32.4510 H   0  0  0  0  0  0  0  0  0  0  0  0
   -5.5048   17.1031  -33.9167 H   0  0  0  0  0  0  0  0  0  0  0  0
   -3.9810   16.1520  -33.9167 H   0  0  0  0  0  0  0  0  0  0  0  0
   -2.4216   17.8718  -32.4290 H   0  0  0  0  0  0  0  0  0  0  0  0
   -1.6362   17.9257  -34.0285 H   0  0  0  0  0  0  0  0  0  0  0  0
   -1.9905   20.0982  -32.1479 H   0  0  0  0  0  0  0  0  0  0  0  0
   -1.2495   20.1956  -33.7506 H   0  0  0  0  0  0  0  0  0  0  0  0
   -3.2297   21.0559  -34.7010 H   0  0  0  0  0  0  0  0  0  0  0  0
   -3.5903   20.2989  -31.2814 H   0  0  0  0  0  0  0  0  0  0  0  0
   -2.2889   21.5156  -31.4556 H   0  0  0  0  0  0  0  0  0  0  0  0
   -3.4930   26.0220  -31.2240 H   0  0  0  0  0  0  0  0  0  0  0  0
   -7.9977   24.7390  -31.3353 H   0  0  0  0  0  0  0  0  0  0  0  0
   -9.6725   22.5497  -32.1243 H   0  0  0  0  0  0  0  0  0  0  0  0
   -9.6745   20.0594  -32.4740 H   0  0  0  0  0  0  0  0  0  0  0  0
   -5.4808   19.8904  -31.2838 H   0  0  0  0  0  0  0  0  0  0  0  0
   -4.9619   19.4182  -32.7863 H   0  0  0  0  0  0  0  0  0  0  0  0
   -5.2196   19.6918  -34.5178 H   0  0  0  0  0  0  0  0  0  0  0  0
  1  2  1  0
  2  3  1  0
  3  4  1  0
  4  5  1  0
  5  6  1  0
  6  7  1  0
  7  8  1  0
  8  9  2  0
  8 10  1  0
 10 11  1  0
 11 12  1  0
 12 13  1  0
 12 14  2  0
 11 15  2  0
 15 16  1  0
 16 17  2  0
 17 18  1  0
 18 19  2  0
 19 20  1  0
 20 21  1  0
 20 22  1  0
 20 23  1  0
 19 24  1  0
 24 25  2  0
  5 26  1  0
 26  2  1  0
 25 10  1  0
 25 16  1  0
  1 27  1  0
  1 28  1  0
  1 29  1  0
  3 30  1  0
  3 31  1  0
  4 32  1  0
  4 33  1  0
  5 34  1  6
  7 35  1  0
  7 36  1  0
 13 37  1  0
 15 38  1  0
 17 39  1  0
 18 40  1  0
 24 41  1  0
 26 42  1  0
 26 43  1  0
M  CHG  1  13  -1
M  END
>  <UniqueID>  (78) 
75

>  <SMILES>  (78) 
CN1CC[C@H](OCC(=O)n2c(C([NH-])=O)cc3ccc(C(F)(F)F)cc32)C1

>  <Energy>  (78) 
87.90322580871634

>  <Genealogy>  (78) 
CN1CCC(OCC(=O)n2c(C([NH-])=O)cc3ccc(C(F)(F)F)cc32)C1 (protonated)
CN1CC[C@H](OCC(=O)n2c(C([NH-])=O)cc3ccc(C(F)(F)F)cc32)C1 (chirality)
CN1CC[C@H](OCC(=O)n2c(C([NH-])=O)cc3ccc(C(F)(F)F)cc32)C1 (3D coordinates assigned)
CN1CC[C@H](OCC(=O)n2c(C([NH-])=O)cc3ccc(C(F)(F)F)cc32)C1 (nonaromatic ring conformer: 87.90322580871634 kcal/mol)

>  <smiles>  (78) 
CN1CCC(OCC(=O)n2c(C(N)=O)cc3ccc(C(F)(F)F)cc32)C1

>  <score_type>  (78) 
oracle

>  <origin>  (78) 
adg

>  <m_score__min__energy>  (78) 
-10.73

>  <m_primary>  (78) 
energy

$$$$
78:0
     RDKit          3D

 37 38  0  0  0  0  0  0  0  0999 V2000
    1.0100   23.9310  -27.4590 C   0  0  0  0  0  0  0  0  0  0  0  0
    0.2770   24.8760  -28.2060 O   0  0  0  0  0  0  0  0  0  0  0  0
   -1.0930   24.5350  -28.1750 C   0  0  0  0  0  0  0  0  0  0  0  0
   -1.2370   23.0180  -28.0560 C   0  0  0  0  0  0  0  0  0  0  0  0
   -1.8120   22.4510  -29.2740 N   0  0  0  0  0  0  0  0  0  0  0  0
   -3.2000   22.2820  -29.6020 C   0  0  0  0  0  0  0  0  0  0  0  0
   -3.9960   22.0030  -28.6680 O   0  0  0  0  0  0  0  0  0  0  0  0
   -3.7440   22.4250  -30.9740 C   0  0  0  0  0  0  0  0  0  0  0  0
   -2.9960   22.3400  -31.9830 O   0  0  0  0  0  0  0  0  0  0  0  0
   -5.1440   22.6750  -31.1680 N   0  0  0  0  0  0  0  0  0  0  0  0
   -5.8330   23.8130  -30.8730 C   0  0  0  0  0  0  0  0  0  0  0  0
   -5.2460   25.0820  -30.3930 C   0  0  0  0  0  0  0  0  0  0  0  0
   -3.8500   25.3390  -30.5200 N   0  0  0  0  0  0  0  0  0  0  0  0
   -5.9910   25.9620  -29.8870 O   0  0  0  0  0  0  0  0  0  0  0  0
   -7.1930   23.6340  -31.1250 C   0  0  0  0  0  0  0  0  0  0  0  0
   -7.3130   22.3420  -31.5850 C   0  0  0  0  0  0  0  0  0  0  0  0
   -8.4450   21.6240  -31.9570 C   0  0  0  0  0  0  0  0  0  0  0  0
   -8.2750   20.2870  -32.3540 C   0  0  0  0  0  0  0  0  0  0  0  0
   -6.9860   19.6940  -32.3820 C   0  0  0  0  0  0  0  0  0  0  0  0
   -6.8250   18.2420  -32.7510 C   0  0  0  0  0  0  0  0  0  0  0  0
   -7.9990   17.5470  -32.5200 F   0  0  0  0  0  0  0  0  0  0  0  0
   -6.5020   18.1120  -34.0920 F   0  0  0  0  0  0  0  0  0  0  0  0
   -5.8150   17.6880  -31.9890 F   0  0  0  0  0  0  0  0  0  0  0  0
   -5.8640   20.4520  -31.9700 C   0  0  0  0  0  0  0  0  0  0  0  0
   -6.0620   21.7850  -31.5970 C   0  0  0  0  0  0  0  0  0  0  0  0
    0.8639   24.1194  -26.3851 H   0  0  0  0  0  0  0  0  0  0  0  0
    0.6593   22.9177  -27.7046 H   0  0  0  0  0  0  0  0  0  0  0  0
    2.0787   24.0187  -27.7046 H   0  0  0  0  0  0  0  0  0  0  0  0
   -1.5717   25.0179  -27.3103 H   0  0  0  0  0  0  0  0  0  0  0  0
   -1.5777   24.8782  -29.1009 H   0  0  0  0  0  0  0  0  0  0  0  0
   -0.2449   22.5744  -27.8859 H   0  0  0  0  0  0  0  0  0  0  0  0
   -1.9079   22.7939  -27.2136 H   0  0  0  0  0  0  0  0  0  0  0  0
   -3.4910   26.0280  -31.2180 H   0  0  0  0  0  0  0  0  0  0  0  0
   -7.9991   24.3694  -30.9857 H   0  0  0  0  0  0  0  0  0  0  0  0
   -9.4420   22.0885  -31.9408 H   0  0  0  0  0  0  0  0  0  0  0  0
   -9.1526   19.6921  -32.6470 H   0  0  0  0  0  0  0  0  0  0  0  0
   -4.8601   20.0031  -31.9438 H   0  0  0  0  0  0  0  0  0  0  0  0
  1  2  1  0
  2  3  1  0
  3  4  1  0
  4  5  1  0
  5  6  1  0
  6  7  2  0
  6  8  1  0
  8  9  2  0
  8 10  1  0
 10 11  1  0
 11 12  1  0
 12 13  1  0
 12 14  2  0
 11 15  2  0
 15 16  1  0
 16 17  2  0
 17 18  1  0
 18 19  2  0
 19 20  1  0
 20 21  1  0
 20 22  1  0
 20 23  1  0
 19 24  1  0
 24 25  2  0
 25 10  1  0
 25 16  1  0
  1 26  1  0
  1 27  1  0
  1 28  1  0
  3 29  1  0
  3 30  1  0
  4 31  1  0
  4 32  1  0
 13 33  1  0
 15 34  1  0
 17 35  1  0
 18 36  1  0
 24 37  1  0
M  CHG  2   5  -1  13  -1
M  END
>  <UniqueID>  (79) 
76

>  <SMILES>  (79) 
COCC[N-]C(=O)C(=O)n1c(C([NH-])=O)cc2ccc(C(F)(F)F)cc21

>  <Energy>  (79) 
76.91894307192467

>  <Genealogy>  (79) 
COCC[N-]C(=O)C(=O)n1c(C([NH-])=O)cc2ccc(C(F)(F)F)cc21 (protonated)
COCC[N-]C(=O)C(=O)n1c(C([NH-])=O)cc2ccc(C(F)(F)F)cc21 (3D coordinates assigned)
COCC[N-]C(=O)C(=O)n1c(C([NH-])=O)cc2ccc(C(F)(F)F)cc21 (optimized conformer: 76.91894307192467 kcal/mol)

>  <smiles>  (79) 
COCCNC(=O)C(=O)n1c(C(N)=O)cc2ccc(C(F)(F)F)cc21

>  <score_type>  (79) 
oracle

>  <origin>  (79) 
adg

>  <m_score__min__energy>  (79) 
-10.289999999999999

>  <m_primary>  (79) 
energy

$$$$
79:0
     RDKit          3D

 44 46  0  0  0  0  0  0  0  0999 V2000
   -3.9460   25.6590  -30.8680 N   0  0  0  0  0  0  0  0  0  0  0  0
   -5.2730   25.3300  -30.4610 C   0  0  0  0  0  0  0  0  0  0  0  0
   -5.9100   26.1310  -29.7280 O   0  0  0  0  0  0  0  0  0  0  0  0
   -5.8660   24.0380  -30.8640 C   0  0  0  0  0  0  0  0  0  0  0  0
   -7.2380   23.8320  -30.9950 C   0  0  0  0  0  0  0  0  0  0  0  0
   -7.3710   22.5460  -31.4660 C   0  0  0  0  0  0  0  0  0  0  0  0
   -8.5180   21.8150  -31.7620 C   0  0  0  0  0  0  0  0  0  0  0  0
   -8.3600   20.4910  -32.2030 C   0  0  0  0  0  0  0  0  0  0  0  0
   -7.0680   19.9260  -32.3420 C   0  0  0  0  0  0  0  0  0  0  0  0
   -6.9100   18.4910  -32.7700 C   0  0  0  0  0  0  0  0  0  0  0  0
   -6.0290   18.3730  -33.9880 C   0  0  0  0  0  0  0  0  0  0  0  0
   -6.0770   19.2720  -34.8740 O   0  0  0  0  0  0  0  0  0  0  0  0
   -5.0800   17.2990  -34.1230 N   0  0  0  0  0  0  0  0  0  0  0  0
   -4.8310   16.2860  -33.1110 C   0  0  0  0  0  0  0  0  0  0  0  0
   -3.6020   15.5240  -33.5880 C   0  0  0  0  0  0  0  0  0  0  0  0
   -3.4590   15.8500  -35.0730 C   0  0  0  0  0  0  0  0  0  0  0  0
   -4.2200   17.1520  -35.2860 C   0  0  0  0  0  0  0  0  0  0  0  0
   -5.9270   20.6950  -32.0230 C   0  0  0  0  0  0  0  0  0  0  0  0
   -6.1130   22.0170  -31.6020 C   0  0  0  0  0  0  0  0  0  0  0  0
   -5.1770   22.9200  -31.2330 N   0  0  0  0  0  0  0  0  0  0  0  0
   -3.7590   22.7040  -31.1740 C   0  0  0  0  0  0  0  0  0  0  0  0
   -3.1550   22.2120  -32.1670 O   0  0  0  0  0  0  0  0  0  0  0  0
   -3.0550   23.0240  -30.0100 O   0  0  0  0  0  0  0  0  0  0  0  0
   -1.6410   22.9050  -29.9090 C   0  0  0  0  0  0  0  0  0  0  0  0
   -1.0810   24.1600  -29.3290 C   0  0  0  0  0  0  0  0  0  0  0  0
    0.0960   24.1790  -28.8810 O   0  0  0  0  0  0  0  0  0  0  0  0
   -1.8400   25.3240  -29.3220 O   0  0  0  0  0  0  0  0  0  0  0  0
   -3.1230   25.1530  -30.4740 H   0  0  0  0  0  0  0  0  0  0  0  0
   -8.0438   24.5461  -30.7697 H   0  0  0  0  0  0  0  0  0  0  0  0
   -9.5178   22.2608  -31.6538 H   0  0  0  0  0  0  0  0  0  0  0  0
   -9.2475   19.8870  -32.4427 H   0  0  0  0  0  0  0  0  0  0  0  0
   -6.4589   17.9194  -31.9455 H   0  0  0  0  0  0  0  0  0  0  0  0
   -7.9043   18.0940  -33.0227 H   0  0  0  0  0  0  0  0  0  0  0  0
   -4.6364   16.7569  -32.1361 H   0  0  0  0  0  0  0  0  0  0  0  0
   -5.6969   15.6205  -32.9796 H   0  0  0  0  0  0  0  0  0  0  0  0
   -2.7093   15.8534  -33.0361 H   0  0  0  0  0  0  0  0  0  0  0  0
   -3.7067   14.4420  -33.4199 H   0  0  0  0  0  0  0  0  0  0  0  0
   -2.3988   15.9782  -35.3369 H   0  0  0  0  0  0  0  0  0  0  0  0
   -3.8543   15.0414  -35.7054 H   0  0  0  0  0  0  0  0  0  0  0  0
   -3.5206   17.9982  -35.3554 H   0  0  0  0  0  0  0  0  0  0  0  0
   -4.7999   17.1354  -36.2206 H   0  0  0  0  0  0  0  0  0  0  0  0
   -4.9174   20.2657  -32.1034 H   0  0  0  0  0  0  0  0  0  0  0  0
   -1.3893   22.0550  -29.2578 H   0  0  0  0  0  0  0  0  0  0  0  0
   -1.2129   22.7378  -30.9084 H   0  0  0  0  0  0  0  0  0  0  0  0
  1  2  1  0
  2  3  2  0
  2  4  1  0
  4  5  2  0
  5  6  1  0
  6  7  2  0
  7  8  1  0
  8  9  2  0
  9 10  1  0
 10 11  1  0
 11 12  2  0
 11 13  1  0
 13 14  1  0
 14 15  1  0
 15 16  1  0
 16 17  1  0
  9 18  1  0
 18 19  2  0
 19 20  1  0
 20 21  1  0
 21 22  2  0
 21 23  1  0
 23 24  1  0
 24 25  1  0
 25 26  2  0
 25 27  1  0
 20  4  1  0
 19  6  1  0
 17 13  1  0
  1 28  1  0
  5 29  1  0
  7 30  1  0
  8 31  1  0
 10 32  1  0
 10 33  1  0
 14 34  1  0
 14 35  1  0
 15 36  1  0
 15 37  1  0
 16 38  1  0
 16 39  1  0
 17 40  1  0
 17 41  1  0
 18 42  1  0
 24 43  1  0
 24 44  1  0
M  CHG  2   1  -1  27  -1
M  END
>  <UniqueID>  (80) 
77

>  <SMILES>  (80) 
[NH-]C(=O)c1cc2ccc(CC(=O)N3CCCC3)cc2n1C(=O)OCC(=O)[O-]

>  <Energy>  (80) 
79.0746429649307

>  <Genealogy>  (80) 
[NH-]C(=O)c1cc2ccc(CC(=O)N3CCCC3)cc2n1C(=O)OCC(=O)[O-] (protonated)
[NH-]C(=O)c1cc2ccc(CC(=O)N3CCCC3)cc2n1C(=O)OCC(=O)[O-] (3D coordinates assigned)
[NH-]C(=O)c1cc2ccc(CC(=O)N3CCCC3)cc2n1C(=O)OCC(=O)[O-] (nonaromatic ring conformer: 79.0746429649307 kcal/mol)

>  <smiles>  (80) 
NC(=O)c1cc2ccc(CC(=O)N3CCCC3)cc2n1C(=O)OCC(=O)O

>  <score_type>  (80) 
oracle

>  <origin>  (80) 
adg

>  <m_score__min__energy>  (80) 
-13.15

>  <m_primary>  (80) 
energy

$$$$
80:0
     RDKit          3D

 36 37  0  0  0  0  0  0  0  0999 V2000
   -3.8850   23.1670  -28.1320 C   0  0  0  0  0  0  0  0  0  0  0  0
   -2.8880   22.4940  -29.0670 C   0  0  0  0  0  0  0  0  0  0  0  0
   -2.8720   23.1430  -30.3370 O   0  0  0  0  0  0  0  0  0  0  0  0
   -3.6600   22.7370  -31.4210 C   0  0  0  0  0  0  0  0  0  0  0  0
   -3.1280   22.2050  -32.4320 O   0  0  0  0  0  0  0  0  0  0  0  0
   -5.0850   22.9030  -31.3640 N   0  0  0  0  0  0  0  0  0  0  0  0
   -5.7860   24.0180  -31.0090 C   0  0  0  0  0  0  0  0  0  0  0  0
   -5.2130   25.2680  -30.4670 C   0  0  0  0  0  0  0  0  0  0  0  0
   -3.9020   25.6720  -30.8530 N   0  0  0  0  0  0  0  0  0  0  0  0
   -5.8820   26.0030  -29.6950 O   0  0  0  0  0  0  0  0  0  0  0  0
   -7.1560   23.7960  -31.1420 C   0  0  0  0  0  0  0  0  0  0  0  0
   -7.2730   22.4990  -31.5880 C   0  0  0  0  0  0  0  0  0  0  0  0
   -8.4100   21.7590  -31.8950 C   0  0  0  0  0  0  0  0  0  0  0  0
   -8.2360   20.4440  -32.3590 C   0  0  0  0  0  0  0  0  0  0  0  0
   -6.9370   19.8950  -32.5140 C   0  0  0  0  0  0  0  0  0  0  0  0
   -6.7740   18.4780  -33.0250 C   0  0  2  0  0  0  0  0  0  0  0  0
   -6.5120   17.4960  -31.8760 C   0  0  0  0  0  0  0  0  0  0  0  0
   -5.6950   18.4130  -34.0740 C   0  0  0  0  0  0  0  0  0  0  0  0
   -5.9700   18.5680  -35.2930 O   0  0  0  0  0  0  0  0  0  0  0  0
   -4.3890   18.1230  -33.7000 O   0  0  0  0  0  0  0  0  0  0  0  0
   -5.8060   20.6830  -32.1890 C   0  0  0  0  0  0  0  0  0  0  0  0
   -6.0110   21.9820  -31.7120 C   0  0  0  0  0  0  0  0  0  0  0  0
   -3.5974   22.9729  -27.0882 H   0  0  0  0  0  0  0  0  0  0  0  0
   -3.8862   24.2514  -28.3164 H   0  0  0  0  0  0  0  0  0  0  0  0
   -4.8912   22.7626  -28.3164 H   0  0  0  0  0  0  0  0  0  0  0  0
   -1.8834   22.5461  -28.6220 H   0  0  0  0  0  0  0  0  0  0  0  0
   -3.1880   21.4453  -29.2090 H   0  0  0  0  0  0  0  0  0  0  0  0
   -3.0590   25.3000  -30.3600 H   0  0  0  0  0  0  0  0  0  0  0  0
   -7.9701   24.5061  -30.9347 H   0  0  0  0  0  0  0  0  0  0  0  0
   -9.4152   22.1902  -31.7781 H   0  0  0  0  0  0  0  0  0  0  0  0
   -9.1172   19.8332  -32.6049 H   0  0  0  0  0  0  0  0  0  0  0  0
   -7.7191   18.1726  -33.4977 H   0  0  0  0  0  0  0  0  0  0  0  0
   -6.6496   18.0118  -30.9142 H   0  0  0  0  0  0  0  0  0  0  0  0
   -7.2170   16.6545  -31.9449 H   0  0  0  0  0  0  0  0  0  0  0  0
   -5.4815   17.1175  -31.9449 H   0  0  0  0  0  0  0  0  0  0  0  0
   -4.7886   20.2824  -32.3090 H   0  0  0  0  0  0  0  0  0  0  0  0
  1  2  1  0
  2  3  1  0
  3  4  1  0
  4  5  2  0
  4  6  1  0
  6  7  1  0
  7  8  1  0
  8  9  1  0
  8 10  2  0
  7 11  2  0
 11 12  1  0
 12 13  2  0
 13 14  1  0
 14 15  2  0
 15 16  1  0
 16 17  1  0
 16 18  1  0
 18 19  2  0
 18 20  1  0
 15 21  1  0
 21 22  2  0
 22  6  1  0
 22 12  1  0
  1 23  1  0
  1 24  1  0
  1 25  1  0
  2 26  1  0
  2 27  1  0
  9 28  1  0
 11 29  1  0
 13 30  1  0
 14 31  1  0
 16 32  1  6
 17 33  1  0
 17 34  1  0
 17 35  1  0
 21 36  1  0
M  CHG  2   9  -1  20  -1
M  END
>  <UniqueID>  (81) 
78

>  <SMILES>  (81) 
CCOC(=O)n1c(C([NH-])=O)cc2ccc([C@H](C)C(=O)[O-])cc21

>  <Energy>  (81) 
69.4267160020825

>  <Genealogy>  (81) 
CCOC(=O)n1c(C([NH-])=O)cc2ccc(C(C)C(=O)[O-])cc21 (protonated)
CCOC(=O)n1c(C([NH-])=O)cc2ccc([C@H](C)C(=O)[O-])cc21 (chirality)
CCOC(=O)n1c(C([NH-])=O)cc2ccc([C@H](C)C(=O)[O-])cc21 (3D coordinates assigned)
CCOC(=O)n1c(C([NH-])=O)cc2ccc([C@H](C)C(=O)[O-])cc21 (optimized conformer: 69.4267160020825 kcal/mol)

>  <smiles>  (81) 
CCOC(=O)n1c(C(N)=O)cc2ccc(C(C)C(=O)O)cc21

>  <score_type>  (81) 
oracle

>  <origin>  (81) 
adg

>  <m_score__min__energy>  (81) 
-10.18

>  <m_primary>  (81) 
energy

$$$$
81:0
     RDKit          3D

 40 42  0  0  0  0  0  0  0  0999 V2000
   -3.8980   25.6680  -30.8670 N   0  0  0  0  0  0  0  0  0  0  0  0
   -5.1530   25.0870  -30.5180 C   0  0  0  0  0  0  0  0  0  0  0  0
   -5.9180   25.6940  -29.7220 O   0  0  0  0  0  0  0  0  0  0  0  0
   -5.5290   23.7670  -31.0620 C   0  0  0  0  0  0  0  0  0  0  0  0
   -6.8400   23.4090  -31.3750 C   0  0  0  0  0  0  0  0  0  0  0  0
   -6.7560   22.1450  -31.9090 C   0  0  0  0  0  0  0  0  0  0  0  0
   -7.7640   21.2870  -32.3380 C   0  0  0  0  0  0  0  0  0  0  0  0
   -7.3990   19.9870  -32.7280 C   0  0  0  0  0  0  0  0  0  0  0  0
   -6.0400   19.5690  -32.6940 C   0  0  0  0  0  0  0  0  0  0  0  0
   -5.6990   18.1940  -32.9650 N   0  0  0  0  0  0  0  0  0  0  0  0
   -6.2980   17.1060  -32.1840 C   0  0  0  0  0  0  0  0  0  0  0  0
   -5.3380   15.9070  -32.1450 C   0  0  0  0  0  0  0  0  0  0  0  0
   -4.8670   15.4700  -33.4900 N   0  0  0  0  0  0  0  0  0  0  0  0
   -5.3800   14.1480  -33.8000 C   0  0  0  0  0  0  0  0  0  0  0  0
   -6.6020   13.9950  -34.0810 O   0  0  0  0  0  0  0  0  0  0  0  0
   -4.5220   12.9440  -33.7110 C   0  0  0  0  0  0  0  0  0  0  0  0
   -3.2940   13.0620  -33.4430 O   0  0  0  0  0  0  0  0  0  0  0  0
   -5.0490   11.6770  -33.9450 O   0  0  0  0  0  0  0  0  0  0  0  0
   -5.1870   16.4120  -34.5930 C   0  0  0  0  0  0  0  0  0  0  0  0
   -4.9330   17.8640  -34.1740 C   0  0  0  0  0  0  0  0  0  0  0  0
   -5.0410   20.4920  -32.2970 C   0  0  0  0  0  0  0  0  0  0  0  0
   -5.4330   21.7810  -31.9140 C   0  0  0  0  0  0  0  0  0  0  0  0
   -4.6670   22.7650  -31.3990 N   0  0  0  0  0  0  0  0  0  0  0  0
   -3.2460   22.7090  -31.1730 C   0  0  0  0  0  0  0  0  0  0  0  0
   -2.4810   22.2600  -32.0690 O   0  0  0  0  0  0  0  0  0  0  0  0
   -2.7000   23.2080  -29.9930 O   0  0  0  0  0  0  0  0  0  0  0  0
   -3.0050   25.2730  -30.5000 H   0  0  0  0  0  0  0  0  0  0  0  0
   -7.7488   24.0106  -31.2261 H   0  0  0  0  0  0  0  0  0  0  0  0
   -8.8132   21.6158  -32.3709 H   0  0  0  0  0  0  0  0  0  0  0  0
   -8.1749   19.2834  -33.0641 H   0  0  0  0  0  0  0  0  0  0  0  0
   -6.4895   17.4546  -31.1584 H   0  0  0  0  0  0  0  0  0  0  0  0
   -7.2447   16.7995  -32.6528 H   0  0  0  0  0  0  0  0  0  0  0  0
   -4.4600   16.1850  -31.5434 H   0  0  0  0  0  0  0  0  0  0  0  0
   -5.8956   15.0639  -31.7111 H   0  0  0  0  0  0  0  0  0  0  0  0
   -3.8190   15.4180  -33.4540 H   0  0  0  0  0  0  0  0  0  0  0  0
   -4.5563   16.1740  -35.4622 H   0  0  0  0  0  0  0  0  0  0  0  0
   -6.2523   16.3038  -34.8450 H   0  0  0  0  0  0  0  0  0  0  0  0
   -3.8605   17.9994  -33.9708 H   0  0  0  0  0  0  0  0  0  0  0  0
   -5.2524   18.5297  -34.9893 H   0  0  0  0  0  0  0  0  0  0  0  0
   -3.9798   20.2024  -32.2897 H   0  0  0  0  0  0  0  0  0  0  0  0
  1  2  1  0
  2  3  2  0
  2  4  1  0
  4  5  2  0
  5  6  1  0
  6  7  2  0
  7  8  1  0
  8  9  2  0
  9 10  1  0
 10 11  1  0
 11 12  1  0
 12 13  1  0
 13 14  1  0
 14 15  2  0
 14 16  1  0
 16 17  2  0
 16 18  1  0
 13 19  1  0
 19 20  1  0
  9 21  1  0
 21 22  2  0
 22 23  1  0
 23 24  1  0
 24 25  2  0
 24 26  1  0
 23  4  1  0
 22  6  1  0
 20 10  1  0
  1 27  1  0
  5 28  1  0
  7 29  1  0
  8 30  1  0
 11 31  1  0
 11 32  1  0
 12 33  1  0
 12 34  1  0
 13 35  1  0
 19 36  1  0
 19 37  1  0
 20 38  1  0
 20 39  1  0
 21 40  1  0
M  CHG  4   1  -1  13   1  18  -1  26  -1
M  END
>  <UniqueID>  (82) 
79

>  <SMILES>  (82) 
[NH-]C(=O)c1cc2ccc(N3CC[NH+](C(=O)C(=O)[O-])CC3)cc2n1C(=O)[O-]

>  <Energy>  (82) 
93.76294181903936

>  <Genealogy>  (82) 
[NH-]C(=O)c1cc2ccc(N3CC[NH+](C(=O)C(=O)[O-])CC3)cc2n1C(=O)[O-] (protonated)
[NH-]C(=O)c1cc2ccc(N3CC[NH+](C(=O)C(=O)[O-])CC3)cc2n1C(=O)[O-] (3D coordinates assigned)
[NH-]C(=O)c1cc2ccc(N3CC[NH+](C(=O)C(=O)[O-])CC3)cc2n1C(=O)[O-] (nonaromatic ring conformer: 93.76294181903936 kcal/mol)

>  <smiles>  (82) 
NC(=O)c1cc2ccc(N3CCN(C(=O)C(=O)O)CC3)cc2n1C(=O)O

>  <score_type>  (82) 
oracle

>  <origin>  (82) 
adg

>  <m_score__min__energy>  (82) 
-9.7400000000000002

>  <m_primary>  (82) 
energy

$$$$
82:0
     RDKit          3D

 40 41  0  0  0  0  0  0  0  0999 V2000
   -2.3763   22.7188  -27.5285 H   0  0  0  0  0  0  0  0  0  0  0  0
   -2.4710   23.0410  -28.5760 C   0  0  0  0  0  0  0  0  0  0  0  0
   -1.7100   24.2390  -28.9760 C   0  0  0  0  0  0  0  0  0  0  0  0
   -2.2910   25.2950  -29.3390 O   0  0  0  0  0  0  0  0  0  0  0  0
   -0.3250   24.1670  -29.0500 O   0  0  0  0  0  0  0  0  0  0  0  0
   -3.2680   22.3060  -29.3670 C   0  0  0  0  0  0  0  0  0  0  0  0
   -3.6285   21.3503  -28.9587 H   0  0  0  0  0  0  0  0  0  0  0  0
   -3.7090   22.6570  -30.7360 C   0  0  0  0  0  0  0  0  0  0  0  0
   -2.8750   22.9700  -31.6270 O   0  0  0  0  0  0  0  0  0  0  0  0
   -5.1100   22.7060  -31.0420 N   0  0  0  0  0  0  0  0  0  0  0  0
   -5.9460   23.7720  -30.9040 C   0  0  0  0  0  0  0  0  0  0  0  0
   -5.5300   25.1330  -30.4870 C   0  0  0  0  0  0  0  0  0  0  0  0
   -6.3600   25.9060  -29.9390 O   0  0  0  0  0  0  0  0  0  0  0  0
   -4.1890   25.5860  -30.6850 N   0  0  0  0  0  0  0  0  0  0  0  0
   -3.9050   26.5350  -30.3540 H   0  0  0  0  0  0  0  0  0  0  0  0
   -3.4840   25.0080  -31.1930 H   0  0  0  0  0  0  0  0  0  0  0  0
   -7.2460   23.4160  -31.2610 C   0  0  0  0  0  0  0  0  0  0  0  0
   -8.1379   24.0599  -31.2621 H   0  0  0  0  0  0  0  0  0  0  0  0
   -7.1750   22.0860  -31.6120 C   0  0  0  0  0  0  0  0  0  0  0  0
   -8.1760   21.2180  -32.0280 C   0  0  0  0  0  0  0  0  0  0  0  0
   -9.2133   21.5644  -32.1463 H   0  0  0  0  0  0  0  0  0  0  0  0
   -7.8240   19.8850  -32.2930 C   0  0  0  0  0  0  0  0  0  0  0  0
   -8.5985   19.1815  -32.6324 H   0  0  0  0  0  0  0  0  0  0  0  0
   -6.4850   19.4230  -32.1320 C   0  0  0  0  0  0  0  0  0  0  0  0
   -6.1540   17.9440  -32.4240 C   0  0  0  0  0  0  0  0  0  0  0  0
   -6.1220   17.0650  -31.1510 C   0  0  0  0  0  0  0  0  0  0  0  0
   -6.1455   17.7094  -30.2598 H   0  0  0  0  0  0  0  0  0  0  0  0
   -6.9964   16.3977  -31.1441 H   0  0  0  0  0  0  0  0  0  0  0  0
   -5.2013   16.4630  -31.1441 H   0  0  0  0  0  0  0  0  0  0  0  0
   -4.7650   17.8500  -33.0920 C   0  0  0  0  0  0  0  0  0  0  0  0
   -3.9876   17.7974  -32.3156 H   0  0  0  0  0  0  0  0  0  0  0  0
   -4.7196   16.9467  -33.7181 H   0  0  0  0  0  0  0  0  0  0  0  0
   -4.5983   18.7389  -33.7181 H   0  0  0  0  0  0  0  0  0  0  0  0
   -7.2210   17.3570  -33.3740 C   0  0  0  0  0  0  0  0  0  0  0  0
   -8.0332   16.9102  -32.7818 H   0  0  0  0  0  0  0  0  0  0  0  0
   -7.6278   18.1583  -34.0084 H   0  0  0  0  0  0  0  0  0  0  0  0
   -6.7619   16.5845  -34.0084 H   0  0  0  0  0  0  0  0  0  0  0  0
   -5.4990   20.3540  -31.6980 C   0  0  0  0  0  0  0  0  0  0  0  0
   -4.4568   20.0360  -31.5471 H   0  0  0  0  0  0  0  0  0  0  0  0
   -5.8790   21.6800  -31.4670 C   0  0  0  0  0  0  0  0  0  0  0  0
  1  2  1  0
  2  3  1  0
  3  4  2  0
  3  5  1  0
  2  6  2  0
  6  7  1  0
  6  8  1  0
  8  9  2  0
  8 10  1  0
 10 11  1  0
 11 12  1  0
 12 13  2  0
 12 14  1  0
 14 15  1  0
 14 16  1  0
 11 17  2  0
 17 18  1  0
 17 19  1  0
 19 20  2  0
 20 21  1  0
 20 22  1  0
 22 23  1  0
 22 24  2  0
 24 25  1  0
 25 26  1  0
 26 27  1  0
 26 28  1  0
 26 29  1  0
 25 30  1  0
 30 31  1  0
 30 32  1  0
 30 33  1  0
 25 34  1  0
 34 35  1  0
 34 36  1  0
 34 37  1  0
 24 38  1  0
 38 39  1  0
 38 40  2  0
 40 10  1  0
 40 19  1  0
M  CHG  1   5  -1
M  END
>  <UniqueID>  (83) 
80

>  <SMILES>  (83) 
CC(C)(C)c1ccc2cc(C(N)=O)n(C(=O)/C=C\C(=O)[O-])c2c1

>  <Energy>  (83) 
86.52854950957814

>  <Genealogy>  (83) 
CC(C)(C)c1ccc2cc(C(N)=O)n(C(=O)/C=C\C(=O)[O-])c2c1 (protonated)
CC(C)(C)c1ccc2cc(C(N)=O)n(C(=O)/C=C\C(=O)[O-])c2c1 (cis-trans isomerization)
CC(C)(C)c1ccc2cc(C(N)=O)n(C(=O)/C=C\C(=O)[O-])c2c1 (3D coordinates assigned)
CC(C)(C)c1ccc2cc(C(N)=O)n(C(=O)/C=C\C(=O)[O-])c2c1 (optimized conformer: 86.52854950957814 kcal/mol)

>  <smiles>  (83) 
CC(C)(C)c1ccc2cc(C(N)=O)n(C(=O)/C=C\C(=O)O)c2c1

>  <score_type>  (83) 
oracle

>  <origin>  (83) 
adg

>  <m_score__min__energy>  (83) 
-11.31

>  <m_primary>  (83) 
energy

$$$$
83:0
     RDKit          3D

 43 45  0  0  0  0  0  0  0  0999 V2000
   -1.5280   25.5670  -26.6690 C   0  0  0  0  0  0  0  0  0  0  0  0
   -1.4170   25.0590  -28.1190 C   0  0  1  0  0  0  0  0  0  0  0  0
   -1.2380   26.1430  -29.0000 O   0  0  0  0  0  0  0  0  0  0  0  0
   -0.2310   24.0980  -28.2840 C   0  0  0  0  0  0  0  0  0  0  0  0
   -0.6730   23.0800  -29.3270 C   0  0  0  0  0  0  0  0  0  0  0  0
   -2.1250   23.1320  -29.3380 N   0  0  0  0  0  0  0  0  0  0  0  0
   -2.9220   22.1100  -29.9720 C   0  0  0  0  0  0  0  0  0  0  0  0
   -3.0970   21.0130  -29.3760 O   0  0  0  0  0  0  0  0  0  0  0  0
   -3.5670   22.3010  -31.2930 C   0  0  0  0  0  0  0  0  0  0  0  0
   -2.8830   22.2790  -32.3490 O   0  0  0  0  0  0  0  0  0  0  0  0
   -4.9910   22.4750  -31.3840 N   0  0  0  0  0  0  0  0  0  0  0  0
   -5.7400   23.5120  -30.9140 C   0  0  0  0  0  0  0  0  0  0  0  0
   -5.2160   24.7620  -30.3220 C   0  0  0  0  0  0  0  0  0  0  0  0
   -5.7480   25.2890  -29.1060 N   0  0  0  0  0  0  0  0  0  0  0  0
   -4.2510   25.3500  -30.8790 O   0  0  0  0  0  0  0  0  0  0  0  0
   -7.0970   23.2600  -31.1010 C   0  0  0  0  0  0  0  0  0  0  0  0
   -7.1560   22.0340  -31.7230 C   0  0  0  0  0  0  0  0  0  0  0  0
   -8.2580   21.2860  -32.1260 C   0  0  0  0  0  0  0  0  0  0  0  0
   -8.0240   20.0300  -32.7110 C   0  0  0  0  0  0  0  0  0  0  0  0
   -6.7010   19.5490  -32.8960 C   0  0  0  0  0  0  0  0  0  0  0  0
   -6.4630   18.1760  -33.4690 C   0  0  0  0  0  0  0  0  0  0  0  0
   -6.0220   18.2660  -34.7790 F   0  0  0  0  0  0  0  0  0  0  0  0
   -7.6300   17.4300  -33.4560 F   0  0  0  0  0  0  0  0  0  0  0  0
   -5.5050   17.5270  -32.7140 F   0  0  0  0  0  0  0  0  0  0  0  0
   -5.6090   20.3300  -32.4490 C   0  0  0  0  0  0  0  0  0  0  0  0
   -5.8720   21.5830  -31.8840 C   0  0  0  0  0  0  0  0  0  0  0  0
   -2.6460   24.2310  -28.5380 C   0  0  0  0  0  0  0  0  0  0  0  0
   -1.3460   24.7342  -25.9738 H   0  0  0  0  0  0  0  0  0  0  0  0
   -0.7812   26.3565  -26.4989 H   0  0  0  0  0  0  0  0  0  0  0  0
   -2.5361   25.9731  -26.4989 H   0  0  0  0  0  0  0  0  0  0  0  0
   -0.4770   26.6850  -28.6660 H   0  0  0  0  0  0  0  0  0  0  0  0
    0.6593   24.6425  -28.6316 H   0  0  0  0  0  0  0  0  0  0  0  0
    0.0387   23.6161  -27.3327 H   0  0  0  0  0  0  0  0  0  0  0  0
   -0.2724   23.3461  -30.3163 H   0  0  0  0  0  0  0  0  0  0  0  0
   -0.3051   22.0708  -29.0901 H   0  0  0  0  0  0  0  0  0  0  0  0
   -5.4040   26.2050  -28.7390 H   0  0  0  0  0  0  0  0  0  0  0  0
   -6.4120   24.7390  -28.5200 H   0  0  0  0  0  0  0  0  0  0  0  0
   -7.9413   23.9036  -30.8130 H   0  0  0  0  0  0  0  0  0  0  0  0
   -9.2812   21.6664  -31.9907 H   0  0  0  0  0  0  0  0  0  0  0  0
   -8.8763   19.4118  -33.0295 H   0  0  0  0  0  0  0  0  0  0  0  0
   -4.5771   19.9607  -32.5434 H   0  0  0  0  0  0  0  0  0  0  0  0
   -3.3375   24.8451  -29.1336 H   0  0  0  0  0  0  0  0  0  0  0  0
   -3.2081   23.8675  -27.6651 H   0  0  0  0  0  0  0  0  0  0  0  0
  1  2  1  0
  2  3  1  6
  2  4  1  0
  4  5  1  0
  5  6  1  0
  6  7  1  0
  7  8  2  0
  7  9  1  0
  9 10  2  0
  9 11  1  0
 11 12  1  0
 12 13  1  0
 13 14  1  0
 13 15  2  0
 12 16  2  0
 16 17  1  0
 17 18  2  0
 18 19  1  0
 19 20  2  0
 20 21  1  0
 21 22  1  0
 21 23  1  0
 21 24  1  0
 20 25  1  0
 25 26  2  0
  6 27  1  0
 27  2  1  0
 26 11  1  0
 26 17  1  0
  1 28  1  0
  1 29  1  0
  1 30  1  0
  3 31  1  0
  4 32  1  0
  4 33  1  0
  5 34  1  0
  5 35  1  0
 14 36  1  0
 14 37  1  0
 16 38  1  0
 18 39  1  0
 19 40  1  0
 25 41  1  0
 27 42  1  0
 27 43  1  0
M  END
>  <UniqueID>  (84) 
81

>  <SMILES>  (84) 
C[C@@]1(O)CCN(C(=O)C(=O)n2c(C(N)=O)cc3ccc(C(F)(F)F)cc32)C1

>  <Energy>  (84) 
86.87047709001907

>  <Genealogy>  (84) 
C[C@@]1(O)CCN(C(=O)C(=O)n2c(C(N)=O)cc3ccc(C(F)(F)F)cc32)C1 (chirality)
C[C@@]1(O)CCN(C(=O)C(=O)n2c(C(N)=O)cc3ccc(C(F)(F)F)cc32)C1 (3D coordinates assigned)
C[C@@]1(O)CCN(C(=O)C(=O)n2c(C(N)=O)cc3ccc(C(F)(F)F)cc32)C1 (nonaromatic ring conformer: 86.87047709001907 kcal/mol)

>  <smiles>  (84) 
CC1(O)CCN(C(=O)C(=O)n2c(C(N)=O)cc3ccc(C(F)(F)F)cc32)C1

>  <score_type>  (84) 
oracle

>  <origin>  (84) 
adg

>  <m_score__min__energy>  (84) 
-10.029999999999999

>  <m_primary>  (84) 
energy

$$$$
84:0
     RDKit          3D

 50 52  0  0  0  0  0  0  0  0999 V2000
   -0.0630   21.2450  -36.0620 C   0  0  0  0  0  0  0  0  0  0  0  0
    0.2340   20.6230  -34.7680 N   0  0  0  0  0  0  0  0  0  0  0  0
    1.6260   20.4090  -34.3570 C   0  0  0  0  0  0  0  0  0  0  0  0
   -0.8620   20.2290  -33.9120 C   0  0  0  0  0  0  0  0  0  0  0  0
   -2.0510   20.4420  -34.2780 O   0  0  0  0  0  0  0  0  0  0  0  0
   -0.6310   19.5390  -32.5990 C   0  0  0  0  0  0  0  0  0  0  0  0
   -0.0940   20.4680  -31.6650 O   0  0  0  0  0  0  0  0  0  0  0  0
   -0.8860   21.3900  -30.9750 C   0  0  0  0  0  0  0  0  0  0  0  0
   -0.4350   21.9760  -29.9530 O   0  0  0  0  0  0  0  0  0  0  0  0
   -2.2180   21.6450  -31.4380 N   0  0  0  0  0  0  0  0  0  0  0  0
   -3.1370   22.5440  -30.7980 C   0  0  0  0  0  0  0  0  0  0  0  0
   -2.7500   23.3000  -29.8670 O   0  0  0  0  0  0  0  0  0  0  0  0
   -4.5000   22.6140  -31.2470 N   0  0  0  0  0  0  0  0  0  0  0  0
   -5.3910   23.6280  -31.0600 C   0  0  0  0  0  0  0  0  0  0  0  0
   -5.0880   24.9550  -30.4840 C   0  0  0  0  0  0  0  0  0  0  0  0
   -3.8900   25.6470  -30.8260 N   0  0  0  0  0  0  0  0  0  0  0  0
   -5.9180   25.5050  -29.7110 O   0  0  0  0  0  0  0  0  0  0  0  0
   -6.6410   23.2770  -31.5670 C   0  0  0  0  0  0  0  0  0  0  0  0
   -6.4830   22.0120  -32.0840 C   0  0  0  0  0  0  0  0  0  0  0  0
   -7.4050   21.1760  -32.7070 C   0  0  0  0  0  0  0  0  0  0  0  0
   -6.9690   19.9070  -33.1220 C   0  0  0  0  0  0  0  0  0  0  0  0
   -5.6280   19.4910  -32.9060 C   0  0  0  0  0  0  0  0  0  0  0  0
   -5.1810   18.1430  -33.3420 C   0  0  0  0  0  0  0  0  0  0  0  0
   -5.4790   16.9990  -32.5880 C   0  0  0  0  0  0  0  0  0  0  0  0
   -5.0610   15.7770  -33.0070 N   0  0  0  0  0  0  0  0  0  0  0  0
   -4.3480   15.6330  -34.1550 C   0  0  0  0  0  0  0  0  0  0  0  0
   -3.9220   14.3340  -34.5650 N   0  0  0  0  0  0  0  0  0  0  0  0
   -4.0440   16.7270  -34.9050 N   0  0  0  0  0  0  0  0  0  0  0  0
   -4.4450   17.9690  -34.5240 C   0  0  0  0  0  0  0  0  0  0  0  0
   -4.7230   20.3720  -32.2670 C   0  0  0  0  0  0  0  0  0  0  0  0
   -5.1820   21.6340  -31.8780 C   0  0  0  0  0  0  0  0  0  0  0  0
   -0.5317   22.2266  -35.8980 H   0  0  0  0  0  0  0  0  0  0  0  0
    0.8704   21.3746  -36.6294 H   0  0  0  0  0  0  0  0  0  0  0  0
   -0.7506   20.6006  -36.6294 H   0  0  0  0  0  0  0  0  0  0  0  0
    1.6867   20.3997  -33.2587 H   0  0  0  0  0  0  0  0  0  0  0  0
    1.9810   19.4457  -34.7521 H   0  0  0  0  0  0  0  0  0  0  0  0
    2.2540   21.2212  -34.7521 H   0  0  0  0  0  0  0  0  0  0  0  0
   -1.5851   19.1457  -32.2182 H   0  0  0  0  0  0  0  0  0  0  0  0
    0.0768   18.7088  -32.7398 H   0  0  0  0  0  0  0  0  0  0  0  0
   -2.5440   21.1270  -32.2860 H   0  0  0  0  0  0  0  0  0  0  0  0
   -2.9580   25.2970  -30.5140 H   0  0  0  0  0  0  0  0  0  0  0  0
   -7.5590   23.8829  -31.5560 H   0  0  0  0  0  0  0  0  0  0  0  0
   -8.4438   21.4994  -32.8695 H   0  0  0  0  0  0  0  0  0  0  0  0
   -7.6749   19.2266  -33.6207 H   0  0  0  0  0  0  0  0  0  0  0  0
   -6.0531   17.0918  -31.6543 H   0  0  0  0  0  0  0  0  0  0  0  0
   -4.4980   13.7780  -35.2350 H   0  0  0  0  0  0  0  0  0  0  0  0
   -3.0320   13.9260  -34.2030 H   0  0  0  0  0  0  0  0  0  0  0  0
   -3.4930   16.6190  -35.7870 H   0  0  0  0  0  0  0  0  0  0  0  0
   -4.1915   18.8410  -35.1448 H   0  0  0  0  0  0  0  0  0  0  0  0
   -3.6817   20.0704  -32.0806 H   0  0  0  0  0  0  0  0  0  0  0  0
  1  2  1  0
  2  3  1  0
  2  4  1  0
  4  5  2  0
  4  6  1  0
  6  7  1  0
  7  8  1  0
  8  9  2  0
  8 10  1  0
 10 11  1  0
 11 12  2  0
 11 13  1  0
 13 14  1  0
 14 15  1  0
 15 16  1  0
 15 17  2  0
 14 18  2  0
 18 19  1  0
 19 20  2  0
 20 21  1  0
 21 22  2  0
 22 23  1  0
 23 24  2  0
 24 25  1  0
 25 26  2  0
 26 27  1  0
 26 28  1  0
 28 29  2  0
 22 30  1  0
 30 31  2  0
 31 13  1  0
 31 19  1  0
 29 23  1  0
  1 32  1  0
  1 33  1  0
  1 34  1  0
  3 35  1  0
  3 36  1  0
  3 37  1  0
  6 38  1  0
  6 39  1  0
 10 40  1  0
 16 41  1  0
 18 42  1  0
 20 43  1  0
 21 44  1  0
 24 45  1  0
 27 46  1  0
 27 47  1  0
 28 48  1  0
 29 49  1  0
 30 50  1  0
M  CHG  2  16  -1  28   1
M  END
>  <UniqueID>  (85) 
82

>  <SMILES>  (85) 
CN(C)C(=O)COC(=O)NC(=O)n1c(C([NH-])=O)cc2ccc(-c3cnc(N)[nH+]c3)cc21

>  <Energy>  (85) 
90.11829127403088

>  <Genealogy>  (85) 
CN(C)C(=O)COC(=O)NC(=O)n1c(C([NH-])=O)cc2ccc(-c3cnc(N)[nH+]c3)cc21 (protonated)
CN(C)C(=O)COC(=O)NC(=O)n1c(C([NH-])=O)cc2ccc(-c3cnc(N)[nH+]c3)cc21 (3D coordinates assigned)
CN(C)C(=O)COC(=O)NC(=O)n1c(C([NH-])=O)cc2ccc(-c3cnc(N)[nH+]c3)cc21 (optimized conformer: 90.11829127403088 kcal/mol)

>  <smiles>  (85) 
CN(C)C(=O)COC(=O)NC(=O)n1c(C(N)=O)cc2ccc(-c3cnc(N)nc3)cc21

>  <score_type>  (85) 
oracle

>  <origin>  (85) 
adg

>  <m_score__min__energy>  (85) 
-11.039999999999999

>  <m_primary>  (85) 
energy

$$$$
85:0
     RDKit          3D

 39 41  0  0  0  0  0  0  0  0999 V2000
   -5.5230   24.7560  -29.0990 N   0  0  0  0  0  0  0  0  0  0  0  0
   -5.2910   24.4110  -30.4650 C   0  0  0  0  0  0  0  0  0  0  0  0
   -4.5990   25.1770  -31.1870 O   0  0  0  0  0  0  0  0  0  0  0  0
   -5.7930   23.1410  -31.0290 C   0  0  0  0  0  0  0  0  0  0  0  0
   -7.1370   22.7850  -31.0330 C   0  0  0  0  0  0  0  0  0  0  0  0
   -7.1920   21.5770  -31.6890 C   0  0  0  0  0  0  0  0  0  0  0  0
   -8.2800   20.7540  -31.9540 C   0  0  0  0  0  0  0  0  0  0  0  0
   -8.0410   19.5350  -32.6090 C   0  0  0  0  0  0  0  0  0  0  0  0
   -6.7280   19.1630  -32.9940 C   0  0  0  0  0  0  0  0  0  0  0  0
   -6.4760   17.8230  -33.6380 C   0  0  0  0  0  0  0  0  0  0  0  0
   -6.1800   18.0090  -34.9750 F   0  0  0  0  0  0  0  0  0  0  0  0
   -7.5930   17.0130  -33.5320 F   0  0  0  0  0  0  0  0  0  0  0  0
   -5.4150   17.1790  -33.0260 F   0  0  0  0  0  0  0  0  0  0  0  0
   -5.6430   20.0160  -32.6830 C   0  0  0  0  0  0  0  0  0  0  0  0
   -5.9130   21.2360  -32.0490 C   0  0  0  0  0  0  0  0  0  0  0  0
   -5.0390   22.1880  -31.6460 N   0  0  0  0  0  0  0  0  0  0  0  0
   -3.6050   22.1370  -31.7310 C   0  0  0  0  0  0  0  0  0  0  0  0
   -3.0390   22.0810  -32.8570 O   0  0  0  0  0  0  0  0  0  0  0  0
   -2.8400   22.1480  -30.5610 O   0  0  0  0  0  0  0  0  0  0  0  0
   -2.7460   21.0260  -29.6900 C   0  0  0  0  0  0  0  0  0  0  0  0
   -2.7960   21.4660  -28.3370 O   0  0  0  0  0  0  0  0  0  0  0  0
   -3.3870   22.6740  -27.9520 C   0  0  0  0  0  0  0  0  0  0  0  0
   -4.5600   22.6960  -27.4910 O   0  0  0  0  0  0  0  0  0  0  0  0
   -2.6320   23.9260  -28.0890 C   0  0  0  0  0  0  0  0  0  0  0  0
   -2.1340   24.7010  -27.0630 C   0  0  0  0  0  0  0  0  0  0  0  0
   -1.5030   25.7630  -27.6780 C   0  0  0  0  0  0  0  0  0  0  0  0
   -1.6040   25.6480  -28.9830 O   0  0  0  0  0  0  0  0  0  0  0  0
   -2.2760   24.5550  -29.2660 C   0  0  0  0  0  0  0  0  0  0  0  0
   -5.1970   25.6760  -28.7280 H   0  0  0  0  0  0  0  0  0  0  0  0
   -5.9490   24.0730  -28.4350 H   0  0  0  0  0  0  0  0  0  0  0  0
   -7.9777   23.3493  -30.6030 H   0  0  0  0  0  0  0  0  0  0  0  0
   -9.2981   21.0486  -31.6595 H   0  0  0  0  0  0  0  0  0  0  0  0
   -8.8825   18.8606  -32.8260 H   0  0  0  0  0  0  0  0  0  0  0  0
   -4.6112   19.7281  -32.9331 H   0  0  0  0  0  0  0  0  0  0  0  0
   -3.5848   20.3412  -29.8834 H   0  0  0  0  0  0  0  0  0  0  0  0
   -1.7949   20.5033  -29.8691 H   0  0  0  0  0  0  0  0  0  0  0  0
   -2.2213   24.5126  -25.9828 H   0  0  0  0  0  0  0  0  0  0  0  0
   -0.9916   26.5837  -27.1537 H   0  0  0  0  0  0  0  0  0  0  0  0
   -2.5166   24.1980  -30.2783 H   0  0  0  0  0  0  0  0  0  0  0  0
  1  2  1  0
  2  3  2  0
  2  4  1  0
  4  5  2  0
  5  6  1  0
  6  7  2  0
  7  8  1  0
  8  9  2  0
  9 10  1  0
 10 11  1  0
 10 12  1  0
 10 13  1  0
  9 14  1  0
 14 15  2  0
 15 16  1  0
 16 17  1  0
 17 18  2  0
 17 19  1  0
 19 20  1  0
 20 21  1  0
 21 22  1  0
 22 23  2  0
 22 24  1  0
 24 25  1  0
 25 26  2  0
 26 27  1  0
 27 28  1  0
 16  4  1  0
 28 24  2  0
 15  6  1  0
  1 29  1  0
  1 30  1  0
  5 31  1  0
  7 32  1  0
  8 33  1  0
 14 34  1  0
 20 35  1  0
 20 36  1  0
 25 37  1  0
 26 38  1  0
 28 39  1  0
M  END
>  <UniqueID>  (86) 
83

>  <SMILES>  (86) 
NC(=O)c1cc2ccc(C(F)(F)F)cc2n1C(=O)OCOC(=O)c1ccoc1

>  <Energy>  (86) 
103.14376828335203

>  <Genealogy>  (86) 
NC(=O)c1cc2ccc(C(F)(F)F)cc2n1C(=O)OCOC(=O)c1ccoc1 (3D coordinates assigned)
NC(=O)c1cc2ccc(C(F)(F)F)cc2n1C(=O)OCOC(=O)c1ccoc1 (optimized conformer: 103.14376828335203 kcal/mol)

>  <smiles>  (86) 
NC(=O)c1cc2ccc(C(F)(F)F)cc2n1C(=O)OCOC(=O)c1ccoc1

>  <score_type>  (86) 
oracle

>  <origin>  (86) 
adg

>  <m_score__min__energy>  (86) 
-8.4600000000000009

>  <m_primary>  (86) 
energy

$$$$
86:0
     RDKit          3D

 38 39  0  0  0  0  0  0  0  0999 V2000
   -1.2710   25.5840  -28.5690 C   0  0  0  0  0  0  0  0  0  0  0  0
   -0.7120   24.2540  -28.9500 C   0  0  0  0  0  0  0  0  0  0  0  0
    0.4820   23.9700  -28.6580 O   0  0  0  0  0  0  0  0  0  0  0  0
   -1.5250   23.3140  -29.6640 N   0  0  0  0  0  0  0  0  0  0  0  0
   -1.0050   22.0100  -30.0740 C   0  0  0  0  0  0  0  0  0  0  0  0
   -2.1280   20.9770  -30.1930 C   0  0  0  0  0  0  0  0  0  0  0  0
   -3.4090   21.6000  -30.1010 O   0  0  0  0  0  0  0  0  0  0  0  0
   -3.9110   22.4760  -31.0700 C   0  0  0  0  0  0  0  0  0  0  0  0
   -3.1460   22.9780  -31.9370 O   0  0  0  0  0  0  0  0  0  0  0  0
   -5.3040   22.8220  -31.0600 N   0  0  0  0  0  0  0  0  0  0  0  0
   -5.8550   24.0580  -30.8890 C   0  0  0  0  0  0  0  0  0  0  0  0
   -5.1290   25.2850  -30.4990 C   0  0  0  0  0  0  0  0  0  0  0  0
   -3.7080   25.2970  -30.4090 N   0  0  0  0  0  0  0  0  0  0  0  0
   -5.7770   26.3220  -30.1960 O   0  0  0  0  0  0  0  0  0  0  0  0
   -7.2370   24.0050  -31.0600 C   0  0  0  0  0  0  0  0  0  0  0  0
   -7.5200   22.6860  -31.3360 C   0  0  0  0  0  0  0  0  0  0  0  0
   -8.7380   22.0710  -31.6090 C   0  0  0  0  0  0  0  0  0  0  0  0
   -8.7300   20.6960  -31.8970 C   0  0  0  0  0  0  0  0  0  0  0  0
   -7.5140   19.9680  -31.9140 C   0  0  0  0  0  0  0  0  0  0  0  0
   -7.5280   18.5030  -32.2440 C   0  0  0  0  0  0  0  0  0  0  0  0
   -8.7730   17.9730  -31.9600 F   0  0  0  0  0  0  0  0  0  0  0  0
   -6.5690   17.8460  -31.4920 F   0  0  0  0  0  0  0  0  0  0  0  0
   -6.2970   20.6270  -31.6340 C   0  0  0  0  0  0  0  0  0  0  0  0
   -6.3370   21.9940  -31.3320 C   0  0  0  0  0  0  0  0  0  0  0  0
   -1.3058   25.6667  -27.4727 H   0  0  0  0  0  0  0  0  0  0  0  0
   -0.6317   26.3809  -28.9767 H   0  0  0  0  0  0  0  0  0  0  0  0
   -2.2876   25.6849  -28.9767 H   0  0  0  0  0  0  0  0  0  0  0  0
   -2.5090   23.5820  -29.8950 H   0  0  0  0  0  0  0  0  0  0  0  0
   -0.5078   22.1130  -31.0498 H   0  0  0  0  0  0  0  0  0  0  0  0
   -0.2936   21.6636  -29.3099 H   0  0  0  0  0  0  0  0  0  0  0  0
   -2.0454   20.4663  -31.1638 H   0  0  0  0  0  0  0  0  0  0  0  0
   -2.0293   20.2560  -29.3682 H   0  0  0  0  0  0  0  0  0  0  0  0
   -3.1150   25.0320  -31.2270 H   0  0  0  0  0  0  0  0  0  0  0  0
   -7.9502   24.8395  -30.9895 H   0  0  0  0  0  0  0  0  0  0  0  0
   -9.6773   22.6433  -31.5996 H   0  0  0  0  0  0  0  0  0  0  0  0
   -9.6770   20.1791  -32.1115 H   0  0  0  0  0  0  0  0  0  0  0  0
   -7.3087   18.3730  -33.3140 H   0  0  0  0  0  0  0  0  0  0  0  0
   -5.3423   20.0809  -31.6526 H   0  0  0  0  0  0  0  0  0  0  0  0
  1  2  1  0
  2  3  2  0
  2  4  1  0
  4  5  1  0
  5  6  1  0
  6  7  1  0
  7  8  1  0
  8  9  2  0
  8 10  1  0
 10 11  1  0
 11 12  1  0
 12 13  1  0
 12 14  2  0
 11 15  2  0
 15 16  1  0
 16 17  2  0
 17 18  1  0
 18 19  2  0
 19 20  1  0
 20 21  1  0
 20 22  1  0
 19 23  1  0
 23 24  2  0
 24 10  1  0
 24 16  1  0
  1 25  1  0
  1 26  1  0
  1 27  1  0
  4 28  1  0
  5 29  1  0
  5 30  1  0
  6 31  1  0
  6 32  1  0
 13 33  1  0
 15 34  1  0
 17 35  1  0
 18 36  1  0
 20 37  1  0
 23 38  1  0
M  CHG  1  13  -1
M  END
>  <UniqueID>  (87) 
84

>  <SMILES>  (87) 
CC(=O)NCCOC(=O)n1c(C([NH-])=O)cc2ccc(C(F)F)cc21

>  <Energy>  (87) 
69.38040091601752

>  <Genealogy>  (87) 
CC(=O)NCCOC(=O)n1c(C([NH-])=O)cc2ccc(C(F)F)cc21 (protonated)
CC(=O)NCCOC(=O)n1c(C([NH-])=O)cc2ccc(C(F)F)cc21 (3D coordinates assigned)
CC(=O)NCCOC(=O)n1c(C([NH-])=O)cc2ccc(C(F)F)cc21 (optimized conformer: 69.38040091601752 kcal/mol)

>  <smiles>  (87) 
CC(=O)NCCOC(=O)n1c(C(N)=O)cc2ccc(C(F)F)cc21

>  <score_type>  (87) 
oracle

>  <origin>  (87) 
adg

>  <m_score__min__energy>  (87) 
-9.4000000000000004

>  <m_primary>  (87) 
energy

$$$$
87:0
     RDKit          3D

 45 46  0  0  0  0  0  0  0  0999 V2000
   -6.9450   13.8550  -34.5330 C   0  0  0  0  0  0  0  0  0  0  0  0
   -7.2120   15.1970  -34.1450 O   0  0  0  0  0  0  0  0  0  0  0  0
   -6.1940   16.1180  -33.8670 C   0  0  0  0  0  0  0  0  0  0  0  0
   -5.0120   15.7210  -33.6650 O   0  0  0  0  0  0  0  0  0  0  0  0
   -6.4850   17.5930  -33.8530 C   0  0  2  0  0  0  0  0  0  0  0  0
   -5.4740   18.3900  -34.6880 C   0  0  0  0  0  0  0  0  0  0  0  0
   -6.5500   18.0940  -32.4660 N   0  0  0  0  0  0  0  0  0  0  0  0
   -6.4200   17.1720  -31.3350 C   0  0  0  0  0  0  0  0  0  0  0  0
   -6.7740   19.4870  -32.1810 C   0  0  0  0  0  0  0  0  0  0  0  0
   -7.9850   20.1010  -32.5810 C   0  0  0  0  0  0  0  0  0  0  0  0
   -8.2090   21.4670  -32.3400 C   0  0  0  0  0  0  0  0  0  0  0  0
   -7.2080   22.1870  -31.6940 C   0  0  0  0  0  0  0  0  0  0  0  0
   -7.1480   23.5240  -31.3740 C   0  0  0  0  0  0  0  0  0  0  0  0
   -5.9080   23.7020  -30.7630 C   0  0  0  0  0  0  0  0  0  0  0  0
   -5.4510   24.9850  -30.1830 C   0  0  0  0  0  0  0  0  0  0  0  0
   -4.1690   25.5220  -30.5180 N   0  0  0  0  0  0  0  0  0  0  0  0
   -6.2020   25.6290  -29.4030 O   0  0  0  0  0  0  0  0  0  0  0  0
   -5.2290   22.5210  -30.7080 N   0  0  0  0  0  0  0  0  0  0  0  0
   -3.8890   22.3020  -30.2370 C   0  0  0  0  0  0  0  0  0  0  0  0
   -3.6640   21.4030  -29.3830 O   0  0  0  0  0  0  0  0  0  0  0  0
   -2.8430   23.0990  -30.7130 O   0  0  0  0  0  0  0  0  0  0  0  0
   -1.5150   23.0340  -30.2020 C   0  0  0  0  0  0  0  0  0  0  0  0
   -1.2130   24.2490  -29.3860 C   0  0  0  0  0  0  0  0  0  0  0  0
   -0.1140   24.3520  -28.7820 O   0  0  0  0  0  0  0  0  0  0  0  0
   -2.1210   25.3010  -29.3490 O   0  0  0  0  0  0  0  0  0  0  0  0
   -6.0390   21.6030  -31.2800 C   0  0  0  0  0  0  0  0  0  0  0  0
   -5.7870   20.2470  -31.5150 C   0  0  0  0  0  0  0  0  0  0  0  0
   -6.8210   13.2315  -33.6353 H   0  0  0  0  0  0  0  0  0  0  0  0
   -7.7846   13.4725  -35.1319 H   0  0  0  0  0  0  0  0  0  0  0  0
   -6.0229   13.8230  -35.1319 H   0  0  0  0  0  0  0  0  0  0  0  0
   -7.4685   17.7417  -34.3228 H   0  0  0  0  0  0  0  0  0  0  0  0
   -4.7892   18.9298  -34.0174 H   0  0  0  0  0  0  0  0  0  0  0  0
   -4.8980   17.7004  -35.3226 H   0  0  0  0  0  0  0  0  0  0  0  0
   -6.0100   19.1111  -35.3226 H   0  0  0  0  0  0  0  0  0  0  0  0
   -6.4992   17.7341  -30.3928 H   0  0  0  0  0  0  0  0  0  0  0  0
   -7.2209   16.4194  -31.3815 H   0  0  0  0  0  0  0  0  0  0  0  0
   -5.4422   16.6702  -31.3815 H   0  0  0  0  0  0  0  0  0  0  0  0
   -8.7582   19.5029  -33.0854 H   0  0  0  0  0  0  0  0  0  0  0  0
   -9.1457   21.9521  -32.6519 H   0  0  0  0  0  0  0  0  0  0  0  0
   -7.9155   24.2895  -31.5607 H   0  0  0  0  0  0  0  0  0  0  0  0
   -3.8770   26.4510  -30.1420 H   0  0  0  0  0  0  0  0  0  0  0  0
   -3.4930   24.9880  -31.1060 H   0  0  0  0  0  0  0  0  0  0  0  0
   -1.4123   22.1386  -29.5713 H   0  0  0  0  0  0  0  0  0  0  0  0
   -0.8095   22.9845  -31.0445 H   0  0  0  0  0  0  0  0  0  0  0  0
   -4.8437   19.7842  -31.1892 H   0  0  0  0  0  0  0  0  0  0  0  0
  1  2  1  0
  2  3  1  0
  3  4  2  0
  3  5  1  0
  5  6  1  0
  5  7  1  0
  7  8  1  0
  7  9  1  0
  9 10  2  0
 10 11  1  0
 11 12  2  0
 12 13  1  0
 13 14  2  0
 14 15  1  0
 15 16  1  0
 15 17  2  0
 14 18  1  0
 18 19  1  0
 19 20  2  0
 19 21  1  0
 21 22  1  0
 22 23  1  0
 23 24  2  0
 23 25  1  0
 18 26  1  0
 26 27  2  0
 27  9  1  0
 26 12  1  0
  1 28  1  0
  1 29  1  0
  1 30  1  0
  5 31  1  6
  6 32  1  0
  6 33  1  0
  6 34  1  0
  8 35  1  0
  8 36  1  0
  8 37  1  0
 10 38  1  0
 11 39  1  0
 13 40  1  0
 16 41  1  0
 16 42  1  0
 22 43  1  0
 22 44  1  0
 27 45  1  0
M  CHG  1  25  -1
M  END
>  <UniqueID>  (88) 
85

>  <SMILES>  (88) 
COC(=O)[C@H](C)N(C)c1ccc2cc(C(N)=O)n(C(=O)OCC(=O)[O-])c2c1

>  <Energy>  (88) 
80.02689084010598

>  <Genealogy>  (88) 
COC(=O)C(C)N(C)c1ccc2cc(C(N)=O)n(C(=O)OCC(=O)[O-])c2c1 (protonated)
COC(=O)[C@H](C)N(C)c1ccc2cc(C(N)=O)n(C(=O)OCC(=O)[O-])c2c1 (chirality)
COC(=O)[C@H](C)N(C)c1ccc2cc(C(N)=O)n(C(=O)OCC(=O)[O-])c2c1 (3D coordinates assigned)
COC(=O)[C@H](C)N(C)c1ccc2cc(C(N)=O)n(C(=O)OCC(=O)[O-])c2c1 (optimized conformer: 80.02689084010598 kcal/mol)

>  <smiles>  (88) 
COC(=O)C(C)N(C)c1ccc2cc(C(N)=O)n(C(=O)OCC(=O)O)c2c1

>  <score_type>  (88) 
oracle

>  <origin>  (88) 
adg

>  <m_score__min__energy>  (88) 
-10.27

>  <m_primary>  (88) 
energy

$$$$
88:0
     RDKit          3D

 30 31  0  0  0  0  0  0  0  0999 V2000
   -3.8890   25.6630  -30.8410 N   0  0  0  0  0  0  0  0  0  0  0  0
   -5.2350   25.3240  -30.5160 C   0  0  0  0  0  0  0  0  0  0  0  0
   -5.9580   26.1670  -29.9230 O   0  0  0  0  0  0  0  0  0  0  0  0
   -5.8090   24.0220  -30.9170 C   0  0  0  0  0  0  0  0  0  0  0  0
   -7.1650   23.8290  -31.1730 C   0  0  0  0  0  0  0  0  0  0  0  0
   -7.2740   22.5250  -31.5970 C   0  0  0  0  0  0  0  0  0  0  0  0
   -8.4010   21.7940  -31.9610 C   0  0  0  0  0  0  0  0  0  0  0  0
   -8.2260   20.4470  -32.3190 C   0  0  0  0  0  0  0  0  0  0  0  0
   -6.9360   19.8580  -32.3170 C   0  0  0  0  0  0  0  0  0  0  0  0
   -6.7710   18.3950  -32.6410 C   0  0  0  0  0  0  0  0  0  0  0  0
   -6.1670   18.2330  -33.8770 F   0  0  0  0  0  0  0  0  0  0  0  0
   -8.0130   17.7910  -32.6640 F   0  0  0  0  0  0  0  0  0  0  0  0
   -5.9820   17.7700  -31.6900 F   0  0  0  0  0  0  0  0  0  0  0  0
   -5.8190   20.6280  -31.9150 C   0  0  0  0  0  0  0  0  0  0  0  0
   -6.0200   21.9720  -31.5830 C   0  0  0  0  0  0  0  0  0  0  0  0
   -5.1080   22.8790  -31.1640 N   0  0  0  0  0  0  0  0  0  0  0  0
   -3.7120   22.6400  -30.9300 C   0  0  0  0  0  0  0  0  0  0  0  0
   -3.0250   22.0400  -31.8000 O   0  0  0  0  0  0  0  0  0  0  0  0
   -3.1350   23.0570  -29.7220 O   0  0  0  0  0  0  0  0  0  0  0  0
   -1.7890   23.4110  -29.5530 C   0  0  0  0  0  0  0  0  0  0  0  0
   -1.4490   24.6060  -29.3420 O   0  0  0  0  0  0  0  0  0  0  0  0
   -0.7480   22.3380  -29.5560 C   0  0  0  0  0  0  0  0  0  0  0  0
   -0.2670   22.1490  -30.8390 F   0  0  0  0  0  0  0  0  0  0  0  0
   -1.2910   21.1510  -29.1000 F   0  0  0  0  0  0  0  0  0  0  0  0
    0.2940   22.7100  -28.7280 F   0  0  0  0  0  0  0  0  0  0  0  0
   -3.0890   25.1220  -30.4460 H   0  0  0  0  0  0  0  0  0  0  0  0
   -7.9761   24.5635  -31.0600 H   0  0  0  0  0  0  0  0  0  0  0  0
   -9.3987   22.2571  -31.9681 H   0  0  0  0  0  0  0  0  0  0  0  0
   -9.0995   19.8422  -32.6041 H   0  0  0  0  0  0  0  0  0  0  0  0
   -4.8156   20.1800  -31.8647 H   0  0  0  0  0  0  0  0  0  0  0  0
  1  2  1  0
  2  3  2  0
  2  4  1  0
  4  5  2  0
  5  6  1  0
  6  7  2  0
  7  8  1  0
  8  9  2  0
  9 10  1  0
 10 11  1  0
 10 12  1  0
 10 13  1  0
  9 14  1  0
 14 15  2  0
 15 16  1  0
 16 17  1  0
 17 18  2  0
 17 19  1  0
 19 20  1  0
 20 21  2  0
 20 22  1  0
 22 23  1  0
 22 24  1  0
 22 25  1  0
 16  4  1  0
 15  6  1  0
  1 26  1  0
  5 27  1  0
  7 28  1  0
  8 29  1  0
 14 30  1  0
M  CHG  1   1  -1
M  END
>  <UniqueID>  (89) 
86

>  <SMILES>  (89) 
[NH-]C(=O)c1cc2ccc(C(F)(F)F)cc2n1C(=O)OC(=O)C(F)(F)F

>  <Energy>  (89) 
69.98281682539056

>  <Genealogy>  (89) 
[NH-]C(=O)c1cc2ccc(C(F)(F)F)cc2n1C(=O)OC(=O)C(F)(F)F (protonated)
[NH-]C(=O)c1cc2ccc(C(F)(F)F)cc2n1C(=O)OC(=O)C(F)(F)F (3D coordinates assigned)
[NH-]C(=O)c1cc2ccc(C(F)(F)F)cc2n1C(=O)OC(=O)C(F)(F)F (optimized conformer: 69.98281682539056 kcal/mol)

>  <smiles>  (89) 
NC(=O)c1cc2ccc(C(F)(F)F)cc2n1C(=O)OC(=O)C(F)(F)F

>  <score_type>  (89) 
oracle

>  <origin>  (89) 
adg

>  <m_score__min__energy>  (89) 
-8.8200000000000003

>  <m_primary>  (89) 
energy

$$$$
89:0
     RDKit          3D

 38 39  0  0  0  0  0  0  0  0999 V2000
   -3.4440   24.2010  -27.6540 C   0  0  0  0  0  0  0  0  0  0  0  0
   -2.6500   23.5200  -28.6890 N   0  0  0  0  0  0  0  0  0  0  0  0
   -1.2140   23.7800  -28.5020 C   0  0  0  0  0  0  0  0  0  0  0  0
   -2.9090   22.0940  -28.6590 C   0  0  0  0  0  0  0  0  0  0  0  0
   -2.5160   21.4140  -27.7190 O   0  0  0  0  0  0  0  0  0  0  0  0
   -3.6430   21.4180  -29.7860 C   0  0  0  0  0  0  0  0  0  0  0  0
   -3.9730   22.4240  -30.8460 C   0  0  0  0  0  0  0  0  0  0  0  0
   -3.0750   22.8190  -31.6350 O   0  0  0  0  0  0  0  0  0  0  0  0
   -5.3290   22.8410  -31.0460 N   0  0  0  0  0  0  0  0  0  0  0  0
   -5.8600   24.0840  -30.8720 C   0  0  0  0  0  0  0  0  0  0  0  0
   -5.0990   25.3130  -30.5660 C   0  0  0  0  0  0  0  0  0  0  0  0
   -3.6800   25.2830  -30.4360 N   0  0  0  0  0  0  0  0  0  0  0  0
   -5.7060   26.4090  -30.4460 O   0  0  0  0  0  0  0  0  0  0  0  0
   -7.2400   24.0540  -31.0760 C   0  0  0  0  0  0  0  0  0  0  0  0
   -7.5350   22.7430  -31.3830 C   0  0  0  0  0  0  0  0  0  0  0  0
   -8.7540   22.1410  -31.6720 C   0  0  0  0  0  0  0  0  0  0  0  0
   -8.7620   20.7590  -31.9310 C   0  0  0  0  0  0  0  0  0  0  0  0
   -7.5610   20.0030  -31.8750 C   0  0  0  0  0  0  0  0  0  0  0  0
   -7.5740   18.5290  -32.1910 C   0  0  0  0  0  0  0  0  0  0  0  0
   -6.6990   17.8750  -31.3430 F   0  0  0  0  0  0  0  0  0  0  0  0
   -8.8440   18.0040  -32.0220 F   0  0  0  0  0  0  0  0  0  0  0  0
   -7.1840   18.3060  -33.5000 F   0  0  0  0  0  0  0  0  0  0  0  0
   -6.3390   20.6590  -31.6030 C   0  0  0  0  0  0  0  0  0  0  0  0
   -6.3630   22.0350  -31.3580 C   0  0  0  0  0  0  0  0  0  0  0  0
   -3.0882   23.8958  -26.6589 H   0  0  0  0  0  0  0  0  0  0  0  0
   -3.3340   25.2899  -27.7647 H   0  0  0  0  0  0  0  0  0  0  0  0
   -4.5034   23.9264  -27.7647 H   0  0  0  0  0  0  0  0  0  0  0  0
   -2.9280   23.9140  -29.6190 H   0  0  0  0  0  0  0  0  0  0  0  0
   -0.9858   23.8213  -27.4267 H   0  0  0  0  0  0  0  0  0  0  0  0
   -0.6313   22.9728  -28.9697 H   0  0  0  0  0  0  0  0  0  0  0  0
   -0.9513   24.7403  -28.9697 H   0  0  0  0  0  0  0  0  0  0  0  0
   -3.0080   20.6289  -30.2152 H   0  0  0  0  0  0  0  0  0  0  0  0
   -4.5731   20.9739  -29.4017 H   0  0  0  0  0  0  0  0  0  0  0  0
   -3.0770   24.9330  -31.2130 H   0  0  0  0  0  0  0  0  0  0  0  0
   -7.9430   24.8972  -31.0066 H   0  0  0  0  0  0  0  0  0  0  0  0
   -9.6841   22.7278  -31.6973 H   0  0  0  0  0  0  0  0  0  0  0  0
   -9.7090   20.2578  -32.1798 H   0  0  0  0  0  0  0  0  0  0  0  0
   -5.3917   20.1001  -31.5845 H   0  0  0  0  0  0  0  0  0  0  0  0
  1  2  1  0
  2  3  1  0
  2  4  1  0
  4  5  2  0
  4  6  1  0
  6  7  1  0
  7  8  2  0
  7  9  1  0
  9 10  1  0
 10 11  1  0
 11 12  1  0
 11 13  2  0
 10 14  2  0
 14 15  1  0
 15 16  2  0
 16 17  1  0
 17 18  2  0
 18 19  1  0
 19 20  1  0
 19 21  1  0
 19 22  1  0
 18 23  1  0
 23 24  2  0
 24  9  1  0
 24 15  1  0
  1 25  1  0
  1 26  1  0
  1 27  1  0
  2 28  1  0
  3 29  1  0
  3 30  1  0
  3 31  1  0
  6 32  1  0
  6 33  1  0
 12 34  1  0
 14 35  1  0
 16 36  1  0
 17 37  1  0
 23 38  1  0
M  CHG  2   2   1  12  -1
M  END
>  <UniqueID>  (90) 
87

>  <SMILES>  (90) 
C[NH+](C)C(=O)CC(=O)n1c(C([NH-])=O)cc2ccc(C(F)(F)F)cc21

>  <Energy>  (90) 
75.04391301171266

>  <Genealogy>  (90) 
C[NH+](C)C(=O)CC(=O)n1c(C([NH-])=O)cc2ccc(C(F)(F)F)cc21 (protonated)
C[NH+](C)C(=O)CC(=O)n1c(C([NH-])=O)cc2ccc(C(F)(F)F)cc21 (3D coordinates assigned)
C[NH+](C)C(=O)CC(=O)n1c(C([NH-])=O)cc2ccc(C(F)(F)F)cc21 (optimized conformer: 75.04391301171266 kcal/mol)

>  <smiles>  (90) 
CN(C)C(=O)CC(=O)n1c(C(N)=O)cc2ccc(C(F)(F)F)cc21

>  <score_type>  (90) 
oracle

>  <origin>  (90) 
adg

>  <m_score__min__energy>  (90) 
-8.75

>  <m_primary>  (90) 
energy

$$$$
90:0
     RDKit          3D

 43 44  0  0  0  0  0  0  0  0999 V2000
   -2.9540   18.7200  -34.1400 C   0  0  0  0  0  0  0  0  0  0  0  0
   -3.3940   17.3680  -34.1440 O   0  0  0  0  0  0  0  0  0  0  0  0
   -4.5420   16.9510  -34.8220 C   0  0  0  0  0  0  0  0  0  0  0  0
   -4.8300   17.4340  -35.9530 O   0  0  0  0  0  0  0  0  0  0  0  0
   -5.3900   15.9730  -34.2200 N   0  0  0  0  0  0  0  0  0  0  0  0
   -6.8400   16.1080  -34.1720 C   0  0  0  0  0  0  0  0  0  0  0  0
   -7.2280   17.0730  -33.0530 C   0  0  0  0  0  0  0  0  0  0  0  0
   -6.2420   18.1490  -32.9340 N   0  0  0  0  0  0  0  0  0  0  0  0
   -6.5390   19.4890  -32.4920 C   0  0  0  0  0  0  0  0  0  0  0  0
   -7.8890   19.9180  -32.4640 C   0  0  0  0  0  0  0  0  0  0  0  0
   -8.2250   21.2200  -32.0580 C   0  0  0  0  0  0  0  0  0  0  0  0
   -7.1930   22.0710  -31.6750 C   0  0  0  0  0  0  0  0  0  0  0  0
   -7.2340   23.3860  -31.2730 C   0  0  0  0  0  0  0  0  0  0  0  0
   -5.9070   23.7410  -31.0350 C   0  0  0  0  0  0  0  0  0  0  0  0
   -5.4830   25.0560  -30.5060 C   0  0  0  0  0  0  0  0  0  0  0  0
   -4.1460   25.5230  -30.6960 N   0  0  0  0  0  0  0  0  0  0  0  0
   -6.3090   25.7930  -29.9050 O   0  0  0  0  0  0  0  0  0  0  0  0
   -5.0810   22.6840  -31.2780 N   0  0  0  0  0  0  0  0  0  0  0  0
   -3.6450   22.6680  -31.2270 C   0  0  0  0  0  0  0  0  0  0  0  0
   -2.9790   22.5270  -32.2890 O   0  0  0  0  0  0  0  0  0  0  0  0
   -2.9930   22.8250  -29.9990 O   0  0  0  0  0  0  0  0  0  0  0  0
   -1.5870   23.0280  -29.8820 C   0  0  0  0  0  0  0  0  0  0  0  0
   -1.3030   24.3800  -29.3080 C   0  0  0  0  0  0  0  0  0  0  0  0
   -2.1630   25.2960  -29.3870 O   0  0  0  0  0  0  0  0  0  0  0  0
   -0.0980   24.6200  -28.6590 O   0  0  0  0  0  0  0  0  0  0  0  0
   -5.8840   21.6690  -31.6700 C   0  0  0  0  0  0  0  0  0  0  0  0
   -5.5180   20.3840  -32.0830 C   0  0  0  0  0  0  0  0  0  0  0  0
   -2.8414   19.0659  -33.1019 H   0  0  0  0  0  0  0  0  0  0  0  0
   -1.9860   18.7921  -34.6575 H   0  0  0  0  0  0  0  0  0  0  0  0
   -3.6941   19.3480  -34.6575 H   0  0  0  0  0  0  0  0  0  0  0  0
   -7.2034   16.4980  -35.1342 H   0  0  0  0  0  0  0  0  0  0  0  0
   -7.2923   15.1240  -33.9791 H   0  0  0  0  0  0  0  0  0  0  0  0
   -8.2129   17.5086  -33.2769 H   0  0  0  0  0  0  0  0  0  0  0  0
   -7.2635   16.5185  -32.1036 H   0  0  0  0  0  0  0  0  0  0  0  0
   -5.2580   17.9240  -33.2050 H   0  0  0  0  0  0  0  0  0  0  0  0
   -8.6855   19.2214  -32.7646 H   0  0  0  0  0  0  0  0  0  0  0  0
   -9.2721   21.5566  -32.0433 H   0  0  0  0  0  0  0  0  0  0  0  0
   -8.1246   24.0222  -31.1628 H   0  0  0  0  0  0  0  0  0  0  0  0
   -3.4170   24.9200  -31.1380 H   0  0  0  0  0  0  0  0  0  0  0  0
   -3.8680   26.4680  -30.3520 H   0  0  0  0  0  0  0  0  0  0  0  0
   -1.1629   22.2572  -29.2217 H   0  0  0  0  0  0  0  0  0  0  0  0
   -1.1317   22.9609  -30.8811 H   0  0  0  0  0  0  0  0  0  0  0  0
   -4.4624   20.0747  -32.0904 H   0  0  0  0  0  0  0  0  0  0  0  0
  1  2  1  0
  2  3  1  0
  3  4  2  0
  3  5  1  0
  5  6  1  0
  6  7  1  0
  7  8  1  0
  8  9  1  0
  9 10  2  0
 10 11  1  0
 11 12  2  0
 12 13  1  0
 13 14  2  0
 14 15  1  0
 15 16  1  0
 15 17  2  0
 14 18  1  0
 18 19  1  0
 19 20  2  0
 19 21  1  0
 21 22  1  0
 22 23  1  0
 23 24  2  0
 23 25  1  0
 18 26  1  0
 26 27  2  0
 27  9  1  0
 26 12  1  0
  1 28  1  0
  1 29  1  0
  1 30  1  0
  6 31  1  0
  6 32  1  0
  7 33  1  0
  7 34  1  0
  8 35  1  0
 10 36  1  0
 11 37  1  0
 13 38  1  0
 16 39  1  0
 16 40  1  0
 22 41  1  0
 22 42  1  0
 27 43  1  0
M  CHG  2   5  -1  25  -1
M  END
>  <UniqueID>  (91) 
88

>  <SMILES>  (91) 
COC(=O)[N-]CCNc1ccc2cc(C(N)=O)n(C(=O)OCC(=O)[O-])c2c1

>  <Energy>  (91) 
71.86339525696711

>  <Genealogy>  (91) 
COC(=O)[N-]CCNc1ccc2cc(C(N)=O)n(C(=O)OCC(=O)[O-])c2c1 (protonated)
COC(=O)[N-]CCNc1ccc2cc(C(N)=O)n(C(=O)OCC(=O)[O-])c2c1 (3D coordinates assigned)
COC(=O)[N-]CCNc1ccc2cc(C(N)=O)n(C(=O)OCC(=O)[O-])c2c1 (optimized conformer: 71.86339525696711 kcal/mol)

>  <smiles>  (91) 
COC(=O)NCCNc1ccc2cc(C(N)=O)n(C(=O)OCC(=O)O)c2c1

>  <score_type>  (91) 
oracle

>  <origin>  (91) 
adg

>  <m_score__min__energy>  (91) 
-10.44

>  <m_primary>  (91) 
energy

$$$$
91:0
     RDKit          3D

 48 50  0  0  0  0  0  0  0  0999 V2000
   -0.9670   23.8110  -27.7910 C   0  0  0  0  0  0  0  0  0  0  0  0
   -2.2910   24.2410  -28.4510 C   0  0  0  0  0  0  0  0  0  0  0  0
   -3.2960   24.6770  -27.3690 C   0  0  0  0  0  0  0  0  0  0  0  0
   -2.0580   25.3050  -29.3430 O   0  0  0  0  0  0  0  0  0  0  0  0
   -2.8580   23.0580  -29.2560 C   0  0  0  0  0  0  0  0  0  0  0  0
   -2.8200   23.3410  -30.6530 O   0  0  0  0  0  0  0  0  0  0  0  0
   -3.6600   22.7110  -31.5760 C   0  0  0  0  0  0  0  0  0  0  0  0
   -3.1460   22.0280  -32.5020 O   0  0  0  0  0  0  0  0  0  0  0  0
   -5.1000   22.8190  -31.4580 N   0  0  0  0  0  0  0  0  0  0  0  0
   -5.8080   23.8020  -30.8220 C   0  0  0  0  0  0  0  0  0  0  0  0
   -5.2680   25.0490  -30.2600 C   0  0  0  0  0  0  0  0  0  0  0  0
   -4.1280   25.6740  -30.8490 N   0  0  0  0  0  0  0  0  0  0  0  0
   -5.8760   25.6210  -29.3150 O   0  0  0  0  0  0  0  0  0  0  0  0
   -7.1650   23.5080  -30.8000 C   0  0  0  0  0  0  0  0  0  0  0  0
   -7.2880   22.3200  -31.4770 C   0  0  0  0  0  0  0  0  0  0  0  0
   -8.4330   21.5910  -31.7840 C   0  0  0  0  0  0  0  0  0  0  0  0
   -8.2850   20.4040  -32.5220 C   0  0  0  0  0  0  0  0  0  0  0  0
   -7.0020   19.9720  -32.9480 C   0  0  0  0  0  0  0  0  0  0  0  0
   -6.8270   18.7760  -33.7340 N   0  0  0  0  0  0  0  0  0  0  0  0
   -6.6860   17.4290  -33.1590 C   0  0  2  0  0  0  0  0  0  0  0  0
   -5.4210   17.3060  -32.3530 C   0  0  0  0  0  0  0  0  0  0  0  0
   -4.4030   16.8450  -33.3780 C   0  0  0  0  0  0  0  0  0  0  0  0
   -5.0700   16.2560  -34.4700 O   0  0  0  0  0  0  0  0  0  0  0  0
   -6.4570   16.3960  -34.2520 C   0  0  0  0  0  0  0  0  0  0  0  0
   -5.8630   20.7400  -32.6090 C   0  0  0  0  0  0  0  0  0  0  0  0
   -6.0340   21.9200  -31.8660 C   0  0  0  0  0  0  0  0  0  0  0  0
   -1.0745   23.8459  -26.6968 H   0  0  0  0  0  0  0  0  0  0  0  0
   -0.7180   22.7858  -28.1025 H   0  0  0  0  0  0  0  0  0  0  0  0
   -0.1632   24.4943  -28.1025 H   0  0  0  0  0  0  0  0  0  0  0  0
   -2.8668   24.4908  -26.3735 H   0  0  0  0  0  0  0  0  0  0  0  0
   -3.5122   25.7498  -27.4803 H   0  0  0  0  0  0  0  0  0  0  0  0
   -4.2271   24.1019  -27.4803 H   0  0  0  0  0  0  0  0  0  0  0  0
   -2.9330   25.5980  -29.7110 H   0  0  0  0  0  0  0  0  0  0  0  0
   -2.2565   22.1599  -29.0521 H   0  0  0  0  0  0  0  0  0  0  0  0
   -3.9028   22.8909  -28.9550 H   0  0  0  0  0  0  0  0  0  0  0  0
   -3.1950   25.2020  -30.8450 H   0  0  0  0  0  0  0  0  0  0  0  0
   -7.9692   24.1002  -30.3389 H   0  0  0  0  0  0  0  0  0  0  0  0
   -9.4260   21.9341  -31.4582 H   0  0  0  0  0  0  0  0  0  0  0  0
   -9.1724   19.8039  -32.7719 H   0  0  0  0  0  0  0  0  0  0  0  0
   -6.8160   18.8830  -34.7730 H   0  0  0  0  0  0  0  0  0  0  0  0
   -7.6025   17.2706  -32.5717 H   0  0  0  0  0  0  0  0  0  0  0  0
   -5.1335   18.2751  -31.9192 H   0  0  0  0  0  0  0  0  0  0  0  0
   -5.5172   16.6183  -31.4999 H   0  0  0  0  0  0  0  0  0  0  0  0
   -3.8181   17.7084  -33.7279 H   0  0  0  0  0  0  0  0  0  0  0  0
   -3.7286   16.1072  -32.9189 H   0  0  0  0  0  0  0  0  0  0  0  0
   -6.9444   16.7277  -35.1806 H   0  0  0  0  0  0  0  0  0  0  0  0
   -6.8838   15.4298  -33.9448 H   0  0  0  0  0  0  0  0  0  0  0  0
   -4.8590   20.4180  -32.9224 H   0  0  0  0  0  0  0  0  0  0  0  0
  1  2  1  0
  2  3  1  0
  2  4  1  0
  2  5  1  0
  5  6  1  0
  6  7  1  0
  7  8  2  0
  7  9  1  0
  9 10  1  0
 10 11  1  0
 11 12  1  0
 11 13  2  0
 10 14  2  0
 14 15  1  0
 15 16  2  0
 16 17  1  0
 17 18  2  0
 18 19  1  0
 19 20  1  0
 20 21  1  0
 21 22  1  0
 22 23  1  0
 23 24  1  0
 18 25  1  0
 25 26  2  0
 26  9  1  0
 26 15  1  0
 24 20  1  0
  1 27  1  0
  1 28  1  0
  1 29  1  0
  3 30  1  0
  3 31  1  0
  3 32  1  0
  4 33  1  0
  5 34  1  0
  5 35  1  0
 12 36  1  0
 14 37  1  0
 16 38  1  0
 17 39  1  0
 19 40  1  0
 20 41  1  1
 21 42  1  0
 21 43  1  0
 22 44  1  0
 22 45  1  0
 24 46  1  0
 24 47  1  0
 25 48  1  0
M  CHG  1  12  -1
M  END
>  <UniqueID>  (92) 
89

>  <SMILES>  (92) 
CC(C)(O)COC(=O)n1c(C([NH-])=O)cc2ccc(N[C@@H]3CCOC3)cc21

>  <Energy>  (92) 
85.93888949322987

>  <Genealogy>  (92) 
CC(C)(O)COC(=O)n1c(C([NH-])=O)cc2ccc(N[C@@H]3CCOC3)cc21 (protonated)
CC(C)(O)COC(=O)n1c(C([NH-])=O)cc2ccc(N[C@@H]3CCOC3)cc21 (3D coordinates assigned)
CC(C)(O)COC(=O)n1c(C([NH-])=O)cc2ccc(N[C@@H]3CCOC3)cc21 (nonaromatic ring conformer: 85.93888949322987 kcal/mol)

>  <smiles>  (92) 
CC(C)(O)COC(=O)n1c(C(N)=O)cc2ccc(N[C@@H]3CCOC3)cc21

>  <score_type>  (92) 
oracle

>  <origin>  (92) 
adg

>  <m_score__min__energy>  (92) 
-11.4

>  <m_primary>  (92) 
energy

$$$$
92:0
     RDKit          3D

 42 43  0  0  0  0  0  0  0  0999 V2000
   -7.3420   22.7540  -30.1630 C   0  0  0  0  0  0  0  0  0  0  0  0
   -8.5170   21.9790  -30.3610 O   0  0  0  0  0  0  0  0  0  0  0  0
   -9.0880   21.7850  -31.6230 C   0  0  0  0  0  0  0  0  0  0  0  0
   -9.5000   22.7650  -32.3010 O   0  0  0  0  0  0  0  0  0  0  0  0
   -9.1560   20.4050  -32.1950 C   0  0  0  0  0  0  0  0  0  0  0  0
   -8.0010   20.1730  -33.0570 N   0  0  0  0  0  0  0  0  0  0  0  0
   -6.6570   20.2450  -32.5620 C   0  0  0  0  0  0  0  0  0  0  0  0
   -6.4300   20.1450  -31.3260 O   0  0  0  0  0  0  0  0  0  0  0  0
   -5.5090   20.4370  -33.5090 C   0  0  0  0  0  0  0  0  0  0  0  0
   -4.3210   19.7140  -33.0240 N   0  0  0  0  0  0  0  0  0  0  0  0
   -4.2400   18.2690  -33.2800 C   0  0  0  0  0  0  0  0  0  0  0  0
   -3.2840   20.3820  -32.2480 C   0  0  0  0  0  0  0  0  0  0  0  0
   -1.9830   19.8140  -32.1140 C   0  0  0  0  0  0  0  0  0  0  0  0
   -0.9790   20.4590  -31.3750 C   0  0  0  0  0  0  0  0  0  0  0  0
   -1.2840   21.6740  -30.7780 C   0  0  0  0  0  0  0  0  0  0  0  0
   -0.5080   22.4920  -29.9900 C   0  0  0  0  0  0  0  0  0  0  0  0
   -1.3270   23.5680  -29.6570 C   0  0  0  0  0  0  0  0  0  0  0  0
   -0.8580   24.7360  -28.8830 C   0  0  0  0  0  0  0  0  0  0  0  0
   -1.5490   25.9810  -28.9430 N   0  0  0  0  0  0  0  0  0  0  0  0
    0.1970   24.6480  -28.1980 O   0  0  0  0  0  0  0  0  0  0  0  0
   -2.5630   23.4170  -30.2090 N   0  0  0  0  0  0  0  0  0  0  0  0
   -3.7140   24.2570  -30.0260 C   0  0  0  0  0  0  0  0  0  0  0  0
   -3.8050   25.3540  -30.6380 O   0  0  0  0  0  0  0  0  0  0  0  0
   -4.7490   23.8560  -29.1910 O   0  0  0  0  0  0  0  0  0  0  0  0
   -2.5190   22.2530  -30.8950 C   0  0  0  0  0  0  0  0  0  0  0  0
   -3.5460   21.6240  -31.6080 C   0  0  0  0  0  0  0  0  0  0  0  0
   -7.1595   22.8744  -29.0849 H   0  0  0  0  0  0  0  0  0  0  0  0
   -6.4841   22.2439  -30.6254 H   0  0  0  0  0  0  0  0  0  0  0  0
   -7.4731   23.7434  -30.6254 H   0  0  0  0  0  0  0  0  0  0  0  0
   -9.1555   19.6696  -31.3770 H   0  0  0  0  0  0  0  0  0  0  0  0
  -10.0783   20.3000  -32.7852 H   0  0  0  0  0  0  0  0  0  0  0  0
   -8.1620   20.0860  -34.0860 H   0  0  0  0  0  0  0  0  0  0  0  0
   -5.7883   20.0522  -34.5009 H   0  0  0  0  0  0  0  0  0  0  0  0
   -5.2738   21.5096  -33.5740 H   0  0  0  0  0  0  0  0  0  0  0  0
   -4.2097   17.7281  -32.3226 H   0  0  0  0  0  0  0  0  0  0  0  0
   -5.1216   17.9484  -33.8545 H   0  0  0  0  0  0  0  0  0  0  0  0
   -3.3281   18.0489  -33.8545 H   0  0  0  0  0  0  0  0  0  0  0  0
   -1.7619   18.8518  -32.5991 H   0  0  0  0  0  0  0  0  0  0  0  0
    0.0216   20.0138  -31.2720 H   0  0  0  0  0  0  0  0  0  0  0  0
    0.5371   22.3306  -29.6873 H   0  0  0  0  0  0  0  0  0  0  0  0
   -2.5920   26.0150  -28.9660 H   0  0  0  0  0  0  0  0  0  0  0  0
   -4.5428   22.0846  -31.6723 H   0  0  0  0  0  0  0  0  0  0  0  0
  1  2  1  0
  2  3  1  0
  3  4  2  0
  3  5  1  0
  5  6  1  0
  6  7  1  0
  7  8  2  0
  7  9  1  0
  9 10  1  0
 10 11  1  0
 10 12  1  0
 12 13  2  0
 13 14  1  0
 14 15  2  0
 15 16  1  0
 16 17  2  0
 17 18  1  0
 18 19  1  0
 18 20  2  0
 17 21  1  0
 21 22  1  0
 22 23  2  0
 22 24  1  0
 21 25  1  0
 25 26  2  0
 26 12  1  0
 25 15  1  0
  1 27  1  0
  1 28  1  0
  1 29  1  0
  5 30  1  0
  5 31  1  0
  6 32  1  0
  9 33  1  0
  9 34  1  0
 11 35  1  0
 11 36  1  0
 11 37  1  0
 13 38  1  0
 14 39  1  0
 16 40  1  0
 19 41  1  0
 26 42  1  0
M  CHG  2  19  -1  24  -1
M  END
>  <UniqueID>  (93) 
90

>  <SMILES>  (93) 
COC(=O)CNC(=O)CN(C)c1ccc2cc(C([NH-])=O)n(C(=O)[O-])c2c1

>  <Energy>  (93) 
76.2749967234287

>  <Genealogy>  (93) 
COC(=O)CNC(=O)CN(C)c1ccc2cc(C([NH-])=O)n(C(=O)[O-])c2c1 (protonated)
COC(=O)CNC(=O)CN(C)c1ccc2cc(C([NH-])=O)n(C(=O)[O-])c2c1 (3D coordinates assigned)
COC(=O)CNC(=O)CN(C)c1ccc2cc(C([NH-])=O)n(C(=O)[O-])c2c1 (optimized conformer: 76.2749967234287 kcal/mol)

>  <smiles>  (93) 
COC(=O)CNC(=O)CN(C)c1ccc2cc(C(N)=O)n(C(=O)O)c2c1

>  <score_type>  (93) 
oracle

>  <origin>  (93) 
adg

>  <m_score__min__energy>  (93) 
-10.98

>  <m_primary>  (93) 
energy

$$$$
93:0
     RDKit          3D

 41 42  0  0  0  0  0  0  0  0999 V2000
   -7.2780   18.3430  -32.8270 C   0  0  0  0  0  0  0  0  0  0  0  0
   -7.4020   19.7870  -32.4410 C   0  0  0  0  0  0  0  0  0  0  0  0
   -8.6830   20.3860  -32.3400 C   0  0  0  0  0  0  0  0  0  0  0  0
   -8.8160   21.7250  -31.9340 C   0  0  0  0  0  0  0  0  0  0  0  0
   -7.6560   22.4330  -31.6320 C   0  0  0  0  0  0  0  0  0  0  0  0
   -7.4970   23.7250  -31.1820 C   0  0  0  0  0  0  0  0  0  0  0  0
   -6.1220   23.8920  -31.0190 C   0  0  0  0  0  0  0  0  0  0  0  0
   -5.4970   25.1610  -30.5870 C   0  0  0  0  0  0  0  0  0  0  0  0
   -4.1070   25.4010  -30.7870 N   0  0  0  0  0  0  0  0  0  0  0  0
   -6.2070   26.0590  -30.0590 O   0  0  0  0  0  0  0  0  0  0  0  0
   -5.4600   22.7510  -31.3560 N   0  0  0  0  0  0  0  0  0  0  0  0
   -4.0530   22.4890  -31.2540 C   0  0  0  0  0  0  0  0  0  0  0  0
   -3.4050   22.1760  -32.2890 O   0  0  0  0  0  0  0  0  0  0  0  0
   -3.3640   22.5770  -29.9530 C   0  0  0  0  0  0  0  0  0  0  0  0
   -3.5770   21.6930  -29.0790 O   0  0  0  0  0  0  0  0  0  0  0  0
   -2.4490   23.6470  -29.6810 N   0  0  0  0  0  0  0  0  0  0  0  0
   -1.7370   23.7330  -28.4070 C   0  0  0  0  0  0  0  0  0  0  0  0
   -1.4190   25.1650  -28.0690 C   0  0  0  0  0  0  0  0  0  0  0  0
   -1.5680   26.0390  -28.9670 O   0  0  0  0  0  0  0  0  0  0  0  0
   -0.9090   25.5490  -26.7730 N   0  0  0  0  0  0  0  0  0  0  0  0
   -0.5590   26.9520  -26.5320 C   0  0  0  0  0  0  0  0  0  0  0  0
   -0.7430   24.5560  -25.7040 C   0  0  0  0  0  0  0  0  0  0  0  0
   -6.4120   21.8660  -31.7250 C   0  0  0  0  0  0  0  0  0  0  0  0
   -6.2500   20.5310  -32.1080 C   0  0  0  0  0  0  0  0  0  0  0  0
   -7.2248   17.7241  -31.9192 H   0  0  0  0  0  0  0  0  0  0  0  0
   -8.1540   18.0461  -33.4224 H   0  0  0  0  0  0  0  0  0  0  0  0
   -6.3643   18.1998  -33.4224 H   0  0  0  0  0  0  0  0  0  0  0  0
   -9.5806   19.7977  -32.5815 H   0  0  0  0  0  0  0  0  0  0  0  0
   -9.8058   22.1987  -31.8573 H   0  0  0  0  0  0  0  0  0  0  0  0
   -8.2864   24.4671  -30.9917 H   0  0  0  0  0  0  0  0  0  0  0  0
   -3.4870   25.6700  -29.9910 H   0  0  0  0  0  0  0  0  0  0  0  0
   -2.2940   24.3820  -30.4090 H   0  0  0  0  0  0  0  0  0  0  0  0
   -2.3664   23.3059  -27.6124 H   0  0  0  0  0  0  0  0  0  0  0  0
   -0.7943   23.1724  -28.4910 H   0  0  0  0  0  0  0  0  0  0  0  0
   -0.5127   27.1375  -25.4487 H   0  0  0  0  0  0  0  0  0  0  0  0
    0.4206   27.1682  -26.9832 H   0  0  0  0  0  0  0  0  0  0  0  0
   -1.3223   27.6030  -26.9832 H   0  0  0  0  0  0  0  0  0  0  0  0
   -0.8260   25.0527  -24.7260 H   0  0  0  0  0  0  0  0  0  0  0  0
   -1.5252   23.7876  -25.7926 H   0  0  0  0  0  0  0  0  0  0  0  0
    0.2465   24.0838  -25.7926 H   0  0  0  0  0  0  0  0  0  0  0  0
   -5.2508   20.0727  -32.1487 H   0  0  0  0  0  0  0  0  0  0  0  0
  1  2  1  0
  2  3  2  0
  3  4  1  0
  4  5  2  0
  5  6  1  0
  6  7  2  0
  7  8  1  0
  8  9  1  0
  8 10  2  0
  7 11  1  0
 11 12  1  0
 12 13  2  0
 12 14  1  0
 14 15  2  0
 14 16  1  0
 16 17  1  0
 17 18  1  0
 18 19  2  0
 18 20  1  0
 20 21  1  0
 20 22  1  0
 11 23  1  0
 23 24  2  0
 24  2  1  0
 23  5  1  0
  1 25  1  0
  1 26  1  0
  1 27  1  0
  3 28  1  0
  4 29  1  0
  6 30  1  0
  9 31  1  0
 16 32  1  0
 17 33  1  0
 17 34  1  0
 21 35  1  0
 21 36  1  0
 21 37  1  0
 22 38  1  0
 22 39  1  0
 22 40  1  0
 24 41  1  0
M  CHG  1   9  -1
M  END
>  <UniqueID>  (94) 
91

>  <SMILES>  (94) 
Cc1ccc2cc(C([NH-])=O)n(C(=O)C(=O)NCC(=O)N(C)C)c2c1

>  <Energy>  (94) 
74.39684504758011

>  <Genealogy>  (94) 
Cc1ccc2cc(C([NH-])=O)n(C(=O)C(=O)NCC(=O)N(C)C)c2c1 (protonated)
Cc1ccc2cc(C([NH-])=O)n(C(=O)C(=O)NCC(=O)N(C)C)c2c1 (3D coordinates assigned)
Cc1ccc2cc(C([NH-])=O)n(C(=O)C(=O)NCC(=O)N(C)C)c2c1 (optimized conformer: 74.39684504758011 kcal/mol)

>  <smiles>  (94) 
Cc1ccc2cc(C(N)=O)n(C(=O)C(=O)NCC(=O)N(C)C)c2c1

>  <score_type>  (94) 
oracle

>  <origin>  (94) 
adg

>  <m_score__min__energy>  (94) 
-10.67

>  <m_primary>  (94) 
energy

$$$$
94:0
     RDKit          3D

 36 37  0  0  0  0  0  0  0  0999 V2000
   -6.0930   17.4540  -31.2930 C   0  0  0  0  0  0  0  0  0  0  0  0
   -6.7510   18.1460  -32.4920 C   0  0  2  0  0  0  0  0  0  0  0  0
   -5.9480   17.9560  -33.7510 C   0  0  0  0  0  0  0  0  0  0  0  0
   -5.1750   18.8680  -34.1450 O   0  0  0  0  0  0  0  0  0  0  0  0
   -6.0040   16.7590  -34.4580 O   0  0  0  0  0  0  0  0  0  0  0  0
   -6.9740   19.6200  -32.2190 C   0  0  0  0  0  0  0  0  0  0  0  0
   -8.2000   20.2480  -32.5690 C   0  0  0  0  0  0  0  0  0  0  0  0
   -8.4090   21.6120  -32.3080 C   0  0  0  0  0  0  0  0  0  0  0  0
   -7.3770   22.3270  -31.7100 C   0  0  0  0  0  0  0  0  0  0  0  0
   -7.3270   23.6460  -31.3200 C   0  0  0  0  0  0  0  0  0  0  0  0
   -6.0620   23.8180  -30.7680 C   0  0  0  0  0  0  0  0  0  0  0  0
   -5.5600   25.1150  -30.2730 C   0  0  0  0  0  0  0  0  0  0  0  0
   -4.2090   25.5220  -30.4990 N   0  0  0  0  0  0  0  0  0  0  0  0
   -6.3510   25.9020  -29.6880 O   0  0  0  0  0  0  0  0  0  0  0  0
   -5.3590   22.6510  -30.8000 N   0  0  0  0  0  0  0  0  0  0  0  0
   -4.0650   22.3930  -30.2330 C   0  0  0  0  0  0  0  0  0  0  0  0
   -3.9270   21.4800  -29.3730 O   0  0  0  0  0  0  0  0  0  0  0  0
   -2.9630   23.1560  -30.6350 O   0  0  0  0  0  0  0  0  0  0  0  0
   -1.6550   22.9890  -30.0940 C   0  0  0  0  0  0  0  0  0  0  0  0
   -1.2350   24.2230  -29.3630 C   0  0  0  0  0  0  0  0  0  0  0  0
   -0.1100   24.2770  -28.8000 O   0  0  0  0  0  0  0  0  0  0  0  0
   -2.1010   25.3070  -29.2780 O   0  0  0  0  0  0  0  0  0  0  0  0
   -6.1790   21.7470  -31.3840 C   0  0  0  0  0  0  0  0  0  0  0  0
   -5.9500   20.3850  -31.6120 C   0  0  0  0  0  0  0  0  0  0  0  0
   -6.4946   17.8764  -30.3601 H   0  0  0  0  0  0  0  0  0  0  0  0
   -6.3070   16.3756  -31.3292 H   0  0  0  0  0  0  0  0  0  0  0  0
   -5.0052   17.6134  -31.3292 H   0  0  0  0  0  0  0  0  0  0  0  0
   -7.7316   17.6712  -32.6435 H   0  0  0  0  0  0  0  0  0  0  0  0
   -8.9946   19.6587  -33.0500 H   0  0  0  0  0  0  0  0  0  0  0  0
   -9.3598   22.0998  -32.5686 H   0  0  0  0  0  0  0  0  0  0  0  0
   -8.1187   24.4027  -31.4229 H   0  0  0  0  0  0  0  0  0  0  0  0
   -3.5790   24.9750  -31.1270 H   0  0  0  0  0  0  0  0  0  0  0  0
   -3.8600   26.4240  -30.1050 H   0  0  0  0  0  0  0  0  0  0  0  0
   -1.6562   22.1374  -29.3977 H   0  0  0  0  0  0  0  0  0  0  0  0
   -0.9487   22.8022  -30.9163 H   0  0  0  0  0  0  0  0  0  0  0  0
   -4.9952   19.9198  -31.3257 H   0  0  0  0  0  0  0  0  0  0  0  0
  1  2  1  0
  2  3  1  0
  3  4  2  0
  3  5  1  0
  2  6  1  0
  6  7  2  0
  7  8  1  0
  8  9  2  0
  9 10  1  0
 10 11  2  0
 11 12  1  0
 12 13  1  0
 12 14  2  0
 11 15  1  0
 15 16  1  0
 16 17  2  0
 16 18  1  0
 18 19  1  0
 19 20  1  0
 20 21  2  0
 20 22  1  0
 15 23  1  0
 23 24  2  0
 24  6  1  0
 23  9  1  0
  1 25  1  0
  1 26  1  0
  1 27  1  0
  2 28  1  6
  7 29  1  0
  8 30  1  0
 10 31  1  0
 13 32  1  0
 13 33  1  0
 19 34  1  0
 19 35  1  0
 24 36  1  0
M  CHG  2   5  -1  22  -1
M  END
>  <UniqueID>  (95) 
92

>  <SMILES>  (95) 
C[C@H](C(=O)[O-])c1ccc2cc(C(N)=O)n(C(=O)OCC(=O)[O-])c2c1

>  <Energy>  (95) 
71.85553871912342

>  <Genealogy>  (95) 
CC(C(=O)[O-])c1ccc2cc(C(N)=O)n(C(=O)OCC(=O)[O-])c2c1 (protonated)
C[C@H](C(=O)[O-])c1ccc2cc(C(N)=O)n(C(=O)OCC(=O)[O-])c2c1 (chirality)
C[C@H](C(=O)[O-])c1ccc2cc(C(N)=O)n(C(=O)OCC(=O)[O-])c2c1 (3D coordinates assigned)
C[C@H](C(=O)[O-])c1ccc2cc(C(N)=O)n(C(=O)OCC(=O)[O-])c2c1 (optimized conformer: 71.85553871912342 kcal/mol)

>  <smiles>  (95) 
CC(C(=O)O)c1ccc2cc(C(N)=O)n(C(=O)OCC(=O)O)c2c1

>  <score_type>  (95) 
oracle

>  <origin>  (95) 
adg

>  <m_score__min__energy>  (95) 
-10.67

>  <m_primary>  (95) 
energy

$$$$
95:0
     RDKit          3D

 49 50  0  0  0  0  0  0  0  0999 V2000
   -5.7070   18.5440  -34.5770 C   0  0  0  0  0  0  0  0  0  0  0  0
   -6.4050   17.5210  -33.9030 O   0  0  0  0  0  0  0  0  0  0  0  0
   -6.5230   17.8570  -32.5370 C   0  0  0  0  0  0  0  0  0  0  0  0
   -7.9040   18.4630  -32.2910 C   0  0  0  0  0  0  0  0  0  0  0  0
   -7.7940   19.9340  -31.9910 C   0  0  0  0  0  0  0  0  0  0  0  0
   -8.9580   20.7400  -31.9330 C   0  0  0  0  0  0  0  0  0  0  0  0
   -8.8660   22.1100  -31.6300 C   0  0  0  0  0  0  0  0  0  0  0  0
   -7.6030   22.6370  -31.3720 C   0  0  0  0  0  0  0  0  0  0  0  0
   -7.2280   23.9240  -31.0620 C   0  0  0  0  0  0  0  0  0  0  0  0
   -5.8440   23.8770  -30.8960 C   0  0  0  0  0  0  0  0  0  0  0  0
   -5.0270   25.0280  -30.4550 C   0  0  0  0  0  0  0  0  0  0  0  0
   -3.6640   24.8500  -30.0640 N   0  0  0  0  0  0  0  0  0  0  0  0
   -5.5170   26.1880  -30.4500 O   0  0  0  0  0  0  0  0  0  0  0  0
   -5.3840   22.6090  -31.1000 N   0  0  0  0  0  0  0  0  0  0  0  0
   -4.0240   22.1470  -31.0560 C   0  0  0  0  0  0  0  0  0  0  0  0
   -3.1590   22.6740  -31.8070 O   0  0  0  0  0  0  0  0  0  0  0  0
   -3.6830   21.1010  -30.1850 O   0  0  0  0  0  0  0  0  0  0  0  0
   -2.5570   21.0570  -29.2940 C   0  0  0  0  0  0  0  0  0  0  0  0
   -2.9470   20.3880  -27.9640 C   0  0  0  0  0  0  0  0  0  0  0  0
   -1.3800   20.3180  -29.9580 C   0  0  0  0  0  0  0  0  0  0  0  0
   -2.1380   22.4790  -29.0030 C   0  0  0  0  0  0  0  0  0  0  0  0
   -1.2510   23.0350  -29.7090 O   0  0  0  0  0  0  0  0  0  0  0  0
   -2.7630   23.1890  -27.9680 O   0  0  0  0  0  0  0  0  0  0  0  0
   -2.0970   24.1710  -27.1800 C   0  0  0  0  0  0  0  0  0  0  0  0
   -1.6140   25.2650  -28.0310 C   0  0  0  0  0  0  0  0  0  0  0  0
   -1.2340   26.1280  -28.7020 N   0  0  0  0  0  0  0  0  0  0  0  0
   -6.4710   21.8630  -31.3910 C   0  0  0  0  0  0  0  0  0  0  0  0
   -6.5320   20.5020  -31.7140 C   0  0  0  0  0  0  0  0  0  0  0  0
   -5.2461   19.2195  -33.8413 H   0  0  0  0  0  0  0  0  0  0  0  0
   -4.9233   18.0991  -35.2077 H   0  0  0  0  0  0  0  0  0  0  0  0
   -6.4071   19.1115  -35.2077 H   0  0  0  0  0  0  0  0  0  0  0  0
   -6.4026   16.9523  -31.9230 H   0  0  0  0  0  0  0  0  0  0  0  0
   -5.7442   18.5845  -32.2647 H   0  0  0  0  0  0  0  0  0  0  0  0
   -8.5248   18.3229  -33.1882 H   0  0  0  0  0  0  0  0  0  0  0  0
   -8.3624   17.9593  -31.4272 H   0  0  0  0  0  0  0  0  0  0  0  0
   -9.9427   20.2898  -32.1268 H   0  0  0  0  0  0  0  0  0  0  0  0
   -9.7633   22.7454  -31.5978 H   0  0  0  0  0  0  0  0  0  0  0  0
   -7.8814   24.8037  -30.9655 H   0  0  0  0  0  0  0  0  0  0  0  0
   -3.2370   23.8990  -30.0020 H   0  0  0  0  0  0  0  0  0  0  0  0
   -3.0850   25.6740  -29.7920 H   0  0  0  0  0  0  0  0  0  0  0  0
   -2.5885   21.0029  -27.1253 H   0  0  0  0  0  0  0  0  0  0  0  0
   -4.0415   20.2938  -27.9080 H   0  0  0  0  0  0  0  0  0  0  0  0
   -2.4897   19.3891  -27.9080 H   0  0  0  0  0  0  0  0  0  0  0  0
   -0.7212   19.9043  -29.1803 H   0  0  0  0  0  0  0  0  0  0  0  0
   -1.7667   19.5003  -30.5840 H   0  0  0  0  0  0  0  0  0  0  0  0
   -0.8115   21.0216  -30.5840 H   0  0  0  0  0  0  0  0  0  0  0  0
   -2.7977   24.5739  -26.4339 H   0  0  0  0  0  0  0  0  0  0  0  0
   -1.2381   23.7034  -26.6764 H   0  0  0  0  0  0  0  0  0  0  0  0
   -5.6185   19.8903  -31.7510 H   0  0  0  0  0  0  0  0  0  0  0  0
  1  2  1  0
  2  3  1  0
  3  4  1  0
  4  5  1  0
  5  6  2  0
  6  7  1  0
  7  8  2  0
  8  9  1  0
  9 10  2  0
 10 11  1  0
 11 12  1  0
 11 13  2  0
 10 14  1  0
 14 15  1  0
 15 16  2  0
 15 17  1  0
 17 18  1  0
 18 19  1  0
 18 20  1  0
 18 21  1  0
 21 22  2  0
 21 23  1  0
 23 24  1  0
 24 25  1  0
 25 26  3  0
 14 27  1  0
 27 28  2  0
 28  5  1  0
 27  8  1  0
  1 29  1  0
  1 30  1  0
  1 31  1  0
  3 32  1  0
  3 33  1  0
  4 34  1  0
  4 35  1  0
  6 36  1  0
  7 37  1  0
  9 38  1  0
 12 39  1  0
 12 40  1  0
 19 41  1  0
 19 42  1  0
 19 43  1  0
 20 44  1  0
 20 45  1  0
 20 46  1  0
 24 47  1  0
 24 48  1  0
 28 49  1  0
M  END
>  <UniqueID>  (96) 
93

>  <SMILES>  (96) 
COCCc1ccc2cc(C(N)=O)n(C(=O)OC(C)(C)C(=O)OCC#N)c2c1

>  <Energy>  (96) 
79.07547296688325

>  <Genealogy>  (96) 
COCCc1ccc2cc(C(N)=O)n(C(=O)OC(C)(C)C(=O)OCC#N)c2c1 (3D coordinates assigned)
COCCc1ccc2cc(C(N)=O)n(C(=O)OC(C)(C)C(=O)OCC#N)c2c1 (optimized conformer: 79.07547296688325 kcal/mol)

>  <smiles>  (96) 
COCCc1ccc2cc(C(N)=O)n(C(=O)OC(C)(C)C(=O)OCC#N)c2c1

>  <score_type>  (96) 
oracle

>  <origin>  (96) 
adg

>  <m_score__min__energy>  (96) 
-9.0199999999999996

>  <m_primary>  (96) 
energy

$$$$
96:0
     RDKit          3D

 39 40  0  0  0  0  0  0  0  0999 V2000
   -6.1700   17.1180  -31.4190 C   0  0  0  0  0  0  0  0  0  0  0  0
   -6.4620   18.0230  -32.5360 N   0  0  0  0  0  0  0  0  0  0  0  0
   -6.4790   17.4860  -33.9020 C   0  0  0  0  0  0  0  0  0  0  0  0
   -6.7140   19.4300  -32.2950 C   0  0  0  0  0  0  0  0  0  0  0  0
   -7.9840   19.9980  -32.5940 C   0  0  0  0  0  0  0  0  0  0  0  0
   -8.2480   21.3540  -32.3440 C   0  0  0  0  0  0  0  0  0  0  0  0
   -7.2300   22.1290  -31.8020 C   0  0  0  0  0  0  0  0  0  0  0  0
   -7.2360   23.4490  -31.4140 C   0  0  0  0  0  0  0  0  0  0  0  0
   -5.9630   23.6870  -30.9070 C   0  0  0  0  0  0  0  0  0  0  0  0
   -5.5170   25.0040  -30.4090 C   0  0  0  0  0  0  0  0  0  0  0  0
   -4.1750   25.4550  -30.6040 N   0  0  0  0  0  0  0  0  0  0  0  0
   -6.3480   25.7670  -29.8480 O   0  0  0  0  0  0  0  0  0  0  0  0
   -5.2010   22.5580  -30.9690 N   0  0  0  0  0  0  0  0  0  0  0  0
   -3.8870   22.3620  -30.4260 C   0  0  0  0  0  0  0  0  0  0  0  0
   -3.7370   21.6810  -29.3740 O   0  0  0  0  0  0  0  0  0  0  0  0
   -2.7780   22.9260  -31.0650 O   0  0  0  0  0  0  0  0  0  0  0  0
   -1.4390   22.6250  -30.6830 C   0  0  0  0  0  0  0  0  0  0  0  0
   -1.2210   22.9630  -29.2100 C   0  0  0  0  0  0  0  0  0  0  0  0
   -1.0600   24.4380  -29.0060 C   0  0  0  0  0  0  0  0  0  0  0  0
    0.0130   24.9010  -28.5410 O   0  0  0  0  0  0  0  0  0  0  0  0
   -2.0950   25.3020  -29.3430 O   0  0  0  0  0  0  0  0  0  0  0  0
   -5.9910   21.6130  -31.5240 C   0  0  0  0  0  0  0  0  0  0  0  0
   -5.7040   20.2610  -31.7470 C   0  0  0  0  0  0  0  0  0  0  0  0
   -6.3395   17.6433  -30.4675 H   0  0  0  0  0  0  0  0  0  0  0  0
   -6.8305   16.2402  -31.4759 H   0  0  0  0  0  0  0  0  0  0  0  0
   -5.1210   16.7918  -31.4759 H   0  0  0  0  0  0  0  0  0  0  0  0
   -6.5138   16.3872  -33.8636 H   0  0  0  0  0  0  0  0  0  0  0  0
   -7.3657   17.8626  -34.4330 H   0  0  0  0  0  0  0  0  0  0  0  0
   -5.5703   17.8058  -34.4330 H   0  0  0  0  0  0  0  0  0  0  0  0
   -8.7715   19.3644  -33.0280 H   0  0  0  0  0  0  0  0  0  0  0  0
   -9.2321   21.7902  -32.5706 H   0  0  0  0  0  0  0  0  0  0  0  0
   -8.0693   24.1632  -31.4888 H   0  0  0  0  0  0  0  0  0  0  0  0
   -3.8680   26.3710  -30.2070 H   0  0  0  0  0  0  0  0  0  0  0  0
   -3.5120   24.9300  -31.2160 H   0  0  0  0  0  0  0  0  0  0  0  0
   -1.2483   21.5534  -30.8418 H   0  0  0  0  0  0  0  0  0  0  0  0
   -0.7485   23.2245  -31.2943 H   0  0  0  0  0  0  0  0  0  0  0  0
   -2.0885   22.6141  -28.6305 H   0  0  0  0  0  0  0  0  0  0  0  0
   -0.3003   22.4643  -28.8729 H   0  0  0  0  0  0  0  0  0  0  0  0
   -4.7133   19.8509  -31.5016 H   0  0  0  0  0  0  0  0  0  0  0  0
  1  2  1  0
  2  3  1  0
  2  4  1  0
  4  5  2  0
  5  6  1  0
  6  7  2  0
  7  8  1  0
  8  9  2  0
  9 10  1  0
 10 11  1  0
 10 12  2  0
  9 13  1  0
 13 14  1  0
 14 15  2  0
 14 16  1  0
 16 17  1  0
 17 18  1  0
 18 19  1  0
 19 20  2  0
 19 21  1  0
 13 22  1  0
 22 23  2  0
 23  4  1  0
 22  7  1  0
  1 24  1  0
  1 25  1  0
  1 26  1  0
  3 27  1  0
  3 28  1  0
  3 29  1  0
  5 30  1  0
  6 31  1  0
  8 32  1  0
 11 33  1  0
 11 34  1  0
 17 35  1  0
 17 36  1  0
 18 37  1  0
 18 38  1  0
 23 39  1  0
M  CHG  1  21  -1
M  END
>  <UniqueID>  (97) 
94

>  <SMILES>  (97) 
CN(C)c1ccc2cc(C(N)=O)n(C(=O)OCCC(=O)[O-])c2c1

>  <Energy>  (97) 
73.83109805133267

>  <Genealogy>  (97) 
CN(C)c1ccc2cc(C(N)=O)n(C(=O)OCCC(=O)[O-])c2c1 (protonated)
CN(C)c1ccc2cc(C(N)=O)n(C(=O)OCCC(=O)[O-])c2c1 (3D coordinates assigned)
CN(C)c1ccc2cc(C(N)=O)n(C(=O)OCCC(=O)[O-])c2c1 (optimized conformer: 73.83109805133267 kcal/mol)

>  <smiles>  (97) 
CN(C)c1ccc2cc(C(N)=O)n(C(=O)OCCC(=O)O)c2c1

>  <score_type>  (97) 
oracle

>  <origin>  (97) 
adg

>  <m_score__min__energy>  (97) 
-10.699999999999999

>  <m_primary>  (97) 
energy

$$$$
