0:0
     RDKit          3D

 42 43  0  0  0  0  0  0  0  0999 V2000
   -1.9290   23.8290  -27.1450 C   0  0  0  0  0  0  0  0  0  0  0  0
   -2.1220   24.1210  -28.5950 C   0  0  0  0  0  0  0  0  0  0  0  0
   -2.3590   25.3010  -28.9700 O   0  0  0  0  0  0  0  0  0  0  0  0
   -2.0870   23.0710  -29.5170 O   0  0  0  0  0  0  0  0  0  0  0  0
   -2.6660   21.7970  -29.2540 C   0  0  0  0  0  0  0  0  0  0  0  0
   -3.4240   21.3170  -30.4880 C   0  0  0  0  0  0  0  0  0  0  0  0
   -4.2020   22.4470  -31.0940 C   0  0  0  0  0  0  0  0  0  0  0  0
   -3.5890   23.3990  -31.6470 O   0  0  0  0  0  0  0  0  0  0  0  0
   -5.6360   22.4030  -31.1420 N   0  0  0  0  0  0  0  0  0  0  0  0
   -6.5180   23.2740  -30.5800 C   0  0  0  0  0  0  0  0  0  0  0  0
   -6.1540   24.5390  -29.9020 C   0  0  0  0  0  0  0  0  0  0  0  0
   -4.8150   24.7750  -29.4600 N   0  0  0  0  0  0  0  0  0  0  0  0
   -7.0320   25.4170  -29.6900 O   0  0  0  0  0  0  0  0  0  0  0  0
   -7.8280   22.8510  -30.8100 C   0  0  0  0  0  0  0  0  0  0  0  0
   -7.7120   21.6860  -31.5350 C   0  0  0  0  0  0  0  0  0  0  0  0
   -8.6950   20.8370  -32.0300 C   0  0  0  0  0  0  0  0  0  0  0  0
   -8.2840   19.6910  -32.7340 C   0  0  0  0  0  0  0  0  0  0  0  0
   -6.9020   19.4030  -32.9300 C   0  0  0  0  0  0  0  0  0  0  0  0
   -6.4870   18.2130  -33.6530 N   0  0  0  0  0  0  0  0  0  0  0  0
   -5.6970   18.3250  -34.8860 C   0  0  0  0  0  0  0  0  0  0  0  0
   -6.8470   16.8760  -33.1630 C   0  0  0  0  0  0  0  0  0  0  0  0
   -5.9380   20.3020  -32.4040 C   0  0  0  0  0  0  0  0  0  0  0  0
   -6.3800   21.4390  -31.7220 C   0  0  0  0  0  0  0  0  0  0  0  0
   -2.4374   24.5983  -26.5452 H   0  0  0  0  0  0  0  0  0  0  0  0
   -2.3529   22.8415  -26.9102 H   0  0  0  0  0  0  0  0  0  0  0  0
   -0.8543   23.8319  -26.9102 H   0  0  0  0  0  0  0  0  0  0  0  0
   -1.8714   21.0769  -29.0089 H   0  0  0  0  0  0  0  0  0  0  0  0
   -3.3617   21.8790  -28.4059 H   0  0  0  0  0  0  0  0  0  0  0  0
   -2.7064   20.9328  -31.2279 H   0  0  0  0  0  0  0  0  0  0  0  0
   -4.1225   20.5207  -30.1913 H   0  0  0  0  0  0  0  0  0  0  0  0
   -4.5770   25.6640  -28.9650 H   0  0  0  0  0  0  0  0  0  0  0  0
   -4.0450   24.1000  -29.6630 H   0  0  0  0  0  0  0  0  0  0  0  0
   -8.7554   23.3433  -30.4821 H   0  0  0  0  0  0  0  0  0  0  0  0
   -9.7621   21.0549  -31.8757 H   0  0  0  0  0  0  0  0  0  0  0  0
   -9.0421   19.0052  -33.1403 H   0  0  0  0  0  0  0  0  0  0  0  0
   -4.6377   18.4752  -34.6304 H   0  0  0  0  0  0  0  0  0  0  0  0
   -5.8047   17.4026  -35.4756 H   0  0  0  0  0  0  0  0  0  0  0  0
   -6.0569   19.1811  -35.4756 H   0  0  0  0  0  0  0  0  0  0  0  0
   -6.8469   16.8763  -32.0630 H   0  0  0  0  0  0  0  0  0  0  0  0
   -7.8491   16.6087  -33.5295 H   0  0  0  0  0  0  0  0  0  0  0  0
   -6.1146   16.1417  -33.5295 H   0  0  0  0  0  0  0  0  0  0  0  0
   -4.8628   20.1075  -32.5308 H   0  0  0  0  0  0  0  0  0  0  0  0
  1  2  1  0
  2  3  2  0
  2  4  1  0
  4  5  1  0
  5  6  1  0
  6  7  1  0
  7  8  2  0
  7  9  1  0
  9 10  1  0
 10 11  1  0
 11 12  1  0
 11 13  2  0
 10 14  2  0
 14 15  1  0
 15 16  2  0
 16 17  1  0
 17 18  2  0
 18 19  1  0
 19 20  1  0
 19 21  1  0
 18 22  1  0
 22 23  2  0
 23  9  1  0
 23 15  1  0
  1 24  1  0
  1 25  1  0
  1 26  1  0
  5 27  1  0
  5 28  1  0
  6 29  1  0
  6 30  1  0
 12 31  1  0
 12 32  1  0
 14 33  1  0
 16 34  1  0
 17 35  1  0
 20 36  1  0
 20 37  1  0
 20 38  1  0
 21 39  1  0
 21 40  1  0
 21 41  1  0
 22 42  1  0
M  END
>  <UniqueID>  (1) 
1

>  <SMILES>  (1) 
CC(=O)OCCC(=O)n1c(C(N)=O)cc2ccc(N(C)C)cc21

>  <Energy>  (1) 
75.47849793620229

>  <Genealogy>  (1) 
CC(=O)OCCC(=O)n1c(C(N)=O)cc2ccc(N(C)C)cc21 (3D coordinates assigned)
CC(=O)OCCC(=O)n1c(C(N)=O)cc2ccc(N(C)C)cc21 (optimized conformer: 75.47849793620229 kcal/mol)

>  <smiles>  (1) 
CC(=O)OCCC(=O)n1c(C(N)=O)cc2ccc(N(C)C)cc21

>  <score_type>  (1) 
oracle

>  <origin>  (1) 
adg

>  <m_score__min__energy>  (1) 
-8.3300000000000001

>  <m_primary>  (1) 
energy

$$$$
1:0
     RDKit          3D

 42 43  0  0  0  0  0  0  0  0999 V2000
   -4.3731   21.5167  -28.9135 H   0  0  0  0  0  0  0  0  0  0  0  0
   -3.6680   22.0860  -29.5370 C   0  0  0  0  0  0  0  0  0  0  0  0
   -4.1690   22.5730  -30.8400 C   0  0  0  0  0  0  0  0  0  0  0  0
   -3.3270   22.8490  -31.7360 O   0  0  0  0  0  0  0  0  0  0  0  0
   -5.5620   22.8260  -31.0880 N   0  0  0  0  0  0  0  0  0  0  0  0
   -6.2500   23.9760  -30.8350 C   0  0  0  0  0  0  0  0  0  0  0  0
   -5.6480   25.2530  -30.3810 C   0  0  0  0  0  0  0  0  0  0  0  0
   -6.3440   26.0890  -29.7470 O   0  0  0  0  0  0  0  0  0  0  0  0
   -4.2740   25.5490  -30.6370 N   0  0  0  0  0  0  0  0  0  0  0  0
   -3.8560   26.4360  -30.2770 H   0  0  0  0  0  0  0  0  0  0  0  0
   -3.6770   24.9210  -31.2180 H   0  0  0  0  0  0  0  0  0  0  0  0
   -7.6070   23.7990  -31.1080 C   0  0  0  0  0  0  0  0  0  0  0  0
   -8.4077   24.5479  -31.0183 H   0  0  0  0  0  0  0  0  0  0  0  0
   -7.7320   22.4900  -31.5130 C   0  0  0  0  0  0  0  0  0  0  0  0
   -8.8620   21.7760  -31.9000 C   0  0  0  0  0  0  0  0  0  0  0  0
   -9.8520   22.2546  -31.9302 H   0  0  0  0  0  0  0  0  0  0  0  0
   -8.7000   20.4250  -32.2510 C   0  0  0  0  0  0  0  0  0  0  0  0
   -9.5716   19.8374  -32.5751 H   0  0  0  0  0  0  0  0  0  0  0  0
   -7.4230   19.8130  -32.1910 C   0  0  0  0  0  0  0  0  0  0  0  0
   -7.2550   18.3760  -32.6020 C   0  0  0  0  0  0  0  0  0  0  0  0
   -7.8479   18.1866  -33.5090 H   0  0  0  0  0  0  0  0  0  0  0  0
   -7.6000   17.7276  -31.7831 H   0  0  0  0  0  0  0  0  0  0  0  0
   -5.7790   18.0720  -32.8900 C   0  0  0  0  0  0  0  0  0  0  0  0
   -5.4244   17.3268  -32.1627 H   0  0  0  0  0  0  0  0  0  0  0  0
   -5.2220   19.0169  -32.8072 H   0  0  0  0  0  0  0  0  0  0  0  0
   -5.5540   17.5210  -34.3100 C   0  0  0  0  0  0  0  0  0  0  0  0
   -6.2693   16.7048  -34.4892 H   0  0  0  0  0  0  0  0  0  0  0  0
   -4.5140   17.1678  -34.3707 H   0  0  0  0  0  0  0  0  0  0  0  0
   -5.7380   18.5410  -35.3420 N   0  0  0  0  0  0  0  0  0  0  0  0
   -6.7420   18.8320  -35.3690 H   0  0  0  0  0  0  0  0  0  0  0  0
   -5.4890   18.1380  -36.2740 H   0  0  0  0  0  0  0  0  0  0  0  0
   -6.2980   20.5720  -31.8010 C   0  0  0  0  0  0  0  0  0  0  0  0
   -5.2988   20.1146  -31.7517 H   0  0  0  0  0  0  0  0  0  0  0  0
   -6.4860   21.9200  -31.4790 C   0  0  0  0  0  0  0  0  0  0  0  0
   -2.4340   22.2730  -29.0430 C   0  0  0  0  0  0  0  0  0  0  0  0
   -2.2027   21.7920  -28.0811 H   0  0  0  0  0  0  0  0  0  0  0  0
   -1.3370   23.0810  -29.6850 C   0  0  0  0  0  0  0  0  0  0  0  0
   -0.3728   22.5891  -29.4890 H   0  0  0  0  0  0  0  0  0  0  0  0
   -1.5440   23.1369  -30.7639 H   0  0  0  0  0  0  0  0  0  0  0  0
   -1.2830   24.4800  -29.1520 C   0  0  0  0  0  0  0  0  0  0  0  0
   -2.2350   25.2730  -29.3750 O   0  0  0  0  0  0  0  0  0  0  0  0
   -0.1540   24.9370  -28.4830 O   0  0  0  0  0  0  0  0  0  0  0  0
  1  2  1  0
  2  3  1  0
  3  4  2  0
  3  5  1  0
  5  6  1  0
  6  7  1  0
  7  8  2  0
  7  9  1  0
  9 10  1  0
  9 11  1  0
  6 12  2  0
 12 13  1  0
 12 14  1  0
 14 15  2  0
 15 16  1  0
 15 17  1  0
 17 18  1  0
 17 19  2  0
 19 20  1  0
 20 21  1  0
 20 22  1  0
 20 23  1  0
 23 24  1  0
 23 25  1  0
 23 26  1  0
 26 27  1  0
 26 28  1  0
 26 29  1  0
 29 30  1  0
 29 31  1  0
 19 32  1  0
 32 33  1  0
 32 34  2  0
  2 35  2  0
 35 36  1  0
 35 37  1  0
 37 38  1  0
 37 39  1  0
 37 40  1  0
 40 41  2  0
 40 42  1  0
 34  5  1  0
 34 14  1  0
M  CHG  1  42  -1
M  END
>  <UniqueID>  (2) 
2

>  <SMILES>  (2) 
NCCCc1ccc2cc(C(N)=O)n(C(=O)/C=C\CC(=O)[O-])c2c1

>  <Energy>  (2) 
76.99334133736409

>  <Genealogy>  (2) 
NCCCc1ccc2cc(C(N)=O)n(C(=O)/C=C\CC(=O)[O-])c2c1 (protonated)
NCCCc1ccc2cc(C(N)=O)n(C(=O)/C=C\CC(=O)[O-])c2c1 (cis-trans isomerization)
NCCCc1ccc2cc(C(N)=O)n(C(=O)/C=C\CC(=O)[O-])c2c1 (3D coordinates assigned)
NCCCc1ccc2cc(C(N)=O)n(C(=O)/C=C\CC(=O)[O-])c2c1 (optimized conformer: 76.99334133736409 kcal/mol)

>  <smiles>  (2) 
NCCCc1ccc2cc(C(N)=O)n(C(=O)/C=C\CC(=O)O)c2c1

>  <score_type>  (2) 
oracle

>  <origin>  (2) 
adg

>  <m_score__min__energy>  (2) 
-11.56

>  <m_primary>  (2) 
energy

$$$$
2:0
     RDKit          3D

 42 43  0  0  0  0  0  0  0  0999 V2000
   -0.7320   26.2090  -26.5870 C   0  0  0  0  0  0  0  0  0  0  0  0
   -0.6660   25.7640  -28.0090 C   0  0  0  0  0  0  0  0  0  0  0  0
   -1.2350   26.4460  -28.9040 O   0  0  0  0  0  0  0  0  0  0  0  0
    0.0600   24.6170  -28.3380 O   0  0  0  0  0  0  0  0  0  0  0  0
   -0.0740   23.3900  -27.6290 C   0  0  0  0  0  0  0  0  0  0  0  0
   -1.4530   23.0560  -27.5120 O   0  0  0  0  0  0  0  0  0  0  0  0
   -1.9120   21.7370  -27.5370 C   0  0  0  0  0  0  0  0  0  0  0  0
   -1.4680   20.8890  -26.7130 O   0  0  0  0  0  0  0  0  0  0  0  0
   -2.8360   21.3580  -28.5150 O   0  0  0  0  0  0  0  0  0  0  0  0
   -2.5160   20.4490  -29.5640 C   0  0  0  0  0  0  0  0  0  0  0  0
   -1.8180   21.1310  -30.6040 O   0  0  0  0  0  0  0  0  0  0  0  0
   -2.4380   21.5230  -31.7950 C   0  0  0  0  0  0  0  0  0  0  0  0
   -1.8120   21.4630  -32.8880 O   0  0  0  0  0  0  0  0  0  0  0  0
   -3.8130   21.9300  -31.7790 N   0  0  0  0  0  0  0  0  0  0  0  0
   -4.3530   23.0090  -31.1470 C   0  0  0  0  0  0  0  0  0  0  0  0
   -3.5810   24.0860  -30.4870 C   0  0  0  0  0  0  0  0  0  0  0  0
   -2.4470   23.7830  -29.6730 N   0  0  0  0  0  0  0  0  0  0  0  0
   -3.9350   25.2880  -30.6200 O   0  0  0  0  0  0  0  0  0  0  0  0
   -5.7430   22.9930  -31.2620 C   0  0  0  0  0  0  0  0  0  0  0  0
   -6.0380   21.8560  -31.9800 C   0  0  0  0  0  0  0  0  0  0  0  0
   -7.2690   21.3280  -32.3570 C   0  0  0  0  0  0  0  0  0  0  0  0
   -7.2770   20.1060  -33.0530 C   0  0  0  0  0  0  0  0  0  0  0  0
   -6.0640   19.4330  -33.3430 C   0  0  0  0  0  0  0  0  0  0  0  0
   -6.0780   18.1250  -34.0830 C   0  0  0  0  0  0  0  0  0  0  0  0
   -7.2400   17.4370  -33.7840 F   0  0  0  0  0  0  0  0  0  0  0  0
   -6.0210   18.3530  -35.4460 F   0  0  0  0  0  0  0  0  0  0  0  0
   -4.8340   20.0050  -32.9520 C   0  0  0  0  0  0  0  0  0  0  0  0
   -4.8560   21.2310  -32.2780 C   0  0  0  0  0  0  0  0  0  0  0  0
   -0.6032   25.3403  -25.9246 H   0  0  0  0  0  0  0  0  0  0  0  0
    0.0677   26.9392  -26.3938 H   0  0  0  0  0  0  0  0  0  0  0  0
   -1.7092   26.6757  -26.3938 H   0  0  0  0  0  0  0  0  0  0  0  0
    0.4512   22.5923  -28.1747 H   0  0  0  0  0  0  0  0  0  0  0  0
    0.3630   23.4977  -26.6253 H   0  0  0  0  0  0  0  0  0  0  0  0
   -1.8813   19.6432  -29.1668 H   0  0  0  0  0  0  0  0  0  0  0  0
   -3.4459   20.0251  -29.9708 H   0  0  0  0  0  0  0  0  0  0  0  0
   -1.9320   24.5510  -29.1870 H   0  0  0  0  0  0  0  0  0  0  0  0
   -2.0860   22.8080  -29.5820 H   0  0  0  0  0  0  0  0  0  0  0  0
   -6.4532   23.7324  -30.8634 H   0  0  0  0  0  0  0  0  0  0  0  0
   -8.2071   21.8504  -32.1180 H   0  0  0  0  0  0  0  0  0  0  0  0
   -8.2335   19.6686  -33.3752 H   0  0  0  0  0  0  0  0  0  0  0  0
   -5.2048   17.5303  -33.7768 H   0  0  0  0  0  0  0  0  0  0  0  0
   -3.8821   19.4995  -33.1717 H   0  0  0  0  0  0  0  0  0  0  0  0
  1  2  1  0
  2  3  2  0
  2  4  1  0
  4  5  1  0
  5  6  1  0
  6  7  1  0
  7  8  2  0
  7  9  1  0
  9 10  1  0
 10 11  1  0
 11 12  1  0
 12 13  2  0
 12 14  1  0
 14 15  1  0
 15 16  1  0
 16 17  1  0
 16 18  2  0
 15 19  2  0
 19 20  1  0
 20 21  2  0
 21 22  1  0
 22 23  2  0
 23 24  1  0
 24 25  1  0
 24 26  1  0
 23 27  1  0
 27 28  2  0
 28 14  1  0
 28 20  1  0
  1 29  1  0
  1 30  1  0
  1 31  1  0
  5 32  1  0
  5 33  1  0
 10 34  1  0
 10 35  1  0
 17 36  1  0
 17 37  1  0
 19 38  1  0
 21 39  1  0
 22 40  1  0
 24 41  1  0
 27 42  1  0
M  END
>  <UniqueID>  (3) 
3

>  <SMILES>  (3) 
CC(=O)OCOC(=O)OCOC(=O)n1c(C(N)=O)cc2ccc(C(F)F)cc21

>  <Energy>  (3) 
69.59610381441018

>  <Genealogy>  (3) 
CC(=O)OCOC(=O)OCOC(=O)n1c(C(N)=O)cc2ccc(C(F)F)cc21 (3D coordinates assigned)
CC(=O)OCOC(=O)OCOC(=O)n1c(C(N)=O)cc2ccc(C(F)F)cc21 (optimized conformer: 69.59610381441018 kcal/mol)

>  <smiles>  (3) 
CC(=O)OCOC(=O)OCOC(=O)n1c(C(N)=O)cc2ccc(C(F)F)cc21

>  <score_type>  (3) 
oracle

>  <origin>  (3) 
adg

>  <m_score__min__energy>  (3) 
-7.1200000000000001

>  <m_primary>  (3) 
energy

$$$$
3:0
     RDKit          3D

 46 47  0  0  0  0  0  0  0  0999 V2000
   -2.2410   17.8800  -33.6430 C   0  0  0  0  0  0  0  0  0  0  0  0
   -3.6610   18.1060  -33.9720 N   0  0  1  0  0  0  0  0  0  0  0  0
   -4.5620   17.0850  -33.3770 C   0  0  0  0  0  0  0  0  0  0  0  0
   -5.8140   16.7400  -34.2140 C   0  0  0  0  0  0  0  0  0  0  0  0
   -5.9150   17.6140  -35.3070 O   0  0  0  0  0  0  0  0  0  0  0  0
   -4.0600   19.4620  -33.6330 C   0  0  0  0  0  0  0  0  0  0  0  0
   -5.2110   19.8300  -33.8340 O   0  0  0  0  0  0  0  0  0  0  0  0
   -3.0480   20.4410  -33.0690 C   0  0  0  0  0  0  0  0  0  0  0  0
   -3.4690   21.9120  -33.2150 C   0  0  0  0  0  0  0  0  0  0  0  0
   -3.2550   22.6170  -31.9900 O   0  0  0  0  0  0  0  0  0  0  0  0
   -4.0300   22.4490  -30.8370 C   0  0  0  0  0  0  0  0  0  0  0  0
   -3.5570   21.8770  -29.8170 O   0  0  0  0  0  0  0  0  0  0  0  0
   -5.3990   22.8770  -30.8430 N   0  0  0  0  0  0  0  0  0  0  0  0
   -5.8710   24.1540  -30.7560 C   0  0  0  0  0  0  0  0  0  0  0  0
   -5.0640   25.3480  -30.4240 C   0  0  0  0  0  0  0  0  0  0  0  0
   -3.6370   25.2850  -30.4730 N   0  0  0  0  0  0  0  0  0  0  0  0
   -5.6250   26.4420  -30.1430 O   0  0  0  0  0  0  0  0  0  0  0  0
   -7.2490   24.1780  -30.9670 C   0  0  0  0  0  0  0  0  0  0  0  0
   -7.6040   22.8660  -31.1970 C   0  0  0  0  0  0  0  0  0  0  0  0
   -8.8410   22.3120  -31.5130 C   0  0  0  0  0  0  0  0  0  0  0  0
   -8.9060   20.9240  -31.7490 C   0  0  0  0  0  0  0  0  0  0  0  0
   -7.7410   20.1170  -31.6580 C   0  0  0  0  0  0  0  0  0  0  0  0
   -7.8030   18.6450  -31.9900 C   0  0  0  0  0  0  0  0  0  0  0  0
   -9.0210   18.1110  -31.6090 F   0  0  0  0  0  0  0  0  0  0  0  0
   -6.8010   17.9500  -31.3310 F   0  0  0  0  0  0  0  0  0  0  0  0
   -7.6420   18.4790  -33.3560 F   0  0  0  0  0  0  0  0  0  0  0  0
   -6.4990   20.7220  -31.3540 C   0  0  0  0  0  0  0  0  0  0  0  0
   -6.4700   22.1010  -31.1110 C   0  0  0  0  0  0  0  0  0  0  0  0
   -2.1165   17.8602  -32.5503 H   0  0  0  0  0  0  0  0  0  0  0  0
   -1.9150   16.9187  -34.0667 H   0  0  0  0  0  0  0  0  0  0  0  0
   -1.6326   18.6926  -34.0667 H   0  0  0  0  0  0  0  0  0  0  0  0
   -3.7420   17.9860  -35.0110 H   0  0  0  0  0  0  0  0  0  0  0  0
   -3.9822   16.1609  -33.2364 H   0  0  0  0  0  0  0  0  0  0  0  0
   -4.9347   17.5192  -32.4376 H   0  0  0  0  0  0  0  0  0  0  0  0
   -5.7339   15.7059  -34.5804 H   0  0  0  0  0  0  0  0  0  0  0  0
   -6.7098   16.8437  -33.5841 H   0  0  0  0  0  0  0  0  0  0  0  0
   -6.4040   18.4170  -34.9890 H   0  0  0  0  0  0  0  0  0  0  0  0
   -2.9113   20.2227  -31.9996 H   0  0  0  0  0  0  0  0  0  0  0  0
   -2.1190   20.3123  -33.6438 H   0  0  0  0  0  0  0  0  0  0  0  0
   -2.8738   22.3817  -34.0119 H   0  0  0  0  0  0  0  0  0  0  0  0
   -4.5389   21.9529  -33.4673 H   0  0  0  0  0  0  0  0  0  0  0  0
   -3.1510   24.6290  -31.1290 H   0  0  0  0  0  0  0  0  0  0  0  0
   -7.9113   25.0561  -30.9529 H   0  0  0  0  0  0  0  0  0  0  0  0
   -9.7422   22.9395  -31.5767 H   0  0  0  0  0  0  0  0  0  0  0  0
   -9.8698   20.4606  -32.0065 H   0  0  0  0  0  0  0  0  0  0  0  0
   -5.5773   20.1232  -31.3095 H   0  0  0  0  0  0  0  0  0  0  0  0
  1  2  1  0
  2  3  1  0
  3  4  1  0
  4  5  1  0
  2  6  1  0
  6  7  2  0
  6  8  1  0
  8  9  1  0
  9 10  1  0
 10 11  1  0
 11 12  2  0
 11 13  1  0
 13 14  1  0
 14 15  1  0
 15 16  1  0
 15 17  2  0
 14 18  2  0
 18 19  1  0
 19 20  2  0
 20 21  1  0
 21 22  2  0
 22 23  1  0
 23 24  1  0
 23 25  1  0
 23 26  1  0
 22 27  1  0
 27 28  2  0
 28 13  1  0
 28 19  1  0
  1 29  1  0
  1 30  1  0
  1 31  1  0
  2 32  1  6
  3 33  1  0
  3 34  1  0
  4 35  1  0
  4 36  1  0
  5 37  1  0
  8 38  1  0
  8 39  1  0
  9 40  1  0
  9 41  1  0
 16 42  1  0
 18 43  1  0
 20 44  1  0
 21 45  1  0
 27 46  1  0
M  CHG  2   2   1  16  -1
M  END
>  <UniqueID>  (4) 
4

>  <SMILES>  (4) 
C[N@@H+](CCO)C(=O)CCOC(=O)n1c(C([NH-])=O)cc2ccc(C(F)(F)F)cc21

>  <Energy>  (4) 
87.78323832301992

>  <Genealogy>  (4) 
C[NH+](CCO)C(=O)CCOC(=O)n1c(C([NH-])=O)cc2ccc(C(F)(F)F)cc21 (protonated)
C[N@@H+](CCO)C(=O)CCOC(=O)n1c(C([NH-])=O)cc2ccc(C(F)(F)F)cc21 (chirality)
C[N@@H+](CCO)C(=O)CCOC(=O)n1c(C([NH-])=O)cc2ccc(C(F)(F)F)cc21 (3D coordinates assigned)
C[N@@H+](CCO)C(=O)CCOC(=O)n1c(C([NH-])=O)cc2ccc(C(F)(F)F)cc21 (optimized conformer: 87.78323832301992 kcal/mol)

>  <smiles>  (4) 
CN(CCO)C(=O)CCOC(=O)n1c(C(N)=O)cc2ccc(C(F)(F)F)cc21

>  <score_type>  (4) 
oracle

>  <origin>  (4) 
adg

>  <m_score__min__energy>  (4) 
-9.0899999999999999

>  <m_primary>  (4) 
energy

$$$$
4:0
     RDKit          3D

 45 46  0  0  0  0  0  0  0  0999 V2000
   -7.0850   18.3780  -32.9900 C   0  0  0  0  0  0  0  0  0  0  0  0
   -7.2130   19.7720  -32.4520 C   0  0  0  0  0  0  0  0  0  0  0  0
   -8.4740   20.4190  -32.4440 C   0  0  0  0  0  0  0  0  0  0  0  0
   -8.5950   21.7420  -31.9840 C   0  0  0  0  0  0  0  0  0  0  0  0
   -7.4420   22.3920  -31.5570 C   0  0  0  0  0  0  0  0  0  0  0  0
   -7.2670   23.6770  -31.0900 C   0  0  0  0  0  0  0  0  0  0  0  0
   -5.9020   23.7920  -30.8320 C   0  0  0  0  0  0  0  0  0  0  0  0
   -5.2870   24.9850  -30.2150 C   0  0  0  0  0  0  0  0  0  0  0  0
   -4.1710   25.6300  -30.8250 N   0  0  0  0  0  0  0  0  0  0  0  0
   -5.7220   25.4150  -29.1130 O   0  0  0  0  0  0  0  0  0  0  0  0
   -5.2580   22.6320  -31.1420 N   0  0  0  0  0  0  0  0  0  0  0  0
   -3.8450   22.3760  -31.1440 C   0  0  0  0  0  0  0  0  0  0  0  0
   -3.0350   23.3370  -31.2470 O   0  0  0  0  0  0  0  0  0  0  0  0
   -3.3140   20.9880  -30.9220 C   0  0  0  0  0  0  0  0  0  0  0  0
   -3.4700   20.6060  -29.5690 O   0  0  0  0  0  0  0  0  0  0  0  0
   -3.2490   21.7080  -28.7130 C   0  0  0  0  0  0  0  0  0  0  0  0
   -1.7740   21.8480  -28.4700 C   0  0  0  0  0  0  0  0  0  0  0  0
   -1.0490   20.8240  -28.5930 O   0  0  0  0  0  0  0  0  0  0  0  0
   -1.1690   23.1240  -28.1540 N   0  0  0  0  0  0  0  0  0  0  0  0
   -0.0660   23.6510  -28.9650 C   0  0  0  0  0  0  0  0  0  0  0  0
   -1.6100   23.8850  -26.9760 C   0  0  0  0  0  0  0  0  0  0  0  0
   -2.7280   24.8620  -27.3460 C   0  0  0  0  0  0  0  0  0  0  0  0
   -2.6240   25.2510  -28.6890 O   0  0  0  0  0  0  0  0  0  0  0  0
   -6.2150   21.7830  -31.5700 C   0  0  0  0  0  0  0  0  0  0  0  0
   -6.0640   20.4670  -32.0190 C   0  0  0  0  0  0  0  0  0  0  0  0
   -7.0197   17.6667  -32.1535 H   0  0  0  0  0  0  0  0  0  0  0  0
   -7.9651   18.1403  -33.6056 H   0  0  0  0  0  0  0  0  0  0  0  0
   -6.1763   18.3045  -33.6056 H   0  0  0  0  0  0  0  0  0  0  0  0
   -9.3652   19.8817  -32.8006 H   0  0  0  0  0  0  0  0  0  0  0  0
   -9.5717   22.2476  -31.9625 H   0  0  0  0  0  0  0  0  0  0  0  0
   -8.0397   24.4474  -30.9506 H   0  0  0  0  0  0  0  0  0  0  0  0
   -3.1970   25.2930  -30.6570 H   0  0  0  0  0  0  0  0  0  0  0  0
   -3.8648   20.2834  -31.5624 H   0  0  0  0  0  0  0  0  0  0  0  0
   -2.2432   20.9734  -31.1735 H   0  0  0  0  0  0  0  0  0  0  0  0
   -3.6341   22.6244  -29.1841 H   0  0  0  0  0  0  0  0  0  0  0  0
   -3.7702   21.5478  -27.7577 H   0  0  0  0  0  0  0  0  0  0  0  0
    0.7270   24.0299  -28.3035 H   0  0  0  0  0  0  0  0  0  0  0  0
    0.3382   22.8487  -29.5998 H   0  0  0  0  0  0  0  0  0  0  0  0
   -0.4362   24.4695  -29.5998 H   0  0  0  0  0  0  0  0  0  0  0  0
   -1.9810   23.1850  -26.2129 H   0  0  0  0  0  0  0  0  0  0  0  0
   -0.7556   24.4585  -26.5873 H   0  0  0  0  0  0  0  0  0  0  0  0
   -3.7009   24.3743  -27.1859 H   0  0  0  0  0  0  0  0  0  0  0  0
   -2.6395   25.7563  -26.7117 H   0  0  0  0  0  0  0  0  0  0  0  0
   -3.5500   25.3310  -29.0360 H   0  0  0  0  0  0  0  0  0  0  0  0
   -5.0748   19.9862  -32.0342 H   0  0  0  0  0  0  0  0  0  0  0  0
  1  2  1  0
  2  3  2  0
  3  4  1  0
  4  5  2  0
  5  6  1  0
  6  7  2  0
  7  8  1  0
  8  9  1  0
  8 10  2  0
  7 11  1  0
 11 12  1  0
 12 13  2  0
 12 14  1  0
 14 15  1  0
 15 16  1  0
 16 17  1  0
 17 18  2  0
 17 19  1  0
 19 20  1  0
 19 21  1  0
 21 22  1  0
 22 23  1  0
 11 24  1  0
 24 25  2  0
 25  2  1  0
 24  5  1  0
  1 26  1  0
  1 27  1  0
  1 28  1  0
  3 29  1  0
  4 30  1  0
  6 31  1  0
  9 32  1  0
 14 33  1  0
 14 34  1  0
 16 35  1  0
 16 36  1  0
 20 37  1  0
 20 38  1  0
 20 39  1  0
 21 40  1  0
 21 41  1  0
 22 42  1  0
 22 43  1  0
 23 44  1  0
 25 45  1  0
M  CHG  1   9  -1
M  END
>  <UniqueID>  (5) 
5

>  <SMILES>  (5) 
Cc1ccc2cc(C([NH-])=O)n(C(=O)COCC(=O)N(C)CCO)c2c1

>  <Energy>  (5) 
78.57127435472414

>  <Genealogy>  (5) 
Cc1ccc2cc(C([NH-])=O)n(C(=O)COCC(=O)N(C)CCO)c2c1 (protonated)
Cc1ccc2cc(C([NH-])=O)n(C(=O)COCC(=O)N(C)CCO)c2c1 (3D coordinates assigned)
Cc1ccc2cc(C([NH-])=O)n(C(=O)COCC(=O)N(C)CCO)c2c1 (optimized conformer: 78.57127435472414 kcal/mol)

>  <smiles>  (5) 
Cc1ccc2cc(C(N)=O)n(C(=O)COCC(=O)N(C)CCO)c2c1

>  <score_type>  (5) 
oracle

>  <origin>  (5) 
adg

>  <m_score__min__energy>  (5) 
-10.130000000000001

>  <m_primary>  (5) 
energy

$$$$
5:0
     RDKit          3D

 37 38  0  0  0  0  0  0  0  0999 V2000
    0.4830   28.1800  -26.3240 C   0  0  0  0  0  0  0  0  0  0  0  0
   -0.7380   27.3450  -26.6980 C   0  0  2  0  0  0  0  0  0  0  0  0
   -1.1550   26.5620  -25.5800 O   0  0  0  0  0  0  0  0  0  0  0  0
   -2.0750   25.5110  -25.6650 C   0  0  0  0  0  0  0  0  0  0  0  0
   -3.2470   25.6580  -25.2220 O   0  0  0  0  0  0  0  0  0  0  0  0
   -1.6830   24.2660  -26.2690 N   0  0  0  0  0  0  0  0  0  0  0  0
   -0.6170   23.4870  -25.9300 C   0  0  0  0  0  0  0  0  0  0  0  0
    0.4710   23.8570  -24.9990 C   0  0  0  0  0  0  0  0  0  0  0  0
    1.0810   25.1480  -25.0520 N   0  0  0  0  0  0  0  0  0  0  0  0
    0.9140   22.9970  -24.1890 O   0  0  0  0  0  0  0  0  0  0  0  0
   -0.6330   22.2910  -26.6410 C   0  0  0  0  0  0  0  0  0  0  0  0
   -1.7420   22.3650  -27.4510 C   0  0  0  0  0  0  0  0  0  0  0  0
   -2.2410   21.4420  -28.3660 C   0  0  0  0  0  0  0  0  0  0  0  0
   -3.4210   21.7690  -29.0550 C   0  0  0  0  0  0  0  0  0  0  0  0
   -4.0750   23.0020  -28.8190 C   0  0  0  0  0  0  0  0  0  0  0  0
   -5.3510   23.3290  -29.5410 C   0  0  0  0  0  0  0  0  0  0  0  0
   -5.0860   24.6960  -30.7100 P   0  0  0  0  0  0  0  0  0  0  0  0
   -6.0490   25.8230  -30.4080 O   0  0  0  0  0  0  0  0  0  0  0  0
   -3.5000   25.2600  -30.5530 O   0  0  0  0  0  0  0  0  0  0  0  0
   -5.3370   24.1520  -32.2900 O   0  0  0  0  0  0  0  0  0  0  0  0
   -3.5490   23.9070  -27.8690 C   0  0  0  0  0  0  0  0  0  0  0  0
   -2.3600   23.5660  -27.2100 C   0  0  0  0  0  0  0  0  0  0  0  0
   -0.4150   26.4370  -27.8470 C   0  0  0  0  0  0  0  0  0  0  0  0
    0.6090   25.7010  -27.8120 O   0  0  0  0  0  0  0  0  0  0  0  0
   -1.2270   26.4280  -28.9750 O   0  0  0  0  0  0  0  0  0  0  0  0
    0.5666   28.2372  -25.2287 H   0  0  0  0  0  0  0  0  0  0  0  0
    1.3883   27.7111  -26.7368 H   0  0  0  0  0  0  0  0  0  0  0  0
    0.3744   29.1938  -26.7368 H   0  0  0  0  0  0  0  0  0  0  0  0
   -1.5500   28.0261  -26.9924 H   0  0  0  0  0  0  0  0  0  0  0  0
    1.8400   25.3990  -24.3800 H   0  0  0  0  0  0  0  0  0  0  0  0
    0.8580   25.8190  -25.8190 H   0  0  0  0  0  0  0  0  0  0  0  0
    0.0877   21.4630  -26.5703 H   0  0  0  0  0  0  0  0  0  0  0  0
   -1.7271   20.4859  -28.5441 H   0  0  0  0  0  0  0  0  0  0  0  0
   -3.8404   21.0604  -29.7844 H   0  0  0  0  0  0  0  0  0  0  0  0
   -5.6927   22.4411  -30.0932 H   0  0  0  0  0  0  0  0  0  0  0  0
   -6.1100   23.6316  -28.8045 H   0  0  0  0  0  0  0  0  0  0  0  0
   -4.0607   24.8563  -27.6521 H   0  0  0  0  0  0  0  0  0  0  0  0
  1  2  1  0
  2  3  1  0
  3  4  1  0
  4  5  2  0
  4  6  1  0
  6  7  1  0
  7  8  1  0
  8  9  1  0
  8 10  2  0
  7 11  2  0
 11 12  1  0
 12 13  2  0
 13 14  1  0
 14 15  2  0
 15 16  1  0
 16 17  1  0
 17 18  2  0
 17 19  1  0
 17 20  1  0
 15 21  1  0
 21 22  2  0
  2 23  1  0
 23 24  2  0
 23 25  1  0
 22  6  1  0
 22 12  1  0
  1 26  1  0
  1 27  1  0
  1 28  1  0
  2 29  1  6
  9 30  1  0
  9 31  1  0
 11 32  1  0
 13 33  1  0
 14 34  1  0
 16 35  1  0
 16 36  1  0
 21 37  1  0
M  CHG  3  19  -1  20  -1  25  -1
M  END
>  <UniqueID>  (6) 
6

>  <SMILES>  (6) 
C[C@H](OC(=O)n1c(C(N)=O)cc2ccc(CP(=O)([O-])[O-])cc21)C(=O)[O-]

>  <Energy>  (6) 
67.474644461244

>  <Genealogy>  (6) 
CC(OC(=O)n1c(C(N)=O)cc2ccc(CP(=O)([O-])[O-])cc21)C(=O)[O-] (protonated)
C[C@H](OC(=O)n1c(C(N)=O)cc2ccc(CP(=O)([O-])[O-])cc21)C(=O)[O-] (chirality)
C[C@H](OC(=O)n1c(C(N)=O)cc2ccc(CP(=O)([O-])[O-])cc21)C(=O)[O-] (3D coordinates assigned)
C[C@H](OC(=O)n1c(C(N)=O)cc2ccc(CP(=O)([O-])[O-])cc21)C(=O)[O-] (optimized conformer: 67.474644461244 kcal/mol)

>  <smiles>  (6) 
CC(OC(=O)n1c(C(N)=O)cc2ccc(CP(=O)(O)O)cc21)C(=O)O

>  <score_type>  (6) 
oracle

>  <origin>  (6) 
adg

>  <m_score__min__energy>  (6) 
-12.039999999999999

>  <m_primary>  (6) 
energy

$$$$
6:0
     RDKit          3D

 39 40  0  0  0  0  0  0  0  0999 V2000
   -1.9832   23.4810  -30.9533 H   0  0  0  0  0  0  0  0  0  0  0  0
   -2.4560   23.1670  -30.0110 C   0  0  0  0  0  0  0  0  0  0  0  0
   -3.4810   22.0990  -30.0980 C   0  0  0  0  0  0  0  0  0  0  0  0
   -3.3280   20.9910  -29.5200 O   0  0  0  0  0  0  0  0  0  0  0  0
   -4.6820   22.3290  -30.8500 N   0  0  0  0  0  0  0  0  0  0  0  0
   -5.4240   23.4690  -30.8810 C   0  0  0  0  0  0  0  0  0  0  0  0
   -5.0590   24.7540  -30.2500 C   0  0  0  0  0  0  0  0  0  0  0  0
   -4.2330   25.5120  -30.8220 O   0  0  0  0  0  0  0  0  0  0  0  0
   -5.5870   25.1330  -28.9770 N   0  0  0  0  0  0  0  0  0  0  0  0
   -5.3740   26.0760  -28.5830 H   0  0  0  0  0  0  0  0  0  0  0  0
   -6.0940   24.4490  -28.3730 H   0  0  0  0  0  0  0  0  0  0  0  0
   -6.6000   23.2670  -31.5990 C   0  0  0  0  0  0  0  0  0  0  0  0
   -7.3962   24.0000  -31.7959 H   0  0  0  0  0  0  0  0  0  0  0  0
   -6.5530   21.9530  -32.0100 C   0  0  0  0  0  0  0  0  0  0  0  0
   -7.4820   21.2080  -32.7230 C   0  0  0  0  0  0  0  0  0  0  0  0
   -8.4092   21.6664  -33.0973 H   0  0  0  0  0  0  0  0  0  0  0  0
   -7.2020   19.8510  -32.9520 C   0  0  0  0  0  0  0  0  0  0  0  0
   -7.9155   19.2419  -33.5264 H   0  0  0  0  0  0  0  0  0  0  0  0
   -6.0110   19.2490  -32.4540 C   0  0  0  0  0  0  0  0  0  0  0  0
   -5.7360   17.8410  -32.6850 N   0  0  0  0  0  0  0  0  0  0  0  0
   -5.4160   17.3530  -34.0330 C   0  0  0  0  0  0  0  0  0  0  0  0
   -4.8142   16.4353  -33.9575 H   0  0  0  0  0  0  0  0  0  0  0  0
   -6.3481   17.1366  -34.5755 H   0  0  0  0  0  0  0  0  0  0  0  0
   -4.8460   18.1216  -34.5755 H   0  0  0  0  0  0  0  0  0  0  0  0
   -5.7850   16.8790  -31.5760 C   0  0  0  0  0  0  0  0  0  0  0  0
   -5.7574   17.4208  -30.6191 H   0  0  0  0  0  0  0  0  0  0  0  0
   -6.7141   16.2936  -31.6392 H   0  0  0  0  0  0  0  0  0  0  0  0
   -4.9202   16.2022  -31.6392 H   0  0  0  0  0  0  0  0  0  0  0  0
   -5.0970   20.0540  -31.7240 C   0  0  0  0  0  0  0  0  0  0  0  0
   -4.1745   19.6196  -31.3113 H   0  0  0  0  0  0  0  0  0  0  0  0
   -5.3900   21.4080  -31.5390 C   0  0  0  0  0  0  0  0  0  0  0  0
   -2.0470   23.7920  -28.8830 C   0  0  0  0  0  0  0  0  0  0  0  0
   -0.9740   24.8170  -28.9690 C   0  0  0  0  0  0  0  0  0  0  0  0
   -1.2360   25.9910  -29.3510 O   0  0  0  0  0  0  0  0  0  0  0  0
    0.3390   24.5050  -28.6250 O   0  0  0  0  0  0  0  0  0  0  0  0
   -2.6450   23.4720  -27.5340 C   0  0  0  0  0  0  0  0  0  0  0  0
   -1.9733   23.8315  -26.7406 H   0  0  0  0  0  0  0  0  0  0  0  0
   -3.6225   23.9676  -27.4393 H   0  0  0  0  0  0  0  0  0  0  0  0
   -2.7749   22.3838  -27.4393 H   0  0  0  0  0  0  0  0  0  0  0  0
  1  2  1  0
  2  3  1  0
  3  4  2  0
  3  5  1  0
  5  6  1  0
  6  7  1  0
  7  8  2  0
  7  9  1  0
  9 10  1  0
  9 11  1  0
  6 12  2  0
 12 13  1  0
 12 14  1  0
 14 15  2  0
 15 16  1  0
 15 17  1  0
 17 18  1  0
 17 19  2  0
 19 20  1  0
 20 21  1  0
 21 22  1  0
 21 23  1  0
 21 24  1  0
 20 25  1  0
 25 26  1  0
 25 27  1  0
 25 28  1  0
 19 29  1  0
 29 30  1  0
 29 31  2  0
  2 32  2  0
 32 33  1  0
 33 34  2  0
 33 35  1  0
 32 36  1  0
 36 37  1  0
 36 38  1  0
 36 39  1  0
 31  5  1  0
 31 14  1  0
M  CHG  1  35  -1
M  END
>  <UniqueID>  (7) 
7

>  <SMILES>  (7) 
C/C(=C\C(=O)n1c(C(N)=O)cc2ccc(N(C)C)cc21)C(=O)[O-]

>  <Energy>  (7) 
83.8895194354537

>  <Genealogy>  (7) 
CC(=CC(=O)n1c(C(N)=O)cc2ccc(N(C)C)cc21)C(=O)[O-] (protonated)
C/C(=C\C(=O)n1c(C(N)=O)cc2ccc(N(C)C)cc21)C(=O)[O-] (cis-trans isomerization)
C/C(=C\C(=O)n1c(C(N)=O)cc2ccc(N(C)C)cc21)C(=O)[O-] (3D coordinates assigned)
C/C(=C\C(=O)n1c(C(N)=O)cc2ccc(N(C)C)cc21)C(=O)[O-] (optimized conformer: 83.8895194354537 kcal/mol)

>  <smiles>  (7) 
CC(=CC(=O)n1c(C(N)=O)cc2ccc(N(C)C)cc21)C(=O)O

>  <score_type>  (7) 
oracle

>  <origin>  (7) 
adg

>  <m_score__min__energy>  (7) 
-11.220000000000001

>  <m_primary>  (7) 
energy

$$$$
7:0
     RDKit          3D

 46 47  0  0  0  0  0  0  0  0999 V2000
   -1.8110   22.6250  -27.0590 C   0  0  0  0  0  0  0  0  0  0  0  0
   -2.2220   22.2140  -28.4890 C   0  0  0  0  0  0  0  0  0  0  0  0
   -1.8760   20.7230  -28.6980 C   0  0  0  0  0  0  0  0  0  0  0  0
   -3.7510   22.3970  -28.6160 C   0  0  0  0  0  0  0  0  0  0  0  0
   -1.4810   23.1220  -29.5260 C   0  0  1  0  0  0  0  0  0  0  0  0
   -2.0200   22.9550  -30.8430 O   0  0  0  0  0  0  0  0  0  0  0  0
   -1.7970   21.8230  -31.6390 C   0  0  0  0  0  0  0  0  0  0  0  0
   -0.6300   21.3730  -31.7970 O   0  0  0  0  0  0  0  0  0  0  0  0
   -2.8980   21.2110  -32.3290 N   0  0  0  0  0  0  0  0  0  0  0  0
   -2.9020   20.0320  -33.0120 C   0  0  0  0  0  0  0  0  0  0  0  0
   -1.7080   19.2520  -33.3930 C   0  0  0  0  0  0  0  0  0  0  0  0
   -0.6560   19.8520  -34.1410 N   0  0  0  0  0  0  0  0  0  0  0  0
   -1.6420   18.0280  -33.1030 O   0  0  0  0  0  0  0  0  0  0  0  0
   -4.1980   19.6860  -33.3870 C   0  0  0  0  0  0  0  0  0  0  0  0
   -4.9970   20.6980  -32.9070 C   0  0  0  0  0  0  0  0  0  0  0  0
   -6.3820   20.8440  -32.9560 C   0  0  0  0  0  0  0  0  0  0  0  0
   -6.9480   21.9630  -32.3220 C   0  0  0  0  0  0  0  0  0  0  0  0
   -6.1280   22.9080  -31.6580 C   0  0  0  0  0  0  0  0  0  0  0  0
   -6.7480   24.0740  -30.9380 C   0  0  0  0  0  0  0  0  0  0  0  0
   -5.6770   24.9560  -30.3730 C   0  0  0  0  0  0  0  0  0  0  0  0
   -5.4540   25.0130  -28.9630 N   0  0  0  0  0  0  0  0  0  0  0  0
   -4.9930   25.6810  -31.1430 O   0  0  0  0  0  0  0  0  0  0  0  0
   -4.7280   22.7220  -31.6220 C   0  0  0  0  0  0  0  0  0  0  0  0
   -4.1890   21.6060  -32.2740 C   0  0  0  0  0  0  0  0  0  0  0  0
   -1.5430   24.5840  -29.1700 C   0  0  0  0  0  0  0  0  0  0  0  0
   -0.5260   25.1760  -28.7170 O   0  0  0  0  0  0  0  0  0  0  0  0
   -2.7210   25.2970  -29.3560 O   0  0  0  0  0  0  0  0  0  0  0  0
   -2.3927   22.0433  -26.3288 H   0  0  0  0  0  0  0  0  0  0  0  0
   -0.7386   22.4272  -26.9146 H   0  0  0  0  0  0  0  0  0  0  0  0
   -2.0088   23.6974  -26.9146 H   0  0  0  0  0  0  0  0  0  0  0  0
   -1.7622   20.2324  -27.7200 H   0  0  0  0  0  0  0  0  0  0  0  0
   -2.6846   20.2344  -29.2614 H   0  0  0  0  0  0  0  0  0  0  0  0
   -0.9348   20.6405  -29.2614 H   0  0  0  0  0  0  0  0  0  0  0  0
   -4.1985   22.4506  -27.6126 H   0  0  0  0  0  0  0  0  0  0  0  0
   -3.9648   23.3271  -29.1629 H   0  0  0  0  0  0  0  0  0  0  0  0
   -4.1783   21.5436  -29.1629 H   0  0  0  0  0  0  0  0  0  0  0  0
   -0.4299   22.7987  -29.5022 H   0  0  0  0  0  0  0  0  0  0  0  0
   -0.1720   20.7100  -33.7990 H   0  0  0  0  0  0  0  0  0  0  0  0
   -4.5150   18.7941  -33.9473 H   0  0  0  0  0  0  0  0  0  0  0  0
   -7.0123   20.1066  -33.4746 H   0  0  0  0  0  0  0  0  0  0  0  0
   -8.0384   22.1065  -32.3415 H   0  0  0  0  0  0  0  0  0  0  0  0
   -7.3620   24.6530  -31.6435 H   0  0  0  0  0  0  0  0  0  0  0  0
   -7.3766   23.6984  -30.1171 H   0  0  0  0  0  0  0  0  0  0  0  0
   -4.7440   25.6670  -28.5670 H   0  0  0  0  0  0  0  0  0  0  0  0
   -6.0190   24.4250  -28.3100 H   0  0  0  0  0  0  0  0  0  0  0  0
   -4.0777   23.4358  -31.0951 H   0  0  0  0  0  0  0  0  0  0  0  0
  1  2  1  0
  2  3  1  0
  2  4  1  0
  2  5  1  0
  5  6  1  0
  6  7  1  0
  7  8  2  0
  7  9  1  0
  9 10  1  0
 10 11  1  0
 11 12  1  0
 11 13  2  0
 10 14  2  0
 14 15  1  0
 15 16  2  0
 16 17  1  0
 17 18  2  0
 18 19  1  0
 19 20  1  0
 20 21  1  0
 20 22  2  0
 18 23  1  0
 23 24  2  0
  5 25  1  0
 25 26  2  0
 25 27  1  0
 24  9  1  0
 24 15  1  0
  1 28  1  0
  1 29  1  0
  1 30  1  0
  3 31  1  0
  3 32  1  0
  3 33  1  0
  4 34  1  0
  4 35  1  0
  4 36  1  0
  5 37  1  6
 12 38  1  0
 14 39  1  0
 16 40  1  0
 17 41  1  0
 19 42  1  0
 19 43  1  0
 21 44  1  0
 21 45  1  0
 23 46  1  0
M  CHG  2  12  -1  27  -1
M  END
>  <UniqueID>  (8) 
8

>  <SMILES>  (8) 
CC(C)(C)[C@@H](OC(=O)n1c(C([NH-])=O)cc2ccc(CC(N)=O)cc21)C(=O)[O-]

>  <Energy>  (8) 
79.19806535707137

>  <Genealogy>  (8) 
CC(C)(C)C(OC(=O)n1c(C([NH-])=O)cc2ccc(CC(N)=O)cc21)C(=O)[O-] (protonated)
CC(C)(C)[C@@H](OC(=O)n1c(C([NH-])=O)cc2ccc(CC(N)=O)cc21)C(=O)[O-] (chirality)
CC(C)(C)[C@@H](OC(=O)n1c(C([NH-])=O)cc2ccc(CC(N)=O)cc21)C(=O)[O-] (3D coordinates assigned)
CC(C)(C)[C@@H](OC(=O)n1c(C([NH-])=O)cc2ccc(CC(N)=O)cc21)C(=O)[O-] (optimized conformer: 79.19806535707137 kcal/mol)

>  <smiles>  (8) 
CC(C)(C)C(OC(=O)n1c(C(N)=O)cc2ccc(CC(N)=O)cc21)C(=O)O

>  <score_type>  (8) 
oracle

>  <origin>  (8) 
adg

>  <m_score__min__energy>  (8) 
-13.49

>  <m_primary>  (8) 
energy

$$$$
8:0
     RDKit          3D

 43 44  0  0  0  0  0  0  0  0999 V2000
   -1.2090   26.3420  -27.9340 C   0  0  0  0  0  0  0  0  0  0  0  0
   -1.9720   25.0890  -28.0950 N   0  0  2  0  0  0  0  0  0  0  0  0
   -2.5380   24.5830  -26.8200 C   0  0  0  0  0  0  0  0  0  0  0  0
   -4.0730   24.5920  -26.7340 C   0  0  0  0  0  0  0  0  0  0  0  0
   -4.6050   24.4850  -28.0280 O   0  0  0  0  0  0  0  0  0  0  0  0
   -1.1780   24.0870  -28.7850 C   0  0  0  0  0  0  0  0  0  0  0  0
    0.0420   24.1720  -28.8070 O   0  0  0  0  0  0  0  0  0  0  0  0
   -1.8340   22.9620  -29.5420 C   0  0  0  0  0  0  0  0  0  0  0  0
   -3.1340   23.3480  -29.9800 O   0  0  0  0  0  0  0  0  0  0  0  0
   -3.7960   22.7440  -31.0560 C   0  0  0  0  0  0  0  0  0  0  0  0
   -3.1620   22.0270  -31.8750 O   0  0  0  0  0  0  0  0  0  0  0  0
   -5.2150   22.9040  -31.1890 N   0  0  0  0  0  0  0  0  0  0  0  0
   -5.9660   24.0190  -30.9570 C   0  0  0  0  0  0  0  0  0  0  0  0
   -5.4850   25.3010  -30.3920 C   0  0  0  0  0  0  0  0  0  0  0  0
   -4.1170   25.6790  -30.4730 N   0  0  0  0  0  0  0  0  0  0  0  0
   -6.2950   26.0630  -29.8000 O   0  0  0  0  0  0  0  0  0  0  0  0
   -7.3110   23.7580  -31.2190 C   0  0  0  0  0  0  0  0  0  0  0  0
   -7.3600   22.4410  -31.6130 C   0  0  0  0  0  0  0  0  0  0  0  0
   -8.4470   21.6550  -31.9800 C   0  0  0  0  0  0  0  0  0  0  0  0
   -8.2030   20.3190  -32.3380 C   0  0  0  0  0  0  0  0  0  0  0  0
   -6.8820   19.7990  -32.3470 C   0  0  0  0  0  0  0  0  0  0  0  0
   -6.6420   18.3510  -32.6870 C   0  0  0  0  0  0  0  0  0  0  0  0
   -5.6200   17.8320  -31.9100 F   0  0  0  0  0  0  0  0  0  0  0  0
   -6.2920   18.2500  -34.0200 F   0  0  0  0  0  0  0  0  0  0  0  0
   -7.7820   17.5970  -32.4610 F   0  0  0  0  0  0  0  0  0  0  0  0
   -5.8060   20.6260  -31.9480 C   0  0  0  0  0  0  0  0  0  0  0  0
   -6.0820   21.9480  -31.5830 C   0  0  0  0  0  0  0  0  0  0  0  0
   -1.0783   26.5567  -26.8631 H   0  0  0  0  0  0  0  0  0  0  0  0
   -0.2229   26.2345  -28.4095 H   0  0  0  0  0  0  0  0  0  0  0  0
   -1.7571   27.1687  -28.4095 H   0  0  0  0  0  0  0  0  0  0  0  0
   -2.7950   25.3290  -28.6990 H   0  0  0  0  0  0  0  0  0  0  0  0
   -2.1959   23.5464  -26.6838 H   0  0  0  0  0  0  0  0  0  0  0  0
   -2.1851   25.2697  -26.0365 H   0  0  0  0  0  0  0  0  0  0  0  0
   -4.4129   23.7419  -26.1243 H   0  0  0  0  0  0  0  0  0  0  0  0
   -4.4131   25.5292  -26.2693 H   0  0  0  0  0  0  0  0  0  0  0  0
   -4.7290   25.4150  -28.3540 H   0  0  0  0  0  0  0  0  0  0  0  0
   -1.2180   22.7065  -30.4168 H   0  0  0  0  0  0  0  0  0  0  0  0
   -1.9263   22.0910  -28.8765 H   0  0  0  0  0  0  0  0  0  0  0  0
   -3.4730   25.5460  -29.6610 H   0  0  0  0  0  0  0  0  0  0  0  0
   -8.1548   24.4580  -31.1294 H   0  0  0  0  0  0  0  0  0  0  0  0
   -9.4668   22.0671  -31.9896 H   0  0  0  0  0  0  0  0  0  0  0  0
   -9.0453   19.6679  -32.6147 H   0  0  0  0  0  0  0  0  0  0  0  0
   -4.7767   20.2388  -31.9253 H   0  0  0  0  0  0  0  0  0  0  0  0
  1  2  1  0
  2  3  1  0
  3  4  1  0
  4  5  1  0
  2  6  1  0
  6  7  2  0
  6  8  1  0
  8  9  1  0
  9 10  1  0
 10 11  2  0
 10 12  1  0
 12 13  1  0
 13 14  1  0
 14 15  1  0
 14 16  2  0
 13 17  2  0
 17 18  1  0
 18 19  2  0
 19 20  1  0
 20 21  2  0
 21 22  1  0
 22 23  1  0
 22 24  1  0
 22 25  1  0
 21 26  1  0
 26 27  2  0
 27 12  1  0
 27 18  1  0
  1 28  1  0
  1 29  1  0
  1 30  1  0
  2 31  1  6
  3 32  1  0
  3 33  1  0
  4 34  1  0
  4 35  1  0
  5 36  1  0
  8 37  1  0
  8 38  1  0
 15 39  1  0
 17 40  1  0
 19 41  1  0
 20 42  1  0
 26 43  1  0
M  CHG  2   2   1  15  -1
M  END
>  <UniqueID>  (9) 
9

>  <SMILES>  (9) 
C[N@H+](CCO)C(=O)COC(=O)n1c(C([NH-])=O)cc2ccc(C(F)(F)F)cc21

>  <Energy>  (9) 
82.5774673584079

>  <Genealogy>  (9) 
C[NH+](CCO)C(=O)COC(=O)n1c(C([NH-])=O)cc2ccc(C(F)(F)F)cc21 (protonated)
C[N@H+](CCO)C(=O)COC(=O)n1c(C([NH-])=O)cc2ccc(C(F)(F)F)cc21 (chirality)
C[N@H+](CCO)C(=O)COC(=O)n1c(C([NH-])=O)cc2ccc(C(F)(F)F)cc21 (3D coordinates assigned)
C[N@H+](CCO)C(=O)COC(=O)n1c(C([NH-])=O)cc2ccc(C(F)(F)F)cc21 (optimized conformer: 82.5774673584079 kcal/mol)

>  <smiles>  (9) 
CN(CCO)C(=O)COC(=O)n1c(C(N)=O)cc2ccc(C(F)(F)F)cc21

>  <score_type>  (9) 
oracle

>  <origin>  (9) 
adg

>  <m_score__min__energy>  (9) 
-8.5700000000000003

>  <m_primary>  (9) 
energy

$$$$
9:0
     RDKit          3D

 36 37  0  0  0  0  0  0  0  0999 V2000
   -6.4410   16.1540  -33.8660 C   0  0  0  0  0  0  0  0  0  0  0  0
   -6.0080   17.2580  -34.4820 C   0  0  0  0  0  0  0  0  0  0  0  0
   -6.0340   18.6020  -33.8050 C   0  0  0  0  0  0  0  0  0  0  0  0
   -7.3050   18.8100  -33.0980 N   0  0  0  0  0  0  0  0  0  0  0  0
   -7.3610   20.1510  -32.5720 C   0  0  0  0  0  0  0  0  0  0  0  0
   -8.6130   20.7720  -32.3280 C   0  0  0  0  0  0  0  0  0  0  0  0
   -8.6800   22.0630  -31.7770 C   0  0  0  0  0  0  0  0  0  0  0  0
   -7.4830   22.7070  -31.4790 C   0  0  0  0  0  0  0  0  0  0  0  0
   -7.2590   23.9400  -30.9110 C   0  0  0  0  0  0  0  0  0  0  0  0
   -5.8740   24.0630  -30.8270 C   0  0  0  0  0  0  0  0  0  0  0  0
   -5.1950   25.2850  -30.3480 C   0  0  0  0  0  0  0  0  0  0  0  0
   -3.9090   25.6520  -30.8420 N   0  0  0  0  0  0  0  0  0  0  0  0
   -5.7780   26.0420  -29.5270 O   0  0  0  0  0  0  0  0  0  0  0  0
   -5.2650   22.9450  -31.3140 N   0  0  0  0  0  0  0  0  0  0  0  0
   -3.8620   22.6380  -31.3290 C   0  0  0  0  0  0  0  0  0  0  0  0
   -3.3900   21.8860  -32.2250 O   0  0  0  0  0  0  0  0  0  0  0  0
   -3.0210   23.1980  -30.3610 O   0  0  0  0  0  0  0  0  0  0  0  0
   -3.3610   23.2590  -28.9780 C   0  0  0  0  0  0  0  0  0  0  0  0
   -3.1190   24.5440  -28.4750 O   0  0  0  0  0  0  0  0  0  0  0  0
   -6.2630   22.1270  -31.7120 C   0  0  0  0  0  0  0  0  0  0  0  0
   -6.1680   20.8350  -32.2440 C   0  0  0  0  0  0  0  0  0  0  0  0
   -6.4096   15.1855  -34.3866 H   0  0  0  0  0  0  0  0  0  0  0  0
   -6.8288   16.2138  -32.8384 H   0  0  0  0  0  0  0  0  0  0  0  0
   -5.6229   17.1826  -35.5096 H   0  0  0  0  0  0  0  0  0  0  0  0
   -5.2068   18.6568  -33.0819 H   0  0  0  0  0  0  0  0  0  0  0  0
   -5.9273   19.3833  -34.5720 H   0  0  0  0  0  0  0  0  0  0  0  0
   -7.3910   18.1200  -32.3140 H   0  0  0  0  0  0  0  0  0  0  0  0
   -8.1090   18.6590  -33.7510 H   0  0  0  0  0  0  0  0  0  0  0  0
   -9.5422   20.2367  -32.5730 H   0  0  0  0  0  0  0  0  0  0  0  0
   -9.6483   22.5492  -31.5872 H   0  0  0  0  0  0  0  0  0  0  0  0
   -8.0138   24.6734  -30.5910 H   0  0  0  0  0  0  0  0  0  0  0  0
   -3.0380   25.3000  -30.3870 H   0  0  0  0  0  0  0  0  0  0  0  0
   -4.4267   23.0157  -28.8550 H   0  0  0  0  0  0  0  0  0  0  0  0
   -2.7437   22.5357  -28.4251 H   0  0  0  0  0  0  0  0  0  0  0  0
   -3.8950   25.0990  -28.7490 H   0  0  0  0  0  0  0  0  0  0  0  0
   -5.1872   20.3630  -32.4031 H   0  0  0  0  0  0  0  0  0  0  0  0
  1  2  2  0
  2  3  1  0
  3  4  1  0
  4  5  1  0
  5  6  2  0
  6  7  1  0
  7  8  2  0
  8  9  1  0
  9 10  2  0
 10 11  1  0
 11 12  1  0
 11 13  2  0
 10 14  1  0
 14 15  1  0
 15 16  2  0
 15 17  1  0
 17 18  1  0
 18 19  1  0
 14 20  1  0
 20 21  2  0
 21  5  1  0
 20  8  1  0
  1 22  1  0
  1 23  1  0
  2 24  1  0
  3 25  1  0
  3 26  1  0
  4 27  1  0
  4 28  1  0
  6 29  1  0
  7 30  1  0
  9 31  1  0
 12 32  1  0
 18 33  1  0
 18 34  1  0
 19 35  1  0
 21 36  1  0
M  CHG  2   4   1  12  -1
M  END
>  <UniqueID>  (10) 
10

>  <SMILES>  (10) 
C=CC[NH2+]c1ccc2cc(C([NH-])=O)n(C(=O)OCO)c2c1

>  <Energy>  (10) 
70.92380254071495

>  <Genealogy>  (10) 
C=CC[NH2+]c1ccc2cc(C([NH-])=O)n(C(=O)OCO)c2c1 (protonated)
C=CC[NH2+]c1ccc2cc(C([NH-])=O)n(C(=O)OCO)c2c1 (3D coordinates assigned)
C=CC[NH2+]c1ccc2cc(C([NH-])=O)n(C(=O)OCO)c2c1 (optimized conformer: 70.92380254071495 kcal/mol)

>  <smiles>  (10) 
C=CCNc1ccc2cc(C(N)=O)n(C(=O)OCO)c2c1

>  <score_type>  (10) 
oracle

>  <origin>  (10) 
adg

>  <m_score__min__energy>  (10) 
-8.8499999999999996

>  <m_primary>  (10) 
energy

$$$$
10:0
     RDKit          3D

 37 38  0  0  0  0  0  0  0  0999 V2000
   -1.1140   22.2670  -27.9660 C   0  0  0  0  0  0  0  0  0  0  0  0
   -1.8890   23.3570  -28.7200 C   0  0  1  0  0  0  0  0  0  0  0  0
   -1.0780   24.6140  -28.9010 C   0  0  0  0  0  0  0  0  0  0  0  0
   -1.6070   25.6720  -29.3330 O   0  0  0  0  0  0  0  0  0  0  0  0
    0.2610   24.6220  -28.5320 O   0  0  0  0  0  0  0  0  0  0  0  0
   -2.3720   22.8600  -30.0230 N   0  0  0  0  0  0  0  0  0  0  0  0
   -1.4440   22.2650  -30.9940 C   0  0  0  0  0  0  0  0  0  0  0  0
   -3.7800   22.9040  -30.3410 C   0  0  0  0  0  0  0  0  0  0  0  0
   -4.5360   24.0780  -30.0840 C   0  0  0  0  0  0  0  0  0  0  0  0
   -5.9070   24.1330  -30.3870 C   0  0  0  0  0  0  0  0  0  0  0  0
   -6.4950   23.0070  -30.9520 C   0  0  0  0  0  0  0  0  0  0  0  0
   -7.8020   22.7810  -31.3240 C   0  0  0  0  0  0  0  0  0  0  0  0
   -7.8210   21.4820  -31.8270 C   0  0  0  0  0  0  0  0  0  0  0  0
   -9.0260   20.8490  -32.4010 C   0  0  0  0  0  0  0  0  0  0  0  0
   -8.9310   19.8780  -33.4440 N   0  0  0  0  0  0  0  0  0  0  0  0
  -10.1640   21.2040  -31.9930 O   0  0  0  0  0  0  0  0  0  0  0  0
   -6.5810   20.9220  -31.7530 N   0  0  0  0  0  0  0  0  0  0  0  0
   -6.1940   19.5750  -32.0740 C   0  0  0  0  0  0  0  0  0  0  0  0
   -6.4210   18.6500  -31.2490 O   0  0  0  0  0  0  0  0  0  0  0  0
   -5.5670   19.2510  -33.3640 C   0  0  0  0  0  0  0  0  0  0  0  0
   -6.2360   19.3000  -34.4300 O   0  0  0  0  0  0  0  0  0  0  0  0
   -4.2330   18.8660  -33.4110 O   0  0  0  0  0  0  0  0  0  0  0  0
   -5.7800   21.8710  -31.2230 C   0  0  0  0  0  0  0  0  0  0  0  0
   -4.4180   21.7820  -30.9180 C   0  0  0  0  0  0  0  0  0  0  0  0
   -1.2240   22.4218  -26.8825 H   0  0  0  0  0  0  0  0  0  0  0  0
   -1.5133   21.2787  -28.2376 H   0  0  0  0  0  0  0  0  0  0  0  0
   -0.0494   22.3196  -28.2376 H   0  0  0  0  0  0  0  0  0  0  0  0
   -2.7587   23.6152  -28.0980 H   0  0  0  0  0  0  0  0  0  0  0  0
   -0.6353   21.7465  -30.4581 H   0  0  0  0  0  0  0  0  0  0  0  0
   -1.9857   21.5454  -31.6255 H   0  0  0  0  0  0  0  0  0  0  0  0
   -1.0161   23.0576  -31.6255 H   0  0  0  0  0  0  0  0  0  0  0  0
   -4.0421   24.9559  -29.6420 H   0  0  0  0  0  0  0  0  0  0  0  0
   -6.4968   25.0389  -30.1835 H   0  0  0  0  0  0  0  0  0  0  0  0
   -8.6495   23.4774  -31.2415 H   0  0  0  0  0  0  0  0  0  0  0  0
   -9.7920   19.4030  -33.7960 H   0  0  0  0  0  0  0  0  0  0  0  0
   -8.0280   19.6960  -33.9340 H   0  0  0  0  0  0  0  0  0  0  0  0
   -3.8554   20.8592  -31.1226 H   0  0  0  0  0  0  0  0  0  0  0  0
  1  2  1  0
  2  3  1  0
  3  4  2  0
  3  5  1  0
  2  6  1  0
  6  7  1  0
  6  8  1  0
  8  9  2  0
  9 10  1  0
 10 11  2  0
 11 12  1  0
 12 13  2  0
 13 14  1  0
 14 15  1  0
 14 16  2  0
 13 17  1  0
 17 18  1  0
 18 19  2  0
 18 20  1  0
 20 21  2  0
 20 22  1  0
 17 23  1  0
 23 24  2  0
 24  8  1  0
 23 11  1  0
  1 25  1  0
  1 26  1  0
  1 27  1  0
  2 28  1  1
  7 29  1  0
  7 30  1  0
  7 31  1  0
  9 32  1  0
 10 33  1  0
 12 34  1  0
 15 35  1  0
 15 36  1  0
 24 37  1  0
M  CHG  2   5  -1  22  -1
M  END
>  <UniqueID>  (11) 
11

>  <SMILES>  (11) 
C[C@@H](C(=O)[O-])N(C)c1ccc2cc(C(N)=O)n(C(=O)C(=O)[O-])c2c1

>  <Energy>  (11) 
79.28403064719151

>  <Genealogy>  (11) 
CC(C(=O)[O-])N(C)c1ccc2cc(C(N)=O)n(C(=O)C(=O)[O-])c2c1 (protonated)
C[C@@H](C(=O)[O-])N(C)c1ccc2cc(C(N)=O)n(C(=O)C(=O)[O-])c2c1 (chirality)
C[C@@H](C(=O)[O-])N(C)c1ccc2cc(C(N)=O)n(C(=O)C(=O)[O-])c2c1 (3D coordinates assigned)
C[C@@H](C(=O)[O-])N(C)c1ccc2cc(C(N)=O)n(C(=O)C(=O)[O-])c2c1 (optimized conformer: 79.28403064719151 kcal/mol)

>  <smiles>  (11) 
CC(C(=O)O)N(C)c1ccc2cc(C(N)=O)n(C(=O)C(=O)O)c2c1

>  <score_type>  (11) 
oracle

>  <origin>  (11) 
adg

>  <m_score__min__energy>  (11) 
-10.220000000000001

>  <m_primary>  (11) 
energy

$$$$
11:0
     RDKit          3D

 44 45  0  0  0  0  0  0  0  0999 V2000
   -1.6200   26.3620  -25.1270 C   0  0  0  0  0  0  0  0  0  0  0  0
   -2.1870   25.6570  -26.1090 C   0  0  0  0  0  0  0  0  0  0  0  0
   -1.4570   25.3400  -27.3840 C   0  0  0  0  0  0  0  0  0  0  0  0
   -2.3640   24.8060  -28.3430 O   0  0  0  0  0  0  0  0  0  0  0  0
   -2.8590   23.4990  -28.2850 C   0  0  0  0  0  0  0  0  0  0  0  0
   -3.7140   23.1690  -27.4170 O   0  0  0  0  0  0  0  0  0  0  0  0
   -2.3230   22.4670  -29.2230 C   0  0  0  0  0  0  0  0  0  0  0  0
   -3.0830   22.4610  -30.4290 O   0  0  0  0  0  0  0  0  0  0  0  0
   -4.0070   23.4600  -30.7600 C   0  0  0  0  0  0  0  0  0  0  0  0
   -3.6400   24.6640  -30.8430 O   0  0  0  0  0  0  0  0  0  0  0  0
   -5.3780   23.1090  -31.0100 N   0  0  0  0  0  0  0  0  0  0  0  0
   -6.4870   23.6730  -30.4580 C   0  0  0  0  0  0  0  0  0  0  0  0
   -6.5110   24.8830  -29.6110 C   0  0  0  0  0  0  0  0  0  0  0  0
   -5.4030   25.2300  -28.7800 N   0  0  0  0  0  0  0  0  0  0  0  0
   -7.5090   25.6520  -29.6600 O   0  0  0  0  0  0  0  0  0  0  0  0
   -7.6320   22.9780  -30.8350 C   0  0  0  0  0  0  0  0  0  0  0  0
   -7.1870   21.9640  -31.6520 C   0  0  0  0  0  0  0  0  0  0  0  0
   -7.8990   20.9590  -32.2940 C   0  0  0  0  0  0  0  0  0  0  0  0
   -7.1800   20.0160  -33.0440 C   0  0  0  0  0  0  0  0  0  0  0  0
   -5.7610   20.0760  -33.1350 C   0  0  0  0  0  0  0  0  0  0  0  0
   -5.0260   19.0880  -33.9030 N   0  0  0  0  0  0  0  0  0  0  0  0
   -3.5670   18.9790  -33.7790 C   0  0  0  0  0  0  0  0  0  0  0  0
   -5.7320   18.1760  -34.8120 C   0  0  0  0  0  0  0  0  0  0  0  0
   -5.0760   21.1200  -32.4590 C   0  0  0  0  0  0  0  0  0  0  0  0
   -5.8240   22.0600  -31.7390 C   0  0  0  0  0  0  0  0  0  0  0  0
   -2.1838   26.5756  -24.2070 H   0  0  0  0  0  0  0  0  0  0  0  0
   -0.5891   26.7292  -25.2380 H   0  0  0  0  0  0  0  0  0  0  0  0
   -3.2187   25.2976  -25.9811 H   0  0  0  0  0  0  0  0  0  0  0  0
   -1.0042   26.2596  -27.7831 H   0  0  0  0  0  0  0  0  0  0  0  0
   -0.6719   24.5981  -27.1764 H   0  0  0  0  0  0  0  0  0  0  0  0
   -1.2728   22.6969  -29.4557 H   0  0  0  0  0  0  0  0  0  0  0  0
   -2.3925   21.4772  -28.7481 H   0  0  0  0  0  0  0  0  0  0  0  0
   -4.4990   24.7120  -28.8430 H   0  0  0  0  0  0  0  0  0  0  0  0
   -5.4570   26.0640  -28.1550 H   0  0  0  0  0  0  0  0  0  0  0  0
   -8.6704   23.1930  -30.5426 H   0  0  0  0  0  0  0  0  0  0  0  0
   -8.9949   20.9039  -32.2167 H   0  0  0  0  0  0  0  0  0  0  0  0
   -7.7223   19.2168  -33.5706 H   0  0  0  0  0  0  0  0  0  0  0  0
   -3.2900   18.9583  -32.7146 H   0  0  0  0  0  0  0  0  0  0  0  0
   -3.2259   18.0529  -34.2647 H   0  0  0  0  0  0  0  0  0  0  0  0
   -3.0921   19.8442  -34.2647 H   0  0  0  0  0  0  0  0  0  0  0  0
   -6.3012   17.4407  -34.2244 H   0  0  0  0  0  0  0  0  0  0  0  0
   -6.4220   18.7519  -35.4462 H   0  0  0  0  0  0  0  0  0  0  0  0
   -5.0016   17.6523  -35.4462 H   0  0  0  0  0  0  0  0  0  0  0  0
   -3.9789   21.1892  -32.5000 H   0  0  0  0  0  0  0  0  0  0  0  0
  1  2  2  0
  2  3  1  0
  3  4  1  0
  4  5  1  0
  5  6  2  0
  5  7  1  0
  7  8  1  0
  8  9  1  0
  9 10  2  0
  9 11  1  0
 11 12  1  0
 12 13  1  0
 13 14  1  0
 13 15  2  0
 12 16  2  0
 16 17  1  0
 17 18  2  0
 18 19  1  0
 19 20  2  0
 20 21  1  0
 21 22  1  0
 21 23  1  0
 20 24  1  0
 24 25  2  0
 25 11  1  0
 25 17  1  0
  1 26  1  0
  1 27  1  0
  2 28  1  0
  3 29  1  0
  3 30  1  0
  7 31  1  0
  7 32  1  0
 14 33  1  0
 14 34  1  0
 16 35  1  0
 18 36  1  0
 19 37  1  0
 22 38  1  0
 22 39  1  0
 22 40  1  0
 23 41  1  0
 23 42  1  0
 23 43  1  0
 24 44  1  0
M  END
>  <UniqueID>  (12) 
12

>  <SMILES>  (12) 
C=CCOC(=O)COC(=O)n1c(C(N)=O)cc2ccc(N(C)C)cc21

>  <Energy>  (12) 
76.79669502770139

>  <Genealogy>  (12) 
C=CCOC(=O)COC(=O)n1c(C(N)=O)cc2ccc(N(C)C)cc21 (3D coordinates assigned)
C=CCOC(=O)COC(=O)n1c(C(N)=O)cc2ccc(N(C)C)cc21 (optimized conformer: 76.79669502770139 kcal/mol)

>  <smiles>  (12) 
C=CCOC(=O)COC(=O)n1c(C(N)=O)cc2ccc(N(C)C)cc21

>  <score_type>  (12) 
oracle

>  <origin>  (12) 
adg

>  <m_score__min__energy>  (12) 
-8.9000000000000004

>  <m_primary>  (12) 
energy

$$$$
12:0
     RDKit          3D

 37 38  0  0  0  0  0  0  0  0999 V2000
   -8.9280   18.6000  -31.7250 C   0  0  0  0  0  0  0  0  0  0  0  0
   -8.2290   19.7960  -32.2040 N   0  0  0  0  0  0  0  0  0  0  0  0
   -8.9550   21.0660  -32.3230 C   0  0  0  0  0  0  0  0  0  0  0  0
   -8.8900   21.8180  -31.0310 C   0  0  0  0  0  0  0  0  0  0  0  0
   -7.9840   22.6710  -30.8410 O   0  0  0  0  0  0  0  0  0  0  0  0
   -9.8440   21.5930  -30.0460 O   0  0  0  0  0  0  0  0  0  0  0  0
   -6.8370   19.7100  -32.5630 C   0  0  0  0  0  0  0  0  0  0  0  0
   -6.3500   18.5790  -33.2690 C   0  0  0  0  0  0  0  0  0  0  0  0
   -4.9940   18.4820  -33.6260 C   0  0  0  0  0  0  0  0  0  0  0  0
   -4.1510   19.5300  -33.2710 C   0  0  0  0  0  0  0  0  0  0  0  0
   -2.7970   19.6900  -33.4690 C   0  0  0  0  0  0  0  0  0  0  0  0
   -2.4830   20.9220  -32.8960 C   0  0  0  0  0  0  0  0  0  0  0  0
   -1.1380   21.5300  -32.9430 C   0  0  0  0  0  0  0  0  0  0  0  0
   -0.5510   21.9140  -34.1840 N   0  0  0  0  0  0  0  0  0  0  0  0
   -0.4830   21.6820  -31.8770 O   0  0  0  0  0  0  0  0  0  0  0  0
   -3.5970   21.4940  -32.3620 N   0  0  0  0  0  0  0  0  0  0  0  0
   -3.6920   22.7070  -31.6030 C   0  0  0  0  0  0  0  0  0  0  0  0
   -4.7220   23.4270  -31.7040 O   0  0  0  0  0  0  0  0  0  0  0  0
   -2.6350   23.0600  -30.6030 C   0  0  0  0  0  0  0  0  0  0  0  0
   -3.0720   24.6110  -29.7610 P   0  0  0  0  0  0  0  0  0  0  0  0
   -3.9630   24.3150  -28.5750 O   0  0  0  0  0  0  0  0  0  0  0  0
   -1.6610   25.3710  -29.2230 O   0  0  0  0  0  0  0  0  0  0  0  0
   -3.8860   25.6360  -30.8330 O   0  0  0  0  0  0  0  0  0  0  0  0
   -4.6090   20.6350  -32.6030 C   0  0  0  0  0  0  0  0  0  0  0  0
   -5.9490   20.7550  -32.2270 C   0  0  0  0  0  0  0  0  0  0  0  0
   -8.9318   18.5934  -30.6250 H   0  0  0  0  0  0  0  0  0  0  0  0
   -9.9638   18.6077  -32.0953 H   0  0  0  0  0  0  0  0  0  0  0  0
   -8.4129   17.7013  -32.0953 H   0  0  0  0  0  0  0  0  0  0  0  0
   -8.4998   21.6721  -33.1201 H   0  0  0  0  0  0  0  0  0  0  0  0
  -10.0074   20.8579  -32.5661 H   0  0  0  0  0  0  0  0  0  0  0  0
   -7.0424   17.7684  -33.5401 H   0  0  0  0  0  0  0  0  0  0  0  0
   -4.6115   17.6051  -34.1689 H   0  0  0  0  0  0  0  0  0  0  0  0
   -2.1097   18.9939  -33.9721 H   0  0  0  0  0  0  0  0  0  0  0  0
   -1.1400   22.2740  -34.9680 H   0  0  0  0  0  0  0  0  0  0  0  0
   -2.5516   22.2529  -29.8603 H   0  0  0  0  0  0  0  0  0  0  0  0
   -1.6739   23.1885  -31.1224 H   0  0  0  0  0  0  0  0  0  0  0  0
   -6.3038   21.6423  -31.6822 H   0  0  0  0  0  0  0  0  0  0  0  0
  1  2  1  0
  2  3  1  0
  3  4  1  0
  4  5  2  0
  4  6  1  0
  2  7  1  0
  7  8  2  0
  8  9  1  0
  9 10  2  0
 10 11  1  0
 11 12  2  0
 12 13  1  0
 13 14  1  0
 13 15  2  0
 12 16  1  0
 16 17  1  0
 17 18  2  0
 17 19  1  0
 19 20  1  0
 20 21  2  0
 20 22  1  0
 20 23  1  0
 16 24  1  0
 24 25  2  0
 25  7  1  0
 24 10  1  0
  1 26  1  0
  1 27  1  0
  1 28  1  0
  3 29  1  0
  3 30  1  0
  8 31  1  0
  9 32  1  0
 11 33  1  0
 14 34  1  0
 19 35  1  0
 19 36  1  0
 25 37  1  0
M  CHG  4   6  -1  14  -1  22  -1  23  -1
M  END
>  <UniqueID>  (13) 
13

>  <SMILES>  (13) 
CN(CC(=O)[O-])c1ccc2cc(C([NH-])=O)n(C(=O)CP(=O)([O-])[O-])c2c1

>  <Energy>  (13) 
73.29774255342537

>  <Genealogy>  (13) 
CN(CC(=O)[O-])c1ccc2cc(C([NH-])=O)n(C(=O)CP(=O)([O-])[O-])c2c1 (protonated)
CN(CC(=O)[O-])c1ccc2cc(C([NH-])=O)n(C(=O)CP(=O)([O-])[O-])c2c1 (3D coordinates assigned)
CN(CC(=O)[O-])c1ccc2cc(C([NH-])=O)n(C(=O)CP(=O)([O-])[O-])c2c1 (optimized conformer: 73.29774255342537 kcal/mol)

>  <smiles>  (13) 
CN(CC(=O)O)c1ccc2cc(C(N)=O)n(C(=O)CP(=O)(O)O)c2c1

>  <score_type>  (13) 
oracle

>  <origin>  (13) 
adg

>  <m_score__min__energy>  (13) 
-12.56

>  <m_primary>  (13) 
energy

$$$$
13:0
     RDKit          3D

 39 40  0  0  0  0  0  0  0  0999 V2000
   -6.8480   17.3630  -33.3790 C   0  0  0  0  0  0  0  0  0  0  0  0
   -6.9640   18.4990  -32.9880 C   0  0  0  0  0  0  0  0  0  0  0  0
   -7.1020   19.8520  -32.5210 C   0  0  0  0  0  0  0  0  0  0  0  0
   -8.3900   20.4110  -32.3500 C   0  0  0  0  0  0  0  0  0  0  0  0
   -8.5390   21.7270  -31.8820 C   0  0  0  0  0  0  0  0  0  0  0  0
   -7.3850   22.4540  -31.6040 C   0  0  0  0  0  0  0  0  0  0  0  0
   -7.2400   23.7320  -31.1100 C   0  0  0  0  0  0  0  0  0  0  0  0
   -5.8650   23.9360  -31.0130 C   0  0  0  0  0  0  0  0  0  0  0  0
   -5.2630   25.2200  -30.5950 C   0  0  0  0  0  0  0  0  0  0  0  0
   -3.8870   25.4970  -30.8370 N   0  0  0  0  0  0  0  0  0  0  0  0
   -5.9860   26.1030  -30.0600 O   0  0  0  0  0  0  0  0  0  0  0  0
   -5.1850   22.8280  -31.4230 N   0  0  0  0  0  0  0  0  0  0  0  0
   -3.7680   22.6040  -31.3750 C   0  0  0  0  0  0  0  0  0  0  0  0
   -3.1200   22.4280  -32.4440 O   0  0  0  0  0  0  0  0  0  0  0  0
   -3.1150   22.5560  -30.1400 O   0  0  0  0  0  0  0  0  0  0  0  0
   -3.8110   22.5400  -28.9000 C   0  0  0  0  0  0  0  0  0  0  0  0
   -2.9000   22.0210  -27.8260 C   0  0  0  0  0  0  0  0  0  0  0  0
   -3.0310   20.8210  -27.4600 O   0  0  0  0  0  0  0  0  0  0  0  0
   -1.8600   22.8400  -27.2390 N   0  0  0  0  0  0  0  0  0  0  0  0
   -0.7290   22.1790  -26.5810 C   0  0  0  0  0  0  0  0  0  0  0  0
   -1.9290   24.3080  -27.2560 C   0  0  0  0  0  0  0  0  0  0  0  0
   -1.0420   24.8610  -28.3260 C   0  0  0  0  0  0  0  0  0  0  0  0
    0.1940   24.6230  -28.3120 O   0  0  0  0  0  0  0  0  0  0  0  0
   -1.5730   25.6720  -29.3220 O   0  0  0  0  0  0  0  0  0  0  0  0
   -6.1290   21.9300  -31.7830 C   0  0  0  0  0  0  0  0  0  0  0  0
   -5.9530   20.6160  -32.2300 C   0  0  0  0  0  0  0  0  0  0  0  0
   -6.7423   16.3277  -33.7353 H   0  0  0  0  0  0  0  0  0  0  0  0
   -9.2814   19.8109  -32.5852 H   0  0  0  0  0  0  0  0  0  0  0  0
   -9.5361   22.1691  -31.7397 H   0  0  0  0  0  0  0  0  0  0  0  0
   -8.0396   24.4405  -30.8479 H   0  0  0  0  0  0  0  0  0  0  0  0
   -3.1450   24.8160  -30.5620 H   0  0  0  0  0  0  0  0  0  0  0  0
   -4.1336   23.5607  -28.6466 H   0  0  0  0  0  0  0  0  0  0  0  0
   -4.6933   21.8882  -28.9813 H   0  0  0  0  0  0  0  0  0  0  0  0
   -0.8480   22.2486  -25.4897 H   0  0  0  0  0  0  0  0  0  0  0  0
   -0.6984   21.1208  -26.8798 H   0  0  0  0  0  0  0  0  0  0  0  0
    0.2080   22.6717  -26.8798 H   0  0  0  0  0  0  0  0  0  0  0  0
   -2.9662   24.6196  -27.4485 H   0  0  0  0  0  0  0  0  0  0  0  0
   -1.5930   24.6916  -26.2814 H   0  0  0  0  0  0  0  0  0  0  0  0
   -4.9459   20.1905  -32.3511 H   0  0  0  0  0  0  0  0  0  0  0  0
  1  2  3  0
  2  3  1  0
  3  4  2  0
  4  5  1  0
  5  6  2  0
  6  7  1  0
  7  8  2  0
  8  9  1  0
  9 10  1  0
  9 11  2  0
  8 12  1  0
 12 13  1  0
 13 14  2  0
 13 15  1  0
 15 16  1  0
 16 17  1  0
 17 18  2  0
 17 19  1  0
 19 20  1  0
 19 21  1  0
 21 22  1  0
 22 23  2  0
 22 24  1  0
 12 25  1  0
 25 26  2  0
 26  3  1  0
 25  6  1  0
  1 27  1  0
  4 28  1  0
  5 29  1  0
  7 30  1  0
 10 31  1  0
 16 32  1  0
 16 33  1  0
 20 34  1  0
 20 35  1  0
 20 36  1  0
 21 37  1  0
 21 38  1  0
 26 39  1  0
M  CHG  2  10  -1  24  -1
M  END
>  <UniqueID>  (14) 
14

>  <SMILES>  (14) 
C#Cc1ccc2cc(C([NH-])=O)n(C(=O)OCC(=O)N(C)CC(=O)[O-])c2c1

>  <Energy>  (14) 
71.04090234190606

>  <Genealogy>  (14) 
C#Cc1ccc2cc(C([NH-])=O)n(C(=O)OCC(=O)N(C)CC(=O)[O-])c2c1 (protonated)
C#Cc1ccc2cc(C([NH-])=O)n(C(=O)OCC(=O)N(C)CC(=O)[O-])c2c1 (3D coordinates assigned)
C#Cc1ccc2cc(C([NH-])=O)n(C(=O)OCC(=O)N(C)CC(=O)[O-])c2c1 (optimized conformer: 71.04090234190606 kcal/mol)

>  <smiles>  (14) 
C#Cc1ccc2cc(C(N)=O)n(C(=O)OCC(=O)N(C)CC(=O)O)c2c1

>  <score_type>  (14) 
oracle

>  <origin>  (14) 
adg

>  <m_score__min__energy>  (14) 
-13.01

>  <m_primary>  (14) 
energy

$$$$
14:0
     RDKit          3D

 40 41  0  0  0  0  0  0  0  0999 V2000
   -1.0240   21.3160  -30.3710 C   0  0  0  0  0  0  0  0  0  0  0  0
   -1.9140   22.2480  -29.5450 C   0  0  2  0  0  0  0  0  0  0  0  0
   -3.4070   21.8840  -29.7330 C   0  0  0  0  0  0  0  0  0  0  0  0
   -3.9240   22.3020  -31.0820 C   0  0  0  0  0  0  0  0  0  0  0  0
   -3.1230   22.3980  -32.0520 O   0  0  0  0  0  0  0  0  0  0  0  0
   -5.2970   22.6740  -31.2610 N   0  0  0  0  0  0  0  0  0  0  0  0
   -5.8880   23.8840  -31.0430 C   0  0  0  0  0  0  0  0  0  0  0  0
   -5.2290   25.0970  -30.5120 C   0  0  0  0  0  0  0  0  0  0  0  0
   -3.8930   25.4340  -30.8750 N   0  0  0  0  0  0  0  0  0  0  0  0
   -5.8500   25.8460  -29.7080 O   0  0  0  0  0  0  0  0  0  0  0  0
   -7.2610   23.8040  -31.2840 C   0  0  0  0  0  0  0  0  0  0  0  0
   -7.4950   22.4960  -31.6450 C   0  0  0  0  0  0  0  0  0  0  0  0
   -8.6850   21.8520  -31.9690 C   0  0  0  0  0  0  0  0  0  0  0  0
   -8.6290   20.4810  -32.2730 C   0  0  0  0  0  0  0  0  0  0  0  0
   -7.3930   19.7860  -32.2530 C   0  0  0  0  0  0  0  0  0  0  0  0
   -7.3490   18.3070  -32.5380 C   0  0  0  0  0  0  0  0  0  0  0  0
   -6.4120   18.0010  -33.7020 C   0  0  0  0  0  0  0  0  0  0  0  0
   -6.6850   16.7490  -34.2280 F   0  0  0  0  0  0  0  0  0  0  0  0
   -6.2110   20.4710  -31.9040 C   0  0  0  0  0  0  0  0  0  0  0  0
   -6.2960   21.8350  -31.6110 C   0  0  0  0  0  0  0  0  0  0  0  0
   -1.6900   23.5720  -29.9940 O   0  0  0  0  0  0  0  0  0  0  0  0
   -1.1400   24.5480  -28.7010 P   0  0  0  0  0  0  0  0  0  0  0  0
   -1.7550   24.0530  -27.4130 O   0  0  0  0  0  0  0  0  0  0  0  0
   -1.6120   26.1540  -28.9530 O   0  0  0  0  0  0  0  0  0  0  0  0
    0.5490   24.4750  -28.5730 O   0  0  0  0  0  0  0  0  0  0  0  0
   -0.4243   20.6880  -29.6957 H   0  0  0  0  0  0  0  0  0  0  0  0
   -1.6536   20.6748  -31.0054 H   0  0  0  0  0  0  0  0  0  0  0  0
   -0.3545   21.9154  -31.0054 H   0  0  0  0  0  0  0  0  0  0  0  0
   -1.6687   22.1486  -28.4773 H   0  0  0  0  0  0  0  0  0  0  0  0
   -3.5225   20.7949  -29.6304 H   0  0  0  0  0  0  0  0  0  0  0  0
   -3.9862   22.4199  -28.9666 H   0  0  0  0  0  0  0  0  0  0  0  0
   -3.0900   25.2450  -30.2340 H   0  0  0  0  0  0  0  0  0  0  0  0
   -7.9999   24.6149  -31.2026 H   0  0  0  0  0  0  0  0  0  0  0  0
   -9.6394   22.3986  -31.9867 H   0  0  0  0  0  0  0  0  0  0  0  0
   -9.5529   19.9417  -32.5290 H   0  0  0  0  0  0  0  0  0  0  0  0
   -6.9929   17.7786  -31.6414 H   0  0  0  0  0  0  0  0  0  0  0  0
   -8.3618   17.9721  -32.8067 H   0  0  0  0  0  0  0  0  0  0  0  0
   -6.5483   18.7606  -34.4859 H   0  0  0  0  0  0  0  0  0  0  0  0
   -5.3745   18.0151  -33.3368 H   0  0  0  0  0  0  0  0  0  0  0  0
   -5.2458   19.9449  -31.8633 H   0  0  0  0  0  0  0  0  0  0  0  0
  1  2  1  0
  2  3  1  0
  3  4  1  0
  4  5  2  0
  4  6  1  0
  6  7  1  0
  7  8  1  0
  8  9  1  0
  8 10  2  0
  7 11  2  0
 11 12  1  0
 12 13  2  0
 13 14  1  0
 14 15  2  0
 15 16  1  0
 16 17  1  0
 17 18  1  0
 15 19  1  0
 19 20  2  0
  2 21  1  0
 21 22  1  0
 22 23  2  0
 22 24  1  0
 22 25  1  0
 20  6  1  0
 20 12  1  0
  1 26  1  0
  1 27  1  0
  1 28  1  0
  2 29  1  1
  3 30  1  0
  3 31  1  0
  9 32  1  0
 11 33  1  0
 13 34  1  0
 14 35  1  0
 16 36  1  0
 16 37  1  0
 17 38  1  0
 17 39  1  0
 19 40  1  0
M  CHG  3   9  -1  24  -1  25  -1
M  END
>  <UniqueID>  (15) 
15

>  <SMILES>  (15) 
C[C@H](CC(=O)n1c(C([NH-])=O)cc2ccc(CCF)cc21)OP(=O)([O-])[O-]

>  <Energy>  (15) 
74.39234445005135

>  <Genealogy>  (15) 
C[C@H](CC(=O)n1c(C([NH-])=O)cc2ccc(CCF)cc21)OP(=O)([O-])[O-] (protonated)
C[C@H](CC(=O)n1c(C([NH-])=O)cc2ccc(CCF)cc21)OP(=O)([O-])[O-] (3D coordinates assigned)
C[C@H](CC(=O)n1c(C([NH-])=O)cc2ccc(CCF)cc21)OP(=O)([O-])[O-] (optimized conformer: 74.39234445005135 kcal/mol)

>  <smiles>  (15) 
C[C@H](CC(=O)n1c(C(N)=O)cc2ccc(CCF)cc21)OP(=O)(O)O

>  <score_type>  (15) 
oracle

>  <origin>  (15) 
adg

>  <m_score__min__energy>  (15) 
-14.51

>  <m_primary>  (15) 
energy

$$$$
15:0
     RDKit          3D

 42 43  0  0  0  0  0  0  0  0999 V2000
   -7.8430   22.5300  -31.4270 C   0  0  0  0  0  0  0  0  0  0  0  0
   -7.5990   21.6640  -32.5280 O   0  0  0  0  0  0  0  0  0  0  0  0
   -8.0870   20.3530  -32.5790 C   0  0  0  0  0  0  0  0  0  0  0  0
   -8.9160   20.0150  -33.4690 O   0  0  0  0  0  0  0  0  0  0  0  0
   -7.6660   19.3460  -31.5410 C   0  0  1  0  0  0  0  0  0  0  0  0
   -8.7880   18.3450  -31.2350 C   0  0  0  0  0  0  0  0  0  0  0  0
   -6.3390   18.6540  -31.9250 C   0  0  0  0  0  0  0  0  0  0  0  0
   -5.8750   18.9270  -33.3730 C   0  0  0  0  0  0  0  0  0  0  0  0
   -5.5450   20.3470  -33.5870 N   0  0  0  0  0  0  0  0  0  0  0  0
   -4.3810   20.7440  -32.8310 C   0  0  0  0  0  0  0  0  0  0  0  0
   -3.2060   19.9480  -32.8570 C   0  0  0  0  0  0  0  0  0  0  0  0
   -2.0660   20.3290  -32.1300 C   0  0  0  0  0  0  0  0  0  0  0  0
   -2.1240   21.5110  -31.3970 C   0  0  0  0  0  0  0  0  0  0  0  0
   -1.1760   22.1000  -30.5920 C   0  0  0  0  0  0  0  0  0  0  0  0
   -1.7740   23.2600  -30.1040 C   0  0  0  0  0  0  0  0  0  0  0  0
   -1.0660   24.2460  -29.2610 C   0  0  0  0  0  0  0  0  0  0  0  0
   -1.6350   25.5370  -29.0520 N   0  0  0  0  0  0  0  0  0  0  0  0
    0.0170   23.9500  -28.6930 O   0  0  0  0  0  0  0  0  0  0  0  0
   -3.0450   23.3800  -30.5820 N   0  0  0  0  0  0  0  0  0  0  0  0
   -4.0130   24.3940  -30.2620 C   0  0  0  0  0  0  0  0  0  0  0  0
   -4.9310   24.1580  -29.4340 O   0  0  0  0  0  0  0  0  0  0  0  0
   -3.9280   25.6540  -30.8420 O   0  0  0  0  0  0  0  0  0  0  0  0
   -3.2430   22.3030  -31.3740 C   0  0  0  0  0  0  0  0  0  0  0  0
   -4.3990   21.9380  -32.0730 C   0  0  0  0  0  0  0  0  0  0  0  0
   -7.6881   21.9804  -30.4868 H   0  0  0  0  0  0  0  0  0  0  0  0
   -7.1503   23.3834  -31.4712 H   0  0  0  0  0  0  0  0  0  0  0  0
   -8.8793   22.8962  -31.4712 H   0  0  0  0  0  0  0  0  0  0  0  0
   -7.4737   19.8927  -30.6060 H   0  0  0  0  0  0  0  0  0  0  0  0
   -8.9018   18.2435  -30.1456 H   0  0  0  0  0  0  0  0  0  0  0  0
   -9.7312   18.7072  -31.6700 H   0  0  0  0  0  0  0  0  0  0  0  0
   -8.5354   17.3668  -31.6700 H   0  0  0  0  0  0  0  0  0  0  0  0
   -5.5550   19.0081  -31.2395 H   0  0  0  0  0  0  0  0  0  0  0  0
   -6.5155   17.5709  -31.8499 H   0  0  0  0  0  0  0  0  0  0  0  0
   -4.9818   18.3194  -33.5805 H   0  0  0  0  0  0  0  0  0  0  0  0
   -6.7007   18.6636  -34.0504 H   0  0  0  0  0  0  0  0  0  0  0  0
   -5.3500   20.4940  -34.6060 H   0  0  0  0  0  0  0  0  0  0  0  0
   -6.3690   20.9460  -33.3440 H   0  0  0  0  0  0  0  0  0  0  0  0
   -3.1880   19.0233  -33.4525 H   0  0  0  0  0  0  0  0  0  0  0  0
   -1.1553   19.7122  -32.1396 H   0  0  0  0  0  0  0  0  0  0  0  0
   -0.1612   21.7329  -30.3789 H   0  0  0  0  0  0  0  0  0  0  0  0
   -2.6620   25.6950  -29.1550 H   0  0  0  0  0  0  0  0  0  0  0  0
   -5.3015   22.5656  -32.0338 H   0  0  0  0  0  0  0  0  0  0  0  0
  1  2  1  0
  2  3  1  0
  3  4  2  0
  3  5  1  0
  5  6  1  0
  5  7  1  0
  7  8  1  0
  8  9  1  0
  9 10  1  0
 10 11  2  0
 11 12  1  0
 12 13  2  0
 13 14  1  0
 14 15  2  0
 15 16  1  0
 16 17  1  0
 16 18  2  0
 15 19  1  0
 19 20  1  0
 20 21  2  0
 20 22  1  0
 19 23  1  0
 23 24  2  0
 24 10  1  0
 23 13  1  0
  1 25  1  0
  1 26  1  0
  1 27  1  0
  5 28  1  1
  6 29  1  0
  6 30  1  0
  6 31  1  0
  7 32  1  0
  7 33  1  0
  8 34  1  0
  8 35  1  0
  9 36  1  0
  9 37  1  0
 11 38  1  0
 12 39  1  0
 14 40  1  0
 17 41  1  0
 24 42  1  0
M  CHG  3   9   1  17  -1  22  -1
M  END
>  <UniqueID>  (16) 
16

>  <SMILES>  (16) 
COC(=O)[C@@H](C)CC[NH2+]c1ccc2cc(C([NH-])=O)n(C(=O)[O-])c2c1

>  <Energy>  (16) 
76.0245302612053

>  <Genealogy>  (16) 
COC(=O)C(C)CC[NH2+]c1ccc2cc(C([NH-])=O)n(C(=O)[O-])c2c1 (protonated)
COC(=O)[C@@H](C)CC[NH2+]c1ccc2cc(C([NH-])=O)n(C(=O)[O-])c2c1 (chirality)
COC(=O)[C@@H](C)CC[NH2+]c1ccc2cc(C([NH-])=O)n(C(=O)[O-])c2c1 (3D coordinates assigned)
COC(=O)[C@@H](C)CC[NH2+]c1ccc2cc(C([NH-])=O)n(C(=O)[O-])c2c1 (optimized conformer: 76.0245302612053 kcal/mol)

>  <smiles>  (16) 
COC(=O)C(C)CCNc1ccc2cc(C(N)=O)n(C(=O)O)c2c1

>  <score_type>  (16) 
oracle

>  <origin>  (16) 
adg

>  <m_score__min__energy>  (16) 
-10.44

>  <m_primary>  (16) 
energy

$$$$
16:0
     RDKit          3D

 41 42  0  0  0  0  0  0  0  0999 V2000
   -6.0850   18.2050  -34.1320 C   0  0  0  0  0  0  0  0  0  0  0  0
   -6.6240   18.1650  -32.7050 C   0  0  0  0  0  0  0  0  0  0  0  0
   -5.6950   17.5410  -31.8870 F   0  0  0  0  0  0  0  0  0  0  0  0
   -7.7860   17.4110  -32.6810 F   0  0  0  0  0  0  0  0  0  0  0  0
   -6.8970   19.5680  -32.2100 C   0  0  0  0  0  0  0  0  0  0  0  0
   -8.2230   20.0740  -32.1850 C   0  0  0  0  0  0  0  0  0  0  0  0
   -8.4830   21.3860  -31.7570 C   0  0  0  0  0  0  0  0  0  0  0  0
   -7.4020   22.1780  -31.3850 C   0  0  0  0  0  0  0  0  0  0  0  0
   -7.3750   23.4720  -30.9170 C   0  0  0  0  0  0  0  0  0  0  0  0
   -6.0280   23.7590  -30.7110 C   0  0  0  0  0  0  0  0  0  0  0  0
   -5.5370   25.0820  -30.2750 C   0  0  0  0  0  0  0  0  0  0  0  0
   -4.2070   25.5120  -30.5690 N   0  0  0  0  0  0  0  0  0  0  0  0
   -6.3230   25.8680  -29.6830 O   0  0  0  0  0  0  0  0  0  0  0  0
   -5.2530   22.6830  -31.0240 N   0  0  0  0  0  0  0  0  0  0  0  0
   -3.8310   22.5520  -30.8580 C   0  0  0  0  0  0  0  0  0  0  0  0
   -3.0490   23.1120  -31.6740 O   0  0  0  0  0  0  0  0  0  0  0  0
   -3.3220   21.8030  -29.7930 O   0  0  0  0  0  0  0  0  0  0  0  0
   -2.0890   22.1000  -29.1410 C   0  0  0  0  0  0  0  0  0  0  0  0
   -2.3110   22.9950  -27.9180 C   0  0  0  0  0  0  0  0  0  0  0  0
   -1.5840   24.6160  -28.1280 S   0  0  0  0  0  0  0  0  0  0  0  0
   -1.9060   25.6410  -26.7080 C   0  0  0  0  0  0  0  0  0  0  0  0
   -2.1860   25.2640  -29.3420 O   0  0  0  0  0  0  0  0  0  0  0  0
   -0.0990   24.4920  -28.3230 O   0  0  0  0  0  0  0  0  0  0  0  0
   -6.1100   21.7230  -31.4380 C   0  0  0  0  0  0  0  0  0  0  0  0
   -5.8230   20.4120  -31.8390 C   0  0  0  0  0  0  0  0  0  0  0  0
   -4.9883   18.2864  -34.1076 H   0  0  0  0  0  0  0  0  0  0  0  0
   -6.3726   17.2830  -34.6586 H   0  0  0  0  0  0  0  0  0  0  0  0
   -6.5055   19.0744  -34.6586 H   0  0  0  0  0  0  0  0  0  0  0  0
   -9.0564   19.4311  -32.5045 H   0  0  0  0  0  0  0  0  0  0  0  0
   -9.5109   21.7756  -31.7172 H   0  0  0  0  0  0  0  0  0  0  0  0
   -8.2336   24.1371  -30.7429 H   0  0  0  0  0  0  0  0  0  0  0  0
   -3.8650   26.4330  -30.2190 H   0  0  0  0  0  0  0  0  0  0  0  0
   -3.5900   24.9590  -31.2050 H   0  0  0  0  0  0  0  0  0  0  0  0
   -1.6188   21.1598  -28.8170 H   0  0  0  0  0  0  0  0  0  0  0  0
   -1.4396   22.6340  -29.8503 H   0  0  0  0  0  0  0  0  0  0  0  0
   -3.3927   23.1101  -27.7546 H   0  0  0  0  0  0  0  0  0  0  0  0
   -1.8253   22.5156  -27.0553 H   0  0  0  0  0  0  0  0  0  0  0  0
   -1.7244   25.0630  -25.7899 H   0  0  0  0  0  0  0  0  0  0  0  0
   -1.2394   26.5158  -26.7285 H   0  0  0  0  0  0  0  0  0  0  0  0
   -2.9531   25.9774  -26.7285 H   0  0  0  0  0  0  0  0  0  0  0  0
   -4.7859   20.0464  -31.8650 H   0  0  0  0  0  0  0  0  0  0  0  0
  1  2  1  0
  2  3  1  0
  2  4  1  0
  2  5  1  0
  5  6  2  0
  6  7  1  0
  7  8  2  0
  8  9  1  0
  9 10  2  0
 10 11  1  0
 11 12  1  0
 11 13  2  0
 10 14  1  0
 14 15  1  0
 15 16  2  0
 15 17  1  0
 17 18  1  0
 18 19  1  0
 19 20  1  0
 20 21  1  0
 20 22  2  0
 20 23  2  0
 14 24  1  0
 24 25  2  0
 25  5  1  0
 24  8  1  0
  1 26  1  0
  1 27  1  0
  1 28  1  0
  6 29  1  0
  7 30  1  0
  9 31  1  0
 12 32  1  0
 12 33  1  0
 18 34  1  0
 18 35  1  0
 19 36  1  0
 19 37  1  0
 21 38  1  0
 21 39  1  0
 21 40  1  0
 25 41  1  0
M  END
>  <UniqueID>  (17) 
17

>  <SMILES>  (17) 
CC(F)(F)c1ccc2cc(C(N)=O)n(C(=O)OCCS(C)(=O)=O)c2c1

>  <Energy>  (17) 
67.22439181385523

>  <Genealogy>  (17) 
CC(F)(F)c1ccc2cc(C(N)=O)n(C(=O)OCCS(C)(=O)=O)c2c1 (3D coordinates assigned)
CC(F)(F)c1ccc2cc(C(N)=O)n(C(=O)OCCS(C)(=O)=O)c2c1 (optimized conformer: 67.22439181385523 kcal/mol)

>  <smiles>  (17) 
CC(F)(F)c1ccc2cc(C(N)=O)n(C(=O)OCCS(C)(=O)=O)c2c1

>  <score_type>  (17) 
oracle

>  <origin>  (17) 
adg

>  <m_score__min__energy>  (17) 
-9.2799999999999994

>  <m_primary>  (17) 
energy

$$$$
17:0
     RDKit          3D

 38 39  0  0  0  0  0  0  0  0999 V2000
   -0.8500   21.0680  -29.1320 C   0  0  0  0  0  0  0  0  0  0  0  0
   -0.9140   22.3930  -29.8930 C   0  0  0  0  0  0  0  0  0  0  0  0
   -2.0330   23.3310  -29.3960 C   0  0  2  0  0  0  0  0  0  0  0  0
   -3.0440   23.5130  -30.3880 O   0  0  0  0  0  0  0  0  0  0  0  0
   -3.8170   22.4730  -30.9160 C   0  0  0  0  0  0  0  0  0  0  0  0
   -3.2840   21.3630  -31.1870 O   0  0  0  0  0  0  0  0  0  0  0  0
   -5.2230   22.6700  -31.1480 N   0  0  0  0  0  0  0  0  0  0  0  0
   -5.9820   23.7400  -30.7740 C   0  0  0  0  0  0  0  0  0  0  0  0
   -5.4730   25.0060  -30.2110 C   0  0  0  0  0  0  0  0  0  0  0  0
   -4.2360   25.5660  -30.6520 N   0  0  0  0  0  0  0  0  0  0  0  0
   -6.1710   25.6340  -29.3710 O   0  0  0  0  0  0  0  0  0  0  0  0
   -7.3260   23.5150  -31.0510 C   0  0  0  0  0  0  0  0  0  0  0  0
   -7.3740   22.2680  -31.6300 C   0  0  0  0  0  0  0  0  0  0  0  0
   -8.4670   21.5430  -32.0970 C   0  0  0  0  0  0  0  0  0  0  0  0
   -8.2300   20.2620  -32.6240 C   0  0  0  0  0  0  0  0  0  0  0  0
   -6.9180   19.7380  -32.6680 C   0  0  0  0  0  0  0  0  0  0  0  0
   -6.6890   18.4210  -33.2000 C   0  0  0  0  0  0  0  0  0  0  0  0
   -6.4930   17.3180  -33.6460 C   0  0  0  0  0  0  0  0  0  0  0  0
   -6.2600   16.0060  -34.1770 C   0  0  0  0  0  0  0  0  0  0  0  0
   -7.2160   15.1990  -34.3020 O   0  0  0  0  0  0  0  0  0  0  0  0
   -4.9790   15.6260  -34.5530 O   0  0  0  0  0  0  0  0  0  0  0  0
   -5.8320   20.4970  -32.1870 C   0  0  0  0  0  0  0  0  0  0  0  0
   -6.0920   21.7770  -31.6790 C   0  0  0  0  0  0  0  0  0  0  0  0
   -1.4760   24.6680  -29.0030 C   0  0  0  0  0  0  0  0  0  0  0  0
   -2.2330   25.6720  -28.9350 O   0  0  0  0  0  0  0  0  0  0  0  0
   -0.1320   24.8010  -28.6720 O   0  0  0  0  0  0  0  0  0  0  0  0
   -0.8596   21.2658  -28.0500 H   0  0  0  0  0  0  0  0  0  0  0  0
   -1.7193   20.4493  -29.3993 H   0  0  0  0  0  0  0  0  0  0  0  0
    0.0749   20.5359  -29.3993 H   0  0  0  0  0  0  0  0  0  0  0  0
    0.0506   22.9088  -29.7769 H   0  0  0  0  0  0  0  0  0  0  0  0
   -1.1335   22.1538  -30.9440 H   0  0  0  0  0  0  0  0  0  0  0  0
   -2.4864   22.8525  -28.5153 H   0  0  0  0  0  0  0  0  0  0  0  0
   -3.8750   26.4450  -30.2200 H   0  0  0  0  0  0  0  0  0  0  0  0
   -3.7160   25.1560  -31.4580 H   0  0  0  0  0  0  0  0  0  0  0  0
   -8.1708   24.1902  -30.8500 H   0  0  0  0  0  0  0  0  0  0  0  0
   -9.4841   21.9598  -32.0548 H   0  0  0  0  0  0  0  0  0  0  0  0
   -9.0707   19.6634  -33.0046 H   0  0  0  0  0  0  0  0  0  0  0  0
   -4.8081   20.0955  -32.2097 H   0  0  0  0  0  0  0  0  0  0  0  0
  1  2  1  0
  2  3  1  0
  3  4  1  0
  4  5  1  0
  5  6  2  0
  5  7  1  0
  7  8  1  0
  8  9  1  0
  9 10  1  0
  9 11  2  0
  8 12  2  0
 12 13  1  0
 13 14  2  0
 14 15  1  0
 15 16  2  0
 16 17  1  0
 17 18  3  0
 18 19  1  0
 19 20  2  0
 19 21  1  0
 16 22  1  0
 22 23  2  0
  3 24  1  0
 24 25  2  0
 24 26  1  0
 23  7  1  0
 23 13  1  0
  1 27  1  0
  1 28  1  0
  1 29  1  0
  2 30  1  0
  2 31  1  0
  3 32  1  1
 10 33  1  0
 10 34  1  0
 12 35  1  0
 14 36  1  0
 15 37  1  0
 22 38  1  0
M  CHG  2  21  -1  26  -1
M  END
>  <UniqueID>  (18) 
18

>  <SMILES>  (18) 
CC[C@H](OC(=O)n1c(C(N)=O)cc2ccc(C#CC(=O)[O-])cc21)C(=O)[O-]

>  <Energy>  (18) 
67.67658057084962

>  <Genealogy>  (18) 
CCC(OC(=O)n1c(C(N)=O)cc2ccc(C#CC(=O)[O-])cc21)C(=O)[O-] (protonated)
CC[C@H](OC(=O)n1c(C(N)=O)cc2ccc(C#CC(=O)[O-])cc21)C(=O)[O-] (chirality)
CC[C@H](OC(=O)n1c(C(N)=O)cc2ccc(C#CC(=O)[O-])cc21)C(=O)[O-] (3D coordinates assigned)
CC[C@H](OC(=O)n1c(C(N)=O)cc2ccc(C#CC(=O)[O-])cc21)C(=O)[O-] (optimized conformer: 67.67658057084962 kcal/mol)

>  <smiles>  (18) 
CCC(OC(=O)n1c(C(N)=O)cc2ccc(C#CC(=O)O)cc21)C(=O)O

>  <score_type>  (18) 
oracle

>  <origin>  (18) 
adg

>  <m_score__min__energy>  (18) 
-11.68

>  <m_primary>  (18) 
energy

$$$$
18:0
     RDKit          3D

 45 46  0  0  0  0  0  0  0  0999 V2000
   -6.1530   16.2990  -33.5470 C   0  0  0  0  0  0  0  0  0  0  0  0
   -6.8890   17.3490  -32.7090 C   0  0  0  0  0  0  0  0  0  0  0  0
   -6.3380   17.4730  -31.2820 C   0  0  0  0  0  0  0  0  0  0  0  0
   -6.9560   18.6470  -33.3990 N   0  0  0  0  0  0  0  0  0  0  0  0
   -7.0710   19.9550  -32.7980 C   0  0  0  0  0  0  0  0  0  0  0  0
   -8.3650   20.5190  -32.6480 C   0  0  0  0  0  0  0  0  0  0  0  0
   -8.5430   21.7890  -32.0760 C   0  0  0  0  0  0  0  0  0  0  0  0
   -7.4110   22.4820  -31.6690 C   0  0  0  0  0  0  0  0  0  0  0  0
   -7.2880   23.7290  -31.0930 C   0  0  0  0  0  0  0  0  0  0  0  0
   -5.9190   23.9170  -30.9110 C   0  0  0  0  0  0  0  0  0  0  0  0
   -5.3190   25.1240  -30.3070 C   0  0  0  0  0  0  0  0  0  0  0  0
   -4.1210   25.6720  -30.8510 N   0  0  0  0  0  0  0  0  0  0  0  0
   -5.8580   25.6810  -29.3140 O   0  0  0  0  0  0  0  0  0  0  0  0
   -5.2310   22.8310  -31.3530 N   0  0  0  0  0  0  0  0  0  0  0  0
   -3.8080   22.6490  -31.3670 C   0  0  0  0  0  0  0  0  0  0  0  0
   -3.2170   22.5460  -32.4750 O   0  0  0  0  0  0  0  0  0  0  0  0
   -3.0590   22.6190  -30.1360 N   0  0  0  0  0  0  0  0  0  0  0  0
   -3.7550   22.3630  -28.8710 C   0  0  0  0  0  0  0  0  0  0  0  0
   -1.6230   22.9350  -30.1350 C   0  0  0  0  0  0  0  0  0  0  0  0
   -1.1540   23.3920  -28.7480 C   0  0  0  0  0  0  0  0  0  0  0  0
   -0.8760   24.8630  -28.7130 C   0  0  0  0  0  0  0  0  0  0  0  0
   -1.6180   25.6660  -29.3410 O   0  0  0  0  0  0  0  0  0  0  0  0
    0.2190   25.3470  -28.0080 O   0  0  0  0  0  0  0  0  0  0  0  0
   -6.1530   21.9640  -31.8140 C   0  0  0  0  0  0  0  0  0  0  0  0
   -5.9420   20.7050  -32.3820 C   0  0  0  0  0  0  0  0  0  0  0  0
   -5.6512   15.5831  -32.8795 H   0  0  0  0  0  0  0  0  0  0  0  0
   -6.8751   15.7644  -34.1817 H   0  0  0  0  0  0  0  0  0  0  0  0
   -5.4042   16.7955  -34.1817 H   0  0  0  0  0  0  0  0  0  0  0  0
   -7.9220   16.9881  -32.5969 H   0  0  0  0  0  0  0  0  0  0  0  0
   -7.1471   17.2909  -30.5594 H   0  0  0  0  0  0  0  0  0  0  0  0
   -5.5388   16.7323  -31.1319 H   0  0  0  0  0  0  0  0  0  0  0  0
   -5.9332   18.4847  -31.1319 H   0  0  0  0  0  0  0  0  0  0  0  0
   -7.1000   18.5950  -34.4350 H   0  0  0  0  0  0  0  0  0  0  0  0
   -9.2442   19.9509  -32.9860 H   0  0  0  0  0  0  0  0  0  0  0  0
   -9.5473   22.2210  -31.9543 H   0  0  0  0  0  0  0  0  0  0  0  0
   -8.0977   24.4266  -30.8327 H   0  0  0  0  0  0  0  0  0  0  0  0
   -3.1850   25.3010  -30.5700 H   0  0  0  0  0  0  0  0  0  0  0  0
   -3.0893   22.6078  -28.0302 H   0  0  0  0  0  0  0  0  0  0  0  0
   -4.6589   22.9875  -28.8169 H   0  0  0  0  0  0  0  0  0  0  0  0
   -4.0388   21.3016  -28.8169 H   0  0  0  0  0  0  0  0  0  0  0  0
   -1.0583   22.0371  -30.4264 H   0  0  0  0  0  0  0  0  0  0  0  0
   -1.4471   23.7538  -30.8482 H   0  0  0  0  0  0  0  0  0  0  0  0
   -1.9383   23.1600  -28.0124 H   0  0  0  0  0  0  0  0  0  0  0  0
   -0.2203   22.8613  -28.5102 H   0  0  0  0  0  0  0  0  0  0  0  0
   -4.9244   20.3053  -32.5035 H   0  0  0  0  0  0  0  0  0  0  0  0
  1  2  1  0
  2  3  1  0
  2  4  1  0
  4  5  1  0
  5  6  2  0
  6  7  1  0
  7  8  2  0
  8  9  1  0
  9 10  2  0
 10 11  1  0
 11 12  1  0
 11 13  2  0
 10 14  1  0
 14 15  1  0
 15 16  2  0
 15 17  1  0
 17 18  1  0
 17 19  1  0
 19 20  1  0
 20 21  1  0
 21 22  2  0
 21 23  1  0
 14 24  1  0
 24 25  2  0
 25  5  1  0
 24  8  1  0
  1 26  1  0
  1 27  1  0
  1 28  1  0
  2 29  1  0
  3 30  1  0
  3 31  1  0
  3 32  1  0
  4 33  1  0
  6 34  1  0
  7 35  1  0
  9 36  1  0
 12 37  1  0
 18 38  1  0
 18 39  1  0
 18 40  1  0
 19 41  1  0
 19 42  1  0
 20 43  1  0
 20 44  1  0
 25 45  1  0
M  CHG  2  12  -1  23  -1
M  END
>  <UniqueID>  (19) 
19

>  <SMILES>  (19) 
CC(C)Nc1ccc2cc(C([NH-])=O)n(C(=O)N(C)CCC(=O)[O-])c2c1

>  <Energy>  (19) 
78.0936089984227

>  <Genealogy>  (19) 
CC(C)Nc1ccc2cc(C([NH-])=O)n(C(=O)N(C)CCC(=O)[O-])c2c1 (protonated)
CC(C)Nc1ccc2cc(C([NH-])=O)n(C(=O)N(C)CCC(=O)[O-])c2c1 (3D coordinates assigned)
CC(C)Nc1ccc2cc(C([NH-])=O)n(C(=O)N(C)CCC(=O)[O-])c2c1 (optimized conformer: 78.0936089984227 kcal/mol)

>  <smiles>  (19) 
CC(C)Nc1ccc2cc(C(N)=O)n(C(=O)N(C)CCC(=O)O)c2c1

>  <score_type>  (19) 
oracle

>  <origin>  (19) 
adg

>  <m_score__min__energy>  (19) 
-13.27

>  <m_primary>  (19) 
energy

$$$$
19:0
     RDKit          3D

 37 38  0  0  0  0  0  0  0  0999 V2000
   -5.5570   23.5020  -30.6230 N   0  0  0  0  0  0  0  0  0  0  0  0
   -6.6750   22.8770  -31.2560 C   0  0  0  0  0  0  0  0  0  0  0  0
   -7.7090   23.5570  -31.4940 O   0  0  0  0  0  0  0  0  0  0  0  0
   -6.6180   21.4670  -31.6920 C   0  0  0  0  0  0  0  0  0  0  0  0
   -7.7480   20.6680  -31.8470 C   0  0  0  0  0  0  0  0  0  0  0  0
   -7.2780   19.4650  -32.3230 C   0  0  0  0  0  0  0  0  0  0  0  0
   -7.9700   18.3010  -32.6480 C   0  0  0  0  0  0  0  0  0  0  0  0
   -7.2260   17.1950  -33.0890 C   0  0  0  0  0  0  0  0  0  0  0  0
   -5.8140   17.2640  -33.1750 C   0  0  0  0  0  0  0  0  0  0  0  0
   -5.0310   16.0810  -33.6660 C   0  0  0  0  0  0  0  0  0  0  0  0
   -4.6620   14.9960  -32.3020 Cl  0  0  0  0  0  0  0  0  0  0  0  0
   -5.1460   18.4640  -32.8470 C   0  0  0  0  0  0  0  0  0  0  0  0
   -5.9150   19.5600  -32.4320 C   0  0  0  0  0  0  0  0  0  0  0  0
   -5.4930   20.7850  -32.0450 N   0  0  0  0  0  0  0  0  0  0  0  0
   -4.1300   21.2240  -31.9230 C   0  0  0  0  0  0  0  0  0  0  0  0
   -3.7710   22.3150  -32.4420 O   0  0  0  0  0  0  0  0  0  0  0  0
   -3.2060   20.4380  -31.2260 O   0  0  0  0  0  0  0  0  0  0  0  0
   -3.0180   20.5280  -29.8170 C   0  0  0  0  0  0  0  0  0  0  0  0
   -1.6740   20.8520  -29.5490 O   0  0  0  0  0  0  0  0  0  0  0  0
   -1.5720   22.5300  -29.2600 P   0  0  1  0  0  0  0  0  0  0  0  0
   -2.1040   22.8330  -27.8760 O   0  0  0  0  0  0  0  0  0  0  0  0
    0.0590   22.9740  -29.3380 O   0  0  0  0  0  0  0  0  0  0  0  0
   -2.4740   23.3620  -30.4430 O   0  0  0  0  0  0  0  0  0  0  0  0
   -3.1610   24.7330  -29.7040 P   0  0  0  0  0  0  0  0  0  0  0  0
   -4.1530   24.2710  -28.6620 O   0  0  0  0  0  0  0  0  0  0  0  0
   -3.9790   25.6730  -30.8490 O   0  0  0  0  0  0  0  0  0  0  0  0
   -1.9730   25.6680  -28.9440 O   0  0  0  0  0  0  0  0  0  0  0  0
   -4.6320   23.0220  -30.5640 H   0  0  0  0  0  0  0  0  0  0  0  0
   -5.6300   24.4880  -30.2870 H   0  0  0  0  0  0  0  0  0  0  0  0
   -8.7925   20.9400  -31.6345 H   0  0  0  0  0  0  0  0  0  0  0  0
   -9.0654   18.2497  -32.5619 H   0  0  0  0  0  0  0  0  0  0  0  0
   -7.7444   16.2665  -33.3703 H   0  0  0  0  0  0  0  0  0  0  0  0
   -5.6232   15.5366  -34.4162 H   0  0  0  0  0  0  0  0  0  0  0  0
   -4.0909   16.4293  -34.1187 H   0  0  0  0  0  0  0  0  0  0  0  0
   -4.0505   18.5369  -32.9154 H   0  0  0  0  0  0  0  0  0  0  0  0
   -3.6738   21.3105  -29.4076 H   0  0  0  0  0  0  0  0  0  0  0  0
   -3.2663   19.5641  -29.3487 H   0  0  0  0  0  0  0  0  0  0  0  0
  1  2  1  0
  2  3  2  0
  2  4  1  0
  4  5  2  0
  5  6  1  0
  6  7  2  0
  7  8  1  0
  8  9  2  0
  9 10  1  0
 10 11  1  0
  9 12  1  0
 12 13  2  0
 13 14  1  0
 14 15  1  0
 15 16  2  0
 15 17  1  0
 17 18  1  0
 18 19  1  0
 19 20  1  0
 20 21  2  0
 20 22  1  1
 20 23  1  0
 23 24  1  0
 24 25  2  0
 24 26  1  0
 24 27  1  0
 14  4  1  0
 13  6  1  0
  1 28  1  0
  1 29  1  0
  5 30  1  0
  7 31  1  0
  8 32  1  0
 10 33  1  0
 10 34  1  0
 12 35  1  0
 18 36  1  0
 18 37  1  0
M  CHG  3  22  -1  26  -1  27  -1
M  END
>  <UniqueID>  (20) 
20

>  <SMILES>  (20) 
NC(=O)c1cc2ccc(CCl)cc2n1C(=O)OCO[P@@](=O)([O-])OP(=O)([O-])[O-]

>  <Energy>  (20) 
71.25294000705212

>  <Genealogy>  (20) 
NC(=O)c1cc2ccc(CCl)cc2n1C(=O)OCOP(=O)([O-])OP(=O)([O-])[O-] (protonated)
NC(=O)c1cc2ccc(CCl)cc2n1C(=O)OCO[P@@](=O)([O-])OP(=O)([O-])[O-] (chirality)
NC(=O)c1cc2ccc(CCl)cc2n1C(=O)OCO[P@@](=O)([O-])OP(=O)([O-])[O-] (3D coordinates assigned)
NC(=O)c1cc2ccc(CCl)cc2n1C(=O)OCO[P@@](=O)([O-])OP(=O)([O-])[O-] (optimized conformer: 71.25294000705212 kcal/mol)

>  <smiles>  (20) 
NC(=O)c1cc2ccc(CCl)cc2n1C(=O)OCOP(=O)(O)OP(=O)(O)O

>  <score_type>  (20) 
oracle

>  <origin>  (20) 
adg

>  <m_score__min__energy>  (20) 
-14.27

>  <m_primary>  (20) 
energy

$$$$
20:0
     RDKit          3D

 38 39  0  0  0  0  0  0  0  0999 V2000
   -6.1180   17.3730  -31.0840 C   0  0  0  0  0  0  0  0  0  0  0  0
   -6.6200   18.2050  -32.1840 N   0  0  0  0  0  0  0  0  0  0  0  0
   -6.9090   17.5810  -33.4860 C   0  0  0  0  0  0  0  0  0  0  0  0
   -5.8560   17.9050  -34.4560 C   0  0  0  0  0  0  0  0  0  0  0  0
   -5.0240   18.1580  -35.2190 N   0  0  0  0  0  0  0  0  0  0  0  0
   -6.8260   19.6230  -31.9720 C   0  0  0  0  0  0  0  0  0  0  0  0
   -8.1130   20.2010  -32.1490 C   0  0  0  0  0  0  0  0  0  0  0  0
   -8.3200   21.5760  -31.9540 C   0  0  0  0  0  0  0  0  0  0  0  0
   -7.2330   22.3520  -31.5700 C   0  0  0  0  0  0  0  0  0  0  0  0
   -7.1540   23.7050  -31.3310 C   0  0  0  0  0  0  0  0  0  0  0  0
   -5.8250   23.9410  -30.9830 C   0  0  0  0  0  0  0  0  0  0  0  0
   -5.3210   25.2620  -30.5490 C   0  0  0  0  0  0  0  0  0  0  0  0
   -3.9920   25.6740  -30.8500 N   0  0  0  0  0  0  0  0  0  0  0  0
   -6.0610   26.0140  -29.8600 O   0  0  0  0  0  0  0  0  0  0  0  0
   -5.1090   22.7800  -31.0170 N   0  0  0  0  0  0  0  0  0  0  0  0
   -3.7000   22.6090  -30.7980 C   0  0  0  0  0  0  0  0  0  0  0  0
   -2.8760   23.0770  -31.6320 O   0  0  0  0  0  0  0  0  0  0  0  0
   -3.2560   21.8990  -29.6740 O   0  0  0  0  0  0  0  0  0  0  0  0
   -2.1330   22.2300  -28.9060 C   0  0  0  0  0  0  0  0  0  0  0  0
   -1.1470   21.4480  -28.8160 O   0  0  0  0  0  0  0  0  0  0  0  0
   -2.1210   23.5200  -28.1530 C   0  0  0  0  0  0  0  0  0  0  0  0
   -1.1560   24.4690  -28.7850 C   0  0  0  0  0  0  0  0  0  0  0  0
    0.0770   24.2120  -28.7900 O   0  0  0  0  0  0  0  0  0  0  0  0
   -1.6100   25.6700  -29.3180 O   0  0  0  0  0  0  0  0  0  0  0  0
   -5.9880   21.8170  -31.3750 C   0  0  0  0  0  0  0  0  0  0  0  0
   -5.7450   20.4540  -31.5850 C   0  0  0  0  0  0  0  0  0  0  0  0
   -6.3941   17.8307  -30.1226 H   0  0  0  0  0  0  0  0  0  0  0  0
   -6.5608   16.3684  -31.1525 H   0  0  0  0  0  0  0  0  0  0  0  0
   -5.0228   17.2964  -31.1525 H   0  0  0  0  0  0  0  0  0  0  0  0
   -6.9623   16.4895  -33.3605 H   0  0  0  0  0  0  0  0  0  0  0  0
   -7.8687   17.9668  -33.8604 H   0  0  0  0  0  0  0  0  0  0  0  0
   -8.9586   19.5618  -32.4429 H   0  0  0  0  0  0  0  0  0  0  0  0
   -9.3131   22.0256  -32.1008 H   0  0  0  0  0  0  0  0  0  0  0  0
   -7.9667   24.4431  -31.3999 H   0  0  0  0  0  0  0  0  0  0  0  0
   -3.1820   25.0340  -30.6950 H   0  0  0  0  0  0  0  0  0  0  0  0
   -3.1288   23.9606  -28.1683 H   0  0  0  0  0  0  0  0  0  0  0  0
   -1.8139   23.3298  -27.1140 H   0  0  0  0  0  0  0  0  0  0  0  0
   -4.7359   20.0368  -31.4523 H   0  0  0  0  0  0  0  0  0  0  0  0
  1  2  1  0
  2  3  1  0
  3  4  1  0
  4  5  3  0
  2  6  1  0
  6  7  2  0
  7  8  1  0
  8  9  2  0
  9 10  1  0
 10 11  2  0
 11 12  1  0
 12 13  1  0
 12 14  2  0
 11 15  1  0
 15 16  1  0
 16 17  2  0
 16 18  1  0
 18 19  1  0
 19 20  2  0
 19 21  1  0
 21 22  1  0
 22 23  2  0
 22 24  1  0
 15 25  1  0
 25 26  2  0
 26  6  1  0
 25  9  1  0
  1 27  1  0
  1 28  1  0
  1 29  1  0
  3 30  1  0
  3 31  1  0
  7 32  1  0
  8 33  1  0
 10 34  1  0
 13 35  1  0
 21 36  1  0
 21 37  1  0
 26 38  1  0
M  CHG  2  13  -1  24  -1
M  END
>  <UniqueID>  (21) 
21

>  <SMILES>  (21) 
CN(CC#N)c1ccc2cc(C([NH-])=O)n(C(=O)OC(=O)CC(=O)[O-])c2c1

>  <Energy>  (21) 
76.78964013843554

>  <Genealogy>  (21) 
CN(CC#N)c1ccc2cc(C([NH-])=O)n(C(=O)OC(=O)CC(=O)[O-])c2c1 (protonated)
CN(CC#N)c1ccc2cc(C([NH-])=O)n(C(=O)OC(=O)CC(=O)[O-])c2c1 (3D coordinates assigned)
CN(CC#N)c1ccc2cc(C([NH-])=O)n(C(=O)OC(=O)CC(=O)[O-])c2c1 (optimized conformer: 76.78964013843554 kcal/mol)

>  <smiles>  (21) 
CN(CC#N)c1ccc2cc(C(N)=O)n(C(=O)OC(=O)CC(=O)O)c2c1

>  <score_type>  (21) 
oracle

>  <origin>  (21) 
adg

>  <m_score__min__energy>  (21) 
-12.609999999999999

>  <m_primary>  (21) 
energy

$$$$
21:0
     RDKit          3D

 39 40  0  0  0  0  0  0  0  0999 V2000
   -3.8940   25.3470  -30.9240 N   0  0  0  0  0  0  0  0  0  0  0  0
   -5.2220   25.1060  -30.4690 C   0  0  0  0  0  0  0  0  0  0  0  0
   -5.7740   25.9430  -29.7040 O   0  0  0  0  0  0  0  0  0  0  0  0
   -5.9740   23.9100  -30.9060 C   0  0  0  0  0  0  0  0  0  0  0  0
   -7.3640   23.8120  -30.8630 C   0  0  0  0  0  0  0  0  0  0  0  0
   -7.6600   22.5760  -31.3960 C   0  0  0  0  0  0  0  0  0  0  0  0
   -8.8880   21.9500  -31.5810 C   0  0  0  0  0  0  0  0  0  0  0  0
   -8.8920   20.6550  -32.1280 C   0  0  0  0  0  0  0  0  0  0  0  0
   -7.6740   20.0040  -32.4660 C   0  0  0  0  0  0  0  0  0  0  0  0
   -7.6500   18.6750  -33.0230 N   0  0  0  0  0  0  0  0  0  0  0  0
   -6.5190   17.7500  -32.9290 C   0  0  0  0  0  0  0  0  0  0  0  0
   -5.7130   17.7360  -34.2300 C   0  0  0  0  0  0  0  0  0  0  0  0
   -5.9770   18.8860  -34.9870 O   0  0  0  0  0  0  0  0  0  0  0  0
   -6.4500   20.6790  -32.2640 C   0  0  0  0  0  0  0  0  0  0  0  0
   -6.4780   21.9740  -31.7360 C   0  0  0  0  0  0  0  0  0  0  0  0
   -5.4350   22.7820  -31.4470 N   0  0  0  0  0  0  0  0  0  0  0  0
   -4.0440   22.4570  -31.5970 C   0  0  0  0  0  0  0  0  0  0  0  0
   -3.5750   22.2510  -32.7490 O   0  0  0  0  0  0  0  0  0  0  0  0
   -3.1650   22.3630  -30.4170 C   0  0  0  0  0  0  0  0  0  0  0  0
   -3.1610   21.3060  -29.7310 O   0  0  0  0  0  0  0  0  0  0  0  0
   -2.3130   23.4600  -30.0510 N   0  0  0  0  0  0  0  0  0  0  0  0
   -1.4810   23.4340  -28.8510 C   0  0  0  0  0  0  0  0  0  0  0  0
   -0.7540   24.7320  -28.6980 C   0  0  0  0  0  0  0  0  0  0  0  0
    0.3170   24.7830  -28.0380 O   0  0  0  0  0  0  0  0  0  0  0  0
   -1.2390   25.8790  -29.3150 O   0  0  0  0  0  0  0  0  0  0  0  0
   -3.0840   25.2960  -30.2680 H   0  0  0  0  0  0  0  0  0  0  0  0
   -8.0739   24.5620  -30.4841 H   0  0  0  0  0  0  0  0  0  0  0  0
   -9.8274   22.4528  -31.3077 H   0  0  0  0  0  0  0  0  0  0  0  0
   -9.8488   20.1392  -32.2965 H   0  0  0  0  0  0  0  0  0  0  0  0
   -8.5000   18.3350  -33.5290 H   0  0  0  0  0  0  0  0  0  0  0  0
   -5.8641   18.0652  -32.1033 H   0  0  0  0  0  0  0  0  0  0  0  0
   -6.9083   16.7375  -32.7467 H   0  0  0  0  0  0  0  0  0  0  0  0
   -4.6401   17.6997  -33.9901 H   0  0  0  0  0  0  0  0  0  0  0  0
   -6.0022   16.8515  -34.8165 H   0  0  0  0  0  0  0  0  0  0  0  0
   -6.9570   19.0400  -34.9390 H   0  0  0  0  0  0  0  0  0  0  0  0
   -5.4944   20.1963  -32.5167 H   0  0  0  0  0  0  0  0  0  0  0  0
   -2.2820   24.3130  -30.6540 H   0  0  0  0  0  0  0  0  0  0  0  0
   -2.1189   23.2688  -27.9702 H   0  0  0  0  0  0  0  0  0  0  0  0
   -0.7467   22.6199  -28.9411 H   0  0  0  0  0  0  0  0  0  0  0  0
  1  2  1  0
  2  3  2  0
  2  4  1  0
  4  5  2  0
  5  6  1  0
  6  7  2  0
  7  8  1  0
  8  9  2  0
  9 10  1  0
 10 11  1  0
 11 12  1  0
 12 13  1  0
  9 14  1  0
 14 15  2  0
 15 16  1  0
 16 17  1  0
 17 18  2  0
 17 19  1  0
 19 20  2  0
 19 21  1  0
 21 22  1  0
 22 23  1  0
 23 24  2  0
 23 25  1  0
 16  4  1  0
 15  6  1  0
  1 26  1  0
  5 27  1  0
  7 28  1  0
  8 29  1  0
 10 30  1  0
 11 31  1  0
 11 32  1  0
 12 33  1  0
 12 34  1  0
 13 35  1  0
 14 36  1  0
 21 37  1  0
 22 38  1  0
 22 39  1  0
M  CHG  2   1  -1  25  -1
M  END
>  <UniqueID>  (22) 
22

>  <SMILES>  (22) 
[NH-]C(=O)c1cc2ccc(NCCO)cc2n1C(=O)C(=O)NCC(=O)[O-]

>  <Energy>  (22) 
73.07789356050247

>  <Genealogy>  (22) 
[NH-]C(=O)c1cc2ccc(NCCO)cc2n1C(=O)C(=O)NCC(=O)[O-] (protonated)
[NH-]C(=O)c1cc2ccc(NCCO)cc2n1C(=O)C(=O)NCC(=O)[O-] (3D coordinates assigned)
[NH-]C(=O)c1cc2ccc(NCCO)cc2n1C(=O)C(=O)NCC(=O)[O-] (optimized conformer: 73.07789356050247 kcal/mol)

>  <smiles>  (22) 
NC(=O)c1cc2ccc(NCCO)cc2n1C(=O)C(=O)NCC(=O)O

>  <score_type>  (22) 
oracle

>  <origin>  (22) 
adg

>  <m_score__min__energy>  (22) 
-12.43

>  <m_primary>  (22) 
energy

$$$$
22:0
     RDKit          3D

 38 39  0  0  0  0  0  0  0  0999 V2000
   -2.9980   20.7440  -30.1140 C   0  0  0  0  0  0  0  0  0  0  0  0
   -3.7790   21.9830  -30.0280 N   0  0  0  0  0  0  0  0  0  0  0  0
   -3.7000   22.8000  -28.8040 C   0  0  0  0  0  0  0  0  0  0  0  0
   -2.3520   23.5350  -28.6900 C   0  0  0  0  0  0  0  0  0  0  0  0
   -2.3760   24.9030  -29.3040 C   0  0  0  0  0  0  0  0  0  0  0  0
   -1.3800   25.6680  -29.2000 O   0  0  0  0  0  0  0  0  0  0  0  0
   -3.4620   25.2980  -30.0740 O   0  0  0  0  0  0  0  0  0  0  0  0
   -4.5770   22.3700  -31.1690 C   0  0  0  0  0  0  0  0  0  0  0  0
   -4.0160   22.8170  -32.2080 O   0  0  0  0  0  0  0  0  0  0  0  0
   -6.0080   22.2720  -31.1510 N   0  0  0  0  0  0  0  0  0  0  0  0
   -6.8950   23.2920  -30.9770 C   0  0  0  0  0  0  0  0  0  0  0  0
   -6.5580   24.6940  -30.6350 C   0  0  0  0  0  0  0  0  0  0  0  0
   -5.4420   25.3690  -31.2190 N   0  0  0  0  0  0  0  0  0  0  0  0
   -7.2690   25.3060  -29.7940 O   0  0  0  0  0  0  0  0  0  0  0  0
   -8.1930   22.8580  -31.2460 C   0  0  0  0  0  0  0  0  0  0  0  0
   -8.0660   21.5410  -31.6270 C   0  0  0  0  0  0  0  0  0  0  0  0
   -9.0300   20.6390  -32.0680 C   0  0  0  0  0  0  0  0  0  0  0  0
   -8.6000   19.3660  -32.4810 C   0  0  0  0  0  0  0  0  0  0  0  0
   -7.2220   19.0310  -32.4750 C   0  0  0  0  0  0  0  0  0  0  0  0
   -6.7660   17.6750  -32.9310 C   0  0  0  0  0  0  0  0  0  0  0  0
   -5.9290   17.1250  -31.9780 F   0  0  0  0  0  0  0  0  0  0  0  0
   -6.0840   17.7860  -34.1300 F   0  0  0  0  0  0  0  0  0  0  0  0
   -6.2740   19.9750  -32.0240 C   0  0  0  0  0  0  0  0  0  0  0  0
   -6.7350   21.2190  -31.5790 C   0  0  0  0  0  0  0  0  0  0  0  0
   -2.7704   20.3829  -29.1002 H   0  0  0  0  0  0  0  0  0  0  0  0
   -3.5788   19.9811  -30.6531 H   0  0  0  0  0  0  0  0  0  0  0  0
   -2.0592   20.9390  -30.6531 H   0  0  0  0  0  0  0  0  0  0  0  0
   -4.5103   23.5438  -28.8200 H   0  0  0  0  0  0  0  0  0  0  0  0
   -3.7958   22.1276  -27.9387 H   0  0  0  0  0  0  0  0  0  0  0  0
   -2.0955   23.6334  -27.6249 H   0  0  0  0  0  0  0  0  0  0  0  0
   -1.6064   22.9413  -29.2391 H   0  0  0  0  0  0  0  0  0  0  0  0
   -5.2860   26.3820  -31.0210 H   0  0  0  0  0  0  0  0  0  0  0  0
   -4.7170   24.8630  -31.7700 H   0  0  0  0  0  0  0  0  0  0  0  0
   -9.1211   23.4436  -31.1699 H   0  0  0  0  0  0  0  0  0  0  0  0
  -10.0949   20.9137  -32.0926 H   0  0  0  0  0  0  0  0  0  0  0  0
   -9.3397   18.6223  -32.8121 H   0  0  0  0  0  0  0  0  0  0  0  0
   -7.6444   17.0278  -33.0710 H   0  0  0  0  0  0  0  0  0  0  0  0
   -5.1997   19.7385  -32.0225 H   0  0  0  0  0  0  0  0  0  0  0  0
  1  2  1  0
  2  3  1  0
  3  4  1  0
  4  5  1  0
  5  6  2  0
  5  7  1  0
  2  8  1  0
  8  9  2  0
  8 10  1  0
 10 11  1  0
 11 12  1  0
 12 13  1  0
 12 14  2  0
 11 15  2  0
 15 16  1  0
 16 17  2  0
 17 18  1  0
 18 19  2  0
 19 20  1  0
 20 21  1  0
 20 22  1  0
 19 23  1  0
 23 24  2  0
 24 10  1  0
 24 16  1  0
  1 25  1  0
  1 26  1  0
  1 27  1  0
  3 28  1  0
  3 29  1  0
  4 30  1  0
  4 31  1  0
 13 32  1  0
 13 33  1  0
 15 34  1  0
 17 35  1  0
 18 36  1  0
 20 37  1  0
 23 38  1  0
M  CHG  1   7  -1
M  END
>  <UniqueID>  (23) 
23

>  <SMILES>  (23) 
CN(CCC(=O)[O-])C(=O)n1c(C(N)=O)cc2ccc(C(F)F)cc21

>  <Energy>  (23) 
75.45444139241012

>  <Genealogy>  (23) 
CN(CCC(=O)[O-])C(=O)n1c(C(N)=O)cc2ccc(C(F)F)cc21 (protonated)
CN(CCC(=O)[O-])C(=O)n1c(C(N)=O)cc2ccc(C(F)F)cc21 (3D coordinates assigned)
CN(CCC(=O)[O-])C(=O)n1c(C(N)=O)cc2ccc(C(F)F)cc21 (optimized conformer: 75.45444139241012 kcal/mol)

>  <smiles>  (23) 
CN(CCC(=O)O)C(=O)n1c(C(N)=O)cc2ccc(C(F)F)cc21

>  <score_type>  (23) 
oracle

>  <origin>  (23) 
adg

>  <m_score__min__energy>  (23) 
-10.67

>  <m_primary>  (23) 
energy

$$$$
24:0
     RDKit          3D

 47 48  0  0  0  0  0  0  0  0999 V2000
   -6.8400   18.4800  -33.4770 C   0  0  0  0  0  0  0  0  0  0  0  0
   -6.9670   19.7490  -32.6890 C   0  0  0  0  0  0  0  0  0  0  0  0
   -8.2440   20.1980  -32.2710 C   0  0  0  0  0  0  0  0  0  0  0  0
   -8.3810   21.4110  -31.5750 C   0  0  0  0  0  0  0  0  0  0  0  0
   -7.2300   22.1510  -31.3180 C   0  0  0  0  0  0  0  0  0  0  0  0
   -7.0810   23.3690  -30.6960 C   0  0  0  0  0  0  0  0  0  0  0  0
   -5.7150   23.6410  -30.7390 C   0  0  0  0  0  0  0  0  0  0  0  0
   -5.1010   24.8250  -30.1030 C   0  0  0  0  0  0  0  0  0  0  0  0
   -3.8600   25.3470  -30.5700 N   0  0  0  0  0  0  0  0  0  0  0  0
   -5.6560   25.3530  -29.1020 O   0  0  0  0  0  0  0  0  0  0  0  0
   -5.0460   22.6340  -31.3680 N   0  0  0  0  0  0  0  0  0  0  0  0
   -3.6510   22.5830  -31.7030 C   0  0  0  0  0  0  0  0  0  0  0  0
   -3.2930   22.1660  -32.8380 O   0  0  0  0  0  0  0  0  0  0  0  0
   -2.6980   23.0140  -30.7730 O   0  0  0  0  0  0  0  0  0  0  0  0
   -1.6230   22.1980  -30.3140 C   0  0  0  0  0  0  0  0  0  0  0  0
   -1.9310   21.6330  -28.9300 C   0  0  0  0  0  0  0  0  0  0  0  0
   -2.1280   22.7040  -28.0130 O   0  0  0  0  0  0  0  0  0  0  0  0
   -3.3720   23.3150  -27.8230 C   0  0  0  0  0  0  0  0  0  0  0  0
   -4.4370   22.6480  -27.9660 O   0  0  0  0  0  0  0  0  0  0  0  0
   -3.4290   24.7100  -27.4580 N   0  0  1  0  0  0  0  0  0  0  0  0
   -4.5350   24.9240  -26.5070 C   0  0  0  0  0  0  0  0  0  0  0  0
   -2.1190   25.1320  -26.9100 C   0  0  0  0  0  0  0  0  0  0  0  0
   -1.0510   25.3500  -28.0000 C   0  0  0  0  0  0  0  0  0  0  0  0
   -1.6260   25.3550  -29.2790 O   0  0  0  0  0  0  0  0  0  0  0  0
   -5.9870   21.7270  -31.7140 C   0  0  0  0  0  0  0  0  0  0  0  0
   -5.8230   20.5330  -32.4250 C   0  0  0  0  0  0  0  0  0  0  0  0
   -6.7547   17.6272  -32.7875 H   0  0  0  0  0  0  0  0  0  0  0  0
   -7.7298   18.3514  -34.1109 H   0  0  0  0  0  0  0  0  0  0  0  0
   -5.9424   18.5303  -34.1109 H   0  0  0  0  0  0  0  0  0  0  0  0
   -9.1351   19.5924  -32.4930 H   0  0  0  0  0  0  0  0  0  0  0  0
   -9.3681   21.7653  -31.2431 H   0  0  0  0  0  0  0  0  0  0  0  0
   -7.8721   23.9952  -30.2578 H   0  0  0  0  0  0  0  0  0  0  0  0
   -2.9580   25.0590  -30.1310 H   0  0  0  0  0  0  0  0  0  0  0  0
   -1.4735   21.3668  -31.0188 H   0  0  0  0  0  0  0  0  0  0  0  0
   -0.7127   22.8124  -30.2519 H   0  0  0  0  0  0  0  0  0  0  0  0
   -2.8429   21.0198  -28.9790 H   0  0  0  0  0  0  0  0  0  0  0  0
   -1.0887   21.0114  -28.5921 H   0  0  0  0  0  0  0  0  0  0  0  0
   -3.6310   25.2600  -28.3270 H   0  0  0  0  0  0  0  0  0  0  0  0
   -4.1533   24.8501  -25.4780 H   0  0  0  0  0  0  0  0  0  0  0  0
   -4.9679   25.9226  -26.6667 H   0  0  0  0  0  0  0  0  0  0  0  0
   -5.3091   24.1590  -26.6667 H   0  0  0  0  0  0  0  0  0  0  0  0
   -2.2564   26.0750  -26.3606 H   0  0  0  0  0  0  0  0  0  0  0  0
   -1.7606   24.3235  -26.2558 H   0  0  0  0  0  0  0  0  0  0  0  0
   -0.5531   26.3154  -27.8266 H   0  0  0  0  0  0  0  0  0  0  0  0
   -0.3257   24.5247  -27.9472 H   0  0  0  0  0  0  0  0  0  0  0  0
   -2.1250   24.5020  -29.3710 H   0  0  0  0  0  0  0  0  0  0  0  0
   -4.8283   20.2135  -32.7693 H   0  0  0  0  0  0  0  0  0  0  0  0
  1  2  1  0
  2  3  2  0
  3  4  1  0
  4  5  2  0
  5  6  1  0
  6  7  2  0
  7  8  1  0
  8  9  1  0
  8 10  2  0
  7 11  1  0
 11 12  1  0
 12 13  2  0
 12 14  1  0
 14 15  1  0
 15 16  1  0
 16 17  1  0
 17 18  1  0
 18 19  2  0
 18 20  1  0
 20 21  1  0
 20 22  1  0
 22 23  1  0
 23 24  1  0
 11 25  1  0
 25 26  2  0
 26  2  1  0
 25  5  1  0
  1 27  1  0
  1 28  1  0
  1 29  1  0
  3 30  1  0
  4 31  1  0
  6 32  1  0
  9 33  1  0
 15 34  1  0
 15 35  1  0
 16 36  1  0
 16 37  1  0
 20 38  1  6
 21 39  1  0
 21 40  1  0
 21 41  1  0
 22 42  1  0
 22 43  1  0
 23 44  1  0
 23 45  1  0
 24 46  1  0
 26 47  1  0
M  CHG  2   9  -1  20   1
M  END
>  <UniqueID>  (24) 
24

>  <SMILES>  (24) 
Cc1ccc2cc(C([NH-])=O)n(C(=O)OCCOC(=O)[N@@H+](C)CCO)c2c1

>  <Energy>  (24) 
81.37726778376657

>  <Genealogy>  (24) 
Cc1ccc2cc(C([NH-])=O)n(C(=O)OCCOC(=O)[NH+](C)CCO)c2c1 (protonated)
Cc1ccc2cc(C([NH-])=O)n(C(=O)OCCOC(=O)[N@@H+](C)CCO)c2c1 (chirality)
Cc1ccc2cc(C([NH-])=O)n(C(=O)OCCOC(=O)[N@@H+](C)CCO)c2c1 (3D coordinates assigned)
Cc1ccc2cc(C([NH-])=O)n(C(=O)OCCOC(=O)[N@@H+](C)CCO)c2c1 (optimized conformer: 81.37726778376657 kcal/mol)

>  <smiles>  (24) 
Cc1ccc2cc(C(N)=O)n(C(=O)OCCOC(=O)N(C)CCO)c2c1

>  <score_type>  (24) 
oracle

>  <origin>  (24) 
adg

>  <m_score__min__energy>  (24) 
-8.5600000000000005

>  <m_primary>  (24) 
energy

$$$$
25:0
     RDKit          3D

 41 43  0  0  0  0  0  0  0  0999 V2000
    1.0210   19.6180  -35.9410 N   0  0  0  0  0  0  0  0  0  0  0  0
    0.5790   18.8670  -34.8130 C   0  0  0  0  0  0  0  0  0  0  0  0
    1.4230   18.2310  -34.1260 O   0  0  0  0  0  0  0  0  0  0  0  0
   -0.8470   18.8480  -34.4220 C   0  0  0  0  0  0  0  0  0  0  0  0
   -1.6580   17.7150  -34.4920 C   0  0  0  0  0  0  0  0  0  0  0  0
   -2.8880   18.1160  -34.0180 C   0  0  0  0  0  0  0  0  0  0  0  0
   -4.0840   17.4140  -33.9110 C   0  0  0  0  0  0  0  0  0  0  0  0
   -5.2200   18.1090  -33.4550 C   0  0  0  0  0  0  0  0  0  0  0  0
   -5.1430   19.4880  -33.1220 C   0  0  0  0  0  0  0  0  0  0  0  0
   -6.3540   20.2310  -32.6880 C   0  0  0  0  0  0  0  0  0  0  0  0
   -7.6140   19.6020  -32.6780 C   0  0  0  0  0  0  0  0  0  0  0  0
   -8.7560   20.3110  -32.2920 C   0  0  0  0  0  0  0  0  0  0  0  0
   -8.6550   21.6520  -31.9130 C   0  0  0  0  0  0  0  0  0  0  0  0
   -9.7920   22.3540  -31.5300 O   0  0  0  0  0  0  0  0  0  0  0  0
   -7.4110   22.2860  -31.9190 C   0  0  0  0  0  0  0  0  0  0  0  0
   -6.2660   21.5820  -32.3030 C   0  0  0  0  0  0  0  0  0  0  0  0
   -3.9040   20.1600  -33.2350 C   0  0  0  0  0  0  0  0  0  0  0  0
   -2.7920   19.4380  -33.6770 C   0  0  0  0  0  0  0  0  0  0  0  0
   -1.5470   19.8980  -33.9140 N   0  0  0  0  0  0  0  0  0  0  0  0
   -1.1270   21.2600  -33.7730 C   0  0  0  0  0  0  0  0  0  0  0  0
   -0.4110   21.7880  -34.6670 O   0  0  0  0  0  0  0  0  0  0  0  0
   -1.4450   21.9640  -32.6060 O   0  0  0  0  0  0  0  0  0  0  0  0
   -1.3690   21.3790  -31.3090 C   0  0  0  0  0  0  0  0  0  0  0  0
   -2.0890   22.2470  -30.3240 C   0  0  0  0  0  0  0  0  0  0  0  0
   -3.1660   21.8460  -29.8060 O   0  0  0  0  0  0  0  0  0  0  0  0
   -1.5170   23.4610  -29.9380 O   0  0  0  0  0  0  0  0  0  0  0  0
   -2.4520   24.7730  -29.3400 P   0  0  0  0  0  0  0  0  0  0  0  0
   -3.2170   24.3240  -28.1170 O   0  0  0  0  0  0  0  0  0  0  0  0
   -1.4330   26.0560  -28.9230 O   0  0  0  0  0  0  0  0  0  0  0  0
   -3.5440   25.2810  -30.5280 O   0  0  0  0  0  0  0  0  0  0  0  0
    0.7010   20.5990  -36.0920 H   0  0  0  0  0  0  0  0  0  0  0  0
   -1.3754   16.7139  -34.8497 H   0  0  0  0  0  0  0  0  0  0  0  0
   -4.1404   16.3476  -34.1748 H   0  0  0  0  0  0  0  0  0  0  0  0
   -6.1784   17.5783  -33.3553 H   0  0  0  0  0  0  0  0  0  0  0  0
   -7.7004   18.5466  -32.9756 H   0  0  0  0  0  0  0  0  0  0  0  0
   -9.7361   19.8117  -32.2868 H   0  0  0  0  0  0  0  0  0  0  0  0
   -7.3318   23.3419  -31.6209 H   0  0  0  0  0  0  0  0  0  0  0  0
   -5.2891   22.0875  -32.3043 H   0  0  0  0  0  0  0  0  0  0  0  0
   -3.8174   21.2267  -32.9808 H   0  0  0  0  0  0  0  0  0  0  0  0
   -1.8353   20.3829  -31.3287 H   0  0  0  0  0  0  0  0  0  0  0  0
   -0.3142   21.2857  -31.0114 H   0  0  0  0  0  0  0  0  0  0  0  0
  1  2  1  0
  2  3  2  0
  2  4  1  0
  4  5  2  0
  5  6  1  0
  6  7  2  0
  7  8  1  0
  8  9  2  0
  9 10  1  0
 10 11  2  0
 11 12  1  0
 12 13  2  0
 13 14  1  0
 13 15  1  0
 15 16  2  0
  9 17  1  0
 17 18  2  0
 18 19  1  0
 19 20  1  0
 20 21  2  0
 20 22  1  0
 22 23  1  0
 23 24  1  0
 24 25  2  0
 24 26  1  0
 26 27  1  0
 27 28  2  0
 27 29  1  0
 27 30  1  0
 19  4  1  0
 18  6  1  0
 16 10  1  0
  1 31  1  0
  5 32  1  0
  7 33  1  0
  8 34  1  0
 11 35  1  0
 12 36  1  0
 15 37  1  0
 16 38  1  0
 17 39  1  0
 23 40  1  0
 23 41  1  0
M  CHG  4   1  -1  14  -1  29  -1  30  -1
M  END
>  <UniqueID>  (25) 
25

>  <SMILES>  (25) 
[NH-]C(=O)c1cc2ccc(-c3ccc([O-])cc3)cc2n1C(=O)OCC(=O)OP(=O)([O-])[O-]

>  <Energy>  (25) 
82.10676408071772

>  <Genealogy>  (25) 
[NH-]C(=O)c1cc2ccc(-c3ccc([O-])cc3)cc2n1C(=O)OCC(=O)OP(=O)([O-])[O-] (protonated)
[NH-]C(=O)c1cc2ccc(-c3ccc([O-])cc3)cc2n1C(=O)OCC(=O)OP(=O)([O-])[O-] (3D coordinates assigned)
[NH-]C(=O)c1cc2ccc(-c3ccc([O-])cc3)cc2n1C(=O)OCC(=O)OP(=O)([O-])[O-] (optimized conformer: 82.10676408071772 kcal/mol)

>  <smiles>  (25) 
NC(=O)c1cc2ccc(-c3ccc(O)cc3)cc2n1C(=O)OCC(=O)OP(=O)(O)O

>  <score_type>  (25) 
oracle

>  <origin>  (25) 
adg

>  <m_score__min__energy>  (25) 
-14.390000000000001

>  <m_primary>  (25) 
energy

$$$$
26:0
     RDKit          3D

 38 40  0  0  0  0  0  0  0  0999 V2000
   -6.8510   18.4820  -33.3920 C   0  0  0  0  0  0  0  0  0  0  0  0
   -7.0140   19.7840  -32.6650 C   0  0  0  0  0  0  0  0  0  0  0  0
   -8.3070   20.3300  -32.4740 C   0  0  0  0  0  0  0  0  0  0  0  0
   -8.4680   21.5740  -31.8450 C   0  0  0  0  0  0  0  0  0  0  0  0
   -7.3260   22.2470  -31.4210 C   0  0  0  0  0  0  0  0  0  0  0  0
   -7.2030   23.4720  -30.8130 C   0  0  0  0  0  0  0  0  0  0  0  0
   -5.8350   23.6630  -30.6500 C   0  0  0  0  0  0  0  0  0  0  0  0
   -5.2650   24.8750  -30.0390 C   0  0  0  0  0  0  0  0  0  0  0  0
   -3.8830   25.1930  -30.2020 N   0  0  0  0  0  0  0  0  0  0  0  0
   -6.0210   25.6770  -29.4300 O   0  0  0  0  0  0  0  0  0  0  0  0
   -5.1310   22.5880  -31.1100 N   0  0  0  0  0  0  0  0  0  0  0  0
   -3.7170   22.3390  -30.9660 C   0  0  0  0  0  0  0  0  0  0  0  0
   -2.9080   22.7290  -31.8520 O   0  0  0  0  0  0  0  0  0  0  0  0
   -3.2310   21.6990  -29.8210 O   0  0  0  0  0  0  0  0  0  0  0  0
   -1.8440   21.5740  -29.5210 C   0  0  0  0  0  0  0  0  0  0  0  0
   -1.2860   22.8980  -29.1000 C   0  0  0  0  0  0  0  0  0  0  0  0
   -1.7970   24.0590  -29.4400 O   0  0  0  0  0  0  0  0  0  0  0  0
   -1.0330   24.9670  -28.8760 C   0  0  0  0  0  0  0  0  0  0  0  0
   -1.2250   26.2050  -28.9860 O   0  0  0  0  0  0  0  0  0  0  0  0
   -0.0490   24.4410  -28.1840 O   0  0  0  0  0  0  0  0  0  0  0  0
   -0.1780   23.1410  -28.3060 C   0  0  0  0  0  0  0  0  0  0  0  0
    0.7280   22.1340  -27.6780 C   0  0  0  0  0  0  0  0  0  0  0  0
   -6.0640   21.7330  -31.5950 C   0  0  0  0  0  0  0  0  0  0  0  0
   -5.8750   20.5010  -32.2390 C   0  0  0  0  0  0  0  0  0  0  0  0
   -6.7487   17.6650  -32.6625 H   0  0  0  0  0  0  0  0  0  0  0  0
   -7.7336   18.3015  -34.0233 H   0  0  0  0  0  0  0  0  0  0  0  0
   -5.9512   18.5247  -34.0233 H   0  0  0  0  0  0  0  0  0  0  0  0
   -9.1910   19.7750  -32.8211 H   0  0  0  0  0  0  0  0  0  0  0  0
   -9.4683   22.0050  -31.6914 H   0  0  0  0  0  0  0  0  0  0  0  0
   -8.0127   24.1557  -30.5181 H   0  0  0  0  0  0  0  0  0  0  0  0
   -3.4840   26.0500  -29.7580 H   0  0  0  0  0  0  0  0  0  0  0  0
   -3.2690   24.6050  -30.8090 H   0  0  0  0  0  0  0  0  0  0  0  0
   -1.7125   20.8480  -28.7051 H   0  0  0  0  0  0  0  0  0  0  0  0
   -1.3116   21.2288  -30.4195 H   0  0  0  0  0  0  0  0  0  0  0  0
    0.6587   22.2110  -26.5829 H   0  0  0  0  0  0  0  0  0  0  0  0
    0.4287   21.1238  -27.9942 H   0  0  0  0  0  0  0  0  0  0  0  0
    1.7641   22.3253  -27.9942 H   0  0  0  0  0  0  0  0  0  0  0  0
   -4.8635   20.1032  -32.4080 H   0  0  0  0  0  0  0  0  0  0  0  0
  1  2  1  0
  2  3  2  0
  3  4  1  0
  4  5  2  0
  5  6  1  0
  6  7  2  0
  7  8  1  0
  8  9  1  0
  8 10  2  0
  7 11  1  0
 11 12  1  0
 12 13  2  0
 12 14  1  0
 14 15  1  0
 15 16  1  0
 16 17  1  0
 17 18  1  0
 18 19  2  0
 18 20  1  0
 20 21  1  0
 21 22  1  0
 11 23  1  0
 23 24  2  0
 24  2  1  0
 23  5  1  0
 21 16  2  0
  1 25  1  0
  1 26  1  0
  1 27  1  0
  3 28  1  0
  4 29  1  0
  6 30  1  0
  9 31  1  0
  9 32  1  0
 15 33  1  0
 15 34  1  0
 22 35  1  0
 22 36  1  0
 22 37  1  0
 24 38  1  0
M  END
>  <UniqueID>  (26) 
26

>  <SMILES>  (26) 
Cc1ccc2cc(C(N)=O)n(C(=O)OCc3oc(=O)oc3C)c2c1

>  <Energy>  (26) 
111.04482581698913

>  <Genealogy>  (26) 
Cc1ccc2cc(C(N)=O)n(C(=O)OCc3oc(=O)oc3C)c2c1 (3D coordinates assigned)
Cc1ccc2cc(C(N)=O)n(C(=O)OCc3oc(=O)oc3C)c2c1 (optimized conformer: 111.04482581698913 kcal/mol)

>  <smiles>  (26) 
Cc1ccc2cc(C(N)=O)n(C(=O)OCc3oc(=O)oc3C)c2c1

>  <score_type>  (26) 
oracle

>  <origin>  (26) 
adg

>  <m_score__min__energy>  (26) 
-8.1500000000000004

>  <m_primary>  (26) 
energy

$$$$
27:0
     RDKit          3D

 60 64  0  0  0  0  0  0  0  0999 V2000
   -3.6020   18.5590  -34.7070 N   0  0  0  0  0  0  0  0  0  0  0  0
   -4.6890   18.3730  -33.8070 C   0  0  0  0  0  0  0  0  0  0  0  0
   -5.1570   17.2160  -33.6370 O   0  0  0  0  0  0  0  0  0  0  0  0
   -5.2470   19.5270  -33.0750 C   0  0  0  0  0  0  0  0  0  0  0  0
   -6.5710   19.6080  -32.6440 C   0  0  0  0  0  0  0  0  0  0  0  0
   -6.6870   20.8480  -32.0560 C   0  0  0  0  0  0  0  0  0  0  0  0
   -7.7840   21.4590  -31.4580 C   0  0  0  0  0  0  0  0  0  0  0  0
   -7.6130   22.7520  -30.9320 C   0  0  0  0  0  0  0  0  0  0  0  0
   -6.3540   23.4000  -31.0040 C   0  0  0  0  0  0  0  0  0  0  0  0
   -6.1910   24.7960  -30.4650 C   0  0  0  0  0  0  0  0  0  0  0  0
   -4.7960   25.0230  -29.9680 C   0  0  0  0  0  0  0  0  0  0  0  0
   -4.4410   24.5870  -28.8390 O   0  0  0  0  0  0  0  0  0  0  0  0
   -3.8690   25.6700  -30.7780 O   0  0  0  0  0  0  0  0  0  0  0  0
   -5.2630   22.7510  -31.6250 C   0  0  0  0  0  0  0  0  0  0  0  0
   -5.4680   21.4690  -32.1470 C   0  0  0  0  0  0  0  0  0  0  0  0
   -4.5740   20.6680  -32.7610 N   0  0  0  0  0  0  0  0  0  0  0  0
   -3.1920   20.9780  -33.0000 C   0  0  0  0  0  0  0  0  0  0  0  0
   -2.9110   21.8650  -33.8500 O   0  0  0  0  0  0  0  0  0  0  0  0
   -2.1520   20.3560  -32.2080 N   0  0  0  0  0  0  0  0  0  0  0  0
   -1.5840   19.1590  -32.7630 C   0  0  0  0  0  0  0  0  0  0  0  0
   -1.9630   18.0310  -32.3440 O   0  0  0  0  0  0  0  0  0  0  0  0
   -0.6150   19.2550  -33.7680 O   0  0  0  0  0  0  0  0  0  0  0  0
   -0.5830   20.3080  -34.7300 C   0  0  0  0  0  0  0  0  0  0  0  0
    0.2770   21.4360  -34.2510 C   0  0  0  0  0  0  0  0  0  0  0  0
    0.6250   21.4980  -33.0430 O   0  0  0  0  0  0  0  0  0  0  0  0
    0.6680   22.4340  -35.1330 O   0  0  0  0  0  0  0  0  0  0  0  0
   -1.8780   20.7360  -30.7910 C   0  0  2  0  0  0  0  0  0  0  0  0
   -1.4520   22.2270  -30.7070 C   0  0  0  0  0  0  0  0  0  0  0  0
   -1.1620   22.6220  -29.2410 C   0  0  1  0  0  0  0  0  0  0  0  0
   -2.4340   22.4280  -28.3900 C   0  0  0  0  0  0  0  0  0  0  0  0
   -2.8610   20.9460  -28.4350 C   0  0  2  0  0  0  0  0  0  0  0  0
   -1.7320   20.0640  -27.8690 C   0  0  0  0  0  0  0  0  0  0  0  0
   -0.4620   20.2540  -28.7210 C   0  0  2  0  0  0  0  0  0  0  0  0
   -0.0280   21.7360  -28.6820 C   0  0  0  0  0  0  0  0  0  0  0  0
   -0.7530   19.8410  -30.1790 C   0  0  0  0  0  0  0  0  0  0  0  0
   -3.1510   20.5420  -29.8980 C   0  0  0  0  0  0  0  0  0  0  0  0
   -2.6130   18.4600  -34.3830 H   0  0  0  0  0  0  0  0  0  0  0  0
   -7.3554   18.8443  -32.7509 H   0  0  0  0  0  0  0  0  0  0  0  0
   -8.7555   20.9466  -31.3983 H   0  0  0  0  0  0  0  0  0  0  0  0
   -8.4639   23.2653  -30.4604 H   0  0  0  0  0  0  0  0  0  0  0  0
   -6.4090   25.5180  -31.2658 H   0  0  0  0  0  0  0  0  0  0  0  0
   -6.8874   24.9293  -29.6240 H   0  0  0  0  0  0  0  0  0  0  0  0
   -4.2802   23.2399  -31.6960 H   0  0  0  0  0  0  0  0  0  0  0  0
   -0.1768   19.9207  -35.6760 H   0  0  0  0  0  0  0  0  0  0  0  0
   -1.6066   20.6822  -34.8791 H   0  0  0  0  0  0  0  0  0  0  0  0
   -0.5446   22.3793  -31.3098 H   0  0  0  0  0  0  0  0  0  0  0  0
   -2.2701   22.8543  -31.0907 H   0  0  0  0  0  0  0  0  0  0  0  0
   -0.8552   23.6776  -29.2027 H   0  0  0  0  0  0  0  0  0  0  0  0
   -2.2270   22.7186  -27.3495 H   0  0  0  0  0  0  0  0  0  0  0  0
   -3.2434   23.0554  -28.7915 H   0  0  0  0  0  0  0  0  0  0  0  0
   -3.7677   20.8065  -27.8281 H   0  0  0  0  0  0  0  0  0  0  0  0
   -1.5239   20.3558  -26.8290 H   0  0  0  0  0  0  0  0  0  0  0  0
   -2.0399   19.0083  -27.8966 H   0  0  0  0  0  0  0  0  0  0  0  0
    0.3457   19.6265  -28.3162 H   0  0  0  0  0  0  0  0  0  0  0  0
    0.1863   22.0276  -27.6432 H   0  0  0  0  0  0  0  0  0  0  0  0
    0.8755   21.8686  -29.2952 H   0  0  0  0  0  0  0  0  0  0  0  0
    0.1637   19.9540  -30.7764 H   0  0  0  0  0  0  0  0  0  0  0  0
   -1.0883   18.7934  -30.1902 H   0  0  0  0  0  0  0  0  0  0  0  0
   -3.4543   19.4850  -29.9270 H   0  0  0  0  0  0  0  0  0  0  0  0
   -3.9563   21.1820  -30.2878 H   0  0  0  0  0  0  0  0  0  0  0  0
  1  2  1  0
  2  3  2  0
  2  4  1  0
  4  5  2  0
  5  6  1  0
  6  7  2  0
  7  8  1  0
  8  9  2  0
  9 10  1  0
 10 11  1  0
 11 12  2  0
 11 13  1  0
  9 14  1  0
 14 15  2  0
 15 16  1  0
 16 17  1  0
 17 18  2  0
 17 19  1  0
 19 20  1  0
 20 21  2  0
 20 22  1  0
 22 23  1  0
 23 24  1  0
 24 25  2  0
 24 26  1  0
 27 19  1  6
 27 28  1  0
 28 29  1  0
 29 30  1  0
 30 31  1  0
 31 32  1  0
 32 33  1  0
 33 34  1  0
 33 35  1  0
 31 36  1  0
 16  4  1  0
 35 27  1  0
 15  6  1  0
 36 27  1  0
 34 29  1  0
  1 37  1  0
  5 38  1  0
  7 39  1  0
  8 40  1  0
 10 41  1  0
 10 42  1  0
 14 43  1  0
 23 44  1  0
 23 45  1  0
 28 46  1  0
 28 47  1  0
 29 48  1  6
 30 49  1  0
 30 50  1  0
 31 51  1  1
 32 52  1  0
 32 53  1  0
 33 54  1  1
 34 55  1  0
 34 56  1  0
 35 57  1  0
 35 58  1  0
 36 59  1  0
 36 60  1  0
M  CHG  3   1  -1  13  -1  26  -1
M  END
>  <UniqueID>  (27) 
27

>  <SMILES>  (27) 
[NH-]C(=O)c1cc2ccc(CC(=O)[O-])cc2n1C(=O)N(C(=O)OCC(=O)[O-])C12CC3CC(CC(C3)C1)C2

>  <Energy>  (27) 
109.383944016145

>  <Genealogy>  (27) 
[NH-]C(=O)c1cc2ccc(CC(=O)[O-])cc2n1C(=O)N(C(=O)OCC(=O)[O-])C12CC3CC(CC(C3)C1)C2 (protonated)
[NH-]C(=O)c1cc2ccc(CC(=O)[O-])cc2n1C(=O)N(C(=O)OCC(=O)[O-])C12CC3CC(CC(C3)C1)C2 (3D coordinates assigned)
[NH-]C(=O)c1cc2ccc(CC(=O)[O-])cc2n1C(=O)N(C(=O)OCC(=O)[O-])C12CC3CC(CC(C3)C1)C2 (nonaromatic ring conformer: 109.383944016145 kcal/mol)

>  <smiles>  (27) 
NC(=O)c1cc2ccc(CC(=O)O)cc2n1C(=O)N(C(=O)OCC(=O)O)C12CC3CC(CC(C3)C1)C2

>  <score_type>  (27) 
oracle

>  <origin>  (27) 
adg

>  <m_score__min__energy>  (27) 
-13.81

>  <m_primary>  (27) 
energy

$$$$
28:0
     RDKit          3D

 35 37  0  0  0  0  0  0  0  0999 V2000
   -6.6820   14.8230  -34.2160 C   0  0  0  0  0  0  0  0  0  0  0  0
   -6.3140   16.2300  -34.1450 N   0  0  0  0  0  0  0  0  0  0  0  0
   -6.9400   17.1700  -33.4150 C   0  0  0  0  0  0  0  0  0  0  0  0
   -6.2430   18.3590  -33.5530 C   0  0  0  0  0  0  0  0  0  0  0  0
   -6.5570   19.6710  -32.9330 C   0  0  0  0  0  0  0  0  0  0  0  0
   -7.9080   20.0700  -32.7340 C   0  0  0  0  0  0  0  0  0  0  0  0
   -8.2160   21.3130  -32.1560 C   0  0  0  0  0  0  0  0  0  0  0  0
   -7.1610   22.1370  -31.7800 C   0  0  0  0  0  0  0  0  0  0  0  0
   -7.1730   23.3920  -31.2120 C   0  0  0  0  0  0  0  0  0  0  0  0
   -5.8310   23.7390  -31.0560 C   0  0  0  0  0  0  0  0  0  0  0  0
   -5.3590   24.9800  -30.4000 C   0  0  0  0  0  0  0  0  0  0  0  0
   -4.1680   25.6350  -30.8390 N   0  0  0  0  0  0  0  0  0  0  0  0
   -6.0190   25.4820  -29.4510 O   0  0  0  0  0  0  0  0  0  0  0  0
   -5.0280   22.7390  -31.5130 N   0  0  0  0  0  0  0  0  0  0  0  0
   -3.5940   22.7180  -31.5780 C   0  0  0  0  0  0  0  0  0  0  0  0
   -2.9200   23.3410  -30.7150 O   0  0  0  0  0  0  0  0  0  0  0  0
   -2.8890   21.8840  -32.6010 C   0  0  0  0  0  0  0  0  0  0  0  0
   -2.0480   20.5390  -31.7940 Cl  0  0  0  0  0  0  0  0  0  0  0  0
   -5.8550   21.7660  -31.9500 C   0  0  0  0  0  0  0  0  0  0  0  0
   -5.5160   20.5420  -32.5330 C   0  0  0  0  0  0  0  0  0  0  0  0
   -5.1810   18.0450  -34.3900 C   0  0  0  0  0  0  0  0  0  0  0  0
   -5.2430   16.7430  -34.7280 N   0  0  0  0  0  0  0  0  0  0  0  0
   -6.7875   14.4198  -33.1980 H   0  0  0  0  0  0  0  0  0  0  0  0
   -7.6372   14.7204  -34.7518 H   0  0  0  0  0  0  0  0  0  0  0  0
   -5.8994   14.2659  -34.7518 H   0  0  0  0  0  0  0  0  0  0  0  0
   -7.8482   17.0206  -32.8127 H   0  0  0  0  0  0  0  0  0  0  0  0
   -8.7228   19.3959  -33.0369 H   0  0  0  0  0  0  0  0  0  0  0  0
   -9.2601   21.6248  -32.0055 H   0  0  0  0  0  0  0  0  0  0  0  0
   -8.0534   23.9926  -30.9395 H   0  0  0  0  0  0  0  0  0  0  0  0
   -3.5580   25.2190  -31.5770 H   0  0  0  0  0  0  0  0  0  0  0  0
   -3.8660   26.5280  -30.3910 H   0  0  0  0  0  0  0  0  0  0  0  0
   -3.6228   21.4818  -33.3149 H   0  0  0  0  0  0  0  0  0  0  0  0
   -2.1565   22.5046  -33.1380 H   0  0  0  0  0  0  0  0  0  0  0  0
   -4.4623   20.2616  -32.6779 H   0  0  0  0  0  0  0  0  0  0  0  0
   -4.4075   18.7514  -34.7256 H   0  0  0  0  0  0  0  0  0  0  0  0
  1  2  1  0
  2  3  1  0
  3  4  2  0
  4  5  1  0
  5  6  2  0
  6  7  1  0
  7  8  2  0
  8  9  1  0
  9 10  2  0
 10 11  1  0
 11 12  1  0
 11 13  2  0
 10 14  1  0
 14 15  1  0
 15 16  2  0
 15 17  1  0
 17 18  1  0
 14 19  1  0
 19 20  2  0
  4 21  1  0
 21 22  2  0
 22  2  1  0
 20  5  1  0
 19  8  1  0
  1 23  1  0
  1 24  1  0
  1 25  1  0
  3 26  1  0
  6 27  1  0
  7 28  1  0
  9 29  1  0
 12 30  1  0
 12 31  1  0
 17 32  1  0
 17 33  1  0
 20 34  1  0
 21 35  1  0
M  END
>  <UniqueID>  (28) 
28

>  <SMILES>  (28) 
Cn1cc(-c2ccc3cc(C(N)=O)n(C(=O)CCl)c3c2)cn1

>  <Energy>  (28) 
106.40474094181268

>  <Genealogy>  (28) 
Cn1cc(-c2ccc3cc(C(N)=O)n(C(=O)CCl)c3c2)cn1 (3D coordinates assigned)
Cn1cc(-c2ccc3cc(C(N)=O)n(C(=O)CCl)c3c2)cn1 (optimized conformer: 106.40474094181268 kcal/mol)

>  <smiles>  (28) 
Cn1cc(-c2ccc3cc(C(N)=O)n(C(=O)CCl)c3c2)cn1

>  <score_type>  (28) 
oracle

>  <origin>  (28) 
adg

>  <m_score__min__energy>  (28) 
-9.2699999999999996

>  <m_primary>  (28) 
energy

$$$$
29:0
     RDKit          3D

 48 49  0  0  0  0  0  0  0  0999 V2000
    1.9850   22.2410  -34.9620 C   0  0  0  0  0  0  0  0  0  0  0  0
    0.5610   21.8430  -34.9700 N   0  0  0  0  0  0  0  0  0  0  0  0
    0.1310   21.6090  -36.3650 C   0  0  0  0  0  0  0  0  0  0  0  0
    0.2060   20.7390  -34.0130 C   0  0  0  0  0  0  0  0  0  0  0  0
    0.2410   21.2470  -32.5470 C   0  0  0  0  0  0  0  0  0  0  0  0
    1.1720   19.5300  -34.1190 C   0  0  0  0  0  0  0  0  0  0  0  0
   -1.2390   20.2330  -34.2950 C   0  0  0  0  0  0  0  0  0  0  0  0
   -1.5950   19.1060  -33.4330 N   0  0  0  0  0  0  0  0  0  0  0  0
   -2.8960   18.5100  -33.3840 C   0  0  0  0  0  0  0  0  0  0  0  0
   -3.0340   17.2700  -33.5630 O   0  0  0  0  0  0  0  0  0  0  0  0
   -4.0550   19.3350  -33.1830 N   0  0  0  0  0  0  0  0  0  0  0  0
   -5.3340   19.0950  -33.5900 C   0  0  0  0  0  0  0  0  0  0  0  0
   -5.7630   18.0030  -34.4850 C   0  0  0  0  0  0  0  0  0  0  0  0
   -4.9820   17.6740  -35.6310 N   0  0  0  0  0  0  0  0  0  0  0  0
   -6.7930   17.3280  -34.2240 O   0  0  0  0  0  0  0  0  0  0  0  0
   -6.1930   20.0840  -33.1170 C   0  0  0  0  0  0  0  0  0  0  0  0
   -5.3940   20.9510  -32.4070 C   0  0  0  0  0  0  0  0  0  0  0  0
   -5.7260   22.1140  -31.7190 C   0  0  0  0  0  0  0  0  0  0  0  0
   -4.6970   22.8020  -31.0540 C   0  0  0  0  0  0  0  0  0  0  0  0
   -3.3670   22.3110  -31.0760 C   0  0  0  0  0  0  0  0  0  0  0  0
   -2.2720   23.0670  -30.3800 C   0  0  0  0  0  0  0  0  0  0  0  0
   -2.9190   24.6210  -29.6940 P   0  0  0  0  0  0  0  0  0  0  0  0
   -3.7570   24.3300  -28.4700 O   0  0  0  0  0  0  0  0  0  0  0  0
   -3.8690   25.4040  -30.8530 O   0  0  0  0  0  0  0  0  0  0  0  0
   -1.6260   25.6220  -29.2620 O   0  0  0  0  0  0  0  0  0  0  0  0
   -3.0680   21.1310  -31.7930 C   0  0  0  0  0  0  0  0  0  0  0  0
   -4.1090   20.4770  -32.4610 C   0  0  0  0  0  0  0  0  0  0  0  0
    2.3327   22.3382  -33.9229 H   0  0  0  0  0  0  0  0  0  0  0  0
    2.5826   21.4755  -35.4786 H   0  0  0  0  0  0  0  0  0  0  0  0
    2.0991   23.2054  -35.4786 H   0  0  0  0  0  0  0  0  0  0  0  0
   -0.8352   21.0832  -36.3676 H   0  0  0  0  0  0  0  0  0  0  0  0
    0.0248   22.5737  -36.8827 H   0  0  0  0  0  0  0  0  0  0  0  0
    0.8834   20.9959  -36.8827 H   0  0  0  0  0  0  0  0  0  0  0  0
    0.1819   20.3897  -31.8604 H   0  0  0  0  0  0  0  0  0  0  0  0
    1.1790   21.7940  -32.3708 H   0  0  0  0  0  0  0  0  0  0  0  0
   -0.6131   21.9174  -32.3708 H   0  0  0  0  0  0  0  0  0  0  0  0
    1.4446   19.1888  -33.1094 H   0  0  0  0  0  0  0  0  0  0  0  0
    0.6766   18.7113  -34.6614 H   0  0  0  0  0  0  0  0  0  0  0  0
    2.0799   19.8325  -34.6614 H   0  0  0  0  0  0  0  0  0  0  0  0
   -1.9463   21.0562  -34.1160 H   0  0  0  0  0  0  0  0  0  0  0  0
   -1.2858   19.8936  -35.3403 H   0  0  0  0  0  0  0  0  0  0  0  0
   -3.9880   17.3690  -35.5330 H   0  0  0  0  0  0  0  0  0  0  0  0
   -7.2789   20.1567  -33.2769 H   0  0  0  0  0  0  0  0  0  0  0  0
   -6.7619   22.4834  -31.6964 H   0  0  0  0  0  0  0  0  0  0  0  0
   -4.9256   23.7309  -30.5109 H   0  0  0  0  0  0  0  0  0  0  0  0
   -1.8669   22.4505  -29.5640 H   0  0  0  0  0  0  0  0  0  0  0  0
   -1.4785   23.2983  -31.1058 H   0  0  0  0  0  0  0  0  0  0  0  0
   -2.0419   20.7361  -31.8253 H   0  0  0  0  0  0  0  0  0  0  0  0
  1  2  1  0
  2  3  1  0
  2  4  1  0
  4  5  1  0
  4  6  1  0
  4  7  1  0
  7  8  1  0
  8  9  1  0
  9 10  2  0
  9 11  1  0
 11 12  1  0
 12 13  1  0
 13 14  1  0
 13 15  2  0
 12 16  2  0
 16 17  1  0
 17 18  2  0
 18 19  1  0
 19 20  2  0
 20 21  1  0
 21 22  1  0
 22 23  2  0
 22 24  1  0
 22 25  1  0
 20 26  1  0
 26 27  2  0
 27 11  1  0
 27 17  1  0
  1 28  1  0
  1 29  1  0
  1 30  1  0
  3 31  1  0
  3 32  1  0
  3 33  1  0
  5 34  1  0
  5 35  1  0
  5 36  1  0
  6 37  1  0
  6 38  1  0
  6 39  1  0
  7 40  1  0
  7 41  1  0
 14 42  1  0
 16 43  1  0
 18 44  1  0
 19 45  1  0
 21 46  1  0
 21 47  1  0
 26 48  1  0
M  CHG  4   8  -1  14  -1  24  -1  25  -1
M  END
>  <UniqueID>  (29) 
29

>  <SMILES>  (29) 
CN(C)C(C)(C)C[N-]C(=O)n1c(C([NH-])=O)cc2ccc(CP(=O)([O-])[O-])cc21

>  <Energy>  (29) 
87.79159795751784

>  <Genealogy>  (29) 
CN(C)C(C)(C)C[N-]C(=O)n1c(C([NH-])=O)cc2ccc(CP(=O)([O-])[O-])cc21 (protonated)
CN(C)C(C)(C)C[N-]C(=O)n1c(C([NH-])=O)cc2ccc(CP(=O)([O-])[O-])cc21 (3D coordinates assigned)
CN(C)C(C)(C)C[N-]C(=O)n1c(C([NH-])=O)cc2ccc(CP(=O)([O-])[O-])cc21 (optimized conformer: 87.79159795751784 kcal/mol)

>  <smiles>  (29) 
CN(C)C(C)(C)CNC(=O)n1c(C(N)=O)cc2ccc(CP(=O)(O)O)cc21

>  <score_type>  (29) 
oracle

>  <origin>  (29) 
adg

>  <m_score__min__energy>  (29) 
-11.66

>  <m_primary>  (29) 
energy

$$$$
30:0
     RDKit          3D

 41 42  0  0  0  0  0  0  0  0999 V2000
   -3.8720   21.9220  -28.6410 C   0  0  0  0  0  0  0  0  0  0  0  0
   -3.0020   22.4360  -29.7010 N   0  0  0  0  0  0  0  0  0  0  0  0
   -1.7260   23.0720  -29.3350 C   0  0  0  0  0  0  0  0  0  0  0  0
   -1.9650   24.3920  -28.5620 C   0  0  1  0  0  0  0  0  0  0  0  0
   -2.7170   25.2840  -29.3450 O   0  0  0  0  0  0  0  0  0  0  0  0
   -2.6970   24.1530  -27.2320 C   0  0  0  0  0  0  0  0  0  0  0  0
   -3.9820   24.7160  -27.2520 O   0  0  0  0  0  0  0  0  0  0  0  0
   -3.4880   22.4380  -31.0620 C   0  0  0  0  0  0  0  0  0  0  0  0
   -2.6730   22.3180  -32.0180 O   0  0  0  0  0  0  0  0  0  0  0  0
   -4.8850   22.5820  -31.3560 N   0  0  0  0  0  0  0  0  0  0  0  0
   -5.7170   23.5900  -30.9670 C   0  0  0  0  0  0  0  0  0  0  0  0
   -5.3190   24.8270  -30.2550 C   0  0  0  0  0  0  0  0  0  0  0  0
   -5.6740   25.0630  -28.8920 N   0  0  0  0  0  0  0  0  0  0  0  0
   -4.6170   25.6820  -30.8600 O   0  0  0  0  0  0  0  0  0  0  0  0
   -7.0380   23.2830  -31.2860 C   0  0  0  0  0  0  0  0  0  0  0  0
   -6.9930   22.0390  -31.8730 C   0  0  0  0  0  0  0  0  0  0  0  0
   -8.0260   21.2280  -32.3350 C   0  0  0  0  0  0  0  0  0  0  0  0
   -7.6930   19.9540  -32.8250 C   0  0  0  0  0  0  0  0  0  0  0  0
   -6.3450   19.5160  -32.8420 C   0  0  0  0  0  0  0  0  0  0  0  0
   -6.0110   18.1330  -33.3140 C   0  0  0  0  0  0  0  0  0  0  0  0
   -5.9190   18.1250  -34.6930 F   0  0  0  0  0  0  0  0  0  0  0  0
   -5.3280   20.3580  -32.3440 C   0  0  0  0  0  0  0  0  0  0  0  0
   -5.6840   21.6330  -31.8900 C   0  0  0  0  0  0  0  0  0  0  0  0
   -3.4435   22.1751  -27.6600 H   0  0  0  0  0  0  0  0  0  0  0  0
   -4.8698   22.3757  -28.7334 H   0  0  0  0  0  0  0  0  0  0  0  0
   -3.9561   20.8291  -28.7334 H   0  0  0  0  0  0  0  0  0  0  0  0
   -1.1497   22.3828  -28.7002 H   0  0  0  0  0  0  0  0  0  0  0  0
   -1.1719   23.3015  -30.2571 H   0  0  0  0  0  0  0  0  0  0  0  0
   -0.9769   24.8223  -28.3417 H   0  0  0  0  0  0  0  0  0  0  0  0
   -3.6280   25.3130  -28.9520 H   0  0  0  0  0  0  0  0  0  0  0  0
   -2.7824   23.0701  -27.0589 H   0  0  0  0  0  0  0  0  0  0  0  0
   -2.1201   24.6302  -26.4261 H   0  0  0  0  0  0  0  0  0  0  0  0
   -3.8770   25.6620  -27.5340 H   0  0  0  0  0  0  0  0  0  0  0  0
   -5.4310   25.9740  -28.4400 H   0  0  0  0  0  0  0  0  0  0  0  0
   -6.0970   24.3220  -28.2950 H   0  0  0  0  0  0  0  0  0  0  0  0
   -7.9284   23.9035  -31.1067 H   0  0  0  0  0  0  0  0  0  0  0  0
   -9.0701   21.5738  -32.3170 H   0  0  0  0  0  0  0  0  0  0  0  0
   -8.4862   19.2900  -33.1991 H   0  0  0  0  0  0  0  0  0  0  0  0
   -5.0495   17.8203  -32.8808 H   0  0  0  0  0  0  0  0  0  0  0  0
   -6.8011   17.4369  -32.9958 H   0  0  0  0  0  0  0  0  0  0  0  0
   -4.2815   20.0206  -32.3134 H   0  0  0  0  0  0  0  0  0  0  0  0
  1  2  1  0
  2  3  1  0
  3  4  1  0
  4  5  1  0
  4  6  1  0
  6  7  1  0
  2  8  1  0
  8  9  2  0
  8 10  1  0
 10 11  1  0
 11 12  1  0
 12 13  1  0
 12 14  2  0
 11 15  2  0
 15 16  1  0
 16 17  2  0
 17 18  1  0
 18 19  2  0
 19 20  1  0
 20 21  1  0
 19 22  1  0
 22 23  2  0
 23 10  1  0
 23 16  1  0
  1 24  1  0
  1 25  1  0
  1 26  1  0
  3 27  1  0
  3 28  1  0
  4 29  1  1
  5 30  1  0
  6 31  1  0
  6 32  1  0
  7 33  1  0
 13 34  1  0
 13 35  1  0
 15 36  1  0
 17 37  1  0
 18 38  1  0
 20 39  1  0
 20 40  1  0
 22 41  1  0
M  END
>  <UniqueID>  (30) 
30

>  <SMILES>  (30) 
CN(C[C@@H](O)CO)C(=O)n1c(C(N)=O)cc2ccc(CF)cc21

>  <Energy>  (30) 
77.98495616170352

>  <Genealogy>  (30) 
CN(C[C@@H](O)CO)C(=O)n1c(C(N)=O)cc2ccc(CF)cc21 (chirality)
CN(C[C@@H](O)CO)C(=O)n1c(C(N)=O)cc2ccc(CF)cc21 (3D coordinates assigned)
CN(C[C@@H](O)CO)C(=O)n1c(C(N)=O)cc2ccc(CF)cc21 (optimized conformer: 77.98495616170352 kcal/mol)

>  <smiles>  (30) 
CN(CC(O)CO)C(=O)n1c(C(N)=O)cc2ccc(CF)cc21

>  <score_type>  (30) 
oracle

>  <origin>  (30) 
adg

>  <m_score__min__energy>  (30) 
-8.5299999999999994

>  <m_primary>  (30) 
energy

$$$$
31:0
     RDKit          3D

 43 44  0  0  0  0  0  0  0  0999 V2000
   -4.2090   25.5700  -30.7200 N   0  0  0  0  0  0  0  0  0  0  0  0
   -5.5180   25.1400  -30.3460 C   0  0  0  0  0  0  0  0  0  0  0  0
   -6.2050   25.8580  -29.5710 O   0  0  0  0  0  0  0  0  0  0  0  0
   -6.0640   23.8490  -30.8120 C   0  0  0  0  0  0  0  0  0  0  0  0
   -7.3920   23.6670  -31.1900 C   0  0  0  0  0  0  0  0  0  0  0  0
   -7.4980   22.3330  -31.5180 C   0  0  0  0  0  0  0  0  0  0  0  0
   -8.5860   21.6140  -32.0000 C   0  0  0  0  0  0  0  0  0  0  0  0
   -8.3910   20.2560  -32.3100 C   0  0  0  0  0  0  0  0  0  0  0  0
   -7.1250   19.6430  -32.1270 C   0  0  0  0  0  0  0  0  0  0  0  0
   -6.9100   18.2060  -32.5260 C   0  0  0  0  0  0  0  0  0  0  0  0
   -6.6050   18.1470  -33.8720 F   0  0  0  0  0  0  0  0  0  0  0  0
   -5.8710   17.6480  -31.8020 F   0  0  0  0  0  0  0  0  0  0  0  0
   -8.0520   17.4570  -32.2890 F   0  0  0  0  0  0  0  0  0  0  0  0
   -6.0380   20.4170  -31.6580 C   0  0  0  0  0  0  0  0  0  0  0  0
   -6.2660   21.7610  -31.3410 C   0  0  0  0  0  0  0  0  0  0  0  0
   -5.3730   22.6790  -30.9150 N   0  0  0  0  0  0  0  0  0  0  0  0
   -3.9590   22.4700  -30.7680 C   0  0  0  0  0  0  0  0  0  0  0  0
   -3.1510   23.3180  -31.2360 O   0  0  0  0  0  0  0  0  0  0  0  0
   -3.4310   21.2870  -30.0050 C   0  0  0  0  0  0  0  0  0  0  0  0
   -1.8970   21.3170  -29.8910 C   0  0  0  0  0  0  0  0  0  0  0  0
   -1.3890   22.5550  -29.2640 N   0  0  0  0  0  0  0  0  0  0  0  0
   -1.9730   22.8410  -27.9430 C   0  0  0  0  0  0  0  0  0  0  0  0
   -1.4880   24.1660  -27.3230 C   0  0  0  0  0  0  0  0  0  0  0  0
   -1.2430   25.2820  -28.3510 C   0  0  0  0  0  0  0  0  0  0  0  0
   -2.2490   25.2980  -29.3270 O   0  0  0  0  0  0  0  0  0  0  0  0
   -3.8640   26.5110  -30.4240 H   0  0  0  0  0  0  0  0  0  0  0  0
   -3.5470   24.9300  -31.2110 H   0  0  0  0  0  0  0  0  0  0  0  0
   -8.1871   24.4266  -31.2203 H   0  0  0  0  0  0  0  0  0  0  0  0
   -9.5676   22.0918  -32.1346 H   0  0  0  0  0  0  0  0  0  0  0  0
   -9.2309   19.6618  -32.6993 H   0  0  0  0  0  0  0  0  0  0  0  0
   -5.0378   19.9734  -31.5452 H   0  0  0  0  0  0  0  0  0  0  0  0
   -3.8631   21.2944  -28.9935 H   0  0  0  0  0  0  0  0  0  0  0  0
   -3.7149   20.3749  -30.5504 H   0  0  0  0  0  0  0  0  0  0  0  0
   -1.5737   20.4585  -29.2841 H   0  0  0  0  0  0  0  0  0  0  0  0
   -1.4901   21.2743  -30.9121 H   0  0  0  0  0  0  0  0  0  0  0  0
   -1.4550   23.3880  -29.8880 H   0  0  0  0  0  0  0  0  0  0  0  0
   -3.0668   22.8879  -28.0500 H   0  0  0  0  0  0  0  0  0  0  0  0
   -1.6506   22.0342  -27.2683 H   0  0  0  0  0  0  0  0  0  0  0  0
   -2.2495   24.5136  -26.6094 H   0  0  0  0  0  0  0  0  0  0  0  0
   -0.5212   23.9580  -26.8412 H   0  0  0  0  0  0  0  0  0  0  0  0
   -1.2301   26.2519  -27.8323 H   0  0  0  0  0  0  0  0  0  0  0  0
   -0.2785   25.0958  -28.8460 H   0  0  0  0  0  0  0  0  0  0  0  0
   -2.0720   24.5290  -29.9300 H   0  0  0  0  0  0  0  0  0  0  0  0
  1  2  1  0
  2  3  2  0
  2  4  1  0
  4  5  2  0
  5  6  1  0
  6  7  2  0
  7  8  1  0
  8  9  2  0
  9 10  1  0
 10 11  1  0
 10 12  1  0
 10 13  1  0
  9 14  1  0
 14 15  2  0
 15 16  1  0
 16 17  1  0
 17 18  2  0
 17 19  1  0
 19 20  1  0
 20 21  1  0
 21 22  1  0
 22 23  1  0
 23 24  1  0
 24 25  1  0
 16  4  1  0
 15  6  1  0
  1 26  1  0
  1 27  1  0
  5 28  1  0
  7 29  1  0
  8 30  1  0
 14 31  1  0
 19 32  1  0
 19 33  1  0
 20 34  1  0
 20 35  1  0
 21 36  1  0
 22 37  1  0
 22 38  1  0
 23 39  1  0
 23 40  1  0
 24 41  1  0
 24 42  1  0
 25 43  1  0
M  END
>  <UniqueID>  (31) 
31

>  <SMILES>  (31) 
NC(=O)c1cc2ccc(C(F)(F)F)cc2n1C(=O)CCNCCCO

>  <Energy>  (31) 
79.5662713885357

>  <Genealogy>  (31) 
NC(=O)c1cc2ccc(C(F)(F)F)cc2n1C(=O)CCNCCCO (3D coordinates assigned)
NC(=O)c1cc2ccc(C(F)(F)F)cc2n1C(=O)CCNCCCO (optimized conformer: 79.5662713885357 kcal/mol)

>  <smiles>  (31) 
NC(=O)c1cc2ccc(C(F)(F)F)cc2n1C(=O)CCNCCCO

>  <score_type>  (31) 
oracle

>  <origin>  (31) 
adg

>  <m_score__min__energy>  (31) 
-7.8499999999999996

>  <m_primary>  (31) 
energy

$$$$
32:0
     RDKit          3D

 42 43  0  0  0  0  0  0  0  0999 V2000
   -8.0280   18.5070  -32.2470 C   0  0  0  0  0  0  0  0  0  0  0  0
   -7.8370   19.9030  -31.7360 C   0  0  0  0  0  0  0  0  0  0  0  0
   -8.9510   20.6450  -31.2710 C   0  0  0  0  0  0  0  0  0  0  0  0
   -8.7970   21.9720  -30.8390 C   0  0  0  0  0  0  0  0  0  0  0  0
   -7.5220   22.5290  -30.8850 C   0  0  0  0  0  0  0  0  0  0  0  0
   -7.1000   23.8000  -30.5650 C   0  0  0  0  0  0  0  0  0  0  0  0
   -5.7330   23.8090  -30.8260 C   0  0  0  0  0  0  0  0  0  0  0  0
   -4.8600   24.9690  -30.5570 C   0  0  0  0  0  0  0  0  0  0  0  0
   -3.4540   24.8100  -30.3660 N   0  0  0  0  0  0  0  0  0  0  0  0
   -5.3740   26.1140  -30.4350 O   0  0  0  0  0  0  0  0  0  0  0  0
   -5.3250   22.5990  -31.3020 N   0  0  0  0  0  0  0  0  0  0  0  0
   -4.0240   22.2450  -31.7940 C   0  0  0  0  0  0  0  0  0  0  0  0
   -3.6510   22.6470  -32.9300 O   0  0  0  0  0  0  0  0  0  0  0  0
   -3.1760   21.4560  -31.0100 O   0  0  0  0  0  0  0  0  0  0  0  0
   -2.4160   21.9730  -29.9230 C   0  0  0  0  0  0  0  0  0  0  0  0
   -3.2820   22.3070  -28.8430 O   0  0  0  0  0  0  0  0  0  0  0  0
   -2.8080   22.7250  -27.5950 C   0  0  0  0  0  0  0  0  0  0  0  0
   -2.2880   21.8880  -26.8050 O   0  0  0  0  0  0  0  0  0  0  0  0
   -2.9110   24.1080  -27.2140 N   0  0  0  0  0  0  0  0  0  0  0  0
   -4.2060   24.6480  -26.7900 C   0  0  0  0  0  0  0  0  0  0  0  0
   -1.7130   24.9550  -27.1960 C   0  0  0  0  0  0  0  0  0  0  0  0
   -1.3250   25.3260  -28.5930 C   0  0  0  0  0  0  0  0  0  0  0  0
   -1.0960   24.4310  -29.4470 O   0  0  0  0  0  0  0  0  0  0  0  0
   -1.2440   26.6640  -28.9600 O   0  0  0  0  0  0  0  0  0  0  0  0
   -6.4320   21.8230  -31.3280 C   0  0  0  0  0  0  0  0  0  0  0  0
   -6.5610   20.5070  -31.7860 C   0  0  0  0  0  0  0  0  0  0  0  0
   -8.1227   17.8152  -31.3971 H   0  0  0  0  0  0  0  0  0  0  0  0
   -8.9406   18.4624  -32.8595 H   0  0  0  0  0  0  0  0  0  0  0  0
   -7.1609   18.2189  -32.8595 H   0  0  0  0  0  0  0  0  0  0  0  0
   -9.9461   20.1768  -31.2483 H   0  0  0  0  0  0  0  0  0  0  0  0
   -9.6571   22.5535  -30.4755 H   0  0  0  0  0  0  0  0  0  0  0  0
   -7.7124   24.6307  -30.1844 H   0  0  0  0  0  0  0  0  0  0  0  0
   -2.8510   25.6450  -30.1980 H   0  0  0  0  0  0  0  0  0  0  0  0
   -3.0210   23.8630  -30.3060 H   0  0  0  0  0  0  0  0  0  0  0  0
   -1.6929   21.2140  -29.5897 H   0  0  0  0  0  0  0  0  0  0  0  0
   -1.8812   22.8763  -30.2517 H   0  0  0  0  0  0  0  0  0  0  0  0
   -4.2531   24.6676  -25.6912 H   0  0  0  0  0  0  0  0  0  0  0  0
   -4.3227   25.6698  -27.1803 H   0  0  0  0  0  0  0  0  0  0  0  0
   -5.0141   24.0119  -27.1803 H   0  0  0  0  0  0  0  0  0  0  0  0
   -1.9224   25.8694  -26.6215 H   0  0  0  0  0  0  0  0  0  0  0  0
   -0.8865   24.4002  -26.7279 H   0  0  0  0  0  0  0  0  0  0  0  0
   -5.6913   19.9571  -32.1749 H   0  0  0  0  0  0  0  0  0  0  0  0
  1  2  1  0
  2  3  2  0
  3  4  1  0
  4  5  2  0
  5  6  1  0
  6  7  2  0
  7  8  1  0
  8  9  1  0
  8 10  2  0
  7 11  1  0
 11 12  1  0
 12 13  2  0
 12 14  1  0
 14 15  1  0
 15 16  1  0
 16 17  1  0
 17 18  2  0
 17 19  1  0
 19 20  1  0
 19 21  1  0
 21 22  1  0
 22 23  2  0
 22 24  1  0
 11 25  1  0
 25 26  2  0
 26  2  1  0
 25  5  1  0
  1 27  1  0
  1 28  1  0
  1 29  1  0
  3 30  1  0
  4 31  1  0
  6 32  1  0
  9 33  1  0
  9 34  1  0
 15 35  1  0
 15 36  1  0
 20 37  1  0
 20 38  1  0
 20 39  1  0
 21 40  1  0
 21 41  1  0
 26 42  1  0
M  CHG  1  24  -1
M  END
>  <UniqueID>  (32) 
32

>  <SMILES>  (32) 
Cc1ccc2cc(C(N)=O)n(C(=O)OCOC(=O)N(C)CC(=O)[O-])c2c1

>  <Energy>  (32) 
72.9097973345562

>  <Genealogy>  (32) 
Cc1ccc2cc(C(N)=O)n(C(=O)OCOC(=O)N(C)CC(=O)[O-])c2c1 (protonated)
Cc1ccc2cc(C(N)=O)n(C(=O)OCOC(=O)N(C)CC(=O)[O-])c2c1 (3D coordinates assigned)
Cc1ccc2cc(C(N)=O)n(C(=O)OCOC(=O)N(C)CC(=O)[O-])c2c1 (optimized conformer: 72.9097973345562 kcal/mol)

>  <smiles>  (32) 
Cc1ccc2cc(C(N)=O)n(C(=O)OCOC(=O)N(C)CC(=O)O)c2c1

>  <score_type>  (32) 
oracle

>  <origin>  (32) 
adg

>  <m_score__min__energy>  (32) 
-9.7200000000000006

>  <m_primary>  (32) 
energy

$$$$
33:0
     RDKit          3D

 45 46  0  0  0  0  0  0  0  0999 V2000
   -5.2640   25.0990  -29.7080 N   0  0  0  0  0  0  0  0  0  0  0  0
   -6.5630   24.6090  -30.0590 C   0  0  0  0  0  0  0  0  0  0  0  0
   -7.5660   25.3350  -29.8250 O   0  0  0  0  0  0  0  0  0  0  0  0
   -6.7350   23.2730  -30.6860 C   0  0  0  0  0  0  0  0  0  0  0  0
   -7.9700   22.7070  -31.0080 C   0  0  0  0  0  0  0  0  0  0  0  0
   -7.6780   21.5040  -31.6130 C   0  0  0  0  0  0  0  0  0  0  0  0
   -8.5280   20.5240  -32.1170 C   0  0  0  0  0  0  0  0  0  0  0  0
   -7.9470   19.3730  -32.6790 C   0  0  0  0  0  0  0  0  0  0  0  0
   -6.5370   19.2270  -32.7320 C   0  0  0  0  0  0  0  0  0  0  0  0
   -5.9280   17.9730  -33.3020 C   0  0  0  0  0  0  0  0  0  0  0  0
   -5.3340   18.2330  -34.5250 F   0  0  0  0  0  0  0  0  0  0  0  0
   -6.9180   17.0230  -33.4750 F   0  0  0  0  0  0  0  0  0  0  0  0
   -4.9600   17.4660  -32.4510 F   0  0  0  0  0  0  0  0  0  0  0  0
   -5.7100   20.2310  -32.1780 C   0  0  0  0  0  0  0  0  0  0  0  0
   -6.3180   21.3700  -31.6390 C   0  0  0  0  0  0  0  0  0  0  0  0
   -5.7260   22.4430  -31.0780 N   0  0  0  0  0  0  0  0  0  0  0  0
   -4.3100   22.6330  -30.9190 C   0  0  0  0  0  0  0  0  0  0  0  0
   -3.7300   23.5300  -31.5880 O   0  0  0  0  0  0  0  0  0  0  0  0
   -3.5600   21.8230  -29.9920 N   0  0  0  0  0  0  0  0  0  0  0  0
   -2.4920   20.9460  -30.4930 C   0  0  0  0  0  0  0  0  0  0  0  0
   -1.1250   21.6000  -30.2820 C   0  0  0  0  0  0  0  0  0  0  0  0
   -1.2050   22.9840  -30.4850 O   0  0  0  0  0  0  0  0  0  0  0  0
   -3.7440   21.9820  -28.5690 C   0  0  0  0  0  0  0  0  0  0  0  0
   -3.3960   21.0620  -27.7780 O   0  0  0  0  0  0  0  0  0  0  0  0
   -4.3130   23.1900  -28.0490 N   0  0  0  0  0  0  0  0  0  0  0  0
   -3.5820   24.1440  -27.2220 C   0  0  0  0  0  0  0  0  0  0  0  0
   -2.1290   24.2460  -27.6860 C   0  0  0  0  0  0  0  0  0  0  0  0
   -2.0010   25.2400  -28.7940 C   0  0  0  0  0  0  0  0  0  0  0  0
   -2.8590   25.2760  -29.7170 O   0  0  0  0  0  0  0  0  0  0  0  0
   -0.9070   26.0940  -28.8410 O   0  0  0  0  0  0  0  0  0  0  0  0
   -4.4150   24.4970  -29.7700 H   0  0  0  0  0  0  0  0  0  0  0  0
   -5.1610   26.0660  -29.3250 H   0  0  0  0  0  0  0  0  0  0  0  0
   -8.9667   23.1321  -30.8185 H   0  0  0  0  0  0  0  0  0  0  0  0
   -9.6205   20.6459  -32.0771 H   0  0  0  0  0  0  0  0  0  0  0  0
   -8.5923   18.5782  -33.0814 H   0  0  0  0  0  0  0  0  0  0  0  0
   -4.6157   20.1194  -32.1709 H   0  0  0  0  0  0  0  0  0  0  0  0
   -2.5240   19.9893  -29.9511 H   0  0  0  0  0  0  0  0  0  0  0  0
   -2.6446   20.7751  -31.5689 H   0  0  0  0  0  0  0  0  0  0  0  0
   -0.7851   21.4042  -29.2543 H   0  0  0  0  0  0  0  0  0  0  0  0
   -0.4129   21.1756  -31.0051 H   0  0  0  0  0  0  0  0  0  0  0  0
   -2.1000   23.2640  -30.1640 H   0  0  0  0  0  0  0  0  0  0  0  0
   -4.0583   25.1324  -27.3014 H   0  0  0  0  0  0  0  0  0  0  0  0
   -3.6002   23.7991  -26.1776 H   0  0  0  0  0  0  0  0  0  0  0  0
   -1.5007   24.5635  -26.8407 H   0  0  0  0  0  0  0  0  0  0  0  0
   -1.8031   23.2614  -28.0526 H   0  0  0  0  0  0  0  0  0  0  0  0
  1  2  1  0
  2  3  2  0
  2  4  1  0
  4  5  2  0
  5  6  1  0
  6  7  2  0
  7  8  1  0
  8  9  2  0
  9 10  1  0
 10 11  1  0
 10 12  1  0
 10 13  1  0
  9 14  1  0
 14 15  2  0
 15 16  1  0
 16 17  1  0
 17 18  2  0
 17 19  1  0
 19 20  1  0
 20 21  1  0
 21 22  1  0
 19 23  1  0
 23 24  2  0
 23 25  1  0
 25 26  1  0
 26 27  1  0
 27 28  1  0
 28 29  2  0
 28 30  1  0
 16  4  1  0
 15  6  1  0
  1 31  1  0
  1 32  1  0
  5 33  1  0
  7 34  1  0
  8 35  1  0
 14 36  1  0
 20 37  1  0
 20 38  1  0
 21 39  1  0
 21 40  1  0
 22 41  1  0
 26 42  1  0
 26 43  1  0
 27 44  1  0
 27 45  1  0
M  CHG  2  25  -1  30  -1
M  END
>  <UniqueID>  (33) 
33

>  <SMILES>  (33) 
NC(=O)c1cc2ccc(C(F)(F)F)cc2n1C(=O)N(CCO)C(=O)[N-]CCC(=O)[O-]

>  <Energy>  (33) 
79.32937175160471

>  <Genealogy>  (33) 
NC(=O)c1cc2ccc(C(F)(F)F)cc2n1C(=O)N(CCO)C(=O)[N-]CCC(=O)[O-] (protonated)
NC(=O)c1cc2ccc(C(F)(F)F)cc2n1C(=O)N(CCO)C(=O)[N-]CCC(=O)[O-] (3D coordinates assigned)
NC(=O)c1cc2ccc(C(F)(F)F)cc2n1C(=O)N(CCO)C(=O)[N-]CCC(=O)[O-] (optimized conformer: 79.32937175160471 kcal/mol)

>  <smiles>  (33) 
NC(=O)c1cc2ccc(C(F)(F)F)cc2n1C(=O)N(CCO)C(=O)NCCC(=O)O

>  <score_type>  (33) 
oracle

>  <origin>  (33) 
adg

>  <m_score__min__energy>  (33) 
-11.08

>  <m_primary>  (33) 
energy

$$$$
34:0
     RDKit          3D

 42 43  0  0  0  0  0  0  0  0999 V2000
   -3.3240   21.9090  -32.8920 C   0  0  0  0  0  0  0  0  0  0  0  0
   -3.8220   22.6450  -31.6890 C   0  0  0  0  0  0  0  0  0  0  0  0
   -2.9900   23.1570  -30.8930 O   0  0  0  0  0  0  0  0  0  0  0  0
   -5.2280   22.8470  -31.4790 N   0  0  0  0  0  0  0  0  0  0  0  0
   -5.8440   23.8700  -30.8220 C   0  0  0  0  0  0  0  0  0  0  0  0
   -5.1870   25.0880  -30.3050 C   0  0  0  0  0  0  0  0  0  0  0  0
   -3.9670   25.5590  -30.8700 N   0  0  0  0  0  0  0  0  0  0  0  0
   -5.7320   25.7460  -29.3780 O   0  0  0  0  0  0  0  0  0  0  0  0
   -7.2200   23.6550  -30.7690 C   0  0  0  0  0  0  0  0  0  0  0  0
   -7.4290   22.4660  -31.4300 C   0  0  0  0  0  0  0  0  0  0  0  0
   -8.6090   21.7680  -31.6710 C   0  0  0  0  0  0  0  0  0  0  0  0
   -8.5230   20.5500  -32.3660 C   0  0  0  0  0  0  0  0  0  0  0  0
   -7.2700   20.0530  -32.8170 C   0  0  0  0  0  0  0  0  0  0  0  0
   -7.1940   18.7890  -33.5200 N   0  0  0  0  0  0  0  0  0  0  0  0
   -6.3190   17.7660  -32.8720 C   0  0  0  0  0  0  0  0  0  0  0  0
   -6.4680   17.7870  -31.3220 C   0  0  0  0  0  0  0  0  0  0  0  0
   -5.8570   16.6680  -30.7400 O   0  0  0  0  0  0  0  0  0  0  0  0
   -4.8250   18.0150  -33.2410 C   0  0  0  0  0  0  0  0  0  0  0  0
   -4.6670   18.3140  -34.6050 O   0  0  0  0  0  0  0  0  0  0  0  0
   -6.7170   16.3580  -33.4050 C   0  0  0  0  0  0  0  0  0  0  0  0
   -6.8390   16.3620  -34.8030 O   0  0  0  0  0  0  0  0  0  0  0  0
   -6.0930   20.7860  -32.5300 C   0  0  0  0  0  0  0  0  0  0  0  0
   -6.2120   22.0010  -31.8500 C   0  0  0  0  0  0  0  0  0  0  0  0
   -2.7344   21.0377  -32.5707 H   0  0  0  0  0  0  0  0  0  0  0  0
   -4.1795   21.5707  -33.4950 H   0  0  0  0  0  0  0  0  0  0  0  0
   -2.6918   22.5773  -33.4950 H   0  0  0  0  0  0  0  0  0  0  0  0
   -3.0450   25.2740  -30.4720 H   0  0  0  0  0  0  0  0  0  0  0  0
   -7.9779   24.2988  -30.2988 H   0  0  0  0  0  0  0  0  0  0  0  0
   -9.5787   22.1579  -31.3280 H   0  0  0  0  0  0  0  0  0  0  0  0
   -9.4383   19.9728  -32.5639 H   0  0  0  0  0  0  0  0  0  0  0  0
   -8.1660   18.4150  -33.6320 H   0  0  0  0  0  0  0  0  0  0  0  0
   -6.8490   18.9700  -34.4930 H   0  0  0  0  0  0  0  0  0  0  0  0
   -5.9959   18.6992  -30.9283 H   0  0  0  0  0  0  0  0  0  0  0  0
   -7.5396   17.7676  -31.0743 H   0  0  0  0  0  0  0  0  0  0  0  0
   -6.0990   16.6880  -29.7770 H   0  0  0  0  0  0  0  0  0  0  0  0
   -4.4471   18.8591  -32.6454 H   0  0  0  0  0  0  0  0  0  0  0  0
   -4.2617   17.0951  -33.0252 H   0  0  0  0  0  0  0  0  0  0  0  0
   -5.0150   17.5360  -35.1160 H   0  0  0  0  0  0  0  0  0  0  0  0
   -5.9434   15.6321  -33.1141 H   0  0  0  0  0  0  0  0  0  0  0  0
   -7.6893   16.0825  -32.9706 H   0  0  0  0  0  0  0  0  0  0  0  0
   -6.4860   17.2380  -35.1090 H   0  0  0  0  0  0  0  0  0  0  0  0
   -5.1065   20.4073  -32.8356 H   0  0  0  0  0  0  0  0  0  0  0  0
  1  2  1  0
  2  3  2  0
  2  4  1  0
  4  5  1  0
  5  6  1  0
  6  7  1  0
  6  8  2  0
  5  9  2  0
  9 10  1  0
 10 11  2  0
 11 12  1  0
 12 13  2  0
 13 14  1  0
 14 15  1  0
 15 16  1  0
 16 17  1  0
 15 18  1  0
 18 19  1  0
 15 20  1  0
 20 21  1  0
 13 22  1  0
 22 23  2  0
 23  4  1  0
 23 10  1  0
  1 24  1  0
  1 25  1  0
  1 26  1  0
  7 27  1  0
  9 28  1  0
 11 29  1  0
 12 30  1  0
 14 31  1  0
 14 32  1  0
 16 33  1  0
 16 34  1  0
 17 35  1  0
 18 36  1  0
 18 37  1  0
 19 38  1  0
 20 39  1  0
 20 40  1  0
 21 41  1  0
 22 42  1  0
M  CHG  2   7  -1  14   1
M  END
>  <UniqueID>  (34) 
34

>  <SMILES>  (34) 
CC(=O)n1c(C([NH-])=O)cc2ccc([NH2+]C(CO)(CO)CO)cc21

>  <Energy>  (34) 
85.33978920469714

>  <Genealogy>  (34) 
CC(=O)n1c(C([NH-])=O)cc2ccc([NH2+]C(CO)(CO)CO)cc21 (protonated)
CC(=O)n1c(C([NH-])=O)cc2ccc([NH2+]C(CO)(CO)CO)cc21 (3D coordinates assigned)
CC(=O)n1c(C([NH-])=O)cc2ccc([NH2+]C(CO)(CO)CO)cc21 (optimized conformer: 85.33978920469714 kcal/mol)

>  <smiles>  (34) 
CC(=O)n1c(C(N)=O)cc2ccc(NC(CO)(CO)CO)cc21

>  <score_type>  (34) 
oracle

>  <origin>  (34) 
adg

>  <m_score__min__energy>  (34) 
-8.9600000000000009

>  <m_primary>  (34) 
energy

$$$$
35:0
     RDKit          3D

 41 42  0  0  0  0  0  0  0  0999 V2000
   -0.6910   21.5880  -27.0770 C   0  0  0  0  0  0  0  0  0  0  0  0
   -1.5970   22.4550  -27.8380 N   0  0  0  0  0  0  0  0  0  0  0  0
   -1.6400   23.8930  -27.5440 C   0  0  0  0  0  0  0  0  0  0  0  0
   -0.9270   24.6860  -28.5980 C   0  0  0  0  0  0  0  0  0  0  0  0
    0.3020   24.5040  -28.8010 O   0  0  0  0  0  0  0  0  0  0  0  0
   -1.6010   25.6640  -29.3170 O   0  0  0  0  0  0  0  0  0  0  0  0
   -2.3000   21.9030  -28.9700 C   0  0  0  0  0  0  0  0  0  0  0  0
   -1.7140   21.0760  -29.7210 O   0  0  0  0  0  0  0  0  0  0  0  0
   -3.6640   22.2690  -29.2570 N   0  0  0  0  0  0  0  0  0  0  0  0
   -4.4890   22.7510  -28.1450 C   0  0  0  0  0  0  0  0  0  0  0  0
   -4.0420   22.5760  -30.6170 C   0  0  0  0  0  0  0  0  0  0  0  0
   -3.1540   22.7250  -31.4980 O   0  0  0  0  0  0  0  0  0  0  0  0
   -5.4130   22.8370  -30.9670 N   0  0  0  0  0  0  0  0  0  0  0  0
   -6.1080   24.0050  -30.8690 C   0  0  0  0  0  0  0  0  0  0  0  0
   -5.5680   25.2980  -30.4050 C   0  0  0  0  0  0  0  0  0  0  0  0
   -4.2190   25.6540  -30.7010 N   0  0  0  0  0  0  0  0  0  0  0  0
   -6.2830   26.0940  -29.7420 O   0  0  0  0  0  0  0  0  0  0  0  0
   -7.4390   23.8110  -31.2360 C   0  0  0  0  0  0  0  0  0  0  0  0
   -7.5410   22.4750  -31.5510 C   0  0  0  0  0  0  0  0  0  0  0  0
   -8.6400   21.7310  -31.9670 C   0  0  0  0  0  0  0  0  0  0  0  0
   -8.4530   20.3590  -32.2090 C   0  0  0  0  0  0  0  0  0  0  0  0
   -7.1800   19.7600  -32.0340 C   0  0  0  0  0  0  0  0  0  0  0  0
   -7.0040   18.2910  -32.2930 C   0  0  0  0  0  0  0  0  0  0  0  0
   -8.2390   17.6690  -32.3150 F   0  0  0  0  0  0  0  0  0  0  0  0
   -6.2280   17.7330  -31.2940 F   0  0  0  0  0  0  0  0  0  0  0  0
   -6.0860   20.5490  -31.6100 C   0  0  0  0  0  0  0  0  0  0  0  0
   -6.3050   21.9100  -31.3740 C   0  0  0  0  0  0  0  0  0  0  0  0
   -0.8533   21.7433  -26.0002 H   0  0  0  0  0  0  0  0  0  0  0  0
   -0.8911   20.5364  -27.3301 H   0  0  0  0  0  0  0  0  0  0  0  0
    0.3508   21.8342  -27.3301 H   0  0  0  0  0  0  0  0  0  0  0  0
   -2.6898   24.2184  -27.4996 H   0  0  0  0  0  0  0  0  0  0  0  0
   -1.1380   24.0656  -26.5806 H   0  0  0  0  0  0  0  0  0  0  0  0
   -4.0161   22.4747  -27.1910 H   0  0  0  0  0  0  0  0  0  0  0  0
   -4.5818   23.8454  -28.2048 H   0  0  0  0  0  0  0  0  0  0  0  0
   -5.4880   22.2945  -28.2048 H   0  0  0  0  0  0  0  0  0  0  0  0
   -3.4930   25.6760  -29.9510 H   0  0  0  0  0  0  0  0  0  0  0  0
   -8.2385   24.5659  -31.2672 H   0  0  0  0  0  0  0  0  0  0  0  0
   -9.6250   22.2016  -32.1024 H   0  0  0  0  0  0  0  0  0  0  0  0
   -9.3034   19.7436  -32.5377 H   0  0  0  0  0  0  0  0  0  0  0  0
   -6.5077   18.1532  -33.2649 H   0  0  0  0  0  0  0  0  0  0  0  0
   -5.0897   20.1044  -31.4696 H   0  0  0  0  0  0  0  0  0  0  0  0
  1  2  1  0
  2  3  1  0
  3  4  1  0
  4  5  2  0
  4  6  1  0
  2  7  1  0
  7  8  2  0
  7  9  1  0
  9 10  1  0
  9 11  1  0
 11 12  2  0
 11 13  1  0
 13 14  1  0
 14 15  1  0
 15 16  1  0
 15 17  2  0
 14 18  2  0
 18 19  1  0
 19 20  2  0
 20 21  1  0
 21 22  2  0
 22 23  1  0
 23 24  1  0
 23 25  1  0
 22 26  1  0
 26 27  2  0
 27 13  1  0
 27 19  1  0
  1 28  1  0
  1 29  1  0
  1 30  1  0
  3 31  1  0
  3 32  1  0
 10 33  1  0
 10 34  1  0
 10 35  1  0
 16 36  1  0
 18 37  1  0
 20 38  1  0
 21 39  1  0
 23 40  1  0
 26 41  1  0
M  CHG  2   6  -1  16  -1
M  END
>  <UniqueID>  (35) 
35

>  <SMILES>  (35) 
CN(CC(=O)[O-])C(=O)N(C)C(=O)n1c(C([NH-])=O)cc2ccc(C(F)F)cc21

>  <Energy>  (35) 
83.70289424043963

>  <Genealogy>  (35) 
CN(CC(=O)[O-])C(=O)N(C)C(=O)n1c(C([NH-])=O)cc2ccc(C(F)F)cc21 (protonated)
CN(CC(=O)[O-])C(=O)N(C)C(=O)n1c(C([NH-])=O)cc2ccc(C(F)F)cc21 (3D coordinates assigned)
CN(CC(=O)[O-])C(=O)N(C)C(=O)n1c(C([NH-])=O)cc2ccc(C(F)F)cc21 (optimized conformer: 83.70289424043963 kcal/mol)

>  <smiles>  (35) 
CN(CC(=O)O)C(=O)N(C)C(=O)n1c(C(N)=O)cc2ccc(C(F)F)cc21

>  <score_type>  (35) 
oracle

>  <origin>  (35) 
adg

>  <m_score__min__energy>  (35) 
-12.26

>  <m_primary>  (35) 
energy

$$$$
36:0
     RDKit          3D

 45 47  0  0  0  0  0  0  0  0999 V2000
   -0.5080   26.7610  -27.4900 C   0  0  0  0  0  0  0  0  0  0  0  0
   -1.0590   25.4790  -27.9100 N   0  0  0  0  0  0  0  0  0  0  0  0
   -2.2010   24.9250  -27.4570 C   0  0  0  0  0  0  0  0  0  0  0  0
   -2.3440   23.6840  -28.0420 C   0  0  0  0  0  0  0  0  0  0  0  0
   -1.2170   23.5470  -28.8340 C   0  0  0  0  0  0  0  0  0  0  0  0
   -0.9070   22.3820  -29.7200 C   0  0  0  0  0  0  0  0  0  0  0  0
   -1.3940   21.0760  -29.0800 C   0  0  0  0  0  0  0  0  0  0  0  0
   -2.9060   20.9080  -29.2250 C   0  0  0  0  0  0  0  0  0  0  0  0
   -3.3000   21.1710  -30.5680 O   0  0  0  0  0  0  0  0  0  0  0  0
   -3.8570   22.3900  -30.9680 C   0  0  0  0  0  0  0  0  0  0  0  0
   -3.1090   23.3660  -31.2530 O   0  0  0  0  0  0  0  0  0  0  0  0
   -5.2840   22.5320  -31.0510 N   0  0  0  0  0  0  0  0  0  0  0  0
   -6.0240   23.6490  -30.7940 C   0  0  0  0  0  0  0  0  0  0  0  0
   -5.5150   24.9080  -30.2170 C   0  0  0  0  0  0  0  0  0  0  0  0
   -6.0560   25.4360  -29.0050 N   0  0  0  0  0  0  0  0  0  0  0  0
   -4.6290   25.5580  -30.8320 O   0  0  0  0  0  0  0  0  0  0  0  0
   -7.3640   23.4330  -31.1000 C   0  0  0  0  0  0  0  0  0  0  0  0
   -7.4310   22.1340  -31.5420 C   0  0  0  0  0  0  0  0  0  0  0  0
   -8.5250   21.3940  -31.9760 C   0  0  0  0  0  0  0  0  0  0  0  0
   -8.3030   20.0740  -32.4030 C   0  0  0  0  0  0  0  0  0  0  0  0
   -6.9930   19.5280  -32.4160 C   0  0  0  0  0  0  0  0  0  0  0  0
   -6.7730   18.1010  -32.8500 C   0  0  0  0  0  0  0  0  0  0  0  0
   -5.7230   17.5340  -32.1480 F   0  0  0  0  0  0  0  0  0  0  0  0
   -7.9210   17.3690  -32.6130 F   0  0  0  0  0  0  0  0  0  0  0  0
   -6.4720   18.0420  -34.2000 F   0  0  0  0  0  0  0  0  0  0  0  0
   -5.9090   20.3040  -31.9450 C   0  0  0  0  0  0  0  0  0  0  0  0
   -6.1640   21.6110  -31.5050 C   0  0  0  0  0  0  0  0  0  0  0  0
   -0.4490   24.6510  -28.7430 N   0  0  0  0  0  0  0  0  0  0  0  0
   -0.4874   26.8090  -26.3912 H   0  0  0  0  0  0  0  0  0  0  0  0
    0.5148   26.8662  -27.8809 H   0  0  0  0  0  0  0  0  0  0  0  0
   -1.1355   27.5755  -27.8809 H   0  0  0  0  0  0  0  0  0  0  0  0
   -2.9000   25.3842  -26.7425 H   0  0  0  0  0  0  0  0  0  0  0  0
   -3.1669   22.9662  -27.9093 H   0  0  0  0  0  0  0  0  0  0  0  0
   -1.4098   22.5200  -30.6886 H   0  0  0  0  0  0  0  0  0  0  0  0
    0.1821   22.3236  -29.8630 H   0  0  0  0  0  0  0  0  0  0  0  0
   -0.8921   20.2291  -29.5708 H   0  0  0  0  0  0  0  0  0  0  0  0
   -1.1527   21.1077  -28.0073 H   0  0  0  0  0  0  0  0  0  0  0  0
   -3.1850   19.8778  -28.9589 H   0  0  0  0  0  0  0  0  0  0  0  0
   -3.4135   21.6175  -28.5549 H   0  0  0  0  0  0  0  0  0  0  0  0
   -5.6520   26.3030  -28.5840 H   0  0  0  0  0  0  0  0  0  0  0  0
   -6.9110   25.0250  -28.5720 H   0  0  0  0  0  0  0  0  0  0  0  0
   -8.1933   24.1498  -31.0077 H   0  0  0  0  0  0  0  0  0  0  0  0
   -9.5351   21.8293  -31.9848 H   0  0  0  0  0  0  0  0  0  0  0  0
   -9.1531   19.4575  -32.7305 H   0  0  0  0  0  0  0  0  0  0  0  0
   -4.8892   19.8921  -31.9242 H   0  0  0  0  0  0  0  0  0  0  0  0
  1  2  1  0
  2  3  1  0
  3  4  2  0
  4  5  1  0
  5  6  1  0
  6  7  1  0
  7  8  1  0
  8  9  1  0
  9 10  1  0
 10 11  2  0
 10 12  1  0
 12 13  1  0
 13 14  1  0
 14 15  1  0
 14 16  2  0
 13 17  2  0
 17 18  1  0
 18 19  2  0
 19 20  1  0
 20 21  2  0
 21 22  1  0
 22 23  1  0
 22 24  1  0
 22 25  1  0
 21 26  1  0
 26 27  2  0
  5 28  2  0
 28  2  1  0
 27 12  1  0
 27 18  1  0
  1 29  1  0
  1 30  1  0
  1 31  1  0
  3 32  1  0
  4 33  1  0
  6 34  1  0
  6 35  1  0
  7 36  1  0
  7 37  1  0
  8 38  1  0
  8 39  1  0
 15 40  1  0
 15 41  1  0
 17 42  1  0
 19 43  1  0
 20 44  1  0
 26 45  1  0
M  END
>  <UniqueID>  (36) 
36

>  <SMILES>  (36) 
Cn1ccc(CCCOC(=O)n2c(C(N)=O)cc3ccc(C(F)(F)F)cc32)n1

>  <Energy>  (36) 
107.69420217978373

>  <Genealogy>  (36) 
Cn1ccc(CCCOC(=O)n2c(C(N)=O)cc3ccc(C(F)(F)F)cc32)n1 (3D coordinates assigned)
Cn1ccc(CCCOC(=O)n2c(C(N)=O)cc3ccc(C(F)(F)F)cc32)n1 (optimized conformer: 107.69420217978373 kcal/mol)

>  <smiles>  (36) 
Cn1ccc(CCCOC(=O)n2c(C(N)=O)cc3ccc(C(F)(F)F)cc32)n1

>  <score_type>  (36) 
oracle

>  <origin>  (36) 
adg

>  <m_score__min__energy>  (36) 
-8.8200000000000003

>  <m_primary>  (36) 
energy

$$$$
37:0
     RDKit          3D

 39 41  0  0  0  0  0  0  0  0999 V2000
   -3.8380   25.2990  -30.5850 N   0  0  0  0  0  0  0  0  0  0  0  0
   -5.2310   25.1570  -30.3180 C   0  0  0  0  0  0  0  0  0  0  0  0
   -5.8350   26.0780  -29.7040 O   0  0  0  0  0  0  0  0  0  0  0  0
   -5.9800   23.9640  -30.7670 C   0  0  0  0  0  0  0  0  0  0  0  0
   -7.3640   23.9420  -30.9420 C   0  0  0  0  0  0  0  0  0  0  0  0
   -7.6550   22.6760  -31.3990 C   0  0  0  0  0  0  0  0  0  0  0  0
   -8.8800   22.0990  -31.7200 C   0  0  0  0  0  0  0  0  0  0  0  0
   -8.8850   20.7550  -32.1370 C   0  0  0  0  0  0  0  0  0  0  0  0
   -7.6760   20.0190  -32.2170 C   0  0  0  0  0  0  0  0  0  0  0  0
   -7.6880   18.5800  -32.6440 C   0  0  0  0  0  0  0  0  0  0  0  0
   -8.6710   17.8970  -31.9520 F   0  0  0  0  0  0  0  0  0  0  0  0
   -6.4580   18.0030  -32.3780 F   0  0  0  0  0  0  0  0  0  0  0  0
   -6.4540   20.6390  -31.8760 C   0  0  0  0  0  0  0  0  0  0  0  0
   -6.4770   21.9820  -31.4850 C   0  0  0  0  0  0  0  0  0  0  0  0
   -5.4400   22.7590  -31.1060 N   0  0  0  0  0  0  0  0  0  0  0  0
   -4.0650   22.3580  -31.0290 C   0  0  0  0  0  0  0  0  0  0  0  0
   -3.3040   22.5420  -32.0160 O   0  0  0  0  0  0  0  0  0  0  0  0
   -3.5390   21.6730  -29.8030 C   0  0  0  0  0  0  0  0  0  0  0  0
   -2.0550   21.9890  -29.6090 C   0  0  0  0  0  0  0  0  0  0  0  0
   -1.8830   23.2840  -28.8630 C   0  0  0  0  0  0  0  0  0  0  0  0
   -2.7500   23.6240  -27.8130 C   0  0  0  0  0  0  0  0  0  0  0  0
   -2.5580   24.8130  -27.1080 C   0  0  0  0  0  0  0  0  0  0  0  0
   -1.4940   25.6480  -27.4510 C   0  0  0  0  0  0  0  0  0  0  0  0
   -0.6520   25.2990  -28.4600 N   0  0  0  0  0  0  0  0  0  0  0  0
   -0.8190   24.1470  -29.1640 C   0  0  0  0  0  0  0  0  0  0  0  0
   -3.4860   26.0510  -31.2180 H   0  0  0  0  0  0  0  0  0  0  0  0
   -8.0726   24.7622  -30.7546 H   0  0  0  0  0  0  0  0  0  0  0  0
   -9.8145   22.6751  -31.6500 H   0  0  0  0  0  0  0  0  0  0  0  0
   -9.8361   20.2709  -32.4034 H   0  0  0  0  0  0  0  0  0  0  0  0
   -7.8929   18.5271  -33.7234 H   0  0  0  0  0  0  0  0  0  0  0  0
   -5.5076   20.0799  -31.9168 H   0  0  0  0  0  0  0  0  0  0  0  0
   -4.1014   22.0213  -28.9241 H   0  0  0  0  0  0  0  0  0  0  0  0
   -3.6590   20.5862  -29.9231 H   0  0  0  0  0  0  0  0  0  0  0  0
   -1.5841   21.1765  -29.0362 H   0  0  0  0  0  0  0  0  0  0  0  0
   -1.5801   22.0827  -30.5968 H   0  0  0  0  0  0  0  0  0  0  0  0
   -3.5803   22.9537  -27.5459 H   0  0  0  0  0  0  0  0  0  0  0  0
   -3.2391   25.0893  -26.2896 H   0  0  0  0  0  0  0  0  0  0  0  0
   -1.3362   26.5896  -26.9046 H   0  0  0  0  0  0  0  0  0  0  0  0
   -0.1175   23.8915  -29.9718 H   0  0  0  0  0  0  0  0  0  0  0  0
  1  2  1  0
  2  3  2  0
  2  4  1  0
  4  5  2  0
  5  6  1  0
  6  7  2  0
  7  8  1  0
  8  9  2  0
  9 10  1  0
 10 11  1  0
 10 12  1  0
  9 13  1  0
 13 14  2  0
 14 15  1  0
 15 16  1  0
 16 17  2  0
 16 18  1  0
 18 19  1  0
 19 20  1  0
 20 21  2  0
 21 22  1  0
 22 23  2  0
 23 24  1  0
 24 25  2  0
 15  4  1  0
 25 20  1  0
 14  6  1  0
  1 26  1  0
  5 27  1  0
  7 28  1  0
  8 29  1  0
 10 30  1  0
 13 31  1  0
 18 32  1  0
 18 33  1  0
 19 34  1  0
 19 35  1  0
 21 36  1  0
 22 37  1  0
 23 38  1  0
 25 39  1  0
M  CHG  1   1  -1
M  END
>  <UniqueID>  (37) 
37

>  <SMILES>  (37) 
[NH-]C(=O)c1cc2ccc(C(F)F)cc2n1C(=O)CCc1cccnc1

>  <Energy>  (37) 
77.94103348510716

>  <Genealogy>  (37) 
[NH-]C(=O)c1cc2ccc(C(F)F)cc2n1C(=O)CCc1cccnc1 (protonated)
[NH-]C(=O)c1cc2ccc(C(F)F)cc2n1C(=O)CCc1cccnc1 (3D coordinates assigned)
[NH-]C(=O)c1cc2ccc(C(F)F)cc2n1C(=O)CCc1cccnc1 (optimized conformer: 77.94103348510716 kcal/mol)

>  <smiles>  (37) 
NC(=O)c1cc2ccc(C(F)F)cc2n1C(=O)CCc1cccnc1

>  <score_type>  (37) 
oracle

>  <origin>  (37) 
adg

>  <m_score__min__energy>  (37) 
-11.16

>  <m_primary>  (37) 
energy

$$$$
38:0
     RDKit          3D

 38 39  0  0  0  0  0  0  0  0999 V2000
   -4.0870   23.8100  -28.1180 C   0  0  0  0  0  0  0  0  0  0  0  0
   -2.9240   23.0320  -28.7370 C   0  0  1  0  0  0  0  0  0  0  0  0
   -3.3960   22.1870  -29.7870 O   0  0  0  0  0  0  0  0  0  0  0  0
   -3.9280   22.6650  -30.9890 C   0  0  0  0  0  0  0  0  0  0  0  0
   -3.1710   22.9250  -31.9640 O   0  0  0  0  0  0  0  0  0  0  0  0
   -5.3480   22.8400  -31.1170 N   0  0  0  0  0  0  0  0  0  0  0  0
   -6.0730   23.9840  -30.9540 C   0  0  0  0  0  0  0  0  0  0  0  0
   -5.5510   25.2800  -30.4710 C   0  0  0  0  0  0  0  0  0  0  0  0
   -4.2320   25.6900  -30.8260 N   0  0  0  0  0  0  0  0  0  0  0  0
   -6.2690   26.0480  -29.7790 O   0  0  0  0  0  0  0  0  0  0  0  0
   -7.4180   23.7530  -31.2290 C   0  0  0  0  0  0  0  0  0  0  0  0
   -7.4980   22.4200  -31.5620 C   0  0  0  0  0  0  0  0  0  0  0  0
   -8.5980   21.6550  -31.9320 C   0  0  0  0  0  0  0  0  0  0  0  0
   -8.3870   20.3030  -32.2480 C   0  0  0  0  0  0  0  0  0  0  0  0
   -7.0820   19.7410  -32.1990 C   0  0  0  0  0  0  0  0  0  0  0  0
   -6.8350   18.3580  -32.5250 N   0  0  0  0  0  0  0  0  0  0  0  0
   -5.7620   17.5440  -31.9530 C   0  0  0  0  0  0  0  0  0  0  0  0
   -5.4890   16.3160  -32.8180 C   0  0  0  0  0  0  0  0  0  0  0  0
   -6.4510   16.2120  -33.8060 F   0  0  0  0  0  0  0  0  0  0  0  0
   -5.9930   20.5530  -31.8120 C   0  0  0  0  0  0  0  0  0  0  0  0
   -6.2370   21.8920  -31.4860 C   0  0  0  0  0  0  0  0  0  0  0  0
   -1.9120   23.9870  -29.2940 C   0  0  0  0  0  0  0  0  0  0  0  0
   -2.1590   25.2210  -29.3390 O   0  0  0  0  0  0  0  0  0  0  0  0
   -0.6770   23.5170  -29.7220 O   0  0  0  0  0  0  0  0  0  0  0  0
   -4.0170   23.7632  -27.0212 H   0  0  0  0  0  0  0  0  0  0  0  0
   -4.0407   24.8596  -28.4439 H   0  0  0  0  0  0  0  0  0  0  0  0
   -5.0395   23.3666  -28.4439 H   0  0  0  0  0  0  0  0  0  0  0  0
   -2.4607   22.4142  -27.9537 H   0  0  0  0  0  0  0  0  0  0  0  0
   -3.4660   24.9900  -30.9450 H   0  0  0  0  0  0  0  0  0  0  0  0
   -8.2416   24.4810  -31.1887 H   0  0  0  0  0  0  0  0  0  0  0  0
   -9.6048   22.0959  -31.9760 H   0  0  0  0  0  0  0  0  0  0  0  0
   -9.2406   19.6721  -32.5365 H   0  0  0  0  0  0  0  0  0  0  0  0
   -7.4570   17.8960  -33.2270 H   0  0  0  0  0  0  0  0  0  0  0  0
   -4.8460   18.1497  -31.8882 H   0  0  0  0  0  0  0  0  0  0  0  0
   -6.0717   17.2072  -30.9527 H   0  0  0  0  0  0  0  0  0  0  0  0
   -4.4970   16.4113  -33.2836 H   0  0  0  0  0  0  0  0  0  0  0  0
   -5.5192   15.4152  -32.1873 H   0  0  0  0  0  0  0  0  0  0  0  0
   -4.9739   20.1413  -31.7677 H   0  0  0  0  0  0  0  0  0  0  0  0
  1  2  1  0
  2  3  1  0
  3  4  1  0
  4  5  2  0
  4  6  1  0
  6  7  1  0
  7  8  1  0
  8  9  1  0
  8 10  2  0
  7 11  2  0
 11 12  1  0
 12 13  2  0
 13 14  1  0
 14 15  2  0
 15 16  1  0
 16 17  1  0
 17 18  1  0
 18 19  1  0
 15 20  1  0
 20 21  2  0
  2 22  1  0
 22 23  2  0
 22 24  1  0
 21  6  1  0
 21 12  1  0
  1 25  1  0
  1 26  1  0
  1 27  1  0
  2 28  1  1
  9 29  1  0
 11 30  1  0
 13 31  1  0
 14 32  1  0
 16 33  1  0
 17 34  1  0
 17 35  1  0
 18 36  1  0
 18 37  1  0
 20 38  1  0
M  CHG  2   9  -1  24  -1
M  END
>  <UniqueID>  (38) 
38

>  <SMILES>  (38) 
C[C@@H](OC(=O)n1c(C([NH-])=O)cc2ccc(NCCF)cc21)C(=O)[O-]

>  <Energy>  (38) 
69.73610912638581

>  <Genealogy>  (38) 
CC(OC(=O)n1c(C([NH-])=O)cc2ccc(NCCF)cc21)C(=O)[O-] (protonated)
C[C@@H](OC(=O)n1c(C([NH-])=O)cc2ccc(NCCF)cc21)C(=O)[O-] (chirality)
C[C@@H](OC(=O)n1c(C([NH-])=O)cc2ccc(NCCF)cc21)C(=O)[O-] (3D coordinates assigned)
C[C@@H](OC(=O)n1c(C([NH-])=O)cc2ccc(NCCF)cc21)C(=O)[O-] (optimized conformer: 69.73610912638581 kcal/mol)

>  <smiles>  (38) 
CC(OC(=O)n1c(C(N)=O)cc2ccc(NCCF)cc21)C(=O)O

>  <score_type>  (38) 
oracle

>  <origin>  (38) 
adg

>  <m_score__min__energy>  (38) 
-11.93

>  <m_primary>  (38) 
energy

$$$$
39:0
     RDKit          3D

 35 36  0  0  0  0  0  0  0  0999 V2000
   -5.1380   17.3320  -33.8800 C   0  0  0  0  0  0  0  0  0  0  0  0
   -4.6190   17.9720  -32.6700 N   0  0  0  0  0  0  0  0  0  0  0  0
   -5.1590   19.3030  -32.5420 C   0  0  0  0  0  0  0  0  0  0  0  0
   -6.4680   19.5920  -33.0100 C   0  0  0  0  0  0  0  0  0  0  0  0
   -7.0210   20.8750  -32.8520 C   0  0  0  0  0  0  0  0  0  0  0  0
   -6.2490   21.8430  -32.2160 C   0  0  0  0  0  0  0  0  0  0  0  0
   -6.5370   23.1570  -31.9170 C   0  0  0  0  0  0  0  0  0  0  0  0
   -5.4040   23.6430  -31.2660 C   0  0  0  0  0  0  0  0  0  0  0  0
   -5.2540   25.0350  -30.7930 C   0  0  0  0  0  0  0  0  0  0  0  0
   -3.9780   25.6700  -30.8440 N   0  0  0  0  0  0  0  0  0  0  0  0
   -6.2400   25.6670  -30.3330 O   0  0  0  0  0  0  0  0  0  0  0  0
   -4.4650   22.6650  -31.1560 N   0  0  0  0  0  0  0  0  0  0  0  0
   -3.1570   22.7540  -30.5710 C   0  0  0  0  0  0  0  0  0  0  0  0
   -2.1650   22.3580  -31.2380 O   0  0  0  0  0  0  0  0  0  0  0  0
   -2.9430   23.2370  -29.1540 C   0  0  1  0  0  0  0  0  0  0  0  0
   -3.9720   22.2790  -28.0520 Cl  0  0  0  0  0  0  0  0  0  0  0  0
   -1.4830   23.1620  -28.6640 C   0  0  0  0  0  0  0  0  0  0  0  0
   -0.7460   24.4540  -28.8560 C   0  0  0  0  0  0  0  0  0  0  0  0
    0.4820   24.5260  -28.5870 O   0  0  0  0  0  0  0  0  0  0  0  0
   -1.4210   25.5890  -29.2850 O   0  0  0  0  0  0  0  0  0  0  0  0
   -4.9870   21.5770  -31.7550 C   0  0  0  0  0  0  0  0  0  0  0  0
   -4.4090   20.3140  -31.8980 C   0  0  0  0  0  0  0  0  0  0  0  0
   -5.8079   16.5059  -33.5993 H   0  0  0  0  0  0  0  0  0  0  0  0
   -5.6956   18.0703  -34.4749 H   0  0  0  0  0  0  0  0  0  0  0  0
   -4.3004   16.9389  -34.4749 H   0  0  0  0  0  0  0  0  0  0  0  0
   -3.5740   18.0110  -32.7220 H   0  0  0  0  0  0  0  0  0  0  0  0
   -4.8810   17.3960  -31.8350 H   0  0  0  0  0  0  0  0  0  0  0  0
   -7.0561   18.8032  -33.5018 H   0  0  0  0  0  0  0  0  0  0  0  0
   -8.0317   21.1065  -33.2194 H   0  0  0  0  0  0  0  0  0  0  0  0
   -7.4632   23.7054  -32.1436 H   0  0  0  0  0  0  0  0  0  0  0  0
   -3.1150   25.1660  -30.5460 H   0  0  0  0  0  0  0  0  0  0  0  0
   -3.2134   24.3032  -29.1513 H   0  0  0  0  0  0  0  0  0  0  0  0
   -1.4827   22.9115  -27.5929 H   0  0  0  0  0  0  0  0  0  0  0  0
   -0.9696   22.3925  -29.2593 H   0  0  0  0  0  0  0  0  0  0  0  0
   -3.3964   20.1108  -31.5194 H   0  0  0  0  0  0  0  0  0  0  0  0
  1  2  1  0
  2  3  1  0
  3  4  2  0
  4  5  1  0
  5  6  2  0
  6  7  1  0
  7  8  2  0
  8  9  1  0
  9 10  1  0
  9 11  2  0
  8 12  1  0
 12 13  1  0
 13 14  2  0
 13 15  1  0
 15 16  1  0
 15 17  1  0
 17 18  1  0
 18 19  2  0
 18 20  1  0
 12 21  1  0
 21 22  2  0
 22  3  1  0
 21  6  1  0
  1 23  1  0
  1 24  1  0
  1 25  1  0
  2 26  1  0
  2 27  1  0
  4 28  1  0
  5 29  1  0
  7 30  1  0
 10 31  1  0
 15 32  1  6
 17 33  1  0
 17 34  1  0
 22 35  1  0
M  CHG  3   2   1  10  -1  20  -1
M  END
>  <UniqueID>  (39) 
39

>  <SMILES>  (39) 
C[NH2+]c1ccc2cc(C([NH-])=O)n(C(=O)[C@@H](Cl)CC(=O)[O-])c2c1

>  <Energy>  (39) 
72.91365583200498

>  <Genealogy>  (39) 
C[NH2+]c1ccc2cc(C([NH-])=O)n(C(=O)C(Cl)CC(=O)[O-])c2c1 (protonated)
C[NH2+]c1ccc2cc(C([NH-])=O)n(C(=O)[C@@H](Cl)CC(=O)[O-])c2c1 (chirality)
C[NH2+]c1ccc2cc(C([NH-])=O)n(C(=O)[C@@H](Cl)CC(=O)[O-])c2c1 (3D coordinates assigned)
C[NH2+]c1ccc2cc(C([NH-])=O)n(C(=O)[C@@H](Cl)CC(=O)[O-])c2c1 (optimized conformer: 72.91365583200498 kcal/mol)

>  <smiles>  (39) 
CNc1ccc2cc(C(N)=O)n(C(=O)C(Cl)CC(=O)O)c2c1

>  <score_type>  (39) 
oracle

>  <origin>  (39) 
adg

>  <m_score__min__energy>  (39) 
-11.369999999999999

>  <m_primary>  (39) 
energy

$$$$
40:0
     RDKit          3D

 41 42  0  0  0  0  0  0  0  0999 V2000
   -6.8920   15.8380  -34.1510 C   0  0  0  0  0  0  0  0  0  0  0  0
   -6.1610   16.8930  -33.4400 N   0  0  0  0  0  0  0  0  0  0  0  0
   -4.9110   17.4020  -34.0300 C   0  0  0  0  0  0  0  0  0  0  0  0
   -4.9900   18.9140  -34.2590 C   0  0  0  0  0  0  0  0  0  0  0  0
   -6.2440   19.2770  -34.7670 O   0  0  0  0  0  0  0  0  0  0  0  0
   -6.7340   17.4330  -32.2250 C   0  0  0  0  0  0  0  0  0  0  0  0
   -6.0300   17.4860  -31.1790 O   0  0  0  0  0  0  0  0  0  0  0  0
   -8.1300   17.9990  -32.1610 C   0  0  0  0  0  0  0  0  0  0  0  0
   -8.2730   19.1230  -33.0970 N   0  0  0  0  0  0  0  0  0  0  0  0
   -8.0490   20.3690  -32.4070 C   0  0  0  0  0  0  0  0  0  0  0  0
   -9.1450   21.1000  -31.8820 C   0  0  0  0  0  0  0  0  0  0  0  0
   -8.9390   22.3040  -31.1880 C   0  0  0  0  0  0  0  0  0  0  0  0
   -7.6300   22.7430  -31.0190 C   0  0  0  0  0  0  0  0  0  0  0  0
   -7.1510   23.8760  -30.4030 C   0  0  0  0  0  0  0  0  0  0  0  0
   -5.7640   23.8060  -30.5270 C   0  0  0  0  0  0  0  0  0  0  0  0
   -4.8440   24.7920  -29.9210 C   0  0  0  0  0  0  0  0  0  0  0  0
   -4.0550   25.6330  -30.7600 N   0  0  0  0  0  0  0  0  0  0  0  0
   -4.7740   24.9270  -28.6720 O   0  0  0  0  0  0  0  0  0  0  0  0
   -5.4010   22.6760  -31.2000 N   0  0  0  0  0  0  0  0  0  0  0  0
   -4.0780   22.2650  -31.5820 C   0  0  0  0  0  0  0  0  0  0  0  0
   -3.1310   23.0940  -31.5950 O   0  0  0  0  0  0  0  0  0  0  0  0
   -3.8350   20.9500  -31.9630 O   0  0  0  0  0  0  0  0  0  0  0  0
   -6.5550   22.0360  -31.4920 C   0  0  0  0  0  0  0  0  0  0  0  0
   -6.7320   20.8440  -32.2050 C   0  0  0  0  0  0  0  0  0  0  0  0
   -7.3609   15.1613  -33.4215 H   0  0  0  0  0  0  0  0  0  0  0  0
   -7.6698   16.2924  -34.7823 H   0  0  0  0  0  0  0  0  0  0  0  0
   -6.1933   15.2694  -34.7823 H   0  0  0  0  0  0  0  0  0  0  0  0
   -4.0761   17.1844  -33.3477 H   0  0  0  0  0  0  0  0  0  0  0  0
   -4.7538   16.9077  -35.0000 H   0  0  0  0  0  0  0  0  0  0  0  0
   -4.8248   19.4323  -33.3029 H   0  0  0  0  0  0  0  0  0  0  0  0
   -4.2185   19.2000  -34.9890 H   0  0  0  0  0  0  0  0  0  0  0  0
   -6.4690   18.6130  -35.4710 H   0  0  0  0  0  0  0  0  0  0  0  0
   -8.8520   17.2127  -32.4265 H   0  0  0  0  0  0  0  0  0  0  0  0
   -8.3211   18.3600  -31.1396 H   0  0  0  0  0  0  0  0  0  0  0  0
   -9.2300   19.1240  -33.5210 H   0  0  0  0  0  0  0  0  0  0  0  0
   -7.5790   19.0220  -33.8750 H   0  0  0  0  0  0  0  0  0  0  0  0
  -10.1680   20.7200  -32.0197 H   0  0  0  0  0  0  0  0  0  0  0  0
   -9.7866   22.8816  -30.7906 H   0  0  0  0  0  0  0  0  0  0  0  0
   -7.7377   24.6689  -29.9160 H   0  0  0  0  0  0  0  0  0  0  0  0
   -3.1640   25.2890  -31.1790 H   0  0  0  0  0  0  0  0  0  0  0  0
   -5.8672   20.2899  -32.5988 H   0  0  0  0  0  0  0  0  0  0  0  0
  1  2  1  0
  2  3  1  0
  3  4  1  0
  4  5  1  0
  2  6  1  0
  6  7  2  0
  6  8  1  0
  8  9  1  0
  9 10  1  0
 10 11  2  0
 11 12  1  0
 12 13  2  0
 13 14  1  0
 14 15  2  0
 15 16  1  0
 16 17  1  0
 16 18  2  0
 15 19  1  0
 19 20  1  0
 20 21  2  0
 20 22  1  0
 19 23  1  0
 23 24  2  0
 24 10  1  0
 23 13  1  0
  1 25  1  0
  1 26  1  0
  1 27  1  0
  3 28  1  0
  3 29  1  0
  4 30  1  0
  4 31  1  0
  5 32  1  0
  8 33  1  0
  8 34  1  0
  9 35  1  0
  9 36  1  0
 11 37  1  0
 12 38  1  0
 14 39  1  0
 17 40  1  0
 24 41  1  0
M  CHG  3   9   1  17  -1  22  -1
M  END
>  <UniqueID>  (40) 
40

>  <SMILES>  (40) 
CN(CCO)C(=O)C[NH2+]c1ccc2cc(C([NH-])=O)n(C(=O)[O-])c2c1

>  <Energy>  (40) 
77.15438989404447

>  <Genealogy>  (40) 
CN(CCO)C(=O)C[NH2+]c1ccc2cc(C([NH-])=O)n(C(=O)[O-])c2c1 (protonated)
CN(CCO)C(=O)C[NH2+]c1ccc2cc(C([NH-])=O)n(C(=O)[O-])c2c1 (3D coordinates assigned)
CN(CCO)C(=O)C[NH2+]c1ccc2cc(C([NH-])=O)n(C(=O)[O-])c2c1 (optimized conformer: 77.15438989404447 kcal/mol)

>  <smiles>  (40) 
CN(CCO)C(=O)CNc1ccc2cc(C(N)=O)n(C(=O)O)c2c1

>  <score_type>  (40) 
oracle

>  <origin>  (40) 
adg

>  <m_score__min__energy>  (40) 
-10.050000000000001

>  <m_primary>  (40) 
energy

$$$$
41:0
     RDKit          3D

 36 37  0  0  0  0  0  0  0  0999 V2000
   -7.2750   17.7690  -33.1110 C   0  0  0  0  0  0  0  0  0  0  0  0
   -7.4380   19.1760  -32.6170 C   0  0  0  0  0  0  0  0  0  0  0  0
   -8.7340   19.7120  -32.4130 C   0  0  0  0  0  0  0  0  0  0  0  0
   -8.8990   21.0130  -31.9040 C   0  0  0  0  0  0  0  0  0  0  0  0
   -7.7540   21.7430  -31.5980 C   0  0  0  0  0  0  0  0  0  0  0  0
   -7.6200   23.0070  -31.0690 C   0  0  0  0  0  0  0  0  0  0  0  0
   -6.2460   23.2190  -30.9580 C   0  0  0  0  0  0  0  0  0  0  0  0
   -5.6280   24.4870  -30.5080 C   0  0  0  0  0  0  0  0  0  0  0  0
   -5.5430   24.8090  -29.1180 N   0  0  0  0  0  0  0  0  0  0  0  0
   -5.1830   25.3060  -31.3550 O   0  0  0  0  0  0  0  0  0  0  0  0
   -5.5620   22.1260  -31.3980 N   0  0  0  0  0  0  0  0  0  0  0  0
   -4.1440   21.9140  -31.3930 C   0  0  0  0  0  0  0  0  0  0  0  0
   -3.4510   22.2940  -32.3750 O   0  0  0  0  0  0  0  0  0  0  0  0
   -3.4930   21.1380  -30.2920 C   0  0  0  0  0  0  0  0  0  0  0  0
   -2.6050   21.9950  -29.5850 O   0  0  0  0  0  0  0  0  0  0  0  0
   -3.0310   22.8430  -28.5580 C   0  0  0  0  0  0  0  0  0  0  0  0
   -4.1990   22.7500  -28.0910 O   0  0  0  0  0  0  0  0  0  0  0  0
   -2.1030   23.8990  -28.0500 C   0  0  2  0  0  0  0  0  0  0  0  0
   -2.4770   24.2880  -26.7750 F   0  0  0  0  0  0  0  0  0  0  0  0
   -2.1300   25.0810  -28.9650 C   0  0  0  0  0  0  0  0  0  0  0  0
   -3.1340   25.2960  -29.6930 O   0  0  0  0  0  0  0  0  0  0  0  0
   -1.0660   25.9750  -28.9800 O   0  0  0  0  0  0  0  0  0  0  0  0
   -6.4950   21.2360  -31.7890 C   0  0  0  0  0  0  0  0  0  0  0  0
   -6.3000   19.9430  -32.2860 C   0  0  0  0  0  0  0  0  0  0  0  0
   -7.1959   17.0858  -32.2525 H   0  0  0  0  0  0  0  0  0  0  0  0
   -8.1470   17.4914  -33.7214 H   0  0  0  0  0  0  0  0  0  0  0  0
   -6.3626   17.6981  -33.7214 H   0  0  0  0  0  0  0  0  0  0  0  0
   -9.6190   19.1051  -32.6549 H   0  0  0  0  0  0  0  0  0  0  0  0
   -9.9014   21.4400  -31.7526 H   0  0  0  0  0  0  0  0  0  0  0  0
   -8.4261   23.7025  -30.7924 H   0  0  0  0  0  0  0  0  0  0  0  0
   -5.1360   25.7220  -28.8180 H   0  0  0  0  0  0  0  0  0  0  0  0
   -5.8350   24.1270  -28.3840 H   0  0  0  0  0  0  0  0  0  0  0  0
   -4.2624   20.7561  -29.6049 H   0  0  0  0  0  0  0  0  0  0  0  0
   -2.9340   20.2901  -30.7146 H   0  0  0  0  0  0  0  0  0  0  0  0
   -1.0828   23.4892  -28.0152 H   0  0  0  0  0  0  0  0  0  0  0  0
   -5.2868   19.5347  -32.4155 H   0  0  0  0  0  0  0  0  0  0  0  0
  1  2  1  0
  2  3  2  0
  3  4  1  0
  4  5  2  0
  5  6  1  0
  6  7  2  0
  7  8  1  0
  8  9  1  0
  8 10  2  0
  7 11  1  0
 11 12  1  0
 12 13  2  0
 12 14  1  0
 14 15  1  0
 15 16  1  0
 16 17  2  0
 16 18  1  0
 18 19  1  0
 18 20  1  0
 20 21  2  0
 20 22  1  0
 11 23  1  0
 23 24  2  0
 24  2  1  0
 23  5  1  0
  1 25  1  0
  1 26  1  0
  1 27  1  0
  3 28  1  0
  4 29  1  0
  6 30  1  0
  9 31  1  0
  9 32  1  0
 14 33  1  0
 14 34  1  0
 18 35  1  1
 24 36  1  0
M  CHG  1  22  -1
M  END
>  <UniqueID>  (41) 
41

>  <SMILES>  (41) 
Cc1ccc2cc(C(N)=O)n(C(=O)COC(=O)[C@H](F)C(=O)[O-])c2c1

>  <Energy>  (41) 
70.17680820825304

>  <Genealogy>  (41) 
Cc1ccc2cc(C(N)=O)n(C(=O)COC(=O)C(F)C(=O)[O-])c2c1 (protonated)
Cc1ccc2cc(C(N)=O)n(C(=O)COC(=O)[C@H](F)C(=O)[O-])c2c1 (chirality)
Cc1ccc2cc(C(N)=O)n(C(=O)COC(=O)[C@H](F)C(=O)[O-])c2c1 (3D coordinates assigned)
Cc1ccc2cc(C(N)=O)n(C(=O)COC(=O)[C@H](F)C(=O)[O-])c2c1 (optimized conformer: 70.17680820825304 kcal/mol)

>  <smiles>  (41) 
Cc1ccc2cc(C(N)=O)n(C(=O)COC(=O)C(F)C(=O)O)c2c1

>  <score_type>  (41) 
oracle

>  <origin>  (41) 
adg

>  <m_score__min__energy>  (41) 
-10.390000000000001

>  <m_primary>  (41) 
energy

$$$$
42:0
     RDKit          3D

 45 47  0  0  0  0  0  0  0  0999 V2000
   -4.2340   25.5310  -30.5720 N   0  0  0  0  0  0  0  0  0  0  0  0
   -5.5870   25.1460  -30.3310 C   0  0  0  0  0  0  0  0  0  0  0  0
   -6.3680   25.9550  -29.7640 O   0  0  0  0  0  0  0  0  0  0  0  0
   -6.1050   23.8420  -30.7910 C   0  0  0  0  0  0  0  0  0  0  0  0
   -7.4520   23.5980  -31.0430 C   0  0  0  0  0  0  0  0  0  0  0  0
   -7.5070   22.3020  -31.5010 C   0  0  0  0  0  0  0  0  0  0  0  0
   -8.6050   21.5330  -31.8730 C   0  0  0  0  0  0  0  0  0  0  0  0
   -8.3760   20.2020  -32.2610 C   0  0  0  0  0  0  0  0  0  0  0  0
   -7.0630   19.6660  -32.2770 C   0  0  0  0  0  0  0  0  0  0  0  0
   -6.8390   18.2190  -32.6330 C   0  0  0  0  0  0  0  0  0  0  0  0
   -6.5010   18.0900  -33.9680 F   0  0  0  0  0  0  0  0  0  0  0  0
   -5.8110   17.7140  -31.8570 F   0  0  0  0  0  0  0  0  0  0  0  0
   -7.9830   17.4750  -32.4030 F   0  0  0  0  0  0  0  0  0  0  0  0
   -5.9770   20.4740  -31.8670 C   0  0  0  0  0  0  0  0  0  0  0  0
   -6.2310   21.8030  -31.5070 C   0  0  0  0  0  0  0  0  0  0  0  0
   -5.3560   22.7380  -31.0690 N   0  0  0  0  0  0  0  0  0  0  0  0
   -3.9530   22.5550  -30.8210 C   0  0  0  0  0  0  0  0  0  0  0  0
   -3.1070   22.9210  -31.6820 O   0  0  0  0  0  0  0  0  0  0  0  0
   -3.5310   21.9740  -29.6190 O   0  0  0  0  0  0  0  0  0  0  0  0
   -4.1200   22.2720  -28.3560 C   0  0  0  0  0  0  0  0  0  0  0  0
   -3.8160   23.7160  -27.9490 C   0  0  0  0  0  0  0  0  0  0  0  0
   -2.5220   23.7800  -27.2320 N   0  0  0  0  0  0  0  0  0  0  0  0
   -1.4070   23.2710  -28.0540 C   0  0  0  0  0  0  0  0  0  0  0  0
   -1.0660   24.2330  -29.2180 C   0  0  0  0  0  0  0  0  0  0  0  0
   -1.6050   25.5320  -29.0440 O   0  0  0  0  0  0  0  0  0  0  0  0
   -1.3870   25.9730  -27.7210 C   0  0  0  0  0  0  0  0  0  0  0  0
   -2.2230   25.1410  -26.7260 C   0  0  0  0  0  0  0  0  0  0  0  0
   -3.8740   26.4390  -30.2030 H   0  0  0  0  0  0  0  0  0  0  0  0
   -3.6100   24.9590  -31.1830 H   0  0  0  0  0  0  0  0  0  0  0  0
   -8.2932   24.2933  -30.9053 H   0  0  0  0  0  0  0  0  0  0  0  0
   -9.6212   21.9539  -31.8637 H   0  0  0  0  0  0  0  0  0  0  0  0
   -9.2253   19.5682  -32.5559 H   0  0  0  0  0  0  0  0  0  0  0  0
   -4.9555   20.0673  -31.8317 H   0  0  0  0  0  0  0  0  0  0  0  0
   -5.2096   22.1370  -28.4240 H   0  0  0  0  0  0  0  0  0  0  0  0
   -3.6999   21.5935  -27.5990 H   0  0  0  0  0  0  0  0  0  0  0  0
   -3.7644   24.3449  -28.8500 H   0  0  0  0  0  0  0  0  0  0  0  0
   -4.6143   24.0789  -27.2849 H   0  0  0  0  0  0  0  0  0  0  0  0
   -0.5184   23.1546  -27.4161 H   0  0  0  0  0  0  0  0  0  0  0  0
   -1.7125   22.3064  -28.4855 H   0  0  0  0  0  0  0  0  0  0  0  0
    0.0282   24.3157  -29.2942 H   0  0  0  0  0  0  0  0  0  0  0  0
   -1.5129   23.8130  -30.1312 H   0  0  0  0  0  0  0  0  0  0  0  0
   -0.3202   25.8653  -27.4753 H   0  0  0  0  0  0  0  0  0  0  0  0
   -1.6908   27.0274  -27.6443 H   0  0  0  0  0  0  0  0  0  0  0  0
   -1.6627   25.0514  -25.7836 H   0  0  0  0  0  0  0  0  0  0  0  0
   -3.1816   25.6605  -26.5799 H   0  0  0  0  0  0  0  0  0  0  0  0
  1  2  1  0
  2  3  2  0
  2  4  1  0
  4  5  2  0
  5  6  1  0
  6  7  2  0
  7  8  1  0
  8  9  2  0
  9 10  1  0
 10 11  1  0
 10 12  1  0
 10 13  1  0
  9 14  1  0
 14 15  2  0
 15 16  1  0
 16 17  1  0
 17 18  2  0
 17 19  1  0
 19 20  1  0
 20 21  1  0
 21 22  1  0
 22 23  1  0
 23 24  1  0
 24 25  1  0
 25 26  1  0
 26 27  1  0
 16  4  1  0
 27 22  1  0
 15  6  1  0
  1 28  1  0
  1 29  1  0
  5 30  1  0
  7 31  1  0
  8 32  1  0
 14 33  1  0
 20 34  1  0
 20 35  1  0
 21 36  1  0
 21 37  1  0
 23 38  1  0
 23 39  1  0
 24 40  1  0
 24 41  1  0
 26 42  1  0
 26 43  1  0
 27 44  1  0
 27 45  1  0
M  END
>  <UniqueID>  (42) 
42

>  <SMILES>  (42) 
NC(=O)c1cc2ccc(C(F)(F)F)cc2n1C(=O)OCCN1CCOCC1

>  <Energy>  (42) 
95.15798393207716

>  <Genealogy>  (42) 
NC(=O)c1cc2ccc(C(F)(F)F)cc2n1C(=O)OCCN1CCOCC1 (3D coordinates assigned)
NC(=O)c1cc2ccc(C(F)(F)F)cc2n1C(=O)OCCN1CCOCC1 (nonaromatic ring conformer: 95.15798393207716 kcal/mol)

>  <smiles>  (42) 
NC(=O)c1cc2ccc(C(F)(F)F)cc2n1C(=O)OCCN1CCOCC1

>  <score_type>  (42) 
oracle

>  <origin>  (42) 
adg

>  <m_score__min__energy>  (42) 
-8.8000000000000007

>  <m_primary>  (42) 
energy

$$$$
43:0
     RDKit          3D

 42 43  0  0  0  0  0  0  0  0999 V2000
   -1.6640   21.6210  -26.8810 C   0  0  0  0  0  0  0  0  0  0  0  0
   -2.3700   22.7620  -27.4710 N   0  0  0  0  0  0  0  0  0  0  0  0
   -1.8380   24.1190  -27.2860 C   0  0  0  0  0  0  0  0  0  0  0  0
   -1.3750   24.7000  -28.5860 C   0  0  0  0  0  0  0  0  0  0  0  0
   -2.1950   25.2790  -29.3440 O   0  0  0  0  0  0  0  0  0  0  0  0
   -0.0540   24.5520  -28.9930 O   0  0  0  0  0  0  0  0  0  0  0  0
   -3.5200   22.5200  -28.3060 C   0  0  0  0  0  0  0  0  0  0  0  0
   -4.6660   22.8630  -27.9070 O   0  0  0  0  0  0  0  0  0  0  0  0
   -3.3830   21.8970  -29.5960 N   0  0  0  0  0  0  0  0  0  0  0  0
   -2.6050   20.6630  -29.7170 C   0  0  0  0  0  0  0  0  0  0  0  0
   -3.8600   22.5690  -30.7790 C   0  0  0  0  0  0  0  0  0  0  0  0
   -3.0420   23.0500  -31.6090 O   0  0  0  0  0  0  0  0  0  0  0  0
   -5.2660   22.6980  -31.0320 N   0  0  0  0  0  0  0  0  0  0  0  0
   -6.0480   23.7930  -30.8260 C   0  0  0  0  0  0  0  0  0  0  0  0
   -5.5560   25.1130  -30.3660 C   0  0  0  0  0  0  0  0  0  0  0  0
   -4.2120   25.5280  -30.6200 N   0  0  0  0  0  0  0  0  0  0  0  0
   -6.3220   25.8860  -29.7330 O   0  0  0  0  0  0  0  0  0  0  0  0
   -7.3750   23.5060  -31.1550 C   0  0  0  0  0  0  0  0  0  0  0  0
   -7.3750   22.1890  -31.5610 C   0  0  0  0  0  0  0  0  0  0  0  0
   -8.4240   21.3780  -31.9850 C   0  0  0  0  0  0  0  0  0  0  0  0
   -8.1310   20.0450  -32.3220 C   0  0  0  0  0  0  0  0  0  0  0  0
   -6.8050   19.5540  -32.2350 C   0  0  0  0  0  0  0  0  0  0  0  0
   -6.5110   18.1190  -32.5580 C   0  0  0  0  0  0  0  0  0  0  0  0
   -7.4910   17.6240  -33.3960 F   0  0  0  0  0  0  0  0  0  0  0  0
   -5.7700   20.4000  -31.7830 C   0  0  0  0  0  0  0  0  0  0  0  0
   -6.0890   21.7250  -31.4720 C   0  0  0  0  0  0  0  0  0  0  0  0
   -1.7070   21.6906  -25.7840 H   0  0  0  0  0  0  0  0  0  0  0  0
   -2.1413   20.6855  -27.2081 H   0  0  0  0  0  0  0  0  0  0  0  0
   -0.6138   21.6307  -27.2081 H   0  0  0  0  0  0  0  0  0  0  0  0
   -2.6277   24.7602  -26.8672 H   0  0  0  0  0  0  0  0  0  0  0  0
   -0.9783   24.0662  -26.6018 H   0  0  0  0  0  0  0  0  0  0  0  0
   -2.3644   20.2814  -28.7138 H   0  0  0  0  0  0  0  0  0  0  0  0
   -3.1927   19.9112  -30.2641 H   0  0  0  0  0  0  0  0  0  0  0  0
   -1.6732   20.8692  -30.2641 H   0  0  0  0  0  0  0  0  0  0  0  0
   -3.8730   26.4480  -30.2600 H   0  0  0  0  0  0  0  0  0  0  0  0
   -3.5590   24.9530  -31.1960 H   0  0  0  0  0  0  0  0  0  0  0  0
   -8.2372   24.1869  -31.1014 H   0  0  0  0  0  0  0  0  0  0  0  0
   -9.4502   21.7680  -32.0542 H   0  0  0  0  0  0  0  0  0  0  0  0
   -8.9386   19.3772  -32.6563 H   0  0  0  0  0  0  0  0  0  0  0  0
   -5.5329   18.0486  -33.0564 H   0  0  0  0  0  0  0  0  0  0  0  0
   -6.4930   17.5310  -31.6285 H   0  0  0  0  0  0  0  0  0  0  0  0
   -4.7405   20.0271  -31.6783 H   0  0  0  0  0  0  0  0  0  0  0  0
  1  2  1  0
  2  3  1  0
  3  4  1  0
  4  5  2  0
  4  6  1  0
  2  7  1  0
  7  8  2  0
  7  9  1  0
  9 10  1  0
  9 11  1  0
 11 12  2  0
 11 13  1  0
 13 14  1  0
 14 15  1  0
 15 16  1  0
 15 17  2  0
 14 18  2  0
 18 19  1  0
 19 20  2  0
 20 21  1  0
 21 22  2  0
 22 23  1  0
 23 24  1  0
 22 25  1  0
 25 26  2  0
 26 13  1  0
 26 19  1  0
  1 27  1  0
  1 28  1  0
  1 29  1  0
  3 30  1  0
  3 31  1  0
 10 32  1  0
 10 33  1  0
 10 34  1  0
 16 35  1  0
 16 36  1  0
 18 37  1  0
 20 38  1  0
 21 39  1  0
 23 40  1  0
 23 41  1  0
 25 42  1  0
M  CHG  1   6  -1
M  END
>  <UniqueID>  (43) 
43

>  <SMILES>  (43) 
CN(CC(=O)[O-])C(=O)N(C)C(=O)n1c(C(N)=O)cc2ccc(CF)cc21

>  <Energy>  (43) 
82.7213162492676

>  <Genealogy>  (43) 
CN(CC(=O)[O-])C(=O)N(C)C(=O)n1c(C(N)=O)cc2ccc(CF)cc21 (protonated)
CN(CC(=O)[O-])C(=O)N(C)C(=O)n1c(C(N)=O)cc2ccc(CF)cc21 (3D coordinates assigned)
CN(CC(=O)[O-])C(=O)N(C)C(=O)n1c(C(N)=O)cc2ccc(CF)cc21 (optimized conformer: 82.7213162492676 kcal/mol)

>  <smiles>  (43) 
CN(CC(=O)O)C(=O)N(C)C(=O)n1c(C(N)=O)cc2ccc(CF)cc21

>  <score_type>  (43) 
oracle

>  <origin>  (43) 
adg

>  <m_score__min__energy>  (43) 
-11.16

>  <m_primary>  (43) 
energy

$$$$
44:0
     RDKit          3D

 43 44  0  0  0  0  0  0  0  0999 V2000
   -1.1550   22.2010  -26.6060 C   0  0  0  0  0  0  0  0  0  0  0  0
   -1.6290   22.7830  -27.8660 N   0  0  0  0  0  0  0  0  0  0  0  0
   -0.7230   23.6490  -28.6400 C   0  0  0  0  0  0  0  0  0  0  0  0
   -1.1710   25.1090  -28.5650 C   0  0  0  0  0  0  0  0  0  0  0  0
   -2.3270   25.2960  -29.3330 O   0  0  0  0  0  0  0  0  0  0  0  0
   -2.9950   22.5390  -28.2720 C   0  0  0  0  0  0  0  0  0  0  0  0
   -3.8670   23.4330  -28.0940 O   0  0  0  0  0  0  0  0  0  0  0  0
   -3.4260   21.2420  -28.8940 C   0  0  0  0  0  0  0  0  0  0  0  0
   -3.5160   21.3970  -30.3040 O   0  0  0  0  0  0  0  0  0  0  0  0
   -4.1830   22.4620  -30.9120 C   0  0  0  0  0  0  0  0  0  0  0  0
   -3.5340   23.4540  -31.3420 O   0  0  0  0  0  0  0  0  0  0  0  0
   -5.6140   22.4230  -31.0410 N   0  0  0  0  0  0  0  0  0  0  0  0
   -6.4940   23.4270  -30.7600 C   0  0  0  0  0  0  0  0  0  0  0  0
   -6.1650   24.7030  -30.0940 C   0  0  0  0  0  0  0  0  0  0  0  0
   -4.8100   25.0770  -29.8370 N   0  0  0  0  0  0  0  0  0  0  0  0
   -7.0980   25.4520  -29.6970 O   0  0  0  0  0  0  0  0  0  0  0  0
   -7.7830   23.0780  -31.1490 C   0  0  0  0  0  0  0  0  0  0  0  0
   -7.6720   21.8110  -31.6740 C   0  0  0  0  0  0  0  0  0  0  0  0
   -8.6480   20.9880  -32.2310 C   0  0  0  0  0  0  0  0  0  0  0  0
   -8.2460   19.7420  -32.7390 C   0  0  0  0  0  0  0  0  0  0  0  0
   -6.8870   19.3460  -32.6880 C   0  0  0  0  0  0  0  0  0  0  0  0
   -6.4580   18.0200  -33.2500 C   0  0  0  0  0  0  0  0  0  0  0  0
   -5.5610   17.4150  -32.3890 F   0  0  0  0  0  0  0  0  0  0  0  0
   -5.8550   18.2100  -34.4800 F   0  0  0  0  0  0  0  0  0  0  0  0
   -5.9240   20.2090  -32.1190 C   0  0  0  0  0  0  0  0  0  0  0  0
   -6.3540   21.4380  -31.6010 C   0  0  0  0  0  0  0  0  0  0  0  0
   -1.5991   22.7463  -25.7602 H   0  0  0  0  0  0  0  0  0  0  0  0
   -1.4516   21.1429  -26.5564 H   0  0  0  0  0  0  0  0  0  0  0  0
   -0.0588   22.2772  -26.5564 H   0  0  0  0  0  0  0  0  0  0  0  0
    0.2947   23.5627  -28.2315 H   0  0  0  0  0  0  0  0  0  0  0  0
   -0.7420   23.3281  -29.6920 H   0  0  0  0  0  0  0  0  0  0  0  0
   -1.3830   25.3715  -27.5180 H   0  0  0  0  0  0  0  0  0  0  0  0
   -0.3697   25.7528  -28.9565 H   0  0  0  0  0  0  0  0  0  0  0  0
   -2.6310   24.3900  -29.6010 H   0  0  0  0  0  0  0  0  0  0  0  0
   -2.6894   20.4599  -28.6578 H   0  0  0  0  0  0  0  0  0  0  0  0
   -4.4094   20.9538  -28.4943 H   0  0  0  0  0  0  0  0  0  0  0  0
   -4.5960   26.0030  -29.4070 H   0  0  0  0  0  0  0  0  0  0  0  0
   -4.0260   24.4100  -30.0060 H   0  0  0  0  0  0  0  0  0  0  0  0
   -8.6957   23.6850  -31.0567 H   0  0  0  0  0  0  0  0  0  0  0  0
   -9.7008   21.3042  -32.2717 H   0  0  0  0  0  0  0  0  0  0  0  0
   -8.9938   19.0670  -33.1808 H   0  0  0  0  0  0  0  0  0  0  0  0
   -7.3419   17.3761  -33.3686 H   0  0  0  0  0  0  0  0  0  0  0  0
   -4.8624   19.9231  -32.0834 H   0  0  0  0  0  0  0  0  0  0  0  0
  1  2  1  0
  2  3  1  0
  3  4  1  0
  4  5  1  0
  2  6  1  0
  6  7  2  0
  6  8  1  0
  8  9  1  0
  9 10  1  0
 10 11  2  0
 10 12  1  0
 12 13  1  0
 13 14  1  0
 14 15  1  0
 14 16  2  0
 13 17  2  0
 17 18  1  0
 18 19  2  0
 19 20  1  0
 20 21  2  0
 21 22  1  0
 22 23  1  0
 22 24  1  0
 21 25  1  0
 25 26  2  0
 26 12  1  0
 26 18  1  0
  1 27  1  0
  1 28  1  0
  1 29  1  0
  3 30  1  0
  3 31  1  0
  4 32  1  0
  4 33  1  0
  5 34  1  0
  8 35  1  0
  8 36  1  0
 15 37  1  0
 15 38  1  0
 17 39  1  0
 19 40  1  0
 20 41  1  0
 22 42  1  0
 25 43  1  0
M  END
>  <UniqueID>  (44) 
44

>  <SMILES>  (44) 
CN(CCO)C(=O)COC(=O)n1c(C(N)=O)cc2ccc(C(F)F)cc21

>  <Energy>  (44) 
74.08462187806457

>  <Genealogy>  (44) 
CN(CCO)C(=O)COC(=O)n1c(C(N)=O)cc2ccc(C(F)F)cc21 (3D coordinates assigned)
CN(CCO)C(=O)COC(=O)n1c(C(N)=O)cc2ccc(C(F)F)cc21 (optimized conformer: 74.08462187806457 kcal/mol)

>  <smiles>  (44) 
CN(CCO)C(=O)COC(=O)n1c(C(N)=O)cc2ccc(C(F)F)cc21

>  <score_type>  (44) 
oracle

>  <origin>  (44) 
adg

>  <m_score__min__energy>  (44) 
-7.7699999999999996

>  <m_primary>  (44) 
energy

$$$$
45:0
     RDKit          3D

 41 42  0  0  0  0  0  0  0  0999 V2000
   -0.8600   21.8020  -29.5510 C   0  0  0  0  0  0  0  0  0  0  0  0
   -2.2520   22.0140  -29.1350 N   0  0  0  0  0  0  0  0  0  0  0  0
   -2.5240   22.6670  -27.8420 C   0  0  0  0  0  0  0  0  0  0  0  0
   -3.0070   24.1150  -28.0170 C   0  0  0  0  0  0  0  0  0  0  0  0
   -1.8560   25.1260  -27.9990 C   0  0  0  0  0  0  0  0  0  0  0  0
   -1.5530   25.5590  -29.3000 O   0  0  0  0  0  0  0  0  0  0  0  0
   -3.3020   21.6240  -30.0570 C   0  0  0  0  0  0  0  0  0  0  0  0
   -3.7860   20.4620  -29.9760 O   0  0  0  0  0  0  0  0  0  0  0  0
   -3.8710   22.5350  -31.0790 C   0  0  0  0  0  0  0  0  0  0  0  0
   -3.1270   23.1180  -31.9110 O   0  0  0  0  0  0  0  0  0  0  0  0
   -5.2810   22.8100  -31.0910 N   0  0  0  0  0  0  0  0  0  0  0  0
   -5.8980   24.0010  -30.8550 C   0  0  0  0  0  0  0  0  0  0  0  0
   -5.2280   25.2480  -30.4300 C   0  0  0  0  0  0  0  0  0  0  0  0
   -3.8850   25.5100  -30.8340 N   0  0  0  0  0  0  0  0  0  0  0  0
   -5.8360   26.0990  -29.7250 O   0  0  0  0  0  0  0  0  0  0  0  0
   -7.2780   23.8770  -31.0130 C   0  0  0  0  0  0  0  0  0  0  0  0
   -7.4870   22.5600  -31.3600 C   0  0  0  0  0  0  0  0  0  0  0  0
   -8.6690   21.8830  -31.6420 C   0  0  0  0  0  0  0  0  0  0  0  0
   -8.5840   20.5240  -31.9880 C   0  0  0  0  0  0  0  0  0  0  0  0
   -7.3230   19.8740  -32.0720 C   0  0  0  0  0  0  0  0  0  0  0  0
   -7.2320   18.4070  -32.4070 C   0  0  0  0  0  0  0  0  0  0  0  0
   -6.3570   17.7940  -31.5300 F   0  0  0  0  0  0  0  0  0  0  0  0
   -8.4700   17.7930  -32.3110 F   0  0  0  0  0  0  0  0  0  0  0  0
   -6.7660   18.2390  -33.7010 F   0  0  0  0  0  0  0  0  0  0  0  0
   -6.1480   20.5930  -31.7600 C   0  0  0  0  0  0  0  0  0  0  0  0
   -6.2650   21.9390  -31.4030 C   0  0  0  0  0  0  0  0  0  0  0  0
   -0.2219   21.7048  -28.6603 H   0  0  0  0  0  0  0  0  0  0  0  0
   -0.7928   20.8833  -30.1522 H   0  0  0  0  0  0  0  0  0  0  0  0
   -0.5224   22.6591  -30.1522 H   0  0  0  0  0  0  0  0  0  0  0  0
   -3.3004   22.0955  -27.3122 H   0  0  0  0  0  0  0  0  0  0  0  0
   -1.5851   22.6896  -27.2694 H   0  0  0  0  0  0  0  0  0  0  0  0
   -3.5330   24.1971  -28.9796 H   0  0  0  0  0  0  0  0  0  0  0  0
   -3.6700   24.3497  -27.1712 H   0  0  0  0  0  0  0  0  0  0  0  0
   -2.1474   25.9936  -27.3888 H   0  0  0  0  0  0  0  0  0  0  0  0
   -0.9661   24.6399  -27.5727 H   0  0  0  0  0  0  0  0  0  0  0  0
   -2.4180   25.6730  -29.7720 H   0  0  0  0  0  0  0  0  0  0  0  0
   -3.1130   24.8490  -30.5950 H   0  0  0  0  0  0  0  0  0  0  0  0
   -8.0375   24.6628  -30.8874 H   0  0  0  0  0  0  0  0  0  0  0  0
   -9.6409   22.3962  -31.5955 H   0  0  0  0  0  0  0  0  0  0  0  0
   -9.5033   19.9570  -32.1961 H   0  0  0  0  0  0  0  0  0  0  0  0
   -5.1631   20.1045  -31.7972 H   0  0  0  0  0  0  0  0  0  0  0  0
  1  2  1  0
  2  3  1  0
  3  4  1  0
  4  5  1  0
  5  6  1  0
  2  7  1  0
  7  8  2  0
  7  9  1  0
  9 10  2  0
  9 11  1  0
 11 12  1  0
 12 13  1  0
 13 14  1  0
 13 15  2  0
 12 16  2  0
 16 17  1  0
 17 18  2  0
 18 19  1  0
 19 20  2  0
 20 21  1  0
 21 22  1  0
 21 23  1  0
 21 24  1  0
 20 25  1  0
 25 26  2  0
 26 11  1  0
 26 17  1  0
  1 27  1  0
  1 28  1  0
  1 29  1  0
  3 30  1  0
  3 31  1  0
  4 32  1  0
  4 33  1  0
  5 34  1  0
  5 35  1  0
  6 36  1  0
 14 37  1  0
 16 38  1  0
 18 39  1  0
 19 40  1  0
 25 41  1  0
M  CHG  1  14  -1
M  END
>  <UniqueID>  (45) 
45

>  <SMILES>  (45) 
CN(CCCO)C(=O)C(=O)n1c(C([NH-])=O)cc2ccc(C(F)(F)F)cc21

>  <Energy>  (45) 
77.87189715223695

>  <Genealogy>  (45) 
CN(CCCO)C(=O)C(=O)n1c(C([NH-])=O)cc2ccc(C(F)(F)F)cc21 (protonated)
CN(CCCO)C(=O)C(=O)n1c(C([NH-])=O)cc2ccc(C(F)(F)F)cc21 (3D coordinates assigned)
CN(CCCO)C(=O)C(=O)n1c(C([NH-])=O)cc2ccc(C(F)(F)F)cc21 (optimized conformer: 77.87189715223695 kcal/mol)

>  <smiles>  (45) 
CN(CCCO)C(=O)C(=O)n1c(C(N)=O)cc2ccc(C(F)(F)F)cc21

>  <score_type>  (45) 
oracle

>  <origin>  (45) 
adg

>  <m_score__min__energy>  (45) 
-10.369999999999999

>  <m_primary>  (45) 
energy

$$$$
46:0
     RDKit          3D

 56 57  0  0  0  0  0  0  0  0999 V2000
   -5.2650   13.7600  -34.8490 C   0  0  0  0  0  0  0  0  0  0  0  0
   -5.3940   14.6170  -33.6700 N   0  0  0  0  0  0  0  0  0  0  0  0
   -4.8960   14.1570  -32.3700 C   0  0  0  0  0  0  0  0  0  0  0  0
   -6.1470   15.8430  -33.7910 C   0  0  0  0  0  0  0  0  0  0  0  0
   -7.1760   15.8480  -34.5270 O   0  0  0  0  0  0  0  0  0  0  0  0
   -5.7040   17.1370  -33.1020 C   0  0  0  0  0  0  0  0  0  0  0  0
   -5.9680   16.9880  -31.5840 C   0  0  0  0  0  0  0  0  0  0  0  0
   -4.1940   17.3680  -33.3250 C   0  0  0  0  0  0  0  0  0  0  0  0
   -6.4410   18.2700  -33.6950 N   0  0  0  0  0  0  0  0  0  0  0  0
   -6.6580   19.5580  -33.0910 C   0  0  0  0  0  0  0  0  0  0  0  0
   -7.9620   20.0900  -32.9220 C   0  0  0  0  0  0  0  0  0  0  0  0
   -8.1530   21.3380  -32.3070 C   0  0  0  0  0  0  0  0  0  0  0  0
   -7.0280   22.0200  -31.8520 C   0  0  0  0  0  0  0  0  0  0  0  0
   -6.9260   23.2480  -31.2400 C   0  0  0  0  0  0  0  0  0  0  0  0
   -5.5640   23.4350  -31.0110 C   0  0  0  0  0  0  0  0  0  0  0  0
   -4.9990   24.5940  -30.2850 C   0  0  0  0  0  0  0  0  0  0  0  0
   -5.3760   24.8660  -28.9340 N   0  0  0  0  0  0  0  0  0  0  0  0
   -4.1500   25.3370  -30.8450 O   0  0  0  0  0  0  0  0  0  0  0  0
   -4.8530   22.3630  -31.4630 N   0  0  0  0  0  0  0  0  0  0  0  0
   -3.4250   22.2140  -31.4970 C   0  0  0  0  0  0  0  0  0  0  0  0
   -2.7580   22.3280  -30.4340 O   0  0  0  0  0  0  0  0  0  0  0  0
   -2.7910   21.9230  -32.7150 O   0  0  0  0  0  0  0  0  0  0  0  0
   -2.0030   20.7600  -33.0090 C   0  0  0  0  0  0  0  0  0  0  0  0
   -2.6210   19.9720  -34.1790 C   0  0  0  0  0  0  0  0  0  0  0  0
   -0.6090   21.2510  -33.4230 C   0  0  0  0  0  0  0  0  0  0  0  0
   -1.8650   19.8660  -31.7620 C   0  0  0  0  0  0  0  0  0  0  0  0
   -5.7650   21.5060  -31.9740 C   0  0  0  0  0  0  0  0  0  0  0  0
   -5.5470   20.2700  -32.5940 C   0  0  0  0  0  0  0  0  0  0  0  0
   -5.1083   12.7189  -34.5302 H   0  0  0  0  0  0  0  0  0  0  0  0
   -6.1830   13.8247  -35.4516 H   0  0  0  0  0  0  0  0  0  0  0  0
   -4.4067   14.0921  -35.4516 H   0  0  0  0  0  0  0  0  0  0  0  0
   -5.4469   14.6659  -31.5653 H   0  0  0  0  0  0  0  0  0  0  0  0
   -5.0431   13.0702  -32.2847 H   0  0  0  0  0  0  0  0  0  0  0  0
   -3.8243   14.3897  -32.2847 H   0  0  0  0  0  0  0  0  0  0  0  0
   -5.1448   17.4526  -31.0213 H   0  0  0  0  0  0  0  0  0  0  0  0
   -6.9148   17.4849  -31.3260 H   0  0  0  0  0  0  0  0  0  0  0  0
   -6.0319   15.9206  -31.3260 H   0  0  0  0  0  0  0  0  0  0  0  0
   -3.6873   17.4455  -32.3518 H   0  0  0  0  0  0  0  0  0  0  0  0
   -3.7736   16.5237  -33.8911 H   0  0  0  0  0  0  0  0  0  0  0  0
   -4.0452   18.2994  -33.8911 H   0  0  0  0  0  0  0  0  0  0  0  0
   -6.9060   18.1090  -34.6190 H   0  0  0  0  0  0  0  0  0  0  0  0
   -8.8328   19.5190  -33.2764 H   0  0  0  0  0  0  0  0  0  0  0  0
   -9.1604   21.7635  -32.1885 H   0  0  0  0  0  0  0  0  0  0  0  0
   -7.7455   23.9362  -30.9855 H   0  0  0  0  0  0  0  0  0  0  0  0
   -4.9400   25.6640  -28.4200 H   0  0  0  0  0  0  0  0  0  0  0  0
   -6.1150   24.3070  -28.4540 H   0  0  0  0  0  0  0  0  0  0  0  0
   -3.2544   19.1644  -33.7832 H   0  0  0  0  0  0  0  0  0  0  0  0
   -3.2318   20.6486  -34.7948 H   0  0  0  0  0  0  0  0  0  0  0  0
   -1.8183   19.5401  -34.7948 H   0  0  0  0  0  0  0  0  0  0  0  0
   -0.0121   21.4612  -32.5233 H   0  0  0  0  0  0  0  0  0  0  0  0
   -0.1095   20.4747  -34.0212 H   0  0  0  0  0  0  0  0  0  0  0  0
   -0.7063   22.1690  -34.0212 H   0  0  0  0  0  0  0  0  0  0  0  0
   -1.9602   20.4829  -30.8562 H   0  0  0  0  0  0  0  0  0  0  0  0
   -2.6558   19.1014  -31.7697 H   0  0  0  0  0  0  0  0  0  0  0  0
   -0.8805   19.3754  -31.7697 H   0  0  0  0  0  0  0  0  0  0  0  0
   -4.5299   19.8626  -32.6915 H   0  0  0  0  0  0  0  0  0  0  0  0
  1  2  1  0
  2  3  1  0
  2  4  1  0
  4  5  2  0
  4  6  1  0
  6  7  1  0
  6  8  1  0
  6  9  1  0
  9 10  1  0
 10 11  2  0
 11 12  1  0
 12 13  2  0
 13 14  1  0
 14 15  2  0
 15 16  1  0
 16 17  1  0
 16 18  2  0
 15 19  1  0
 19 20  1  0
 20 21  2  0
 20 22  1  0
 22 23  1  0
 23 24  1  0
 23 25  1  0
 23 26  1  0
 19 27  1  0
 27 28  2  0
 28 10  1  0
 27 13  1  0
  1 29  1  0
  1 30  1  0
  1 31  1  0
  3 32  1  0
  3 33  1  0
  3 34  1  0
  7 35  1  0
  7 36  1  0
  7 37  1  0
  8 38  1  0
  8 39  1  0
  8 40  1  0
  9 41  1  0
 11 42  1  0
 12 43  1  0
 14 44  1  0
 17 45  1  0
 17 46  1  0
 24 47  1  0
 24 48  1  0
 24 49  1  0
 25 50  1  0
 25 51  1  0
 25 52  1  0
 26 53  1  0
 26 54  1  0
 26 55  1  0
 28 56  1  0
M  END
>  <UniqueID>  (46) 
46

>  <SMILES>  (46) 
CN(C)C(=O)C(C)(C)Nc1ccc2cc(C(N)=O)n(C(=O)OC(C)(C)C)c2c1

>  <Energy>  (46) 
94.76907278054578

>  <Genealogy>  (46) 
CN(C)C(=O)C(C)(C)Nc1ccc2cc(C(N)=O)n(C(=O)OC(C)(C)C)c2c1 (3D coordinates assigned)
CN(C)C(=O)C(C)(C)Nc1ccc2cc(C(N)=O)n(C(=O)OC(C)(C)C)c2c1 (optimized conformer: 94.76907278054578 kcal/mol)

>  <smiles>  (46) 
CN(C)C(=O)C(C)(C)Nc1ccc2cc(C(N)=O)n(C(=O)OC(C)(C)C)c2c1

>  <score_type>  (46) 
oracle

>  <origin>  (46) 
adg

>  <m_score__min__energy>  (46) 
-10.109999999999999

>  <m_primary>  (46) 
energy

$$$$
47:0
     RDKit          3D

 38 39  0  0  0  0  0  0  0  0999 V2000
    0.1360   25.7950  -26.8650 C   0  0  0  0  0  0  0  0  0  0  0  0
    0.0990   25.3000  -28.1980 O   0  0  0  0  0  0  0  0  0  0  0  0
   -1.0130   24.6360  -28.7260 C   0  0  0  0  0  0  0  0  0  0  0  0
   -1.9200   25.2770  -29.3260 O   0  0  0  0  0  0  0  0  0  0  0  0
   -1.1240   23.1510  -28.5800 C   0  0  1  0  0  0  0  0  0  0  0  0
   -2.0810   22.8580  -27.6250 F   0  0  0  0  0  0  0  0  0  0  0  0
   -1.4960   22.5050  -29.9180 C   0  0  0  0  0  0  0  0  0  0  0  0
   -2.9130   22.4690  -30.0860 O   0  0  0  0  0  0  0  0  0  0  0  0
   -3.5460   22.3700  -31.3320 C   0  0  0  0  0  0  0  0  0  0  0  0
   -2.8660   22.1410  -32.3700 O   0  0  0  0  0  0  0  0  0  0  0  0
   -4.9760   22.5070  -31.4180 N   0  0  0  0  0  0  0  0  0  0  0  0
   -5.7390   23.5060  -30.8930 C   0  0  0  0  0  0  0  0  0  0  0  0
   -5.2340   24.7510  -30.2820 C   0  0  0  0  0  0  0  0  0  0  0  0
   -5.7480   25.2220  -29.0340 N   0  0  0  0  0  0  0  0  0  0  0  0
   -4.2980   25.3810  -30.8440 O   0  0  0  0  0  0  0  0  0  0  0  0
   -7.0930   23.2250  -31.0430 C   0  0  0  0  0  0  0  0  0  0  0  0
   -7.1420   22.0170  -31.6980 C   0  0  0  0  0  0  0  0  0  0  0  0
   -8.2400   21.2530  -32.0780 C   0  0  0  0  0  0  0  0  0  0  0  0
   -8.0020   20.0180  -32.7010 C   0  0  0  0  0  0  0  0  0  0  0  0
   -6.6770   19.5690  -32.9410 C   0  0  0  0  0  0  0  0  0  0  0  0
   -6.4350   18.2150  -33.5580 C   0  0  0  0  0  0  0  0  0  0  0  0
   -5.3880   17.5700  -32.9200 F   0  0  0  0  0  0  0  0  0  0  0  0
   -6.1200   18.3740  -34.8950 F   0  0  0  0  0  0  0  0  0  0  0  0
   -7.5640   17.4180  -33.4490 F   0  0  0  0  0  0  0  0  0  0  0  0
   -5.5870   20.3630  -32.5120 C   0  0  0  0  0  0  0  0  0  0  0  0
   -5.8520   21.6010  -31.9140 C   0  0  0  0  0  0  0  0  0  0  0  0
    0.0731   24.9534  -26.1595 H   0  0  0  0  0  0  0  0  0  0  0  0
    1.0774   26.3402  -26.7023 H   0  0  0  0  0  0  0  0  0  0  0  0
   -0.7139   26.4741  -26.7023 H   0  0  0  0  0  0  0  0  0  0  0  0
   -0.1519   22.7456  -28.2628 H   0  0  0  0  0  0  0  0  0  0  0  0
   -1.0503   23.0889  -30.7368 H   0  0  0  0  0  0  0  0  0  0  0  0
   -1.1128   21.4740  -29.9308 H   0  0  0  0  0  0  0  0  0  0  0  0
   -6.4080   24.6410  -28.4710 H   0  0  0  0  0  0  0  0  0  0  0  0
   -5.3880   26.1100  -28.6200 H   0  0  0  0  0  0  0  0  0  0  0  0
   -7.9430   23.8382  -30.7090 H   0  0  0  0  0  0  0  0  0  0  0  0
   -9.2656   21.6064  -31.8956 H   0  0  0  0  0  0  0  0  0  0  0  0
   -8.8523   19.3907  -33.0069 H   0  0  0  0  0  0  0  0  0  0  0  0
   -4.5522   20.0146  -32.6457 H   0  0  0  0  0  0  0  0  0  0  0  0
  1  2  1  0
  2  3  1  0
  3  4  2  0
  3  5  1  0
  5  6  1  0
  5  7  1  0
  7  8  1  0
  8  9  1  0
  9 10  2  0
  9 11  1  0
 11 12  1  0
 12 13  1  0
 13 14  1  0
 13 15  2  0
 12 16  2  0
 16 17  1  0
 17 18  2  0
 18 19  1  0
 19 20  2  0
 20 21  1  0
 21 22  1  0
 21 23  1  0
 21 24  1  0
 20 25  1  0
 25 26  2  0
 26 11  1  0
 26 17  1  0
  1 27  1  0
  1 28  1  0
  1 29  1  0
  5 30  1  1
  7 31  1  0
  7 32  1  0
 14 33  1  0
 14 34  1  0
 16 35  1  0
 18 36  1  0
 19 37  1  0
 25 38  1  0
M  END
>  <UniqueID>  (47) 
47

>  <SMILES>  (47) 
COC(=O)[C@@H](F)COC(=O)n1c(C(N)=O)cc2ccc(C(F)(F)F)cc21

>  <Energy>  (47) 
71.88397071041376

>  <Genealogy>  (47) 
COC(=O)[C@@H](F)COC(=O)n1c(C(N)=O)cc2ccc(C(F)(F)F)cc21 (chirality)
COC(=O)[C@@H](F)COC(=O)n1c(C(N)=O)cc2ccc(C(F)(F)F)cc21 (3D coordinates assigned)
COC(=O)[C@@H](F)COC(=O)n1c(C(N)=O)cc2ccc(C(F)(F)F)cc21 (optimized conformer: 71.88397071041376 kcal/mol)

>  <smiles>  (47) 
COC(=O)C(F)COC(=O)n1c(C(N)=O)cc2ccc(C(F)(F)F)cc21

>  <score_type>  (47) 
oracle

>  <origin>  (47) 
adg

>  <m_score__min__energy>  (47) 
-8.8100000000000005

>  <m_primary>  (47) 
energy

$$$$
48:0
     RDKit          3D

 39 40  0  0  0  0  0  0  0  0999 V2000
   -0.6490   21.1420  -29.7280 C   0  0  0  0  0  0  0  0  0  0  0  0
   -1.9030   21.6210  -29.1370 N   0  0  0  0  0  0  0  0  0  0  0  0
   -1.8570   22.4540  -27.9230 C   0  0  0  0  0  0  0  0  0  0  0  0
   -2.3950   23.8740  -28.1670 C   0  0  0  0  0  0  0  0  0  0  0  0
   -1.3220   24.8130  -28.6210 C   0  0  0  0  0  0  0  0  0  0  0  0
   -1.6150   25.9850  -28.9760 O   0  0  0  0  0  0  0  0  0  0  0  0
    0.0060   24.4050  -28.6250 O   0  0  0  0  0  0  0  0  0  0  0  0
   -3.1150   21.4890  -29.9140 C   0  0  0  0  0  0  0  0  0  0  0  0
   -3.8040   20.4390  -29.8030 O   0  0  0  0  0  0  0  0  0  0  0  0
   -3.5910   22.5480  -30.8310 C   0  0  0  0  0  0  0  0  0  0  0  0
   -2.7760   23.3230  -31.3960 O   0  0  0  0  0  0  0  0  0  0  0  0
   -4.9950   22.7220  -31.0680 N   0  0  0  0  0  0  0  0  0  0  0  0
   -5.7490   23.8240  -30.8000 C   0  0  0  0  0  0  0  0  0  0  0  0
   -5.2400   25.1090  -30.2790 C   0  0  0  0  0  0  0  0  0  0  0  0
   -4.0200   25.6470  -30.7840 N   0  0  0  0  0  0  0  0  0  0  0  0
   -5.8650   25.7330  -29.3820 O   0  0  0  0  0  0  0  0  0  0  0  0
   -7.0860   23.5870  -31.1210 C   0  0  0  0  0  0  0  0  0  0  0  0
   -7.1250   22.2910  -31.5890 C   0  0  0  0  0  0  0  0  0  0  0  0
   -8.2010   21.5270  -32.0300 C   0  0  0  0  0  0  0  0  0  0  0  0
   -7.9500   20.2030  -32.4270 C   0  0  0  0  0  0  0  0  0  0  0  0
   -6.6380   19.6690  -32.3720 C   0  0  0  0  0  0  0  0  0  0  0  0
   -6.3940   18.2460  -32.7900 C   0  0  0  0  0  0  0  0  0  0  0  0
   -6.1710   18.1920  -34.1530 F   0  0  0  0  0  0  0  0  0  0  0  0
   -7.4970   17.4730  -32.4760 F   0  0  0  0  0  0  0  0  0  0  0  0
   -5.5700   20.4730  -31.9160 C   0  0  0  0  0  0  0  0  0  0  0  0
   -5.8500   21.7920  -31.5430 C   0  0  0  0  0  0  0  0  0  0  0  0
    0.0549   20.8731  -28.9266 H   0  0  0  0  0  0  0  0  0  0  0  0
   -0.8512   20.2578  -30.3503 H   0  0  0  0  0  0  0  0  0  0  0  0
   -0.2102   21.9358  -30.3503 H   0  0  0  0  0  0  0  0  0  0  0  0
   -2.4657   21.9747  -27.1422 H   0  0  0  0  0  0  0  0  0  0  0  0
   -0.8045   22.5418  -27.6156 H   0  0  0  0  0  0  0  0  0  0  0  0
   -3.1769   23.8290  -28.9394 H   0  0  0  0  0  0  0  0  0  0  0  0
   -2.7953   24.2525  -27.2149 H   0  0  0  0  0  0  0  0  0  0  0  0
   -3.0980   25.2770  -30.4650 H   0  0  0  0  0  0  0  0  0  0  0  0
   -7.9297   24.2858  -31.0217 H   0  0  0  0  0  0  0  0  0  0  0  0
   -9.2171   21.9468  -32.0667 H   0  0  0  0  0  0  0  0  0  0  0  0
   -8.7794   19.5747  -32.7839 H   0  0  0  0  0  0  0  0  0  0  0  0
   -5.5115   17.8606  -32.2584 H   0  0  0  0  0  0  0  0  0  0  0  0
   -4.5469   20.0733  -31.8558 H   0  0  0  0  0  0  0  0  0  0  0  0
  1  2  1  0
  2  3  1  0
  3  4  1  0
  4  5  1  0
  5  6  2  0
  5  7  1  0
  2  8  1  0
  8  9  2  0
  8 10  1  0
 10 11  2  0
 10 12  1  0
 12 13  1  0
 13 14  1  0
 14 15  1  0
 14 16  2  0
 13 17  2  0
 17 18  1  0
 18 19  2  0
 19 20  1  0
 20 21  2  0
 21 22  1  0
 22 23  1  0
 22 24  1  0
 21 25  1  0
 25 26  2  0
 26 12  1  0
 26 18  1  0
  1 27  1  0
  1 28  1  0
  1 29  1  0
  3 30  1  0
  3 31  1  0
  4 32  1  0
  4 33  1  0
 15 34  1  0
 17 35  1  0
 19 36  1  0
 20 37  1  0
 22 38  1  0
 25 39  1  0
M  CHG  2   7  -1  15  -1
M  END
>  <UniqueID>  (48) 
48

>  <SMILES>  (48) 
CN(CCC(=O)[O-])C(=O)C(=O)n1c(C([NH-])=O)cc2ccc(C(F)F)cc21

>  <Energy>  (48) 
78.13325782264081

>  <Genealogy>  (48) 
CN(CCC(=O)[O-])C(=O)C(=O)n1c(C([NH-])=O)cc2ccc(C(F)F)cc21 (protonated)
CN(CCC(=O)[O-])C(=O)C(=O)n1c(C([NH-])=O)cc2ccc(C(F)F)cc21 (3D coordinates assigned)
CN(CCC(=O)[O-])C(=O)C(=O)n1c(C([NH-])=O)cc2ccc(C(F)F)cc21 (optimized conformer: 78.13325782264081 kcal/mol)

>  <smiles>  (48) 
CN(CCC(=O)O)C(=O)C(=O)n1c(C(N)=O)cc2ccc(C(F)F)cc21

>  <score_type>  (48) 
oracle

>  <origin>  (48) 
adg

>  <m_score__min__energy>  (48) 
-12.17

>  <m_primary>  (48) 
energy

$$$$
49:0
     RDKit          3D

 48 49  0  0  0  0  0  0  0  0999 V2000
   -3.0390   24.8620  -26.3760 C   0  0  0  0  0  0  0  0  0  0  0  0
   -2.6080   24.1040  -27.5430 N   0  0  0  0  0  0  0  0  0  0  0  0
   -1.8830   24.7110  -28.6160 C   0  0  0  0  0  0  0  0  0  0  0  0
   -1.6460   25.9500  -28.6030 O   0  0  0  0  0  0  0  0  0  0  0  0
   -1.4270   23.9100  -29.6690 O   0  0  0  0  0  0  0  0  0  0  0  0
   -0.4980   22.8420  -29.4980 C   0  0  0  0  0  0  0  0  0  0  0  0
   -1.2120   21.5350  -29.2690 C   0  0  0  0  0  0  0  0  0  0  0  0
   -1.6730   21.3070  -28.1180 O   0  0  0  0  0  0  0  0  0  0  0  0
   -1.3660   20.5410  -30.3110 N   0  0  0  0  0  0  0  0  0  0  0  0
   -0.4020   19.4380  -30.3800 C   0  0  0  0  0  0  0  0  0  0  0  0
   -2.5180   20.5340  -31.2240 C   0  0  0  0  0  0  0  0  0  0  0  0
   -3.0660   21.9560  -31.3950 C   0  0  0  0  0  0  0  0  0  0  0  0
   -4.1280   22.2730  -30.3820 C   0  0  0  0  0  0  0  0  0  0  0  0
   -3.8940   22.1270  -29.1520 O   0  0  0  0  0  0  0  0  0  0  0  0
   -5.4350   22.6850  -30.8090 N   0  0  0  0  0  0  0  0  0  0  0  0
   -5.9500   23.9460  -30.8010 C   0  0  0  0  0  0  0  0  0  0  0  0
   -5.2200   25.1730  -30.4210 C   0  0  0  0  0  0  0  0  0  0  0  0
   -3.8680   25.3530  -30.8360 N   0  0  0  0  0  0  0  0  0  0  0  0
   -5.7720   26.0590  -29.7150 O   0  0  0  0  0  0  0  0  0  0  0  0
   -7.2700   23.9340  -31.2480 C   0  0  0  0  0  0  0  0  0  0  0  0
   -7.5480   22.6150  -31.5310 C   0  0  0  0  0  0  0  0  0  0  0  0
   -8.7240   22.0240  -31.9800 C   0  0  0  0  0  0  0  0  0  0  0  0
   -8.7400   20.6280  -32.1460 C   0  0  0  0  0  0  0  0  0  0  0  0
   -7.5820   19.8530  -31.8720 C   0  0  0  0  0  0  0  0  0  0  0  0
   -7.6130   18.3510  -31.9940 C   0  0  0  0  0  0  0  0  0  0  0  0
   -7.1700   17.9640  -33.2460 F   0  0  0  0  0  0  0  0  0  0  0  0
   -6.7880   17.7970  -31.0330 F   0  0  0  0  0  0  0  0  0  0  0  0
   -8.8980   17.8630  -31.8200 F   0  0  0  0  0  0  0  0  0  0  0  0
   -6.4150   20.4900  -31.3950 C   0  0  0  0  0  0  0  0  0  0  0  0
   -6.4240   21.8830  -31.2560 C   0  0  0  0  0  0  0  0  0  0  0  0
   -2.7368   24.3306  -25.4615 H   0  0  0  0  0  0  0  0  0  0  0  0
   -2.5720   25.8578  -26.3926 H   0  0  0  0  0  0  0  0  0  0  0  0
   -4.1336   24.9700  -26.3926 H   0  0  0  0  0  0  0  0  0  0  0  0
   -2.7980   23.0770  -27.5800 H   0  0  0  0  0  0  0  0  0  0  0  0
    0.1239   22.7584  -30.4015 H   0  0  0  0  0  0  0  0  0  0  0  0
    0.1261   23.0586  -28.6184 H   0  0  0  0  0  0  0  0  0  0  0  0
   -0.1289   19.1255  -29.3613 H   0  0  0  0  0  0  0  0  0  0  0  0
   -0.8533   18.5895  -30.9152 H   0  0  0  0  0  0  0  0  0  0  0  0
    0.4992   19.7716  -30.9152 H   0  0  0  0  0  0  0  0  0  0  0  0
   -2.2029   20.1456  -32.2037 H   0  0  0  0  0  0  0  0  0  0  0  0
   -3.3066   19.8934  -30.8024 H   0  0  0  0  0  0  0  0  0  0  0  0
   -2.2390   22.6720  -31.2790 H   0  0  0  0  0  0  0  0  0  0  0  0
   -3.5170   22.0292  -32.3956 H   0  0  0  0  0  0  0  0  0  0  0  0
   -3.0830   25.2940  -30.1510 H   0  0  0  0  0  0  0  0  0  0  0  0
   -7.9463   24.7952  -31.3526 H   0  0  0  0  0  0  0  0  0  0  0  0
   -9.6151   22.6307  -32.1988 H   0  0  0  0  0  0  0  0  0  0  0  0
   -9.6586   20.1312  -32.4915 H   0  0  0  0  0  0  0  0  0  0  0  0
   -5.5195   19.9049  -31.1386 H   0  0  0  0  0  0  0  0  0  0  0  0
  1  2  1  0
  2  3  1  0
  3  4  2  0
  3  5  1  0
  5  6  1  0
  6  7  1  0
  7  8  2  0
  7  9  1  0
  9 10  1  0
  9 11  1  0
 11 12  1  0
 12 13  1  0
 13 14  2  0
 13 15  1  0
 15 16  1  0
 16 17  1  0
 17 18  1  0
 17 19  2  0
 16 20  2  0
 20 21  1  0
 21 22  2  0
 22 23  1  0
 23 24  2  0
 24 25  1  0
 25 26  1  0
 25 27  1  0
 25 28  1  0
 24 29  1  0
 29 30  2  0
 30 15  1  0
 30 21  1  0
  1 31  1  0
  1 32  1  0
  1 33  1  0
  2 34  1  0
  6 35  1  0
  6 36  1  0
 10 37  1  0
 10 38  1  0
 10 39  1  0
 11 40  1  0
 11 41  1  0
 12 42  1  0
 12 43  1  0
 18 44  1  0
 20 45  1  0
 22 46  1  0
 23 47  1  0
 29 48  1  0
M  CHG  1  18  -1
M  END
>  <UniqueID>  (49) 
49

>  <SMILES>  (49) 
CNC(=O)OCC(=O)N(C)CCC(=O)n1c(C([NH-])=O)cc2ccc(C(F)(F)F)cc21

>  <Energy>  (49) 
76.72585117877418

>  <Genealogy>  (49) 
CNC(=O)OCC(=O)N(C)CCC(=O)n1c(C([NH-])=O)cc2ccc(C(F)(F)F)cc21 (protonated)
CNC(=O)OCC(=O)N(C)CCC(=O)n1c(C([NH-])=O)cc2ccc(C(F)(F)F)cc21 (3D coordinates assigned)
CNC(=O)OCC(=O)N(C)CCC(=O)n1c(C([NH-])=O)cc2ccc(C(F)(F)F)cc21 (optimized conformer: 76.72585117877418 kcal/mol)

>  <smiles>  (49) 
CNC(=O)OCC(=O)N(C)CCC(=O)n1c(C(N)=O)cc2ccc(C(F)(F)F)cc21

>  <score_type>  (49) 
oracle

>  <origin>  (49) 
adg

>  <m_score__min__energy>  (49) 
-10.31

>  <m_primary>  (49) 
energy

$$$$
50:0
     RDKit          3D

 45 46  0  0  0  0  0  0  0  0999 V2000
   -2.3550   25.7440  -25.6380 C   0  0  0  0  0  0  0  0  0  0  0  0
   -1.5290   25.3520  -26.6160 C   0  0  0  0  0  0  0  0  0  0  0  0
   -0.0740   25.1190  -26.3160 C   0  0  0  0  0  0  0  0  0  0  0  0
   -2.0390   25.0710  -27.9750 C   0  0  0  0  0  0  0  0  0  0  0  0
   -1.5810   25.6960  -28.9720 O   0  0  0  0  0  0  0  0  0  0  0  0
   -3.0360   24.1020  -28.1480 O   0  0  0  0  0  0  0  0  0  0  0  0
   -2.8080   22.6960  -28.0430 C   0  0  0  0  0  0  0  0  0  0  0  0
   -1.7760   22.2230  -29.0810 C   0  0  2  0  0  0  0  0  0  0  0  0
   -1.4660   23.2880  -29.9410 O   0  0  0  0  0  0  0  0  0  0  0  0
   -2.3000   21.0380  -29.9050 C   0  0  0  0  0  0  0  0  0  0  0  0
   -3.6380   21.2790  -30.3410 O   0  0  0  0  0  0  0  0  0  0  0  0
   -4.0210   22.3960  -31.0930 C   0  0  0  0  0  0  0  0  0  0  0  0
   -3.1640   23.0540  -31.7440 O   0  0  0  0  0  0  0  0  0  0  0  0
   -5.4020   22.7850  -31.1360 N   0  0  0  0  0  0  0  0  0  0  0  0
   -5.9430   23.9850  -30.7800 C   0  0  0  0  0  0  0  0  0  0  0  0
   -5.1870   25.2020  -30.4170 C   0  0  0  0  0  0  0  0  0  0  0  0
   -3.8050   25.3060  -30.7540 N   0  0  0  0  0  0  0  0  0  0  0  0
   -5.7380   26.1370  -29.7800 O   0  0  0  0  0  0  0  0  0  0  0  0
   -7.3320   23.9450  -30.8810 C   0  0  0  0  0  0  0  0  0  0  0  0
   -7.6300   22.6740  -31.3170 C   0  0  0  0  0  0  0  0  0  0  0  0
   -8.8630   22.0810  -31.5740 C   0  0  0  0  0  0  0  0  0  0  0  0
   -8.8740   20.7380  -31.9860 C   0  0  0  0  0  0  0  0  0  0  0  0
   -7.6640   20.0150  -32.1270 C   0  0  0  0  0  0  0  0  0  0  0  0
   -7.7010   18.5740  -32.5500 C   0  0  0  0  0  0  0  0  0  0  0  0
   -8.7960   17.9490  -31.9810 F   0  0  0  0  0  0  0  0  0  0  0  0
   -6.5450   17.9370  -32.1360 F   0  0  0  0  0  0  0  0  0  0  0  0
   -6.4310   20.6490  -31.8540 C   0  0  0  0  0  0  0  0  0  0  0  0
   -6.4490   21.9930  -31.4630 C   0  0  0  0  0  0  0  0  0  0  0  0
   -3.4200   25.9155  -25.8533 H   0  0  0  0  0  0  0  0  0  0  0  0
   -1.9687   25.8946  -24.6191 H   0  0  0  0  0  0  0  0  0  0  0  0
    0.0765   25.0949  -25.2266 H   0  0  0  0  0  0  0  0  0  0  0  0
    0.2409   24.1590  -26.7510 H   0  0  0  0  0  0  0  0  0  0  0  0
    0.5249   25.9327  -26.7510 H   0  0  0  0  0  0  0  0  0  0  0  0
   -2.4337   22.4671  -27.0343 H   0  0  0  0  0  0  0  0  0  0  0  0
   -3.7574   22.1732  -28.2311 H   0  0  0  0  0  0  0  0  0  0  0  0
   -0.8773   21.8885  -28.5420 H   0  0  0  0  0  0  0  0  0  0  0  0
   -2.2630   23.8790  -29.9690 H   0  0  0  0  0  0  0  0  0  0  0  0
   -1.6540   20.8955  -30.7838 H   0  0  0  0  0  0  0  0  0  0  0  0
   -2.2905   20.1369  -29.2742 H   0  0  0  0  0  0  0  0  0  0  0  0
   -3.0880   24.7290  -30.2620 H   0  0  0  0  0  0  0  0  0  0  0  0
   -8.0402   24.7570  -30.6593 H   0  0  0  0  0  0  0  0  0  0  0  0
   -9.7994   22.6464  -31.4581 H   0  0  0  0  0  0  0  0  0  0  0  0
   -9.8322   20.2426  -32.2014 H   0  0  0  0  0  0  0  0  0  0  0  0
   -7.7769   18.5222  -33.6462 H   0  0  0  0  0  0  0  0  0  0  0  0
   -5.4818   20.1007  -31.9463 H   0  0  0  0  0  0  0  0  0  0  0  0
  1  2  2  0
  2  3  1  0
  2  4  1  0
  4  5  2  0
  4  6  1  0
  6  7  1  0
  7  8  1  0
  8  9  1  0
  8 10  1  0
 10 11  1  0
 11 12  1  0
 12 13  2  0
 12 14  1  0
 14 15  1  0
 15 16  1  0
 16 17  1  0
 16 18  2  0
 15 19  2  0
 19 20  1  0
 20 21  2  0
 21 22  1  0
 22 23  2  0
 23 24  1  0
 24 25  1  0
 24 26  1  0
 23 27  1  0
 27 28  2  0
 28 14  1  0
 28 20  1  0
  1 29  1  0
  1 30  1  0
  3 31  1  0
  3 32  1  0
  3 33  1  0
  7 34  1  0
  7 35  1  0
  8 36  1  1
  9 37  1  0
 10 38  1  0
 10 39  1  0
 17 40  1  0
 19 41  1  0
 21 42  1  0
 22 43  1  0
 24 44  1  0
 27 45  1  0
M  CHG  1  17  -1
M  END
>  <UniqueID>  (50) 
50

>  <SMILES>  (50) 
C=C(C)C(=O)OC[C@H](O)COC(=O)n1c(C([NH-])=O)cc2ccc(C(F)F)cc21

>  <Energy>  (50) 
77.79379071070653

>  <Genealogy>  (50) 
C=C(C)C(=O)OCC(O)COC(=O)n1c(C([NH-])=O)cc2ccc(C(F)F)cc21 (protonated)
C=C(C)C(=O)OC[C@H](O)COC(=O)n1c(C([NH-])=O)cc2ccc(C(F)F)cc21 (chirality)
C=C(C)C(=O)OC[C@H](O)COC(=O)n1c(C([NH-])=O)cc2ccc(C(F)F)cc21 (3D coordinates assigned)
C=C(C)C(=O)OC[C@H](O)COC(=O)n1c(C([NH-])=O)cc2ccc(C(F)F)cc21 (optimized conformer: 77.79379071070653 kcal/mol)

>  <smiles>  (50) 
C=C(C)C(=O)OCC(O)COC(=O)n1c(C(N)=O)cc2ccc(C(F)F)cc21

>  <score_type>  (50) 
oracle

>  <origin>  (50) 
adg

>  <m_score__min__energy>  (50) 
-9.6899999999999995

>  <m_primary>  (50) 
energy

$$$$
51:0
     RDKit          3D

 39 41  0  0  0  0  0  0  0  0999 V2000
   -4.0100   25.6680  -30.8310 N   0  0  0  0  0  0  0  0  0  0  0  0
   -5.2810   25.1140  -30.4960 C   0  0  0  0  0  0  0  0  0  0  0  0
   -6.0640   25.7690  -29.7590 O   0  0  0  0  0  0  0  0  0  0  0  0
   -5.7100   23.8110  -31.0470 C   0  0  0  0  0  0  0  0  0  0  0  0
   -7.0410   23.4870  -31.2990 C   0  0  0  0  0  0  0  0  0  0  0  0
   -7.0090   22.2400  -31.8790 C   0  0  0  0  0  0  0  0  0  0  0  0
   -8.0510   21.4300  -32.3180 C   0  0  0  0  0  0  0  0  0  0  0  0
   -7.7290   20.1700  -32.8480 C   0  0  0  0  0  0  0  0  0  0  0  0
   -6.3790   19.7360  -32.9220 C   0  0  0  0  0  0  0  0  0  0  0  0
   -6.0500   18.3960  -33.4720 C   0  0  0  0  0  0  0  0  0  0  0  0
   -6.8790   17.2920  -33.2130 C   0  0  0  0  0  0  0  0  0  0  0  0
   -6.5510   16.0400  -33.7380 C   0  0  0  0  0  0  0  0  0  0  0  0
   -5.4330   15.8870  -34.4980 N   0  0  0  0  0  0  0  0  0  0  0  0
   -4.6110   16.9370  -34.7660 C   0  0  0  0  0  0  0  0  0  0  0  0
   -3.5060   16.7540  -35.5320 F   0  0  0  0  0  0  0  0  0  0  0  0
   -4.9020   18.2060  -34.2600 C   0  0  0  0  0  0  0  0  0  0  0  0
   -5.3490   20.5910  -32.4640 C   0  0  0  0  0  0  0  0  0  0  0  0
   -5.6980   21.8480  -31.9600 C   0  0  0  0  0  0  0  0  0  0  0  0
   -4.8880   22.8020  -31.4500 N   0  0  0  0  0  0  0  0  0  0  0  0
   -3.4660   22.7070  -31.2780 C   0  0  0  0  0  0  0  0  0  0  0  0
   -2.7490   22.2600  -32.2150 O   0  0  0  0  0  0  0  0  0  0  0  0
   -2.8860   23.0970  -30.0650 O   0  0  0  0  0  0  0  0  0  0  0  0
   -1.4780   23.1170  -29.8310 C   0  0  0  0  0  0  0  0  0  0  0  0
   -1.0920   24.2980  -28.9380 C   0  0  0  0  0  0  0  0  0  0  0  0
   -1.9880   25.3640  -29.0960 O   0  0  0  0  0  0  0  0  0  0  0  0
   -3.1270   25.2300  -30.4890 H   0  0  0  0  0  0  0  0  0  0  0  0
   -7.9290   24.0983  -31.0806 H   0  0  0  0  0  0  0  0  0  0  0  0
   -9.0962   21.7663  -32.2520 H   0  0  0  0  0  0  0  0  0  0  0  0
   -8.5322   19.5114  -33.2101 H   0  0  0  0  0  0  0  0  0  0  0  0
   -7.7835   17.4131  -32.5988 H   0  0  0  0  0  0  0  0  0  0  0  0
   -7.1991   15.1744  -33.5362 H   0  0  0  0  0  0  0  0  0  0  0  0
   -5.2030   14.9440  -34.8820 H   0  0  0  0  0  0  0  0  0  0  0  0
   -4.2352   19.0534  -34.4775 H   0  0  0  0  0  0  0  0  0  0  0  0
   -4.2964   20.2739  -32.5035 H   0  0  0  0  0  0  0  0  0  0  0  0
   -1.1811   22.1797  -29.3376 H   0  0  0  0  0  0  0  0  0  0  0  0
   -0.9617   23.2218  -30.7966 H   0  0  0  0  0  0  0  0  0  0  0  0
   -1.1026   23.9725  -27.8873 H   0  0  0  0  0  0  0  0  0  0  0  0
   -0.0873   24.6404  -29.2265 H   0  0  0  0  0  0  0  0  0  0  0  0
   -2.9000   24.9710  -29.0960 H   0  0  0  0  0  0  0  0  0  0  0  0
  1  2  1  0
  2  3  2  0
  2  4  1  0
  4  5  2  0
  5  6  1  0
  6  7  2  0
  7  8  1  0
  8  9  2  0
  9 10  1  0
 10 11  2  0
 11 12  1  0
 12 13  2  0
 13 14  1  0
 14 15  1  0
 14 16  2  0
  9 17  1  0
 17 18  2  0
 18 19  1  0
 19 20  1  0
 20 21  2  0
 20 22  1  0
 22 23  1  0
 23 24  1  0
 24 25  1  0
 19  4  1  0
 18  6  1  0
 16 10  1  0
  1 26  1  0
  5 27  1  0
  7 28  1  0
  8 29  1  0
 11 30  1  0
 12 31  1  0
 13 32  1  0
 16 33  1  0
 17 34  1  0
 23 35  1  0
 23 36  1  0
 24 37  1  0
 24 38  1  0
 25 39  1  0
M  CHG  2   1  -1  13   1
M  END
>  <UniqueID>  (51) 
51

>  <SMILES>  (51) 
[NH-]C(=O)c1cc2ccc(-c3cc[nH+]c(F)c3)cc2n1C(=O)OCCO

>  <Energy>  (51) 
82.98852619085471

>  <Genealogy>  (51) 
[NH-]C(=O)c1cc2ccc(-c3cc[nH+]c(F)c3)cc2n1C(=O)OCCO (protonated)
[NH-]C(=O)c1cc2ccc(-c3cc[nH+]c(F)c3)cc2n1C(=O)OCCO (3D coordinates assigned)
[NH-]C(=O)c1cc2ccc(-c3cc[nH+]c(F)c3)cc2n1C(=O)OCCO (optimized conformer: 82.98852619085471 kcal/mol)

>  <smiles>  (51) 
NC(=O)c1cc2ccc(-c3ccnc(F)c3)cc2n1C(=O)OCCO

>  <score_type>  (51) 
oracle

>  <origin>  (51) 
adg

>  <m_score__min__energy>  (51) 
-10.859999999999999

>  <m_primary>  (51) 
energy

$$$$
52:0
     RDKit          3D

 47 48  0  0  0  0  0  0  0  0999 V2000
   -2.0600   25.4480  -25.9200 C   0  0  0  0  0  0  0  0  0  0  0  0
   -1.6900   24.5870  -27.1390 C   0  0  1  0  0  0  0  0  0  0  0  0
   -1.0520   25.4990  -28.1570 C   0  0  0  0  0  0  0  0  0  0  0  0
   -1.5880   25.6740  -29.2840 O   0  0  0  0  0  0  0  0  0  0  0  0
    0.1430   26.1430  -27.8590 O   0  0  0  0  0  0  0  0  0  0  0  0
   -0.7780   23.4630  -26.7730 N   0  0  0  0  0  0  0  0  0  0  0  0
    0.3060   23.3220  -27.7690 C   0  0  0  0  0  0  0  0  0  0  0  0
   -1.4970   22.1690  -26.6530 C   0  0  0  0  0  0  0  0  0  0  0  0
   -1.9120   21.6580  -28.0050 C   0  0  0  0  0  0  0  0  0  0  0  0
   -3.0410   22.0820  -28.5960 C   0  0  0  0  0  0  0  0  0  0  0  0
   -3.5340   21.4810  -29.8830 C   0  0  0  0  0  0  0  0  0  0  0  0
   -3.9460   22.5380  -30.8680 C   0  0  0  0  0  0  0  0  0  0  0  0
   -3.0690   23.1120  -31.5690 O   0  0  0  0  0  0  0  0  0  0  0  0
   -5.3350   22.8600  -31.0590 N   0  0  0  0  0  0  0  0  0  0  0  0
   -5.9740   24.0300  -30.7750 C   0  0  0  0  0  0  0  0  0  0  0  0
   -5.3230   25.3030  -30.4010 C   0  0  0  0  0  0  0  0  0  0  0  0
   -4.0030   25.6080  -30.8440 N   0  0  0  0  0  0  0  0  0  0  0  0
   -5.9570   26.1500  -29.7180 O   0  0  0  0  0  0  0  0  0  0  0  0
   -7.3480   23.8950  -30.9660 C   0  0  0  0  0  0  0  0  0  0  0  0
   -7.5290   22.6000  -31.3950 C   0  0  0  0  0  0  0  0  0  0  0  0
   -8.6990   21.9170  -31.7140 C   0  0  0  0  0  0  0  0  0  0  0  0
   -8.5910   20.5700  -32.1000 C   0  0  0  0  0  0  0  0  0  0  0  0
   -7.3230   19.9380  -32.1810 C   0  0  0  0  0  0  0  0  0  0  0  0
   -7.2210   18.4790  -32.5460 C   0  0  0  0  0  0  0  0  0  0  0  0
   -8.4510   17.8750  -32.3570 F   0  0  0  0  0  0  0  0  0  0  0  0
   -6.8450   18.3290  -33.8700 F   0  0  0  0  0  0  0  0  0  0  0  0
   -6.2800   17.8430  -31.7550 F   0  0  0  0  0  0  0  0  0  0  0  0
   -6.1620   20.6620  -31.8270 C   0  0  0  0  0  0  0  0  0  0  0  0
   -6.2990   22.0000  -31.4490 C   0  0  0  0  0  0  0  0  0  0  0  0
   -1.8236   24.8979  -24.9972 H   0  0  0  0  0  0  0  0  0  0  0  0
   -1.4854   26.3856  -25.9454 H   0  0  0  0  0  0  0  0  0  0  0  0
   -3.1357   25.6764  -25.9454 H   0  0  0  0  0  0  0  0  0  0  0  0
   -2.5945   24.1174  -27.5530 H   0  0  0  0  0  0  0  0  0  0  0  0
    1.2674   23.1969  -27.2493 H   0  0  0  0  0  0  0  0  0  0  0  0
    0.1126   22.4414  -28.3993 H   0  0  0  0  0  0  0  0  0  0  0  0
    0.3443   24.2227  -28.3993 H   0  0  0  0  0  0  0  0  0  0  0  0
   -0.8340   21.4314  -26.1772 H   0  0  0  0  0  0  0  0  0  0  0  0
   -2.3996   22.3238  -26.0437 H   0  0  0  0  0  0  0  0  0  0  0  0
   -1.2778   20.9218  -28.5205 H   0  0  0  0  0  0  0  0  0  0  0  0
   -3.6204   22.8904  -28.1260 H   0  0  0  0  0  0  0  0  0  0  0  0
   -2.7289   20.8760  -30.3253 H   0  0  0  0  0  0  0  0  0  0  0  0
   -4.4142   20.8612  -29.6570 H   0  0  0  0  0  0  0  0  0  0  0  0
   -3.1870   25.0360  -30.5320 H   0  0  0  0  0  0  0  0  0  0  0  0
   -8.1223   24.6601  -30.8077 H   0  0  0  0  0  0  0  0  0  0  0  0
   -9.6780   22.4161  -31.6655 H   0  0  0  0  0  0  0  0  0  0  0  0
   -9.4996   19.9991  -32.3421 H   0  0  0  0  0  0  0  0  0  0  0  0
   -5.1722   20.1826  -31.8486 H   0  0  0  0  0  0  0  0  0  0  0  0
  1  2  1  0
  2  3  1  0
  3  4  2  0
  3  5  1  0
  2  6  1  0
  6  7  1  0
  6  8  1  0
  8  9  1  0
  9 10  2  3
 10 11  1  0
 11 12  1  0
 12 13  2  0
 12 14  1  0
 14 15  1  0
 15 16  1  0
 16 17  1  0
 16 18  2  0
 15 19  2  0
 19 20  1  0
 20 21  2  0
 21 22  1  0
 22 23  2  0
 23 24  1  0
 24 25  1  0
 24 26  1  0
 24 27  1  0
 23 28  1  0
 28 29  2  0
 29 14  1  0
 29 20  1  0
  1 30  1  0
  1 31  1  0
  1 32  1  0
  2 33  1  6
  7 34  1  0
  7 35  1  0
  7 36  1  0
  8 37  1  0
  8 38  1  0
  9 39  1  0
 10 40  1  0
 11 41  1  0
 11 42  1  0
 17 43  1  0
 19 44  1  0
 21 45  1  0
 22 46  1  0
 28 47  1  0
M  CHG  2   5  -1  17  -1
M  END
>  <UniqueID>  (52) 
52

>  <SMILES>  (52) 
C[C@@H](C(=O)[O-])N(C)CC=CCC(=O)n1c(C([NH-])=O)cc2ccc(C(F)(F)F)cc21

>  <Energy>  (52) 
84.09325002061257

>  <Genealogy>  (52) 
C[C@@H](C(=O)[O-])N(C)CC=CCC(=O)n1c(C([NH-])=O)cc2ccc(C(F)(F)F)cc21 (protonated)
C[C@@H](C(=O)[O-])N(C)CC=CCC(=O)n1c(C([NH-])=O)cc2ccc(C(F)(F)F)cc21 (3D coordinates assigned)
C[C@@H](C(=O)[O-])N(C)CC=CCC(=O)n1c(C([NH-])=O)cc2ccc(C(F)(F)F)cc21 (optimized conformer: 84.09325002061257 kcal/mol)

>  <smiles>  (52) 
C[C@@H](C(=O)O)N(C)CC=CCC(=O)n1c(C(N)=O)cc2ccc(C(F)(F)F)cc21

>  <score_type>  (52) 
oracle

>  <origin>  (52) 
adg

>  <m_score__min__energy>  (52) 
-13.109999999999999

>  <m_primary>  (52) 
energy

$$$$
53:0
     RDKit          3D

 45 47  0  0  0  0  0  0  0  0999 V2000
   -5.7250   24.9320  -28.9880 N   0  0  0  0  0  0  0  0  0  0  0  0
   -6.1350   24.7130  -30.3400 C   0  0  0  0  0  0  0  0  0  0  0  0
   -6.0490   25.6520  -31.1760 O   0  0  0  0  0  0  0  0  0  0  0  0
   -6.5920   23.3860  -30.7840 C   0  0  0  0  0  0  0  0  0  0  0  0
   -7.9340   23.0190  -30.8300 C   0  0  0  0  0  0  0  0  0  0  0  0
   -7.9470   21.7700  -31.4080 C   0  0  0  0  0  0  0  0  0  0  0  0
   -9.0160   20.9280  -31.6920 C   0  0  0  0  0  0  0  0  0  0  0  0
   -8.7360   19.6740  -32.2610 C   0  0  0  0  0  0  0  0  0  0  0  0
   -7.3950   19.2810  -32.5310 C   0  0  0  0  0  0  0  0  0  0  0  0
   -7.0750   17.9910  -33.0920 N   0  0  0  0  0  0  0  0  0  0  0  0
   -5.7360   17.4000  -33.1380 C   0  0  0  0  0  0  0  0  0  0  0  0
   -4.9500   17.9130  -34.3590 C   0  0  0  0  0  0  0  0  0  0  0  0
   -5.7820   18.3700  -35.4030 O   0  0  0  0  0  0  0  0  0  0  0  0
   -3.8190   18.8680  -34.0230 C   0  0  0  0  0  0  0  0  0  0  0  0
   -2.8370   17.9730  -34.4980 O   0  0  0  0  0  0  0  0  0  0  0  0
   -3.8170   17.0120  -34.8200 C   0  0  0  0  0  0  0  0  0  0  0  0
   -6.3430   20.1770  -32.2450 C   0  0  0  0  0  0  0  0  0  0  0  0
   -6.6500   21.4190  -31.6800 C   0  0  0  0  0  0  0  0  0  0  0  0
   -5.8020   22.3980  -31.2930 N   0  0  0  0  0  0  0  0  0  0  0  0
   -4.3620   22.3310  -31.3120 C   0  0  0  0  0  0  0  0  0  0  0  0
   -3.7450   22.5510  -32.3880 O   0  0  0  0  0  0  0  0  0  0  0  0
   -3.5690   21.9890  -30.0750 C   0  0  0  0  0  0  0  0  0  0  0  0
   -2.3060   22.8470  -29.9130 C   0  0  0  0  0  0  0  0  0  0  0  0
   -2.6890   24.5600  -29.4240 P   0  0  0  0  0  0  0  0  0  0  0  0
   -3.5240   24.5670  -28.1640 O   0  0  0  0  0  0  0  0  0  0  0  0
   -3.5610   25.3040  -30.6680 O   0  0  0  0  0  0  0  0  0  0  0  0
   -1.2580   25.4220  -29.1560 O   0  0  0  0  0  0  0  0  0  0  0  0
   -5.4320   25.8850  -28.6780 H   0  0  0  0  0  0  0  0  0  0  0  0
   -5.7090   24.1480  -28.3000 H   0  0  0  0  0  0  0  0  0  0  0  0
   -8.7985   23.6020  -30.4796 H   0  0  0  0  0  0  0  0  0  0  0  0
  -10.0505   21.2343  -31.4777 H   0  0  0  0  0  0  0  0  0  0  0  0
   -9.5624   18.9886  -32.5004 H   0  0  0  0  0  0  0  0  0  0  0  0
   -7.8440   17.4440  -33.5450 H   0  0  0  0  0  0  0  0  0  0  0  0
   -5.1920   17.6691  -32.2206 H   0  0  0  0  0  0  0  0  0  0  0  0
   -5.8368   16.3076  -33.2188 H   0  0  0  0  0  0  0  0  0  0  0  0
   -6.5220   18.9060  -35.0160 H   0  0  0  0  0  0  0  0  0  0  0  0
   -3.8606   19.8126  -34.5851 H   0  0  0  0  0  0  0  0  0  0  0  0
   -3.7356   19.2563  -32.9972 H   0  0  0  0  0  0  0  0  0  0  0  0
   -3.8579   16.7691  -35.8921 H   0  0  0  0  0  0  0  0  0  0  0  0
   -3.7327   16.0008  -34.3952 H   0  0  0  0  0  0  0  0  0  0  0  0
   -5.3000   19.9035  -32.4626 H   0  0  0  0  0  0  0  0  0  0  0  0
   -4.2107   22.1409  -29.1946 H   0  0  0  0  0  0  0  0  0  0  0  0
   -3.2444   20.9425  -30.1723 H   0  0  0  0  0  0  0  0  0  0  0  0
   -1.6673   22.3934  -29.1407 H   0  0  0  0  0  0  0  0  0  0  0  0
   -1.7967   22.8819  -30.8873 H   0  0  0  0  0  0  0  0  0  0  0  0
  1  2  1  0
  2  3  2  0
  2  4  1  0
  4  5  2  0
  5  6  1  0
  6  7  2  0
  7  8  1  0
  8  9  2  0
  9 10  1  0
 10 11  1  0
 11 12  1  0
 12 13  1  0
 12 14  1  0
 14 15  1  0
 15 16  1  0
  9 17  1  0
 17 18  2  0
 18 19  1  0
 19 20  1  0
 20 21  2  0
 20 22  1  0
 22 23  1  0
 23 24  1  0
 24 25  2  0
 24 26  1  0
 24 27  1  0
 19  4  1  0
 18  6  1  0
 16 12  1  0
  1 28  1  0
  1 29  1  0
  5 30  1  0
  7 31  1  0
  8 32  1  0
 10 33  1  0
 11 34  1  0
 11 35  1  0
 13 36  1  0
 14 37  1  0
 14 38  1  0
 16 39  1  0
 16 40  1  0
 17 41  1  0
 22 42  1  0
 22 43  1  0
 23 44  1  0
 23 45  1  0
M  CHG  2  26  -1  27  -1
M  END
>  <UniqueID>  (53) 
53

>  <SMILES>  (53) 
NC(=O)c1cc2ccc(NCC3(O)COC3)cc2n1C(=O)CCP(=O)([O-])[O-]

>  <Energy>  (53) 
147.0274153051101

>  <Genealogy>  (53) 
NC(=O)c1cc2ccc(NCC3(O)COC3)cc2n1C(=O)CCP(=O)([O-])[O-] (protonated)
NC(=O)c1cc2ccc(NCC3(O)COC3)cc2n1C(=O)CCP(=O)([O-])[O-] (3D coordinates assigned)
NC(=O)c1cc2ccc(NCC3(O)COC3)cc2n1C(=O)CCP(=O)([O-])[O-] (nonaromatic ring conformer: 147.0274153051101 kcal/mol)

>  <smiles>  (53) 
NC(=O)c1cc2ccc(NCC3(O)COC3)cc2n1C(=O)CCP(=O)(O)O

>  <score_type>  (53) 
oracle

>  <origin>  (53) 
adg

>  <m_score__min__energy>  (53) 
-13.6

>  <m_primary>  (53) 
energy

$$$$
54:0
     RDKit          3D

 37 38  0  0  0  0  0  0  0  0999 V2000
   -3.8640   25.3230  -30.9180 N   0  0  0  0  0  0  0  0  0  0  0  0
   -5.2070   25.1260  -30.4840 C   0  0  0  0  0  0  0  0  0  0  0  0
   -5.7710   26.0190  -29.7960 O   0  0  0  0  0  0  0  0  0  0  0  0
   -5.9300   23.8920  -30.8600 C   0  0  0  0  0  0  0  0  0  0  0  0
   -7.3190   23.7820  -30.8780 C   0  0  0  0  0  0  0  0  0  0  0  0
   -7.5760   22.4760  -31.2340 C   0  0  0  0  0  0  0  0  0  0  0  0
   -8.7890   21.8170  -31.4090 C   0  0  0  0  0  0  0  0  0  0  0  0
   -8.7540   20.4670  -31.8000 C   0  0  0  0  0  0  0  0  0  0  0  0
   -7.5170   19.8110  -32.0350 C   0  0  0  0  0  0  0  0  0  0  0  0
   -7.4910   18.3530  -32.4180 C   0  0  0  0  0  0  0  0  0  0  0  0
   -8.7490   17.7900  -32.2910 F   0  0  0  0  0  0  0  0  0  0  0  0
   -7.0790   18.2020  -33.7300 F   0  0  0  0  0  0  0  0  0  0  0  0
   -6.6100   17.6810  -31.5880 F   0  0  0  0  0  0  0  0  0  0  0  0
   -6.3070   20.5110  -31.8250 C   0  0  0  0  0  0  0  0  0  0  0  0
   -6.3740   21.8480  -31.4170 C   0  0  0  0  0  0  0  0  0  0  0  0
   -5.3540   22.7020  -31.1870 N   0  0  0  0  0  0  0  0  0  0  0  0
   -3.9530   22.4160  -31.3250 C   0  0  0  0  0  0  0  0  0  0  0  0
   -3.4800   22.1740  -32.4670 O   0  0  0  0  0  0  0  0  0  0  0  0
   -3.0670   22.4150  -30.1450 C   0  0  0  0  0  0  0  0  0  0  0  0
   -3.0790   21.4250  -29.3640 O   0  0  0  0  0  0  0  0  0  0  0  0
   -2.2080   23.5330  -29.8740 N   0  0  0  0  0  0  0  0  0  0  0  0
   -1.3430   23.5780  -28.6910 C   0  0  1  0  0  0  0  0  0  0  0  0
   -0.2650   22.4820  -28.7700 C   0  0  0  0  0  0  0  0  0  0  0  0
   -0.2800   21.8570  -30.0250 O   0  0  0  0  0  0  0  0  0  0  0  0
   -0.7050   24.9330  -28.5730 C   0  0  0  0  0  0  0  0  0  0  0  0
    0.2970   25.1040  -27.8300 O   0  0  0  0  0  0  0  0  0  0  0  0
   -1.2360   26.0120  -29.2690 O   0  0  0  0  0  0  0  0  0  0  0  0
   -3.0730   25.3150  -30.2360 H   0  0  0  0  0  0  0  0  0  0  0  0
   -8.0537   24.5699  -30.6554 H   0  0  0  0  0  0  0  0  0  0  0  0
   -9.7452   22.3360  -31.2465 H   0  0  0  0  0  0  0  0  0  0  0  0
   -9.6958   19.9126  -31.9253 H   0  0  0  0  0  0  0  0  0  0  0  0
   -5.3363   20.0168  -31.9786 H   0  0  0  0  0  0  0  0  0  0  0  0
   -2.2000   24.3370  -30.5430 H   0  0  0  0  0  0  0  0  0  0  0  0
   -1.9568   23.3953  -27.7966 H   0  0  0  0  0  0  0  0  0  0  0  0
    0.7233   22.9360  -28.6052 H   0  0  0  0  0  0  0  0  0  0  0  0
   -0.4735   21.7267  -27.9980 H   0  0  0  0  0  0  0  0  0  0  0  0
   -1.0280   21.2040  -30.0080 H   0  0  0  0  0  0  0  0  0  0  0  0
  1  2  1  0
  2  3  2  0
  2  4  1  0
  4  5  2  0
  5  6  1  0
  6  7  2  0
  7  8  1  0
  8  9  2  0
  9 10  1  0
 10 11  1  0
 10 12  1  0
 10 13  1  0
  9 14  1  0
 14 15  2  0
 15 16  1  0
 16 17  1  0
 17 18  2  0
 17 19  1  0
 19 20  2  0
 19 21  1  0
 21 22  1  0
 22 23  1  0
 23 24  1  0
 22 25  1  0
 25 26  2  0
 25 27  1  0
 16  4  1  0
 15  6  1  0
  1 28  1  0
  5 29  1  0
  7 30  1  0
  8 31  1  0
 14 32  1  0
 21 33  1  0
 22 34  1  1
 23 35  1  0
 23 36  1  0
 24 37  1  0
M  CHG  2   1  -1  27  -1
M  END
>  <UniqueID>  (54) 
54

>  <SMILES>  (54) 
[NH-]C(=O)c1cc2ccc(C(F)(F)F)cc2n1C(=O)C(=O)N[C@@H](CO)C(=O)[O-]

>  <Energy>  (54) 
73.47355493066605

>  <Genealogy>  (54) 
[NH-]C(=O)c1cc2ccc(C(F)(F)F)cc2n1C(=O)C(=O)N[C@@H](CO)C(=O)[O-] (protonated)
[NH-]C(=O)c1cc2ccc(C(F)(F)F)cc2n1C(=O)C(=O)N[C@@H](CO)C(=O)[O-] (3D coordinates assigned)
[NH-]C(=O)c1cc2ccc(C(F)(F)F)cc2n1C(=O)C(=O)N[C@@H](CO)C(=O)[O-] (optimized conformer: 73.47355493066605 kcal/mol)

>  <smiles>  (54) 
NC(=O)c1cc2ccc(C(F)(F)F)cc2n1C(=O)C(=O)N[C@@H](CO)C(=O)O

>  <score_type>  (54) 
oracle

>  <origin>  (54) 
adg

>  <m_score__min__energy>  (54) 
-11.76

>  <m_primary>  (54) 
energy

$$$$
55:0
     RDKit          3D

 42 43  0  0  0  0  0  0  0  0999 V2000
   -3.4270   21.3940  -28.8540 C   0  0  0  0  0  0  0  0  0  0  0  0
   -2.8040   22.5010  -29.6050 N   0  0  2  0  0  0  0  0  0  0  0  0
   -2.8270   23.7790  -28.8560 C   0  0  0  0  0  0  0  0  0  0  0  0
   -1.5630   24.5860  -28.9930 C   0  0  0  0  0  0  0  0  0  0  0  0
   -1.6090   25.8440  -28.9510 O   0  0  0  0  0  0  0  0  0  0  0  0
   -0.3420   23.9510  -29.1700 O   0  0  0  0  0  0  0  0  0  0  0  0
   -3.3840   22.6560  -30.9240 C   0  0  0  0  0  0  0  0  0  0  0  0
   -2.6570   22.5930  -31.9540 O   0  0  0  0  0  0  0  0  0  0  0  0
   -4.8120   22.7500  -31.0790 N   0  0  0  0  0  0  0  0  0  0  0  0
   -5.6280   23.7930  -30.7600 C   0  0  0  0  0  0  0  0  0  0  0  0
   -5.1880   25.1500  -30.3820 C   0  0  0  0  0  0  0  0  0  0  0  0
   -3.9430   25.6660  -30.8380 N   0  0  0  0  0  0  0  0  0  0  0  0
   -5.9440   25.8810  -29.6860 O   0  0  0  0  0  0  0  0  0  0  0  0
   -6.9640   23.4390  -30.9280 C   0  0  0  0  0  0  0  0  0  0  0  0
   -6.9410   22.1390  -31.3800 C   0  0  0  0  0  0  0  0  0  0  0  0
   -7.9870   21.2840  -31.6990 C   0  0  0  0  0  0  0  0  0  0  0  0
   -7.6730   19.9800  -32.1180 C   0  0  0  0  0  0  0  0  0  0  0  0
   -6.3170   19.5480  -32.2320 C   0  0  0  0  0  0  0  0  0  0  0  0
   -5.9430   18.1150  -32.6380 C   0  0  0  0  0  0  0  0  0  0  0  0
   -6.0920   17.1890  -31.4180 C   0  0  0  0  0  0  0  0  0  0  0  0
   -6.8010   17.5590  -33.7950 C   0  0  0  0  0  0  0  0  0  0  0  0
   -4.5360   18.0840  -33.0900 C   0  0  0  0  0  0  0  0  0  0  0  0
   -3.4340   18.0610  -33.4440 N   0  0  0  0  0  0  0  0  0  0  0  0
   -5.2870   20.4610  -31.8780 C   0  0  0  0  0  0  0  0  0  0  0  0
   -5.6330   21.7500  -31.4680 C   0  0  0  0  0  0  0  0  0  0  0  0
   -3.3229   21.5789  -27.7747 H   0  0  0  0  0  0  0  0  0  0  0  0
   -4.4939   21.3294  -29.1138 H   0  0  0  0  0  0  0  0  0  0  0  0
   -2.9285   20.4485  -29.1138 H   0  0  0  0  0  0  0  0  0  0  0  0
   -1.7950   22.2490  -29.7250 H   0  0  0  0  0  0  0  0  0  0  0  0
   -3.6669   24.3841  -29.2280 H   0  0  0  0  0  0  0  0  0  0  0  0
   -2.9311   23.5246  -27.7909 H   0  0  0  0  0  0  0  0  0  0  0  0
   -3.0400   25.3100  -30.4540 H   0  0  0  0  0  0  0  0  0  0  0  0
   -7.8490   24.0646  -30.7397 H   0  0  0  0  0  0  0  0  0  0  0  0
   -9.0325   21.6179  -31.6258 H   0  0  0  0  0  0  0  0  0  0  0  0
   -8.4857   19.2802  -32.3623 H   0  0  0  0  0  0  0  0  0  0  0  0
   -5.9969   17.7801  -30.4952 H   0  0  0  0  0  0  0  0  0  0  0  0
   -7.0796   16.7052  -31.4434 H   0  0  0  0  0  0  0  0  0  0  0  0
   -5.3061   16.4198  -31.4434 H   0  0  0  0  0  0  0  0  0  0  0  0
   -7.6569   17.0043  -33.3830 H   0  0  0  0  0  0  0  0  0  0  0  0
   -7.1671   18.3920  -34.4131 H   0  0  0  0  0  0  0  0  0  0  0  0
   -6.1902   16.8845  -34.4131 H   0  0  0  0  0  0  0  0  0  0  0  0
   -4.2312   20.1562  -31.9264 H   0  0  0  0  0  0  0  0  0  0  0  0
  1  2  1  0
  2  3  1  0
  3  4  1  0
  4  5  2  0
  4  6  1  0
  2  7  1  0
  7  8  2  0
  7  9  1  0
  9 10  1  0
 10 11  1  0
 11 12  1  0
 11 13  2  0
 10 14  2  0
 14 15  1  0
 15 16  2  0
 16 17  1  0
 17 18  2  0
 18 19  1  0
 19 20  1  0
 19 21  1  0
 19 22  1  0
 22 23  3  0
 18 24  1  0
 24 25  2  0
 25  9  1  0
 25 15  1  0
  1 26  1  0
  1 27  1  0
  1 28  1  0
  2 29  1  6
  3 30  1  0
  3 31  1  0
 12 32  1  0
 14 33  1  0
 16 34  1  0
 17 35  1  0
 20 36  1  0
 20 37  1  0
 20 38  1  0
 21 39  1  0
 21 40  1  0
 21 41  1  0
 24 42  1  0
M  CHG  3   2   1   6  -1  12  -1
M  END
>  <UniqueID>  (55) 
55

>  <SMILES>  (55) 
C[N@H+](CC(=O)[O-])C(=O)n1c(C([NH-])=O)cc2ccc(C(C)(C)C#N)cc21

>  <Energy>  (55) 
86.4128039690543

>  <Genealogy>  (55) 
C[NH+](CC(=O)[O-])C(=O)n1c(C([NH-])=O)cc2ccc(C(C)(C)C#N)cc21 (protonated)
C[N@H+](CC(=O)[O-])C(=O)n1c(C([NH-])=O)cc2ccc(C(C)(C)C#N)cc21 (chirality)
C[N@H+](CC(=O)[O-])C(=O)n1c(C([NH-])=O)cc2ccc(C(C)(C)C#N)cc21 (3D coordinates assigned)
C[N@H+](CC(=O)[O-])C(=O)n1c(C([NH-])=O)cc2ccc(C(C)(C)C#N)cc21 (optimized conformer: 86.4128039690543 kcal/mol)

>  <smiles>  (55) 
CN(CC(=O)O)C(=O)n1c(C(N)=O)cc2ccc(C(C)(C)C#N)cc21

>  <score_type>  (55) 
oracle

>  <origin>  (55) 
adg

>  <m_score__min__energy>  (55) 
-11.65

>  <m_primary>  (55) 
energy

$$$$
56:0
     RDKit          3D

 43 44  0  0  0  0  0  0  0  0999 V2000
   -6.9660   17.2290  -33.3350 C   0  0  0  0  0  0  0  0  0  0  0  0
   -7.0920   18.3650  -32.9530 C   0  0  0  0  0  0  0  0  0  0  0  0
   -7.2420   19.7220  -32.4990 C   0  0  0  0  0  0  0  0  0  0  0  0
   -8.5340   20.2870  -32.3730 C   0  0  0  0  0  0  0  0  0  0  0  0
   -8.6930   21.6090  -31.9270 C   0  0  0  0  0  0  0  0  0  0  0  0
   -7.5450   22.3430  -31.6370 C   0  0  0  0  0  0  0  0  0  0  0  0
   -7.4060   23.6300  -31.1660 C   0  0  0  0  0  0  0  0  0  0  0  0
   -6.0320   23.8310  -31.0390 C   0  0  0  0  0  0  0  0  0  0  0  0
   -5.4290   25.1010  -30.5800 C   0  0  0  0  0  0  0  0  0  0  0  0
   -4.0190   25.3070  -30.6320 N   0  0  0  0  0  0  0  0  0  0  0  0
   -6.1700   26.0250  -30.1530 O   0  0  0  0  0  0  0  0  0  0  0  0
   -5.3500   22.7180  -31.4300 N   0  0  0  0  0  0  0  0  0  0  0  0
   -3.9340   22.4880  -31.3790 C   0  0  0  0  0  0  0  0  0  0  0  0
   -3.3050   22.2930  -32.4540 O   0  0  0  0  0  0  0  0  0  0  0  0
   -3.2220   22.5090  -30.1240 N   0  0  0  0  0  0  0  0  0  0  0  0
   -1.7560   22.5080  -30.1530 C   0  0  0  0  0  0  0  0  0  0  0  0
   -3.9420   22.5830  -28.8420 C   0  0  0  0  0  0  0  0  0  0  0  0
   -3.0060   22.9110  -27.7070 C   0  0  0  0  0  0  0  0  0  0  0  0
   -2.2340   22.0050  -27.2910 O   0  0  0  0  0  0  0  0  0  0  0  0
   -2.9790   24.2140  -27.0800 N   0  0  0  0  0  0  0  0  0  0  0  0
   -4.2190   24.8850  -26.6760 C   0  0  0  0  0  0  0  0  0  0  0  0
   -1.6940   24.8920  -26.8680 C   0  0  0  0  0  0  0  0  0  0  0  0
   -1.0620   25.2250  -28.1820 C   0  0  0  0  0  0  0  0  0  0  0  0
   -1.6140   26.0450  -28.9610 O   0  0  0  0  0  0  0  0  0  0  0  0
    0.1440   24.6380  -28.5410 O   0  0  0  0  0  0  0  0  0  0  0  0
   -6.2890   21.8130  -31.7780 C   0  0  0  0  0  0  0  0  0  0  0  0
   -6.1000   20.4880  -32.1890 C   0  0  0  0  0  0  0  0  0  0  0  0
   -6.8510   16.1921  -33.6837 H   0  0  0  0  0  0  0  0  0  0  0  0
   -9.4198   19.6860  -32.6263 H   0  0  0  0  0  0  0  0  0  0  0  0
   -9.6933   22.0514  -31.8102 H   0  0  0  0  0  0  0  0  0  0  0  0
   -8.2086   24.3470  -30.9384 H   0  0  0  0  0  0  0  0  0  0  0  0
   -3.4970   25.6540  -29.7970 H   0  0  0  0  0  0  0  0  0  0  0  0
   -1.3689   22.5077  -29.1234 H   0  0  0  0  0  0  0  0  0  0  0  0
   -1.4003   21.6096  -30.6787 H   0  0  0  0  0  0  0  0  0  0  0  0
   -1.3990   23.4059  -30.6787 H   0  0  0  0  0  0  0  0  0  0  0  0
   -4.7127   23.3650  -28.9084 H   0  0  0  0  0  0  0  0  0  0  0  0
   -4.3991   21.6024  -28.6431 H   0  0  0  0  0  0  0  0  0  0  0  0
   -4.2778   24.9168  -25.5780 H   0  0  0  0  0  0  0  0  0  0  0  0
   -4.2272   25.9106  -27.0735 H   0  0  0  0  0  0  0  0  0  0  0  0
   -5.0821   24.3308  -27.0735 H   0  0  0  0  0  0  0  0  0  0  0  0
   -1.8618   25.8191  -26.3003 H   0  0  0  0  0  0  0  0  0  0  0  0
   -1.0242   24.2237  -26.3070 H   0  0  0  0  0  0  0  0  0  0  0  0
   -5.0907   20.0577  -32.2676 H   0  0  0  0  0  0  0  0  0  0  0  0
  1  2  3  0
  2  3  1  0
  3  4  2  0
  4  5  1  0
  5  6  2  0
  6  7  1  0
  7  8  2  0
  8  9  1  0
  9 10  1  0
  9 11  2  0
  8 12  1  0
 12 13  1  0
 13 14  2  0
 13 15  1  0
 15 16  1  0
 15 17  1  0
 17 18  1  0
 18 19  2  0
 18 20  1  0
 20 21  1  0
 20 22  1  0
 22 23  1  0
 23 24  2  0
 23 25  1  0
 12 26  1  0
 26 27  2  0
 27  3  1  0
 26  6  1  0
  1 28  1  0
  4 29  1  0
  5 30  1  0
  7 31  1  0
 10 32  1  0
 16 33  1  0
 16 34  1  0
 16 35  1  0
 17 36  1  0
 17 37  1  0
 21 38  1  0
 21 39  1  0
 21 40  1  0
 22 41  1  0
 22 42  1  0
 27 43  1  0
M  CHG  2  10  -1  25  -1
M  END
>  <UniqueID>  (56) 
56

>  <SMILES>  (56) 
C#Cc1ccc2cc(C([NH-])=O)n(C(=O)N(C)CC(=O)N(C)CC(=O)[O-])c2c1

>  <Energy>  (56) 
74.26974164777839

>  <Genealogy>  (56) 
C#Cc1ccc2cc(C([NH-])=O)n(C(=O)N(C)CC(=O)N(C)CC(=O)[O-])c2c1 (protonated)
C#Cc1ccc2cc(C([NH-])=O)n(C(=O)N(C)CC(=O)N(C)CC(=O)[O-])c2c1 (3D coordinates assigned)
C#Cc1ccc2cc(C([NH-])=O)n(C(=O)N(C)CC(=O)N(C)CC(=O)[O-])c2c1 (optimized conformer: 74.26974164777839 kcal/mol)

>  <smiles>  (56) 
C#Cc1ccc2cc(C(N)=O)n(C(=O)N(C)CC(=O)N(C)CC(=O)O)c2c1

>  <score_type>  (56) 
oracle

>  <origin>  (56) 
adg

>  <m_score__min__energy>  (56) 
-13.56

>  <m_primary>  (56) 
energy

$$$$
57:0
     RDKit          3D

 50 51  0  0  0  0  0  0  0  0999 V2000
   -1.3090   25.1790  -25.3400 C   0  0  0  0  0  0  0  0  0  0  0  0
   -1.2500   25.8070  -26.6650 N   0  0  0  0  0  0  0  0  0  0  0  0
   -0.6380   27.1310  -26.8190 C   0  0  0  0  0  0  0  0  0  0  0  0
   -1.7640   25.1320  -27.8360 C   0  0  0  0  0  0  0  0  0  0  0  0
   -1.6050   25.6590  -28.9720 O   0  0  0  0  0  0  0  0  0  0  0  0
   -2.4180   23.7700  -27.7470 C   0  0  0  0  0  0  0  0  0  0  0  0
   -1.4250   22.6320  -28.0280 C   0  0  0  0  0  0  0  0  0  0  0  0
   -1.9980   21.5860  -28.9950 C   0  0  0  0  0  0  0  0  0  0  0  0
   -3.3740   21.8990  -29.3820 N   0  0  0  0  0  0  0  0  0  0  0  0
   -3.6960   22.6290  -30.5760 C   0  0  0  0  0  0  0  0  0  0  0  0
   -2.7730   23.0720  -31.3120 O   0  0  0  0  0  0  0  0  0  0  0  0
   -5.0670   22.8520  -30.9450 N   0  0  0  0  0  0  0  0  0  0  0  0
   -5.7790   24.0120  -30.8350 C   0  0  0  0  0  0  0  0  0  0  0  0
   -5.2320   25.3300  -30.4490 C   0  0  0  0  0  0  0  0  0  0  0  0
   -3.8900   25.6700  -30.7960 N   0  0  0  0  0  0  0  0  0  0  0  0
   -5.9240   26.1490  -29.7890 O   0  0  0  0  0  0  0  0  0  0  0  0
   -7.1050   23.8100  -31.2080 C   0  0  0  0  0  0  0  0  0  0  0  0
   -7.1870   22.4810  -31.5560 C   0  0  0  0  0  0  0  0  0  0  0  0
   -8.2810   21.7350  -31.9870 C   0  0  0  0  0  0  0  0  0  0  0  0
   -8.0840   20.3710  -32.2530 C   0  0  0  0  0  0  0  0  0  0  0  0
   -6.8070   19.7740  -32.0820 C   0  0  0  0  0  0  0  0  0  0  0  0
   -6.6100   18.3770  -32.3740 N   0  0  0  0  0  0  0  0  0  0  0  0
   -6.4480   17.9300  -33.7610 C   0  0  0  0  0  0  0  0  0  0  0  0
   -6.4460   17.4210  -31.2750 C   0  0  0  0  0  0  0  0  0  0  0  0
   -5.7270   20.5660  -31.6300 C   0  0  0  0  0  0  0  0  0  0  0  0
   -5.9450   21.9260  -31.3920 C   0  0  0  0  0  0  0  0  0  0  0  0
   -1.2362   25.9544  -24.5632 H   0  0  0  0  0  0  0  0  0  0  0  0
   -2.2617   24.6399  -25.2318 H   0  0  0  0  0  0  0  0  0  0  0  0
   -0.4733   24.4719  -25.2318 H   0  0  0  0  0  0  0  0  0  0  0  0
   -0.4393   27.5608  -25.8261 H   0  0  0  0  0  0  0  0  0  0  0  0
    0.3074   27.0357  -27.3732 H   0  0  0  0  0  0  0  0  0  0  0  0
   -1.3231   27.7894  -27.3732 H   0  0  0  0  0  0  0  0  0  0  0  0
   -2.8296   23.6397  -26.7353 H   0  0  0  0  0  0  0  0  0  0  0  0
   -3.2098   23.7243  -28.5092 H   0  0  0  0  0  0  0  0  0  0  0  0
   -0.5124   23.0594  -28.4690 H   0  0  0  0  0  0  0  0  0  0  0  0
   -1.2113   22.1278  -27.0740 H   0  0  0  0  0  0  0  0  0  0  0  0
   -1.3720   21.5563  -29.8990 H   0  0  0  0  0  0  0  0  0  0  0  0
   -2.0001   20.6124  -28.4830 H   0  0  0  0  0  0  0  0  0  0  0  0
   -4.1500   21.4590  -28.8380 H   0  0  0  0  0  0  0  0  0  0  0  0
   -3.0880   25.0860  -30.4710 H   0  0  0  0  0  0  0  0  0  0  0  0
   -7.9149   24.5543  -31.2217 H   0  0  0  0  0  0  0  0  0  0  0  0
   -9.2694   22.2005  -32.1151 H   0  0  0  0  0  0  0  0  0  0  0  0
   -8.9290   19.7571  -32.5981 H   0  0  0  0  0  0  0  0  0  0  0  0
   -6.0732   16.8959  -33.7716 H   0  0  0  0  0  0  0  0  0  0  0  0
   -7.4190   17.9734  -34.2760 H   0  0  0  0  0  0  0  0  0  0  0  0
   -5.7302   18.5854  -34.2760 H   0  0  0  0  0  0  0  0  0  0  0  0
   -6.5364   17.9482  -30.3138 H   0  0  0  0  0  0  0  0  0  0  0  0
   -7.2245   16.6468  -31.3432 H   0  0  0  0  0  0  0  0  0  0  0  0
   -5.4540   16.9505  -31.3432 H   0  0  0  0  0  0  0  0  0  0  0  0
   -4.7342   20.1207  -31.4687 H   0  0  0  0  0  0  0  0  0  0  0  0
  1  2  1  0
  2  3  1  0
  2  4  1  0
  4  5  2  0
  4  6  1  0
  6  7  1  0
  7  8  1  0
  8  9  1  0
  9 10  1  0
 10 11  2  0
 10 12  1  0
 12 13  1  0
 13 14  1  0
 14 15  1  0
 14 16  2  0
 13 17  2  0
 17 18  1  0
 18 19  2  0
 19 20  1  0
 20 21  2  0
 21 22  1  0
 22 23  1  0
 22 24  1  0
 21 25  1  0
 25 26  2  0
 26 12  1  0
 26 18  1  0
  1 27  1  0
  1 28  1  0
  1 29  1  0
  3 30  1  0
  3 31  1  0
  3 32  1  0
  6 33  1  0
  6 34  1  0
  7 35  1  0
  7 36  1  0
  8 37  1  0
  8 38  1  0
  9 39  1  0
 15 40  1  0
 17 41  1  0
 19 42  1  0
 20 43  1  0
 23 44  1  0
 23 45  1  0
 23 46  1  0
 24 47  1  0
 24 48  1  0
 24 49  1  0
 25 50  1  0
M  CHG  1  15  -1
M  END
>  <UniqueID>  (57) 
57

>  <SMILES>  (57) 
CN(C)C(=O)CCCNC(=O)n1c(C([NH-])=O)cc2ccc(N(C)C)cc21

>  <Energy>  (57) 
80.74497023824094

>  <Genealogy>  (57) 
CN(C)C(=O)CCCNC(=O)n1c(C([NH-])=O)cc2ccc(N(C)C)cc21 (protonated)
CN(C)C(=O)CCCNC(=O)n1c(C([NH-])=O)cc2ccc(N(C)C)cc21 (3D coordinates assigned)
CN(C)C(=O)CCCNC(=O)n1c(C([NH-])=O)cc2ccc(N(C)C)cc21 (optimized conformer: 80.74497023824094 kcal/mol)

>  <smiles>  (57) 
CN(C)C(=O)CCCNC(=O)n1c(C(N)=O)cc2ccc(N(C)C)cc21

>  <score_type>  (57) 
oracle

>  <origin>  (57) 
adg

>  <m_score__min__energy>  (57) 
-11.01

>  <m_primary>  (57) 
energy

$$$$
58:0
     RDKit          3D

 76 80  0  0  0  0  0  0  0  0999 V2000
   -9.2700   20.0730  -32.3480 C   0  0  0  0  0  0  0  0  0  0  0  0
   -8.6170   18.7750  -31.8470 C   0  0  0  0  0  0  0  0  0  0  0  0
   -7.1360   18.5840  -32.3020 C   0  0  2  0  0  0  0  0  0  0  0  0
   -6.2690   18.8760  -31.2230 O   0  0  0  0  0  0  0  0  0  0  0  0
   -6.8490   19.5900  -33.4710 C   0  0  0  0  0  0  0  0  0  0  0  0
   -5.6870   19.1460  -34.3780 C   0  0  2  0  0  0  0  0  0  0  0  0
   -6.0570   17.7910  -34.9650 C   0  0  0  0  0  0  0  0  0  0  0  0
   -5.7720   16.8660  -33.7780 C   0  0  1  0  0  0  0  0  0  0  0  0
   -5.6680   15.3820  -34.2000 C   0  0  0  0  0  0  0  0  0  0  0  0
   -4.4360   17.4270  -33.2530 C   0  0  0  0  0  0  0  0  0  0  0  0
   -4.5000   18.8510  -33.5680 N   0  0  0  0  0  0  0  0  0  0  0  0
   -3.3800   19.7380  -33.3940 C   0  0  0  0  0  0  0  0  0  0  0  0
   -2.4620   19.7650  -34.2510 O   0  0  0  0  0  0  0  0  0  0  0  0
   -3.2960   20.6470  -32.2430 C   0  0  0  0  0  0  0  0  0  0  0  0
   -2.3290   20.4590  -31.2420 C   0  0  0  0  0  0  0  0  0  0  0  0
   -2.2420   21.3620  -30.1730 C   0  0  0  0  0  0  0  0  0  0  0  0
   -3.1240   22.4570  -30.0910 C   0  0  0  0  0  0  0  0  0  0  0  0
   -3.0650   23.4120  -28.9550 C   0  0  0  0  0  0  0  0  0  0  0  0
   -4.2560   23.7340  -28.2440 C   0  0  0  0  0  0  0  0  0  0  0  0
   -4.2170   24.5470  -27.1030 C   0  0  0  0  0  0  0  0  0  0  0  0
   -2.9840   25.0250  -26.6860 C   0  0  0  0  0  0  0  0  0  0  0  0
   -2.6700   25.7240  -25.5560 C   0  0  0  0  0  0  0  0  0  0  0  0
   -1.2880   25.8740  -25.5670 C   0  0  0  0  0  0  0  0  0  0  0  0
   -0.5790   26.3990  -24.3680 C   0  0  0  0  0  0  0  0  0  0  0  0
    0.4870   25.7040  -23.7420 N   0  0  0  0  0  0  0  0  0  0  0  0
   -0.8920   27.5380  -23.9130 O   0  0  0  0  0  0  0  0  0  0  0  0
   -0.7550   25.2880  -26.6940 N   0  0  0  0  0  0  0  0  0  0  0  0
    0.6290   25.2090  -27.1160 C   0  0  0  0  0  0  0  0  0  0  0  0
    0.9340   24.6350  -28.1880 O   0  0  0  0  0  0  0  0  0  0  0  0
    1.6460   25.7090  -26.2930 O   0  0  0  0  0  0  0  0  0  0  0  0
    2.1820   27.0410  -26.3330 C   0  0  0  0  0  0  0  0  0  0  0  0
    3.2710   27.0640  -27.4250 C   0  0  0  0  0  0  0  0  0  0  0  0
    1.0840   28.0710  -26.6960 C   0  0  0  0  0  0  0  0  0  0  0  0
    2.8370   27.3780  -24.9810 C   0  0  0  0  0  0  0  0  0  0  0  0
   -1.8160   24.7490  -27.3560 C   0  0  0  0  0  0  0  0  0  0  0  0
   -1.8310   23.9530  -28.5170 C   0  0  0  0  0  0  0  0  0  0  0  0
   -4.0960   22.6260  -31.0920 C   0  0  0  0  0  0  0  0  0  0  0  0
   -4.1860   21.7300  -32.1500 C   0  0  0  0  0  0  0  0  0  0  0  0
   -6.9090   17.0830  -32.7350 C   0  0  0  0  0  0  0  0  0  0  0  0
   -9.5777   20.6847  -31.4871 H   0  0  0  0  0  0  0  0  0  0  0  0
   -8.5475   20.6353  -32.9577 H   0  0  0  0  0  0  0  0  0  0  0  0
  -10.1522   19.8280  -32.9577 H   0  0  0  0  0  0  0  0  0  0  0  0
   -8.6418   18.7790  -30.7473 H   0  0  0  0  0  0  0  0  0  0  0  0
   -9.1906   17.9445  -32.2844 H   0  0  0  0  0  0  0  0  0  0  0  0
   -5.4250   19.2590  -31.5800 H   0  0  0  0  0  0  0  0  0  0  0  0
   -7.7571   19.6816  -34.0850 H   0  0  0  0  0  0  0  0  0  0  0  0
   -6.5615   20.5490  -33.0154 H   0  0  0  0  0  0  0  0  0  0  0  0
   -5.5014   19.9355  -35.1212 H   0  0  0  0  0  0  0  0  0  0  0  0
   -7.1163   17.7547  -35.2594 H   0  0  0  0  0  0  0  0  0  0  0  0
   -5.5086   17.5310  -35.8824 H   0  0  0  0  0  0  0  0  0  0  0  0
   -5.6236   14.7478  -33.3023 H   0  0  0  0  0  0  0  0  0  0  0  0
   -6.5492   15.1085  -34.7989 H   0  0  0  0  0  0  0  0  0  0  0  0
   -4.7573   15.2341  -34.7989 H   0  0  0  0  0  0  0  0  0  0  0  0
   -4.3462   17.2707  -32.1679 H   0  0  0  0  0  0  0  0  0  0  0  0
   -3.5635   16.9331  -33.7056 H   0  0  0  0  0  0  0  0  0  0  0  0
   -1.6399   19.6033  -31.2967 H   0  0  0  0  0  0  0  0  0  0  0  0
   -1.4801   21.2143  -29.3934 H   0  0  0  0  0  0  0  0  0  0  0  0
   -5.2206   23.3389  -28.5953 H   0  0  0  0  0  0  0  0  0  0  0  0
   -5.1369   24.7983  -26.5548 H   0  0  0  0  0  0  0  0  0  0  0  0
   -3.3692   26.0937  -24.7915 H   0  0  0  0  0  0  0  0  0  0  0  0
    0.6780   25.8290  -22.7190 H   0  0  0  0  0  0  0  0  0  0  0  0
    1.2410   25.2760  -24.3340 H   0  0  0  0  0  0  0  0  0  0  0  0
    4.2640   27.0850  -26.9522 H   0  0  0  0  0  0  0  0  0  0  0  0
    3.1818   26.1638  -28.0508 H   0  0  0  0  0  0  0  0  0  0  0  0
    3.1439   27.9597  -28.0508 H   0  0  0  0  0  0  0  0  0  0  0  0
    0.6467   28.4812  -25.7737 H   0  0  0  0  0  0  0  0  0  0  0  0
    1.5272   28.8868  -27.2860 H   0  0  0  0  0  0  0  0  0  0  0  0
    0.2982   27.5767  -27.2860 H   0  0  0  0  0  0  0  0  0  0  0  0
    2.1832   27.0416  -24.1628 H   0  0  0  0  0  0  0  0  0  0  0  0
    3.8088   26.8679  -24.9071 H   0  0  0  0  0  0  0  0  0  0  0  0
    2.9870   28.4652  -24.9071 H   0  0  0  0  0  0  0  0  0  0  0  0
   -0.9029   23.7549  -29.0732 H   0  0  0  0  0  0  0  0  0  0  0  0
   -4.7922   23.4759  -31.0372 H   0  0  0  0  0  0  0  0  0  0  0  0
   -4.9592   21.8695  -32.9199 H   0  0  0  0  0  0  0  0  0  0  0  0
   -7.8472   16.7069  -33.1690 H   0  0  0  0  0  0  0  0  0  0  0  0
   -6.6021   16.5430  -31.8271 H   0  0  0  0  0  0  0  0  0  0  0  0
  1  2  1  0
  2  3  1  0
  3  4  1  1
  3  5  1  0
  5  6  1  0
  6  7  1  0
  7  8  1  0
  8  9  1  6
  8 10  1  0
 10 11  1  0
 11 12  1  0
 12 13  2  0
 12 14  1  0
 14 15  2  0
 15 16  1  0
 16 17  2  0
 17 18  1  0
 18 19  2  0
 19 20  1  0
 20 21  2  0
 21 22  1  0
 22 23  2  0
 23 24  1  0
 24 25  1  0
 24 26  2  0
 23 27  1  0
 27 28  1  0
 28 29  2  0
 28 30  1  0
 30 31  1  0
 31 32  1  0
 31 33  1  0
 31 34  1  0
 27 35  1  0
 35 36  2  0
 17 37  1  0
 37 38  2  0
  8 39  1  0
 39  3  1  0
 11  6  1  0
 38 14  1  0
 36 18  1  0
 35 21  1  0
  1 40  1  0
  1 41  1  0
  1 42  1  0
  2 43  1  0
  2 44  1  0
  4 45  1  0
  5 46  1  0
  5 47  1  0
  6 48  1  6
  7 49  1  0
  7 50  1  0
  9 51  1  0
  9 52  1  0
  9 53  1  0
 10 54  1  0
 10 55  1  0
 15 56  1  0
 16 57  1  0
 19 58  1  0
 20 59  1  0
 22 60  1  0
 25 61  1  0
 25 62  1  0
 32 63  1  0
 32 64  1  0
 32 65  1  0
 33 66  1  0
 33 67  1  0
 33 68  1  0
 34 69  1  0
 34 70  1  0
 34 71  1  0
 36 72  1  0
 37 73  1  0
 38 74  1  0
 39 75  1  0
 39 76  1  0
M  END
>  <UniqueID>  (58) 
58

>  <SMILES>  (58) 
CC[C@]1(O)C[C@@H]2CC(C)(CN2C(=O)c2ccc(-c3ccc4cc(C(N)=O)n(C(=O)OC(C)(C)C)c4c3)cc2)C1

>  <Energy>  (58) 
146.9773357885519

>  <Genealogy>  (58) 
CC[C@]1(O)C[C@@H]2CC(C)(CN2C(=O)c2ccc(-c3ccc4cc(C(N)=O)n(C(=O)OC(C)(C)C)c4c3)cc2)C1 (chirality)
CC[C@]1(O)C[C@@H]2CC(C)(CN2C(=O)c2ccc(-c3ccc4cc(C(N)=O)n(C(=O)OC(C)(C)C)c4c3)cc2)C1 (3D coordinates assigned)
CC[C@]1(O)C[C@@H]2CC(C)(CN2C(=O)c2ccc(-c3ccc4cc(C(N)=O)n(C(=O)OC(C)(C)C)c4c3)cc2)C1 (nonaromatic ring conformer: 146.9773357885519 kcal/mol)

>  <smiles>  (58) 
CCC1(O)CC2CC(C)(CN2C(=O)c2ccc(-c3ccc4cc(C(N)=O)n(C(=O)OC(C)(C)C)c4c3)cc2)C1

>  <score_type>  (58) 
oracle

>  <origin>  (58) 
adg

>  <m_score__min__energy>  (58) 
-10.710000000000001

>  <m_primary>  (58) 
energy

$$$$
59:0
     RDKit          3D

 38 39  0  0  0  0  0  0  0  0999 V2000
   -0.5915   22.0264  -32.0421 H   0  0  0  0  0  0  0  0  0  0  0  0
   -1.2460   21.3430  -32.6030 C   0  0  0  0  0  0  0  0  0  0  0  0
   -0.9120   21.0990  -34.0150 C   0  0  0  0  0  0  0  0  0  0  0  0
   -1.3600   20.0720  -34.5870 O   0  0  0  0  0  0  0  0  0  0  0  0
   -0.0400   21.9320  -34.7040 O   0  0  0  0  0  0  0  0  0  0  0  0
   -2.2810   20.8030  -31.9410 C   0  0  0  0  0  0  0  0  0  0  0  0
   -2.5045   21.2107  -30.9441 H   0  0  0  0  0  0  0  0  0  0  0  0
   -3.1480   19.7100  -32.4300 C   0  0  0  0  0  0  0  0  0  0  0  0
   -2.6090   18.6150  -32.7410 O   0  0  0  0  0  0  0  0  0  0  0  0
   -4.5600   19.8880  -32.6510 N   0  0  0  0  0  0  0  0  0  0  0  0
   -5.3500   19.1930  -33.5210 C   0  0  0  0  0  0  0  0  0  0  0  0
   -4.9260   18.0090  -34.3040 C   0  0  0  0  0  0  0  0  0  0  0  0
   -5.6940   17.0170  -34.4160 O   0  0  0  0  0  0  0  0  0  0  0  0
   -3.6570   17.9820  -34.9620 N   0  0  0  0  0  0  0  0  0  0  0  0
   -2.9640   18.7520  -34.8410 H   0  0  0  0  0  0  0  0  0  0  0  0
   -3.3880   17.1570  -35.5420 H   0  0  0  0  0  0  0  0  0  0  0  0
   -6.6450   19.7070  -33.5190 C   0  0  0  0  0  0  0  0  0  0  0  0
   -7.5050   19.3496  -34.1043 H   0  0  0  0  0  0  0  0  0  0  0  0
   -6.6200   20.7560  -32.6300 C   0  0  0  0  0  0  0  0  0  0  0  0
   -7.6300   21.6380  -32.2660 C   0  0  0  0  0  0  0  0  0  0  0  0
   -8.6457   21.5365  -32.6759 H   0  0  0  0  0  0  0  0  0  0  0  0
   -7.3150   22.6630  -31.3590 C   0  0  0  0  0  0  0  0  0  0  0  0
   -8.0984   23.3688  -31.0456 H   0  0  0  0  0  0  0  0  0  0  0  0
   -5.9990   22.8020  -30.8400 C   0  0  0  0  0  0  0  0  0  0  0  0
   -5.6840   23.8760  -29.9200 N   0  0  0  0  0  0  0  0  0  0  0  0
   -6.6570   24.9520  -29.6990 C   0  0  0  0  0  0  0  0  0  0  0  0
   -6.7954   25.1050  -28.6185 H   0  0  0  0  0  0  0  0  0  0  0  0
   -6.2863   25.8812  -30.1564 H   0  0  0  0  0  0  0  0  0  0  0  0
   -7.6187   24.6764  -30.1564 H   0  0  0  0  0  0  0  0  0  0  0  0
   -4.4060   23.9010  -29.1890 C   0  0  0  0  0  0  0  0  0  0  0  0
   -4.5981   24.1495  -28.1348 H   0  0  0  0  0  0  0  0  0  0  0  0
   -3.9343   22.9105  -29.2684 H   0  0  0  0  0  0  0  0  0  0  0  0
   -3.4800   24.9230  -29.7740 C   0  0  0  0  0  0  0  0  0  0  0  0
   -2.3580   25.1380  -29.2460 O   0  0  0  0  0  0  0  0  0  0  0  0
   -3.8670   25.6540  -30.8890 O   0  0  0  0  0  0  0  0  0  0  0  0
   -5.0010   21.8790  -31.2420 C   0  0  0  0  0  0  0  0  0  0  0  0
   -3.9709   21.9686  -30.8667 H   0  0  0  0  0  0  0  0  0  0  0  0
   -5.3510   20.8520  -32.1250 C   0  0  0  0  0  0  0  0  0  0  0  0
  1  2  1  0
  2  3  1  0
  3  4  2  0
  3  5  1  0
  2  6  2  0
  6  7  1  0
  6  8  1  0
  8  9  2  0
  8 10  1  0
 10 11  1  0
 11 12  1  0
 12 13  2  0
 12 14  1  0
 14 15  1  0
 14 16  1  0
 11 17  2  0
 17 18  1  0
 17 19  1  0
 19 20  2  0
 20 21  1  0
 20 22  1  0
 22 23  1  0
 22 24  2  0
 24 25  1  0
 25 26  1  0
 26 27  1  0
 26 28  1  0
 26 29  1  0
 25 30  1  0
 30 31  1  0
 30 32  1  0
 30 33  1  0
 33 34  2  0
 33 35  1  0
 24 36  1  0
 36 37  1  0
 36 38  2  0
 38 10  1  0
 38 19  1  0
M  CHG  2   5  -1  35  -1
M  END
>  <UniqueID>  (59) 
59

>  <SMILES>  (59) 
CN(CC(=O)[O-])c1ccc2cc(C(N)=O)n(C(=O)/C=C\C(=O)[O-])c2c1

>  <Energy>  (59) 
83.48010050181925

>  <Genealogy>  (59) 
CN(CC(=O)[O-])c1ccc2cc(C(N)=O)n(C(=O)/C=C\C(=O)[O-])c2c1 (protonated)
CN(CC(=O)[O-])c1ccc2cc(C(N)=O)n(C(=O)/C=C\C(=O)[O-])c2c1 (cis-trans isomerization)
CN(CC(=O)[O-])c1ccc2cc(C(N)=O)n(C(=O)/C=C\C(=O)[O-])c2c1 (3D coordinates assigned)
CN(CC(=O)[O-])c1ccc2cc(C(N)=O)n(C(=O)/C=C\C(=O)[O-])c2c1 (optimized conformer: 83.48010050181925 kcal/mol)

>  <smiles>  (59) 
CN(CC(=O)O)c1ccc2cc(C(N)=O)n(C(=O)/C=C\C(=O)O)c2c1

>  <score_type>  (59) 
oracle

>  <origin>  (59) 
adg

>  <m_score__min__energy>  (59) 
-11.06

>  <m_primary>  (59) 
energy

$$$$
60:0
     RDKit          3D

 39 40  0  0  0  0  0  0  0  0999 V2000
   -5.2970   24.8200  -28.8610 N   0  0  0  0  0  0  0  0  0  0  0  0
   -5.0970   24.5350  -30.2460 C   0  0  0  0  0  0  0  0  0  0  0  0
   -4.4750   25.3640  -30.9620 O   0  0  0  0  0  0  0  0  0  0  0  0
   -5.6460   23.3110  -30.8660 C   0  0  0  0  0  0  0  0  0  0  0  0
   -6.9860   23.1570  -31.2150 C   0  0  0  0  0  0  0  0  0  0  0  0
   -7.0790   21.8920  -31.7500 C   0  0  0  0  0  0  0  0  0  0  0  0
   -8.1780   21.2230  -32.2790 C   0  0  0  0  0  0  0  0  0  0  0  0
   -7.9740   19.9370  -32.8090 C   0  0  0  0  0  0  0  0  0  0  0  0
   -6.6780   19.3590  -32.8310 C   0  0  0  0  0  0  0  0  0  0  0  0
   -6.4770   17.9660  -33.3720 C   0  0  0  0  0  0  0  0  0  0  0  0
   -7.6260   17.2260  -33.1610 F   0  0  0  0  0  0  0  0  0  0  0  0
   -6.2090   18.0040  -34.7300 F   0  0  0  0  0  0  0  0  0  0  0  0
   -5.4160   17.3440  -32.7400 F   0  0  0  0  0  0  0  0  0  0  0  0
   -5.5910   20.0650  -32.2660 C   0  0  0  0  0  0  0  0  0  0  0  0
   -5.8290   21.3310  -31.7200 C   0  0  0  0  0  0  0  0  0  0  0  0
   -4.9400   22.1880  -31.1710 N   0  0  0  0  0  0  0  0  0  0  0  0
   -3.5170   22.0070  -31.0920 C   0  0  0  0  0  0  0  0  0  0  0  0
   -2.8990   21.4960  -32.0650 O   0  0  0  0  0  0  0  0  0  0  0  0
   -2.7650   22.4360  -29.9050 C   0  0  0  0  0  0  0  0  0  0  0  0
   -3.2420   22.2450  -28.7520 O   0  0  0  0  0  0  0  0  0  0  0  0
   -1.5300   23.0710  -30.0650 O   0  0  0  0  0  0  0  0  0  0  0  0
   -0.7910   23.6050  -28.9700 C   0  0  0  0  0  0  0  0  0  0  0  0
   -1.4900   24.8570  -28.4180 C   0  0  1  0  0  0  0  0  0  0  0  0
   -2.4810   25.2920  -29.3150 O   0  0  0  0  0  0  0  0  0  0  0  0
   -2.1030   24.6190  -27.0270 C   0  0  0  0  0  0  0  0  0  0  0  0
   -3.4960   24.5020  -27.1230 O   0  0  0  0  0  0  0  0  0  0  0  0
   -5.9660   24.2660  -28.2840 H   0  0  0  0  0  0  0  0  0  0  0  0
   -4.8500   25.6610  -28.4310 H   0  0  0  0  0  0  0  0  0  0  0  0
   -7.7967   23.8899  -31.0898 H   0  0  0  0  0  0  0  0  0  0  0  0
   -9.1758   21.6860  -32.2825 H   0  0  0  0  0  0  0  0  0  0  0  0
   -8.8282   19.3725  -33.2111 H   0  0  0  0  0  0  0  0  0  0  0  0
   -4.5812   19.6288  -32.2559 H   0  0  0  0  0  0  0  0  0  0  0  0
   -0.7210   22.8478  -28.1752 H   0  0  0  0  0  0  0  0  0  0  0  0
    0.2161   23.8798  -29.3168 H   0  0  0  0  0  0  0  0  0  0  0  0
   -0.7230   25.6377  -28.3076 H   0  0  0  0  0  0  0  0  0  0  0  0
   -3.1320   24.5510  -29.4270 H   0  0  0  0  0  0  0  0  0  0  0  0
   -1.6895   23.6926  -26.6019 H   0  0  0  0  0  0  0  0  0  0  0  0
   -1.8595   25.4730  -26.3778 H   0  0  0  0  0  0  0  0  0  0  0  0
   -3.6770   24.0610  -27.9940 H   0  0  0  0  0  0  0  0  0  0  0  0
  1  2  1  0
  2  3  2  0
  2  4  1  0
  4  5  2  0
  5  6  1  0
  6  7  2  0
  7  8  1  0
  8  9  2  0
  9 10  1  0
 10 11  1  0
 10 12  1  0
 10 13  1  0
  9 14  1  0
 14 15  2  0
 15 16  1  0
 16 17  1  0
 17 18  2  0
 17 19  1  0
 19 20  2  0
 19 21  1  0
 21 22  1  0
 22 23  1  0
 23 24  1  0
 23 25  1  0
 25 26  1  0
 16  4  1  0
 15  6  1  0
  1 27  1  0
  1 28  1  0
  5 29  1  0
  7 30  1  0
  8 31  1  0
 14 32  1  0
 22 33  1  0
 22 34  1  0
 23 35  1  1
 24 36  1  0
 25 37  1  0
 25 38  1  0
 26 39  1  0
M  END
>  <UniqueID>  (60) 
60

>  <SMILES>  (60) 
NC(=O)c1cc2ccc(C(F)(F)F)cc2n1C(=O)C(=O)OC[C@@H](O)CO

>  <Energy>  (60) 
74.54832461460218

>  <Genealogy>  (60) 
NC(=O)c1cc2ccc(C(F)(F)F)cc2n1C(=O)C(=O)OC[C@@H](O)CO (chirality)
NC(=O)c1cc2ccc(C(F)(F)F)cc2n1C(=O)C(=O)OC[C@@H](O)CO (3D coordinates assigned)
NC(=O)c1cc2ccc(C(F)(F)F)cc2n1C(=O)C(=O)OC[C@@H](O)CO (optimized conformer: 74.54832461460218 kcal/mol)

>  <smiles>  (60) 
NC(=O)c1cc2ccc(C(F)(F)F)cc2n1C(=O)C(=O)OCC(O)CO

>  <score_type>  (60) 
oracle

>  <origin>  (60) 
adg

>  <m_score__min__energy>  (60) 
-8.1099999999999994

>  <m_primary>  (60) 
energy

$$$$
61:0
     RDKit          3D

 51 54  0  0  0  0  0  0  0  0999 V2000
    0.0860   20.6620  -33.4710 C   0  0  0  0  0  0  0  0  0  0  0  0
   -1.3680   20.4950  -33.5150 N   0  0  0  0  0  0  0  0  0  0  0  0
   -2.2590   21.5360  -32.9970 C   0  0  0  0  0  0  0  0  0  0  0  0
   -1.9370   19.2970  -34.0730 C   0  0  0  0  0  0  0  0  0  0  0  0
   -1.1810   18.3930  -34.5210 O   0  0  0  0  0  0  0  0  0  0  0  0
   -3.3300   19.1470  -34.1080 O   0  0  0  0  0  0  0  0  0  0  0  0
   -4.0540   18.1400  -33.4560 C   0  0  0  0  0  0  0  0  0  0  0  0
   -3.5100   17.0390  -33.1650 O   0  0  0  0  0  0  0  0  0  0  0  0
   -5.4310   18.3660  -33.1150 N   0  0  0  0  0  0  0  0  0  0  0  0
   -6.4690   17.4890  -33.2150 C   0  0  0  0  0  0  0  0  0  0  0  0
   -6.4150   16.1510  -33.8370 C   0  0  0  0  0  0  0  0  0  0  0  0
   -5.4000   15.2110  -33.4810 N   0  0  0  0  0  0  0  0  0  0  0  0
   -7.2440   15.8520  -34.7360 O   0  0  0  0  0  0  0  0  0  0  0  0
   -7.6330   18.0420  -32.6880 C   0  0  0  0  0  0  0  0  0  0  0  0
   -7.2780   19.3050  -32.2710 C   0  0  0  0  0  0  0  0  0  0  0  0
   -8.0450   20.2930  -31.6630 C   0  0  0  0  0  0  0  0  0  0  0  0
   -7.4100   21.4940  -31.3050 C   0  0  0  0  0  0  0  0  0  0  0  0
   -6.0230   21.6790  -31.5410 C   0  0  0  0  0  0  0  0  0  0  0  0
   -5.3820   22.9100  -31.1590 N   0  0  0  0  0  0  0  0  0  0  0  0
   -4.0950   22.8670  -30.4340 C   0  0  0  0  0  0  0  0  0  0  0  0
   -3.8190   24.2120  -29.7190 C   0  0  2  0  0  0  0  0  0  0  0  0
   -4.8900   24.4870  -28.6590 C   0  0  0  0  0  0  0  0  0  0  0  0
   -5.9630   25.2700  -29.4120 C   0  0  0  0  0  0  0  0  0  0  0  0
   -5.4100   25.3790  -30.8360 C   0  0  2  0  0  0  0  0  0  0  0  0
   -5.8860   24.1880  -31.7010 C   0  0  0  0  0  0  0  0  0  0  0  0
   -3.9610   25.3050  -30.6760 N   0  0  0  0  0  0  0  0  0  0  0  0
   -5.2800   20.6510  -32.1650 C   0  0  0  0  0  0  0  0  0  0  0  0
   -5.9440   19.4760  -32.5360 C   0  0  0  0  0  0  0  0  0  0  0  0
    0.4191   20.7003  -32.4234 H   0  0  0  0  0  0  0  0  0  0  0  0
    0.5681   19.8133  -33.9783 H   0  0  0  0  0  0  0  0  0  0  0  0
    0.3631   21.5979  -33.9783 H   0  0  0  0  0  0  0  0  0  0  0  0
   -2.2436   21.5180  -31.8973 H   0  0  0  0  0  0  0  0  0  0  0  0
   -1.9189   22.5199  -33.3524 H   0  0  0  0  0  0  0  0  0  0  0  0
   -3.2836   21.3519  -33.3524 H   0  0  0  0  0  0  0  0  0  0  0  0
   -4.5970   15.4880  -32.8740 H   0  0  0  0  0  0  0  0  0  0  0  0
   -5.4040   14.2530  -33.8960 H   0  0  0  0  0  0  0  0  0  0  0  0
   -8.6244   17.5705  -32.6195 H   0  0  0  0  0  0  0  0  0  0  0  0
   -9.1166   20.1388  -31.4683 H   0  0  0  0  0  0  0  0  0  0  0  0
   -7.9943   22.2997  -30.8367 H   0  0  0  0  0  0  0  0  0  0  0  0
   -3.2845   22.6669  -31.1503 H   0  0  0  0  0  0  0  0  0  0  0  0
   -4.1442   22.0701  -29.6773 H   0  0  0  0  0  0  0  0  0  0  0  0
   -2.8124   24.1506  -29.2796 H   0  0  0  0  0  0  0  0  0  0  0  0
   -4.4777   25.0844  -27.8325 H   0  0  0  0  0  0  0  0  0  0  0  0
   -5.2804   23.5654  -28.2028 H   0  0  0  0  0  0  0  0  0  0  0  0
   -6.1027   26.2672  -28.9692 H   0  0  0  0  0  0  0  0  0  0  0  0
   -6.9478   24.7813  -29.3761 H   0  0  0  0  0  0  0  0  0  0  0  0
   -5.7451   26.3014  -31.3328 H   0  0  0  0  0  0  0  0  0  0  0  0
   -5.5126   24.3163  -32.7277 H   0  0  0  0  0  0  0  0  0  0  0  0
   -6.9857   24.1645  -31.6930 H   0  0  0  0  0  0  0  0  0  0  0  0
   -3.4850   25.0820  -31.5830 H   0  0  0  0  0  0  0  0  0  0  0  0
   -4.2033   20.7718  -32.3549 H   0  0  0  0  0  0  0  0  0  0  0  0
  1  2  1  0
  2  3  1  0
  2  4  1  0
  4  5  2  0
  4  6  1  0
  6  7  1  0
  7  8  2  0
  7  9  1  0
  9 10  1  0
 10 11  1  0
 11 12  1  0
 11 13  2  0
 10 14  2  0
 14 15  1  0
 15 16  2  0
 16 17  1  0
 17 18  2  0
 18 19  1  0
 19 20  1  0
 20 21  1  0
 21 22  1  0
 22 23  1  0
 23 24  1  0
 24 25  1  0
 24 26  1  0
 18 27  1  0
 27 28  2  0
 28  9  1  0
 28 15  1  0
 25 19  1  0
 26 21  1  0
  1 29  1  0
  1 30  1  0
  1 31  1  0
  3 32  1  0
  3 33  1  0
  3 34  1  0
 12 35  1  0
 12 36  1  0
 14 37  1  0
 16 38  1  0
 17 39  1  0
 20 40  1  0
 20 41  1  0
 21 42  1  1
 22 43  1  0
 22 44  1  0
 23 45  1  0
 23 46  1  0
 24 47  1  6
 25 48  1  0
 25 49  1  0
 26 50  1  0
 27 51  1  0
M  END
>  <UniqueID>  (61) 
61

>  <SMILES>  (61) 
CN(C)C(=O)OC(=O)n1c(C(N)=O)cc2ccc(N3C[C@H]4CC[C@@H](C3)N4)cc21

>  <Energy>  (61) 
101.20547439896887

>  <Genealogy>  (61) 
CN(C)C(=O)OC(=O)n1c(C(N)=O)cc2ccc(N3C[C@H]4CC[C@@H](C3)N4)cc21 (chirality)
CN(C)C(=O)OC(=O)n1c(C(N)=O)cc2ccc(N3C[C@H]4CC[C@@H](C3)N4)cc21 (3D coordinates assigned)
CN(C)C(=O)OC(=O)n1c(C(N)=O)cc2ccc(N3C[C@H]4CC[C@@H](C3)N4)cc21 (nonaromatic ring conformer: 101.20547439896887 kcal/mol)

>  <smiles>  (61) 
CN(C)C(=O)OC(=O)n1c(C(N)=O)cc2ccc(N3CC4CCC(C3)N4)cc21

>  <score_type>  (61) 
oracle

>  <origin>  (61) 
adg

>  <m_score__min__energy>  (61) 
-9.9499999999999993

>  <m_primary>  (61) 
energy

$$$$
62:0
     RDKit          3D

 50 52  0  0  0  0  0  0  0  0999 V2000
   -2.9740   20.8160  -29.6770 C   0  0  0  0  0  0  0  0  0  0  0  0
   -3.4470   22.1960  -29.8120 N   0  0  0  0  0  0  0  0  0  0  0  0
   -3.1480   23.1660  -28.7510 C   0  0  0  0  0  0  0  0  0  0  0  0
   -2.0120   24.0570  -29.1510 C   0  0  0  0  0  0  0  0  0  0  0  0
   -2.2110   25.2860  -29.3390 O   0  0  0  0  0  0  0  0  0  0  0  0
   -0.7480   23.5240  -29.3750 O   0  0  0  0  0  0  0  0  0  0  0  0
   -4.0220   22.6360  -31.0590 C   0  0  0  0  0  0  0  0  0  0  0  0
   -3.2830   22.8350  -32.0610 O   0  0  0  0  0  0  0  0  0  0  0  0
   -5.4380   22.8300  -31.1860 N   0  0  0  0  0  0  0  0  0  0  0  0
   -6.1680   23.9290  -30.8490 C   0  0  0  0  0  0  0  0  0  0  0  0
   -5.6260   25.2140  -30.3570 C   0  0  0  0  0  0  0  0  0  0  0  0
   -4.2490   25.5580  -30.5240 N   0  0  0  0  0  0  0  0  0  0  0  0
   -6.4020   26.0390  -29.8050 O   0  0  0  0  0  0  0  0  0  0  0  0
   -7.5280   23.6880  -31.0420 C   0  0  0  0  0  0  0  0  0  0  0  0
   -7.6040   22.4020  -31.5290 C   0  0  0  0  0  0  0  0  0  0  0  0
   -8.7130   21.6380  -31.8850 C   0  0  0  0  0  0  0  0  0  0  0  0
   -8.4920   20.3210  -32.3260 C   0  0  0  0  0  0  0  0  0  0  0  0
   -7.1780   19.8010  -32.3950 C   0  0  0  0  0  0  0  0  0  0  0  0
   -6.9600   18.4460  -32.8210 C   0  0  0  0  0  0  0  0  0  0  0  0
   -6.7530   17.3090  -33.1620 C   0  0  0  0  0  0  0  0  0  0  0  0
   -6.4700   15.9300  -33.5950 C   0  0  0  0  0  0  0  0  0  0  0  0
   -5.1720   15.8140  -34.2940 N   0  0  0  0  0  0  0  0  0  0  0  0
   -4.0990   15.2250  -33.4580 C   0  0  0  0  0  0  0  0  0  0  0  0
   -3.0190   16.2610  -33.0960 C   0  0  0  0  0  0  0  0  0  0  0  0
   -2.4070   16.8540  -34.2320 O   0  0  0  0  0  0  0  0  0  0  0  0
   -3.2870   17.0350  -35.3350 C   0  0  0  0  0  0  0  0  0  0  0  0
   -4.7760   17.0730  -34.9580 C   0  0  0  0  0  0  0  0  0  0  0  0
   -6.0770   20.6000  -32.0280 C   0  0  0  0  0  0  0  0  0  0  0  0
   -6.3270   21.9090  -31.6060 C   0  0  0  0  0  0  0  0  0  0  0  0
   -2.8866   20.5610  -28.6105 H   0  0  0  0  0  0  0  0  0  0  0  0
   -3.6897   20.1342  -30.1596 H   0  0  0  0  0  0  0  0  0  0  0  0
   -1.9905   20.7166  -30.1596 H   0  0  0  0  0  0  0  0  0  0  0  0
   -4.0402   23.7813  -28.5627 H   0  0  0  0  0  0  0  0  0  0  0  0
   -2.8630   22.6174  -27.8412 H   0  0  0  0  0  0  0  0  0  0  0  0
   -3.6250   25.0120  -31.1550 H   0  0  0  0  0  0  0  0  0  0  0  0
   -3.8750   26.4340  -30.0970 H   0  0  0  0  0  0  0  0  0  0  0  0
   -8.3622   24.3780  -30.8469 H   0  0  0  0  0  0  0  0  0  0  0  0
   -9.7302   22.0520  -31.8231 H   0  0  0  0  0  0  0  0  0  0  0  0
   -9.3454   19.6917  -32.6189 H   0  0  0  0  0  0  0  0  0  0  0  0
   -6.4538   15.2779  -32.7093 H   0  0  0  0  0  0  0  0  0  0  0  0
   -7.2590   15.6314  -34.3009 H   0  0  0  0  0  0  0  0  0  0  0  0
   -4.5440   14.8363  -32.5302 H   0  0  0  0  0  0  0  0  0  0  0  0
   -3.6198   14.4207  -34.0354 H   0  0  0  0  0  0  0  0  0  0  0  0
   -3.4851   17.0561  -32.4955 H   0  0  0  0  0  0  0  0  0  0  0  0
   -2.2313   15.7305  -32.5410 H   0  0  0  0  0  0  0  0  0  0  0  0
   -3.0320   17.9855  -35.8265 H   0  0  0  0  0  0  0  0  0  0  0  0
   -3.1511   16.1632  -35.9919 H   0  0  0  0  0  0  0  0  0  0  0  0
   -4.9551   17.9154  -34.2737 H   0  0  0  0  0  0  0  0  0  0  0  0
   -5.3727   17.1961  -35.8739 H   0  0  0  0  0  0  0  0  0  0  0  0
   -5.0512   20.2054  -32.0722 H   0  0  0  0  0  0  0  0  0  0  0  0
  1  2  1  0
  2  3  1  0
  3  4  1  0
  4  5  2  0
  4  6  1  0
  2  7  1  0
  7  8  2  0
  7  9  1  0
  9 10  1  0
 10 11  1  0
 11 12  1  0
 11 13  2  0
 10 14  2  0
 14 15  1  0
 15 16  2  0
 16 17  1  0
 17 18  2  0
 18 19  1  0
 19 20  3  0
 20 21  1  0
 21 22  1  0
 22 23  1  0
 23 24  1  0
 24 25  1  0
 25 26  1  0
 26 27  1  0
 18 28  1  0
 28 29  2  0
 29  9  1  0
 29 15  1  0
 27 22  1  0
  1 30  1  0
  1 31  1  0
  1 32  1  0
  3 33  1  0
  3 34  1  0
 12 35  1  0
 12 36  1  0
 14 37  1  0
 16 38  1  0
 17 39  1  0
 21 40  1  0
 21 41  1  0
 23 42  1  0
 23 43  1  0
 24 44  1  0
 24 45  1  0
 26 46  1  0
 26 47  1  0
 27 48  1  0
 27 49  1  0
 28 50  1  0
M  CHG  1   6  -1
M  END
>  <UniqueID>  (62) 
62

>  <SMILES>  (62) 
CN(CC(=O)[O-])C(=O)n1c(C(N)=O)cc2ccc(C#CCN3CCOCC3)cc21

>  <Energy>  (62) 
99.82863754516268

>  <Genealogy>  (62) 
CN(CC(=O)[O-])C(=O)n1c(C(N)=O)cc2ccc(C#CCN3CCOCC3)cc21 (protonated)
CN(CC(=O)[O-])C(=O)n1c(C(N)=O)cc2ccc(C#CCN3CCOCC3)cc21 (3D coordinates assigned)
CN(CC(=O)[O-])C(=O)n1c(C(N)=O)cc2ccc(C#CCN3CCOCC3)cc21 (nonaromatic ring conformer: 99.82863754516268 kcal/mol)

>  <smiles>  (62) 
CN(CC(=O)O)C(=O)n1c(C(N)=O)cc2ccc(C#CCN3CCOCC3)cc21

>  <score_type>  (62) 
oracle

>  <origin>  (62) 
adg

>  <m_score__min__energy>  (62) 
-12.109999999999999

>  <m_primary>  (62) 
energy

$$$$
63:0
     RDKit          3D

 42 44  0  0  0  0  0  0  0  0999 V2000
   -3.7290   22.8320  -28.7450 C   0  0  0  0  0  0  0  0  0  0  0  0
   -3.0140   22.8450  -30.0260 N   0  0  0  0  0  0  0  0  0  0  0  0
   -1.5590   23.0340  -30.0610 C   0  0  0  0  0  0  0  0  0  0  0  0
   -1.1910   24.2890  -29.3360 C   0  0  0  0  0  0  0  0  0  0  0  0
   -1.9690   25.2780  -29.3410 O   0  0  0  0  0  0  0  0  0  0  0  0
   -0.0060   24.3490  -28.6140 O   0  0  0  0  0  0  0  0  0  0  0  0
   -3.7450   22.6320  -31.2510 C   0  0  0  0  0  0  0  0  0  0  0  0
   -3.1370   22.2890  -32.3010 O   0  0  0  0  0  0  0  0  0  0  0  0
   -5.1660   22.8190  -31.2970 N   0  0  0  0  0  0  0  0  0  0  0  0
   -5.8820   23.8960  -30.8720 C   0  0  0  0  0  0  0  0  0  0  0  0
   -5.3160   25.1610  -30.3580 C   0  0  0  0  0  0  0  0  0  0  0  0
   -4.0780   25.6670  -30.8520 N   0  0  0  0  0  0  0  0  0  0  0  0
   -5.9420   25.8160  -29.4820 O   0  0  0  0  0  0  0  0  0  0  0  0
   -7.2480   23.6600  -31.0220 C   0  0  0  0  0  0  0  0  0  0  0  0
   -7.3420   22.3920  -31.5530 C   0  0  0  0  0  0  0  0  0  0  0  0
   -8.4620   21.6400  -31.8940 C   0  0  0  0  0  0  0  0  0  0  0  0
   -8.2580   20.3470  -32.4030 C   0  0  0  0  0  0  0  0  0  0  0  0
   -6.9440   19.8220  -32.5560 C   0  0  0  0  0  0  0  0  0  0  0  0
   -6.7080   18.4260  -33.1030 C   0  0  2  0  0  0  0  0  0  0  0  0
   -5.9010   17.5460  -32.1910 C   0  0  0  0  0  0  0  0  0  0  0  0
   -5.2050   16.6120  -33.1630 C   0  0  0  0  0  0  0  0  0  0  0  0
   -5.1550   17.2070  -34.4420 O   0  0  0  0  0  0  0  0  0  0  0  0
   -5.9090   18.3970  -34.3970 C   0  0  0  0  0  0  0  0  0  0  0  0
   -5.8340   20.6190  -32.1930 C   0  0  0  0  0  0  0  0  0  0  0  0
   -6.0720   21.9070  -31.7040 C   0  0  0  0  0  0  0  0  0  0  0  0
   -3.0023   22.8452  -27.9193 H   0  0  0  0  0  0  0  0  0  0  0  0
   -4.3767   23.7185  -28.6776 H   0  0  0  0  0  0  0  0  0  0  0  0
   -4.3441   21.9225  -28.6776 H   0  0  0  0  0  0  0  0  0  0  0  0
   -1.0681   22.1764  -29.5778 H   0  0  0  0  0  0  0  0  0  0  0  0
   -1.2289   23.1104  -31.1075 H   0  0  0  0  0  0  0  0  0  0  0  0
   -3.1680   25.2610  -30.5400 H   0  0  0  0  0  0  0  0  0  0  0  0
   -8.0744   24.3409  -30.7701 H   0  0  0  0  0  0  0  0  0  0  0  0
   -9.4766   22.0460  -31.7687 H   0  0  0  0  0  0  0  0  0  0  0  0
   -9.1248   19.7322  -32.6870 H   0  0  0  0  0  0  0  0  0  0  0  0
   -7.7395   18.0677  -33.2357 H   0  0  0  0  0  0  0  0  0  0  0  0
   -5.1719   18.1342  -31.6144 H   0  0  0  0  0  0  0  0  0  0  0  0
   -6.5085   17.0213  -31.4389 H   0  0  0  0  0  0  0  0  0  0  0  0
   -4.1816   16.4148  -32.8113 H   0  0  0  0  0  0  0  0  0  0  0  0
   -5.7638   15.6664  -33.2229 H   0  0  0  0  0  0  0  0  0  0  0  0
   -5.2329   19.2640  -34.4329 H   0  0  0  0  0  0  0  0  0  0  0  0
   -6.5926   18.4376  -35.2578 H   0  0  0  0  0  0  0  0  0  0  0  0
   -4.8081   20.2350  -32.2929 H   0  0  0  0  0  0  0  0  0  0  0  0
  1  2  1  0
  2  3  1  0
  3  4  1  0
  4  5  2  0
  4  6  1  0
  2  7  1  0
  7  8  2  0
  7  9  1  0
  9 10  1  0
 10 11  1  0
 11 12  1  0
 11 13  2  0
 10 14  2  0
 14 15  1  0
 15 16  2  0
 16 17  1  0
 17 18  2  0
 18 19  1  0
 19 20  1  0
 20 21  1  0
 21 22  1  0
 22 23  1  0
 18 24  1  0
 24 25  2  0
 25  9  1  0
 25 15  1  0
 23 19  1  0
  1 26  1  0
  1 27  1  0
  1 28  1  0
  3 29  1  0
  3 30  1  0
 12 31  1  0
 14 32  1  0
 16 33  1  0
 17 34  1  0
 19 35  1  6
 20 36  1  0
 20 37  1  0
 21 38  1  0
 21 39  1  0
 23 40  1  0
 23 41  1  0
 24 42  1  0
M  CHG  2   6  -1  12  -1
M  END
>  <UniqueID>  (63) 
63

>  <SMILES>  (63) 
CN(CC(=O)[O-])C(=O)n1c(C([NH-])=O)cc2ccc([C@@H]3CCOC3)cc21

>  <Energy>  (63) 
81.73950579265319

>  <Genealogy>  (63) 
CN(CC(=O)[O-])C(=O)n1c(C([NH-])=O)cc2ccc([C@@H]3CCOC3)cc21 (protonated)
CN(CC(=O)[O-])C(=O)n1c(C([NH-])=O)cc2ccc([C@@H]3CCOC3)cc21 (3D coordinates assigned)
CN(CC(=O)[O-])C(=O)n1c(C([NH-])=O)cc2ccc([C@@H]3CCOC3)cc21 (nonaromatic ring conformer: 81.73950579265319 kcal/mol)

>  <smiles>  (63) 
CN(CC(=O)O)C(=O)n1c(C(N)=O)cc2ccc([C@@H]3CCOC3)cc21

>  <score_type>  (63) 
oracle

>  <origin>  (63) 
adg

>  <m_score__min__energy>  (63) 
-13.300000000000001

>  <m_primary>  (63) 
energy

$$$$
64:0
     RDKit          3D

 42 44  0  0  0  0  0  0  0  0999 V2000
   -3.8810   25.6680  -30.8490 N   0  0  0  0  0  0  0  0  0  0  0  0
   -5.1560   25.1620  -30.4620 C   0  0  0  0  0  0  0  0  0  0  0  0
   -5.9070   25.8700  -29.7380 O   0  0  0  0  0  0  0  0  0  0  0  0
   -5.6320   23.8480  -30.9420 C   0  0  0  0  0  0  0  0  0  0  0  0
   -6.9800   23.5310  -31.0980 C   0  0  0  0  0  0  0  0  0  0  0  0
   -6.9960   22.2690  -31.6480 C   0  0  0  0  0  0  0  0  0  0  0  0
   -8.0710   21.4620  -32.0040 C   0  0  0  0  0  0  0  0  0  0  0  0
   -7.7950   20.1880  -32.5270 C   0  0  0  0  0  0  0  0  0  0  0  0
   -6.4570   19.7380  -32.6770 C   0  0  0  0  0  0  0  0  0  0  0  0
   -6.1750   18.3840  -33.2200 C   0  0  0  0  0  0  0  0  0  0  0  0
   -7.1290   17.3550  -33.1080 C   0  0  0  0  0  0  0  0  0  0  0  0
   -6.8610   16.0820  -33.6190 C   0  0  0  0  0  0  0  0  0  0  0  0
   -5.6420   15.8210  -34.2470 C   0  0  0  0  0  0  0  0  0  0  0  0
   -5.3840   14.5850  -34.7430 F   0  0  0  0  0  0  0  0  0  0  0  0
   -4.6880   16.8340  -34.3650 C   0  0  0  0  0  0  0  0  0  0  0  0
   -4.9500   18.1090  -33.8550 C   0  0  0  0  0  0  0  0  0  0  0  0
   -5.3910   20.5900  -32.3010 C   0  0  0  0  0  0  0  0  0  0  0  0
   -5.6970   21.8620  -31.8020 C   0  0  0  0  0  0  0  0  0  0  0  0
   -4.8470   22.8180  -31.3690 N   0  0  0  0  0  0  0  0  0  0  0  0
   -3.4160   22.7170  -31.3090 C   0  0  0  0  0  0  0  0  0  0  0  0
   -2.7820   22.1910  -32.2640 O   0  0  0  0  0  0  0  0  0  0  0  0
   -2.7310   23.2310  -30.2020 O   0  0  0  0  0  0  0  0  0  0  0  0
   -2.5200   22.4970  -28.9980 C   0  0  0  0  0  0  0  0  0  0  0  0
   -1.1120   22.7480  -28.4600 C   0  0  0  0  0  0  0  0  0  0  0  0
   -0.8440   24.5190  -28.1320 P   0  0  1  0  0  0  0  0  0  0  0  0
   -1.4060   24.8810  -26.7750 O   0  0  0  0  0  0  0  0  0  0  0  0
    0.8170   24.8360  -28.1470 O   0  0  0  0  0  0  0  0  0  0  0  0
   -1.5970   25.4490  -29.3290 O   0  0  0  0  0  0  0  0  0  0  0  0
   -3.0030   25.2960  -30.4230 H   0  0  0  0  0  0  0  0  0  0  0  0
   -7.8468   24.1561  -30.8372 H   0  0  0  0  0  0  0  0  0  0  0  0
   -9.1067   21.8110  -31.8797 H   0  0  0  0  0  0  0  0  0  0  0  0
   -8.6257   19.5310  -32.8240 H   0  0  0  0  0  0  0  0  0  0  0  0
   -8.0919   17.5541  -32.6150 H   0  0  0  0  0  0  0  0  0  0  0  0
   -7.6124   15.2840  -33.5261 H   0  0  0  0  0  0  0  0  0  0  0  0
   -3.7278   16.6281  -34.8606 H   0  0  0  0  0  0  0  0  0  0  0  0
   -4.1938   18.9021  -33.9508 H   0  0  0  0  0  0  0  0  0  0  0  0
   -4.3461   20.2604  -32.3986 H   0  0  0  0  0  0  0  0  0  0  0  0
   -3.2572   22.8148  -28.2460 H   0  0  0  0  0  0  0  0  0  0  0  0
   -2.6345   21.4237  -29.2101 H   0  0  0  0  0  0  0  0  0  0  0  0
   -0.9788   22.1848  -27.5245 H   0  0  0  0  0  0  0  0  0  0  0  0
   -0.3843   22.4178  -29.2159 H   0  0  0  0  0  0  0  0  0  0  0  0
   -2.0270   24.7930  -29.9340 H   0  0  0  0  0  0  0  0  0  0  0  0
  1  2  1  0
  2  3  2  0
  2  4  1  0
  4  5  2  0
  5  6  1  0
  6  7  2  0
  7  8  1  0
  8  9  2  0
  9 10  1  0
 10 11  2  0
 11 12  1  0
 12 13  2  0
 13 14  1  0
 13 15  1  0
 15 16  2  0
  9 17  1  0
 17 18  2  0
 18 19  1  0
 19 20  1  0
 20 21  2  0
 20 22  1  0
 22 23  1  0
 23 24  1  0
 24 25  1  0
 25 26  2  0
 25 27  1  1
 25 28  1  0
 19  4  1  0
 18  6  1  0
 16 10  1  0
  1 29  1  0
  5 30  1  0
  7 31  1  0
  8 32  1  0
 11 33  1  0
 12 34  1  0
 15 35  1  0
 16 36  1  0
 17 37  1  0
 23 38  1  0
 23 39  1  0
 24 40  1  0
 24 41  1  0
 28 42  1  0
M  CHG  2   1  -1  27  -1
M  END
>  <UniqueID>  (64) 
64

>  <SMILES>  (64) 
[NH-]C(=O)c1cc2ccc(-c3ccc(F)cc3)cc2n1C(=O)OCC[P@@](=O)([O-])O

>  <Energy>  (64) 
80.58972762440176

>  <Genealogy>  (64) 
[NH-]C(=O)c1cc2ccc(-c3ccc(F)cc3)cc2n1C(=O)OCCP(=O)([O-])O (protonated)
[NH-]C(=O)c1cc2ccc(-c3ccc(F)cc3)cc2n1C(=O)OCC[P@@](=O)([O-])O (chirality)
[NH-]C(=O)c1cc2ccc(-c3ccc(F)cc3)cc2n1C(=O)OCC[P@@](=O)([O-])O (3D coordinates assigned)
[NH-]C(=O)c1cc2ccc(-c3ccc(F)cc3)cc2n1C(=O)OCC[P@@](=O)([O-])O (optimized conformer: 80.58972762440176 kcal/mol)

>  <smiles>  (64) 
NC(=O)c1cc2ccc(-c3ccc(F)cc3)cc2n1C(=O)OCCP(=O)(O)O

>  <score_type>  (64) 
oracle

>  <origin>  (64) 
adg

>  <m_score__min__energy>  (64) 
-13.32

>  <m_primary>  (64) 
energy

$$$$
65:0
     RDKit          3D

 35 37  0  0  0  0  0  0  0  0999 V2000
   -3.9140   25.2320  -30.7310 N   0  0  0  0  0  0  0  0  0  0  0  0
   -5.3160   25.1550  -30.4840 C   0  0  0  0  0  0  0  0  0  0  0  0
   -5.8880   26.1060  -29.8860 O   0  0  0  0  0  0  0  0  0  0  0  0
   -6.0970   23.9660  -30.8860 C   0  0  0  0  0  0  0  0  0  0  0  0
   -7.4650   23.9960  -31.1520 C   0  0  0  0  0  0  0  0  0  0  0  0
   -7.8140   22.6920  -31.4200 C   0  0  0  0  0  0  0  0  0  0  0  0
   -9.0500   22.1470  -31.7570 C   0  0  0  0  0  0  0  0  0  0  0  0
   -9.1150   20.7650  -32.0010 C   0  0  0  0  0  0  0  0  0  0  0  0
   -7.9510   19.9610  -31.9140 C   0  0  0  0  0  0  0  0  0  0  0  0
   -8.0400   18.4890  -32.1950 C   0  0  0  0  0  0  0  0  0  0  0  0
   -6.9480   17.8410  -31.6430 F   0  0  0  0  0  0  0  0  0  0  0  0
   -9.2000   17.9780  -31.6450 F   0  0  0  0  0  0  0  0  0  0  0  0
   -6.7130   20.5510  -31.5730 C   0  0  0  0  0  0  0  0  0  0  0  0
   -6.6830   21.9260  -31.3160 C   0  0  0  0  0  0  0  0  0  0  0  0
   -5.6220   22.6940  -30.9870 N   0  0  0  0  0  0  0  0  0  0  0  0
   -4.2600   22.2600  -30.8310 C   0  0  0  0  0  0  0  0  0  0  0  0
   -3.9340   21.6380  -29.7830 O   0  0  0  0  0  0  0  0  0  0  0  0
   -3.2420   22.6160  -31.7960 N   0  0  2  0  0  0  0  0  0  0  0  0
   -3.3330   21.9030  -33.0810 C   0  0  0  0  0  0  0  0  0  0  0  0
   -1.9930   21.2180  -32.8840 C   0  0  1  0  0  0  0  0  0  0  0  0
   -1.0290   21.6900  -33.7860 O   0  0  0  0  0  0  0  0  0  0  0  0
   -1.9500   21.9520  -31.5530 C   0  0  0  0  0  0  0  0  0  0  0  0
   -3.5010   26.0460  -31.2370 H   0  0  0  0  0  0  0  0  0  0  0  0
   -8.1256   24.8755  -31.1485 H   0  0  0  0  0  0  0  0  0  0  0  0
   -9.9476   22.7787  -31.8299 H   0  0  0  0  0  0  0  0  0  0  0  0
  -10.0783   20.3025  -32.2620 H   0  0  0  0  0  0  0  0  0  0  0  0
   -8.0494   18.3311  -33.2836 H   0  0  0  0  0  0  0  0  0  0  0  0
   -5.7970   19.9451  -31.5112 H   0  0  0  0  0  0  0  0  0  0  0  0
   -3.1300   23.6510  -31.9120 H   0  0  0  0  0  0  0  0  0  0  0  0
   -4.1792   21.2021  -33.1335 H   0  0  0  0  0  0  0  0  0  0  0  0
   -3.5018   22.4843  -33.9995 H   0  0  0  0  0  0  0  0  0  0  0  0
   -1.8501   20.1308  -32.9714 H   0  0  0  0  0  0  0  0  0  0  0  0
   -1.5160   21.8620  -34.6330 H   0  0  0  0  0  0  0  0  0  0  0  0
   -1.9596   21.2804  -30.6819 H   0  0  0  0  0  0  0  0  0  0  0  0
   -1.0714   22.5694  -31.3143 H   0  0  0  0  0  0  0  0  0  0  0  0
  1  2  1  0
  2  3  2  0
  2  4  1  0
  4  5  2  0
  5  6  1  0
  6  7  2  0
  7  8  1  0
  8  9  2  0
  9 10  1  0
 10 11  1  0
 10 12  1  0
  9 13  1  0
 13 14  2  0
 14 15  1  0
 15 16  1  0
 16 17  2  0
 16 18  1  0
 18 19  1  0
 19 20  1  0
 20 21  1  0
 20 22  1  0
 15  4  1  0
 22 18  1  0
 14  6  1  0
  1 23  1  0
  5 24  1  0
  7 25  1  0
  8 26  1  0
 10 27  1  0
 13 28  1  0
 18 29  1  6
 19 30  1  0
 19 31  1  0
 20 32  1  1
 21 33  1  0
 22 34  1  0
 22 35  1  0
M  CHG  2   1  -1  18   1
M  END
>  <UniqueID>  (65) 
65

>  <SMILES>  (65) 
[NH-]C(=O)c1cc2ccc(C(F)F)cc2n1C(=O)[NH+]1CC(O)C1

>  <Energy>  (65) 
149.96387709864487

>  <Genealogy>  (65) 
[NH-]C(=O)c1cc2ccc(C(F)F)cc2n1C(=O)[NH+]1CC(O)C1 (protonated)
[NH-]C(=O)c1cc2ccc(C(F)F)cc2n1C(=O)[NH+]1CC(O)C1 (3D coordinates assigned)
[NH-]C(=O)c1cc2ccc(C(F)F)cc2n1C(=O)[NH+]1CC(O)C1 (nonaromatic ring conformer: 149.96387709864487 kcal/mol)

>  <smiles>  (65) 
NC(=O)c1cc2ccc(C(F)F)cc2n1C(=O)N1CC(O)C1

>  <score_type>  (65) 
oracle

>  <origin>  (65) 
adg

>  <m_score__min__energy>  (65) 
-9.2599999999999998

>  <m_primary>  (65) 
energy

$$$$
66:0
     RDKit          3D

 43 45  0  0  0  0  0  0  0  0999 V2000
   -2.1030   16.1930  -33.1220 C   0  0  0  0  0  0  0  0  0  0  0  0
   -2.1680   16.9930  -34.7100 S   0  0  0  0  0  0  0  0  0  0  0  0
   -1.8010   18.4400  -34.5470 O   0  0  0  0  0  0  0  0  0  0  0  0
   -1.1940   16.3450  -35.6540 O   0  0  0  0  0  0  0  0  0  0  0  0
   -3.7690   16.8870  -35.3600 N   0  0  0  0  0  0  0  0  0  0  0  0
   -4.9450   17.0730  -34.5670 C   0  0  0  0  0  0  0  0  0  0  0  0
   -5.7870   16.0300  -34.3290 N   0  0  0  0  0  0  0  0  0  0  0  0
   -6.9050   16.1710  -33.5720 C   0  0  0  0  0  0  0  0  0  0  0  0
   -7.2210   17.4100  -33.0130 C   0  0  0  0  0  0  0  0  0  0  0  0
   -6.3800   18.5120  -33.2420 C   0  0  0  0  0  0  0  0  0  0  0  0
   -6.7110   19.8320  -32.6540 C   0  0  0  0  0  0  0  0  0  0  0  0
   -8.0650   20.2270  -32.4890 C   0  0  0  0  0  0  0  0  0  0  0  0
   -8.3870   21.4790  -31.9400 C   0  0  0  0  0  0  0  0  0  0  0  0
   -7.3400   22.3090  -31.5520 C   0  0  0  0  0  0  0  0  0  0  0  0
   -7.3680   23.5760  -31.0180 C   0  0  0  0  0  0  0  0  0  0  0  0
   -6.0310   23.9290  -30.8320 C   0  0  0  0  0  0  0  0  0  0  0  0
   -5.6050   25.1900  -30.1900 C   0  0  0  0  0  0  0  0  0  0  0  0
   -4.3690   25.8080  -30.5380 N   0  0  0  0  0  0  0  0  0  0  0  0
   -6.3200   25.7040  -29.2890 O   0  0  0  0  0  0  0  0  0  0  0  0
   -5.2110   22.9210  -31.2460 N   0  0  0  0  0  0  0  0  0  0  0  0
   -3.7760   22.9150  -31.2940 C   0  0  0  0  0  0  0  0  0  0  0  0
   -3.1770   22.1440  -32.0930 O   0  0  0  0  0  0  0  0  0  0  0  0
   -3.0490   23.7480  -30.4360 O   0  0  0  0  0  0  0  0  0  0  0  0
   -1.9180   23.3080  -29.6890 C   0  0  0  0  0  0  0  0  0  0  0  0
   -1.1270   24.4820  -29.2070 C   0  0  0  0  0  0  0  0  0  0  0  0
   -1.5900   25.6480  -29.3150 O   0  0  0  0  0  0  0  0  0  0  0  0
    0.1130   24.2860  -28.6130 O   0  0  0  0  0  0  0  0  0  0  0  0
   -6.0270   21.9360  -31.6810 C   0  0  0  0  0  0  0  0  0  0  0  0
   -5.6770   20.7040  -32.2430 C   0  0  0  0  0  0  0  0  0  0  0  0
   -5.2250   18.3330  -34.0280 C   0  0  0  0  0  0  0  0  0  0  0  0
   -4.3600   19.3590  -34.2370 F   0  0  0  0  0  0  0  0  0  0  0  0
   -2.1646   16.9507  -32.3269 H   0  0  0  0  0  0  0  0  0  0  0  0
   -2.9473   15.4941  -33.0287 H   0  0  0  0  0  0  0  0  0  0  0  0
   -1.1569   15.6396  -33.0287 H   0  0  0  0  0  0  0  0  0  0  0  0
   -7.5632   15.3068  -33.3989 H   0  0  0  0  0  0  0  0  0  0  0  0
   -8.1245   17.5234  -32.3958 H   0  0  0  0  0  0  0  0  0  0  0  0
   -8.8714   19.5442  -32.7948 H   0  0  0  0  0  0  0  0  0  0  0  0
   -9.4343   21.7935  -31.8205 H   0  0  0  0  0  0  0  0  0  0  0  0
   -8.2561   24.1825  -30.7866 H   0  0  0  0  0  0  0  0  0  0  0  0
   -3.5130   25.6610  -29.9580 H   0  0  0  0  0  0  0  0  0  0  0  0
   -2.2602   22.7210  -28.8240 H   0  0  0  0  0  0  0  0  0  0  0  0
   -1.2804   22.6878  -30.3362 H   0  0  0  0  0  0  0  0  0  0  0  0
   -4.6210   20.4200  -32.3625 H   0  0  0  0  0  0  0  0  0  0  0  0
  1  2  1  0
  2  3  2  0
  2  4  2  0
  2  5  1  0
  5  6  1  0
  6  7  2  0
  7  8  1  0
  8  9  2  0
  9 10  1  0
 10 11  1  0
 11 12  2  0
 12 13  1  0
 13 14  2  0
 14 15  1  0
 15 16  2  0
 16 17  1  0
 17 18  1  0
 17 19  2  0
 16 20  1  0
 20 21  1  0
 21 22  2  0
 21 23  1  0
 23 24  1  0
 24 25  1  0
 25 26  2  0
 25 27  1  0
 20 28  1  0
 28 29  2  0
 10 30  2  0
 30 31  1  0
 30  6  1  0
 29 11  1  0
 28 14  1  0
  1 32  1  0
  1 33  1  0
  1 34  1  0
  8 35  1  0
  9 36  1  0
 12 37  1  0
 13 38  1  0
 15 39  1  0
 18 40  1  0
 24 41  1  0
 24 42  1  0
 29 43  1  0
M  CHG  3   5  -1  18  -1  27  -1
M  END
>  <UniqueID>  (66) 
66

>  <SMILES>  (66) 
CS(=O)(=O)[N-]c1nccc(-c2ccc3cc(C([NH-])=O)n(C(=O)OCC(=O)[O-])c3c2)c1F

>  <Energy>  (66) 
86.62274918939484

>  <Genealogy>  (66) 
CS(=O)(=O)[N-]c1nccc(-c2ccc3cc(C([NH-])=O)n(C(=O)OCC(=O)[O-])c3c2)c1F (protonated)
CS(=O)(=O)[N-]c1nccc(-c2ccc3cc(C([NH-])=O)n(C(=O)OCC(=O)[O-])c3c2)c1F (3D coordinates assigned)
CS(=O)(=O)[N-]c1nccc(-c2ccc3cc(C([NH-])=O)n(C(=O)OCC(=O)[O-])c3c2)c1F (optimized conformer: 86.62274918939484 kcal/mol)

>  <smiles>  (66) 
CS(=O)(=O)Nc1nccc(-c2ccc3cc(C(N)=O)n(C(=O)OCC(=O)O)c3c2)c1F

>  <score_type>  (66) 
oracle

>  <origin>  (66) 
adg

>  <m_score__min__energy>  (66) 
-13.529999999999999

>  <m_primary>  (66) 
energy

$$$$
68:0
     RDKit          3D

 39 40  0  0  0  0  0  0  0  0999 V2000
   -1.5630   25.5500  -29.1660 N   0  0  0  0  0  0  0  0  0  0  0  0
   -0.8570   24.5690  -28.4150 C   0  0  0  0  0  0  0  0  0  0  0  0
    0.3810   24.7040  -28.2170 O   0  0  0  0  0  0  0  0  0  0  0  0
   -1.5460   23.4590  -27.9170 O   0  0  0  0  0  0  0  0  0  0  0  0
   -1.1120   22.1100  -28.0930 C   0  0  0  0  0  0  0  0  0  0  0  0
   -2.1750   21.1060  -27.6230 C   0  0  1  0  0  0  0  0  0  0  0  0
   -3.1760   20.9030  -28.6670 N   0  0  0  0  0  0  0  0  0  0  0  0
   -2.9470   21.1880  -30.0510 C   0  0  0  0  0  0  0  0  0  0  0  0
   -2.3040   20.3760  -30.7690 O   0  0  0  0  0  0  0  0  0  0  0  0
   -3.4670   22.4310  -30.6340 C   0  0  0  0  0  0  0  0  0  0  0  0
   -2.6830   23.3940  -30.8480 O   0  0  0  0  0  0  0  0  0  0  0  0
   -4.8560   22.5600  -30.9740 N   0  0  0  0  0  0  0  0  0  0  0  0
   -5.6290   23.6800  -30.9200 C   0  0  0  0  0  0  0  0  0  0  0  0
   -5.2200   24.9920  -30.3690 C   0  0  0  0  0  0  0  0  0  0  0  0
   -4.0620   25.6670  -30.8530 N   0  0  0  0  0  0  0  0  0  0  0  0
   -5.8910   25.5130  -29.4380 O   0  0  0  0  0  0  0  0  0  0  0  0
   -6.9070   23.4140  -31.4100 C   0  0  0  0  0  0  0  0  0  0  0  0
   -6.8910   22.0850  -31.7690 C   0  0  0  0  0  0  0  0  0  0  0  0
   -7.8940   21.2920  -32.3220 C   0  0  0  0  0  0  0  0  0  0  0  0
   -7.5890   19.9510  -32.6090 C   0  0  0  0  0  0  0  0  0  0  0  0
   -6.2920   19.4370  -32.3630 C   0  0  0  0  0  0  0  0  0  0  0  0
   -5.9910   17.9940  -32.6410 C   0  0  0  0  0  0  0  0  0  0  0  0
   -7.0160   17.4460  -33.3890 F   0  0  0  0  0  0  0  0  0  0  0  0
   -5.3020   20.2680  -31.7940 C   0  0  0  0  0  0  0  0  0  0  0  0
   -5.6410   21.5930  -31.4990 C   0  0  0  0  0  0  0  0  0  0  0  0
   -1.5390   19.7990  -27.2370 C   0  0  0  0  0  0  0  0  0  0  0  0
   -0.3650   19.5250  -27.6050 O   0  0  0  0  0  0  0  0  0  0  0  0
   -2.2260   18.9110  -26.4210 O   0  0  0  0  0  0  0  0  0  0  0  0
   -2.0420   25.2970  -30.0590 H   0  0  0  0  0  0  0  0  0  0  0  0
   -0.9060   21.9380  -29.1598 H   0  0  0  0  0  0  0  0  0  0  0  0
   -0.2061   21.9592  -27.4876 H   0  0  0  0  0  0  0  0  0  0  0  0
   -2.6748   21.5182  -26.7340 H   0  0  0  0  0  0  0  0  0  0  0  0
   -3.1050   25.2920  -30.6720 H   0  0  0  0  0  0  0  0  0  0  0  0
   -7.7492   24.1168  -31.4923 H   0  0  0  0  0  0  0  0  0  0  0  0
   -8.8935   21.7029  -32.5275 H   0  0  0  0  0  0  0  0  0  0  0  0
   -8.3648   19.2938  -33.0288 H   0  0  0  0  0  0  0  0  0  0  0  0
   -5.0471   17.9174  -33.2006 H   0  0  0  0  0  0  0  0  0  0  0  0
   -5.8985   17.4487  -31.6902 H   0  0  0  0  0  0  0  0  0  0  0  0
   -4.2919   19.8840  -31.5883 H   0  0  0  0  0  0  0  0  0  0  0  0
  1  2  1  0
  2  3  2  0
  2  4  1  0
  4  5  1  0
  5  6  1  0
  6  7  1  0
  7  8  1  0
  8  9  2  0
  8 10  1  0
 10 11  2  0
 10 12  1  0
 12 13  1  0
 13 14  1  0
 14 15  1  0
 14 16  2  0
 13 17  2  0
 17 18  1  0
 18 19  2  0
 19 20  1  0
 20 21  2  0
 21 22  1  0
 22 23  1  0
 21 24  1  0
 24 25  2  0
  6 26  1  0
 26 27  2  0
 26 28  1  0
 25 12  1  0
 25 18  1  0
  1 29  1  0
  5 30  1  0
  5 31  1  0
  6 32  1  1
 15 33  1  0
 17 34  1  0
 19 35  1  0
 20 36  1  0
 22 37  1  0
 22 38  1  0
 24 39  1  0
M  CHG  4   1  -1   7  -1  15  -1  28  -1
M  END
>  <UniqueID>  (67) 
67

>  <SMILES>  (67) 
[NH-]C(=O)OC[C@@H]([N-]C(=O)C(=O)n1c(C([NH-])=O)cc2ccc(CF)cc21)C(=O)[O-]

>  <Energy>  (67) 
72.53430611515647

>  <Genealogy>  (67) 
[NH-]C(=O)OCC([N-]C(=O)C(=O)n1c(C([NH-])=O)cc2ccc(CF)cc21)C(=O)[O-] (protonated)
[NH-]C(=O)OC[C@@H]([N-]C(=O)C(=O)n1c(C([NH-])=O)cc2ccc(CF)cc21)C(=O)[O-] (chirality)
[NH-]C(=O)OC[C@@H]([N-]C(=O)C(=O)n1c(C([NH-])=O)cc2ccc(CF)cc21)C(=O)[O-] (3D coordinates assigned)
[NH-]C(=O)OC[C@@H]([N-]C(=O)C(=O)n1c(C([NH-])=O)cc2ccc(CF)cc21)C(=O)[O-] (optimized conformer: 72.53430611515647 kcal/mol)

>  <smiles>  (67) 
NC(=O)OCC(NC(=O)C(=O)n1c(C(N)=O)cc2ccc(CF)cc21)C(=O)O

>  <score_type>  (67) 
oracle

>  <origin>  (67) 
adg

>  <m_score__min__energy>  (67) 
-12.48

>  <m_primary>  (67) 
energy

$$$$
69:0
     RDKit          3D

 46 50  0  0  0  0  0  0  0  0999 V2000
   -3.8600   25.3250  -30.5520 N   0  0  0  0  0  0  0  0  0  0  0  0
   -5.2590   25.1520  -30.3480 C   0  0  0  0  0  0  0  0  0  0  0  0
   -5.9090   26.0450  -29.7400 O   0  0  0  0  0  0  0  0  0  0  0  0
   -5.9510   23.9290  -30.8100 C   0  0  0  0  0  0  0  0  0  0  0  0
   -7.2600   23.9160  -31.2900 C   0  0  0  0  0  0  0  0  0  0  0  0
   -7.5380   22.5920  -31.5530 C   0  0  0  0  0  0  0  0  0  0  0  0
   -8.6980   21.9980  -32.0390 C   0  0  0  0  0  0  0  0  0  0  0  0
   -8.6990   20.6030  -32.2160 C   0  0  0  0  0  0  0  0  0  0  0  0
   -7.5420   19.8330  -31.9260 C   0  0  0  0  0  0  0  0  0  0  0  0
   -7.5710   18.3340  -32.0780 C   0  0  0  0  0  0  0  0  0  0  0  0
   -8.8610   17.8540  -31.9400 F   0  0  0  0  0  0  0  0  0  0  0  0
   -6.7790   17.7310  -31.1150 F   0  0  0  0  0  0  0  0  0  0  0  0
   -7.0950   17.9940  -33.3300 F   0  0  0  0  0  0  0  0  0  0  0  0
   -6.3920   20.4740  -31.4100 C   0  0  0  0  0  0  0  0  0  0  0  0
   -6.4240   21.8610  -31.2370 C   0  0  0  0  0  0  0  0  0  0  0  0
   -5.4410   22.6660  -30.7880 N   0  0  0  0  0  0  0  0  0  0  0  0
   -4.1230   22.2480  -30.4020 C   0  0  0  0  0  0  0  0  0  0  0  0
   -3.8360   22.1830  -29.1760 O   0  0  0  0  0  0  0  0  0  0  0  0
   -3.1150   21.8600  -31.4190 C   0  0  0  0  0  0  0  0  0  0  0  0
   -3.5120   21.4470  -32.7000 C   0  0  0  0  0  0  0  0  0  0  0  0
   -2.5580   21.0820  -33.6490 C   0  0  0  0  0  0  0  0  0  0  0  0
   -1.1940   21.1330  -33.3180 C   0  0  0  0  0  0  0  0  0  0  0  0
   -0.1760   20.7640  -34.2680 N   0  0  0  0  0  0  0  0  0  0  0  0
    0.3110   21.6770  -35.2900 C   0  0  0  0  0  0  0  0  0  0  0  0
    1.3630   20.9100  -36.0800 C   0  0  2  0  0  0  0  0  0  0  0  0
    0.8700   19.6970  -36.8570 C   0  0  0  0  0  0  0  0  0  0  0  0
    1.4680   19.5240  -35.4670 C   0  0  2  0  0  0  0  0  0  0  0  0
    0.4790   19.4640  -34.3120 C   0  0  0  0  0  0  0  0  0  0  0  0
   -0.8320   21.5440  -32.0720 N   0  0  0  0  0  0  0  0  0  0  0  0
   -1.7420   21.9040  -31.1300 C   0  0  0  0  0  0  0  0  0  0  0  0
   -3.4990   26.0290  -31.2330 H   0  0  0  0  0  0  0  0  0  0  0  0
   -7.9283   24.7786  -31.4291 H   0  0  0  0  0  0  0  0  0  0  0  0
   -9.5868   22.6006  -32.2774 H   0  0  0  0  0  0  0  0  0  0  0  0
   -9.6069   20.1024  -32.5835 H   0  0  0  0  0  0  0  0  0  0  0  0
   -5.4934   19.8950  -31.1508 H   0  0  0  0  0  0  0  0  0  0  0  0
   -4.5810   21.4110  -32.9567 H   0  0  0  0  0  0  0  0  0  0  0  0
   -2.8719   20.7559  -34.6515 H   0  0  0  0  0  0  0  0  0  0  0  0
    0.7584   22.5673  -34.8239 H   0  0  0  0  0  0  0  0  0  0  0  0
   -0.5059   22.0220  -35.9409 H   0  0  0  0  0  0  0  0  0  0  0  0
    2.0186   21.7458  -36.3657 H   0  0  0  0  0  0  0  0  0  0  0  0
    1.4230   19.3479  -37.7415 H   0  0  0  0  0  0  0  0  0  0  0  0
   -0.0775   19.4127  -37.3380 H   0  0  0  0  0  0  0  0  0  0  0  0
    2.2384   18.8403  -35.0809 H   0  0  0  0  0  0  0  0  0  0  0  0
    1.0080   19.2717  -33.3669 H   0  0  0  0  0  0  0  0  0  0  0  0
   -0.2507   18.6528  -34.4517 H   0  0  0  0  0  0  0  0  0  0  0  0
   -1.4016   22.2314  -30.1365 H   0  0  0  0  0  0  0  0  0  0  0  0
  1  2  1  0
  2  3  2  0
  2  4  1  0
  4  5  2  0
  5  6  1  0
  6  7  2  0
  7  8  1  0
  8  9  2  0
  9 10  1  0
 10 11  1  0
 10 12  1  0
 10 13  1  0
  9 14  1  0
 14 15  2  0
 15 16  1  0
 16 17  1  0
 17 18  2  0
 17 19  1  0
 19 20  2  0
 20 21  1  0
 21 22  2  0
 22 23  1  0
 23 24  1  0
 24 25  1  0
 25 26  1  0
 26 27  1  0
 27 28  1  0
 22 29  1  0
 29 30  2  0
 16  4  1  0
 30 19  1  0
 15  6  1  0
 28 23  1  0
 27 25  1  0
  1 31  1  0
  5 32  1  0
  7 33  1  0
  8 34  1  0
 14 35  1  0
 20 36  1  0
 21 37  1  0
 24 38  1  0
 24 39  1  0
 25 40  1  6
 26 41  1  0
 26 42  1  0
 27 43  1  6
 28 44  1  0
 28 45  1  0
 30 46  1  0
M  CHG  1   1  -1
M  END
>  <UniqueID>  (68) 
68

>  <SMILES>  (68) 
[NH-]C(=O)c1cc2ccc(C(F)(F)F)cc2n1C(=O)c1ccc(N2C[C@H]3C[C@H]3C2)nc1

>  <Energy>  (68) 
358.3927590664997

>  <Genealogy>  (68) 
[NH-]C(=O)c1cc2ccc(C(F)(F)F)cc2n1C(=O)c1ccc(N2CC3CC3C2)nc1 (protonated)
[NH-]C(=O)c1cc2ccc(C(F)(F)F)cc2n1C(=O)c1ccc(N2C[C@H]3C[C@H]3C2)nc1 (chirality)
[NH-]C(=O)c1cc2ccc(C(F)(F)F)cc2n1C(=O)c1ccc(N2C[C@H]3C[C@H]3C2)nc1 (3D coordinates assigned)
[NH-]C(=O)c1cc2ccc(C(F)(F)F)cc2n1C(=O)c1ccc(N2C[C@H]3C[C@H]3C2)nc1 (nonaromatic ring conformer: 358.3927590664997 kcal/mol)

>  <smiles>  (68) 
NC(=O)c1cc2ccc(C(F)(F)F)cc2n1C(=O)c1ccc(N2CC3CC3C2)nc1

>  <score_type>  (68) 
oracle

>  <origin>  (68) 
adg

>  <m_score__min__energy>  (68) 
-11.779999999999999

>  <m_primary>  (68) 
energy

$$$$
70:0
     RDKit          3D

 38 39  0  0  0  0  0  0  0  0999 V2000
   -3.2010   25.1720  -30.5390 H   0  0  0  0  0  0  0  0  0  0  0  0
   -4.0820   25.6430  -30.8410 N   0  0  0  0  0  0  0  0  0  0  0  0
   -5.3550   25.1540  -30.4250 C   0  0  0  0  0  0  0  0  0  0  0  0
   -6.0550   25.8430  -29.6380 O   0  0  0  0  0  0  0  0  0  0  0  0
   -5.8160   23.8270  -30.8830 C   0  0  0  0  0  0  0  0  0  0  0  0
   -7.1220   23.5680  -31.2900 C   0  0  0  0  0  0  0  0  0  0  0  0
   -7.9743   24.2633  -31.2788 H   0  0  0  0  0  0  0  0  0  0  0  0
   -7.1200   22.2580  -31.7090 C   0  0  0  0  0  0  0  0  0  0  0  0
   -8.1590   21.4780  -32.2010 C   0  0  0  0  0  0  0  0  0  0  0  0
   -9.1681   21.8962  -32.3306 H   0  0  0  0  0  0  0  0  0  0  0  0
   -7.8840   20.1410  -32.5280 C   0  0  0  0  0  0  0  0  0  0  0  0
   -8.6882   19.5052  -32.9268 H   0  0  0  0  0  0  0  0  0  0  0  0
   -6.5810   19.5940  -32.3520 C   0  0  0  0  0  0  0  0  0  0  0  0
   -6.3110   18.2060  -32.6810 N   0  0  0  0  0  0  0  0  0  0  0  0
   -6.1980   17.1960  -31.6210 C   0  0  0  0  0  0  0  0  0  0  0  0
   -6.2530   17.6878  -30.6386 H   0  0  0  0  0  0  0  0  0  0  0  0
   -7.0207   16.4720  -31.7152 H   0  0  0  0  0  0  0  0  0  0  0  0
   -5.2356   16.6717  -31.7152 H   0  0  0  0  0  0  0  0  0  0  0  0
   -6.1450   17.7880  -34.0780 C   0  0  0  0  0  0  0  0  0  0  0  0
   -5.7392   16.7661  -34.1092 H   0  0  0  0  0  0  0  0  0  0  0  0
   -7.1204   17.8108  -34.5859 H   0  0  0  0  0  0  0  0  0  0  0  0
   -5.4510   18.4738  -34.5859 H   0  0  0  0  0  0  0  0  0  0  0  0
   -5.5530   20.4310  -31.8450 C   0  0  0  0  0  0  0  0  0  0  0  0
   -4.5377   20.0377  -31.6888 H   0  0  0  0  0  0  0  0  0  0  0  0
   -5.8530   21.7660  -31.5470 C   0  0  0  0  0  0  0  0  0  0  0  0
   -5.0370   22.7180  -31.0400 N   0  0  0  0  0  0  0  0  0  0  0  0
   -3.6640   22.5520  -30.6500 C   0  0  0  0  0  0  0  0  0  0  0  0
   -2.7550   23.1660  -31.2720 O   0  0  0  0  0  0  0  0  0  0  0  0
   -3.3510   21.6960  -29.5860 O   0  0  0  0  0  0  0  0  0  0  0  0
   -2.4730   21.9940  -28.5360 C   0  0  0  0  0  0  0  0  0  0  0  0
   -1.3700   21.3940  -28.4260 O   0  0  0  0  0  0  0  0  0  0  0  0
   -2.7890   23.0730  -27.5800 C   0  0  0  0  0  0  0  0  0  0  0  0
   -3.6000   22.8838  -26.8614 H   0  0  0  0  0  0  0  0  0  0  0  0
   -2.1750   24.2650  -27.5090 C   0  0  0  0  0  0  0  0  0  0  0  0
   -2.3966   24.8898  -26.6312 H   0  0  0  0  0  0  0  0  0  0  0  0
   -1.2310   24.8130  -28.5000 C   0  0  0  0  0  0  0  0  0  0  0  0
   -1.5950   25.6710  -29.3480 O   0  0  0  0  0  0  0  0  0  0  0  0
    0.1080   24.4510  -28.4320 O   0  0  0  0  0  0  0  0  0  0  0  0
  1  2  1  0
  2  3  1  0
  3  4  2  0
  3  5  1  0
  5  6  2  0
  6  7  1  0
  6  8  1  0
  8  9  2  0
  9 10  1  0
  9 11  1  0
 11 12  1  0
 11 13  2  0
 13 14  1  0
 14 15  1  0
 15 16  1  0
 15 17  1  0
 15 18  1  0
 14 19  1  0
 19 20  1  0
 19 21  1  0
 19 22  1  0
 13 23  1  0
 23 24  1  0
 23 25  2  0
 25 26  1  0
 26 27  1  0
 27 28  2  0
 27 29  1  0
 29 30  1  0
 30 31  2  0
 30 32  1  0
 32 33  1  0
 32 34  2  0
 34 35  1  0
 34 36  1  0
 36 37  2  0
 36 38  1  0
 26  5  1  0
 25  8  1  0
M  CHG  2   2  -1  38  -1
M  END
>  <UniqueID>  (69) 
69

>  <SMILES>  (69) 
CN(C)c1ccc2cc(C([NH-])=O)n(C(=O)OC(=O)/C=C\C(=O)[O-])c2c1

>  <Energy>  (69) 
83.86766462752695

>  <Genealogy>  (69) 
CN(C)c1ccc2cc(C([NH-])=O)n(C(=O)OC(=O)/C=C\C(=O)[O-])c2c1 (protonated)
CN(C)c1ccc2cc(C([NH-])=O)n(C(=O)OC(=O)/C=C\C(=O)[O-])c2c1 (cis-trans isomerization)
CN(C)c1ccc2cc(C([NH-])=O)n(C(=O)OC(=O)/C=C\C(=O)[O-])c2c1 (3D coordinates assigned)
CN(C)c1ccc2cc(C([NH-])=O)n(C(=O)OC(=O)/C=C\C(=O)[O-])c2c1 (optimized conformer: 83.86766462752695 kcal/mol)

>  <smiles>  (69) 
CN(C)c1ccc2cc(C(N)=O)n(C(=O)OC(=O)/C=C\C(=O)O)c2c1

>  <score_type>  (69) 
oracle

>  <origin>  (69) 
adg

>  <m_score__min__energy>  (69) 
-12.859999999999999

>  <m_primary>  (69) 
energy

$$$$
71:0
     RDKit          3D

 37 38  0  0  0  0  0  0  0  0999 V2000
   -0.9139   22.5719  -31.4309 H   0  0  0  0  0  0  0  0  0  0  0  0
   -1.3890   22.4170  -30.4510 C   0  0  0  0  0  0  0  0  0  0  0  0
   -0.5550   22.4870  -29.2400 C   0  0  0  0  0  0  0  0  0  0  0  0
   -0.2900   21.4450  -28.5790 O   0  0  0  0  0  0  0  0  0  0  0  0
   -0.0560   23.7300  -28.8360 O   0  0  0  0  0  0  0  0  0  0  0  0
   -0.7610   24.6120  -27.9670 C   0  0  0  0  0  0  0  0  0  0  0  0
   -1.4614   24.0301  -27.3499 H   0  0  0  0  0  0  0  0  0  0  0  0
   -0.0372   25.1352  -27.3248 H   0  0  0  0  0  0  0  0  0  0  0  0
   -1.5260   25.6230  -28.7610 C   0  0  0  0  0  0  0  0  0  0  0  0
   -1.0770   26.7910  -28.9040 O   0  0  0  0  0  0  0  0  0  0  0  0
   -2.7500   25.2830  -29.3200 O   0  0  0  0  0  0  0  0  0  0  0  0
   -2.7030   22.1720  -30.4040 C   0  0  0  0  0  0  0  0  0  0  0  0
   -3.1771   22.0159  -29.4237 H   0  0  0  0  0  0  0  0  0  0  0  0
   -3.5410   22.1030  -31.6160 C   0  0  0  0  0  0  0  0  0  0  0  0
   -2.9820   21.9600  -32.7360 O   0  0  0  0  0  0  0  0  0  0  0  0
   -4.9730   22.1980  -31.5510 N   0  0  0  0  0  0  0  0  0  0  0  0
   -5.7110   23.1970  -30.9920 C   0  0  0  0  0  0  0  0  0  0  0  0
   -5.1570   24.4570  -30.4410 C   0  0  0  0  0  0  0  0  0  0  0  0
   -4.5950   25.2860  -31.2050 O   0  0  0  0  0  0  0  0  0  0  0  0
   -5.2630   24.7600  -29.0480 N   0  0  0  0  0  0  0  0  0  0  0  0
   -4.8990   25.6670  -28.6820 H   0  0  0  0  0  0  0  0  0  0  0  0
   -5.6600   24.0760  -28.3680 H   0  0  0  0  0  0  0  0  0  0  0  0
   -7.0710   22.8930  -31.0640 C   0  0  0  0  0  0  0  0  0  0  0  0
   -7.9112   23.5065  -30.7066 H   0  0  0  0  0  0  0  0  0  0  0  0
   -7.1380   21.6630  -31.6770 C   0  0  0  0  0  0  0  0  0  0  0  0
   -8.2430   20.8830  -32.0040 C   0  0  0  0  0  0  0  0  0  0  0  0
   -9.2645   21.2271  -31.7848 H   0  0  0  0  0  0  0  0  0  0  0  0
   -8.0140   19.6420  -32.6230 C   0  0  0  0  0  0  0  0  0  0  0  0
   -8.8686   19.0116  -32.9099 H   0  0  0  0  0  0  0  0  0  0  0  0
   -6.6930   19.1930  -32.8820 C   0  0  0  0  0  0  0  0  0  0  0  0
   -6.4610   17.8810  -33.5870 C   0  0  0  0  0  0  0  0  0  0  0  0
   -5.3880   17.2350  -33.0020 F   0  0  0  0  0  0  0  0  0  0  0  0
   -7.5800   17.0710  -33.4930 F   0  0  0  0  0  0  0  0  0  0  0  0
   -6.1870   18.0870  -34.9280 F   0  0  0  0  0  0  0  0  0  0  0  0
   -5.5980   20.0260  -32.5540 C   0  0  0  0  0  0  0  0  0  0  0  0
   -4.5660   19.7090  -32.7651 H   0  0  0  0  0  0  0  0  0  0  0  0
   -5.8590   21.2620  -31.9550 C   0  0  0  0  0  0  0  0  0  0  0  0
  1  2  1  0
  2  3  1  0
  3  4  2  0
  3  5  1  0
  5  6  1  0
  6  7  1  0
  6  8  1  0
  6  9  1  0
  9 10  2  0
  9 11  1  0
  2 12  2  0
 12 13  1  0
 12 14  1  0
 14 15  2  0
 14 16  1  0
 16 17  1  0
 17 18  1  0
 18 19  2  0
 18 20  1  0
 20 21  1  0
 20 22  1  0
 17 23  2  0
 23 24  1  0
 23 25  1  0
 25 26  2  0
 26 27  1  0
 26 28  1  0
 28 29  1  0
 28 30  2  0
 30 31  1  0
 31 32  1  0
 31 33  1  0
 31 34  1  0
 30 35  1  0
 35 36  1  0
 35 37  2  0
 37 16  1  0
 37 25  1  0
M  CHG  1  11  -1
M  END
>  <UniqueID>  (70) 
70

>  <SMILES>  (70) 
NC(=O)c1cc2ccc(C(F)(F)F)cc2n1C(=O)/C=C/C(=O)OCC(=O)[O-]

>  <Energy>  (70) 
73.32306787493098

>  <Genealogy>  (70) 
NC(=O)c1cc2ccc(C(F)(F)F)cc2n1C(=O)/C=C/C(=O)OCC(=O)[O-] (protonated)
NC(=O)c1cc2ccc(C(F)(F)F)cc2n1C(=O)/C=C/C(=O)OCC(=O)[O-] (cis-trans isomerization)
NC(=O)c1cc2ccc(C(F)(F)F)cc2n1C(=O)/C=C/C(=O)OCC(=O)[O-] (3D coordinates assigned)
NC(=O)c1cc2ccc(C(F)(F)F)cc2n1C(=O)/C=C/C(=O)OCC(=O)[O-] (optimized conformer: 73.32306787493098 kcal/mol)

>  <smiles>  (70) 
NC(=O)c1cc2ccc(C(F)(F)F)cc2n1C(=O)/C=C/C(=O)OCC(=O)O

>  <score_type>  (70) 
oracle

>  <origin>  (70) 
adg

>  <m_score__min__energy>  (70) 
-10.77

>  <m_primary>  (70) 
energy

$$$$
72:0
     RDKit          3D

 42 43  0  0  0  0  0  0  0  0999 V2000
   -3.6930   23.0280  -27.9080 C   0  0  0  0  0  0  0  0  0  0  0  0
   -2.2100   22.9400  -28.3040 C   0  0  1  0  0  0  0  0  0  0  0  0
   -2.0700   23.2430  -29.7880 C   0  0  0  0  0  0  0  0  0  0  0  0
   -2.8170   22.7260  -30.7780 C   0  0  0  0  0  0  0  0  0  0  0  0
   -4.0210   21.8850  -30.6200 C   0  0  0  0  0  0  0  0  0  0  0  0
   -3.8670   20.6780  -30.2970 O   0  0  0  0  0  0  0  0  0  0  0  0
   -5.3470   22.3790  -30.8820 N   0  0  0  0  0  0  0  0  0  0  0  0
   -5.8620   23.6100  -30.5990 C   0  0  0  0  0  0  0  0  0  0  0  0
   -5.1050   24.7680  -30.0820 C   0  0  0  0  0  0  0  0  0  0  0  0
   -4.0240   25.3050  -30.8400 N   0  0  0  0  0  0  0  0  0  0  0  0
   -5.3810   25.2680  -28.9600 O   0  0  0  0  0  0  0  0  0  0  0  0
   -7.2150   23.6610  -30.9300 C   0  0  0  0  0  0  0  0  0  0  0  0
   -7.5110   22.4190  -31.4430 C   0  0  0  0  0  0  0  0  0  0  0  0
   -8.7180   21.9070  -31.9110 C   0  0  0  0  0  0  0  0  0  0  0  0
   -8.7420   20.5720  -32.3490 C   0  0  0  0  0  0  0  0  0  0  0  0
   -7.5690   19.7770  -32.3070 C   0  0  0  0  0  0  0  0  0  0  0  0
   -7.6030   18.3440  -32.7530 C   0  0  0  0  0  0  0  0  0  0  0  0
   -6.7580   18.1710  -33.8350 F   0  0  0  0  0  0  0  0  0  0  0  0
   -7.1920   17.5250  -31.7170 F   0  0  0  0  0  0  0  0  0  0  0  0
   -6.3630   20.3320  -31.8260 C   0  0  0  0  0  0  0  0  0  0  0  0
   -6.3660   21.6680  -31.4100 C   0  0  0  0  0  0  0  0  0  0  0  0
   -1.3640   23.8240  -27.4530 N   0  0  1  0  0  0  0  0  0  0  0  0
   -0.3220   23.0620  -26.7400 C   0  0  0  0  0  0  0  0  0  0  0  0
   -0.7820   24.9290  -28.1860 C   0  0  0  0  0  0  0  0  0  0  0  0
    0.4600   25.1470  -28.1550 O   0  0  0  0  0  0  0  0  0  0  0  0
   -1.5950   25.7520  -28.9570 O   0  0  0  0  0  0  0  0  0  0  0  0
   -3.7800   23.0332  -26.8115 H   0  0  0  0  0  0  0  0  0  0  0  0
   -4.1268   23.9535  -28.3146 H   0  0  0  0  0  0  0  0  0  0  0  0
   -4.2332   22.1603  -28.3146 H   0  0  0  0  0  0  0  0  0  0  0  0
   -1.8433   21.9181  -28.1271 H   0  0  0  0  0  0  0  0  0  0  0  0
   -1.2819   23.9533  -30.0785 H   0  0  0  0  0  0  0  0  0  0  0  0
   -2.5009   22.9512  -31.8073 H   0  0  0  0  0  0  0  0  0  0  0  0
   -3.0470   25.2760  -30.4750 H   0  0  0  0  0  0  0  0  0  0  0  0
   -7.9002   24.5127  -30.8073 H   0  0  0  0  0  0  0  0  0  0  0  0
   -9.6252   22.5285  -31.9371 H   0  0  0  0  0  0  0  0  0  0  0  0
   -9.6798   20.1398  -32.7280 H   0  0  0  0  0  0  0  0  0  0  0  0
   -8.6307   18.0818  -33.0448 H   0  0  0  0  0  0  0  0  0  0  0  0
   -5.4441   19.7291  -31.7795 H   0  0  0  0  0  0  0  0  0  0  0  0
   -1.9790   24.2340  -26.7090 H   0  0  0  0  0  0  0  0  0  0  0  0
   -0.4677   23.1685  -25.6549 H   0  0  0  0  0  0  0  0  0  0  0  0
   -0.3907   21.9996  -27.0166 H   0  0  0  0  0  0  0  0  0  0  0  0
    0.6696   23.4495  -27.0166 H   0  0  0  0  0  0  0  0  0  0  0  0
  1  2  1  0
  2  3  1  0
  3  4  2  3
  4  5  1  0
  5  6  2  0
  5  7  1  0
  7  8  1  0
  8  9  1  0
  9 10  1  0
  9 11  2  0
  8 12  2  0
 12 13  1  0
 13 14  2  0
 14 15  1  0
 15 16  2  0
 16 17  1  0
 17 18  1  0
 17 19  1  0
 16 20  1  0
 20 21  2  0
  2 22  1  0
 22 23  1  0
 22 24  1  0
 24 25  2  0
 24 26  1  0
 21  7  1  0
 21 13  1  0
  1 27  1  0
  1 28  1  0
  1 29  1  0
  2 30  1  6
  3 31  1  0
  4 32  1  0
 10 33  1  0
 12 34  1  0
 14 35  1  0
 15 36  1  0
 17 37  1  0
 20 38  1  0
 22 39  1  1
 23 40  1  0
 23 41  1  0
 23 42  1  0
M  CHG  3  10  -1  22   1  26  -1
M  END
>  <UniqueID>  (71) 
71

>  <SMILES>  (71) 
C[C@@H](C=CC(=O)n1c(C([NH-])=O)cc2ccc(C(F)F)cc21)[N@@H+](C)C(=O)[O-]

>  <Energy>  (71) 
87.95441510933689

>  <Genealogy>  (71) 
C[C@@H](C=CC(=O)n1c(C([NH-])=O)cc2ccc(C(F)F)cc21)[NH+](C)C(=O)[O-] (protonated)
C[C@@H](C=CC(=O)n1c(C([NH-])=O)cc2ccc(C(F)F)cc21)[N@@H+](C)C(=O)[O-] (chirality)
C[C@@H](C=CC(=O)n1c(C([NH-])=O)cc2ccc(C(F)F)cc21)[N@@H+](C)C(=O)[O-] (3D coordinates assigned)
C[C@@H](C=CC(=O)n1c(C([NH-])=O)cc2ccc(C(F)F)cc21)[N@@H+](C)C(=O)[O-] (optimized conformer: 87.95441510933689 kcal/mol)

>  <smiles>  (71) 
C[C@@H](C=CC(=O)n1c(C(N)=O)cc2ccc(C(F)F)cc21)N(C)C(=O)O

>  <score_type>  (71) 
oracle

>  <origin>  (71) 
adg

>  <m_score__min__energy>  (71) 
-11.279999999999999

>  <m_primary>  (71) 
energy

$$$$
73:0
     RDKit          3D

 38 39  0  0  0  0  0  0  0  0999 V2000
   -4.2170   25.3860  -27.5920 H   0  0  0  0  0  0  0  0  0  0  0  0
   -4.0150   24.6470  -26.8820 N   0  0  0  0  0  0  0  0  0  0  0  0
   -4.0120   23.3950  -27.2000 C   0  0  0  0  0  0  0  0  0  0  0  0
   -3.8069   22.6319  -26.4348 H   0  0  0  0  0  0  0  0  0  0  0  0
   -4.2770   23.0030  -28.5540 N   0  0  0  0  0  0  0  0  0  0  0  0
   -3.4040   22.8340  -29.5080 C   0  0  0  0  0  0  0  0  0  0  0  0
   -3.9050   22.4910  -30.8580 C   0  0  0  0  0  0  0  0  0  0  0  0
   -3.1050   22.1000  -31.7500 O   0  0  0  0  0  0  0  0  0  0  0  0
   -5.3070   22.5780  -31.1620 N   0  0  0  0  0  0  0  0  0  0  0  0
   -6.1420   23.6250  -30.9130 C   0  0  0  0  0  0  0  0  0  0  0  0
   -5.7350   24.9520  -30.4060 C   0  0  0  0  0  0  0  0  0  0  0  0
   -5.3580   25.8350  -31.2220 O   0  0  0  0  0  0  0  0  0  0  0  0
   -5.7110   25.2400  -29.0080 N   0  0  0  0  0  0  0  0  0  0  0  0
   -5.8210   24.4850  -28.2970 H   0  0  0  0  0  0  0  0  0  0  0  0
   -5.4770   26.2020  -28.6760 H   0  0  0  0  0  0  0  0  0  0  0  0
   -7.4580   23.2830  -31.2120 C   0  0  0  0  0  0  0  0  0  0  0  0
   -8.3506   23.9184  -31.1148 H   0  0  0  0  0  0  0  0  0  0  0  0
   -7.4050   21.9810  -31.6550 C   0  0  0  0  0  0  0  0  0  0  0  0
   -8.4250   21.1330  -32.0720 C   0  0  0  0  0  0  0  0  0  0  0  0
   -9.4680   21.4799  -32.1157 H   0  0  0  0  0  0  0  0  0  0  0  0
   -8.0830   19.8190  -32.4360 C   0  0  0  0  0  0  0  0  0  0  0  0
   -8.8647   19.1332  -32.7946 H   0  0  0  0  0  0  0  0  0  0  0  0
   -6.7400   19.3670  -32.3460 C   0  0  0  0  0  0  0  0  0  0  0  0
   -6.3790   17.9670  -32.7750 C   0  0  0  0  0  0  0  0  0  0  0  0
   -7.2500   17.5150  -33.7510 F   0  0  0  0  0  0  0  0  0  0  0  0
   -5.0940   17.9300  -33.2910 F   0  0  0  0  0  0  0  0  0  0  0  0
   -6.4510   17.1250  -31.6820 F   0  0  0  0  0  0  0  0  0  0  0  0
   -5.7300   20.2650  -31.9350 C   0  0  0  0  0  0  0  0  0  0  0  0
   -4.6802   19.9420  -31.8750 H   0  0  0  0  0  0  0  0  0  0  0  0
   -6.0960   21.5750  -31.6060 C   0  0  0  0  0  0  0  0  0  0  0  0
   -1.9190   23.0420  -29.2930 C   0  0  0  0  0  0  0  0  0  0  0  0
   -1.5819   22.4046  -28.4622 H   0  0  0  0  0  0  0  0  0  0  0  0
   -1.3876   22.7763  -30.2187 H   0  0  0  0  0  0  0  0  0  0  0  0
   -1.6200   24.5010  -28.9580 C   0  0  0  0  0  0  0  0  0  0  0  0
   -1.4057   24.5939  -27.8831 H   0  0  0  0  0  0  0  0  0  0  0  0
   -0.7474   24.8385  -29.5364 H   0  0  0  0  0  0  0  0  0  0  0  0
   -2.7300   25.2920  -29.2830 O   0  0  0  0  0  0  0  0  0  0  0  0
   -3.4570   25.0120  -28.6680 H   0  0  0  0  0  0  0  0  0  0  0  0
  1  2  1  0
  2  3  2  0
  3  4  1  0
  3  5  1  0
  5  6  2  0
  6  7  1  0
  7  8  2  0
  7  9  1  0
  9 10  1  0
 10 11  1  0
 11 12  2  0
 11 13  1  0
 13 14  1  0
 13 15  1  0
 10 16  2  0
 16 17  1  0
 16 18  1  0
 18 19  2  0
 19 20  1  0
 19 21  1  0
 21 22  1  0
 21 23  2  0
 23 24  1  0
 24 25  1  0
 24 26  1  0
 24 27  1  0
 23 28  1  0
 28 29  1  0
 28 30  2  0
  6 31  1  0
 31 32  1  0
 31 33  1  0
 31 34  1  0
 34 35  1  0
 34 36  1  0
 34 37  1  0
 37 38  1  0
 30  9  1  0
 30 18  1  0
M  END
>  <UniqueID>  (72) 
72

>  <SMILES>  (72) 
[H]/N=C\N=C(/CCO)C(=O)n1c(C(N)=O)cc2ccc(C(F)(F)F)cc21

>  <Energy>  (72) 
75.94232646054367

>  <Genealogy>  (72) 
[H]/N=C\N=C(/CCO)C(=O)n1c(C(N)=O)cc2ccc(C(F)(F)F)cc21 (cis-trans isomerization)
[H]/N=C\N=C(/CCO)C(=O)n1c(C(N)=O)cc2ccc(C(F)(F)F)cc21 (3D coordinates assigned)
[H]/N=C\N=C(/CCO)C(=O)n1c(C(N)=O)cc2ccc(C(F)(F)F)cc21 (optimized conformer: 75.94232646054367 kcal/mol)

>  <smiles>  (72) 
N=C/N=C(\CCO)C(=O)n1c(C(N)=O)cc2ccc(C(F)(F)F)cc21

>  <score_type>  (72) 
oracle

>  <origin>  (72) 
adg

>  <m_score__min__energy>  (72) 
-8.6400000000000006

>  <m_primary>  (72) 
energy

$$$$
74:0
     RDKit          3D

 38 39  0  0  0  0  0  0  0  0999 V2000
   -3.9690   23.6350  -27.9130 C   0  0  0  0  0  0  0  0  0  0  0  0
   -2.8240   22.9230  -28.6520 C   0  0  0  0  0  0  0  0  0  0  0  0
   -2.0400   22.0110  -27.6900 C   0  0  0  0  0  0  0  0  0  0  0  0
   -3.3550   22.1300  -29.7680 N   0  0  0  0  0  0  0  0  0  0  0  0
   -3.9010   22.6210  -31.0000 C   0  0  0  0  0  0  0  0  0  0  0  0
   -3.1450   22.9230  -31.9610 O   0  0  0  0  0  0  0  0  0  0  0  0
   -5.3230   22.7620  -31.1400 N   0  0  0  0  0  0  0  0  0  0  0  0
   -6.0670   23.8930  -30.9780 C   0  0  0  0  0  0  0  0  0  0  0  0
   -5.5570   25.1920  -30.4860 C   0  0  0  0  0  0  0  0  0  0  0  0
   -4.2070   25.5880  -30.7360 N   0  0  0  0  0  0  0  0  0  0  0  0
   -6.3190   25.9760  -29.8610 O   0  0  0  0  0  0  0  0  0  0  0  0
   -7.4100   23.6350  -31.2510 C   0  0  0  0  0  0  0  0  0  0  0  0
   -7.4650   22.3030  -31.5890 C   0  0  0  0  0  0  0  0  0  0  0  0
   -8.5550   21.5160  -31.9550 C   0  0  0  0  0  0  0  0  0  0  0  0
   -8.3170   20.1680  -32.2710 C   0  0  0  0  0  0  0  0  0  0  0  0
   -7.0030   19.6390  -32.2350 C   0  0  0  0  0  0  0  0  0  0  0  0
   -6.7630   18.1920  -32.5580 C   0  0  0  0  0  0  0  0  0  0  0  0
   -6.1630   18.0690  -33.8900 C   0  0  0  0  0  0  0  0  0  0  0  0
   -5.6900   17.9730  -34.9420 N   0  0  0  0  0  0  0  0  0  0  0  0
   -5.9240   20.4650  -31.8480 C   0  0  0  0  0  0  0  0  0  0  0  0
   -6.1930   21.7980  -31.5170 C   0  0  0  0  0  0  0  0  0  0  0  0
   -1.8940   23.9760  -29.2130 C   0  0  0  0  0  0  0  0  0  0  0  0
   -0.7470   23.6620  -29.6310 O   0  0  0  0  0  0  0  0  0  0  0  0
   -2.3210   25.2930  -29.3420 O   0  0  0  0  0  0  0  0  0  0  0  0
   -3.8188   23.5416  -26.8273 H   0  0  0  0  0  0  0  0  0  0  0  0
   -3.9794   24.6991  -28.1915 H   0  0  0  0  0  0  0  0  0  0  0  0
   -4.9280   23.1737  -28.1915 H   0  0  0  0  0  0  0  0  0  0  0  0
   -2.2756   22.2851  -26.6511 H   0  0  0  0  0  0  0  0  0  0  0  0
   -2.3233   20.9628  -27.8659 H   0  0  0  0  0  0  0  0  0  0  0  0
   -0.9611   22.1337  -27.8659 H   0  0  0  0  0  0  0  0  0  0  0  0
   -3.8680   26.5240  -30.4170 H   0  0  0  0  0  0  0  0  0  0  0  0
   -3.5280   24.9440  -31.1980 H   0  0  0  0  0  0  0  0  0  0  0  0
   -8.2479   24.3462  -31.2056 H   0  0  0  0  0  0  0  0  0  0  0  0
   -9.5704   21.9371  -31.9953 H   0  0  0  0  0  0  0  0  0  0  0  0
   -9.1589   19.5169  -32.5491 H   0  0  0  0  0  0  0  0  0  0  0  0
   -6.0818   17.7598  -31.8102 H   0  0  0  0  0  0  0  0  0  0  0  0
   -7.7226   17.6544  -32.5429 H   0  0  0  0  0  0  0  0  0  0  0  0
   -4.8981   20.0702  -31.8079 H   0  0  0  0  0  0  0  0  0  0  0  0
  1  2  1  0
  2  3  1  0
  2  4  1  0
  4  5  1  0
  5  6  2  0
  5  7  1  0
  7  8  1  0
  8  9  1  0
  9 10  1  0
  9 11  2  0
  8 12  2  0
 12 13  1  0
 13 14  2  0
 14 15  1  0
 15 16  2  0
 16 17  1  0
 17 18  1  0
 18 19  3  0
 16 20  1  0
 20 21  2  0
  2 22  1  0
 22 23  2  0
 22 24  1  0
 21  7  1  0
 21 13  1  0
  1 25  1  0
  1 26  1  0
  1 27  1  0
  3 28  1  0
  3 29  1  0
  3 30  1  0
 10 31  1  0
 10 32  1  0
 12 33  1  0
 14 34  1  0
 15 35  1  0
 17 36  1  0
 17 37  1  0
 20 38  1  0
M  CHG  2   4  -1  24  -1
M  END
>  <UniqueID>  (73) 
73

>  <SMILES>  (73) 
CC(C)([N-]C(=O)n1c(C(N)=O)cc2ccc(CC#N)cc21)C(=O)[O-]

>  <Energy>  (73) 
71.98477547730245

>  <Genealogy>  (73) 
CC(C)([N-]C(=O)n1c(C(N)=O)cc2ccc(CC#N)cc21)C(=O)[O-] (protonated)
CC(C)([N-]C(=O)n1c(C(N)=O)cc2ccc(CC#N)cc21)C(=O)[O-] (3D coordinates assigned)
CC(C)([N-]C(=O)n1c(C(N)=O)cc2ccc(CC#N)cc21)C(=O)[O-] (optimized conformer: 71.98477547730245 kcal/mol)

>  <smiles>  (73) 
CC(C)(NC(=O)n1c(C(N)=O)cc2ccc(CC#N)cc21)C(=O)O

>  <score_type>  (73) 
oracle

>  <origin>  (73) 
adg

>  <m_score__min__energy>  (73) 
-12.140000000000001

>  <m_primary>  (73) 
energy

$$$$
75:0
     RDKit          3D

 43 45  0  0  0  0  0  0  0  0999 V2000
   -4.9820   15.4740  -32.3640 C   0  0  0  0  0  0  0  0  0  0  0  0
   -5.2210   16.5330  -33.3930 C   0  0  0  0  0  0  0  0  0  0  0  0
   -4.6120   16.5310  -34.5970 N   0  0  0  0  0  0  0  0  0  0  0  0
   -5.0390   17.6660  -35.1880 C   0  0  0  0  0  0  0  0  0  0  0  0
   -5.8840   18.3410  -34.3360 C   0  0  0  0  0  0  0  0  0  0  0  0
   -6.0000   17.6220  -33.2060 N   0  0  0  0  0  0  0  0  0  0  0  0
   -6.7450   18.0130  -32.0070 C   0  0  0  0  0  0  0  0  0  0  0  0
   -6.8800   19.5090  -31.9430 C   0  0  0  0  0  0  0  0  0  0  0  0
   -8.0510   20.1450  -32.4240 C   0  0  0  0  0  0  0  0  0  0  0  0
   -8.1980   21.5380  -32.3300 C   0  0  0  0  0  0  0  0  0  0  0  0
   -7.1590   22.2670  -31.7560 C   0  0  0  0  0  0  0  0  0  0  0  0
   -7.0570   23.6170  -31.5110 C   0  0  0  0  0  0  0  0  0  0  0  0
   -5.8150   23.7880  -30.9020 C   0  0  0  0  0  0  0  0  0  0  0  0
   -5.2630   25.1100  -30.5390 C   0  0  0  0  0  0  0  0  0  0  0  0
   -3.8600   25.3560  -30.5890 N   0  0  0  0  0  0  0  0  0  0  0  0
   -6.0450   26.0490  -30.2320 O   0  0  0  0  0  0  0  0  0  0  0  0
   -5.1780   22.5900  -30.7690 N   0  0  0  0  0  0  0  0  0  0  0  0
   -3.9350   22.3280  -30.0990 C   0  0  0  0  0  0  0  0  0  0  0  0
   -3.1120   21.5090  -30.5930 O   0  0  0  0  0  0  0  0  0  0  0  0
   -3.6550   22.9640  -28.8860 O   0  0  0  0  0  0  0  0  0  0  0  0
   -2.6060   22.5450  -28.0190 C   0  0  0  0  0  0  0  0  0  0  0  0
   -1.9150   23.6660  -27.5200 O   0  0  0  0  0  0  0  0  0  0  0  0
   -1.0950   24.4330  -28.8060 P   0  0  2  0  0  0  0  0  0  0  0  0
    0.3960   24.4240  -28.5460 O   0  0  0  0  0  0  0  0  0  0  0  0
   -1.6260   26.0300  -28.9830 O   0  0  0  0  0  0  0  0  0  0  0  0
   -1.4120   23.5860  -30.2350 O   0  0  0  0  0  0  0  0  0  0  0  0
   -6.0130   21.6700  -31.3000 C   0  0  0  0  0  0  0  0  0  0  0  0
   -5.8480   20.2810  -31.3660 C   0  0  0  0  0  0  0  0  0  0  0  0
   -5.0805   15.9103  -31.3591 H   0  0  0  0  0  0  0  0  0  0  0  0
   -5.7210   14.6687  -32.4881 H   0  0  0  0  0  0  0  0  0  0  0  0
   -3.9688   15.0642  -32.4881 H   0  0  0  0  0  0  0  0  0  0  0  0
   -4.7554   18.0010  -36.1966 H   0  0  0  0  0  0  0  0  0  0  0  0
   -6.3782   19.3015  -34.5437 H   0  0  0  0  0  0  0  0  0  0  0  0
   -7.7465   17.5590  -32.0376 H   0  0  0  0  0  0  0  0  0  0  0  0
   -6.2008   17.6638  -31.1171 H   0  0  0  0  0  0  0  0  0  0  0  0
   -8.8525   19.5417  -32.8753 H   0  0  0  0  0  0  0  0  0  0  0  0
   -9.1057   22.0384  -32.6983 H   0  0  0  0  0  0  0  0  0  0  0  0
   -7.7978   24.3955  -31.7457 H   0  0  0  0  0  0  0  0  0  0  0  0
   -3.1990   24.8270  -29.9770 H   0  0  0  0  0  0  0  0  0  0  0  0
   -3.0328   21.9770  -27.1792 H   0  0  0  0  0  0  0  0  0  0  0  0
   -1.9052   21.9106  -28.5815 H   0  0  0  0  0  0  0  0  0  0  0  0
   -2.3720   23.7450  -30.4160 H   0  0  0  0  0  0  0  0  0  0  0  0
   -4.9366   19.8029  -30.9778 H   0  0  0  0  0  0  0  0  0  0  0  0
  1  2  1  0
  2  3  2  0
  3  4  1  0
  4  5  2  0
  5  6  1  0
  6  7  1  0
  7  8  1  0
  8  9  2  0
  9 10  1  0
 10 11  2  0
 11 12  1  0
 12 13  2  0
 13 14  1  0
 14 15  1  0
 14 16  2  0
 13 17  1  0
 17 18  1  0
 18 19  2  0
 18 20  1  0
 20 21  1  0
 21 22  1  0
 22 23  1  0
 23 24  2  0
 23 25  1  6
 23 26  1  0
 17 27  1  0
 27 28  2  0
  6  2  1  0
 28  8  1  0
 27 11  1  0
  1 29  1  0
  1 30  1  0
  1 31  1  0
  4 32  1  0
  5 33  1  0
  7 34  1  0
  7 35  1  0
  9 36  1  0
 10 37  1  0
 12 38  1  0
 15 39  1  0
 21 40  1  0
 21 41  1  0
 26 42  1  0
 28 43  1  0
M  CHG  2  15  -1  25  -1
M  END
>  <UniqueID>  (74) 
74

>  <SMILES>  (74) 
Cc1nccn1Cc1ccc2cc(C([NH-])=O)n(C(=O)OCO[P@](=O)([O-])O)c2c1

>  <Energy>  (74) 
107.26832378826072

>  <Genealogy>  (74) 
Cc1nccn1Cc1ccc2cc(C([NH-])=O)n(C(=O)OCOP(=O)([O-])O)c2c1 (protonated)
Cc1nccn1Cc1ccc2cc(C([NH-])=O)n(C(=O)OCO[P@](=O)([O-])O)c2c1 (chirality)
Cc1nccn1Cc1ccc2cc(C([NH-])=O)n(C(=O)OCO[P@](=O)([O-])O)c2c1 (3D coordinates assigned)
Cc1nccn1Cc1ccc2cc(C([NH-])=O)n(C(=O)OCO[P@](=O)([O-])O)c2c1 (optimized conformer: 107.26832378826072 kcal/mol)

>  <smiles>  (74) 
Cc1nccn1Cc1ccc2cc(C(N)=O)n(C(=O)OCOP(=O)(O)O)c2c1

>  <score_type>  (74) 
oracle

>  <origin>  (74) 
adg

>  <m_score__min__energy>  (74) 
-13.1

>  <m_primary>  (74) 
energy

$$$$
76:0
     RDKit          3D

 52 56  0  0  0  0  0  0  0  0999 V2000
   -3.8570   26.0170  -30.1520 H   0  0  0  0  0  0  0  0  0  0  0  0
   -4.7800   26.0110  -30.6390 N   0  0  0  0  0  0  0  0  0  0  0  0
   -5.8560   25.2030  -30.1640 C   0  0  0  0  0  0  0  0  0  0  0  0
   -6.5400   25.6030  -29.1840 O   0  0  0  0  0  0  0  0  0  0  0  0
   -6.1710   23.9050  -30.7980 C   0  0  0  0  0  0  0  0  0  0  0  0
   -7.4610   23.4990  -31.1420 C   0  0  0  0  0  0  0  0  0  0  0  0
   -8.3952   24.0655  -31.0142 H   0  0  0  0  0  0  0  0  0  0  0  0
   -7.3150   22.2370  -31.6760 C   0  0  0  0  0  0  0  0  0  0  0  0
   -8.2680   21.3620  -32.1890 C   0  0  0  0  0  0  0  0  0  0  0  0
   -9.3341   21.6321  -32.2096 H   0  0  0  0  0  0  0  0  0  0  0  0
   -7.8240   20.1220  -32.6800 C   0  0  0  0  0  0  0  0  0  0  0  0
   -8.5539   19.4096  -33.0920 H   0  0  0  0  0  0  0  0  0  0  0  0
   -6.4460   19.7750  -32.6520 C   0  0  0  0  0  0  0  0  0  0  0  0
   -5.9890   18.4640  -33.1760 C   0  0  0  0  0  0  0  0  0  0  0  0
   -6.8770   17.3810  -33.2670 C   0  0  0  0  0  0  0  0  0  0  0  0
   -7.9207   17.5041  -32.9421 H   0  0  0  0  0  0  0  0  0  0  0  0
   -6.4490   16.1480  -33.7660 C   0  0  0  0  0  0  0  0  0  0  0  0
   -7.1615   15.3122  -33.8280 H   0  0  0  0  0  0  0  0  0  0  0  0
   -5.1160   15.9580  -34.1920 C   0  0  0  0  0  0  0  0  0  0  0  0
   -4.6700   14.6740  -34.7130 N   0  0  0  0  0  0  0  0  0  0  0  0
   -5.3900   13.4150  -34.3480 C   0  0  0  0  0  0  0  0  0  0  0  0
   -5.3629   13.2822  -33.2564 H   0  0  0  0  0  0  0  0  0  0  0  0
   -6.4341   13.4823  -34.6875 H   0  0  0  0  0  0  0  0  0  0  0  0
   -4.7090   12.2060  -35.0290 C   0  0  2  0  0  0  0  0  0  0  0  0
   -5.2434   11.2914  -34.7324 H   0  0  0  0  0  0  0  0  0  0  0  0
   -3.2760   12.3550  -34.7750 N   0  0  0  0  0  0  0  0  0  0  0  0
   -2.8130   11.4290  -34.9400 H   0  0  0  0  0  0  0  0  0  0  0  0
   -3.2320   13.1220  -36.0200 C   0  0  2  0  0  0  0  0  0  0  0  0
   -2.3489   13.0863  -36.6749 H   0  0  0  0  0  0  0  0  0  0  0  0
   -3.4880   14.5940  -35.6240 C   0  0  0  0  0  0  0  0  0  0  0  0
   -2.6019   14.9931  -35.1087 H   0  0  0  0  0  0  0  0  0  0  0  0
   -3.6868   15.1850  -36.5302 H   0  0  0  0  0  0  0  0  0  0  0  0
   -4.5510   12.5350  -36.5080 C   0  0  0  0  0  0  0  0  0  0  0  0
   -4.4699   11.6717  -37.1848 H   0  0  0  0  0  0  0  0  0  0  0  0
   -5.2931   13.0818  -37.1082 H   0  0  0  0  0  0  0  0  0  0  0  0
   -4.2310   17.0540  -34.0960 C   0  0  0  0  0  0  0  0  0  0  0  0
   -3.1863   16.9365  -34.4197 H   0  0  0  0  0  0  0  0  0  0  0  0
   -4.6620   18.2860  -33.5960 C   0  0  0  0  0  0  0  0  0  0  0  0
   -3.9535   19.1249  -33.5311 H   0  0  0  0  0  0  0  0  0  0  0  0
   -5.5120   20.6960  -32.1190 C   0  0  0  0  0  0  0  0  0  0  0  0
   -4.4397   20.4533  -32.0837 H   0  0  0  0  0  0  0  0  0  0  0  0
   -5.9840   21.9200  -31.6390 C   0  0  0  0  0  0  0  0  0  0  0  0
   -5.2710   22.9310  -31.1040 N   0  0  0  0  0  0  0  0  0  0  0  0
   -3.8490   22.9590  -30.9270 C   0  0  0  0  0  0  0  0  0  0  0  0
   -3.0980   22.8360  -31.9310 O   0  0  0  0  0  0  0  0  0  0  0  0
   -3.2460   23.1360  -29.5940 C   0  0  0  0  0  0  0  0  0  0  0  0
   -3.1037   22.2512  -28.9561 H   0  0  0  0  0  0  0  0  0  0  0  0
   -2.8650   24.3320  -29.1300 C   0  0  0  0  0  0  0  0  0  0  0  0
   -3.0178   25.2210  -29.7596 H   0  0  0  0  0  0  0  0  0  0  0  0
   -2.2490   24.4950  -27.8060 C   0  0  0  0  0  0  0  0  0  0  0  0
   -1.6960   25.5840  -27.5070 O   0  0  0  0  0  0  0  0  0  0  0  0
   -2.2690   23.4630  -26.8740 O   0  0  0  0  0  0  0  0  0  0  0  0
  1  2  1  0
  2  3  1  0
  3  4  2  0
  3  5  1  0
  5  6  2  0
  6  7  1  0
  6  8  1  0
  8  9  2  0
  9 10  1  0
  9 11  1  0
 11 12  1  0
 11 13  2  0
 13 14  1  0
 14 15  2  0
 15 16  1  0
 15 17  1  0
 17 18  1  0
 17 19  2  0
 19 20  1  0
 20 21  1  0
 21 22  1  0
 21 23  1  0
 21 24  1  0
 24 25  1  6
 24 26  1  0
 26 27  1  0
 26 28  1  0
 28 29  1  6
 28 30  1  0
 30 31  1  0
 30 32  1  0
 28 33  1  0
 33 34  1  0
 33 35  1  0
 19 36  1  0
 36 37  1  0
 36 38  2  0
 38 39  1  0
 13 40  1  0
 40 41  1  0
 40 42  2  0
 42 43  1  0
 43 44  1  0
 44 45  2  0
 44 46  1  0
 46 47  1  0
 46 48  2  0
 48 49  1  0
 48 50  1  0
 50 51  2  0
 50 52  1  0
 43  5  1  0
 42  8  1  0
 38 14  1  0
 30 20  1  0
 33 24  1  0
M  CHG  2   2  -1  52  -1
M  END
>  <UniqueID>  (75) 
75

>  <SMILES>  (75) 
[NH-]C(=O)c1cc2ccc(-c3ccc(N4C[C@H]5C[C@@H](C4)N5)cc3)cc2n1C(=O)/C=C/C(=O)[O-]

>  <Energy>  (75) 
191.2217312996855

>  <Genealogy>  (75) 
[NH-]C(=O)c1cc2ccc(-c3ccc(N4CC5CC(C4)N5)cc3)cc2n1C(=O)C=CC(=O)[O-] (protonated)
[NH-]C(=O)c1cc2ccc(-c3ccc(N4C[C@H]5C[C@@H](C4)N5)cc3)cc2n1C(=O)C=CC(=O)[O-] (chirality)
[NH-]C(=O)c1cc2ccc(-c3ccc(N4C[C@H]5C[C@@H](C4)N5)cc3)cc2n1C(=O)/C=C/C(=O)[O-] (cis-trans isomerization)
[NH-]C(=O)c1cc2ccc(-c3ccc(N4C[C@H]5C[C@@H](C4)N5)cc3)cc2n1C(=O)/C=C/C(=O)[O-] (3D coordinates assigned)
[NH-]C(=O)c1cc2ccc(-c3ccc(N4C[C@H]5C[C@@H](C4)N5)cc3)cc2n1C(=O)/C=C/C(=O)[O-] (nonaromatic ring conformer: 191.2217312996855 kcal/mol)

>  <smiles>  (75) 
NC(=O)c1cc2ccc(-c3ccc(N4CC5CC(C4)N5)cc3)cc2n1C(=O)C=CC(=O)O

>  <score_type>  (75) 
oracle

>  <origin>  (75) 
adg

>  <m_score__min__energy>  (75) 
-12.6

>  <m_primary>  (75) 
energy

$$$$
77:0
     RDKit          3D

 46 47  0  0  0  0  0  0  0  0999 V2000
   -7.0290   18.4410  -33.0170 C   0  0  0  0  0  0  0  0  0  0  0  0
   -7.1950   19.8230  -32.4590 C   0  0  0  0  0  0  0  0  0  0  0  0
   -8.4730   20.4410  -32.4350 C   0  0  0  0  0  0  0  0  0  0  0  0
   -8.6250   21.7530  -31.9530 C   0  0  0  0  0  0  0  0  0  0  0  0
   -7.4850   22.4230  -31.5150 C   0  0  0  0  0  0  0  0  0  0  0  0
   -7.3340   23.7060  -31.0360 C   0  0  0  0  0  0  0  0  0  0  0  0
   -5.9690   23.8490  -30.7860 C   0  0  0  0  0  0  0  0  0  0  0  0
   -5.3570   25.0740  -30.2290 C   0  0  0  0  0  0  0  0  0  0  0  0
   -4.2050   25.6590  -30.8320 N   0  0  0  0  0  0  0  0  0  0  0  0
   -5.8450   25.6030  -29.1950 O   0  0  0  0  0  0  0  0  0  0  0  0
   -5.3100   22.6990  -31.0940 N   0  0  0  0  0  0  0  0  0  0  0  0
   -3.9000   22.4500  -31.0470 C   0  0  0  0  0  0  0  0  0  0  0  0
   -3.1030   23.2700  -31.5740 O   0  0  0  0  0  0  0  0  0  0  0  0
   -3.3660   21.2650  -30.3000 C   0  0  0  0  0  0  0  0  0  0  0  0
   -2.2370   21.6710  -29.4540 N   0  0  0  0  0  0  0  0  0  0  0  0
   -1.0330   22.2140  -30.0930 C   0  0  0  0  0  0  0  0  0  0  0  0
   -2.2460   21.3600  -28.0410 C   0  0  0  0  0  0  0  0  0  0  0  0
   -3.1560   20.6250  -27.5690 O   0  0  0  0  0  0  0  0  0  0  0  0
   -1.2240   21.8990  -27.1180 C   0  0  0  0  0  0  0  0  0  0  0  0
   -0.2900   21.1440  -26.7370 O   0  0  0  0  0  0  0  0  0  0  0  0
   -1.2600   23.2730  -26.6690 N   0  0  0  0  0  0  0  0  0  0  0  0
   -0.5920   23.6150  -25.4080 C   0  0  0  0  0  0  0  0  0  0  0  0
   -2.0000   24.3070  -27.4130 C   0  0  0  0  0  0  0  0  0  0  0  0
   -1.0970   25.0120  -28.3790 C   0  0  0  0  0  0  0  0  0  0  0  0
   -1.5830   25.6750  -29.3320 O   0  0  0  0  0  0  0  0  0  0  0  0
    0.2810   24.9070  -28.2460 O   0  0  0  0  0  0  0  0  0  0  0  0
   -6.2470   21.8380  -31.5380 C   0  0  0  0  0  0  0  0  0  0  0  0
   -6.0640   20.5380  -32.0160 C   0  0  0  0  0  0  0  0  0  0  0  0
   -6.9424   17.7200  -32.1908 H   0  0  0  0  0  0  0  0  0  0  0  0
   -7.9032   18.1875  -33.6347 H   0  0  0  0  0  0  0  0  0  0  0  0
   -6.1197   18.4018  -33.6347 H   0  0  0  0  0  0  0  0  0  0  0  0
   -9.3524   19.8882  -32.7969 H   0  0  0  0  0  0  0  0  0  0  0  0
   -9.6132   22.2353  -31.9227 H   0  0  0  0  0  0  0  0  0  0  0  0
   -8.1223   24.4578  -30.8832 H   0  0  0  0  0  0  0  0  0  0  0  0
   -3.2530   25.2610  -30.6660 H   0  0  0  0  0  0  0  0  0  0  0  0
   -4.1618   20.8442  -29.6679 H   0  0  0  0  0  0  0  0  0  0  0  0
   -3.0227   20.5087  -31.0212 H   0  0  0  0  0  0  0  0  0  0  0  0
   -0.3204   22.5354  -29.3191 H   0  0  0  0  0  0  0  0  0  0  0  0
   -0.5687   21.4381  -30.7195 H   0  0  0  0  0  0  0  0  0  0  0  0
   -1.3072   23.0756  -30.7195 H   0  0  0  0  0  0  0  0  0  0  0  0
   -1.2184   23.2943  -24.5625 H   0  0  0  0  0  0  0  0  0  0  0  0
    0.3809   23.1041  -25.3581 H   0  0  0  0  0  0  0  0  0  0  0  0
   -0.4377   24.7030  -25.3581 H   0  0  0  0  0  0  0  0  0  0  0  0
   -2.8232   23.8332  -27.9679 H   0  0  0  0  0  0  0  0  0  0  0  0
   -2.3961   25.0426  -26.6975 H   0  0  0  0  0  0  0  0  0  0  0  0
   -5.0625   20.0839  -32.0459 H   0  0  0  0  0  0  0  0  0  0  0  0
  1  2  1  0
  2  3  2  0
  3  4  1  0
  4  5  2  0
  5  6  1  0
  6  7  2  0
  7  8  1  0
  8  9  1  0
  8 10  2  0
  7 11  1  0
 11 12  1  0
 12 13  2  0
 12 14  1  0
 14 15  1  0
 15 16  1  0
 15 17  1  0
 17 18  2  0
 17 19  1  0
 19 20  2  0
 19 21  1  0
 21 22  1  0
 21 23  1  0
 23 24  1  0
 24 25  2  0
 24 26  1  0
 11 27  1  0
 27 28  2  0
 28  2  1  0
 27  5  1  0
  1 29  1  0
  1 30  1  0
  1 31  1  0
  3 32  1  0
  4 33  1  0
  6 34  1  0
  9 35  1  0
 14 36  1  0
 14 37  1  0
 16 38  1  0
 16 39  1  0
 16 40  1  0
 22 41  1  0
 22 42  1  0
 22 43  1  0
 23 44  1  0
 23 45  1  0
 28 46  1  0
M  CHG  2   9  -1  26  -1
M  END
>  <UniqueID>  (76) 
76

>  <SMILES>  (76) 
Cc1ccc2cc(C([NH-])=O)n(C(=O)CN(C)C(=O)C(=O)N(C)CC(=O)[O-])c2c1

>  <Energy>  (76) 
83.03167074901229

>  <Genealogy>  (76) 
Cc1ccc2cc(C([NH-])=O)n(C(=O)CN(C)C(=O)C(=O)N(C)CC(=O)[O-])c2c1 (protonated)
Cc1ccc2cc(C([NH-])=O)n(C(=O)CN(C)C(=O)C(=O)N(C)CC(=O)[O-])c2c1 (3D coordinates assigned)
Cc1ccc2cc(C([NH-])=O)n(C(=O)CN(C)C(=O)C(=O)N(C)CC(=O)[O-])c2c1 (optimized conformer: 83.03167074901229 kcal/mol)

>  <smiles>  (76) 
Cc1ccc2cc(C(N)=O)n(C(=O)CN(C)C(=O)C(=O)N(C)CC(=O)O)c2c1

>  <score_type>  (76) 
oracle

>  <origin>  (76) 
adg

>  <m_score__min__energy>  (76) 
-12.65

>  <m_primary>  (76) 
energy

$$$$
78:0
     RDKit          3D

 42 43  0  0  0  0  0  0  0  0999 V2000
   -5.0960   24.7030  -29.8770 N   0  0  0  0  0  0  0  0  0  0  0  0
   -6.4520   24.3990  -30.2080 C   0  0  0  0  0  0  0  0  0  0  0  0
   -7.3350   25.2870  -30.0690 O   0  0  0  0  0  0  0  0  0  0  0  0
   -6.8240   23.0880  -30.7760 C   0  0  0  0  0  0  0  0  0  0  0  0
   -8.1040   22.7900  -31.2320 C   0  0  0  0  0  0  0  0  0  0  0  0
   -8.0190   21.5160  -31.7440 C   0  0  0  0  0  0  0  0  0  0  0  0
   -9.0050   20.7180  -32.3160 C   0  0  0  0  0  0  0  0  0  0  0  0
   -8.6480   19.4230  -32.7250 C   0  0  0  0  0  0  0  0  0  0  0  0
   -7.3220   18.9530  -32.5580 C   0  0  0  0  0  0  0  0  0  0  0  0
   -6.9680   17.5480  -32.9590 C   0  0  0  0  0  0  0  0  0  0  0  0
   -6.1230   17.5630  -34.1930 C   0  0  0  0  0  0  0  0  0  0  0  0
   -5.5530   16.5110  -34.5840 O   0  0  0  0  0  0  0  0  0  0  0  0
   -6.0020   18.7290  -34.9380 O   0  0  0  0  0  0  0  0  0  0  0  0
   -6.3490   19.7890  -31.9650 C   0  0  0  0  0  0  0  0  0  0  0  0
   -6.7280   21.0820  -31.5800 C   0  0  0  0  0  0  0  0  0  0  0  0
   -5.9800   22.0380  -30.9800 N   0  0  0  0  0  0  0  0  0  0  0  0
   -4.6190   21.9180  -30.5320 C   0  0  0  0  0  0  0  0  0  0  0  0
   -4.3410   22.0480  -29.3080 O   0  0  0  0  0  0  0  0  0  0  0  0
   -3.6020   21.6550  -31.4580 O   0  0  0  0  0  0  0  0  0  0  0  0
   -2.3060   22.2420  -31.3710 C   0  0  0  0  0  0  0  0  0  0  0  0
   -1.4820   21.4780  -30.4950 O   0  0  0  0  0  0  0  0  0  0  0  0
   -1.2540   21.8360  -29.1630 C   0  0  0  0  0  0  0  0  0  0  0  0
   -1.7220   21.1410  -28.2200 O   0  0  0  0  0  0  0  0  0  0  0  0
   -0.4350   23.0530  -28.8580 C   0  0  0  0  0  0  0  0  0  0  0  0
   -1.2360   24.0990  -28.0730 C   0  0  0  0  0  0  0  0  0  0  0  0
   -1.7900   25.1660  -28.9680 C   0  0  0  0  0  0  0  0  0  0  0  0
   -2.7530   24.9130  -29.7380 O   0  0  0  0  0  0  0  0  0  0  0  0
   -1.2290   26.4360  -28.9620 O   0  0  0  0  0  0  0  0  0  0  0  0
   -4.8550   25.6220  -29.4430 H   0  0  0  0  0  0  0  0  0  0  0  0
   -4.3210   24.0500  -30.1270 H   0  0  0  0  0  0  0  0  0  0  0  0
   -8.9940   23.4352  -31.1918 H   0  0  0  0  0  0  0  0  0  0  0  0
  -10.0322   21.0901  -32.4438 H   0  0  0  0  0  0  0  0  0  0  0  0
   -9.4052   18.7672  -33.1794 H   0  0  0  0  0  0  0  0  0  0  0  0
   -6.4106   17.0661  -32.1423 H   0  0  0  0  0  0  0  0  0  0  0  0
   -7.8926   16.9880  -33.1627 H   0  0  0  0  0  0  0  0  0  0  0  0
   -5.3197   19.4335  -31.8095 H   0  0  0  0  0  0  0  0  0  0  0  0
   -1.8494   22.2664  -32.3715 H   0  0  0  0  0  0  0  0  0  0  0  0
   -2.3990   23.2651  -30.9779 H   0  0  0  0  0  0  0  0  0  0  0  0
    0.4391   22.7531  -28.2613 H   0  0  0  0  0  0  0  0  0  0  0  0
   -0.1273   23.5050  -29.8125 H   0  0  0  0  0  0  0  0  0  0  0  0
   -2.0696   23.5970  -27.5600 H   0  0  0  0  0  0  0  0  0  0  0  0
   -0.5570   24.5776  -27.3519 H   0  0  0  0  0  0  0  0  0  0  0  0
  1  2  1  0
  2  3  2  0
  2  4  1  0
  4  5  2  0
  5  6  1  0
  6  7  2  0
  7  8  1  0
  8  9  2  0
  9 10  1  0
 10 11  1  0
 11 12  2  0
 11 13  1  0
  9 14  1  0
 14 15  2  0
 15 16  1  0
 16 17  1  0
 17 18  2  0
 17 19  1  0
 19 20  1  0
 20 21  1  0
 21 22  1  0
 22 23  2  0
 22 24  1  0
 24 25  1  0
 25 26  1  0
 26 27  2  0
 26 28  1  0
 16  4  1  0
 15  6  1  0
  1 29  1  0
  1 30  1  0
  5 31  1  0
  7 32  1  0
  8 33  1  0
 10 34  1  0
 10 35  1  0
 14 36  1  0
 20 37  1  0
 20 38  1  0
 24 39  1  0
 24 40  1  0
 25 41  1  0
 25 42  1  0
M  CHG  2  13  -1  28  -1
M  END
>  <UniqueID>  (77) 
77

>  <SMILES>  (77) 
NC(=O)c1cc2ccc(CC(=O)[O-])cc2n1C(=O)OCOC(=O)CCC(=O)[O-]

>  <Energy>  (77) 
70.45109687747477

>  <Genealogy>  (77) 
NC(=O)c1cc2ccc(CC(=O)[O-])cc2n1C(=O)OCOC(=O)CCC(=O)[O-] (protonated)
NC(=O)c1cc2ccc(CC(=O)[O-])cc2n1C(=O)OCOC(=O)CCC(=O)[O-] (3D coordinates assigned)
NC(=O)c1cc2ccc(CC(=O)[O-])cc2n1C(=O)OCOC(=O)CCC(=O)[O-] (optimized conformer: 70.45109687747477 kcal/mol)

>  <smiles>  (77) 
NC(=O)c1cc2ccc(CC(=O)O)cc2n1C(=O)OCOC(=O)CCC(=O)O

>  <score_type>  (77) 
oracle

>  <origin>  (77) 
adg

>  <m_score__min__energy>  (77) 
-11.08

>  <m_primary>  (77) 
energy

$$$$
79:0
     RDKit          3D

 44 45  0  0  0  0  0  0  0  0999 V2000
   -5.7190   18.0650  -35.0490 C   0  0  0  0  0  0  0  0  0  0  0  0
   -4.9990   17.5850  -33.7820 C   0  0  0  0  0  0  0  0  0  0  0  0
   -3.5390   18.0540  -33.7580 C   0  0  0  0  0  0  0  0  0  0  0  0
   -5.7180   18.0220  -32.5690 N   0  0  0  0  0  0  0  0  0  0  0  0
   -6.1790   17.0510  -31.5660 C   0  0  0  0  0  0  0  0  0  0  0  0
   -6.0180   19.4200  -32.3700 C   0  0  0  0  0  0  0  0  0  0  0  0
   -7.2300   19.9690  -32.8620 C   0  0  0  0  0  0  0  0  0  0  0  0
   -7.5420   21.3230  -32.6580 C   0  0  0  0  0  0  0  0  0  0  0  0
   -6.6240   22.1060  -31.9670 C   0  0  0  0  0  0  0  0  0  0  0  0
   -6.6890   23.4330  -31.6080 C   0  0  0  0  0  0  0  0  0  0  0  0
   -5.5040   23.6860  -30.9200 C   0  0  0  0  0  0  0  0  0  0  0  0
   -5.1230   25.0270  -30.4290 C   0  0  0  0  0  0  0  0  0  0  0  0
   -3.8990   25.6330  -30.8320 N   0  0  0  0  0  0  0  0  0  0  0  0
   -5.9120   25.6660  -29.6830 O   0  0  0  0  0  0  0  0  0  0  0  0
   -4.7410   22.5590  -30.8480 N   0  0  0  0  0  0  0  0  0  0  0  0
   -3.5040   22.3740  -30.1390 C   0  0  0  0  0  0  0  0  0  0  0  0
   -3.4240   21.5020  -29.2330 O   0  0  0  0  0  0  0  0  0  0  0  0
   -2.3830   23.2170  -30.4270 N   0  0  0  0  0  0  0  0  0  0  0  0
   -1.0650   23.0680  -29.8150 C   0  0  0  0  0  0  0  0  0  0  0  0
   -1.0420   23.6460  -28.3960 C   0  0  0  0  0  0  0  0  0  0  0  0
   -0.7180   25.1070  -28.3910 C   0  0  0  0  0  0  0  0  0  0  0  0
    0.3400   25.5210  -27.8480 O   0  0  0  0  0  0  0  0  0  0  0  0
   -1.5970   26.0160  -28.9670 O   0  0  0  0  0  0  0  0  0  0  0  0
   -5.4410   21.6010  -31.4960 C   0  0  0  0  0  0  0  0  0  0  0  0
   -5.1140   20.2510  -31.6670 C   0  0  0  0  0  0  0  0  0  0  0  0
   -6.6036   18.6548  -34.7669 H   0  0  0  0  0  0  0  0  0  0  0  0
   -5.0366   18.6895  -35.6442 H   0  0  0  0  0  0  0  0  0  0  0  0
   -6.0330   17.1949  -35.6442 H   0  0  0  0  0  0  0  0  0  0  0  0
   -4.9938   16.4851  -33.7959 H   0  0  0  0  0  0  0  0  0  0  0  0
   -3.2054   18.1612  -32.7153 H   0  0  0  0  0  0  0  0  0  0  0  0
   -2.9075   17.3135  -34.2707 H   0  0  0  0  0  0  0  0  0  0  0  0
   -3.4569   19.0237  -34.2707 H   0  0  0  0  0  0  0  0  0  0  0  0
   -5.9905   17.4480  -30.5576 H   0  0  0  0  0  0  0  0  0  0  0  0
   -7.2571   16.8744  -31.6950 H   0  0  0  0  0  0  0  0  0  0  0  0
   -5.6344   16.1040  -31.6950 H   0  0  0  0  0  0  0  0  0  0  0  0
   -7.9343   19.3260  -33.4102 H   0  0  0  0  0  0  0  0  0  0  0  0
   -8.4834   21.7508  -33.0332 H   0  0  0  0  0  0  0  0  0  0  0  0
   -7.5027   24.1424  -31.8191 H   0  0  0  0  0  0  0  0  0  0  0  0
   -2.9820   25.2890  -30.4690 H   0  0  0  0  0  0  0  0  0  0  0  0
   -0.8091   21.9991  -29.7708 H   0  0  0  0  0  0  0  0  0  0  0  0
   -0.3341   23.6179  -30.4260 H   0  0  0  0  0  0  0  0  0  0  0  0
   -2.0309   23.5000  -27.9370 H   0  0  0  0  0  0  0  0  0  0  0  0
   -0.2587   23.1223  -27.8284 H   0  0  0  0  0  0  0  0  0  0  0  0
   -4.1747   19.8448  -31.2637 H   0  0  0  0  0  0  0  0  0  0  0  0
  1  2  1  0
  2  3  1  0
  2  4  1  0
  4  5  1  0
  4  6  1  0
  6  7  2  0
  7  8  1  0
  8  9  2  0
  9 10  1  0
 10 11  2  0
 11 12  1  0
 12 13  1  0
 12 14  2  0
 11 15  1  0
 15 16  1  0
 16 17  2  0
 16 18  1  0
 18 19  1  0
 19 20  1  0
 20 21  1  0
 21 22  2  0
 21 23  1  0
 15 24  1  0
 24 25  2  0
 25  6  1  0
 24  9  1  0
  1 26  1  0
  1 27  1  0
  1 28  1  0
  2 29  1  0
  3 30  1  0
  3 31  1  0
  3 32  1  0
  5 33  1  0
  5 34  1  0
  5 35  1  0
  7 36  1  0
  8 37  1  0
 10 38  1  0
 13 39  1  0
 19 40  1  0
 19 41  1  0
 20 42  1  0
 20 43  1  0
 25 44  1  0
M  CHG  3  13  -1  18  -1  23  -1
M  END
>  <UniqueID>  (78) 
78

>  <SMILES>  (78) 
CC(C)N(C)c1ccc2cc(C([NH-])=O)n(C(=O)[N-]CCC(=O)[O-])c2c1

>  <Energy>  (78) 
78.8859647381182

>  <Genealogy>  (78) 
CC(C)N(C)c1ccc2cc(C([NH-])=O)n(C(=O)[N-]CCC(=O)[O-])c2c1 (protonated)
CC(C)N(C)c1ccc2cc(C([NH-])=O)n(C(=O)[N-]CCC(=O)[O-])c2c1 (3D coordinates assigned)
CC(C)N(C)c1ccc2cc(C([NH-])=O)n(C(=O)[N-]CCC(=O)[O-])c2c1 (optimized conformer: 78.8859647381182 kcal/mol)

>  <smiles>  (78) 
CC(C)N(C)c1ccc2cc(C(N)=O)n(C(=O)NCCC(=O)O)c2c1

>  <score_type>  (78) 
oracle

>  <origin>  (78) 
adg

>  <m_score__min__energy>  (78) 
-13.710000000000001

>  <m_primary>  (78) 
energy

$$$$
80:0
     RDKit          3D

 46 47  0  0  0  0  0  0  0  0999 V2000
   -0.5140   26.8230  -23.3220 C   0  0  0  0  0  0  0  0  0  0  0  0
   -0.1050   25.5860  -24.5900 S   0  0  0  0  0  0  0  0  0  0  0  0
   -1.7150   25.7340  -25.4510 C   0  0  0  0  0  0  0  0  0  0  0  0
   -1.9580   24.5580  -26.4070 C   0  0  0  0  0  0  0  0  0  0  0  0
   -2.0960   24.9750  -27.8870 C   0  0  2  0  0  0  0  0  0  0  0  0
   -3.3580   24.4700  -28.4330 N   0  0  0  0  0  0  0  0  0  0  0  0
   -0.9560   24.4550  -28.7190 C   0  0  0  0  0  0  0  0  0  0  0  0
    0.2260   24.4980  -28.2800 O   0  0  0  0  0  0  0  0  0  0  0  0
   -1.2360   23.8720  -29.9590 O   0  0  0  0  0  0  0  0  0  0  0  0
   -1.6660   22.5210  -30.1030 C   0  0  0  0  0  0  0  0  0  0  0  0
   -3.0910   22.4430  -30.1120 O   0  0  0  0  0  0  0  0  0  0  0  0
   -3.8400   22.3170  -31.2860 C   0  0  0  0  0  0  0  0  0  0  0  0
   -3.2760   21.9800  -32.3620 O   0  0  0  0  0  0  0  0  0  0  0  0
   -5.2450   22.6250  -31.2880 N   0  0  0  0  0  0  0  0  0  0  0  0
   -5.8600   23.8150  -31.0180 C   0  0  0  0  0  0  0  0  0  0  0  0
   -5.2220   25.0540  -30.5130 C   0  0  0  0  0  0  0  0  0  0  0  0
   -3.8780   25.3880  -30.8430 N   0  0  0  0  0  0  0  0  0  0  0  0
   -5.8730   25.8230  -29.7550 O   0  0  0  0  0  0  0  0  0  0  0  0
   -7.2360   23.7010  -31.2060 C   0  0  0  0  0  0  0  0  0  0  0  0
   -7.4510   22.4020  -31.6030 C   0  0  0  0  0  0  0  0  0  0  0  0
   -8.6320   21.7640  -31.9650 C   0  0  0  0  0  0  0  0  0  0  0  0
   -8.5570   20.4260  -32.3760 C   0  0  0  0  0  0  0  0  0  0  0  0
   -7.3120   19.7520  -32.4100 C   0  0  0  0  0  0  0  0  0  0  0  0
   -7.2350   18.3390  -32.8880 C   0  0  0  0  0  0  0  0  0  0  0  0
   -6.4420   18.2770  -34.0100 F   0  0  0  0  0  0  0  0  0  0  0  0
   -6.1300   20.4380  -32.0550 C   0  0  0  0  0  0  0  0  0  0  0  0
   -6.2370   21.7700  -31.6390 C   0  0  0  0  0  0  0  0  0  0  0  0
   -0.3694   26.3857  -22.3231 H   0  0  0  0  0  0  0  0  0  0  0  0
    0.1427   27.6978  -23.4379 H   0  0  0  0  0  0  0  0  0  0  0  0
   -1.5628   27.1339  -23.4379 H   0  0  0  0  0  0  0  0  0  0  0  0
   -2.5195   25.7559  -24.7012 H   0  0  0  0  0  0  0  0  0  0  0  0
   -1.7029   26.6607  -26.0436 H   0  0  0  0  0  0  0  0  0  0  0  0
   -1.1116   23.8607  -26.3208 H   0  0  0  0  0  0  0  0  0  0  0  0
   -2.9137   24.0993  -26.1134 H   0  0  0  0  0  0  0  0  0  0  0  0
   -2.0798   26.0742  -27.9245 H   0  0  0  0  0  0  0  0  0  0  0  0
   -3.9620   25.2890  -28.6700 H   0  0  0  0  0  0  0  0  0  0  0  0
   -3.1580   23.9970  -29.3440 H   0  0  0  0  0  0  0  0  0  0  0  0
   -1.2764   22.1170  -31.0490 H   0  0  0  0  0  0  0  0  0  0  0  0
   -1.2854   21.9363  -29.2525 H   0  0  0  0  0  0  0  0  0  0  0  0
   -3.0880   24.7660  -30.5680 H   0  0  0  0  0  0  0  0  0  0  0  0
   -7.9930   24.4868  -31.0660 H   0  0  0  0  0  0  0  0  0  0  0  0
   -9.5958   22.2930  -31.9300 H   0  0  0  0  0  0  0  0  0  0  0  0
   -9.4729   19.8951  -32.6746 H   0  0  0  0  0  0  0  0  0  0  0  0
   -6.8023   17.7077  -32.0979 H   0  0  0  0  0  0  0  0  0  0  0  0
   -8.2453   17.9792  -33.1328 H   0  0  0  0  0  0  0  0  0  0  0  0
   -5.1511   19.9388  -32.1041 H   0  0  0  0  0  0  0  0  0  0  0  0
  1  2  1  0
  2  3  1  0
  3  4  1  0
  4  5  1  0
  5  6  1  0
  5  7  1  0
  7  8  2  0
  7  9  1  0
  9 10  1  0
 10 11  1  0
 11 12  1  0
 12 13  2  0
 12 14  1  0
 14 15  1  0
 15 16  1  0
 16 17  1  0
 16 18  2  0
 15 19  2  0
 19 20  1  0
 20 21  2  0
 21 22  1  0
 22 23  2  0
 23 24  1  0
 24 25  1  0
 23 26  1  0
 26 27  2  0
 27 14  1  0
 27 20  1  0
  1 28  1  0
  1 29  1  0
  1 30  1  0
  3 31  1  0
  3 32  1  0
  4 33  1  0
  4 34  1  0
  5 35  1  1
  6 36  1  0
  6 37  1  0
 10 38  1  0
 10 39  1  0
 17 40  1  0
 19 41  1  0
 21 42  1  0
 22 43  1  0
 24 44  1  0
 24 45  1  0
 26 46  1  0
M  CHG  1  17  -1
M  END
>  <UniqueID>  (79) 
79

>  <SMILES>  (79) 
CSCC[C@H](N)C(=O)OCOC(=O)n1c(C([NH-])=O)cc2ccc(CF)cc21

>  <Energy>  (79) 
71.76930341073266

>  <Genealogy>  (79) 
CSCC[C@H](N)C(=O)OCOC(=O)n1c(C([NH-])=O)cc2ccc(CF)cc21 (protonated)
CSCC[C@H](N)C(=O)OCOC(=O)n1c(C([NH-])=O)cc2ccc(CF)cc21 (3D coordinates assigned)
CSCC[C@H](N)C(=O)OCOC(=O)n1c(C([NH-])=O)cc2ccc(CF)cc21 (optimized conformer: 71.76930341073266 kcal/mol)

>  <smiles>  (79) 
CSCC[C@H](N)C(=O)OCOC(=O)n1c(C(N)=O)cc2ccc(CF)cc21

>  <score_type>  (79) 
oracle

>  <origin>  (79) 
adg

>  <m_score__min__energy>  (79) 
-9.9499999999999993

>  <m_primary>  (79) 
energy

$$$$
81:0
     RDKit          3D

 57 59  0  0  0  0  0  0  0  0999 V2000
    0.7390   17.4840  -30.1030 C   0  0  0  0  0  0  0  0  0  0  0  0
    0.7190   16.7590  -28.7640 C   0  0  0  0  0  0  0  0  0  0  0  0
    0.9180   17.6720  -27.6860 O   0  0  0  0  0  0  0  0  0  0  0  0
    1.1900   19.0360  -27.8690 C   0  0  0  0  0  0  0  0  0  0  0  0
    2.3820   19.4460  -27.9410 O   0  0  0  0  0  0  0  0  0  0  0  0
    0.0530   20.0120  -27.9990 C   0  0  1  0  0  0  0  0  0  0  0  0
    0.1630   20.7120  -29.2750 N   0  0  0  0  0  0  0  0  0  0  0  0
   -0.7850   21.6060  -29.8700 C   0  0  0  0  0  0  0  0  0  0  0  0
   -0.4420   22.8000  -30.0880 O   0  0  0  0  0  0  0  0  0  0  0  0
   -2.1300   21.1720  -30.2930 C   0  0  0  0  0  0  0  0  0  0  0  0
   -2.2970   20.0350  -30.8160 O   0  0  0  0  0  0  0  0  0  0  0  0
   -3.2710   22.0270  -30.0880 N   0  0  0  0  0  0  0  0  0  0  0  0
   -3.6820   22.3380  -28.7170 C   0  0  0  0  0  0  0  0  0  0  0  0
   -3.3650   23.8000  -28.3970 C   0  0  0  0  0  0  0  0  0  0  0  0
   -2.2980   24.2470  -29.1980 O   0  0  0  0  0  0  0  0  0  0  0  0
   -3.9820   22.5840  -31.2160 C   0  0  0  0  0  0  0  0  0  0  0  0
   -3.4150   22.6930  -32.3390 O   0  0  0  0  0  0  0  0  0  0  0  0
   -5.3880   22.8430  -31.1260 N   0  0  0  0  0  0  0  0  0  0  0  0
   -5.9760   24.0460  -30.8870 C   0  0  0  0  0  0  0  0  0  0  0  0
   -5.2590   25.3000  -30.5700 C   0  0  0  0  0  0  0  0  0  0  0  0
   -3.8640   25.4010  -30.8490 N   0  0  0  0  0  0  0  0  0  0  0  0
   -5.8720   26.2980  -30.1100 O   0  0  0  0  0  0  0  0  0  0  0  0
   -7.3590   23.9350  -30.9810 C   0  0  0  0  0  0  0  0  0  0  0  0
   -7.5960   22.6080  -31.2690 C   0  0  0  0  0  0  0  0  0  0  0  0
   -8.7930   21.9540  -31.5260 C   0  0  0  0  0  0  0  0  0  0  0  0
   -8.7400   20.5810  -31.8430 C   0  0  0  0  0  0  0  0  0  0  0  0
   -7.4970   19.9070  -31.9300 C   0  0  0  0  0  0  0  0  0  0  0  0
   -7.4330   18.4350  -32.2430 C   0  0  0  0  0  0  0  0  0  0  0  0
   -7.0290   18.2210  -33.5520 F   0  0  0  0  0  0  0  0  0  0  0  0
   -6.5340   17.8030  -31.4050 F   0  0  0  0  0  0  0  0  0  0  0  0
   -8.6840   17.8760  -32.0660 F   0  0  0  0  0  0  0  0  0  0  0  0
   -6.2960   20.6190  -31.7000 C   0  0  0  0  0  0  0  0  0  0  0  0
   -6.3900   21.9720  -31.3500 C   0  0  0  0  0  0  0  0  0  0  0  0
   -1.3660   19.3960  -27.9110 C   0  0  0  0  0  0  0  0  0  0  0  0
   -1.7810   18.5540  -26.7130 C   0  0  0  0  0  0  0  0  0  0  0  0
   -2.2570   19.9970  -26.8360 C   0  0  0  0  0  0  0  0  0  0  0  0
    0.7690   18.5701  -29.9315 H   0  0  0  0  0  0  0  0  0  0  0  0
    1.6290   17.1780  -30.6724 H   0  0  0  0  0  0  0  0  0  0  0  0
   -0.1666   17.2276  -30.6724 H   0  0  0  0  0  0  0  0  0  0  0  0
   -0.2538   16.2610  -28.6389 H   0  0  0  0  0  0  0  0  0  0  0  0
    1.5339   16.0202  -28.7529 H   0  0  0  0  0  0  0  0  0  0  0  0
    0.1531   20.6833  -27.1333 H   0  0  0  0  0  0  0  0  0  0  0  0
   -4.7639   22.1683  -28.6132 H   0  0  0  0  0  0  0  0  0  0  0  0
   -3.1348   21.6877  -28.0187 H   0  0  0  0  0  0  0  0  0  0  0  0
   -4.2534   24.4174  -28.5958 H   0  0  0  0  0  0  0  0  0  0  0  0
   -3.0816   23.8847  -27.3375 H   0  0  0  0  0  0  0  0  0  0  0  0
   -2.4580   23.8980  -30.1100 H   0  0  0  0  0  0  0  0  0  0  0  0
   -3.3070   24.5520  -31.1120 H   0  0  0  0  0  0  0  0  0  0  0  0
   -8.1038   24.7344  -30.8530 H   0  0  0  0  0  0  0  0  0  0  0  0
   -9.7527   22.4899  -31.4837 H   0  0  0  0  0  0  0  0  0  0  0  0
   -9.6732   20.0277  -32.0246 H   0  0  0  0  0  0  0  0  0  0  0  0
   -5.3177   20.1247  -31.7933 H   0  0  0  0  0  0  0  0  0  0  0  0
   -1.4090   19.2152  -28.9952 H   0  0  0  0  0  0  0  0  0  0  0  0
   -2.4939   17.7264  -26.8424 H   0  0  0  0  0  0  0  0  0  0  0  0
   -1.2465   17.9731  -25.9470 H   0  0  0  0  0  0  0  0  0  0  0  0
   -3.3138   20.2109  -27.0537 H   0  0  0  0  0  0  0  0  0  0  0  0
   -2.2085   20.8895  -26.1948 H   0  0  0  0  0  0  0  0  0  0  0  0
  1  2  1  0
  2  3  1  0
  3  4  1  0
  4  5  2  0
  4  6  1  0
  6  7  1  0
  7  8  1  0
  8  9  2  0
  8 10  1  0
 10 11  2  0
 10 12  1  0
 12 13  1  0
 13 14  1  0
 14 15  1  0
 12 16  1  0
 16 17  2  0
 16 18  1  0
 18 19  1  0
 19 20  1  0
 20 21  1  0
 20 22  2  0
 19 23  2  0
 23 24  1  0
 24 25  2  0
 25 26  1  0
 26 27  2  0
 27 28  1  0
 28 29  1  0
 28 30  1  0
 28 31  1  0
 27 32  1  0
 32 33  2  0
  6 34  1  0
 34 35  1  0
 35 36  1  0
 33 18  1  0
 36 34  1  0
 33 24  1  0
  1 37  1  0
  1 38  1  0
  1 39  1  0
  2 40  1  0
  2 41  1  0
  6 42  1  1
 13 43  1  0
 13 44  1  0
 14 45  1  0
 14 46  1  0
 15 47  1  0
 21 48  1  0
 23 49  1  0
 25 50  1  0
 26 51  1  0
 32 52  1  0
 34 53  1  0
 35 54  1  0
 35 55  1  0
 36 56  1  0
 36 57  1  0
M  CHG  2   7  -1  21  -1
M  END
>  <UniqueID>  (80) 
80

>  <SMILES>  (80) 
CCOC(=O)[C@@H]([N-]C(=O)C(=O)N(CCO)C(=O)n1c(C([NH-])=O)cc2ccc(C(F)(F)F)cc21)C1CC1

>  <Energy>  (80) 
369.2000101769057

>  <Genealogy>  (80) 
CCOC(=O)C([N-]C(=O)C(=O)N(CCO)C(=O)n1c(C([NH-])=O)cc2ccc(C(F)(F)F)cc21)C1CC1 (protonated)
CCOC(=O)[C@@H]([N-]C(=O)C(=O)N(CCO)C(=O)n1c(C([NH-])=O)cc2ccc(C(F)(F)F)cc21)C1CC1 (chirality)
CCOC(=O)[C@@H]([N-]C(=O)C(=O)N(CCO)C(=O)n1c(C([NH-])=O)cc2ccc(C(F)(F)F)cc21)C1CC1 (3D coordinates assigned)
CCOC(=O)[C@@H]([N-]C(=O)C(=O)N(CCO)C(=O)n1c(C([NH-])=O)cc2ccc(C(F)(F)F)cc21)C1CC1 (nonaromatic ring conformer: 369.2000101769057 kcal/mol)

>  <smiles>  (80) 
CCOC(=O)C(NC(=O)C(=O)N(CCO)C(=O)n1c(C(N)=O)cc2ccc(C(F)(F)F)cc21)C1CC1

>  <score_type>  (80) 
oracle

>  <origin>  (80) 
adg

>  <m_score__min__energy>  (80) 
-11.710000000000001

>  <m_primary>  (80) 
energy

$$$$
82:0
     RDKit          3D

 40 41  0  0  0  0  0  0  0  0999 V2000
   -9.7280   21.5070  -31.6470 N   0  0  0  0  0  0  0  0  0  0  0  0
   -9.1970   20.4430  -32.4320 C   0  0  0  0  0  0  0  0  0  0  0  0
   -9.9860   19.6840  -33.0550 O   0  0  0  0  0  0  0  0  0  0  0  0
   -7.7380   20.2450  -32.5560 C   0  0  0  0  0  0  0  0  0  0  0  0
   -7.1530   19.0350  -32.9270 C   0  0  0  0  0  0  0  0  0  0  0  0
   -5.8020   19.2930  -33.0070 C   0  0  0  0  0  0  0  0  0  0  0  0
   -4.7430   18.4470  -33.3260 C   0  0  0  0  0  0  0  0  0  0  0  0
   -3.4440   18.9830  -33.3070 C   0  0  0  0  0  0  0  0  0  0  0  0
   -3.2300   20.3450  -32.9800 C   0  0  0  0  0  0  0  0  0  0  0  0
   -1.8300   20.8960  -32.9210 C   0  0  0  0  0  0  0  0  0  0  0  0
   -1.7070   21.9380  -31.8080 C   0  0  0  0  0  0  0  0  0  0  0  0
   -2.4120   21.4650  -30.6090 N   0  0  0  0  0  0  0  0  0  0  0  0
   -1.9910   22.1810  -29.3940 C   0  0  0  0  0  0  0  0  0  0  0  0
   -1.3150   23.5250  -29.7100 C   0  0  0  0  0  0  0  0  0  0  0  0
   -2.3890   24.9130  -29.2250 P   0  0  0  0  0  0  0  0  0  0  0  0
   -3.1440   24.5580  -27.9630 O   0  0  0  0  0  0  0  0  0  0  0  0
   -3.4890   25.2460  -30.4640 O   0  0  0  0  0  0  0  0  0  0  0  0
   -1.4360   26.2800  -28.9390 O   0  0  0  0  0  0  0  0  0  0  0  0
   -4.3280   21.1700  -32.6510 C   0  0  0  0  0  0  0  0  0  0  0  0
   -5.6080   20.6110  -32.6870 C   0  0  0  0  0  0  0  0  0  0  0  0
   -6.7850   21.2070  -32.4010 N   0  0  0  0  0  0  0  0  0  0  0  0
   -6.9550   22.5630  -31.9660 C   0  0  0  0  0  0  0  0  0  0  0  0
   -7.6870   23.3420  -32.6340 O   0  0  0  0  0  0  0  0  0  0  0  0
   -6.2450   23.0680  -30.7810 C   0  0  0  0  0  0  0  0  0  0  0  0
   -5.3960   22.3470  -30.1940 O   0  0  0  0  0  0  0  0  0  0  0  0
   -6.5560   24.6860  -30.1770 Cl  0  0  0  0  0  0  0  0  0  0  0  0
   -9.1470   22.3420  -31.4090 H   0  0  0  0  0  0  0  0  0  0  0  0
   -7.6618   18.0781  -33.1156 H   0  0  0  0  0  0  0  0  0  0  0  0
   -4.9177   17.3922  -33.5848 H   0  0  0  0  0  0  0  0  0  0  0  0
   -2.5853   18.3392  -33.5482 H   0  0  0  0  0  0  0  0  0  0  0  0
   -1.1260   20.0737  -32.7256 H   0  0  0  0  0  0  0  0  0  0  0  0
   -1.5974   21.3761  -33.8830 H   0  0  0  0  0  0  0  0  0  0  0  0
   -0.6447   22.0953  -31.5697 H   0  0  0  0  0  0  0  0  0  0  0  0
   -2.1536   22.8854  -32.1440 H   0  0  0  0  0  0  0  0  0  0  0  0
   -3.4430   21.5900  -30.7450 H   0  0  0  0  0  0  0  0  0  0  0  0
   -2.8772   22.3694  -28.7701 H   0  0  0  0  0  0  0  0  0  0  0  0
   -1.2564   21.5510  -28.8712 H   0  0  0  0  0  0  0  0  0  0  0  0
   -0.3666   23.5914  -29.1567 H   0  0  0  0  0  0  0  0  0  0  0  0
   -1.1291   23.5823  -30.7927 H   0  0  0  0  0  0  0  0  0  0  0  0
   -4.1795   22.2241  -32.3739 H   0  0  0  0  0  0  0  0  0  0  0  0
  1  2  1  0
  2  3  2  0
  2  4  1  0
  4  5  2  0
  5  6  1  0
  6  7  2  0
  7  8  1  0
  8  9  2  0
  9 10  1  0
 10 11  1  0
 11 12  1  0
 12 13  1  0
 13 14  1  0
 14 15  1  0
 15 16  2  0
 15 17  1  0
 15 18  1  0
  9 19  1  0
 19 20  2  0
 20 21  1  0
 21 22  1  0
 22 23  2  0
 22 24  1  0
 24 25  2  0
 24 26  1  0
 21  4  1  0
 20  6  1  0
  1 27  1  0
  5 28  1  0
  7 29  1  0
  8 30  1  0
 10 31  1  0
 10 32  1  0
 11 33  1  0
 11 34  1  0
 12 35  1  0
 13 36  1  0
 13 37  1  0
 14 38  1  0
 14 39  1  0
 19 40  1  0
M  CHG  3   1  -1  17  -1  18  -1
M  END
>  <UniqueID>  (81) 
81

>  <SMILES>  (81) 
[NH-]C(=O)c1cc2ccc(CCNCCP(=O)([O-])[O-])cc2n1C(=O)C(=O)Cl

>  <Energy>  (81) 
71.255992372825

>  <Genealogy>  (81) 
[NH-]C(=O)c1cc2ccc(CCNCCP(=O)([O-])[O-])cc2n1C(=O)C(=O)Cl (protonated)
[NH-]C(=O)c1cc2ccc(CCNCCP(=O)([O-])[O-])cc2n1C(=O)C(=O)Cl (3D coordinates assigned)
[NH-]C(=O)c1cc2ccc(CCNCCP(=O)([O-])[O-])cc2n1C(=O)C(=O)Cl (optimized conformer: 71.255992372825 kcal/mol)

>  <smiles>  (81) 
NC(=O)c1cc2ccc(CCNCCP(=O)(O)O)cc2n1C(=O)C(=O)Cl

>  <score_type>  (81) 
oracle

>  <origin>  (81) 
adg

>  <m_score__min__energy>  (81) 
-12.960000000000001

>  <m_primary>  (81) 
energy

$$$$
83:0
     RDKit          3D

 44 45  0  0  0  0  0  0  0  0999 V2000
   -6.7140   15.5130  -34.2120 C   0  0  0  0  0  0  0  0  0  0  0  0
   -5.9470   16.3910  -33.3090 N   0  0  0  0  0  0  0  0  0  0  0  0
   -5.0000   15.5770  -32.5290 C   0  0  0  0  0  0  0  0  0  0  0  0
   -5.2200   17.4310  -34.0690 C   0  0  0  0  0  0  0  0  0  0  0  0
   -6.1170   18.6520  -34.3210 C   0  0  0  0  0  0  0  0  0  0  0  0
   -7.2230   18.6960  -33.3530 N   0  0  0  0  0  0  0  0  0  0  0  0
   -7.2880   19.9970  -32.7360 C   0  0  0  0  0  0  0  0  0  0  0  0
   -8.5440   20.6140  -32.4980 C   0  0  0  0  0  0  0  0  0  0  0  0
   -8.6200   21.8630  -31.8590 C   0  0  0  0  0  0  0  0  0  0  0  0
   -7.4310   22.4710  -31.4690 C   0  0  0  0  0  0  0  0  0  0  0  0
   -7.2190   23.6600  -30.8100 C   0  0  0  0  0  0  0  0  0  0  0  0
   -5.8370   23.7600  -30.6620 C   0  0  0  0  0  0  0  0  0  0  0  0
   -5.1650   24.9360  -30.0710 C   0  0  0  0  0  0  0  0  0  0  0  0
   -4.2120   25.6690  -30.8390 N   0  0  0  0  0  0  0  0  0  0  0  0
   -5.3950   25.2820  -28.8820 O   0  0  0  0  0  0  0  0  0  0  0  0
   -5.2190   22.6710  -31.2010 N   0  0  0  0  0  0  0  0  0  0  0  0
   -3.8170   22.3590  -31.2010 C   0  0  0  0  0  0  0  0  0  0  0  0
   -3.4140   21.2590  -31.6700 O   0  0  0  0  0  0  0  0  0  0  0  0
   -2.8990   23.2930  -30.7100 O   0  0  0  0  0  0  0  0  0  0  0  0
   -1.9530   22.9820  -29.6940 C   0  0  0  0  0  0  0  0  0  0  0  0
   -1.2330   24.2270  -29.2960 C   0  0  0  0  0  0  0  0  0  0  0  0
   -0.0140   24.1780  -28.9850 O   0  0  0  0  0  0  0  0  0  0  0  0
   -1.8920   25.4490  -29.3150 O   0  0  0  0  0  0  0  0  0  0  0  0
   -6.2080   21.8930  -31.6950 C   0  0  0  0  0  0  0  0  0  0  0  0
   -6.1020   20.6420  -32.3130 C   0  0  0  0  0  0  0  0  0  0  0  0
   -7.3225   14.8164  -33.6166 H   0  0  0  0  0  0  0  0  0  0  0  0
   -7.3722   16.1247  -34.8465 H   0  0  0  0  0  0  0  0  0  0  0  0
   -6.0194   14.9429  -34.8465 H   0  0  0  0  0  0  0  0  0  0  0  0
   -5.1808   15.7324  -31.4552 H   0  0  0  0  0  0  0  0  0  0  0  0
   -5.1413   14.5141  -32.7746 H   0  0  0  0  0  0  0  0  0  0  0  0
   -3.9704   15.8763  -32.7746 H   0  0  0  0  0  0  0  0  0  0  0  0
   -4.3363   17.7456  -33.4945 H   0  0  0  0  0  0  0  0  0  0  0  0
   -4.9172   17.0106  -35.0393 H   0  0  0  0  0  0  0  0  0  0  0  0
   -5.5155   19.5677  -34.2232 H   0  0  0  0  0  0  0  0  0  0  0  0
   -6.5381   18.5770  -35.3344 H   0  0  0  0  0  0  0  0  0  0  0  0
   -7.0790   17.9640  -32.6180 H   0  0  0  0  0  0  0  0  0  0  0  0
   -8.1290   18.4940  -33.8380 H   0  0  0  0  0  0  0  0  0  0  0  0
   -9.4676   20.1090  -32.8172 H   0  0  0  0  0  0  0  0  0  0  0  0
   -9.5907   22.3457  -31.6726 H   0  0  0  0  0  0  0  0  0  0  0  0
   -7.9793   24.3793  -30.4716 H   0  0  0  0  0  0  0  0  0  0  0  0
   -3.2380   25.3140  -30.9640 H   0  0  0  0  0  0  0  0  0  0  0  0
   -2.4751   22.5638  -28.8208 H   0  0  0  0  0  0  0  0  0  0  0  0
   -1.2318   22.2436  -30.0742 H   0  0  0  0  0  0  0  0  0  0  0  0
   -5.1197   20.1712  -32.4663 H   0  0  0  0  0  0  0  0  0  0  0  0
  1  2  1  0
  2  3  1  0
  2  4  1  0
  4  5  1  0
  5  6  1  0
  6  7  1  0
  7  8  2  0
  8  9  1  0
  9 10  2  0
 10 11  1  0
 11 12  2  0
 12 13  1  0
 13 14  1  0
 13 15  2  0
 12 16  1  0
 16 17  1  0
 17 18  2  0
 17 19  1  0
 19 20  1  0
 20 21  1  0
 21 22  2  0
 21 23  1  0
 16 24  1  0
 24 25  2  0
 25  7  1  0
 24 10  1  0
  1 26  1  0
  1 27  1  0
  1 28  1  0
  3 29  1  0
  3 30  1  0
  3 31  1  0
  4 32  1  0
  4 33  1  0
  5 34  1  0
  5 35  1  0
  6 36  1  0
  6 37  1  0
  8 38  1  0
  9 39  1  0
 11 40  1  0
 14 41  1  0
 20 42  1  0
 20 43  1  0
 25 44  1  0
M  CHG  3   6   1  14  -1  23  -1
M  END
>  <UniqueID>  (82) 
82

>  <SMILES>  (82) 
CN(C)CC[NH2+]c1ccc2cc(C([NH-])=O)n(C(=O)OCC(=O)[O-])c2c1

>  <Energy>  (82) 
78.6086641075449

>  <Genealogy>  (82) 
CN(C)CC[NH2+]c1ccc2cc(C([NH-])=O)n(C(=O)OCC(=O)[O-])c2c1 (protonated)
CN(C)CC[NH2+]c1ccc2cc(C([NH-])=O)n(C(=O)OCC(=O)[O-])c2c1 (3D coordinates assigned)
CN(C)CC[NH2+]c1ccc2cc(C([NH-])=O)n(C(=O)OCC(=O)[O-])c2c1 (optimized conformer: 78.6086641075449 kcal/mol)

>  <smiles>  (82) 
CN(C)CCNc1ccc2cc(C(N)=O)n(C(=O)OCC(=O)O)c2c1

>  <score_type>  (82) 
oracle

>  <origin>  (82) 
adg

>  <m_score__min__energy>  (82) 
-11.539999999999999

>  <m_primary>  (82) 
energy

$$$$
84:0
     RDKit          3D

 39 40  0  0  0  0  0  0  0  0999 V2000
   -4.1910   25.5030  -30.6980 N   0  0  0  0  0  0  0  0  0  0  0  0
   -5.5300   25.0550  -30.4780 C   0  0  0  0  0  0  0  0  0  0  0  0
   -6.3210   25.7850  -29.8240 O   0  0  0  0  0  0  0  0  0  0  0  0
   -5.9850   23.7420  -30.9900 C   0  0  0  0  0  0  0  0  0  0  0  0
   -7.3190   23.4060  -31.2210 C   0  0  0  0  0  0  0  0  0  0  0  0
   -7.2870   22.1470  -31.7800 C   0  0  0  0  0  0  0  0  0  0  0  0
   -8.3290   21.3290  -32.2070 C   0  0  0  0  0  0  0  0  0  0  0  0
   -8.0010   20.0700  -32.7400 C   0  0  0  0  0  0  0  0  0  0  0  0
   -6.6490   19.6560  -32.8360 C   0  0  0  0  0  0  0  0  0  0  0  0
   -6.3210   18.3010  -33.3960 C   0  0  0  0  0  0  0  0  0  0  0  0
   -6.0920   18.3990  -34.7560 F   0  0  0  0  0  0  0  0  0  0  0  0
   -7.3760   17.4360  -33.1700 F   0  0  0  0  0  0  0  0  0  0  0  0
   -5.6180   20.5120  -32.3880 C   0  0  0  0  0  0  0  0  0  0  0  0
   -5.9760   21.7630  -31.8720 C   0  0  0  0  0  0  0  0  0  0  0  0
   -5.1660   22.7270  -31.3860 N   0  0  0  0  0  0  0  0  0  0  0  0
   -3.7360   22.6530  -31.2780 C   0  0  0  0  0  0  0  0  0  0  0  0
   -3.1650   23.1180  -30.2550 O   0  0  0  0  0  0  0  0  0  0  0  0
   -2.9270   22.0700  -32.3580 C   0  0  0  0  0  0  0  0  0  0  0  0
   -3.4230   21.9260  -33.5080 O   0  0  0  0  0  0  0  0  0  0  0  0
   -1.5750   21.6780  -32.1010 N   0  0  0  0  0  0  0  0  0  0  0  0
   -1.0690   20.3260  -32.3230 C   0  0  0  0  0  0  0  0  0  0  0  0
   -0.7870   20.0750  -33.8170 C   0  0  1  0  0  0  0  0  0  0  0  0
   -1.9900   20.0850  -34.5440 O   0  0  0  0  0  0  0  0  0  0  0  0
    0.2010   21.1030  -34.3930 C   0  0  0  0  0  0  0  0  0  0  0  0
   -0.4840   22.2720  -34.7450 O   0  0  0  0  0  0  0  0  0  0  0  0
   -3.5230   24.9570  -31.2860 H   0  0  0  0  0  0  0  0  0  0  0  0
   -3.8750   26.4170  -30.3050 H   0  0  0  0  0  0  0  0  0  0  0  0
   -8.2077   24.0165  -31.0032 H   0  0  0  0  0  0  0  0  0  0  0  0
   -9.3761   21.6572  -32.1299 H   0  0  0  0  0  0  0  0  0  0  0  0
   -8.8017   19.3997  -33.0859 H   0  0  0  0  0  0  0  0  0  0  0  0
   -5.4175   17.9163  -32.9003 H   0  0  0  0  0  0  0  0  0  0  0  0
   -4.5635   20.2039  -32.4432 H   0  0  0  0  0  0  0  0  0  0  0  0
   -0.1365   20.1941  -31.7547 H   0  0  0  0  0  0  0  0  0  0  0  0
   -1.8325   19.6088  -31.9873 H   0  0  0  0  0  0  0  0  0  0  0  0
   -0.3186   19.0840  -33.9089 H   0  0  0  0  0  0  0  0  0  0  0  0
   -2.2750   21.0320  -34.6410 H   0  0  0  0  0  0  0  0  0  0  0  0
    0.9638   21.3402  -33.6368 H   0  0  0  0  0  0  0  0  0  0  0  0
    0.6843   20.6816  -35.2868 H   0  0  0  0  0  0  0  0  0  0  0  0
   -1.3850   22.1940  -34.3360 H   0  0  0  0  0  0  0  0  0  0  0  0
  1  2  1  0
  2  3  2  0
  2  4  1  0
  4  5  2  0
  5  6  1  0
  6  7  2  0
  7  8  1  0
  8  9  2  0
  9 10  1  0
 10 11  1  0
 10 12  1  0
  9 13  1  0
 13 14  2  0
 14 15  1  0
 15 16  1  0
 16 17  2  0
 16 18  1  0
 18 19  2  0
 18 20  1  0
 20 21  1  0
 21 22  1  0
 22 23  1  0
 22 24  1  0
 24 25  1  0
 15  4  1  0
 14  6  1  0
  1 26  1  0
  1 27  1  0
  5 28  1  0
  7 29  1  0
  8 30  1  0
 10 31  1  0
 13 32  1  0
 21 33  1  0
 21 34  1  0
 22 35  1  1
 23 36  1  0
 24 37  1  0
 24 38  1  0
 25 39  1  0
M  CHG  1  20  -1
M  END
>  <UniqueID>  (83) 
83

>  <SMILES>  (83) 
NC(=O)c1cc2ccc(C(F)F)cc2n1C(=O)C(=O)[N-]C[C@@H](O)CO

>  <Energy>  (83) 
72.42239032140907

>  <Genealogy>  (83) 
NC(=O)c1cc2ccc(C(F)F)cc2n1C(=O)C(=O)[N-]C[C@@H](O)CO (protonated)
NC(=O)c1cc2ccc(C(F)F)cc2n1C(=O)C(=O)[N-]C[C@@H](O)CO (3D coordinates assigned)
NC(=O)c1cc2ccc(C(F)F)cc2n1C(=O)C(=O)[N-]C[C@@H](O)CO (optimized conformer: 72.42239032140907 kcal/mol)

>  <smiles>  (83) 
NC(=O)c1cc2ccc(C(F)F)cc2n1C(=O)C(=O)NC[C@@H](O)CO

>  <score_type>  (83) 
oracle

>  <origin>  (83) 
adg

>  <m_score__min__energy>  (83) 
-8.7100000000000009

>  <m_primary>  (83) 
energy

$$$$
85:0
     RDKit          3D

 47 48  0  0  0  0  0  0  0  0999 V2000
   -0.8770   19.5900  -30.7940 C   0  0  0  0  0  0  0  0  0  0  0  0
   -1.3900   20.5360  -31.7970 N   0  0  0  0  0  0  0  0  0  0  0  0
   -0.2860   21.1700  -32.5340 C   0  0  0  0  0  0  0  0  0  0  0  0
   -2.2810   19.8600  -32.7060 C   0  0  0  0  0  0  0  0  0  0  0  0
   -2.4760   18.6170  -32.6010 O   0  0  0  0  0  0  0  0  0  0  0  0
   -2.9200   20.5950  -33.7120 O   0  0  0  0  0  0  0  0  0  0  0  0
   -3.7170   21.7510  -33.4680 C   0  0  0  0  0  0  0  0  0  0  0  0
   -3.2780   22.4000  -32.2770 O   0  0  0  0  0  0  0  0  0  0  0  0
   -4.0040   22.4110  -31.0810 C   0  0  0  0  0  0  0  0  0  0  0  0
   -3.4540   22.0840  -29.9950 O   0  0  0  0  0  0  0  0  0  0  0  0
   -5.3970   22.7570  -31.1000 N   0  0  0  0  0  0  0  0  0  0  0  0
   -5.9720   23.9370  -30.7290 C   0  0  0  0  0  0  0  0  0  0  0  0
   -5.2530   25.1690  -30.3370 C   0  0  0  0  0  0  0  0  0  0  0  0
   -3.8580   25.2910  -30.6010 N   0  0  0  0  0  0  0  0  0  0  0  0
   -5.8520   26.1050  -29.7430 O   0  0  0  0  0  0  0  0  0  0  0  0
   -7.3580   23.8640  -30.8490 C   0  0  0  0  0  0  0  0  0  0  0  0
   -7.6170   22.5960  -31.3170 C   0  0  0  0  0  0  0  0  0  0  0  0
   -8.8290   21.9820  -31.6180 C   0  0  0  0  0  0  0  0  0  0  0  0
   -8.8010   20.6530  -32.0700 C   0  0  0  0  0  0  0  0  0  0  0  0
   -7.5710   19.9620  -32.2020 C   0  0  0  0  0  0  0  0  0  0  0  0
   -7.5480   18.5400  -32.7020 C   0  0  0  0  0  0  0  0  0  0  0  0
   -6.1380   18.1060  -33.1320 C   0  0  0  0  0  0  0  0  0  0  0  0
   -5.7920   18.5670  -34.5520 C   0  0  0  0  0  0  0  0  0  0  0  0
   -4.4520   18.2730  -34.8420 O   0  0  0  0  0  0  0  0  0  0  0  0
   -6.3590   20.6180  -31.8910 C   0  0  0  0  0  0  0  0  0  0  0  0
   -6.4170   21.9490  -31.4610 C   0  0  0  0  0  0  0  0  0  0  0  0
   -1.0862   19.9758  -29.7853 H   0  0  0  0  0  0  0  0  0  0  0  0
   -1.3701   18.6153  -30.9233 H   0  0  0  0  0  0  0  0  0  0  0  0
    0.2089   19.4716  -30.9233 H   0  0  0  0  0  0  0  0  0  0  0  0
   -1.9230   21.2860  -31.2970 H   0  0  0  0  0  0  0  0  0  0  0  0
    0.4398   21.5868  -31.8202 H   0  0  0  0  0  0  0  0  0  0  0  0
    0.2112   20.4198  -33.1665 H   0  0  0  0  0  0  0  0  0  0  0  0
   -0.6834   21.9775  -33.1665 H   0  0  0  0  0  0  0  0  0  0  0  0
   -3.6236   22.4443  -34.3169 H   0  0  0  0  0  0  0  0  0  0  0  0
   -4.7678   21.4482  -33.3493 H   0  0  0  0  0  0  0  0  0  0  0  0
   -3.4920   26.0480  -31.2190 H   0  0  0  0  0  0  0  0  0  0  0  0
   -8.0898   24.6523  -30.6187 H   0  0  0  0  0  0  0  0  0  0  0  0
   -9.7807   22.5219  -31.5052 H   0  0  0  0  0  0  0  0  0  0  0  0
   -9.7423   20.1437  -32.3239 H   0  0  0  0  0  0  0  0  0  0  0  0
   -7.8950   17.8747  -31.8977 H   0  0  0  0  0  0  0  0  0  0  0  0
   -8.2066   18.4772  -33.5808 H   0  0  0  0  0  0  0  0  0  0  0  0
   -5.4069   18.5377  -32.4326 H   0  0  0  0  0  0  0  0  0  0  0  0
   -6.1074   17.0065  -33.1197 H   0  0  0  0  0  0  0  0  0  0  0  0
   -6.4422   18.0477  -35.2715 H   0  0  0  0  0  0  0  0  0  0  0  0
   -5.9456   19.6538  -34.6247 H   0  0  0  0  0  0  0  0  0  0  0  0
   -3.9050   18.7420  -34.1600 H   0  0  0  0  0  0  0  0  0  0  0  0
   -5.3950   20.0965  -31.9843 H   0  0  0  0  0  0  0  0  0  0  0  0
  1  2  1  0
  2  3  1  0
  2  4  1  0
  4  5  2  0
  4  6  1  0
  6  7  1  0
  7  8  1  0
  8  9  1  0
  9 10  2  0
  9 11  1  0
 11 12  1  0
 12 13  1  0
 13 14  1  0
 13 15  2  0
 12 16  2  0
 16 17  1  0
 17 18  2  0
 18 19  1  0
 19 20  2  0
 20 21  1  0
 21 22  1  0
 22 23  1  0
 23 24  1  0
 20 25  1  0
 25 26  2  0
 26 11  1  0
 26 17  1  0
  1 27  1  0
  1 28  1  0
  1 29  1  0
  2 30  1  0
  3 31  1  0
  3 32  1  0
  3 33  1  0
  7 34  1  0
  7 35  1  0
 14 36  1  0
 16 37  1  0
 18 38  1  0
 19 39  1  0
 21 40  1  0
 21 41  1  0
 22 42  1  0
 22 43  1  0
 23 44  1  0
 23 45  1  0
 24 46  1  0
 25 47  1  0
M  CHG  2   2   1  14  -1
M  END
>  <UniqueID>  (84) 
84

>  <SMILES>  (84) 
C[NH+](C)C(=O)OCOC(=O)n1c(C([NH-])=O)cc2ccc(CCCO)cc21

>  <Energy>  (84) 
79.40816455538794

>  <Genealogy>  (84) 
C[NH+](C)C(=O)OCOC(=O)n1c(C([NH-])=O)cc2ccc(CCCO)cc21 (protonated)
C[NH+](C)C(=O)OCOC(=O)n1c(C([NH-])=O)cc2ccc(CCCO)cc21 (3D coordinates assigned)
C[NH+](C)C(=O)OCOC(=O)n1c(C([NH-])=O)cc2ccc(CCCO)cc21 (optimized conformer: 79.40816455538794 kcal/mol)

>  <smiles>  (84) 
CN(C)C(=O)OCOC(=O)n1c(C(N)=O)cc2ccc(CCCO)cc21

>  <score_type>  (84) 
oracle

>  <origin>  (84) 
adg

>  <m_score__min__energy>  (84) 
-9.6600000000000001

>  <m_primary>  (84) 
energy

$$$$
86:0
     RDKit          3D

 37 38  0  0  0  0  0  0  0  0999 V2000
   -5.5340   20.2750  -33.6450 C   0  0  0  0  0  0  0  0  0  0  0  0
   -5.0760   19.7670  -32.3520 N   0  0  0  0  0  0  0  0  0  0  0  0
   -5.8990   18.7990  -31.6090 C   0  0  0  0  0  0  0  0  0  0  0  0
   -7.3200   18.6960  -32.1920 C   0  0  2  0  0  0  0  0  0  0  0  0
   -7.2490   18.2780  -33.5310 O   0  0  0  0  0  0  0  0  0  0  0  0
   -8.0860   20.0240  -32.0920 C   0  0  0  0  0  0  0  0  0  0  0  0
   -9.0090   20.1280  -33.1410 O   0  0  0  0  0  0  0  0  0  0  0  0
   -3.9390   20.3820  -31.7280 C   0  0  0  0  0  0  0  0  0  0  0  0
   -2.7020   19.6950  -31.6640 C   0  0  0  0  0  0  0  0  0  0  0  0
   -1.5850   20.2910  -31.0530 C   0  0  0  0  0  0  0  0  0  0  0  0
   -1.7350   21.5690  -30.5230 C   0  0  0  0  0  0  0  0  0  0  0  0
   -0.8260   22.3670  -29.8670 C   0  0  0  0  0  0  0  0  0  0  0  0
   -1.5160   23.5360  -29.5600 C   0  0  0  0  0  0  0  0  0  0  0  0
   -0.8740   24.7150  -28.9430 C   0  0  0  0  0  0  0  0  0  0  0  0
   -1.5260   25.9820  -28.9380 N   0  0  0  0  0  0  0  0  0  0  0  0
    0.2880   24.6150  -28.4650 O   0  0  0  0  0  0  0  0  0  0  0  0
   -2.8040   23.4630  -30.0000 N   0  0  0  0  0  0  0  0  0  0  0  0
   -3.8480   24.4350  -29.8180 C   0  0  0  0  0  0  0  0  0  0  0  0
   -4.7070   24.2850  -28.9080 O   0  0  0  0  0  0  0  0  0  0  0  0
   -3.9080   25.5620  -30.6290 O   0  0  0  0  0  0  0  0  0  0  0  0
   -2.9230   22.2520  -30.5890 C   0  0  0  0  0  0  0  0  0  0  0  0
   -4.0560   21.6740  -31.1730 C   0  0  0  0  0  0  0  0  0  0  0  0
   -6.2627   21.0832  -33.4842 H   0  0  0  0  0  0  0  0  0  0  0  0
   -4.6748   20.6633  -34.2116 H   0  0  0  0  0  0  0  0  0  0  0  0
   -6.0089   19.4605  -34.2116 H   0  0  0  0  0  0  0  0  0  0  0  0
   -5.4199   17.8101  -31.6600 H   0  0  0  0  0  0  0  0  0  0  0  0
   -5.9792   19.1442  -30.5676 H   0  0  0  0  0  0  0  0  0  0  0  0
   -7.8749   17.9558  -31.5968 H   0  0  0  0  0  0  0  0  0  0  0  0
   -7.6120   19.0190  -34.0840 H   0  0  0  0  0  0  0  0  0  0  0  0
   -8.6208   20.0640  -31.1316 H   0  0  0  0  0  0  0  0  0  0  0  0
   -7.3712   20.8576  -32.1576 H   0  0  0  0  0  0  0  0  0  0  0  0
   -9.0870   19.2190  -33.5320 H   0  0  0  0  0  0  0  0  0  0  0  0
   -2.6147   18.6871  -32.0958 H   0  0  0  0  0  0  0  0  0  0  0  0
   -0.6216   19.7632  -30.9956 H   0  0  0  0  0  0  0  0  0  0  0  0
    0.2230   22.1311  -29.6346 H   0  0  0  0  0  0  0  0  0  0  0  0
   -2.5680   26.0470  -28.9730 H   0  0  0  0  0  0  0  0  0  0  0  0
   -5.0142   22.2137  -31.1987 H   0  0  0  0  0  0  0  0  0  0  0  0
  1  2  1  0
  2  3  1  0
  3  4  1  0
  4  5  1  0
  4  6  1  0
  6  7  1  0
  2  8  1  0
  8  9  2  0
  9 10  1  0
 10 11  2  0
 11 12  1  0
 12 13  2  0
 13 14  1  0
 14 15  1  0
 14 16  2  0
 13 17  1  0
 17 18  1  0
 18 19  2  0
 18 20  1  0
 17 21  1  0
 21 22  2  0
 22  8  1  0
 21 11  1  0
  1 23  1  0
  1 24  1  0
  1 25  1  0
  3 26  1  0
  3 27  1  0
  4 28  1  1
  5 29  1  0
  6 30  1  0
  6 31  1  0
  7 32  1  0
  9 33  1  0
 10 34  1  0
 12 35  1  0
 15 36  1  0
 22 37  1  0
M  CHG  2  15  -1  20  -1
M  END
>  <UniqueID>  (85) 
85

>  <SMILES>  (85) 
CN(C[C@H](O)CO)c1ccc2cc(C([NH-])=O)n(C(=O)[O-])c2c1

>  <Energy>  (85) 
76.86675233557611

>  <Genealogy>  (85) 
CN(CC(O)CO)c1ccc2cc(C([NH-])=O)n(C(=O)[O-])c2c1 (protonated)
CN(C[C@H](O)CO)c1ccc2cc(C([NH-])=O)n(C(=O)[O-])c2c1 (chirality)
CN(C[C@H](O)CO)c1ccc2cc(C([NH-])=O)n(C(=O)[O-])c2c1 (3D coordinates assigned)
CN(C[C@H](O)CO)c1ccc2cc(C([NH-])=O)n(C(=O)[O-])c2c1 (optimized conformer: 76.86675233557611 kcal/mol)

>  <smiles>  (85) 
CN(CC(O)CO)c1ccc2cc(C(N)=O)n(C(=O)O)c2c1

>  <score_type>  (85) 
oracle

>  <origin>  (85) 
adg

>  <m_score__min__energy>  (85) 
-10.75

>  <m_primary>  (85) 
energy

$$$$
87:0
     RDKit          3D

 38 39  0  0  0  0  0  0  0  0999 V2000
   -4.0670   13.0900  -34.6420 H   0  0  0  0  0  0  0  0  0  0  0  0
   -4.1990   13.6820  -35.4330 O   0  0  0  0  0  0  0  0  0  0  0  0
   -3.4150   14.8200  -35.2110 C   0  0  0  0  0  0  0  0  0  0  0  0
   -3.0271   15.1890  -36.1719 H   0  0  0  0  0  0  0  0  0  0  0  0
   -2.5771   14.5592  -34.5478 H   0  0  0  0  0  0  0  0  0  0  0  0
   -4.2250   15.8680  -34.5780 C   0  0  0  0  0  0  0  0  0  0  0  0
   -4.8960   16.7330  -34.0700 C   0  0  0  0  0  0  0  0  0  0  0  0
   -5.6960   17.7770  -33.4860 C   0  0  0  0  0  0  0  0  0  0  0  0
   -7.0310   17.5170  -33.1010 C   0  0  0  0  0  0  0  0  0  0  0  0
   -7.4443   16.5039  -33.2140 H   0  0  0  0  0  0  0  0  0  0  0  0
   -7.8340   18.5430  -32.5750 C   0  0  0  0  0  0  0  0  0  0  0  0
   -8.8768   18.3527  -32.2812 H   0  0  0  0  0  0  0  0  0  0  0  0
   -7.2680   19.8100  -32.4370 C   0  0  0  0  0  0  0  0  0  0  0  0
   -7.8350   20.9870  -32.0070 C   0  0  0  0  0  0  0  0  0  0  0  0
   -8.8617   21.1403  -31.6432 H   0  0  0  0  0  0  0  0  0  0  0  0
   -6.8310   21.9420  -32.1310 C   0  0  0  0  0  0  0  0  0  0  0  0
   -7.0210   23.3600  -31.7770 C   0  0  0  0  0  0  0  0  0  0  0  0
   -8.1890   23.8100  -31.6320 O   0  0  0  0  0  0  0  0  0  0  0  0
   -5.9060   24.2450  -31.6940 N   0  0  0  0  0  0  0  0  0  0  0  0
   -4.9470   23.9180  -31.9420 H   0  0  0  0  0  0  0  0  0  0  0  0
   -6.0470   25.2520  -31.4600 H   0  0  0  0  0  0  0  0  0  0  0  0
   -5.6760   21.3810  -32.5900 N   0  0  0  0  0  0  0  0  0  0  0  0
   -4.3820   22.0000  -32.7170 C   0  0  0  0  0  0  0  0  0  0  0  0
   -3.7270   21.9000  -33.7900 O   0  0  0  0  0  0  0  0  0  0  0  0
   -3.8580   22.7380  -31.6500 O   0  0  0  0  0  0  0  0  0  0  0  0
   -3.8420   22.2600  -30.3100 C   0  0  0  0  0  0  0  0  0  0  0  0
   -4.7544   21.6768  -30.1168 H   0  0  0  0  0  0  0  0  0  0  0  0
   -2.9611   21.6191  -30.1574 H   0  0  0  0  0  0  0  0  0  0  0  0
   -3.7840   23.4320  -29.3650 C   0  0  0  0  0  0  0  0  0  0  0  0
   -3.3000   24.7500  -29.8500 C   0  0  0  0  0  0  0  0  0  0  0  0
   -3.9340   25.3950  -30.7270 O   0  0  0  0  0  0  0  0  0  0  0  0
   -2.1310   25.2970  -29.3360 O   0  0  0  0  0  0  0  0  0  0  0  0
   -4.2130   23.2580  -28.1040 C   0  0  0  0  0  0  0  0  0  0  0  0
   -4.5534   22.2605  -27.7891 H   0  0  0  0  0  0  0  0  0  0  0  0
   -4.2390   24.2760  -27.2070 F   0  0  0  0  0  0  0  0  0  0  0  0
   -5.9660   20.0740  -32.7850 C   0  0  0  0  0  0  0  0  0  0  0  0
   -5.1510   19.0680  -33.3270 C   0  0  0  0  0  0  0  0  0  0  0  0
   -4.1126   19.2813  -33.6206 H   0  0  0  0  0  0  0  0  0  0  0  0
  1  2  1  0
  2  3  1  0
  3  4  1  0
  3  5  1  0
  3  6  1  0
  6  7  3  0
  7  8  1  0
  8  9  2  0
  9 10  1  0
  9 11  1  0
 11 12  1  0
 11 13  2  0
 13 14  1  0
 14 15  1  0
 14 16  2  0
 16 17  1  0
 17 18  2  0
 17 19  1  0
 19 20  1  0
 19 21  1  0
 16 22  1  0
 22 23  1  0
 23 24  2  0
 23 25  1  0
 25 26  1  0
 26 27  1  0
 26 28  1  0
 26 29  1  0
 29 30  1  0
 30 31  2  0
 30 32  1  0
 29 33  2  0
 33 34  1  0
 33 35  1  0
 22 36  1  0
 36 37  2  0
 37 38  1  0
 37  8  1  0
 36 13  1  0
M  CHG  1  32  -1
M  END
>  <UniqueID>  (86) 
86

>  <SMILES>  (86) 
NC(=O)c1cc2ccc(C#CCO)cc2n1C(=O)OC/C(=C/F)C(=O)[O-]

>  <Energy>  (86) 
73.79883531699498

>  <Genealogy>  (86) 
NC(=O)c1cc2ccc(C#CCO)cc2n1C(=O)OC/C(=C/F)C(=O)[O-] (protonated)
NC(=O)c1cc2ccc(C#CCO)cc2n1C(=O)OC/C(=C/F)C(=O)[O-] (cis-trans isomerization)
NC(=O)c1cc2ccc(C#CCO)cc2n1C(=O)OC/C(=C/F)C(=O)[O-] (3D coordinates assigned)
NC(=O)c1cc2ccc(C#CCO)cc2n1C(=O)OC/C(=C/F)C(=O)[O-] (optimized conformer: 73.79883531699498 kcal/mol)

>  <smiles>  (86) 
NC(=O)c1cc2ccc(C#CCO)cc2n1C(=O)OC/C(=C/F)C(=O)O

>  <score_type>  (86) 
oracle

>  <origin>  (86) 
adg

>  <m_score__min__energy>  (86) 
-11.119999999999999

>  <m_primary>  (86) 
energy

$$$$
88:0
     RDKit          3D

 52 54  0  0  0  0  0  0  0  0999 V2000
   -4.8110   14.6500  -33.5610 C   0  0  0  0  0  0  0  0  0  0  0  0
   -5.5460   15.6790  -34.3140 N   0  0  0  0  0  0  0  0  0  0  0  0
   -6.8660   15.9570  -33.6970 C   0  0  0  0  0  0  0  0  0  0  0  0
   -6.8270   17.1400  -32.7210 C   0  0  0  0  0  0  0  0  0  0  0  0
   -6.2920   18.3380  -33.3830 N   0  0  0  0  0  0  0  0  0  0  0  0
   -6.5730   19.6510  -32.8490 C   0  0  0  0  0  0  0  0  0  0  0  0
   -7.9040   20.1440  -32.8050 C   0  0  0  0  0  0  0  0  0  0  0  0
   -8.1870   21.4170  -32.2770 C   0  0  0  0  0  0  0  0  0  0  0  0
   -7.1240   22.1780  -31.8020 C   0  0  0  0  0  0  0  0  0  0  0  0
   -7.1040   23.4400  -31.2470 C   0  0  0  0  0  0  0  0  0  0  0  0
   -5.7610   23.6990  -30.9630 C   0  0  0  0  0  0  0  0  0  0  0  0
   -5.2410   24.9450  -30.3500 C   0  0  0  0  0  0  0  0  0  0  0  0
   -3.8360   25.1720  -30.2120 N   0  0  0  0  0  0  0  0  0  0  0  0
   -6.0430   25.8310  -29.9470 O   0  0  0  0  0  0  0  0  0  0  0  0
   -4.9950   22.6340  -31.3250 N   0  0  0  0  0  0  0  0  0  0  0  0
   -3.5700   22.5080  -31.2560 C   0  0  0  0  0  0  0  0  0  0  0  0
   -2.8830   22.7060  -32.2910 O   0  0  0  0  0  0  0  0  0  0  0  0
   -2.9300   22.1410  -29.9790 C   0  0  0  0  0  0  0  0  0  0  0  0
   -2.3730   21.0150  -29.8830 O   0  0  0  0  0  0  0  0  0  0  0  0
   -2.9420   22.9970  -28.8260 N   0  0  0  0  0  0  0  0  0  0  0  0
   -1.7780   23.5700  -28.1520 C   0  0  1  0  0  0  0  0  0  0  0  0
   -0.4870   22.9830  -28.7470 C   0  0  0  0  0  0  0  0  0  0  0  0
    0.7440   23.3960  -27.9900 C   0  0  0  0  0  0  0  0  0  0  0  0
    1.2950   24.5050  -28.2290 O   0  0  0  0  0  0  0  0  0  0  0  0
    1.3000   22.5400  -27.0470 O   0  0  0  0  0  0  0  0  0  0  0  0
   -1.7850   25.0710  -28.2520 C   0  0  0  0  0  0  0  0  0  0  0  0
   -1.5480   25.6450  -29.3500 O   0  0  0  0  0  0  0  0  0  0  0  0
   -2.0050   25.8360  -27.1140 O   0  0  0  0  0  0  0  0  0  0  0  0
   -5.8370   21.7170  -31.8370 C   0  0  0  0  0  0  0  0  0  0  0  0
   -5.5220   20.4590  -32.3530 C   0  0  0  0  0  0  0  0  0  0  0  0
   -5.5010   18.1780  -34.6090 C   0  0  0  0  0  0  0  0  0  0  0  0
   -4.6930   16.8780  -34.5300 C   0  0  0  0  0  0  0  0  0  0  0  0
   -4.9363   14.8254  -32.4823 H   0  0  0  0  0  0  0  0  0  0  0  0
   -5.2045   13.6557  -33.8189 H   0  0  0  0  0  0  0  0  0  0  0  0
   -3.7428   14.6998  -33.8189 H   0  0  0  0  0  0  0  0  0  0  0  0
   -7.5870   16.1839  -34.4961 H   0  0  0  0  0  0  0  0  0  0  0  0
   -7.1595   15.0644  -33.1250 H   0  0  0  0  0  0  0  0  0  0  0  0
   -7.8465   17.3486  -32.3645 H   0  0  0  0  0  0  0  0  0  0  0  0
   -6.1741   16.8806  -31.8746 H   0  0  0  0  0  0  0  0  0  0  0  0
   -8.7256   19.5216  -33.1893 H   0  0  0  0  0  0  0  0  0  0  0  0
   -9.2179   21.7990  -32.2409 H   0  0  0  0  0  0  0  0  0  0  0  0
   -7.9634   24.1024  -31.0662 H   0  0  0  0  0  0  0  0  0  0  0  0
   -3.1280   24.4840  -30.5470 H   0  0  0  0  0  0  0  0  0  0  0  0
   -3.4940   26.0510  -29.7610 H   0  0  0  0  0  0  0  0  0  0  0  0
   -1.8231   23.3083  -27.0845 H   0  0  0  0  0  0  0  0  0  0  0  0
   -0.5590   21.8855  -28.7288 H   0  0  0  0  0  0  0  0  0  0  0  0
   -0.3899   23.3688  -29.7725 H   0  0  0  0  0  0  0  0  0  0  0  0
   -4.4812   20.1037  -32.3737 H   0  0  0  0  0  0  0  0  0  0  0  0
   -6.1749   18.1386  -35.4775 H   0  0  0  0  0  0  0  0  0  0  0  0
   -4.8142   19.0305  -34.7160 H   0  0  0  0  0  0  0  0  0  0  0  0
   -4.1402   16.7504  -35.4724 H   0  0  0  0  0  0  0  0  0  0  0  0
   -4.0163   16.9617  -33.6668 H   0  0  0  0  0  0  0  0  0  0  0  0
  1  2  1  0
  2  3  1  0
  3  4  1  0
  4  5  1  0
  5  6  1  0
  6  7  2  0
  7  8  1  0
  8  9  2  0
  9 10  1  0
 10 11  2  0
 11 12  1  0
 12 13  1  0
 12 14  2  0
 11 15  1  0
 15 16  1  0
 16 17  2  0
 16 18  1  0
 18 19  2  0
 18 20  1  0
 20 21  1  0
 21 22  1  0
 22 23  1  0
 23 24  2  0
 23 25  1  0
 21 26  1  0
 26 27  2  0
 26 28  1  0
 15 29  1  0
 29 30  2  0
  5 31  1  0
 31 32  1  0
 32  2  1  0
 30  6  1  0
 29  9  1  0
  1 33  1  0
  1 34  1  0
  1 35  1  0
  3 36  1  0
  3 37  1  0
  4 38  1  0
  4 39  1  0
  7 40  1  0
  8 41  1  0
 10 42  1  0
 13 43  1  0
 13 44  1  0
 21 45  1  1
 22 46  1  0
 22 47  1  0
 30 48  1  0
 31 49  1  0
 31 50  1  0
 32 51  1  0
 32 52  1  0
M  CHG  3  20  -1  25  -1  28  -1
M  END
>  <UniqueID>  (87) 
87

>  <SMILES>  (87) 
CN1CCN(c2ccc3cc(C(N)=O)n(C(=O)C(=O)[N-][C@@H](CC(=O)[O-])C(=O)[O-])c3c2)CC1

>  <Energy>  (87) 
102.88813421880154

>  <Genealogy>  (87) 
CN1CCN(c2ccc3cc(C(N)=O)n(C(=O)C(=O)[N-]C(CC(=O)[O-])C(=O)[O-])c3c2)CC1 (protonated)
CN1CCN(c2ccc3cc(C(N)=O)n(C(=O)C(=O)[N-][C@@H](CC(=O)[O-])C(=O)[O-])c3c2)CC1 (chirality)
CN1CCN(c2ccc3cc(C(N)=O)n(C(=O)C(=O)[N-][C@@H](CC(=O)[O-])C(=O)[O-])c3c2)CC1 (3D coordinates assigned)
CN1CCN(c2ccc3cc(C(N)=O)n(C(=O)C(=O)[N-][C@@H](CC(=O)[O-])C(=O)[O-])c3c2)CC1 (nonaromatic ring conformer: 102.88813421880154 kcal/mol)

>  <smiles>  (87) 
CN1CCN(c2ccc3cc(C(N)=O)n(C(=O)C(=O)NC(CC(=O)O)C(=O)O)c3c2)CC1

>  <score_type>  (87) 
oracle

>  <origin>  (87) 
adg

>  <m_score__min__energy>  (87) 
-12.82

>  <m_primary>  (87) 
energy

$$$$
89:0
     RDKit          3D

 51 52  0  0  0  0  0  0  0  0999 V2000
   -2.9340   19.4260  -33.5610 C   0  0  0  0  0  0  0  0  0  0  0  0
   -3.9670   18.6170  -33.0120 O   0  0  0  0  0  0  0  0  0  0  0  0
   -5.1590   18.3490  -33.6950 C   0  0  0  0  0  0  0  0  0  0  0  0
   -5.1930   18.4040  -34.9550 O   0  0  0  0  0  0  0  0  0  0  0  0
   -6.3930   17.9300  -32.9290 C   0  0  0  0  0  0  0  0  0  0  0  0
   -6.0940   17.7380  -31.4280 C   0  0  0  0  0  0  0  0  0  0  0  0
   -6.8560   16.5770  -33.5050 C   0  0  0  0  0  0  0  0  0  0  0  0
   -7.4720   18.9270  -33.1020 N   0  0  0  0  0  0  0  0  0  0  0  0
   -7.5320   20.2440  -32.5070 C   0  0  0  0  0  0  0  0  0  0  0  0
   -8.7540   20.8310  -32.0720 C   0  0  0  0  0  0  0  0  0  0  0  0
   -8.7700   22.1020  -31.4760 C   0  0  0  0  0  0  0  0  0  0  0  0
   -7.5600   22.7690  -31.3240 C   0  0  0  0  0  0  0  0  0  0  0  0
   -7.2890   23.9910  -30.7530 C   0  0  0  0  0  0  0  0  0  0  0  0
   -5.9090   24.1480  -30.8560 C   0  0  0  0  0  0  0  0  0  0  0  0
   -5.1960   25.3720  -30.4340 C   0  0  0  0  0  0  0  0  0  0  0  0
   -3.8610   25.6260  -30.8600 N   0  0  0  0  0  0  0  0  0  0  0  0
   -5.7920   26.2270  -29.7260 O   0  0  0  0  0  0  0  0  0  0  0  0
   -5.3480   23.0640  -31.4620 N   0  0  0  0  0  0  0  0  0  0  0  0
   -3.9510   22.7950  -31.6610 C   0  0  0  0  0  0  0  0  0  0  0  0
   -3.5690   22.2310  -32.7200 O   0  0  0  0  0  0  0  0  0  0  0  0
   -3.0330   23.1470  -30.6590 O   0  0  0  0  0  0  0  0  0  0  0  0
   -2.8480   22.4800  -29.4030 C   0  0  0  0  0  0  0  0  0  0  0  0
   -1.4330   22.8220  -28.9120 C   0  0  0  0  0  0  0  0  0  0  0  0
   -3.8700   22.9840  -28.3660 C   0  0  0  0  0  0  0  0  0  0  0  0
   -2.9580   20.9520  -29.5750 C   0  0  0  0  0  0  0  0  0  0  0  0
   -6.3740   22.2290  -31.7430 C   0  0  0  0  0  0  0  0  0  0  0  0
   -6.3250   20.9560  -32.3220 C   0  0  0  0  0  0  0  0  0  0  0  0
   -2.3525   19.8814  -32.7458 H   0  0  0  0  0  0  0  0  0  0  0  0
   -2.2715   18.8040  -34.1809 H   0  0  0  0  0  0  0  0  0  0  0  0
   -3.3790   20.2183  -34.1809 H   0  0  0  0  0  0  0  0  0  0  0  0
   -6.8721   18.2377  -30.8323 H   0  0  0  0  0  0  0  0  0  0  0  0
   -6.0836   16.6640  -31.1906 H   0  0  0  0  0  0  0  0  0  0  0  0
   -5.1130   18.1755  -31.1906 H   0  0  0  0  0  0  0  0  0  0  0  0
   -7.0916   15.8886  -32.6800 H   0  0  0  0  0  0  0  0  0  0  0  0
   -7.7532   16.7293  -34.1230 H   0  0  0  0  0  0  0  0  0  0  0  0
   -6.0536   16.1477  -34.1230 H   0  0  0  0  0  0  0  0  0  0  0  0
   -8.3160   18.6300  -33.6440 H   0  0  0  0  0  0  0  0  0  0  0  0
   -9.6977   20.2816  -32.2046 H   0  0  0  0  0  0  0  0  0  0  0  0
   -9.7131   22.5570  -31.1390 H   0  0  0  0  0  0  0  0  0  0  0  0
   -8.0091   24.6944  -30.3095 H   0  0  0  0  0  0  0  0  0  0  0  0
   -3.0460   25.2870  -30.3040 H   0  0  0  0  0  0  0  0  0  0  0  0
   -1.4175   22.8258  -27.8121 H   0  0  0  0  0  0  0  0  0  0  0  0
   -0.7232   22.0696  -29.2862 H   0  0  0  0  0  0  0  0  0  0  0  0
   -1.1452   23.8156  -29.2862 H   0  0  0  0  0  0  0  0  0  0  0  0
   -3.4872   22.7952  -27.3522 H   0  0  0  0  0  0  0  0  0  0  0  0
   -4.0290   24.0638  -28.5027 H   0  0  0  0  0  0  0  0  0  0  0  0
   -4.8235   22.4528  -28.5027 H   0  0  0  0  0  0  0  0  0  0  0  0
   -2.9925   20.4732  -28.5853 H   0  0  0  0  0  0  0  0  0  0  0  0
   -3.8758   20.7108  -30.1312 H   0  0  0  0  0  0  0  0  0  0  0  0
   -2.0842   20.5818  -30.1312 H   0  0  0  0  0  0  0  0  0  0  0  0
   -5.3639   20.5170  -32.6279 H   0  0  0  0  0  0  0  0  0  0  0  0
  1  2  1  0
  2  3  1  0
  3  4  2  0
  3  5  1  0
  5  6  1  0
  5  7  1  0
  5  8  1  0
  8  9  1  0
  9 10  2  0
 10 11  1  0
 11 12  2  0
 12 13  1  0
 13 14  2  0
 14 15  1  0
 15 16  1  0
 15 17  2  0
 14 18  1  0
 18 19  1  0
 19 20  2  0
 19 21  1  0
 21 22  1  0
 22 23  1  0
 22 24  1  0
 22 25  1  0
 18 26  1  0
 26 27  2  0
 27  9  1  0
 26 12  1  0
  1 28  1  0
  1 29  1  0
  1 30  1  0
  6 31  1  0
  6 32  1  0
  6 33  1  0
  7 34  1  0
  7 35  1  0
  7 36  1  0
  8 37  1  0
 10 38  1  0
 11 39  1  0
 13 40  1  0
 16 41  1  0
 23 42  1  0
 23 43  1  0
 23 44  1  0
 24 45  1  0
 24 46  1  0
 24 47  1  0
 25 48  1  0
 25 49  1  0
 25 50  1  0
 27 51  1  0
M  CHG  1  16  -1
M  END
>  <UniqueID>  (88) 
88

>  <SMILES>  (88) 
COC(=O)C(C)(C)Nc1ccc2cc(C([NH-])=O)n(C(=O)OC(C)(C)C)c2c1

>  <Energy>  (88) 
83.2535439903355

>  <Genealogy>  (88) 
COC(=O)C(C)(C)Nc1ccc2cc(C([NH-])=O)n(C(=O)OC(C)(C)C)c2c1 (protonated)
COC(=O)C(C)(C)Nc1ccc2cc(C([NH-])=O)n(C(=O)OC(C)(C)C)c2c1 (3D coordinates assigned)
COC(=O)C(C)(C)Nc1ccc2cc(C([NH-])=O)n(C(=O)OC(C)(C)C)c2c1 (optimized conformer: 83.2535439903355 kcal/mol)

>  <smiles>  (88) 
COC(=O)C(C)(C)Nc1ccc2cc(C(N)=O)n(C(=O)OC(C)(C)C)c2c1

>  <score_type>  (88) 
oracle

>  <origin>  (88) 
adg

>  <m_score__min__energy>  (88) 
-10.76

>  <m_primary>  (88) 
energy

$$$$
90:0
     RDKit          3D

 48 49  0  0  0  0  0  0  0  0999 V2000
   -4.1590   24.1600  -27.4550 C   0  0  0  0  0  0  0  0  0  0  0  0
   -2.7200   23.8680  -27.4780 N   0  0  0  0  0  0  0  0  0  0  0  0
   -1.7680   24.9530  -27.1980 C   0  0  0  0  0  0  0  0  0  0  0  0
   -0.9010   25.2000  -28.3920 C   0  0  0  0  0  0  0  0  0  0  0  0
   -1.2440   26.0450  -29.2590 O   0  0  0  0  0  0  0  0  0  0  0  0
    0.2910   24.5030  -28.5430 O   0  0  0  0  0  0  0  0  0  0  0  0
   -2.2260   22.5270  -27.7130 C   0  0  0  0  0  0  0  0  0  0  0  0
   -2.8010   21.5530  -27.1460 O   0  0  0  0  0  0  0  0  0  0  0  0
   -1.1390   22.2660  -28.6400 N   0  0  1  0  0  0  0  0  0  0  0  0
   -0.4310   21.0310  -28.2560 C   0  0  0  0  0  0  0  0  0  0  0  0
   -1.6880   22.1820  -30.0130 C   0  0  0  0  0  0  0  0  0  0  0  0
   -3.2010   21.8490  -30.0450 C   0  0  0  0  0  0  0  0  0  0  0  0
   -3.9490   22.4400  -31.2180 C   0  0  0  0  0  0  0  0  0  0  0  0
   -3.3070   22.6870  -32.2740 O   0  0  0  0  0  0  0  0  0  0  0  0
   -5.3410   22.8020  -31.1400 N   0  0  0  0  0  0  0  0  0  0  0  0
   -5.8690   24.0220  -30.8240 C   0  0  0  0  0  0  0  0  0  0  0  0
   -5.1160   25.2610  -30.5180 C   0  0  0  0  0  0  0  0  0  0  0  0
   -3.6930   25.2980  -30.5530 N   0  0  0  0  0  0  0  0  0  0  0  0
   -5.7460   26.3110  -30.2190 O   0  0  0  0  0  0  0  0  0  0  0  0
   -7.2620   23.9710  -30.8480 C   0  0  0  0  0  0  0  0  0  0  0  0
   -7.5770   22.6740  -31.1720 C   0  0  0  0  0  0  0  0  0  0  0  0
   -8.8210   22.0690  -31.3180 C   0  0  0  0  0  0  0  0  0  0  0  0
   -8.8540   20.6990  -31.6260 C   0  0  0  0  0  0  0  0  0  0  0  0
   -7.6530   19.9540  -31.7490 C   0  0  0  0  0  0  0  0  0  0  0  0
   -7.6980   18.4910  -32.1100 C   0  0  0  0  0  0  0  0  0  0  0  0
   -6.8560   17.7570  -31.2920 F   0  0  0  0  0  0  0  0  0  0  0  0
   -8.9910   18.0250  -31.9580 F   0  0  0  0  0  0  0  0  0  0  0  0
   -7.3020   18.2990  -33.4210 F   0  0  0  0  0  0  0  0  0  0  0  0
   -6.4090   20.6120  -31.6110 C   0  0  0  0  0  0  0  0  0  0  0  0
   -6.4030   21.9840  -31.3320 C   0  0  0  0  0  0  0  0  0  0  0  0
   -4.5024   24.2297  -26.4123 H   0  0  0  0  0  0  0  0  0  0  0  0
   -4.3477   25.1147  -27.9677 H   0  0  0  0  0  0  0  0  0  0  0  0
   -4.7049   23.3543  -27.9677 H   0  0  0  0  0  0  0  0  0  0  0  0
   -2.3239   25.8709  -26.9564 H   0  0  0  0  0  0  0  0  0  0  0  0
   -1.1336   24.6635  -26.3473 H   0  0  0  0  0  0  0  0  0  0  0  0
   -0.4400   23.0410  -28.5930 H   0  0  0  0  0  0  0  0  0  0  0  0
   -0.3893   20.9582  -27.1592 H   0  0  0  0  0  0  0  0  0  0  0  0
   -0.9670   20.1600  -28.6612 H   0  0  0  0  0  0  0  0  0  0  0  0
    0.5914   21.0534  -28.6612 H   0  0  0  0  0  0  0  0  0  0  0  0
   -1.5322   23.1499  -30.5118 H   0  0  0  0  0  0  0  0  0  0  0  0
   -1.1618   21.3638  -30.5264 H   0  0  0  0  0  0  0  0  0  0  0  0
   -3.3112   20.7552  -30.0833 H   0  0  0  0  0  0  0  0  0  0  0  0
   -3.6382   22.2943  -29.1392 H   0  0  0  0  0  0  0  0  0  0  0  0
   -3.1540   24.6610  -31.1790 H   0  0  0  0  0  0  0  0  0  0  0  0
   -7.9618   24.7961  -30.6492 H   0  0  0  0  0  0  0  0  0  0  0  0
   -9.7499   22.6455  -31.1961 H   0  0  0  0  0  0  0  0  0  0  0  0
   -9.8221   20.1980  -31.7735 H   0  0  0  0  0  0  0  0  0  0  0  0
   -5.4654   20.0573  -31.7206 H   0  0  0  0  0  0  0  0  0  0  0  0
  1  2  1  0
  2  3  1  0
  3  4  1  0
  4  5  2  0
  4  6  1  0
  2  7  1  0
  7  8  2  0
  7  9  1  0
  9 10  1  0
  9 11  1  0
 11 12  1  0
 12 13  1  0
 13 14  2  0
 13 15  1  0
 15 16  1  0
 16 17  1  0
 17 18  1  0
 17 19  2  0
 16 20  2  0
 20 21  1  0
 21 22  2  0
 22 23  1  0
 23 24  2  0
 24 25  1  0
 25 26  1  0
 25 27  1  0
 25 28  1  0
 24 29  1  0
 29 30  2  0
 30 15  1  0
 30 21  1  0
  1 31  1  0
  1 32  1  0
  1 33  1  0
  3 34  1  0
  3 35  1  0
  9 36  1  6
 10 37  1  0
 10 38  1  0
 10 39  1  0
 11 40  1  0
 11 41  1  0
 12 42  1  0
 12 43  1  0
 18 44  1  0
 20 45  1  0
 22 46  1  0
 23 47  1  0
 29 48  1  0
M  CHG  3   6  -1   9   1  18  -1
M  END
>  <UniqueID>  (89) 
89

>  <SMILES>  (89) 
CN(CC(=O)[O-])C(=O)[N@@H+](C)CCC(=O)n1c(C([NH-])=O)cc2ccc(C(F)(F)F)cc21

>  <Energy>  (89) 
89.99171911835886

>  <Genealogy>  (89) 
CN(CC(=O)[O-])C(=O)[NH+](C)CCC(=O)n1c(C([NH-])=O)cc2ccc(C(F)(F)F)cc21 (protonated)
CN(CC(=O)[O-])C(=O)[N@@H+](C)CCC(=O)n1c(C([NH-])=O)cc2ccc(C(F)(F)F)cc21 (chirality)
CN(CC(=O)[O-])C(=O)[N@@H+](C)CCC(=O)n1c(C([NH-])=O)cc2ccc(C(F)(F)F)cc21 (3D coordinates assigned)
CN(CC(=O)[O-])C(=O)[N@@H+](C)CCC(=O)n1c(C([NH-])=O)cc2ccc(C(F)(F)F)cc21 (optimized conformer: 89.99171911835886 kcal/mol)

>  <smiles>  (89) 
CN(CCC(=O)n1c(C(N)=O)cc2ccc(C(F)(F)F)cc21)C(=O)N(C)CC(=O)O

>  <score_type>  (89) 
oracle

>  <origin>  (89) 
adg

>  <m_score__min__energy>  (89) 
-11.859999999999999

>  <m_primary>  (89) 
energy

$$$$
91:0
     RDKit          3D

 37 39  0  0  0  0  0  0  0  0999 V2000
   -3.6510   25.2950  -30.4760 N   0  0  0  0  0  0  0  0  0  0  0  0
   -5.0760   25.3160  -30.4770 C   0  0  0  0  0  0  0  0  0  0  0  0
   -5.6780   26.3860  -30.1980 O   0  0  0  0  0  0  0  0  0  0  0  0
   -5.8300   24.0930  -30.8190 C   0  0  0  0  0  0  0  0  0  0  0  0
   -7.2230   24.0120  -30.8330 C   0  0  0  0  0  0  0  0  0  0  0  0
   -7.5070   22.7010  -31.1520 C   0  0  0  0  0  0  0  0  0  0  0  0
   -8.7310   22.0550  -31.2880 C   0  0  0  0  0  0  0  0  0  0  0  0
   -8.7220   20.6880  -31.6170 C   0  0  0  0  0  0  0  0  0  0  0  0
   -7.4970   19.9980  -31.8180 C   0  0  0  0  0  0  0  0  0  0  0  0
   -7.4990   18.5210  -32.1220 C   0  0  0  0  0  0  0  0  0  0  0  0
   -7.0860   18.2900  -33.4220 F   0  0  0  0  0  0  0  0  0  0  0  0
   -8.7790   18.0260  -31.9600 F   0  0  0  0  0  0  0  0  0  0  0  0
   -6.6430   17.8460  -31.2690 F   0  0  0  0  0  0  0  0  0  0  0  0
   -6.2730   20.6860  -31.6440 C   0  0  0  0  0  0  0  0  0  0  0  0
   -6.3170   22.0440  -31.3180 C   0  0  0  0  0  0  0  0  0  0  0  0
   -5.2830   22.8850  -31.1250 N   0  0  0  0  0  0  0  0  0  0  0  0
   -3.8920   22.5510  -31.2420 C   0  0  0  0  0  0  0  0  0  0  0  0
   -3.3450   22.6080  -32.3770 O   0  0  0  0  0  0  0  0  0  0  0  0
   -3.0590   22.2770  -30.0050 C   0  0  1  0  0  0  0  0  0  0  0  0
   -1.9230   23.1120  -30.0430 O   0  0  0  0  0  0  0  0  0  0  0  0
   -3.8880   22.5640  -28.7240 C   0  0  0  0  0  0  0  0  0  0  0  0
   -3.2040   22.0880  -27.5230 N   0  0  0  0  0  0  0  0  0  0  0  0
   -2.3080   20.9740  -27.5800 C   0  0  0  0  0  0  0  0  0  0  0  0
   -1.8040   20.5110  -26.5230 O   0  0  0  0  0  0  0  0  0  0  0  0
   -1.9480   20.4340  -28.8150 O   0  0  0  0  0  0  0  0  0  0  0  0
   -2.6290   20.7930  -30.0170 C   0  0  0  0  0  0  0  0  0  0  0  0
   -3.1240   24.6160  -31.0680 H   0  0  0  0  0  0  0  0  0  0  0  0
   -7.9409   24.8209  -30.6325 H   0  0  0  0  0  0  0  0  0  0  0  0
   -9.6772   22.5969  -31.1426 H   0  0  0  0  0  0  0  0  0  0  0  0
   -9.6742   20.1470  -31.7198 H   0  0  0  0  0  0  0  0  0  0  0  0
   -5.3114   20.1652  -31.7623 H   0  0  0  0  0  0  0  0  0  0  0  0
   -2.0710   23.8250  -30.7180 H   0  0  0  0  0  0  0  0  0  0  0  0
   -4.0477   23.6489  -28.6377 H   0  0  0  0  0  0  0  0  0  0  0  0
   -4.8468   22.0315  -28.8080 H   0  0  0  0  0  0  0  0  0  0  0  0
   -3.4800   22.4760  -26.5940 H   0  0  0  0  0  0  0  0  0  0  0  0
   -1.9582   20.6225  -30.8720 H   0  0  0  0  0  0  0  0  0  0  0  0
   -3.5340   20.1730  -30.0983 H   0  0  0  0  0  0  0  0  0  0  0  0
  1  2  1  0
  2  3  2  0
  2  4  1  0
  4  5  2  0
  5  6  1  0
  6  7  2  0
  7  8  1  0
  8  9  2  0
  9 10  1  0
 10 11  1  0
 10 12  1  0
 10 13  1  0
  9 14  1  0
 14 15  2  0
 15 16  1  0
 16 17  1  0
 17 18  2  0
 17 19  1  0
 19 20  1  6
 19 21  1  0
 21 22  1  0
 22 23  1  0
 23 24  2  0
 23 25  1  0
 25 26  1  0
 16  4  1  0
 26 19  1  0
 15  6  1  0
  1 27  1  0
  5 28  1  0
  7 29  1  0
  8 30  1  0
 14 31  1  0
 20 32  1  0
 21 33  1  0
 21 34  1  0
 22 35  1  0
 26 36  1  0
 26 37  1  0
M  CHG  1   1  -1
M  END
>  <UniqueID>  (90) 
90

>  <SMILES>  (90) 
[NH-]C(=O)c1cc2ccc(C(F)(F)F)cc2n1C(=O)[C@@]1(O)CNC(=O)OC1

>  <Energy>  (90) 
80.14007765974941

>  <Genealogy>  (90) 
[NH-]C(=O)c1cc2ccc(C(F)(F)F)cc2n1C(=O)C1(O)CNC(=O)OC1 (protonated)
[NH-]C(=O)c1cc2ccc(C(F)(F)F)cc2n1C(=O)[C@@]1(O)CNC(=O)OC1 (chirality)
[NH-]C(=O)c1cc2ccc(C(F)(F)F)cc2n1C(=O)[C@@]1(O)CNC(=O)OC1 (3D coordinates assigned)
[NH-]C(=O)c1cc2ccc(C(F)(F)F)cc2n1C(=O)[C@@]1(O)CNC(=O)OC1 (nonaromatic ring conformer: 80.14007765974941 kcal/mol)

>  <smiles>  (90) 
NC(=O)c1cc2ccc(C(F)(F)F)cc2n1C(=O)C1(O)CNC(=O)OC1

>  <score_type>  (90) 
oracle

>  <origin>  (90) 
adg

>  <m_score__min__energy>  (90) 
-10.18

>  <m_primary>  (90) 
energy

$$$$
92:0
     RDKit          3D

 37 38  0  0  0  0  0  0  0  0999 V2000
   -2.1090   21.5390  -33.8400 N   0  0  0  0  0  0  0  0  0  0  0  0
   -2.7390   20.3400  -33.3870 C   0  0  0  0  0  0  0  0  0  0  0  0
   -2.0750   19.2700  -33.3550 O   0  0  0  0  0  0  0  0  0  0  0  0
   -4.1700   20.3160  -33.0230 C   0  0  0  0  0  0  0  0  0  0  0  0
   -4.9740   19.1890  -33.1710 C   0  0  0  0  0  0  0  0  0  0  0  0
   -6.2360   19.5930  -32.8030 C   0  0  0  0  0  0  0  0  0  0  0  0
   -7.4210   18.8680  -32.7450 C   0  0  0  0  0  0  0  0  0  0  0  0
   -8.5750   19.5310  -32.2960 C   0  0  0  0  0  0  0  0  0  0  0  0
   -8.5240   20.8950  -31.9130 C   0  0  0  0  0  0  0  0  0  0  0  0
   -9.7740   21.5890  -31.4500 C   0  0  0  0  0  0  0  0  0  0  0  0
   -9.7850   22.8910  -31.9150 F   0  0  0  0  0  0  0  0  0  0  0  0
   -9.8150   21.5960  -30.0680 F   0  0  0  0  0  0  0  0  0  0  0  0
   -7.2990   21.5960  -31.9760 C   0  0  0  0  0  0  0  0  0  0  0  0
   -6.1660   20.9150  -32.4430 C   0  0  0  0  0  0  0  0  0  0  0  0
   -4.8980   21.3730  -32.5650 N   0  0  0  0  0  0  0  0  0  0  0  0
   -4.4050   22.6600  -32.1510 C   0  0  0  0  0  0  0  0  0  0  0  0
   -3.1780   22.8220  -31.9170 O   0  0  0  0  0  0  0  0  0  0  0  0
   -5.3080   23.7610  -32.0150 N   0  0  0  0  0  0  0  0  0  0  0  0
   -5.8890   24.1560  -30.7380 C   0  0  0  0  0  0  0  0  0  0  0  0
   -4.8860   25.0060  -29.9540 C   0  0  2  0  0  0  0  0  0  0  0  0
   -4.0050   25.6400  -30.8460 O   0  0  0  0  0  0  0  0  0  0  0  0
   -4.0970   24.1550  -28.9460 C   0  0  0  0  0  0  0  0  0  0  0  0
   -2.7880   23.9280  -29.3930 O   0  0  0  0  0  0  0  0  0  0  0  0
   -2.6640   22.4010  -34.0340 H   0  0  0  0  0  0  0  0  0  0  0  0
   -1.0850   21.5480  -34.0470 H   0  0  0  0  0  0  0  0  0  0  0  0
   -4.6656   18.1890  -33.5099 H   0  0  0  0  0  0  0  0  0  0  0  0
   -7.4537   17.8091  -33.0412 H   0  0  0  0  0  0  0  0  0  0  0  0
   -9.5288   18.9859  -32.2409 H   0  0  0  0  0  0  0  0  0  0  0  0
  -10.6511   21.0534  -31.8422 H   0  0  0  0  0  0  0  0  0  0  0  0
   -7.2358   22.6496  -31.6664 H   0  0  0  0  0  0  0  0  0  0  0  0
   -6.8025   24.7418  -30.9178 H   0  0  0  0  0  0  0  0  0  0  0  0
   -6.1353   23.2554  -30.1564 H   0  0  0  0  0  0  0  0  0  0  0  0
   -5.4457   25.7646  -29.3872 H   0  0  0  0  0  0  0  0  0  0  0  0
   -3.5060   24.9190  -31.3130 H   0  0  0  0  0  0  0  0  0  0  0  0
   -4.0609   24.6822  -27.9813 H   0  0  0  0  0  0  0  0  0  0  0  0
   -4.6024   23.1841  -28.8372 H   0  0  0  0  0  0  0  0  0  0  0  0
   -2.8230   23.8770  -30.3850 H   0  0  0  0  0  0  0  0  0  0  0  0
  1  2  1  0
  2  3  2  0
  2  4  1  0
  4  5  2  0
  5  6  1  0
  6  7  2  0
  7  8  1  0
  8  9  2  0
  9 10  1  0
 10 11  1  0
 10 12  1  0
  9 13  1  0
 13 14  2  0
 14 15  1  0
 15 16  1  0
 16 17  2  0
 16 18  1  0
 18 19  1  0
 19 20  1  0
 20 21  1  0
 20 22  1  0
 22 23  1  0
 15  4  1  0
 14  6  1  0
  1 24  1  0
  1 25  1  0
  5 26  1  0
  7 27  1  0
  8 28  1  0
 10 29  1  0
 13 30  1  0
 19 31  1  0
 19 32  1  0
 20 33  1  1
 21 34  1  0
 22 35  1  0
 22 36  1  0
 23 37  1  0
M  CHG  1  18  -1
M  END
>  <UniqueID>  (91) 
91

>  <SMILES>  (91) 
NC(=O)c1cc2ccc(C(F)F)cc2n1C(=O)[N-]C[C@H](O)CO

>  <Energy>  (91) 
70.77969156445238

>  <Genealogy>  (91) 
NC(=O)c1cc2ccc(C(F)F)cc2n1C(=O)[N-]CC(O)CO (protonated)
NC(=O)c1cc2ccc(C(F)F)cc2n1C(=O)[N-]C[C@H](O)CO (chirality)
NC(=O)c1cc2ccc(C(F)F)cc2n1C(=O)[N-]C[C@H](O)CO (3D coordinates assigned)
NC(=O)c1cc2ccc(C(F)F)cc2n1C(=O)[N-]C[C@H](O)CO (optimized conformer: 70.77969156445238 kcal/mol)

>  <smiles>  (91) 
NC(=O)c1cc2ccc(C(F)F)cc2n1C(=O)NCC(O)CO

>  <score_type>  (91) 
oracle

>  <origin>  (91) 
adg

>  <m_score__min__energy>  (91) 
-8.7200000000000006

>  <m_primary>  (91) 
energy

$$$$
93:0
     RDKit          3D

 35 36  0  0  0  0  0  0  0  0999 V2000
   -2.6410   20.5140  -29.9890 C   0  0  0  0  0  0  0  0  0  0  0  0
   -3.3850   21.7410  -29.6900 N   0  0  0  0  0  0  0  0  0  0  0  0
   -3.7000   22.0670  -28.2910 C   0  0  0  0  0  0  0  0  0  0  0  0
   -3.8700   23.5750  -28.1020 C   0  0  0  0  0  0  0  0  0  0  0  0
   -1.9890   24.5660  -27.8720 I   0  0  0  0  0  0  0  0  0  0  0  0
   -3.8300   22.5870  -30.7710 C   0  0  0  0  0  0  0  0  0  0  0  0
   -2.9950   23.1270  -31.5460 O   0  0  0  0  0  0  0  0  0  0  0  0
   -5.2280   22.8400  -30.9730 N   0  0  0  0  0  0  0  0  0  0  0  0
   -5.8780   24.0320  -30.8890 C   0  0  0  0  0  0  0  0  0  0  0  0
   -5.2750   25.3170  -30.4770 C   0  0  0  0  0  0  0  0  0  0  0  0
   -3.9390   25.6530  -30.8420 N   0  0  0  0  0  0  0  0  0  0  0  0
   -5.9440   26.1260  -29.7800 O   0  0  0  0  0  0  0  0  0  0  0  0
   -7.2240   23.8750  -31.2210 C   0  0  0  0  0  0  0  0  0  0  0  0
   -7.3720   22.5380  -31.5190 C   0  0  0  0  0  0  0  0  0  0  0  0
   -8.4970   21.8260  -31.9240 C   0  0  0  0  0  0  0  0  0  0  0  0
   -8.3510   20.4520  -32.1790 C   0  0  0  0  0  0  0  0  0  0  0  0
   -7.0900   19.8190  -32.0290 C   0  0  0  0  0  0  0  0  0  0  0  0
   -6.9540   18.3500  -32.3080 C   0  0  0  0  0  0  0  0  0  0  0  0
   -8.2030   17.7590  -32.3180 F   0  0  0  0  0  0  0  0  0  0  0  0
   -6.1760   17.7600  -31.3280 F   0  0  0  0  0  0  0  0  0  0  0  0
   -5.9710   20.5760  -31.6180 C   0  0  0  0  0  0  0  0  0  0  0  0
   -6.1510   21.9380  -31.3640 C   0  0  0  0  0  0  0  0  0  0  0  0
   -2.3452   20.0262  -29.0485 H   0  0  0  0  0  0  0  0  0  0  0  0
   -3.2777   19.8318  -30.5714 H   0  0  0  0  0  0  0  0  0  0  0  0
   -1.7417   20.7632  -30.5714 H   0  0  0  0  0  0  0  0  0  0  0  0
   -4.6345   21.5616  -28.0060 H   0  0  0  0  0  0  0  0  0  0  0  0
   -2.8678   21.7270  -27.6571 H   0  0  0  0  0  0  0  0  0  0  0  0
   -4.3844   23.9881  -28.9822 H   0  0  0  0  0  0  0  0  0  0  0  0
   -4.4568   23.7401  -27.1864 H   0  0  0  0  0  0  0  0  0  0  0  0
   -3.1350   25.0520  -30.5520 H   0  0  0  0  0  0  0  0  0  0  0  0
   -8.0014   24.6529  -31.2407 H   0  0  0  0  0  0  0  0  0  0  0  0
   -9.4709   22.3237  -32.0409 H   0  0  0  0  0  0  0  0  0  0  0  0
   -9.2225   19.8615  -32.4979 H   0  0  0  0  0  0  0  0  0  0  0  0
   -6.4760   18.2126  -33.2892 H   0  0  0  0  0  0  0  0  0  0  0  0
   -4.9835   20.1057  -31.5009 H   0  0  0  0  0  0  0  0  0  0  0  0
  1  2  1  0
  2  3  1  0
  3  4  1  0
  4  5  1  0
  2  6  1  0
  6  7  2  0
  6  8  1  0
  8  9  1  0
  9 10  1  0
 10 11  1  0
 10 12  2  0
  9 13  2  0
 13 14  1  0
 14 15  2  0
 15 16  1  0
 16 17  2  0
 17 18  1  0
 18 19  1  0
 18 20  1  0
 17 21  1  0
 21 22  2  0
 22  8  1  0
 22 14  1  0
  1 23  1  0
  1 24  1  0
  1 25  1  0
  3 26  1  0
  3 27  1  0
  4 28  1  0
  4 29  1  0
 11 30  1  0
 13 31  1  0
 15 32  1  0
 16 33  1  0
 18 34  1  0
 21 35  1  0
M  CHG  1  11  -1
M  END
>  <UniqueID>  (92) 
92

>  <SMILES>  (92) 
CN(CCI)C(=O)n1c(C([NH-])=O)cc2ccc(C(F)F)cc21

>  <Energy>  (92) 
69.8392527247562

>  <Genealogy>  (92) 
CN(CCI)C(=O)n1c(C([NH-])=O)cc2ccc(C(F)F)cc21 (protonated)
CN(CCI)C(=O)n1c(C([NH-])=O)cc2ccc(C(F)F)cc21 (3D coordinates assigned)
CN(CCI)C(=O)n1c(C([NH-])=O)cc2ccc(C(F)F)cc21 (optimized conformer: 69.8392527247562 kcal/mol)

>  <smiles>  (92) 
CN(CCI)C(=O)n1c(C(N)=O)cc2ccc(C(F)F)cc21

>  <score_type>  (92) 
oracle

>  <origin>  (92) 
adg

>  <m_score__min__energy>  (92) 
-10.15

>  <m_primary>  (92) 
energy

$$$$
94:0
     RDKit          3D

 41 42  0  0  0  0  0  0  0  0999 V2000
   -3.9850   16.4170  -33.8400 C   0  0  0  0  0  0  0  0  0  0  0  0
   -4.2770   17.8490  -33.9290 N   0  0  0  0  0  0  0  0  0  0  0  0
   -3.1860   18.7830  -34.0400 C   0  0  0  0  0  0  0  0  0  0  0  0
   -2.0190   18.3830  -34.2920 O   0  0  0  0  0  0  0  0  0  0  0  0
   -3.4040   20.1420  -33.8390 O   0  0  0  0  0  0  0  0  0  0  0  0
   -5.6420   18.2720  -34.1160 C   0  0  0  0  0  0  0  0  0  0  0  0
   -6.0290   18.6400  -35.2580 O   0  0  0  0  0  0  0  0  0  0  0  0
   -6.6220   18.2630  -32.9760 C   0  0  0  0  0  0  0  0  0  0  0  0
   -6.8960   19.6670  -32.5060 C   0  0  0  0  0  0  0  0  0  0  0  0
   -8.2050   20.2020  -32.5990 C   0  0  0  0  0  0  0  0  0  0  0  0
   -8.4710   21.5180  -32.1830 C   0  0  0  0  0  0  0  0  0  0  0  0
   -7.4080   22.2760  -31.6980 C   0  0  0  0  0  0  0  0  0  0  0  0
   -7.3880   23.5650  -31.2170 C   0  0  0  0  0  0  0  0  0  0  0  0
   -6.0620   23.8110  -30.8730 C   0  0  0  0  0  0  0  0  0  0  0  0
   -5.5620   25.1190  -30.3960 C   0  0  0  0  0  0  0  0  0  0  0  0
   -4.2120   25.5180  -30.6430 N   0  0  0  0  0  0  0  0  0  0  0  0
   -6.3160   25.8840  -29.7380 O   0  0  0  0  0  0  0  0  0  0  0  0
   -5.2910   22.7140  -31.1290 N   0  0  0  0  0  0  0  0  0  0  0  0
   -3.8880   22.5480  -30.8680 C   0  0  0  0  0  0  0  0  0  0  0  0
   -3.2190   21.7090  -31.5310 O   0  0  0  0  0  0  0  0  0  0  0  0
   -3.2660   23.3290  -29.8870 O   0  0  0  0  0  0  0  0  0  0  0  0
   -1.9320   23.1060  -29.4370 C   0  0  0  0  0  0  0  0  0  0  0  0
   -1.2750   24.3990  -29.0780 C   0  0  0  0  0  0  0  0  0  0  0  0
   -2.0470   25.5950  -28.9930 N   0  0  0  0  0  0  0  0  0  0  0  0
   -0.0360   24.4340  -28.8460 O   0  0  0  0  0  0  0  0  0  0  0  0
   -6.1310   21.7840  -31.6330 C   0  0  0  0  0  0  0  0  0  0  0  0
   -5.8410   20.4710  -32.0200 C   0  0  0  0  0  0  0  0  0  0  0  0
   -3.9245   16.1202  -32.7825 H   0  0  0  0  0  0  0  0  0  0  0  0
   -4.7856   15.8481  -34.3353 H   0  0  0  0  0  0  0  0  0  0  0  0
   -3.0255   16.2070  -34.3353 H   0  0  0  0  0  0  0  0  0  0  0  0
   -7.5633   17.8032  -33.3113 H   0  0  0  0  0  0  0  0  0  0  0  0
   -6.1940   17.6858  -32.1431 H   0  0  0  0  0  0  0  0  0  0  0  0
   -9.0201   19.5819  -33.0003 H   0  0  0  0  0  0  0  0  0  0  0  0
   -9.4869   21.9361  -32.2387 H   0  0  0  0  0  0  0  0  0  0  0  0
   -8.2397   24.2550  -31.1240 H   0  0  0  0  0  0  0  0  0  0  0  0
   -3.8580   26.4250  -30.2670 H   0  0  0  0  0  0  0  0  0  0  0  0
   -3.5790   24.9430  -31.2400 H   0  0  0  0  0  0  0  0  0  0  0  0
   -1.9534   22.4534  -28.5518 H   0  0  0  0  0  0  0  0  0  0  0  0
   -1.3595   22.6302  -30.2468 H   0  0  0  0  0  0  0  0  0  0  0  0
   -3.0890   25.5640  -29.0310 H   0  0  0  0  0  0  0  0  0  0  0  0
   -4.8174   20.0748  -31.9476 H   0  0  0  0  0  0  0  0  0  0  0  0
  1  2  1  0
  2  3  1  0
  3  4  2  0
  3  5  1  0
  2  6  1  0
  6  7  2  0
  6  8  1  0
  8  9  1  0
  9 10  2  0
 10 11  1  0
 11 12  2  0
 12 13  1  0
 13 14  2  0
 14 15  1  0
 15 16  1  0
 15 17  2  0
 14 18  1  0
 18 19  1  0
 19 20  2  0
 19 21  1  0
 21 22  1  0
 22 23  1  0
 23 24  1  0
 23 25  2  0
 18 26  1  0
 26 27  2  0
 27  9  1  0
 26 12  1  0
  1 28  1  0
  1 29  1  0
  1 30  1  0
  8 31  1  0
  8 32  1  0
 10 33  1  0
 11 34  1  0
 13 35  1  0
 16 36  1  0
 16 37  1  0
 22 38  1  0
 22 39  1  0
 24 40  1  0
 27 41  1  0
M  CHG  2   5  -1  24  -1
M  END
>  <UniqueID>  (93) 
93

>  <SMILES>  (93) 
CN(C(=O)[O-])C(=O)Cc1ccc2cc(C(N)=O)n(C(=O)OCC([NH-])=O)c2c1

>  <Energy>  (93) 
78.89313648882182

>  <Genealogy>  (93) 
CN(C(=O)[O-])C(=O)Cc1ccc2cc(C(N)=O)n(C(=O)OCC([NH-])=O)c2c1 (protonated)
CN(C(=O)[O-])C(=O)Cc1ccc2cc(C(N)=O)n(C(=O)OCC([NH-])=O)c2c1 (3D coordinates assigned)
CN(C(=O)[O-])C(=O)Cc1ccc2cc(C(N)=O)n(C(=O)OCC([NH-])=O)c2c1 (optimized conformer: 78.89313648882182 kcal/mol)

>  <smiles>  (93) 
CN(C(=O)O)C(=O)Cc1ccc2cc(C(N)=O)n(C(=O)OCC(N)=O)c2c1

>  <score_type>  (93) 
oracle

>  <origin>  (93) 
adg

>  <m_score__min__energy>  (93) 
-11.619999999999999

>  <m_primary>  (93) 
energy

$$$$
95:0
     RDKit          3D

 45 46  0  0  0  0  0  0  0  0999 V2000
   -6.2380   16.3830  -33.5860 C   0  0  0  0  0  0  0  0  0  0  0  0
   -6.2830   17.7380  -32.8630 C   0  0  0  0  0  0  0  0  0  0  0  0
   -6.5150   17.5480  -31.3550 C   0  0  0  0  0  0  0  0  0  0  0  0
   -7.2550   18.6750  -33.4730 N   0  0  0  0  0  0  0  0  0  0  0  0
   -7.3110   19.9660  -32.8200 C   0  0  0  0  0  0  0  0  0  0  0  0
   -8.5620   20.5960  -32.5810 C   0  0  0  0  0  0  0  0  0  0  0  0
   -8.6290   21.8430  -31.9350 C   0  0  0  0  0  0  0  0  0  0  0  0
   -7.4330   22.4410  -31.5490 C   0  0  0  0  0  0  0  0  0  0  0  0
   -7.2050   23.6310  -30.8920 C   0  0  0  0  0  0  0  0  0  0  0  0
   -5.8210   23.7190  -30.7590 C   0  0  0  0  0  0  0  0  0  0  0  0
   -5.1210   24.8720  -30.1560 C   0  0  0  0  0  0  0  0  0  0  0  0
   -4.0220   25.4730  -30.8380 N   0  0  0  0  0  0  0  0  0  0  0  0
   -5.4710   25.3220  -29.0330 O   0  0  0  0  0  0  0  0  0  0  0  0
   -5.2210   22.6260  -31.3080 N   0  0  0  0  0  0  0  0  0  0  0  0
   -3.8220   22.3090  -31.3450 C   0  0  0  0  0  0  0  0  0  0  0  0
   -3.2150   22.3770  -32.4460 O   0  0  0  0  0  0  0  0  0  0  0  0
   -3.1280   21.8810  -30.1050 C   0  0  0  0  0  0  0  0  0  0  0  0
   -3.1890   20.6610  -29.7920 O   0  0  0  0  0  0  0  0  0  0  0  0
   -2.3960   22.7920  -29.2470 N   0  0  0  0  0  0  0  0  0  0  0  0
   -2.9470   23.2690  -27.9730 C   0  0  0  0  0  0  0  0  0  0  0  0
   -1.1250   23.3610  -29.7170 C   0  0  0  0  0  0  0  0  0  0  0  0
   -0.8680   24.6730  -29.0470 C   0  0  0  0  0  0  0  0  0  0  0  0
   -1.6040   25.6650  -29.2950 O   0  0  0  0  0  0  0  0  0  0  0  0
    0.2070   24.8150  -28.1790 O   0  0  0  0  0  0  0  0  0  0  0  0
   -6.2180   21.8580  -31.7900 C   0  0  0  0  0  0  0  0  0  0  0  0
   -6.1190   20.6180  -32.4270 C   0  0  0  0  0  0  0  0  0  0  0  0
   -6.2111   15.5719  -32.8434 H   0  0  0  0  0  0  0  0  0  0  0  0
   -7.1330   16.2737  -34.2161 H   0  0  0  0  0  0  0  0  0  0  0  0
   -5.3377   16.3333  -34.2161 H   0  0  0  0  0  0  0  0  0  0  0  0
   -5.2976   18.2106  -32.9878 H   0  0  0  0  0  0  0  0  0  0  0  0
   -5.7834   18.1472  -30.7931 H   0  0  0  0  0  0  0  0  0  0  0  0
   -7.5329   17.8753  -31.0965 H   0  0  0  0  0  0  0  0  0  0  0  0
   -6.3947   16.4856  -31.0965 H   0  0  0  0  0  0  0  0  0  0  0  0
   -8.2060   18.2370  -33.4560 H   0  0  0  0  0  0  0  0  0  0  0  0
   -7.0150   18.8070  -34.4830 H   0  0  0  0  0  0  0  0  0  0  0  0
   -9.4897   20.1019  -32.9055 H   0  0  0  0  0  0  0  0  0  0  0  0
   -9.5958   22.3304  -31.7409 H   0  0  0  0  0  0  0  0  0  0  0  0
   -7.9559   24.3567  -30.5463 H   0  0  0  0  0  0  0  0  0  0  0  0
   -3.0400   25.3010  -30.5270 H   0  0  0  0  0  0  0  0  0  0  0  0
   -2.4040   22.7990  -27.1398 H   0  0  0  0  0  0  0  0  0  0  0  0
   -2.8371   24.3618  -27.9122 H   0  0  0  0  0  0  0  0  0  0  0  0
   -4.0128   23.0037  -27.9122 H   0  0  0  0  0  0  0  0  0  0  0  0
   -0.3061   22.6657  -29.4807 H   0  0  0  0  0  0  0  0  0  0  0  0
   -1.1821   23.5180  -30.8042 H   0  0  0  0  0  0  0  0  0  0  0  0
   -5.1373   20.1600  -32.6182 H   0  0  0  0  0  0  0  0  0  0  0  0
  1  2  1  0
  2  3  1  0
  2  4  1  0
  4  5  1  0
  5  6  2  0
  6  7  1  0
  7  8  2  0
  8  9  1  0
  9 10  2  0
 10 11  1  0
 11 12  1  0
 11 13  2  0
 10 14  1  0
 14 15  1  0
 15 16  2  0
 15 17  1  0
 17 18  2  0
 17 19  1  0
 19 20  1  0
 19 21  1  0
 21 22  1  0
 22 23  2  0
 22 24  1  0
 14 25  1  0
 25 26  2  0
 26  5  1  0
 25  8  1  0
  1 27  1  0
  1 28  1  0
  1 29  1  0
  2 30  1  0
  3 31  1  0
  3 32  1  0
  3 33  1  0
  4 34  1  0
  4 35  1  0
  6 36  1  0
  7 37  1  0
  9 38  1  0
 12 39  1  0
 20 40  1  0
 20 41  1  0
 20 42  1  0
 21 43  1  0
 21 44  1  0
 26 45  1  0
M  CHG  3   4   1  12  -1  24  -1
M  END
>  <UniqueID>  (94) 
94

>  <SMILES>  (94) 
CC(C)[NH2+]c1ccc2cc(C([NH-])=O)n(C(=O)C(=O)N(C)CC(=O)[O-])c2c1

>  <Energy>  (94) 
84.11529840671001

>  <Genealogy>  (94) 
CC(C)[NH2+]c1ccc2cc(C([NH-])=O)n(C(=O)C(=O)N(C)CC(=O)[O-])c2c1 (protonated)
CC(C)[NH2+]c1ccc2cc(C([NH-])=O)n(C(=O)C(=O)N(C)CC(=O)[O-])c2c1 (3D coordinates assigned)
CC(C)[NH2+]c1ccc2cc(C([NH-])=O)n(C(=O)C(=O)N(C)CC(=O)[O-])c2c1 (optimized conformer: 84.11529840671001 kcal/mol)

>  <smiles>  (94) 
CC(C)Nc1ccc2cc(C(N)=O)n(C(=O)C(=O)N(C)CC(=O)O)c2c1

>  <score_type>  (94) 
oracle

>  <origin>  (94) 
adg

>  <m_score__min__energy>  (94) 
-12.32

>  <m_primary>  (94) 
energy

$$$$
96:0
     RDKit          3D

 48 50  0  0  0  0  0  0  0  0999 V2000
   -3.8370   25.2400  -30.2470 N   0  0  0  0  0  0  0  0  0  0  0  0
   -5.2160   24.8770  -30.3150 C   0  0  0  0  0  0  0  0  0  0  0  0
   -6.0810   25.6720  -29.8570 O   0  0  0  0  0  0  0  0  0  0  0  0
   -5.6570   23.6160  -30.9490 C   0  0  0  0  0  0  0  0  0  0  0  0
   -6.9610   23.3970  -31.3800 C   0  0  0  0  0  0  0  0  0  0  0  0
   -6.9750   22.1090  -31.8620 C   0  0  0  0  0  0  0  0  0  0  0  0
   -8.0310   21.3600  -32.3670 C   0  0  0  0  0  0  0  0  0  0  0  0
   -7.7840   20.0220  -32.7130 C   0  0  0  0  0  0  0  0  0  0  0  0
   -6.4980   19.4440  -32.5300 C   0  0  0  0  0  0  0  0  0  0  0  0
   -6.2600   18.0560  -32.8630 N   0  0  0  0  0  0  0  0  0  0  0  0
   -5.7760   17.0630  -31.9150 C   0  0  0  0  0  0  0  0  0  0  0  0
   -5.4980   15.8090  -32.7310 C   0  0  0  0  0  0  0  0  0  0  0  0
   -6.2740   15.9860  -34.0310 C   0  0  0  0  0  0  0  0  0  0  0  0
   -6.4810   17.4870  -34.1860 C   0  0  0  0  0  0  0  0  0  0  0  0
   -5.4550   20.2440  -32.0040 C   0  0  0  0  0  0  0  0  0  0  0  0
   -5.7170   21.5890  -31.7060 C   0  0  0  0  0  0  0  0  0  0  0  0
   -4.8870   22.5090  -31.1600 N   0  0  0  0  0  0  0  0  0  0  0  0
   -3.5220   22.3070  -30.7510 C   0  0  0  0  0  0  0  0  0  0  0  0
   -2.6250   23.0960  -31.1550 O   0  0  0  0  0  0  0  0  0  0  0  0
   -3.1390   21.1780  -29.8350 C   0  0  0  0  0  0  0  0  0  0  0  0
   -3.0560   21.6340  -28.4870 O   0  0  0  0  0  0  0  0  0  0  0  0
   -1.8930   21.5380  -27.7170 C   0  0  0  0  0  0  0  0  0  0  0  0
   -1.3510   20.4180  -27.5000 O   0  0  0  0  0  0  0  0  0  0  0  0
   -1.3090   22.7740  -27.1080 C   0  0  0  0  0  0  0  0  0  0  0  0
   -1.9940   24.0420  -27.6380 C   0  0  0  0  0  0  0  0  0  0  0  0
   -1.1160   24.7780  -28.6060 C   0  0  0  0  0  0  0  0  0  0  0  0
   -1.6010   25.6770  -29.3440 O   0  0  0  0  0  0  0  0  0  0  0  0
    0.2470   24.5170  -28.6480 O   0  0  0  0  0  0  0  0  0  0  0  0
   -3.1140   24.7140  -30.7830 H   0  0  0  0  0  0  0  0  0  0  0  0
   -3.5440   26.0950  -29.7220 H   0  0  0  0  0  0  0  0  0  0  0  0
   -7.8028   24.1041  -31.3432 H   0  0  0  0  0  0  0  0  0  0  0  0
   -9.0304   21.8022  -32.4919 H   0  0  0  0  0  0  0  0  0  0  0  0
   -8.5976   19.4117  -33.1320 H   0  0  0  0  0  0  0  0  0  0  0  0
   -4.8544   17.4154  -31.4288 H   0  0  0  0  0  0  0  0  0  0  0  0
   -6.5108   16.8725  -31.1189 H   0  0  0  0  0  0  0  0  0  0  0  0
   -4.4214   15.7151  -32.9361 H   0  0  0  0  0  0  0  0  0  0  0  0
   -5.8037   14.8983  -32.1950 H   0  0  0  0  0  0  0  0  0  0  0  0
   -5.6972   15.5887  -34.8792 H   0  0  0  0  0  0  0  0  0  0  0  0
   -7.2310   15.4441  -34.0097 H   0  0  0  0  0  0  0  0  0  0  0  0
   -5.7601   17.9009  -34.9064 H   0  0  0  0  0  0  0  0  0  0  0  0
   -7.4871   17.7204  -34.5646 H   0  0  0  0  0  0  0  0  0  0  0  0
   -4.4557   19.8176  -31.8319 H   0  0  0  0  0  0  0  0  0  0  0  0
   -3.8975   20.3842  -29.9024 H   0  0  0  0  0  0  0  0  0  0  0  0
   -2.1558   20.7905  -30.1403 H   0  0  0  0  0  0  0  0  0  0  0  0
   -1.4366   22.7288  -26.0164 H   0  0  0  0  0  0  0  0  0  0  0  0
   -0.2434   22.8201  -27.3769 H   0  0  0  0  0  0  0  0  0  0  0  0
   -2.9271   23.7581  -28.1466 H   0  0  0  0  0  0  0  0  0  0  0  0
   -2.1989   24.7055  -26.7849 H   0  0  0  0  0  0  0  0  0  0  0  0
  1  2  1  0
  2  3  2  0
  2  4  1  0
  4  5  2  0
  5  6  1  0
  6  7  2  0
  7  8  1  0
  8  9  2  0
  9 10  1  0
 10 11  1  0
 11 12  1  0
 12 13  1  0
 13 14  1  0
  9 15  1  0
 15 16  2  0
 16 17  1  0
 17 18  1  0
 18 19  2  0
 18 20  1  0
 20 21  1  0
 21 22  1  0
 22 23  2  0
 22 24  1  0
 24 25  1  0
 25 26  1  0
 26 27  2  0
 26 28  1  0
 17  4  1  0
 16  6  1  0
 14 10  1  0
  1 29  1  0
  1 30  1  0
  5 31  1  0
  7 32  1  0
  8 33  1  0
 11 34  1  0
 11 35  1  0
 12 36  1  0
 12 37  1  0
 13 38  1  0
 13 39  1  0
 14 40  1  0
 14 41  1  0
 15 42  1  0
 20 43  1  0
 20 44  1  0
 24 45  1  0
 24 46  1  0
 25 47  1  0
 25 48  1  0
M  CHG  1  28  -1
M  END
>  <UniqueID>  (95) 
95

>  <SMILES>  (95) 
NC(=O)c1cc2ccc(N3CCCC3)cc2n1C(=O)COC(=O)CCC(=O)[O-]

>  <Energy>  (95) 
84.40775770191648

>  <Genealogy>  (95) 
NC(=O)c1cc2ccc(N3CCCC3)cc2n1C(=O)COC(=O)CCC(=O)[O-] (protonated)
NC(=O)c1cc2ccc(N3CCCC3)cc2n1C(=O)COC(=O)CCC(=O)[O-] (3D coordinates assigned)
NC(=O)c1cc2ccc(N3CCCC3)cc2n1C(=O)COC(=O)CCC(=O)[O-] (nonaromatic ring conformer: 84.40775770191648 kcal/mol)

>  <smiles>  (95) 
NC(=O)c1cc2ccc(N3CCCC3)cc2n1C(=O)COC(=O)CCC(=O)O

>  <score_type>  (95) 
oracle

>  <origin>  (95) 
adg

>  <m_score__min__energy>  (95) 
-10.93

>  <m_primary>  (95) 
energy

$$$$
97:0
     RDKit          3D

 41 43  0  0  0  0  0  0  0  0999 V2000
   -3.0850   20.7520  -29.6640 C   0  0  0  0  0  0  0  0  0  0  0  0
   -3.1530   22.0520  -30.0030 C   0  0  0  0  0  0  0  0  0  0  0  0
   -4.0050   22.4250  -31.1780 C   0  0  0  0  0  0  0  0  0  0  0  0
   -3.4940   22.4600  -32.3300 O   0  0  0  0  0  0  0  0  0  0  0  0
   -5.4000   22.7230  -31.0560 N   0  0  0  0  0  0  0  0  0  0  0  0
   -5.9810   23.9200  -30.7550 C   0  0  0  0  0  0  0  0  0  0  0  0
   -5.2640   25.1600  -30.3900 C   0  0  0  0  0  0  0  0  0  0  0  0
   -3.8640   25.2900  -30.6130 N   0  0  0  0  0  0  0  0  0  0  0  0
   -5.8960   26.1200  -29.8730 O   0  0  0  0  0  0  0  0  0  0  0  0
   -7.3670   23.8300  -30.8730 C   0  0  0  0  0  0  0  0  0  0  0  0
   -7.6150   22.5400  -31.2890 C   0  0  0  0  0  0  0  0  0  0  0  0
   -8.8170   21.9140  -31.6080 C   0  0  0  0  0  0  0  0  0  0  0  0
   -8.7660   20.5820  -32.0560 C   0  0  0  0  0  0  0  0  0  0  0  0
   -7.5250   19.9060  -32.1740 C   0  0  0  0  0  0  0  0  0  0  0  0
   -7.4790   18.5070  -32.7110 C   0  0  0  0  0  0  0  0  0  0  0  0
   -6.3250   20.5800  -31.8580 C   0  0  0  0  0  0  0  0  0  0  0  0
   -6.4090   21.9010  -31.4090 C   0  0  0  0  0  0  0  0  0  0  0  0
   -2.4400   23.0370  -29.2030 N   0  0  0  0  0  0  0  0  0  0  0  0
   -1.0290   23.3850  -29.4130 C   0  0  0  0  0  0  0  0  0  0  0  0
   -0.7830   24.4110  -28.3860 C   0  0  0  0  0  0  0  0  0  0  0  0
    0.3340   24.9470  -28.1670 O   0  0  0  0  0  0  0  0  0  0  0  0
   -1.9590   24.7310  -27.6700 N   0  0  0  0  0  0  0  0  0  0  0  0
   -2.0020   25.4830  -26.4230 C   0  0  0  0  0  0  0  0  0  0  0  0
   -3.0120   23.8310  -28.1070 C   0  0  0  0  0  0  0  0  0  0  0  0
   -2.4702   20.4384  -28.8075 H   0  0  0  0  0  0  0  0  0  0  0  0
   -3.6442   20.0026  -30.2433 H   0  0  0  0  0  0  0  0  0  0  0  0
   -3.4850   26.0450  -31.2270 H   0  0  0  0  0  0  0  0  0  0  0  0
   -8.1058   24.6208  -30.6759 H   0  0  0  0  0  0  0  0  0  0  0  0
   -9.7759   22.4444  -31.5126 H   0  0  0  0  0  0  0  0  0  0  0  0
   -9.6979   20.0593  -32.3175 H   0  0  0  0  0  0  0  0  0  0  0  0
   -7.4555   17.7936  -31.8740 H   0  0  0  0  0  0  0  0  0  0  0  0
   -8.3715   18.3210  -33.3265 H   0  0  0  0  0  0  0  0  0  0  0  0
   -6.5762   18.3800  -33.3265 H   0  0  0  0  0  0  0  0  0  0  0  0
   -5.3511   20.0793  -31.9623 H   0  0  0  0  0  0  0  0  0  0  0  0
   -0.3795   22.5103  -29.2612 H   0  0  0  0  0  0  0  0  0  0  0  0
   -0.8168   23.7349  -30.4340 H   0  0  0  0  0  0  0  0  0  0  0  0
   -1.9621   24.7860  -25.5729 H   0  0  0  0  0  0  0  0  0  0  0  0
   -1.1415   26.1667  -26.3772 H   0  0  0  0  0  0  0  0  0  0  0  0
   -2.9348   26.0641  -26.3772 H   0  0  0  0  0  0  0  0  0  0  0  0
   -3.3204   23.1742  -27.2803 H   0  0  0  0  0  0  0  0  0  0  0  0
   -3.9040   24.3850  -28.4349 H   0  0  0  0  0  0  0  0  0  0  0  0
  1  2  2  0
  2  3  1  0
  3  4  2  0
  3  5  1  0
  5  6  1  0
  6  7  1  0
  7  8  1  0
  7  9  2  0
  6 10  2  0
 10 11  1  0
 11 12  2  0
 12 13  1  0
 13 14  2  0
 14 15  1  0
 14 16  1  0
 16 17  2  0
  2 18  1  0
 18 19  1  0
 19 20  1  0
 20 21  2  0
 20 22  1  0
 22 23  1  0
 22 24  1  0
 17  5  1  0
 24 18  1  0
 17 11  1  0
  1 25  1  0
  1 26  1  0
  8 27  1  0
 10 28  1  0
 12 29  1  0
 13 30  1  0
 15 31  1  0
 15 32  1  0
 15 33  1  0
 16 34  1  0
 19 35  1  0
 19 36  1  0
 23 37  1  0
 23 38  1  0
 23 39  1  0
 24 40  1  0
 24 41  1  0
M  CHG  1   8  -1
M  END
>  <UniqueID>  (96) 
96

>  <SMILES>  (96) 
C=C(C(=O)n1c(C([NH-])=O)cc2ccc(C)cc21)N1CC(=O)N(C)C1

>  <Energy>  (96) 
94.47288216202433

>  <Genealogy>  (96) 
C=C(C(=O)n1c(C([NH-])=O)cc2ccc(C)cc21)N1CC(=O)N(C)C1 (protonated)
C=C(C(=O)n1c(C([NH-])=O)cc2ccc(C)cc21)N1CC(=O)N(C)C1 (3D coordinates assigned)
C=C(C(=O)n1c(C([NH-])=O)cc2ccc(C)cc21)N1CC(=O)N(C)C1 (nonaromatic ring conformer: 94.47288216202433 kcal/mol)

>  <smiles>  (96) 
C=C(C(=O)n1c(C(N)=O)cc2ccc(C)cc21)N1CC(=O)N(C)C1

>  <score_type>  (96) 
oracle

>  <origin>  (96) 
adg

>  <m_score__min__energy>  (96) 
-11.460000000000001

>  <m_primary>  (96) 
energy

$$$$
98:0
     RDKit          3D

 52 54  0  0  0  0  0  0  0  0999 V2000
   -4.0700   25.2510  -30.8740 N   0  0  0  0  0  0  0  0  0  0  0  0
   -5.4800   25.1820  -30.6770 C   0  0  0  0  0  0  0  0  0  0  0  0
   -6.0980   26.2070  -30.2860 O   0  0  0  0  0  0  0  0  0  0  0  0
   -6.2250   23.9390  -30.9580 C   0  0  0  0  0  0  0  0  0  0  0  0
   -7.5940   23.7900  -30.7410 C   0  0  0  0  0  0  0  0  0  0  0  0
   -7.9000   22.5230  -31.1860 C   0  0  0  0  0  0  0  0  0  0  0  0
   -9.1140   21.8410  -31.1980 C   0  0  0  0  0  0  0  0  0  0  0  0
   -9.1260   20.5260  -31.6950 C   0  0  0  0  0  0  0  0  0  0  0  0
   -7.9330   19.9220  -32.1670 C   0  0  0  0  0  0  0  0  0  0  0  0
   -7.9480   18.4960  -32.6530 C   0  0  0  0  0  0  0  0  0  0  0  0
   -6.6730   17.7730  -32.3310 C   0  0  0  0  0  0  0  0  0  0  0  0
   -6.3380   17.5590  -31.1330 O   0  0  0  0  0  0  0  0  0  0  0  0
   -5.8290   17.3960  -33.3780 O   0  0  0  0  0  0  0  0  0  0  0  0
   -5.2220   18.3370  -34.2560 C   0  0  0  0  0  0  0  0  0  0  0  0
   -3.9320   18.8680  -33.6370 C   0  0  0  0  0  0  0  0  0  0  0  0
   -4.1630   19.3050  -32.3230 O   0  0  0  0  0  0  0  0  0  0  0  0
   -6.7190   20.6400  -32.1250 C   0  0  0  0  0  0  0  0  0  0  0  0
   -6.7420   21.9510  -31.6410 C   0  0  0  0  0  0  0  0  0  0  0  0
   -5.7080   22.8050  -31.5070 N   0  0  0  0  0  0  0  0  0  0  0  0
   -4.3350   22.5080  -31.8080 C   0  0  0  0  0  0  0  0  0  0  0  0
   -3.9340   22.6030  -33.0000 O   0  0  0  0  0  0  0  0  0  0  0  0
   -3.4730   21.9490  -30.7880 N   0  0  1  0  0  0  0  0  0  0  0  0
   -2.0700   22.3540  -31.0670 C   0  0  0  0  0  0  0  0  0  0  0  0
   -1.1870   22.2590  -29.8150 C   0  0  0  0  0  0  0  0  0  0  0  0
   -1.6930   23.2080  -28.7000 C   0  0  1  0  0  0  0  0  0  0  0  0
   -0.9240   24.5040  -28.6710 C   0  0  0  0  0  0  0  0  0  0  0  0
    0.2780   24.5280  -28.2980 O   0  0  0  0  0  0  0  0  0  0  0  0
   -1.5140   25.6700  -29.1490 O   0  0  0  0  0  0  0  0  0  0  0  0
   -3.2060   23.4980  -28.8200 C   0  0  0  0  0  0  0  0  0  0  0  0
   -3.9480   22.2920  -29.4160 C   0  0  0  0  0  0  0  0  0  0  0  0
   -3.4430   25.6420  -30.1380 H   0  0  0  0  0  0  0  0  0  0  0  0
   -8.2839   24.5282  -30.3063 H   0  0  0  0  0  0  0  0  0  0  0  0
  -10.0351   22.3165  -30.8300 H   0  0  0  0  0  0  0  0  0  0  0  0
  -10.0693   19.9605  -31.7179 H   0  0  0  0  0  0  0  0  0  0  0  0
   -8.7854   17.9675  -32.1740 H   0  0  0  0  0  0  0  0  0  0  0  0
   -8.0586   18.5137  -33.7473 H   0  0  0  0  0  0  0  0  0  0  0  0
   -4.9922   17.8468  -35.2136 H   0  0  0  0  0  0  0  0  0  0  0  0
   -5.9147   19.1748  -34.4239 H   0  0  0  0  0  0  0  0  0  0  0  0
   -3.1789   18.0663  -33.6252 H   0  0  0  0  0  0  0  0  0  0  0  0
   -3.5715   19.7166  -34.2369 H   0  0  0  0  0  0  0  0  0  0  0  0
   -4.7350   18.6150  -31.8890 H   0  0  0  0  0  0  0  0  0  0  0  0
   -5.7792   20.1800  -32.4643 H   0  0  0  0  0  0  0  0  0  0  0  0
   -3.5160   20.9070  -30.8740 H   0  0  0  0  0  0  0  0  0  0  0  0
   -2.0649   23.3931  -31.4278 H   0  0  0  0  0  0  0  0  0  0  0  0
   -1.6618   21.6691  -31.8248 H   0  0  0  0  0  0  0  0  0  0  0  0
   -0.1561   22.5354  -30.0811 H   0  0  0  0  0  0  0  0  0  0  0  0
   -1.2264   21.2263  -29.4382 H   0  0  0  0  0  0  0  0  0  0  0  0
   -1.5196   22.6780  -27.7518 H   0  0  0  0  0  0  0  0  0  0  0  0
   -3.3550   24.3712  -29.4722 H   0  0  0  0  0  0  0  0  0  0  0  0
   -3.6072   23.6970  -27.8153 H   0  0  0  0  0  0  0  0  0  0  0  0
   -5.0217   22.5266  -29.4630 H   0  0  0  0  0  0  0  0  0  0  0  0
   -3.7509   21.4252  -28.7680 H   0  0  0  0  0  0  0  0  0  0  0  0
  1  2  1  0
  2  3  2  0
  2  4  1  0
  4  5  2  0
  5  6  1  0
  6  7  2  0
  7  8  1  0
  8  9  2  0
  9 10  1  0
 10 11  1  0
 11 12  2  0
 11 13  1  0
 13 14  1  0
 14 15  1  0
 15 16  1  0
  9 17  1  0
 17 18  2  0
 18 19  1  0
 19 20  1  0
 20 21  2  0
 20 22  1  0
 22 23  1  0
 23 24  1  0
 24 25  1  0
 25 26  1  0
 26 27  2  0
 26 28  1  0
 25 29  1  0
 29 30  1  0
 19  4  1  0
 30 22  1  0
 18  6  1  0
  1 31  1  0
  5 32  1  0
  7 33  1  0
  8 34  1  0
 10 35  1  0
 10 36  1  0
 14 37  1  0
 14 38  1  0
 15 39  1  0
 15 40  1  0
 16 41  1  0
 17 42  1  0
 22 43  1  1
 23 44  1  0
 23 45  1  0
 24 46  1  0
 24 47  1  0
 25 48  1  1
 29 49  1  0
 29 50  1  0
 30 51  1  0
 30 52  1  0
M  CHG  3   1  -1  22   1  28  -1
M  END
>  <UniqueID>  (97) 
97

>  <SMILES>  (97) 
[NH-]C(=O)c1cc2ccc(CC(=O)OCCO)cc2n1C(=O)[NH+]1CCC(C(=O)[O-])CC1

>  <Energy>  (97) 
97.15463433749181

>  <Genealogy>  (97) 
[NH-]C(=O)c1cc2ccc(CC(=O)OCCO)cc2n1C(=O)[NH+]1CCC(C(=O)[O-])CC1 (protonated)
[NH-]C(=O)c1cc2ccc(CC(=O)OCCO)cc2n1C(=O)[NH+]1CCC(C(=O)[O-])CC1 (3D coordinates assigned)
[NH-]C(=O)c1cc2ccc(CC(=O)OCCO)cc2n1C(=O)[NH+]1CCC(C(=O)[O-])CC1 (nonaromatic ring conformer: 97.15463433749181 kcal/mol)

>  <smiles>  (97) 
NC(=O)c1cc2ccc(CC(=O)OCCO)cc2n1C(=O)N1CCC(C(=O)O)CC1

>  <score_type>  (97) 
oracle

>  <origin>  (97) 
adg

>  <m_score__min__energy>  (97) 
-12.84

>  <m_primary>  (97) 
energy

$$$$
