0:0
     RDKit          3D

 48 49  0  0  0  0  0  0  0  0999 V2000
   -5.3360   15.9940  -32.9800 C   0  0  0  0  0  0  0  0  0  0  0  0
   -5.2590   17.1170  -33.9200 N   0  0  0  0  0  0  0  0  0  0  0  0
   -4.2610   17.1050  -34.9950 C   0  0  0  0  0  0  0  0  0  0  0  0
   -6.1550   18.2460  -33.8120 C   0  0  0  0  0  0  0  0  0  0  0  0
   -6.0760   19.1860  -34.6510 O   0  0  0  0  0  0  0  0  0  0  0  0
   -7.1700   18.3640  -32.7040 C   0  0  0  0  0  0  0  0  0  0  0  0
   -7.3430   19.7970  -32.2720 C   0  0  0  0  0  0  0  0  0  0  0  0
   -8.6270   20.4010  -32.2930 C   0  0  0  0  0  0  0  0  0  0  0  0
   -8.7980   21.7360  -31.8900 C   0  0  0  0  0  0  0  0  0  0  0  0
   -7.6710   22.4460  -31.4900 C   0  0  0  0  0  0  0  0  0  0  0  0
   -7.5580   23.7350  -31.0210 C   0  0  0  0  0  0  0  0  0  0  0  0
   -6.2030   23.9140  -30.7590 C   0  0  0  0  0  0  0  0  0  0  0  0
   -5.6260   25.1900  -30.2890 C   0  0  0  0  0  0  0  0  0  0  0  0
   -4.2670   25.5340  -30.5640 N   0  0  0  0  0  0  0  0  0  0  0  0
   -6.3600   26.0130  -29.6810 O   0  0  0  0  0  0  0  0  0  0  0  0
   -5.5040   22.7780  -31.0410 N   0  0  0  0  0  0  0  0  0  0  0  0
   -4.1130   22.5200  -30.7940 C   0  0  0  0  0  0  0  0  0  0  0  0
   -3.2450   22.9550  -31.5980 O   0  0  0  0  0  0  0  0  0  0  0  0
   -3.7390   21.7900  -29.6560 O   0  0  0  0  0  0  0  0  0  0  0  0
   -3.1210   22.3160  -28.4730 C   0  0  0  0  0  0  0  0  0  0  0  0
   -1.9500   23.1990  -28.9300 C   0  0  0  0  0  0  0  0  0  0  0  0
   -4.1170   23.1790  -27.6780 C   0  0  0  0  0  0  0  0  0  0  0  0
   -2.5690   21.1730  -27.5990 C   0  0  0  0  0  0  0  0  0  0  0  0
   -6.4170   21.8890  -31.4910 C   0  0  0  0  0  0  0  0  0  0  0  0
   -6.2210   20.5550  -31.8690 C   0  0  0  0  0  0  0  0  0  0  0  0
   -5.3098   16.3764  -31.9489 H   0  0  0  0  0  0  0  0  0  0  0  0
   -6.2740   15.4431  -33.1430 H   0  0  0  0  0  0  0  0  0  0  0  0
   -4.4819   15.3202  -33.1430 H   0  0  0  0  0  0  0  0  0  0  0  0
   -3.2516   17.0929  -34.5581 H   0  0  0  0  0  0  0  0  0  0  0  0
   -4.4023   16.2085  -35.6165 H   0  0  0  0  0  0  0  0  0  0  0  0
   -4.3807   18.0046  -35.6165 H   0  0  0  0  0  0  0  0  0  0  0  0
   -8.1364   17.9778  -33.0604 H   0  0  0  0  0  0  0  0  0  0  0  0
   -6.8129   17.7816  -31.8418 H   0  0  0  0  0  0  0  0  0  0  0  0
   -9.4974   19.8179  -32.6283 H   0  0  0  0  0  0  0  0  0  0  0  0
   -9.7929   22.2053  -31.8908 H   0  0  0  0  0  0  0  0  0  0  0  0
   -8.3666   24.4678  -30.8827 H   0  0  0  0  0  0  0  0  0  0  0  0
   -3.6840   24.9570  -31.2100 H   0  0  0  0  0  0  0  0  0  0  0  0
   -3.8650   26.4200  -30.1880 H   0  0  0  0  0  0  0  0  0  0  0  0
   -1.4242   23.5955  -28.0489 H   0  0  0  0  0  0  0  0  0  0  0  0
   -1.2529   22.5998  -29.5342 H   0  0  0  0  0  0  0  0  0  0  0  0
   -2.3344   24.0340  -29.5342 H   0  0  0  0  0  0  0  0  0  0  0  0
   -3.9494   23.0338  -26.6006 H   0  0  0  0  0  0  0  0  0  0  0  0
   -3.9686   24.2388  -27.9326 H   0  0  0  0  0  0  0  0  0  0  0  0
   -5.1449   22.8812  -27.9326 H   0  0  0  0  0  0  0  0  0  0  0  0
   -2.6934   21.4307  -26.5369 H   0  0  0  0  0  0  0  0  0  0  0  0
   -3.1185   20.2457  -27.8181 H   0  0  0  0  0  0  0  0  0  0  0  0
   -1.5010   21.0268  -27.8181 H   0  0  0  0  0  0  0  0  0  0  0  0
   -5.2163   20.1075  -31.8525 H   0  0  0  0  0  0  0  0  0  0  0  0
  1  2  1  0
  2  3  1  0
  2  4  1  0
  4  5  2  0
  4  6  1  0
  6  7  1  0
  7  8  2  0
  8  9  1  0
  9 10  2  0
 10 11  1  0
 11 12  2  0
 12 13  1  0
 13 14  1  0
 13 15  2  0
 12 16  1  0
 16 17  1  0
 17 18  2  0
 17 19  1  0
 19 20  1  0
 20 21  1  0
 20 22  1  0
 20 23  1  0
 16 24  1  0
 24 25  2  0
 25  7  1  0
 24 10  1  0
  1 26  1  0
  1 27  1  0
  1 28  1  0
  3 29  1  0
  3 30  1  0
  3 31  1  0
  6 32  1  0
  6 33  1  0
  8 34  1  0
  9 35  1  0
 11 36  1  0
 14 37  1  0
 14 38  1  0
 21 39  1  0
 21 40  1  0
 21 41  1  0
 22 42  1  0
 22 43  1  0
 22 44  1  0
 23 45  1  0
 23 46  1  0
 23 47  1  0
 25 48  1  0
M  END
>  <UniqueID>  (1) 
1

>  <SMILES>  (1) 
CN(C)C(=O)Cc1ccc2cc(C(N)=O)n(C(=O)OC(C)(C)C)c2c1

>  <Energy>  (1) 
77.96425818788813

>  <Genealogy>  (1) 
CN(C)C(=O)Cc1ccc2cc(C(N)=O)n(C(=O)OC(C)(C)C)c2c1 (3D coordinates assigned)
CN(C)C(=O)Cc1ccc2cc(C(N)=O)n(C(=O)OC(C)(C)C)c2c1 (optimized conformer: 77.96425818788813 kcal/mol)

>  <smiles>  (1) 
CN(C)C(=O)Cc1ccc2cc(C(N)=O)n(C(=O)OC(C)(C)C)c2c1

>  <score_type>  (1) 
oracle

>  <origin>  (1) 
adg

>  <m_score__min__energy>  (1) 
-9.3800000000000008

>  <m_primary>  (1) 
energy

$$$$
1:0
     RDKit          3D

 51 54  0  0  0  0  0  0  0  0999 V2000
   -5.7290   18.3360  -34.5780 C   0  0  0  0  0  0  0  0  0  0  0  0
   -6.2040   17.4830  -33.5440 O   0  0  0  0  0  0  0  0  0  0  0  0
   -6.9360   17.9600  -32.4520 C   0  0  0  0  0  0  0  0  0  0  0  0
   -6.5530   17.7340  -31.2700 O   0  0  0  0  0  0  0  0  0  0  0  0
   -8.1730   18.7660  -32.6890 C   0  0  0  0  0  0  0  0  0  0  0  0
   -8.0020   20.1550  -32.1420 C   0  0  0  0  0  0  0  0  0  0  0  0
   -9.1340   20.9120  -31.7460 C   0  0  0  0  0  0  0  0  0  0  0  0
   -8.9850   22.2260  -31.2730 C   0  0  0  0  0  0  0  0  0  0  0  0
   -7.6990   22.7570  -31.2130 C   0  0  0  0  0  0  0  0  0  0  0  0
   -7.2750   24.0090  -30.8310 C   0  0  0  0  0  0  0  0  0  0  0  0
   -5.8890   23.9970  -30.9950 C   0  0  0  0  0  0  0  0  0  0  0  0
   -4.9990   25.1210  -30.6210 C   0  0  0  0  0  0  0  0  0  0  0  0
   -3.7040   24.8750  -30.0710 N   0  0  0  0  0  0  0  0  0  0  0  0
   -5.3660   26.3090  -30.8160 O   0  0  0  0  0  0  0  0  0  0  0  0
   -5.4770   22.7840  -31.4610 N   0  0  0  0  0  0  0  0  0  0  0  0
   -4.1460   22.3830  -31.8240 C   0  0  0  0  0  0  0  0  0  0  0  0
   -3.8050   22.3560  -33.0390 O   0  0  0  0  0  0  0  0  0  0  0  0
   -3.2410   22.0020  -30.8270 O   0  0  0  0  0  0  0  0  0  0  0  0
   -1.8470   22.2980  -30.8830 C   0  0  0  0  0  0  0  0  0  0  0  0
   -1.4260   23.0430  -29.6510 C   0  0  0  0  0  0  0  0  0  0  0  0
   -1.2430   24.3440  -29.6160 O   0  0  0  0  0  0  0  0  0  0  0  0
   -0.7860   24.6170  -28.4180 C   0  0  0  0  0  0  0  0  0  0  0  0
   -0.4960   25.7780  -28.0300 O   0  0  0  0  0  0  0  0  0  0  0  0
   -0.6560   23.5450  -27.6720 O   0  0  0  0  0  0  0  0  0  0  0  0
   -1.0570   22.5360  -28.4110 C   0  0  0  0  0  0  0  0  0  0  0  0
   -1.0620   21.1370  -27.9470 C   0  0  0  0  0  0  0  0  0  0  0  0
   -0.0380   20.2470  -28.3140 C   0  0  0  0  0  0  0  0  0  0  0  0
   -0.0630   18.9220  -27.8640 C   0  0  0  0  0  0  0  0  0  0  0  0
   -1.1140   18.4740  -27.0620 C   0  0  0  0  0  0  0  0  0  0  0  0
   -2.1540   19.3450  -26.7200 C   0  0  0  0  0  0  0  0  0  0  0  0
   -2.1300   20.6720  -27.1640 C   0  0  0  0  0  0  0  0  0  0  0  0
   -6.5950   22.0360  -31.5870 C   0  0  0  0  0  0  0  0  0  0  0  0
   -6.7150   20.7300  -32.0750 C   0  0  0  0  0  0  0  0  0  0  0  0
   -5.2397   19.2147  -34.1326 H   0  0  0  0  0  0  0  0  0  0  0  0
   -5.0053   17.7896  -35.2006 H   0  0  0  0  0  0  0  0  0  0  0  0
   -6.5746   18.6635  -35.2006 H   0  0  0  0  0  0  0  0  0  0  0  0
   -8.3676   18.8230  -33.7701 H   0  0  0  0  0  0  0  0  0  0  0  0
   -9.0191   18.2819  -32.1793 H   0  0  0  0  0  0  0  0  0  0  0  0
  -10.1375   20.4661  -31.8099 H   0  0  0  0  0  0  0  0  0  0  0  0
   -9.8576   22.8178  -30.9594 H   0  0  0  0  0  0  0  0  0  0  0  0
   -7.8966   24.8427  -30.4724 H   0  0  0  0  0  0  0  0  0  0  0  0
   -3.3840   23.9080  -29.8460 H   0  0  0  0  0  0  0  0  0  0  0  0
   -3.0710   25.6730  -29.8450 H   0  0  0  0  0  0  0  0  0  0  0  0
   -1.2785   21.3588  -30.9518 H   0  0  0  0  0  0  0  0  0  0  0  0
   -1.6478   22.9229  -31.7661 H   0  0  0  0  0  0  0  0  0  0  0  0
    0.7852   20.5927  -28.9565 H   0  0  0  0  0  0  0  0  0  0  0  0
    0.7472   18.2322  -28.1429 H   0  0  0  0  0  0  0  0  0  0  0  0
   -1.1245   17.4358  -26.6988 H   0  0  0  0  0  0  0  0  0  0  0  0
   -2.9906   18.9868  -26.1021 H   0  0  0  0  0  0  0  0  0  0  0  0
   -2.9516   21.3534  -26.8982 H   0  0  0  0  0  0  0  0  0  0  0  0
   -5.8280   20.1655  -32.3984 H   0  0  0  0  0  0  0  0  0  0  0  0
  1  2  1  0
  2  3  1  0
  3  4  2  0
  3  5  1  0
  5  6  1  0
  6  7  2  0
  7  8  1  0
  8  9  2  0
  9 10  1  0
 10 11  2  0
 11 12  1  0
 12 13  1  0
 12 14  2  0
 11 15  1  0
 15 16  1  0
 16 17  2  0
 16 18  1  0
 18 19  1  0
 19 20  1  0
 20 21  1  0
 21 22  1  0
 22 23  2  0
 22 24  1  0
 24 25  1  0
 25 26  1  0
 26 27  2  0
 27 28  1  0
 28 29  2  0
 29 30  1  0
 30 31  2  0
 15 32  1  0
 32 33  2  0
 33  6  1  0
 32  9  1  0
 25 20  2  0
 31 26  1  0
  1 34  1  0
  1 35  1  0
  1 36  1  0
  5 37  1  0
  5 38  1  0
  7 39  1  0
  8 40  1  0
 10 41  1  0
 13 42  1  0
 13 43  1  0
 19 44  1  0
 19 45  1  0
 27 46  1  0
 28 47  1  0
 29 48  1  0
 30 49  1  0
 31 50  1  0
 33 51  1  0
M  END
>  <UniqueID>  (2) 
2

>  <SMILES>  (2) 
COC(=O)Cc1ccc2cc(C(N)=O)n(C(=O)OCc3oc(=O)oc3-c3ccccc3)c2c1

>  <Energy>  (2) 
125.7500829774124

>  <Genealogy>  (2) 
COC(=O)Cc1ccc2cc(C(N)=O)n(C(=O)OCc3oc(=O)oc3-c3ccccc3)c2c1 (3D coordinates assigned)
COC(=O)Cc1ccc2cc(C(N)=O)n(C(=O)OCc3oc(=O)oc3-c3ccccc3)c2c1 (optimized conformer: 125.7500829774124 kcal/mol)

>  <smiles>  (2) 
COC(=O)Cc1ccc2cc(C(N)=O)n(C(=O)OCc3oc(=O)oc3-c3ccccc3)c2c1

>  <score_type>  (2) 
oracle

>  <origin>  (2) 
adg

>  <m_score__min__energy>  (2) 
-10.779999999999999

>  <m_primary>  (2) 
energy

$$$$
2:0
     RDKit          3D

 44 45  0  0  0  0  0  0  0  0999 V2000
   -4.9270   18.3530  -34.2040 C   0  0  0  0  0  0  0  0  0  0  0  0
   -6.1060   17.5840  -34.1010 O   0  0  0  0  0  0  0  0  0  0  0  0
   -6.3140   17.1740  -32.7620 C   0  0  0  0  0  0  0  0  0  0  0  0
   -7.4910   17.9420  -32.1500 C   0  0  0  0  0  0  0  0  0  0  0  0
   -8.0240   18.9280  -33.1020 N   0  0  0  0  0  0  0  0  0  0  0  0
   -7.9430   20.2510  -32.5360 C   0  0  0  0  0  0  0  0  0  0  0  0
   -9.1240   20.9290  -32.1300 C   0  0  0  0  0  0  0  0  0  0  0  0
   -9.0550   22.2100  -31.5550 C   0  0  0  0  0  0  0  0  0  0  0  0
   -7.7960   22.7790  -31.3820 C   0  0  0  0  0  0  0  0  0  0  0  0
   -7.4400   24.0080  -30.8710 C   0  0  0  0  0  0  0  0  0  0  0  0
   -6.0480   24.0500  -30.9450 C   0  0  0  0  0  0  0  0  0  0  0  0
   -5.2330   25.1870  -30.4660 C   0  0  0  0  0  0  0  0  0  0  0  0
   -3.8650   25.3220  -30.8440 N   0  0  0  0  0  0  0  0  0  0  0  0
   -5.7450   26.0410  -29.6940 O   0  0  0  0  0  0  0  0  0  0  0  0
   -5.5670   22.8910  -31.4760 N   0  0  0  0  0  0  0  0  0  0  0  0
   -4.2010   22.5650  -31.7750 C   0  0  0  0  0  0  0  0  0  0  0  0
   -3.8700   22.3770  -32.9750 O   0  0  0  0  0  0  0  0  0  0  0  0
   -3.2110   22.4370  -30.6780 C   0  0  0  0  0  0  0  0  0  0  0  0
   -3.4030   23.1100  -29.6280 O   0  0  0  0  0  0  0  0  0  0  0  0
   -2.0470   21.5820  -30.7600 N   0  0  0  0  0  0  0  0  0  0  0  0
   -1.3410   21.2400  -29.5200 C   0  0  0  0  0  0  0  0  0  0  0  0
   -1.5100   21.1250  -32.0460 C   0  0  0  0  0  0  0  0  0  0  0  0
   -6.6470   22.1280  -31.7440 C   0  0  0  0  0  0  0  0  0  0  0  0
   -6.6850   20.8630  -32.3360 C   0  0  0  0  0  0  0  0  0  0  0  0
   -4.5573   18.5941  -33.1964 H   0  0  0  0  0  0  0  0  0  0  0  0
   -4.1617   17.7798  -34.7479 H   0  0  0  0  0  0  0  0  0  0  0  0
   -5.1431   19.2844  -34.7479 H   0  0  0  0  0  0  0  0  0  0  0  0
   -6.5335   16.0963  -32.7419 H   0  0  0  0  0  0  0  0  0  0  0  0
   -5.4060   17.3833  -32.1774 H   0  0  0  0  0  0  0  0  0  0  0  0
   -8.2868   17.2304  -31.8847 H   0  0  0  0  0  0  0  0  0  0  0  0
   -7.1372   18.4731  -31.2540 H   0  0  0  0  0  0  0  0  0  0  0  0
   -7.4760   18.8930  -33.9940 H   0  0  0  0  0  0  0  0  0  0  0  0
   -9.0220   18.7010  -33.3260 H   0  0  0  0  0  0  0  0  0  0  0  0
  -10.1029   20.4463  -32.2671 H   0  0  0  0  0  0  0  0  0  0  0  0
   -9.9665   22.7457  -31.2514 H   0  0  0  0  0  0  0  0  0  0  0  0
   -8.1112   24.7900  -30.4863 H   0  0  0  0  0  0  0  0  0  0  0  0
   -3.1010   25.2330  -30.1380 H   0  0  0  0  0  0  0  0  0  0  0  0
   -1.9533   21.5366  -28.6557 H   0  0  0  0  0  0  0  0  0  0  0  0
   -1.1618   20.1552  -29.4874 H   0  0  0  0  0  0  0  0  0  0  0  0
   -0.3786   21.7718  -29.4874 H   0  0  0  0  0  0  0  0  0  0  0  0
   -0.6832   20.4214  -31.8689 H   0  0  0  0  0  0  0  0  0  0  0  0
   -2.3041   20.6214  -32.6168 H   0  0  0  0  0  0  0  0  0  0  0  0
   -1.1399   21.9894  -32.6168 H   0  0  0  0  0  0  0  0  0  0  0  0
   -5.7575   20.3553  -32.6393 H   0  0  0  0  0  0  0  0  0  0  0  0
  1  2  1  0
  2  3  1  0
  3  4  1  0
  4  5  1  0
  5  6  1  0
  6  7  2  0
  7  8  1  0
  8  9  2  0
  9 10  1  0
 10 11  2  0
 11 12  1  0
 12 13  1  0
 12 14  2  0
 11 15  1  0
 15 16  1  0
 16 17  2  0
 16 18  1  0
 18 19  2  0
 18 20  1  0
 20 21  1  0
 20 22  1  0
 15 23  1  0
 23 24  2  0
 24  6  1  0
 23  9  1  0
  1 25  1  0
  1 26  1  0
  1 27  1  0
  3 28  1  0
  3 29  1  0
  4 30  1  0
  4 31  1  0
  5 32  1  0
  5 33  1  0
  7 34  1  0
  8 35  1  0
 10 36  1  0
 13 37  1  0
 21 38  1  0
 21 39  1  0
 21 40  1  0
 22 41  1  0
 22 42  1  0
 22 43  1  0
 24 44  1  0
M  CHG  2   5   1  13  -1
M  END
>  <UniqueID>  (3) 
3

>  <SMILES>  (3) 
COCC[NH2+]c1ccc2cc(C([NH-])=O)n(C(=O)C(=O)N(C)C)c2c1

>  <Energy>  (3) 
84.28364704085796

>  <Genealogy>  (3) 
COCC[NH2+]c1ccc2cc(C([NH-])=O)n(C(=O)C(=O)N(C)C)c2c1 (protonated)
COCC[NH2+]c1ccc2cc(C([NH-])=O)n(C(=O)C(=O)N(C)C)c2c1 (3D coordinates assigned)
COCC[NH2+]c1ccc2cc(C([NH-])=O)n(C(=O)C(=O)N(C)C)c2c1 (optimized conformer: 84.28364704085796 kcal/mol)

>  <smiles>  (3) 
COCCNc1ccc2cc(C(N)=O)n(C(=O)C(=O)N(C)C)c2c1

>  <score_type>  (3) 
oracle

>  <origin>  (3) 
adg

>  <m_score__min__energy>  (3) 
-9.7300000000000004

>  <m_primary>  (3) 
energy

$$$$
3:0
     RDKit          3D

 54 56  0  0  0  0  0  0  0  0999 V2000
   -3.4910   25.0720  -30.4910 N   0  0  0  0  0  0  0  0  0  0  0  0
   -4.9060   25.2080  -30.6120 C   0  0  0  0  0  0  0  0  0  0  0  0
   -5.4310   26.3440  -30.4610 O   0  0  0  0  0  0  0  0  0  0  0  0
   -5.7600   24.0450  -30.9430 C   0  0  0  0  0  0  0  0  0  0  0  0
   -7.1550   24.0840  -30.9380 C   0  0  0  0  0  0  0  0  0  0  0  0
   -7.5550   22.8360  -31.3620 C   0  0  0  0  0  0  0  0  0  0  0  0
   -8.8350   22.3150  -31.5370 C   0  0  0  0  0  0  0  0  0  0  0  0
   -8.9500   20.9820  -31.9740 C   0  0  0  0  0  0  0  0  0  0  0  0
   -7.7930   20.2030  -32.2280 C   0  0  0  0  0  0  0  0  0  0  0  0
   -7.9290   18.7700  -32.6770 C   0  0  0  0  0  0  0  0  0  0  0  0
   -6.7280   17.9300  -32.2390 C   0  0  0  0  0  0  0  0  0  0  0  0
   -6.7160   17.7950  -30.8420 O   0  0  0  0  0  0  0  0  0  0  0  0
   -6.5080   20.7630  -32.0260 C   0  0  0  0  0  0  0  0  0  0  0  0
   -6.4280   22.0940  -31.6050 C   0  0  0  0  0  0  0  0  0  0  0  0
   -5.3200   22.8210  -31.3470 N   0  0  0  0  0  0  0  0  0  0  0  0
   -3.9640   22.3660  -31.4670 C   0  0  0  0  0  0  0  0  0  0  0  0
   -3.4140   22.3440  -32.6020 O   0  0  0  0  0  0  0  0  0  0  0  0
   -3.2520   21.9400  -30.2960 N   0  0  0  0  0  0  0  0  0  0  0  0
   -1.9440   21.3540  -30.3170 C   0  0  0  0  0  0  0  0  0  0  0  0
   -1.2910   21.2730  -31.3950 O   0  0  0  0  0  0  0  0  0  0  0  0
   -1.4070   20.8530  -29.1280 O   0  0  0  0  0  0  0  0  0  0  0  0
   -1.3350   21.6150  -27.9280 C   0  0  0  0  0  0  0  0  0  0  0  0
   -2.6250   22.1180  -27.5990 O   0  0  0  0  0  0  0  0  0  0  0  0
   -2.8900   23.4860  -27.4650 C   0  0  0  0  0  0  0  0  0  0  0  0
   -3.8990   23.9990  -28.0280 O   0  0  0  0  0  0  0  0  0  0  0  0
   -2.0010   24.3550  -26.6020 C   0  0  2  0  0  0  0  0  0  0  0  0
   -2.7050   25.5800  -26.0280 C   0  0  0  0  0  0  0  0  0  0  0  0
   -1.5800   26.5730  -25.7750 C   0  0  0  0  0  0  0  0  0  0  0  0
   -0.3460   25.9930  -26.4720 C   0  0  0  0  0  0  0  0  0  0  0  0
   -0.7850   24.8420  -27.2800 N   0  0  2  0  0  0  0  0  0  0  0  0
   -1.0050   25.2360  -28.6580 C   0  0  0  0  0  0  0  0  0  0  0  0
   -1.2400   26.4390  -28.9600 O   0  0  0  0  0  0  0  0  0  0  0  0
   -0.9980   24.2750  -29.6620 O   0  0  0  0  0  0  0  0  0  0  0  0
   -3.0030   25.3010  -29.5940 H   0  0  0  0  0  0  0  0  0  0  0  0
   -7.7979   24.9307  -30.6557 H   0  0  0  0  0  0  0  0  0  0  0  0
   -9.7280   22.9263  -31.3398 H   0  0  0  0  0  0  0  0  0  0  0  0
   -9.9469   20.5405  -32.1198 H   0  0  0  0  0  0  0  0  0  0  0  0
   -8.8430   18.3431  -32.2385 H   0  0  0  0  0  0  0  0  0  0  0  0
   -7.9787   18.7554  -33.7758 H   0  0  0  0  0  0  0  0  0  0  0  0
   -6.7938   16.9334  -32.7000 H   0  0  0  0  0  0  0  0  0  0  0  0
   -5.8028   18.4311  -32.5597 H   0  0  0  0  0  0  0  0  0  0  0  0
   -6.2050   16.9640  -30.6530 H   0  0  0  0  0  0  0  0  0  0  0  0
   -5.5986   20.1678  -32.1955 H   0  0  0  0  0  0  0  0  0  0  0  0
   -3.7430   21.9910  -29.3760 H   0  0  0  0  0  0  0  0  0  0  0  0
   -0.9730   20.9749  -27.1100 H   0  0  0  0  0  0  0  0  0  0  0  0
   -0.6426   22.4573  -28.0733 H   0  0  0  0  0  0  0  0  0  0  0  0
   -1.7230   23.6630  -25.7933 H   0  0  0  0  0  0  0  0  0  0  0  0
   -3.4297   25.9868  -26.7486 H   0  0  0  0  0  0  0  0  0  0  0  0
   -3.2760   25.3492  -25.1166 H   0  0  0  0  0  0  0  0  0  0  0  0
   -1.8335   27.5554  -26.2001 H   0  0  0  0  0  0  0  0  0  0  0  0
   -1.4050   26.7206  -24.6991 H   0  0  0  0  0  0  0  0  0  0  0  0
    0.1093   26.7547  -27.1220 H   0  0  0  0  0  0  0  0  0  0  0  0
    0.4024   25.6785  -25.7297 H   0  0  0  0  0  0  0  0  0  0  0  0
   -0.0490   24.0960  -27.2580 H   0  0  0  0  0  0  0  0  0  0  0  0
  1  2  1  0
  2  3  2  0
  2  4  1  0
  4  5  2  0
  5  6  1  0
  6  7  2  0
  7  8  1  0
  8  9  2  0
  9 10  1  0
 10 11  1  0
 11 12  1  0
  9 13  1  0
 13 14  2  0
 14 15  1  0
 15 16  1  0
 16 17  2  0
 16 18  1  0
 18 19  1  0
 19 20  2  0
 19 21  1  0
 21 22  1  0
 22 23  1  0
 23 24  1  0
 24 25  2  0
 24 26  1  0
 26 27  1  0
 27 28  1  0
 28 29  1  0
 29 30  1  0
 30 31  1  0
 31 32  2  0
 31 33  1  0
 15  4  1  0
 30 26  1  0
 14  6  1  0
  1 34  1  0
  5 35  1  0
  7 36  1  0
  8 37  1  0
 10 38  1  0
 10 39  1  0
 11 40  1  0
 11 41  1  0
 12 42  1  0
 13 43  1  0
 18 44  1  0
 22 45  1  0
 22 46  1  0
 26 47  1  1
 27 48  1  0
 27 49  1  0
 28 50  1  0
 28 51  1  0
 29 52  1  0
 29 53  1  0
 30 54  1  6
M  CHG  3   1  -1  30   1  33  -1
M  END
>  <UniqueID>  (4) 
4

>  <SMILES>  (4) 
[NH-]C(=O)c1cc2ccc(CCO)cc2n1C(=O)NC(=O)OCOC(=O)[C@@H]1CCC[N@@H+]1C(=O)[O-]

>  <Energy>  (4) 
96.50809732083714

>  <Genealogy>  (4) 
[NH-]C(=O)c1cc2ccc(CCO)cc2n1C(=O)NC(=O)OCOC(=O)C1CCC[NH+]1C(=O)[O-] (protonated)
[NH-]C(=O)c1cc2ccc(CCO)cc2n1C(=O)NC(=O)OCOC(=O)[C@@H]1CCC[N@@H+]1C(=O)[O-] (chirality)
[NH-]C(=O)c1cc2ccc(CCO)cc2n1C(=O)NC(=O)OCOC(=O)[C@@H]1CCC[N@@H+]1C(=O)[O-] (3D coordinates assigned)
[NH-]C(=O)c1cc2ccc(CCO)cc2n1C(=O)NC(=O)OCOC(=O)[C@@H]1CCC[N@@H+]1C(=O)[O-] (nonaromatic ring conformer: 96.50809732083714 kcal/mol)

>  <smiles>  (4) 
NC(=O)c1cc2ccc(CCO)cc2n1C(=O)NC(=O)OCOC(=O)C1CCCN1C(=O)O

>  <score_type>  (4) 
oracle

>  <origin>  (4) 
adg

>  <m_score__min__energy>  (4) 
-12.42

>  <m_primary>  (4) 
energy

$$$$
4:0
     RDKit          3D

 49 50  0  0  0  0  0  0  0  0999 V2000
   -7.2280   15.3090  -34.8410 H   0  0  0  0  0  0  0  0  0  0  0  0
   -7.1710   16.2490  -34.5280 O   0  0  0  0  0  0  0  0  0  0  0  0
   -5.9320   16.3990  -33.8850 C   0  0  0  0  0  0  0  0  0  0  0  0
   -5.1441   16.5037  -34.6454 H   0  0  0  0  0  0  0  0  0  0  0  0
   -5.7551   15.5107  -33.2609 H   0  0  0  0  0  0  0  0  0  0  0  0
   -5.9200   17.6430  -32.9750 C   0  0  1  0  0  0  0  0  0  0  0  0
   -4.9397   18.1308  -33.0802 H   0  0  0  0  0  0  0  0  0  0  0  0
   -6.9590   18.5990  -33.3830 N   0  0  0  0  0  0  0  0  0  0  0  0
   -7.5750   18.3490  -34.1890 H   0  0  0  0  0  0  0  0  0  0  0  0
   -7.2010   19.8680  -32.7410 C   0  0  0  0  0  0  0  0  0  0  0  0
   -8.5100   20.2950  -32.3820 C   0  0  0  0  0  0  0  0  0  0  0  0
   -9.3727   19.6513  -32.6086 H   0  0  0  0  0  0  0  0  0  0  0  0
   -8.7140   21.5280  -31.7420 C   0  0  0  0  0  0  0  0  0  0  0  0
   -9.7245   21.8587  -31.4599 H   0  0  0  0  0  0  0  0  0  0  0  0
   -7.6020   22.3190  -31.4750 C   0  0  0  0  0  0  0  0  0  0  0  0
   -7.5120   23.5380  -30.8430 C   0  0  0  0  0  0  0  0  0  0  0  0
   -8.3367   24.1375  -30.4302 H   0  0  0  0  0  0  0  0  0  0  0  0
   -6.1530   23.8520  -30.8370 C   0  0  0  0  0  0  0  0  0  0  0  0
   -5.5910   25.1170  -30.3100 C   0  0  0  0  0  0  0  0  0  0  0  0
   -4.6240   25.6720  -30.8970 O   0  0  0  0  0  0  0  0  0  0  0  0
   -6.1430   25.7370  -29.1470 N   0  0  0  0  0  0  0  0  0  0  0  0
   -6.9010   25.2810  -28.5930 H   0  0  0  0  0  0  0  0  0  0  0  0
   -5.7610   26.6480  -28.8090 H   0  0  0  0  0  0  0  0  0  0  0  0
   -5.4360   22.8670  -31.4450 N   0  0  0  0  0  0  0  0  0  0  0  0
   -4.0090   22.7910  -31.5950 C   0  0  0  0  0  0  0  0  0  0  0  0
   -3.2760   23.4950  -30.8520 O   0  0  0  0  0  0  0  0  0  0  0  0
   -3.4290   21.9070  -32.6350 C   0  0  0  0  0  0  0  0  0  0  0  0
   -3.7559   22.0797  -33.6710 H   0  0  0  0  0  0  0  0  0  0  0  0
   -2.5410   20.9130  -32.4360 C   0  0  0  0  0  0  0  0  0  0  0  0
   -2.1090   20.1350  -33.5640 N   0  0  0  0  0  0  0  0  0  0  0  0
   -0.8950   20.5240  -34.2870 C   0  0  0  0  0  0  0  0  0  0  0  0
   -0.1040   20.7774  -33.5658 H   0  0  0  0  0  0  0  0  0  0  0  0
   -0.5608   19.6880  -34.9189 H   0  0  0  0  0  0  0  0  0  0  0  0
   -1.1089   21.3986  -34.9189 H   0  0  0  0  0  0  0  0  0  0  0  0
   -2.9000   18.9740  -33.9790 C   0  0  0  0  0  0  0  0  0  0  0  0
   -3.2634   18.4406  -33.0883 H   0  0  0  0  0  0  0  0  0  0  0  0
   -3.7575   19.3105  -34.5802 H   0  0  0  0  0  0  0  0  0  0  0  0
   -2.2730   18.2991  -34.5802 H   0  0  0  0  0  0  0  0  0  0  0  0
   -2.0110   20.5570  -31.0730 C   0  0  0  0  0  0  0  0  0  0  0  0
   -2.6615   20.9939  -30.3010 H   0  0  0  0  0  0  0  0  0  0  0  0
   -1.9929   19.4629  -30.9609 H   0  0  0  0  0  0  0  0  0  0  0  0
   -0.9913   20.9540  -30.9609 H   0  0  0  0  0  0  0  0  0  0  0  0
   -6.3360   21.9330  -31.8250 C   0  0  0  0  0  0  0  0  0  0  0  0
   -6.1000   20.7000  -32.4430 C   0  0  0  0  0  0  0  0  0  0  0  0
   -5.0759   20.3849  -32.6920 H   0  0  0  0  0  0  0  0  0  0  0  0
   -6.1080   17.2440  -31.5050 C   0  0  0  0  0  0  0  0  0  0  0  0
   -5.7295   18.0473  -30.8558 H   0  0  0  0  0  0  0  0  0  0  0  0
   -7.1771   17.0822  -31.3028 H   0  0  0  0  0  0  0  0  0  0  0  0
   -5.5521   16.3166  -31.3028 H   0  0  0  0  0  0  0  0  0  0  0  0
  1  2  1  0
  2  3  1  0
  3  4  1  0
  3  5  1  0
  3  6  1  0
  6  7  1  1
  6  8  1  0
  8  9  1  0
  8 10  1  0
 10 11  2  0
 11 12  1  0
 11 13  1  0
 13 14  1  0
 13 15  2  0
 15 16  1  0
 16 17  1  0
 16 18  2  0
 18 19  1  0
 19 20  2  0
 19 21  1  0
 21 22  1  0
 21 23  1  0
 18 24  1  0
 24 25  1  0
 25 26  2  0
 25 27  1  0
 27 28  1  0
 27 29  2  0
 29 30  1  0
 30 31  1  0
 31 32  1  0
 31 33  1  0
 31 34  1  0
 30 35  1  0
 35 36  1  0
 35 37  1  0
 35 38  1  0
 29 39  1  0
 39 40  1  0
 39 41  1  0
 39 42  1  0
 24 43  1  0
 43 44  2  0
 44 45  1  0
  6 46  1  0
 46 47  1  0
 46 48  1  0
 46 49  1  0
 44 10  1  0
 43 15  1  0
M  END
>  <UniqueID>  (5) 
5

>  <SMILES>  (5) 
C/C(=C\C(=O)n1c(C(N)=O)cc2ccc(N[C@@H](C)CO)cc21)N(C)C

>  <Energy>  (5) 
89.55825403185061

>  <Genealogy>  (5) 
CC(=CC(=O)n1c(C(N)=O)cc2ccc(N[C@@H](C)CO)cc21)N(C)C (chirality)
C/C(=C\C(=O)n1c(C(N)=O)cc2ccc(N[C@@H](C)CO)cc21)N(C)C (cis-trans isomerization)
C/C(=C\C(=O)n1c(C(N)=O)cc2ccc(N[C@@H](C)CO)cc21)N(C)C (3D coordinates assigned)
C/C(=C\C(=O)n1c(C(N)=O)cc2ccc(N[C@@H](C)CO)cc21)N(C)C (optimized conformer: 89.55825403185061 kcal/mol)

>  <smiles>  (5) 
CC(=CC(=O)n1c(C(N)=O)cc2ccc(NC(C)CO)cc21)N(C)C

>  <score_type>  (5) 
oracle

>  <origin>  (5) 
adg

>  <m_score__min__energy>  (5) 
-9.5

>  <m_primary>  (5) 
energy

$$$$
6:0
     RDKit          3D

 35 36  0  0  0  0  0  0  0  0999 V2000
   -4.1100   24.6320  -26.6980 C   0  0  0  0  0  0  0  0  0  0  0  0
   -4.2400   23.5920  -27.6550 O   0  0  0  0  0  0  0  0  0  0  0  0
   -3.1640   22.7660  -27.9860 C   0  0  0  0  0  0  0  0  0  0  0  0
   -2.7020   22.6750  -29.2360 C   0  0  0  0  0  0  0  0  0  0  0  0
   -3.2640   23.4240  -30.3850 C   0  0  0  0  0  0  0  0  0  0  0  0
   -3.1210   24.6740  -30.4660 O   0  0  0  0  0  0  0  0  0  0  0  0
   -4.0090   22.7180  -31.4470 C   0  0  0  0  0  0  0  0  0  0  0  0
   -3.3850   22.1300  -32.3710 O   0  0  0  0  0  0  0  0  0  0  0  0
   -5.4440   22.6550  -31.4170 N   0  0  0  0  0  0  0  0  0  0  0  0
   -6.3130   23.5810  -30.9210 C   0  0  0  0  0  0  0  0  0  0  0  0
   -5.9370   24.9180  -30.4120 C   0  0  0  0  0  0  0  0  0  0  0  0
   -5.9350   25.1960  -29.0100 N   0  0  0  0  0  0  0  0  0  0  0  0
   -5.6310   25.8380  -31.2180 O   0  0  0  0  0  0  0  0  0  0  0  0
   -7.6260   23.1270  -31.0460 C   0  0  0  0  0  0  0  0  0  0  0  0
   -7.5310   21.8900  -31.6430 C   0  0  0  0  0  0  0  0  0  0  0  0
   -8.5280   20.9940  -32.0170 C   0  0  0  0  0  0  0  0  0  0  0  0
   -8.1360   19.7850  -32.6170 C   0  0  0  0  0  0  0  0  0  0  0  0
   -6.7630   19.4830  -32.8130 C   0  0  0  0  0  0  0  0  0  0  0  0
   -6.3580   18.2010  -33.4970 C   0  0  0  0  0  0  0  0  0  0  0  0
   -7.3570   17.2500  -33.3820 F   0  0  0  0  0  0  0  0  0  0  0  0
   -6.1210   18.4200  -34.8430 F   0  0  0  0  0  0  0  0  0  0  0  0
   -5.2050   17.7180  -32.9090 F   0  0  0  0  0  0  0  0  0  0  0  0
   -5.7820   20.4320  -32.4440 C   0  0  0  0  0  0  0  0  0  0  0  0
   -6.2030   21.6300  -31.8580 C   0  0  0  0  0  0  0  0  0  0  0  0
   -4.1632   24.2068  -25.6849 H   0  0  0  0  0  0  0  0  0  0  0  0
   -3.1418   25.1362  -26.8337 H   0  0  0  0  0  0  0  0  0  0  0  0
   -4.9243   25.3590  -26.8337 H   0  0  0  0  0  0  0  0  0  0  0  0
   -2.6828   22.1730  -27.1943 H   0  0  0  0  0  0  0  0  0  0  0  0
   -1.8520   22.0027  -29.4243 H   0  0  0  0  0  0  0  0  0  0  0  0
   -6.1200   24.4480  -28.3070 H   0  0  0  0  0  0  0  0  0  0  0  0
   -5.7030   26.1540  -28.6680 H   0  0  0  0  0  0  0  0  0  0  0  0
   -8.5434   23.6473  -30.7336 H   0  0  0  0  0  0  0  0  0  0  0  0
   -9.5902   21.2249  -31.8482 H   0  0  0  0  0  0  0  0  0  0  0  0
   -8.9023   19.0643  -32.9385 H   0  0  0  0  0  0  0  0  0  0  0  0
   -4.7136   20.2329  -32.6137 H   0  0  0  0  0  0  0  0  0  0  0  0
  1  2  1  0
  2  3  1  0
  3  4  2  3
  4  5  1  0
  5  6  2  0
  5  7  1  0
  7  8  2  0
  7  9  1  0
  9 10  1  0
 10 11  1  0
 11 12  1  0
 11 13  2  0
 10 14  2  0
 14 15  1  0
 15 16  2  0
 16 17  1  0
 17 18  2  0
 18 19  1  0
 19 20  1  0
 19 21  1  0
 19 22  1  0
 18 23  1  0
 23 24  2  0
 24  9  1  0
 24 15  1  0
  1 25  1  0
  1 26  1  0
  1 27  1  0
  3 28  1  0
  4 29  1  0
 12 30  1  0
 12 31  1  0
 14 32  1  0
 16 33  1  0
 17 34  1  0
 23 35  1  0
M  END
>  <UniqueID>  (6) 
6

>  <SMILES>  (6) 
COC=CC(=O)C(=O)n1c(C(N)=O)cc2ccc(C(F)(F)F)cc21

>  <Energy>  (6) 
71.94408625450882

>  <Genealogy>  (6) 
COC=CC(=O)C(=O)n1c(C(N)=O)cc2ccc(C(F)(F)F)cc21 (3D coordinates assigned)
COC=CC(=O)C(=O)n1c(C(N)=O)cc2ccc(C(F)(F)F)cc21 (optimized conformer: 71.94408625450882 kcal/mol)

>  <smiles>  (6) 
COC=CC(=O)C(=O)n1c(C(N)=O)cc2ccc(C(F)(F)F)cc21

>  <score_type>  (6) 
oracle

>  <origin>  (6) 
adg

>  <m_score__min__energy>  (6) 
-8.9900000000000002

>  <m_primary>  (6) 
energy

$$$$
7:0
     RDKit          3D

 37 38  0  0  0  0  0  0  0  0999 V2000
   -0.8990   21.8210  -27.7440 C   0  0  0  0  0  0  0  0  0  0  0  0
   -0.4380   22.8620  -28.5960 O   0  0  0  0  0  0  0  0  0  0  0  0
   -0.7640   24.2050  -28.3880 C   0  0  0  0  0  0  0  0  0  0  0  0
    0.1400   25.0610  -28.1860 O   0  0  0  0  0  0  0  0  0  0  0  0
   -2.2010   24.6280  -28.3610 C   0  0  0  0  0  0  0  0  0  0  0  0
   -2.6760   24.9250  -29.7080 N   0  0  0  0  0  0  0  0  0  0  0  0
   -3.8810   24.3790  -30.2550 C   0  0  0  0  0  0  0  0  0  0  0  0
   -4.6390   25.0960  -30.9630 O   0  0  0  0  0  0  0  0  0  0  0  0
   -4.2310   22.9750  -29.9970 C   0  0  0  0  0  0  0  0  0  0  0  0
   -4.3020   22.5600  -28.8090 O   0  0  0  0  0  0  0  0  0  0  0  0
   -4.4860   22.0700  -31.0820 N   0  0  0  0  0  0  0  0  0  0  0  0
   -3.5790   21.5520  -31.9600 C   0  0  0  0  0  0  0  0  0  0  0  0
   -2.1120   21.7370  -31.8780 C   0  0  0  0  0  0  0  0  0  0  0  0
   -1.5220   22.4610  -30.7970 N   0  0  0  0  0  0  0  0  0  0  0  0
   -1.3660   21.2640  -32.7760 O   0  0  0  0  0  0  0  0  0  0  0  0
   -4.2260   20.7700  -32.9170 C   0  0  0  0  0  0  0  0  0  0  0  0
   -5.5640   20.8350  -32.6010 C   0  0  0  0  0  0  0  0  0  0  0  0
   -6.6640   20.2680  -33.2380 C   0  0  0  0  0  0  0  0  0  0  0  0
   -7.9410   20.5390  -32.7140 C   0  0  0  0  0  0  0  0  0  0  0  0
   -8.0910   21.3600  -31.5700 C   0  0  0  0  0  0  0  0  0  0  0  0
   -9.4580   21.6860  -31.0490 C   0  0  0  0  0  0  0  0  0  0  0  0
   -6.9530   21.9310  -30.9600 C   0  0  0  0  0  0  0  0  0  0  0  0
   -5.6950   21.6290  -31.4920 C   0  0  0  0  0  0  0  0  0  0  0  0
   -0.7663   22.1207  -26.6940 H   0  0  0  0  0  0  0  0  0  0  0  0
   -1.9649   21.6322  -27.9395 H   0  0  0  0  0  0  0  0  0  0  0  0
   -0.3225   20.9048  -27.9395 H   0  0  0  0  0  0  0  0  0  0  0  0
   -2.8085   23.8162  -27.9346 H   0  0  0  0  0  0  0  0  0  0  0  0
   -2.2913   25.5354  -27.7458 H   0  0  0  0  0  0  0  0  0  0  0  0
   -0.4890   22.6130  -30.7720 H   0  0  0  0  0  0  0  0  0  0  0  0
   -2.0930   22.8130  -29.9970 H   0  0  0  0  0  0  0  0  0  0  0  0
   -3.7642   20.2178  -33.7488 H   0  0  0  0  0  0  0  0  0  0  0  0
   -6.5386   19.6278  -34.1237 H   0  0  0  0  0  0  0  0  0  0  0  0
   -8.8309   20.1094  -33.1972 H   0  0  0  0  0  0  0  0  0  0  0  0
   -9.4417   21.6821  -29.9491 H   0  0  0  0  0  0  0  0  0  0  0  0
   -9.7594   22.6812  -31.4078 H   0  0  0  0  0  0  0  0  0  0  0  0
  -10.1761   20.9339  -31.4078 H   0  0  0  0  0  0  0  0  0  0  0  0
   -7.0529   22.5958  -30.0894 H   0  0  0  0  0  0  0  0  0  0  0  0
  1  2  1  0
  2  3  1  0
  3  4  2  0
  3  5  1  0
  5  6  1  0
  6  7  1  0
  7  8  2  0
  7  9  1  0
  9 10  2  0
  9 11  1  0
 11 12  1  0
 12 13  1  0
 13 14  1  0
 13 15  2  0
 12 16  2  0
 16 17  1  0
 17 18  2  0
 18 19  1  0
 19 20  2  0
 20 21  1  0
 20 22  1  0
 22 23  2  0
 23 11  1  0
 23 17  1  0
  1 24  1  0
  1 25  1  0
  1 26  1  0
  5 27  1  0
  5 28  1  0
 14 29  1  0
 14 30  1  0
 16 31  1  0
 18 32  1  0
 19 33  1  0
 21 34  1  0
 21 35  1  0
 21 36  1  0
 22 37  1  0
M  CHG  1   6  -1
M  END
>  <UniqueID>  (7) 
7

>  <SMILES>  (7) 
COC(=O)C[N-]C(=O)C(=O)n1c(C(N)=O)cc2ccc(C)cc21

>  <Energy>  (7) 
69.1594068090017

>  <Genealogy>  (7) 
COC(=O)C[N-]C(=O)C(=O)n1c(C(N)=O)cc2ccc(C)cc21 (protonated)
COC(=O)C[N-]C(=O)C(=O)n1c(C(N)=O)cc2ccc(C)cc21 (3D coordinates assigned)
COC(=O)C[N-]C(=O)C(=O)n1c(C(N)=O)cc2ccc(C)cc21 (optimized conformer: 69.1594068090017 kcal/mol)

>  <smiles>  (7) 
COC(=O)CNC(=O)C(=O)n1c(C(N)=O)cc2ccc(C)cc21

>  <score_type>  (7) 
oracle

>  <origin>  (7) 
adg

>  <m_score__min__energy>  (7) 
-8.8300000000000001

>  <m_primary>  (7) 
energy

$$$$
8:0
     RDKit          3D

 36 37  0  0  0  0  0  0  0  0999 V2000
   -6.7430   18.2980  -32.5570 C   0  0  0  0  0  0  0  0  0  0  0  0
   -6.9780   19.7430  -32.2320 C   0  0  0  0  0  0  0  0  0  0  0  0
   -8.2920   20.2720  -32.2580 C   0  0  0  0  0  0  0  0  0  0  0  0
   -8.5310   21.6120  -31.9080 C   0  0  0  0  0  0  0  0  0  0  0  0
   -7.4420   22.3920  -31.5320 C   0  0  0  0  0  0  0  0  0  0  0  0
   -7.3930   23.7040  -31.1200 C   0  0  0  0  0  0  0  0  0  0  0  0
   -6.0490   23.9580  -30.8530 C   0  0  0  0  0  0  0  0  0  0  0  0
   -5.5330   25.2870  -30.4610 C   0  0  0  0  0  0  0  0  0  0  0  0
   -4.2130   25.6750  -30.8380 N   0  0  0  0  0  0  0  0  0  0  0  0
   -6.2310   26.0710  -29.7660 O   0  0  0  0  0  0  0  0  0  0  0  0
   -5.2970   22.8440  -31.0830 N   0  0  0  0  0  0  0  0  0  0  0  0
   -3.8870   22.6690  -30.8770 C   0  0  0  0  0  0  0  0  0  0  0  0
   -3.0780   22.9400  -31.8050 O   0  0  0  0  0  0  0  0  0  0  0  0
   -3.4230   22.2100  -29.6340 O   0  0  0  0  0  0  0  0  0  0  0  0
   -2.8440   23.0280  -28.6090 C   0  0  0  0  0  0  0  0  0  0  0  0
   -3.9470   23.8560  -27.9180 C   0  0  0  0  0  0  0  0  0  0  0  0
   -2.2000   22.0920  -27.5790 C   0  0  0  0  0  0  0  0  0  0  0  0
   -1.7640   23.9160  -29.1880 C   0  0  0  0  0  0  0  0  0  0  0  0
   -0.6800   23.4250  -29.6020 O   0  0  0  0  0  0  0  0  0  0  0  0
   -1.9950   25.2780  -29.3440 O   0  0  0  0  0  0  0  0  0  0  0  0
   -6.1640   21.8950  -31.5020 C   0  0  0  0  0  0  0  0  0  0  0  0
   -5.8990   20.5590  -31.8290 C   0  0  0  0  0  0  0  0  0  0  0  0
   -6.6495   17.7228  -31.6240 H   0  0  0  0  0  0  0  0  0  0  0  0
   -7.5901   17.9114  -33.1427 H   0  0  0  0  0  0  0  0  0  0  0  0
   -5.8171   18.1998  -33.1427 H   0  0  0  0  0  0  0  0  0  0  0  0
   -9.1329   19.6280  -32.5549 H   0  0  0  0  0  0  0  0  0  0  0  0
   -9.5477   22.0312  -31.9306 H   0  0  0  0  0  0  0  0  0  0  0  0
   -8.2359   24.4039  -31.0221 H   0  0  0  0  0  0  0  0  0  0  0  0
   -3.4440   24.9720  -30.8980 H   0  0  0  0  0  0  0  0  0  0  0  0
   -3.8376   23.7739  -26.8265 H   0  0  0  0  0  0  0  0  0  0  0  0
   -3.8557   24.9105  -28.2174 H   0  0  0  0  0  0  0  0  0  0  0  0
   -4.9341   23.4740  -28.2174 H   0  0  0  0  0  0  0  0  0  0  0  0
   -2.4409   22.4421  -26.5644 H   0  0  0  0  0  0  0  0  0  0  0  0
   -2.5885   21.0722  -27.7169 H   0  0  0  0  0  0  0  0  0  0  0  0
   -1.1087   22.0904  -27.7169 H   0  0  0  0  0  0  0  0  0  0  0  0
   -4.8769   20.1563  -31.7732 H   0  0  0  0  0  0  0  0  0  0  0  0
  1  2  1  0
  2  3  2  0
  3  4  1  0
  4  5  2  0
  5  6  1  0
  6  7  2  0
  7  8  1  0
  8  9  1  0
  8 10  2  0
  7 11  1  0
 11 12  1  0
 12 13  2  0
 12 14  1  0
 14 15  1  0
 15 16  1  0
 15 17  1  0
 15 18  1  0
 18 19  2  0
 18 20  1  0
 11 21  1  0
 21 22  2  0
 22  2  1  0
 21  5  1  0
  1 23  1  0
  1 24  1  0
  1 25  1  0
  3 26  1  0
  4 27  1  0
  6 28  1  0
  9 29  1  0
 16 30  1  0
 16 31  1  0
 16 32  1  0
 17 33  1  0
 17 34  1  0
 17 35  1  0
 22 36  1  0
M  CHG  2   9  -1  20  -1
M  END
>  <UniqueID>  (8) 
8

>  <SMILES>  (8) 
Cc1ccc2cc(C([NH-])=O)n(C(=O)OC(C)(C)C(=O)[O-])c2c1

>  <Energy>  (8) 
71.04011237560117

>  <Genealogy>  (8) 
Cc1ccc2cc(C([NH-])=O)n(C(=O)OC(C)(C)C(=O)[O-])c2c1 (protonated)
Cc1ccc2cc(C([NH-])=O)n(C(=O)OC(C)(C)C(=O)[O-])c2c1 (3D coordinates assigned)
Cc1ccc2cc(C([NH-])=O)n(C(=O)OC(C)(C)C(=O)[O-])c2c1 (optimized conformer: 71.04011237560117 kcal/mol)

>  <smiles>  (8) 
Cc1ccc2cc(C(N)=O)n(C(=O)OC(C)(C)C(=O)O)c2c1

>  <score_type>  (8) 
oracle

>  <origin>  (8) 
adg

>  <m_score__min__energy>  (8) 
-12.58

>  <m_primary>  (8) 
energy

$$$$
9:0
     RDKit          3D

 35 36  0  0  0  0  0  0  0  0999 V2000
   -1.8890   25.0660  -27.8910 C   0  0  0  0  0  0  0  0  0  0  0  0
   -1.6960   24.7410  -29.2620 O   0  0  0  0  0  0  0  0  0  0  0  0
   -1.3530   23.4560  -29.6950 C   0  0  0  0  0  0  0  0  0  0  0  0
   -0.1970   23.0040  -29.4630 O   0  0  0  0  0  0  0  0  0  0  0  0
   -2.3200   22.6450  -30.3900 N   0  0  0  0  0  0  0  0  0  0  0  0
   -1.9100   21.8850  -31.5760 C   0  0  0  0  0  0  0  0  0  0  0  0
   -3.6360   22.4390  -29.8400 C   0  0  0  0  0  0  0  0  0  0  0  0
   -3.7650   22.0680  -28.6410 O   0  0  0  0  0  0  0  0  0  0  0  0
   -4.8100   22.6110  -30.6520 N   0  0  0  0  0  0  0  0  0  0  0  0
   -5.5050   23.7600  -30.8840 C   0  0  0  0  0  0  0  0  0  0  0  0
   -5.1190   25.1100  -30.4240 C   0  0  0  0  0  0  0  0  0  0  0  0
   -3.8710   25.6690  -30.8300 N   0  0  0  0  0  0  0  0  0  0  0  0
   -5.8680   25.7690  -29.6560 O   0  0  0  0  0  0  0  0  0  0  0  0
   -6.6130   23.5040  -31.6900 C   0  0  0  0  0  0  0  0  0  0  0  0
   -6.5720   22.1530  -31.9480 C   0  0  0  0  0  0  0  0  0  0  0  0
   -7.4400   21.3550  -32.6880 C   0  0  0  0  0  0  0  0  0  0  0  0
   -7.1650   19.9800  -32.7670 C   0  0  0  0  0  0  0  0  0  0  0  0
   -6.0290   19.4280  -32.1190 C   0  0  0  0  0  0  0  0  0  0  0  0
   -5.7750   17.9430  -32.1630 C   0  0  0  0  0  0  0  0  0  0  0  0
   -6.0890   17.3910  -30.9350 F   0  0  0  0  0  0  0  0  0  0  0  0
   -4.4460   17.6830  -32.4480 F   0  0  0  0  0  0  0  0  0  0  0  0
   -6.5530   17.3430  -33.1390 F   0  0  0  0  0  0  0  0  0  0  0  0
   -5.1880   20.2690  -31.3540 C   0  0  0  0  0  0  0  0  0  0  0  0
   -5.4780   21.6370  -31.3080 C   0  0  0  0  0  0  0  0  0  0  0  0
   -1.4283   24.2902  -27.2619 H   0  0  0  0  0  0  0  0  0  0  0  0
   -1.4218   26.0382  -27.6753 H   0  0  0  0  0  0  0  0  0  0  0  0
   -2.9662   25.1210  -27.6753 H   0  0  0  0  0  0  0  0  0  0  0  0
   -1.4095   20.9572  -31.2620 H   0  0  0  0  0  0  0  0  0  0  0  0
   -2.7970   21.6376  -32.1776 H   0  0  0  0  0  0  0  0  0  0  0  0
   -1.2161   22.4904  -32.1776 H   0  0  0  0  0  0  0  0  0  0  0  0
   -2.9700   25.2970  -30.4570 H   0  0  0  0  0  0  0  0  0  0  0  0
   -7.3613   24.2282  -32.0445 H   0  0  0  0  0  0  0  0  0  0  0  0
   -8.3146   21.7881  -33.1954 H   0  0  0  0  0  0  0  0  0  0  0  0
   -7.8378   19.3231  -33.3377 H   0  0  0  0  0  0  0  0  0  0  0  0
   -4.3263   19.8574  -30.8081 H   0  0  0  0  0  0  0  0  0  0  0  0
  1  2  1  0
  2  3  1  0
  3  4  2  0
  3  5  1  0
  5  6  1  0
  5  7  1  0
  7  8  2  0
  7  9  1  0
  9 10  1  0
 10 11  1  0
 11 12  1  0
 11 13  2  0
 10 14  2  0
 14 15  1  0
 15 16  2  0
 16 17  1  0
 17 18  2  0
 18 19  1  0
 19 20  1  0
 19 21  1  0
 19 22  1  0
 18 23  1  0
 23 24  2  0
 24  9  1  0
 24 15  1  0
  1 25  1  0
  1 26  1  0
  1 27  1  0
  6 28  1  0
  6 29  1  0
  6 30  1  0
 12 31  1  0
 14 32  1  0
 16 33  1  0
 17 34  1  0
 23 35  1  0
M  CHG  1  12  -1
M  END
>  <UniqueID>  (9) 
9

>  <SMILES>  (9) 
COC(=O)N(C)C(=O)n1c(C([NH-])=O)cc2ccc(C(F)(F)F)cc21

>  <Energy>  (9) 
73.05809187607403

>  <Genealogy>  (9) 
COC(=O)N(C)C(=O)n1c(C([NH-])=O)cc2ccc(C(F)(F)F)cc21 (protonated)
COC(=O)N(C)C(=O)n1c(C([NH-])=O)cc2ccc(C(F)(F)F)cc21 (3D coordinates assigned)
COC(=O)N(C)C(=O)n1c(C([NH-])=O)cc2ccc(C(F)(F)F)cc21 (optimized conformer: 73.05809187607403 kcal/mol)

>  <smiles>  (9) 
COC(=O)N(C)C(=O)n1c(C(N)=O)cc2ccc(C(F)(F)F)cc21

>  <score_type>  (9) 
oracle

>  <origin>  (9) 
adg

>  <m_score__min__energy>  (9) 
-9.7599999999999998

>  <m_primary>  (9) 
energy

$$$$
10:0
     RDKit          3D

 34 35  0  0  0  0  0  0  0  0999 V2000
   -1.2660   26.3080  -28.1570 C   0  0  0  0  0  0  0  0  0  0  0  0
   -1.5850   25.3320  -29.1870 N   0  0  0  0  0  0  0  0  0  0  0  0
   -0.9040   24.0800  -29.3010 C   0  0  0  0  0  0  0  0  0  0  0  0
    0.2610   23.9430  -28.8390 O   0  0  0  0  0  0  0  0  0  0  0  0
   -1.5600   22.9370  -30.0100 C   0  0  0  0  0  0  0  0  0  0  0  0
   -2.9600   23.1740  -30.1430 O   0  0  0  0  0  0  0  0  0  0  0  0
   -3.7210   22.7090  -31.2220 C   0  0  0  0  0  0  0  0  0  0  0  0
   -3.1560   22.1960  -32.2270 O   0  0  0  0  0  0  0  0  0  0  0  0
   -5.1500   22.8460  -31.1980 N   0  0  0  0  0  0  0  0  0  0  0  0
   -5.8730   23.9780  -30.9610 C   0  0  0  0  0  0  0  0  0  0  0  0
   -5.3320   25.2730  -30.5010 C   0  0  0  0  0  0  0  0  0  0  0  0
   -4.0070   25.6740  -30.8390 N   0  0  0  0  0  0  0  0  0  0  0  0
   -6.0290   26.0120  -29.7550 O   0  0  0  0  0  0  0  0  0  0  0  0
   -7.2340   23.7320  -31.1290 C   0  0  0  0  0  0  0  0  0  0  0  0
   -7.3240   22.4020  -31.4700 C   0  0  0  0  0  0  0  0  0  0  0  0
   -8.4430   21.6230  -31.7490 C   0  0  0  0  0  0  0  0  0  0  0  0
   -8.2410   20.2770  -32.0950 C   0  0  0  0  0  0  0  0  0  0  0  0
   -6.9300   19.7390  -32.1810 C   0  0  0  0  0  0  0  0  0  0  0  0
   -6.7230   18.2840  -32.5170 C   0  0  0  0  0  0  0  0  0  0  0  0
   -6.2990   18.1380  -33.8280 F   0  0  0  0  0  0  0  0  0  0  0  0
   -5.7650   17.7260  -31.6890 F   0  0  0  0  0  0  0  0  0  0  0  0
   -7.9150   17.6040  -32.3520 F   0  0  0  0  0  0  0  0  0  0  0  0
   -5.8200   20.5570  -31.8650 C   0  0  0  0  0  0  0  0  0  0  0  0
   -6.0530   21.8900  -31.5060 C   0  0  0  0  0  0  0  0  0  0  0  0
   -1.4138   25.8559  -27.1651 H   0  0  0  0  0  0  0  0  0  0  0  0
   -0.2178   26.6241  -28.2634 H   0  0  0  0  0  0  0  0  0  0  0  0
   -1.9252   27.1822  -28.2634 H   0  0  0  0  0  0  0  0  0  0  0  0
   -1.1143   22.8263  -31.0095 H   0  0  0  0  0  0  0  0  0  0  0  0
   -1.4070   22.0182  -29.4249 H   0  0  0  0  0  0  0  0  0  0  0  0
   -3.1810   25.2840  -30.3350 H   0  0  0  0  0  0  0  0  0  0  0  0
   -8.0606   24.4485  -31.0136 H   0  0  0  0  0  0  0  0  0  0  0  0
   -9.4559   22.0491  -31.6999 H   0  0  0  0  0  0  0  0  0  0  0  0
   -9.1081   19.6325  -32.3017 H   0  0  0  0  0  0  0  0  0  0  0  0
   -4.7968   20.1548  -31.9005 H   0  0  0  0  0  0  0  0  0  0  0  0
  1  2  1  0
  2  3  1  0
  3  4  2  0
  3  5  1  0
  5  6  1  0
  6  7  1  0
  7  8  2  0
  7  9  1  0
  9 10  1  0
 10 11  1  0
 11 12  1  0
 11 13  2  0
 10 14  2  0
 14 15  1  0
 15 16  2  0
 16 17  1  0
 17 18  2  0
 18 19  1  0
 19 20  1  0
 19 21  1  0
 19 22  1  0
 18 23  1  0
 23 24  2  0
 24  9  1  0
 24 15  1  0
  1 25  1  0
  1 26  1  0
  1 27  1  0
  5 28  1  0
  5 29  1  0
 12 30  1  0
 14 31  1  0
 16 32  1  0
 17 33  1  0
 23 34  1  0
M  CHG  2   2  -1  12  -1
M  END
>  <UniqueID>  (10) 
10

>  <SMILES>  (10) 
C[N-]C(=O)COC(=O)n1c(C([NH-])=O)cc2ccc(C(F)(F)F)cc21

>  <Energy>  (10) 
68.76882418237706

>  <Genealogy>  (10) 
C[N-]C(=O)COC(=O)n1c(C([NH-])=O)cc2ccc(C(F)(F)F)cc21 (protonated)
C[N-]C(=O)COC(=O)n1c(C([NH-])=O)cc2ccc(C(F)(F)F)cc21 (3D coordinates assigned)
C[N-]C(=O)COC(=O)n1c(C([NH-])=O)cc2ccc(C(F)(F)F)cc21 (optimized conformer: 68.76882418237706 kcal/mol)

>  <smiles>  (10) 
CNC(=O)COC(=O)n1c(C(N)=O)cc2ccc(C(F)(F)F)cc21

>  <score_type>  (10) 
oracle

>  <origin>  (10) 
adg

>  <m_score__min__energy>  (10) 
-11.460000000000001

>  <m_primary>  (10) 
energy

$$$$
11:0
     RDKit          3D

 34 35  0  0  0  0  0  0  0  0999 V2000
   -1.5980   25.6330  -27.6720 C   0  0  0  0  0  0  0  0  0  0  0  0
   -1.1820   25.2860  -28.9870 O   0  0  0  0  0  0  0  0  0  0  0  0
   -0.5560   24.0720  -29.2850 C   0  0  0  0  0  0  0  0  0  0  0  0
    0.6310   23.8580  -28.9120 O   0  0  0  0  0  0  0  0  0  0  0  0
   -1.2820   23.0350  -30.0350 C   0  0  0  0  0  0  0  0  0  0  0  0
   -0.6670   21.9960  -30.3980 O   0  0  0  0  0  0  0  0  0  0  0  0
   -2.6750   23.2040  -30.3430 N   0  0  0  0  0  0  0  0  0  0  0  0
   -3.4600   22.2450  -31.0700 C   0  0  0  0  0  0  0  0  0  0  0  0
   -2.9180   21.2270  -31.5800 O   0  0  0  0  0  0  0  0  0  0  0  0
   -4.8740   22.4410  -31.2150 N   0  0  0  0  0  0  0  0  0  0  0  0
   -5.5900   23.5740  -30.9660 C   0  0  0  0  0  0  0  0  0  0  0  0
   -5.0680   24.8150  -30.3560 C   0  0  0  0  0  0  0  0  0  0  0  0
   -3.8670   25.4170  -30.8290 N   0  0  0  0  0  0  0  0  0  0  0  0
   -5.6730   25.3310  -29.3780 O   0  0  0  0  0  0  0  0  0  0  0  0
   -6.9280   23.3890  -31.3100 C   0  0  0  0  0  0  0  0  0  0  0  0
   -7.0110   22.0970  -31.7770 C   0  0  0  0  0  0  0  0  0  0  0  0
   -8.1030   21.3910  -32.2760 C   0  0  0  0  0  0  0  0  0  0  0  0
   -7.8870   20.0780  -32.7260 C   0  0  0  0  0  0  0  0  0  0  0  0
   -6.5960   19.4980  -32.6680 C   0  0  0  0  0  0  0  0  0  0  0  0
   -6.3700   18.1150  -33.2000 C   0  0  0  0  0  0  0  0  0  0  0  0
   -5.5090   20.2490  -32.1720 C   0  0  0  0  0  0  0  0  0  0  0  0
   -5.7560   21.5470  -31.7110 C   0  0  0  0  0  0  0  0  0  0  0  0
   -0.9689   25.1082  -26.9379 H   0  0  0  0  0  0  0  0  0  0  0  0
   -1.4981   26.7193  -27.5305 H   0  0  0  0  0  0  0  0  0  0  0  0
   -2.6487   25.3399  -27.5305 H   0  0  0  0  0  0  0  0  0  0  0  0
   -3.1550   24.0770  -30.0270 H   0  0  0  0  0  0  0  0  0  0  0  0
   -2.9660   25.2950  -30.3140 H   0  0  0  0  0  0  0  0  0  0  0  0
   -7.7449   24.1209  -31.2260 H   0  0  0  0  0  0  0  0  0  0  0  0
   -9.1031   21.8473  -32.3164 H   0  0  0  0  0  0  0  0  0  0  0  0
   -8.7287   19.4945  -33.1274 H   0  0  0  0  0  0  0  0  0  0  0  0
   -6.2554   17.4134  -32.3606 H   0  0  0  0  0  0  0  0  0  0  0  0
   -7.2308   17.8135  -33.8149 H   0  0  0  0  0  0  0  0  0  0  0  0
   -5.4580   18.1032  -33.8149 H   0  0  0  0  0  0  0  0  0  0  0  0
   -4.4942   19.8252  -32.1484 H   0  0  0  0  0  0  0  0  0  0  0  0
  1  2  1  0
  2  3  1  0
  3  4  2  0
  3  5  1  0
  5  6  2  0
  5  7  1  0
  7  8  1  0
  8  9  2  0
  8 10  1  0
 10 11  1  0
 11 12  1  0
 12 13  1  0
 12 14  2  0
 11 15  2  0
 15 16  1  0
 16 17  2  0
 17 18  1  0
 18 19  2  0
 19 20  1  0
 19 21  1  0
 21 22  2  0
 22 10  1  0
 22 16  1  0
  1 23  1  0
  1 24  1  0
  1 25  1  0
  7 26  1  0
 13 27  1  0
 15 28  1  0
 17 29  1  0
 18 30  1  0
 20 31  1  0
 20 32  1  0
 20 33  1  0
 21 34  1  0
M  CHG  1  13  -1
M  END
>  <UniqueID>  (11) 
11

>  <SMILES>  (11) 
COC(=O)C(=O)NC(=O)n1c(C([NH-])=O)cc2ccc(C)cc21

>  <Energy>  (11) 
69.77372622039093

>  <Genealogy>  (11) 
COC(=O)C(=O)NC(=O)n1c(C([NH-])=O)cc2ccc(C)cc21 (protonated)
COC(=O)C(=O)NC(=O)n1c(C([NH-])=O)cc2ccc(C)cc21 (3D coordinates assigned)
COC(=O)C(=O)NC(=O)n1c(C([NH-])=O)cc2ccc(C)cc21 (optimized conformer: 69.77372622039093 kcal/mol)

>  <smiles>  (11) 
COC(=O)C(=O)NC(=O)n1c(C(N)=O)cc2ccc(C)cc21

>  <score_type>  (11) 
oracle

>  <origin>  (11) 
adg

>  <m_score__min__energy>  (11) 
-10.23

>  <m_primary>  (11) 
energy

$$$$
12:0
     RDKit          3D

 43 44  0  0  0  0  0  0  0  0999 V2000
   -2.7980   25.2500  -26.3460 C   0  0  0  0  0  0  0  0  0  0  0  0
   -1.9630   25.1710  -27.5510 N   0  0  0  0  0  0  0  0  0  0  0  0
   -0.8690   26.1260  -27.7510 C   0  0  0  0  0  0  0  0  0  0  0  0
   -2.2040   24.1610  -28.5540 C   0  0  0  0  0  0  0  0  0  0  0  0
   -1.5270   24.1620  -29.6190 O   0  0  0  0  0  0  0  0  0  0  0  0
   -3.2330   23.0790  -28.3630 C   0  0  0  0  0  0  0  0  0  0  0  0
   -3.2710   22.2170  -29.4970 O   0  0  0  0  0  0  0  0  0  0  0  0
   -3.6490   22.6430  -30.7750 C   0  0  0  0  0  0  0  0  0  0  0  0
   -2.7800   22.8150  -31.6740 O   0  0  0  0  0  0  0  0  0  0  0  0
   -5.0360   22.8530  -31.0740 N   0  0  0  0  0  0  0  0  0  0  0  0
   -5.7600   23.9970  -30.9110 C   0  0  0  0  0  0  0  0  0  0  0  0
   -5.2170   25.3170  -30.5260 C   0  0  0  0  0  0  0  0  0  0  0  0
   -3.8630   25.6420  -30.8310 N   0  0  0  0  0  0  0  0  0  0  0  0
   -5.9260   26.1480  -29.9030 O   0  0  0  0  0  0  0  0  0  0  0  0
   -7.0990   23.7750  -31.2270 C   0  0  0  0  0  0  0  0  0  0  0  0
   -7.1720   22.4500  -31.5930 C   0  0  0  0  0  0  0  0  0  0  0  0
   -8.2670   21.6890  -31.9830 C   0  0  0  0  0  0  0  0  0  0  0  0
   -8.0600   20.3290  -32.2650 C   0  0  0  0  0  0  0  0  0  0  0  0
   -6.7680   19.7410  -32.1470 C   0  0  0  0  0  0  0  0  0  0  0  0
   -6.5680   18.3310  -32.4240 N   0  0  0  0  0  0  0  0  0  0  0  0
   -6.4870   17.8460  -33.8080 C   0  0  0  0  0  0  0  0  0  0  0  0
   -6.4430   17.3650  -31.3270 C   0  0  0  0  0  0  0  0  0  0  0  0
   -5.6810   20.5610  -31.7460 C   0  0  0  0  0  0  0  0  0  0  0  0
   -5.9170   21.9160  -31.4900 C   0  0  0  0  0  0  0  0  0  0  0  0
   -2.1591   25.1896  -25.4526 H   0  0  0  0  0  0  0  0  0  0  0  0
   -3.3456   26.2040  -26.3413 H   0  0  0  0  0  0  0  0  0  0  0  0
   -3.5148   24.4157  -26.3413 H   0  0  0  0  0  0  0  0  0  0  0  0
   -0.4888   26.4579  -26.7736 H   0  0  0  0  0  0  0  0  0  0  0  0
   -0.0580   25.6417  -28.3147 H   0  0  0  0  0  0  0  0  0  0  0  0
   -1.2393   26.9950  -28.3147 H   0  0  0  0  0  0  0  0  0  0  0  0
   -2.9769   22.4902  -27.4698 H   0  0  0  0  0  0  0  0  0  0  0  0
   -4.2209   23.5469  -28.2401 H   0  0  0  0  0  0  0  0  0  0  0  0
   -3.1290   24.9010  -30.8730 H   0  0  0  0  0  0  0  0  0  0  0  0
   -7.9224   24.5035  -31.1915 H   0  0  0  0  0  0  0  0  0  0  0  0
   -9.2672   22.1388  -32.0684 H   0  0  0  0  0  0  0  0  0  0  0  0
   -8.9101   19.7072  -32.5824 H   0  0  0  0  0  0  0  0  0  0  0  0
   -6.3058   16.7610  -33.8063 H   0  0  0  0  0  0  0  0  0  0  0  0
   -7.4331   18.0589  -34.3271 H   0  0  0  0  0  0  0  0  0  0  0  0
   -5.6614   18.3548  -34.3271 H   0  0  0  0  0  0  0  0  0  0  0  0
   -6.5113   17.8927  -30.3642 H   0  0  0  0  0  0  0  0  0  0  0  0
   -7.2527   16.6238  -31.3971 H   0  0  0  0  0  0  0  0  0  0  0  0
   -5.4713   16.8543  -31.3971 H   0  0  0  0  0  0  0  0  0  0  0  0
   -4.6710   20.1386  -31.6384 H   0  0  0  0  0  0  0  0  0  0  0  0
  1  2  1  0
  2  3  1  0
  2  4  1  0
  4  5  2  0
  4  6  1  0
  6  7  1  0
  7  8  1  0
  8  9  2  0
  8 10  1  0
 10 11  1  0
 11 12  1  0
 12 13  1  0
 12 14  2  0
 11 15  2  0
 15 16  1  0
 16 17  2  0
 17 18  1  0
 18 19  2  0
 19 20  1  0
 20 21  1  0
 20 22  1  0
 19 23  1  0
 23 24  2  0
 24 10  1  0
 24 16  1  0
  1 25  1  0
  1 26  1  0
  1 27  1  0
  3 28  1  0
  3 29  1  0
  3 30  1  0
  6 31  1  0
  6 32  1  0
 13 33  1  0
 15 34  1  0
 17 35  1  0
 18 36  1  0
 21 37  1  0
 21 38  1  0
 21 39  1  0
 22 40  1  0
 22 41  1  0
 22 42  1  0
 23 43  1  0
M  CHG  1  13  -1
M  END
>  <UniqueID>  (12) 
12

>  <SMILES>  (12) 
CN(C)C(=O)COC(=O)n1c(C([NH-])=O)cc2ccc(N(C)C)cc21

>  <Energy>  (12) 
77.83081311812815

>  <Genealogy>  (12) 
CN(C)C(=O)COC(=O)n1c(C([NH-])=O)cc2ccc(N(C)C)cc21 (protonated)
CN(C)C(=O)COC(=O)n1c(C([NH-])=O)cc2ccc(N(C)C)cc21 (3D coordinates assigned)
CN(C)C(=O)COC(=O)n1c(C([NH-])=O)cc2ccc(N(C)C)cc21 (optimized conformer: 77.83081311812815 kcal/mol)

>  <smiles>  (12) 
CN(C)C(=O)COC(=O)n1c(C(N)=O)cc2ccc(N(C)C)cc21

>  <score_type>  (12) 
oracle

>  <origin>  (12) 
adg

>  <m_score__min__energy>  (12) 
-10.279999999999999

>  <m_primary>  (12) 
energy

$$$$
13:0
     RDKit          3D

 40 41  0  0  0  0  0  0  0  0999 V2000
   -7.7080   17.8590  -32.7140 C   0  0  0  0  0  0  0  0  0  0  0  0
   -7.7330   19.2940  -32.2800 C   0  0  0  0  0  0  0  0  0  0  0  0
   -8.9310   20.0440  -32.3740 C   0  0  0  0  0  0  0  0  0  0  0  0
   -8.9600   21.3950  -31.9940 C   0  0  0  0  0  0  0  0  0  0  0  0
   -7.7750   21.9730  -31.5450 C   0  0  0  0  0  0  0  0  0  0  0  0
   -7.5270   23.2520  -31.1030 C   0  0  0  0  0  0  0  0  0  0  0  0
   -6.1710   23.2750  -30.7820 C   0  0  0  0  0  0  0  0  0  0  0  0
   -5.4480   24.4930  -30.3510 C   0  0  0  0  0  0  0  0  0  0  0  0
   -5.2670   24.7820  -28.9630 N   0  0  0  0  0  0  0  0  0  0  0  0
   -5.0090   25.3040  -31.2090 O   0  0  0  0  0  0  0  0  0  0  0  0
   -5.6050   22.0580  -31.0140 N   0  0  0  0  0  0  0  0  0  0  0  0
   -4.2460   21.6650  -30.7540 C   0  0  0  0  0  0  0  0  0  0  0  0
   -3.4570   21.4570  -31.7140 O   0  0  0  0  0  0  0  0  0  0  0  0
   -3.8180   21.4870  -29.4330 O   0  0  0  0  0  0  0  0  0  0  0  0
   -3.0290   22.4330  -28.7180 C   0  0  0  0  0  0  0  0  0  0  0  0
   -3.7800   22.9680  -27.6310 O   0  0  0  0  0  0  0  0  0  0  0  0
   -3.5230   24.2110  -27.0440 C   0  0  0  0  0  0  0  0  0  0  0  0
   -4.4580   24.8920  -26.5420 O   0  0  0  0  0  0  0  0  0  0  0  0
   -2.1190   24.7430  -27.0410 C   0  0  2  0  0  0  0  0  0  0  0  0
   -1.9240   25.7690  -25.9200 C   0  0  0  0  0  0  0  0  0  0  0  0
   -1.7780   25.3340  -28.3810 C   0  0  0  0  0  0  0  0  0  0  0  0
   -0.6560   25.8720  -28.5790 O   0  0  0  0  0  0  0  0  0  0  0  0
   -2.7120   25.3000  -29.4090 O   0  0  0  0  0  0  0  0  0  0  0  0
   -6.5990   21.2700  -31.4810 C   0  0  0  0  0  0  0  0  0  0  0  0
   -6.5450   19.9170  -31.8370 C   0  0  0  0  0  0  0  0  0  0  0  0
   -7.6967   17.2079  -31.8274 H   0  0  0  0  0  0  0  0  0  0  0  0
   -8.6025   17.6425  -33.3165 H   0  0  0  0  0  0  0  0  0  0  0  0
   -6.8065   17.6738  -33.3165 H   0  0  0  0  0  0  0  0  0  0  0  0
   -9.8469   19.5633  -32.7482 H   0  0  0  0  0  0  0  0  0  0  0  0
   -9.8903   21.9794  -32.0491 H   0  0  0  0  0  0  0  0  0  0  0  0
   -8.2461   24.0803  -31.0205 H   0  0  0  0  0  0  0  0  0  0  0  0
   -5.5750   24.1120  -28.2260 H   0  0  0  0  0  0  0  0  0  0  0  0
   -4.7810   25.6590  -28.6710 H   0  0  0  0  0  0  0  0  0  0  0  0
   -2.1276   21.9366  -28.3293 H   0  0  0  0  0  0  0  0  0  0  0  0
   -2.7405   23.2500  -29.3957 H   0  0  0  0  0  0  0  0  0  0  0  0
   -1.4319   23.9054  -26.8501 H   0  0  0  0  0  0  0  0  0  0  0  0
   -2.0190   25.2691  -24.9448 H   0  0  0  0  0  0  0  0  0  0  0  0
   -0.9241   26.2196  -26.0052 H   0  0  0  0  0  0  0  0  0  0  0  0
   -2.6888   26.5550  -26.0052 H   0  0  0  0  0  0  0  0  0  0  0  0
   -5.6022   19.3538  -31.7734 H   0  0  0  0  0  0  0  0  0  0  0  0
  1  2  1  0
  2  3  2  0
  3  4  1  0
  4  5  2  0
  5  6  1  0
  6  7  2  0
  7  8  1  0
  8  9  1  0
  8 10  2  0
  7 11  1  0
 11 12  1  0
 12 13  2  0
 12 14  1  0
 14 15  1  0
 15 16  1  0
 16 17  1  0
 17 18  2  0
 17 19  1  0
 19 20  1  0
 19 21  1  0
 21 22  2  0
 21 23  1  0
 11 24  1  0
 24 25  2  0
 25  2  1  0
 24  5  1  0
  1 26  1  0
  1 27  1  0
  1 28  1  0
  3 29  1  0
  4 30  1  0
  6 31  1  0
  9 32  1  0
  9 33  1  0
 15 34  1  0
 15 35  1  0
 19 36  1  1
 20 37  1  0
 20 38  1  0
 20 39  1  0
 25 40  1  0
M  CHG  1  23  -1
M  END
>  <UniqueID>  (13) 
13

>  <SMILES>  (13) 
Cc1ccc2cc(C(N)=O)n(C(=O)OCOC(=O)[C@H](C)C(=O)[O-])c2c1

>  <Energy>  (13) 
73.56925260639535

>  <Genealogy>  (13) 
Cc1ccc2cc(C(N)=O)n(C(=O)OCOC(=O)C(C)C(=O)[O-])c2c1 (protonated)
Cc1ccc2cc(C(N)=O)n(C(=O)OCOC(=O)[C@H](C)C(=O)[O-])c2c1 (chirality)
Cc1ccc2cc(C(N)=O)n(C(=O)OCOC(=O)[C@H](C)C(=O)[O-])c2c1 (3D coordinates assigned)
Cc1ccc2cc(C(N)=O)n(C(=O)OCOC(=O)[C@H](C)C(=O)[O-])c2c1 (optimized conformer: 73.56925260639535 kcal/mol)

>  <smiles>  (13) 
Cc1ccc2cc(C(N)=O)n(C(=O)OCOC(=O)C(C)C(=O)O)c2c1

>  <score_type>  (13) 
oracle

>  <origin>  (13) 
adg

>  <m_score__min__energy>  (13) 
-10.880000000000001

>  <m_primary>  (13) 
energy

$$$$
14:0
     RDKit          3D

 37 38  0  0  0  0  0  0  0  0999 V2000
   -3.3090   18.9660  -33.7900 C   0  0  0  0  0  0  0  0  0  0  0  0
   -4.3070   17.9640  -33.9480 O   0  0  0  0  0  0  0  0  0  0  0  0
   -5.6600   18.2710  -34.1210 C   0  0  0  0  0  0  0  0  0  0  0  0
   -6.1170   18.5490  -35.2630 O   0  0  0  0  0  0  0  0  0  0  0  0
   -6.5810   18.2180  -32.9440 C   0  0  0  0  0  0  0  0  0  0  0  0
   -6.8580   19.6080  -32.4450 C   0  0  0  0  0  0  0  0  0  0  0  0
   -8.1880   20.0960  -32.4080 C   0  0  0  0  0  0  0  0  0  0  0  0
   -8.4550   21.4100  -31.9890 C   0  0  0  0  0  0  0  0  0  0  0  0
   -7.3780   22.2080  -31.6150 C   0  0  0  0  0  0  0  0  0  0  0  0
   -7.3510   23.5240  -31.2130 C   0  0  0  0  0  0  0  0  0  0  0  0
   -6.0070   23.8130  -30.9930 C   0  0  0  0  0  0  0  0  0  0  0  0
   -5.5260   25.1180  -30.4950 C   0  0  0  0  0  0  0  0  0  0  0  0
   -4.1960   25.5680  -30.7560 N   0  0  0  0  0  0  0  0  0  0  0  0
   -6.2880   25.8260  -29.7830 O   0  0  0  0  0  0  0  0  0  0  0  0
   -5.2300   22.7250  -31.2600 N   0  0  0  0  0  0  0  0  0  0  0  0
   -3.7950   22.6590  -31.2620 C   0  0  0  0  0  0  0  0  0  0  0  0
   -3.1730   22.5370  -32.3530 O   0  0  0  0  0  0  0  0  0  0  0  0
   -3.0710   22.7420  -30.0300 N   0  0  0  0  0  0  0  0  0  0  0  0
   -1.6330   22.9650  -29.9540 C   0  0  0  0  0  0  0  0  0  0  0  0
   -1.3500   24.3010  -29.3450 C   0  0  0  0  0  0  0  0  0  0  0  0
   -0.2240   24.5400  -28.8340 O   0  0  0  0  0  0  0  0  0  0  0  0
   -2.3170   25.2970  -29.3780 O   0  0  0  0  0  0  0  0  0  0  0  0
   -6.0850   21.7480  -31.6370 C   0  0  0  0  0  0  0  0  0  0  0  0
   -5.7880   20.4500  -32.0720 C   0  0  0  0  0  0  0  0  0  0  0  0
   -3.1331   19.1426  -32.7186 H   0  0  0  0  0  0  0  0  0  0  0  0
   -2.3749   18.6312  -34.2646 H   0  0  0  0  0  0  0  0  0  0  0  0
   -3.6476   19.8988  -34.2646 H   0  0  0  0  0  0  0  0  0  0  0  0
   -7.5271   17.7430  -33.2429 H   0  0  0  0  0  0  0  0  0  0  0  0
   -6.1075   17.6339  -32.1411 H   0  0  0  0  0  0  0  0  0  0  0  0
   -9.0181   19.4404  -32.7099 H   0  0  0  0  0  0  0  0  0  0  0  0
   -9.4844   21.7965  -31.9575 H   0  0  0  0  0  0  0  0  0  0  0  0
   -8.2082   24.2025  -31.0915 H   0  0  0  0  0  0  0  0  0  0  0  0
   -3.4870   24.9370  -31.1900 H   0  0  0  0  0  0  0  0  0  0  0  0
   -3.8900   26.5120  -30.4320 H   0  0  0  0  0  0  0  0  0  0  0  0
   -1.1755   22.1791  -29.3351 H   0  0  0  0  0  0  0  0  0  0  0  0
   -1.2108   22.9362  -30.9693 H   0  0  0  0  0  0  0  0  0  0  0  0
   -4.7477   20.0959  -32.1217 H   0  0  0  0  0  0  0  0  0  0  0  0
  1  2  1  0
  2  3  1  0
  3  4  2  0
  3  5  1  0
  5  6  1  0
  6  7  2  0
  7  8  1  0
  8  9  2  0
  9 10  1  0
 10 11  2  0
 11 12  1  0
 12 13  1  0
 12 14  2  0
 11 15  1  0
 15 16  1  0
 16 17  2  0
 16 18  1  0
 18 19  1  0
 19 20  1  0
 20 21  2  0
 20 22  1  0
 15 23  1  0
 23 24  2  0
 24  6  1  0
 23  9  1  0
  1 25  1  0
  1 26  1  0
  1 27  1  0
  5 28  1  0
  5 29  1  0
  7 30  1  0
  8 31  1  0
 10 32  1  0
 13 33  1  0
 13 34  1  0
 19 35  1  0
 19 36  1  0
 24 37  1  0
M  CHG  2  18  -1  22  -1
M  END
>  <UniqueID>  (14) 
14

>  <SMILES>  (14) 
COC(=O)Cc1ccc2cc(C(N)=O)n(C(=O)[N-]CC(=O)[O-])c2c1

>  <Energy>  (14) 
69.70561097440131

>  <Genealogy>  (14) 
COC(=O)Cc1ccc2cc(C(N)=O)n(C(=O)[N-]CC(=O)[O-])c2c1 (protonated)
COC(=O)Cc1ccc2cc(C(N)=O)n(C(=O)[N-]CC(=O)[O-])c2c1 (3D coordinates assigned)
COC(=O)Cc1ccc2cc(C(N)=O)n(C(=O)[N-]CC(=O)[O-])c2c1 (optimized conformer: 69.70561097440131 kcal/mol)

>  <smiles>  (14) 
COC(=O)Cc1ccc2cc(C(N)=O)n(C(=O)NCC(=O)O)c2c1

>  <score_type>  (14) 
oracle

>  <origin>  (14) 
adg

>  <m_score__min__energy>  (14) 
-10.73

>  <m_primary>  (14) 
energy

$$$$
15:0
     RDKit          3D

 60 61  0  0  0  0  0  0  0  0999 V2000
   -0.5870   16.0500  -34.8230 C   0  0  0  0  0  0  0  0  0  0  0  0
   -0.4480   16.1790  -33.4290 O   0  0  0  0  0  0  0  0  0  0  0  0
    0.3900   17.6320  -33.1100 P   0  0  0  0  0  0  0  0  0  0  0  0
    1.7840   17.3050  -32.6100 O   0  0  0  0  0  0  0  0  0  0  0  0
   -0.4410   18.5460  -31.9280 O   0  0  0  0  0  0  0  0  0  0  0  0
    0.3670   18.6240  -30.7770 C   0  0  0  0  0  0  0  0  0  0  0  0
    0.5110   18.5700  -34.5310 O   0  0  0  0  0  0  0  0  0  0  0  0
    1.8550   18.9530  -34.7070 C   0  0  0  0  0  0  0  0  0  0  0  0
    2.0480   20.4050  -34.2500 C   0  0  0  0  0  0  0  0  0  0  0  0
    1.3140   21.4640  -35.1210 C   0  0  0  0  0  0  0  0  0  0  0  0
    0.8720   20.7750  -36.4300 C   0  0  0  0  0  0  0  0  0  0  0  0
    2.2610   22.6450  -35.4450 C   0  0  0  0  0  0  0  0  0  0  0  0
    0.1580   21.9230  -34.3970 O   0  0  0  0  0  0  0  0  0  0  0  0
   -0.8480   21.1150  -33.8460 C   0  0  0  0  0  0  0  0  0  0  0  0
   -1.6770   20.5160  -34.5860 O   0  0  0  0  0  0  0  0  0  0  0  0
   -0.9210   20.9830  -32.4550 O   0  0  0  0  0  0  0  0  0  0  0  0
   -1.9850   21.5410  -31.6890 C   0  0  0  0  0  0  0  0  0  0  0  0
   -3.1340   20.7020  -31.7750 O   0  0  0  0  0  0  0  0  0  0  0  0
   -4.1120   20.8420  -32.7620 C   0  0  0  0  0  0  0  0  0  0  0  0
   -4.1180   21.8630  -33.4970 O   0  0  0  0  0  0  0  0  0  0  0  0
   -5.1080   19.8160  -32.9340 N   0  0  0  0  0  0  0  0  0  0  0  0
   -4.9030   18.5330  -33.3470 C   0  0  0  0  0  0  0  0  0  0  0  0
   -3.6420   17.9880  -33.8850 C   0  0  0  0  0  0  0  0  0  0  0  0
   -2.3790   18.5040  -33.4610 N   0  0  0  0  0  0  0  0  0  0  0  0
   -3.6810   17.1120  -34.7960 O   0  0  0  0  0  0  0  0  0  0  0  0
   -6.0740   17.7870  -33.2490 C   0  0  0  0  0  0  0  0  0  0  0  0
   -7.0230   18.6630  -32.7740 C   0  0  0  0  0  0  0  0  0  0  0  0
   -8.3690   18.4480  -32.4850 C   0  0  0  0  0  0  0  0  0  0  0  0
   -9.1140   19.5250  -31.9740 C   0  0  0  0  0  0  0  0  0  0  0  0
   -8.4990   20.7790  -31.7420 C   0  0  0  0  0  0  0  0  0  0  0  0
   -9.3140   21.9260  -31.2150 C   0  0  0  0  0  0  0  0  0  0  0  0
   -7.1340   20.9650  -32.0580 C   0  0  0  0  0  0  0  0  0  0  0  0
   -6.4170   19.8810  -32.5880 C   0  0  0  0  0  0  0  0  0  0  0  0
   -1.3765   15.3173  -35.0465 H   0  0  0  0  0  0  0  0  0  0  0  0
   -0.8576   17.0242  -35.2562 H   0  0  0  0  0  0  0  0  0  0  0  0
    0.3644   15.7076  -35.2562 H   0  0  0  0  0  0  0  0  0  0  0  0
   -0.2662   18.5629  -29.8796 H   0  0  0  0  0  0  0  0  0  0  0  0
    1.0854   17.7910  -30.7762 H   0  0  0  0  0  0  0  0  0  0  0  0
    0.9128   19.5790  -30.7762 H   0  0  0  0  0  0  0  0  0  0  0  0
    2.5032   18.2938  -34.1110 H   0  0  0  0  0  0  0  0  0  0  0  0
    2.1189   18.8701  -35.7717 H   0  0  0  0  0  0  0  0  0  0  0  0
    1.6754   20.4919  -33.2187 H   0  0  0  0  0  0  0  0  0  0  0  0
    3.1231   20.6190  -34.3415 H   0  0  0  0  0  0  0  0  0  0  0  0
    0.2922   19.8713  -36.1910 H   0  0  0  0  0  0  0  0  0  0  0  0
    0.2485   21.4664  -37.0158 H   0  0  0  0  0  0  0  0  0  0  0  0
    1.7604   20.4965  -37.0158 H   0  0  0  0  0  0  0  0  0  0  0  0
    2.6211   23.0941  -34.5076 H   0  0  0  0  0  0  0  0  0  0  0  0
    3.1181   22.2782  -36.0288 H   0  0  0  0  0  0  0  0  0  0  0  0
    1.7167   23.4019  -36.0288 H   0  0  0  0  0  0  0  0  0  0  0  0
   -1.6726   21.6257  -30.6377 H   0  0  0  0  0  0  0  0  0  0  0  0
   -2.2327   22.5374  -32.0837 H   0  0  0  0  0  0  0  0  0  0  0  0
   -2.3180   19.3290  -32.8250 H   0  0  0  0  0  0  0  0  0  0  0  0
   -1.4930   18.0920  -33.8300 H   0  0  0  0  0  0  0  0  0  0  0  0
   -6.2114   16.7244  -33.4980 H   0  0  0  0  0  0  0  0  0  0  0  0
   -8.8345   17.4654  -32.6516 H   0  0  0  0  0  0  0  0  0  0  0  0
  -10.1833   19.3924  -31.7526 H   0  0  0  0  0  0  0  0  0  0  0  0
   -9.3022   21.9094  -30.1152 H   0  0  0  0  0  0  0  0  0  0  0  0
   -8.8861   22.8744  -31.5720 H   0  0  0  0  0  0  0  0  0  0  0  0
  -10.3504   21.8339  -31.5720 H   0  0  0  0  0  0  0  0  0  0  0  0
   -6.6451   21.9364  -31.8925 H   0  0  0  0  0  0  0  0  0  0  0  0
  1  2  1  0
  2  3  1  0
  3  4  2  0
  3  5  1  0
  5  6  1  0
  3  7  1  0
  7  8  1  0
  8  9  1  0
  9 10  1  0
 10 11  1  0
 10 12  1  0
 10 13  1  0
 13 14  1  0
 14 15  2  0
 14 16  1  0
 16 17  1  0
 17 18  1  0
 18 19  1  0
 19 20  2  0
 19 21  1  0
 21 22  1  0
 22 23  1  0
 23 24  1  0
 23 25  2  0
 22 26  2  0
 26 27  1  0
 27 28  2  0
 28 29  1  0
 29 30  2  0
 30 31  1  0
 30 32  1  0
 32 33  2  0
 33 21  1  0
 33 27  1  0
  1 34  1  0
  1 35  1  0
  1 36  1  0
  6 37  1  0
  6 38  1  0
  6 39  1  0
  8 40  1  0
  8 41  1  0
  9 42  1  0
  9 43  1  0
 11 44  1  0
 11 45  1  0
 11 46  1  0
 12 47  1  0
 12 48  1  0
 12 49  1  0
 17 50  1  0
 17 51  1  0
 24 52  1  0
 24 53  1  0
 26 54  1  0
 28 55  1  0
 29 56  1  0
 31 57  1  0
 31 58  1  0
 31 59  1  0
 32 60  1  0
M  END
>  <UniqueID>  (15) 
15

>  <SMILES>  (15) 
COP(=O)(OC)OCCC(C)(C)OC(=O)OCOC(=O)n1c(C(N)=O)cc2ccc(C)cc21

>  <Energy>  (15) 
88.33435481730272

>  <Genealogy>  (15) 
COP(=O)(OC)OCCC(C)(C)OC(=O)OCOC(=O)n1c(C(N)=O)cc2ccc(C)cc21 (3D coordinates assigned)
COP(=O)(OC)OCCC(C)(C)OC(=O)OCOC(=O)n1c(C(N)=O)cc2ccc(C)cc21 (optimized conformer: 88.33435481730272 kcal/mol)

>  <smiles>  (15) 
COP(=O)(OC)OCCC(C)(C)OC(=O)OCOC(=O)n1c(C(N)=O)cc2ccc(C)cc21

>  <score_type>  (15) 
oracle

>  <origin>  (15) 
adg

>  <m_score__min__energy>  (15) 
-8.2200000000000006

>  <m_primary>  (15) 
energy

$$$$
16:0
     RDKit          3D

 42 43  0  0  0  0  0  0  0  0999 V2000
    0.2700   20.0130  -31.8960 C   0  0  0  0  0  0  0  0  0  0  0  0
   -0.6390   20.6330  -32.9790 C   0  0  0  0  0  0  0  0  0  0  0  0
   -1.5950   19.5550  -33.5410 C   0  0  0  0  0  0  0  0  0  0  0  0
   -2.3680   20.0820  -34.5870 O   0  0  0  0  0  0  0  0  0  0  0  0
    0.2370   21.1860  -34.1250 C   0  0  0  0  0  0  0  0  0  0  0  0
   -0.4730   22.1370  -34.8720 O   0  0  0  0  0  0  0  0  0  0  0  0
   -1.4050   21.7510  -32.4140 N   0  0  0  0  0  0  0  0  0  0  0  0
   -2.8270   21.9340  -32.4730 C   0  0  0  0  0  0  0  0  0  0  0  0
   -3.4100   22.1010  -33.5780 O   0  0  0  0  0  0  0  0  0  0  0  0
   -3.6110   21.9230  -31.2290 C   0  0  0  0  0  0  0  0  0  0  0  0
   -3.0370   21.6810  -30.1340 O   0  0  0  0  0  0  0  0  0  0  0  0
   -5.0240   22.1840  -31.2490 N   0  0  0  0  0  0  0  0  0  0  0  0
   -5.6610   23.3230  -30.8580 C   0  0  0  0  0  0  0  0  0  0  0  0
   -5.0090   24.4870  -30.2130 C   0  0  0  0  0  0  0  0  0  0  0  0
   -5.3490   24.8740  -28.8800 N   0  0  0  0  0  0  0  0  0  0  0  0
   -4.1290   25.1400  -30.8330 O   0  0  0  0  0  0  0  0  0  0  0  0
   -7.0330   23.2150  -31.0910 C   0  0  0  0  0  0  0  0  0  0  0  0
   -7.2110   21.9690  -31.6510 C   0  0  0  0  0  0  0  0  0  0  0  0
   -8.3720   21.3450  -32.0980 C   0  0  0  0  0  0  0  0  0  0  0  0
   -8.2550   20.0650  -32.6660 C   0  0  0  0  0  0  0  0  0  0  0  0
   -6.9880   19.4380  -32.7800 C   0  0  0  0  0  0  0  0  0  0  0  0
   -6.8640   18.0780  -33.4050 C   0  0  0  0  0  0  0  0  0  0  0  0
   -6.3700   17.1800  -32.4760 F   0  0  0  0  0  0  0  0  0  0  0  0
   -6.0010   18.1410  -34.4840 F   0  0  0  0  0  0  0  0  0  0  0  0
   -5.8330   20.1060  -32.3200 C   0  0  0  0  0  0  0  0  0  0  0  0
   -5.9830   21.3700  -31.7390 C   0  0  0  0  0  0  0  0  0  0  0  0
   -0.1151   20.2757  -30.8997 H   0  0  0  0  0  0  0  0  0  0  0  0
    0.2803   18.9188  -32.0084 H   0  0  0  0  0  0  0  0  0  0  0  0
    1.2925   20.4028  -32.0084 H   0  0  0  0  0  0  0  0  0  0  0  0
   -1.0036   18.7080  -33.9189 H   0  0  0  0  0  0  0  0  0  0  0  0
   -2.2659   19.2195  -32.7364 H   0  0  0  0  0  0  0  0  0  0  0  0
   -2.3250   21.0690  -34.4930 H   0  0  0  0  0  0  0  0  0  0  0  0
    1.1349   21.6575  -33.6989 H   0  0  0  0  0  0  0  0  0  0  0  0
    0.5223   20.3551  -34.7869 H   0  0  0  0  0  0  0  0  0  0  0  0
   -1.4180   22.0720  -34.5770 H   0  0  0  0  0  0  0  0  0  0  0  0
   -4.8550   25.6750  -28.4270 H   0  0  0  0  0  0  0  0  0  0  0  0
   -6.1170   24.4040  -28.3530 H   0  0  0  0  0  0  0  0  0  0  0  0
   -7.8075   23.9653  -30.8737 H   0  0  0  0  0  0  0  0  0  0  0  0
   -9.3510   21.8386  -32.0094 H   0  0  0  0  0  0  0  0  0  0  0  0
   -9.1548   19.5443  -33.0257 H   0  0  0  0  0  0  0  0  0  0  0  0
   -7.8558   17.7447  -33.7445 H   0  0  0  0  0  0  0  0  0  0  0  0
   -4.8392   19.6443  -32.4159 H   0  0  0  0  0  0  0  0  0  0  0  0
  1  2  1  0
  2  3  1  0
  3  4  1  0
  2  5  1  0
  5  6  1  0
  2  7  1  0
  7  8  1  0
  8  9  2  0
  8 10  1  0
 10 11  2  0
 10 12  1  0
 12 13  1  0
 13 14  1  0
 14 15  1  0
 14 16  2  0
 13 17  2  0
 17 18  1  0
 18 19  2  0
 19 20  1  0
 20 21  2  0
 21 22  1  0
 22 23  1  0
 22 24  1  0
 21 25  1  0
 25 26  2  0
 26 12  1  0
 26 18  1  0
  1 27  1  0
  1 28  1  0
  1 29  1  0
  3 30  1  0
  3 31  1  0
  4 32  1  0
  5 33  1  0
  5 34  1  0
  6 35  1  0
 15 36  1  0
 15 37  1  0
 17 38  1  0
 19 39  1  0
 20 40  1  0
 22 41  1  0
 25 42  1  0
M  CHG  1   7  -1
M  END
>  <UniqueID>  (16) 
16

>  <SMILES>  (16) 
CC(CO)(CO)[N-]C(=O)C(=O)n1c(C(N)=O)cc2ccc(C(F)F)cc21

>  <Energy>  (16) 
75.71056473614772

>  <Genealogy>  (16) 
CC(CO)(CO)[N-]C(=O)C(=O)n1c(C(N)=O)cc2ccc(C(F)F)cc21 (protonated)
CC(CO)(CO)[N-]C(=O)C(=O)n1c(C(N)=O)cc2ccc(C(F)F)cc21 (3D coordinates assigned)
CC(CO)(CO)[N-]C(=O)C(=O)n1c(C(N)=O)cc2ccc(C(F)F)cc21 (optimized conformer: 75.71056473614772 kcal/mol)

>  <smiles>  (16) 
CC(CO)(CO)NC(=O)C(=O)n1c(C(N)=O)cc2ccc(C(F)F)cc21

>  <score_type>  (16) 
oracle

>  <origin>  (16) 
adg

>  <m_score__min__energy>  (16) 
-9.3000000000000007

>  <m_primary>  (16) 
energy

$$$$
17:0
     RDKit          3D

 43 44  0  0  0  0  0  0  0  0999 V2000
   -3.6960   24.8090  -26.7860 C   0  0  0  0  0  0  0  0  0  0  0  0
   -2.4050   25.0320  -26.5230 C   0  0  0  0  0  0  0  0  0  0  0  0
   -1.5260   25.7820  -27.4880 C   0  0  0  0  0  0  0  0  0  0  0  0
   -1.6640   25.2590  -28.8090 O   0  0  0  0  0  0  0  0  0  0  0  0
   -0.8770   24.2150  -29.3100 C   0  0  0  0  0  0  0  0  0  0  0  0
    0.2590   23.9680  -28.8090 O   0  0  0  0  0  0  0  0  0  0  0  0
   -1.3770   23.4370  -30.3570 O   0  0  0  0  0  0  0  0  0  0  0  0
   -1.5160   22.0150  -30.2900 C   0  0  2  0  0  0  0  0  0  0  0  0
   -0.5730   21.3490  -31.2880 C   0  0  0  0  0  0  0  0  0  0  0  0
   -2.8560   21.6610  -30.6200 O   0  0  0  0  0  0  0  0  0  0  0  0
   -3.9710   22.2060  -29.9700 C   0  0  0  0  0  0  0  0  0  0  0  0
   -3.8970   22.4810  -28.7380 O   0  0  0  0  0  0  0  0  0  0  0  0
   -5.1840   22.4850  -30.7090 N   0  0  0  0  0  0  0  0  0  0  0  0
   -5.7650   23.7090  -30.9060 C   0  0  0  0  0  0  0  0  0  0  0  0
   -5.1900   25.0200  -30.5510 C   0  0  0  0  0  0  0  0  0  0  0  0
   -3.8780   25.1140  -29.9830 N   0  0  0  0  0  0  0  0  0  0  0  0
   -5.8320   26.0740  -30.8210 O   0  0  0  0  0  0  0  0  0  0  0  0
   -7.0090   23.5810  -31.5120 C   0  0  0  0  0  0  0  0  0  0  0  0
   -7.1780   22.2340  -31.7140 C   0  0  0  0  0  0  0  0  0  0  0  0
   -8.2390   21.5520  -32.3030 C   0  0  0  0  0  0  0  0  0  0  0  0
   -8.1520   20.1540  -32.4050 C   0  0  0  0  0  0  0  0  0  0  0  0
   -7.0090   19.4680  -31.9280 C   0  0  0  0  0  0  0  0  0  0  0  0
   -6.9270   17.9740  -32.0680 C   0  0  0  0  0  0  0  0  0  0  0  0
   -6.3890   17.4240  -30.9160 F   0  0  0  0  0  0  0  0  0  0  0  0
   -8.1930   17.4540  -32.2760 F   0  0  0  0  0  0  0  0  0  0  0  0
   -5.9510   20.1910  -31.3330 C   0  0  0  0  0  0  0  0  0  0  0  0
   -6.0650   21.5890  -31.2280 C   0  0  0  0  0  0  0  0  0  0  0  0
   -4.3172   24.2582  -26.0643 H   0  0  0  0  0  0  0  0  0  0  0  0
   -4.1376   25.1762  -27.7242 H   0  0  0  0  0  0  0  0  0  0  0  0
   -1.9754   24.6596  -25.5813 H   0  0  0  0  0  0  0  0  0  0  0  0
   -1.8140   26.8436  -27.4883 H   0  0  0  0  0  0  0  0  0  0  0  0
   -0.4784   25.6703  -27.1716 H   0  0  0  0  0  0  0  0  0  0  0  0
   -1.2700   21.6775  -29.2724 H   0  0  0  0  0  0  0  0  0  0  0  0
    0.2076   20.7977  -30.7432 H   0  0  0  0  0  0  0  0  0  0  0  0
   -1.1415   20.6510  -31.9201 H   0  0  0  0  0  0  0  0  0  0  0  0
   -0.1053   22.1182  -31.9201 H   0  0  0  0  0  0  0  0  0  0  0  0
   -3.4570   26.0470  -29.7730 H   0  0  0  0  0  0  0  0  0  0  0  0
   -3.2940   24.2540  -29.8540 H   0  0  0  0  0  0  0  0  0  0  0  0
   -7.7094   24.3877  -31.7741 H   0  0  0  0  0  0  0  0  0  0  0  0
   -9.1205   22.0927  -32.6779 H   0  0  0  0  0  0  0  0  0  0  0  0
   -8.9784   19.5875  -32.8591 H   0  0  0  0  0  0  0  0  0  0  0  0
   -6.2837   17.7286  -32.9259 H   0  0  0  0  0  0  0  0  0  0  0  0
   -5.0564   19.6712  -30.9595 H   0  0  0  0  0  0  0  0  0  0  0  0
  1  2  2  0
  2  3  1  0
  3  4  1  0
  4  5  1  0
  5  6  2  0
  5  7  1  0
  7  8  1  0
  8  9  1  0
  8 10  1  0
 10 11  1  0
 11 12  2  0
 11 13  1  0
 13 14  1  0
 14 15  1  0
 15 16  1  0
 15 17  2  0
 14 18  2  0
 18 19  1  0
 19 20  2  0
 20 21  1  0
 21 22  2  0
 22 23  1  0
 23 24  1  0
 23 25  1  0
 22 26  1  0
 26 27  2  0
 27 13  1  0
 27 19  1  0
  1 28  1  0
  1 29  1  0
  2 30  1  0
  3 31  1  0
  3 32  1  0
  8 33  1  1
  9 34  1  0
  9 35  1  0
  9 36  1  0
 16 37  1  0
 16 38  1  0
 18 39  1  0
 20 40  1  0
 21 41  1  0
 23 42  1  0
 26 43  1  0
M  END
>  <UniqueID>  (17) 
17

>  <SMILES>  (17) 
C=CCOC(=O)O[C@H](C)OC(=O)n1c(C(N)=O)cc2ccc(C(F)F)cc21

>  <Energy>  (17) 
74.59738937553747

>  <Genealogy>  (17) 
C=CCOC(=O)O[C@H](C)OC(=O)n1c(C(N)=O)cc2ccc(C(F)F)cc21 (chirality)
C=CCOC(=O)O[C@H](C)OC(=O)n1c(C(N)=O)cc2ccc(C(F)F)cc21 (3D coordinates assigned)
C=CCOC(=O)O[C@H](C)OC(=O)n1c(C(N)=O)cc2ccc(C(F)F)cc21 (optimized conformer: 74.59738937553747 kcal/mol)

>  <smiles>  (17) 
C=CCOC(=O)OC(C)OC(=O)n1c(C(N)=O)cc2ccc(C(F)F)cc21

>  <score_type>  (17) 
oracle

>  <origin>  (17) 
adg

>  <m_score__min__energy>  (17) 
-7.54

>  <m_primary>  (17) 
energy

$$$$
18:0
     RDKit          3D

 58 63  0  0  0  0  0  0  0  0999 V2000
   -5.1590   26.3900  -30.4680 N   0  0  0  0  0  0  0  0  0  0  0  0
   -6.1900   25.5590  -29.9290 C   0  0  0  0  0  0  0  0  0  0  0  0
   -6.8610   25.9760  -28.9470 O   0  0  0  0  0  0  0  0  0  0  0  0
   -6.4470   24.2130  -30.4880 C   0  0  0  0  0  0  0  0  0  0  0  0
   -7.7100   23.7550  -30.8570 C   0  0  0  0  0  0  0  0  0  0  0  0
   -7.5010   22.5130  -31.4090 C   0  0  0  0  0  0  0  0  0  0  0  0
   -8.4140   21.6050  -31.9350 C   0  0  0  0  0  0  0  0  0  0  0  0
   -7.9230   20.3800  -32.4160 C   0  0  0  0  0  0  0  0  0  0  0  0
   -6.5360   20.0790  -32.3570 C   0  0  0  0  0  0  0  0  0  0  0  0
   -6.0320   18.7740  -32.8540 C   0  0  0  0  0  0  0  0  0  0  0  0
   -5.6330   17.7720  -31.9540 C   0  0  0  0  0  0  0  0  0  0  0  0
   -5.1540   16.5460  -32.4230 C   0  0  0  0  0  0  0  0  0  0  0  0
   -5.0660   16.2890  -33.8020 C   0  0  0  0  0  0  0  0  0  0  0  0
   -4.5460   14.9820  -34.2820 C   0  0  0  0  0  0  0  0  0  0  0  0
   -5.3630   14.0650  -34.5660 O   0  0  0  0  0  0  0  0  0  0  0  0
   -3.0630   14.7110  -34.3760 C   0  0  0  0  0  0  0  0  0  0  0  0
   -2.2100   15.9810  -34.3160 C   0  0  2  0  0  0  0  0  0  0  0  0
   -0.7020   16.0530  -34.5980 C   0  0  0  0  0  0  0  0  0  0  0  0
   -1.2740   17.4470  -34.3020 C   0  0  2  0  0  0  0  0  0  0  0  0
   -0.4850   18.7150  -34.2870 C   0  0  0  0  0  0  0  0  0  0  0  0
   -0.1350   19.3070  -33.1930 N   0  0  0  0  0  0  0  0  0  0  0  0
    0.5890   20.4710  -33.5650 C   0  0  0  0  0  0  0  0  0  0  0  0
    0.6750   20.5820  -34.8810 C   0  0  0  0  0  0  0  0  0  0  0  0
    1.3560   21.6680  -35.6000 C   0  0  0  0  0  0  0  0  0  0  0  0
    1.2010   22.8610  -35.2320 O   0  0  0  0  0  0  0  0  0  0  0  0
    2.1730   21.3870  -36.6880 O   0  0  0  0  0  0  0  0  0  0  0  0
   -0.0280   19.4310  -35.5170 C   0  0  0  0  0  0  0  0  0  0  0  0
   -2.0630   16.9090  -33.1000 C   0  0  0  0  0  0  0  0  0  0  0  0
   -2.4620   17.1890  -35.2330 C   0  0  0  0  0  0  0  0  0  0  0  0
   -5.4620   17.2950  -34.7040 C   0  0  0  0  0  0  0  0  0  0  0  0
   -5.9410   18.5210  -34.2340 C   0  0  0  0  0  0  0  0  0  0  0  0
   -5.6410   21.0310  -31.8140 C   0  0  0  0  0  0  0  0  0  0  0  0
   -6.1570   22.2510  -31.3600 C   0  0  0  0  0  0  0  0  0  0  0  0
   -5.4940   23.2870  -30.7970 N   0  0  0  0  0  0  0  0  0  0  0  0
   -4.0830   23.3540  -30.5240 C   0  0  0  0  0  0  0  0  0  0  0  0
   -3.4310   22.3020  -30.2890 O   0  0  0  0  0  0  0  0  0  0  0  0
   -3.4230   24.5750  -30.5280 O   0  0  0  0  0  0  0  0  0  0  0  0
   -4.6200   26.1040  -31.3150 H   0  0  0  0  0  0  0  0  0  0  0  0
   -4.9590   27.3210  -30.0400 H   0  0  0  0  0  0  0  0  0  0  0  0
   -8.6706   24.2763  -30.7331 H   0  0  0  0  0  0  0  0  0  0  0  0
   -9.4881   21.8392  -31.9731 H   0  0  0  0  0  0  0  0  0  0  0  0
   -8.6209   19.6450  -32.8435 H   0  0  0  0  0  0  0  0  0  0  0  0
   -5.6982   17.9540  -30.8711 H   0  0  0  0  0  0  0  0  0  0  0  0
   -4.8423   15.7733  -31.7049 H   0  0  0  0  0  0  0  0  0  0  0  0
   -2.7741   14.0566  -33.5404 H   0  0  0  0  0  0  0  0  0  0  0  0
   -2.8791   14.2411  -35.3534 H   0  0  0  0  0  0  0  0  0  0  0  0
   -0.0111   15.6050  -33.8686 H   0  0  0  0  0  0  0  0  0  0  0  0
   -0.1088   15.6825  -35.4470 H   0  0  0  0  0  0  0  0  0  0  0  0
    1.0222   21.1875  -32.8516 H   0  0  0  0  0  0  0  0  0  0  0  0
   -0.8735   19.7591  -36.1395 H   0  0  0  0  0  0  0  0  0  0  0  0
    0.5825   18.8324  -36.2091 H   0  0  0  0  0  0  0  0  0  0  0  0
   -1.5024   16.5433  -32.2271 H   0  0  0  0  0  0  0  0  0  0  0  0
   -2.8209   17.3875  -32.4623 H   0  0  0  0  0  0  0  0  0  0  0  0
   -3.3803   17.7761  -35.0845 H   0  0  0  0  0  0  0  0  0  0  0  0
   -2.5478   17.2572  -36.3275 H   0  0  0  0  0  0  0  0  0  0  0  0
   -5.3939   17.1146  -35.7870 H   0  0  0  0  0  0  0  0  0  0  0  0
   -6.2499   19.2958  -34.9511 H   0  0  0  0  0  0  0  0  0  0  0  0
   -4.5638   20.8174  -31.7499 H   0  0  0  0  0  0  0  0  0  0  0  0
  1  2  1  0
  2  3  2  0
  2  4  1  0
  4  5  2  0
  5  6  1  0
  6  7  2  0
  7  8  1  0
  8  9  2  0
  9 10  1  0
 10 11  2  0
 11 12  1  0
 12 13  2  0
 13 14  1  0
 14 15  2  0
 14 16  1  0
 17 16  1  1
 17 18  1  0
 18 19  1  0
 19 20  1  1
 20 21  2  0
 21 22  1  0
 22 23  2  0
 23 24  1  0
 24 25  2  0
 24 26  1  0
 23 27  1  0
 19 28  1  0
 19 29  1  0
 13 30  1  0
 30 31  2  0
  9 32  1  0
 32 33  2  0
 33 34  1  0
 34 35  1  0
 35 36  2  0
 35 37  1  0
 34  4  1  0
 33  6  1  0
 31 10  1  0
 28 17  1  0
 29 17  1  0
 27 20  1  0
  1 38  1  0
  1 39  1  0
  5 40  1  0
  7 41  1  0
  8 42  1  0
 11 43  1  0
 12 44  1  0
 16 45  1  0
 16 46  1  0
 18 47  1  0
 18 48  1  0
 22 49  1  0
 27 50  1  0
 27 51  1  0
 28 52  1  0
 28 53  1  0
 29 54  1  0
 29 55  1  0
 30 56  1  0
 31 57  1  0
 32 58  1  0
M  CHG  2  26  -1  37  -1
M  END
>  <UniqueID>  (18) 
18

>  <SMILES>  (18) 
NC(=O)c1cc2ccc(-c3ccc(C(=O)CC45CC(C6=NC=C(C(=O)[O-])C6)(C4)C5)cc3)cc2n1C(=O)[O-]

>  <Energy>  (18) 
414.85482854827717

>  <Genealogy>  (18) 
NC(=O)c1cc2ccc(-c3ccc(C(=O)CC45CC(C6=NC=C(C(=O)[O-])C6)(C4)C5)cc3)cc2n1C(=O)[O-] (protonated)
NC(=O)c1cc2ccc(-c3ccc(C(=O)CC45CC(C6=NC=C(C(=O)[O-])C6)(C4)C5)cc3)cc2n1C(=O)[O-] (3D coordinates assigned)
NC(=O)c1cc2ccc(-c3ccc(C(=O)CC45CC(C6=NC=C(C(=O)[O-])C6)(C4)C5)cc3)cc2n1C(=O)[O-] (nonaromatic ring conformer: 414.85482854827717 kcal/mol)

>  <smiles>  (18) 
NC(=O)c1cc2ccc(-c3ccc(C(=O)CC45CC(C6=NC=C(C(=O)O)C6)(C4)C5)cc3)cc2n1C(=O)O

>  <score_type>  (18) 
oracle

>  <origin>  (18) 
adg

>  <m_score__min__energy>  (18) 
-12.609999999999999

>  <m_primary>  (18) 
energy

$$$$
19:0
     RDKit          3D

 42 43  0  0  0  0  0  0  0  0999 V2000
   -1.1590   20.3590  -29.6220 C   0  0  0  0  0  0  0  0  0  0  0  0
   -1.9620   21.6610  -29.5460 C   0  0  2  0  0  0  0  0  0  0  0  0
   -2.1860   22.0670  -28.0850 C   0  0  0  0  0  0  0  0  0  0  0  0
   -2.4990   23.5000  -27.9890 N   0  0  0  0  0  0  0  0  0  0  0  0
   -3.6520   23.9410  -27.2010 C   0  0  0  0  0  0  0  0  0  0  0  0
   -1.6360   24.4800  -28.5960 C   0  0  0  0  0  0  0  0  0  0  0  0
   -2.1130   25.3680  -29.3530 O   0  0  0  0  0  0  0  0  0  0  0  0
   -0.2670   24.4630  -28.3560 O   0  0  0  0  0  0  0  0  0  0  0  0
   -3.2270   21.4920  -30.1850 O   0  0  0  0  0  0  0  0  0  0  0  0
   -3.8320   22.4670  -30.9860 C   0  0  0  0  0  0  0  0  0  0  0  0
   -3.1260   23.2430  -31.6850 O   0  0  0  0  0  0  0  0  0  0  0  0
   -5.2650   22.5890  -30.9970 N   0  0  0  0  0  0  0  0  0  0  0  0
   -5.9960   23.7050  -30.7220 C   0  0  0  0  0  0  0  0  0  0  0  0
   -5.4670   24.9740  -30.1830 C   0  0  0  0  0  0  0  0  0  0  0  0
   -4.2020   25.4860  -30.6040 N   0  0  0  0  0  0  0  0  0  0  0  0
   -6.1170   25.5880  -29.2950 O   0  0  0  0  0  0  0  0  0  0  0  0
   -7.3460   23.4860  -30.9780 C   0  0  0  0  0  0  0  0  0  0  0  0
   -7.4260   22.1830  -31.4120 C   0  0  0  0  0  0  0  0  0  0  0  0
   -8.5300   21.4500  -31.8330 C   0  0  0  0  0  0  0  0  0  0  0  0
   -8.3180   20.1350  -32.2780 C   0  0  0  0  0  0  0  0  0  0  0  0
   -7.0140   19.5740  -32.2880 C   0  0  0  0  0  0  0  0  0  0  0  0
   -6.7910   18.1850  -32.8300 C   0  0  0  0  0  0  0  0  0  0  0  0
   -7.9330   17.4170  -32.6910 F   0  0  0  0  0  0  0  0  0  0  0  0
   -6.4600   18.2310  -34.1740 F   0  0  0  0  0  0  0  0  0  0  0  0
   -5.7570   17.5870  -32.1330 F   0  0  0  0  0  0  0  0  0  0  0  0
   -5.9140   20.3620  -31.8770 C   0  0  0  0  0  0  0  0  0  0  0  0
   -6.1570   21.6620  -31.4170 C   0  0  0  0  0  0  0  0  0  0  0  0
   -0.9397   20.0035  -28.6044 H   0  0  0  0  0  0  0  0  0  0  0  0
   -1.7447   19.5977  -30.1581 H   0  0  0  0  0  0  0  0  0  0  0  0
   -0.2158   20.5407  -30.1581 H   0  0  0  0  0  0  0  0  0  0  0  0
   -1.3918   22.4505  -30.0574 H   0  0  0  0  0  0  0  0  0  0  0  0
   -3.0236   21.4855  -27.6724 H   0  0  0  0  0  0  0  0  0  0  0  0
   -1.2665   21.8657  -27.5158 H   0  0  0  0  0  0  0  0  0  0  0  0
   -3.4195   23.8521  -26.1295 H   0  0  0  0  0  0  0  0  0  0  0  0
   -3.8804   24.9900  -27.4408 H   0  0  0  0  0  0  0  0  0  0  0  0
   -4.5221   23.3122  -27.4408 H   0  0  0  0  0  0  0  0  0  0  0  0
   -3.5680   24.9200  -31.2100 H   0  0  0  0  0  0  0  0  0  0  0  0
   -3.8650   26.4070  -30.2490 H   0  0  0  0  0  0  0  0  0  0  0  0
   -8.1727   24.2018  -30.8588 H   0  0  0  0  0  0  0  0  0  0  0  0
   -9.5393   21.8871  -31.8179 H   0  0  0  0  0  0  0  0  0  0  0  0
   -9.1718   19.5331  -32.6226 H   0  0  0  0  0  0  0  0  0  0  0  0
   -4.8899   19.9624  -31.9178 H   0  0  0  0  0  0  0  0  0  0  0  0
  1  2  1  0
  2  3  1  0
  3  4  1  0
  4  5  1  0
  4  6  1  0
  6  7  2  0
  6  8  1  0
  2  9  1  0
  9 10  1  0
 10 11  2  0
 10 12  1  0
 12 13  1  0
 13 14  1  0
 14 15  1  0
 14 16  2  0
 13 17  2  0
 17 18  1  0
 18 19  2  0
 19 20  1  0
 20 21  2  0
 21 22  1  0
 22 23  1  0
 22 24  1  0
 22 25  1  0
 21 26  1  0
 26 27  2  0
 27 12  1  0
 27 18  1  0
  1 28  1  0
  1 29  1  0
  1 30  1  0
  2 31  1  6
  3 32  1  0
  3 33  1  0
  5 34  1  0
  5 35  1  0
  5 36  1  0
 15 37  1  0
 15 38  1  0
 17 39  1  0
 19 40  1  0
 20 41  1  0
 26 42  1  0
M  CHG  1   8  -1
M  END
>  <UniqueID>  (19) 
19

>  <SMILES>  (19) 
C[C@H](CN(C)C(=O)[O-])OC(=O)n1c(C(N)=O)cc2ccc(C(F)(F)F)cc21

>  <Energy>  (19) 
72.7622591676517

>  <Genealogy>  (19) 
CC(CN(C)C(=O)[O-])OC(=O)n1c(C(N)=O)cc2ccc(C(F)(F)F)cc21 (protonated)
C[C@H](CN(C)C(=O)[O-])OC(=O)n1c(C(N)=O)cc2ccc(C(F)(F)F)cc21 (chirality)
C[C@H](CN(C)C(=O)[O-])OC(=O)n1c(C(N)=O)cc2ccc(C(F)(F)F)cc21 (3D coordinates assigned)
C[C@H](CN(C)C(=O)[O-])OC(=O)n1c(C(N)=O)cc2ccc(C(F)(F)F)cc21 (optimized conformer: 72.7622591676517 kcal/mol)

>  <smiles>  (19) 
CC(CN(C)C(=O)O)OC(=O)n1c(C(N)=O)cc2ccc(C(F)(F)F)cc21

>  <score_type>  (19) 
oracle

>  <origin>  (19) 
adg

>  <m_score__min__energy>  (19) 
-10.24

>  <m_primary>  (19) 
energy

$$$$
20:0
     RDKit          3D

 35 36  0  0  0  0  0  0  0  0999 V2000
   -6.4770   17.7780  -33.8290 C   0  0  0  0  0  0  0  0  0  0  0  0
   -6.5100   18.2720  -32.4480 N   0  0  0  0  0  0  0  0  0  0  0  0
   -6.3250   17.3170  -31.3490 C   0  0  0  0  0  0  0  0  0  0  0  0
   -6.7240   19.6820  -32.1720 C   0  0  0  0  0  0  0  0  0  0  0  0
   -8.0070   20.2730  -32.3590 C   0  0  0  0  0  0  0  0  0  0  0  0
   -8.2260   21.6320  -32.0850 C   0  0  0  0  0  0  0  0  0  0  0  0
   -7.1540   22.3890  -31.6320 C   0  0  0  0  0  0  0  0  0  0  0  0
   -7.0980   23.7150  -31.2660 C   0  0  0  0  0  0  0  0  0  0  0  0
   -5.7780   23.9360  -30.8810 C   0  0  0  0  0  0  0  0  0  0  0  0
   -5.2570   25.2620  -30.4890 C   0  0  0  0  0  0  0  0  0  0  0  0
   -3.9340   25.6620  -30.8340 N   0  0  0  0  0  0  0  0  0  0  0  0
   -6.0080   26.0720  -29.8810 O   0  0  0  0  0  0  0  0  0  0  0  0
   -5.0480   22.7910  -30.9980 N   0  0  0  0  0  0  0  0  0  0  0  0
   -3.6810   22.5810  -30.6090 C   0  0  0  0  0  0  0  0  0  0  0  0
   -2.7510   23.0920  -31.2900 O   0  0  0  0  0  0  0  0  0  0  0  0
   -3.3990   21.7900  -29.4870 O   0  0  0  0  0  0  0  0  0  0  0  0
   -2.7920   22.2490  -28.3120 C   0  0  0  0  0  0  0  0  0  0  0  0
   -2.0940   21.4880  -27.5900 O   0  0  0  0  0  0  0  0  0  0  0  0
   -3.0100   23.9560  -27.8310 S   0  0  0  0  0  0  0  0  0  0  0  0
   -1.5150   24.4680  -28.6670 C   0  0  0  0  0  0  0  0  0  0  0  0
   -0.4960   23.7290  -28.6440 O   0  0  0  0  0  0  0  0  0  0  0  0
   -1.4760   25.6840  -29.3350 O   0  0  0  0  0  0  0  0  0  0  0  0
   -5.9050   21.8530  -31.4590 C   0  0  0  0  0  0  0  0  0  0  0  0
   -5.6600   20.4970  -31.7070 C   0  0  0  0  0  0  0  0  0  0  0  0
   -6.4037   16.6805  -33.8242 H   0  0  0  0  0  0  0  0  0  0  0  0
   -7.3974   18.0817  -34.3492 H   0  0  0  0  0  0  0  0  0  0  0  0
   -5.6051   18.2014  -34.3492 H   0  0  0  0  0  0  0  0  0  0  0  0
   -6.4265   17.8408  -30.3871 H   0  0  0  0  0  0  0  0  0  0  0  0
   -7.0867   16.5264  -31.4181 H   0  0  0  0  0  0  0  0  0  0  0  0
   -5.3232   16.8680  -31.4181 H   0  0  0  0  0  0  0  0  0  0  0  0
   -8.8397   19.6539  -32.7242 H   0  0  0  0  0  0  0  0  0  0  0  0
   -9.2188   22.0844  -32.2252 H   0  0  0  0  0  0  0  0  0  0  0  0
   -7.9210   24.4448  -31.2756 H   0  0  0  0  0  0  0  0  0  0  0  0
   -3.1060   25.1150  -30.5120 H   0  0  0  0  0  0  0  0  0  0  0  0
   -4.6592   20.0707  -31.5440 H   0  0  0  0  0  0  0  0  0  0  0  0
  1  2  1  0
  2  3  1  0
  2  4  1  0
  4  5  2  0
  5  6  1  0
  6  7  2  0
  7  8  1  0
  8  9  2  0
  9 10  1  0
 10 11  1  0
 10 12  2  0
  9 13  1  0
 13 14  1  0
 14 15  2  0
 14 16  1  0
 16 17  1  0
 17 18  2  0
 17 19  1  0
 19 20  1  0
 20 21  2  0
 20 22  1  0
 13 23  1  0
 23 24  2  0
 24  4  1  0
 23  7  1  0
  1 25  1  0
  1 26  1  0
  1 27  1  0
  3 28  1  0
  3 29  1  0
  3 30  1  0
  5 31  1  0
  6 32  1  0
  8 33  1  0
 11 34  1  0
 24 35  1  0
M  CHG  2  11  -1  22  -1
M  END
>  <UniqueID>  (20) 
20

>  <SMILES>  (20) 
CN(C)c1ccc2cc(C([NH-])=O)n(C(=O)OC(=O)SC(=O)[O-])c2c1

>  <Energy>  (20) 
73.22523696151256

>  <Genealogy>  (20) 
CN(C)c1ccc2cc(C([NH-])=O)n(C(=O)OC(=O)SC(=O)[O-])c2c1 (protonated)
CN(C)c1ccc2cc(C([NH-])=O)n(C(=O)OC(=O)SC(=O)[O-])c2c1 (3D coordinates assigned)
CN(C)c1ccc2cc(C([NH-])=O)n(C(=O)OC(=O)SC(=O)[O-])c2c1 (optimized conformer: 73.22523696151256 kcal/mol)

>  <smiles>  (20) 
CN(C)c1ccc2cc(C(N)=O)n(C(=O)OC(=O)SC(=O)O)c2c1

>  <score_type>  (20) 
oracle

>  <origin>  (20) 
adg

>  <m_score__min__energy>  (20) 
-12.52

>  <m_primary>  (20) 
energy

$$$$
21:0
     RDKit          3D

 92 99  0  0  0  0  0  0  0  0999 V2000
   -4.7610   13.7780  -32.6300 C   0  0  0  0  0  0  0  0  0  0  0  0
   -4.8050   14.9920  -33.5750 C   0  0  1  0  0  0  0  0  0  0  0  0
   -5.8390   16.0570  -33.1420 C   0  0  0  0  0  0  0  0  0  0  0  0
   -5.4980   17.4310  -33.6280 N   0  0  0  0  0  0  0  0  0  0  0  0
   -6.6920   18.3370  -33.5510 C   0  0  0  0  0  0  0  0  0  0  0  0
   -7.0980   18.5890  -32.0680 C   0  0  0  0  0  0  0  0  0  0  0  0
   -5.9210   19.2120  -31.2820 C   0  0  0  0  0  0  0  0  0  0  0  0
   -5.1100   20.0710  -32.1620 N   0  0  0  0  0  0  0  0  0  0  0  0
   -3.6630   20.0180  -32.1310 C   0  0  0  0  0  0  0  0  0  0  0  0
   -2.9710   20.0500  -30.8930 C   0  0  0  0  0  0  0  0  0  0  0  0
   -1.5640   20.0710  -30.8490 C   0  0  0  0  0  0  0  0  0  0  0  0
   -0.8720   20.0630  -32.0570 C   0  0  0  0  0  0  0  0  0  0  0  0
   -1.5300   20.0010  -33.2610 C   0  0  0  0  0  0  0  0  0  0  0  0
   -2.9180   19.9690  -33.3340 C   0  0  0  0  0  0  0  0  0  0  0  0
   -0.5370   20.1150  -34.3220 C   0  0  0  0  0  0  0  0  0  0  0  0
   -0.7990   20.1920  -35.5490 O   0  0  0  0  0  0  0  0  0  0  0  0
    0.7780   20.2180  -33.7670 N   0  0  0  0  0  0  0  0  0  0  0  0
    1.9760   20.7550  -34.4280 C   0  0  1  0  0  0  0  0  0  0  0  0
    2.7330   19.6420  -35.1840 C   0  0  0  0  0  0  0  0  0  0  0  0
    3.9420   20.2090  -35.9390 C   0  0  0  0  0  0  0  0  0  0  0  0
    3.5090   21.3100  -36.8630 C   0  0  0  0  0  0  0  0  0  0  0  0
    4.1670   21.5480  -37.9100 O   0  0  0  0  0  0  0  0  0  0  0  0
    2.3900   22.1340  -36.5290 N   0  0  0  0  0  0  0  0  0  0  0  0
    1.6210   21.8960  -35.3490 C   0  0  0  0  0  0  0  0  0  0  0  0
    0.6810   22.6880  -35.0510 O   0  0  0  0  0  0  0  0  0  0  0  0
    0.5480   20.2160  -32.3510 C   0  0  0  0  0  0  0  0  0  0  0  0
    1.4500   20.3990  -31.4930 O   0  0  0  0  0  0  0  0  0  0  0  0
   -5.8300   20.7730  -33.2310 C   0  0  0  0  0  0  0  0  0  0  0  0
   -6.4610   19.7480  -34.1990 C   0  0  0  0  0  0  0  0  0  0  0  0
   -4.8720   17.3310  -34.9760 C   0  0  0  0  0  0  0  0  0  0  0  0
   -3.4760   16.6890  -34.8340 C   0  0  0  0  0  0  0  0  0  0  0  0
   -3.5070   15.6540  -33.7920 N   0  0  0  0  0  0  0  0  0  0  0  0
   -2.3790   15.5220  -32.9130 C   0  0  0  0  0  0  0  0  0  0  0  0
   -2.0100   14.2770  -32.3880 C   0  0  0  0  0  0  0  0  0  0  0  0
   -0.8610   14.1750  -31.6080 C   0  0  0  0  0  0  0  0  0  0  0  0
   -0.1060   15.3190  -31.3140 C   0  0  0  0  0  0  0  0  0  0  0  0
    1.1520   15.1990  -30.5520 C   0  0  0  0  0  0  0  0  0  0  0  0
    1.4320   14.1180  -29.9640 O   0  0  0  0  0  0  0  0  0  0  0  0
    2.0120   16.3260  -30.3790 N   0  0  0  0  0  0  0  0  0  0  0  0
    2.0320   17.2280  -29.3570 C   0  0  0  0  0  0  0  0  0  0  0  0
    1.1430   17.1920  -28.1740 C   0  0  0  0  0  0  0  0  0  0  0  0
    0.7710   15.9500  -27.5750 N   0  0  0  0  0  0  0  0  0  0  0  0
    0.7120   18.2660  -27.6730 O   0  0  0  0  0  0  0  0  0  0  0  0
    2.9190   18.2660  -29.6420 C   0  0  0  0  0  0  0  0  0  0  0  0
    3.4190   17.9820  -30.8940 C   0  0  0  0  0  0  0  0  0  0  0  0
    4.2650   18.7270  -31.7060 C   0  0  0  0  0  0  0  0  0  0  0  0
    4.5420   18.2340  -32.9940 C   0  0  0  0  0  0  0  0  0  0  0  0
    3.9840   17.0040  -33.4360 C   0  0  0  0  0  0  0  0  0  0  0  0
    4.2410   16.4890  -34.8300 C   0  0  0  0  0  0  0  0  0  0  0  0
    5.0390   17.3600  -35.5530 F   0  0  0  0  0  0  0  0  0  0  0  0
    4.8780   15.2650  -34.7760 F   0  0  0  0  0  0  0  0  0  0  0  0
    3.0320   16.3360  -35.4810 F   0  0  0  0  0  0  0  0  0  0  0  0
    3.1030   16.2920  -32.5870 C   0  0  0  0  0  0  0  0  0  0  0  0
    2.8510   16.8090  -31.3160 C   0  0  0  0  0  0  0  0  0  0  0  0
   -0.5680   16.5600  -31.7740 C   0  0  0  0  0  0  0  0  0  0  0  0
   -1.6730   16.6300  -32.5630 N   0  0  0  0  0  0  0  0  0  0  0  0
   -4.7736   14.1251  -31.5863 H   0  0  0  0  0  0  0  0  0  0  0  0
   -5.6365   13.1381  -32.8142 H   0  0  0  0  0  0  0  0  0  0  0  0
   -3.8414   13.2031  -32.8142 H   0  0  0  0  0  0  0  0  0  0  0  0
   -5.1136   14.5446  -34.5313 H   0  0  0  0  0  0  0  0  0  0  0  0
   -6.8227   15.7758  -33.5460 H   0  0  0  0  0  0  0  0  0  0  0  0
   -5.8415   16.0869  -32.0424 H   0  0  0  0  0  0  0  0  0  0  0  0
   -7.4778   17.8107  -34.1128 H   0  0  0  0  0  0  0  0  0  0  0  0
   -7.9563   19.2764  -32.0396 H   0  0  0  0  0  0  0  0  0  0  0  0
   -7.3659   17.6280  -31.6046 H   0  0  0  0  0  0  0  0  0  0  0  0
   -6.3187   19.8159  -30.4531 H   0  0  0  0  0  0  0  0  0  0  0  0
   -5.2863   18.4029  -30.8914 H   0  0  0  0  0  0  0  0  0  0  0  0
   -3.5425   20.0585  -29.9531 H   0  0  0  0  0  0  0  0  0  0  0  0
   -1.0275   20.0931  -29.8890 H   0  0  0  0  0  0  0  0  0  0  0  0
   -3.4273   19.9068  -34.3070 H   0  0  0  0  0  0  0  0  0  0  0  0
    2.6459   21.1497  -33.6499 H   0  0  0  0  0  0  0  0  0  0  0  0
    3.0818   18.8901  -34.4608 H   0  0  0  0  0  0  0  0  0  0  0  0
    2.0472   19.1881  -35.9145 H   0  0  0  0  0  0  0  0  0  0  0  0
    4.6679   20.6073  -35.2149 H   0  0  0  0  0  0  0  0  0  0  0  0
    4.4034   19.4051  -36.5314 H   0  0  0  0  0  0  0  0  0  0  0  0
   -6.6231   21.3945  -32.7898 H   0  0  0  0  0  0  0  0  0  0  0  0
   -5.1250   21.4095  -33.7858 H   0  0  0  0  0  0  0  0  0  0  0  0
   -7.4319   20.1395  -34.5367 H   0  0  0  0  0  0  0  0  0  0  0  0
   -5.7550   19.6109  -35.0313 H   0  0  0  0  0  0  0  0  0  0  0  0
   -5.5002   16.7075  -35.6292 H   0  0  0  0  0  0  0  0  0  0  0  0
   -4.7771   18.3340  -35.4175 H   0  0  0  0  0  0  0  0  0  0  0  0
   -3.1844   16.2338  -35.7920 H   0  0  0  0  0  0  0  0  0  0  0  0
   -2.7471   17.4638  -34.5542 H   0  0  0  0  0  0  0  0  0  0  0  0
   -2.6233   13.3865  -32.5903 H   0  0  0  0  0  0  0  0  0  0  0  0
   -0.5451   13.1947  -31.2217 H   0  0  0  0  0  0  0  0  0  0  0  0
    1.0670   15.0340  -27.9890 H   0  0  0  0  0  0  0  0  0  0  0  0
    0.1740   15.9390  -26.7190 H   0  0  0  0  0  0  0  0  0  0  0  0
    3.1664   19.1271  -29.0038 H   0  0  0  0  0  0  0  0  0  0  0  0
    4.7040   19.6718  -31.3531 H   0  0  0  0  0  0  0  0  0  0  0  0
    5.1976   18.8068  -33.6664 H   0  0  0  0  0  0  0  0  0  0  0  0
    2.6300   15.3565  -32.9204 H   0  0  0  0  0  0  0  0  0  0  0  0
   -0.0344   17.4807  -31.4955 H   0  0  0  0  0  0  0  0  0  0  0  0
  1  2  1  0
  2  3  1  0
  3  4  1  0
  4  5  1  0
  5  6  1  0
  6  7  1  0
  7  8  1  0
  8  9  1  0
  9 10  2  0
 10 11  1  0
 11 12  2  0
 12 13  1  0
 13 14  2  0
 13 15  1  0
 15 16  2  0
 15 17  1  0
 17 18  1  0
 18 19  1  0
 19 20  1  0
 20 21  1  0
 21 22  2  0
 21 23  1  0
 23 24  1  0
 24 25  2  0
 17 26  1  0
 26 27  2  0
  8 28  1  0
 28 29  1  0
  4 30  1  0
 30 31  1  0
 31 32  1  0
 32 33  1  0
 33 34  2  0
 34 35  1  0
 35 36  2  0
 36 37  1  0
 37 38  2  0
 37 39  1  0
 39 40  1  0
 40 41  1  0
 41 42  1  0
 41 43  2  0
 40 44  2  0
 44 45  1  0
 45 46  2  0
 46 47  1  0
 47 48  2  0
 48 49  1  0
 49 50  1  0
 49 51  1  0
 49 52  1  0
 48 53  1  0
 53 54  2  0
 36 55  1  0
 55 56  2  0
 32  2  1  0
 56 33  1  0
 29  5  1  0
 54 39  1  0
 14  9  1  0
 24 18  1  0
 54 45  1  0
 26 12  1  0
  1 57  1  0
  1 58  1  0
  1 59  1  0
  2 60  1  6
  3 61  1  0
  3 62  1  0
  5 63  1  0
  6 64  1  0
  6 65  1  0
  7 66  1  0
  7 67  1  0
 10 68  1  0
 11 69  1  0
 14 70  1  0
 18 71  1  1
 19 72  1  0
 19 73  1  0
 20 74  1  0
 20 75  1  0
 28 76  1  0
 28 77  1  0
 29 78  1  0
 29 79  1  0
 30 80  1  0
 30 81  1  0
 31 82  1  0
 31 83  1  0
 34 84  1  0
 35 85  1  0
 42 86  1  0
 42 87  1  0
 44 88  1  0
 46 89  1  0
 47 90  1  0
 53 91  1  0
 55 92  1  0
M  CHG  1  23  -1
M  END
>  <UniqueID>  (21) 
21

>  <SMILES>  (21) 
C[C@H]1CN(C2CCN(c3ccc4c(c3)C(=O)N([C@H]3CCC(=O)[N-]C3=O)C4=O)CC2)CCN1c1ccc(C(=O)n2c(C(N)=O)cc3ccc(C(F)(F)F)cc32)cn1

>  <Energy>  (21) 
204.21733617010517

>  <Genealogy>  (21) 
C[C@H]1CN(C2CCN(c3ccc4c(c3)C(=O)N(C3CCC(=O)[N-]C3=O)C4=O)CC2)CCN1c1ccc(C(=O)n2c(C(N)=O)cc3ccc(C(F)(F)F)cc32)cn1 (protonated)
C[C@H]1CN(C2CCN(c3ccc4c(c3)C(=O)N([C@H]3CCC(=O)[N-]C3=O)C4=O)CC2)CCN1c1ccc(C(=O)n2c(C(N)=O)cc3ccc(C(F)(F)F)cc32)cn1 (chirality)
C[C@H]1CN(C2CCN(c3ccc4c(c3)C(=O)N([C@H]3CCC(=O)[N-]C3=O)C4=O)CC2)CCN1c1ccc(C(=O)n2c(C(N)=O)cc3ccc(C(F)(F)F)cc32)cn1 (3D coordinates assigned)
C[C@H]1CN(C2CCN(c3ccc4c(c3)C(=O)N([C@H]3CCC(=O)[N-]C3=O)C4=O)CC2)CCN1c1ccc(C(=O)n2c(C(N)=O)cc3ccc(C(F)(F)F)cc32)cn1 (nonaromatic ring conformer: 204.21733617010517 kcal/mol)

>  <smiles>  (21) 
C[C@H]1CN(C2CCN(c3ccc4c(c3)C(=O)N(C3CCC(=O)NC3=O)C4=O)CC2)CCN1c1ccc(C(=O)n2c(C(N)=O)cc3ccc(C(F)(F)F)cc32)cn1

>  <score_type>  (21) 
oracle

>  <origin>  (21) 
adg

>  <m_score__min__energy>  (21) 
-12.93

>  <m_primary>  (21) 
energy

$$$$
22:0
     RDKit          3D

 66 67  0  0  0  0  0  0  0  0999 V2000
   -6.0690   25.2830  -29.3410 C   0  0  0  0  0  0  0  0  0  0  0  0
   -5.3370   25.6880  -30.6160 C   0  0  0  0  0  0  0  0  0  0  0  0
   -3.9460   25.3840  -30.5180 O   0  0  0  0  0  0  0  0  0  0  0  0
   -3.4540   24.1070  -30.2290 C   0  0  0  0  0  0  0  0  0  0  0  0
   -2.5200   23.9490  -29.3960 O   0  0  0  0  0  0  0  0  0  0  0  0
   -4.0390   22.9380  -30.8930 C   0  0  0  0  0  0  0  0  0  0  0  0
   -3.2910   22.1420  -31.5200 O   0  0  0  0  0  0  0  0  0  0  0  0
   -5.4220   22.7220  -30.8110 O   0  0  0  0  0  0  0  0  0  0  0  0
   -6.2990   22.7070  -31.9040 C   0  0  0  0  0  0  0  0  0  0  0  0
   -6.5590   23.7660  -32.5350 O   0  0  0  0  0  0  0  0  0  0  0  0
   -6.9010   21.4660  -32.3110 N   0  0  0  0  0  0  0  0  0  0  0  0
   -8.2130   21.1070  -32.2070 C   0  0  0  0  0  0  0  0  0  0  0  0
   -9.3190   22.0020  -31.7990 C   0  0  0  0  0  0  0  0  0  0  0  0
   -9.3740   23.3520  -32.2660 N   0  0  0  0  0  0  0  0  0  0  0  0
  -10.2080   21.5890  -31.0100 O   0  0  0  0  0  0  0  0  0  0  0  0
   -8.3940   19.7910  -32.6260 C   0  0  0  0  0  0  0  0  0  0  0  0
   -7.1440   19.3500  -32.9950 C   0  0  0  0  0  0  0  0  0  0  0  0
   -6.7380   18.1060  -33.4760 C   0  0  0  0  0  0  0  0  0  0  0  0
   -5.3730   17.9180  -33.7480 C   0  0  0  0  0  0  0  0  0  0  0  0
   -4.4500   18.9660  -33.5280 C   0  0  0  0  0  0  0  0  0  0  0  0
   -3.0520   18.7610  -33.7950 C   0  0  0  0  0  0  0  0  0  0  0  0
   -1.8790   18.6030  -34.0150 C   0  0  0  0  0  0  0  0  0  0  0  0
   -0.1110   18.3440  -34.3510 Si  0  0  0  0  0  4  0  0  0  0  0  0
    0.5060   20.0450  -34.9240 C   0  0  0  0  0  0  0  0  0  0  0  0
    0.6670   20.1380  -36.4430 C   0  0  0  0  0  0  0  0  0  0  0  0
   -0.3870   21.1680  -34.3900 C   0  0  0  0  0  0  0  0  0  0  0  0
   -0.0600   17.0240  -35.7240 C   0  0  0  0  0  0  0  0  0  0  0  0
   -1.2880   16.1120  -35.6630 C   0  0  0  0  0  0  0  0  0  0  0  0
    1.2280   16.1960  -35.7350 C   0  0  0  0  0  0  0  0  0  0  0  0
    0.7150   17.8690  -32.7010 C   0  0  0  0  0  0  0  0  0  0  0  0
    0.8660   19.0780  -31.7720 C   0  0  0  0  0  0  0  0  0  0  0  0
   -0.0100   16.7310  -31.9790 C   0  0  0  0  0  0  0  0  0  0  0  0
   -4.8910   20.2120  -33.0390 C   0  0  0  0  0  0  0  0  0  0  0  0
   -6.2600   20.3780  -32.7940 C   0  0  0  0  0  0  0  0  0  0  0  0
   -5.4863   25.6054  -28.4655 H   0  0  0  0  0  0  0  0  0  0  0  0
   -7.0592   25.7616  -29.3189 H   0  0  0  0  0  0  0  0  0  0  0  0
   -6.1896   24.1899  -29.3189 H   0  0  0  0  0  0  0  0  0  0  0  0
   -5.7668   25.1412  -31.4682 H   0  0  0  0  0  0  0  0  0  0  0  0
   -5.4524   26.7723  -30.7605 H   0  0  0  0  0  0  0  0  0  0  0  0
   -8.6790   23.7170  -32.9530 H   0  0  0  0  0  0  0  0  0  0  0  0
  -10.1500   23.9790  -31.9600 H   0  0  0  0  0  0  0  0  0  0  0  0
   -9.3364   19.2244  -32.6556 H   0  0  0  0  0  0  0  0  0  0  0  0
   -7.4648   17.2962  -33.6376 H   0  0  0  0  0  0  0  0  0  0  0  0
   -5.0203   16.9503  -34.1342 H   0  0  0  0  0  0  0  0  0  0  0  0
    1.5113   20.1725  -34.4961 H   0  0  0  0  0  0  0  0  0  0  0  0
    1.5970   20.6752  -36.6809 H   0  0  0  0  0  0  0  0  0  0  0  0
    0.7091   19.1251  -36.8700 H   0  0  0  0  0  0  0  0  0  0  0  0
   -0.1894   20.6806  -36.8700 H   0  0  0  0  0  0  0  0  0  0  0  0
   -0.3757   21.1538  -33.2901 H   0  0  0  0  0  0  0  0  0  0  0  0
   -0.0105   22.1375  -34.7481 H   0  0  0  0  0  0  0  0  0  0  0  0
   -1.4164   21.0195  -34.7481 H   0  0  0  0  0  0  0  0  0  0  0  0
   -0.0754   17.5822  -36.6717 H   0  0  0  0  0  0  0  0  0  0  0  0
   -1.5490   15.9182  -34.6121 H   0  0  0  0  0  0  0  0  0  0  0  0
   -2.1342   16.6023  -36.1665 H   0  0  0  0  0  0  0  0  0  0  0  0
   -1.0632   15.1602  -36.1665 H   0  0  0  0  0  0  0  0  0  0  0  0
    1.5427   15.9937  -34.7006 H   0  0  0  0  0  0  0  0  0  0  0  0
    1.0476   15.2442  -36.2562 H   0  0  0  0  0  0  0  0  0  0  0  0
    2.0190   16.7552  -36.2562 H   0  0  0  0  0  0  0  0  0  0  0  0
    1.7185   17.5033  -32.9642 H   0  0  0  0  0  0  0  0  0  0  0  0
    0.8242   18.7434  -30.7250 H   0  0  0  0  0  0  0  0  0  0  0  0
    1.8323   19.5680  -31.9620 H   0  0  0  0  0  0  0  0  0  0  0  0
    0.0499   19.7906  -31.9620 H   0  0  0  0  0  0  0  0  0  0  0  0
    0.0792   16.8710  -30.8916 H   0  0  0  0  0  0  0  0  0  0  0  0
   -1.0726   16.7346  -32.2632 H   0  0  0  0  0  0  0  0  0  0  0  0
    0.4423   15.7694  -32.2632 H   0  0  0  0  0  0  0  0  0  0  0  0
   -4.1801   21.0310  -32.8549 H   0  0  0  0  0  0  0  0  0  0  0  0
  1  2  1  0
  2  3  1  0
  3  4  1  0
  4  5  2  0
  4  6  1  0
  6  7  2  0
  6  8  1  0
  8  9  1  0
  9 10  2  0
  9 11  1  0
 11 12  1  0
 12 13  1  0
 13 14  1  0
 13 15  2  0
 12 16  2  0
 16 17  1  0
 17 18  2  0
 18 19  1  0
 19 20  2  0
 20 21  1  0
 21 22  3  0
 22 23  1  0
 23 24  1  0
 24 25  1  0
 24 26  1  0
 23 27  1  0
 27 28  1  0
 27 29  1  0
 23 30  1  0
 30 31  1  0
 30 32  1  0
 20 33  1  0
 33 34  2  0
 34 11  1  0
 34 17  1  0
  1 35  1  0
  1 36  1  0
  1 37  1  0
  2 38  1  0
  2 39  1  0
 14 40  1  0
 14 41  1  0
 16 42  1  0
 18 43  1  0
 19 44  1  0
 24 45  1  0
 25 46  1  0
 25 47  1  0
 25 48  1  0
 26 49  1  0
 26 50  1  0
 26 51  1  0
 27 52  1  0
 28 53  1  0
 28 54  1  0
 28 55  1  0
 29 56  1  0
 29 57  1  0
 29 58  1  0
 30 59  1  0
 31 60  1  0
 31 61  1  0
 31 62  1  0
 32 63  1  0
 32 64  1  0
 32 65  1  0
 33 66  1  0
M  END
>  <UniqueID>  (22) 
22

>  <SMILES>  (22) 
CCOC(=O)C(=O)OC(=O)n1c(C(N)=O)cc2ccc(C#C[Si](C(C)C)(C(C)C)C(C)C)cc21

>  <Energy>  (22) 
72.9650713867838

>  <Genealogy>  (22) 
CCOC(=O)C(=O)OC(=O)n1c(C(N)=O)cc2ccc(C#C[Si](C(C)C)(C(C)C)C(C)C)cc21 (3D coordinates assigned)
CCOC(=O)C(=O)OC(=O)n1c(C(N)=O)cc2ccc(C#C[Si](C(C)C)(C(C)C)C(C)C)cc21 (optimized conformer: 72.9650713867838 kcal/mol)

>  <smiles>  (22) 
CCOC(=O)C(=O)OC(=O)n1c(C(N)=O)cc2ccc(C#C[Si](C(C)C)(C(C)C)C(C)C)cc21

>  <score_type>  (22) 
oracle

>  <origin>  (22) 
adg

>  <m_score__min__energy>  (22) 
-9.4199999999999999

>  <m_primary>  (22) 
energy

$$$$
23:0
     RDKit          3D

 40 41  0  0  0  0  0  0  0  0999 V2000
   -3.7108   21.6342  -27.4935 H   0  0  0  0  0  0  0  0  0  0  0  0
   -3.0070   21.9800  -28.2650 C   0  0  0  0  0  0  0  0  0  0  0  0
   -2.7280   21.0470  -29.3790 C   0  0  0  0  0  0  0  0  0  0  0  0
   -1.6870   20.3380  -29.3170 O   0  0  0  0  0  0  0  0  0  0  0  0
   -3.5710   20.9760  -30.4960 O   0  0  0  0  0  0  0  0  0  0  0  0
   -4.0790   22.0780  -31.1990 C   0  0  0  0  0  0  0  0  0  0  0  0
   -3.3070   22.8620  -31.8150 O   0  0  0  0  0  0  0  0  0  0  0  0
   -5.4980   22.2990  -31.2330 N   0  0  0  0  0  0  0  0  0  0  0  0
   -6.1730   23.3950  -30.7850 C   0  0  0  0  0  0  0  0  0  0  0  0
   -5.5520   24.6560  -30.3260 C   0  0  0  0  0  0  0  0  0  0  0  0
   -4.8390   25.3320  -31.1130 O   0  0  0  0  0  0  0  0  0  0  0  0
   -5.7780   25.1400  -29.0010 N   0  0  0  0  0  0  0  0  0  0  0  0
   -5.3610   26.0480  -28.6970 H   0  0  0  0  0  0  0  0  0  0  0  0
   -6.3200   24.5820  -28.3050 H   0  0  0  0  0  0  0  0  0  0  0  0
   -7.5500   23.2050  -30.9070 C   0  0  0  0  0  0  0  0  0  0  0  0
   -8.3479   23.9096  -30.6296 H   0  0  0  0  0  0  0  0  0  0  0  0
   -7.6970   21.9490  -31.4480 C   0  0  0  0  0  0  0  0  0  0  0  0
   -8.8540   21.2470  -31.7780 C   0  0  0  0  0  0  0  0  0  0  0  0
   -9.8489   21.6930  -31.6320 H   0  0  0  0  0  0  0  0  0  0  0  0
   -8.7110   19.9520  -32.3030 C   0  0  0  0  0  0  0  0  0  0  0  0
   -9.6049   19.3766  -32.5855 H   0  0  0  0  0  0  0  0  0  0  0  0
   -7.4250   19.3800  -32.4720 C   0  0  0  0  0  0  0  0  0  0  0  0
   -7.2870   18.0000  -33.0550 C   0  0  0  0  0  0  0  0  0  0  0  0
   -8.2026   17.7497  -33.6110 H   0  0  0  0  0  0  0  0  0  0  0  0
   -7.1305   17.2838  -32.2349 H   0  0  0  0  0  0  0  0  0  0  0  0
   -6.0920   17.9310  -34.0010 C   0  0  0  0  0  0  0  0  0  0  0  0
   -5.1628   17.8773  -33.4147 H   0  0  0  0  0  0  0  0  0  0  0  0
   -6.1776   17.0363  -34.6352 H   0  0  0  0  0  0  0  0  0  0  0  0
   -6.0740   18.8296  -34.6352 H   0  0  0  0  0  0  0  0  0  0  0  0
   -6.2750   20.1260  -32.1390 C   0  0  0  0  0  0  0  0  0  0  0  0
   -5.2693   19.7006  -32.2721 H   0  0  0  0  0  0  0  0  0  0  0  0
   -6.4450   21.4210  -31.6350 C   0  0  0  0  0  0  0  0  0  0  0  0
   -2.4850   23.2100  -28.1020 C   0  0  0  0  0  0  0  0  0  0  0  0
   -2.8580   23.9240  -26.9120 N   0  0  0  0  0  0  0  0  0  0  0  0
   -3.9210   24.6150  -26.7940 C   0  0  0  0  0  0  0  0  0  0  0  0
   -4.9530   25.2880  -26.6790 O   0  0  0  0  0  0  0  0  0  0  0  0
   -1.5380   23.8250  -29.1110 C   0  0  0  0  0  0  0  0  0  0  0  0
   -0.7292   24.3503  -28.5820 H   0  0  0  0  0  0  0  0  0  0  0  0
   -1.1093   23.0325  -29.7420 H   0  0  0  0  0  0  0  0  0  0  0  0
   -2.0876   24.5390  -29.7420 H   0  0  0  0  0  0  0  0  0  0  0  0
  1  2  1  0
  2  3  1  0
  3  4  2  0
  3  5  1  0
  5  6  1  0
  6  7  2  0
  6  8  1  0
  8  9  1  0
  9 10  1  0
 10 11  2  0
 10 12  1  0
 12 13  1  0
 12 14  1  0
  9 15  2  0
 15 16  1  0
 15 17  1  0
 17 18  2  0
 18 19  1  0
 18 20  1  0
 20 21  1  0
 20 22  2  0
 22 23  1  0
 23 24  1  0
 23 25  1  0
 23 26  1  0
 26 27  1  0
 26 28  1  0
 26 29  1  0
 22 30  1  0
 30 31  1  0
 30 32  2  0
  2 33  2  0
 33 34  1  0
 34 35  2  0
 35 36  2  0
 33 37  1  0
 37 38  1  0
 37 39  1  0
 37 40  1  0
 32  8  1  0
 32 17  1  0
M  END
>  <UniqueID>  (23) 
23

>  <SMILES>  (23) 
CCc1ccc2cc(C(N)=O)n(C(=O)OC(=O)/C=C(\C)N=C=O)c2c1

>  <Energy>  (23) 
77.67621835326872

>  <Genealogy>  (23) 
CCc1ccc2cc(C(N)=O)n(C(=O)OC(=O)/C=C(\C)N=C=O)c2c1 (cis-trans isomerization)
CCc1ccc2cc(C(N)=O)n(C(=O)OC(=O)/C=C(\C)N=C=O)c2c1 (3D coordinates assigned)
CCc1ccc2cc(C(N)=O)n(C(=O)OC(=O)/C=C(\C)N=C=O)c2c1 (optimized conformer: 77.67621835326872 kcal/mol)

>  <smiles>  (23) 
CCc1ccc2cc(C(N)=O)n(C(=O)OC(=O)/C=C(\C)N=C=O)c2c1

>  <score_type>  (23) 
oracle

>  <origin>  (23) 
adg

>  <m_score__min__energy>  (23) 
-9.7599999999999998

>  <m_primary>  (23) 
energy

$$$$
24:0
     RDKit          3D

 35 36  0  0  0  0  0  0  0  0999 V2000
   -2.3490   25.0150  -27.2780 C   0  0  0  0  0  0  0  0  0  0  0  0
   -3.3000   24.4260  -28.2320 N   0  0  0  0  0  0  0  0  0  0  0  0
   -4.2210   23.5040  -27.5520 C   0  0  0  0  0  0  0  0  0  0  0  0
   -2.5840   23.7310  -29.2730 C   0  0  0  0  0  0  0  0  0  0  0  0
   -1.4440   24.1410  -29.6260 O   0  0  0  0  0  0  0  0  0  0  0  0
   -3.1600   22.6020  -29.8780 O   0  0  0  0  0  0  0  0  0  0  0  0
   -3.7910   22.5900  -31.1280 C   0  0  0  0  0  0  0  0  0  0  0  0
   -3.1340   22.3720  -32.1830 O   0  0  0  0  0  0  0  0  0  0  0  0
   -5.2000   22.8570  -31.2090 N   0  0  0  0  0  0  0  0  0  0  0  0
   -5.8700   23.9730  -30.8010 C   0  0  0  0  0  0  0  0  0  0  0  0
   -5.2560   25.2190  -30.2960 C   0  0  0  0  0  0  0  0  0  0  0  0
   -4.0100   25.6610  -30.8300 N   0  0  0  0  0  0  0  0  0  0  0  0
   -5.8000   25.8790  -29.3720 O   0  0  0  0  0  0  0  0  0  0  0  0
   -7.2400   23.8210  -31.0020 C   0  0  0  0  0  0  0  0  0  0  0  0
   -7.3910   22.5720  -31.5590 C   0  0  0  0  0  0  0  0  0  0  0  0
   -8.5460   21.9010  -31.9550 C   0  0  0  0  0  0  0  0  0  0  0  0
   -8.4070   20.6040  -32.4770 C   0  0  0  0  0  0  0  0  0  0  0  0
   -7.1300   20.0030  -32.5840 C   0  0  0  0  0  0  0  0  0  0  0  0
   -7.0030   18.6790  -33.1060 N   0  0  0  0  0  0  0  0  0  0  0  0
   -5.9810   20.7120  -32.1710 C   0  0  0  0  0  0  0  0  0  0  0  0
   -6.1460   22.0100  -31.6730 C   0  0  0  0  0  0  0  0  0  0  0  0
   -2.6839   24.8076  -26.2510 H   0  0  0  0  0  0  0  0  0  0  0  0
   -1.3528   24.5755  -27.4346 H   0  0  0  0  0  0  0  0  0  0  0  0
   -2.2987   26.1026  -27.4346 H   0  0  0  0  0  0  0  0  0  0  0  0
   -3.8660   25.2010  -28.6560 H   0  0  0  0  0  0  0  0  0  0  0  0
   -4.1117   23.6134  -26.4629 H   0  0  0  0  0  0  0  0  0  0  0  0
   -5.2557   23.7390  -27.8421 H   0  0  0  0  0  0  0  0  0  0  0  0
   -3.9848   22.4696  -27.8421 H   0  0  0  0  0  0  0  0  0  0  0  0
   -3.1060   25.3030  -30.4520 H   0  0  0  0  0  0  0  0  0  0  0  0
   -8.0329   24.5458  -30.7656 H   0  0  0  0  0  0  0  0  0  0  0  0
   -9.5357   22.3719  -31.8619 H   0  0  0  0  0  0  0  0  0  0  0  0
   -9.2990   20.0504  -32.8056 H   0  0  0  0  0  0  0  0  0  0  0  0
   -7.6150   18.3520  -33.8870 H   0  0  0  0  0  0  0  0  0  0  0  0
   -6.2990   18.0150  -32.7140 H   0  0  0  0  0  0  0  0  0  0  0  0
   -4.9821   20.2564  -32.2388 H   0  0  0  0  0  0  0  0  0  0  0  0
  1  2  1  0
  2  3  1  0
  2  4  1  0
  4  5  2  0
  4  6  1  0
  6  7  1  0
  7  8  2  0
  7  9  1  0
  9 10  1  0
 10 11  1  0
 11 12  1  0
 11 13  2  0
 10 14  2  0
 14 15  1  0
 15 16  2  0
 16 17  1  0
 17 18  2  0
 18 19  1  0
 18 20  1  0
 20 21  2  0
 21  9  1  0
 21 15  1  0
  1 22  1  0
  1 23  1  0
  1 24  1  0
  2 25  1  0
  3 26  1  0
  3 27  1  0
  3 28  1  0
 12 29  1  0
 14 30  1  0
 16 31  1  0
 17 32  1  0
 19 33  1  0
 19 34  1  0
 20 35  1  0
M  CHG  2   2   1  12  -1
M  END
>  <UniqueID>  (24) 
24

>  <SMILES>  (24) 
C[NH+](C)C(=O)OC(=O)n1c(C([NH-])=O)cc2ccc(N)cc21

>  <Energy>  (24) 
73.38135932474606

>  <Genealogy>  (24) 
C[NH+](C)C(=O)OC(=O)n1c(C([NH-])=O)cc2ccc(N)cc21 (protonated)
C[NH+](C)C(=O)OC(=O)n1c(C([NH-])=O)cc2ccc(N)cc21 (3D coordinates assigned)
C[NH+](C)C(=O)OC(=O)n1c(C([NH-])=O)cc2ccc(N)cc21 (optimized conformer: 73.38135932474606 kcal/mol)

>  <smiles>  (24) 
CN(C)C(=O)OC(=O)n1c(C(N)=O)cc2ccc(N)cc21

>  <score_type>  (24) 
oracle

>  <origin>  (24) 
adg

>  <m_score__min__energy>  (24) 
-7.9699999999999998

>  <m_primary>  (24) 
energy

$$$$
25:0
     RDKit          3D

 33 34  0  0  0  0  0  0  0  0999 V2000
   -2.0710   20.4430  -33.8260 C   0  0  0  0  0  0  0  0  0  0  0  0
   -2.5470   20.8460  -32.4400 C   0  0  0  0  0  0  0  0  0  0  0  0
   -3.1430   22.1370  -32.4990 O   0  0  0  0  0  0  0  0  0  0  0  0
   -3.7280   22.7530  -31.3890 C   0  0  0  0  0  0  0  0  0  0  0  0
   -3.0140   23.1200  -30.4150 O   0  0  0  0  0  0  0  0  0  0  0  0
   -5.1510   22.9410  -31.3470 N   0  0  0  0  0  0  0  0  0  0  0  0
   -5.8420   24.0250  -30.8890 C   0  0  0  0  0  0  0  0  0  0  0  0
   -5.2560   25.3090  -30.4530 C   0  0  0  0  0  0  0  0  0  0  0  0
   -3.9280   25.6520  -30.8450 N   0  0  0  0  0  0  0  0  0  0  0  0
   -5.8980   26.0910  -29.7050 O   0  0  0  0  0  0  0  0  0  0  0  0
   -7.2150   23.7960  -30.9650 C   0  0  0  0  0  0  0  0  0  0  0  0
   -7.3460   22.5320  -31.4960 C   0  0  0  0  0  0  0  0  0  0  0  0
   -8.4930   21.7990  -31.7890 C   0  0  0  0  0  0  0  0  0  0  0  0
   -8.3300   20.5070  -32.3150 C   0  0  0  0  0  0  0  0  0  0  0  0
   -7.0360   19.9680  -32.5210 C   0  0  0  0  0  0  0  0  0  0  0  0
   -6.8740   18.5920  -33.1040 C   0  0  0  0  0  0  0  0  0  0  0  0
   -5.6470   18.5380  -33.9560 C   0  0  0  0  0  0  0  0  0  0  0  0
   -4.5070   18.4870  -33.4220 O   0  0  0  0  0  0  0  0  0  0  0  0
   -5.7570   18.5920  -35.3390 O   0  0  0  0  0  0  0  0  0  0  0  0
   -5.8950   20.7460  -32.2220 C   0  0  0  0  0  0  0  0  0  0  0  0
   -6.0860   22.0380  -31.7180 C   0  0  0  0  0  0  0  0  0  0  0  0
   -1.2344   19.7347  -33.7348 H   0  0  0  0  0  0  0  0  0  0  0  0
   -2.8974   19.9659  -34.3732 H   0  0  0  0  0  0  0  0  0  0  0  0
   -1.7367   21.3368  -34.3732 H   0  0  0  0  0  0  0  0  0  0  0  0
   -3.2876   20.1165  -32.0803 H   0  0  0  0  0  0  0  0  0  0  0  0
   -1.6900   20.8693  -31.7508 H   0  0  0  0  0  0  0  0  0  0  0  0
   -3.1020   25.2900  -30.3190 H   0  0  0  0  0  0  0  0  0  0  0  0
   -8.0225   24.4798  -30.6646 H   0  0  0  0  0  0  0  0  0  0  0  0
   -9.4947   22.2184  -31.6141 H   0  0  0  0  0  0  0  0  0  0  0  0
   -9.2163   19.9073  -32.5697 H   0  0  0  0  0  0  0  0  0  0  0  0
   -6.7835   17.8594  -32.2885 H   0  0  0  0  0  0  0  0  0  0  0  0
   -7.7529   18.3563  -33.7220 H   0  0  0  0  0  0  0  0  0  0  0  0
   -4.8825   20.3466  -32.3812 H   0  0  0  0  0  0  0  0  0  0  0  0
  1  2  1  0
  2  3  1  0
  3  4  1  0
  4  5  2  0
  4  6  1  0
  6  7  1  0
  7  8  1  0
  8  9  1  0
  8 10  2  0
  7 11  2  0
 11 12  1  0
 12 13  2  0
 13 14  1  0
 14 15  2  0
 15 16  1  0
 16 17  1  0
 17 18  2  0
 17 19  1  0
 15 20  1  0
 20 21  2  0
 21  6  1  0
 21 12  1  0
  1 22  1  0
  1 23  1  0
  1 24  1  0
  2 25  1  0
  2 26  1  0
  9 27  1  0
 11 28  1  0
 13 29  1  0
 14 30  1  0
 16 31  1  0
 16 32  1  0
 20 33  1  0
M  CHG  2   9  -1  19  -1
M  END
>  <UniqueID>  (25) 
25

>  <SMILES>  (25) 
CCOC(=O)n1c(C([NH-])=O)cc2ccc(CC(=O)[O-])cc21

>  <Energy>  (25) 
65.1626779018713

>  <Genealogy>  (25) 
CCOC(=O)n1c(C([NH-])=O)cc2ccc(CC(=O)[O-])cc21 (protonated)
CCOC(=O)n1c(C([NH-])=O)cc2ccc(CC(=O)[O-])cc21 (3D coordinates assigned)
CCOC(=O)n1c(C([NH-])=O)cc2ccc(CC(=O)[O-])cc21 (optimized conformer: 65.1626779018713 kcal/mol)

>  <smiles>  (25) 
CCOC(=O)n1c(C(N)=O)cc2ccc(CC(=O)O)cc21

>  <score_type>  (25) 
oracle

>  <origin>  (25) 
adg

>  <m_score__min__energy>  (25) 
-9.5500000000000007

>  <m_primary>  (25) 
energy

$$$$
26:0
     RDKit          3D

 43 44  0  0  0  0  0  0  0  0999 V2000
   -7.1040   23.4250  -31.4380 C   0  0  0  0  0  0  0  0  0  0  0  0
   -8.0280   22.7300  -32.2660 O   0  0  0  0  0  0  0  0  0  0  0  0
   -8.7530   21.6190  -31.8230 C   0  0  0  0  0  0  0  0  0  0  0  0
   -9.8520   21.7820  -31.2210 O   0  0  0  0  0  0  0  0  0  0  0  0
   -8.2490   20.2910  -32.0560 N   0  0  0  0  0  0  0  0  0  0  0  0
   -9.1850   19.1980  -32.3360 C   0  0  0  0  0  0  0  0  0  0  0  0
   -6.8070   20.0290  -31.9920 C   0  0  0  0  0  0  0  0  0  0  0  0
   -6.1430   20.3880  -33.3270 C   0  0  0  0  0  0  0  0  0  0  0  0
   -4.7790   19.8410  -33.3910 N   0  0  0  0  0  0  0  0  0  0  0  0
   -4.5480   18.6470  -34.2140 C   0  0  0  0  0  0  0  0  0  0  0  0
   -3.6920   20.4250  -32.6260 C   0  0  0  0  0  0  0  0  0  0  0  0
   -2.4290   19.7730  -32.5540 C   0  0  0  0  0  0  0  0  0  0  0  0
   -1.3720   20.3190  -31.8060 C   0  0  0  0  0  0  0  0  0  0  0  0
   -1.5930   21.5200  -31.1440 C   0  0  0  0  0  0  0  0  0  0  0  0
   -0.7550   22.2490  -30.3320 C   0  0  0  0  0  0  0  0  0  0  0  0
   -1.5010   23.3550  -29.9300 C   0  0  0  0  0  0  0  0  0  0  0  0
   -0.9480   24.4530  -29.1110 C   0  0  0  0  0  0  0  0  0  0  0  0
   -1.6410   25.6910  -28.9790 N   0  0  0  0  0  0  0  0  0  0  0  0
    0.1760   24.3130  -28.5580 O   0  0  0  0  0  0  0  0  0  0  0  0
   -2.7540   23.3070  -30.4660 N   0  0  0  0  0  0  0  0  0  0  0  0
   -3.8480   24.2040  -30.2200 C   0  0  0  0  0  0  0  0  0  0  0  0
   -4.7690   23.8820  -29.4240 O   0  0  0  0  0  0  0  0  0  0  0  0
   -3.8870   25.4490  -30.8360 O   0  0  0  0  0  0  0  0  0  0  0  0
   -2.7910   22.1790  -31.2100 C   0  0  0  0  0  0  0  0  0  0  0  0
   -3.8680   21.6490  -31.9300 C   0  0  0  0  0  0  0  0  0  0  0  0
   -7.3483   23.2412  -30.3813 H   0  0  0  0  0  0  0  0  0  0  0  0
   -6.0846   23.0679  -31.6461 H   0  0  0  0  0  0  0  0  0  0  0  0
   -7.1644   24.5034  -31.6461 H   0  0  0  0  0  0  0  0  0  0  0  0
   -9.5479   18.7742  -31.3880 H   0  0  0  0  0  0  0  0  0  0  0  0
  -10.0369   19.5840  -32.9150 H   0  0  0  0  0  0  0  0  0  0  0  0
   -8.6725   18.4157  -32.9150 H   0  0  0  0  0  0  0  0  0  0  0  0
   -6.3626   20.6370  -31.1902 H   0  0  0  0  0  0  0  0  0  0  0  0
   -6.6454   18.9604  -31.7870 H   0  0  0  0  0  0  0  0  0  0  0  0
   -6.7392   19.9696  -34.1513 H   0  0  0  0  0  0  0  0  0  0  0  0
   -6.0900   21.4833  -33.4132 H   0  0  0  0  0  0  0  0  0  0  0  0
   -4.3799   17.7782  -33.5606 H   0  0  0  0  0  0  0  0  0  0  0  0
   -5.4273   18.4636  -34.8490 H   0  0  0  0  0  0  0  0  0  0  0  0
   -3.6637   18.8048  -34.8490 H   0  0  0  0  0  0  0  0  0  0  0  0
   -2.2777   18.8260  -33.0928 H   0  0  0  0  0  0  0  0  0  0  0  0
   -0.3985   19.8104  -31.7465 H   0  0  0  0  0  0  0  0  0  0  0  0
    0.2832   22.0096  -30.0584 H   0  0  0  0  0  0  0  0  0  0  0  0
   -2.6790   25.7370  -29.0730 H   0  0  0  0  0  0  0  0  0  0  0  0
   -4.8350   22.1727  -31.9559 H   0  0  0  0  0  0  0  0  0  0  0  0
  1  2  1  0
  2  3  1  0
  3  4  2  0
  3  5  1  0
  5  6  1  0
  5  7  1  0
  7  8  1  0
  8  9  1  0
  9 10  1  0
  9 11  1  0
 11 12  2  0
 12 13  1  0
 13 14  2  0
 14 15  1  0
 15 16  2  0
 16 17  1  0
 17 18  1  0
 17 19  2  0
 16 20  1  0
 20 21  1  0
 21 22  2  0
 21 23  1  0
 20 24  1  0
 24 25  2  0
 25 11  1  0
 24 14  1  0
  1 26  1  0
  1 27  1  0
  1 28  1  0
  6 29  1  0
  6 30  1  0
  6 31  1  0
  7 32  1  0
  7 33  1  0
  8 34  1  0
  8 35  1  0
 10 36  1  0
 10 37  1  0
 10 38  1  0
 12 39  1  0
 13 40  1  0
 15 41  1  0
 18 42  1  0
 25 43  1  0
M  CHG  2  18  -1  23  -1
M  END
>  <UniqueID>  (26) 
26

>  <SMILES>  (26) 
COC(=O)N(C)CCN(C)c1ccc2cc(C([NH-])=O)n(C(=O)[O-])c2c1

>  <Energy>  (26) 
77.19117824742793

>  <Genealogy>  (26) 
COC(=O)N(C)CCN(C)c1ccc2cc(C([NH-])=O)n(C(=O)[O-])c2c1 (protonated)
COC(=O)N(C)CCN(C)c1ccc2cc(C([NH-])=O)n(C(=O)[O-])c2c1 (3D coordinates assigned)
COC(=O)N(C)CCN(C)c1ccc2cc(C([NH-])=O)n(C(=O)[O-])c2c1 (optimized conformer: 77.19117824742793 kcal/mol)

>  <smiles>  (26) 
COC(=O)N(C)CCN(C)c1ccc2cc(C(N)=O)n(C(=O)O)c2c1

>  <score_type>  (26) 
oracle

>  <origin>  (26) 
adg

>  <m_score__min__energy>  (26) 
-10.98

>  <m_primary>  (26) 
energy

$$$$
27:0
     RDKit          3D

 33 35  0  0  0  0  0  0  0  0999 V2000
   -6.0380   16.5330  -33.7950 N   0  0  0  0  0  0  0  0  0  0  0  0
   -6.6490   17.3870  -33.3090 C   0  0  0  0  0  0  0  0  0  0  0  0
   -7.4080   18.4500  -32.7060 C   0  0  0  0  0  0  0  0  0  0  0  0
   -8.4880   18.2250  -31.9280 N   0  0  0  0  0  0  0  0  0  0  0  0
   -8.9110   19.4610  -31.5890 C   0  0  0  0  0  0  0  0  0  0  0  0
   -8.0910   20.4070  -32.1630 C   0  0  0  0  0  0  0  0  0  0  0  0
   -7.1370   19.7640  -32.8590 N   0  0  0  0  0  0  0  0  0  0  0  0
   -6.0990   20.3820  -33.6840 C   0  0  0  0  0  0  0  0  0  0  0  0
   -4.8930   20.6970  -32.8420 C   0  0  0  0  0  0  0  0  0  0  0  0
   -3.8110   19.7850  -32.7910 C   0  0  0  0  0  0  0  0  0  0  0  0
   -2.6890   20.0510  -31.9880 C   0  0  0  0  0  0  0  0  0  0  0  0
   -2.6870   21.2220  -31.2380 C   0  0  0  0  0  0  0  0  0  0  0  0
   -1.7230   21.7340  -30.4010 C   0  0  0  0  0  0  0  0  0  0  0  0
   -2.2480   22.9300  -29.9210 C   0  0  0  0  0  0  0  0  0  0  0  0
   -1.5580   23.7790  -28.9300 C   0  0  0  0  0  0  0  0  0  0  0  0
   -1.4680   25.1940  -29.1040 N   0  0  0  0  0  0  0  0  0  0  0  0
   -1.0910   23.2550  -27.8840 O   0  0  0  0  0  0  0  0  0  0  0  0
   -3.4830   23.1610  -30.4480 N   0  0  0  0  0  0  0  0  0  0  0  0
   -4.2920   24.3390  -30.2890 C   0  0  0  0  0  0  0  0  0  0  0  0
   -5.3950   24.2810  -29.6850 O   0  0  0  0  0  0  0  0  0  0  0  0
   -3.8670   25.5570  -30.8070 O   0  0  0  0  0  0  0  0  0  0  0  0
   -3.7390   22.1030  -31.2520 C   0  0  0  0  0  0  0  0  0  0  0  0
   -4.8600   21.8730  -32.0620 C   0  0  0  0  0  0  0  0  0  0  0  0
   -9.7796   19.6798  -30.9506 H   0  0  0  0  0  0  0  0  0  0  0  0
   -8.1978   21.4977  -32.0686 H   0  0  0  0  0  0  0  0  0  0  0  0
   -5.8112   19.6882  -34.4876 H   0  0  0  0  0  0  0  0  0  0  0  0
   -6.4899   21.3140  -34.1183 H   0  0  0  0  0  0  0  0  0  0  0  0
   -3.8491   18.8601  -33.3853 H   0  0  0  0  0  0  0  0  0  0  0  0
   -1.8384   19.3544  -31.9537 H   0  0  0  0  0  0  0  0  0  0  0  0
   -0.7446   21.2918  -30.1618 H   0  0  0  0  0  0  0  0  0  0  0  0
   -1.9860   25.6770  -29.8710 H   0  0  0  0  0  0  0  0  0  0  0  0
   -0.9460   25.7750  -28.4110 H   0  0  0  0  0  0  0  0  0  0  0  0
   -5.6929   22.5910  -32.0890 H   0  0  0  0  0  0  0  0  0  0  0  0
  1  2  3  0
  2  3  1  0
  3  4  2  0
  4  5  1  0
  5  6  2  0
  6  7  1  0
  7  8  1  0
  8  9  1  0
  9 10  2  0
 10 11  1  0
 11 12  2  0
 12 13  1  0
 13 14  2  0
 14 15  1  0
 15 16  1  0
 15 17  2  0
 14 18  1  0
 18 19  1  0
 19 20  2  0
 19 21  1  0
 18 22  1  0
 22 23  2  0
  7  3  1  0
 23  9  1  0
 22 12  1  0
  5 24  1  0
  6 25  1  0
  8 26  1  0
  8 27  1  0
 10 28  1  0
 11 29  1  0
 13 30  1  0
 16 31  1  0
 16 32  1  0
 23 33  1  0
M  CHG  1  21  -1
M  END
>  <UniqueID>  (27) 
27

>  <SMILES>  (27) 
N#Cc1nccn1Cc1ccc2cc(C(N)=O)n(C(=O)[O-])c2c1

>  <Energy>  (27) 
102.4931196250301

>  <Genealogy>  (27) 
N#Cc1nccn1Cc1ccc2cc(C(N)=O)n(C(=O)[O-])c2c1 (protonated)
N#Cc1nccn1Cc1ccc2cc(C(N)=O)n(C(=O)[O-])c2c1 (3D coordinates assigned)
N#Cc1nccn1Cc1ccc2cc(C(N)=O)n(C(=O)[O-])c2c1 (optimized conformer: 102.4931196250301 kcal/mol)

>  <smiles>  (27) 
N#Cc1nccn1Cc1ccc2cc(C(N)=O)n(C(=O)O)c2c1

>  <score_type>  (27) 
oracle

>  <origin>  (27) 
adg

>  <m_score__min__energy>  (27) 
-9.2899999999999991

>  <m_primary>  (27) 
energy

$$$$
28:0
     RDKit          3D

 37 38  0  0  0  0  0  0  0  0999 V2000
   -6.9980   18.2610  -32.2690 C   0  0  0  0  0  0  0  0  0  0  0  0
   -7.1400   19.7240  -31.9720 C   0  0  0  0  0  0  0  0  0  0  0  0
   -8.3660   20.3870  -32.2300 C   0  0  0  0  0  0  0  0  0  0  0  0
   -8.4970   21.7660  -31.9970 C   0  0  0  0  0  0  0  0  0  0  0  0
   -7.3860   22.4550  -31.5180 C   0  0  0  0  0  0  0  0  0  0  0  0
   -7.2220   23.7940  -31.2380 C   0  0  0  0  0  0  0  0  0  0  0  0
   -5.9000   23.9250  -30.8170 C   0  0  0  0  0  0  0  0  0  0  0  0
   -5.3110   25.1960  -30.3440 C   0  0  0  0  0  0  0  0  0  0  0  0
   -4.0590   25.6560  -30.8440 N   0  0  0  0  0  0  0  0  0  0  0  0
   -5.9070   25.8690  -29.4610 O   0  0  0  0  0  0  0  0  0  0  0  0
   -5.2730   22.7160  -30.8420 N   0  0  0  0  0  0  0  0  0  0  0  0
   -3.9010   22.4280  -30.5450 C   0  0  0  0  0  0  0  0  0  0  0  0
   -3.3840   21.3670  -30.9860 O   0  0  0  0  0  0  0  0  0  0  0  0
   -3.1390   23.3430  -29.7390 N   0  0  0  0  0  0  0  0  0  0  0  0
   -1.7520   23.1240  -29.2830 C   0  0  0  0  0  0  0  0  0  0  0  0
   -0.9360   22.4470  -30.4050 C   0  0  0  0  0  0  0  0  0  0  0  0
   -1.7380   22.2470  -28.0170 C   0  0  0  0  0  0  0  0  0  0  0  0
   -1.1440   24.4670  -28.9190 C   0  0  0  0  0  0  0  0  0  0  0  0
    0.0560   24.5650  -28.5460 O   0  0  0  0  0  0  0  0  0  0  0  0
   -1.9280   25.6130  -28.9700 O   0  0  0  0  0  0  0  0  0  0  0  0
   -6.1940   21.8280  -31.2700 C   0  0  0  0  0  0  0  0  0  0  0  0
   -6.0300   20.4580  -31.5020 C   0  0  0  0  0  0  0  0  0  0  0  0
   -6.9434   17.6988  -31.3251 H   0  0  0  0  0  0  0  0  0  0  0  0
   -7.8671   17.9187  -32.8499 H   0  0  0  0  0  0  0  0  0  0  0  0
   -6.0793   18.0923  -32.8499 H   0  0  0  0  0  0  0  0  0  0  0  0
   -9.2232   19.8161  -32.6164 H   0  0  0  0  0  0  0  0  0  0  0  0
   -9.4478   22.2854  -32.1871 H   0  0  0  0  0  0  0  0  0  0  0  0
   -7.9750   24.5908  -31.3277 H   0  0  0  0  0  0  0  0  0  0  0  0
   -3.1580   25.2990  -30.4530 H   0  0  0  0  0  0  0  0  0  0  0  0
   -3.6160   24.2400  -29.4910 H   0  0  0  0  0  0  0  0  0  0  0  0
   -0.1621   21.8049  -29.9592 H   0  0  0  0  0  0  0  0  0  0  0  0
   -1.6057   21.8356  -31.0277 H   0  0  0  0  0  0  0  0  0  0  0  0
   -0.4588   23.2181  -31.0277 H   0  0  0  0  0  0  0  0  0  0  0  0
   -1.7483   22.8906  -27.1250 H   0  0  0  0  0  0  0  0  0  0  0  0
   -2.6259   21.5977  -28.0109 H   0  0  0  0  0  0  0  0  0  0  0  0
   -0.8298   21.6264  -28.0109 H   0  0  0  0  0  0  0  0  0  0  0  0
   -5.0624   19.9665  -31.3230 H   0  0  0  0  0  0  0  0  0  0  0  0
  1  2  1  0
  2  3  2  0
  3  4  1  0
  4  5  2  0
  5  6  1  0
  6  7  2  0
  7  8  1  0
  8  9  1  0
  8 10  2  0
  7 11  1  0
 11 12  1  0
 12 13  2  0
 12 14  1  0
 14 15  1  0
 15 16  1  0
 15 17  1  0
 15 18  1  0
 18 19  2  0
 18 20  1  0
 11 21  1  0
 21 22  2  0
 22  2  1  0
 21  5  1  0
  1 23  1  0
  1 24  1  0
  1 25  1  0
  3 26  1  0
  4 27  1  0
  6 28  1  0
  9 29  1  0
 14 30  1  0
 16 31  1  0
 16 32  1  0
 16 33  1  0
 17 34  1  0
 17 35  1  0
 17 36  1  0
 22 37  1  0
M  CHG  2   9  -1  20  -1
M  END
>  <UniqueID>  (28) 
28

>  <SMILES>  (28) 
Cc1ccc2cc(C([NH-])=O)n(C(=O)NC(C)(C)C(=O)[O-])c2c1

>  <Energy>  (28) 
74.74476452956242

>  <Genealogy>  (28) 
Cc1ccc2cc(C([NH-])=O)n(C(=O)NC(C)(C)C(=O)[O-])c2c1 (protonated)
Cc1ccc2cc(C([NH-])=O)n(C(=O)NC(C)(C)C(=O)[O-])c2c1 (3D coordinates assigned)
Cc1ccc2cc(C([NH-])=O)n(C(=O)NC(C)(C)C(=O)[O-])c2c1 (optimized conformer: 74.74476452956242 kcal/mol)

>  <smiles>  (28) 
Cc1ccc2cc(C(N)=O)n(C(=O)NC(C)(C)C(=O)O)c2c1

>  <score_type>  (28) 
oracle

>  <origin>  (28) 
adg

>  <m_score__min__energy>  (28) 
-12.279999999999999

>  <m_primary>  (28) 
energy

$$$$
29:0
     RDKit          3D

 37 38  0  0  0  0  0  0  0  0999 V2000
   -2.9450   20.8190  -29.2480 C   0  0  0  0  0  0  0  0  0  0  0  0
   -3.4130   22.1950  -29.4380 N   0  0  0  0  0  0  0  0  0  0  0  0
   -3.5300   23.0690  -28.2980 C   0  0  0  0  0  0  0  0  0  0  0  0
   -4.6190   23.6650  -28.0680 O   0  0  0  0  0  0  0  0  0  0  0  0
   -2.4310   23.2760  -27.4570 O   0  0  0  0  0  0  0  0  0  0  0  0
   -1.8650   24.5610  -27.2300 C   0  0  0  0  0  0  0  0  0  0  0  0
   -1.0770   24.9740  -28.4270 C   0  0  0  0  0  0  0  0  0  0  0  0
   -1.6100   25.6710  -29.3310 O   0  0  0  0  0  0  0  0  0  0  0  0
    0.2620   24.6170  -28.5340 O   0  0  0  0  0  0  0  0  0  0  0  0
   -3.8290   22.6350  -30.7450 C   0  0  0  0  0  0  0  0  0  0  0  0
   -2.9750   22.8090  -31.6570 O   0  0  0  0  0  0  0  0  0  0  0  0
   -5.2150   22.8820  -31.0260 N   0  0  0  0  0  0  0  0  0  0  0  0
   -5.9010   24.0510  -30.8860 C   0  0  0  0  0  0  0  0  0  0  0  0
   -5.3150   25.3550  -30.5100 C   0  0  0  0  0  0  0  0  0  0  0  0
   -3.9670   25.6560  -30.8620 N   0  0  0  0  0  0  0  0  0  0  0  0
   -5.9880   26.2010  -29.8640 O   0  0  0  0  0  0  0  0  0  0  0  0
   -7.2450   23.8670  -31.2060 C   0  0  0  0  0  0  0  0  0  0  0  0
   -7.3610   22.5380  -31.5480 C   0  0  0  0  0  0  0  0  0  0  0  0
   -8.4800   21.8020  -31.9260 C   0  0  0  0  0  0  0  0  0  0  0  0
   -8.3100   20.4320  -32.1880 C   0  0  0  0  0  0  0  0  0  0  0  0
   -7.0320   19.8240  -32.0760 C   0  0  0  0  0  0  0  0  0  0  0  0
   -6.8630   18.3430  -32.3020 C   0  0  0  0  0  0  0  0  0  0  0  0
   -6.1200   17.7820  -31.2770 F   0  0  0  0  0  0  0  0  0  0  0  0
   -6.2080   18.0950  -33.4960 F   0  0  0  0  0  0  0  0  0  0  0  0
   -8.1070   17.7440  -32.3370 F   0  0  0  0  0  0  0  0  0  0  0  0
   -5.9250   20.6020  -31.6650 C   0  0  0  0  0  0  0  0  0  0  0  0
   -6.1220   21.9660  -31.4290 C   0  0  0  0  0  0  0  0  0  0  0  0
   -2.8712   20.6021  -28.1721 H   0  0  0  0  0  0  0  0  0  0  0  0
   -3.6566   20.1219  -29.7146 H   0  0  0  0  0  0  0  0  0  0  0  0
   -1.9560   20.7004  -29.7146 H   0  0  0  0  0  0  0  0  0  0  0  0
   -2.6692   25.2898  -27.0508 H   0  0  0  0  0  0  0  0  0  0  0  0
   -1.2046   24.5214  -26.3512 H   0  0  0  0  0  0  0  0  0  0  0  0
   -3.1960   24.9810  -30.6610 H   0  0  0  0  0  0  0  0  0  0  0  0
   -8.0438   24.6231  -31.1890 H   0  0  0  0  0  0  0  0  0  0  0  0
   -9.4674   22.2782  -32.0169 H   0  0  0  0  0  0  0  0  0  0  0  0
   -9.1774   19.8234  -32.4834 H   0  0  0  0  0  0  0  0  0  0  0  0
   -4.9329   20.1452  -31.5341 H   0  0  0  0  0  0  0  0  0  0  0  0
  1  2  1  0
  2  3  1  0
  3  4  2  0
  3  5  1  0
  5  6  1  0
  6  7  1  0
  7  8  2  0
  7  9  1  0
  2 10  1  0
 10 11  2  0
 10 12  1  0
 12 13  1  0
 13 14  1  0
 14 15  1  0
 14 16  2  0
 13 17  2  0
 17 18  1  0
 18 19  2  0
 19 20  1  0
 20 21  2  0
 21 22  1  0
 22 23  1  0
 22 24  1  0
 22 25  1  0
 21 26  1  0
 26 27  2  0
 27 12  1  0
 27 18  1  0
  1 28  1  0
  1 29  1  0
  1 30  1  0
  6 31  1  0
  6 32  1  0
 15 33  1  0
 17 34  1  0
 19 35  1  0
 20 36  1  0
 26 37  1  0
M  CHG  2   9  -1  15  -1
M  END
>  <UniqueID>  (29) 
29

>  <SMILES>  (29) 
CN(C(=O)OCC(=O)[O-])C(=O)n1c(C([NH-])=O)cc2ccc(C(F)(F)F)cc21

>  <Energy>  (29) 
74.88309179375041

>  <Genealogy>  (29) 
CN(C(=O)OCC(=O)[O-])C(=O)n1c(C([NH-])=O)cc2ccc(C(F)(F)F)cc21 (protonated)
CN(C(=O)OCC(=O)[O-])C(=O)n1c(C([NH-])=O)cc2ccc(C(F)(F)F)cc21 (3D coordinates assigned)
CN(C(=O)OCC(=O)[O-])C(=O)n1c(C([NH-])=O)cc2ccc(C(F)(F)F)cc21 (optimized conformer: 74.88309179375041 kcal/mol)

>  <smiles>  (29) 
CN(C(=O)OCC(=O)O)C(=O)n1c(C(N)=O)cc2ccc(C(F)(F)F)cc21

>  <score_type>  (29) 
oracle

>  <origin>  (29) 
adg

>  <m_score__min__energy>  (29) 
-12.15

>  <m_primary>  (29) 
energy

$$$$
30:0
     RDKit          3D

 41 43  0  0  0  0  0  0  0  0999 V2000
   -2.4390   25.2960  -29.3240 N   0  0  0  0  0  0  0  0  0  0  0  0
   -1.2640   24.5800  -28.9510 C   0  0  0  0  0  0  0  0  0  0  0  0
   -0.2880   25.1960  -28.4450 O   0  0  0  0  0  0  0  0  0  0  0  0
   -1.1780   23.1040  -29.1900 C   0  0  0  0  0  0  0  0  0  0  0  0
   -2.1240   22.6970  -30.1760 O   0  0  0  0  0  0  0  0  0  0  0  0
   -3.4290   22.2990  -29.8640 C   0  0  0  0  0  0  0  0  0  0  0  0
   -3.8810   22.4420  -28.6950 O   0  0  0  0  0  0  0  0  0  0  0  0
   -4.2780   21.7110  -30.9100 C   0  0  0  0  0  0  0  0  0  0  0  0
   -3.8360   20.7560  -31.6040 O   0  0  0  0  0  0  0  0  0  0  0  0
   -5.6070   22.2050  -31.1420 N   0  0  0  0  0  0  0  0  0  0  0  0
   -6.0930   23.4450  -30.8590 C   0  0  0  0  0  0  0  0  0  0  0  0
   -5.3020   24.5910  -30.3650 C   0  0  0  0  0  0  0  0  0  0  0  0
   -5.0890   24.8000  -28.9670 N   0  0  0  0  0  0  0  0  0  0  0  0
   -4.7660   25.3750  -31.1920 O   0  0  0  0  0  0  0  0  0  0  0  0
   -7.4610   23.5040  -31.1120 C   0  0  0  0  0  0  0  0  0  0  0  0
   -7.8030   22.2480  -31.5650 C   0  0  0  0  0  0  0  0  0  0  0  0
   -9.0400   21.7380  -31.9490 C   0  0  0  0  0  0  0  0  0  0  0  0
   -9.1040   20.3860  -32.3330 C   0  0  0  0  0  0  0  0  0  0  0  0
   -7.9450   19.5720  -32.3000 C   0  0  0  0  0  0  0  0  0  0  0  0
   -8.0130   18.1290  -32.7190 C   0  0  0  0  0  0  0  0  0  0  0  0
   -6.7370   17.7190  -33.2970 N   0  0  0  0  0  0  0  0  0  0  0  0
   -5.9550   16.7180  -32.8560 C   0  0  0  0  0  0  0  0  0  0  0  0
   -4.8810   16.6010  -33.7100 C   0  0  0  0  0  0  0  0  0  0  0  0
   -5.0850   17.5760  -34.6680 C   0  0  0  0  0  0  0  0  0  0  0  0
   -6.2260   18.2410  -34.4010 N   0  0  0  0  0  0  0  0  0  0  0  0
   -6.7090   20.1250  -31.9040 C   0  0  0  0  0  0  0  0  0  0  0  0
   -6.6670   21.4810  -31.5620 C   0  0  0  0  0  0  0  0  0  0  0  0
   -2.7830   25.2870  -30.3090 H   0  0  0  0  0  0  0  0  0  0  0  0
   -0.1647   22.8528  -29.5365 H   0  0  0  0  0  0  0  0  0  0  0  0
   -1.4006   22.5799  -28.2489 H   0  0  0  0  0  0  0  0  0  0  0  0
   -5.3430   24.0710  -28.2650 H   0  0  0  0  0  0  0  0  0  0  0  0
   -4.5760   25.6470  -28.6390 H   0  0  0  0  0  0  0  0  0  0  0  0
   -8.1272   24.3691  -30.9787 H   0  0  0  0  0  0  0  0  0  0  0  0
   -9.9390   22.3719  -31.9521 H   0  0  0  0  0  0  0  0  0  0  0  0
  -10.0622   19.9573  -32.6617 H   0  0  0  0  0  0  0  0  0  0  0  0
   -8.2332   17.5042  -31.8409 H   0  0  0  0  0  0  0  0  0  0  0  0
   -8.8069   18.0071  -33.4706 H   0  0  0  0  0  0  0  0  0  0  0  0
   -6.1412   16.0989  -31.9660 H   0  0  0  0  0  0  0  0  0  0  0  0
   -4.0453   15.8888  -33.6442 H   0  0  0  0  0  0  0  0  0  0  0  0
   -4.4176   17.7783  -35.5187 H   0  0  0  0  0  0  0  0  0  0  0  0
   -5.8009   19.5055  -31.8651 H   0  0  0  0  0  0  0  0  0  0  0  0
  1  2  1  0
  2  3  2  0
  2  4  1  0
  4  5  1  0
  5  6  1  0
  6  7  2  0
  6  8  1  0
  8  9  2  0
  8 10  1  0
 10 11  1  0
 11 12  1  0
 12 13  1  0
 12 14  2  0
 11 15  2  0
 15 16  1  0
 16 17  2  0
 17 18  1  0
 18 19  2  0
 19 20  1  0
 20 21  1  0
 21 22  1  0
 22 23  2  0
 23 24  1  0
 24 25  2  0
 19 26  1  0
 26 27  2  0
 27 10  1  0
 27 16  1  0
 25 21  1  0
  1 28  1  0
  4 29  1  0
  4 30  1  0
 13 31  1  0
 13 32  1  0
 15 33  1  0
 17 34  1  0
 18 35  1  0
 20 36  1  0
 20 37  1  0
 22 38  1  0
 23 39  1  0
 24 40  1  0
 26 41  1  0
M  CHG  1   1  -1
M  END
>  <UniqueID>  (30) 
30

>  <SMILES>  (30) 
[NH-]C(=O)COC(=O)C(=O)n1c(C(N)=O)cc2ccc(Cn3cccn3)cc21

>  <Energy>  (30) 
106.43541385508765

>  <Genealogy>  (30) 
[NH-]C(=O)COC(=O)C(=O)n1c(C(N)=O)cc2ccc(Cn3cccn3)cc21 (protonated)
[NH-]C(=O)COC(=O)C(=O)n1c(C(N)=O)cc2ccc(Cn3cccn3)cc21 (3D coordinates assigned)
[NH-]C(=O)COC(=O)C(=O)n1c(C(N)=O)cc2ccc(Cn3cccn3)cc21 (optimized conformer: 106.43541385508765 kcal/mol)

>  <smiles>  (30) 
NC(=O)COC(=O)C(=O)n1c(C(N)=O)cc2ccc(Cn3cccn3)cc21

>  <score_type>  (30) 
oracle

>  <origin>  (30) 
adg

>  <m_score__min__energy>  (30) 
-12.109999999999999

>  <m_primary>  (30) 
energy

$$$$
31:0
     RDKit          3D

 52 53  0  0  0  0  0  0  0  0999 V2000
   -4.8700   18.5630  -34.1640 C   0  0  0  0  0  0  0  0  0  0  0  0
   -4.0330   19.6070  -33.4680 C   0  0  0  0  0  0  0  0  0  0  0  0
   -2.5960   19.7860  -33.8810 C   0  0  0  0  0  0  0  0  0  0  0  0
   -4.5100   20.3900  -32.4800 C   0  0  0  0  0  0  0  0  0  0  0  0
   -5.8820   20.3550  -31.9170 C   0  0  0  0  0  0  0  0  0  0  0  0
   -6.4540   19.2630  -31.6550 O   0  0  0  0  0  0  0  0  0  0  0  0
   -6.5950   21.5840  -31.6990 N   0  0  0  0  0  0  0  0  0  0  0  0
   -7.9380   21.7830  -31.8080 C   0  0  0  0  0  0  0  0  0  0  0  0
   -8.9150   20.8090  -32.3370 C   0  0  0  0  0  0  0  0  0  0  0  0
   -8.5020   19.7110  -33.1520 N   0  0  0  0  0  0  0  0  0  0  0  0
  -10.1410   20.9760  -32.1040 O   0  0  0  0  0  0  0  0  0  0  0  0
   -8.2840   23.0560  -31.3630 C   0  0  0  0  0  0  0  0  0  0  0  0
   -7.0990   23.6400  -30.9760 C   0  0  0  0  0  0  0  0  0  0  0  0
   -6.8600   24.8940  -30.4240 C   0  0  0  0  0  0  0  0  0  0  0  0
   -5.5420   25.2140  -30.0650 C   0  0  0  0  0  0  0  0  0  0  0  0
   -4.4890   24.2840  -30.2510 C   0  0  0  0  0  0  0  0  0  0  0  0
   -3.1540   24.6520  -29.8480 N   0  0  0  0  0  0  0  0  0  0  0  0
   -2.0650   23.7020  -29.6220 C   0  0  0  0  0  0  0  0  0  0  0  0
   -0.8550   24.3960  -29.0790 C   0  0  0  0  0  0  0  0  0  0  0  0
    0.2360   23.7700  -28.9890 O   0  0  0  0  0  0  0  0  0  0  0  0
   -0.9690   25.7280  -28.6560 O   0  0  0  0  0  0  0  0  0  0  0  0
   -0.7520   26.2150  -27.3250 C   0  0  0  0  0  0  0  0  0  0  0  0
   -0.5080   27.7370  -27.3290 C   0  0  0  0  0  0  0  0  0  0  0  0
    0.5060   25.5160  -26.7850 C   0  0  0  0  0  0  0  0  0  0  0  0
   -1.9490   25.8580  -26.4240 C   0  0  0  0  0  0  0  0  0  0  0  0
   -4.7740   23.0170  -30.8170 C   0  0  0  0  0  0  0  0  0  0  0  0
   -6.0940   22.7310  -31.1850 C   0  0  0  0  0  0  0  0  0  0  0  0
   -5.3728   17.9358  -33.4131 H   0  0  0  0  0  0  0  0  0  0  0  0
   -5.6245   19.0577  -34.7932 H   0  0  0  0  0  0  0  0  0  0  0  0
   -4.2231   17.9341  -34.7932 H   0  0  0  0  0  0  0  0  0  0  0  0
   -1.9638   19.8647  -32.9842 H   0  0  0  0  0  0  0  0  0  0  0  0
   -2.2762   18.9207  -34.4802 H   0  0  0  0  0  0  0  0  0  0  0  0
   -2.4982   20.7033  -34.4802 H   0  0  0  0  0  0  0  0  0  0  0  0
   -3.8149   21.1259  -32.0497 H   0  0  0  0  0  0  0  0  0  0  0  0
   -7.5280   19.6460  -33.5200 H   0  0  0  0  0  0  0  0  0  0  0  0
   -9.2020   19.0050  -33.4710 H   0  0  0  0  0  0  0  0  0  0  0  0
   -9.2897   23.5003  -31.3281 H   0  0  0  0  0  0  0  0  0  0  0  0
   -7.6790   25.6127  -30.2735 H   0  0  0  0  0  0  0  0  0  0  0  0
   -5.3227   26.2015  -29.6327 H   0  0  0  0  0  0  0  0  0  0  0  0
   -2.9320   25.6680  -29.7320 H   0  0  0  0  0  0  0  0  0  0  0  0
   -2.3961   22.9392  -28.9020 H   0  0  0  0  0  0  0  0  0  0  0  0
   -1.8010   23.2350  -30.5823 H   0  0  0  0  0  0  0  0  0  0  0  0
   -0.4495   28.1017  -26.2929 H   0  0  0  0  0  0  0  0  0  0  0  0
    0.4366   27.9555  -27.8485 H   0  0  0  0  0  0  0  0  0  0  0  0
   -1.3370   28.2399  -27.8485 H   0  0  0  0  0  0  0  0  0  0  0  0
    0.4876   25.5262  -25.6852 H   0  0  0  0  0  0  0  0  0  0  0  0
    0.5291   24.4757  -27.1417 H   0  0  0  0  0  0  0  0  0  0  0  0
    1.4016   26.0459  -27.1417 H   0  0  0  0  0  0  0  0  0  0  0  0
   -1.6526   25.9464  -25.3684 H   0  0  0  0  0  0  0  0  0  0  0  0
   -2.7814   26.5470  -26.6300 H   0  0  0  0  0  0  0  0  0  0  0  0
   -2.2680   24.8256  -26.6300 H   0  0  0  0  0  0  0  0  0  0  0  0
   -3.9758   22.2745  -30.9640 H   0  0  0  0  0  0  0  0  0  0  0  0
  1  2  1  0
  2  3  1  0
  2  4  2  3
  4  5  1  0
  5  6  2  0
  5  7  1  0
  7  8  1  0
  8  9  1  0
  9 10  1  0
  9 11  2  0
  8 12  2  0
 12 13  1  0
 13 14  2  0
 14 15  1  0
 15 16  2  0
 16 17  1  0
 17 18  1  0
 18 19  1  0
 19 20  2  0
 19 21  1  0
 21 22  1  0
 22 23  1  0
 22 24  1  0
 22 25  1  0
 16 26  1  0
 26 27  2  0
 27  7  1  0
 27 13  1  0
  1 28  1  0
  1 29  1  0
  1 30  1  0
  3 31  1  0
  3 32  1  0
  3 33  1  0
  4 34  1  0
 10 35  1  0
 10 36  1  0
 12 37  1  0
 14 38  1  0
 15 39  1  0
 17 40  1  0
 18 41  1  0
 18 42  1  0
 23 43  1  0
 23 44  1  0
 23 45  1  0
 24 46  1  0
 24 47  1  0
 24 48  1  0
 25 49  1  0
 25 50  1  0
 25 51  1  0
 26 52  1  0
M  END
>  <UniqueID>  (31) 
31

>  <SMILES>  (31) 
CC(C)=CC(=O)n1c(C(N)=O)cc2ccc(NCC(=O)OC(C)(C)C)cc21

>  <Energy>  (31) 
80.79272537073498

>  <Genealogy>  (31) 
CC(C)=CC(=O)n1c(C(N)=O)cc2ccc(NCC(=O)OC(C)(C)C)cc21 (3D coordinates assigned)
CC(C)=CC(=O)n1c(C(N)=O)cc2ccc(NCC(=O)OC(C)(C)C)cc21 (optimized conformer: 80.79272537073498 kcal/mol)

>  <smiles>  (31) 
CC(C)=CC(=O)n1c(C(N)=O)cc2ccc(NCC(=O)OC(C)(C)C)cc21

>  <score_type>  (31) 
oracle

>  <origin>  (31) 
adg

>  <m_score__min__energy>  (31) 
-9.3800000000000008

>  <m_primary>  (31) 
energy

$$$$
32:0
     RDKit          3D

 34 36  0  0  0  0  0  0  0  0999 V2000
   -3.8660   25.6270  -30.8470 N   0  0  0  0  0  0  0  0  0  0  0  0
   -5.2000   25.3540  -30.4260 C   0  0  0  0  0  0  0  0  0  0  0  0
   -5.8080   26.1970  -29.7150 O   0  0  0  0  0  0  0  0  0  0  0  0
   -5.8360   24.0700  -30.7890 C   0  0  0  0  0  0  0  0  0  0  0  0
   -7.2160   23.8800  -30.8230 C   0  0  0  0  0  0  0  0  0  0  0  0
   -7.3970   22.5970  -31.2830 C   0  0  0  0  0  0  0  0  0  0  0  0
   -8.5710   21.8780  -31.4870 C   0  0  0  0  0  0  0  0  0  0  0  0
   -8.4620   20.5510  -31.9330 C   0  0  0  0  0  0  0  0  0  0  0  0
   -7.1910   19.9690  -32.1770 C   0  0  0  0  0  0  0  0  0  0  0  0
   -7.0850   18.5250  -32.5960 C   0  0  0  0  0  0  0  0  0  0  0  0
   -8.3200   17.9190  -32.4540 F   0  0  0  0  0  0  0  0  0  0  0  0
   -6.1620   17.8550  -31.8120 F   0  0  0  0  0  0  0  0  0  0  0  0
   -6.6830   18.4280  -33.9170 F   0  0  0  0  0  0  0  0  0  0  0  0
   -6.0200   20.7260  -31.9340 C   0  0  0  0  0  0  0  0  0  0  0  0
   -6.1600   22.0520  -31.5070 C   0  0  0  0  0  0  0  0  0  0  0  0
   -5.1880   22.9440  -31.2050 N   0  0  0  0  0  0  0  0  0  0  0  0
   -3.7720   22.7090  -31.2350 C   0  0  0  0  0  0  0  0  0  0  0  0
   -3.2660   22.0490  -32.1840 O   0  0  0  0  0  0  0  0  0  0  0  0
   -2.9690   23.2040  -30.1980 O   0  0  0  0  0  0  0  0  0  0  0  0
   -3.3420   23.2700  -28.8490 C   0  0  0  0  0  0  0  0  0  0  0  0
   -4.2040   22.4840  -28.3710 O   0  0  0  0  0  0  0  0  0  0  0  0
   -2.7160   24.2740  -27.9820 C   0  0  0  0  0  0  0  0  0  0  0  0
   -3.1530   24.6380  -26.7140 C   0  0  0  0  0  0  0  0  0  0  0  0
   -2.3610   25.6290  -26.1230 C   0  0  0  0  0  0  0  0  0  0  0  0
   -1.3030   26.0490  -26.9200 C   0  0  0  0  0  0  0  0  0  0  0  0
   -1.3540   25.1850  -28.3620 S   0  0  0  0  0  0  0  0  0  0  0  0
   -3.0490   25.3030  -30.2840 H   0  0  0  0  0  0  0  0  0  0  0  0
   -7.9955   24.6033  -30.5415 H   0  0  0  0  0  0  0  0  0  0  0  0
   -9.5546   22.3354  -31.3044 H   0  0  0  0  0  0  0  0  0  0  0  0
   -9.3726   19.9556  -32.0952 H   0  0  0  0  0  0  0  0  0  0  0  0
   -5.0234   20.2829  -32.0773 H   0  0  0  0  0  0  0  0  0  0  0  0
   -4.0318   24.1926  -26.2247 H   0  0  0  0  0  0  0  0  0  0  0  0
   -2.5577   26.0375  -25.1208 H   0  0  0  0  0  0  0  0  0  0  0  0
   -0.5598   26.8150  -26.6535 H   0  0  0  0  0  0  0  0  0  0  0  0
  1  2  1  0
  2  3  2  0
  2  4  1  0
  4  5  2  0
  5  6  1  0
  6  7  2  0
  7  8  1  0
  8  9  2  0
  9 10  1  0
 10 11  1  0
 10 12  1  0
 10 13  1  0
  9 14  1  0
 14 15  2  0
 15 16  1  0
 16 17  1  0
 17 18  2  0
 17 19  1  0
 19 20  1  0
 20 21  2  0
 20 22  1  0
 22 23  2  0
 23 24  1  0
 24 25  2  0
 25 26  1  0
 16  4  1  0
 26 22  1  0
 15  6  1  0
  1 27  1  0
  5 28  1  0
  7 29  1  0
  8 30  1  0
 14 31  1  0
 23 32  1  0
 24 33  1  0
 25 34  1  0
M  CHG  1   1  -1
M  END
>  <UniqueID>  (32) 
32

>  <SMILES>  (32) 
[NH-]C(=O)c1cc2ccc(C(F)(F)F)cc2n1C(=O)OC(=O)c1cccs1

>  <Energy>  (32) 
101.84147020972134

>  <Genealogy>  (32) 
[NH-]C(=O)c1cc2ccc(C(F)(F)F)cc2n1C(=O)OC(=O)c1cccs1 (protonated)
[NH-]C(=O)c1cc2ccc(C(F)(F)F)cc2n1C(=O)OC(=O)c1cccs1 (3D coordinates assigned)
[NH-]C(=O)c1cc2ccc(C(F)(F)F)cc2n1C(=O)OC(=O)c1cccs1 (optimized conformer: 101.84147020972134 kcal/mol)

>  <smiles>  (32) 
NC(=O)c1cc2ccc(C(F)(F)F)cc2n1C(=O)OC(=O)c1cccs1

>  <score_type>  (32) 
oracle

>  <origin>  (32) 
adg

>  <m_score__min__energy>  (32) 
-10.33

>  <m_primary>  (32) 
energy

$$$$
33:0
     RDKit          3D

 42 43  0  0  0  0  0  0  0  0999 V2000
   -1.7960   24.6990  -28.6200 C   0  0  0  0  0  0  0  0  0  0  0  0
   -3.0760   24.0610  -28.1510 C   0  0  0  0  0  0  0  0  0  0  0  0
   -3.7010   24.4820  -26.8500 C   0  0  0  0  0  0  0  0  0  0  0  0
   -3.6740   23.1200  -28.8910 C   0  0  0  0  0  0  0  0  0  0  0  0
   -3.1090   22.6990  -30.0990 O   0  0  0  0  0  0  0  0  0  0  0  0
   -3.8300   22.6180  -31.2940 C   0  0  0  0  0  0  0  0  0  0  0  0
   -3.2430   22.3430  -32.3770 O   0  0  0  0  0  0  0  0  0  0  0  0
   -5.2450   22.8660  -31.2910 N   0  0  0  0  0  0  0  0  0  0  0  0
   -5.8790   24.0530  -31.0690 C   0  0  0  0  0  0  0  0  0  0  0  0
   -5.2430   25.3020  -30.6020 C   0  0  0  0  0  0  0  0  0  0  0  0
   -3.8610   25.5560  -30.8430 N   0  0  0  0  0  0  0  0  0  0  0  0
   -5.9160   26.1330  -29.9340 O   0  0  0  0  0  0  0  0  0  0  0  0
   -7.2510   23.9190  -31.2670 C   0  0  0  0  0  0  0  0  0  0  0  0
   -7.4430   22.6010  -31.6110 C   0  0  0  0  0  0  0  0  0  0  0  0
   -8.6140   21.9220  -31.9320 C   0  0  0  0  0  0  0  0  0  0  0  0
   -8.5140   20.5670  -32.2840 C   0  0  0  0  0  0  0  0  0  0  0  0
   -7.2570   19.9140  -32.3180 C   0  0  0  0  0  0  0  0  0  0  0  0
   -7.1980   18.5260  -32.6990 N   0  0  0  0  0  0  0  0  0  0  0  0
   -6.4710   17.5140  -31.9270 C   0  0  0  0  0  0  0  0  0  0  0  0
   -5.3630   16.8560  -32.7590 C   0  0  0  0  0  0  0  0  0  0  0  0
   -5.6850   16.8850  -34.2230 C   0  0  0  0  0  0  0  0  0  0  0  0
   -6.8390   16.5810  -34.6270 O   0  0  0  0  0  0  0  0  0  0  0  0
   -4.7100   17.2500  -35.1430 O   0  0  0  0  0  0  0  0  0  0  0  0
   -6.0870   20.6420  -31.9840 C   0  0  0  0  0  0  0  0  0  0  0  0
   -6.2180   21.9860  -31.6190 C   0  0  0  0  0  0  0  0  0  0  0  0
   -1.1950   24.9986  -27.7488 H   0  0  0  0  0  0  0  0  0  0  0  0
   -1.2281   23.9785  -29.2270 H   0  0  0  0  0  0  0  0  0  0  0  0
   -2.0294   25.5862  -29.2270 H   0  0  0  0  0  0  0  0  0  0  0  0
   -3.1091   24.0833  -26.0129 H   0  0  0  0  0  0  0  0  0  0  0  0
   -3.7238   25.5803  -26.7926 H   0  0  0  0  0  0  0  0  0  0  0  0
   -4.7273   24.0904  -26.7926 H   0  0  0  0  0  0  0  0  0  0  0  0
   -4.6184   22.6737  -28.5461 H   0  0  0  0  0  0  0  0  0  0  0  0
   -3.1640   24.7800  -30.8380 H   0  0  0  0  0  0  0  0  0  0  0  0
   -8.0183   24.7011  -31.1691 H   0  0  0  0  0  0  0  0  0  0  0  0
   -9.5886   22.4316  -31.9106 H   0  0  0  0  0  0  0  0  0  0  0  0
   -9.4245   20.0040  -32.5371 H   0  0  0  0  0  0  0  0  0  0  0  0
   -7.7020   18.2340  -33.5680 H   0  0  0  0  0  0  0  0  0  0  0  0
   -6.0188   17.9938  -31.0464 H   0  0  0  0  0  0  0  0  0  0  0  0
   -7.1848   16.7329  -31.6263 H   0  0  0  0  0  0  0  0  0  0  0  0
   -4.4200   17.3963  -32.5896 H   0  0  0  0  0  0  0  0  0  0  0  0
   -5.2738   15.8053  -32.4458 H   0  0  0  0  0  0  0  0  0  0  0  0
   -5.0983   20.1606  -32.0113 H   0  0  0  0  0  0  0  0  0  0  0  0
  1  2  1  0
  2  3  1  0
  2  4  2  3
  4  5  1  0
  5  6  1  0
  6  7  2  0
  6  8  1  0
  8  9  1  0
  9 10  1  0
 10 11  1  0
 10 12  2  0
  9 13  2  0
 13 14  1  0
 14 15  2  0
 15 16  1  0
 16 17  2  0
 17 18  1  0
 18 19  1  0
 19 20  1  0
 20 21  1  0
 21 22  2  0
 21 23  1  0
 17 24  1  0
 24 25  2  0
 25  8  1  0
 25 14  1  0
  1 26  1  0
  1 27  1  0
  1 28  1  0
  3 29  1  0
  3 30  1  0
  3 31  1  0
  4 32  1  0
 11 33  1  0
 13 34  1  0
 15 35  1  0
 16 36  1  0
 18 37  1  0
 19 38  1  0
 19 39  1  0
 20 40  1  0
 20 41  1  0
 24 42  1  0
M  CHG  2  11  -1  23  -1
M  END
>  <UniqueID>  (33) 
33

>  <SMILES>  (33) 
CC(C)=COC(=O)n1c(C([NH-])=O)cc2ccc(NCCC(=O)[O-])cc21

>  <Energy>  (33) 
72.1651948641153

>  <Genealogy>  (33) 
CC(C)=COC(=O)n1c(C([NH-])=O)cc2ccc(NCCC(=O)[O-])cc21 (protonated)
CC(C)=COC(=O)n1c(C([NH-])=O)cc2ccc(NCCC(=O)[O-])cc21 (3D coordinates assigned)
CC(C)=COC(=O)n1c(C([NH-])=O)cc2ccc(NCCC(=O)[O-])cc21 (optimized conformer: 72.1651948641153 kcal/mol)

>  <smiles>  (33) 
CC(C)=COC(=O)n1c(C(N)=O)cc2ccc(NCCC(=O)O)cc21

>  <score_type>  (33) 
oracle

>  <origin>  (33) 
adg

>  <m_score__min__energy>  (33) 
-10.59

>  <m_primary>  (33) 
energy

$$$$
34:0
     RDKit          3D

 36 37  0  0  0  0  0  0  0  0999 V2000
   -9.0110   22.7730  -31.9800 C   0  0  0  0  0  0  0  0  0  0  0  0
   -8.5340   21.4080  -32.2320 N   0  0  0  0  0  0  0  0  0  0  0  0
   -9.5170   20.3250  -32.3640 C   0  0  0  0  0  0  0  0  0  0  0  0
   -7.1130   21.1320  -32.3480 C   0  0  0  0  0  0  0  0  0  0  0  0
   -6.6450   20.0570  -33.1540 C   0  0  0  0  0  0  0  0  0  0  0  0
   -5.2730   19.7740  -33.2620 C   0  0  0  0  0  0  0  0  0  0  0  0
   -4.3830   20.5830  -32.5680 C   0  0  0  0  0  0  0  0  0  0  0  0
   -3.0120   20.5080  -32.4730 C   0  0  0  0  0  0  0  0  0  0  0  0
   -2.6450   21.5580  -31.6360 C   0  0  0  0  0  0  0  0  0  0  0  0
   -1.2430   21.8830  -31.3080 C   0  0  0  0  0  0  0  0  0  0  0  0
   -0.9110   22.6250  -30.1330 N   0  0  0  0  0  0  0  0  0  0  0  0
   -0.3270   21.5480  -32.1060 O   0  0  0  0  0  0  0  0  0  0  0  0
   -3.7440   22.2470  -31.2180 N   0  0  0  0  0  0  0  0  0  0  0  0
   -3.7930   23.3230  -30.2660 C   0  0  0  0  0  0  0  0  0  0  0  0
   -3.8760   24.5150  -30.6740 O   0  0  0  0  0  0  0  0  0  0  0  0
   -3.7500   23.0370  -28.8950 O   0  0  0  0  0  0  0  0  0  0  0  0
   -3.3610   23.9360  -27.8940 C   0  0  0  0  0  0  0  0  0  0  0  0
   -4.2220   24.5600  -27.2150 O   0  0  0  0  0  0  0  0  0  0  0  0
   -1.9920   24.1250  -27.6660 O   0  0  0  0  0  0  0  0  0  0  0  0
   -1.1520   24.9340  -28.4420 C   0  0  0  0  0  0  0  0  0  0  0  0
   -1.5690   26.0020  -28.9650 O   0  0  0  0  0  0  0  0  0  0  0  0
    0.1660   24.5490  -28.6390 O   0  0  0  0  0  0  0  0  0  0  0  0
   -4.8020   21.6390  -31.8020 C   0  0  0  0  0  0  0  0  0  0  0  0
   -6.1640   21.9290  -31.6550 C   0  0  0  0  0  0  0  0  0  0  0  0
   -9.0714   22.9459  -30.8954 H   0  0  0  0  0  0  0  0  0  0  0  0
   -8.3117   23.4943  -32.4279 H   0  0  0  0  0  0  0  0  0  0  0  0
  -10.0074   22.9018  -32.4279 H   0  0  0  0  0  0  0  0  0  0  0  0
   -9.8251   19.9856  -31.3641 H   0  0  0  0  0  0  0  0  0  0  0  0
  -10.3962   20.6927  -32.9134 H   0  0  0  0  0  0  0  0  0  0  0  0
   -9.0661   19.4855  -32.9134 H   0  0  0  0  0  0  0  0  0  0  0  0
   -7.3697   19.4368  -33.7020 H   0  0  0  0  0  0  0  0  0  0  0  0
   -4.9145   18.9363  -33.8782 H   0  0  0  0  0  0  0  0  0  0  0  0
   -2.3483   19.7752  -32.9552 H   0  0  0  0  0  0  0  0  0  0  0  0
    0.0890   22.8110  -29.8970 H   0  0  0  0  0  0  0  0  0  0  0  0
   -1.6520   23.0650  -29.5440 H   0  0  0  0  0  0  0  0  0  0  0  0
   -6.4931   22.7599  -31.0137 H   0  0  0  0  0  0  0  0  0  0  0  0
  1  2  1  0
  2  3  1  0
  2  4  1  0
  4  5  2  0
  5  6  1  0
  6  7  2  0
  7  8  1  0
  8  9  2  0
  9 10  1  0
 10 11  1  0
 10 12  2  0
  9 13  1  0
 13 14  1  0
 14 15  2  0
 14 16  1  0
 16 17  1  0
 17 18  2  0
 17 19  1  0
 19 20  1  0
 20 21  2  0
 20 22  1  0
 13 23  1  0
 23 24  2  0
 24  4  1  0
 23  7  1  0
  1 25  1  0
  1 26  1  0
  1 27  1  0
  3 28  1  0
  3 29  1  0
  3 30  1  0
  5 31  1  0
  6 32  1  0
  8 33  1  0
 11 34  1  0
 11 35  1  0
 24 36  1  0
M  CHG  1  22  -1
M  END
>  <UniqueID>  (34) 
34

>  <SMILES>  (34) 
CN(C)c1ccc2cc(C(N)=O)n(C(=O)OC(=O)OC(=O)[O-])c2c1

>  <Energy>  (34) 
79.19295707164027

>  <Genealogy>  (34) 
CN(C)c1ccc2cc(C(N)=O)n(C(=O)OC(=O)OC(=O)[O-])c2c1 (protonated)
CN(C)c1ccc2cc(C(N)=O)n(C(=O)OC(=O)OC(=O)[O-])c2c1 (3D coordinates assigned)
CN(C)c1ccc2cc(C(N)=O)n(C(=O)OC(=O)OC(=O)[O-])c2c1 (optimized conformer: 79.19295707164027 kcal/mol)

>  <smiles>  (34) 
CN(C)c1ccc2cc(C(N)=O)n(C(=O)OC(=O)OC(=O)O)c2c1

>  <score_type>  (34) 
oracle

>  <origin>  (34) 
adg

>  <m_score__min__energy>  (34) 
-9.7300000000000004

>  <m_primary>  (34) 
energy

$$$$
35:0
     RDKit          3D

 39 40  0  0  0  0  0  0  0  0999 V2000
   -0.1840   21.4930  -27.9220 C   0  0  0  0  0  0  0  0  0  0  0  0
   -0.5090   22.5350  -28.9030 N   0  0  0  0  0  0  0  0  0  0  0  0
   -0.1760   23.9330  -28.6000 C   0  0  0  0  0  0  0  0  0  0  0  0
   -1.3790   24.8010  -28.7970 C   0  0  0  0  0  0  0  0  0  0  0  0
   -2.5150   24.4040  -28.4300 O   0  0  0  0  0  0  0  0  0  0  0  0
   -1.2360   26.0690  -29.3450 O   0  0  0  0  0  0  0  0  0  0  0  0
   -1.2070   22.2080  -30.1270 C   0  0  0  0  0  0  0  0  0  0  0  0
   -0.5750   21.6640  -31.0730 O   0  0  0  0  0  0  0  0  0  0  0  0
   -2.6140   22.4820  -30.2760 N   0  0  0  0  0  0  0  0  0  0  0  0
   -3.3560   22.2260  -31.4800 C   0  0  0  0  0  0  0  0  0  0  0  0
   -2.7600   21.9170  -32.5470 O   0  0  0  0  0  0  0  0  0  0  0  0
   -4.7880   22.3370  -31.4770 N   0  0  0  0  0  0  0  0  0  0  0  0
   -5.5400   23.3760  -31.0140 C   0  0  0  0  0  0  0  0  0  0  0  0
   -5.0150   24.5610  -30.2970 C   0  0  0  0  0  0  0  0  0  0  0  0
   -5.3710   24.8110  -28.9360 N   0  0  0  0  0  0  0  0  0  0  0  0
   -4.2270   25.3530  -30.8790 O   0  0  0  0  0  0  0  0  0  0  0  0
   -6.8940   23.1330  -31.2410 C   0  0  0  0  0  0  0  0  0  0  0  0
   -6.9470   21.9070  -31.8640 C   0  0  0  0  0  0  0  0  0  0  0  0
   -8.0400   21.1890  -32.3390 C   0  0  0  0  0  0  0  0  0  0  0  0
   -7.7970   19.9630  -32.9780 C   0  0  0  0  0  0  0  0  0  0  0  0
   -6.4730   19.4700  -33.1240 C   0  0  0  0  0  0  0  0  0  0  0  0
   -6.2200   18.1840  -33.8680 C   0  0  0  0  0  0  0  0  0  0  0  0
   -6.1210   18.4190  -35.2280 F   0  0  0  0  0  0  0  0  0  0  0  0
   -7.2660   17.3100  -33.6360 F   0  0  0  0  0  0  0  0  0  0  0  0
   -5.0400   17.5970  -33.4430 F   0  0  0  0  0  0  0  0  0  0  0  0
   -5.3870   20.2420  -32.6500 C   0  0  0  0  0  0  0  0  0  0  0  0
   -5.6620   21.4490  -31.9970 C   0  0  0  0  0  0  0  0  0  0  0  0
   -0.3092   21.8945  -26.9056 H   0  0  0  0  0  0  0  0  0  0  0  0
   -0.8570   20.6343  -28.0626 H   0  0  0  0  0  0  0  0  0  0  0  0
    0.8578   21.1692  -28.0626 H   0  0  0  0  0  0  0  0  0  0  0  0
    0.1607   24.0089  -27.5555 H   0  0  0  0  0  0  0  0  0  0  0  0
    0.6248   24.2676  -29.2759 H   0  0  0  0  0  0  0  0  0  0  0  0
   -3.1480   22.8820  -29.4740 H   0  0  0  0  0  0  0  0  0  0  0  0
   -4.9640   25.6290  -28.4320 H   0  0  0  0  0  0  0  0  0  0  0  0
   -6.0680   24.2160  -28.4370 H   0  0  0  0  0  0  0  0  0  0  0  0
   -7.7409   23.7837  -30.9778 H   0  0  0  0  0  0  0  0  0  0  0  0
   -9.0644   21.5708  -32.2174 H   0  0  0  0  0  0  0  0  0  0  0  0
   -8.6416   19.3774  -33.3701 H   0  0  0  0  0  0  0  0  0  0  0  0
   -4.3505   19.9018  -32.7912 H   0  0  0  0  0  0  0  0  0  0  0  0
  1  2  1  0
  2  3  1  0
  3  4  1  0
  4  5  2  0
  4  6  1  0
  2  7  1  0
  7  8  2  0
  7  9  1  0
  9 10  1  0
 10 11  2  0
 10 12  1  0
 12 13  1  0
 13 14  1  0
 14 15  1  0
 14 16  2  0
 13 17  2  0
 17 18  1  0
 18 19  2  0
 19 20  1  0
 20 21  2  0
 21 22  1  0
 22 23  1  0
 22 24  1  0
 22 25  1  0
 21 26  1  0
 26 27  2  0
 27 12  1  0
 27 18  1  0
  1 28  1  0
  1 29  1  0
  1 30  1  0
  3 31  1  0
  3 32  1  0
  9 33  1  0
 15 34  1  0
 15 35  1  0
 17 36  1  0
 19 37  1  0
 20 38  1  0
 26 39  1  0
M  CHG  1   6  -1
M  END
>  <UniqueID>  (35) 
35

>  <SMILES>  (35) 
CN(CC(=O)[O-])C(=O)NC(=O)n1c(C(N)=O)cc2ccc(C(F)(F)F)cc21

>  <Energy>  (35) 
76.43232823409865

>  <Genealogy>  (35) 
CN(CC(=O)[O-])C(=O)NC(=O)n1c(C(N)=O)cc2ccc(C(F)(F)F)cc21 (protonated)
CN(CC(=O)[O-])C(=O)NC(=O)n1c(C(N)=O)cc2ccc(C(F)(F)F)cc21 (3D coordinates assigned)
CN(CC(=O)[O-])C(=O)NC(=O)n1c(C(N)=O)cc2ccc(C(F)(F)F)cc21 (optimized conformer: 76.43232823409865 kcal/mol)

>  <smiles>  (35) 
CN(CC(=O)O)C(=O)NC(=O)n1c(C(N)=O)cc2ccc(C(F)(F)F)cc21

>  <score_type>  (35) 
oracle

>  <origin>  (35) 
adg

>  <m_score__min__energy>  (35) 
-11.33

>  <m_primary>  (35) 
energy

$$$$
36:0
     RDKit          3D

 54 57  0  0  0  0  0  0  0  0999 V2000
   -6.8280   17.0470  -33.5780 C   0  0  0  0  0  0  0  0  0  0  0  0
   -7.0000   18.1540  -33.1320 C   0  0  0  0  0  0  0  0  0  0  0  0
   -7.1950   19.4750  -32.5910 C   0  0  0  0  0  0  0  0  0  0  0  0
   -8.5050   19.9900  -32.4300 C   0  0  0  0  0  0  0  0  0  0  0  0
   -8.7040   21.2750  -31.8880 C   0  0  0  0  0  0  0  0  0  0  0  0
   -7.5770   22.0080  -31.5180 C   0  0  0  0  0  0  0  0  0  0  0  0
   -7.4720   23.2630  -30.9580 C   0  0  0  0  0  0  0  0  0  0  0  0
   -6.1000   23.4880  -30.7960 C   0  0  0  0  0  0  0  0  0  0  0  0
   -5.5020   24.7340  -30.2520 C   0  0  0  0  0  0  0  0  0  0  0  0
   -5.9620   25.2980  -29.0180 N   0  0  0  0  0  0  0  0  0  0  0  0
   -4.5770   25.3160  -30.8770 O   0  0  0  0  0  0  0  0  0  0  0  0
   -5.3950   22.4100  -31.2400 N   0  0  0  0  0  0  0  0  0  0  0  0
   -3.9670   22.2440  -31.2840 C   0  0  0  0  0  0  0  0  0  0  0  0
   -3.3770   22.1610  -32.3950 O   0  0  0  0  0  0  0  0  0  0  0  0
   -3.1830   22.2450  -30.0410 C   0  0  0  0  0  0  0  0  0  0  0  0
   -3.5320   21.5040  -29.0820 O   0  0  0  0  0  0  0  0  0  0  0  0
   -2.0600   23.1270  -29.9100 N   0  0  0  0  0  0  0  0  0  0  0  0
   -1.8850   24.0830  -28.8570 C   0  0  0  0  0  0  0  0  0  0  0  0
   -0.8710   25.0510  -28.9020 C   0  0  0  0  0  0  0  0  0  0  0  0
   -0.7320   25.9740  -27.8590 C   0  0  0  0  0  0  0  0  0  0  0  0
   -1.5850   25.9310  -26.7340 C   0  0  0  0  0  0  0  0  0  0  0  0
   -1.3800   26.8420  -25.6190 N   0  0  0  0  0  0  0  0  0  0  0  0
   -0.8330   28.1940  -25.8450 C   0  0  0  0  0  0  0  0  0  0  0  0
   -0.0920   28.7070  -24.5920 C   0  0  0  0  0  0  0  0  0  0  0  0
    0.6470   27.6200  -23.9120 N   0  0  0  0  0  0  0  0  0  0  0  0
    1.7560   27.1110  -24.7410 C   0  0  0  0  0  0  0  0  0  0  0  0
   -0.2460   26.5210  -23.4500 C   0  0  0  0  0  0  0  0  0  0  0  0
   -1.5850   26.4480  -24.2150 C   0  0  0  0  0  0  0  0  0  0  0  0
   -2.5970   24.9470  -26.7060 C   0  0  0  0  0  0  0  0  0  0  0  0
   -2.7610   24.0580  -27.7700 C   0  0  0  0  0  0  0  0  0  0  0  0
   -6.3060   21.5170  -31.6780 C   0  0  0  0  0  0  0  0  0  0  0  0
   -6.0790   20.2440  -32.2110 C   0  0  0  0  0  0  0  0  0  0  0  0
   -6.6711   16.0371  -33.9849 H   0  0  0  0  0  0  0  0  0  0  0  0
   -9.3718   19.3829  -32.7300 H   0  0  0  0  0  0  0  0  0  0  0  0
   -9.7160   21.6869  -31.7608 H   0  0  0  0  0  0  0  0  0  0  0  0
   -8.2939   23.9447  -30.6938 H   0  0  0  0  0  0  0  0  0  0  0  0
   -6.7930   24.9160  -28.5120 H   0  0  0  0  0  0  0  0  0  0  0  0
   -5.4790   26.1320  -28.6170 H   0  0  0  0  0  0  0  0  0  0  0  0
   -0.1829   25.0849  -29.7596 H   0  0  0  0  0  0  0  0  0  0  0  0
    0.0522   26.7433  -27.9162 H   0  0  0  0  0  0  0  0  0  0  0  0
   -0.1300   28.1610  -26.6904 H   0  0  0  0  0  0  0  0  0  0  0  0
   -1.6667   28.8775  -26.0637 H   0  0  0  0  0  0  0  0  0  0  0  0
    0.6208   29.4885  -24.8939 H   0  0  0  0  0  0  0  0  0  0  0  0
   -0.8391   29.1061  -23.8902 H   0  0  0  0  0  0  0  0  0  0  0  0
    2.5613   26.7414  -24.0892 H   0  0  0  0  0  0  0  0  0  0  0  0
    1.3922   26.2898  -25.3760 H   0  0  0  0  0  0  0  0  0  0  0  0
    2.1415   27.9223  -25.3760 H   0  0  0  0  0  0  0  0  0  0  0  0
    0.2823   25.5652  -23.5821 H   0  0  0  0  0  0  0  0  0  0  0  0
   -0.4878   26.7240  -22.3963 H   0  0  0  0  0  0  0  0  0  0  0  0
   -1.9714   25.4188  -24.1773 H   0  0  0  0  0  0  0  0  0  0  0  0
   -2.3079   27.1329  -23.7476 H   0  0  0  0  0  0  0  0  0  0  0  0
   -3.2649   24.8799  -25.8346 H   0  0  0  0  0  0  0  0  0  0  0  0
   -3.5871   23.3319  -27.7518 H   0  0  0  0  0  0  0  0  0  0  0  0
   -5.0571   19.8547  -32.3299 H   0  0  0  0  0  0  0  0  0  0  0  0
  1  2  3  0
  2  3  1  0
  3  4  2  0
  4  5  1  0
  5  6  2  0
  6  7  1  0
  7  8  2  0
  8  9  1  0
  9 10  1  0
  9 11  2  0
  8 12  1  0
 12 13  1  0
 13 14  2  0
 13 15  1  0
 15 16  2  0
 15 17  1  0
 17 18  1  0
 18 19  2  0
 19 20  1  0
 20 21  2  0
 21 22  1  0
 22 23  1  0
 23 24  1  0
 24 25  1  0
 25 26  1  0
 25 27  1  0
 27 28  1  0
 21 29  1  0
 29 30  2  0
 12 31  1  0
 31 32  2  0
 32  3  1  0
 31  6  1  0
 30 18  1  0
 28 22  1  0
  1 33  1  0
  4 34  1  0
  5 35  1  0
  7 36  1  0
 10 37  1  0
 10 38  1  0
 19 39  1  0
 20 40  1  0
 23 41  1  0
 23 42  1  0
 24 43  1  0
 24 44  1  0
 26 45  1  0
 26 46  1  0
 26 47  1  0
 27 48  1  0
 27 49  1  0
 28 50  1  0
 28 51  1  0
 29 52  1  0
 30 53  1  0
 32 54  1  0
M  CHG  1  17  -1
M  END
>  <UniqueID>  (36) 
36

>  <SMILES>  (36) 
C#Cc1ccc2cc(C(N)=O)n(C(=O)C(=O)[N-]c3ccc(N4CCN(C)CC4)cc3)c2c1

>  <Energy>  (36) 
112.95634116282

>  <Genealogy>  (36) 
C#Cc1ccc2cc(C(N)=O)n(C(=O)C(=O)[N-]c3ccc(N4CCN(C)CC4)cc3)c2c1 (protonated)
C#Cc1ccc2cc(C(N)=O)n(C(=O)C(=O)[N-]c3ccc(N4CCN(C)CC4)cc3)c2c1 (3D coordinates assigned)
C#Cc1ccc2cc(C(N)=O)n(C(=O)C(=O)[N-]c3ccc(N4CCN(C)CC4)cc3)c2c1 (nonaromatic ring conformer: 112.95634116282 kcal/mol)

>  <smiles>  (36) 
C#Cc1ccc2cc(C(N)=O)n(C(=O)C(=O)Nc3ccc(N4CCN(C)CC4)cc3)c2c1

>  <score_type>  (36) 
oracle

>  <origin>  (36) 
adg

>  <m_score__min__energy>  (36) 
-11.890000000000001

>  <m_primary>  (36) 
energy

$$$$
37:0
     RDKit          3D

 48 49  0  0  0  0  0  0  0  0999 V2000
   -6.3410   17.5120  -31.7370 C   0  0  0  0  0  0  0  0  0  0  0  0
   -6.8760   18.4330  -32.8470 C   0  0  2  0  0  0  0  0  0  0  0  0
   -6.0760   18.3210  -34.1630 C   0  0  0  0  0  0  0  0  0  0  0  0
   -4.5850   18.2850  -33.9740 C   0  0  0  0  0  0  0  0  0  0  0  0
   -3.9070   19.2790  -34.1790 O   0  0  0  0  0  0  0  0  0  0  0  0
   -7.0180   19.8760  -32.3850 C   0  0  0  0  0  0  0  0  0  0  0  0
   -8.3030   20.4800  -32.3700 C   0  0  0  0  0  0  0  0  0  0  0  0
   -8.4660   21.8210  -31.9820 C   0  0  0  0  0  0  0  0  0  0  0  0
   -7.3310   22.5360  -31.6170 C   0  0  0  0  0  0  0  0  0  0  0  0
   -7.2000   23.8510  -31.2290 C   0  0  0  0  0  0  0  0  0  0  0  0
   -5.8380   24.0350  -31.0020 C   0  0  0  0  0  0  0  0  0  0  0  0
   -5.2630   25.2930  -30.4840 C   0  0  0  0  0  0  0  0  0  0  0  0
   -3.9310   25.6620  -30.8360 N   0  0  0  0  0  0  0  0  0  0  0  0
   -5.9460   26.0670  -29.7620 O   0  0  0  0  0  0  0  0  0  0  0  0
   -5.1520   22.8820  -31.2480 N   0  0  0  0  0  0  0  0  0  0  0  0
   -3.7320   22.6670  -31.1980 C   0  0  0  0  0  0  0  0  0  0  0  0
   -3.1340   22.1900  -32.2010 O   0  0  0  0  0  0  0  0  0  0  0  0
   -3.0340   22.9640  -30.0190 O   0  0  0  0  0  0  0  0  0  0  0  0
   -1.6960   23.3720  -29.9550 C   0  0  0  0  0  0  0  0  0  0  0  0
   -0.7810   22.6730  -30.4690 O   0  0  0  0  0  0  0  0  0  0  0  0
   -1.4010   24.5740  -29.2960 O   0  0  0  0  0  0  0  0  0  0  0  0
   -1.3800   24.7840  -27.8760 C   0  0  0  0  0  0  0  0  0  0  0  0
   -0.9520   26.2280  -27.5480 C   0  0  0  0  0  0  0  0  0  0  0  0
   -2.8100   24.5620  -27.3630 C   0  0  0  0  0  0  0  0  0  0  0  0
   -0.4430   23.7700  -27.1920 C   0  0  0  0  0  0  0  0  0  0  0  0
   -6.0820   21.9740  -31.6200 C   0  0  0  0  0  0  0  0  0  0  0  0
   -5.8880   20.6460  -32.0180 C   0  0  0  0  0  0  0  0  0  0  0  0
   -6.5894   17.9395  -30.7544 H   0  0  0  0  0  0  0  0  0  0  0  0
   -6.8022   16.5178  -31.8315 H   0  0  0  0  0  0  0  0  0  0  0  0
   -5.2489   17.4201  -31.8315 H   0  0  0  0  0  0  0  0  0  0  0  0
   -7.8892   18.0697  -33.0737 H   0  0  0  0  0  0  0  0  0  0  0  0
   -6.3816   17.3969  -34.6754 H   0  0  0  0  0  0  0  0  0  0  0  0
   -6.2997   19.2252  -34.7480 H   0  0  0  0  0  0  0  0  0  0  0  0
   -4.1001   17.3532  -33.6476 H   0  0  0  0  0  0  0  0  0  0  0  0
   -9.1830   19.8902  -32.6661 H   0  0  0  0  0  0  0  0  0  0  0  0
   -9.4608   22.2902  -31.9676 H   0  0  0  0  0  0  0  0  0  0  0  0
   -8.0008   24.5974  -31.1213 H   0  0  0  0  0  0  0  0  0  0  0  0
   -3.1120   25.1170  -30.4820 H   0  0  0  0  0  0  0  0  0  0  0  0
   -0.9129   26.3599  -26.4566 H   0  0  0  0  0  0  0  0  0  0  0  0
    0.0423   26.4221  -27.9766 H   0  0  0  0  0  0  0  0  0  0  0  0
   -1.6799   26.9325  -27.9766 H   0  0  0  0  0  0  0  0  0  0  0  0
   -2.8091   24.5621  -26.2630 H   0  0  0  0  0  0  0  0  0  0  0  0
   -3.4605   25.3699  -27.7292 H   0  0  0  0  0  0  0  0  0  0  0  0
   -3.1849   23.5949  -27.7292 H   0  0  0  0  0  0  0  0  0  0  0  0
   -0.5325   23.8668  -26.0999 H   0  0  0  0  0  0  0  0  0  0  0  0
   -0.7234   22.7501  -27.4939 H   0  0  0  0  0  0  0  0  0  0  0  0
    0.5958   23.9692  -27.4939 H   0  0  0  0  0  0  0  0  0  0  0  0
   -4.8786   20.2098  -32.0450 H   0  0  0  0  0  0  0  0  0  0  0  0
  1  2  1  0
  2  3  1  0
  3  4  1  0
  4  5  2  0
  2  6  1  0
  6  7  2  0
  7  8  1  0
  8  9  2  0
  9 10  1  0
 10 11  2  0
 11 12  1  0
 12 13  1  0
 12 14  2  0
 11 15  1  0
 15 16  1  0
 16 17  2  0
 16 18  1  0
 18 19  1  0
 19 20  2  0
 19 21  1  0
 21 22  1  0
 22 23  1  0
 22 24  1  0
 22 25  1  0
 15 26  1  0
 26 27  2  0
 27  6  1  0
 26  9  1  0
  1 28  1  0
  1 29  1  0
  1 30  1  0
  2 31  1  6
  3 32  1  0
  3 33  1  0
  4 34  1  0
  7 35  1  0
  8 36  1  0
 10 37  1  0
 13 38  1  0
 23 39  1  0
 23 40  1  0
 23 41  1  0
 24 42  1  0
 24 43  1  0
 24 44  1  0
 25 45  1  0
 25 46  1  0
 25 47  1  0
 27 48  1  0
M  CHG  1  13  -1
M  END
>  <UniqueID>  (37) 
37

>  <SMILES>  (37) 
C[C@H](CC=O)c1ccc2cc(C([NH-])=O)n(C(=O)OC(=O)OC(C)(C)C)c2c1

>  <Energy>  (37) 
80.75243329522571

>  <Genealogy>  (37) 
CC(CC=O)c1ccc2cc(C([NH-])=O)n(C(=O)OC(=O)OC(C)(C)C)c2c1 (protonated)
C[C@H](CC=O)c1ccc2cc(C([NH-])=O)n(C(=O)OC(=O)OC(C)(C)C)c2c1 (chirality)
C[C@H](CC=O)c1ccc2cc(C([NH-])=O)n(C(=O)OC(=O)OC(C)(C)C)c2c1 (3D coordinates assigned)
C[C@H](CC=O)c1ccc2cc(C([NH-])=O)n(C(=O)OC(=O)OC(C)(C)C)c2c1 (optimized conformer: 80.75243329522571 kcal/mol)

>  <smiles>  (37) 
CC(CC=O)c1ccc2cc(C(N)=O)n(C(=O)OC(=O)OC(C)(C)C)c2c1

>  <score_type>  (37) 
oracle

>  <origin>  (37) 
adg

>  <m_score__min__energy>  (37) 
-10.69

>  <m_primary>  (37) 
energy

$$$$
38:0
     RDKit          3D

 28 29  0  0  0  0  0  0  0  0999 V2000
   -4.0770   22.7770  -28.3630 C   0  0  0  0  0  0  0  0  0  0  0  0
   -3.3650   21.5870  -29.5390 S   0  0  0  0  0  0  0  0  0  0  0  0
   -3.9470   22.4900  -30.9750 C   0  0  0  0  0  0  0  0  0  0  0  0
   -3.1370   22.7720  -31.8970 O   0  0  0  0  0  0  0  0  0  0  0  0
   -5.3250   22.8790  -31.0820 N   0  0  0  0  0  0  0  0  0  0  0  0
   -5.8570   24.1160  -30.8740 C   0  0  0  0  0  0  0  0  0  0  0  0
   -5.0960   25.3470  -30.5710 C   0  0  0  0  0  0  0  0  0  0  0  0
   -3.6740   25.2960  -30.4720 N   0  0  0  0  0  0  0  0  0  0  0  0
   -5.6880   26.4400  -30.3760 O   0  0  0  0  0  0  0  0  0  0  0  0
   -7.2400   24.0860  -31.0450 C   0  0  0  0  0  0  0  0  0  0  0  0
   -7.5390   22.7820  -31.3690 C   0  0  0  0  0  0  0  0  0  0  0  0
   -8.7690   22.1820  -31.6210 C   0  0  0  0  0  0  0  0  0  0  0  0
   -8.7860   20.8040  -31.8940 C   0  0  0  0  0  0  0  0  0  0  0  0
   -7.5810   20.0540  -31.9190 C   0  0  0  0  0  0  0  0  0  0  0  0
   -7.6200   18.5640  -32.1490 C   0  0  0  0  0  0  0  0  0  0  0  0
   -7.1920   18.2910  -33.4360 F   0  0  0  0  0  0  0  0  0  0  0  0
   -6.7940   17.9100  -31.2510 F   0  0  0  0  0  0  0  0  0  0  0  0
   -8.9050   18.0780  -31.9880 F   0  0  0  0  0  0  0  0  0  0  0  0
   -6.3550   20.6970  -31.6320 C   0  0  0  0  0  0  0  0  0  0  0  0
   -6.3660   22.0740  -31.3840 C   0  0  0  0  0  0  0  0  0  0  0  0
   -3.8762   22.4414  -27.3349 H   0  0  0  0  0  0  0  0  0  0  0  0
   -3.6221   23.7659  -28.5213 H   0  0  0  0  0  0  0  0  0  0  0  0
   -5.1635   22.8436  -28.5213 H   0  0  0  0  0  0  0  0  0  0  0  0
   -3.1010   24.8320  -31.2100 H   0  0  0  0  0  0  0  0  0  0  0  0
   -7.9430   24.9258  -30.9428 H   0  0  0  0  0  0  0  0  0  0  0  0
   -9.6994   22.7686  -31.6069 H   0  0  0  0  0  0  0  0  0  0  0  0
   -9.7440   20.3005  -32.0906 H   0  0  0  0  0  0  0  0  0  0  0  0
   -5.4141   20.1278  -31.6043 H   0  0  0  0  0  0  0  0  0  0  0  0
  1  2  1  0
  2  3  1  0
  3  4  2  0
  3  5  1  0
  5  6  1  0
  6  7  1  0
  7  8  1  0
  7  9  2  0
  6 10  2  0
 10 11  1  0
 11 12  2  0
 12 13  1  0
 13 14  2  0
 14 15  1  0
 15 16  1  0
 15 17  1  0
 15 18  1  0
 14 19  1  0
 19 20  2  0
 20  5  1  0
 20 11  1  0
  1 21  1  0
  1 22  1  0
  1 23  1  0
  8 24  1  0
 10 25  1  0
 12 26  1  0
 13 27  1  0
 19 28  1  0
M  CHG  1   8  -1
M  END
>  <UniqueID>  (38) 
38

>  <SMILES>  (38) 
CSC(=O)n1c(C([NH-])=O)cc2ccc(C(F)(F)F)cc21

>  <Energy>  (38) 
64.17957856092862

>  <Genealogy>  (38) 
CSC(=O)n1c(C([NH-])=O)cc2ccc(C(F)(F)F)cc21 (protonated)
CSC(=O)n1c(C([NH-])=O)cc2ccc(C(F)(F)F)cc21 (3D coordinates assigned)
CSC(=O)n1c(C([NH-])=O)cc2ccc(C(F)(F)F)cc21 (optimized conformer: 64.17957856092862 kcal/mol)

>  <smiles>  (38) 
CSC(=O)n1c(C(N)=O)cc2ccc(C(F)(F)F)cc21

>  <score_type>  (38) 
oracle

>  <origin>  (38) 
adg

>  <m_score__min__energy>  (38) 
-9.6400000000000006

>  <m_primary>  (38) 
energy

$$$$
39:0
     RDKit          3D

 59 61  0  0  0  0  0  0  0  0999 V2000
   -2.0520   20.5930  -28.8010 C   0  0  0  0  0  0  0  0  0  0  0  0
   -0.9180   20.0950  -29.6900 C   0  0  0  0  0  0  0  0  0  0  0  0
   -0.5050   21.1190  -30.5930 O   0  0  0  0  0  0  0  0  0  0  0  0
   -1.3540   21.6940  -31.5470 C   0  0  0  0  0  0  0  0  0  0  0  0
   -2.1900   22.5760  -31.2100 O   0  0  0  0  0  0  0  0  0  0  0  0
   -1.2750   21.2640  -32.9540 C   0  0  0  0  0  0  0  0  0  0  0  0
   -0.2100   21.4510  -33.6000 O   0  0  0  0  0  0  0  0  0  0  0  0
   -2.4350   20.5890  -33.6300 C   0  0  0  0  0  0  0  0  0  0  0  0
   -2.5370   19.2240  -33.2330 O   0  0  0  0  0  0  0  0  0  0  0  0
   -2.9390   18.1990  -34.0970 C   0  0  0  0  0  0  0  0  0  0  0  0
   -2.1620   17.7800  -34.9970 O   0  0  0  0  0  0  0  0  0  0  0  0
   -4.2630   17.6590  -33.9860 N   0  0  0  0  0  0  0  0  0  0  0  0
   -4.6640   16.3870  -34.2610 C   0  0  0  0  0  0  0  0  0  0  0  0
   -3.8300   15.3510  -34.9120 C   0  0  0  0  0  0  0  0  0  0  0  0
   -3.0550   15.6570  -36.0730 N   0  0  0  0  0  0  0  0  0  0  0  0
   -3.7780   14.1890  -34.4310 O   0  0  0  0  0  0  0  0  0  0  0  0
   -5.9990   16.2100  -33.9000 C   0  0  0  0  0  0  0  0  0  0  0  0
   -6.3990   17.4210  -33.3800 C   0  0  0  0  0  0  0  0  0  0  0  0
   -7.6160   17.7970  -32.8230 C   0  0  0  0  0  0  0  0  0  0  0  0
   -7.7300   19.0960  -32.3010 C   0  0  0  0  0  0  0  0  0  0  0  0
   -6.6300   19.9960  -32.3360 C   0  0  0  0  0  0  0  0  0  0  0  0
   -6.7430   21.3620  -31.7620 C   0  0  0  0  0  0  0  0  0  0  0  0
   -7.7940   22.2630  -31.9430 C   0  0  0  0  0  0  0  0  0  0  0  0
   -7.6120   23.4840  -31.2800 C   0  0  0  0  0  0  0  0  0  0  0  0
   -6.4160   23.5590  -30.5720 C   0  0  0  0  0  0  0  0  0  0  0  0
   -5.9260   24.7020  -29.7780 C   0  0  0  0  0  0  0  0  0  0  0  0
   -6.3740   25.8540  -30.0270 O   0  0  0  0  0  0  0  0  0  0  0  0
   -4.8650   24.5200  -28.7230 C   0  0  0  0  0  0  0  0  0  0  0  0
   -3.4770   24.5130  -29.3150 C   0  0  0  0  0  0  0  0  0  0  0  0
   -3.3240   24.8900  -30.4670 O   0  0  0  0  0  0  0  0  0  0  0  0
   -2.2680   24.0420  -28.5280 C   0  0  2  0  0  0  0  0  0  0  0  0
   -1.9830   24.9620  -27.3390 C   0  0  0  0  0  0  0  0  0  0  0  0
   -1.0820   23.9280  -29.3800 N   0  0  0  0  0  0  0  0  0  0  0  0
   -5.5970   22.1050  -30.7700 S   0  0  0  0  0  0  0  0  0  0  0  0
   -5.4110   19.5700  -32.9160 C   0  0  0  0  0  0  0  0  0  0  0  0
   -5.3330   18.2780  -33.4430 C   0  0  0  0  0  0  0  0  0  0  0  0
   -1.7710   20.4696  -27.7447 H   0  0  0  0  0  0  0  0  0  0  0  0
   -2.2405   21.6567  -29.0084 H   0  0  0  0  0  0  0  0  0  0  0  0
   -2.9627   20.0120  -29.0084 H   0  0  0  0  0  0  0  0  0  0  0  0
   -0.0653   19.8028  -29.0595 H   0  0  0  0  0  0  0  0  0  0  0  0
   -1.2739   19.2310  -30.2704 H   0  0  0  0  0  0  0  0  0  0  0  0
   -3.3634   21.1125  -33.3581 H   0  0  0  0  0  0  0  0  0  0  0  0
   -2.2748   20.6254  -34.7177 H   0  0  0  0  0  0  0  0  0  0  0  0
   -2.4410   14.9280  -36.4990 H   0  0  0  0  0  0  0  0  0  0  0  0
   -3.1150   16.5900  -36.5380 H   0  0  0  0  0  0  0  0  0  0  0  0
   -6.6039   15.2976  -34.0076 H   0  0  0  0  0  0  0  0  0  0  0  0
   -8.4646   17.0978  -32.7920 H   0  0  0  0  0  0  0  0  0  0  0  0
   -8.6833   19.4214  -31.8591 H   0  0  0  0  0  0  0  0  0  0  0  0
   -8.6827   22.0355  -32.5499 H   0  0  0  0  0  0  0  0  0  0  0  0
   -8.3440   24.3043  -31.3156 H   0  0  0  0  0  0  0  0  0  0  0  0
   -4.9385   25.3448  -27.9990 H   0  0  0  0  0  0  0  0  0  0  0  0
   -5.0323   23.5481  -28.2358 H   0  0  0  0  0  0  0  0  0  0  0  0
   -2.5072   23.0409  -28.1399 H   0  0  0  0  0  0  0  0  0  0  0  0
   -2.1532   24.4127  -26.4013 H   0  0  0  0  0  0  0  0  0  0  0  0
   -0.9376   25.3016  -27.3805 H   0  0  0  0  0  0  0  0  0  0  0  0
   -2.6534   25.8331  -27.3805 H   0  0  0  0  0  0  0  0  0  0  0  0
   -1.2750   24.3440  -30.3190 H   0  0  0  0  0  0  0  0  0  0  0  0
   -0.8700   22.9130  -29.5250 H   0  0  0  0  0  0  0  0  0  0  0  0
   -4.5417   20.2431  -32.9512 H   0  0  0  0  0  0  0  0  0  0  0  0
  1  2  1  0
  2  3  1  0
  3  4  1  0
  4  5  2  0
  4  6  1  0
  6  7  2  0
  6  8  1  0
  8  9  1  0
  9 10  1  0
 10 11  2  0
 10 12  1  0
 12 13  1  0
 13 14  1  0
 14 15  1  0
 14 16  2  0
 13 17  2  0
 17 18  1  0
 18 19  2  0
 19 20  1  0
 20 21  2  0
 21 22  1  0
 22 23  2  0
 23 24  1  0
 24 25  2  0
 25 26  1  0
 26 27  2  0
 26 28  1  0
 28 29  1  0
 29 30  2  0
 29 31  1  0
 31 32  1  0
 31 33  1  0
 25 34  1  0
 21 35  1  0
 35 36  2  0
 36 12  1  0
 36 18  1  0
 34 22  1  0
  1 37  1  0
  1 38  1  0
  1 39  1  0
  2 40  1  0
  2 41  1  0
  8 42  1  0
  8 43  1  0
 15 44  1  0
 15 45  1  0
 17 46  1  0
 19 47  1  0
 20 48  1  0
 23 49  1  0
 24 50  1  0
 28 51  1  0
 28 52  1  0
 31 53  1  1
 32 54  1  0
 32 55  1  0
 32 56  1  0
 33 57  1  0
 33 58  1  0
 35 59  1  0
M  END
>  <UniqueID>  (39) 
39

>  <SMILES>  (39) 
CCOC(=O)C(=O)COC(=O)n1c(C(N)=O)cc2ccc(-c3ccc(C(=O)CC(=O)[C@H](C)N)s3)cc21

>  <Energy>  (39) 
114.04450285070521

>  <Genealogy>  (39) 
CCOC(=O)C(=O)COC(=O)n1c(C(N)=O)cc2ccc(-c3ccc(C(=O)CC(=O)[C@H](C)N)s3)cc21 (3D coordinates assigned)
CCOC(=O)C(=O)COC(=O)n1c(C(N)=O)cc2ccc(-c3ccc(C(=O)CC(=O)[C@H](C)N)s3)cc21 (optimized conformer: 114.04450285070521 kcal/mol)

>  <smiles>  (39) 
CCOC(=O)C(=O)COC(=O)n1c(C(N)=O)cc2ccc(-c3ccc(C(=O)CC(=O)[C@H](C)N)s3)cc21

>  <score_type>  (39) 
oracle

>  <origin>  (39) 
adg

>  <m_score__min__energy>  (39) 
-8.5800000000000001

>  <m_primary>  (39) 
energy

$$$$
40:0
     RDKit          3D

 39 41  0  0  0  0  0  0  0  0999 V2000
   -9.4830   21.9210  -31.2690 C   0  0  0  0  0  0  0  0  0  0  0  0
   -8.4560   20.9790  -31.8250 C   0  0  0  0  0  0  0  0  0  0  0  0
   -8.8040   19.6350  -32.1060 C   0  0  0  0  0  0  0  0  0  0  0  0
   -7.8450   18.7370  -32.6050 C   0  0  0  0  0  0  0  0  0  0  0  0
   -6.5470   19.2060  -32.7910 C   0  0  0  0  0  0  0  0  0  0  0  0
   -5.4340   18.5630  -33.2820 C   0  0  0  0  0  0  0  0  0  0  0  0
   -4.4150   19.5170  -33.2600 C   0  0  0  0  0  0  0  0  0  0  0  0
   -3.0120   19.2540  -33.6560 C   0  0  0  0  0  0  0  0  0  0  0  0
   -2.2600   20.2270  -34.3870 N   0  0  0  0  0  0  0  0  0  0  0  0
   -2.4690   18.1550  -33.3670 O   0  0  0  0  0  0  0  0  0  0  0  0
   -4.8820   20.6970  -32.7650 N   0  0  0  0  0  0  0  0  0  0  0  0
   -4.1670   21.9370  -32.6420 C   0  0  0  0  0  0  0  0  0  0  0  0
   -3.9410   22.6210  -33.6740 O   0  0  0  0  0  0  0  0  0  0  0  0
   -3.6770   22.3860  -31.3200 C   0  0  0  0  0  0  0  0  0  0  0  0
   -3.4230   21.5200  -30.4420 O   0  0  0  0  0  0  0  0  0  0  0  0
   -3.4850   23.7680  -30.9890 N   0  0  0  0  0  0  0  0  0  0  0  0
   -4.3120   24.5560  -30.0770 C   0  0  1  0  0  0  0  0  0  0  0  0
   -5.3000   25.4570  -30.8150 C   0  0  0  0  0  0  0  0  0  0  0  0
   -6.4580   24.6330  -30.2590 C   0  0  2  0  0  0  0  0  0  0  0  0
   -7.2480   25.3700  -29.3660 O   0  0  0  0  0  0  0  0  0  0  0  0
   -5.4710   23.7340  -29.5230 C   0  0  0  0  0  0  0  0  0  0  0  0
   -6.1890   20.4940  -32.4910 C   0  0  0  0  0  0  0  0  0  0  0  0
   -7.1270   21.4150  -32.0120 C   0  0  0  0  0  0  0  0  0  0  0  0
   -9.4508   21.8914  -30.1699 H   0  0  0  0  0  0  0  0  0  0  0  0
   -9.2685   22.9430  -31.6148 H   0  0  0  0  0  0  0  0  0  0  0  0
  -10.4827   21.6192  -31.6148 H   0  0  0  0  0  0  0  0  0  0  0  0
   -9.8343   19.2910  -31.9321 H   0  0  0  0  0  0  0  0  0  0  0  0
   -8.1113   17.6962  -32.8413 H   0  0  0  0  0  0  0  0  0  0  0  0
   -5.3623   17.5187  -33.6202 H   0  0  0  0  0  0  0  0  0  0  0  0
   -1.2850   20.0120  -34.6910 H   0  0  0  0  0  0  0  0  0  0  0  0
   -2.6460   21.1740  -34.5910 H   0  0  0  0  0  0  0  0  0  0  0  0
   -3.5563   24.9946  -29.4087 H   0  0  0  0  0  0  0  0  0  0  0  0
   -5.2911   26.5044  -30.4792 H   0  0  0  0  0  0  0  0  0  0  0  0
   -5.2025   25.6239  -31.8979 H   0  0  0  0  0  0  0  0  0  0  0  0
   -7.2129   24.2065  -30.9359 H   0  0  0  0  0  0  0  0  0  0  0  0
   -6.8520   25.2250  -28.4690 H   0  0  0  0  0  0  0  0  0  0  0  0
   -5.5628   23.7682  -28.4274 H   0  0  0  0  0  0  0  0  0  0  0  0
   -5.4983   22.6434  -29.6640 H   0  0  0  0  0  0  0  0  0  0  0  0
   -6.8361   22.4517  -31.7871 H   0  0  0  0  0  0  0  0  0  0  0  0
  1  2  1  0
  2  3  2  0
  3  4  1  0
  4  5  2  0
  5  6  1  0
  6  7  2  0
  7  8  1  0
  8  9  1  0
  8 10  2  0
  7 11  1  0
 11 12  1  0
 12 13  2  0
 12 14  1  0
 14 15  2  0
 14 16  1  0
 16 17  1  0
 17 18  1  0
 18 19  1  0
 19 20  1  0
 19 21  1  0
 11 22  1  0
 22 23  2  0
 23  2  1  0
 22  5  1  0
 21 17  1  0
  1 24  1  0
  1 25  1  0
  1 26  1  0
  3 27  1  0
  4 28  1  0
  6 29  1  0
  9 30  1  0
  9 31  1  0
 17 32  1  1
 18 33  1  0
 18 34  1  0
 19 35  1  6
 20 36  1  0
 21 37  1  0
 21 38  1  0
 23 39  1  0
M  CHG  1  16  -1
M  END
>  <UniqueID>  (40) 
40

>  <SMILES>  (40) 
Cc1ccc2cc(C(N)=O)n(C(=O)C(=O)[N-]C3CC(O)C3)c2c1

>  <Energy>  (40) 
138.64984595700778

>  <Genealogy>  (40) 
Cc1ccc2cc(C(N)=O)n(C(=O)C(=O)[N-]C3CC(O)C3)c2c1 (protonated)
Cc1ccc2cc(C(N)=O)n(C(=O)C(=O)[N-]C3CC(O)C3)c2c1 (3D coordinates assigned)
Cc1ccc2cc(C(N)=O)n(C(=O)C(=O)[N-]C3CC(O)C3)c2c1 (nonaromatic ring conformer: 138.64984595700778 kcal/mol)

>  <smiles>  (40) 
Cc1ccc2cc(C(N)=O)n(C(=O)C(=O)NC3CC(O)C3)c2c1

>  <score_type>  (40) 
oracle

>  <origin>  (40) 
adg

>  <m_score__min__energy>  (40) 
-9.4100000000000001

>  <m_primary>  (40) 
energy

$$$$
41:0
     RDKit          3D

 44 45  0  0  0  0  0  0  0  0999 V2000
   -3.0840   24.2540  -27.7210 C   0  0  0  0  0  0  0  0  0  0  0  0
   -1.8120   24.4180  -28.4420 N   0  0  0  0  0  0  0  0  0  0  0  0
   -1.1080   25.6360  -28.0110 C   0  0  0  0  0  0  0  0  0  0  0  0
   -0.9580   23.2110  -28.3920 C   0  0  0  0  0  0  0  0  0  0  0  0
   -1.3030   22.1420  -29.4490 C   0  0  0  0  0  0  0  0  0  0  0  0
   -2.3330   22.6450  -30.3560 N   0  0  0  0  0  0  0  0  0  0  0  0
   -3.1560   21.7710  -31.1460 C   0  0  0  0  0  0  0  0  0  0  0  0
   -3.0230   20.5210  -31.0500 O   0  0  0  0  0  0  0  0  0  0  0  0
   -4.1560   22.3230  -32.0770 C   0  0  0  0  0  0  0  0  0  0  0  0
   -3.8710   22.4640  -33.2960 O   0  0  0  0  0  0  0  0  0  0  0  0
   -5.4610   22.6990  -31.6100 N   0  0  0  0  0  0  0  0  0  0  0  0
   -5.8200   23.8520  -30.9790 C   0  0  0  0  0  0  0  0  0  0  0  0
   -4.9470   25.0240  -30.7540 C   0  0  0  0  0  0  0  0  0  0  0  0
   -3.5290   24.9110  -30.8360 N   0  0  0  0  0  0  0  0  0  0  0  0
   -5.4630   26.1480  -30.5130 O   0  0  0  0  0  0  0  0  0  0  0  0
   -7.1630   23.8050  -30.6070 C   0  0  0  0  0  0  0  0  0  0  0  0
   -7.6170   22.5760  -31.0300 C   0  0  0  0  0  0  0  0  0  0  0  0
   -8.8730   21.9890  -30.8990 C   0  0  0  0  0  0  0  0  0  0  0  0
   -9.0460   20.6880  -31.4000 C   0  0  0  0  0  0  0  0  0  0  0  0
   -7.9710   20.0020  -32.0200 C   0  0  0  0  0  0  0  0  0  0  0  0
   -8.1570   18.5950  -32.5120 C   0  0  0  0  0  0  0  0  0  0  0  0
   -6.8840   17.8260  -32.3620 C   0  0  0  0  0  0  0  0  0  0  0  0
   -6.3800   17.6490  -31.2220 O   0  0  0  0  0  0  0  0  0  0  0  0
   -6.2790   17.2600  -33.4770 O   0  0  0  0  0  0  0  0  0  0  0  0
   -6.7070   20.6260  -32.1220 C   0  0  0  0  0  0  0  0  0  0  0  0
   -6.5690   21.9280  -31.6300 C   0  0  0  0  0  0  0  0  0  0  0  0
   -2.8969   24.2781  -26.6373 H   0  0  0  0  0  0  0  0  0  0  0  0
   -3.7679   25.0714  -27.9933 H   0  0  0  0  0  0  0  0  0  0  0  0
   -3.5382   23.2899  -27.9933 H   0  0  0  0  0  0  0  0  0  0  0  0
   -1.0846   25.6765  -26.9120 H   0  0  0  0  0  0  0  0  0  0  0  0
   -0.0790   25.6216  -28.3994 H   0  0  0  0  0  0  0  0  0  0  0  0
   -1.6341   26.5205  -28.3994 H   0  0  0  0  0  0  0  0  0  0  0  0
    0.0861   23.5217  -28.5450 H   0  0  0  0  0  0  0  0  0  0  0  0
   -1.1277   22.7469  -27.4092 H   0  0  0  0  0  0  0  0  0  0  0  0
   -0.3992   21.8960  -30.0258 H   0  0  0  0  0  0  0  0  0  0  0  0
   -1.6798   21.2422  -28.9407 H   0  0  0  0  0  0  0  0  0  0  0  0
   -2.5090   23.6740  -30.3790 H   0  0  0  0  0  0  0  0  0  0  0  0
   -2.9160   25.2990  -30.0840 H   0  0  0  0  0  0  0  0  0  0  0  0
   -7.7380   24.5847  -30.0859 H   0  0  0  0  0  0  0  0  0  0  0  0
   -9.7034   22.5270  -30.4184 H   0  0  0  0  0  0  0  0  0  0  0  0
  -10.0259   20.1962  -31.3104 H   0  0  0  0  0  0  0  0  0  0  0  0
   -8.9487   18.1061  -31.9254 H   0  0  0  0  0  0  0  0  0  0  0  0
   -8.4397   18.6196  -33.5748 H   0  0  0  0  0  0  0  0  0  0  0  0
   -5.8538   20.1012  -32.5766 H   0  0  0  0  0  0  0  0  0  0  0  0
  1  2  1  0
  2  3  1  0
  2  4  1  0
  4  5  1  0
  5  6  1  0
  6  7  1  0
  7  8  2  0
  7  9  1  0
  9 10  2  0
  9 11  1  0
 11 12  1  0
 12 13  1  0
 13 14  1  0
 13 15  2  0
 12 16  2  0
 16 17  1  0
 17 18  2  0
 18 19  1  0
 19 20  2  0
 20 21  1  0
 21 22  1  0
 22 23  2  0
 22 24  1  0
 20 25  1  0
 25 26  2  0
 26 11  1  0
 26 17  1  0
  1 27  1  0
  1 28  1  0
  1 29  1  0
  3 30  1  0
  3 31  1  0
  3 32  1  0
  4 33  1  0
  4 34  1  0
  5 35  1  0
  5 36  1  0
  6 37  1  0
 14 38  1  0
 16 39  1  0
 18 40  1  0
 19 41  1  0
 21 42  1  0
 21 43  1  0
 25 44  1  0
M  CHG  2  14  -1  24  -1
M  END
>  <UniqueID>  (41) 
41

>  <SMILES>  (41) 
CN(C)CCNC(=O)C(=O)n1c(C([NH-])=O)cc2ccc(CC(=O)[O-])cc21

>  <Energy>  (41) 
80.69175461837409

>  <Genealogy>  (41) 
CN(C)CCNC(=O)C(=O)n1c(C([NH-])=O)cc2ccc(CC(=O)[O-])cc21 (protonated)
CN(C)CCNC(=O)C(=O)n1c(C([NH-])=O)cc2ccc(CC(=O)[O-])cc21 (3D coordinates assigned)
CN(C)CCNC(=O)C(=O)n1c(C([NH-])=O)cc2ccc(CC(=O)[O-])cc21 (optimized conformer: 80.69175461837409 kcal/mol)

>  <smiles>  (41) 
CN(C)CCNC(=O)C(=O)n1c(C(N)=O)cc2ccc(CC(=O)O)cc21

>  <score_type>  (41) 
oracle

>  <origin>  (41) 
adg

>  <m_score__min__energy>  (41) 
-9.8699999999999992

>  <m_primary>  (41) 
energy

$$$$
42:0
     RDKit          3D

 37 38  0  0  0  0  0  0  0  0999 V2000
   -1.5560   25.2330  -27.9680 C   0  0  0  0  0  0  0  0  0  0  0  0
   -2.5400   24.1590  -28.1450 N   0  0  0  0  0  0  0  0  0  0  0  0
   -3.7960   24.1810  -27.3870 C   0  0  0  0  0  0  0  0  0  0  0  0
   -2.2480   23.0880  -29.0700 C   0  0  0  0  0  0  0  0  0  0  0  0
   -1.0930   22.9930  -29.5690 O   0  0  0  0  0  0  0  0  0  0  0  0
   -3.3010   22.1130  -29.5200 C   0  0  0  0  0  0  0  0  0  0  0  0
   -3.7750   22.4620  -30.9000 C   0  0  0  0  0  0  0  0  0  0  0  0
   -2.9610   22.4830  -31.8600 O   0  0  0  0  0  0  0  0  0  0  0  0
   -5.1620   22.7310  -31.1410 N   0  0  0  0  0  0  0  0  0  0  0  0
   -5.8530   23.8710  -30.8670 C   0  0  0  0  0  0  0  0  0  0  0  0
   -5.2670   25.1430  -30.3970 C   0  0  0  0  0  0  0  0  0  0  0  0
   -3.8660   25.3840  -30.4960 N   0  0  0  0  0  0  0  0  0  0  0  0
   -6.0160   26.0400  -29.9270 O   0  0  0  0  0  0  0  0  0  0  0  0
   -7.2120   23.6860  -31.1240 C   0  0  0  0  0  0  0  0  0  0  0  0
   -7.3270   22.3860  -31.5650 C   0  0  0  0  0  0  0  0  0  0  0  0
   -8.4520   21.6610  -31.9470 C   0  0  0  0  0  0  0  0  0  0  0  0
   -8.2720   20.3210  -32.3300 C   0  0  0  0  0  0  0  0  0  0  0  0
   -6.9840   19.7240  -32.3060 C   0  0  0  0  0  0  0  0  0  0  0  0
   -6.7990   18.2960  -32.7510 C   0  0  0  0  0  0  0  0  0  0  0  0
   -5.7960   17.6820  -32.0200 F   0  0  0  0  0  0  0  0  0  0  0  0
   -7.9670   17.5750  -32.5740 F   0  0  0  0  0  0  0  0  0  0  0  0
   -6.4560   18.2780  -34.0900 F   0  0  0  0  0  0  0  0  0  0  0  0
   -5.8640   20.5040  -31.9380 C   0  0  0  0  0  0  0  0  0  0  0  0
   -6.0750   21.8340  -31.5660 C   0  0  0  0  0  0  0  0  0  0  0  0
   -1.3946   25.4091  -26.8943 H   0  0  0  0  0  0  0  0  0  0  0  0
   -0.6056   24.9408  -28.4385 H   0  0  0  0  0  0  0  0  0  0  0  0
   -1.9301   26.1542  -28.4385 H   0  0  0  0  0  0  0  0  0  0  0  0
   -3.5742   24.1771  -26.3096 H   0  0  0  0  0  0  0  0  0  0  0  0
   -4.3620   25.0892  -27.6415 H   0  0  0  0  0  0  0  0  0  0  0  0
   -4.3935   23.2932  -27.6415 H   0  0  0  0  0  0  0  0  0  0  0  0
   -2.8769   21.0981  -29.5274 H   0  0  0  0  0  0  0  0  0  0  0  0
   -4.1529   22.1592  -28.8257 H   0  0  0  0  0  0  0  0  0  0  0  0
   -3.4830   26.0320  -31.2210 H   0  0  0  0  0  0  0  0  0  0  0  0
   -8.0201   24.4221  -31.0006 H   0  0  0  0  0  0  0  0  0  0  0  0
   -9.4506   22.1224  -31.9490 H   0  0  0  0  0  0  0  0  0  0  0  0
   -9.1399   19.7271  -32.6525 H   0  0  0  0  0  0  0  0  0  0  0  0
   -4.8514   20.0744  -31.9444 H   0  0  0  0  0  0  0  0  0  0  0  0
  1  2  1  0
  2  3  1  0
  2  4  1  0
  4  5  2  0
  4  6  1  0
  6  7  1  0
  7  8  2  0
  7  9  1  0
  9 10  1  0
 10 11  1  0
 11 12  1  0
 11 13  2  0
 10 14  2  0
 14 15  1  0
 15 16  2  0
 16 17  1  0
 17 18  2  0
 18 19  1  0
 19 20  1  0
 19 21  1  0
 19 22  1  0
 18 23  1  0
 23 24  2  0
 24  9  1  0
 24 15  1  0
  1 25  1  0
  1 26  1  0
  1 27  1  0
  3 28  1  0
  3 29  1  0
  3 30  1  0
  6 31  1  0
  6 32  1  0
 12 33  1  0
 14 34  1  0
 16 35  1  0
 17 36  1  0
 23 37  1  0
M  CHG  1  12  -1
M  END
>  <UniqueID>  (42) 
42

>  <SMILES>  (42) 
CN(C)C(=O)CC(=O)n1c(C([NH-])=O)cc2ccc(C(F)(F)F)cc21

>  <Energy>  (42) 
72.25058786421391

>  <Genealogy>  (42) 
CN(C)C(=O)CC(=O)n1c(C([NH-])=O)cc2ccc(C(F)(F)F)cc21 (protonated)
CN(C)C(=O)CC(=O)n1c(C([NH-])=O)cc2ccc(C(F)(F)F)cc21 (3D coordinates assigned)
CN(C)C(=O)CC(=O)n1c(C([NH-])=O)cc2ccc(C(F)(F)F)cc21 (optimized conformer: 72.25058786421391 kcal/mol)

>  <smiles>  (42) 
CN(C)C(=O)CC(=O)n1c(C(N)=O)cc2ccc(C(F)(F)F)cc21

>  <score_type>  (42) 
oracle

>  <origin>  (42) 
adg

>  <m_score__min__energy>  (42) 
-10.25

>  <m_primary>  (42) 
energy

$$$$
43:0
     RDKit          3D

 59 60  0  0  0  0  0  0  0  0999 V2000
   -3.1790   24.4880  -27.3400 C   0  0  0  0  0  0  0  0  0  0  0  0
   -1.8930   23.8260  -27.5710 N   0  0  0  0  0  0  0  0  0  0  0  0
   -1.5950   22.5380  -26.9270 C   0  0  0  0  0  0  0  0  0  0  0  0
   -1.9960   21.3710  -27.8560 C   0  0  0  0  0  0  0  0  0  0  0  0
   -1.3690   21.4070  -29.2030 N   0  0  1  0  0  0  0  0  0  0  0  0
    0.0490   21.0130  -29.2030 C   0  0  0  0  0  0  0  0  0  0  0  0
   -2.0950   20.6520  -30.1990 C   0  0  0  0  0  0  0  0  0  0  0  0
   -1.5550   19.6790  -30.7970 O   0  0  0  0  0  0  0  0  0  0  0  0
   -3.3940   21.0590  -30.5380 O   0  0  0  0  0  0  0  0  0  0  0  0
   -3.7740   22.3720  -30.8460 C   0  0  0  0  0  0  0  0  0  0  0  0
   -2.9070   23.2740  -30.9960 O   0  0  0  0  0  0  0  0  0  0  0  0
   -5.1670   22.6830  -31.0190 N   0  0  0  0  0  0  0  0  0  0  0  0
   -5.7840   23.8900  -30.8610 C   0  0  0  0  0  0  0  0  0  0  0  0
   -5.1590   25.1270  -30.3480 C   0  0  0  0  0  0  0  0  0  0  0  0
   -3.9160   25.5670  -30.8870 N   0  0  0  0  0  0  0  0  0  0  0  0
   -5.7310   25.8220  -29.4670 O   0  0  0  0  0  0  0  0  0  0  0  0
   -7.1380   23.7910  -31.1730 C   0  0  0  0  0  0  0  0  0  0  0  0
   -7.3380   22.4750  -31.5170 C   0  0  0  0  0  0  0  0  0  0  0  0
   -8.5000   21.8250  -31.9220 C   0  0  0  0  0  0  0  0  0  0  0  0
   -8.4140   20.4600  -32.2400 C   0  0  0  0  0  0  0  0  0  0  0  0
   -7.1790   19.7680  -32.1430 C   0  0  0  0  0  0  0  0  0  0  0  0
   -7.1110   18.3150  -32.5380 C   0  0  0  0  0  0  0  0  0  0  0  0
   -6.8270   18.2040  -33.8870 F   0  0  0  0  0  0  0  0  0  0  0  0
   -6.1120   17.6920  -31.8130 F   0  0  0  0  0  0  0  0  0  0  0  0
   -8.3120   17.6710  -32.2920 F   0  0  0  0  0  0  0  0  0  0  0  0
   -6.0160   20.4710  -31.7490 C   0  0  0  0  0  0  0  0  0  0  0  0
   -6.1350   21.8270  -31.4180 C   0  0  0  0  0  0  0  0  0  0  0  0
   -0.9250   24.4540  -28.4320 C   0  0  0  0  0  0  0  0  0  0  0  0
   -1.1510   24.5490  -29.6690 O   0  0  0  0  0  0  0  0  0  0  0  0
    0.2640   24.9600  -27.8800 O   0  0  0  0  0  0  0  0  0  0  0  0
    0.3720   25.8530  -26.7620 C   0  0  0  0  0  0  0  0  0  0  0  0
    0.0940   25.1080  -25.4430 C   0  0  0  0  0  0  0  0  0  0  0  0
   -0.6930   26.9440  -26.9490 C   0  0  0  0  0  0  0  0  0  0  0  0
    1.7620   26.5170  -26.7280 C   0  0  0  0  0  0  0  0  0  0  0  0
   -3.3555   24.5789  -26.2581 H   0  0  0  0  0  0  0  0  0  0  0  0
   -3.1626   25.4897  -27.7942 H   0  0  0  0  0  0  0  0  0  0  0  0
   -3.9847   23.8926  -27.7942 H   0  0  0  0  0  0  0  0  0  0  0  0
   -0.5174   22.4790  -26.7141 H   0  0  0  0  0  0  0  0  0  0  0  0
   -2.1677   22.4642  -25.9907 H   0  0  0  0  0  0  0  0  0  0  0  0
   -1.7058   20.4289  -27.3678 H   0  0  0  0  0  0  0  0  0  0  0  0
   -3.0808   21.4590  -28.0154 H   0  0  0  0  0  0  0  0  0  0  0  0
   -1.4030   22.4070  -29.5140 H   0  0  0  0  0  0  0  0  0  0  0  0
    0.4023   20.9148  -28.1659 H   0  0  0  0  0  0  0  0  0  0  0  0
    0.1618   20.0495  -29.7215 H   0  0  0  0  0  0  0  0  0  0  0  0
    0.6427   21.7802  -29.7215 H   0  0  0  0  0  0  0  0  0  0  0  0
   -3.0120   25.2990  -30.4360 H   0  0  0  0  0  0  0  0  0  0  0  0
   -7.8881   24.5952  -31.1492 H   0  0  0  0  0  0  0  0  0  0  0  0
   -9.4564   22.3640  -31.9909 H   0  0  0  0  0  0  0  0  0  0  0  0
   -9.3148   19.9207  -32.5682 H   0  0  0  0  0  0  0  0  0  0  0  0
   -5.0407   19.9643  -31.7036 H   0  0  0  0  0  0  0  0  0  0  0  0
    0.3383   25.7628  -24.5935 H   0  0  0  0  0  0  0  0  0  0  0  0
   -0.9689   24.8286  -25.3967 H   0  0  0  0  0  0  0  0  0  0  0  0
    0.7140   24.2006  -25.3967 H   0  0  0  0  0  0  0  0  0  0  0  0
   -1.0354   27.2948  -25.9643 H   0  0  0  0  0  0  0  0  0  0  0  0
   -0.2604   27.7866  -27.5083 H   0  0  0  0  0  0  0  0  0  0  0  0
   -1.5458   26.5319  -27.5083 H   0  0  0  0  0  0  0  0  0  0  0  0
    2.0721   26.6651  -25.6831 H   0  0  0  0  0  0  0  0  0  0  0  0
    2.4902   25.8695  -27.2383 H   0  0  0  0  0  0  0  0  0  0  0  0
    1.7160   27.4904  -27.2383 H   0  0  0  0  0  0  0  0  0  0  0  0
  1  2  1  0
  2  3  1  0
  3  4  1  0
  4  5  1  0
  5  6  1  0
  5  7  1  0
  7  8  2  0
  7  9  1  0
  9 10  1  0
 10 11  2  0
 10 12  1  0
 12 13  1  0
 13 14  1  0
 14 15  1  0
 14 16  2  0
 13 17  2  0
 17 18  1  0
 18 19  2  0
 19 20  1  0
 20 21  2  0
 21 22  1  0
 22 23  1  0
 22 24  1  0
 22 25  1  0
 21 26  1  0
 26 27  2  0
  2 28  1  0
 28 29  2  0
 28 30  1  0
 30 31  1  0
 31 32  1  0
 31 33  1  0
 31 34  1  0
 27 12  1  0
 27 18  1  0
  1 35  1  0
  1 36  1  0
  1 37  1  0
  3 38  1  0
  3 39  1  0
  4 40  1  0
  4 41  1  0
  5 42  1  6
  6 43  1  0
  6 44  1  0
  6 45  1  0
 15 46  1  0
 17 47  1  0
 19 48  1  0
 20 49  1  0
 26 50  1  0
 32 51  1  0
 32 52  1  0
 32 53  1  0
 33 54  1  0
 33 55  1  0
 33 56  1  0
 34 57  1  0
 34 58  1  0
 34 59  1  0
M  CHG  2   5   1  15  -1
M  END
>  <UniqueID>  (43) 
43

>  <SMILES>  (43) 
CN(CC[N@@H+](C)C(=O)OC(=O)n1c(C([NH-])=O)cc2ccc(C(F)(F)F)cc21)C(=O)OC(C)(C)C

>  <Energy>  (43) 
96.01982819147129

>  <Genealogy>  (43) 
CN(CC[NH+](C)C(=O)OC(=O)n1c(C([NH-])=O)cc2ccc(C(F)(F)F)cc21)C(=O)OC(C)(C)C (protonated)
CN(CC[N@@H+](C)C(=O)OC(=O)n1c(C([NH-])=O)cc2ccc(C(F)(F)F)cc21)C(=O)OC(C)(C)C (chirality)
CN(CC[N@@H+](C)C(=O)OC(=O)n1c(C([NH-])=O)cc2ccc(C(F)(F)F)cc21)C(=O)OC(C)(C)C (3D coordinates assigned)
CN(CC[N@@H+](C)C(=O)OC(=O)n1c(C([NH-])=O)cc2ccc(C(F)(F)F)cc21)C(=O)OC(C)(C)C (optimized conformer: 96.01982819147129 kcal/mol)

>  <smiles>  (43) 
CN(CCN(C)C(=O)OC(C)(C)C)C(=O)OC(=O)n1c(C(N)=O)cc2ccc(C(F)(F)F)cc21

>  <score_type>  (43) 
oracle

>  <origin>  (43) 
adg

>  <m_score__min__energy>  (43) 
-10.140000000000001

>  <m_primary>  (43) 
energy

$$$$
44:0
     RDKit          3D

 42 43  0  0  0  0  0  0  0  0999 V2000
   -3.8060   16.5160  -35.3270 C   0  0  0  0  0  0  0  0  0  0  0  0
   -4.5120   16.7280  -34.0590 N   0  0  0  0  0  0  0  0  0  0  0  0
   -4.0380   16.0680  -32.8380 C   0  0  0  0  0  0  0  0  0  0  0  0
   -5.6680   17.5980  -34.0440 C   0  0  0  0  0  0  0  0  0  0  0  0
   -5.9360   18.2930  -35.0630 O   0  0  0  0  0  0  0  0  0  0  0  0
   -6.6080   17.6780  -32.8650 C   0  0  0  0  0  0  0  0  0  0  0  0
   -7.5700   18.8680  -32.9890 C   0  0  0  0  0  0  0  0  0  0  0  0
   -6.9240   20.1900  -32.5510 C   0  0  0  0  0  0  0  0  0  0  0  0
   -5.6390   20.3930  -33.2250 N   0  0  0  0  0  0  0  0  0  0  0  0
   -4.4450   20.8010  -32.5330 C   0  0  0  0  0  0  0  0  0  0  0  0
   -3.2590   20.0190  -32.5700 C   0  0  0  0  0  0  0  0  0  0  0  0
   -2.1020   20.4390  -31.8940 C   0  0  0  0  0  0  0  0  0  0  0  0
   -2.1560   21.6340  -31.1840 C   0  0  0  0  0  0  0  0  0  0  0  0
   -1.1800   22.2770  -30.4600 C   0  0  0  0  0  0  0  0  0  0  0  0
   -1.7850   23.4320  -29.9690 C   0  0  0  0  0  0  0  0  0  0  0  0
   -1.1090   24.3770  -29.0550 C   0  0  0  0  0  0  0  0  0  0  0  0
   -1.5690   25.7240  -28.9620 N   0  0  0  0  0  0  0  0  0  0  0  0
   -0.1080   24.0180  -28.3800 O   0  0  0  0  0  0  0  0  0  0  0  0
   -3.0830   23.5030  -30.3800 N   0  0  0  0  0  0  0  0  0  0  0  0
   -4.0240   24.5610  -30.1370 C   0  0  0  0  0  0  0  0  0  0  0  0
   -3.8990   25.6700  -30.7210 O   0  0  0  0  0  0  0  0  0  0  0  0
   -5.0650   24.3810  -29.2340 O   0  0  0  0  0  0  0  0  0  0  0  0
   -3.2950   22.3930  -31.1210 C   0  0  0  0  0  0  0  0  0  0  0  0
   -4.4560   22.0100  -31.8010 C   0  0  0  0  0  0  0  0  0  0  0  0
   -2.7708   16.2051  -35.1228 H   0  0  0  0  0  0  0  0  0  0  0  0
   -4.3172   15.7317  -35.9046 H   0  0  0  0  0  0  0  0  0  0  0  0
   -3.8006   17.4521  -35.9046 H   0  0  0  0  0  0  0  0  0  0  0  0
   -4.4231   16.6043  -31.9582 H   0  0  0  0  0  0  0  0  0  0  0  0
   -4.3972   15.0285  -32.8200 H   0  0  0  0  0  0  0  0  0  0  0  0
   -2.9382   16.0763  -32.8200 H   0  0  0  0  0  0  0  0  0  0  0  0
   -7.1944   16.7489  -32.8123 H   0  0  0  0  0  0  0  0  0  0  0  0
   -6.0066   17.8151  -31.9542 H   0  0  0  0  0  0  0  0  0  0  0  0
   -7.8854   18.9596  -34.0388 H   0  0  0  0  0  0  0  0  0  0  0  0
   -8.4270   18.6774  -32.3262 H   0  0  0  0  0  0  0  0  0  0  0  0
   -7.5984   21.0214  -32.8037 H   0  0  0  0  0  0  0  0  0  0  0  0
   -6.7494   20.1530  -31.4656 H   0  0  0  0  0  0  0  0  0  0  0  0
   -5.5870   20.2560  -34.2610 H   0  0  0  0  0  0  0  0  0  0  0  0
   -3.2471   19.0747  -33.1341 H   0  0  0  0  0  0  0  0  0  0  0  0
   -1.1797   19.8403  -31.9250 H   0  0  0  0  0  0  0  0  0  0  0  0
   -0.1419   21.9492  -30.3020 H   0  0  0  0  0  0  0  0  0  0  0  0
   -2.5890   25.9440  -28.9690 H   0  0  0  0  0  0  0  0  0  0  0  0
   -5.3591   22.6370  -31.7667 H   0  0  0  0  0  0  0  0  0  0  0  0
  1  2  1  0
  2  3  1  0
  2  4  1  0
  4  5  2  0
  4  6  1  0
  6  7  1  0
  7  8  1  0
  8  9  1  0
  9 10  1  0
 10 11  2  0
 11 12  1  0
 12 13  2  0
 13 14  1  0
 14 15  2  0
 15 16  1  0
 16 17  1  0
 16 18  2  0
 15 19  1  0
 19 20  1  0
 20 21  2  0
 20 22  1  0
 19 23  1  0
 23 24  2  0
 24 10  1  0
 23 13  1  0
  1 25  1  0
  1 26  1  0
  1 27  1  0
  3 28  1  0
  3 29  1  0
  3 30  1  0
  6 31  1  0
  6 32  1  0
  7 33  1  0
  7 34  1  0
  8 35  1  0
  8 36  1  0
  9 37  1  0
 11 38  1  0
 12 39  1  0
 14 40  1  0
 17 41  1  0
 24 42  1  0
M  CHG  2  17  -1  22  -1
M  END
>  <UniqueID>  (44) 
44

>  <SMILES>  (44) 
CN(C)C(=O)CCCNc1ccc2cc(C([NH-])=O)n(C(=O)[O-])c2c1

>  <Energy>  (44) 
74.25325213487967

>  <Genealogy>  (44) 
CN(C)C(=O)CCCNc1ccc2cc(C([NH-])=O)n(C(=O)[O-])c2c1 (protonated)
CN(C)C(=O)CCCNc1ccc2cc(C([NH-])=O)n(C(=O)[O-])c2c1 (3D coordinates assigned)
CN(C)C(=O)CCCNc1ccc2cc(C([NH-])=O)n(C(=O)[O-])c2c1 (optimized conformer: 74.25325213487967 kcal/mol)

>  <smiles>  (44) 
CN(C)C(=O)CCCNc1ccc2cc(C(N)=O)n(C(=O)O)c2c1

>  <score_type>  (44) 
oracle

>  <origin>  (44) 
adg

>  <m_score__min__energy>  (44) 
-11.52

>  <m_primary>  (44) 
energy

$$$$
45:0
     RDKit          3D

 31 32  0  0  0  0  0  0  0  0999 V2000
   -3.9000   22.6140  -28.4040 C   0  0  0  0  0  0  0  0  0  0  0  0
   -3.2530   23.0840  -29.6320 N   0  0  0  0  0  0  0  0  0  0  0  0
   -2.0650   23.8930  -29.5310 C   0  0  0  0  0  0  0  0  0  0  0  0
   -0.9200   23.3680  -29.5840 O   0  0  0  0  0  0  0  0  0  0  0  0
   -2.1650   25.2680  -29.3550 O   0  0  0  0  0  0  0  0  0  0  0  0
   -3.7660   22.6710  -30.9150 C   0  0  0  0  0  0  0  0  0  0  0  0
   -2.9740   22.2990  -31.8230 O   0  0  0  0  0  0  0  0  0  0  0  0
   -5.1780   22.6770  -31.1760 N   0  0  0  0  0  0  0  0  0  0  0  0
   -6.0470   23.7200  -31.0540 C   0  0  0  0  0  0  0  0  0  0  0  0
   -5.7180   25.0570  -30.5190 C   0  0  0  0  0  0  0  0  0  0  0  0
   -4.4630   25.6600  -30.8330 N   0  0  0  0  0  0  0  0  0  0  0  0
   -6.5410   25.6850  -29.8010 O   0  0  0  0  0  0  0  0  0  0  0  0
   -7.3260   23.3370  -31.4530 C   0  0  0  0  0  0  0  0  0  0  0  0
   -7.2110   22.0180  -31.8300 C   0  0  0  0  0  0  0  0  0  0  0  0
   -8.1710   21.1390  -32.3250 C   0  0  0  0  0  0  0  0  0  0  0  0
   -7.7610   19.8370  -32.6580 C   0  0  0  0  0  0  0  0  0  0  0  0
   -6.4090   19.4400  -32.4980 C   0  0  0  0  0  0  0  0  0  0  0  0
   -5.9890   18.0470  -32.8700 C   0  0  0  0  0  0  0  0  0  0  0  0
   -6.6300   17.6610  -34.0340 F   0  0  0  0  0  0  0  0  0  0  0  0
   -6.3250   17.1720  -31.8530 F   0  0  0  0  0  0  0  0  0  0  0  0
   -5.4630   20.3620  -31.9970 C   0  0  0  0  0  0  0  0  0  0  0  0
   -5.9040   21.6450  -31.6560 C   0  0  0  0  0  0  0  0  0  0  0  0
   -3.3588   23.0072  -27.5308 H   0  0  0  0  0  0  0  0  0  0  0  0
   -4.9413   22.9677  -28.3797 H   0  0  0  0  0  0  0  0  0  0  0  0
   -3.8856   21.5144  -28.3797 H   0  0  0  0  0  0  0  0  0  0  0  0
   -3.8540   26.0530  -30.0820 H   0  0  0  0  0  0  0  0  0  0  0  0
   -8.2346   23.9570  -31.4643 H   0  0  0  0  0  0  0  0  0  0  0  0
   -9.2173   21.4541  -32.4513 H   0  0  0  0  0  0  0  0  0  0  0  0
   -8.4968   19.1178  -33.0471 H   0  0  0  0  0  0  0  0  0  0  0  0
   -4.9004   18.0294  -33.0266 H   0  0  0  0  0  0  0  0  0  0  0  0
   -4.4069   20.0783  -31.8781 H   0  0  0  0  0  0  0  0  0  0  0  0
  1  2  1  0
  2  3  1  0
  3  4  2  0
  3  5  1  0
  2  6  1  0
  6  7  2  0
  6  8  1  0
  8  9  1  0
  9 10  1  0
 10 11  1  0
 10 12  2  0
  9 13  2  0
 13 14  1  0
 14 15  2  0
 15 16  1  0
 16 17  2  0
 17 18  1  0
 18 19  1  0
 18 20  1  0
 17 21  1  0
 21 22  2  0
 22  8  1  0
 22 14  1  0
  1 23  1  0
  1 24  1  0
  1 25  1  0
 11 26  1  0
 13 27  1  0
 15 28  1  0
 16 29  1  0
 18 30  1  0
 21 31  1  0
M  CHG  2   5  -1  11  -1
M  END
>  <UniqueID>  (45) 
45

>  <SMILES>  (45) 
CN(C(=O)[O-])C(=O)n1c(C([NH-])=O)cc2ccc(C(F)F)cc21

>  <Energy>  (45) 
71.45072538905997

>  <Genealogy>  (45) 
CN(C(=O)[O-])C(=O)n1c(C([NH-])=O)cc2ccc(C(F)F)cc21 (protonated)
CN(C(=O)[O-])C(=O)n1c(C([NH-])=O)cc2ccc(C(F)F)cc21 (3D coordinates assigned)
CN(C(=O)[O-])C(=O)n1c(C([NH-])=O)cc2ccc(C(F)F)cc21 (optimized conformer: 71.45072538905997 kcal/mol)

>  <smiles>  (45) 
CN(C(=O)O)C(=O)n1c(C(N)=O)cc2ccc(C(F)F)cc21

>  <score_type>  (45) 
oracle

>  <origin>  (45) 
adg

>  <m_score__min__energy>  (45) 
-10.949999999999999

>  <m_primary>  (45) 
energy

$$$$
46:0
     RDKit          3D

 41 43  0  0  0  0  0  0  0  0999 V2000
   -6.4150   17.2860  -31.2670 C   0  0  0  0  0  0  0  0  0  0  0  0
   -6.7110   18.1710  -32.3950 N   0  0  0  0  0  0  0  0  0  0  0  0
   -6.9430   19.5610  -32.1030 C   0  0  0  0  0  0  0  0  0  0  0  0
   -8.2370   20.1170  -32.2480 C   0  0  0  0  0  0  0  0  0  0  0  0
   -8.4660   21.4760  -31.9750 C   0  0  0  0  0  0  0  0  0  0  0  0
   -7.3890   22.2430  -31.5350 C   0  0  0  0  0  0  0  0  0  0  0  0
   -7.3200   23.5850  -31.2330 C   0  0  0  0  0  0  0  0  0  0  0  0
   -5.9970   23.8100  -30.8610 C   0  0  0  0  0  0  0  0  0  0  0  0
   -5.4890   25.1220  -30.4080 C   0  0  0  0  0  0  0  0  0  0  0  0
   -4.1830   25.5770  -30.7660 N   0  0  0  0  0  0  0  0  0  0  0  0
   -6.2050   25.8350  -29.6560 O   0  0  0  0  0  0  0  0  0  0  0  0
   -5.2750   22.6570  -30.9390 N   0  0  0  0  0  0  0  0  0  0  0  0
   -3.8630   22.4770  -30.7430 C   0  0  0  0  0  0  0  0  0  0  0  0
   -3.0510   22.9710  -31.5710 O   0  0  0  0  0  0  0  0  0  0  0  0
   -3.3390   21.7490  -29.5440 C   0  0  0  0  0  0  0  0  0  0  0  0
   -3.6840   22.6900  -28.0720 Cl  0  0  0  0  0  0  0  0  0  0  0  0
   -6.1420   21.7080  -31.3500 C   0  0  0  0  0  0  0  0  0  0  0  0
   -5.8820   20.3630  -31.6280 C   0  0  0  0  0  0  0  0  0  0  0  0
   -6.6760   17.6570  -33.7830 C   0  0  1  0  0  0  0  0  0  0  0  0
   -5.7280   18.4430  -34.6520 C   0  0  0  0  0  0  0  0  0  0  0  0
   -4.4590   17.6000  -34.6640 C   0  0  0  0  0  0  0  0  0  0  0  0
   -4.7050   16.3610  -34.0330 O   0  0  0  0  0  0  0  0  0  0  0  0
   -6.0960   16.2540  -33.8600 C   0  0  0  0  0  0  0  0  0  0  0  0
   -6.5943   17.8222  -30.3234 H   0  0  0  0  0  0  0  0  0  0  0  0
   -7.0659   16.4005  -31.3150 H   0  0  0  0  0  0  0  0  0  0  0  0
   -5.3624   16.9703  -31.3150 H   0  0  0  0  0  0  0  0  0  0  0  0
   -9.0705   19.4792  -32.5774 H   0  0  0  0  0  0  0  0  0  0  0  0
   -9.4638   21.9205  -32.1045 H   0  0  0  0  0  0  0  0  0  0  0  0
   -8.1357   24.3217  -31.2764 H   0  0  0  0  0  0  0  0  0  0  0  0
   -3.8680   26.5310  -30.4840 H   0  0  0  0  0  0  0  0  0  0  0  0
   -3.4970   24.9430  -31.2290 H   0  0  0  0  0  0  0  0  0  0  0  0
   -3.8262   20.7654  -29.4717 H   0  0  0  0  0  0  0  0  0  0  0  0
   -2.2517   21.6163  -29.6449 H   0  0  0  0  0  0  0  0  0  0  0  0
   -4.8772   19.9403  -31.4806 H   0  0  0  0  0  0  0  0  0  0  0  0
   -7.7239   17.7146  -34.1125 H   0  0  0  0  0  0  0  0  0  0  0  0
   -6.1320   18.5569  -35.6688 H   0  0  0  0  0  0  0  0  0  0  0  0
   -5.5564   19.4633  -34.2784 H   0  0  0  0  0  0  0  0  0  0  0  0
   -4.1460   17.4250  -35.7039 H   0  0  0  0  0  0  0  0  0  0  0  0
   -3.6627   18.1325  -34.1233 H   0  0  0  0  0  0  0  0  0  0  0  0
   -6.5366   15.7155  -34.7120 H   0  0  0  0  0  0  0  0  0  0  0  0
   -6.3219   15.6990  -32.9375 H   0  0  0  0  0  0  0  0  0  0  0  0
  1  2  1  0
  2  3  1  0
  3  4  2  0
  4  5  1  0
  5  6  2  0
  6  7  1  0
  7  8  2  0
  8  9  1  0
  9 10  1  0
  9 11  2  0
  8 12  1  0
 12 13  1  0
 13 14  2  0
 13 15  1  0
 15 16  1  0
 12 17  1  0
 17 18  2  0
  2 19  1  0
 19 20  1  0
 20 21  1  0
 21 22  1  0
 22 23  1  0
 18  3  1  0
 23 19  1  0
 17  6  1  0
  1 24  1  0
  1 25  1  0
  1 26  1  0
  4 27  1  0
  5 28  1  0
  7 29  1  0
 10 30  1  0
 10 31  1  0
 15 32  1  0
 15 33  1  0
 18 34  1  0
 19 35  1  6
 20 36  1  0
 20 37  1  0
 21 38  1  0
 21 39  1  0
 23 40  1  0
 23 41  1  0
M  END
>  <UniqueID>  (46) 
46

>  <SMILES>  (46) 
CN(c1ccc2cc(C(N)=O)n(C(=O)CCl)c2c1)[C@H]1CCOC1

>  <Energy>  (46) 
87.0666185349581

>  <Genealogy>  (46) 
CN(c1ccc2cc(C(N)=O)n(C(=O)CCl)c2c1)[C@H]1CCOC1 (chirality)
CN(c1ccc2cc(C(N)=O)n(C(=O)CCl)c2c1)[C@H]1CCOC1 (3D coordinates assigned)
CN(c1ccc2cc(C(N)=O)n(C(=O)CCl)c2c1)[C@H]1CCOC1 (nonaromatic ring conformer: 87.0666185349581 kcal/mol)

>  <smiles>  (46) 
CN(c1ccc2cc(C(N)=O)n(C(=O)CCl)c2c1)C1CCOC1

>  <score_type>  (46) 
oracle

>  <origin>  (46) 
adg

>  <m_score__min__energy>  (46) 
-8.6199999999999992

>  <m_primary>  (46) 
energy

$$$$
47:0
     RDKit          3D

 49 52  0  0  0  0  0  0  0  0999 V2000
   -3.8670   25.2670  -30.8260 N   0  0  0  0  0  0  0  0  0  0  0  0
   -5.1600   24.9750  -30.3020 C   0  0  0  0  0  0  0  0  0  0  0  0
   -5.6130   25.6730  -29.3540 O   0  0  0  0  0  0  0  0  0  0  0  0
   -5.9480   23.8360  -30.8130 C   0  0  0  0  0  0  0  0  0  0  0  0
   -7.2900   23.9330  -31.1770 C   0  0  0  0  0  0  0  0  0  0  0  0
   -7.6710   22.6540  -31.5110 C   0  0  0  0  0  0  0  0  0  0  0  0
   -8.8960   22.1760  -31.9700 C   0  0  0  0  0  0  0  0  0  0  0  0
   -8.9950   20.8090  -32.2790 C   0  0  0  0  0  0  0  0  0  0  0  0
   -7.8780   19.9510  -32.1200 C   0  0  0  0  0  0  0  0  0  0  0  0
   -7.9780   18.5030  -32.5110 C   0  0  0  0  0  0  0  0  0  0  0  0
   -6.7810   18.1050  -33.2460 N   0  0  0  0  0  0  0  0  0  0  0  0
   -5.8360   17.2470  -32.8180 C   0  0  0  0  0  0  0  0  0  0  0  0
   -4.8280   17.2040  -33.7630 C   0  0  0  0  0  0  0  0  0  0  0  0
   -5.2270   18.0830  -34.7540 C   0  0  0  0  0  0  0  0  0  0  0  0
   -6.4110   18.6180  -34.4070 N   0  0  0  0  0  0  0  0  0  0  0  0
   -6.6480   20.4740  -31.6650 C   0  0  0  0  0  0  0  0  0  0  0  0
   -6.5830   21.8360  -31.3490 C   0  0  0  0  0  0  0  0  0  0  0  0
   -5.5150   22.5480  -30.9230 N   0  0  0  0  0  0  0  0  0  0  0  0
   -4.1800   22.0530  -30.7420 C   0  0  0  0  0  0  0  0  0  0  0  0
   -3.9700   21.0920  -29.9530 O   0  0  0  0  0  0  0  0  0  0  0  0
   -3.1270   22.6290  -31.4680 O   0  0  0  0  0  0  0  0  0  0  0  0
   -1.7830   22.6310  -31.0730 C   0  0  0  0  0  0  0  0  0  0  0  0
   -0.9110   22.0030  -31.7350 O   0  0  0  0  0  0  0  0  0  0  0  0
   -1.4240   23.3420  -29.9240 O   0  0  0  0  0  0  0  0  0  0  0  0
   -1.4800   22.7890  -28.6100 C   0  0  0  0  0  0  0  0  0  0  0  0
   -2.0200   23.8040  -27.6340 C   0  0  0  0  0  0  0  0  0  0  0  0
   -1.1310   24.6250  -26.9160 C   0  0  0  0  0  0  0  0  0  0  0  0
    0.2090   24.5220  -27.1040 F   0  0  0  0  0  0  0  0  0  0  0  0
   -1.6210   25.5580  -25.9960 C   0  0  0  0  0  0  0  0  0  0  0  0
   -2.9960   25.6780  -25.7840 C   0  0  0  0  0  0  0  0  0  0  0  0
   -3.8870   24.8660  -26.4890 C   0  0  0  0  0  0  0  0  0  0  0  0
   -3.4050   23.9290  -27.4110 C   0  0  0  0  0  0  0  0  0  0  0  0
   -4.2920   23.1490  -28.0790 F   0  0  0  0  0  0  0  0  0  0  0  0
   -3.0560   24.6380  -30.6350 H   0  0  0  0  0  0  0  0  0  0  0  0
   -7.9124   24.8398  -31.1937 H   0  0  0  0  0  0  0  0  0  0  0  0
   -9.7591   22.8478  -32.0869 H   0  0  0  0  0  0  0  0  0  0  0  0
   -9.9477   20.4010  -32.6476 H   0  0  0  0  0  0  0  0  0  0  0  0
   -8.0723   17.8859  -31.6053 H   0  0  0  0  0  0  0  0  0  0  0  0
   -8.8612   18.3599  -33.1509 H   0  0  0  0  0  0  0  0  0  0  0  0
   -5.8616   16.6775  -31.8772 H   0  0  0  0  0  0  0  0  0  0  0  0
   -3.9081   16.6015  -33.7334 H   0  0  0  0  0  0  0  0  0  0  0  0
   -4.6678   18.3074  -35.6743 H   0  0  0  0  0  0  0  0  0  0  0  0
   -6.9500   19.3300  -34.9480 H   0  0  0  0  0  0  0  0  0  0  0  0
   -5.7638   19.8279  -31.5615 H   0  0  0  0  0  0  0  0  0  0  0  0
   -2.1371   21.9068  -28.6159 H   0  0  0  0  0  0  0  0  0  0  0  0
   -0.4642   22.5022  -28.3004 H   0  0  0  0  0  0  0  0  0  0  0  0
   -0.9217   26.1984  -25.4384 H   0  0  0  0  0  0  0  0  0  0  0  0
   -3.3779   26.4133  -25.0605 H   0  0  0  0  0  0  0  0  0  0  0  0
   -4.9696   24.9627  -26.3196 H   0  0  0  0  0  0  0  0  0  0  0  0
  1  2  1  0
  2  3  2  0
  2  4  1  0
  4  5  2  0
  5  6  1  0
  6  7  2  0
  7  8  1  0
  8  9  2  0
  9 10  1  0
 10 11  1  0
 11 12  1  0
 12 13  2  0
 13 14  1  0
 14 15  2  0
  9 16  1  0
 16 17  2  0
 17 18  1  0
 18 19  1  0
 19 20  2  0
 19 21  1  0
 21 22  1  0
 22 23  2  0
 22 24  1  0
 24 25  1  0
 25 26  1  0
 26 27  2  0
 27 28  1  0
 27 29  1  0
 29 30  2  0
 30 31  1  0
 31 32  2  0
 32 33  1  0
 18  4  1  0
 32 26  1  0
 17  6  1  0
 15 11  1  0
  1 34  1  0
  5 35  1  0
  7 36  1  0
  8 37  1  0
 10 38  1  0
 10 39  1  0
 12 40  1  0
 13 41  1  0
 14 42  1  0
 15 43  1  0
 16 44  1  0
 25 45  1  0
 25 46  1  0
 29 47  1  0
 30 48  1  0
 31 49  1  0
M  CHG  2   1  -1  15   1
M  END
>  <UniqueID>  (47) 
47

>  <SMILES>  (47) 
[NH-]C(=O)c1cc2ccc(Cn3ccc[nH+]3)cc2n1C(=O)OC(=O)OCc1c(F)cccc1F

>  <Energy>  (47) 
121.1830087358278

>  <Genealogy>  (47) 
[NH-]C(=O)c1cc2ccc(Cn3ccc[nH+]3)cc2n1C(=O)OC(=O)OCc1c(F)cccc1F (protonated)
[NH-]C(=O)c1cc2ccc(Cn3ccc[nH+]3)cc2n1C(=O)OC(=O)OCc1c(F)cccc1F (3D coordinates assigned)
[NH-]C(=O)c1cc2ccc(Cn3ccc[nH+]3)cc2n1C(=O)OC(=O)OCc1c(F)cccc1F (optimized conformer: 121.1830087358278 kcal/mol)

>  <smiles>  (47) 
NC(=O)c1cc2ccc(Cn3cccn3)cc2n1C(=O)OC(=O)OCc1c(F)cccc1F

>  <score_type>  (47) 
oracle

>  <origin>  (47) 
adg

>  <m_score__min__energy>  (47) 
-11.76

>  <m_primary>  (47) 
energy

$$$$
48:0
     RDKit          3D

 52 54  0  0  0  0  0  0  0  0999 V2000
   -1.3770   25.5370  -25.1710 C   0  0  0  0  0  0  0  0  0  0  0  0
   -2.2860   25.6460  -26.4060 C   0  0  0  0  0  0  0  0  0  0  0  0
   -3.7320   25.2960  -26.0280 C   0  0  0  0  0  0  0  0  0  0  0  0
   -1.8040   24.7870  -27.6060 C   0  0  2  0  0  0  0  0  0  0  0  0
   -2.4180   25.2220  -28.8660 N   0  0  0  0  0  0  0  0  0  0  0  0
   -2.0240   23.3140  -27.3640 C   0  0  0  0  0  0  0  0  0  0  0  0
   -1.3370   22.7210  -26.4890 O   0  0  0  0  0  0  0  0  0  0  0  0
   -3.0080   22.6220  -28.0800 O   0  0  0  0  0  0  0  0  0  0  0  0
   -2.8480   21.2760  -28.5130 C   0  0  0  0  0  0  0  0  0  0  0  0
   -2.8150   21.2350  -29.9340 O   0  0  0  0  0  0  0  0  0  0  0  0
   -3.2210   22.3040  -30.7380 C   0  0  0  0  0  0  0  0  0  0  0  0
   -2.3660   23.0960  -31.2190 O   0  0  0  0  0  0  0  0  0  0  0  0
   -4.6160   22.4750  -31.0440 N   0  0  0  0  0  0  0  0  0  0  0  0
   -5.3780   23.5970  -30.8990 C   0  0  0  0  0  0  0  0  0  0  0  0
   -4.9550   24.8600  -30.2570 C   0  0  0  0  0  0  0  0  0  0  0  0
   -3.8940   25.6240  -30.8260 N   0  0  0  0  0  0  0  0  0  0  0  0
   -5.5450   25.2930  -29.2320 O   0  0  0  0  0  0  0  0  0  0  0  0
   -6.6720   23.3730  -31.3630 C   0  0  0  0  0  0  0  0  0  0  0  0
   -6.6840   22.0650  -31.7910 C   0  0  0  0  0  0  0  0  0  0  0  0
   -7.7170   21.3150  -32.3440 C   0  0  0  0  0  0  0  0  0  0  0  0
   -7.4460   19.9850  -32.7060 C   0  0  0  0  0  0  0  0  0  0  0  0
   -6.1530   19.4300  -32.5200 C   0  0  0  0  0  0  0  0  0  0  0  0
   -5.8740   18.0230  -32.9040 C   0  0  0  0  0  0  0  0  0  0  0  0
   -4.6050   17.4540  -32.6920 C   0  0  0  0  0  0  0  0  0  0  0  0
   -4.3620   16.1620  -33.0460 N   0  0  0  0  0  0  0  0  0  0  0  0
   -5.3240   15.3850  -33.6090 C   0  0  0  0  0  0  0  0  0  0  0  0
   -6.5990   15.9040  -33.8390 C   0  0  0  0  0  0  0  0  0  0  0  0
   -7.5590   15.1330  -34.4050 F   0  0  0  0  0  0  0  0  0  0  0  0
   -6.8740   17.2250  -33.4850 C   0  0  0  0  0  0  0  0  0  0  0  0
   -5.1290   20.2300  -31.9600 C   0  0  0  0  0  0  0  0  0  0  0  0
   -5.4330   21.5440  -31.5860 C   0  0  0  0  0  0  0  0  0  0  0  0
   -1.9874   25.6102  -24.2588 H   0  0  0  0  0  0  0  0  0  0  0  0
   -0.8535   24.5697  -25.1852 H   0  0  0  0  0  0  0  0  0  0  0  0
   -0.6397   26.3532  -25.1852 H   0  0  0  0  0  0  0  0  0  0  0  0
   -2.2366   26.6912  -26.7453 H   0  0  0  0  0  0  0  0  0  0  0  0
   -3.8292   25.2725  -24.9326 H   0  0  0  0  0  0  0  0  0  0  0  0
   -4.4128   26.0553  -26.4403 H   0  0  0  0  0  0  0  0  0  0  0  0
   -3.9902   24.3094  -26.4403 H   0  0  0  0  0  0  0  0  0  0  0  0
   -0.7192   24.9439  -27.6988 H   0  0  0  0  0  0  0  0  0  0  0  0
   -2.5090   24.3910  -29.4940 H   0  0  0  0  0  0  0  0  0  0  0  0
   -3.3840   25.5820  -28.6950 H   0  0  0  0  0  0  0  0  0  0  0  0
   -1.9066   20.8717  -28.1127 H   0  0  0  0  0  0  0  0  0  0  0  0
   -3.6916   20.6713  -28.1486 H   0  0  0  0  0  0  0  0  0  0  0  0
   -2.9140   25.2650  -30.8270 H   0  0  0  0  0  0  0  0  0  0  0  0
   -7.5067   24.0891  -31.3831 H   0  0  0  0  0  0  0  0  0  0  0  0
   -8.7161   21.7504  -32.4933 H   0  0  0  0  0  0  0  0  0  0  0  0
   -8.2457   19.3661  -33.1389 H   0  0  0  0  0  0  0  0  0  0  0  0
   -3.8045   18.0564  -32.2377 H   0  0  0  0  0  0  0  0  0  0  0  0
   -3.4140   15.7570  -32.8760 H   0  0  0  0  0  0  0  0  0  0  0  0
   -5.0974   14.3444  -33.8842 H   0  0  0  0  0  0  0  0  0  0  0  0
   -7.8761   17.6430  -33.6611 H   0  0  0  0  0  0  0  0  0  0  0  0
   -4.1147   19.8274  -31.8214 H   0  0  0  0  0  0  0  0  0  0  0  0
  1  2  1  0
  2  3  1  0
  2  4  1  0
  4  5  1  0
  4  6  1  0
  6  7  2  0
  6  8  1  0
  8  9  1  0
  9 10  1  0
 10 11  1  0
 11 12  2  0
 11 13  1  0
 13 14  1  0
 14 15  1  0
 15 16  1  0
 15 17  2  0
 14 18  2  0
 18 19  1  0
 19 20  2  0
 20 21  1  0
 21 22  2  0
 22 23  1  0
 23 24  2  0
 24 25  1  0
 25 26  2  0
 26 27  1  0
 27 28  1  0
 27 29  2  0
 22 30  1  0
 30 31  2  0
 31 13  1  0
 31 19  1  0
 29 23  1  0
  1 32  1  0
  1 33  1  0
  1 34  1  0
  2 35  1  0
  3 36  1  0
  3 37  1  0
  3 38  1  0
  4 39  1  6
  5 40  1  0
  5 41  1  0
  9 42  1  0
  9 43  1  0
 16 44  1  0
 18 45  1  0
 20 46  1  0
 21 47  1  0
 24 48  1  0
 25 49  1  0
 26 50  1  0
 29 51  1  0
 30 52  1  0
M  CHG  2  16  -1  25   1
M  END
>  <UniqueID>  (48) 
48

>  <SMILES>  (48) 
CC(C)[C@H](N)C(=O)OCOC(=O)n1c(C([NH-])=O)cc2ccc(-c3c[nH+]cc(F)c3)cc21

>  <Energy>  (48) 
89.39371247222354

>  <Genealogy>  (48) 
CC(C)C(N)C(=O)OCOC(=O)n1c(C([NH-])=O)cc2ccc(-c3c[nH+]cc(F)c3)cc21 (protonated)
CC(C)[C@H](N)C(=O)OCOC(=O)n1c(C([NH-])=O)cc2ccc(-c3c[nH+]cc(F)c3)cc21 (chirality)
CC(C)[C@H](N)C(=O)OCOC(=O)n1c(C([NH-])=O)cc2ccc(-c3c[nH+]cc(F)c3)cc21 (3D coordinates assigned)
CC(C)[C@H](N)C(=O)OCOC(=O)n1c(C([NH-])=O)cc2ccc(-c3c[nH+]cc(F)c3)cc21 (optimized conformer: 89.39371247222354 kcal/mol)

>  <smiles>  (48) 
CC(C)C(N)C(=O)OCOC(=O)n1c(C(N)=O)cc2ccc(-c3cncc(F)c3)cc21

>  <score_type>  (48) 
oracle

>  <origin>  (48) 
adg

>  <m_score__min__energy>  (48) 
-10.68

>  <m_primary>  (48) 
energy

$$$$
49:0
     RDKit          3D

 41 42  0  0  0  0  0  0  0  0999 V2000
   -6.6790   18.4780  -33.4710 C   0  0  0  0  0  0  0  0  0  0  0  0
   -6.8440   19.8140  -32.8080 C   0  0  0  0  0  0  0  0  0  0  0  0
   -8.1390   20.2930  -32.4950 C   0  0  0  0  0  0  0  0  0  0  0  0
   -8.3070   21.5310  -31.8530 C   0  0  0  0  0  0  0  0  0  0  0  0
   -7.1650   22.2540  -31.5200 C   0  0  0  0  0  0  0  0  0  0  0  0
   -7.0400   23.4850  -30.9180 C   0  0  0  0  0  0  0  0  0  0  0  0
   -5.6700   23.7210  -30.8380 C   0  0  0  0  0  0  0  0  0  0  0  0
   -5.0850   24.9070  -30.1790 C   0  0  0  0  0  0  0  0  0  0  0  0
   -4.0470   25.6370  -30.8270 N   0  0  0  0  0  0  0  0  0  0  0  0
   -5.5200   25.3070  -29.0670 O   0  0  0  0  0  0  0  0  0  0  0  0
   -4.9730   22.6780  -31.3750 N   0  0  0  0  0  0  0  0  0  0  0  0
   -3.5520   22.5750  -31.5560 C   0  0  0  0  0  0  0  0  0  0  0  0
   -3.0840   21.7360  -32.3730 O   0  0  0  0  0  0  0  0  0  0  0  0
   -2.7020   23.4250  -30.8360 O   0  0  0  0  0  0  0  0  0  0  0  0
   -1.9660   23.0590  -29.7020 C   0  0  0  0  0  0  0  0  0  0  0  0
   -1.2640   22.0100  -29.6940 O   0  0  0  0  0  0  0  0  0  0  0  0
   -1.9910   23.9690  -28.4950 C   0  0  1  0  0  0  0  0  0  0  0  0
   -2.3280   25.3480  -28.8660 N   0  0  0  0  0  0  0  0  0  0  0  0
   -2.9260   23.4530  -27.3670 C   0  0  0  0  0  0  0  0  0  0  0  0
   -3.7800   24.5580  -26.7220 C   0  0  0  0  0  0  0  0  0  0  0  0
   -3.8290   22.3140  -27.8650 C   0  0  0  0  0  0  0  0  0  0  0  0
   -5.9030   21.7880  -31.7870 C   0  0  0  0  0  0  0  0  0  0  0  0
   -5.7070   20.5660  -32.4420 C   0  0  0  0  0  0  0  0  0  0  0  0
   -6.5825   17.6968  -32.7026 H   0  0  0  0  0  0  0  0  0  0  0  0
   -7.5581   18.2688  -34.0982 H   0  0  0  0  0  0  0  0  0  0  0  0
   -5.7754   18.4890  -34.0982 H   0  0  0  0  0  0  0  0  0  0  0  0
   -9.0212   19.6904  -32.7568 H   0  0  0  0  0  0  0  0  0  0  0  0
   -9.3103   21.9174  -31.6205 H   0  0  0  0  0  0  0  0  0  0  0  0
   -7.8508   24.1434  -30.5729 H   0  0  0  0  0  0  0  0  0  0  0  0
   -3.0550   25.3100  -30.7870 H   0  0  0  0  0  0  0  0  0  0  0  0
   -0.9693   23.9618  -28.0875 H   0  0  0  0  0  0  0  0  0  0  0  0
   -3.3580   25.5040  -28.7900 H   0  0  0  0  0  0  0  0  0  0  0  0
   -2.0700   25.4950  -29.8690 H   0  0  0  0  0  0  0  0  0  0  0  0
   -2.2550   23.0695  -26.5843 H   0  0  0  0  0  0  0  0  0  0  0  0
   -3.7176   24.4773  -25.6267 H   0  0  0  0  0  0  0  0  0  0  0  0
   -3.4059   25.5426  -27.0390 H   0  0  0  0  0  0  0  0  0  0  0  0
   -4.8272   24.4442  -27.0390 H   0  0  0  0  0  0  0  0  0  0  0  0
   -4.2533   21.7788  -27.0027 H   0  0  0  0  0  0  0  0  0  0  0  0
   -4.6439   22.7319  -28.4744 H   0  0  0  0  0  0  0  0  0  0  0  0
   -3.2363   21.6159  -28.4744 H   0  0  0  0  0  0  0  0  0  0  0  0
   -4.6934   20.2016  -32.6655 H   0  0  0  0  0  0  0  0  0  0  0  0
  1  2  1  0
  2  3  2  0
  3  4  1  0
  4  5  2  0
  5  6  1  0
  6  7  2  0
  7  8  1  0
  8  9  1  0
  8 10  2  0
  7 11  1  0
 11 12  1  0
 12 13  2  0
 12 14  1  0
 14 15  1  0
 15 16  2  0
 15 17  1  0
 17 18  1  0
 17 19  1  0
 19 20  1  0
 19 21  1  0
 11 22  1  0
 22 23  2  0
 23  2  1  0
 22  5  1  0
  1 24  1  0
  1 25  1  0
  1 26  1  0
  3 27  1  0
  4 28  1  0
  6 29  1  0
  9 30  1  0
 17 31  1  1
 18 32  1  0
 18 33  1  0
 19 34  1  0
 20 35  1  0
 20 36  1  0
 20 37  1  0
 21 38  1  0
 21 39  1  0
 21 40  1  0
 23 41  1  0
M  CHG  1   9  -1
M  END
>  <UniqueID>  (49) 
49

>  <SMILES>  (49) 
Cc1ccc2cc(C([NH-])=O)n(C(=O)OC(=O)[C@@H](N)C(C)C)c2c1

>  <Energy>  (49) 
76.07368534264756

>  <Genealogy>  (49) 
Cc1ccc2cc(C([NH-])=O)n(C(=O)OC(=O)C(N)C(C)C)c2c1 (protonated)
Cc1ccc2cc(C([NH-])=O)n(C(=O)OC(=O)[C@@H](N)C(C)C)c2c1 (chirality)
Cc1ccc2cc(C([NH-])=O)n(C(=O)OC(=O)[C@@H](N)C(C)C)c2c1 (3D coordinates assigned)
Cc1ccc2cc(C([NH-])=O)n(C(=O)OC(=O)[C@@H](N)C(C)C)c2c1 (optimized conformer: 76.07368534264756 kcal/mol)

>  <smiles>  (49) 
Cc1ccc2cc(C(N)=O)n(C(=O)OC(=O)C(N)C(C)C)c2c1

>  <score_type>  (49) 
oracle

>  <origin>  (49) 
adg

>  <m_score__min__energy>  (49) 
-10.300000000000001

>  <m_primary>  (49) 
energy

$$$$
50:0
     RDKit          3D

 36 38  0  0  0  0  0  0  0  0999 V2000
   -1.5970   25.9740  -28.9450 N   0  0  0  0  0  0  0  0  0  0  0  0
   -0.9460   24.7130  -28.8130 C   0  0  0  0  0  0  0  0  0  0  0  0
   -0.0430   24.5730  -27.9480 O   0  0  0  0  0  0  0  0  0  0  0  0
   -1.3680   23.5760  -29.6580 C   0  0  0  0  0  0  0  0  0  0  0  0
   -0.5170   22.5380  -30.0280 C   0  0  0  0  0  0  0  0  0  0  0  0
   -1.2540   21.7460  -30.8770 C   0  0  0  0  0  0  0  0  0  0  0  0
   -0.9050   20.5700  -31.5310 C   0  0  0  0  0  0  0  0  0  0  0  0
   -1.8790   19.9440  -32.3290 C   0  0  0  0  0  0  0  0  0  0  0  0
   -3.1810   20.4990  -32.4550 C   0  0  0  0  0  0  0  0  0  0  0  0
   -4.1970   19.8710  -33.2610 N   0  0  0  0  0  0  0  0  0  0  0  0
   -4.9400   18.6730  -32.8720 C   0  0  0  0  0  0  0  0  0  0  0  0
   -6.1710   18.5240  -33.7080 C   0  0  0  0  0  0  0  0  0  0  0  0
   -6.1630   18.9420  -34.8950 O   0  0  0  0  0  0  0  0  0  0  0  0
   -7.3410   17.9180  -33.1320 N   0  0  0  0  0  0  0  0  0  0  0  0
   -8.3660   18.4630  -32.2300 C   0  0  0  0  0  0  0  0  0  0  0  0
   -9.1340   19.6690  -32.7420 C   0  0  0  0  0  0  0  0  0  0  0  0
   -8.0880   19.8360  -31.6400 C   0  0  0  0  0  0  0  0  0  0  0  0
   -3.4950   21.6930  -31.7670 C   0  0  0  0  0  0  0  0  0  0  0  0
   -2.5000   22.3030  -30.9950 C   0  0  0  0  0  0  0  0  0  0  0  0
   -2.5880   23.4280  -30.2500 N   0  0  0  0  0  0  0  0  0  0  0  0
   -3.7570   24.2440  -30.0670 C   0  0  0  0  0  0  0  0  0  0  0  0
   -4.6910   23.8580  -29.3150 O   0  0  0  0  0  0  0  0  0  0  0  0
   -3.8580   25.4780  -30.6970 O   0  0  0  0  0  0  0  0  0  0  0  0
   -2.6390   26.0430  -28.9470 H   0  0  0  0  0  0  0  0  0  0  0  0
    0.5243   22.3840  -29.7088 H   0  0  0  0  0  0  0  0  0  0  0  0
    0.1030   20.1419  -31.4274 H   0  0  0  0  0  0  0  0  0  0  0  0
   -1.6302   19.0143  -32.8617 H   0  0  0  0  0  0  0  0  0  0  0  0
   -4.4070   20.2750  -34.2030 H   0  0  0  0  0  0  0  0  0  0  0  0
   -4.2996   17.7894  -33.0103 H   0  0  0  0  0  0  0  0  0  0  0  0
   -5.2364   18.7659  -31.8168 H   0  0  0  0  0  0  0  0  0  0  0  0
   -8.6426   17.4828  -31.8144 H   0  0  0  0  0  0  0  0  0  0  0  0
   -8.9371   20.0590  -33.7515 H   0  0  0  0  0  0  0  0  0  0  0  0
  -10.1980   19.9257  -32.8511 H   0  0  0  0  0  0  0  0  0  0  0  0
   -7.1375   20.3459  -31.8557 H   0  0  0  0  0  0  0  0  0  0  0  0
   -8.0856   20.2625  -30.6261 H   0  0  0  0  0  0  0  0  0  0  0  0
   -4.5005   22.1335  -31.8369 H   0  0  0  0  0  0  0  0  0  0  0  0
  1  2  1  0
  2  3  2  0
  2  4  1  0
  4  5  2  0
  5  6  1  0
  6  7  2  0
  7  8  1  0
  8  9  2  0
  9 10  1  0
 10 11  1  0
 11 12  1  0
 12 13  2  0
 12 14  1  0
 14 15  1  0
 15 16  1  0
 16 17  1  0
  9 18  1  0
 18 19  2  0
 19 20  1  0
 20 21  1  0
 21 22  2  0
 21 23  1  0
 20  4  1  0
 19  6  1  0
 17 15  1  0
  1 24  1  0
  5 25  1  0
  7 26  1  0
  8 27  1  0
 10 28  1  0
 11 29  1  0
 11 30  1  0
 15 31  1  0
 16 32  1  0
 16 33  1  0
 17 34  1  0
 17 35  1  0
 18 36  1  0
M  CHG  3   1  -1  14  -1  23  -1
M  END
>  <UniqueID>  (50) 
50

>  <SMILES>  (50) 
[NH-]C(=O)c1cc2ccc(NCC(=O)[N-]C3CC3)cc2n1C(=O)[O-]

>  <Energy>  (50) 
345.5845229368892

>  <Genealogy>  (50) 
[NH-]C(=O)c1cc2ccc(NCC(=O)[N-]C3CC3)cc2n1C(=O)[O-] (protonated)
[NH-]C(=O)c1cc2ccc(NCC(=O)[N-]C3CC3)cc2n1C(=O)[O-] (3D coordinates assigned)
[NH-]C(=O)c1cc2ccc(NCC(=O)[N-]C3CC3)cc2n1C(=O)[O-] (nonaromatic ring conformer: 345.5845229368892 kcal/mol)

>  <smiles>  (50) 
NC(=O)c1cc2ccc(NCC(=O)NC3CC3)cc2n1C(=O)O

>  <score_type>  (50) 
oracle

>  <origin>  (50) 
adg

>  <m_score__min__energy>  (50) 
-10.960000000000001

>  <m_primary>  (50) 
energy

$$$$
51:0
     RDKit          3D

 39 40  0  0  0  0  0  0  0  0999 V2000
   -3.1450   24.5630  -27.1350 C   0  0  0  0  0  0  0  0  0  0  0  0
   -1.9740   25.5340  -27.1260 C   0  0  0  0  0  0  0  0  0  0  0  0
   -1.2600   25.4300  -28.3530 O   0  0  0  0  0  0  0  0  0  0  0  0
   -0.3420   24.4070  -28.6070 C   0  0  0  0  0  0  0  0  0  0  0  0
    0.8570   24.5090  -28.2260 O   0  0  0  0  0  0  0  0  0  0  0  0
   -0.7860   23.1810  -29.3300 C   0  0  0  0  0  0  0  0  0  0  0  0
   -2.0890   23.4210  -29.9390 N   0  0  0  0  0  0  0  0  0  0  0  0
   -3.0640   22.4230  -30.2770 C   0  0  0  0  0  0  0  0  0  0  0  0
   -3.1930   21.4350  -29.5080 O   0  0  0  0  0  0  0  0  0  0  0  0
   -3.9170   22.4980  -31.4860 C   0  0  0  0  0  0  0  0  0  0  0  0
   -3.4330   22.3000  -32.6320 O   0  0  0  0  0  0  0  0  0  0  0  0
   -5.3180   22.7880  -31.3630 N   0  0  0  0  0  0  0  0  0  0  0  0
   -5.8940   23.9080  -30.8450 C   0  0  0  0  0  0  0  0  0  0  0  0
   -5.1800   25.1300  -30.4150 C   0  0  0  0  0  0  0  0  0  0  0  0
   -3.8420   25.3850  -30.8360 N   0  0  0  0  0  0  0  0  0  0  0  0
   -5.7680   25.9730  -29.6860 O   0  0  0  0  0  0  0  0  0  0  0  0
   -7.2820   23.7760  -30.8250 C   0  0  0  0  0  0  0  0  0  0  0  0
   -7.5380   22.5280  -31.3480 C   0  0  0  0  0  0  0  0  0  0  0  0
   -8.7480   21.8700  -31.5440 C   0  0  0  0  0  0  0  0  0  0  0  0
   -8.7090   20.5710  -32.0800 C   0  0  0  0  0  0  0  0  0  0  0  0
   -7.4740   19.9570  -32.4010 C   0  0  0  0  0  0  0  0  0  0  0  0
   -7.4560   18.5660  -32.9720 C   0  0  0  0  0  0  0  0  0  0  0  0
   -6.4510   18.4630  -33.9170 F   0  0  0  0  0  0  0  0  0  0  0  0
   -7.2310   17.6490  -31.9630 F   0  0  0  0  0  0  0  0  0  0  0  0
   -6.2650   20.6540  -32.1790 C   0  0  0  0  0  0  0  0  0  0  0  0
   -6.3360   21.9520  -31.6630 C   0  0  0  0  0  0  0  0  0  0  0  0
   -3.4320   24.3250  -26.1001 H   0  0  0  0  0  0  0  0  0  0  0  0
   -3.9982   25.0223  -27.6557 H   0  0  0  0  0  0  0  0  0  0  0  0
   -2.8516   23.6395  -27.6557 H   0  0  0  0  0  0  0  0  0  0  0  0
   -2.3503   26.5607  -27.0070 H   0  0  0  0  0  0  0  0  0  0  0  0
   -1.3023   25.2896  -26.2899 H   0  0  0  0  0  0  0  0  0  0  0  0
   -0.0551   22.9325  -30.1137 H   0  0  0  0  0  0  0  0  0  0  0  0
   -0.8615   22.3439  -28.6204 H   0  0  0  0  0  0  0  0  0  0  0  0
   -3.0440   25.2960  -30.1680 H   0  0  0  0  0  0  0  0  0  0  0  0
   -8.0166   24.5125  -30.4673 H   0  0  0  0  0  0  0  0  0  0  0  0
   -9.7039   22.3504  -31.2880 H   0  0  0  0  0  0  0  0  0  0  0  0
   -9.6485   20.0253  -32.2520 H   0  0  0  0  0  0  0  0  0  0  0  0
   -8.4275   18.3590  -33.4446 H   0  0  0  0  0  0  0  0  0  0  0  0
   -5.2945   20.1884  -32.4058 H   0  0  0  0  0  0  0  0  0  0  0  0
  1  2  1  0
  2  3  1  0
  3  4  1  0
  4  5  2  0
  4  6  1  0
  6  7  1  0
  7  8  1  0
  8  9  2  0
  8 10  1  0
 10 11  2  0
 10 12  1  0
 12 13  1  0
 13 14  1  0
 14 15  1  0
 14 16  2  0
 13 17  2  0
 17 18  1  0
 18 19  2  0
 19 20  1  0
 20 21  2  0
 21 22  1  0
 22 23  1  0
 22 24  1  0
 21 25  1  0
 25 26  2  0
 26 12  1  0
 26 18  1  0
  1 27  1  0
  1 28  1  0
  1 29  1  0
  2 30  1  0
  2 31  1  0
  6 32  1  0
  6 33  1  0
 15 34  1  0
 17 35  1  0
 19 36  1  0
 20 37  1  0
 22 38  1  0
 25 39  1  0
M  CHG  2   7  -1  15  -1
M  END
>  <UniqueID>  (51) 
51

>  <SMILES>  (51) 
CCOC(=O)C[N-]C(=O)C(=O)n1c(C([NH-])=O)cc2ccc(C(F)F)cc21

>  <Energy>  (51) 
72.07803359818145

>  <Genealogy>  (51) 
CCOC(=O)C[N-]C(=O)C(=O)n1c(C([NH-])=O)cc2ccc(C(F)F)cc21 (protonated)
CCOC(=O)C[N-]C(=O)C(=O)n1c(C([NH-])=O)cc2ccc(C(F)F)cc21 (3D coordinates assigned)
CCOC(=O)C[N-]C(=O)C(=O)n1c(C([NH-])=O)cc2ccc(C(F)F)cc21 (optimized conformer: 72.07803359818145 kcal/mol)

>  <smiles>  (51) 
CCOC(=O)CNC(=O)C(=O)n1c(C(N)=O)cc2ccc(C(F)F)cc21

>  <score_type>  (51) 
oracle

>  <origin>  (51) 
adg

>  <m_score__min__energy>  (51) 
-10.619999999999999

>  <m_primary>  (51) 
energy

$$$$
52:0
     RDKit          3D

 45 46  0  0  0  0  0  0  0  0999 V2000
   -0.0700   24.1990  -28.1190 C   0  0  0  0  0  0  0  0  0  0  0  0
   -0.8690   25.5000  -28.2470 C   0  0  0  0  0  0  0  0  0  0  0  0
   -1.0760   26.1350  -26.8740 C   0  0  0  0  0  0  0  0  0  0  0  0
   -2.1430   25.2390  -28.8360 O   0  0  0  0  0  0  0  0  0  0  0  0
   -3.0540   24.3100  -28.3160 C   0  0  0  0  0  0  0  0  0  0  0  0
   -3.6670   24.5470  -27.2410 O   0  0  0  0  0  0  0  0  0  0  0  0
   -3.2760   23.0020  -29.0090 C   0  0  0  0  0  0  0  0  0  0  0  0
   -2.9690   23.0980  -30.3990 O   0  0  0  0  0  0  0  0  0  0  0  0
   -3.8520   22.7160  -31.4160 C   0  0  0  0  0  0  0  0  0  0  0  0
   -3.4160   22.1490  -32.4540 O   0  0  0  0  0  0  0  0  0  0  0  0
   -5.2630   22.9350  -31.2540 N   0  0  0  0  0  0  0  0  0  0  0  0
   -5.9020   24.0950  -30.9190 C   0  0  0  0  0  0  0  0  0  0  0  0
   -5.2600   25.3570  -30.5010 C   0  0  0  0  0  0  0  0  0  0  0  0
   -3.9290   25.6730  -30.8980 N   0  0  0  0  0  0  0  0  0  0  0  0
   -5.8790   26.1470  -29.7380 O   0  0  0  0  0  0  0  0  0  0  0  0
   -7.2840   23.9200  -30.9560 C   0  0  0  0  0  0  0  0  0  0  0  0
   -7.4770   22.6070  -31.3160 C   0  0  0  0  0  0  0  0  0  0  0  0
   -8.6600   21.9020  -31.5220 C   0  0  0  0  0  0  0  0  0  0  0  0
   -8.5650   20.5630  -31.9310 C   0  0  0  0  0  0  0  0  0  0  0  0
   -7.2990   19.9550  -32.1260 C   0  0  0  0  0  0  0  0  0  0  0  0
   -7.2120   18.5340  -32.6140 C   0  0  0  0  0  0  0  0  0  0  0  0
   -5.8420   18.2650  -33.2410 C   0  0  0  0  0  0  0  0  0  0  0  0
   -5.9840   17.4230  -34.4680 C   0  0  0  0  0  0  0  0  0  0  0  0
   -6.7020   16.3890  -34.4480 O   0  0  0  0  0  0  0  0  0  0  0  0
   -5.3630   17.8070  -35.6500 O   0  0  0  0  0  0  0  0  0  0  0  0
   -6.1210   20.7060  -31.9200 C   0  0  0  0  0  0  0  0  0  0  0  0
   -6.2440   22.0340  -31.4920 C   0  0  0  0  0  0  0  0  0  0  0  0
    0.0759   23.9615  -27.0549 H   0  0  0  0  0  0  0  0  0  0  0  0
   -0.6214   23.3807  -28.6051 H   0  0  0  0  0  0  0  0  0  0  0  0
    0.9092   24.3208  -28.6051 H   0  0  0  0  0  0  0  0  0  0  0  0
   -0.3008   26.1912  -28.8868 H   0  0  0  0  0  0  0  0  0  0  0  0
   -0.8367   25.4008  -26.0906 H   0  0  0  0  0  0  0  0  0  0  0  0
   -0.4163   27.0092  -26.7711 H   0  0  0  0  0  0  0  0  0  0  0  0
   -2.1242   26.4525  -26.7711 H   0  0  0  0  0  0  0  0  0  0  0  0
   -2.6304   22.2385  -28.5505 H   0  0  0  0  0  0  0  0  0  0  0  0
   -4.3357   22.7265  -28.9037 H   0  0  0  0  0  0  0  0  0  0  0  0
   -3.1090   25.2700  -30.3930 H   0  0  0  0  0  0  0  0  0  0  0  0
   -8.0570   24.6729  -30.7424 H   0  0  0  0  0  0  0  0  0  0  0  0
   -9.6388   22.3799  -31.3688 H   0  0  0  0  0  0  0  0  0  0  0  0
   -9.4816   19.9794  -32.1020 H   0  0  0  0  0  0  0  0  0  0  0  0
   -7.3623   17.8502  -31.7656 H   0  0  0  0  0  0  0  0  0  0  0  0
   -7.9894   18.3712  -33.3750 H   0  0  0  0  0  0  0  0  0  0  0  0
   -5.3733   19.2227  -33.5114 H   0  0  0  0  0  0  0  0  0  0  0  0
   -5.2163   17.7290  -32.5122 H   0  0  0  0  0  0  0  0  0  0  0  0
   -5.1307   20.2589  -32.0915 H   0  0  0  0  0  0  0  0  0  0  0  0
  1  2  1  0
  2  3  1  0
  2  4  1  0
  4  5  1  0
  5  6  2  0
  5  7  1  0
  7  8  1  0
  8  9  1  0
  9 10  2  0
  9 11  1  0
 11 12  1  0
 12 13  1  0
 13 14  1  0
 13 15  2  0
 12 16  2  0
 16 17  1  0
 17 18  2  0
 18 19  1  0
 19 20  2  0
 20 21  1  0
 21 22  1  0
 22 23  1  0
 23 24  2  0
 23 25  1  0
 20 26  1  0
 26 27  2  0
 27 11  1  0
 27 17  1  0
  1 28  1  0
  1 29  1  0
  1 30  1  0
  2 31  1  0
  3 32  1  0
  3 33  1  0
  3 34  1  0
  7 35  1  0
  7 36  1  0
 14 37  1  0
 16 38  1  0
 18 39  1  0
 19 40  1  0
 21 41  1  0
 21 42  1  0
 22 43  1  0
 22 44  1  0
 26 45  1  0
M  CHG  2  14  -1  25  -1
M  END
>  <UniqueID>  (52) 
52

>  <SMILES>  (52) 
CC(C)OC(=O)COC(=O)n1c(C([NH-])=O)cc2ccc(CCC(=O)[O-])cc21

>  <Energy>  (52) 
71.61781017816165

>  <Genealogy>  (52) 
CC(C)OC(=O)COC(=O)n1c(C([NH-])=O)cc2ccc(CCC(=O)[O-])cc21 (protonated)
CC(C)OC(=O)COC(=O)n1c(C([NH-])=O)cc2ccc(CCC(=O)[O-])cc21 (3D coordinates assigned)
CC(C)OC(=O)COC(=O)n1c(C([NH-])=O)cc2ccc(CCC(=O)[O-])cc21 (optimized conformer: 71.61781017816165 kcal/mol)

>  <smiles>  (52) 
CC(C)OC(=O)COC(=O)n1c(C(N)=O)cc2ccc(CCC(=O)O)cc21

>  <score_type>  (52) 
oracle

>  <origin>  (52) 
adg

>  <m_score__min__energy>  (52) 
-10.77

>  <m_primary>  (52) 
energy

$$$$
53:0
     RDKit          3D

 77 81  0  0  0  0  0  0  0  0999 V2000
   -1.2380   24.9070  -25.5750 C   0  0  0  0  0  0  0  0  0  0  0  0
   -0.9430   25.8570  -26.6530 N   0  0  0  0  0  0  0  0  0  0  0  0
   -0.0800   27.0160  -26.3980 C   0  0  0  0  0  0  0  0  0  0  0  0
   -1.5060   25.6770  -27.9710 C   0  0  0  0  0  0  0  0  0  0  0  0
   -1.1220   26.4160  -28.9190 O   0  0  0  0  0  0  0  0  0  0  0  0
   -2.5170   24.5950  -28.2460 C   0  0  0  0  0  0  0  0  0  0  0  0
   -3.1800   24.8180  -29.5260 N   0  0  0  0  0  0  0  0  0  0  0  0
   -3.5970   23.7780  -30.4200 C   0  0  0  0  0  0  0  0  0  0  0  0
   -3.1360   23.7660  -31.5920 O   0  0  0  0  0  0  0  0  0  0  0  0
   -4.5720   22.7420  -30.0280 C   0  0  0  0  0  0  0  0  0  0  0  0
   -4.2160   21.7870  -29.2870 O   0  0  0  0  0  0  0  0  0  0  0  0
   -5.9260   22.7960  -30.5070 N   0  0  0  0  0  0  0  0  0  0  0  0
   -6.7290   23.8920  -30.5910 C   0  0  0  0  0  0  0  0  0  0  0  0
   -6.4280   25.2260  -30.0340 C   0  0  0  0  0  0  0  0  0  0  0  0
   -5.3010   25.9810  -30.4830 N   0  0  0  0  0  0  0  0  0  0  0  0
   -7.1510   25.6900  -29.1120 O   0  0  0  0  0  0  0  0  0  0  0  0
   -7.9030   23.5900  -31.2760 C   0  0  0  0  0  0  0  0  0  0  0  0
   -7.7930   22.2580  -31.6110 C   0  0  0  0  0  0  0  0  0  0  0  0
   -8.6540   21.4460  -32.3340 C   0  0  0  0  0  0  0  0  0  0  0  0
   -8.2630   20.1210  -32.5840 C   0  0  0  0  0  0  0  0  0  0  0  0
   -7.0110   19.6100  -32.1170 C   0  0  0  0  0  0  0  0  0  0  0  0
   -6.6090   18.2270  -32.3790 N   0  0  0  0  0  0  0  0  0  0  0  0
   -6.9640   17.6280  -33.6850 C   0  0  0  0  0  0  0  0  0  0  0  0
   -6.6250   16.1470  -33.8420 C   0  0  0  0  0  0  0  0  0  0  0  0
   -5.3200   15.7150  -33.1660 C   0  0  0  0  0  0  0  0  0  0  0  0
   -4.0560   16.1120  -33.8510 N   0  0  0  0  0  0  0  0  0  0  0  0
   -4.2260   17.0970  -34.9430 C   0  0  0  0  0  0  0  0  0  0  0  0
   -3.6380   18.4650  -34.5650 C   0  0  0  0  0  0  0  0  0  0  0  0
   -2.1840   18.3950  -34.2570 N   0  0  0  0  0  0  0  0  0  0  0  0
   -1.8060   19.4380  -33.2750 C   0  0  0  0  0  0  0  0  0  0  0  0
   -1.7900   20.8480  -33.8750 C   0  0  0  0  0  0  0  0  0  0  0  0
   -2.9090   21.2690  -32.9360 C   0  0  0  0  0  0  0  0  0  0  0  0
   -2.9620   19.8630  -32.3610 C   0  0  0  0  0  0  0  0  0  0  0  0
   -1.7500   17.0490  -33.7980 C   0  0  0  0  0  0  0  0  0  0  0  0
   -2.8490   16.3140  -33.0210 C   0  0  0  0  0  0  0  0  0  0  0  0
   -5.3730   16.0790  -31.6810 C   0  0  0  0  0  0  0  0  0  0  0  0
   -5.7710   17.5330  -31.3690 C   0  0  0  0  0  0  0  0  0  0  0  0
   -6.1630   20.4960  -31.3930 C   0  0  0  0  0  0  0  0  0  0  0  0
   -6.5920   21.8030  -31.1400 C   0  0  0  0  0  0  0  0  0  0  0  0
   -1.0857   25.3974  -24.6022 H   0  0  0  0  0  0  0  0  0  0  0  0
   -2.2825   24.5719  -25.6572 H   0  0  0  0  0  0  0  0  0  0  0  0
   -0.5670   24.0392  -25.6572 H   0  0  0  0  0  0  0  0  0  0  0  0
    0.0280   27.1611  -25.3130 H   0  0  0  0  0  0  0  0  0  0  0  0
    0.9098   26.8415  -26.8449 H   0  0  0  0  0  0  0  0  0  0  0  0
   -0.5309   27.9143  -26.8449 H   0  0  0  0  0  0  0  0  0  0  0  0
   -2.0056   23.6214  -28.2696 H   0  0  0  0  0  0  0  0  0  0  0  0
   -3.2751   24.6104  -27.4491 H   0  0  0  0  0  0  0  0  0  0  0  0
   -5.1330   26.9410  -30.1080 H   0  0  0  0  0  0  0  0  0  0  0  0
   -4.5780   25.5550  -31.1020 H   0  0  0  0  0  0  0  0  0  0  0  0
   -8.7387   24.2689  -31.5013 H   0  0  0  0  0  0  0  0  0  0  0  0
   -9.6171   21.8297  -32.7016 H   0  0  0  0  0  0  0  0  0  0  0  0
   -8.9347   19.4606  -33.1520 H   0  0  0  0  0  0  0  0  0  0  0  0
   -8.0484   17.7446  -33.8280 H   0  0  0  0  0  0  0  0  0  0  0  0
   -6.3588   18.1579  -34.4353 H   0  0  0  0  0  0  0  0  0  0  0  0
   -7.4471   15.5592  -33.4076 H   0  0  0  0  0  0  0  0  0  0  0  0
   -6.4903   15.9711  -34.9195 H   0  0  0  0  0  0  0  0  0  0  0  0
   -5.2656   14.6207  -33.2636 H   0  0  0  0  0  0  0  0  0  0  0  0
   -3.7146   16.7246  -35.8429 H   0  0  0  0  0  0  0  0  0  0  0  0
   -5.3028   17.2239  -35.1283 H   0  0  0  0  0  0  0  0  0  0  0  0
   -3.7874   19.1578  -35.4063 H   0  0  0  0  0  0  0  0  0  0  0  0
   -4.1553   18.8121  -33.6584 H   0  0  0  0  0  0  0  0  0  0  0  0
   -0.8940   18.9875  -32.8563 H   0  0  0  0  0  0  0  0  0  0  0  0
   -0.8460   21.3907  -33.7185 H   0  0  0  0  0  0  0  0  0  0  0  0
   -1.8953   20.9893  -34.9608 H   0  0  0  0  0  0  0  0  0  0  0  0
   -2.6171   22.0404  -32.2081 H   0  0  0  0  0  0  0  0  0  0  0  0
   -3.8196   21.7407  -33.3339 H   0  0  0  0  0  0  0  0  0  0  0  0
   -2.7277   19.8088  -31.2876 H   0  0  0  0  0  0  0  0  0  0  0  0
   -3.9062   19.2987  -32.3625 H   0  0  0  0  0  0  0  0  0  0  0  0
   -1.4761   16.4472  -34.6771 H   0  0  0  0  0  0  0  0  0  0  0  0
   -0.8942   17.1854  -33.1205 H   0  0  0  0  0  0  0  0  0  0  0  0
   -2.4664   15.3334  -32.7017 H   0  0  0  0  0  0  0  0  0  0  0  0
   -3.1266   16.9277  -32.1513 H   0  0  0  0  0  0  0  0  0  0  0  0
   -6.1040   15.4159  -31.1954 H   0  0  0  0  0  0  0  0  0  0  0  0
   -4.3467   15.9592  -31.3038 H   0  0  0  0  0  0  0  0  0  0  0  0
   -6.3272   17.5299  -30.4200 H   0  0  0  0  0  0  0  0  0  0  0  0
   -4.8244   18.0928  -31.3454 H   0  0  0  0  0  0  0  0  0  0  0  0
   -5.1798   20.1556  -31.0361 H   0  0  0  0  0  0  0  0  0  0  0  0
  1  2  1  0
  2  3  1  0
  2  4  1  0
  4  5  2  0
  4  6  1  0
  6  7  1  0
  7  8  1  0
  8  9  2  0
  8 10  1  0
 10 11  2  0
 10 12  1  0
 12 13  1  0
 13 14  1  0
 14 15  1  0
 14 16  2  0
 13 17  2  0
 17 18  1  0
 18 19  2  0
 19 20  1  0
 20 21  2  0
 21 22  1  0
 22 23  1  0
 23 24  1  0
 24 25  1  0
 25 26  1  0
 26 27  1  0
 27 28  1  0
 28 29  1  0
 29 30  1  0
 30 31  1  0
 31 32  1  0
 32 33  1  0
 29 34  1  0
 34 35  1  0
 25 36  1  0
 36 37  1  0
 21 38  1  0
 38 39  2  0
 39 12  1  0
 39 18  1  0
 37 22  1  0
 35 26  1  0
 33 30  1  0
  1 40  1  0
  1 41  1  0
  1 42  1  0
  3 43  1  0
  3 44  1  0
  3 45  1  0
  6 46  1  0
  6 47  1  0
 15 48  1  0
 15 49  1  0
 17 50  1  0
 19 51  1  0
 20 52  1  0
 23 53  1  0
 23 54  1  0
 24 55  1  0
 24 56  1  0
 25 57  1  0
 27 58  1  0
 27 59  1  0
 28 60  1  0
 28 61  1  0
 30 62  1  0
 31 63  1  0
 31 64  1  0
 32 65  1  0
 32 66  1  0
 33 67  1  0
 33 68  1  0
 34 69  1  0
 34 70  1  0
 35 71  1  0
 35 72  1  0
 36 73  1  0
 36 74  1  0
 37 75  1  0
 37 76  1  0
 38 77  1  0
M  CHG  1   7  -1
M  END
>  <UniqueID>  (53) 
53

>  <SMILES>  (53) 
CN(C)C(=O)C[N-]C(=O)C(=O)n1c(C(N)=O)cc2ccc(N3CCC(N4CCN(C5CCC5)CC4)CC3)cc21

>  <Energy>  (53) 
208.5787841615277

>  <Genealogy>  (53) 
CN(C)C(=O)C[N-]C(=O)C(=O)n1c(C(N)=O)cc2ccc(N3CCC(N4CCN(C5CCC5)CC4)CC3)cc21 (protonated)
CN(C)C(=O)C[N-]C(=O)C(=O)n1c(C(N)=O)cc2ccc(N3CCC(N4CCN(C5CCC5)CC4)CC3)cc21 (3D coordinates assigned)
CN(C)C(=O)C[N-]C(=O)C(=O)n1c(C(N)=O)cc2ccc(N3CCC(N4CCN(C5CCC5)CC4)CC3)cc21 (nonaromatic ring conformer: 208.5787841615277 kcal/mol)

>  <smiles>  (53) 
CN(C)C(=O)CNC(=O)C(=O)n1c(C(N)=O)cc2ccc(N3CCC(N4CCN(C5CCC5)CC4)CC3)cc21

>  <score_type>  (53) 
oracle

>  <origin>  (53) 
adg

>  <m_score__min__energy>  (53) 
-11.49

>  <m_primary>  (53) 
energy

$$$$
54:0
     RDKit          3D

 38 40  0  0  0  0  0  0  0  0999 V2000
   -5.0280   24.9240  -28.9350 N   0  0  0  0  0  0  0  0  0  0  0  0
   -5.1020   24.5340  -30.3080 C   0  0  0  0  0  0  0  0  0  0  0  0
   -4.3220   25.0750  -31.1380 O   0  0  0  0  0  0  0  0  0  0  0  0
   -6.0700   23.5080  -30.7580 C   0  0  0  0  0  0  0  0  0  0  0  0
   -7.4280   23.7460  -30.9590 C   0  0  0  0  0  0  0  0  0  0  0  0
   -7.9420   22.5540  -31.4100 C   0  0  0  0  0  0  0  0  0  0  0  0
   -9.2450   22.2190  -31.7680 C   0  0  0  0  0  0  0  0  0  0  0  0
   -9.4880   20.9090  -32.2090 C   0  0  0  0  0  0  0  0  0  0  0  0
   -8.4320   19.9640  -32.2930 C   0  0  0  0  0  0  0  0  0  0  0  0
   -8.7320   18.5550  -32.7150 C   0  0  0  0  0  0  0  0  0  0  0  0
   -7.5670   17.8410  -32.9290 F   0  0  0  0  0  0  0  0  0  0  0  0
   -9.4770   17.9300  -31.7320 F   0  0  0  0  0  0  0  0  0  0  0  0
   -7.1290   20.3350  -31.9020 C   0  0  0  0  0  0  0  0  0  0  0  0
   -6.9160   21.6500  -31.4760 C   0  0  0  0  0  0  0  0  0  0  0  0
   -5.7620   22.2180  -31.0720 N   0  0  0  0  0  0  0  0  0  0  0  0
   -4.4510   21.6420  -31.1520 C   0  0  0  0  0  0  0  0  0  0  0  0
   -3.8840   21.2300  -30.1060 O   0  0  0  0  0  0  0  0  0  0  0  0
   -3.7790   21.5650  -32.4150 N   0  0  0  0  0  0  0  0  0  0  0  0
   -2.3540   21.6710  -32.5280 C   0  0  0  0  0  0  0  0  0  0  0  0
   -1.6650   22.0380  -31.5390 O   0  0  0  0  0  0  0  0  0  0  0  0
   -1.7140   21.3780  -33.7760 N   0  0  0  0  0  0  0  0  0  0  0  0
   -0.2660   21.4760  -33.9360 C   0  0  0  0  0  0  0  0  0  0  0  0
    0.3080   20.4500  -34.8970 C   0  0  0  0  0  0  0  0  0  0  0  0
    0.1550   21.8990  -35.3300 C   0  0  0  0  0  0  0  0  0  0  0  0
   -4.3370   25.6560  -28.6430 H   0  0  0  0  0  0  0  0  0  0  0  0
   -5.6890   24.5480  -28.2170 H   0  0  0  0  0  0  0  0  0  0  0  0
   -7.9725   24.6871  -30.7923 H   0  0  0  0  0  0  0  0  0  0  0  0
  -10.0580   22.9574  -31.7072 H   0  0  0  0  0  0  0  0  0  0  0  0
  -10.5082   20.6111  -32.4927 H   0  0  0  0  0  0  0  0  0  0  0  0
   -9.2985   18.5883  -33.6573 H   0  0  0  0  0  0  0  0  0  0  0  0
   -6.3024   19.6098  -31.9312 H   0  0  0  0  0  0  0  0  0  0  0  0
   -4.3460   21.5150  -33.2880 H   0  0  0  0  0  0  0  0  0  0  0  0
   -2.3000   21.1800  -34.6190 H   0  0  0  0  0  0  0  0  0  0  0  0
   -0.0278   21.8047  -32.9136 H   0  0  0  0  0  0  0  0  0  0  0  0
    1.3097   20.0311  -34.7210 H   0  0  0  0  0  0  0  0  0  0  0  0
   -0.0278   19.4798  -35.2919 H   0  0  0  0  0  0  0  0  0  0  0  0
    1.0462   22.5288  -35.4680 H   0  0  0  0  0  0  0  0  0  0  0  0
   -0.3376   22.4121  -36.1691 H   0  0  0  0  0  0  0  0  0  0  0  0
  1  2  1  0
  2  3  2  0
  2  4  1  0
  4  5  2  0
  5  6  1  0
  6  7  2  0
  7  8  1  0
  8  9  2  0
  9 10  1  0
 10 11  1  0
 10 12  1  0
  9 13  1  0
 13 14  2  0
 14 15  1  0
 15 16  1  0
 16 17  2  0
 16 18  1  0
 18 19  1  0
 19 20  2  0
 19 21  1  0
 21 22  1  0
 22 23  1  0
 23 24  1  0
 15  4  1  0
 24 22  1  0
 14  6  1  0
  1 25  1  0
  1 26  1  0
  5 27  1  0
  7 28  1  0
  8 29  1  0
 10 30  1  0
 13 31  1  0
 18 32  1  0
 21 33  1  0
 22 34  1  0
 23 35  1  0
 23 36  1  0
 24 37  1  0
 24 38  1  0
M  END
>  <UniqueID>  (54) 
54

>  <SMILES>  (54) 
NC(=O)c1cc2ccc(C(F)F)cc2n1C(=O)NC(=O)NC1CC1

>  <Energy>  (54) 
344.0927951573763

>  <Genealogy>  (54) 
NC(=O)c1cc2ccc(C(F)F)cc2n1C(=O)NC(=O)NC1CC1 (3D coordinates assigned)
NC(=O)c1cc2ccc(C(F)F)cc2n1C(=O)NC(=O)NC1CC1 (nonaromatic ring conformer: 344.0927951573763 kcal/mol)

>  <smiles>  (54) 
NC(=O)c1cc2ccc(C(F)F)cc2n1C(=O)NC(=O)NC1CC1

>  <score_type>  (54) 
oracle

>  <origin>  (54) 
adg

>  <m_score__min__energy>  (54) 
-8.8100000000000005

>  <m_primary>  (54) 
energy

$$$$
55:0
     RDKit          3D

 47 48  0  0  0  0  0  0  0  0999 V2000
   -0.5710   21.5020  -31.5590 N   0  0  0  0  0  0  0  0  0  0  0  0
   -1.2140   21.4360  -32.8340 C   0  0  0  0  0  0  0  0  0  0  0  0
   -0.6270   21.9180  -33.8390 O   0  0  0  0  0  0  0  0  0  0  0  0
   -2.5400   20.7930  -32.9870 C   0  0  0  0  0  0  0  0  0  0  0  0
   -2.7810   19.6400  -33.7360 C   0  0  0  0  0  0  0  0  0  0  0  0
   -4.1370   19.4220  -33.6470 C   0  0  0  0  0  0  0  0  0  0  0  0
   -4.9180   18.4000  -34.1760 C   0  0  0  0  0  0  0  0  0  0  0  0
   -6.2940   18.4050  -33.8880 C   0  0  0  0  0  0  0  0  0  0  0  0
   -6.8640   19.4180  -33.0770 C   0  0  0  0  0  0  0  0  0  0  0  0
   -8.2760   19.3820  -32.7970 N   0  0  0  0  0  0  0  0  0  0  0  0
   -8.8270   19.5250  -31.4460 C   0  0  0  0  0  0  0  0  0  0  0  0
   -9.1230   20.9910  -31.1170 C   0  0  0  0  0  0  0  0  0  0  0  0
   -8.8410   21.8470  -32.2810 N   0  0  0  0  0  0  0  0  0  0  0  0
   -7.9540   22.9780  -31.9530 C   0  0  0  0  0  0  0  0  0  0  0  0
   -7.3170   22.8510  -30.5570 C   0  0  0  0  0  0  0  0  0  0  0  0
   -6.7710   24.1600  -30.0670 C   0  0  0  0  0  0  0  0  0  0  0  0
   -6.4890   25.0480  -30.8570 O   0  0  0  0  0  0  0  0  0  0  0  0
   -6.0330   20.4390  -32.5540 C   0  0  0  0  0  0  0  0  0  0  0  0
   -4.6720   20.4190  -32.8740 C   0  0  0  0  0  0  0  0  0  0  0  0
   -3.7050   21.2710  -32.4690 N   0  0  0  0  0  0  0  0  0  0  0  0
   -3.8730   22.3810  -31.5720 C   0  0  0  0  0  0  0  0  0  0  0  0
   -4.4900   23.4070  -31.9660 O   0  0  0  0  0  0  0  0  0  0  0  0
   -3.3260   22.3310  -30.2030 C   0  0  0  0  0  0  0  0  0  0  0  0
   -2.5310   21.4060  -29.8830 O   0  0  0  0  0  0  0  0  0  0  0  0
   -3.6360   23.4050  -29.2030 C   0  0  0  0  0  0  0  0  0  0  0  0
   -3.1870   24.7300  -29.7320 C   0  0  0  0  0  0  0  0  0  0  0  0
   -3.8660   25.3260  -30.6090 O   0  0  0  0  0  0  0  0  0  0  0  0
   -1.9920   25.2850  -29.2920 O   0  0  0  0  0  0  0  0  0  0  0  0
    0.3820   21.9190  -31.4770 H   0  0  0  0  0  0  0  0  0  0  0  0
   -1.0430   21.1690  -30.6900 H   0  0  0  0  0  0  0  0  0  0  0  0
   -2.0431   19.0338  -34.2819 H   0  0  0  0  0  0  0  0  0  0  0  0
   -4.4726   17.6118  -34.8007 H   0  0  0  0  0  0  0  0  0  0  0  0
   -6.9370   17.6120  -34.2976 H   0  0  0  0  0  0  0  0  0  0  0  0
   -8.9340   19.2760  -33.6030 H   0  0  0  0  0  0  0  0  0  0  0  0
   -9.7603   18.9469  -31.3768 H   0  0  0  0  0  0  0  0  0  0  0  0
   -8.0831   19.1516  -30.7268 H   0  0  0  0  0  0  0  0  0  0  0  0
  -10.1828   21.0932  -30.8406 H   0  0  0  0  0  0  0  0  0  0  0  0
   -8.4813   21.3048  -30.2805 H   0  0  0  0  0  0  0  0  0  0  0  0
   -8.4180   21.2650  -33.0410 H   0  0  0  0  0  0  0  0  0  0  0  0
   -7.1507   23.0237  -32.7031 H   0  0  0  0  0  0  0  0  0  0  0  0
   -8.5670   23.8914  -31.9556 H   0  0  0  0  0  0  0  0  0  0  0  0
   -8.0809   22.4975  -29.8489 H   0  0  0  0  0  0  0  0  0  0  0  0
   -6.4811   22.1396  -30.6284 H   0  0  0  0  0  0  0  0  0  0  0  0
   -6.6237   24.3211  -28.9889 H   0  0  0  0  0  0  0  0  0  0  0  0
   -6.4486   21.2290  -31.9112 H   0  0  0  0  0  0  0  0  0  0  0  0
   -4.7203   23.4326  -29.0201 H   0  0  0  0  0  0  0  0  0  0  0  0
   -3.1084   23.1903  -28.2620 H   0  0  0  0  0  0  0  0  0  0  0  0
  1  2  1  0
  2  3  2  0
  2  4  1  0
  4  5  2  0
  5  6  1  0
  6  7  2  0
  7  8  1  0
  8  9  2  0
  9 10  1  0
 10 11  1  0
 11 12  1  0
 12 13  1  0
 13 14  1  0
 14 15  1  0
 15 16  1  0
 16 17  2  0
  9 18  1  0
 18 19  2  0
 19 20  1  0
 20 21  1  0
 21 22  2  0
 21 23  1  0
 23 24  2  0
 23 25  1  0
 25 26  1  0
 26 27  2  0
 26 28  1  0
 20  4  1  0
 19  6  1  0
  1 29  1  0
  1 30  1  0
  5 31  1  0
  7 32  1  0
  8 33  1  0
 10 34  1  0
 11 35  1  0
 11 36  1  0
 12 37  1  0
 12 38  1  0
 13 39  1  0
 14 40  1  0
 14 41  1  0
 15 42  1  0
 15 43  1  0
 16 44  1  0
 18 45  1  0
 25 46  1  0
 25 47  1  0
M  CHG  1  28  -1
M  END
>  <UniqueID>  (55) 
55

>  <SMILES>  (55) 
NC(=O)c1cc2ccc(NCCNCCC=O)cc2n1C(=O)C(=O)CC(=O)[O-]

>  <Energy>  (55) 
79.66976735132789

>  <Genealogy>  (55) 
NC(=O)c1cc2ccc(NCCNCCC=O)cc2n1C(=O)C(=O)CC(=O)[O-] (protonated)
NC(=O)c1cc2ccc(NCCNCCC=O)cc2n1C(=O)C(=O)CC(=O)[O-] (3D coordinates assigned)
NC(=O)c1cc2ccc(NCCNCCC=O)cc2n1C(=O)C(=O)CC(=O)[O-] (optimized conformer: 79.66976735132789 kcal/mol)

>  <smiles>  (55) 
NC(=O)c1cc2ccc(NCCNCCC=O)cc2n1C(=O)C(=O)CC(=O)O

>  <score_type>  (55) 
oracle

>  <origin>  (55) 
adg

>  <m_score__min__energy>  (55) 
-10.51

>  <m_primary>  (55) 
energy

$$$$
56:0
     RDKit          3D

 48 49  0  0  0  0  0  0  0  0999 V2000
   -2.1090   19.6920  -33.7820 C   0  0  0  0  0  0  0  0  0  0  0  0
   -3.3860   19.2130  -33.1110 C   0  0  0  0  0  0  0  0  0  0  0  0
   -4.0350   18.2650  -33.9510 O   0  0  0  0  0  0  0  0  0  0  0  0
   -5.4170   18.2660  -34.1680 C   0  0  0  0  0  0  0  0  0  0  0  0
   -5.8860   18.5460  -35.3040 O   0  0  0  0  0  0  0  0  0  0  0  0
   -6.3590   17.9390  -33.0480 C   0  0  0  0  0  0  0  0  0  0  0  0
   -7.5110   18.8440  -33.0350 N   0  0  0  0  0  0  0  0  0  0  0  0
   -7.4960   20.1750  -32.4800 C   0  0  0  0  0  0  0  0  0  0  0  0
   -8.7260   20.7840  -32.1230 C   0  0  0  0  0  0  0  0  0  0  0  0
   -8.7580   22.0740  -31.5700 C   0  0  0  0  0  0  0  0  0  0  0  0
   -7.5480   22.7300  -31.3740 C   0  0  0  0  0  0  0  0  0  0  0  0
   -7.2920   23.9860  -30.8730 C   0  0  0  0  0  0  0  0  0  0  0  0
   -5.9060   24.1220  -30.9060 C   0  0  0  0  0  0  0  0  0  0  0  0
   -5.1910   25.3000  -30.3740 C   0  0  0  0  0  0  0  0  0  0  0  0
   -3.8800   25.6070  -30.8430 N   0  0  0  0  0  0  0  0  0  0  0  0
   -5.7390   26.0630  -29.5340 O   0  0  0  0  0  0  0  0  0  0  0  0
   -5.3280   22.9960  -31.4120 N   0  0  0  0  0  0  0  0  0  0  0  0
   -3.9330   22.7600  -31.6590 C   0  0  0  0  0  0  0  0  0  0  0  0
   -3.5740   22.2230  -32.7420 O   0  0  0  0  0  0  0  0  0  0  0  0
   -2.9860   23.1540  -30.7010 O   0  0  0  0  0  0  0  0  0  0  0  0
   -2.7300   22.5100  -29.4440 C   0  0  0  0  0  0  0  0  0  0  0  0
   -3.8430   22.8370  -28.4320 C   0  0  0  0  0  0  0  0  0  0  0  0
   -1.3530   22.9260  -28.8920 C   0  0  0  0  0  0  0  0  0  0  0  0
   -2.7230   20.9970  -29.7050 C   0  0  0  0  0  0  0  0  0  0  0  0
   -6.3470   22.1540  -31.6940 C   0  0  0  0  0  0  0  0  0  0  0  0
   -6.2860   20.8810  -32.2720 C   0  0  0  0  0  0  0  0  0  0  0  0
   -1.3723   19.9683  -33.0133 H   0  0  0  0  0  0  0  0  0  0  0  0
   -1.6998   18.8862  -34.4092 H   0  0  0  0  0  0  0  0  0  0  0  0
   -2.3307   20.5681  -34.4092 H   0  0  0  0  0  0  0  0  0  0  0  0
   -3.1400   18.7420  -32.1479 H   0  0  0  0  0  0  0  0  0  0  0  0
   -4.0543   20.0697  -32.9394 H   0  0  0  0  0  0  0  0  0  0  0  0
   -6.7169   16.9063  -33.1718 H   0  0  0  0  0  0  0  0  0  0  0  0
   -5.8183   18.0542  -32.0970 H   0  0  0  0  0  0  0  0  0  0  0  0
   -8.3940   18.4980  -33.4740 H   0  0  0  0  0  0  0  0  0  0  0  0
   -9.6678   20.2382  -32.2815 H   0  0  0  0  0  0  0  0  0  0  0  0
   -9.7116   22.5513  -31.3000 H   0  0  0  0  0  0  0  0  0  0  0  0
   -8.0262   24.7257  -30.5211 H   0  0  0  0  0  0  0  0  0  0  0  0
   -3.0350   25.2950  -30.3150 H   0  0  0  0  0  0  0  0  0  0  0  0
   -3.4540   22.7227  -27.4095 H   0  0  0  0  0  0  0  0  0  0  0  0
   -4.1820   23.8727  -28.5817 H   0  0  0  0  0  0  0  0  0  0  0  0
   -4.6883   22.1493  -28.5817 H   0  0  0  0  0  0  0  0  0  0  0  0
   -1.3810   22.9175  -27.7924 H   0  0  0  0  0  0  0  0  0  0  0  0
   -0.5877   22.2190  -29.2448 H   0  0  0  0  0  0  0  0  0  0  0  0
   -1.1072   23.9385  -29.2448 H   0  0  0  0  0  0  0  0  0  0  0  0
   -2.7205   20.4594  -28.7453 H   0  0  0  0  0  0  0  0  0  0  0  0
   -3.6199   20.7197  -30.2783 H   0  0  0  0  0  0  0  0  0  0  0  0
   -1.8236   20.7280  -30.2783 H   0  0  0  0  0  0  0  0  0  0  0  0
   -5.3203   20.4388  -32.5582 H   0  0  0  0  0  0  0  0  0  0  0  0
  1  2  1  0
  2  3  1  0
  3  4  1  0
  4  5  2  0
  4  6  1  0
  6  7  1  0
  7  8  1  0
  8  9  2  0
  9 10  1  0
 10 11  2  0
 11 12  1  0
 12 13  2  0
 13 14  1  0
 14 15  1  0
 14 16  2  0
 13 17  1  0
 17 18  1  0
 18 19  2  0
 18 20  1  0
 20 21  1  0
 21 22  1  0
 21 23  1  0
 21 24  1  0
 17 25  1  0
 25 26  2  0
 26  8  1  0
 25 11  1  0
  1 27  1  0
  1 28  1  0
  1 29  1  0
  2 30  1  0
  2 31  1  0
  6 32  1  0
  6 33  1  0
  7 34  1  0
  9 35  1  0
 10 36  1  0
 12 37  1  0
 15 38  1  0
 22 39  1  0
 22 40  1  0
 22 41  1  0
 23 42  1  0
 23 43  1  0
 23 44  1  0
 24 45  1  0
 24 46  1  0
 24 47  1  0
 26 48  1  0
M  CHG  1  15  -1
M  END
>  <UniqueID>  (56) 
56

>  <SMILES>  (56) 
CCOC(=O)CNc1ccc2cc(C([NH-])=O)n(C(=O)OC(C)(C)C)c2c1

>  <Energy>  (56) 
74.58107674328548

>  <Genealogy>  (56) 
CCOC(=O)CNc1ccc2cc(C([NH-])=O)n(C(=O)OC(C)(C)C)c2c1 (protonated)
CCOC(=O)CNc1ccc2cc(C([NH-])=O)n(C(=O)OC(C)(C)C)c2c1 (3D coordinates assigned)
CCOC(=O)CNc1ccc2cc(C([NH-])=O)n(C(=O)OC(C)(C)C)c2c1 (optimized conformer: 74.58107674328548 kcal/mol)

>  <smiles>  (56) 
CCOC(=O)CNc1ccc2cc(C(N)=O)n(C(=O)OC(C)(C)C)c2c1

>  <score_type>  (56) 
oracle

>  <origin>  (56) 
adg

>  <m_score__min__energy>  (56) 
-10.24

>  <m_primary>  (56) 
energy

$$$$
57:0
     RDKit          3D

 43 45  0  0  0  0  0  0  0  0999 V2000
   -7.3130   22.9340  -30.4320 N   0  0  0  0  0  0  0  0  0  0  0  0
   -6.7560   23.9270  -30.6380 C   0  0  0  0  0  0  0  0  0  0  0  0
   -6.0500   25.1860  -30.8980 C   0  0  0  0  0  0  0  0  0  0  0  0
   -4.6410   24.9750  -30.8810 O   0  0  0  0  0  0  0  0  0  0  0  0
   -3.9730   24.3240  -29.8360 C   0  0  0  0  0  0  0  0  0  0  0  0
   -4.3030   24.5390  -28.6370 O   0  0  0  0  0  0  0  0  0  0  0  0
   -2.9260   23.3890  -30.1330 N   0  0  0  0  0  0  0  0  0  0  0  0
   -1.5920   23.5250  -29.8870 C   0  0  0  0  0  0  0  0  0  0  0  0
   -0.9600   24.6020  -29.0980 C   0  0  0  0  0  0  0  0  0  0  0  0
   -1.6110   25.8580  -28.9190 N   0  0  0  0  0  0  0  0  0  0  0  0
    0.1480   24.3960  -28.5330 O   0  0  0  0  0  0  0  0  0  0  0  0
   -0.8850   22.4500  -30.4220 C   0  0  0  0  0  0  0  0  0  0  0  0
   -1.8340   21.6410  -31.0020 C   0  0  0  0  0  0  0  0  0  0  0  0
   -1.6870   20.4450  -31.6970 C   0  0  0  0  0  0  0  0  0  0  0  0
   -2.8420   19.8430  -32.2240 C   0  0  0  0  0  0  0  0  0  0  0  0
   -4.1180   20.4420  -32.0520 C   0  0  0  0  0  0  0  0  0  0  0  0
   -5.2940   19.8280  -32.6220 N   0  0  0  0  0  0  0  0  0  0  0  0
   -5.1650   18.6050  -33.4330 C   0  0  0  0  0  0  0  0  0  0  0  0
   -5.8030   17.3740  -32.7490 C   0  0  0  0  0  0  0  0  0  0  0  0
   -7.3200   17.2260  -32.9770 C   0  0  0  0  0  0  0  0  0  0  0  0
   -8.1060   18.3600  -32.4610 N   0  0  0  0  0  0  0  0  0  0  0  0
   -7.7800   19.6790  -33.0330 C   0  0  0  0  0  0  0  0  0  0  0  0
   -6.6190   20.4020  -32.3200 C   0  0  0  0  0  0  0  0  0  0  0  0
   -4.2210   21.6620  -31.3430 C   0  0  0  0  0  0  0  0  0  0  0  0
   -3.0580   22.2290  -30.8140 C   0  0  0  0  0  0  0  0  0  0  0  0
   -6.3473   25.5719  -31.8842 H   0  0  0  0  0  0  0  0  0  0  0  0
   -6.3127   25.9121  -30.1146 H   0  0  0  0  0  0  0  0  0  0  0  0
   -2.6490   25.9390  -28.9880 H   0  0  0  0  0  0  0  0  0  0  0  0
    0.2018   22.2837  -30.3877 H   0  0  0  0  0  0  0  0  0  0  0  0
   -0.6968   19.9846  -31.8299 H   0  0  0  0  0  0  0  0  0  0  0  0
   -2.7568   18.8958  -32.7768 H   0  0  0  0  0  0  0  0  0  0  0  0
   -5.6621   18.7687  -34.4005 H   0  0  0  0  0  0  0  0  0  0  0  0
   -4.0920   18.3990  -33.5608 H   0  0  0  0  0  0  0  0  0  0  0  0
   -5.3083   16.4714  -33.1371 H   0  0  0  0  0  0  0  0  0  0  0  0
   -5.6631   17.5121  -31.6667 H   0  0  0  0  0  0  0  0  0  0  0  0
   -7.5026   17.1394  -34.0583 H   0  0  0  0  0  0  0  0  0  0  0  0
   -7.6438   16.3309  -32.4257 H   0  0  0  0  0  0  0  0  0  0  0  0
   -7.9510   18.4050  -31.4260 H   0  0  0  0  0  0  0  0  0  0  0  0
   -7.5045   19.5397  -34.0888 H   0  0  0  0  0  0  0  0  0  0  0  0
   -8.6725   20.3097  -32.9080 H   0  0  0  0  0  0  0  0  0  0  0  0
   -6.6211   21.4566  -32.6329 H   0  0  0  0  0  0  0  0  0  0  0  0
   -6.7822   20.2873  -31.2382 H   0  0  0  0  0  0  0  0  0  0  0  0
   -5.1959   22.1540  -31.2108 H   0  0  0  0  0  0  0  0  0  0  0  0
  1  2  3  0
  2  3  1  0
  3  4  1  0
  4  5  1  0
  5  6  2  0
  5  7  1  0
  7  8  1  0
  8  9  1  0
  9 10  1  0
  9 11  2  0
  8 12  2  0
 12 13  1  0
 13 14  2  0
 14 15  1  0
 15 16  2  0
 16 17  1  0
 17 18  1  0
 18 19  1  0
 19 20  1  0
 20 21  1  0
 21 22  1  0
 22 23  1  0
 16 24  1  0
 24 25  2  0
 25  7  1  0
 25 13  1  0
 23 17  1  0
  3 26  1  0
  3 27  1  0
 10 28  1  0
 12 29  1  0
 14 30  1  0
 15 31  1  0
 18 32  1  0
 18 33  1  0
 19 34  1  0
 19 35  1  0
 20 36  1  0
 20 37  1  0
 21 38  1  0
 22 39  1  0
 22 40  1  0
 23 41  1  0
 23 42  1  0
 24 43  1  0
M  CHG  1  10  -1
M  END
>  <UniqueID>  (57) 
57

>  <SMILES>  (57) 
N#CCOC(=O)n1c(C([NH-])=O)cc2ccc(N3CCCNCC3)cc21

>  <Energy>  (57) 
93.5562366896608

>  <Genealogy>  (57) 
N#CCOC(=O)n1c(C([NH-])=O)cc2ccc(N3CCCNCC3)cc21 (protonated)
N#CCOC(=O)n1c(C([NH-])=O)cc2ccc(N3CCCNCC3)cc21 (3D coordinates assigned)
N#CCOC(=O)n1c(C([NH-])=O)cc2ccc(N3CCCNCC3)cc21 (nonaromatic ring conformer: 93.5562366896608 kcal/mol)

>  <smiles>  (57) 
N#CCOC(=O)n1c(C(N)=O)cc2ccc(N3CCCNCC3)cc21

>  <score_type>  (57) 
oracle

>  <origin>  (57) 
adg

>  <m_score__min__energy>  (57) 
-8.4499999999999993

>  <m_primary>  (57) 
energy

$$$$
58:0
     RDKit          3D

 49 51  0  0  0  0  0  0  0  0999 V2000
   -3.0700   19.3860  -26.9090 C   0  0  0  0  0  0  0  0  0  0  0  0
   -1.8560   20.4010  -27.8120 S   0  0  0  0  0  0  0  0  0  0  0  0
   -3.1150   21.4290  -28.5650 C   0  0  0  0  0  0  0  0  0  0  0  0
   -3.8380   22.1610  -27.8380 O   0  0  0  0  0  0  0  0  0  0  0  0
   -3.2950   21.3710  -29.9520 O   0  0  0  0  0  0  0  0  0  0  0  0
   -3.6490   22.4560  -30.7680 C   0  0  0  0  0  0  0  0  0  0  0  0
   -2.7690   23.2310  -31.2300 O   0  0  0  0  0  0  0  0  0  0  0  0
   -5.0380   22.7150  -31.0380 N   0  0  0  0  0  0  0  0  0  0  0  0
   -5.7730   23.8070  -30.6820 C   0  0  0  0  0  0  0  0  0  0  0  0
   -5.2460   25.0500  -30.0830 C   0  0  0  0  0  0  0  0  0  0  0  0
   -4.0750   25.6750  -30.6040 N   0  0  0  0  0  0  0  0  0  0  0  0
   -5.8640   25.5920  -29.1240 O   0  0  0  0  0  0  0  0  0  0  0  0
   -7.1110   23.6340  -31.0330 C   0  0  0  0  0  0  0  0  0  0  0  0
   -7.1740   22.3970  -31.6280 C   0  0  0  0  0  0  0  0  0  0  0  0
   -8.2630   21.7160  -32.1580 C   0  0  0  0  0  0  0  0  0  0  0  0
   -8.0430   20.4350  -32.6930 C   0  0  0  0  0  0  0  0  0  0  0  0
   -6.7460   19.8450  -32.6790 C   0  0  0  0  0  0  0  0  0  0  0  0
   -6.5320   18.5160  -33.2180 N   0  0  0  0  0  0  0  0  0  0  0  0
   -7.2150   17.3320  -32.7300 C   0  0  0  0  0  0  0  0  0  0  0  0
   -6.7520   16.1640  -33.5930 C   0  0  0  0  0  0  0  0  0  0  0  0
   -5.6410   16.7010  -34.5420 C   0  0  2  0  0  0  0  0  0  0  0  0
   -4.3180   16.0080  -34.3900 N   0  0  0  0  0  0  0  0  0  0  0  0
   -3.1750   16.9520  -34.4760 C   0  0  0  0  0  0  0  0  0  0  0  0
   -4.2390   15.3120  -33.0800 C   0  0  0  0  0  0  0  0  0  0  0  0
   -5.5520   18.2130  -34.2440 C   0  0  0  0  0  0  0  0  0  0  0  0
   -5.6660   20.5780  -32.1230 C   0  0  0  0  0  0  0  0  0  0  0  0
   -5.9120   21.8620  -31.6180 C   0  0  0  0  0  0  0  0  0  0  0  0
   -2.9200   19.5114  -25.8265 H   0  0  0  0  0  0  0  0  0  0  0  0
   -4.0876   19.7059  -27.1776 H   0  0  0  0  0  0  0  0  0  0  0  0
   -2.9354   18.3278  -27.1776 H   0  0  0  0  0  0  0  0  0  0  0  0
   -3.1340   25.2400  -30.4670 H   0  0  0  0  0  0  0  0  0  0  0  0
   -7.9400   24.3380  -30.8686 H   0  0  0  0  0  0  0  0  0  0  0  0
   -9.2669   22.1657  -32.1589 H   0  0  0  0  0  0  0  0  0  0  0  0
   -8.8857   19.8789  -33.1296 H   0  0  0  0  0  0  0  0  0  0  0  0
   -6.9526   17.1513  -31.6772 H   0  0  0  0  0  0  0  0  0  0  0  0
   -8.3064   17.4557  -32.7890 H   0  0  0  0  0  0  0  0  0  0  0  0
   -6.3484   15.3626  -32.9566 H   0  0  0  0  0  0  0  0  0  0  0  0
   -7.5914   15.7504  -34.1712 H   0  0  0  0  0  0  0  0  0  0  0  0
   -5.9025   16.5003  -35.5914 H   0  0  0  0  0  0  0  0  0  0  0  0
   -4.2140   15.2940  -35.1540 H   0  0  0  0  0  0  0  0  0  0  0  0
   -2.8465   17.2233  -33.4619 H   0  0  0  0  0  0  0  0  0  0  0  0
   -2.3440   16.4735  -35.0149 H   0  0  0  0  0  0  0  0  0  0  0  0
   -3.4879   17.8585  -35.0149 H   0  0  0  0  0  0  0  0  0  0  0  0
   -4.3226   16.0489  -32.2676 H   0  0  0  0  0  0  0  0  0  0  0  0
   -5.0603   14.5846  -33.0012 H   0  0  0  0  0  0  0  0  0  0  0  0
   -3.2755   14.7871  -33.0012 H   0  0  0  0  0  0  0  0  0  0  0  0
   -4.5432   18.4660  -33.8857 H   0  0  0  0  0  0  0  0  0  0  0  0
   -5.7512   18.7985  -35.1536 H   0  0  0  0  0  0  0  0  0  0  0  0
   -4.6547   20.1467  -32.0889 H   0  0  0  0  0  0  0  0  0  0  0  0
  1  2  1  0
  2  3  1  0
  3  4  2  0
  3  5  1  0
  5  6  1  0
  6  7  2  0
  6  8  1  0
  8  9  1  0
  9 10  1  0
 10 11  1  0
 10 12  2  0
  9 13  2  0
 13 14  1  0
 14 15  2  0
 15 16  1  0
 16 17  2  0
 17 18  1  0
 18 19  1  0
 19 20  1  0
 20 21  1  0
 21 22  1  0
 22 23  1  0
 22 24  1  0
 21 25  1  0
 17 26  1  0
 26 27  2  0
 27  8  1  0
 27 14  1  0
 25 18  1  0
  1 28  1  0
  1 29  1  0
  1 30  1  0
 11 31  1  0
 13 32  1  0
 15 33  1  0
 16 34  1  0
 19 35  1  0
 19 36  1  0
 20 37  1  0
 20 38  1  0
 21 39  1  6
 22 40  1  0
 23 41  1  0
 23 42  1  0
 23 43  1  0
 24 44  1  0
 24 45  1  0
 24 46  1  0
 25 47  1  0
 25 48  1  0
 26 49  1  0
M  CHG  2  11  -1  22   1
M  END
>  <UniqueID>  (58) 
58

>  <SMILES>  (58) 
CSC(=O)OC(=O)n1c(C([NH-])=O)cc2ccc(N3CC[C@H]([NH+](C)C)C3)cc21

>  <Energy>  (58) 
95.19147235525986

>  <Genealogy>  (58) 
CSC(=O)OC(=O)n1c(C([NH-])=O)cc2ccc(N3CC[C@H]([NH+](C)C)C3)cc21 (protonated)
CSC(=O)OC(=O)n1c(C([NH-])=O)cc2ccc(N3CC[C@H]([NH+](C)C)C3)cc21 (3D coordinates assigned)
CSC(=O)OC(=O)n1c(C([NH-])=O)cc2ccc(N3CC[C@H]([NH+](C)C)C3)cc21 (nonaromatic ring conformer: 95.19147235525986 kcal/mol)

>  <smiles>  (58) 
CSC(=O)OC(=O)n1c(C(N)=O)cc2ccc(N3CC[C@H](N(C)C)C3)cc21

>  <score_type>  (58) 
oracle

>  <origin>  (58) 
adg

>  <m_score__min__energy>  (58) 
-10.609999999999999

>  <m_primary>  (58) 
energy

$$$$
59:0
     RDKit          3D

 41 43  0  0  0  0  0  0  0  0999 V2000
   -0.4190   20.4300  -34.9580 C   0  0  0  0  0  0  0  0  0  0  0  0
   -0.8740   20.1310  -33.7350 C   0  0  0  0  0  0  0  0  0  0  0  0
   -0.9640   21.2160  -32.6950 C   0  0  0  0  0  0  0  0  0  0  0  0
   -1.3300   18.7560  -33.4110 C   0  0  0  0  0  0  0  0  0  0  0  0
   -0.6180   17.9940  -32.7000 O   0  0  0  0  0  0  0  0  0  0  0  0
   -2.5820   18.2680  -33.9150 N   0  0  0  0  0  0  0  0  0  0  0  0
   -2.7940   17.1840  -34.7110 C   0  0  0  0  0  0  0  0  0  0  0  0
   -1.7380   16.2490  -35.1730 C   0  0  0  0  0  0  0  0  0  0  0  0
   -0.7390   15.7550  -34.2770 N   0  0  0  0  0  0  0  0  0  0  0  0
   -1.7040   15.8840  -36.3780 O   0  0  0  0  0  0  0  0  0  0  0  0
   -4.1560   17.0660  -35.0030 C   0  0  0  0  0  0  0  0  0  0  0  0
   -4.7640   18.1230  -34.3580 C   0  0  0  0  0  0  0  0  0  0  0  0
   -6.1010   18.5000  -34.3120 C   0  0  0  0  0  0  0  0  0  0  0  0
   -6.4370   19.6540  -33.5820 C   0  0  0  0  0  0  0  0  0  0  0  0
   -5.4350   20.4080  -32.9110 C   0  0  0  0  0  0  0  0  0  0  0  0
   -5.7970   21.6360  -32.1590 C   0  0  0  0  0  0  0  0  0  0  0  0
   -7.1430   21.9870  -31.9690 C   0  0  0  0  0  0  0  0  0  0  0  0
   -7.4790   23.1450  -31.2640 C   0  0  0  0  0  0  0  0  0  0  0  0
   -6.4790   23.9670  -30.7400 C   0  0  0  0  0  0  0  0  0  0  0  0
   -5.1250   23.6370  -30.9160 C   0  0  0  0  0  0  0  0  0  0  0  0
   -4.0660   24.5110  -30.3610 C   0  0  0  0  0  0  0  0  0  0  0  0
   -3.8640   25.6580  -30.8410 O   0  0  0  0  0  0  0  0  0  0  0  0
   -3.2770   24.0750  -29.3020 O   0  0  0  0  0  0  0  0  0  0  0  0
   -4.7920   22.4680  -31.6270 C   0  0  0  0  0  0  0  0  0  0  0  0
   -4.0870   19.9830  -32.9770 C   0  0  0  0  0  0  0  0  0  0  0  0
   -3.7880   18.8330  -33.7120 C   0  0  0  0  0  0  0  0  0  0  0  0
   -0.3489   19.6454  -35.7258 H   0  0  0  0  0  0  0  0  0  0  0  0
   -0.1152   21.4603  -35.1951 H   0  0  0  0  0  0  0  0  0  0  0  0
   -0.9267   20.7663  -31.6918 H   0  0  0  0  0  0  0  0  0  0  0  0
   -0.1205   21.9114  -32.8167 H   0  0  0  0  0  0  0  0  0  0  0  0
   -1.9106   21.7629  -32.8167 H   0  0  0  0  0  0  0  0  0  0  0  0
   -0.6950   16.0510  -33.2780 H   0  0  0  0  0  0  0  0  0  0  0  0
   -0.0070   15.0950  -34.6240 H   0  0  0  0  0  0  0  0  0  0  0  0
   -4.6407   16.2931  -35.6176 H   0  0  0  0  0  0  0  0  0  0  0  0
   -6.8732   17.9132  -34.8311 H   0  0  0  0  0  0  0  0  0  0  0  0
   -7.4871   19.9773  -33.5293 H   0  0  0  0  0  0  0  0  0  0  0  0
   -7.9380   21.3460  -32.3779 H   0  0  0  0  0  0  0  0  0  0  0  0
   -8.5367   23.4109  -31.1208 H   0  0  0  0  0  0  0  0  0  0  0  0
   -6.7530   24.8774  -30.1867 H   0  0  0  0  0  0  0  0  0  0  0  0
   -3.7343   22.2011  -31.7688 H   0  0  0  0  0  0  0  0  0  0  0  0
   -3.2935   20.5445  -32.4620 H   0  0  0  0  0  0  0  0  0  0  0  0
  1  2  2  0
  2  3  1  0
  2  4  1  0
  4  5  2  0
  4  6  1  0
  6  7  1  0
  7  8  1  0
  8  9  1  0
  8 10  2  0
  7 11  2  0
 11 12  1  0
 12 13  2  0
 13 14  1  0
 14 15  2  0
 15 16  1  0
 16 17  2  0
 17 18  1  0
 18 19  2  0
 19 20  1  0
 20 21  1  0
 21 22  2  0
 21 23  1  0
 20 24  2  0
 15 25  1  0
 25 26  2  0
 26  6  1  0
 26 12  1  0
 24 16  1  0
  1 27  1  0
  1 28  1  0
  3 29  1  0
  3 30  1  0
  3 31  1  0
  9 32  1  0
  9 33  1  0
 11 34  1  0
 13 35  1  0
 14 36  1  0
 17 37  1  0
 18 38  1  0
 19 39  1  0
 24 40  1  0
 25 41  1  0
M  CHG  1  23  -1
M  END
>  <UniqueID>  (59) 
59

>  <SMILES>  (59) 
C=C(C)C(=O)n1c(C(N)=O)cc2ccc(-c3cccc(C(=O)[O-])c3)cc21

>  <Energy>  (59) 
88.04617193538914

>  <Genealogy>  (59) 
C=C(C)C(=O)n1c(C(N)=O)cc2ccc(-c3cccc(C(=O)[O-])c3)cc21 (protonated)
C=C(C)C(=O)n1c(C(N)=O)cc2ccc(-c3cccc(C(=O)[O-])c3)cc21 (3D coordinates assigned)
C=C(C)C(=O)n1c(C(N)=O)cc2ccc(-c3cccc(C(=O)[O-])c3)cc21 (optimized conformer: 88.04617193538914 kcal/mol)

>  <smiles>  (59) 
C=C(C)C(=O)n1c(C(N)=O)cc2ccc(-c3cccc(C(=O)O)c3)cc21

>  <score_type>  (59) 
oracle

>  <origin>  (59) 
adg

>  <m_score__min__energy>  (59) 
-10.19

>  <m_primary>  (59) 
energy

$$$$
60:0
     RDKit          3D

 33 34  0  0  0  0  0  0  0  0999 V2000
   -3.8300   25.2880  -30.0690 N   0  0  0  0  0  0  0  0  0  0  0  0
   -5.1600   25.2420  -30.5100 C   0  0  0  0  0  0  0  0  0  0  0  0
   -5.8190   26.3130  -30.5460 O   0  0  0  0  0  0  0  0  0  0  0  0
   -5.7420   23.9170  -30.9070 C   0  0  0  0  0  0  0  0  0  0  0  0
   -7.1220   23.7030  -30.8770 C   0  0  0  0  0  0  0  0  0  0  0  0
   -7.3120   22.4110  -31.2650 C   0  0  0  0  0  0  0  0  0  0  0  0
   -8.5150   21.7080  -31.4030 C   0  0  0  0  0  0  0  0  0  0  0  0
   -8.4630   20.3780  -31.8290 C   0  0  0  0  0  0  0  0  0  0  0  0
   -7.2180   19.7670  -32.1000 C   0  0  0  0  0  0  0  0  0  0  0  0
   -7.1350   18.3670  -32.5770 C   0  0  0  0  0  0  0  0  0  0  0  0
   -6.1480   17.6990  -31.8770 F   0  0  0  0  0  0  0  0  0  0  0  0
   -6.8360   18.3560  -33.9250 F   0  0  0  0  0  0  0  0  0  0  0  0
   -8.3250   17.6810  -32.3700 F   0  0  0  0  0  0  0  0  0  0  0  0
   -6.0190   20.5140  -31.9600 C   0  0  0  0  0  0  0  0  0  0  0  0
   -6.1070   21.8590  -31.5240 C   0  0  0  0  0  0  0  0  0  0  0  0
   -5.1010   22.7540  -31.3190 N   0  0  0  0  0  0  0  0  0  0  0  0
   -3.6910   22.4990  -31.5120 C   0  0  0  0  0  0  0  0  0  0  0  0
   -3.3280   21.6050  -32.3120 O   0  0  0  0  0  0  0  0  0  0  0  0
   -2.7280   23.2120  -30.8050 O   0  0  0  0  0  0  0  0  0  0  0  0
   -1.6680   22.5600  -30.0850 C   0  0  0  0  0  0  0  0  0  0  0  0
   -1.4210   23.2470  -28.3570 P   0  0  0  0  0  0  0  0  0  0  0  0
   -0.9140   25.0210  -28.4090 C   0  0  0  0  0  0  0  0  0  0  0  0
   -1.6370   25.8870  -28.9680 O   0  0  0  0  0  0  0  0  0  0  0  0
    0.3140   25.3910  -27.8710 O   0  0  0  0  0  0  0  0  0  0  0  0
   -3.0860   25.6610  -30.7040 H   0  0  0  0  0  0  0  0  0  0  0  0
   -3.5920   24.9450  -29.1060 H   0  0  0  0  0  0  0  0  0  0  0  0
   -7.8982   24.4304  -30.5968 H   0  0  0  0  0  0  0  0  0  0  0  0
   -9.4781   22.1911  -31.1814 H   0  0  0  0  0  0  0  0  0  0  0  0
   -9.3938   19.8052  -31.9537 H   0  0  0  0  0  0  0  0  0  0  0  0
   -5.0433   20.0586  -32.1851 H   0  0  0  0  0  0  0  0  0  0  0  0
   -1.9061   21.4890  -30.0052 H   0  0  0  0  0  0  0  0  0  0  0  0
   -0.7365   22.7344  -30.6435 H   0  0  0  0  0  0  0  0  0  0  0  0
   -2.4710   22.9450  -27.3990 H   0  0  0  0  0  0  0  0  0  0  0  0
  1  2  1  0
  2  3  2  0
  2  4  1  0
  4  5  2  0
  5  6  1  0
  6  7  2  0
  7  8  1  0
  8  9  2  0
  9 10  1  0
 10 11  1  0
 10 12  1  0
 10 13  1  0
  9 14  1  0
 14 15  2  0
 15 16  1  0
 16 17  1  0
 17 18  2  0
 17 19  1  0
 19 20  1  0
 20 21  1  0
 21 22  1  0
 22 23  2  0
 22 24  1  0
 16  4  1  0
 15  6  1  0
  1 25  1  0
  1 26  1  0
  5 27  1  0
  7 28  1  0
  8 29  1  0
 14 30  1  0
 20 31  1  0
 20 32  1  0
 21 33  1  0
M  CHG  1  24  -1
M  END
>  <UniqueID>  (60) 
60

>  <SMILES>  (60) 
NC(=O)c1cc2ccc(C(F)(F)F)cc2n1C(=O)OC[P@@H]C(=O)[O-]

>  <Energy>  (60) 
117.86295156650547

>  <Genealogy>  (60) 
NC(=O)c1cc2ccc(C(F)(F)F)cc2n1C(=O)OCPC(=O)[O-] (protonated)
NC(=O)c1cc2ccc(C(F)(F)F)cc2n1C(=O)OC[P@@H]C(=O)[O-] (chirality)
NC(=O)c1cc2ccc(C(F)(F)F)cc2n1C(=O)OC[P@@H]C(=O)[O-] (3D coordinates assigned)
NC(=O)c1cc2ccc(C(F)(F)F)cc2n1C(=O)OC[P@@H]C(=O)[O-] (optimized conformer: 117.86295156650547 kcal/mol)

>  <smiles>  (60) 
NC(=O)c1cc2ccc(C(F)(F)F)cc2n1C(=O)OCPC(=O)O

>  <score_type>  (60) 
oracle

>  <origin>  (60) 
adg

>  <m_score__min__energy>  (60) 
-9.8499999999999996

>  <m_primary>  (60) 
energy

$$$$
61:0
     RDKit          3D

 43 44  0  0  0  0  0  0  0  0999 V2000
   -4.5490   17.4060  -33.8640 C   0  0  0  0  0  0  0  0  0  0  0  0
   -5.7970   17.9010  -33.2680 N   0  0  0  0  0  0  0  0  0  0  0  0
   -6.9380   16.9840  -33.1540 C   0  0  0  0  0  0  0  0  0  0  0  0
   -5.9050   19.2800  -32.8180 C   0  0  0  0  0  0  0  0  0  0  0  0
   -7.0340   20.0780  -33.1710 C   0  0  0  0  0  0  0  0  0  0  0  0
   -7.1700   21.3950  -32.7000 C   0  0  0  0  0  0  0  0  0  0  0  0
   -6.1640   21.9060  -31.8900 C   0  0  0  0  0  0  0  0  0  0  0  0
   -6.0510   23.1360  -31.2780 C   0  0  0  0  0  0  0  0  0  0  0  0
   -4.8410   23.0940  -30.5860 C   0  0  0  0  0  0  0  0  0  0  0  0
   -4.2900   24.2310  -29.8210 C   0  0  0  0  0  0  0  0  0  0  0  0
   -3.5590   25.2670  -30.4720 N   0  0  0  0  0  0  0  0  0  0  0  0
   -4.4910   24.3060  -28.5800 O   0  0  0  0  0  0  0  0  0  0  0  0
   -4.2390   21.8850  -30.7610 N   0  0  0  0  0  0  0  0  0  0  0  0
   -3.0130   21.4150  -30.1880 C   0  0  0  0  0  0  0  0  0  0  0  0
   -3.0430   20.5120  -29.3100 O   0  0  0  0  0  0  0  0  0  0  0  0
   -1.7140   22.0810  -30.5220 C   0  0  0  0  0  0  0  0  0  0  0  0
   -1.6690   23.3740  -29.9230 O   0  0  0  0  0  0  0  0  0  0  0  0
   -0.8430   23.6900  -28.8390 C   0  0  0  0  0  0  0  0  0  0  0  0
    0.3530   24.0460  -29.0270 O   0  0  0  0  0  0  0  0  0  0  0  0
   -1.3610   23.5840  -27.5450 O   0  0  0  0  0  0  0  0  0  0  0  0
   -1.4770   24.6830  -26.6420 C   0  0  0  0  0  0  0  0  0  0  0  0
   -1.2920   26.0180  -27.3650 C   0  0  0  0  0  0  0  0  0  0  0  0
   -1.9830   26.0110  -28.5820 O   0  0  0  0  0  0  0  0  0  0  0  0
   -5.0590   21.1730  -31.5610 C   0  0  0  0  0  0  0  0  0  0  0  0
   -4.8990   19.8560  -31.9980 C   0  0  0  0  0  0  0  0  0  0  0  0
   -3.8463   17.1273  -33.0649 H   0  0  0  0  0  0  0  0  0  0  0  0
   -4.7642   16.5251  -34.4867 H   0  0  0  0  0  0  0  0  0  0  0  0
   -4.1019   18.1949  -34.4867 H   0  0  0  0  0  0  0  0  0  0  0  0
   -7.1602   16.8054  -32.0916 H   0  0  0  0  0  0  0  0  0  0  0  0
   -7.8170   17.4298  -33.6425 H   0  0  0  0  0  0  0  0  0  0  0  0
   -6.6917   16.0297  -33.6425 H   0  0  0  0  0  0  0  0  0  0  0  0
   -7.8118   19.6547  -33.8235 H   0  0  0  0  0  0  0  0  0  0  0  0
   -8.0473   22.0033  -32.9650 H   0  0  0  0  0  0  0  0  0  0  0  0
   -6.7636   23.9726  -31.3254 H   0  0  0  0  0  0  0  0  0  0  0  0
   -2.5160   25.2990  -30.4250 H   0  0  0  0  0  0  0  0  0  0  0  0
   -0.8818   21.4717  -30.1396 H   0  0  0  0  0  0  0  0  0  0  0  0
   -1.6266   22.1821  -31.6139 H   0  0  0  0  0  0  0  0  0  0  0  0
   -2.4742   24.6619  -26.1781 H   0  0  0  0  0  0  0  0  0  0  0  0
   -0.6906   24.5897  -25.8785 H   0  0  0  0  0  0  0  0  0  0  0  0
   -1.6796   26.8301  -26.7323 H   0  0  0  0  0  0  0  0  0  0  0  0
   -0.2210   26.1726  -27.5625 H   0  0  0  0  0  0  0  0  0  0  0  0
   -2.4470   25.1360  -28.6290 H   0  0  0  0  0  0  0  0  0  0  0  0
   -4.0095   19.2754  -31.7120 H   0  0  0  0  0  0  0  0  0  0  0  0
  1  2  1  0
  2  3  1  0
  2  4  1  0
  4  5  2  0
  5  6  1  0
  6  7  2  0
  7  8  1  0
  8  9  2  0
  9 10  1  0
 10 11  1  0
 10 12  2  0
  9 13  1  0
 13 14  1  0
 14 15  2  0
 14 16  1  0
 16 17  1  0
 17 18  1  0
 18 19  2  0
 18 20  1  0
 20 21  1  0
 21 22  1  0
 22 23  1  0
 13 24  1  0
 24 25  2  0
 25  4  1  0
 24  7  1  0
  1 26  1  0
  1 27  1  0
  1 28  1  0
  3 29  1  0
  3 30  1  0
  3 31  1  0
  5 32  1  0
  6 33  1  0
  8 34  1  0
 11 35  1  0
 16 36  1  0
 16 37  1  0
 21 38  1  0
 21 39  1  0
 22 40  1  0
 22 41  1  0
 23 42  1  0
 25 43  1  0
M  CHG  1  11  -1
M  END
>  <UniqueID>  (61) 
61

>  <SMILES>  (61) 
CN(C)c1ccc2cc(C([NH-])=O)n(C(=O)COC(=O)OCCO)c2c1

>  <Energy>  (61) 
75.49376809005449

>  <Genealogy>  (61) 
CN(C)c1ccc2cc(C([NH-])=O)n(C(=O)COC(=O)OCCO)c2c1 (protonated)
CN(C)c1ccc2cc(C([NH-])=O)n(C(=O)COC(=O)OCCO)c2c1 (3D coordinates assigned)
CN(C)c1ccc2cc(C([NH-])=O)n(C(=O)COC(=O)OCCO)c2c1 (optimized conformer: 75.49376809005449 kcal/mol)

>  <smiles>  (61) 
CN(C)c1ccc2cc(C(N)=O)n(C(=O)COC(=O)OCCO)c2c1

>  <score_type>  (61) 
oracle

>  <origin>  (61) 
adg

>  <m_score__min__energy>  (61) 
-9.7200000000000006

>  <m_primary>  (61) 
energy

$$$$
62:0
     RDKit          3D

 33 34  0  0  0  0  0  0  0  0999 V2000
   -4.2440   25.5860  -30.6930 N   0  0  0  0  0  0  0  0  0  0  0  0
   -5.5930   25.2200  -30.3970 C   0  0  0  0  0  0  0  0  0  0  0  0
   -6.3040   26.0040  -29.7130 O   0  0  0  0  0  0  0  0  0  0  0  0
   -6.1640   23.9520  -30.9020 C   0  0  0  0  0  0  0  0  0  0  0  0
   -7.5050   23.7740  -31.2430 C   0  0  0  0  0  0  0  0  0  0  0  0
   -7.6280   22.4390  -31.5560 C   0  0  0  0  0  0  0  0  0  0  0  0
   -8.7430   21.7110  -31.9570 C   0  0  0  0  0  0  0  0  0  0  0  0
   -8.5750   20.3400  -32.2220 C   0  0  0  0  0  0  0  0  0  0  0  0
   -7.2990   19.7290  -32.1030 C   0  0  0  0  0  0  0  0  0  0  0  0
   -7.1370   18.2510  -32.3530 C   0  0  0  0  0  0  0  0  0  0  0  0
   -6.2630   17.7260  -31.4200 F   0  0  0  0  0  0  0  0  0  0  0  0
   -8.3540   17.6010  -32.2460 F   0  0  0  0  0  0  0  0  0  0  0  0
   -6.6340   18.0220  -33.6220 F   0  0  0  0  0  0  0  0  0  0  0  0
   -6.1960   20.4990  -31.6650 C   0  0  0  0  0  0  0  0  0  0  0  0
   -6.3980   21.8580  -31.4020 C   0  0  0  0  0  0  0  0  0  0  0  0
   -5.4880   22.7730  -31.0060 N   0  0  0  0  0  0  0  0  0  0  0  0
   -4.0850   22.5390  -30.8100 C   0  0  0  0  0  0  0  0  0  0  0  0
   -3.2610   22.9080  -31.6880 O   0  0  0  0  0  0  0  0  0  0  0  0
   -3.5800   21.9510  -29.5210 C   0  0  0  0  0  0  0  0  0  0  0  0
   -3.0580   23.0380  -28.5750 C   0  0  0  0  0  0  0  0  0  0  0  0
   -2.0570   23.9280  -29.2490 C   0  0  0  0  0  0  0  0  0  0  0  0
   -0.9970   23.4440  -29.7260 O   0  0  0  0  0  0  0  0  0  0  0  0
   -2.2940   25.2940  -29.3470 O   0  0  0  0  0  0  0  0  0  0  0  0
   -3.8650   26.5000  -30.3610 H   0  0  0  0  0  0  0  0  0  0  0  0
   -3.6030   24.9380  -31.2030 H   0  0  0  0  0  0  0  0  0  0  0  0
   -8.2961   24.5381  -31.2585 H   0  0  0  0  0  0  0  0  0  0  0  0
   -9.7262   22.1927  -32.0637 H   0  0  0  0  0  0  0  0  0  0  0  0
   -9.4419   19.7344  -32.5248 H   0  0  0  0  0  0  0  0  0  0  0  0
   -5.2046   20.0407  -31.5345 H   0  0  0  0  0  0  0  0  0  0  0  0
   -4.4022   21.4122  -29.0274 H   0  0  0  0  0  0  0  0  0  0  0  0
   -2.7496   21.2685  -29.7546 H   0  0  0  0  0  0  0  0  0  0  0  0
   -3.9058   23.6501  -28.2334 H   0  0  0  0  0  0  0  0  0  0  0  0
   -2.5606   22.5440  -27.7273 H   0  0  0  0  0  0  0  0  0  0  0  0
  1  2  1  0
  2  3  2  0
  2  4  1  0
  4  5  2  0
  5  6  1  0
  6  7  2  0
  7  8  1  0
  8  9  2  0
  9 10  1  0
 10 11  1  0
 10 12  1  0
 10 13  1  0
  9 14  1  0
 14 15  2  0
 15 16  1  0
 16 17  1  0
 17 18  2  0
 17 19  1  0
 19 20  1  0
 20 21  1  0
 21 22  2  0
 21 23  1  0
 16  4  1  0
 15  6  1  0
  1 24  1  0
  1 25  1  0
  5 26  1  0
  7 27  1  0
  8 28  1  0
 14 29  1  0
 19 30  1  0
 19 31  1  0
 20 32  1  0
 20 33  1  0
M  CHG  1  23  -1
M  END
>  <UniqueID>  (62) 
62

>  <SMILES>  (62) 
NC(=O)c1cc2ccc(C(F)(F)F)cc2n1C(=O)CCC(=O)[O-]

>  <Energy>  (62) 
68.9820841553916

>  <Genealogy>  (62) 
NC(=O)c1cc2ccc(C(F)(F)F)cc2n1C(=O)CCC(=O)[O-] (protonated)
NC(=O)c1cc2ccc(C(F)(F)F)cc2n1C(=O)CCC(=O)[O-] (3D coordinates assigned)
NC(=O)c1cc2ccc(C(F)(F)F)cc2n1C(=O)CCC(=O)[O-] (optimized conformer: 68.9820841553916 kcal/mol)

>  <smiles>  (62) 
NC(=O)c1cc2ccc(C(F)(F)F)cc2n1C(=O)CCC(=O)O

>  <score_type>  (62) 
oracle

>  <origin>  (62) 
adg

>  <m_score__min__energy>  (62) 
-10.199999999999999

>  <m_primary>  (62) 
energy

$$$$
63:0
     RDKit          3D

 38 40  0  0  0  0  0  0  0  0999 V2000
   -2.5270   17.4210  -33.0010 N   0  0  0  0  0  0  0  0  0  0  0  0
   -3.6120   17.6940  -33.8900 C   0  0  0  0  0  0  0  0  0  0  0  0
   -3.4910   17.4090  -35.1120 O   0  0  0  0  0  0  0  0  0  0  0  0
   -4.8500   18.3460  -33.4170 C   0  0  0  0  0  0  0  0  0  0  0  0
   -6.1090   17.7510  -33.4760 C   0  0  0  0  0  0  0  0  0  0  0  0
   -6.9740   18.6760  -32.9350 C   0  0  0  0  0  0  0  0  0  0  0  0
   -8.3420   18.5930  -32.7020 C   0  0  0  0  0  0  0  0  0  0  0  0
   -8.9690   19.6760  -32.0630 C   0  0  0  0  0  0  0  0  0  0  0  0
   -8.2240   20.8190  -31.6730 C   0  0  0  0  0  0  0  0  0  0  0  0
   -8.8960   21.9450  -30.9270 C   0  0  0  0  0  0  0  0  0  0  0  0
   -9.8710   21.4530  -30.0760 F   0  0  0  0  0  0  0  0  0  0  0  0
   -7.9510   22.6260  -30.1840 F   0  0  0  0  0  0  0  0  0  0  0  0
   -9.4970   22.8260  -31.8100 F   0  0  0  0  0  0  0  0  0  0  0  0
   -6.8290   20.8510  -31.9000 C   0  0  0  0  0  0  0  0  0  0  0  0
   -6.2370   19.7710  -32.5640 C   0  0  0  0  0  0  0  0  0  0  0  0
   -4.9340   19.5860  -32.8620 N   0  0  0  0  0  0  0  0  0  0  0  0
   -3.8440   20.4470  -32.4950 C   0  0  0  0  0  0  0  0  0  0  0  0
   -2.7480   19.9340  -32.1460 O   0  0  0  0  0  0  0  0  0  0  0  0
   -4.0060   21.9170  -32.5290 C   0  0  0  0  0  0  0  0  0  0  0  0
   -4.2280   22.4840  -33.6320 O   0  0  0  0  0  0  0  0  0  0  0  0
   -3.9160   22.7180  -31.3350 N   0  0  0  0  0  0  0  0  0  0  0  0
   -4.9660   23.7070  -31.0570 C   0  0  0  0  0  0  0  0  0  0  0  0
   -4.3680   24.9580  -30.4890 C   0  0  0  0  0  0  0  0  0  0  0  0
   -4.9980   26.0470  -30.5590 O   0  0  0  0  0  0  0  0  0  0  0  0
   -3.1090   24.9130  -29.8190 N   0  0  0  0  0  0  0  0  0  0  0  0
   -2.3700   23.6950  -29.7180 C   0  0  0  0  0  0  0  0  0  0  0  0
   -1.2730   23.6820  -29.1010 O   0  0  0  0  0  0  0  0  0  0  0  0
   -2.9140   22.4240  -30.3000 C   0  0  0  0  0  0  0  0  0  0  0  0
   -2.5030   17.8220  -32.0370 H   0  0  0  0  0  0  0  0  0  0  0  0
   -1.6890   16.9020  -33.3430 H   0  0  0  0  0  0  0  0  0  0  0  0
   -6.3585   16.7550  -33.8706 H   0  0  0  0  0  0  0  0  0  0  0  0
   -8.9162   17.7063  -33.0086 H   0  0  0  0  0  0  0  0  0  0  0  0
  -10.0499   19.6373  -31.8628 H   0  0  0  0  0  0  0  0  0  0  0  0
   -6.2232   21.7049  -31.5625 H   0  0  0  0  0  0  0  0  0  0  0  0
   -5.4926   23.9491  -31.9919 H   0  0  0  0  0  0  0  0  0  0  0  0
   -5.6700   23.2839  -30.3253 H   0  0  0  0  0  0  0  0  0  0  0  0
   -2.0898   21.8490  -30.7473 H   0  0  0  0  0  0  0  0  0  0  0  0
   -3.3917   21.8419  -29.4981 H   0  0  0  0  0  0  0  0  0  0  0  0
  1  2  1  0
  2  3  2  0
  2  4  1  0
  4  5  2  0
  5  6  1  0
  6  7  2  0
  7  8  1  0
  8  9  2  0
  9 10  1  0
 10 11  1  0
 10 12  1  0
 10 13  1  0
  9 14  1  0
 14 15  2  0
 15 16  1  0
 16 17  1  0
 17 18  2  0
 17 19  1  0
 19 20  2  0
 19 21  1  0
 21 22  1  0
 22 23  1  0
 23 24  2  0
 23 25  1  0
 25 26  1  0
 26 27  2  0
 26 28  1  0
 16  4  1  0
 28 21  1  0
 15  6  1  0
  1 29  1  0
  1 30  1  0
  5 31  1  0
  7 32  1  0
  8 33  1  0
 14 34  1  0
 22 35  1  0
 22 36  1  0
 28 37  1  0
 28 38  1  0
M  CHG  1  25  -1
M  END
>  <UniqueID>  (63) 
63

>  <SMILES>  (63) 
NC(=O)c1cc2ccc(C(F)(F)F)cc2n1C(=O)C(=O)N1CC(=O)[N-]C(=O)C1

>  <Energy>  (63) 
84.05735699984139

>  <Genealogy>  (63) 
NC(=O)c1cc2ccc(C(F)(F)F)cc2n1C(=O)C(=O)N1CC(=O)[N-]C(=O)C1 (protonated)
NC(=O)c1cc2ccc(C(F)(F)F)cc2n1C(=O)C(=O)N1CC(=O)[N-]C(=O)C1 (3D coordinates assigned)
NC(=O)c1cc2ccc(C(F)(F)F)cc2n1C(=O)C(=O)N1CC(=O)[N-]C(=O)C1 (nonaromatic ring conformer: 84.05735699984139 kcal/mol)

>  <smiles>  (63) 
NC(=O)c1cc2ccc(C(F)(F)F)cc2n1C(=O)C(=O)N1CC(=O)NC(=O)C1

>  <score_type>  (63) 
oracle

>  <origin>  (63) 
adg

>  <m_score__min__energy>  (63) 
-9.5700000000000003

>  <m_primary>  (63) 
energy

$$$$
64:0
     RDKit          3D

 44 46  0  0  0  0  0  0  0  0999 V2000
   -3.8610   25.3820  -30.7910 N   0  0  0  0  0  0  0  0  0  0  0  0
   -4.9810   24.7440  -30.1800 C   0  0  0  0  0  0  0  0  0  0  0  0
   -5.5170   25.2750  -29.1700 O   0  0  0  0  0  0  0  0  0  0  0  0
   -5.5500   23.5030  -30.7440 C   0  0  0  0  0  0  0  0  0  0  0  0
   -6.9140   23.3100  -30.9590 C   0  0  0  0  0  0  0  0  0  0  0  0
   -7.0140   22.0900  -31.5890 C   0  0  0  0  0  0  0  0  0  0  0  0
   -8.1370   21.4060  -32.0430 C   0  0  0  0  0  0  0  0  0  0  0  0
   -7.9440   20.1520  -32.6480 C   0  0  0  0  0  0  0  0  0  0  0  0
   -6.6450   19.5950  -32.7680 C   0  0  0  0  0  0  0  0  0  0  0  0
   -6.4530   18.2670  -33.4560 C   0  0  0  0  0  0  0  0  0  0  0  0
   -7.6170   17.5200  -33.4050 F   0  0  0  0  0  0  0  0  0  0  0  0
   -5.4460   17.5390  -32.8470 F   0  0  0  0  0  0  0  0  0  0  0  0
   -6.1140   18.4850  -34.7780 F   0  0  0  0  0  0  0  0  0  0  0  0
   -5.5270   20.3330  -32.3150 C   0  0  0  0  0  0  0  0  0  0  0  0
   -5.7480   21.5840  -31.7300 C   0  0  0  0  0  0  0  0  0  0  0  0
   -4.8390   22.4370  -31.2090 N   0  0  0  0  0  0  0  0  0  0  0  0
   -3.4250   22.2190  -31.1230 C   0  0  0  0  0  0  0  0  0  0  0  0
   -2.6310   23.1940  -31.2170 O   0  0  0  0  0  0  0  0  0  0  0  0
   -2.9370   20.9220  -30.9320 O   0  0  0  0  0  0  0  0  0  0  0  0
   -2.1170   20.5470  -29.8270 C   0  0  0  0  0  0  0  0  0  0  0  0
   -1.1430   21.6440  -29.4860 C   0  0  0  0  0  0  0  0  0  0  0  0
    0.0390   21.5420  -29.9120 O   0  0  0  0  0  0  0  0  0  0  0  0
   -1.5270   22.7850  -28.6830 N   0  0  0  0  0  0  0  0  0  0  0  0
   -2.8290   22.8120  -27.9980 C   0  0  0  0  0  0  0  0  0  0  0  0
   -3.0410   24.1420  -27.2680 C   0  0  0  0  0  0  0  0  0  0  0  0
   -2.6420   25.2610  -28.1270 N   0  0  0  0  0  0  0  0  0  0  0  0
   -1.2020   25.2440  -28.4460 C   0  0  0  0  0  0  0  0  0  0  0  0
   -0.5510   23.8450  -28.3890 C   0  0  0  0  0  0  0  0  0  0  0  0
   -2.8980   25.2620  -30.4070 H   0  0  0  0  0  0  0  0  0  0  0  0
   -7.7353   23.9881  -30.6839 H   0  0  0  0  0  0  0  0  0  0  0  0
   -9.1446   21.8331  -31.9320 H   0  0  0  0  0  0  0  0  0  0  0  0
   -8.8112   19.5956  -33.0332 H   0  0  0  0  0  0  0  0  0  0  0  0
   -4.5078   19.9327  -32.4202 H   0  0  0  0  0  0  0  0  0  0  0  0
   -2.7567   20.3488  -28.9543 H   0  0  0  0  0  0  0  0  0  0  0  0
   -1.5499   19.6447  -30.0995 H   0  0  0  0  0  0  0  0  0  0  0  0
   -3.6288   22.6788  -28.7414 H   0  0  0  0  0  0  0  0  0  0  0  0
   -2.8506   21.9995  -27.2568 H   0  0  0  0  0  0  0  0  0  0  0  0
   -4.1040   24.2468  -27.0054 H   0  0  0  0  0  0  0  0  0  0  0  0
   -2.4257   24.1527  -26.3562 H   0  0  0  0  0  0  0  0  0  0  0  0
   -3.1890   25.2040  -29.0200 H   0  0  0  0  0  0  0  0  0  0  0  0
   -1.0704   25.6432  -29.4625 H   0  0  0  0  0  0  0  0  0  0  0  0
   -0.7037   25.8530  -27.6774 H   0  0  0  0  0  0  0  0  0  0  0  0
    0.2615   23.7982  -29.1290 H   0  0  0  0  0  0  0  0  0  0  0  0
   -0.1634   23.6854  -27.3720 H   0  0  0  0  0  0  0  0  0  0  0  0
  1  2  1  0
  2  3  2  0
  2  4  1  0
  4  5  2  0
  5  6  1  0
  6  7  2  0
  7  8  1  0
  8  9  2  0
  9 10  1  0
 10 11  1  0
 10 12  1  0
 10 13  1  0
  9 14  1  0
 14 15  2  0
 15 16  1  0
 16 17  1  0
 17 18  2  0
 17 19  1  0
 19 20  1  0
 20 21  1  0
 21 22  2  0
 21 23  1  0
 23 24  1  0
 24 25  1  0
 25 26  1  0
 26 27  1  0
 27 28  1  0
 16  4  1  0
 28 23  1  0
 15  6  1  0
  1 29  1  0
  5 30  1  0
  7 31  1  0
  8 32  1  0
 14 33  1  0
 20 34  1  0
 20 35  1  0
 24 36  1  0
 24 37  1  0
 25 38  1  0
 25 39  1  0
 26 40  1  0
 27 41  1  0
 27 42  1  0
 28 43  1  0
 28 44  1  0
M  CHG  1   1  -1
M  END
>  <UniqueID>  (64) 
64

>  <SMILES>  (64) 
[NH-]C(=O)c1cc2ccc(C(F)(F)F)cc2n1C(=O)OCC(=O)N1CCNCC1

>  <Energy>  (64) 
86.98800770843513

>  <Genealogy>  (64) 
[NH-]C(=O)c1cc2ccc(C(F)(F)F)cc2n1C(=O)OCC(=O)N1CCNCC1 (protonated)
[NH-]C(=O)c1cc2ccc(C(F)(F)F)cc2n1C(=O)OCC(=O)N1CCNCC1 (3D coordinates assigned)
[NH-]C(=O)c1cc2ccc(C(F)(F)F)cc2n1C(=O)OCC(=O)N1CCNCC1 (nonaromatic ring conformer: 86.98800770843513 kcal/mol)

>  <smiles>  (64) 
NC(=O)c1cc2ccc(C(F)(F)F)cc2n1C(=O)OCC(=O)N1CCNCC1

>  <score_type>  (64) 
oracle

>  <origin>  (64) 
adg

>  <m_score__min__energy>  (64) 
-10.529999999999999

>  <m_primary>  (64) 
energy

$$$$
65:0
     RDKit          3D

 39 41  0  0  0  0  0  0  0  0999 V2000
   -2.3730   21.2870  -31.1620 C   0  0  0  0  0  0  0  0  0  0  0  0
   -3.3580   21.7740  -30.2450 O   0  0  0  0  0  0  0  0  0  0  0  0
   -4.1350   22.8350  -30.6630 C   0  0  0  0  0  0  0  0  0  0  0  0
   -3.5140   23.9490  -30.7560 O   0  0  0  0  0  0  0  0  0  0  0  0
   -5.5090   22.7750  -30.9830 N   0  0  0  0  0  0  0  0  0  0  0  0
   -6.4330   23.7320  -30.8120 C   0  0  0  0  0  0  0  0  0  0  0  0
   -6.3240   25.0700  -30.2720 C   0  0  0  0  0  0  0  0  0  0  0  0
   -5.1060   25.8210  -30.4830 N   0  0  0  0  0  0  0  0  0  0  0  0
   -7.2000   25.6760  -29.6180 O   0  0  0  0  0  0  0  0  0  0  0  0
   -7.6510   23.2160  -31.2730 C   0  0  0  0  0  0  0  0  0  0  0  0
   -7.4470   21.9340  -31.7240 C   0  0  0  0  0  0  0  0  0  0  0  0
   -8.3160   21.0060  -32.2690 C   0  0  0  0  0  0  0  0  0  0  0  0
   -7.8400   19.7710  -32.6430 C   0  0  0  0  0  0  0  0  0  0  0  0
   -6.5090   19.4800  -32.4690 C   0  0  0  0  0  0  0  0  0  0  0  0
   -6.0460   18.1570  -32.8790 C   0  0  0  0  0  0  0  0  0  0  0  0
   -5.8690   17.0900  -32.0210 C   0  0  0  0  0  0  0  0  0  0  0  0
   -6.1210   17.1140  -30.5460 C   0  0  0  0  0  0  0  0  0  0  0  0
   -5.4370   16.0620  -32.7750 N   0  0  0  0  0  0  0  0  0  0  0  0
   -5.3420   16.4470  -34.0380 N   0  0  0  0  0  0  0  0  0  0  0  0
   -5.7040   17.7190  -34.1460 C   0  0  0  0  0  0  0  0  0  0  0  0
   -5.7420   18.5340  -35.3810 C   0  0  0  0  0  0  0  0  0  0  0  0
   -5.6610   20.4290  -31.9200 C   0  0  0  0  0  0  0  0  0  0  0  0
   -6.1080   21.6840  -31.5320 C   0  0  0  0  0  0  0  0  0  0  0  0
   -1.5250   20.8677  -30.6007 H   0  0  0  0  0  0  0  0  0  0  0  0
   -2.8165   20.5044  -31.7951 H   0  0  0  0  0  0  0  0  0  0  0  0
   -2.0204   22.1146  -31.7951 H   0  0  0  0  0  0  0  0  0  0  0  0
   -4.3720   25.8040  -29.7380 H   0  0  0  0  0  0  0  0  0  0  0  0
   -4.9450   26.3730  -31.3520 H   0  0  0  0  0  0  0  0  0  0  0  0
   -8.6130   23.7495  -31.2739 H   0  0  0  0  0  0  0  0  0  0  0  0
   -9.3794   21.2538  -32.4022 H   0  0  0  0  0  0  0  0  0  0  0  0
   -8.5193   19.0229  -33.0776 H   0  0  0  0  0  0  0  0  0  0  0  0
   -5.1652   17.0230  -30.0092 H   0  0  0  0  0  0  0  0  0  0  0  0
   -6.6064   18.0624  -30.2723 H   0  0  0  0  0  0  0  0  0  0  0  0
   -6.7767   16.2742  -30.2723 H   0  0  0  0  0  0  0  0  0  0  0  0
   -5.0330   15.8570  -34.8350 H   0  0  0  0  0  0  0  0  0  0  0  0
   -5.7917   19.6003  -35.1153 H   0  0  0  0  0  0  0  0  0  0  0  0
   -4.8341   18.3455  -35.9728 H   0  0  0  0  0  0  0  0  0  0  0  0
   -6.6284   18.2619  -35.9728 H   0  0  0  0  0  0  0  0  0  0  0  0
   -4.5980   20.1789  -31.7874 H   0  0  0  0  0  0  0  0  0  0  0  0
  1  2  1  0
  2  3  1  0
  3  4  2  0
  3  5  1  0
  5  6  1  0
  6  7  1  0
  7  8  1  0
  7  9  2  0
  6 10  2  0
 10 11  1  0
 11 12  2  0
 12 13  1  0
 13 14  2  0
 14 15  1  0
 15 16  1  0
 16 17  1  0
 16 18  2  0
 18 19  1  0
 19 20  1  0
 20 21  1  0
 14 22  1  0
 22 23  2  0
 23  5  1  0
 23 11  1  0
 20 15  2  0
  1 24  1  0
  1 25  1  0
  1 26  1  0
  8 27  1  0
  8 28  1  0
 10 29  1  0
 12 30  1  0
 13 31  1  0
 17 32  1  0
 17 33  1  0
 17 34  1  0
 19 35  1  0
 21 36  1  0
 21 37  1  0
 21 38  1  0
 22 39  1  0
M  END
>  <smiles>  (65) 
COC(=O)n1c(C(N)=O)cc2ccc(-c3c(C)n[nH]c3C)cc21

>  <score_type>  (65) 
oracle

>  <origin>  (65) 
adg

>  <m_score__min__energy>  (65) 
-8.0800000000000001

>  <m_primary>  (65) 
energy

$$$$
66:0
     RDKit          3D

 39 41  0  0  0  0  0  0  0  0999 V2000
   -7.6100   17.4490  -32.5950 C   0  0  0  0  0  0  0  0  0  0  0  0
   -6.9080   18.5730  -33.2270 N   0  0  0  0  0  0  0  0  0  0  0  0
   -6.0760   18.3080  -34.4100 C   0  0  0  0  0  0  0  0  0  0  0  0
   -4.6230   18.2880  -34.0440 C   0  0  0  0  0  0  0  0  0  0  0  0
   -3.7400   18.2390  -34.9420 O   0  0  0  0  0  0  0  0  0  0  0  0
   -4.2430   18.3250  -32.7080 O   0  0  0  0  0  0  0  0  0  0  0  0
   -7.0360   19.9090  -32.6810 C   0  0  0  0  0  0  0  0  0  0  0  0
   -8.3180   20.4860  -32.4700 C   0  0  0  0  0  0  0  0  0  0  0  0
   -8.4500   21.7780  -31.9360 C   0  0  0  0  0  0  0  0  0  0  0  0
   -7.2900   22.4800  -31.6300 C   0  0  0  0  0  0  0  0  0  0  0  0
   -7.1320   23.7310  -31.0800 C   0  0  0  0  0  0  0  0  0  0  0  0
   -5.7560   23.9200  -30.9790 C   0  0  0  0  0  0  0  0  0  0  0  0
   -5.1370   25.1780  -30.5110 C   0  0  0  0  0  0  0  0  0  0  0  0
   -3.7160   25.3000  -30.4790 N   0  0  0  0  0  0  0  0  0  0  0  0
   -5.8470   26.1340  -30.1050 O   0  0  0  0  0  0  0  0  0  0  0  0
   -5.0890   22.8250  -31.4460 N   0  0  0  0  0  0  0  0  0  0  0  0
   -3.6700   22.6000  -31.4460 C   0  0  0  0  0  0  0  0  0  0  0  0
   -3.0030   22.8220  -30.4000 O   0  0  0  0  0  0  0  0  0  0  0  0
   -3.0350   22.2060  -32.6300 O   0  0  0  0  0  0  0  0  0  0  0  0
   -2.0460   21.2180  -32.7250 C   0  0  0  0  0  0  0  0  0  0  0  0
   -0.6960   21.4450  -32.5760 C   0  0  0  0  0  0  0  0  0  0  0  0
   -0.1280   20.2020  -32.7830 C   0  0  0  0  0  0  0  0  0  0  0  0
   -1.0870   19.3370  -33.0390 O   0  0  0  0  0  0  0  0  0  0  0  0
   -2.2490   19.9180  -33.0110 N   0  0  0  0  0  0  0  0  0  0  0  0
   -6.0430   21.9540  -31.8420 C   0  0  0  0  0  0  0  0  0  0  0  0
   -5.8810   20.6630  -32.3560 C   0  0  0  0  0  0  0  0  0  0  0  0
   -7.5488   17.5469  -31.5011 H   0  0  0  0  0  0  0  0  0  0  0  0
   -8.6653   17.4547  -32.9052 H   0  0  0  0  0  0  0  0  0  0  0  0
   -7.1418   16.5032  -32.9052 H   0  0  0  0  0  0  0  0  0  0  0  0
   -6.3543   17.3326  -34.8356 H   0  0  0  0  0  0  0  0  0  0  0  0
   -6.2436   19.1083  -35.1458 H   0  0  0  0  0  0  0  0  0  0  0  0
   -9.2199   19.9119  -32.7289 H   0  0  0  0  0  0  0  0  0  0  0  0
   -9.4420   22.2214  -31.7649 H   0  0  0  0  0  0  0  0  0  0  0  0
   -7.9247   24.4333  -30.7829 H   0  0  0  0  0  0  0  0  0  0  0  0
   -3.1210   24.8280  -31.1960 H   0  0  0  0  0  0  0  0  0  0  0  0
   -0.1885   22.3934  -32.3461 H   0  0  0  0  0  0  0  0  0  0  0  0
    0.9471   19.9734  -32.7408 H   0  0  0  0  0  0  0  0  0  0  0  0
   -3.1510   19.4360  -33.2190 H   0  0  0  0  0  0  0  0  0  0  0  0
   -4.8761   20.2412  -32.5051 H   0  0  0  0  0  0  0  0  0  0  0  0
  1  2  1  0
  2  3  1  0
  3  4  1  0
  4  5  2  0
  4  6  1  0
  2  7  1  0
  7  8  2  0
  8  9  1  0
  9 10  2  0
 10 11  1  0
 11 12  2  0
 12 13  1  0
 13 14  1  0
 13 15  2  0
 12 16  1  0
 16 17  1  0
 17 18  2  0
 17 19  1  0
 19 20  1  0
 20 21  1  0
 21 22  2  0
 22 23  1  0
 23 24  1  0
 16 25  1  0
 25 26  2  0
 26  7  1  0
 25 10  1  0
 24 20  2  0
  1 27  1  0
  1 28  1  0
  1 29  1  0
  3 30  1  0
  3 31  1  0
  8 32  1  0
  9 33  1  0
 11 34  1  0
 14 35  1  0
 21 36  1  0
 22 37  1  0
 24 38  1  0
 26 39  1  0
M  CHG  3   6  -1  14  -1  24   1
M  END
>  <UniqueID>  (66) 
65

>  <SMILES>  (66) 
CN(CC(=O)[O-])c1ccc2cc(C([NH-])=O)n(C(=O)Oc3cco[nH+]3)c2c1

>  <Energy>  (66) 
115.82897912791691

>  <Genealogy>  (66) 
CN(CC(=O)[O-])c1ccc2cc(C([NH-])=O)n(C(=O)Oc3cco[nH+]3)c2c1 (protonated)
CN(CC(=O)[O-])c1ccc2cc(C([NH-])=O)n(C(=O)Oc3cco[nH+]3)c2c1 (3D coordinates assigned)
CN(CC(=O)[O-])c1ccc2cc(C([NH-])=O)n(C(=O)Oc3cco[nH+]3)c2c1 (optimized conformer: 115.82897912791691 kcal/mol)

>  <smiles>  (66) 
CN(CC(=O)O)c1ccc2cc(C(N)=O)n(C(=O)Oc3ccon3)c2c1

>  <score_type>  (66) 
oracle

>  <origin>  (66) 
adg

>  <m_score__min__energy>  (66) 
-9.1400000000000006

>  <m_primary>  (66) 
energy

$$$$
67:0
     RDKit          3D

 47 48  0  0  0  0  0  0  0  0999 V2000
   -5.7400   18.2070  -34.9290 C   0  0  0  0  0  0  0  0  0  0  0  0
   -5.0810   18.4200  -33.6280 N   0  0  0  0  0  0  0  0  0  0  0  0
   -3.7590   17.7520  -33.5930 C   0  0  0  0  0  0  0  0  0  0  0  0
   -2.6330   18.7500  -33.8700 C   0  0  0  0  0  0  0  0  0  0  0  0
   -3.1600   20.0420  -33.9920 O   0  0  0  0  0  0  0  0  0  0  0  0
   -5.9560   17.9380  -32.5360 C   0  0  0  0  0  0  0  0  0  0  0  0
   -7.3880   18.4800  -32.6870 C   0  0  0  0  0  0  0  0  0  0  0  0
   -7.4960   19.9260  -32.2700 C   0  0  0  0  0  0  0  0  0  0  0  0
   -8.7680   20.5460  -32.1650 C   0  0  0  0  0  0  0  0  0  0  0  0
   -8.8790   21.8920  -31.7760 C   0  0  0  0  0  0  0  0  0  0  0  0
   -7.7070   22.5870  -31.4880 C   0  0  0  0  0  0  0  0  0  0  0  0
   -7.5250   23.8920  -31.0930 C   0  0  0  0  0  0  0  0  0  0  0  0
   -6.1480   24.0420  -30.9320 C   0  0  0  0  0  0  0  0  0  0  0  0
   -5.5200   25.2770  -30.4180 C   0  0  0  0  0  0  0  0  0  0  0  0
   -4.2380   25.6740  -30.9010 N   0  0  0  0  0  0  0  0  0  0  0  0
   -6.1140   26.0050  -29.5790 O   0  0  0  0  0  0  0  0  0  0  0  0
   -5.5050   22.8770  -31.2270 N   0  0  0  0  0  0  0  0  0  0  0  0
   -4.0960   22.6020  -31.1890 C   0  0  0  0  0  0  0  0  0  0  0  0
   -3.6070   21.7020  -31.9240 O   0  0  0  0  0  0  0  0  0  0  0  0
   -3.2800   23.3200  -30.3110 O   0  0  0  0  0  0  0  0  0  0  0  0
   -3.4110   23.2520  -28.8960 C   0  0  0  0  0  0  0  0  0  0  0  0
   -2.7150   24.4490  -28.2630 C   0  0  0  0  0  0  0  0  0  0  0  0
   -2.2520   25.3110  -29.2650 O   0  0  0  0  0  0  0  0  0  0  0  0
   -6.4740   21.9970  -31.5660 C   0  0  0  0  0  0  0  0  0  0  0  0
   -6.3310   20.6690  -31.9820 C   0  0  0  0  0  0  0  0  0  0  0  0
   -6.7750   17.8725  -34.7653 H   0  0  0  0  0  0  0  0  0  0  0  0
   -5.7446   19.1494  -35.4963 H   0  0  0  0  0  0  0  0  0  0  0  0
   -5.1922   17.4402  -35.4963 H   0  0  0  0  0  0  0  0  0  0  0  0
   -3.6077   17.3057  -32.5991 H   0  0  0  0  0  0  0  0  0  0  0  0
   -3.7381   16.9751  -34.3715 H   0  0  0  0  0  0  0  0  0  0  0  0
   -1.9127   18.7270  -33.0390 H   0  0  0  0  0  0  0  0  0  0  0  0
   -2.1280   18.4750  -34.8078 H   0  0  0  0  0  0  0  0  0  0  0  0
   -3.8910   20.1070  -33.3240 H   0  0  0  0  0  0  0  0  0  0  0  0
   -5.9847   16.8386  -32.5585 H   0  0  0  0  0  0  0  0  0  0  0  0
   -5.5478   18.2970  -31.5797 H   0  0  0  0  0  0  0  0  0  0  0  0
   -7.6912   18.3914  -33.7407 H   0  0  0  0  0  0  0  0  0  0  0  0
   -8.0441   17.8890  -32.0310 H   0  0  0  0  0  0  0  0  0  0  0  0
   -9.6761   19.9675  -32.3903 H   0  0  0  0  0  0  0  0  0  0  0  0
   -9.8613   22.3814  -31.7013 H   0  0  0  0  0  0  0  0  0  0  0  0
   -8.3013   24.6556  -30.9371 H   0  0  0  0  0  0  0  0  0  0  0  0
   -3.4130   25.0380  -30.8220 H   0  0  0  0  0  0  0  0  0  0  0  0
   -4.4772   23.2628  -28.6257 H   0  0  0  0  0  0  0  0  0  0  0  0
   -2.9488   22.3235  -28.5295 H   0  0  0  0  0  0  0  0  0  0  0  0
   -3.4261   24.9864  -27.6184 H   0  0  0  0  0  0  0  0  0  0  0  0
   -1.8629   24.0986  -27.6620 H   0  0  0  0  0  0  0  0  0  0  0  0
   -3.0610   25.6630  -29.7200 H   0  0  0  0  0  0  0  0  0  0  0  0
   -5.3343   20.2146  -32.0823 H   0  0  0  0  0  0  0  0  0  0  0  0
  1  2  1  0
  2  3  1  0
  3  4  1  0
  4  5  1  0
  2  6  1  0
  6  7  1  0
  7  8  1  0
  8  9  2  0
  9 10  1  0
 10 11  2  0
 11 12  1  0
 12 13  2  0
 13 14  1  0
 14 15  1  0
 14 16  2  0
 13 17  1  0
 17 18  1  0
 18 19  2  0
 18 20  1  0
 20 21  1  0
 21 22  1  0
 22 23  1  0
 17 24  1  0
 24 25  2  0
 25  8  1  0
 24 11  1  0
  1 26  1  0
  1 27  1  0
  1 28  1  0
  3 29  1  0
  3 30  1  0
  4 31  1  0
  4 32  1  0
  5 33  1  0
  6 34  1  0
  6 35  1  0
  7 36  1  0
  7 37  1  0
  9 38  1  0
 10 39  1  0
 12 40  1  0
 15 41  1  0
 21 42  1  0
 21 43  1  0
 22 44  1  0
 22 45  1  0
 23 46  1  0
 25 47  1  0
M  CHG  1  15  -1
M  END
>  <UniqueID>  (67) 
66

>  <SMILES>  (67) 
CN(CCO)CCc1ccc2cc(C([NH-])=O)n(C(=O)OCCO)c2c1

>  <Energy>  (67) 
76.6742948105207

>  <Genealogy>  (67) 
CN(CCO)CCc1ccc2cc(C([NH-])=O)n(C(=O)OCCO)c2c1 (protonated)
CN(CCO)CCc1ccc2cc(C([NH-])=O)n(C(=O)OCCO)c2c1 (3D coordinates assigned)
CN(CCO)CCc1ccc2cc(C([NH-])=O)n(C(=O)OCCO)c2c1 (optimized conformer: 76.6742948105207 kcal/mol)

>  <smiles>  (67) 
CN(CCO)CCc1ccc2cc(C(N)=O)n(C(=O)OCCO)c2c1

>  <score_type>  (67) 
oracle

>  <origin>  (67) 
adg

>  <m_score__min__energy>  (67) 
-9.9600000000000009

>  <m_primary>  (67) 
energy

$$$$
68:0
     RDKit          3D

 30 31  0  0  0  0  0  0  0  0999 V2000
   -2.1940   21.5220  -30.1820 C   0  0  0  0  0  0  0  0  0  0  0  0
   -3.3410   22.2010  -30.1330 C   0  0  0  0  0  0  0  0  0  0  0  0
   -3.9680   22.6820  -28.5630 Cl  0  0  0  0  0  0  0  0  0  0  0  0
   -4.1010   22.5290  -31.3600 C   0  0  0  0  0  0  0  0  0  0  0  0
   -3.5360   22.4970  -32.4870 O   0  0  0  0  0  0  0  0  0  0  0  0
   -5.4910   22.8780  -31.2850 N   0  0  0  0  0  0  0  0  0  0  0  0
   -6.0340   24.0320  -30.8100 C   0  0  0  0  0  0  0  0  0  0  0  0
   -5.2760   25.2160  -30.3560 C   0  0  0  0  0  0  0  0  0  0  0  0
   -3.8710   25.2930  -30.5860 N   0  0  0  0  0  0  0  0  0  0  0  0
   -5.8550   26.1580  -29.7510 O   0  0  0  0  0  0  0  0  0  0  0  0
   -7.4260   23.9650  -30.8440 C   0  0  0  0  0  0  0  0  0  0  0  0
   -7.7180   22.7190  -31.3540 C   0  0  0  0  0  0  0  0  0  0  0  0
   -8.9470   22.1110  -31.5910 C   0  0  0  0  0  0  0  0  0  0  0  0
   -8.9490   20.8020  -32.1000 C   0  0  0  0  0  0  0  0  0  0  0  0
   -7.7270   20.1210  -32.3560 C   0  0  0  0  0  0  0  0  0  0  0  0
   -7.7080   18.7760  -32.8700 N   0  0  0  0  0  0  0  0  0  0  0  0
   -6.8340   17.7280  -32.3530 C   0  0  0  0  0  0  0  0  0  0  0  0
   -6.5020   20.7740  -32.0990 C   0  0  0  0  0  0  0  0  0  0  0  0
   -6.5330   22.0830  -31.6080 C   0  0  0  0  0  0  0  0  0  0  0  0
   -1.7808   21.2096  -31.1524 H   0  0  0  0  0  0  0  0  0  0  0  0
   -1.6613   21.2744  -29.2520 H   0  0  0  0  0  0  0  0  0  0  0  0
   -3.4690   26.0190  -31.2200 H   0  0  0  0  0  0  0  0  0  0  0  0
   -8.1392   24.7415  -30.5304 H   0  0  0  0  0  0  0  0  0  0  0  0
   -9.8893   22.6401  -31.3857 H   0  0  0  0  0  0  0  0  0  0  0  0
   -9.9056   20.2983  -32.3027 H   0  0  0  0  0  0  0  0  0  0  0  0
   -8.3520   18.5260  -33.6550 H   0  0  0  0  0  0  0  0  0  0  0  0
   -6.8497   17.7469  -31.2533 H   0  0  0  0  0  0  0  0  0  0  0  0
   -7.1865   16.7483  -32.7080 H   0  0  0  0  0  0  0  0  0  0  0  0
   -5.8070   17.8988  -32.7080 H   0  0  0  0  0  0  0  0  0  0  0  0
   -5.5443   20.2644  -32.2810 H   0  0  0  0  0  0  0  0  0  0  0  0
  1  2  2  0
  2  3  1  0
  2  4  1  0
  4  5  2  0
  4  6  1  0
  6  7  1  0
  7  8  1  0
  8  9  1  0
  8 10  2  0
  7 11  2  0
 11 12  1  0
 12 13  2  0
 13 14  1  0
 14 15  2  0
 15 16  1  0
 16 17  1  0
 15 18  1  0
 18 19  2  0
 19  6  1  0
 19 12  1  0
  1 20  1  0
  1 21  1  0
  9 22  1  0
 11 23  1  0
 13 24  1  0
 14 25  1  0
 16 26  1  0
 17 27  1  0
 17 28  1  0
 17 29  1  0
 18 30  1  0
M  CHG  1   9  -1
M  END
>  <UniqueID>  (68) 
67

>  <SMILES>  (68) 
C=C(Cl)C(=O)n1c(C([NH-])=O)cc2ccc(NC)cc21

>  <Energy>  (68) 
67.68920023598811

>  <Genealogy>  (68) 
C=C(Cl)C(=O)n1c(C([NH-])=O)cc2ccc(NC)cc21 (protonated)
C=C(Cl)C(=O)n1c(C([NH-])=O)cc2ccc(NC)cc21 (3D coordinates assigned)
C=C(Cl)C(=O)n1c(C([NH-])=O)cc2ccc(NC)cc21 (optimized conformer: 67.68920023598811 kcal/mol)

>  <smiles>  (68) 
C=C(Cl)C(=O)n1c(C(N)=O)cc2ccc(NC)cc21

>  <score_type>  (68) 
oracle

>  <origin>  (68) 
adg

>  <m_score__min__energy>  (68) 
-10.09

>  <m_primary>  (68) 
energy

$$$$
69:0
     RDKit          3D

 38 40  0  0  0  0  0  0  0  0999 V2000
   -3.8770   25.6690  -30.7810 N   0  0  0  0  0  0  0  0  0  0  0  0
   -5.2290   25.2730  -30.5690 C   0  0  0  0  0  0  0  0  0  0  0  0
   -5.9980   26.0300  -29.9200 O   0  0  0  0  0  0  0  0  0  0  0  0
   -5.7230   23.9650  -31.0490 C   0  0  0  0  0  0  0  0  0  0  0  0
   -7.0600   23.7140  -31.3470 C   0  0  0  0  0  0  0  0  0  0  0  0
   -7.1180   22.3770  -31.6670 C   0  0  0  0  0  0  0  0  0  0  0  0
   -8.2000   21.5970  -32.0530 C   0  0  0  0  0  0  0  0  0  0  0  0
   -7.9650   20.2440  -32.3520 C   0  0  0  0  0  0  0  0  0  0  0  0
   -6.6580   19.6950  -32.2700 C   0  0  0  0  0  0  0  0  0  0  0  0
   -6.4210   18.2670  -32.6000 C   0  0  0  0  0  0  0  0  0  0  0  0
   -7.1880   17.4420  -33.4130 C   0  0  0  0  0  0  0  0  0  0  0  0
   -6.6290   16.2190  -33.4680 N   0  0  0  0  0  0  0  0  0  0  0  0
   -5.5420   16.2400  -32.7140 N   0  0  0  0  0  0  0  0  0  0  0  0
   -4.6350   15.1070  -32.5660 C   0  0  0  0  0  0  0  0  0  0  0  0
   -3.5030   15.1830  -33.5900 C   0  0  0  0  0  0  0  0  0  0  0  0
   -3.9260   15.8560  -34.7450 O   0  0  0  0  0  0  0  0  0  0  0  0
   -5.3770   17.4620  -32.1760 C   0  0  0  0  0  0  0  0  0  0  0  0
   -5.5830   20.5280  -31.8730 C   0  0  0  0  0  0  0  0  0  0  0  0
   -5.8510   21.8660  -31.5620 C   0  0  0  0  0  0  0  0  0  0  0  0
   -4.9810   22.8300  -31.1850 N   0  0  0  0  0  0  0  0  0  0  0  0
   -3.5560   22.6940  -31.0630 C   0  0  0  0  0  0  0  0  0  0  0  0
   -2.8720   22.3620  -32.0680 O   0  0  0  0  0  0  0  0  0  0  0  0
   -2.9420   22.9560  -29.8300 O   0  0  0  0  0  0  0  0  0  0  0  0
   -1.6520   23.4800  -29.6720 C   0  0  0  0  0  0  0  0  0  0  0  0
   -1.4610   24.6770  -29.3340 O   0  0  0  0  0  0  0  0  0  0  0  0
   -3.0860   25.0340  -30.5350 H   0  0  0  0  0  0  0  0  0  0  0  0
   -7.8930   24.4322  -31.3301 H   0  0  0  0  0  0  0  0  0  0  0  0
   -9.2108   22.0252  -32.1227 H   0  0  0  0  0  0  0  0  0  0  0  0
   -8.8052   19.6014  -32.6537 H   0  0  0  0  0  0  0  0  0  0  0  0
   -8.1103   17.7422  -33.9319 H   0  0  0  0  0  0  0  0  0  0  0  0
   -4.2066   15.1175  -31.5529 H   0  0  0  0  0  0  0  0  0  0  0  0
   -5.2000   14.1780  -32.7322 H   0  0  0  0  0  0  0  0  0  0  0  0
   -2.6520   15.7224  -33.1486 H   0  0  0  0  0  0  0  0  0  0  0  0
   -3.2045   14.1606  -33.8649 H   0  0  0  0  0  0  0  0  0  0  0  0
   -4.9180   15.8680  -34.7230 H   0  0  0  0  0  0  0  0  0  0  0  0
   -4.5544   17.7689  -31.5133 H   0  0  0  0  0  0  0  0  0  0  0  0
   -4.5589   20.1314  -31.8105 H   0  0  0  0  0  0  0  0  0  0  0  0
   -0.7837   22.8280  -29.8480 H   0  0  0  0  0  0  0  0  0  0  0  0
  1  2  1  0
  2  3  2  0
  2  4  1  0
  4  5  2  0
  5  6  1  0
  6  7  2  0
  7  8  1  0
  8  9  2  0
  9 10  1  0
 10 11  1  0
 11 12  2  0
 12 13  1  0
 13 14  1  0
 14 15  1  0
 15 16  1  0
 13 17  1  0
  9 18  1  0
 18 19  2  0
 19 20  1  0
 20 21  1  0
 21 22  2  0
 21 23  1  0
 23 24  1  0
 24 25  2  0
 20  4  1  0
 19  6  1  0
 17 10  2  0
  1 26  1  0
  5 27  1  0
  7 28  1  0
  8 29  1  0
 11 30  1  0
 14 31  1  0
 14 32  1  0
 15 33  1  0
 15 34  1  0
 16 35  1  0
 17 36  1  0
 18 37  1  0
 24 38  1  0
M  CHG  1   1  -1
M  END
>  <UniqueID>  (69) 
68

>  <SMILES>  (69) 
[NH-]C(=O)c1cc2ccc(-c3cnn(CCO)c3)cc2n1C(=O)OC=O

>  <Energy>  (69) 
109.67565457250961

>  <Genealogy>  (69) 
[NH-]C(=O)c1cc2ccc(-c3cnn(CCO)c3)cc2n1C(=O)OC=O (protonated)
[NH-]C(=O)c1cc2ccc(-c3cnn(CCO)c3)cc2n1C(=O)OC=O (3D coordinates assigned)
[NH-]C(=O)c1cc2ccc(-c3cnn(CCO)c3)cc2n1C(=O)OC=O (optimized conformer: 109.67565457250961 kcal/mol)

>  <smiles>  (69) 
NC(=O)c1cc2ccc(-c3cnn(CCO)c3)cc2n1C(=O)OC=O

>  <score_type>  (69) 
oracle

>  <origin>  (69) 
adg

>  <m_score__min__energy>  (69) 
-9.3599999999999994

>  <m_primary>  (69) 
energy

$$$$
70:0
     RDKit          3D

 40 41  0  0  0  0  0  0  0  0999 V2000
   -7.4720   18.3210  -32.3970 C   0  0  0  0  0  0  0  0  0  0  0  0
   -7.4970   19.7950  -32.1210 C   0  0  0  0  0  0  0  0  0  0  0  0
   -8.7290   20.4930  -32.1050 C   0  0  0  0  0  0  0  0  0  0  0  0
   -8.7680   21.8680  -31.8220 C   0  0  0  0  0  0  0  0  0  0  0  0
   -7.5660   22.5110  -31.5400 C   0  0  0  0  0  0  0  0  0  0  0  0
   -7.3170   23.8320  -31.2460 C   0  0  0  0  0  0  0  0  0  0  0  0
   -5.9400   23.9120  -31.0450 C   0  0  0  0  0  0  0  0  0  0  0  0
   -5.2570   25.1490  -30.6100 C   0  0  0  0  0  0  0  0  0  0  0  0
   -3.8630   25.3340  -30.8360 N   0  0  0  0  0  0  0  0  0  0  0  0
   -5.9030   26.0300  -29.9850 O   0  0  0  0  0  0  0  0  0  0  0  0
   -5.3580   22.6920  -31.2200 N   0  0  0  0  0  0  0  0  0  0  0  0
   -3.9600   22.3640  -31.1770 C   0  0  0  0  0  0  0  0  0  0  0  0
   -3.1870   22.7750  -32.0850 O   0  0  0  0  0  0  0  0  0  0  0  0
   -3.4670   21.5680  -30.1410 O   0  0  0  0  0  0  0  0  0  0  0  0
   -2.9670   22.1040  -28.9220 C   0  0  0  0  0  0  0  0  0  0  0  0
   -3.4310   23.4400  -28.7650 O   0  0  0  0  0  0  0  0  0  0  0  0
   -2.6350   24.4620  -28.2350 C   0  0  0  0  0  0  0  0  0  0  0  0
   -1.8880   25.1490  -28.9840 O   0  0  0  0  0  0  0  0  0  0  0  0
   -2.6870   24.7590  -26.7620 C   0  0  0  0  0  0  0  0  0  0  0  0
   -4.1350   24.9730  -26.3120 C   0  0  0  0  0  0  0  0  0  0  0  0
   -1.8280   25.9850  -26.4420 C   0  0  0  0  0  0  0  0  0  0  0  0
   -6.3680   21.8430  -31.5190 C   0  0  0  0  0  0  0  0  0  0  0  0
   -6.2990   20.4760  -31.8170 C   0  0  0  0  0  0  0  0  0  0  0  0
   -7.4627   17.7698  -31.4451 H   0  0  0  0  0  0  0  0  0  0  0  0
   -8.3655   18.0408  -32.9742 H   0  0  0  0  0  0  0  0  0  0  0  0
   -6.5695   18.0713  -32.9742 H   0  0  0  0  0  0  0  0  0  0  0  0
   -9.6640   19.9533  -32.3162 H   0  0  0  0  0  0  0  0  0  0  0  0
   -9.7194   22.4201  -31.8231 H   0  0  0  0  0  0  0  0  0  0  0  0
   -8.0489   24.6507  -31.1830 H   0  0  0  0  0  0  0  0  0  0  0  0
   -3.1820   24.5630  -30.6580 H   0  0  0  0  0  0  0  0  0  0  0  0
   -3.3212   21.4916  -28.0797 H   0  0  0  0  0  0  0  0  0  0  0  0
   -1.8672   22.0982  -28.9430 H   0  0  0  0  0  0  0  0  0  0  0  0
   -2.2818   23.8983  -26.2098 H   0  0  0  0  0  0  0  0  0  0  0  0
   -4.1802   24.9797  -25.2130 H   0  0  0  0  0  0  0  0  0  0  0  0
   -4.5011   25.9350  -26.6999 H   0  0  0  0  0  0  0  0  0  0  0  0
   -4.7638   24.1580  -26.6999 H   0  0  0  0  0  0  0  0  0  0  0  0
   -1.7467   26.1011  -25.3512 H   0  0  0  0  0  0  0  0  0  0  0  0
   -0.8245   25.8521  -26.8724 H   0  0  0  0  0  0  0  0  0  0  0  0
   -2.2956   26.8828  -26.8724 H   0  0  0  0  0  0  0  0  0  0  0  0
   -5.3348   19.9465  -31.8141 H   0  0  0  0  0  0  0  0  0  0  0  0
  1  2  1  0
  2  3  2  0
  3  4  1  0
  4  5  2  0
  5  6  1  0
  6  7  2  0
  7  8  1  0
  8  9  1  0
  8 10  2  0
  7 11  1  0
 11 12  1  0
 12 13  2  0
 12 14  1  0
 14 15  1  0
 15 16  1  0
 16 17  1  0
 17 18  2  0
 17 19  1  0
 19 20  1  0
 19 21  1  0
 11 22  1  0
 22 23  2  0
 23  2  1  0
 22  5  1  0
  1 24  1  0
  1 25  1  0
  1 26  1  0
  3 27  1  0
  4 28  1  0
  6 29  1  0
  9 30  1  0
 15 31  1  0
 15 32  1  0
 19 33  1  0
 20 34  1  0
 20 35  1  0
 20 36  1  0
 21 37  1  0
 21 38  1  0
 21 39  1  0
 23 40  1  0
M  CHG  1   9  -1
M  END
>  <UniqueID>  (70) 
69

>  <SMILES>  (70) 
Cc1ccc2cc(C([NH-])=O)n(C(=O)OCOC(=O)C(C)C)c2c1

>  <Energy>  (70) 
69.26318101348085

>  <Genealogy>  (70) 
Cc1ccc2cc(C([NH-])=O)n(C(=O)OCOC(=O)C(C)C)c2c1 (protonated)
Cc1ccc2cc(C([NH-])=O)n(C(=O)OCOC(=O)C(C)C)c2c1 (3D coordinates assigned)
Cc1ccc2cc(C([NH-])=O)n(C(=O)OCOC(=O)C(C)C)c2c1 (optimized conformer: 69.26318101348085 kcal/mol)

>  <smiles>  (70) 
Cc1ccc2cc(C(N)=O)n(C(=O)OCOC(=O)C(C)C)c2c1

>  <score_type>  (70) 
oracle

>  <origin>  (70) 
adg

>  <m_score__min__energy>  (70) 
-10.449999999999999

>  <m_primary>  (70) 
energy

$$$$
71:0
     RDKit          3D

 51 53  0  0  0  0  0  0  0  0999 V2000
   -2.9530   24.5250  -27.6800 C   0  0  0  0  0  0  0  0  0  0  0  0
   -1.7690   24.6450  -28.5450 N   0  0  0  0  0  0  0  0  0  0  0  0
   -0.9240   25.7780  -28.1380 C   0  0  0  0  0  0  0  0  0  0  0  0
   -1.0160   23.3760  -28.6720 C   0  0  0  0  0  0  0  0  0  0  0  0
   -0.9820   22.7970  -30.1030 C   0  0  0  0  0  0  0  0  0  0  0  0
   -1.0740   21.2670  -30.0900 C   0  0  0  0  0  0  0  0  0  0  0  0
   -2.4330   20.8310  -30.0360 O   0  0  0  0  0  0  0  0  0  0  0  0
   -3.5150   21.7010  -29.8690 C   0  0  0  0  0  0  0  0  0  0  0  0
   -3.9840   21.9310  -28.7210 O   0  0  0  0  0  0  0  0  0  0  0  0
   -4.0980   22.3610  -31.0460 C   0  0  0  0  0  0  0  0  0  0  0  0
   -3.3690   22.6070  -32.0430 O   0  0  0  0  0  0  0  0  0  0  0  0
   -5.4820   22.7410  -31.0660 N   0  0  0  0  0  0  0  0  0  0  0  0
   -6.0050   23.9840  -30.8690 C   0  0  0  0  0  0  0  0  0  0  0  0
   -5.2390   25.1890  -30.4860 C   0  0  0  0  0  0  0  0  0  0  0  0
   -3.8640   25.2990  -30.8470 N   0  0  0  0  0  0  0  0  0  0  0  0
   -5.7900   26.1320  -29.8610 O   0  0  0  0  0  0  0  0  0  0  0  0
   -7.3890   23.9610  -31.0310 C   0  0  0  0  0  0  0  0  0  0  0  0
   -7.6990   22.6550  -31.3380 C   0  0  0  0  0  0  0  0  0  0  0  0
   -8.9270   22.0680  -31.6270 C   0  0  0  0  0  0  0  0  0  0  0  0
   -8.9440   20.7000  -31.9490 C   0  0  0  0  0  0  0  0  0  0  0  0
   -7.7430   19.9490  -31.9690 C   0  0  0  0  0  0  0  0  0  0  0  0
   -7.7650   18.5000  -32.3680 C   0  0  0  0  0  0  0  0  0  0  0  0
   -6.5750   18.1810  -33.1510 N   0  0  0  0  0  0  0  0  0  0  0  0
   -5.6100   17.3050  -32.8320 C   0  0  0  0  0  0  0  0  0  0  0  0
   -4.6360   17.3800  -33.8030 C   0  0  0  0  0  0  0  0  0  0  0  0
   -4.9820   18.3080  -34.7210 N   0  0  0  0  0  0  0  0  0  0  0  0
   -6.1690   18.7810  -34.2870 C   0  0  0  0  0  0  0  0  0  0  0  0
   -6.5130   20.5810  -31.6860 C   0  0  0  0  0  0  0  0  0  0  0  0
   -6.5290   21.9400  -31.3550 C   0  0  0  0  0  0  0  0  0  0  0  0
   -2.6414   24.5566  -26.6255 H   0  0  0  0  0  0  0  0  0  0  0  0
   -3.6420   25.3579  -27.8839 H   0  0  0  0  0  0  0  0  0  0  0  0
   -3.4608   23.5708  -27.8839 H   0  0  0  0  0  0  0  0  0  0  0  0
   -0.8849   25.8304  -27.0399 H   0  0  0  0  0  0  0  0  0  0  0  0
    0.0924   25.6385  -28.5348 H   0  0  0  0  0  0  0  0  0  0  0  0
   -1.3475   26.7124  -28.5348 H   0  0  0  0  0  0  0  0  0  0  0  0
    0.0199   23.5564  -28.3488 H   0  0  0  0  0  0  0  0  0  0  0  0
   -1.5370   22.6369  -28.0458 H   0  0  0  0  0  0  0  0  0  0  0  0
   -1.8313   23.2017  -30.6730 H   0  0  0  0  0  0  0  0  0  0  0  0
   -0.0274   23.0823  -30.5691 H   0  0  0  0  0  0  0  0  0  0  0  0
   -0.6066   20.8718  -31.0040 H   0  0  0  0  0  0  0  0  0  0  0  0
   -0.5533   20.8947  -29.1954 H   0  0  0  0  0  0  0  0  0  0  0  0
   -3.1150   25.2750  -30.1180 H   0  0  0  0  0  0  0  0  0  0  0  0
   -8.0858   24.8066  -30.9342 H   0  0  0  0  0  0  0  0  0  0  0  0
   -9.8560   22.6566  -31.6042 H   0  0  0  0  0  0  0  0  0  0  0  0
   -9.8985   20.2081  -32.1876 H   0  0  0  0  0  0  0  0  0  0  0  0
   -7.7855   17.8733  -31.4642 H   0  0  0  0  0  0  0  0  0  0  0  0
   -8.6608   18.3059  -32.9761 H   0  0  0  0  0  0  0  0  0  0  0  0
   -5.5988   16.6449  -31.9522 H   0  0  0  0  0  0  0  0  0  0  0  0
   -3.7168   16.7763  -33.8270 H   0  0  0  0  0  0  0  0  0  0  0  0
   -6.7403   19.5672  -34.8022 H   0  0  0  0  0  0  0  0  0  0  0  0
   -5.5676   20.0201  -31.7247 H   0  0  0  0  0  0  0  0  0  0  0  0
  1  2  1  0
  2  3  1  0
  2  4  1  0
  4  5  1  0
  5  6  1  0
  6  7  1  0
  7  8  1  0
  8  9  2  0
  8 10  1  0
 10 11  2  0
 10 12  1  0
 12 13  1  0
 13 14  1  0
 14 15  1  0
 14 16  2  0
 13 17  2  0
 17 18  1  0
 18 19  2  0
 19 20  1  0
 20 21  2  0
 21 22  1  0
 22 23  1  0
 23 24  1  0
 24 25  2  0
 25 26  1  0
 26 27  2  0
 21 28  1  0
 28 29  2  0
 29 12  1  0
 29 18  1  0
 27 23  1  0
  1 30  1  0
  1 31  1  0
  1 32  1  0
  3 33  1  0
  3 34  1  0
  3 35  1  0
  4 36  1  0
  4 37  1  0
  5 38  1  0
  5 39  1  0
  6 40  1  0
  6 41  1  0
 15 42  1  0
 17 43  1  0
 19 44  1  0
 20 45  1  0
 22 46  1  0
 22 47  1  0
 24 48  1  0
 25 49  1  0
 27 50  1  0
 28 51  1  0
M  CHG  1  15  -1
M  END
>  <UniqueID>  (71) 
70

>  <SMILES>  (71) 
CN(C)CCCOC(=O)C(=O)n1c(C([NH-])=O)cc2ccc(Cn3ccnc3)cc21

>  <Energy>  (71) 
116.40922722415135

>  <Genealogy>  (71) 
CN(C)CCCOC(=O)C(=O)n1c(C([NH-])=O)cc2ccc(Cn3ccnc3)cc21 (protonated)
CN(C)CCCOC(=O)C(=O)n1c(C([NH-])=O)cc2ccc(Cn3ccnc3)cc21 (3D coordinates assigned)
CN(C)CCCOC(=O)C(=O)n1c(C([NH-])=O)cc2ccc(Cn3ccnc3)cc21 (optimized conformer: 116.40922722415135 kcal/mol)

>  <smiles>  (71) 
CN(C)CCCOC(=O)C(=O)n1c(C(N)=O)cc2ccc(Cn3ccnc3)cc21

>  <score_type>  (71) 
oracle

>  <origin>  (71) 
adg

>  <m_score__min__energy>  (71) 
-10.68

>  <m_primary>  (71) 
energy

$$$$
72:0
     RDKit          3D

 39 40  0  0  0  0  0  0  0  0999 V2000
   -6.7130   24.0140  -30.1210 C   0  0  0  0  0  0  0  0  0  0  0  0
   -5.5100   24.0990  -29.5560 C   0  0  0  0  0  0  0  0  0  0  0  0
   -4.2800   24.3270  -30.3400 C   0  0  0  0  0  0  0  0  0  0  0  0
   -4.0480   25.4580  -30.8490 O   0  0  0  0  0  0  0  0  0  0  0  0
   -3.3380   23.2600  -30.5250 N   0  0  0  0  0  0  0  0  0  0  0  0
   -2.0320   23.2250  -30.1400 C   0  0  0  0  0  0  0  0  0  0  0  0
   -1.3400   24.2470  -29.3250 C   0  0  0  0  0  0  0  0  0  0  0  0
   -1.9850   25.4670  -28.9730 N   0  0  0  0  0  0  0  0  0  0  0  0
   -0.1710   24.0240  -28.9070 O   0  0  0  0  0  0  0  0  0  0  0  0
   -1.4280   22.0450  -30.5700 C   0  0  0  0  0  0  0  0  0  0  0  0
   -2.4140   21.3520  -31.2360 C   0  0  0  0  0  0  0  0  0  0  0  0
   -2.3630   20.1210  -31.8830 C   0  0  0  0  0  0  0  0  0  0  0  0
   -3.5300   19.6620  -32.5180 C   0  0  0  0  0  0  0  0  0  0  0  0
   -4.7150   20.4410  -32.5030 C   0  0  0  0  0  0  0  0  0  0  0  0
   -5.9030   19.9650  -33.1660 N   0  0  0  0  0  0  0  0  0  0  0  0
   -5.7970   18.9390  -34.2140 C   0  0  0  0  0  0  0  0  0  0  0  0
   -5.9980   17.5490  -33.6220 C   0  0  0  0  0  0  0  0  0  0  0  0
   -7.2190   20.5020  -32.7840 C   0  0  0  0  0  0  0  0  0  0  0  0
   -7.9640   19.5080  -31.8990 C   0  0  0  0  0  0  0  0  0  0  0  0
   -4.7250   21.6860  -31.8380 C   0  0  0  0  0  0  0  0  0  0  0  0
   -3.5560   22.1080  -31.1970 C   0  0  0  0  0  0  0  0  0  0  0  0
   -7.6028   23.8432  -29.4972 H   0  0  0  0  0  0  0  0  0  0  0  0
   -6.8168   24.1146  -31.2115 H   0  0  0  0  0  0  0  0  0  0  0  0
   -5.4298   23.9954  -28.4638 H   0  0  0  0  0  0  0  0  0  0  0  0
   -2.9550   25.6770  -29.2990 H   0  0  0  0  0  0  0  0  0  0  0  0
   -0.3851   21.7334  -30.4111 H   0  0  0  0  0  0  0  0  0  0  0  0
   -1.4382   19.5256  -31.8971 H   0  0  0  0  0  0  0  0  0  0  0  0
   -3.5241   18.6892  -33.0315 H   0  0  0  0  0  0  0  0  0  0  0  0
   -6.5664   19.1216  -34.9786 H   0  0  0  0  0  0  0  0  0  0  0  0
   -4.7949   18.9925  -34.6644 H   0  0  0  0  0  0  0  0  0  0  0  0
   -5.9887   17.6133  -32.5239 H   0  0  0  0  0  0  0  0  0  0  0  0
   -6.9641   17.1438  -33.9574 H   0  0  0  0  0  0  0  0  0  0  0  0
   -5.1863   16.8867  -33.9574 H   0  0  0  0  0  0  0  0  0  0  0  0
   -7.0798   21.4439  -32.2331 H   0  0  0  0  0  0  0  0  0  0  0  0
   -7.8093   20.6798  -33.6950 H   0  0  0  0  0  0  0  0  0  0  0  0
   -7.7822   19.7506  -30.8416 H   0  0  0  0  0  0  0  0  0  0  0  0
   -9.0422   19.5669  -32.1086 H   0  0  0  0  0  0  0  0  0  0  0  0
   -7.6049   18.4896  -32.1086 H   0  0  0  0  0  0  0  0  0  0  0  0
   -5.6310   22.3096  -31.8243 H   0  0  0  0  0  0  0  0  0  0  0  0
  1  2  2  0
  2  3  1  0
  3  4  2  0
  3  5  1  0
  5  6  1  0
  6  7  1  0
  7  8  1  0
  7  9  2  0
  6 10  2  0
 10 11  1  0
 11 12  2  0
 12 13  1  0
 13 14  2  0
 14 15  1  0
 15 16  1  0
 16 17  1  0
 15 18  1  0
 18 19  1  0
 14 20  1  0
 20 21  2  0
 21  5  1  0
 21 11  1  0
  1 22  1  0
  1 23  1  0
  2 24  1  0
  8 25  1  0
 10 26  1  0
 12 27  1  0
 13 28  1  0
 16 29  1  0
 16 30  1  0
 17 31  1  0
 17 32  1  0
 17 33  1  0
 18 34  1  0
 18 35  1  0
 19 36  1  0
 19 37  1  0
 19 38  1  0
 20 39  1  0
M  CHG  1   8  -1
M  END
>  <UniqueID>  (72) 
71

>  <SMILES>  (72) 
C=CC(=O)n1c(C([NH-])=O)cc2ccc(N(CC)CC)cc21

>  <Energy>  (72) 
74.41501005867504

>  <Genealogy>  (72) 
C=CC(=O)n1c(C([NH-])=O)cc2ccc(N(CC)CC)cc21 (protonated)
C=CC(=O)n1c(C([NH-])=O)cc2ccc(N(CC)CC)cc21 (3D coordinates assigned)
C=CC(=O)n1c(C([NH-])=O)cc2ccc(N(CC)CC)cc21 (optimized conformer: 74.41501005867504 kcal/mol)

>  <smiles>  (72) 
C=CC(=O)n1c(C(N)=O)cc2ccc(N(CC)CC)cc21

>  <score_type>  (72) 
oracle

>  <origin>  (72) 
adg

>  <m_score__min__energy>  (72) 
-9.9399999999999995

>  <m_primary>  (72) 
energy

$$$$
73:0
     RDKit          3D

 47 50  0  0  0  0  0  0  0  0999 V2000
   -3.8580   25.2540  -30.2350 N   0  0  0  0  0  0  0  0  0  0  0  0
   -5.1180   24.6640  -29.9120 C   0  0  0  0  0  0  0  0  0  0  0  0
   -5.8760   25.2410  -29.0880 O   0  0  0  0  0  0  0  0  0  0  0  0
   -5.5760   23.4250  -30.5730 C   0  0  0  0  0  0  0  0  0  0  0  0
   -6.8420   23.2780  -31.1340 C   0  0  0  0  0  0  0  0  0  0  0  0
   -6.8450   22.0220  -31.6950 C   0  0  0  0  0  0  0  0  0  0  0  0
   -7.8560   21.3490  -32.3720 C   0  0  0  0  0  0  0  0  0  0  0  0
   -7.5990   20.0390  -32.8100 C   0  0  0  0  0  0  0  0  0  0  0  0
   -6.3450   19.4200  -32.5610 C   0  0  0  0  0  0  0  0  0  0  0  0
   -6.0890   18.0310  -33.0170 C   0  0  0  0  0  0  0  0  0  0  0  0
   -6.8650   17.2610  -33.8710 C   0  0  0  0  0  0  0  0  0  0  0  0
   -6.2920   16.0530  -34.0300 N   0  0  0  0  0  0  0  0  0  0  0  0
   -5.1800   16.0350  -33.3100 N   0  0  0  0  0  0  0  0  0  0  0  0
   -4.2720   14.8890  -33.2120 C   0  0  2  0  0  0  0  0  0  0  0  0
   -4.5920   14.0050  -32.0270 C   0  0  0  0  0  0  0  0  0  0  0  0
   -3.2450   13.4220  -31.6230 C   0  0  0  0  0  0  0  0  0  0  0  0
   -2.1830   14.2490  -32.2100 N   0  0  0  0  0  0  0  0  0  0  0  0
   -2.8350   15.3170  -32.9670 C   0  0  0  0  0  0  0  0  0  0  0  0
   -5.0240   17.2140  -32.6790 C   0  0  0  0  0  0  0  0  0  0  0  0
   -5.3430   20.1410  -31.8670 C   0  0  0  0  0  0  0  0  0  0  0  0
   -5.6210   21.4520  -31.4610 C   0  0  0  0  0  0  0  0  0  0  0  0
   -4.8300   22.3020  -30.7680 N   0  0  0  0  0  0  0  0  0  0  0  0
   -3.5190   22.0210  -30.2500 C   0  0  0  0  0  0  0  0  0  0  0  0
   -3.2040   20.8390  -29.9430 O   0  0  0  0  0  0  0  0  0  0  0  0
   -2.5990   23.0630  -30.0860 O   0  0  0  0  0  0  0  0  0  0  0  0
   -1.9460   23.3430  -28.8500 C   0  0  0  0  0  0  0  0  0  0  0  0
   -1.0950   24.5660  -28.9780 C   0  0  0  0  0  0  0  0  0  0  0  0
   -1.6050   25.6630  -29.3280 O   0  0  0  0  0  0  0  0  0  0  0  0
    0.2670   24.4940  -28.7130 O   0  0  0  0  0  0  0  0  0  0  0  0
   -3.5330   26.1050  -29.7250 H   0  0  0  0  0  0  0  0  0  0  0  0
   -3.2860   24.9040  -31.0350 H   0  0  0  0  0  0  0  0  0  0  0  0
   -7.6636   24.0095  -31.1295 H   0  0  0  0  0  0  0  0  0  0  0  0
   -8.8283   21.8281  -32.5591 H   0  0  0  0  0  0  0  0  0  0  0  0
   -8.3792   19.4854  -33.3529 H   0  0  0  0  0  0  0  0  0  0  0  0
   -7.8028   17.5867  -34.3447 H   0  0  0  0  0  0  0  0  0  0  0  0
   -4.3973   14.3652  -34.1711 H   0  0  0  0  0  0  0  0  0  0  0  0
   -5.0242   14.5950  -31.2053 H   0  0  0  0  0  0  0  0  0  0  0  0
   -5.3326   13.2282  -32.2680 H   0  0  0  0  0  0  0  0  0  0  0  0
   -3.1537   13.4244  -30.5268 H   0  0  0  0  0  0  0  0  0  0  0  0
   -3.1592   12.3868  -31.9848 H   0  0  0  0  0  0  0  0  0  0  0  0
   -1.6380   13.6580  -32.8820 H   0  0  0  0  0  0  0  0  0  0  0  0
   -2.8148   16.2532  -32.3898 H   0  0  0  0  0  0  0  0  0  0  0  0
   -2.3140   15.4911  -33.9200 H   0  0  0  0  0  0  0  0  0  0  0  0
   -4.1931   17.4820  -32.0099 H   0  0  0  0  0  0  0  0  0  0  0  0
   -4.3673   19.6811  -31.6515 H   0  0  0  0  0  0  0  0  0  0  0  0
   -2.7028   23.5077  -28.0689 H   0  0  0  0  0  0  0  0  0  0  0  0
   -1.3069   22.4889  -28.5814 H   0  0  0  0  0  0  0  0  0  0  0  0
  1  2  1  0
  2  3  2  0
  2  4  1  0
  4  5  2  0
  5  6  1  0
  6  7  2  0
  7  8  1  0
  8  9  2  0
  9 10  1  0
 10 11  1  0
 11 12  2  0
 12 13  1  0
 13 14  1  0
 14 15  1  0
 15 16  1  0
 16 17  1  0
 17 18  1  0
 13 19  1  0
  9 20  1  0
 20 21  2  0
 21 22  1  0
 22 23  1  0
 23 24  2  0
 23 25  1  0
 25 26  1  0
 26 27  1  0
 27 28  2  0
 27 29  1  0
 22  4  1  0
 21  6  1  0
 19 10  2  0
 18 14  1  0
  1 30  1  0
  1 31  1  0
  5 32  1  0
  7 33  1  0
  8 34  1  0
 11 35  1  0
 14 36  1  6
 15 37  1  0
 15 38  1  0
 16 39  1  0
 16 40  1  0
 17 41  1  0
 18 42  1  0
 18 43  1  0
 19 44  1  0
 20 45  1  0
 26 46  1  0
 26 47  1  0
M  CHG  1  29  -1
M  END
>  <UniqueID>  (73) 
72

>  <SMILES>  (73) 
NC(=O)c1cc2ccc(-c3cnn([C@@H]4CCNC4)c3)cc2n1C(=O)OCC(=O)[O-]

>  <Energy>  (73) 
119.85510104047542

>  <Genealogy>  (73) 
NC(=O)c1cc2ccc(-c3cnn(C4CCNC4)c3)cc2n1C(=O)OCC(=O)[O-] (protonated)
NC(=O)c1cc2ccc(-c3cnn([C@@H]4CCNC4)c3)cc2n1C(=O)OCC(=O)[O-] (chirality)
NC(=O)c1cc2ccc(-c3cnn([C@@H]4CCNC4)c3)cc2n1C(=O)OCC(=O)[O-] (3D coordinates assigned)
NC(=O)c1cc2ccc(-c3cnn([C@@H]4CCNC4)c3)cc2n1C(=O)OCC(=O)[O-] (nonaromatic ring conformer: 119.85510104047542 kcal/mol)

>  <smiles>  (73) 
NC(=O)c1cc2ccc(-c3cnn(C4CCNC4)c3)cc2n1C(=O)OCC(=O)O

>  <score_type>  (73) 
oracle

>  <origin>  (73) 
adg

>  <m_score__min__energy>  (73) 
-12.08

>  <m_primary>  (73) 
energy

$$$$
74:0
     RDKit          3D

 41 43  0  0  0  0  0  0  0  0999 V2000
   -3.8740   25.6310  -30.8500 N   0  0  0  0  0  0  0  0  0  0  0  0
   -5.2040   25.2840  -30.4730 C   0  0  0  0  0  0  0  0  0  0  0  0
   -5.8530   26.0540  -29.7170 O   0  0  0  0  0  0  0  0  0  0  0  0
   -5.7890   24.0080  -30.9350 C   0  0  0  0  0  0  0  0  0  0  0  0
   -7.1610   23.7730  -31.0020 C   0  0  0  0  0  0  0  0  0  0  0  0
   -7.2900   22.5190  -31.5520 C   0  0  0  0  0  0  0  0  0  0  0  0
   -8.4340   21.7740  -31.8250 C   0  0  0  0  0  0  0  0  0  0  0  0
   -8.2690   20.4860  -32.3580 C   0  0  0  0  0  0  0  0  0  0  0  0
   -6.9750   19.9690  -32.6120 C   0  0  0  0  0  0  0  0  0  0  0  0
   -6.8120   18.5720  -33.1320 C   0  0  0  0  0  0  0  0  0  0  0  0
   -6.1070   18.6020  -34.3210 F   0  0  0  0  0  0  0  0  0  0  0  0
   -5.8360   20.7460  -32.3060 C   0  0  0  0  0  0  0  0  0  0  0  0
   -6.0290   22.0350  -31.7940 C   0  0  0  0  0  0  0  0  0  0  0  0
   -5.0960   22.9380  -31.4190 N   0  0  0  0  0  0  0  0  0  0  0  0
   -3.6720   22.7530  -31.4380 C   0  0  0  0  0  0  0  0  0  0  0  0
   -3.1180   22.2610  -32.4570 O   0  0  0  0  0  0  0  0  0  0  0  0
   -2.9180   23.0980  -30.3080 O   0  0  0  0  0  0  0  0  0  0  0  0
   -2.7850   22.3120  -29.1550 C   0  0  0  0  0  0  0  0  0  0  0  0
   -2.7140   21.0550  -29.2330 O   0  0  0  0  0  0  0  0  0  0  0  0
   -2.6220   23.0020  -27.8230 C   0  0  2  0  0  0  0  0  0  0  0  0
   -3.1550   24.4380  -27.7550 C   0  0  0  0  0  0  0  0  0  0  0  0
   -1.7860   24.9320  -27.2700 C   0  0  2  0  0  0  0  0  0  0  0  0
   -1.1640   26.0400  -28.0850 C   0  0  0  0  0  0  0  0  0  0  0  0
   -1.2180   26.0300  -29.3440 O   0  0  0  0  0  0  0  0  0  0  0  0
   -0.6000   27.1330  -27.4390 O   0  0  0  0  0  0  0  0  0  0  0  0
   -1.2120   23.5110  -27.4540 C   0  0  2  0  0  0  0  0  0  0  0  0
   -0.1390   23.3490  -28.5110 C   0  0  0  0  0  0  0  0  0  0  0  0
   -0.1760   22.4000  -29.3400 O   0  0  0  0  0  0  0  0  0  0  0  0
    0.9120   24.2560  -28.5620 O   0  0  0  0  0  0  0  0  0  0  0  0
   -3.0540   25.2860  -30.3040 H   0  0  0  0  0  0  0  0  0  0  0  0
   -7.9693   24.4474  -30.6827 H   0  0  0  0  0  0  0  0  0  0  0  0
   -9.4365   22.1822  -31.6290 H   0  0  0  0  0  0  0  0  0  0  0  0
   -9.1539   19.8717  -32.5808 H   0  0  0  0  0  0  0  0  0  0  0  0
   -6.2623   17.9682  -32.3949 H   0  0  0  0  0  0  0  0  0  0  0  0
   -7.8031   18.1271  -33.3046 H   0  0  0  0  0  0  0  0  0  0  0  0
   -4.8228   20.3486  -32.4658 H   0  0  0  0  0  0  0  0  0  0  0  0
   -3.0772   22.1974  -27.2269 H   0  0  0  0  0  0  0  0  0  0  0  0
   -3.4603   24.8490  -28.7286 H   0  0  0  0  0  0  0  0  0  0  0  0
   -4.0627   24.6652  -27.1766 H   0  0  0  0  0  0  0  0  0  0  0  0
   -1.6780   25.4382  -26.2994 H   0  0  0  0  0  0  0  0  0  0  0  0
   -0.6411   23.0320  -26.6449 H   0  0  0  0  0  0  0  0  0  0  0  0
  1  2  1  0
  2  3  2  0
  2  4  1  0
  4  5  2  0
  5  6  1  0
  6  7  2  0
  7  8  1  0
  8  9  2  0
  9 10  1  0
 10 11  1  0
  9 12  1  0
 12 13  2  0
 13 14  1  0
 14 15  1  0
 15 16  2  0
 15 17  1  0
 17 18  1  0
 18 19  2  0
 18 20  1  0
 20 21  1  0
 21 22  1  0
 22 23  1  0
 23 24  2  0
 23 25  1  0
 22 26  1  0
 26 27  1  0
 27 28  2  0
 27 29  1  0
 14  4  1  0
 26 20  1  0
 13  6  1  0
  1 30  1  0
  5 31  1  0
  7 32  1  0
  8 33  1  0
 10 34  1  0
 10 35  1  0
 12 36  1  0
 20 37  1  1
 21 38  1  0
 21 39  1  0
 22 40  1  1
 26 41  1  1
M  CHG  3   1  -1  25  -1  29  -1
M  END
>  <UniqueID>  (74) 
73

>  <SMILES>  (74) 
[NH-]C(=O)c1cc2ccc(CF)cc2n1C(=O)OC(=O)[C@@H]1C[C@H](C(=O)[O-])C1C(=O)[O-]

>  <Energy>  (74) 
151.81866431590953

>  <Genealogy>  (74) 
[NH-]C(=O)c1cc2ccc(CF)cc2n1C(=O)OC(=O)C1CC(C(=O)[O-])C1C(=O)[O-] (protonated)
[NH-]C(=O)c1cc2ccc(CF)cc2n1C(=O)OC(=O)[C@@H]1C[C@H](C(=O)[O-])C1C(=O)[O-] (chirality)
[NH-]C(=O)c1cc2ccc(CF)cc2n1C(=O)OC(=O)[C@@H]1C[C@H](C(=O)[O-])C1C(=O)[O-] (3D coordinates assigned)
[NH-]C(=O)c1cc2ccc(CF)cc2n1C(=O)OC(=O)[C@@H]1C[C@H](C(=O)[O-])C1C(=O)[O-] (nonaromatic ring conformer: 151.81866431590953 kcal/mol)

>  <smiles>  (74) 
NC(=O)c1cc2ccc(CF)cc2n1C(=O)OC(=O)C1CC(C(=O)O)C1C(=O)O

>  <score_type>  (74) 
oracle

>  <origin>  (74) 
adg

>  <m_score__min__energy>  (74) 
-13.66

>  <m_primary>  (74) 
energy

$$$$
75:0
     RDKit          3D

 96103  0  0  0  0  0  0  0  0999 V2000
    1.1100   12.9210  -28.7360 C   0  0  0  0  0  0  0  0  0  0  0  0
    1.4970   14.3040  -28.4330 N   0  0  0  0  0  0  0  0  0  0  0  0
    1.5760   14.7490  -27.0610 C   0  0  0  0  0  0  0  0  0  0  0  0
    1.3400   13.9520  -26.1080 O   0  0  0  0  0  0  0  0  0  0  0  0
    1.9960   16.1550  -26.7410 C   0  0  0  0  0  0  0  0  0  0  0  0
    1.6150   17.0990  -27.8900 C   0  0  0  0  0  0  0  0  0  0  0  0
    2.2380   16.6290  -29.2170 C   0  0  2  0  0  0  0  0  0  0  0  0
    1.7460   17.4790  -30.3150 N   0  0  0  0  0  0  0  0  0  0  0  0
    0.4790   18.1270  -30.4200 C   0  0  0  0  0  0  0  0  0  0  0  0
   -0.4930   17.9350  -29.6280 O   0  0  0  0  0  0  0  0  0  0  0  0
    0.4990   19.0920  -31.5090 C   0  0  0  0  0  0  0  0  0  0  0  0
   -0.5170   19.8890  -32.0140 C   0  0  0  0  0  0  0  0  0  0  0  0
   -0.2150   20.7200  -33.1030 C   0  0  0  0  0  0  0  0  0  0  0  0
   -1.2190   21.4440  -33.6510 F   0  0  0  0  0  0  0  0  0  0  0  0
    1.1050   20.7850  -33.6410 C   0  0  0  0  0  0  0  0  0  0  0  0
    1.3840   21.7450  -34.7900 C   0  0  0  0  0  0  0  0  0  0  0  0
    2.6100   21.3190  -35.6030 C   0  0  0  0  0  0  0  0  0  0  0  0
    1.8280   21.0200  -36.8160 N   0  0  0  0  0  0  0  0  0  0  0  0
    1.7110   19.5820  -37.2020 C   0  0  1  0  0  0  0  0  0  0  0  0
    3.0960   18.9050  -36.9830 C   0  0  0  0  0  0  0  0  0  0  0  0
    3.1820   18.1700  -35.6230 C   0  0  0  0  0  0  0  0  0  0  0  0
    2.0910   17.0740  -35.4440 C   0  0  1  0  0  0  0  0  0  0  0  0
    1.6320   17.0710  -34.0490 N   0  0  0  0  0  0  0  0  0  0  0  0
    0.6420   16.1400  -33.6030 C   0  0  0  0  0  0  0  0  0  0  0  0
    0.9760   14.9450  -33.3670 O   0  0  0  0  0  0  0  0  0  0  0  0
   -0.7840   16.5300  -33.6360 C   0  0  0  0  0  0  0  0  0  0  0  0
   -1.7450   15.7190  -33.0130 C   0  0  0  0  0  0  0  0  0  0  0  0
   -3.0660   16.1640  -32.8690 C   0  0  0  0  0  0  0  0  0  0  0  0
   -3.4390   17.4470  -33.3060 C   0  0  0  0  0  0  0  0  0  0  0  0
   -4.8010   17.9750  -33.0280 C   0  0  0  0  0  0  0  0  0  0  0  0
   -5.9500   17.1760  -33.2750 C   0  0  0  0  0  0  0  0  0  0  0  0
   -7.2420   17.6910  -33.0890 C   0  0  0  0  0  0  0  0  0  0  0  0
   -7.3640   19.0100  -32.6600 C   0  0  0  0  0  0  0  0  0  0  0  0
   -8.4880   19.7550  -32.4180 C   0  0  0  0  0  0  0  0  0  0  0  0
   -8.0240   21.0040  -32.0020 C   0  0  0  0  0  0  0  0  0  0  0  0
   -8.9270   22.1330  -31.6900 C   0  0  0  0  0  0  0  0  0  0  0  0
   -8.5190   23.4790  -31.9550 N   0  0  0  0  0  0  0  0  0  0  0  0
  -10.0790   21.9200  -31.2310 O   0  0  0  0  0  0  0  0  0  0  0  0
   -6.6580   21.0240  -31.9940 N   0  0  0  0  0  0  0  0  0  0  0  0
   -5.7970   22.1440  -31.7370 C   0  0  0  0  0  0  0  0  0  0  0  0
   -5.5030   22.9300  -32.6800 O   0  0  0  0  0  0  0  0  0  0  0  0
   -5.2640   22.3420  -30.4530 O   0  0  0  0  0  0  0  0  0  0  0  0
   -4.3270   23.3690  -30.1160 C   0  0  0  0  0  0  0  0  0  0  0  0
   -4.1750   23.4960  -28.3390 Cl  0  0  0  0  0  0  0  0  0  0  0  0
   -2.7470   22.9120  -30.7820 Cl  0  0  0  0  0  0  0  0  0  0  0  0
   -4.7220   24.6900  -30.7140 C   0  0  0  0  0  0  0  0  0  0  0  0
   -3.8650   25.6060  -30.8470 O   0  0  0  0  0  0  0  0  0  0  0  0
   -6.0490   24.9490  -31.0420 O   0  0  0  0  0  0  0  0  0  0  0  0
   -6.2700   19.7980  -32.4080 C   0  0  0  0  0  0  0  0  0  0  0  0
   -4.9730   19.3100  -32.5830 C   0  0  0  0  0  0  0  0  0  0  0  0
   -2.4860   18.2340  -33.9900 C   0  0  0  0  0  0  0  0  0  0  0  0
   -1.1750   17.7740  -34.1640 C   0  0  0  0  0  0  0  0  0  0  0  0
    0.9010   17.3040  -36.3950 C   0  0  0  0  0  0  0  0  0  0  0  0
    0.5880   18.8040  -36.4550 C   0  0  0  0  0  0  0  0  0  0  0  0
    0.6260   21.5010  -36.1000 C   0  0  0  0  0  0  0  0  0  0  0  0
    2.0900   19.8980  -33.1420 C   0  0  0  0  0  0  0  0  0  0  0  0
    1.7580   19.0730  -32.0700 C   0  0  0  0  0  0  0  0  0  0  0  0
    2.5520   18.0910  -31.3320 C   0  0  0  0  0  0  0  0  0  0  0  0
    3.7630   17.8040  -31.5460 O   0  0  0  0  0  0  0  0  0  0  0  0
    1.9240   15.1800  -29.4930 C   0  0  0  0  0  0  0  0  0  0  0  0
    2.1260   14.7170  -30.6510 O   0  0  0  0  0  0  0  0  0  0  0  0
    0.9556   12.3693  -27.7969 H   0  0  0  0  0  0  0  0  0  0  0  0
    0.1772   12.9206  -29.3191 H   0  0  0  0  0  0  0  0  0  0  0  0
    1.9071   12.4366  -29.3191 H   0  0  0  0  0  0  0  0  0  0  0  0
    1.4928   16.4833  -25.8195 H   0  0  0  0  0  0  0  0  0  0  0  0
    3.0871   16.1802  -26.6038 H   0  0  0  0  0  0  0  0  0  0  0  0
    0.5200   17.1174  -27.9929 H   0  0  0  0  0  0  0  0  0  0  0  0
    1.9964   18.1047  -27.6596 H   0  0  0  0  0  0  0  0  0  0  0  0
    3.3316   16.7197  -29.1403 H   0  0  0  0  0  0  0  0  0  0  0  0
   -1.5257   19.8703  -31.5755 H   0  0  0  0  0  0  0  0  0  0  0  0
    1.2755   22.6874  -34.2331 H   0  0  0  0  0  0  0  0  0  0  0  0
    3.3385   22.1307  -35.7461 H   0  0  0  0  0  0  0  0  0  0  0  0
    3.2585   20.5305  -35.1935 H   0  0  0  0  0  0  0  0  0  0  0  0
    1.4140   19.5478  -38.2606 H   0  0  0  0  0  0  0  0  0  0  0  0
    3.8773   19.6786  -37.0171 H   0  0  0  0  0  0  0  0  0  0  0  0
    3.2352   18.1583  -37.7786 H   0  0  0  0  0  0  0  0  0  0  0  0
    3.0676   18.9110  -34.8181 H   0  0  0  0  0  0  0  0  0  0  0  0
    4.1588   17.6655  -35.5871 H   0  0  0  0  0  0  0  0  0  0  0  0
    2.5317   16.0975  -35.6936 H   0  0  0  0  0  0  0  0  0  0  0  0
   -1.4592   14.7264  -32.6348 H   0  0  0  0  0  0  0  0  0  0  0  0
   -3.8171   15.5041  -32.4103 H   0  0  0  0  0  0  0  0  0  0  0  0
   -5.8247   16.1381  -33.6172 H   0  0  0  0  0  0  0  0  0  0  0  0
   -8.1314   17.0715  -33.2764 H   0  0  0  0  0  0  0  0  0  0  0  0
   -9.5350   19.4362  -32.5282 H   0  0  0  0  0  0  0  0  0  0  0  0
   -7.5040   23.7050  -32.0590 H   0  0  0  0  0  0  0  0  0  0  0  0
   -9.2100   24.2600  -31.8860 H   0  0  0  0  0  0  0  0  0  0  0  0
   -4.1015   19.9495  -32.3794 H   0  0  0  0  0  0  0  0  0  0  0  0
   -2.7764   19.2169  -34.3895 H   0  0  0  0  0  0  0  0  0  0  0  0
   -0.4478   18.3878  -34.7158 H   0  0  0  0  0  0  0  0  0  0  0  0
    0.0212   16.7589  -36.0224 H   0  0  0  0  0  0  0  0  0  0  0  0
    1.1549   16.9383  -37.4009 H   0  0  0  0  0  0  0  0  0  0  0  0
    0.5014   19.1941  -35.4302 H   0  0  0  0  0  0  0  0  0  0  0  0
   -0.3560   18.9421  -37.0025 H   0  0  0  0  0  0  0  0  0  0  0  0
    0.2002   22.4182  -36.5330 H   0  0  0  0  0  0  0  0  0  0  0  0
   -0.2639   20.8549  -36.0777 H   0  0  0  0  0  0  0  0  0  0  0  0
    3.0937   19.8615  -33.5906 H   0  0  0  0  0  0  0  0  0  0  0  0
  1  2  1  0
  2  3  1  0
  3  4  2  0
  3  5  1  0
  5  6  1  0
  6  7  1  0
  7  8  1  0
  8  9  1  0
  9 10  2  0
  9 11  1  0
 11 12  2  0
 12 13  1  0
 13 14  1  0
 13 15  2  0
 15 16  1  0
 16 17  1  0
 17 18  1  0
 18 19  1  0
 19 20  1  0
 20 21  1  0
 21 22  1  0
 22 23  1  0
 23 24  1  0
 24 25  2  0
 24 26  1  0
 26 27  2  0
 27 28  1  0
 28 29  2  0
 29 30  1  0
 30 31  2  0
 31 32  1  0
 32 33  2  0
 33 34  1  0
 34 35  2  0
 35 36  1  0
 36 37  1  0
 36 38  2  0
 35 39  1  0
 39 40  1  0
 40 41  2  0
 40 42  1  0
 42 43  1  0
 43 44  1  0
 43 45  1  0
 43 46  1  0
 46 47  2  0
 46 48  1  0
 39 49  1  0
 49 50  2  0
 29 51  1  0
 51 52  2  0
 22 53  1  0
 53 54  1  0
 18 55  1  0
 15 56  1  0
 56 57  2  0
 57 58  1  0
 58 59  2  0
  7 60  1  0
 60 61  2  0
 60  2  1  0
 58  8  1  0
 57 11  1  0
 55 16  1  0
 54 19  1  0
 52 26  1  0
 50 30  1  0
 49 33  1  0
  1 62  1  0
  1 63  1  0
  1 64  1  0
  5 65  1  0
  5 66  1  0
  6 67  1  0
  6 68  1  0
  7 69  1  1
 12 70  1  0
 16 71  1  0
 17 72  1  0
 17 73  1  0
 19 74  1  6
 20 75  1  0
 20 76  1  0
 21 77  1  0
 21 78  1  0
 22 79  1  6
 27 80  1  0
 28 81  1  0
 31 82  1  0
 32 83  1  0
 34 84  1  0
 37 85  1  0
 37 86  1  0
 50 87  1  0
 51 88  1  0
 52 89  1  0
 53 90  1  0
 53 91  1  0
 54 92  1  0
 54 93  1  0
 55 94  1  0
 55 95  1  0
 56 96  1  0
M  CHG  2  23  -1  48  -1
M  END
>  <UniqueID>  (75) 
74

>  <SMILES>  (75) 
CN1C(=O)CC[C@H](N2C(=O)c3cc(F)c(C4CN(C5CCC([N-]C(=O)c6ccc(-c7ccc8cc(C(N)=O)n(C(=O)OC(Cl)(Cl)C(=O)[O-])c8c7)cc6)CC5)C4)cc3C2=O)C1=O

>  <Energy>  (75) 
276.13890913316453

>  <Genealogy>  (75) 
CN1C(=O)CCC(N2C(=O)c3cc(F)c(C4CN(C5CCC([N-]C(=O)c6ccc(-c7ccc8cc(C(N)=O)n(C(=O)OC(Cl)(Cl)C(=O)[O-])c8c7)cc6)CC5)C4)cc3C2=O)C1=O (protonated)
CN1C(=O)CC[C@H](N2C(=O)c3cc(F)c(C4CN(C5CCC([N-]C(=O)c6ccc(-c7ccc8cc(C(N)=O)n(C(=O)OC(Cl)(Cl)C(=O)[O-])c8c7)cc6)CC5)C4)cc3C2=O)C1=O (chirality)
CN1C(=O)CC[C@H](N2C(=O)c3cc(F)c(C4CN(C5CCC([N-]C(=O)c6ccc(-c7ccc8cc(C(N)=O)n(C(=O)OC(Cl)(Cl)C(=O)[O-])c8c7)cc6)CC5)C4)cc3C2=O)C1=O (3D coordinates assigned)
CN1C(=O)CC[C@H](N2C(=O)c3cc(F)c(C4CN(C5CCC([N-]C(=O)c6ccc(-c7ccc8cc(C(N)=O)n(C(=O)OC(Cl)(Cl)C(=O)[O-])c8c7)cc6)CC5)C4)cc3C2=O)C1=O (nonaromatic ring conformer: 276.13890913316453 kcal/mol)

>  <smiles>  (75) 
CN1C(=O)CCC(N2C(=O)c3cc(F)c(C4CN(C5CCC(NC(=O)c6ccc(-c7ccc8cc(C(N)=O)n(C(=O)OC(Cl)(Cl)C(=O)O)c8c7)cc6)CC5)C4)cc3C2=O)C1=O

>  <score_type>  (75) 
oracle

>  <origin>  (75) 
adg

>  <m_score__min__energy>  (75) 
-15.18

>  <m_primary>  (75) 
energy

$$$$
76:0
     RDKit          3D

 38 40  0  0  0  0  0  0  0  0999 V2000
   -7.0800   17.6310  -32.6130 C   0  0  0  0  0  0  0  0  0  0  0  0
   -7.9350   18.7440  -33.0130 N   0  0  0  0  0  0  0  0  0  0  0  0
   -7.8440   20.0620  -32.4420 C   0  0  0  0  0  0  0  0  0  0  0  0
   -9.0010   20.8520  -32.2070 C   0  0  0  0  0  0  0  0  0  0  0  0
   -8.8920   22.1400  -31.6580 C   0  0  0  0  0  0  0  0  0  0  0  0
   -7.6210   22.6120  -31.3470 C   0  0  0  0  0  0  0  0  0  0  0  0
   -7.2300   23.8280  -30.8370 C   0  0  0  0  0  0  0  0  0  0  0  0
   -5.8420   23.7590  -30.7390 C   0  0  0  0  0  0  0  0  0  0  0  0
   -5.0140   24.8360  -30.1590 C   0  0  0  0  0  0  0  0  0  0  0  0
   -3.8630   25.3250  -30.8420 N   0  0  0  0  0  0  0  0  0  0  0  0
   -5.2960   25.2940  -29.0200 O   0  0  0  0  0  0  0  0  0  0  0  0
   -5.3900   22.5500  -31.1820 N   0  0  0  0  0  0  0  0  0  0  0  0
   -4.0260   22.1300  -31.3400 C   0  0  0  0  0  0  0  0  0  0  0  0
   -3.3060   22.6570  -32.2310 O   0  0  0  0  0  0  0  0  0  0  0  0
   -3.5080   21.1430  -30.4890 O   0  0  0  0  0  0  0  0  0  0  0  0
   -3.0930   21.3520  -29.1660 C   0  0  0  0  0  0  0  0  0  0  0  0
   -3.0670   20.3960  -28.3420 O   0  0  0  0  0  0  0  0  0  0  0  0
   -2.6820   22.7070  -28.7400 C   0  0  0  0  0  0  0  0  0  0  0  0
   -3.2460   23.2980  -27.5970 C   0  0  0  0  0  0  0  0  0  0  0  0
   -2.8480   24.5760  -27.2010 C   0  0  0  0  0  0  0  0  0  0  0  0
   -1.8880   25.2570  -27.9500 C   0  0  0  0  0  0  0  0  0  0  0  0
   -1.3480   24.6760  -29.0530 N   0  0  0  0  0  0  0  0  0  0  0  0
   -1.7170   23.4330  -29.4600 C   0  0  0  0  0  0  0  0  0  0  0  0
   -6.4940   21.8590  -31.5480 C   0  0  0  0  0  0  0  0  0  0  0  0
   -6.5710   20.5790  -32.1110 C   0  0  0  0  0  0  0  0  0  0  0  0
   -7.0384   17.5768  -31.5151 H   0  0  0  0  0  0  0  0  0  0  0  0
   -7.4908   16.6915  -33.0112 H   0  0  0  0  0  0  0  0  0  0  0  0
   -6.0664   17.7858  -33.0112 H   0  0  0  0  0  0  0  0  0  0  0  0
   -8.6480   18.5620  -33.7560 H   0  0  0  0  0  0  0  0  0  0  0  0
   -9.9938   20.4502  -32.4579 H   0  0  0  0  0  0  0  0  0  0  0  0
   -9.7849   22.7571  -31.4793 H   0  0  0  0  0  0  0  0  0  0  0  0
   -7.8762   24.6754  -30.5643 H   0  0  0  0  0  0  0  0  0  0  0  0
   -2.9170   25.2790  -30.4030 H   0  0  0  0  0  0  0  0  0  0  0  0
   -4.0023   22.7528  -27.0133 H   0  0  0  0  0  0  0  0  0  0  0  0
   -3.2873   25.0419  -26.3066 H   0  0  0  0  0  0  0  0  0  0  0  0
   -1.5681   26.2650  -27.6473 H   0  0  0  0  0  0  0  0  0  0  0  0
   -1.2582   22.9926  -30.3575 H   0  0  0  0  0  0  0  0  0  0  0  0
   -5.6605   19.9888  -32.2917 H   0  0  0  0  0  0  0  0  0  0  0  0
  1  2  1  0
  2  3  1  0
  3  4  2  0
  4  5  1  0
  5  6  2  0
  6  7  1  0
  7  8  2  0
  8  9  1  0
  9 10  1  0
  9 11  2  0
  8 12  1  0
 12 13  1  0
 13 14  2  0
 13 15  1  0
 15 16  1  0
 16 17  2  0
 16 18  1  0
 18 19  2  0
 19 20  1  0
 20 21  2  0
 21 22  1  0
 22 23  2  0
 12 24  1  0
 24 25  2  0
 25  3  1  0
 24  6  1  0
 23 18  1  0
  1 26  1  0
  1 27  1  0
  1 28  1  0
  2 29  1  0
  4 30  1  0
  5 31  1  0
  7 32  1  0
 10 33  1  0
 19 34  1  0
 20 35  1  0
 21 36  1  0
 23 37  1  0
 25 38  1  0
M  CHG  1  10  -1
M  END
>  <UniqueID>  (76) 
75

>  <SMILES>  (76) 
CNc1ccc2cc(C([NH-])=O)n(C(=O)OC(=O)c3cccnc3)c2c1

>  <Energy>  (76) 
80.65188330139328

>  <Genealogy>  (76) 
CNc1ccc2cc(C([NH-])=O)n(C(=O)OC(=O)c3cccnc3)c2c1 (protonated)
CNc1ccc2cc(C([NH-])=O)n(C(=O)OC(=O)c3cccnc3)c2c1 (3D coordinates assigned)
CNc1ccc2cc(C([NH-])=O)n(C(=O)OC(=O)c3cccnc3)c2c1 (optimized conformer: 80.65188330139328 kcal/mol)

>  <smiles>  (76) 
CNc1ccc2cc(C(N)=O)n(C(=O)OC(=O)c3cccnc3)c2c1

>  <score_type>  (76) 
oracle

>  <origin>  (76) 
adg

>  <m_score__min__energy>  (76) 
-10.609999999999999

>  <m_primary>  (76) 
energy

$$$$
77:0
     RDKit          3D

 43 44  0  0  0  0  0  0  0  0999 V2000
   -7.1970   18.5690  -33.0930 C   0  0  0  0  0  0  0  0  0  0  0  0
   -7.3060   19.9440  -32.5050 C   0  0  0  0  0  0  0  0  0  0  0  0
   -8.5700   20.4540  -32.1190 C   0  0  0  0  0  0  0  0  0  0  0  0
   -8.6830   21.7340  -31.5510 C   0  0  0  0  0  0  0  0  0  0  0  0
   -7.5170   22.4690  -31.3640 C   0  0  0  0  0  0  0  0  0  0  0  0
   -7.3400   23.7420  -30.8680 C   0  0  0  0  0  0  0  0  0  0  0  0
   -5.9660   23.9720  -30.9240 C   0  0  0  0  0  0  0  0  0  0  0  0
   -5.3260   25.2060  -30.4230 C   0  0  0  0  0  0  0  0  0  0  0  0
   -4.0470   25.6180  -30.9010 N   0  0  0  0  0  0  0  0  0  0  0  0
   -5.8970   25.8870  -29.5290 O   0  0  0  0  0  0  0  0  0  0  0  0
   -5.3210   22.8870  -31.4350 N   0  0  0  0  0  0  0  0  0  0  0  0
   -3.9270   22.7540  -31.7440 C   0  0  0  0  0  0  0  0  0  0  0  0
   -3.0630   23.1490  -30.9150 O   0  0  0  0  0  0  0  0  0  0  0  0
   -3.5380   22.1720  -32.9560 O   0  0  0  0  0  0  0  0  0  0  0  0
   -2.4040   21.3210  -33.1000 C   0  0  0  0  0  0  0  0  0  0  0  0
   -2.3200   20.4290  -31.9920 O   0  0  0  0  0  0  0  0  0  0  0  0
   -1.1150   20.0090  -31.4210 C   0  0  0  0  0  0  0  0  0  0  0  0
   -0.8820   18.7830  -31.2340 O   0  0  0  0  0  0  0  0  0  0  0  0
   -0.1750   20.9720  -31.0470 O   0  0  0  0  0  0  0  0  0  0  0  0
   -0.4930   22.0600  -30.1840 C   0  0  0  0  0  0  0  0  0  0  0  0
   -0.9560   21.5610  -28.9340 O   0  0  0  0  0  0  0  0  0  0  0  0
   -1.2950   22.3940  -27.8630 C   0  0  0  0  0  0  0  0  0  0  0  0
   -0.9410   22.1070  -26.6870 O   0  0  0  0  0  0  0  0  0  0  0  0
   -2.0480   23.6570  -28.1240 C   0  0  0  0  0  0  0  0  0  0  0  0
   -1.1280   24.6900  -28.6860 C   0  0  0  0  0  0  0  0  0  0  0  0
   -1.5900   25.6730  -29.3220 O   0  0  0  0  0  0  0  0  0  0  0  0
    0.2480   24.5430  -28.5510 O   0  0  0  0  0  0  0  0  0  0  0  0
   -6.2820   21.9760  -31.7010 C   0  0  0  0  0  0  0  0  0  0  0  0
   -6.1410   20.7120  -32.2850 C   0  0  0  0  0  0  0  0  0  0  0  0
   -7.1382   17.8273  -32.2828 H   0  0  0  0  0  0  0  0  0  0  0  0
   -8.0818   18.3645  -33.7138 H   0  0  0  0  0  0  0  0  0  0  0  0
   -6.2911   18.5064  -33.7138 H   0  0  0  0  0  0  0  0  0  0  0  0
   -9.4720   19.8417  -32.2655 H   0  0  0  0  0  0  0  0  0  0  0  0
   -9.6630   22.1422  -31.2631 H   0  0  0  0  0  0  0  0  0  0  0  0
   -8.1173   24.4305  -30.5050 H   0  0  0  0  0  0  0  0  0  0  0  0
   -3.1700   25.2620  -30.4600 H   0  0  0  0  0  0  0  0  0  0  0  0
   -2.5004   20.7398  -34.0290 H   0  0  0  0  0  0  0  0  0  0  0  0
   -1.4932   21.9366  -33.1377 H   0  0  0  0  0  0  0  0  0  0  0  0
    0.4056   22.6735  -30.0226 H   0  0  0  0  0  0  0  0  0  0  0  0
   -1.2807   22.6733  -30.6459 H   0  0  0  0  0  0  0  0  0  0  0  0
   -2.8560   23.4579  -28.8434 H   0  0  0  0  0  0  0  0  0  0  0  0
   -2.4739   24.0266  -27.1795 H   0  0  0  0  0  0  0  0  0  0  0  0
   -5.1495   20.3268  -32.5652 H   0  0  0  0  0  0  0  0  0  0  0  0
  1  2  1  0
  2  3  2  0
  3  4  1  0
  4  5  2  0
  5  6  1  0
  6  7  2  0
  7  8  1  0
  8  9  1  0
  8 10  2  0
  7 11  1  0
 11 12  1  0
 12 13  2  0
 12 14  1  0
 14 15  1  0
 15 16  1  0
 16 17  1  0
 17 18  2  0
 17 19  1  0
 19 20  1  0
 20 21  1  0
 21 22  1  0
 22 23  2  0
 22 24  1  0
 24 25  1  0
 25 26  2  0
 25 27  1  0
 11 28  1  0
 28 29  2  0
 29  2  1  0
 28  5  1  0
  1 30  1  0
  1 31  1  0
  1 32  1  0
  3 33  1  0
  4 34  1  0
  6 35  1  0
  9 36  1  0
 15 37  1  0
 15 38  1  0
 20 39  1  0
 20 40  1  0
 24 41  1  0
 24 42  1  0
 29 43  1  0
M  CHG  2   9  -1  27  -1
M  END
>  <UniqueID>  (77) 
76

>  <SMILES>  (77) 
Cc1ccc2cc(C([NH-])=O)n(C(=O)OCOC(=O)OCOC(=O)CC(=O)[O-])c2c1

>  <Energy>  (77) 
74.67457152344348

>  <Genealogy>  (77) 
Cc1ccc2cc(C([NH-])=O)n(C(=O)OCOC(=O)OCOC(=O)CC(=O)[O-])c2c1 (protonated)
Cc1ccc2cc(C([NH-])=O)n(C(=O)OCOC(=O)OCOC(=O)CC(=O)[O-])c2c1 (3D coordinates assigned)
Cc1ccc2cc(C([NH-])=O)n(C(=O)OCOC(=O)OCOC(=O)CC(=O)[O-])c2c1 (optimized conformer: 74.67457152344348 kcal/mol)

>  <smiles>  (77) 
Cc1ccc2cc(C(N)=O)n(C(=O)OCOC(=O)OCOC(=O)CC(=O)O)c2c1

>  <score_type>  (77) 
oracle

>  <origin>  (77) 
adg

>  <m_score__min__energy>  (77) 
-11.58

>  <m_primary>  (77) 
energy

$$$$
78:0
     RDKit          3D

 47 48  0  0  0  0  0  0  0  0999 V2000
   -1.0220   21.8090  -30.4200 C   0  0  0  0  0  0  0  0  0  0  0  0
   -1.2290   22.9560  -29.4150 C   0  0  1  0  0  0  0  0  0  0  0  0
   -2.5660   23.5800  -29.7200 C   0  0  0  0  0  0  0  0  0  0  0  0
   -2.6820   24.8350  -29.7300 O   0  0  0  0  0  0  0  0  0  0  0  0
   -3.6510   22.7480  -30.0210 O   0  0  0  0  0  0  0  0  0  0  0  0
   -4.2940   22.6710  -31.2630 C   0  0  0  0  0  0  0  0  0  0  0  0
   -3.6280   22.6830  -32.3340 O   0  0  0  0  0  0  0  0  0  0  0  0
   -5.7270   22.5640  -31.3130 N   0  0  0  0  0  0  0  0  0  0  0  0
   -6.6430   23.4960  -30.9260 C   0  0  0  0  0  0  0  0  0  0  0  0
   -6.3470   24.7650  -30.2340 C   0  0  0  0  0  0  0  0  0  0  0  0
   -5.0340   25.3260  -30.2460 N   0  0  0  0  0  0  0  0  0  0  0  0
   -7.2550   25.3340  -29.5720 O   0  0  0  0  0  0  0  0  0  0  0  0
   -7.9340   23.0640  -31.2130 C   0  0  0  0  0  0  0  0  0  0  0  0
   -7.7830   21.8180  -31.7770 C   0  0  0  0  0  0  0  0  0  0  0  0
   -8.7420   20.9330  -32.2520 C   0  0  0  0  0  0  0  0  0  0  0  0
   -8.3050   19.7200  -32.8080 C   0  0  0  0  0  0  0  0  0  0  0  0
   -6.9170   19.4090  -32.8990 C   0  0  0  0  0  0  0  0  0  0  0  0
   -6.4740   18.1550  -33.4830 N   0  0  0  0  0  0  0  0  0  0  0  0
   -5.6980   18.1440  -34.7300 C   0  0  0  0  0  0  0  0  0  0  0  0
   -6.7900   16.8750  -32.8370 C   0  0  0  0  0  0  0  0  0  0  0  0
   -5.9760   20.3510  -32.4070 C   0  0  0  0  0  0  0  0  0  0  0  0
   -6.4430   21.5400  -31.8300 C   0  0  0  0  0  0  0  0  0  0  0  0
   -1.1900   22.4830  -28.0020 N   0  0  0  0  0  0  0  0  0  0  0  0
   -1.6700   23.5140  -27.0610 C   0  0  0  0  0  0  0  0  0  0  0  0
   -2.0210   21.2730  -27.8340 C   0  0  0  0  0  0  0  0  0  0  0  0
   -0.8524   20.8692  -29.8740 H   0  0  0  0  0  0  0  0  0  0  0  0
   -1.9167   21.7095  -31.0522 H   0  0  0  0  0  0  0  0  0  0  0  0
   -0.1490   22.0285  -31.0522 H   0  0  0  0  0  0  0  0  0  0  0  0
   -0.4119   23.6851  -29.5190 H   0  0  0  0  0  0  0  0  0  0  0  0
   -4.8520   26.2440  -29.7810 H   0  0  0  0  0  0  0  0  0  0  0  0
   -4.2250   24.7960  -30.6370 H   0  0  0  0  0  0  0  0  0  0  0  0
   -8.8747   23.6034  -31.0284 H   0  0  0  0  0  0  0  0  0  0  0  0
   -9.8134   21.1754  -32.1943 H   0  0  0  0  0  0  0  0  0  0  0  0
   -9.0465   18.9974  -33.1797 H   0  0  0  0  0  0  0  0  0  0  0  0
   -4.6239   18.1288  -34.4933 H   0  0  0  0  0  0  0  0  0  0  0  0
   -5.9572   17.2494  -35.3153 H   0  0  0  0  0  0  0  0  0  0  0  0
   -5.9317   19.0455  -35.3153 H   0  0  0  0  0  0  0  0  0  0  0  0
   -6.7595   16.9984  -31.7444 H   0  0  0  0  0  0  0  0  0  0  0  0
   -7.7956   16.5491  -33.1413 H   0  0  0  0  0  0  0  0  0  0  0  0
   -6.0516   16.1186  -33.1413 H   0  0  0  0  0  0  0  0  0  0  0  0
   -4.8966   20.1509  -32.4775 H   0  0  0  0  0  0  0  0  0  0  0  0
   -1.5102   23.1707  -26.0282 H   0  0  0  0  0  0  0  0  0  0  0  0
   -1.1145   24.4489  -27.2268 H   0  0  0  0  0  0  0  0  0  0  0  0
   -2.7430   23.6907  -27.2268 H   0  0  0  0  0  0  0  0  0  0  0  0
   -2.1605   21.0699  -26.7619 H   0  0  0  0  0  0  0  0  0  0  0  0
   -3.0010   21.4326  -28.3075 H   0  0  0  0  0  0  0  0  0  0  0  0
   -1.5203   20.4156  -28.3075 H   0  0  0  0  0  0  0  0  0  0  0  0
  1  2  1  0
  2  3  1  0
  3  4  2  0
  3  5  1  0
  5  6  1  0
  6  7  2  0
  6  8  1  0
  8  9  1  0
  9 10  1  0
 10 11  1  0
 10 12  2  0
  9 13  2  0
 13 14  1  0
 14 15  2  0
 15 16  1  0
 16 17  2  0
 17 18  1  0
 18 19  1  0
 18 20  1  0
 17 21  1  0
 21 22  2  0
  2 23  1  0
 23 24  1  0
 23 25  1  0
 22  8  1  0
 22 14  1  0
  1 26  1  0
  1 27  1  0
  1 28  1  0
  2 29  1  1
 11 30  1  0
 11 31  1  0
 13 32  1  0
 15 33  1  0
 16 34  1  0
 19 35  1  0
 19 36  1  0
 19 37  1  0
 20 38  1  0
 20 39  1  0
 20 40  1  0
 21 41  1  0
 24 42  1  0
 24 43  1  0
 24 44  1  0
 25 45  1  0
 25 46  1  0
 25 47  1  0
M  END
>  <UniqueID>  (78) 
77

>  <SMILES>  (78) 
C[C@@H](C(=O)OC(=O)n1c(C(N)=O)cc2ccc(N(C)C)cc21)N(C)C

>  <Energy>  (78) 
88.52343892546635

>  <Genealogy>  (78) 
C[C@@H](C(=O)OC(=O)n1c(C(N)=O)cc2ccc(N(C)C)cc21)N(C)C (chirality)
C[C@@H](C(=O)OC(=O)n1c(C(N)=O)cc2ccc(N(C)C)cc21)N(C)C (3D coordinates assigned)
C[C@@H](C(=O)OC(=O)n1c(C(N)=O)cc2ccc(N(C)C)cc21)N(C)C (optimized conformer: 88.52343892546635 kcal/mol)

>  <smiles>  (78) 
CC(C(=O)OC(=O)n1c(C(N)=O)cc2ccc(N(C)C)cc21)N(C)C

>  <score_type>  (78) 
oracle

>  <origin>  (78) 
adg

>  <m_score__min__energy>  (78) 
-8.8399999999999999

>  <m_primary>  (78) 
energy

$$$$
79:0
     RDKit          3D

 48 49  0  0  0  0  0  0  0  0999 V2000
   -3.5580   21.9870  -28.6370 C   0  0  0  0  0  0  0  0  0  0  0  0
   -3.1950   23.1320  -29.2290 C   0  0  0  0  0  0  0  0  0  0  0  0
   -3.0270   23.2200  -30.6210 O   0  0  0  0  0  0  0  0  0  0  0  0
   -3.9420   22.7730  -31.5850 C   0  0  0  0  0  0  0  0  0  0  0  0
   -3.5520   22.0780  -32.5640 O   0  0  0  0  0  0  0  0  0  0  0  0
   -5.3420   23.0420  -31.4120 N   0  0  0  0  0  0  0  0  0  0  0  0
   -5.9130   24.1620  -30.8830 C   0  0  0  0  0  0  0  0  0  0  0  0
   -5.2040   25.4030  -30.5100 C   0  0  0  0  0  0  0  0  0  0  0  0
   -3.8810   25.6360  -30.9910 N   0  0  0  0  0  0  0  0  0  0  0  0
   -5.7370   26.2440  -29.7410 O   0  0  0  0  0  0  0  0  0  0  0  0
   -7.2970   24.0170  -30.8130 C   0  0  0  0  0  0  0  0  0  0  0  0
   -7.5600   22.7680  -31.3260 C   0  0  0  0  0  0  0  0  0  0  0  0
   -8.7720   22.1030  -31.4850 C   0  0  0  0  0  0  0  0  0  0  0  0
   -8.7450   20.8060  -32.0210 C   0  0  0  0  0  0  0  0  0  0  0  0
   -7.5190   20.1900  -32.3810 C   0  0  0  0  0  0  0  0  0  0  0  0
   -7.5420   18.8530  -32.9180 N   0  0  0  0  0  0  0  0  0  0  0  0
   -6.9140   17.6940  -32.2820 C   0  0  0  0  0  0  0  0  0  0  0  0
   -5.5080   17.4640  -32.8490 C   0  0  0  0  0  0  0  0  0  0  0  0
   -5.2230   18.4310  -33.9320 N   0  0  0  0  0  0  0  0  0  0  0  0
   -3.8590   18.9690  -33.7910 C   0  0  0  0  0  0  0  0  0  0  0  0
   -5.3610   17.7960  -35.2550 C   0  0  0  0  0  0  0  0  0  0  0  0
   -6.3060   20.8990  -32.1930 C   0  0  0  0  0  0  0  0  0  0  0  0
   -6.3640   22.1980  -31.6790 C   0  0  0  0  0  0  0  0  0  0  0  0
   -2.9010   24.3300  -28.4220 C   0  0  0  0  0  0  0  0  0  0  0  0
   -3.4780   24.4810  -27.3110 O   0  0  0  0  0  0  0  0  0  0  0  0
   -1.9920   25.2900  -28.8810 O   0  0  0  0  0  0  0  0  0  0  0  0
   -0.8800   25.7240  -28.1060 C   0  0  0  0  0  0  0  0  0  0  0  0
   -3.6820   21.9478  -27.5447 H   0  0  0  0  0  0  0  0  0  0  0  0
   -3.7322   21.0857  -29.2430 H   0  0  0  0  0  0  0  0  0  0  0  0
   -3.0500   25.2810  -30.4680 H   0  0  0  0  0  0  0  0  0  0  0  0
   -8.0251   24.7467  -30.4289 H   0  0  0  0  0  0  0  0  0  0  0  0
   -9.7217   22.5790  -31.1995 H   0  0  0  0  0  0  0  0  0  0  0  0
   -9.6886   20.2591  -32.1640 H   0  0  0  0  0  0  0  0  0  0  0  0
   -8.0550   18.6850  -33.8140 H   0  0  0  0  0  0  0  0  0  0  0  0
   -6.8426   17.8705  -31.1986 H   0  0  0  0  0  0  0  0  0  0  0  0
   -7.5276   16.8033  -32.4825 H   0  0  0  0  0  0  0  0  0  0  0  0
   -4.7679   17.5917  -32.0453 H   0  0  0  0  0  0  0  0  0  0  0  0
   -5.4509   16.4443  -33.2576 H   0  0  0  0  0  0  0  0  0  0  0  0
   -3.6118   19.0665  -32.7236 H   0  0  0  0  0  0  0  0  0  0  0  0
   -3.1438   18.2856  -34.2721 H   0  0  0  0  0  0  0  0  0  0  0  0
   -3.8028   19.9566  -34.2721 H   0  0  0  0  0  0  0  0  0  0  0  0
   -5.5930   16.7284  -35.1269 H   0  0  0  0  0  0  0  0  0  0  0  0
   -6.1741   18.2836  -35.8127 H   0  0  0  0  0  0  0  0  0  0  0  0
   -4.4188   17.9021  -35.8127 H   0  0  0  0  0  0  0  0  0  0  0  0
   -5.3402   20.4373  -32.4460 H   0  0  0  0  0  0  0  0  0  0  0  0
   -1.1196   25.6305  -27.0365 H   0  0  0  0  0  0  0  0  0  0  0  0
   -0.0039   25.1018  -28.3413 H   0  0  0  0  0  0  0  0  0  0  0  0
   -0.6570   26.7752  -28.3413 H   0  0  0  0  0  0  0  0  0  0  0  0
  1  2  2  0
  2  3  1  0
  3  4  1  0
  4  5  2  0
  4  6  1  0
  6  7  1  0
  7  8  1  0
  8  9  1  0
  8 10  2  0
  7 11  2  0
 11 12  1  0
 12 13  2  0
 13 14  1  0
 14 15  2  0
 15 16  1  0
 16 17  1  0
 17 18  1  0
 18 19  1  0
 19 20  1  0
 19 21  1  0
 15 22  1  0
 22 23  2  0
  2 24  1  0
 24 25  2  0
 24 26  1  0
 26 27  1  0
 23  6  1  0
 23 12  1  0
  1 28  1  0
  1 29  1  0
  9 30  1  0
 11 31  1  0
 13 32  1  0
 14 33  1  0
 16 34  1  0
 17 35  1  0
 17 36  1  0
 18 37  1  0
 18 38  1  0
 20 39  1  0
 20 40  1  0
 20 41  1  0
 21 42  1  0
 21 43  1  0
 21 44  1  0
 22 45  1  0
 27 46  1  0
 27 47  1  0
 27 48  1  0
M  CHG  1   9  -1
M  END
>  <UniqueID>  (79) 
78

>  <SMILES>  (79) 
C=C(OC(=O)n1c(C([NH-])=O)cc2ccc(NCCN(C)C)cc21)C(=O)OC

>  <Energy>  (79) 
85.36377731369761

>  <Genealogy>  (79) 
C=C(OC(=O)n1c(C([NH-])=O)cc2ccc(NCCN(C)C)cc21)C(=O)OC (protonated)
C=C(OC(=O)n1c(C([NH-])=O)cc2ccc(NCCN(C)C)cc21)C(=O)OC (3D coordinates assigned)
C=C(OC(=O)n1c(C([NH-])=O)cc2ccc(NCCN(C)C)cc21)C(=O)OC (optimized conformer: 85.36377731369761 kcal/mol)

>  <smiles>  (79) 
C=C(OC(=O)n1c(C(N)=O)cc2ccc(NCCN(C)C)cc21)C(=O)OC

>  <score_type>  (79) 
oracle

>  <origin>  (79) 
adg

>  <m_score__min__energy>  (79) 
-10.51

>  <m_primary>  (79) 
energy

$$$$
80:0
     RDKit          3D

 49 51  0  0  0  0  0  0  0  0999 V2000
   -3.4610   17.1870  -33.2340 C   0  0  0  0  0  0  0  0  0  0  0  0
   -4.6460   16.4590  -33.7210 N   0  0  0  0  0  0  0  0  0  0  0  0
   -5.6720   16.2940  -32.6570 C   0  0  0  0  0  0  0  0  0  0  0  0
   -6.8850   17.2310  -32.8070 C   0  0  0  0  0  0  0  0  0  0  0  0
   -6.4810   18.4950  -33.4290 N   0  0  0  0  0  0  0  0  0  0  0  0
   -6.7720   19.7610  -32.8060 C   0  0  0  0  0  0  0  0  0  0  0  0
   -8.1130   20.1250  -32.5170 C   0  0  0  0  0  0  0  0  0  0  0  0
   -8.4070   21.3480  -31.8900 C   0  0  0  0  0  0  0  0  0  0  0  0
   -7.3450   22.1860  -31.5660 C   0  0  0  0  0  0  0  0  0  0  0  0
   -7.3420   23.4080  -30.9290 C   0  0  0  0  0  0  0  0  0  0  0  0
   -6.0000   23.7770  -30.8460 C   0  0  0  0  0  0  0  0  0  0  0  0
   -5.5200   25.0600  -30.2820 C   0  0  0  0  0  0  0  0  0  0  0  0
   -6.1310   25.6260  -29.1210 N   0  0  0  0  0  0  0  0  0  0  0  0
   -4.5740   25.6790  -30.8370 O   0  0  0  0  0  0  0  0  0  0  0  0
   -5.2080   22.8250  -31.4150 N   0  0  0  0  0  0  0  0  0  0  0  0
   -3.7730   22.7970  -31.4680 C   0  0  0  0  0  0  0  0  0  0  0  0
   -3.1120   23.5540  -30.7090 O   0  0  0  0  0  0  0  0  0  0  0  0
   -3.0780   21.9190  -32.4350 C   0  0  0  0  0  0  0  0  0  0  0  0
   -3.4910   21.9030  -33.6260 O   0  0  0  0  0  0  0  0  0  0  0  0
   -1.9570   21.0850  -32.0620 N   0  0  0  0  0  0  0  0  0  0  0  0
   -1.1410   20.4820  -33.1200 C   0  0  0  0  0  0  0  0  0  0  0  0
   -1.6930   20.7480  -30.6590 C   0  0  0  0  0  0  0  0  0  0  0  0
   -6.0460   21.8560  -31.8440 C   0  0  0  0  0  0  0  0  0  0  0  0
   -5.7210   20.6360  -32.4480 C   0  0  0  0  0  0  0  0  0  0  0  0
   -5.7840   18.4480  -34.7190 C   0  0  0  0  0  0  0  0  0  0  0  0
   -5.1840   17.0530  -34.9650 C   0  0  0  0  0  0  0  0  0  0  0  0
   -3.4582   17.1887  -32.1340 H   0  0  0  0  0  0  0  0  0  0  0  0
   -2.5500   16.6926  -33.6022 H   0  0  0  0  0  0  0  0  0  0  0  0
   -3.4903   18.2231  -33.6022 H   0  0  0  0  0  0  0  0  0  0  0  0
   -6.0322   15.2549  -32.6817 H   0  0  0  0  0  0  0  0  0  0  0  0
   -5.1868   16.5510  -31.7039 H   0  0  0  0  0  0  0  0  0  0  0  0
   -7.6438   16.7435  -33.4368 H   0  0  0  0  0  0  0  0  0  0  0  0
   -7.2991   17.4407  -31.8097 H   0  0  0  0  0  0  0  0  0  0  0  0
   -8.9319   19.4419  -32.7869 H   0  0  0  0  0  0  0  0  0  0  0  0
   -9.4446   21.6337  -31.6625 H   0  0  0  0  0  0  0  0  0  0  0  0
   -8.2129   23.9721  -30.5638 H   0  0  0  0  0  0  0  0  0  0  0  0
   -5.8070   26.5490  -28.7560 H   0  0  0  0  0  0  0  0  0  0  0  0
   -6.8750   25.1180  -28.5930 H   0  0  0  0  0  0  0  0  0  0  0  0
   -0.3349   19.8863  -32.6668 H   0  0  0  0  0  0  0  0  0  0  0  0
   -1.7717   19.8313  -33.7436 H   0  0  0  0  0  0  0  0  0  0  0  0
   -0.7041   21.2759  -33.7436 H   0  0  0  0  0  0  0  0  0  0  0  0
   -2.2387   21.4446  -30.0056 H   0  0  0  0  0  0  0  0  0  0  0  0
   -2.0282   19.7195  -30.4596 H   0  0  0  0  0  0  0  0  0  0  0  0
   -0.6141   20.8272  -30.4596 H   0  0  0  0  0  0  0  0  0  0  0  0
   -4.6724   20.3644  -32.6396 H   0  0  0  0  0  0  0  0  0  0  0  0
   -6.4976   18.6806  -35.5232 H   0  0  0  0  0  0  0  0  0  0  0  0
   -4.9680   19.1856  -34.7061 H   0  0  0  0  0  0  0  0  0  0  0  0
   -5.9685   16.3933  -35.3642 H   0  0  0  0  0  0  0  0  0  0  0  0
   -4.3547   17.1587  -35.6799 H   0  0  0  0  0  0  0  0  0  0  0  0
  1  2  1  0
  2  3  1  0
  3  4  1  0
  4  5  1  0
  5  6  1  0
  6  7  2  0
  7  8  1  0
  8  9  2  0
  9 10  1  0
 10 11  2  0
 11 12  1  0
 12 13  1  0
 12 14  2  0
 11 15  1  0
 15 16  1  0
 16 17  2  0
 16 18  1  0
 18 19  2  0
 18 20  1  0
 20 21  1  0
 20 22  1  0
 15 23  1  0
 23 24  2  0
  5 25  1  0
 25 26  1  0
 26  2  1  0
 24  6  1  0
 23  9  1  0
  1 27  1  0
  1 28  1  0
  1 29  1  0
  3 30  1  0
  3 31  1  0
  4 32  1  0
  4 33  1  0
  7 34  1  0
  8 35  1  0
 10 36  1  0
 13 37  1  0
 13 38  1  0
 21 39  1  0
 21 40  1  0
 21 41  1  0
 22 42  1  0
 22 43  1  0
 22 44  1  0
 24 45  1  0
 25 46  1  0
 25 47  1  0
 26 48  1  0
 26 49  1  0
M  END
>  <UniqueID>  (80) 
79

>  <SMILES>  (80) 
CN1CCN(c2ccc3cc(C(N)=O)n(C(=O)C(=O)N(C)C)c3c2)CC1

>  <Energy>  (80) 
100.21125332370545

>  <Genealogy>  (80) 
CN1CCN(c2ccc3cc(C(N)=O)n(C(=O)C(=O)N(C)C)c3c2)CC1 (3D coordinates assigned)
CN1CCN(c2ccc3cc(C(N)=O)n(C(=O)C(=O)N(C)C)c3c2)CC1 (nonaromatic ring conformer: 100.21125332370545 kcal/mol)

>  <smiles>  (80) 
CN1CCN(c2ccc3cc(C(N)=O)n(C(=O)C(=O)N(C)C)c3c2)CC1

>  <score_type>  (80) 
oracle

>  <origin>  (80) 
adg

>  <m_score__min__energy>  (80) 
-9.7799999999999994

>  <m_primary>  (80) 
energy

$$$$
81:0
     RDKit          3D

 36 37  0  0  0  0  0  0  0  0999 V2000
   -7.4520   18.3970  -32.6950 C   0  0  0  0  0  0  0  0  0  0  0  0
   -7.4780   19.8500  -32.3250 C   0  0  0  0  0  0  0  0  0  0  0  0
   -8.7110   20.5440  -32.2600 C   0  0  0  0  0  0  0  0  0  0  0  0
   -8.7540   21.8920  -31.8640 C   0  0  0  0  0  0  0  0  0  0  0  0
   -7.5530   22.5140  -31.5370 C   0  0  0  0  0  0  0  0  0  0  0  0
   -7.3120   23.7950  -31.0950 C   0  0  0  0  0  0  0  0  0  0  0  0
   -5.9340   23.8670  -30.9070 C   0  0  0  0  0  0  0  0  0  0  0  0
   -5.2340   25.1070  -30.5110 C   0  0  0  0  0  0  0  0  0  0  0  0
   -3.8620   25.3130  -30.8420 N   0  0  0  0  0  0  0  0  0  0  0  0
   -5.8680   26.0200  -29.9190 O   0  0  0  0  0  0  0  0  0  0  0  0
   -5.3460   22.6750  -31.2100 N   0  0  0  0  0  0  0  0  0  0  0  0
   -3.9640   22.3160  -31.0540 C   0  0  0  0  0  0  0  0  0  0  0  0
   -3.1340   22.6090  -31.9570 O   0  0  0  0  0  0  0  0  0  0  0  0
   -3.5550   21.6390  -29.8960 O   0  0  0  0  0  0  0  0  0  0  0  0
   -2.8590   22.2160  -28.8280 C   0  0  0  0  0  0  0  0  0  0  0  0
   -1.6180   22.0390  -28.6810 O   0  0  0  0  0  0  0  0  0  0  0  0
   -3.5950   23.1050  -27.8850 C   0  0  0  0  0  0  0  0  0  0  0  0
   -3.1840   24.4370  -28.1100 O   0  0  0  0  0  0  0  0  0  0  0  0
   -1.9860   24.7090  -27.4110 C   0  0  0  0  0  0  0  0  0  0  0  0
   -0.9320   25.1950  -28.3560 C   0  0  0  0  0  0  0  0  0  0  0  0
   -1.2340   25.9860  -29.2870 O   0  0  0  0  0  0  0  0  0  0  0  0
    0.3890   24.7930  -28.1950 O   0  0  0  0  0  0  0  0  0  0  0  0
   -6.3500   21.8580  -31.5980 C   0  0  0  0  0  0  0  0  0  0  0  0
   -6.2810   20.5090  -31.9700 C   0  0  0  0  0  0  0  0  0  0  0  0
   -7.4411   17.7859  -31.7804 H   0  0  0  0  0  0  0  0  0  0  0  0
   -8.3459   18.1536  -33.2880 H   0  0  0  0  0  0  0  0  0  0  0  0
   -6.5499   18.1857  -33.2880 H   0  0  0  0  0  0  0  0  0  0  0  0
   -9.6438   20.0231  -32.5219 H   0  0  0  0  0  0  0  0  0  0  0  0
   -9.7075   22.4382  -31.8142 H   0  0  0  0  0  0  0  0  0  0  0  0
   -8.0507   24.5923  -30.9262 H   0  0  0  0  0  0  0  0  0  0  0  0
   -3.1190   25.2530  -30.1100 H   0  0  0  0  0  0  0  0  0  0  0  0
   -4.6774   23.0163  -28.0601 H   0  0  0  0  0  0  0  0  0  0  0  0
   -3.3777   22.8144  -26.8466 H   0  0  0  0  0  0  0  0  0  0  0  0
   -2.1765   25.4815  -26.6514 H   0  0  0  0  0  0  0  0  0  0  0  0
   -1.6354   23.7846  -26.9287 H   0  0  0  0  0  0  0  0  0  0  0  0
   -5.3185   19.9768  -31.9851 H   0  0  0  0  0  0  0  0  0  0  0  0
  1  2  1  0
  2  3  2  0
  3  4  1  0
  4  5  2  0
  5  6  1  0
  6  7  2  0
  7  8  1  0
  8  9  1  0
  8 10  2  0
  7 11  1  0
 11 12  1  0
 12 13  2  0
 12 14  1  0
 14 15  1  0
 15 16  2  0
 15 17  1  0
 17 18  1  0
 18 19  1  0
 19 20  1  0
 20 21  2  0
 20 22  1  0
 11 23  1  0
 23 24  2  0
 24  2  1  0
 23  5  1  0
  1 25  1  0
  1 26  1  0
  1 27  1  0
  3 28  1  0
  4 29  1  0
  6 30  1  0
  9 31  1  0
 17 32  1  0
 17 33  1  0
 19 34  1  0
 19 35  1  0
 24 36  1  0
M  CHG  2   9  -1  22  -1
M  END
>  <UniqueID>  (81) 
80

>  <SMILES>  (81) 
Cc1ccc2cc(C([NH-])=O)n(C(=O)OC(=O)COCC(=O)[O-])c2c1

>  <Energy>  (81) 
75.08086434636124

>  <Genealogy>  (81) 
Cc1ccc2cc(C([NH-])=O)n(C(=O)OC(=O)COCC(=O)[O-])c2c1 (protonated)
Cc1ccc2cc(C([NH-])=O)n(C(=O)OC(=O)COCC(=O)[O-])c2c1 (3D coordinates assigned)
Cc1ccc2cc(C([NH-])=O)n(C(=O)OC(=O)COCC(=O)[O-])c2c1 (optimized conformer: 75.08086434636124 kcal/mol)

>  <smiles>  (81) 
Cc1ccc2cc(C(N)=O)n(C(=O)OC(=O)COCC(=O)O)c2c1

>  <score_type>  (81) 
oracle

>  <origin>  (81) 
adg

>  <m_score__min__energy>  (81) 
-12.029999999999999

>  <m_primary>  (81) 
energy

$$$$
82:0
     RDKit          3D

 35 36  0  0  0  0  0  0  0  0999 V2000
   -5.8210   18.0630  -33.8920 C   0  0  0  0  0  0  0  0  0  0  0  0
   -6.1470   18.4140  -32.5040 N   0  0  0  0  0  0  0  0  0  0  0  0
   -6.1110   17.3630  -31.4790 C   0  0  0  0  0  0  0  0  0  0  0  0
   -6.4980   19.7780  -32.1520 C   0  0  0  0  0  0  0  0  0  0  0  0
   -7.8360   20.2450  -32.2920 C   0  0  0  0  0  0  0  0  0  0  0  0
   -8.1830   21.5660  -31.9640 C   0  0  0  0  0  0  0  0  0  0  0  0
   -7.1840   22.4040  -31.4850 C   0  0  0  0  0  0  0  0  0  0  0  0
   -7.2360   23.7300  -31.1210 C   0  0  0  0  0  0  0  0  0  0  0  0
   -5.9370   24.0610  -30.7420 C   0  0  0  0  0  0  0  0  0  0  0  0
   -5.5430   25.3960  -30.2400 C   0  0  0  0  0  0  0  0  0  0  0  0
   -4.2600   25.9430  -30.5310 N   0  0  0  0  0  0  0  0  0  0  0  0
   -6.3440   26.0550  -29.5250 O   0  0  0  0  0  0  0  0  0  0  0  0
   -5.1170   22.9800  -30.8620 N   0  0  0  0  0  0  0  0  0  0  0  0
   -3.7040   22.9220  -30.6250 C   0  0  0  0  0  0  0  0  0  0  0  0
   -2.9130   23.2120  -31.5620 O   0  0  0  0  0  0  0  0  0  0  0  0
   -3.2000   22.4480  -29.3160 C   0  0  0  0  0  0  0  0  0  0  0  0
   -2.1380   22.9290  -28.6510 C   0  0  0  0  0  0  0  0  0  0  0  0
   -1.3800   24.1500  -28.9800 C   0  0  0  0  0  0  0  0  0  0  0  0
   -0.1220   24.1500  -29.0260 O   0  0  0  0  0  0  0  0  0  0  0  0
   -2.0720   25.2990  -29.3420 O   0  0  0  0  0  0  0  0  0  0  0  0
   -5.8940   21.9760  -31.3230 C   0  0  0  0  0  0  0  0  0  0  0  0
   -5.5120   20.6740  -31.6620 C   0  0  0  0  0  0  0  0  0  0  0  0
   -5.0724   17.2570  -33.9003 H   0  0  0  0  0  0  0  0  0  0  0  0
   -6.7313   17.7233  -34.4078 H   0  0  0  0  0  0  0  0  0  0  0  0
   -5.4151   18.9457  -34.4078 H   0  0  0  0  0  0  0  0  0  0  0  0
   -6.1268   17.8240  -30.4804 H   0  0  0  0  0  0  0  0  0  0  0  0
   -6.9872   16.7081  -31.5944 H   0  0  0  0  0  0  0  0  0  0  0  0
   -5.1920   16.7696  -31.5944 H   0  0  0  0  0  0  0  0  0  0  0  0
   -8.6115   19.5591  -32.6636 H   0  0  0  0  0  0  0  0  0  0  0  0
   -9.2155   21.9263  -32.0829 H   0  0  0  0  0  0  0  0  0  0  0  0
   -8.1167   24.3890  -31.1278 H   0  0  0  0  0  0  0  0  0  0  0  0
   -3.5040   25.3530  -30.9420 H   0  0  0  0  0  0  0  0  0  0  0  0
   -3.7495   21.6211  -28.8424 H   0  0  0  0  0  0  0  0  0  0  0  0
   -1.8001   22.3562  -27.7748 H   0  0  0  0  0  0  0  0  0  0  0  0
   -4.4666   20.3502  -31.5510 H   0  0  0  0  0  0  0  0  0  0  0  0
  1  2  1  0
  2  3  1  0
  2  4  1  0
  4  5  2  0
  5  6  1  0
  6  7  2  0
  7  8  1  0
  8  9  2  0
  9 10  1  0
 10 11  1  0
 10 12  2  0
  9 13  1  0
 13 14  1  0
 14 15  2  0
 14 16  1  0
 16 17  2  3
 17 18  1  0
 18 19  2  0
 18 20  1  0
 13 21  1  0
 21 22  2  0
 22  4  1  0
 21  7  1  0
  1 23  1  0
  1 24  1  0
  1 25  1  0
  3 26  1  0
  3 27  1  0
  3 28  1  0
  5 29  1  0
  6 30  1  0
  8 31  1  0
 11 32  1  0
 16 33  1  0
 17 34  1  0
 22 35  1  0
M  CHG  2  11  -1  20  -1
M  END
>  <UniqueID>  (82) 
81

>  <SMILES>  (82) 
CN(C)c1ccc2cc(C([NH-])=O)n(C(=O)C=CC(=O)[O-])c2c1

>  <Energy>  (82) 
82.36955214114016

>  <Genealogy>  (82) 
CN(C)c1ccc2cc(C([NH-])=O)n(C(=O)C=CC(=O)[O-])c2c1 (protonated)
CN(C)c1ccc2cc(C([NH-])=O)n(C(=O)C=CC(=O)[O-])c2c1 (3D coordinates assigned)
CN(C)c1ccc2cc(C([NH-])=O)n(C(=O)C=CC(=O)[O-])c2c1 (optimized conformer: 82.36955214114016 kcal/mol)

>  <smiles>  (82) 
CN(C)c1ccc2cc(C(N)=O)n(C(=O)C=CC(=O)O)c2c1

>  <score_type>  (82) 
oracle

>  <origin>  (82) 
adg

>  <m_score__min__energy>  (82) 
-12.18

>  <m_primary>  (82) 
energy

$$$$
83:0
     RDKit          3D

 35 36  0  0  0  0  0  0  0  0999 V2000
    0.4690   23.7500  -27.9590 C   0  0  0  0  0  0  0  0  0  0  0  0
   -0.3780   24.1570  -29.0260 O   0  0  0  0  0  0  0  0  0  0  0  0
   -1.7700   24.0250  -28.9800 C   0  0  0  0  0  0  0  0  0  0  0  0
   -2.5100   25.0010  -29.2770 O   0  0  0  0  0  0  0  0  0  0  0  0
   -2.3930   22.7240  -28.6770 C   0  0  0  0  0  0  0  0  0  0  0  0
   -3.3740   22.1420  -29.3830 C   0  0  0  0  0  0  0  0  0  0  0  0
   -3.8670   22.5750  -30.7090 C   0  0  0  0  0  0  0  0  0  0  0  0
   -3.0680   22.7880  -31.6590 O   0  0  0  0  0  0  0  0  0  0  0  0
   -5.2780   22.6960  -30.9420 N   0  0  0  0  0  0  0  0  0  0  0  0
   -6.0280   23.8310  -30.8850 C   0  0  0  0  0  0  0  0  0  0  0  0
   -5.5290   25.1620  -30.4700 C   0  0  0  0  0  0  0  0  0  0  0  0
   -4.1920   25.5720  -30.7640 N   0  0  0  0  0  0  0  0  0  0  0  0
   -6.2890   25.9580  -29.8560 O   0  0  0  0  0  0  0  0  0  0  0  0
   -7.3510   23.5540  -31.2290 C   0  0  0  0  0  0  0  0  0  0  0  0
   -7.3820   22.2050  -31.5090 C   0  0  0  0  0  0  0  0  0  0  0  0
   -8.4350   21.4030  -31.9370 C   0  0  0  0  0  0  0  0  0  0  0  0
   -8.1680   20.0480  -32.1950 C   0  0  0  0  0  0  0  0  0  0  0  0
   -6.8640   19.5180  -32.0170 C   0  0  0  0  0  0  0  0  0  0  0  0
   -6.5760   18.0780  -32.3600 C   0  0  0  0  0  0  0  0  0  0  0  0
   -5.7600   17.5010  -31.4030 F   0  0  0  0  0  0  0  0  0  0  0  0
   -7.7500   17.3480  -32.4260 F   0  0  0  0  0  0  0  0  0  0  0  0
   -5.9410   18.0230  -33.5870 F   0  0  0  0  0  0  0  0  0  0  0  0
   -5.8160   20.3730  -31.6050 C   0  0  0  0  0  0  0  0  0  0  0  0
   -6.1170   21.7120  -31.3320 C   0  0  0  0  0  0  0  0  0  0  0  0
   -0.0141   23.9821  -26.9984 H   0  0  0  0  0  0  0  0  0  0  0  0
    0.6492   22.6670  -28.0266 H   0  0  0  0  0  0  0  0  0  0  0  0
    1.4272   24.2860  -28.0266 H   0  0  0  0  0  0  0  0  0  0  0  0
   -2.0209   22.1829  -27.7946 H   0  0  0  0  0  0  0  0  0  0  0  0
   -3.8566   21.2612  -28.9344 H   0  0  0  0  0  0  0  0  0  0  0  0
   -3.8680   26.5280  -30.4940 H   0  0  0  0  0  0  0  0  0  0  0  0
   -3.5060   24.9240  -31.2080 H   0  0  0  0  0  0  0  0  0  0  0  0
   -8.1917   24.2623  -31.2684 H   0  0  0  0  0  0  0  0  0  0  0  0
   -9.4455   21.8170  -32.0693 H   0  0  0  0  0  0  0  0  0  0  0  0
   -8.9797   19.3901  -32.5391 H   0  0  0  0  0  0  0  0  0  0  0  0
   -4.7884   19.9945  -31.5015 H   0  0  0  0  0  0  0  0  0  0  0  0
  1  2  1  0
  2  3  1  0
  3  4  2  0
  3  5  1  0
  5  6  2  3
  6  7  1  0
  7  8  2  0
  7  9  1  0
  9 10  1  0
 10 11  1  0
 11 12  1  0
 11 13  2  0
 10 14  2  0
 14 15  1  0
 15 16  2  0
 16 17  1  0
 17 18  2  0
 18 19  1  0
 19 20  1  0
 19 21  1  0
 19 22  1  0
 18 23  1  0
 23 24  2  0
 24  9  1  0
 24 15  1  0
  1 25  1  0
  1 26  1  0
  1 27  1  0
  5 28  1  0
  6 29  1  0
 12 30  1  0
 12 31  1  0
 14 32  1  0
 16 33  1  0
 17 34  1  0
 23 35  1  0
M  END
>  <UniqueID>  (83) 
82

>  <SMILES>  (83) 
COC(=O)C=CC(=O)n1c(C(N)=O)cc2ccc(C(F)(F)F)cc21

>  <Energy>  (83) 
78.51668551923005

>  <Genealogy>  (83) 
COC(=O)C=CC(=O)n1c(C(N)=O)cc2ccc(C(F)(F)F)cc21 (3D coordinates assigned)
COC(=O)C=CC(=O)n1c(C(N)=O)cc2ccc(C(F)(F)F)cc21 (optimized conformer: 78.51668551923005 kcal/mol)

>  <smiles>  (83) 
COC(=O)C=CC(=O)n1c(C(N)=O)cc2ccc(C(F)(F)F)cc21

>  <score_type>  (83) 
oracle

>  <origin>  (83) 
adg

>  <m_score__min__energy>  (83) 
-8.2799999999999994

>  <m_primary>  (83) 
energy

$$$$
84:0
     RDKit          3D

 38 39  0  0  0  0  0  0  0  0999 V2000
   -3.0760   24.0260  -27.3070 C   0  0  0  0  0  0  0  0  0  0  0  0
   -3.1980   22.9990  -28.4450 C   0  0  0  0  0  0  0  0  0  0  0  0
   -3.1240   21.5700  -27.8890 C   0  0  0  0  0  0  0  0  0  0  0  0
   -2.1640   23.2280  -29.5780 C   0  0  1  0  0  0  0  0  0  0  0  0
   -2.8630   23.4870  -30.8350 N   0  0  0  0  0  0  0  0  0  0  0  0
   -3.7240   22.5410  -31.4780 C   0  0  0  0  0  0  0  0  0  0  0  0
   -3.2330   21.5950  -32.1510 O   0  0  0  0  0  0  0  0  0  0  0  0
   -5.1480   22.6880  -31.3790 N   0  0  0  0  0  0  0  0  0  0  0  0
   -5.8470   23.7630  -30.9150 C   0  0  0  0  0  0  0  0  0  0  0  0
   -5.2730   24.9460  -30.2400 C   0  0  0  0  0  0  0  0  0  0  0  0
   -4.1980   25.6740  -30.8270 N   0  0  0  0  0  0  0  0  0  0  0  0
   -5.7060   25.2910  -29.1080 O   0  0  0  0  0  0  0  0  0  0  0  0
   -7.2160   23.5680  -31.0870 C   0  0  0  0  0  0  0  0  0  0  0  0
   -7.3370   22.3270  -31.6680 C   0  0  0  0  0  0  0  0  0  0  0  0
   -8.4760   21.6340  -32.0710 C   0  0  0  0  0  0  0  0  0  0  0  0
   -8.3020   20.3770  -32.6750 C   0  0  0  0  0  0  0  0  0  0  0  0
   -7.0050   19.8460  -32.8700 C   0  0  0  0  0  0  0  0  0  0  0  0
   -6.8410   18.5710  -33.4980 N   0  0  0  0  0  0  0  0  0  0  0  0
   -5.8730   20.5750  -32.4510 C   0  0  0  0  0  0  0  0  0  0  0  0
   -6.0750   21.8170  -31.8350 C   0  0  0  0  0  0  0  0  0  0  0  0
   -1.2100   24.3540  -29.2760 C   0  0  0  0  0  0  0  0  0  0  0  0
   -0.0180   24.1020  -28.9560 O   0  0  0  0  0  0  0  0  0  0  0  0
   -1.6410   25.6740  -29.3230 O   0  0  0  0  0  0  0  0  0  0  0  0
   -3.1374   23.5087  -26.3381 H   0  0  0  0  0  0  0  0  0  0  0  0
   -2.1098   24.5460  -27.3844 H   0  0  0  0  0  0  0  0  0  0  0  0
   -3.8935   24.7579  -27.3844 H   0  0  0  0  0  0  0  0  0  0  0  0
   -4.1858   23.1425  -28.9073 H   0  0  0  0  0  0  0  0  0  0  0  0
   -3.1258   21.6038  -26.7895 H   0  0  0  0  0  0  0  0  0  0  0  0
   -3.9936   20.9947  -28.2395 H   0  0  0  0  0  0  0  0  0  0  0  0
   -2.1997   21.0876  -28.2395 H   0  0  0  0  0  0  0  0  0  0  0  0
   -1.5608   22.3120  -29.6616 H   0  0  0  0  0  0  0  0  0  0  0  0
   -3.2160   25.3250  -30.7650 H   0  0  0  0  0  0  0  0  0  0  0  0
   -8.0274   24.2594  -30.8158 H   0  0  0  0  0  0  0  0  0  0  0  0
   -9.4802   22.0573  -31.9212 H   0  0  0  0  0  0  0  0  0  0  0  0
   -9.1815   19.8011  -32.9989 H   0  0  0  0  0  0  0  0  0  0  0  0
   -6.9500   18.4670  -34.5320 H   0  0  0  0  0  0  0  0  0  0  0  0
   -6.6100   17.7240  -32.9350 H   0  0  0  0  0  0  0  0  0  0  0  0
   -4.8582   20.1790  -32.6038 H   0  0  0  0  0  0  0  0  0  0  0  0
  1  2  1  0
  2  3  1  0
  2  4  1  0
  4  5  1  0
  5  6  1  0
  6  7  2  0
  6  8  1  0
  8  9  1  0
  9 10  1  0
 10 11  1  0
 10 12  2  0
  9 13  2  0
 13 14  1  0
 14 15  2  0
 15 16  1  0
 16 17  2  0
 17 18  1  0
 17 19  1  0
 19 20  2  0
  4 21  1  0
 21 22  2  0
 21 23  1  0
 20  8  1  0
 20 14  1  0
  1 24  1  0
  1 25  1  0
  1 26  1  0
  2 27  1  0
  3 28  1  0
  3 29  1  0
  3 30  1  0
  4 31  1  6
 11 32  1  0
 13 33  1  0
 15 34  1  0
 16 35  1  0
 18 36  1  0
 18 37  1  0
 19 38  1  0
M  CHG  3   5  -1  11  -1  23  -1
M  END
>  <UniqueID>  (84) 
83

>  <SMILES>  (84) 
CC(C)[C@@H]([N-]C(=O)n1c(C([NH-])=O)cc2ccc(N)cc21)C(=O)[O-]

>  <Energy>  (84) 
70.68253187154303

>  <Genealogy>  (84) 
CC(C)C([N-]C(=O)n1c(C([NH-])=O)cc2ccc(N)cc21)C(=O)[O-] (protonated)
CC(C)[C@@H]([N-]C(=O)n1c(C([NH-])=O)cc2ccc(N)cc21)C(=O)[O-] (chirality)
CC(C)[C@@H]([N-]C(=O)n1c(C([NH-])=O)cc2ccc(N)cc21)C(=O)[O-] (3D coordinates assigned)
CC(C)[C@@H]([N-]C(=O)n1c(C([NH-])=O)cc2ccc(N)cc21)C(=O)[O-] (optimized conformer: 70.68253187154303 kcal/mol)

>  <smiles>  (84) 
CC(C)C(NC(=O)n1c(C(N)=O)cc2ccc(N)cc21)C(=O)O

>  <score_type>  (84) 
oracle

>  <origin>  (84) 
adg

>  <m_score__min__energy>  (84) 
-12.58

>  <m_primary>  (84) 
energy

$$$$
85:0
     RDKit          3D

 40 41  0  0  0  0  0  0  0  0999 V2000
   -5.6500   18.1630  -35.0200 C   0  0  0  0  0  0  0  0  0  0  0  0
   -6.3740   18.2430  -33.7440 N   0  0  0  0  0  0  0  0  0  0  0  0
   -6.9010   17.0090  -33.1500 C   0  0  0  0  0  0  0  0  0  0  0  0
   -6.5630   19.5220  -33.0840 C   0  0  0  0  0  0  0  0  0  0  0  0
   -7.8670   20.0800  -32.9410 C   0  0  0  0  0  0  0  0  0  0  0  0
   -8.0610   21.3110  -32.2940 C   0  0  0  0  0  0  0  0  0  0  0  0
   -6.9440   21.9770  -31.8050 C   0  0  0  0  0  0  0  0  0  0  0  0
   -6.8530   23.1650  -31.1170 C   0  0  0  0  0  0  0  0  0  0  0  0
   -5.4920   23.3400  -30.8620 C   0  0  0  0  0  0  0  0  0  0  0  0
   -4.9150   24.5290  -30.1960 C   0  0  0  0  0  0  0  0  0  0  0  0
   -5.1850   24.8010  -28.8190 N   0  0  0  0  0  0  0  0  0  0  0  0
   -4.1940   25.3310  -30.8470 O   0  0  0  0  0  0  0  0  0  0  0  0
   -4.7760   22.3010  -31.3780 N   0  0  0  0  0  0  0  0  0  0  0  0
   -3.3590   22.0840  -31.2860 C   0  0  0  0  0  0  0  0  0  0  0  0
   -2.7420   21.5870  -32.2660 O   0  0  0  0  0  0  0  0  0  0  0  0
   -2.6590   22.4230  -30.0780 N   0  0  0  0  0  0  0  0  0  0  0  0
   -1.2320   22.3970  -29.9400 C   0  0  0  0  0  0  0  0  0  0  0  0
   -0.4960   22.0910  -30.9180 O   0  0  0  0  0  0  0  0  0  0  0  0
   -0.6650   22.7250  -28.7060 O   0  0  0  0  0  0  0  0  0  0  0  0
   -0.3110   24.0580  -28.3540 C   0  0  0  0  0  0  0  0  0  0  0  0
   -1.4410   24.9730  -28.6900 C   0  0  0  0  0  0  0  0  0  0  0  0
   -1.2230   26.0410  -29.3200 O   0  0  0  0  0  0  0  0  0  0  0  0
   -2.7420   24.6220  -28.3580 O   0  0  0  0  0  0  0  0  0  0  0  0
   -5.6800   21.4740  -31.9470 C   0  0  0  0  0  0  0  0  0  0  0  0
   -5.4550   20.2390  -32.5650 C   0  0  0  0  0  0  0  0  0  0  0  0
   -4.5741   18.0441  -34.8243 H   0  0  0  0  0  0  0  0  0  0  0  0
   -6.0156   17.2998  -35.5955 H   0  0  0  0  0  0  0  0  0  0  0  0
   -5.8183   19.0852  -35.5955 H   0  0  0  0  0  0  0  0  0  0  0  0
   -6.8678   17.0867  -32.0533 H   0  0  0  0  0  0  0  0  0  0  0  0
   -7.9411   16.8604  -33.4757 H   0  0  0  0  0  0  0  0  0  0  0  0
   -6.2891   16.1549  -33.4757 H   0  0  0  0  0  0  0  0  0  0  0  0
   -8.7350   19.5376  -33.3439 H   0  0  0  0  0  0  0  0  0  0  0  0
   -9.0689   21.7361  -32.1776 H   0  0  0  0  0  0  0  0  0  0  0  0
   -7.6772   23.8342  -30.8293 H   0  0  0  0  0  0  0  0  0  0  0  0
   -5.7240   24.1320  -28.2270 H   0  0  0  0  0  0  0  0  0  0  0  0
   -4.8040   25.6650  -28.3720 H   0  0  0  0  0  0  0  0  0  0  0  0
   -3.2210   22.7030  -29.2440 H   0  0  0  0  0  0  0  0  0  0  0  0
   -0.1039   24.1105  -27.2749 H   0  0  0  0  0  0  0  0  0  0  0  0
    0.5870   24.3607  -28.9125 H   0  0  0  0  0  0  0  0  0  0  0  0
   -4.4366   19.8314  -32.6468 H   0  0  0  0  0  0  0  0  0  0  0  0
  1  2  1  0
  2  3  1  0
  2  4  1  0
  4  5  2  0
  5  6  1  0
  6  7  2  0
  7  8  1  0
  8  9  2  0
  9 10  1  0
 10 11  1  0
 10 12  2  0
  9 13  1  0
 13 14  1  0
 14 15  2  0
 14 16  1  0
 16 17  1  0
 17 18  2  0
 17 19  1  0
 19 20  1  0
 20 21  1  0
 21 22  2  0
 21 23  1  0
 13 24  1  0
 24 25  2  0
 25  4  1  0
 24  7  1  0
  1 26  1  0
  1 27  1  0
  1 28  1  0
  3 29  1  0
  3 30  1  0
  3 31  1  0
  5 32  1  0
  6 33  1  0
  8 34  1  0
 11 35  1  0
 11 36  1  0
 16 37  1  0
 20 38  1  0
 20 39  1  0
 25 40  1  0
M  CHG  1  23  -1
M  END
>  <UniqueID>  (85) 
84

>  <SMILES>  (85) 
CN(C)c1ccc2cc(C(N)=O)n(C(=O)NC(=O)OCC(=O)[O-])c2c1

>  <Energy>  (85) 
76.84106257566002

>  <Genealogy>  (85) 
CN(C)c1ccc2cc(C(N)=O)n(C(=O)NC(=O)OCC(=O)[O-])c2c1 (protonated)
CN(C)c1ccc2cc(C(N)=O)n(C(=O)NC(=O)OCC(=O)[O-])c2c1 (3D coordinates assigned)
CN(C)c1ccc2cc(C(N)=O)n(C(=O)NC(=O)OCC(=O)[O-])c2c1 (optimized conformer: 76.84106257566002 kcal/mol)

>  <smiles>  (85) 
CN(C)c1ccc2cc(C(N)=O)n(C(=O)NC(=O)OCC(=O)O)c2c1

>  <score_type>  (85) 
oracle

>  <origin>  (85) 
adg

>  <m_score__min__energy>  (85) 
-10.51

>  <m_primary>  (85) 
energy

$$$$
86:0
     RDKit          3D

 32 34  0  0  0  0  0  0  0  0999 V2000
   -3.9340   25.6550  -30.8820 N   0  0  0  0  0  0  0  0  0  0  0  0
   -5.1890   25.1100  -30.4840 C   0  0  0  0  0  0  0  0  0  0  0  0
   -5.9570   25.7990  -29.7580 O   0  0  0  0  0  0  0  0  0  0  0  0
   -5.6270   23.7790  -30.9540 C   0  0  0  0  0  0  0  0  0  0  0  0
   -6.9640   23.4350  -31.1390 C   0  0  0  0  0  0  0  0  0  0  0  0
   -6.9430   22.1630  -31.6630 C   0  0  0  0  0  0  0  0  0  0  0  0
   -7.9960   21.3280  -32.0210 C   0  0  0  0  0  0  0  0  0  0  0  0
   -7.6860   20.0460  -32.5030 C   0  0  0  0  0  0  0  0  0  0  0  0
   -6.3360   19.6180  -32.6200 C   0  0  0  0  0  0  0  0  0  0  0  0
   -6.0430   18.2490  -33.1140 C   0  0  0  0  0  0  0  0  0  0  0  0
   -4.7270   17.7740  -33.2560 C   0  0  0  0  0  0  0  0  0  0  0  0
   -4.5090   16.5130  -33.7160 N   0  0  0  0  0  0  0  0  0  0  0  0
   -5.5440   15.6890  -34.0540 C   0  0  0  0  0  0  0  0  0  0  0  0
   -5.2810   14.3230  -34.5530 C   0  0  0  0  0  0  0  0  0  0  0  0
   -4.1000   13.9020  -34.6820 O   0  0  0  0  0  0  0  0  0  0  0  0
   -6.3370   13.4830  -34.8870 O   0  0  0  0  0  0  0  0  0  0  0  0
   -6.8560   16.1670  -33.9230 C   0  0  0  0  0  0  0  0  0  0  0  0
   -7.0690   17.4260  -33.4620 N   0  0  0  0  0  0  0  0  0  0  0  0
   -5.2950   20.4970  -32.2330 C   0  0  0  0  0  0  0  0  0  0  0  0
   -5.6340   21.7760  -31.7750 C   0  0  0  0  0  0  0  0  0  0  0  0
   -4.8110   22.7560  -31.3400 N   0  0  0  0  0  0  0  0  0  0  0  0
   -3.3810   22.6790  -31.2310 C   0  0  0  0  0  0  0  0  0  0  0  0
   -2.7910   23.1620  -30.2290 O   0  0  0  0  0  0  0  0  0  0  0  0
   -2.6350   22.0480  -32.2200 O   0  0  0  0  0  0  0  0  0  0  0  0
   -3.0400   25.2930  -30.4810 H   0  0  0  0  0  0  0  0  0  0  0  0
   -7.8483   24.0494  -30.9141 H   0  0  0  0  0  0  0  0  0  0  0  0
   -9.0401   21.6617  -31.9294 H   0  0  0  0  0  0  0  0  0  0  0  0
   -8.4988   19.3642  -32.7938 H   0  0  0  0  0  0  0  0  0  0  0  0
   -3.8762   18.4208  -32.9957 H   0  0  0  0  0  0  0  0  0  0  0  0
   -3.5220   16.1870  -33.8140 H   0  0  0  0  0  0  0  0  0  0  0  0
   -7.7078   15.5252  -34.1923 H   0  0  0  0  0  0  0  0  0  0  0  0
   -4.2428   20.1816  -32.2910 H   0  0  0  0  0  0  0  0  0  0  0  0
  1  2  1  0
  2  3  2  0
  2  4  1  0
  4  5  2  0
  5  6  1  0
  6  7  2  0
  7  8  1  0
  8  9  2  0
  9 10  1  0
 10 11  2  0
 11 12  1  0
 12 13  2  0
 13 14  1  0
 14 15  2  0
 14 16  1  0
 13 17  1  0
 17 18  2  0
  9 19  1  0
 19 20  2  0
 20 21  1  0
 21 22  1  0
 22 23  2  0
 22 24  1  0
 21  4  1  0
 20  6  1  0
 18 10  1  0
  1 25  1  0
  5 26  1  0
  7 27  1  0
  8 28  1  0
 11 29  1  0
 12 30  1  0
 17 31  1  0
 19 32  1  0
M  CHG  4   1  -1  12   1  16  -1  24  -1
M  END
>  <UniqueID>  (86) 
85

>  <SMILES>  (86) 
[NH-]C(=O)c1cc2ccc(-c3c[nH+]c(C(=O)[O-])cn3)cc2n1C(=O)[O-]

>  <Energy>  (86) 
80.50868363006822

>  <Genealogy>  (86) 
[NH-]C(=O)c1cc2ccc(-c3c[nH+]c(C(=O)[O-])cn3)cc2n1C(=O)[O-] (protonated)
[NH-]C(=O)c1cc2ccc(-c3c[nH+]c(C(=O)[O-])cn3)cc2n1C(=O)[O-] (3D coordinates assigned)
[NH-]C(=O)c1cc2ccc(-c3c[nH+]c(C(=O)[O-])cn3)cc2n1C(=O)[O-] (optimized conformer: 80.50868363006822 kcal/mol)

>  <smiles>  (86) 
NC(=O)c1cc2ccc(-c3cnc(C(=O)O)cn3)cc2n1C(=O)O

>  <score_type>  (86) 
oracle

>  <origin>  (86) 
adg

>  <m_score__min__energy>  (86) 
-9.6600000000000001

>  <m_primary>  (86) 
energy

$$$$
87:0
     RDKit          3D

 35 36  0  0  0  0  0  0  0  0999 V2000
   -7.5830   18.6640  -32.7350 C   0  0  0  0  0  0  0  0  0  0  0  0
   -7.5320   20.0640  -32.2020 C   0  0  0  0  0  0  0  0  0  0  0  0
   -8.7330   20.7490  -31.8920 C   0  0  0  0  0  0  0  0  0  0  0  0
   -8.7000   22.0700  -31.4150 C   0  0  0  0  0  0  0  0  0  0  0  0
   -7.4580   22.6840  -31.2800 C   0  0  0  0  0  0  0  0  0  0  0  0
   -7.1390   23.9440  -30.8270 C   0  0  0  0  0  0  0  0  0  0  0  0
   -5.7490   24.0230  -30.9050 C   0  0  0  0  0  0  0  0  0  0  0  0
   -4.9860   25.2480  -30.5900 C   0  0  0  0  0  0  0  0  0  0  0  0
   -3.5700   25.2650  -30.7630 N   0  0  0  0  0  0  0  0  0  0  0  0
   -5.5630   26.2710  -30.1370 O   0  0  0  0  0  0  0  0  0  0  0  0
   -5.2300   22.8550  -31.3820 N   0  0  0  0  0  0  0  0  0  0  0  0
   -3.8460   22.5090  -31.5560 C   0  0  0  0  0  0  0  0  0  0  0  0
   -3.4090   22.2390  -32.7080 O   0  0  0  0  0  0  0  0  0  0  0  0
   -2.9940   22.4990  -30.4430 O   0  0  0  0  0  0  0  0  0  0  0  0
   -1.6160   22.7500  -30.4820 C   0  0  0  0  0  0  0  0  0  0  0  0
   -0.8650   22.1300  -31.2840 O   0  0  0  0  0  0  0  0  0  0  0  0
   -1.0850   23.7000  -29.6040 O   0  0  0  0  0  0  0  0  0  0  0  0
   -1.4480   23.7880  -28.2270 C   0  0  0  0  0  0  0  0  0  0  0  0
   -1.9040   25.2060  -27.8800 C   0  0  0  0  0  0  0  0  0  0  0  0
   -1.6100   26.0820  -28.9330 O   0  0  0  0  0  0  0  0  0  0  0  0
   -6.2890   22.0470  -31.6090 C   0  0  0  0  0  0  0  0  0  0  0  0
   -6.2910   20.7240  -32.0680 C   0  0  0  0  0  0  0  0  0  0  0  0
   -7.6089   17.9530  -31.8961 H   0  0  0  0  0  0  0  0  0  0  0  0
   -8.4863   18.5385  -33.3500 H   0  0  0  0  0  0  0  0  0  0  0  0
   -6.6912   18.4731  -33.3500 H   0  0  0  0  0  0  0  0  0  0  0  0
   -9.6999   20.2419  -32.0260 H   0  0  0  0  0  0  0  0  0  0  0  0
   -9.6270   22.6027  -31.1562 H   0  0  0  0  0  0  0  0  0  0  0  0
   -7.8329   24.7228  -30.4778 H   0  0  0  0  0  0  0  0  0  0  0  0
   -2.9450   24.7340  -30.1170 H   0  0  0  0  0  0  0  0  0  0  0  0
   -2.2688   23.0844  -28.0239 H   0  0  0  0  0  0  0  0  0  0  0  0
   -0.5709   23.5372  -27.6123 H   0  0  0  0  0  0  0  0  0  0  0  0
   -2.9894   25.2047  -27.7012 H   0  0  0  0  0  0  0  0  0  0  0  0
   -1.3739   25.5416  -26.9764 H   0  0  0  0  0  0  0  0  0  0  0  0
   -1.9960   25.6790  -29.7540 H   0  0  0  0  0  0  0  0  0  0  0  0
   -5.3499   20.2121  -32.3177 H   0  0  0  0  0  0  0  0  0  0  0  0
  1  2  1  0
  2  3  2  0
  3  4  1  0
  4  5  2  0
  5  6  1  0
  6  7  2  0
  7  8  1  0
  8  9  1  0
  8 10  2  0
  7 11  1  0
 11 12  1  0
 12 13  2  0
 12 14  1  0
 14 15  1  0
 15 16  2  0
 15 17  1  0
 17 18  1  0
 18 19  1  0
 19 20  1  0
 11 21  1  0
 21 22  2  0
 22  2  1  0
 21  5  1  0
  1 23  1  0
  1 24  1  0
  1 25  1  0
  3 26  1  0
  4 27  1  0
  6 28  1  0
  9 29  1  0
 18 30  1  0
 18 31  1  0
 19 32  1  0
 19 33  1  0
 20 34  1  0
 22 35  1  0
M  CHG  1   9  -1
M  END
>  <UniqueID>  (87) 
86

>  <SMILES>  (87) 
Cc1ccc2cc(C([NH-])=O)n(C(=O)OC(=O)OCCO)c2c1

>  <Energy>  (87) 
70.86215367630112

>  <Genealogy>  (87) 
Cc1ccc2cc(C([NH-])=O)n(C(=O)OC(=O)OCCO)c2c1 (protonated)
Cc1ccc2cc(C([NH-])=O)n(C(=O)OC(=O)OCCO)c2c1 (3D coordinates assigned)
Cc1ccc2cc(C([NH-])=O)n(C(=O)OC(=O)OCCO)c2c1 (optimized conformer: 70.86215367630112 kcal/mol)

>  <smiles>  (87) 
Cc1ccc2cc(C(N)=O)n(C(=O)OC(=O)OCCO)c2c1

>  <score_type>  (87) 
oracle

>  <origin>  (87) 
adg

>  <m_score__min__energy>  (87) 
-9.8399999999999999

>  <m_primary>  (87) 
energy

$$$$
88:0
     RDKit          3D

 38 39  0  0  0  0  0  0  0  0999 V2000
   -3.6600   24.8690  -30.1420 N   0  0  0  0  0  0  0  0  0  0  0  0
   -5.0180   25.0680  -30.5400 C   0  0  0  0  0  0  0  0  0  0  0  0
   -5.5270   26.2160  -30.4490 O   0  0  0  0  0  0  0  0  0  0  0  0
   -5.8570   23.9340  -30.9720 C   0  0  0  0  0  0  0  0  0  0  0  0
   -7.2350   24.0260  -31.1460 C   0  0  0  0  0  0  0  0  0  0  0  0
   -7.6500   22.7480  -31.4420 C   0  0  0  0  0  0  0  0  0  0  0  0
   -8.9270   22.2620  -31.7080 C   0  0  0  0  0  0  0  0  0  0  0  0
   -9.0650   20.8950  -32.0000 C   0  0  0  0  0  0  0  0  0  0  0  0
   -7.9300   20.0460  -32.0320 C   0  0  0  0  0  0  0  0  0  0  0  0
   -8.0810   18.5840  -32.3430 C   0  0  0  0  0  0  0  0  0  0  0  0
   -7.0680   17.8690  -31.7300 F   0  0  0  0  0  0  0  0  0  0  0  0
   -9.3040   18.1330  -31.8790 F   0  0  0  0  0  0  0  0  0  0  0  0
   -6.6480   20.5780  -31.7650 C   0  0  0  0  0  0  0  0  0  0  0  0
   -6.5420   21.9390  -31.4520 C   0  0  0  0  0  0  0  0  0  0  0  0
   -5.4290   22.6550  -31.1700 N   0  0  0  0  0  0  0  0  0  0  0  0
   -4.0710   22.1860  -31.2020 C   0  0  0  0  0  0  0  0  0  0  0  0
   -3.2340   22.7360  -31.9670 O   0  0  0  0  0  0  0  0  0  0  0  0
   -3.6800   21.1260  -30.3760 O   0  0  0  0  0  0  0  0  0  0  0  0
   -2.9710   21.3190  -29.1530 C   0  0  0  0  0  0  0  0  0  0  0  0
   -1.6810   21.8690  -29.4080 O   0  0  0  0  0  0  0  0  0  0  0  0
   -0.7100   22.0190  -28.4150 C   0  0  0  0  0  0  0  0  0  0  0  0
   -0.6600   21.2180  -27.4400 O   0  0  0  0  0  0  0  0  0  0  0  0
    0.2080   23.0690  -28.5190 O   0  0  0  0  0  0  0  0  0  0  0  0
   -0.0080   24.3550  -27.9400 C   0  0  0  0  0  0  0  0  0  0  0  0
   -1.2750   24.9600  -28.4590 C   0  0  0  0  0  0  0  0  0  0  0  0
   -2.3890   24.4830  -28.1180 O   0  0  0  0  0  0  0  0  0  0  0  0
   -1.2260   26.0580  -29.3070 O   0  0  0  0  0  0  0  0  0  0  0  0
   -3.2540   23.9110  -30.0770 H   0  0  0  0  0  0  0  0  0  0  0  0
   -3.0860   25.6770  -29.8130 H   0  0  0  0  0  0  0  0  0  0  0  0
   -7.8591   24.9281  -31.0643 H   0  0  0  0  0  0  0  0  0  0  0  0
   -9.8019   22.9285  -31.6901 H   0  0  0  0  0  0  0  0  0  0  0  0
  -10.0625   20.4795  -32.2057 H   0  0  0  0  0  0  0  0  0  0  0  0
   -8.0246   18.4400  -33.4321 H   0  0  0  0  0  0  0  0  0  0  0  0
   -5.7542   19.9379  -31.8022 H   0  0  0  0  0  0  0  0  0  0  0  0
   -3.5382   22.0082  -28.5101 H   0  0  0  0  0  0  0  0  0  0  0  0
   -2.8518   20.3468  -28.6524 H   0  0  0  0  0  0  0  0  0  0  0  0
   -0.0775   24.2524  -26.8470 H   0  0  0  0  0  0  0  0  0  0  0  0
    0.8338   25.0105  -28.2077 H   0  0  0  0  0  0  0  0  0  0  0  0
  1  2  1  0
  2  3  2  0
  2  4  1  0
  4  5  2  0
  5  6  1  0
  6  7  2  0
  7  8  1  0
  8  9  2  0
  9 10  1  0
 10 11  1  0
 10 12  1  0
  9 13  1  0
 13 14  2  0
 14 15  1  0
 15 16  1  0
 16 17  2  0
 16 18  1  0
 18 19  1  0
 19 20  1  0
 20 21  1  0
 21 22  2  0
 21 23  1  0
 23 24  1  0
 24 25  1  0
 25 26  2  0
 25 27  1  0
 15  4  1  0
 14  6  1  0
  1 28  1  0
  1 29  1  0
  5 30  1  0
  7 31  1  0
  8 32  1  0
 10 33  1  0
 13 34  1  0
 19 35  1  0
 19 36  1  0
 24 37  1  0
 24 38  1  0
M  CHG  1  27  -1
M  END
>  <UniqueID>  (88) 
87

>  <SMILES>  (88) 
NC(=O)c1cc2ccc(C(F)F)cc2n1C(=O)OCOC(=O)OCC(=O)[O-]

>  <Energy>  (88) 
71.07583191273783

>  <Genealogy>  (88) 
NC(=O)c1cc2ccc(C(F)F)cc2n1C(=O)OCOC(=O)OCC(=O)[O-] (protonated)
NC(=O)c1cc2ccc(C(F)F)cc2n1C(=O)OCOC(=O)OCC(=O)[O-] (3D coordinates assigned)
NC(=O)c1cc2ccc(C(F)F)cc2n1C(=O)OCOC(=O)OCC(=O)[O-] (optimized conformer: 71.07583191273783 kcal/mol)

>  <smiles>  (88) 
NC(=O)c1cc2ccc(C(F)F)cc2n1C(=O)OCOC(=O)OCC(=O)O

>  <score_type>  (88) 
oracle

>  <origin>  (88) 
adg

>  <m_score__min__energy>  (88) 
-9.0999999999999996

>  <m_primary>  (88) 
energy

$$$$
89:0
     RDKit          3D

 32 33  0  0  0  0  0  0  0  0999 V2000
   -2.8490   21.2990  -29.8070 C   0  0  0  0  0  0  0  0  0  0  0  0
   -3.3300   22.4320  -30.3270 C   0  0  0  0  0  0  0  0  0  0  0  0
   -4.1880   22.4010  -31.5350 C   0  0  0  0  0  0  0  0  0  0  0  0
   -3.6660   22.4600  -32.6810 O   0  0  0  0  0  0  0  0  0  0  0  0
   -5.6160   22.3010  -31.4250 N   0  0  0  0  0  0  0  0  0  0  0  0
   -6.4710   23.2170  -30.8920 C   0  0  0  0  0  0  0  0  0  0  0  0
   -6.0860   24.5690  -30.4240 C   0  0  0  0  0  0  0  0  0  0  0  0
   -5.7490   24.8060  -29.0560 N   0  0  0  0  0  0  0  0  0  0  0  0
   -6.0630   25.5330  -31.2340 O   0  0  0  0  0  0  0  0  0  0  0  0
   -7.7760   22.7230  -30.9070 C   0  0  0  0  0  0  0  0  0  0  0  0
   -7.6850   21.4630  -31.4550 C   0  0  0  0  0  0  0  0  0  0  0  0
   -8.6750   20.5190  -31.7050 C   0  0  0  0  0  0  0  0  0  0  0  0
   -8.2870   19.2890  -32.2650 C   0  0  0  0  0  0  0  0  0  0  0  0
   -6.9210   19.0150  -32.5380 C   0  0  0  0  0  0  0  0  0  0  0  0
   -6.5210   17.7100  -33.1780 C   0  0  0  0  0  0  0  0  0  0  0  0
   -7.5410   16.7810  -33.0740 F   0  0  0  0  0  0  0  0  0  0  0  0
   -6.2440   17.9280  -34.5160 F   0  0  0  0  0  0  0  0  0  0  0  0
   -5.3960   17.1900  -32.5640 F   0  0  0  0  0  0  0  0  0  0  0  0
   -5.9490   20.0100  -32.2870 C   0  0  0  0  0  0  0  0  0  0  0  0
   -6.3690   21.2300  -31.7510 C   0  0  0  0  0  0  0  0  0  0  0  0
   -2.8910   24.0000  -29.5550 P   0  0  0  0  0  0  0  0  0  0  0  0
   -3.5030   24.0760  -28.1750 O   0  0  0  0  0  0  0  0  0  0  0  0
   -3.4690   25.2930  -30.4790 O   0  0  0  0  0  0  0  0  0  0  0  0
   -1.2100   24.1150  -29.4220 O   0  0  0  0  0  0  0  0  0  0  0  0
   -2.2130   21.3320  -28.9101 H   0  0  0  0  0  0  0  0  0  0  0  0
   -3.0891   20.3333  -30.2758 H   0  0  0  0  0  0  0  0  0  0  0  0
   -5.5130   25.7720  -28.7360 H   0  0  0  0  0  0  0  0  0  0  0  0
   -5.6890   24.0280  -28.3630 H   0  0  0  0  0  0  0  0  0  0  0  0
   -8.6853   23.2325  -30.5554 H   0  0  0  0  0  0  0  0  0  0  0  0
   -9.7295   20.7281  -31.4718 H   0  0  0  0  0  0  0  0  0  0  0  0
   -9.0502   18.5307  -32.4941 H   0  0  0  0  0  0  0  0  0  0  0  0
   -4.8870   19.8281  -32.5084 H   0  0  0  0  0  0  0  0  0  0  0  0
  1  2  2  0
  2  3  1  0
  3  4  2  0
  3  5  1  0
  5  6  1  0
  6  7  1  0
  7  8  1  0
  7  9  2  0
  6 10  2  0
 10 11  1  0
 11 12  2  0
 12 13  1  0
 13 14  2  0
 14 15  1  0
 15 16  1  0
 15 17  1  0
 15 18  1  0
 14 19  1  0
 19 20  2  0
  2 21  1  0
 21 22  2  0
 21 23  1  0
 21 24  1  0
 20  5  1  0
 20 11  1  0
  1 25  1  0
  1 26  1  0
  8 27  1  0
  8 28  1  0
 10 29  1  0
 12 30  1  0
 13 31  1  0
 19 32  1  0
M  CHG  2  23  -1  24  -1
M  END
>  <UniqueID>  (89) 
88

>  <SMILES>  (89) 
C=C(C(=O)n1c(C(N)=O)cc2ccc(C(F)(F)F)cc21)P(=O)([O-])[O-]

>  <Energy>  (89) 
69.62856969468697

>  <Genealogy>  (89) 
C=C(C(=O)n1c(C(N)=O)cc2ccc(C(F)(F)F)cc21)P(=O)([O-])[O-] (protonated)
C=C(C(=O)n1c(C(N)=O)cc2ccc(C(F)(F)F)cc21)P(=O)([O-])[O-] (3D coordinates assigned)
C=C(C(=O)n1c(C(N)=O)cc2ccc(C(F)(F)F)cc21)P(=O)([O-])[O-] (optimized conformer: 69.62856969468697 kcal/mol)

>  <smiles>  (89) 
C=C(C(=O)n1c(C(N)=O)cc2ccc(C(F)(F)F)cc21)P(=O)(O)O

>  <score_type>  (89) 
oracle

>  <origin>  (89) 
adg

>  <m_score__min__energy>  (89) 
-12.380000000000001

>  <m_primary>  (89) 
energy

$$$$
90:0
     RDKit          3D

 33 34  0  0  0  0  0  0  0  0999 V2000
   -7.4240   18.5330  -32.9840 C   0  0  0  0  0  0  0  0  0  0  0  0
   -7.4650   19.9210  -32.4160 C   0  0  0  0  0  0  0  0  0  0  0  0
   -8.6870   20.4610  -31.9470 C   0  0  0  0  0  0  0  0  0  0  0  0
   -8.7320   21.7520  -31.3940 C   0  0  0  0  0  0  0  0  0  0  0  0
   -7.5400   22.4650  -31.3030 C   0  0  0  0  0  0  0  0  0  0  0  0
   -7.3080   23.7360  -30.8370 C   0  0  0  0  0  0  0  0  0  0  0  0
   -5.9380   23.9390  -30.9830 C   0  0  0  0  0  0  0  0  0  0  0  0
   -5.2560   25.1660  -30.5240 C   0  0  0  0  0  0  0  0  0  0  0  0
   -3.8940   25.4120  -30.8530 N   0  0  0  0  0  0  0  0  0  0  0  0
   -5.8670   25.9780  -29.7800 O   0  0  0  0  0  0  0  0  0  0  0  0
   -5.3410   22.8380  -31.5250 N   0  0  0  0  0  0  0  0  0  0  0  0
   -3.9700   22.6870  -31.9360 C   0  0  0  0  0  0  0  0  0  0  0  0
   -3.7020   22.1850  -33.0610 O   0  0  0  0  0  0  0  0  0  0  0  0
   -2.9360   23.1280  -31.1020 O   0  0  0  0  0  0  0  0  0  0  0  0
   -2.7470   22.6480  -29.7690 C   0  0  0  0  0  0  0  0  0  0  0  0
   -1.6240   23.2370  -29.1530 O   0  0  0  0  0  0  0  0  0  0  0  0
   -2.1030   24.6040  -28.2470 P   0  0  1  0  0  0  0  0  0  0  0  0
   -1.4860   24.5140  -26.8710 O   0  0  0  0  0  0  0  0  0  0  0  0
   -1.6120   26.0540  -28.9710 O   0  0  0  0  0  0  0  0  0  0  0  0
   -3.7890   24.5940  -28.0910 O   0  0  0  0  0  0  0  0  0  0  0  0
   -6.3400   21.9430  -31.7170 C   0  0  0  0  0  0  0  0  0  0  0  0
   -6.2730   20.6670  -32.2940 C   0  0  0  0  0  0  0  0  0  0  0  0
   -7.4024   17.8013  -32.1629 H   0  0  0  0  0  0  0  0  0  0  0  0
   -8.3175   18.3635  -33.6028 H   0  0  0  0  0  0  0  0  0  0  0  0
   -6.5220   18.4165  -33.6028 H   0  0  0  0  0  0  0  0  0  0  0  0
   -9.6089   19.8649  -32.0161 H   0  0  0  0  0  0  0  0  0  0  0  0
   -9.6802   22.1859  -31.0437 H   0  0  0  0  0  0  0  0  0  0  0  0
   -8.0475   24.4436  -30.4339 H   0  0  0  0  0  0  0  0  0  0  0  0
   -3.1230   25.1190  -30.2110 H   0  0  0  0  0  0  0  0  0  0  0  0
   -3.6427   22.8838  -29.1756 H   0  0  0  0  0  0  0  0  0  0  0  0
   -2.5788   21.5620  -29.8181 H   0  0  0  0  0  0  0  0  0  0  0  0
   -4.1010   25.3300  -28.6750 H   0  0  0  0  0  0  0  0  0  0  0  0
   -5.3140   20.2569  -32.6434 H   0  0  0  0  0  0  0  0  0  0  0  0
  1  2  1  0
  2  3  2  0
  3  4  1  0
  4  5  2  0
  5  6  1  0
  6  7  2  0
  7  8  1  0
  8  9  1  0
  8 10  2  0
  7 11  1  0
 11 12  1  0
 12 13  2  0
 12 14  1  0
 14 15  1  0
 15 16  1  0
 16 17  1  0
 17 18  2  0
 17 19  1  6
 17 20  1  0
 11 21  1  0
 21 22  2  0
 22  2  1  0
 21  5  1  0
  1 23  1  0
  1 24  1  0
  1 25  1  0
  3 26  1  0
  4 27  1  0
  6 28  1  0
  9 29  1  0
 15 30  1  0
 15 31  1  0
 20 32  1  0
 22 33  1  0
M  CHG  2   9  -1  19  -1
M  END
>  <UniqueID>  (90) 
89

>  <SMILES>  (90) 
Cc1ccc2cc(C([NH-])=O)n(C(=O)OCO[P@@](=O)([O-])O)c2c1

>  <Energy>  (90) 
70.33959318971249

>  <Genealogy>  (90) 
Cc1ccc2cc(C([NH-])=O)n(C(=O)OCOP(=O)([O-])O)c2c1 (protonated)
Cc1ccc2cc(C([NH-])=O)n(C(=O)OCO[P@@](=O)([O-])O)c2c1 (chirality)
Cc1ccc2cc(C([NH-])=O)n(C(=O)OCO[P@@](=O)([O-])O)c2c1 (3D coordinates assigned)
Cc1ccc2cc(C([NH-])=O)n(C(=O)OCO[P@@](=O)([O-])O)c2c1 (optimized conformer: 70.33959318971249 kcal/mol)

>  <smiles>  (90) 
Cc1ccc2cc(C(N)=O)n(C(=O)OCOP(=O)(O)O)c2c1

>  <score_type>  (90) 
oracle

>  <origin>  (90) 
adg

>  <m_score__min__energy>  (90) 
-12.119999999999999

>  <m_primary>  (90) 
energy

$$$$
91:0
     RDKit          3D

 28 29  0  0  0  0  0  0  0  0999 V2000
   -4.3440   17.3510  -35.4640 N   0  0  0  0  0  0  0  0  0  0  0  0
   -5.3280   17.9920  -34.6510 C   0  0  0  0  0  0  0  0  0  0  0  0
   -6.4970   17.5270  -34.6160 O   0  0  0  0  0  0  0  0  0  0  0  0
   -4.9810   19.1510  -33.8030 C   0  0  0  0  0  0  0  0  0  0  0  0
   -5.9260   20.0460  -33.3100 C   0  0  0  0  0  0  0  0  0  0  0  0
   -5.2170   20.9250  -32.5260 C   0  0  0  0  0  0  0  0  0  0  0  0
   -5.6580   22.0270  -31.7970 C   0  0  0  0  0  0  0  0  0  0  0  0
   -4.6990   22.7820  -31.1010 C   0  0  0  0  0  0  0  0  0  0  0  0
   -3.3260   22.4370  -31.1610 C   0  0  0  0  0  0  0  0  0  0  0  0
   -2.3130   23.2420  -30.3970 C   0  0  0  0  0  0  0  0  0  0  0  0
   -3.1020   24.7030  -29.6530 P   0  0  0  0  0  0  0  0  0  0  0  0
   -4.0900   24.2680  -28.5950 O   0  0  0  0  0  0  0  0  0  0  0  0
   -1.9150   25.6770  -28.9450 O   0  0  0  0  0  0  0  0  0  0  0  0
   -3.9090   25.5850  -30.8500 O   0  0  0  0  0  0  0  0  0  0  0  0
   -2.9170   21.3080  -31.9060 C   0  0  0  0  0  0  0  0  0  0  0  0
   -3.8950   20.5590  -32.5710 C   0  0  0  0  0  0  0  0  0  0  0  0
   -3.7340   19.4690  -33.3550 N   0  0  0  0  0  0  0  0  0  0  0  0
   -2.4870   18.8570  -33.7290 C   0  0  0  0  0  0  0  0  0  0  0  0
   -1.5750   19.5460  -34.2570 O   0  0  0  0  0  0  0  0  0  0  0  0
   -2.2740   17.5020  -33.5120 O   0  0  0  0  0  0  0  0  0  0  0  0
   -4.6160   16.5570  -36.0860 H   0  0  0  0  0  0  0  0  0  0  0  0
   -3.3340   17.6020  -35.3870 H   0  0  0  0  0  0  0  0  0  0  0  0
   -7.0084   20.0493  -33.5058 H   0  0  0  0  0  0  0  0  0  0  0  0
   -6.7238   22.2977  -31.7671 H   0  0  0  0  0  0  0  0  0  0  0  0
   -5.0171   23.6492  -30.5038 H   0  0  0  0  0  0  0  0  0  0  0  0
   -1.8791   22.6187  -29.6012 H   0  0  0  0  0  0  0  0  0  0  0  0
   -1.5235   23.5734  -31.0875 H   0  0  0  0  0  0  0  0  0  0  0  0
   -1.8556   21.0245  -31.9620 H   0  0  0  0  0  0  0  0  0  0  0  0
  1  2  1  0
  2  3  2  0
  2  4  1  0
  4  5  2  0
  5  6  1  0
  6  7  2  0
  7  8  1  0
  8  9  2  0
  9 10  1  0
 10 11  1  0
 11 12  2  0
 11 13  1  0
 11 14  1  0
  9 15  1  0
 15 16  2  0
 16 17  1  0
 17 18  1  0
 18 19  2  0
 18 20  1  0
 17  4  1  0
 16  6  1  0
  1 21  1  0
  1 22  1  0
  5 23  1  0
  7 24  1  0
  8 25  1  0
 10 26  1  0
 10 27  1  0
 15 28  1  0
M  CHG  3  13  -1  14  -1  20  -1
M  END
>  <UniqueID>  (91) 
90

>  <SMILES>  (91) 
NC(=O)c1cc2ccc(CP(=O)([O-])[O-])cc2n1C(=O)[O-]

>  <Energy>  (91) 
63.77115900018434

>  <Genealogy>  (91) 
NC(=O)c1cc2ccc(CP(=O)([O-])[O-])cc2n1C(=O)[O-] (protonated)
NC(=O)c1cc2ccc(CP(=O)([O-])[O-])cc2n1C(=O)[O-] (3D coordinates assigned)
NC(=O)c1cc2ccc(CP(=O)([O-])[O-])cc2n1C(=O)[O-] (optimized conformer: 63.77115900018434 kcal/mol)

>  <smiles>  (91) 
NC(=O)c1cc2ccc(CP(=O)(O)O)cc2n1C(=O)O

>  <score_type>  (91) 
oracle

>  <origin>  (91) 
adg

>  <m_score__min__energy>  (91) 
-10.85

>  <m_primary>  (91) 
energy

$$$$
92:0
     RDKit          3D

 46 48  0  0  0  0  0  0  0  0999 V2000
    0.3430   17.5630  -34.6820 N   0  0  0  0  0  0  0  0  0  0  0  0
   -0.7870   16.9300  -35.2850 C   0  0  0  0  0  0  0  0  0  0  0  0
   -0.6100   16.1580  -36.2640 O   0  0  0  0  0  0  0  0  0  0  0  0
   -2.1600   17.2130  -34.8230 C   0  0  0  0  0  0  0  0  0  0  0  0
   -3.1820   16.2680  -34.8370 C   0  0  0  0  0  0  0  0  0  0  0  0
   -4.2980   16.9350  -34.3860 C   0  0  0  0  0  0  0  0  0  0  0  0
   -5.5940   16.4710  -34.1810 C   0  0  0  0  0  0  0  0  0  0  0  0
   -6.5410   17.3690  -33.6620 C   0  0  0  0  0  0  0  0  0  0  0  0
   -6.1800   18.7050  -33.3460 C   0  0  0  0  0  0  0  0  0  0  0  0
   -7.1860   19.6410  -32.7820 C   0  0  0  0  0  0  0  0  0  0  0  0
   -8.5290   19.2460  -32.6410 C   0  0  0  0  0  0  0  0  0  0  0  0
   -9.4740   20.1290  -32.1090 C   0  0  0  0  0  0  0  0  0  0  0  0
   -9.0930   21.4130  -31.7140 C   0  0  0  0  0  0  0  0  0  0  0  0
  -10.0200   22.2600  -31.2000 F   0  0  0  0  0  0  0  0  0  0  0  0
   -7.7610   21.8190  -31.8500 C   0  0  0  0  0  0  0  0  0  0  0  0
   -7.2720   23.4320  -31.3610 Cl  0  0  0  0  0  0  0  0  0  0  0  0
   -6.8120   20.9370  -32.3810 C   0  0  0  0  0  0  0  0  0  0  0  0
   -4.8510   19.1360  -33.5680 C   0  0  0  0  0  0  0  0  0  0  0  0
   -3.9340   18.2270  -34.1090 C   0  0  0  0  0  0  0  0  0  0  0  0
   -2.6200   18.4130  -34.3710 N   0  0  0  0  0  0  0  0  0  0  0  0
   -1.8490   19.5950  -34.1010 C   0  0  0  0  0  0  0  0  0  0  0  0
   -2.0960   20.2900  -33.0770 O   0  0  0  0  0  0  0  0  0  0  0  0
   -0.8230   19.9700  -34.9770 O   0  0  0  0  0  0  0  0  0  0  0  0
    0.2740   20.7930  -34.5910 C   0  0  0  0  0  0  0  0  0  0  0  0
    0.6860   20.4850  -33.1880 C   0  0  0  0  0  0  0  0  0  0  0  0
    0.2870   21.2220  -32.2460 O   0  0  0  0  0  0  0  0  0  0  0  0
    1.5500   19.4130  -32.9420 O   0  0  0  0  0  0  0  0  0  0  0  0
    1.8040   18.8880  -31.6400 C   0  0  0  0  0  0  0  0  0  0  0  0
    0.6860   17.9360  -31.2150 C   0  0  0  0  0  0  0  0  0  0  0  0
   -0.4760   18.1970  -31.9560 O   0  0  0  0  0  0  0  0  0  0  0  0
    0.2230   18.3320  -33.9870 H   0  0  0  0  0  0  0  0  0  0  0  0
    1.3090   17.3170  -34.9910 H   0  0  0  0  0  0  0  0  0  0  0  0
   -3.1124   15.2137  -35.1431 H   0  0  0  0  0  0  0  0  0  0  0  0
   -5.8683   15.4325  -34.4182 H   0  0  0  0  0  0  0  0  0  0  0  0
   -7.5755   17.0328  -33.4983 H   0  0  0  0  0  0  0  0  0  0  0  0
   -8.8375   18.2367  -32.9510 H   0  0  0  0  0  0  0  0  0  0  0  0
  -10.5215   19.8108  -32.0013 H   0  0  0  0  0  0  0  0  0  0  0  0
   -5.7656   21.2598  -32.4856 H   0  0  0  0  0  0  0  0  0  0  0  0
   -4.5448   20.1632  -33.3209 H   0  0  0  0  0  0  0  0  0  0  0  0
    1.1218   20.6078  -35.2669 H   0  0  0  0  0  0  0  0  0  0  0  0
   -0.0323   21.8478  -34.6502 H   0  0  0  0  0  0  0  0  0  0  0  0
    2.7589   18.3421  -31.6505 H   0  0  0  0  0  0  0  0  0  0  0  0
    1.8499   19.7222  -30.9245 H   0  0  0  0  0  0  0  0  0  0  0  0
    1.0049   16.8982  -31.3917 H   0  0  0  0  0  0  0  0  0  0  0  0
    0.4728   18.0848  -30.1462 H   0  0  0  0  0  0  0  0  0  0  0  0
   -0.4820   19.1720  -32.1450 H   0  0  0  0  0  0  0  0  0  0  0  0
  1  2  1  0
  2  3  2  0
  2  4  1  0
  4  5  2  0
  5  6  1  0
  6  7  2  0
  7  8  1  0
  8  9  2  0
  9 10  1  0
 10 11  2  0
 11 12  1  0
 12 13  2  0
 13 14  1  0
 13 15  1  0
 15 16  1  0
 15 17  2  0
  9 18  1  0
 18 19  2  0
 19 20  1  0
 20 21  1  0
 21 22  2  0
 21 23  1  0
 23 24  1  0
 24 25  1  0
 25 26  2  0
 25 27  1  0
 27 28  1  0
 28 29  1  0
 29 30  1  0
 20  4  1  0
 19  6  1  0
 17 10  1  0
  1 31  1  0
  1 32  1  0
  5 33  1  0
  7 34  1  0
  8 35  1  0
 11 36  1  0
 12 37  1  0
 17 38  1  0
 18 39  1  0
 24 40  1  0
 24 41  1  0
 28 42  1  0
 28 43  1  0
 29 44  1  0
 29 45  1  0
 30 46  1  0
M  END
>  <UniqueID>  (92) 
91

>  <SMILES>  (92) 
NC(=O)c1cc2ccc(-c3ccc(F)c(Cl)c3)cc2n1C(=O)OCC(=O)OCCO

>  <Energy>  (92) 
86.75569459082604

>  <Genealogy>  (92) 
NC(=O)c1cc2ccc(-c3ccc(F)c(Cl)c3)cc2n1C(=O)OCC(=O)OCCO (3D coordinates assigned)
NC(=O)c1cc2ccc(-c3ccc(F)c(Cl)c3)cc2n1C(=O)OCC(=O)OCCO (optimized conformer: 86.75569459082604 kcal/mol)

>  <smiles>  (92) 
NC(=O)c1cc2ccc(-c3ccc(F)c(Cl)c3)cc2n1C(=O)OCC(=O)OCCO

>  <score_type>  (92) 
oracle

>  <origin>  (92) 
adg

>  <m_score__min__energy>  (92) 
-9.3900000000000006

>  <m_primary>  (92) 
energy

$$$$
93:0
     RDKit          3D

 42 43  0  0  0  0  0  0  0  0999 V2000
   -1.6090   26.4020  -26.3670 C   0  0  0  0  0  0  0  0  0  0  0  0
   -1.6020   24.9860  -26.9770 C   0  0  0  0  0  0  0  0  0  0  0  0
   -0.7550   24.0570  -26.0830 C   0  0  0  0  0  0  0  0  0  0  0  0
   -0.9970   25.0920  -28.3650 C   0  0  0  0  0  0  0  0  0  0  0  0
   -1.6170   25.6650  -29.3020 O   0  0  0  0  0  0  0  0  0  0  0  0
    0.2220   24.4810  -28.6390 O   0  0  0  0  0  0  0  0  0  0  0  0
   -3.0050   24.3860  -27.0840 C   0  0  0  0  0  0  0  0  0  0  0  0
   -3.9280   24.9380  -26.5000 O   0  0  0  0  0  0  0  0  0  0  0  0
   -3.3370   23.2120  -27.9690 C   0  0  0  0  0  0  0  0  0  0  0  0
   -4.3610   23.5840  -28.8870 O   0  0  0  0  0  0  0  0  0  0  0  0
   -4.1470   23.6560  -30.2670 C   0  0  0  0  0  0  0  0  0  0  0  0
   -3.8530   24.7580  -30.8060 O   0  0  0  0  0  0  0  0  0  0  0  0
   -4.2360   22.4650  -31.0670 N   0  0  0  0  0  0  0  0  0  0  0  0
   -3.2060   21.7440  -31.5890 C   0  0  0  0  0  0  0  0  0  0  0  0
   -1.7780   21.9390  -31.2680 C   0  0  0  0  0  0  0  0  0  0  0  0
   -1.3540   23.0460  -30.4690 N   0  0  0  0  0  0  0  0  0  0  0  0
   -0.9160   21.1450  -31.7270 O   0  0  0  0  0  0  0  0  0  0  0  0
   -3.6870   20.7160  -32.3970 C   0  0  0  0  0  0  0  0  0  0  0  0
   -5.0580   20.8310  -32.3520 C   0  0  0  0  0  0  0  0  0  0  0  0
   -6.0390   20.0650  -32.9750 C   0  0  0  0  0  0  0  0  0  0  0  0
   -7.3810   20.4240  -32.7700 C   0  0  0  0  0  0  0  0  0  0  0  0
   -7.7200   21.5470  -31.9740 C   0  0  0  0  0  0  0  0  0  0  0  0
   -9.1660   21.8990  -31.7330 C   0  0  0  0  0  0  0  0  0  0  0  0
   -9.4610   23.1460  -32.2580 F   0  0  0  0  0  0  0  0  0  0  0  0
  -10.0010   20.9700  -32.3280 F   0  0  0  0  0  0  0  0  0  0  0  0
   -9.4090   21.9160  -30.3710 F   0  0  0  0  0  0  0  0  0  0  0  0
   -6.6930   22.2860  -31.3390 C   0  0  0  0  0  0  0  0  0  0  0  0
   -5.3640   21.8950  -31.5450 C   0  0  0  0  0  0  0  0  0  0  0  0
   -1.6086   26.3284  -25.2695 H   0  0  0  0  0  0  0  0  0  0  0  0
   -0.7135   26.9483  -26.6982 H   0  0  0  0  0  0  0  0  0  0  0  0
   -2.5098   26.9395  -26.6982 H   0  0  0  0  0  0  0  0  0  0  0  0
   -0.9586   24.2803  -25.0253 H   0  0  0  0  0  0  0  0  0  0  0  0
   -1.0149   23.0090  -26.2931 H   0  0  0  0  0  0  0  0  0  0  0  0
    0.3125   24.2192  -26.2931 H   0  0  0  0  0  0  0  0  0  0  0  0
   -2.4387   22.9068  -28.5257 H   0  0  0  0  0  0  0  0  0  0  0  0
   -3.6870   22.3732  -27.3494 H   0  0  0  0  0  0  0  0  0  0  0  0
   -2.0450   23.6980  -30.0390 H   0  0  0  0  0  0  0  0  0  0  0  0
   -0.3380   23.1900  -30.2720 H   0  0  0  0  0  0  0  0  0  0  0  0
   -3.0973   19.9716  -32.9522 H   0  0  0  0  0  0  0  0  0  0  0  0
   -5.7716   19.2058  -33.6077 H   0  0  0  0  0  0  0  0  0  0  0  0
   -8.1797   19.8260  -33.2331 H   0  0  0  0  0  0  0  0  0  0  0  0
   -6.9333   23.1475  -30.6986 H   0  0  0  0  0  0  0  0  0  0  0  0
  1  2  1  0
  2  3  1  0
  2  4  1  0
  4  5  2  0
  4  6  1  0
  2  7  1  0
  7  8  2  0
  7  9  1  0
  9 10  1  0
 10 11  1  0
 11 12  2  0
 11 13  1  0
 13 14  1  0
 14 15  1  0
 15 16  1  0
 15 17  2  0
 14 18  2  0
 18 19  1  0
 19 20  2  0
 20 21  1  0
 21 22  2  0
 22 23  1  0
 23 24  1  0
 23 25  1  0
 23 26  1  0
 22 27  1  0
 27 28  2  0
 28 13  1  0
 28 19  1  0
  1 29  1  0
  1 30  1  0
  1 31  1  0
  3 32  1  0
  3 33  1  0
  3 34  1  0
  9 35  1  0
  9 36  1  0
 16 37  1  0
 16 38  1  0
 18 39  1  0
 20 40  1  0
 21 41  1  0
 27 42  1  0
M  CHG  1   6  -1
M  END
>  <UniqueID>  (93) 
92

>  <SMILES>  (93) 
CC(C)(C(=O)[O-])C(=O)COC(=O)n1c(C(N)=O)cc2ccc(C(F)(F)F)cc21

>  <Energy>  (93) 
78.01821834103804

>  <Genealogy>  (93) 
CC(C)(C(=O)[O-])C(=O)COC(=O)n1c(C(N)=O)cc2ccc(C(F)(F)F)cc21 (protonated)
CC(C)(C(=O)[O-])C(=O)COC(=O)n1c(C(N)=O)cc2ccc(C(F)(F)F)cc21 (3D coordinates assigned)
CC(C)(C(=O)[O-])C(=O)COC(=O)n1c(C(N)=O)cc2ccc(C(F)(F)F)cc21 (optimized conformer: 78.01821834103804 kcal/mol)

>  <smiles>  (93) 
CC(C)(C(=O)O)C(=O)COC(=O)n1c(C(N)=O)cc2ccc(C(F)(F)F)cc21

>  <score_type>  (93) 
oracle

>  <origin>  (93) 
adg

>  <m_score__min__energy>  (93) 
-11.119999999999999

>  <m_primary>  (93) 
energy

$$$$
94:0
     RDKit          3D

 43 45  0  0  0  0  0  0  0  0999 V2000
   -2.5710   20.7070  -29.7350 C   0  0  0  0  0  0  0  0  0  0  0  0
   -3.3940   21.9200  -29.7500 N   0  0  0  0  0  0  0  0  0  0  0  0
   -3.7400   22.5940  -28.4920 C   0  0  0  0  0  0  0  0  0  0  0  0
   -2.7540   23.6960  -28.2220 C   0  0  0  0  0  0  0  0  0  0  0  0
   -2.9120   24.5440  -27.1170 C   0  0  0  0  0  0  0  0  0  0  0  0
   -1.9440   25.5090  -26.8340 C   0  0  0  0  0  0  0  0  0  0  0  0
   -0.8210   25.6140  -27.6570 C   0  0  0  0  0  0  0  0  0  0  0  0
   -0.6760   24.7800  -28.7210 N   0  0  0  0  0  0  0  0  0  0  0  0
   -1.6040   23.8310  -29.0160 C   0  0  0  0  0  0  0  0  0  0  0  0
   -3.8980   22.4210  -31.0030 C   0  0  0  0  0  0  0  0  0  0  0  0
   -3.1170   22.5990  -31.9760 O   0  0  0  0  0  0  0  0  0  0  0  0
   -5.2880   22.7440  -31.1520 N   0  0  0  0  0  0  0  0  0  0  0  0
   -5.9160   23.9110  -30.8400 C   0  0  0  0  0  0  0  0  0  0  0  0
   -5.2550   25.1500  -30.3770 C   0  0  0  0  0  0  0  0  0  0  0  0
   -3.8550   25.3450  -30.5530 N   0  0  0  0  0  0  0  0  0  0  0  0
   -5.9420   26.0600  -29.8390 O   0  0  0  0  0  0  0  0  0  0  0  0
   -7.2890   23.7950  -31.0570 C   0  0  0  0  0  0  0  0  0  0  0  0
   -7.4800   22.5080  -31.5100 C   0  0  0  0  0  0  0  0  0  0  0  0
   -8.6500   21.8450  -31.8750 C   0  0  0  0  0  0  0  0  0  0  0  0
   -8.5450   20.5050  -32.2880 C   0  0  0  0  0  0  0  0  0  0  0  0
   -7.2870   19.8530  -32.3130 C   0  0  0  0  0  0  0  0  0  0  0  0
   -7.1780   18.4300  -32.7850 C   0  0  0  0  0  0  0  0  0  0  0  0
   -6.1010   18.3140  -33.8150 C   0  0  0  0  0  0  0  0  0  0  0  0
   -6.0580   19.1230  -34.7790 O   0  0  0  0  0  0  0  0  0  0  0  0
   -5.1750   17.2820  -33.7400 O   0  0  0  0  0  0  0  0  0  0  0  0
   -6.1230   20.5600  -31.9420 C   0  0  0  0  0  0  0  0  0  0  0  0
   -6.2560   21.8950  -31.5520 C   0  0  0  0  0  0  0  0  0  0  0  0
   -2.3711   20.4124  -28.6942 H   0  0  0  0  0  0  0  0  0  0  0  0
   -3.1054   19.8949  -30.2498 H   0  0  0  0  0  0  0  0  0  0  0  0
   -1.6189   20.9035  -30.2498 H   0  0  0  0  0  0  0  0  0  0  0  0
   -4.7515   23.0191  -28.5707 H   0  0  0  0  0  0  0  0  0  0  0  0
   -3.7092   21.8664  -27.6675 H   0  0  0  0  0  0  0  0  0  0  0  0
   -3.7987   24.4490  -26.4730 H   0  0  0  0  0  0  0  0  0  0  0  0
   -2.0647   26.1803  -25.9710 H   0  0  0  0  0  0  0  0  0  0  0  0
   -0.0529   26.3721  -27.4444 H   0  0  0  0  0  0  0  0  0  0  0  0
   -1.4532   23.1667  -29.8797 H   0  0  0  0  0  0  0  0  0  0  0  0
   -3.4920   26.0230  -31.2600 H   0  0  0  0  0  0  0  0  0  0  0  0
   -8.0564   24.5672  -30.8998 H   0  0  0  0  0  0  0  0  0  0  0  0
   -9.6247   22.3537  -31.8411 H   0  0  0  0  0  0  0  0  0  0  0  0
   -9.4483   19.9574  -32.5947 H   0  0  0  0  0  0  0  0  0  0  0  0
   -6.9366   17.7804  -31.9308 H   0  0  0  0  0  0  0  0  0  0  0  0
   -8.1364   18.1223  -33.2286 H   0  0  0  0  0  0  0  0  0  0  0  0
   -5.1370   20.0727  -31.9595 H   0  0  0  0  0  0  0  0  0  0  0  0
  1  2  1  0
  2  3  1  0
  3  4  1  0
  4  5  2  0
  5  6  1  0
  6  7  2  0
  7  8  1  0
  8  9  2  0
  2 10  1  0
 10 11  2  0
 10 12  1  0
 12 13  1  0
 13 14  1  0
 14 15  1  0
 14 16  2  0
 13 17  2  0
 17 18  1  0
 18 19  2  0
 19 20  1  0
 20 21  2  0
 21 22  1  0
 22 23  1  0
 23 24  2  0
 23 25  1  0
 21 26  1  0
 26 27  2  0
  9  4  1  0
 27 12  1  0
 27 18  1  0
  1 28  1  0
  1 29  1  0
  1 30  1  0
  3 31  1  0
  3 32  1  0
  5 33  1  0
  6 34  1  0
  7 35  1  0
  9 36  1  0
 15 37  1  0
 17 38  1  0
 19 39  1  0
 20 40  1  0
 22 41  1  0
 22 42  1  0
 26 43  1  0
M  CHG  2  15  -1  25  -1
M  END
>  <UniqueID>  (94) 
93

>  <SMILES>  (94) 
CN(Cc1cccnc1)C(=O)n1c(C([NH-])=O)cc2ccc(CC(=O)[O-])cc21

>  <Energy>  (94) 
79.20690897941994

>  <Genealogy>  (94) 
CN(Cc1cccnc1)C(=O)n1c(C([NH-])=O)cc2ccc(CC(=O)[O-])cc21 (protonated)
CN(Cc1cccnc1)C(=O)n1c(C([NH-])=O)cc2ccc(CC(=O)[O-])cc21 (3D coordinates assigned)
CN(Cc1cccnc1)C(=O)n1c(C([NH-])=O)cc2ccc(CC(=O)[O-])cc21 (optimized conformer: 79.20690897941994 kcal/mol)

>  <smiles>  (94) 
CN(Cc1cccnc1)C(=O)n1c(C(N)=O)cc2ccc(CC(=O)O)cc21

>  <score_type>  (94) 
oracle

>  <origin>  (94) 
adg

>  <m_score__min__energy>  (94) 
-11.529999999999999

>  <m_primary>  (94) 
energy

$$$$
95:0
     RDKit          3D

 31 32  0  0  0  0  0  0  0  0999 V2000
   -4.1750   25.4800  -30.5850 N   0  0  0  0  0  0  0  0  0  0  0  0
   -5.5480   25.0900  -30.5160 C   0  0  0  0  0  0  0  0  0  0  0  0
   -6.3940   25.8920  -30.0380 O   0  0  0  0  0  0  0  0  0  0  0  0
   -6.0030   23.7910  -31.0510 C   0  0  0  0  0  0  0  0  0  0  0  0
   -7.3410   23.4820  -31.2770 C   0  0  0  0  0  0  0  0  0  0  0  0
   -7.3330   22.2230  -31.8320 C   0  0  0  0  0  0  0  0  0  0  0  0
   -8.3940   21.4160  -32.2320 C   0  0  0  0  0  0  0  0  0  0  0  0
   -8.0980   20.1370  -32.7300 C   0  0  0  0  0  0  0  0  0  0  0  0
   -6.7540   19.6890  -32.8290 C   0  0  0  0  0  0  0  0  0  0  0  0
   -6.4550   18.2900  -33.3040 C   0  0  0  0  0  0  0  0  0  0  0  0
   -7.5550   17.4690  -33.1300 F   0  0  0  0  0  0  0  0  0  0  0  0
   -6.1280   18.3250  -34.6460 F   0  0  0  0  0  0  0  0  0  0  0  0
   -5.3950   17.7490  -32.5950 F   0  0  0  0  0  0  0  0  0  0  0  0
   -5.7060   20.5300  -32.3880 C   0  0  0  0  0  0  0  0  0  0  0  0
   -6.0280   21.8080  -31.9170 C   0  0  0  0  0  0  0  0  0  0  0  0
   -5.1980   22.7610  -31.4350 N   0  0  0  0  0  0  0  0  0  0  0  0
   -3.7770   22.6510  -31.2630 C   0  0  0  0  0  0  0  0  0  0  0  0
   -3.0600   22.2260  -32.2110 O   0  0  0  0  0  0  0  0  0  0  0  0
   -3.1920   23.0150  -30.0450 O   0  0  0  0  0  0  0  0  0  0  0  0
   -1.7870   22.9670  -29.8050 C   0  0  0  0  0  0  0  0  0  0  0  0
   -1.2930   24.3000  -29.3460 C   0  0  0  0  0  0  0  0  0  0  0  0
   -2.0570   25.3000  -29.3590 O   0  0  0  0  0  0  0  0  0  0  0  0
    0.0250   24.4470  -28.9320 O   0  0  0  0  0  0  0  0  0  0  0  0
   -3.8660   26.3850  -30.1630 H   0  0  0  0  0  0  0  0  0  0  0  0
   -3.4820   24.9190  -31.1260 H   0  0  0  0  0  0  0  0  0  0  0  0
   -8.2174   24.1099  -31.0587 H   0  0  0  0  0  0  0  0  0  0  0  0
   -9.4332   21.7695  -32.1602 H   0  0  0  0  0  0  0  0  0  0  0  0
   -8.9167   19.4743  -33.0472 H   0  0  0  0  0  0  0  0  0  0  0  0
   -4.6611   20.1873  -32.4146 H   0  0  0  0  0  0  0  0  0  0  0  0
   -1.5769   22.2156  -29.0296 H   0  0  0  0  0  0  0  0  0  0  0  0
   -1.2736   22.6979  -30.7399 H   0  0  0  0  0  0  0  0  0  0  0  0
  1  2  1  0
  2  3  2  0
  2  4  1  0
  4  5  2  0
  5  6  1  0
  6  7  2  0
  7  8  1  0
  8  9  2  0
  9 10  1  0
 10 11  1  0
 10 12  1  0
 10 13  1  0
  9 14  1  0
 14 15  2  0
 15 16  1  0
 16 17  1  0
 17 18  2  0
 17 19  1  0
 19 20  1  0
 20 21  1  0
 21 22  2  0
 21 23  1  0
 16  4  1  0
 15  6  1  0
  1 24  1  0
  1 25  1  0
  5 26  1  0
  7 27  1  0
  8 28  1  0
 14 29  1  0
 20 30  1  0
 20 31  1  0
M  CHG  1  23  -1
M  END
>  <UniqueID>  (95) 
94

>  <SMILES>  (95) 
NC(=O)c1cc2ccc(C(F)(F)F)cc2n1C(=O)OCC(=O)[O-]

>  <Energy>  (95) 
69.09420399860996

>  <Genealogy>  (95) 
NC(=O)c1cc2ccc(C(F)(F)F)cc2n1C(=O)OCC(=O)[O-] (protonated)
NC(=O)c1cc2ccc(C(F)(F)F)cc2n1C(=O)OCC(=O)[O-] (3D coordinates assigned)
NC(=O)c1cc2ccc(C(F)(F)F)cc2n1C(=O)OCC(=O)[O-] (optimized conformer: 69.09420399860996 kcal/mol)

>  <smiles>  (95) 
NC(=O)c1cc2ccc(C(F)(F)F)cc2n1C(=O)OCC(=O)O

>  <score_type>  (95) 
oracle

>  <origin>  (95) 
adg

>  <m_score__min__energy>  (95) 
-9.8699999999999992

>  <m_primary>  (95) 
energy

$$$$
96:0
     RDKit          3D

 42 43  0  0  0  0  0  0  0  0999 V2000
   -6.5690   13.1220  -34.5570 C   0  0  0  0  0  0  0  0  0  0  0  0
   -7.1850   14.4020  -34.6230 O   0  0  0  0  0  0  0  0  0  0  0  0
   -6.5580   15.5640  -34.1630 C   0  0  0  0  0  0  0  0  0  0  0  0
   -7.1560   16.6730  -34.1990 O   0  0  0  0  0  0  0  0  0  0  0  0
   -5.2250   15.5080  -33.6520 N   0  0  0  0  0  0  0  0  0  0  0  0
   -4.1170   16.2690  -34.2160 C   0  0  0  0  0  0  0  0  0  0  0  0
   -3.9670   17.6130  -33.4950 C   0  0  0  0  0  0  0  0  0  0  0  0
   -5.2220   17.9980  -32.8490 N   0  0  0  0  0  0  0  0  0  0  0  0
   -5.6340   19.3570  -32.6020 C   0  0  0  0  0  0  0  0  0  0  0  0
   -6.9590   19.7440  -32.9250 C   0  0  0  0  0  0  0  0  0  0  0  0
   -7.4010   21.0590  -32.7050 C   0  0  0  0  0  0  0  0  0  0  0  0
   -6.5020   21.9660  -32.1530 C   0  0  0  0  0  0  0  0  0  0  0  0
   -6.6620   23.2990  -31.8490 C   0  0  0  0  0  0  0  0  0  0  0  0
   -5.4390   23.7060  -31.3190 C   0  0  0  0  0  0  0  0  0  0  0  0
   -5.2040   25.0570  -30.7690 C   0  0  0  0  0  0  0  0  0  0  0  0
   -3.9180   25.6660  -30.8400 N   0  0  0  0  0  0  0  0  0  0  0  0
   -6.1410   25.6620  -30.1820 O   0  0  0  0  0  0  0  0  0  0  0  0
   -4.5540   22.6680  -31.3080 N   0  0  0  0  0  0  0  0  0  0  0  0
   -3.1760   22.6820  -30.9020 C   0  0  0  0  0  0  0  0  0  0  0  0
   -2.2900   22.2260  -31.6750 O   0  0  0  0  0  0  0  0  0  0  0  0
   -2.8390   23.1730  -29.6340 O   0  0  0  0  0  0  0  0  0  0  0  0
   -1.6520   23.8470  -29.3150 C   0  0  0  0  0  0  0  0  0  0  0  0
   -1.5940   25.1060  -29.3270 O   0  0  0  0  0  0  0  0  0  0  0  0
   -0.4200   23.0540  -29.0230 C   0  0  0  0  0  0  0  0  0  0  0  0
    0.6420   23.9040  -28.7740 F   0  0  0  0  0  0  0  0  0  0  0  0
   -0.1080   22.2490  -30.1040 F   0  0  0  0  0  0  0  0  0  0  0  0
   -0.6370   22.2620  -27.9120 F   0  0  0  0  0  0  0  0  0  0  0  0
   -5.2220   21.6110  -31.8200 C   0  0  0  0  0  0  0  0  0  0  0  0
   -4.7460   20.3160  -32.0550 C   0  0  0  0  0  0  0  0  0  0  0  0
   -6.4310   12.8353  -33.5040 H   0  0  0  0  0  0  0  0  0  0  0  0
   -7.2090   12.3808  -35.0580 H   0  0  0  0  0  0  0  0  0  0  0  0
   -5.5904   13.1597  -35.0580 H   0  0  0  0  0  0  0  0  0  0  0  0
   -3.1872   15.6921  -34.1035 H   0  0  0  0  0  0  0  0  0  0  0  0
   -4.3200   16.4571  -35.2806 H   0  0  0  0  0  0  0  0  0  0  0  0
   -3.1798   17.5270  -32.7315 H   0  0  0  0  0  0  0  0  0  0  0  0
   -3.7002   18.3824  -34.2345 H   0  0  0  0  0  0  0  0  0  0  0  0
   -5.8700   17.2250  -32.5690 H   0  0  0  0  0  0  0  0  0  0  0  0
   -7.6507   19.0041  -33.3540 H   0  0  0  0  0  0  0  0  0  0  0  0
   -8.4268   21.3625  -32.9614 H   0  0  0  0  0  0  0  0  0  0  0  0
   -7.5635   23.9125  -31.9936 H   0  0  0  0  0  0  0  0  0  0  0  0
   -3.0650   25.1630  -30.5080 H   0  0  0  0  0  0  0  0  0  0  0  0
   -3.7052   20.0486  -31.8201 H   0  0  0  0  0  0  0  0  0  0  0  0
  1  2  1  0
  2  3  1  0
  3  4  2  0
  3  5  1  0
  5  6  1  0
  6  7  1  0
  7  8  1  0
  8  9  1  0
  9 10  2  0
 10 11  1  0
 11 12  2  0
 12 13  1  0
 13 14  2  0
 14 15  1  0
 15 16  1  0
 15 17  2  0
 14 18  1  0
 18 19  1  0
 19 20  2  0
 19 21  1  0
 21 22  1  0
 22 23  2  0
 22 24  1  0
 24 25  1  0
 24 26  1  0
 24 27  1  0
 18 28  1  0
 28 29  2  0
 29  9  1  0
 28 12  1  0
  1 30  1  0
  1 31  1  0
  1 32  1  0
  6 33  1  0
  6 34  1  0
  7 35  1  0
  7 36  1  0
  8 37  1  0
 10 38  1  0
 11 39  1  0
 13 40  1  0
 16 41  1  0
 29 42  1  0
M  CHG  2   5  -1  16  -1
M  END
>  <UniqueID>  (96) 
95

>  <SMILES>  (96) 
COC(=O)[N-]CCNc1ccc2cc(C([NH-])=O)n(C(=O)OC(=O)C(F)(F)F)c2c1

>  <Energy>  (96) 
73.20738985528882

>  <Genealogy>  (96) 
COC(=O)[N-]CCNc1ccc2cc(C([NH-])=O)n(C(=O)OC(=O)C(F)(F)F)c2c1 (protonated)
COC(=O)[N-]CCNc1ccc2cc(C([NH-])=O)n(C(=O)OC(=O)C(F)(F)F)c2c1 (3D coordinates assigned)
COC(=O)[N-]CCNc1ccc2cc(C([NH-])=O)n(C(=O)OC(=O)C(F)(F)F)c2c1 (optimized conformer: 73.20738985528882 kcal/mol)

>  <smiles>  (96) 
COC(=O)NCCNc1ccc2cc(C(N)=O)n(C(=O)OC(=O)C(F)(F)F)c2c1

>  <score_type>  (96) 
oracle

>  <origin>  (96) 
adg

>  <m_score__min__energy>  (96) 
-9.1199999999999992

>  <m_primary>  (96) 
energy

$$$$
97:0
     RDKit          3D

 38 39  0  0  0  0  0  0  0  0999 V2000
   -6.5260   17.5420  -32.2250 C   0  0  0  0  0  0  0  0  0  0  0  0
   -7.2200   18.6150  -32.9280 N   0  0  0  0  0  0  0  0  0  0  0  0
   -7.2850   19.9700  -32.4440 C   0  0  0  0  0  0  0  0  0  0  0  0
   -8.5490   20.6040  -32.3380 C   0  0  0  0  0  0  0  0  0  0  0  0
   -8.6570   21.9220  -31.8640 C   0  0  0  0  0  0  0  0  0  0  0  0
   -7.4870   22.5850  -31.5090 C   0  0  0  0  0  0  0  0  0  0  0  0
   -7.3020   23.8510  -30.9960 C   0  0  0  0  0  0  0  0  0  0  0  0
   -5.9260   23.9770  -30.8110 C   0  0  0  0  0  0  0  0  0  0  0  0
   -5.2740   25.2020  -30.3010 C   0  0  0  0  0  0  0  0  0  0  0  0
   -4.0350   25.6550  -30.8400 N   0  0  0  0  0  0  0  0  0  0  0  0
   -5.8290   25.8710  -29.3890 O   0  0  0  0  0  0  0  0  0  0  0  0
   -5.2890   22.8370  -31.1990 N   0  0  0  0  0  0  0  0  0  0  0  0
   -3.8880   22.5430  -31.1060 C   0  0  0  0  0  0  0  0  0  0  0  0
   -3.1610   22.6870  -32.1240 O   0  0  0  0  0  0  0  0  0  0  0  0
   -3.3010   22.1050  -29.8200 C   0  0  0  0  0  0  0  0  0  0  0  0
   -3.4690   20.9110  -29.4530 O   0  0  0  0  0  0  0  0  0  0  0  0
   -2.5670   23.0070  -28.9670 N   0  0  0  0  0  0  0  0  0  0  0  0
   -3.2460   23.5720  -27.7970 C   0  0  0  0  0  0  0  0  0  0  0  0
   -1.1210   23.2110  -29.1280 C   0  0  0  0  0  0  0  0  0  0  0  0
   -0.7590   24.6420  -28.8660 C   0  0  0  0  0  0  0  0  0  0  0  0
    0.2880   24.9230  -28.2270 O   0  0  0  0  0  0  0  0  0  0  0  0
   -1.5840   25.6660  -29.3130 O   0  0  0  0  0  0  0  0  0  0  0  0
   -6.2560   21.9940  -31.6170 C   0  0  0  0  0  0  0  0  0  0  0  0
   -6.1180   20.6790  -32.0690 C   0  0  0  0  0  0  0  0  0  0  0  0
   -6.6230   17.6920  -31.1396 H   0  0  0  0  0  0  0  0  0  0  0  0
   -6.9699   16.5746  -32.5026 H   0  0  0  0  0  0  0  0  0  0  0  0
   -5.4616   17.5501  -32.5026 H   0  0  0  0  0  0  0  0  0  0  0  0
   -7.6860   18.3800  -33.8330 H   0  0  0  0  0  0  0  0  0  0  0  0
   -9.4570   20.0565  -32.6308 H   0  0  0  0  0  0  0  0  0  0  0  0
   -9.6367   22.4145  -31.7763 H   0  0  0  0  0  0  0  0  0  0  0  0
   -8.0757   24.6022  -30.7788 H   0  0  0  0  0  0  0  0  0  0  0  0
   -3.1260   25.2970  -30.4720 H   0  0  0  0  0  0  0  0  0  0  0  0
   -2.7796   23.1839  -26.8795 H   0  0  0  0  0  0  0  0  0  0  0  0
   -3.1595   24.6684  -27.8168 H   0  0  0  0  0  0  0  0  0  0  0  0
   -4.3084   23.2876  -27.8168 H   0  0  0  0  0  0  0  0  0  0  0  0
   -0.5833   22.5659  -28.4175 H   0  0  0  0  0  0  0  0  0  0  0  0
   -0.8391   22.9566  -30.1604 H   0  0  0  0  0  0  0  0  0  0  0  0
   -5.1269   20.2061  -32.1320 H   0  0  0  0  0  0  0  0  0  0  0  0
  1  2  1  0
  2  3  1  0
  3  4  2  0
  4  5  1  0
  5  6  2  0
  6  7  1  0
  7  8  2  0
  8  9  1  0
  9 10  1  0
  9 11  2  0
  8 12  1  0
 12 13  1  0
 13 14  2  0
 13 15  1  0
 15 16  2  0
 15 17  1  0
 17 18  1  0
 17 19  1  0
 19 20  1  0
 20 21  2  0
 20 22  1  0
 12 23  1  0
 23 24  2  0
 24  3  1  0
 23  6  1  0
  1 25  1  0
  1 26  1  0
  1 27  1  0
  2 28  1  0
  4 29  1  0
  5 30  1  0
  7 31  1  0
 10 32  1  0
 18 33  1  0
 18 34  1  0
 18 35  1  0
 19 36  1  0
 19 37  1  0
 24 38  1  0
M  CHG  2  10  -1  22  -1
M  END
>  <UniqueID>  (97) 
96

>  <SMILES>  (97) 
CNc1ccc2cc(C([NH-])=O)n(C(=O)C(=O)N(C)CC(=O)[O-])c2c1

>  <Energy>  (97) 
77.47860286782924

>  <Genealogy>  (97) 
CNc1ccc2cc(C([NH-])=O)n(C(=O)C(=O)N(C)CC(=O)[O-])c2c1 (protonated)
CNc1ccc2cc(C([NH-])=O)n(C(=O)C(=O)N(C)CC(=O)[O-])c2c1 (3D coordinates assigned)
CNc1ccc2cc(C([NH-])=O)n(C(=O)C(=O)N(C)CC(=O)[O-])c2c1 (optimized conformer: 77.47860286782924 kcal/mol)

>  <smiles>  (97) 
CNc1ccc2cc(C(N)=O)n(C(=O)C(=O)N(C)CC(=O)O)c2c1

>  <score_type>  (97) 
oracle

>  <origin>  (97) 
adg

>  <m_score__min__energy>  (97) 
-12.76

>  <m_primary>  (97) 
energy

$$$$
98:0
     RDKit          3D

 40 41  0  0  0  0  0  0  0  0999 V2000
   -2.3740   18.1100  -33.1020 C   0  0  0  0  0  0  0  0  0  0  0  0
   -3.1710   19.1590  -33.8700 C   0  0  0  0  0  0  0  0  0  0  0  0
   -2.5420   20.4360  -33.7770 O   0  0  0  0  0  0  0  0  0  0  0  0
   -3.0970   21.5230  -33.0890 C   0  0  0  0  0  0  0  0  0  0  0  0
   -3.8680   22.3250  -33.6830 O   0  0  0  0  0  0  0  0  0  0  0  0
   -2.7800   21.7050  -31.6620 C   0  0  0  0  0  0  0  0  0  0  0  0
   -1.7920   21.0870  -31.1800 O   0  0  0  0  0  0  0  0  0  0  0  0
   -3.5720   22.5870  -30.7770 C   0  0  0  0  0  0  0  0  0  0  0  0
   -3.0190   23.1940  -29.8210 O   0  0  0  0  0  0  0  0  0  0  0  0
   -4.9830   22.7520  -30.9910 N   0  0  0  0  0  0  0  0  0  0  0  0
   -5.7070   23.9040  -30.9050 C   0  0  0  0  0  0  0  0  0  0  0  0
   -5.1910   25.2170  -30.4680 C   0  0  0  0  0  0  0  0  0  0  0  0
   -3.8770   25.6250  -30.8430 N   0  0  0  0  0  0  0  0  0  0  0  0
   -5.9050   25.9940  -29.7800 O   0  0  0  0  0  0  0  0  0  0  0  0
   -7.0390   23.6650  -31.2410 C   0  0  0  0  0  0  0  0  0  0  0  0
   -7.1040   22.3220  -31.5410 C   0  0  0  0  0  0  0  0  0  0  0  0
   -8.1820   21.5500  -31.9560 C   0  0  0  0  0  0  0  0  0  0  0  0
   -7.9550   20.1900  -32.2250 C   0  0  0  0  0  0  0  0  0  0  0  0
   -6.6560   19.6190  -32.0870 C   0  0  0  0  0  0  0  0  0  0  0  0
   -6.4290   18.2150  -32.3740 N   0  0  0  0  0  0  0  0  0  0  0  0
   -6.4850   17.7160  -33.7540 C   0  0  0  0  0  0  0  0  0  0  0  0
   -6.1400   17.2680  -31.2890 C   0  0  0  0  0  0  0  0  0  0  0  0
   -5.5880   20.4520  -31.6650 C   0  0  0  0  0  0  0  0  0  0  0  0
   -5.8510   21.7970  -31.3860 C   0  0  0  0  0  0  0  0  0  0  0  0
   -2.4983   18.2737  -32.0214 H   0  0  0  0  0  0  0  0  0  0  0  0
   -2.7395   17.1065  -33.3653 H   0  0  0  0  0  0  0  0  0  0  0  0
   -1.3092   18.1932  -33.3653 H   0  0  0  0  0  0  0  0  0  0  0  0
   -3.2330   18.8629  -34.9276 H   0  0  0  0  0  0  0  0  0  0  0  0
   -4.1785   19.2278  -33.4339 H   0  0  0  0  0  0  0  0  0  0  0  0
   -3.0400   25.2990  -30.3110 H   0  0  0  0  0  0  0  0  0  0  0  0
   -7.8627   24.3938  -31.2620 H   0  0  0  0  0  0  0  0  0  0  0  0
   -9.1834   21.9906  -32.0705 H   0  0  0  0  0  0  0  0  0  0  0  0
   -8.7934   19.5551  -32.5475 H   0  0  0  0  0  0  0  0  0  0  0  0
   -6.6077   16.6229  -33.7439 H   0  0  0  0  0  0  0  0  0  0  0  0
   -7.3372   18.1758  -34.2759 H   0  0  0  0  0  0  0  0  0  0  0  0
   -5.5521   17.9755  -34.2759 H   0  0  0  0  0  0  0  0  0  0  0  0
   -6.2915   17.7643  -30.3191 H   0  0  0  0  0  0  0  0  0  0  0  0
   -6.8151   16.4031  -31.3677 H   0  0  0  0  0  0  0  0  0  0  0  0
   -5.0970   16.9274  -31.3677 H   0  0  0  0  0  0  0  0  0  0  0  0
   -4.5707   20.0471  -31.5591 H   0  0  0  0  0  0  0  0  0  0  0  0
  1  2  1  0
  2  3  1  0
  3  4  1  0
  4  5  2  0
  4  6  1  0
  6  7  2  0
  6  8  1  0
  8  9  2  0
  8 10  1  0
 10 11  1  0
 11 12  1  0
 12 13  1  0
 12 14  2  0
 11 15  2  0
 15 16  1  0
 16 17  2  0
 17 18  1  0
 18 19  2  0
 19 20  1  0
 20 21  1  0
 20 22  1  0
 19 23  1  0
 23 24  2  0
 24 10  1  0
 24 16  1  0
  1 25  1  0
  1 26  1  0
  1 27  1  0
  2 28  1  0
  2 29  1  0
 13 30  1  0
 15 31  1  0
 17 32  1  0
 18 33  1  0
 21 34  1  0
 21 35  1  0
 21 36  1  0
 22 37  1  0
 22 38  1  0
 22 39  1  0
 23 40  1  0
M  CHG  1  13  -1
M  END
>  <UniqueID>  (98) 
97

>  <SMILES>  (98) 
CCOC(=O)C(=O)C(=O)n1c(C([NH-])=O)cc2ccc(N(C)C)cc21

>  <Energy>  (98) 
76.48670880661702

>  <Genealogy>  (98) 
CCOC(=O)C(=O)C(=O)n1c(C([NH-])=O)cc2ccc(N(C)C)cc21 (protonated)
CCOC(=O)C(=O)C(=O)n1c(C([NH-])=O)cc2ccc(N(C)C)cc21 (3D coordinates assigned)
CCOC(=O)C(=O)C(=O)n1c(C([NH-])=O)cc2ccc(N(C)C)cc21 (optimized conformer: 76.48670880661702 kcal/mol)

>  <smiles>  (98) 
CCOC(=O)C(=O)C(=O)n1c(C(N)=O)cc2ccc(N(C)C)cc21

>  <score_type>  (98) 
oracle

>  <origin>  (98) 
adg

>  <m_score__min__energy>  (98) 
-9.9900000000000002

>  <m_primary>  (98) 
energy

$$$$
