0:0
     RDKit          3D

 27 28  0  0  0  0  0  0  0  0999 V2000
   -3.1290   21.0070  -33.3210 C   0  0  0  0  0  0  0  0  0  0  0  0
   -3.6120   22.3050  -32.9980 O   0  0  0  0  0  0  0  0  0  0  0  0
   -4.0030   22.6640  -31.7040 C   0  0  0  0  0  0  0  0  0  0  0  0
   -3.1500   22.7270  -30.7770 O   0  0  0  0  0  0  0  0  0  0  0  0
   -5.3770   22.9870  -31.4370 N   0  0  0  0  0  0  0  0  0  0  0  0
   -5.8910   24.1760  -31.0100 C   0  0  0  0  0  0  0  0  0  0  0  0
   -5.1110   25.3520  -30.5700 C   0  0  0  0  0  0  0  0  0  0  0  0
   -3.6900   25.2970  -30.4700 N   0  0  0  0  0  0  0  0  0  0  0  0
   -5.7120   26.4070  -30.2300 O   0  0  0  0  0  0  0  0  0  0  0  0
   -7.2810   24.1170  -30.9590 C   0  0  0  0  0  0  0  0  0  0  0  0
   -7.6080   22.8430  -31.3620 C   0  0  0  0  0  0  0  0  0  0  0  0
   -8.8550   22.2420  -31.5090 C   0  0  0  0  0  0  0  0  0  0  0  0
   -8.8970   20.9170  -31.9750 C   0  0  0  0  0  0  0  0  0  0  0  0
   -7.7010   20.2260  -32.2890 C   0  0  0  0  0  0  0  0  0  0  0  0
   -7.7580   18.8820  -32.7730 N   0  0  0  0  0  0  0  0  0  0  0  0
   -6.4540   20.8670  -32.1280 C   0  0  0  0  0  0  0  0  0  0  0  0
   -6.4400   22.1810  -31.6460 C   0  0  0  0  0  0  0  0  0  0  0  0
   -2.9223   20.4516  -32.3943 H   0  0  0  0  0  0  0  0  0  0  0  0
   -3.8873   20.4695  -33.9093 H   0  0  0  0  0  0  0  0  0  0  0  0
   -2.2038   21.0959  -33.9093 H   0  0  0  0  0  0  0  0  0  0  0  0
   -3.1160   24.8500  -31.2190 H   0  0  0  0  0  0  0  0  0  0  0  0
   -7.9716   24.9192  -30.6598 H   0  0  0  0  0  0  0  0  0  0  0  0
   -9.7792   22.7876  -31.2678 H   0  0  0  0  0  0  0  0  0  0  0  0
   -9.8667   20.4122  -32.0970 H   0  0  0  0  0  0  0  0  0  0  0  0
   -7.2130   18.1230  -32.3070 H   0  0  0  0  0  0  0  0  0  0  0  0
   -8.3460   18.6370  -33.6010 H   0  0  0  0  0  0  0  0  0  0  0  0
   -5.5167   20.3470  -32.3751 H   0  0  0  0  0  0  0  0  0  0  0  0
  1  2  1  0
  2  3  1  0
  3  4  2  0
  3  5  1  0
  5  6  1  0
  6  7  1  0
  7  8  1  0
  7  9  2  0
  6 10  2  0
 10 11  1  0
 11 12  2  0
 12 13  1  0
 13 14  2  0
 14 15  1  0
 14 16  1  0
 16 17  2  0
 17  5  1  0
 17 11  1  0
  1 18  1  0
  1 19  1  0
  1 20  1  0
  8 21  1  0
 10 22  1  0
 12 23  1  0
 13 24  1  0
 15 25  1  0
 15 26  1  0
 16 27  1  0
M  CHG  1   8  -1
M  END
>  <UniqueID>  (1) 
1

>  <SMILES>  (1) 
COC(=O)n1c(C([NH-])=O)cc2ccc(N)cc21

>  <Energy>  (1) 
63.91722476725594

>  <Genealogy>  (1) 
COC(=O)n1c(C([NH-])=O)cc2ccc(N)cc21 (protonated)
COC(=O)n1c(C([NH-])=O)cc2ccc(N)cc21 (3D coordinates assigned)
COC(=O)n1c(C([NH-])=O)cc2ccc(N)cc21 (optimized conformer: 63.91722476725594 kcal/mol)

>  <smiles>  (1) 
COC(=O)n1c(C(N)=O)cc2ccc(N)cc21

>  <score_type>  (1) 
oracle

>  <origin>  (1) 
adg

>  <m_score__min__energy>  (1) 
-8.9100000000000001

>  <m_primary>  (1) 
energy

$$$$
1:0
     RDKit          3D

 40 42  0  0  0  0  0  0  0  0999 V2000
   -2.3890   18.5290  -33.2410 C   0  0  0  0  0  0  0  0  0  0  0  0
   -3.5290   18.7550  -34.2270 C   0  0  0  0  0  0  0  0  0  0  0  0
   -4.6710   17.8970  -33.8950 N   0  0  0  0  0  0  0  0  0  0  0  0
   -4.7980   16.6100  -34.2780 C   0  0  0  0  0  0  0  0  0  0  0  0
   -6.0620   16.1510  -33.9600 C   0  0  0  0  0  0  0  0  0  0  0  0
   -6.5990   14.8100  -34.2270 C   0  0  0  0  0  0  0  0  0  0  0  0
   -7.6170   14.6680  -34.9530 O   0  0  0  0  0  0  0  0  0  0  0  0
   -5.9860   13.6910  -33.6790 O   0  0  0  0  0  0  0  0  0  0  0  0
   -6.7420   17.2010  -33.3740 C   0  0  0  0  0  0  0  0  0  0  0  0
   -5.8550   18.2630  -33.3450 C   0  0  0  0  0  0  0  0  0  0  0  0
   -6.1880   19.6110  -32.8460 C   0  0  0  0  0  0  0  0  0  0  0  0
   -7.5400   20.0350  -32.8150 C   0  0  0  0  0  0  0  0  0  0  0  0
   -7.8780   21.3150  -32.3450 C   0  0  0  0  0  0  0  0  0  0  0  0
   -6.8480   22.1390  -31.8990 C   0  0  0  0  0  0  0  0  0  0  0  0
   -6.8860   23.4240  -31.4060 C   0  0  0  0  0  0  0  0  0  0  0  0
   -5.5620   23.7480  -31.1130 C   0  0  0  0  0  0  0  0  0  0  0  0
   -5.1540   25.0180  -30.4800 C   0  0  0  0  0  0  0  0  0  0  0  0
   -3.9370   25.6620  -30.8470 N   0  0  0  0  0  0  0  0  0  0  0  0
   -5.8700   25.5240  -29.5740 O   0  0  0  0  0  0  0  0  0  0  0  0
   -4.7390   22.7060  -31.4210 N   0  0  0  0  0  0  0  0  0  0  0  0
   -3.3060   22.6570  -31.3480 C   0  0  0  0  0  0  0  0  0  0  0  0
   -2.5120   21.9230  -32.3810 C   0  0  0  0  0  0  0  0  0  0  0  0
   -2.7120   23.1730  -30.3630 O   0  0  0  0  0  0  0  0  0  0  0  0
   -5.5400   21.7300  -31.8960 C   0  0  0  0  0  0  0  0  0  0  0  0
   -5.1720   20.4650  -32.3660 C   0  0  0  0  0  0  0  0  0  0  0  0
   -2.7729   18.6051  -32.2130 H   0  0  0  0  0  0  0  0  0  0  0  0
   -1.9603   17.5284  -33.3992 H   0  0  0  0  0  0  0  0  0  0  0  0
   -1.6110   19.2904  -33.3992 H   0  0  0  0  0  0  0  0  0  0  0  0
   -3.8425   19.8085  -34.1830 H   0  0  0  0  0  0  0  0  0  0  0  0
   -3.1789   18.5063  -35.2397 H   0  0  0  0  0  0  0  0  0  0  0  0
   -4.0137   16.0155  -34.7694 H   0  0  0  0  0  0  0  0  0  0  0  0
   -7.7783   17.1944  -33.0052 H   0  0  0  0  0  0  0  0  0  0  0  0
   -8.3322   19.3554  -33.1622 H   0  0  0  0  0  0  0  0  0  0  0  0
   -8.9238   21.6557  -32.3298 H   0  0  0  0  0  0  0  0  0  0  0  0
   -7.7732   24.0603  -31.2717 H   0  0  0  0  0  0  0  0  0  0  0  0
   -3.0170   25.3070  -30.5050 H   0  0  0  0  0  0  0  0  0  0  0  0
   -1.7913   21.2567  -31.8844 H   0  0  0  0  0  0  0  0  0  0  0  0
   -3.1900   21.3267  -33.0092 H   0  0  0  0  0  0  0  0  0  0  0  0
   -1.9707   22.6457  -33.0092 H   0  0  0  0  0  0  0  0  0  0  0  0
   -4.1197   20.1446  -32.3616 H   0  0  0  0  0  0  0  0  0  0  0  0
  1  2  1  0
  2  3  1  0
  3  4  1  0
  4  5  2  0
  5  6  1  0
  6  7  2  0
  6  8  1  0
  5  9  1  0
  9 10  2  0
 10 11  1  0
 11 12  2  0
 12 13  1  0
 13 14  2  0
 14 15  1  0
 15 16  2  0
 16 17  1  0
 17 18  1  0
 17 19  2  0
 16 20  1  0
 20 21  1  0
 21 22  1  0
 21 23  2  0
 20 24  1  0
 24 25  2  0
 10  3  1  0
 25 11  1  0
 24 14  1  0
  1 26  1  0
  1 27  1  0
  1 28  1  0
  2 29  1  0
  2 30  1  0
  4 31  1  0
  9 32  1  0
 12 33  1  0
 13 34  1  0
 15 35  1  0
 18 36  1  0
 22 37  1  0
 22 38  1  0
 22 39  1  0
 25 40  1  0
M  CHG  2   8  -1  18  -1
M  END
>  <UniqueID>  (2) 
2

>  <SMILES>  (2) 
CCn1cc(C(=O)[O-])cc1-c1ccc2cc(C([NH-])=O)n(C(C)=O)c2c1

>  <Energy>  (2) 
108.87666181867569

>  <Genealogy>  (2) 
CCn1cc(C(=O)[O-])cc1-c1ccc2cc(C([NH-])=O)n(C(C)=O)c2c1 (protonated)
CCn1cc(C(=O)[O-])cc1-c1ccc2cc(C([NH-])=O)n(C(C)=O)c2c1 (3D coordinates assigned)
CCn1cc(C(=O)[O-])cc1-c1ccc2cc(C([NH-])=O)n(C(C)=O)c2c1 (optimized conformer: 108.87666181867569 kcal/mol)

>  <smiles>  (2) 
CCn1cc(C(=O)O)cc1-c1ccc2cc(C(N)=O)n(C(C)=O)c2c1

>  <score_type>  (2) 
oracle

>  <origin>  (2) 
adg

>  <m_score__min__energy>  (2) 
-10.609999999999999

>  <m_primary>  (2) 
energy

$$$$
2:0
     RDKit          3D

 36 38  0  0  0  0  0  0  0  0999 V2000
   -2.6930   21.5110  -33.4170 C   0  0  0  0  0  0  0  0  0  0  0  0
   -1.9340   20.5230  -32.5390 C   0  0  0  0  0  0  0  0  0  0  0  0
   -2.6440   19.2900  -32.4400 O   0  0  0  0  0  0  0  0  0  0  0  0
   -3.3370   18.7110  -33.5110 C   0  0  0  0  0  0  0  0  0  0  0  0
   -2.7400   18.4590  -34.5930 O   0  0  0  0  0  0  0  0  0  0  0  0
   -4.7340   18.4070  -33.3770 N   0  0  0  0  0  0  0  0  0  0  0  0
   -5.3840   17.2880  -33.8060 C   0  0  0  0  0  0  0  0  0  0  0  0
   -4.7460   16.0770  -34.3590 C   0  0  0  0  0  0  0  0  0  0  0  0
   -3.8420   16.1550  -35.4620 N   0  0  0  0  0  0  0  0  0  0  0  0
   -4.9610   14.9620  -33.8150 O   0  0  0  0  0  0  0  0  0  0  0  0
   -6.7560   17.4090  -33.6040 C   0  0  0  0  0  0  0  0  0  0  0  0
   -6.9300   18.6430  -33.0200 C   0  0  0  0  0  0  0  0  0  0  0  0
   -8.0980   19.2830  -32.6170 C   0  0  0  0  0  0  0  0  0  0  0  0
   -7.9870   20.5740  -32.0760 C   0  0  0  0  0  0  0  0  0  0  0  0
   -6.7220   21.2040  -31.9580 C   0  0  0  0  0  0  0  0  0  0  0  0
   -6.6130   22.5670  -31.4010 C   0  0  0  0  0  0  0  0  0  0  0  0
   -7.6340   23.2460  -30.8380 N   0  0  0  0  0  0  0  0  0  0  0  0
   -7.1420   24.4170  -30.4650 N   0  0  0  0  0  0  0  0  0  0  0  0
   -5.8420   24.4070  -30.8150 C   0  0  0  0  0  0  0  0  0  0  0  0
   -4.9200   25.5200  -30.5820 C   0  0  0  0  0  0  0  0  0  0  0  0
   -5.3610   26.6930  -30.4690 O   0  0  0  0  0  0  0  0  0  0  0  0
   -3.5540   25.2850  -30.4840 O   0  0  0  0  0  0  0  0  0  0  0  0
   -5.5100   23.2770  -31.3880 O   0  0  0  0  0  0  0  0  0  0  0  0
   -5.5590   20.5220  -32.3790 C   0  0  0  0  0  0  0  0  0  0  0  0
   -5.6960   19.2270  -32.8950 C   0  0  0  0  0  0  0  0  0  0  0  0
   -3.2395   22.2224  -32.7805 H   0  0  0  0  0  0  0  0  0  0  0  0
   -1.9814   22.0590  -34.0521 H   0  0  0  0  0  0  0  0  0  0  0  0
   -3.4059   20.9646  -34.0521 H   0  0  0  0  0  0  0  0  0  0  0  0
   -0.9435   20.3353  -32.9791 H   0  0  0  0  0  0  0  0  0  0  0  0
   -1.8281   20.9527  -31.5320 H   0  0  0  0  0  0  0  0  0  0  0  0
   -3.4340   15.2840  -35.8670 H   0  0  0  0  0  0  0  0  0  0  0  0
   -3.5080   17.0760  -35.8230 H   0  0  0  0  0  0  0  0  0  0  0  0
   -7.5350   16.6748  -33.8572 H   0  0  0  0  0  0  0  0  0  0  0  0
   -9.0775   18.7930  -32.7190 H   0  0  0  0  0  0  0  0  0  0  0  0
   -8.8913   21.1025  -31.7400 H   0  0  0  0  0  0  0  0  0  0  0  0
   -4.5694   20.9964  -32.3035 H   0  0  0  0  0  0  0  0  0  0  0  0
  1  2  1  0
  2  3  1  0
  3  4  1  0
  4  5  2  0
  4  6  1  0
  6  7  1  0
  7  8  1  0
  8  9  1  0
  8 10  2  0
  7 11  2  0
 11 12  1  0
 12 13  2  0
 13 14  1  0
 14 15  2  0
 15 16  1  0
 16 17  2  0
 17 18  1  0
 18 19  2  0
 19 20  1  0
 20 21  2  0
 20 22  1  0
 19 23  1  0
 15 24  1  0
 24 25  2  0
 25  6  1  0
 25 12  1  0
 23 16  1  0
  1 26  1  0
  1 27  1  0
  1 28  1  0
  2 29  1  0
  2 30  1  0
  9 31  1  0
  9 32  1  0
 11 33  1  0
 13 34  1  0
 14 35  1  0
 24 36  1  0
M  CHG  1  22  -1
M  END
>  <UniqueID>  (3) 
3

>  <SMILES>  (3) 
CCOC(=O)n1c(C(N)=O)cc2ccc(-c3nnc(C(=O)[O-])o3)cc21

>  <Energy>  (3) 
107.09367593165466

>  <Genealogy>  (3) 
CCOC(=O)n1c(C(N)=O)cc2ccc(-c3nnc(C(=O)[O-])o3)cc21 (protonated)
CCOC(=O)n1c(C(N)=O)cc2ccc(-c3nnc(C(=O)[O-])o3)cc21 (3D coordinates assigned)
CCOC(=O)n1c(C(N)=O)cc2ccc(-c3nnc(C(=O)[O-])o3)cc21 (optimized conformer: 107.09367593165466 kcal/mol)

>  <smiles>  (3) 
CCOC(=O)n1c(C(N)=O)cc2ccc(-c3nnc(C(=O)O)o3)cc21

>  <score_type>  (3) 
oracle

>  <origin>  (3) 
adg

>  <m_score__min__energy>  (3) 
-8.9399999999999995

>  <m_primary>  (3) 
energy

$$$$
3:0
     RDKit          3D

 32 34  0  0  0  0  0  0  0  0999 V2000
   -7.1730   18.3150  -32.4600 C   0  0  0  0  0  0  0  0  0  0  0  0
   -7.3340   19.7730  -32.1440 C   0  0  0  0  0  0  0  0  0  0  0  0
   -8.6160   20.3740  -32.2040 C   0  0  0  0  0  0  0  0  0  0  0  0
   -8.7840   21.7330  -31.8880 C   0  0  0  0  0  0  0  0  0  0  0  0
   -7.6590   22.4550  -31.4980 C   0  0  0  0  0  0  0  0  0  0  0  0
   -7.5340   23.7840  -31.1610 C   0  0  0  0  0  0  0  0  0  0  0  0
   -6.1840   23.9650  -30.8640 C   0  0  0  0  0  0  0  0  0  0  0  0
   -5.6000   25.2390  -30.3830 C   0  0  0  0  0  0  0  0  0  0  0  0
   -4.2540   25.5950  -30.7020 N   0  0  0  0  0  0  0  0  0  0  0  0
   -6.2970   26.0350  -29.7010 O   0  0  0  0  0  0  0  0  0  0  0  0
   -5.5040   22.7920  -31.0070 N   0  0  0  0  0  0  0  0  0  0  0  0
   -4.0920   22.5800  -30.8400 C   0  0  0  0  0  0  0  0  0  0  0  0
   -3.3060   22.8710  -31.7830 O   0  0  0  0  0  0  0  0  0  0  0  0
   -3.5670   22.0240  -29.5400 C   0  0  0  0  0  0  0  0  0  0  0  0
   -4.0680   22.6800  -28.2600 C   0  0  0  0  0  0  0  0  0  0  0  0
   -2.6630   22.9720  -28.7650 C   0  0  0  0  0  0  0  0  0  0  0  0
   -6.4190   21.8790  -31.4000 C   0  0  0  0  0  0  0  0  0  0  0  0
   -6.2200   20.5330  -31.7290 C   0  0  0  0  0  0  0  0  0  0  0  0
   -7.1097   17.7416  -31.5234 H   0  0  0  0  0  0  0  0  0  0  0  0
   -8.0384   17.9687  -33.0441 H   0  0  0  0  0  0  0  0  0  0  0  0
   -6.2529   18.1658  -33.0441 H   0  0  0  0  0  0  0  0  0  0  0  0
   -9.4872   19.7715  -32.5005 H   0  0  0  0  0  0  0  0  0  0  0  0
   -9.7729   22.2112  -31.9469 H   0  0  0  0  0  0  0  0  0  0  0  0
   -8.3304   24.5422  -31.1322 H   0  0  0  0  0  0  0  0  0  0  0  0
   -3.6220   24.9380  -31.2100 H   0  0  0  0  0  0  0  0  0  0  0  0
   -3.8670   26.5130  -30.3900 H   0  0  0  0  0  0  0  0  0  0  0  0
   -3.5063   20.9851  -29.8962 H   0  0  0  0  0  0  0  0  0  0  0  0
   -4.8428   23.4593  -28.3082 H   0  0  0  0  0  0  0  0  0  0  0  0
   -4.4943   22.3147  -27.3141 H   0  0  0  0  0  0  0  0  0  0  0  0
   -2.4220   23.9626  -29.1780 H   0  0  0  0  0  0  0  0  0  0  0  0
   -1.6528   22.9053  -28.3349 H   0  0  0  0  0  0  0  0  0  0  0  0
   -5.2200   20.0791  -31.6656 H   0  0  0  0  0  0  0  0  0  0  0  0
  1  2  1  0
  2  3  2  0
  3  4  1  0
  4  5  2  0
  5  6  1  0
  6  7  2  0
  7  8  1  0
  8  9  1  0
  8 10  2  0
  7 11  1  0
 11 12  1  0
 12 13  2  0
 12 14  1  0
 14 15  1  0
 15 16  1  0
 11 17  1  0
 17 18  2  0
 18  2  1  0
 17  5  1  0
 16 14  1  0
  1 19  1  0
  1 20  1  0
  1 21  1  0
  3 22  1  0
  4 23  1  0
  6 24  1  0
  9 25  1  0
  9 26  1  0
 14 27  1  0
 15 28  1  0
 15 29  1  0
 16 30  1  0
 16 31  1  0
 18 32  1  0
M  END
>  <UniqueID>  (4) 
4

>  <SMILES>  (4) 
Cc1ccc2cc(C(N)=O)n(C(=O)C3CC3)c2c1

>  <Energy>  (4) 
336.3695295592694

>  <Genealogy>  (4) 
Cc1ccc2cc(C(N)=O)n(C(=O)C3CC3)c2c1 (3D coordinates assigned)
Cc1ccc2cc(C(N)=O)n(C(=O)C3CC3)c2c1 (nonaromatic ring conformer: 336.3695295592694 kcal/mol)

>  <smiles>  (4) 
Cc1ccc2cc(C(N)=O)n(C(=O)C3CC3)c2c1

>  <score_type>  (4) 
oracle

>  <origin>  (4) 
adg

>  <m_score__min__energy>  (4) 
-8.1600000000000001

>  <m_primary>  (4) 
energy

$$$$
4:0
     RDKit          3D

 59 61  0  0  0  0  0  0  0  0999 V2000
   -0.8740   26.7570  -28.0340 C   0  0  0  0  0  0  0  0  0  0  0  0
   -1.5760   25.7630  -28.7560 O   0  0  0  0  0  0  0  0  0  0  0  0
   -1.5340   24.4650  -28.1580 C   0  0  0  0  0  0  0  0  0  0  0  0
   -2.9500   23.8680  -27.9490 C   0  0  0  0  0  0  0  0  0  0  0  0
   -0.7730   24.4860  -26.8090 C   0  0  0  0  0  0  0  0  0  0  0  0
   -0.7880   23.5340  -29.1540 C   0  0  0  0  0  0  0  0  0  0  0  0
   -1.7070   22.5410  -29.8870 C   0  0  0  0  0  0  0  0  0  0  0  0
   -2.7590   23.2410  -30.5510 O   0  0  0  0  0  0  0  0  0  0  0  0
   -3.5380   22.6770  -31.5670 C   0  0  0  0  0  0  0  0  0  0  0  0
   -2.9910   22.0800  -32.5340 O   0  0  0  0  0  0  0  0  0  0  0  0
   -4.9690   22.7660  -31.4990 N   0  0  0  0  0  0  0  0  0  0  0  0
   -5.7190   23.7600  -30.9440 C   0  0  0  0  0  0  0  0  0  0  0  0
   -5.2060   25.0460  -30.4260 C   0  0  0  0  0  0  0  0  0  0  0  0
   -3.9260   25.5170  -30.8430 N   0  0  0  0  0  0  0  0  0  0  0  0
   -5.8700   25.7170  -29.5940 O   0  0  0  0  0  0  0  0  0  0  0  0
   -7.0730   23.4370  -30.9950 C   0  0  0  0  0  0  0  0  0  0  0  0
   -7.1320   22.2070  -31.6080 C   0  0  0  0  0  0  0  0  0  0  0  0
   -8.2310   21.4040  -31.8990 C   0  0  0  0  0  0  0  0  0  0  0  0
   -7.9950   20.1590  -32.5070 C   0  0  0  0  0  0  0  0  0  0  0  0
   -6.6740   19.7390  -32.8100 C   0  0  0  0  0  0  0  0  0  0  0  0
   -6.4410   18.4480  -33.4050 N   0  0  0  0  0  0  0  0  0  0  0  0
   -6.8950   17.2150  -32.7560 C   0  0  0  0  0  0  0  0  0  0  0  0
   -5.7130   16.2470  -32.5530 C   0  0  0  0  0  0  0  0  0  0  0  0
   -4.6450   16.3720  -33.5850 N   0  0  0  0  0  0  0  0  0  0  0  0
   -3.4890   17.1370  -33.0770 C   0  0  0  0  0  0  0  0  0  0  0  0
   -5.1430   16.9290  -34.8650 C   0  0  0  0  0  0  0  0  0  0  0  0
   -5.7350   18.3400  -34.6860 C   0  0  0  0  0  0  0  0  0  0  0  0
   -5.5840   20.5820  -32.4900 C   0  0  0  0  0  0  0  0  0  0  0  0
   -5.8500   21.8230  -31.9030 C   0  0  0  0  0  0  0  0  0  0  0  0
   -0.9974   26.5823  -26.9550 H   0  0  0  0  0  0  0  0  0  0  0  0
    0.1942   26.7126  -28.2929 H   0  0  0  0  0  0  0  0  0  0  0  0
   -1.2731   27.7488  -28.2929 H   0  0  0  0  0  0  0  0  0  0  0  0
   -3.1560   23.7812  -26.8720 H   0  0  0  0  0  0  0  0  0  0  0  0
   -3.6981   24.5273  -28.4134 H   0  0  0  0  0  0  0  0  0  0  0  0
   -3.0003   22.8721  -28.4134 H   0  0  0  0  0  0  0  0  0  0  0  0
   -1.4957   24.4661  -25.9800 H   0  0  0  0  0  0  0  0  0  0  0  0
   -0.1167   23.6056  -26.7445 H   0  0  0  0  0  0  0  0  0  0  0  0
   -0.1662   25.4012  -26.7445 H   0  0  0  0  0  0  0  0  0  0  0  0
   -0.2867   24.1616  -29.9056 H   0  0  0  0  0  0  0  0  0  0  0  0
   -0.0791   22.9361  -28.5624 H   0  0  0  0  0  0  0  0  0  0  0  0
   -1.1186   21.9808  -30.6286 H   0  0  0  0  0  0  0  0  0  0  0  0
   -2.1443   21.8478  -29.1533 H   0  0  0  0  0  0  0  0  0  0  0  0
   -3.0680   25.2990  -30.2890 H   0  0  0  0  0  0  0  0  0  0  0  0
   -7.9162   24.0380  -30.6238 H   0  0  0  0  0  0  0  0  0  0  0  0
   -9.2530   21.7337  -31.6604 H   0  0  0  0  0  0  0  0  0  0  0  0
   -8.8437   19.5030  -32.7506 H   0  0  0  0  0  0  0  0  0  0  0  0
   -7.3340   17.4609  -31.7778 H   0  0  0  0  0  0  0  0  0  0  0  0
   -7.6464   16.7306  -33.3970 H   0  0  0  0  0  0  0  0  0  0  0  0
   -5.2672   16.4468  -31.5675 H   0  0  0  0  0  0  0  0  0  0  0  0
   -6.1179   15.2275  -32.6349 H   0  0  0  0  0  0  0  0  0  0  0  0
   -4.2920   15.4080  -33.7930 H   0  0  0  0  0  0  0  0  0  0  0  0
   -3.4995   17.1301  -31.9771 H   0  0  0  0  0  0  0  0  0  0  0  0
   -2.5574   16.6765  -33.4377 H   0  0  0  0  0  0  0  0  0  0  0  0
   -3.5488   18.1745  -33.4377 H   0  0  0  0  0  0  0  0  0  0  0  0
   -4.3077   16.9818  -35.5788 H   0  0  0  0  0  0  0  0  0  0  0  0
   -5.9409   16.2692  -35.2363 H   0  0  0  0  0  0  0  0  0  0  0  0
   -4.9208   19.0791  -34.7129 H   0  0  0  0  0  0  0  0  0  0  0  0
   -6.4497   18.5293  -35.5005 H   0  0  0  0  0  0  0  0  0  0  0  0
   -4.5504   20.2684  -32.6982 H   0  0  0  0  0  0  0  0  0  0  0  0
  1  2  1  0
  2  3  1  0
  3  4  1  0
  3  5  1  0
  3  6  1  0
  6  7  1  0
  7  8  1  0
  8  9  1  0
  9 10  2  0
  9 11  1  0
 11 12  1  0
 12 13  1  0
 13 14  1  0
 13 15  2  0
 12 16  2  0
 16 17  1  0
 17 18  2  0
 18 19  1  0
 19 20  2  0
 20 21  1  0
 21 22  1  0
 22 23  1  0
 23 24  1  0
 24 25  1  0
 24 26  1  0
 26 27  1  0
 20 28  1  0
 28 29  2  0
 29 11  1  0
 29 17  1  0
 27 21  1  0
  1 30  1  0
  1 31  1  0
  1 32  1  0
  4 33  1  0
  4 34  1  0
  4 35  1  0
  5 36  1  0
  5 37  1  0
  5 38  1  0
  6 39  1  0
  6 40  1  0
  7 41  1  0
  7 42  1  0
 14 43  1  0
 16 44  1  0
 18 45  1  0
 19 46  1  0
 22 47  1  0
 22 48  1  0
 23 49  1  0
 23 50  1  0
 24 51  1  0
 25 52  1  0
 25 53  1  0
 25 54  1  0
 26 55  1  0
 26 56  1  0
 27 57  1  0
 27 58  1  0
 28 59  1  0
M  CHG  2  14  -1  24   1
M  END
>  <UniqueID>  (5) 
5

>  <SMILES>  (5) 
COC(C)(C)CCOC(=O)n1c(C([NH-])=O)cc2ccc(N3CC[NH+](C)CC3)cc21

>  <Energy>  (5) 
111.7824529584763

>  <Genealogy>  (5) 
COC(C)(C)CCOC(=O)n1c(C([NH-])=O)cc2ccc(N3CC[NH+](C)CC3)cc21 (protonated)
COC(C)(C)CCOC(=O)n1c(C([NH-])=O)cc2ccc(N3CC[NH+](C)CC3)cc21 (3D coordinates assigned)
COC(C)(C)CCOC(=O)n1c(C([NH-])=O)cc2ccc(N3CC[NH+](C)CC3)cc21 (nonaromatic ring conformer: 111.7824529584763 kcal/mol)

>  <smiles>  (5) 
COC(C)(C)CCOC(=O)n1c(C(N)=O)cc2ccc(N3CCN(C)CC3)cc21

>  <score_type>  (5) 
oracle

>  <origin>  (5) 
adg

>  <m_score__min__energy>  (5) 
-11.029999999999999

>  <m_primary>  (5) 
energy

$$$$
5:0
     RDKit          3D

 25 26  0  0  0  0  0  0  0  0999 V2000
   -3.9020   25.6500  -30.8450 N   0  0  0  0  0  0  0  0  0  0  0  0
   -5.2190   25.2630  -30.4590 C   0  0  0  0  0  0  0  0  0  0  0  0
   -5.8890   26.0200  -29.7080 O   0  0  0  0  0  0  0  0  0  0  0  0
   -5.7970   24.0070  -30.9780 C   0  0  0  0  0  0  0  0  0  0  0  0
   -7.1670   23.7780  -31.0830 C   0  0  0  0  0  0  0  0  0  0  0  0
   -7.2890   22.4760  -31.5120 C   0  0  0  0  0  0  0  0  0  0  0  0
   -8.4270   21.7320  -31.8010 C   0  0  0  0  0  0  0  0  0  0  0  0
   -8.2560   20.4160  -32.2600 C   0  0  0  0  0  0  0  0  0  0  0  0
   -6.9580   19.8620  -32.4110 C   0  0  0  0  0  0  0  0  0  0  0  0
   -6.7860   18.4700  -32.9620 C   0  0  0  0  0  0  0  0  0  0  0  0
   -5.7940   17.7920  -32.2750 F   0  0  0  0  0  0  0  0  0  0  0  0
   -7.9760   17.7800  -32.8340 F   0  0  0  0  0  0  0  0  0  0  0  0
   -6.4320   18.5150  -34.3000 F   0  0  0  0  0  0  0  0  0  0  0  0
   -5.8250   20.6610  -32.1290 C   0  0  0  0  0  0  0  0  0  0  0  0
   -6.0260   21.9630  -31.6570 C   0  0  0  0  0  0  0  0  0  0  0  0
   -5.0990   22.8920  -31.3380 N   0  0  0  0  0  0  0  0  0  0  0  0
   -3.6720   22.7390  -31.4370 C   0  0  0  0  0  0  0  0  0  0  0  0
   -2.8280   23.1630  -30.3680 N   0  0  0  0  0  0  0  0  0  0  0  0
   -3.1590   22.2590  -32.4810 O   0  0  0  0  0  0  0  0  0  0  0  0
   -3.0660   25.3000  -30.3260 H   0  0  0  0  0  0  0  0  0  0  0  0
   -7.9795   24.4877  -30.8684 H   0  0  0  0  0  0  0  0  0  0  0  0
   -9.4317   22.1614  -31.6739 H   0  0  0  0  0  0  0  0  0  0  0  0
   -9.1386   19.8071  -32.5055 H   0  0  0  0  0  0  0  0  0  0  0  0
   -4.8086   20.2675  -32.2775 H   0  0  0  0  0  0  0  0  0  0  0  0
   -2.4400   24.1320  -30.3440 H   0  0  0  0  0  0  0  0  0  0  0  0
  1  2  1  0
  2  3  2  0
  2  4  1  0
  4  5  2  0
  5  6  1  0
  6  7  2  0
  7  8  1  0
  8  9  2  0
  9 10  1  0
 10 11  1  0
 10 12  1  0
 10 13  1  0
  9 14  1  0
 14 15  2  0
 15 16  1  0
 16 17  1  0
 17 18  1  0
 17 19  2  0
 16  4  1  0
 15  6  1  0
  1 20  1  0
  5 21  1  0
  7 22  1  0
  8 23  1  0
 14 24  1  0
 18 25  1  0
M  CHG  2   1  -1  18  -1
M  END
>  <UniqueID>  (6) 
6

>  <SMILES>  (6) 
[NH-]C(=O)c1cc2ccc(C(F)(F)F)cc2n1C([NH-])=O

>  <Energy>  (6) 
65.18610161284619

>  <Genealogy>  (6) 
[NH-]C(=O)c1cc2ccc(C(F)(F)F)cc2n1C([NH-])=O (protonated)
[NH-]C(=O)c1cc2ccc(C(F)(F)F)cc2n1C([NH-])=O (3D coordinates assigned)
[NH-]C(=O)c1cc2ccc(C(F)(F)F)cc2n1C([NH-])=O (optimized conformer: 65.18610161284619 kcal/mol)

>  <smiles>  (6) 
NC(=O)c1cc2ccc(C(F)(F)F)cc2n1C(N)=O

>  <score_type>  (6) 
oracle

>  <origin>  (6) 
adg

>  <m_score__min__energy>  (6) 
-9.1699999999999999

>  <m_primary>  (6) 
energy

$$$$
6:0
     RDKit          3D

 47 50  0  0  0  0  0  0  0  0999 V2000
   -6.5030   14.0590  -34.2380 C   0  0  0  0  0  0  0  0  0  0  0  0
   -6.8740   15.5500  -34.3340 C   0  0  0  0  0  0  0  0  0  0  0  0
   -6.0950   16.4390  -33.4400 N   0  0  0  0  0  0  0  0  0  0  0  0
   -4.6750   16.5640  -33.8110 C   0  0  0  0  0  0  0  0  0  0  0  0
   -4.3720   18.0400  -34.0530 C   0  0  0  0  0  0  0  0  0  0  0  0
   -5.7210   18.7300  -34.0890 C   0  0  2  0  0  0  0  0  0  0  0  0
   -5.6450   20.0080  -33.4610 O   0  0  0  0  0  0  0  0  0  0  0  0
   -5.9520   20.2250  -32.1110 C   0  0  0  0  0  0  0  0  0  0  0  0
   -5.7110   19.3280  -31.2520 O   0  0  0  0  0  0  0  0  0  0  0  0
   -6.5570   21.4670  -31.7110 N   0  0  0  0  0  0  0  0  0  0  0  0
   -7.8490   21.8490  -31.9140 C   0  0  0  0  0  0  0  0  0  0  0  0
   -8.9390   20.9760  -32.3860 C   0  0  0  0  0  0  0  0  0  0  0  0
   -8.7250   20.0490  -33.4510 N   0  0  0  0  0  0  0  0  0  0  0  0
  -10.0540   21.0020  -31.7990 O   0  0  0  0  0  0  0  0  0  0  0  0
   -8.0440   23.1690  -31.5160 C   0  0  0  0  0  0  0  0  0  0  0  0
   -6.8250   23.5860  -31.0360 C   0  0  0  0  0  0  0  0  0  0  0  0
   -6.4510   24.8140  -30.4950 C   0  0  0  0  0  0  0  0  0  0  0  0
   -5.1200   24.9730  -30.0740 C   0  0  0  0  0  0  0  0  0  0  0  0
   -4.1830   23.9150  -30.2090 C   0  0  0  0  0  0  0  0  0  0  0  0
   -2.7890   24.1050  -29.7350 C   0  0  0  0  0  0  0  0  0  0  0  0
   -1.8210   23.1300  -29.5820 C   0  0  0  0  0  0  0  0  0  0  0  0
   -0.7310   23.8060  -29.0770 C   0  0  0  0  0  0  0  0  0  0  0  0
   -1.0340   25.1080  -28.9390 N   0  0  0  0  0  0  0  0  0  0  0  0
   -2.2840   25.2910  -29.3360 N   0  0  0  0  0  0  0  0  0  0  0  0
   -4.6010   22.6860  -30.7790 C   0  0  0  0  0  0  0  0  0  0  0  0
   -5.9420   22.5430  -31.1650 C   0  0  0  0  0  0  0  0  0  0  0  0
   -6.6440   17.7960  -33.3230 C   0  0  0  0  0  0  0  0  0  0  0  0
   -6.4303   13.7666  -33.1801 H   0  0  0  0  0  0  0  0  0  0  0  0
   -7.2784   13.4556  -34.7327 H   0  0  0  0  0  0  0  0  0  0  0  0
   -5.5353   13.8894  -34.7327 H   0  0  0  0  0  0  0  0  0  0  0  0
   -6.7106   15.8780  -35.3712 H   0  0  0  0  0  0  0  0  0  0  0  0
   -7.9239   15.6308  -34.0159 H   0  0  0  0  0  0  0  0  0  0  0  0
   -4.0425   16.1831  -32.9956 H   0  0  0  0  0  0  0  0  0  0  0  0
   -4.4676   15.9802  -34.7199 H   0  0  0  0  0  0  0  0  0  0  0  0
   -3.7550   18.4445  -33.2371 H   0  0  0  0  0  0  0  0  0  0  0  0
   -3.8102   18.1935  -34.9862 H   0  0  0  0  0  0  0  0  0  0  0  0
   -6.0768   18.9135  -35.1136 H   0  0  0  0  0  0  0  0  0  0  0  0
   -7.7720   19.8900  -33.8460 H   0  0  0  0  0  0  0  0  0  0  0  0
   -9.5150   19.4700  -33.8060 H   0  0  0  0  0  0  0  0  0  0  0  0
   -8.9743   23.7532  -31.5734 H   0  0  0  0  0  0  0  0  0  0  0  0
   -7.1766   25.6353  -30.4002 H   0  0  0  0  0  0  0  0  0  0  0  0
   -4.8000   25.9292  -29.6343 H   0  0  0  0  0  0  0  0  0  0  0  0
   -1.9022   22.0573  -29.8114 H   0  0  0  0  0  0  0  0  0  0  0  0
    0.2379   23.3499  -28.8256 H   0  0  0  0  0  0  0  0  0  0  0  0
   -3.8873   21.8603  -30.9160 H   0  0  0  0  0  0  0  0  0  0  0  0
   -6.6862   18.0941  -32.2650 H   0  0  0  0  0  0  0  0  0  0  0  0
   -7.6641   17.8378  -33.7324 H   0  0  0  0  0  0  0  0  0  0  0  0
  1  2  1  0
  2  3  1  0
  3  4  1  0
  4  5  1  0
  5  6  1  0
  6  7  1  0
  7  8  1  0
  8  9  2  0
  8 10  1  0
 10 11  1  0
 11 12  1  0
 12 13  1  0
 12 14  2  0
 11 15  2  0
 15 16  1  0
 16 17  2  0
 17 18  1  0
 18 19  2  0
 19 20  1  0
 20 21  2  0
 21 22  1  0
 22 23  2  0
 23 24  1  0
 19 25  1  0
 25 26  2  0
  6 27  1  0
 27  3  1  0
 26 10  1  0
 26 16  1  0
 24 20  1  0
  1 28  1  0
  1 29  1  0
  1 30  1  0
  2 31  1  0
  2 32  1  0
  4 33  1  0
  4 34  1  0
  5 35  1  0
  5 36  1  0
  6 37  1  6
 13 38  1  0
 13 39  1  0
 15 40  1  0
 17 41  1  0
 18 42  1  0
 21 43  1  0
 22 44  1  0
 25 45  1  0
 27 46  1  0
 27 47  1  0
M  CHG  1  24  -1
M  END
>  <UniqueID>  (7) 
7

>  <SMILES>  (7) 
CCN1CC[C@H](OC(=O)n2c(C(N)=O)cc3ccc(-c4ccn[n-]4)cc32)C1

>  <Energy>  (7) 
123.21615913798423

>  <Genealogy>  (7) 
CCN1CC[C@H](OC(=O)n2c(C(N)=O)cc3ccc(-c4ccn[n-]4)cc32)C1 (protonated)
CCN1CC[C@H](OC(=O)n2c(C(N)=O)cc3ccc(-c4ccn[n-]4)cc32)C1 (3D coordinates assigned)
CCN1CC[C@H](OC(=O)n2c(C(N)=O)cc3ccc(-c4ccn[n-]4)cc32)C1 (nonaromatic ring conformer: 123.21615913798423 kcal/mol)

>  <smiles>  (7) 
CCN1CC[C@H](OC(=O)n2c(C(N)=O)cc3ccc(-c4ccn[nH]4)cc32)C1

>  <score_type>  (7) 
oracle

>  <origin>  (7) 
adg

>  <m_score__min__energy>  (7) 
-10.720000000000001

>  <m_primary>  (7) 
energy

$$$$
7:0
     RDKit          3D

 38 40  0  0  0  0  0  0  0  0999 V2000
   -3.8080   16.4230  -35.8320 N   0  0  0  0  0  0  0  0  0  0  0  0
   -3.2990   16.5370  -34.5030 C   0  0  0  0  0  0  0  0  0  0  0  0
   -3.0390   15.4890  -33.8540 O   0  0  0  0  0  0  0  0  0  0  0  0
   -3.1130   17.8530  -33.8570 C   0  0  0  0  0  0  0  0  0  0  0  0
   -1.9000   18.2870  -33.3280 C   0  0  0  0  0  0  0  0  0  0  0  0
   -2.1610   19.5250  -32.7850 C   0  0  0  0  0  0  0  0  0  0  0  0
   -1.3140   20.4170  -32.1370 C   0  0  0  0  0  0  0  0  0  0  0  0
   -1.8520   21.6410  -31.7010 C   0  0  0  0  0  0  0  0  0  0  0  0
   -3.2240   21.9510  -31.9180 C   0  0  0  0  0  0  0  0  0  0  0  0
   -3.7990   23.2040  -31.4970 N   0  0  0  0  0  0  0  0  0  0  0  0
   -5.1870   23.3950  -31.0710 C   0  0  0  0  0  0  0  0  0  0  0  0
   -5.4340   24.8430  -30.6350 C   0  0  0  0  0  0  0  0  0  0  0  0
   -4.2440   25.5830  -30.6390 O   0  0  0  0  0  0  0  0  0  0  0  0
   -4.0450   21.0190  -32.5900 C   0  0  0  0  0  0  0  0  0  0  0  0
   -3.4840   19.8050  -33.0000 C   0  0  0  0  0  0  0  0  0  0  0  0
   -4.0810   18.7940  -33.6640 N   0  0  0  0  0  0  0  0  0  0  0  0
   -5.4370   18.7810  -34.1360 C   0  0  0  0  0  0  0  0  0  0  0  0
   -5.6680   18.5210  -35.3480 O   0  0  0  0  0  0  0  0  0  0  0  0
   -6.5610   19.0360  -33.2200 C   0  0  0  0  0  0  0  0  0  0  0  0
   -7.2280   20.2470  -33.0700 C   0  0  0  0  0  0  0  0  0  0  0  0
   -8.2770   20.1890  -32.1430 C   0  0  0  0  0  0  0  0  0  0  0  0
   -8.4450   18.9360  -31.5680 C   0  0  0  0  0  0  0  0  0  0  0  0
   -7.2900   17.9000  -32.2130 S   0  0  0  0  0  0  0  0  0  0  0  0
   -4.2180   17.2450  -36.3280 H   0  0  0  0  0  0  0  0  0  0  0  0
   -3.8670   15.4880  -36.2910 H   0  0  0  0  0  0  0  0  0  0  0  0
   -0.9379   17.7540  -33.3412 H   0  0  0  0  0  0  0  0  0  0  0  0
   -0.2545   20.1726  -31.9703 H   0  0  0  0  0  0  0  0  0  0  0  0
   -1.2052   22.3669  -31.1865 H   0  0  0  0  0  0  0  0  0  0  0  0
   -3.1970   24.0580  -31.5290 H   0  0  0  0  0  0  0  0  0  0  0  0
   -5.8570   23.1525  -31.9091 H   0  0  0  0  0  0  0  0  0  0  0  0
   -5.3848   22.7330  -30.2151 H   0  0  0  0  0  0  0  0  0  0  0  0
   -6.1491   25.3096  -31.3285 H   0  0  0  0  0  0  0  0  0  0  0  0
   -5.8359   24.8349  -29.6111 H   0  0  0  0  0  0  0  0  0  0  0  0
   -3.9680   25.6720  -31.5890 H   0  0  0  0  0  0  0  0  0  0  0  0
   -5.1038   21.2431  -32.7870 H   0  0  0  0  0  0  0  0  0  0  0  0
   -6.9591   21.1588  -33.6235 H   0  0  0  0  0  0  0  0  0  0  0  0
   -8.9083   21.0547  -31.8940 H   0  0  0  0  0  0  0  0  0  0  0  0
   -9.2042   18.6677  -30.8186 H   0  0  0  0  0  0  0  0  0  0  0  0
  1  2  1  0
  2  3  2  0
  2  4  1  0
  4  5  2  0
  5  6  1  0
  6  7  2  0
  7  8  1  0
  8  9  2  0
  9 10  1  0
 10 11  1  0
 11 12  1  0
 12 13  1  0
  9 14  1  0
 14 15  2  0
 15 16  1  0
 16 17  1  0
 17 18  2  0
 17 19  1  0
 19 20  2  0
 20 21  1  0
 21 22  2  0
 22 23  1  0
 16  4  1  0
 23 19  1  0
 15  6  1  0
  1 24  1  0
  1 25  1  0
  5 26  1  0
  7 27  1  0
  8 28  1  0
 10 29  1  0
 11 30  1  0
 11 31  1  0
 12 32  1  0
 12 33  1  0
 13 34  1  0
 14 35  1  0
 20 36  1  0
 21 37  1  0
 22 38  1  0
M  END
>  <UniqueID>  (8) 
8

>  <SMILES>  (8) 
NC(=O)c1cc2ccc(NCCO)cc2n1C(=O)c1cccs1

>  <Energy>  (8) 
104.92267157707164

>  <Genealogy>  (8) 
NC(=O)c1cc2ccc(NCCO)cc2n1C(=O)c1cccs1 (3D coordinates assigned)
NC(=O)c1cc2ccc(NCCO)cc2n1C(=O)c1cccs1 (optimized conformer: 104.92267157707164 kcal/mol)

>  <smiles>  (8) 
NC(=O)c1cc2ccc(NCCO)cc2n1C(=O)c1cccs1

>  <score_type>  (8) 
oracle

>  <origin>  (8) 
adg

>  <m_score__min__energy>  (8) 
-8.6799999999999997

>  <m_primary>  (8) 
energy

$$$$
8:0
     RDKit          3D

 23 24  0  0  0  0  0  0  0  0999 V2000
   -1.6200   25.7150  -28.9590 N   0  0  0  0  0  0  0  0  0  0  0  0
   -1.0680   24.4120  -29.1300 C   0  0  0  0  0  0  0  0  0  0  0  0
   -0.0150   24.1030  -28.5130 O   0  0  0  0  0  0  0  0  0  0  0  0
   -1.7090   23.4580  -30.0580 C   0  0  0  0  0  0  0  0  0  0  0  0
   -1.0680   22.3260  -30.5560 C   0  0  0  0  0  0  0  0  0  0  0  0
   -2.0190   21.6630  -31.2970 C   0  0  0  0  0  0  0  0  0  0  0  0
   -1.9220   20.4800  -32.0250 C   0  0  0  0  0  0  0  0  0  0  0  0
   -3.0610   20.0400  -32.7200 C   0  0  0  0  0  0  0  0  0  0  0  0
   -4.2610   20.7890  -32.6810 C   0  0  0  0  0  0  0  0  0  0  0  0
   -5.4100   20.3370  -33.4030 N   0  0  0  0  0  0  0  0  0  0  0  0
   -4.3230   21.9840  -31.9340 C   0  0  0  0  0  0  0  0  0  0  0  0
   -3.1790   22.3910  -31.2360 C   0  0  0  0  0  0  0  0  0  0  0  0
   -3.0050   23.4990  -30.4810 N   0  0  0  0  0  0  0  0  0  0  0  0
   -3.9740   24.5340  -30.2480 C   0  0  0  0  0  0  0  0  0  0  0  0
   -3.8640   25.6500  -30.8220 O   0  0  0  0  0  0  0  0  0  0  0  0
   -5.0280   24.3250  -29.3660 O   0  0  0  0  0  0  0  0  0  0  0  0
   -2.6530   25.8680  -28.9820 H   0  0  0  0  0  0  0  0  0  0  0  0
   -0.0226   22.0257  -30.3916 H   0  0  0  0  0  0  0  0  0  0  0  0
   -0.9830   19.9078  -32.0550 H   0  0  0  0  0  0  0  0  0  0  0  0
   -3.0196   19.1057  -33.2992 H   0  0  0  0  0  0  0  0  0  0  0  0
   -5.8050   20.9040  -34.1860 H   0  0  0  0  0  0  0  0  0  0  0  0
   -5.8730   19.4330  -33.1600 H   0  0  0  0  0  0  0  0  0  0  0  0
   -5.2463   22.5810  -31.9006 H   0  0  0  0  0  0  0  0  0  0  0  0
  1  2  1  0
  2  3  2  0
  2  4  1  0
  4  5  2  0
  5  6  1  0
  6  7  2  0
  7  8  1  0
  8  9  2  0
  9 10  1  0
  9 11  1  0
 11 12  2  0
 12 13  1  0
 13 14  1  0
 14 15  2  0
 14 16  1  0
 13  4  1  0
 12  6  1  0
  1 17  1  0
  5 18  1  0
  7 19  1  0
  8 20  1  0
 10 21  1  0
 10 22  1  0
 11 23  1  0
M  CHG  2   1  -1  16  -1
M  END
>  <UniqueID>  (9) 
9

>  <SMILES>  (9) 
[NH-]C(=O)c1cc2ccc(N)cc2n1C(=O)[O-]

>  <Energy>  (9) 
62.23202566313788

>  <Genealogy>  (9) 
[NH-]C(=O)c1cc2ccc(N)cc2n1C(=O)[O-] (protonated)
[NH-]C(=O)c1cc2ccc(N)cc2n1C(=O)[O-] (3D coordinates assigned)
[NH-]C(=O)c1cc2ccc(N)cc2n1C(=O)[O-] (optimized conformer: 62.23202566313788 kcal/mol)

>  <smiles>  (9) 
NC(=O)c1cc2ccc(N)cc2n1C(=O)O

>  <score_type>  (9) 
oracle

>  <origin>  (9) 
adg

>  <m_score__min__energy>  (9) 
-9.1600000000000001

>  <m_primary>  (9) 
energy

$$$$
9:0
     RDKit          3D

 34 35  0  0  0  0  0  0  0  0999 V2000
   -3.1820   19.8850  -33.0110 C   0  0  0  0  0  0  0  0  0  0  0  0
   -2.5460   21.2690  -33.0490 C   0  0  0  0  0  0  0  0  0  0  0  0
   -3.5090   22.2740  -32.7440 O   0  0  0  0  0  0  0  0  0  0  0  0
   -4.0350   22.4770  -31.4630 C   0  0  0  0  0  0  0  0  0  0  0  0
   -3.2840   22.4260  -30.4500 O   0  0  0  0  0  0  0  0  0  0  0  0
   -5.4300   22.7720  -31.3040 N   0  0  0  0  0  0  0  0  0  0  0  0
   -6.0010   23.9530  -30.9320 C   0  0  0  0  0  0  0  0  0  0  0  0
   -5.2820   25.1540  -30.4560 C   0  0  0  0  0  0  0  0  0  0  0  0
   -3.8760   25.2910  -30.6460 N   0  0  0  0  0  0  0  0  0  0  0  0
   -5.9090   26.0490  -29.8290 O   0  0  0  0  0  0  0  0  0  0  0  0
   -7.3900   23.8600  -30.9780 C   0  0  0  0  0  0  0  0  0  0  0  0
   -7.6570   22.5710  -31.3820 C   0  0  0  0  0  0  0  0  0  0  0  0
   -8.8760   21.9350  -31.5960 C   0  0  0  0  0  0  0  0  0  0  0  0
   -8.8540   20.6000  -32.0350 C   0  0  0  0  0  0  0  0  0  0  0  0
   -7.6230   19.9380  -32.2670 C   0  0  0  0  0  0  0  0  0  0  0  0
   -7.6110   18.5010  -32.7160 C   0  0  0  0  0  0  0  0  0  0  0  0
   -6.1780   18.0130  -32.9100 C   0  0  0  0  0  0  0  0  0  0  0  0
   -5.7080   18.1640  -34.6220 Cl  0  0  0  0  0  0  0  0  0  0  0  0
   -6.4060   20.6140  -32.0280 C   0  0  0  0  0  0  0  0  0  0  0  0
   -6.4580   21.9360  -31.5730 C   0  0  0  0  0  0  0  0  0  0  0  0
   -3.3243   19.5754  -31.9651 H   0  0  0  0  0  0  0  0  0  0  0  0
   -4.1566   19.9152  -33.5202 H   0  0  0  0  0  0  0  0  0  0  0  0
   -2.5244   19.1652  -33.5202 H   0  0  0  0  0  0  0  0  0  0  0  0
   -1.7320   21.3128  -32.3104 H   0  0  0  0  0  0  0  0  0  0  0  0
   -2.1535   21.4504  -34.0605 H   0  0  0  0  0  0  0  0  0  0  0  0
   -3.4880   26.0360  -31.2650 H   0  0  0  0  0  0  0  0  0  0  0  0
   -8.1191   24.6490  -30.7417 H   0  0  0  0  0  0  0  0  0  0  0  0
   -9.8273   22.4607  -31.4268 H   0  0  0  0  0  0  0  0  0  0  0  0
   -9.8006   20.0645  -32.1999 H   0  0  0  0  0  0  0  0  0  0  0  0
   -8.1049   17.8797  -31.9544 H   0  0  0  0  0  0  0  0  0  0  0  0
   -8.1458   18.4234  -33.6741 H   0  0  0  0  0  0  0  0  0  0  0  0
   -5.5000   18.6194  -32.2915 H   0  0  0  0  0  0  0  0  0  0  0  0
   -6.1130   16.9567  -32.6100 H   0  0  0  0  0  0  0  0  0  0  0  0
   -5.4410   20.1133  -32.1955 H   0  0  0  0  0  0  0  0  0  0  0  0
  1  2  1  0
  2  3  1  0
  3  4  1  0
  4  5  2  0
  4  6  1  0
  6  7  1  0
  7  8  1  0
  8  9  1  0
  8 10  2  0
  7 11  2  0
 11 12  1  0
 12 13  2  0
 13 14  1  0
 14 15  2  0
 15 16  1  0
 16 17  1  0
 17 18  1  0
 15 19  1  0
 19 20  2  0
 20  6  1  0
 20 12  1  0
  1 21  1  0
  1 22  1  0
  1 23  1  0
  2 24  1  0
  2 25  1  0
  9 26  1  0
 11 27  1  0
 13 28  1  0
 14 29  1  0
 16 30  1  0
 16 31  1  0
 17 32  1  0
 17 33  1  0
 19 34  1  0
M  CHG  1   9  -1
M  END
>  <UniqueID>  (10) 
10

>  <SMILES>  (10) 
CCOC(=O)n1c(C([NH-])=O)cc2ccc(CCCl)cc21

>  <Energy>  (10) 
65.85783599897465

>  <Genealogy>  (10) 
CCOC(=O)n1c(C([NH-])=O)cc2ccc(CCCl)cc21 (protonated)
CCOC(=O)n1c(C([NH-])=O)cc2ccc(CCCl)cc21 (3D coordinates assigned)
CCOC(=O)n1c(C([NH-])=O)cc2ccc(CCCl)cc21 (optimized conformer: 65.85783599897465 kcal/mol)

>  <smiles>  (10) 
CCOC(=O)n1c(C(N)=O)cc2ccc(CCCl)cc21

>  <score_type>  (10) 
oracle

>  <origin>  (10) 
adg

>  <m_score__min__energy>  (10) 
-10.119999999999999

>  <m_primary>  (10) 
energy

$$$$
10:0
     RDKit          3D

 25 26  0  0  0  0  0  0  0  0999 V2000
   -5.6500   26.4810  -30.2280 N   0  0  0  0  0  0  0  0  0  0  0  0
   -6.4150   25.3050  -29.9640 C   0  0  0  0  0  0  0  0  0  0  0  0
   -7.2330   25.3040  -29.0050 O   0  0  0  0  0  0  0  0  0  0  0  0
   -6.2170   24.0710  -30.7490 C   0  0  0  0  0  0  0  0  0  0  0  0
   -7.2630   23.3560  -31.3250 C   0  0  0  0  0  0  0  0  0  0  0  0
   -6.6740   22.2540  -31.9010 C   0  0  0  0  0  0  0  0  0  0  0  0
   -7.2460   21.2180  -32.6320 C   0  0  0  0  0  0  0  0  0  0  0  0
   -6.3940   20.2290  -33.1510 C   0  0  0  0  0  0  0  0  0  0  0  0
   -4.9940   20.2850  -32.9240 C   0  0  0  0  0  0  0  0  0  0  0  0
   -4.0840   19.2530  -33.5400 C   0  0  0  0  0  0  0  0  0  0  0  0
   -4.7190   18.6030  -34.5840 F   0  0  0  0  0  0  0  0  0  0  0  0
   -2.9350   19.8470  -34.0350 F   0  0  0  0  0  0  0  0  0  0  0  0
   -3.7330   18.3250  -32.5780 F   0  0  0  0  0  0  0  0  0  0  0  0
   -4.4490   21.3700  -32.1970 C   0  0  0  0  0  0  0  0  0  0  0  0
   -5.3240   22.3300  -31.6730 C   0  0  0  0  0  0  0  0  0  0  0  0
   -5.0260   23.4460  -30.9680 N   0  0  0  0  0  0  0  0  0  0  0  0
   -3.7140   23.9340  -30.6370 C   0  0  0  0  0  0  0  0  0  0  0  0
   -2.7530   23.1340  -30.4960 O   0  0  0  0  0  0  0  0  0  0  0  0
   -3.4930   25.2970  -30.4760 O   0  0  0  0  0  0  0  0  0  0  0  0
   -4.8520   26.4640  -30.9020 H   0  0  0  0  0  0  0  0  0  0  0  0
   -5.8290   27.3560  -29.6870 H   0  0  0  0  0  0  0  0  0  0  0  0
   -8.3318   23.6162  -31.3207 H   0  0  0  0  0  0  0  0  0  0  0  0
   -8.3324   21.1745  -32.7986 H   0  0  0  0  0  0  0  0  0  0  0  0
   -6.8166   19.4017  -33.7401 H   0  0  0  0  0  0  0  0  0  0  0  0
   -3.3628   21.4574  -32.0468 H   0  0  0  0  0  0  0  0  0  0  0  0
  1  2  1  0
  2  3  2  0
  2  4  1  0
  4  5  2  0
  5  6  1  0
  6  7  2  0
  7  8  1  0
  8  9  2  0
  9 10  1  0
 10 11  1  0
 10 12  1  0
 10 13  1  0
  9 14  1  0
 14 15  2  0
 15 16  1  0
 16 17  1  0
 17 18  2  0
 17 19  1  0
 16  4  1  0
 15  6  1  0
  1 20  1  0
  1 21  1  0
  5 22  1  0
  7 23  1  0
  8 24  1  0
 14 25  1  0
M  CHG  1  19  -1
M  END
>  <UniqueID>  (11) 
11

>  <SMILES>  (11) 
NC(=O)c1cc2ccc(C(F)(F)F)cc2n1C(=O)[O-]

>  <Energy>  (11) 
66.2694201471296

>  <Genealogy>  (11) 
NC(=O)c1cc2ccc(C(F)(F)F)cc2n1C(=O)[O-] (protonated)
NC(=O)c1cc2ccc(C(F)(F)F)cc2n1C(=O)[O-] (3D coordinates assigned)
NC(=O)c1cc2ccc(C(F)(F)F)cc2n1C(=O)[O-] (optimized conformer: 66.2694201471296 kcal/mol)

>  <smiles>  (11) 
NC(=O)c1cc2ccc(C(F)(F)F)cc2n1C(=O)O

>  <score_type>  (11) 
oracle

>  <origin>  (11) 
adg

>  <m_score__min__energy>  (11) 
-7.8499999999999996

>  <m_primary>  (11) 
energy

$$$$
11:0
     RDKit          3D

 38 39  0  0  0  0  0  0  0  0999 V2000
   -9.5100   20.8680  -32.0010 C   0  0  0  0  0  0  0  0  0  0  0  0
   -8.6240   19.7400  -32.3400 N   0  0  0  0  0  0  0  0  0  0  0  0
   -9.1000   18.5260  -31.6580 C   0  0  0  0  0  0  0  0  0  0  0  0
   -7.2250   20.0270  -31.9510 C   0  0  0  0  0  0  0  0  0  0  0  0
   -6.4710   20.7160  -33.1000 C   0  0  0  0  0  0  0  0  0  0  0  0
   -5.1530   20.0070  -33.4430 C   0  0  0  0  0  0  0  0  0  0  0  0
   -3.9990   20.5440  -32.6350 C   0  0  0  0  0  0  0  0  0  0  0  0
   -2.7550   19.8670  -32.6420 C   0  0  0  0  0  0  0  0  0  0  0  0
   -1.6570   20.3800  -31.9300 C   0  0  0  0  0  0  0  0  0  0  0  0
   -1.8340   21.5660  -31.2240 C   0  0  0  0  0  0  0  0  0  0  0  0
   -0.9350   22.2940  -30.4800 C   0  0  0  0  0  0  0  0  0  0  0  0
   -1.6470   23.3990  -30.0170 C   0  0  0  0  0  0  0  0  0  0  0  0
   -1.0770   24.4070  -29.1000 C   0  0  0  0  0  0  0  0  0  0  0  0
   -1.7110   25.6760  -28.9590 N   0  0  0  0  0  0  0  0  0  0  0  0
   -0.0140   24.1760  -28.4660 O   0  0  0  0  0  0  0  0  0  0  0  0
   -2.9350   23.3600  -30.4630 N   0  0  0  0  0  0  0  0  0  0  0  0
   -3.9620   24.3460  -30.2720 C   0  0  0  0  0  0  0  0  0  0  0  0
   -3.8820   25.4670  -30.8400 O   0  0  0  0  0  0  0  0  0  0  0  0
   -5.0400   24.0850  -29.4340 O   0  0  0  0  0  0  0  0  0  0  0  0
   -3.0340   22.2280  -31.1970 C   0  0  0  0  0  0  0  0  0  0  0  0
   -4.1400   21.7480  -31.9100 C   0  0  0  0  0  0  0  0  0  0  0  0
   -9.5831   20.9610  -30.9074 H   0  0  0  0  0  0  0  0  0  0  0  0
   -9.0978   21.7972  -32.4213 H   0  0  0  0  0  0  0  0  0  0  0  0
  -10.5104   20.6876  -32.4213 H   0  0  0  0  0  0  0  0  0  0  0  0
   -9.0432   18.6710  -30.5691 H   0  0  0  0  0  0  0  0  0  0  0  0
  -10.1425   18.3276  -31.9476 H   0  0  0  0  0  0  0  0  0  0  0  0
   -8.4702   17.6719  -31.9476 H   0  0  0  0  0  0  0  0  0  0  0  0
   -7.2232   20.6871  -31.0711 H   0  0  0  0  0  0  0  0  0  0  0  0
   -6.7214   19.0774  -31.7173 H   0  0  0  0  0  0  0  0  0  0  0  0
   -7.1135   20.7186  -33.9928 H   0  0  0  0  0  0  0  0  0  0  0  0
   -6.2274   21.7386  -32.7759 H   0  0  0  0  0  0  0  0  0  0  0  0
   -5.2628   18.9323  -33.2355 H   0  0  0  0  0  0  0  0  0  0  0  0
   -4.9367   20.1854  -34.5067 H   0  0  0  0  0  0  0  0  0  0  0  0
   -2.6471   18.9311  -33.2099 H   0  0  0  0  0  0  0  0  0  0  0  0
   -0.6877   19.8600  -31.9309 H   0  0  0  0  0  0  0  0  0  0  0  0
    0.1218   22.0548  -30.2906 H   0  0  0  0  0  0  0  0  0  0  0  0
   -2.7500   25.7680  -29.0150 H   0  0  0  0  0  0  0  0  0  0  0  0
   -5.0944   22.2949  -31.9054 H   0  0  0  0  0  0  0  0  0  0  0  0
  1  2  1  0
  2  3  1  0
  2  4  1  0
  4  5  1  0
  5  6  1  0
  6  7  1  0
  7  8  2  0
  8  9  1  0
  9 10  2  0
 10 11  1  0
 11 12  2  0
 12 13  1  0
 13 14  1  0
 13 15  2  0
 12 16  1  0
 16 17  1  0
 17 18  2  0
 17 19  1  0
 16 20  1  0
 20 21  2  0
 21  7  1  0
 20 10  1  0
  1 22  1  0
  1 23  1  0
  1 24  1  0
  3 25  1  0
  3 26  1  0
  3 27  1  0
  4 28  1  0
  4 29  1  0
  5 30  1  0
  5 31  1  0
  6 32  1  0
  6 33  1  0
  8 34  1  0
  9 35  1  0
 11 36  1  0
 14 37  1  0
 21 38  1  0
M  CHG  2  14  -1  19  -1
M  END
>  <UniqueID>  (12) 
12

>  <SMILES>  (12) 
CN(C)CCCc1ccc2cc(C([NH-])=O)n(C(=O)[O-])c2c1

>  <Energy>  (12) 
73.51243751340228

>  <Genealogy>  (12) 
CN(C)CCCc1ccc2cc(C([NH-])=O)n(C(=O)[O-])c2c1 (protonated)
CN(C)CCCc1ccc2cc(C([NH-])=O)n(C(=O)[O-])c2c1 (3D coordinates assigned)
CN(C)CCCc1ccc2cc(C([NH-])=O)n(C(=O)[O-])c2c1 (optimized conformer: 73.51243751340228 kcal/mol)

>  <smiles>  (12) 
CN(C)CCCc1ccc2cc(C(N)=O)n(C(=O)O)c2c1

>  <score_type>  (12) 
oracle

>  <origin>  (12) 
adg

>  <m_score__min__energy>  (12) 
-10.949999999999999

>  <m_primary>  (12) 
energy

$$$$
12:0
     RDKit          3D

 34 35  0  0  0  0  0  0  0  0999 V2000
   -5.6980   19.1610  -34.2600 C   0  0  0  0  0  0  0  0  0  0  0  0
   -6.0080   19.7280  -32.8580 C   0  0  0  0  0  0  0  0  0  0  0  0
   -7.1070   20.8070  -33.0190 C   0  0  0  0  0  0  0  0  0  0  0  0
   -6.5830   18.6060  -31.9660 C   0  0  0  0  0  0  0  0  0  0  0  0
   -4.7120   20.2750  -32.2260 C   0  0  0  0  0  0  0  0  0  0  0  0
   -3.4830   19.5470  -32.2400 C   0  0  0  0  0  0  0  0  0  0  0  0
   -2.3220   20.0670  -31.6460 C   0  0  0  0  0  0  0  0  0  0  0  0
   -2.3950   21.3160  -31.0480 C   0  0  0  0  0  0  0  0  0  0  0  0
   -1.4310   22.0370  -30.3820 C   0  0  0  0  0  0  0  0  0  0  0  0
   -2.0600   23.2150  -29.9830 C   0  0  0  0  0  0  0  0  0  0  0  0
   -1.3550   24.3230  -29.3080 C   0  0  0  0  0  0  0  0  0  0  0  0
   -2.0400   25.5250  -28.9630 N   0  0  0  0  0  0  0  0  0  0  0  0
   -0.1210   24.2290  -29.0760 O   0  0  0  0  0  0  0  0  0  0  0  0
   -3.3650   23.2160  -30.3770 N   0  0  0  0  0  0  0  0  0  0  0  0
   -4.3730   24.1960  -30.0840 C   0  0  0  0  0  0  0  0  0  0  0  0
   -4.2650   25.5160  -30.6120 N   0  0  0  0  0  0  0  0  0  0  0  0
   -5.3420   23.9020  -29.3340 O   0  0  0  0  0  0  0  0  0  0  0  0
   -3.5510   22.0470  -31.0320 C   0  0  0  0  0  0  0  0  0  0  0  0
   -4.7290   21.5490  -31.5980 C   0  0  0  0  0  0  0  0  0  0  0  0
   -5.1725   18.1999  -34.1589 H   0  0  0  0  0  0  0  0  0  0  0  0
   -6.6383   19.0087  -34.8101 H   0  0  0  0  0  0  0  0  0  0  0  0
   -5.0622   19.8704  -34.8101 H   0  0  0  0  0  0  0  0  0  0  0  0
   -7.4442   21.1380  -32.0257 H   0  0  0  0  0  0  0  0  0  0  0  0
   -6.6995   21.6656  -33.5729 H   0  0  0  0  0  0  0  0  0  0  0  0
   -7.9580   20.3838  -33.5729 H   0  0  0  0  0  0  0  0  0  0  0  0
   -6.4463   18.8727  -30.9076 H   0  0  0  0  0  0  0  0  0  0  0  0
   -7.6554   18.4827  -32.1775 H   0  0  0  0  0  0  0  0  0  0  0  0
   -6.0568   17.6635  -32.1775 H   0  0  0  0  0  0  0  0  0  0  0  0
   -3.4456   18.5605  -32.7253 H   0  0  0  0  0  0  0  0  0  0  0  0
   -1.3800   19.4990  -31.6547 H   0  0  0  0  0  0  0  0  0  0  0  0
   -0.3856   21.7456  -30.2025 H   0  0  0  0  0  0  0  0  0  0  0  0
   -3.0220   25.6920  -29.2740 H   0  0  0  0  0  0  0  0  0  0  0  0
   -3.8880   26.2970  -30.0310 H   0  0  0  0  0  0  0  0  0  0  0  0
   -5.6578   22.1370  -31.5573 H   0  0  0  0  0  0  0  0  0  0  0  0
  1  2  1  0
  2  3  1  0
  2  4  1  0
  2  5  1  0
  5  6  2  0
  6  7  1  0
  7  8  2  0
  8  9  1  0
  9 10  2  0
 10 11  1  0
 11 12  1  0
 11 13  2  0
 10 14  1  0
 14 15  1  0
 15 16  1  0
 15 17  2  0
 14 18  1  0
 18 19  2  0
 19  5  1  0
 18  8  1  0
  1 20  1  0
  1 21  1  0
  1 22  1  0
  3 23  1  0
  3 24  1  0
  3 25  1  0
  4 26  1  0
  4 27  1  0
  4 28  1  0
  6 29  1  0
  7 30  1  0
  9 31  1  0
 12 32  1  0
 16 33  1  0
 19 34  1  0
M  CHG  2  12  -1  16  -1
M  END
>  <UniqueID>  (13) 
13

>  <SMILES>  (13) 
CC(C)(C)c1ccc2cc(C([NH-])=O)n(C([NH-])=O)c2c1

>  <Energy>  (13) 
74.71902043396952

>  <Genealogy>  (13) 
CC(C)(C)c1ccc2cc(C([NH-])=O)n(C([NH-])=O)c2c1 (protonated)
CC(C)(C)c1ccc2cc(C([NH-])=O)n(C([NH-])=O)c2c1 (3D coordinates assigned)
CC(C)(C)c1ccc2cc(C([NH-])=O)n(C([NH-])=O)c2c1 (optimized conformer: 74.71902043396952 kcal/mol)

>  <smiles>  (13) 
CC(C)(C)c1ccc2cc(C(N)=O)n(C(N)=O)c2c1

>  <score_type>  (13) 
oracle

>  <origin>  (13) 
adg

>  <m_score__min__energy>  (13) 
-10.5

>  <m_primary>  (13) 
energy

$$$$
13:0
     RDKit          3D

 57 61  0  0  0  0  0  0  0  0999 V2000
   -3.8540   25.2970  -30.6450 N   0  0  0  0  0  0  0  0  0  0  0  0
   -5.2560   25.1570  -30.4280 C   0  0  0  0  0  0  0  0  0  0  0  0
   -5.8930   26.0980  -29.8850 O   0  0  0  0  0  0  0  0  0  0  0  0
   -5.9520   23.9370  -30.8870 C   0  0  0  0  0  0  0  0  0  0  0  0
   -7.3330   23.8670  -31.0630 C   0  0  0  0  0  0  0  0  0  0  0  0
   -7.5960   22.5530  -31.3740 C   0  0  0  0  0  0  0  0  0  0  0  0
   -8.8100   21.9140  -31.6140 C   0  0  0  0  0  0  0  0  0  0  0  0
   -8.7860   20.5350  -31.8870 C   0  0  0  0  0  0  0  0  0  0  0  0
   -7.5570   19.8340  -31.9460 C   0  0  0  0  0  0  0  0  0  0  0  0
   -7.5390   18.3420  -32.1690 C   0  0  0  0  0  0  0  0  0  0  0  0
   -6.8760   17.9780  -33.5050 C   0  0  0  0  0  0  0  0  0  0  0  0
   -5.4200   17.9930  -33.3870 N   0  0  0  0  0  0  0  0  0  0  0  0
   -4.6720   19.0740  -33.5210 N   0  0  0  0  0  0  0  0  0  0  0  0
   -3.4360   18.6630  -33.1630 C   0  0  0  0  0  0  0  0  0  0  0  0
   -2.2590   19.5520  -33.0660 C   0  0  0  0  0  0  0  0  0  0  0  0
   -1.7480   20.1840  -34.2120 C   0  0  0  0  0  0  0  0  0  0  0  0
   -0.6650   21.0630  -34.1090 C   0  0  0  0  0  0  0  0  0  0  0  0
   -0.0840   21.3180  -32.8650 C   0  0  0  0  0  0  0  0  0  0  0  0
   -0.5820   20.6920  -31.7200 C   0  0  0  0  0  0  0  0  0  0  0  0
   -1.6650   19.8120  -31.8170 C   0  0  0  0  0  0  0  0  0  0  0  0
   -3.4360   17.3590  -32.8050 N   0  0  0  0  0  0  0  0  0  0  0  0
   -4.6920   16.9780  -32.9590 N   0  0  0  0  0  0  0  0  0  0  0  0
   -6.3450   20.5210  -31.7100 C   0  0  0  0  0  0  0  0  0  0  0  0
   -6.4010   21.8820  -31.3960 C   0  0  0  0  0  0  0  0  0  0  0  0
   -5.3800   22.7170  -31.0950 N   0  0  0  0  0  0  0  0  0  0  0  0
   -3.9860   22.3690  -31.0240 C   0  0  0  0  0  0  0  0  0  0  0  0
   -3.2060   22.7040  -31.9560 O   0  0  0  0  0  0  0  0  0  0  0  0
   -3.4920   21.6770  -29.9130 O   0  0  0  0  0  0  0  0  0  0  0  0
   -3.0550   22.3300  -28.7210 C   0  0  0  0  0  0  0  0  0  0  0  0
   -4.1970   23.0560  -28.0210 C   0  0  0  0  0  0  0  0  0  0  0  0
   -3.5700   24.2690  -27.3400 C   0  0  0  0  0  0  0  0  0  0  0  0
   -2.1680   24.4320  -27.9250 C   0  0  0  0  0  0  0  0  0  0  0  0
   -2.0470   23.4160  -29.0510 C   0  0  0  0  0  0  0  0  0  0  0  0
   -3.4790   26.0510  -31.2630 H   0  0  0  0  0  0  0  0  0  0  0  0
   -8.0589   24.6885  -30.9724 H   0  0  0  0  0  0  0  0  0  0  0  0
   -9.7583   22.4710  -31.5907 H   0  0  0  0  0  0  0  0  0  0  0  0
   -9.7299   19.9961  -32.0562 H   0  0  0  0  0  0  0  0  0  0  0  0
   -6.9787   17.8656  -31.3510 H   0  0  0  0  0  0  0  0  0  0  0  0
   -8.5793   17.9852  -32.1928 H   0  0  0  0  0  0  0  0  0  0  0  0
   -7.2023   16.9717  -33.8063 H   0  0  0  0  0  0  0  0  0  0  0  0
   -7.1746   18.7213  -34.2589 H   0  0  0  0  0  0  0  0  0  0  0  0
   -2.2016   19.9867  -35.1945 H   0  0  0  0  0  0  0  0  0  0  0  0
   -0.2699   21.5547  -35.0102 H   0  0  0  0  0  0  0  0  0  0  0  0
    0.7659   22.0119  -32.7868 H   0  0  0  0  0  0  0  0  0  0  0  0
   -0.1220   20.8912  -30.7409 H   0  0  0  0  0  0  0  0  0  0  0  0
   -2.0541   19.3210  -30.9129 H   0  0  0  0  0  0  0  0  0  0  0  0
   -5.0540   16.0250  -32.7320 H   0  0  0  0  0  0  0  0  0  0  0  0
   -5.3798   19.9970  -31.7719 H   0  0  0  0  0  0  0  0  0  0  0  0
   -2.6335   21.5394  -28.0829 H   0  0  0  0  0  0  0  0  0  0  0  0
   -4.9520   23.3769  -28.7538 H   0  0  0  0  0  0  0  0  0  0  0  0
   -4.7039   22.4036  -27.2947 H   0  0  0  0  0  0  0  0  0  0  0  0
   -4.1707   25.1682  -27.5414 H   0  0  0  0  0  0  0  0  0  0  0  0
   -3.5276   24.1298  -26.2497 H   0  0  0  0  0  0  0  0  0  0  0  0
   -2.0364   25.4512  -28.3174 H   0  0  0  0  0  0  0  0  0  0  0  0
   -1.3964   24.2687  -27.1582 H   0  0  0  0  0  0  0  0  0  0  0  0
   -2.2860   23.8825  -30.0181 H   0  0  0  0  0  0  0  0  0  0  0  0
   -1.0257   23.0159  -29.1342 H   0  0  0  0  0  0  0  0  0  0  0  0
  1  2  1  0
  2  3  2  0
  2  4  1  0
  4  5  2  0
  5  6  1  0
  6  7  2  0
  7  8  1  0
  8  9  2  0
  9 10  1  0
 10 11  1  0
 11 12  1  0
 12 13  1  0
 13 14  2  0
 14 15  1  0
 15 16  2  0
 16 17  1  0
 17 18  2  0
 18 19  1  0
 19 20  2  0
 14 21  1  0
 21 22  2  0
  9 23  1  0
 23 24  2  0
 24 25  1  0
 25 26  1  0
 26 27  2  0
 26 28  1  0
 28 29  1  0
 29 30  1  0
 30 31  1  0
 31 32  1  0
 32 33  1  0
 25  4  1  0
 33 29  1  0
 24  6  1  0
 22 12  1  0
 20 15  1  0
  1 34  1  0
  5 35  1  0
  7 36  1  0
  8 37  1  0
 10 38  1  0
 10 39  1  0
 11 40  1  0
 11 41  1  0
 16 42  1  0
 17 43  1  0
 18 44  1  0
 19 45  1  0
 20 46  1  0
 22 47  1  0
 23 48  1  0
 29 49  1  0
 30 50  1  0
 30 51  1  0
 31 52  1  0
 31 53  1  0
 32 54  1  0
 32 55  1  0
 33 56  1  0
 33 57  1  0
M  CHG  2   1  -1  22   1
M  END
>  <UniqueID>  (14) 
14

>  <SMILES>  (14) 
[NH-]C(=O)c1cc2ccc(CCn3nc(-c4ccccc4)n[nH+]3)cc2n1C(=O)OC1CCCC1

>  <Energy>  (14) 
131.33413679043963

>  <Genealogy>  (14) 
[NH-]C(=O)c1cc2ccc(CCn3nc(-c4ccccc4)n[nH+]3)cc2n1C(=O)OC1CCCC1 (protonated)
[NH-]C(=O)c1cc2ccc(CCn3nc(-c4ccccc4)n[nH+]3)cc2n1C(=O)OC1CCCC1 (3D coordinates assigned)
[NH-]C(=O)c1cc2ccc(CCn3nc(-c4ccccc4)n[nH+]3)cc2n1C(=O)OC1CCCC1 (nonaromatic ring conformer: 131.33413679043963 kcal/mol)

>  <smiles>  (14) 
NC(=O)c1cc2ccc(CCn3nnc(-c4ccccc4)n3)cc2n1C(=O)OC1CCCC1

>  <score_type>  (14) 
oracle

>  <origin>  (14) 
adg

>  <m_score__min__energy>  (14) 
-12.91

>  <m_primary>  (14) 
energy

$$$$
14:0
     RDKit          3D

 39 40  0  0  0  0  0  0  0  0999 V2000
   -7.4910   22.9740  -31.8430 C   0  0  0  0  0  0  0  0  0  0  0  0
   -7.7470   21.5600  -31.3350 C   0  0  0  0  0  0  0  0  0  0  0  0
   -7.4810   20.6030  -32.3590 O   0  0  0  0  0  0  0  0  0  0  0  0
   -6.3610   19.7640  -32.3550 C   0  0  0  0  0  0  0  0  0  0  0  0
   -6.2860   18.7990  -31.5450 O   0  0  0  0  0  0  0  0  0  0  0  0
   -5.2210   20.0650  -33.2930 C   0  0  2  0  0  0  0  0  0  0  0  0
   -4.8040   18.8420  -34.1400 C   0  0  0  0  0  0  0  0  0  0  0  0
   -6.0050   18.1370  -34.7700 C   0  0  0  0  0  0  0  0  0  0  0  0
   -4.0430   20.6110  -32.5120 C   0  0  0  0  0  0  0  0  0  0  0  0
   -2.8330   19.8730  -32.4520 C   0  0  0  0  0  0  0  0  0  0  0  0
   -1.7310   20.3560  -31.7260 C   0  0  0  0  0  0  0  0  0  0  0  0
   -1.8620   21.5800  -31.0770 C   0  0  0  0  0  0  0  0  0  0  0  0
   -0.9660   22.2620  -30.2880 C   0  0  0  0  0  0  0  0  0  0  0  0
   -1.6300   23.4230  -29.8950 C   0  0  0  0  0  0  0  0  0  0  0  0
   -0.9910   24.4920  -29.0990 C   0  0  0  0  0  0  0  0  0  0  0  0
   -1.6030   25.7700  -28.9610 N   0  0  0  0  0  0  0  0  0  0  0  0
    0.1360   24.2880  -28.5730 O   0  0  0  0  0  0  0  0  0  0  0  0
   -2.8910   23.4510  -30.4130 N   0  0  0  0  0  0  0  0  0  0  0  0
   -3.9180   24.4280  -30.1800 C   0  0  0  0  0  0  0  0  0  0  0  0
   -4.8860   24.1640  -29.4180 O   0  0  0  0  0  0  0  0  0  0  0  0
   -3.8690   25.6630  -30.8140 O   0  0  0  0  0  0  0  0  0  0  0  0
   -3.0160   22.3170  -31.1360 C   0  0  0  0  0  0  0  0  0  0  0  0
   -4.1360   21.8510  -31.8340 C   0  0  0  0  0  0  0  0  0  0  0  0
   -7.3678   23.6543  -30.9874 H   0  0  0  0  0  0  0  0  0  0  0  0
   -6.5764   22.9841  -32.4541 H   0  0  0  0  0  0  0  0  0  0  0  0
   -8.3440   23.3041  -32.4541 H   0  0  0  0  0  0  0  0  0  0  0  0
   -7.0912   21.3607  -30.4746 H   0  0  0  0  0  0  0  0  0  0  0  0
   -8.8024   21.4760  -31.0364 H   0  0  0  0  0  0  0  0  0  0  0  0
   -5.5719   20.8266  -34.0049 H   0  0  0  0  0  0  0  0  0  0  0  0
   -4.1312   19.1798  -34.9420 H   0  0  0  0  0  0  0  0  0  0  0  0
   -4.3043   18.1246  -33.4725 H   0  0  0  0  0  0  0  0  0  0  0  0
   -6.6617   17.7515  -33.9762 H   0  0  0  0  0  0  0  0  0  0  0  0
   -6.5635   18.8506  -35.3936 H   0  0  0  0  0  0  0  0  0  0  0  0
   -5.6541   17.3015  -35.3936 H   0  0  0  0  0  0  0  0  0  0  0  0
   -2.7564   18.9111  -32.9801 H   0  0  0  0  0  0  0  0  0  0  0  0
   -0.7931   19.7838  -31.6723 H   0  0  0  0  0  0  0  0  0  0  0  0
    0.0570   21.9565  -30.0232 H   0  0  0  0  0  0  0  0  0  0  0  0
   -2.6410   25.8750  -29.0050 H   0  0  0  0  0  0  0  0  0  0  0  0
   -5.0680   22.4349  -31.8555 H   0  0  0  0  0  0  0  0  0  0  0  0
  1  2  1  0
  2  3  1  0
  3  4  1  0
  4  5  2  0
  4  6  1  0
  6  7  1  0
  7  8  1  0
  6  9  1  0
  9 10  2  0
 10 11  1  0
 11 12  2  0
 12 13  1  0
 13 14  2  0
 14 15  1  0
 15 16  1  0
 15 17  2  0
 14 18  1  0
 18 19  1  0
 19 20  2  0
 19 21  1  0
 18 22  1  0
 22 23  2  0
 23  9  1  0
 22 12  1  0
  1 24  1  0
  1 25  1  0
  1 26  1  0
  2 27  1  0
  2 28  1  0
  6 29  1  6
  7 30  1  0
  7 31  1  0
  8 32  1  0
  8 33  1  0
  8 34  1  0
 10 35  1  0
 11 36  1  0
 13 37  1  0
 16 38  1  0
 23 39  1  0
M  CHG  2  16  -1  21  -1
M  END
>  <UniqueID>  (15) 
15

>  <SMILES>  (15) 
CCOC(=O)[C@H](CC)c1ccc2cc(C([NH-])=O)n(C(=O)[O-])c2c1

>  <Energy>  (15) 
71.34932578188827

>  <Genealogy>  (15) 
CCOC(=O)C(CC)c1ccc2cc(C([NH-])=O)n(C(=O)[O-])c2c1 (protonated)
CCOC(=O)[C@H](CC)c1ccc2cc(C([NH-])=O)n(C(=O)[O-])c2c1 (chirality)
CCOC(=O)[C@H](CC)c1ccc2cc(C([NH-])=O)n(C(=O)[O-])c2c1 (3D coordinates assigned)
CCOC(=O)[C@H](CC)c1ccc2cc(C([NH-])=O)n(C(=O)[O-])c2c1 (optimized conformer: 71.34932578188827 kcal/mol)

>  <smiles>  (15) 
CCOC(=O)C(CC)c1ccc2cc(C(N)=O)n(C(=O)O)c2c1

>  <score_type>  (15) 
oracle

>  <origin>  (15) 
adg

>  <m_score__min__energy>  (15) 
-11.06

>  <m_primary>  (15) 
energy

$$$$
15:0
     RDKit          3D

 41 44  0  0  0  0  0  0  0  0999 V2000
   -2.1610   20.2820  -33.7720 C   0  0  0  0  0  0  0  0  0  0  0  0
   -2.0290   20.9920  -32.4290 C   0  0  0  0  0  0  0  0  0  0  0  0
   -2.7140   22.2430  -32.4530 O   0  0  0  0  0  0  0  0  0  0  0  0
   -3.4220   22.7550  -31.3600 C   0  0  0  0  0  0  0  0  0  0  0  0
   -2.8120   23.1260  -30.3200 O   0  0  0  0  0  0  0  0  0  0  0  0
   -4.8560   22.8280  -31.4120 N   0  0  0  0  0  0  0  0  0  0  0  0
   -5.6570   23.8470  -30.9910 C   0  0  0  0  0  0  0  0  0  0  0  0
   -5.2040   25.1760  -30.5310 C   0  0  0  0  0  0  0  0  0  0  0  0
   -3.9000   25.6570  -30.8460 N   0  0  0  0  0  0  0  0  0  0  0  0
   -5.9970   25.9190  -29.8930 O   0  0  0  0  0  0  0  0  0  0  0  0
   -7.0000   23.5000  -31.1290 C   0  0  0  0  0  0  0  0  0  0  0  0
   -6.9960   22.2310  -31.6610 C   0  0  0  0  0  0  0  0  0  0  0  0
   -8.0590   21.3990  -31.9960 C   0  0  0  0  0  0  0  0  0  0  0  0
   -7.7620   20.1240  -32.5050 C   0  0  0  0  0  0  0  0  0  0  0  0
   -6.4170   19.6980  -32.6630 C   0  0  0  0  0  0  0  0  0  0  0  0
   -6.1160   18.3440  -33.1900 C   0  0  0  0  0  0  0  0  0  0  0  0
   -7.1320   17.3510  -33.2450 C   0  0  0  0  0  0  0  0  0  0  0  0
   -6.8560   16.0640  -33.7430 C   0  0  0  0  0  0  0  0  0  0  0  0
   -5.5630   15.7970  -34.1790 C   0  0  0  0  0  0  0  0  0  0  0  0
   -5.0970   14.6770  -34.6730 O   0  0  0  0  0  0  0  0  0  0  0  0
   -3.8200   14.8650  -34.9530 C   0  0  0  0  0  0  0  0  0  0  0  0
   -3.4370   16.1620  -34.6290 C   0  0  0  0  0  0  0  0  0  0  0  0
   -4.5800   16.7450  -34.1320 C   0  0  0  0  0  0  0  0  0  0  0  0
   -4.8120   18.0290  -33.6460 C   0  0  0  0  0  0  0  0  0  0  0  0
   -5.3650   20.5770  -32.3090 C   0  0  0  0  0  0  0  0  0  0  0  0
   -5.6910   21.8480  -31.8220 C   0  0  0  0  0  0  0  0  0  0  0  0
   -2.3597   19.2133  -33.6038 H   0  0  0  0  0  0  0  0  0  0  0  0
   -2.9923   20.7244  -34.3405 H   0  0  0  0  0  0  0  0  0  0  0  0
   -1.2262   20.3961  -34.3405 H   0  0  0  0  0  0  0  0  0  0  0  0
   -2.4615   20.3581  -31.6409 H   0  0  0  0  0  0  0  0  0  0  0  0
   -0.9632   21.1751  -32.2279 H   0  0  0  0  0  0  0  0  0  0  0  0
   -3.0560   25.2750  -30.3650 H   0  0  0  0  0  0  0  0  0  0  0  0
   -7.8768   24.1109  -30.8680 H   0  0  0  0  0  0  0  0  0  0  0  0
   -9.1002   21.7293  -31.8663 H   0  0  0  0  0  0  0  0  0  0  0  0
   -8.5823   19.4467  -32.7849 H   0  0  0  0  0  0  0  0  0  0  0  0
   -8.1463   17.5916  -32.8940 H   0  0  0  0  0  0  0  0  0  0  0  0
   -7.6393   15.2929  -33.7860 H   0  0  0  0  0  0  0  0  0  0  0  0
   -3.1531   14.1027  -35.3822 H   0  0  0  0  0  0  0  0  0  0  0  0
   -2.4432   16.6193  -34.7442 H   0  0  0  0  0  0  0  0  0  0  0  0
   -4.0062   18.7772  -33.6169 H   0  0  0  0  0  0  0  0  0  0  0  0
   -4.3146   20.2678  -32.4144 H   0  0  0  0  0  0  0  0  0  0  0  0
  1  2  1  0
  2  3  1  0
  3  4  1  0
  4  5  2  0
  4  6  1  0
  6  7  1  0
  7  8  1  0
  8  9  1  0
  8 10  2  0
  7 11  2  0
 11 12  1  0
 12 13  2  0
 13 14  1  0
 14 15  2  0
 15 16  1  0
 16 17  2  0
 17 18  1  0
 18 19  2  0
 19 20  1  0
 20 21  1  0
 21 22  2  0
 22 23  1  0
 23 24  2  0
 15 25  1  0
 25 26  2  0
 26  6  1  0
 26 12  1  0
 24 16  1  0
 23 19  1  0
  1 27  1  0
  1 28  1  0
  1 29  1  0
  2 30  1  0
  2 31  1  0
  9 32  1  0
 11 33  1  0
 13 34  1  0
 14 35  1  0
 17 36  1  0
 18 37  1  0
 21 38  1  0
 22 39  1  0
 24 40  1  0
 25 41  1  0
M  CHG  1   9  -1
M  END
>  <UniqueID>  (16) 
16

>  <SMILES>  (16) 
CCOC(=O)n1c(C([NH-])=O)cc2ccc(-c3ccc4occc4c3)cc21

>  <Energy>  (16) 
119.46438191645069

>  <Genealogy>  (16) 
CCOC(=O)n1c(C([NH-])=O)cc2ccc(-c3ccc4occc4c3)cc21 (protonated)
CCOC(=O)n1c(C([NH-])=O)cc2ccc(-c3ccc4occc4c3)cc21 (3D coordinates assigned)
CCOC(=O)n1c(C([NH-])=O)cc2ccc(-c3ccc4occc4c3)cc21 (optimized conformer: 119.46438191645069 kcal/mol)

>  <smiles>  (16) 
CCOC(=O)n1c(C(N)=O)cc2ccc(-c3ccc4occc4c3)cc21

>  <score_type>  (16) 
oracle

>  <origin>  (16) 
adg

>  <m_score__min__energy>  (16) 
-10.710000000000001

>  <m_primary>  (16) 
energy

$$$$
16:0
     RDKit          3D

 49 52  0  0  0  0  0  0  0  0999 V2000
   -2.9240   20.6830  -31.6940 C   0  0  0  0  0  0  0  0  0  0  0  0
   -4.3630   20.2880  -31.5880 C   0  0  0  0  0  0  0  0  0  0  0  0
   -4.6670   19.0660  -31.5910 O   0  0  0  0  0  0  0  0  0  0  0  0
   -5.3990   21.2800  -31.5660 N   0  0  0  0  0  0  0  0  0  0  0  0
   -6.5840   21.2760  -32.2370 C   0  0  0  0  0  0  0  0  0  0  0  0
   -6.9940   20.2990  -33.2670 C   0  0  0  0  0  0  0  0  0  0  0  0
   -6.0280   19.6700  -34.1050 N   0  0  0  0  0  0  0  0  0  0  0  0
   -8.2170   20.0460  -33.4370 O   0  0  0  0  0  0  0  0  0  0  0  0
   -7.3500   22.3840  -31.8780 C   0  0  0  0  0  0  0  0  0  0  0  0
   -6.5860   23.0770  -30.9670 C   0  0  0  0  0  0  0  0  0  0  0  0
   -6.8580   24.2550  -30.2780 C   0  0  0  0  0  0  0  0  0  0  0  0
   -5.8880   24.7320  -29.3800 C   0  0  0  0  0  0  0  0  0  0  0  0
   -4.6700   24.0280  -29.1820 C   0  0  0  0  0  0  0  0  0  0  0  0
   -3.6560   24.5380  -28.2250 C   0  0  0  0  0  0  0  0  0  0  0  0
   -3.9930   24.7640  -26.8790 C   0  0  0  0  0  0  0  0  0  0  0  0
   -3.0380   25.2450  -25.9780 C   0  0  0  0  0  0  0  0  0  0  0  0
   -1.7260   25.5090  -26.4020 C   0  0  0  0  0  0  0  0  0  0  0  0
   -0.7430   26.0110  -25.4720 N   0  0  0  0  0  0  0  0  0  0  0  0
   -1.1890   26.5580  -24.1830 C   0  0  0  0  0  0  0  0  0  0  0  0
   -0.0140   27.1560  -23.4060 C   0  0  0  0  0  0  0  0  0  0  0  0
    1.1150   26.2180  -23.4090 N   0  0  0  0  0  0  0  0  0  0  0  0
    1.6470   25.9510  -24.7640 C   0  0  0  0  0  0  0  0  0  0  0  0
    0.6440   26.2220  -25.9070 C   0  0  0  0  0  0  0  0  0  0  0  0
   -1.3890   25.2850  -27.7480 C   0  0  0  0  0  0  0  0  0  0  0  0
   -2.3420   24.8050  -28.6490 C   0  0  0  0  0  0  0  0  0  0  0  0
   -4.4330   22.8340  -29.9040 C   0  0  0  0  0  0  0  0  0  0  0  0
   -5.4120   22.3910  -30.7990 C   0  0  0  0  0  0  0  0  0  0  0  0
   -2.5004   20.7993  -30.6855 H   0  0  0  0  0  0  0  0  0  0  0  0
   -2.3690   19.9040  -32.2372 H   0  0  0  0  0  0  0  0  0  0  0  0
   -2.8445   21.6362  -32.2372 H   0  0  0  0  0  0  0  0  0  0  0  0
   -5.1980   19.1850  -33.6970 H   0  0  0  0  0  0  0  0  0  0  0  0
   -8.3527   22.6484  -32.2451 H   0  0  0  0  0  0  0  0  0  0  0  0
   -7.8033   24.7962  -30.4316 H   0  0  0  0  0  0  0  0  0  0  0  0
   -6.0742   25.6623  -28.8233 H   0  0  0  0  0  0  0  0  0  0  0  0
   -5.0167   24.5607  -26.5316 H   0  0  0  0  0  0  0  0  0  0  0  0
   -3.3171   25.4180  -24.9282 H   0  0  0  0  0  0  0  0  0  0  0  0
   -1.9372   27.3436  -24.3649 H   0  0  0  0  0  0  0  0  0  0  0  0
   -1.6245   25.7421  -23.5875 H   0  0  0  0  0  0  0  0  0  0  0  0
    0.2943   28.0996  -23.8798 H   0  0  0  0  0  0  0  0  0  0  0  0
   -0.3248   27.3458  -22.3680 H   0  0  0  0  0  0  0  0  0  0  0  0
    1.8800   26.6150  -22.8140 H   0  0  0  0  0  0  0  0  0  0  0  0
    0.8100   25.3180  -22.9700 H   0  0  0  0  0  0  0  0  0  0  0  0
    2.5280   26.5909  -24.9202 H   0  0  0  0  0  0  0  0  0  0  0  0
    1.8850   24.8777  -24.8025 H   0  0  0  0  0  0  0  0  0  0  0  0
    0.7582   27.2634  -26.2425 H   0  0  0  0  0  0  0  0  0  0  0  0
    0.8580   25.5192  -26.7257 H   0  0  0  0  0  0  0  0  0  0  0  0
   -0.3654   25.4896  -28.0949 H   0  0  0  0  0  0  0  0  0  0  0  0
   -2.0625   24.6343  -29.6991 H   0  0  0  0  0  0  0  0  0  0  0  0
   -3.5004   22.2676  -29.7644 H   0  0  0  0  0  0  0  0  0  0  0  0
  1  2  1  0
  2  3  2  0
  2  4  1  0
  4  5  1  0
  5  6  1  0
  6  7  1  0
  6  8  2  0
  5  9  2  0
  9 10  1  0
 10 11  2  0
 11 12  1  0
 12 13  2  0
 13 14  1  0
 14 15  2  0
 15 16  1  0
 16 17  2  0
 17 18  1  0
 18 19  1  0
 19 20  1  0
 20 21  1  0
 21 22  1  0
 22 23  1  0
 17 24  1  0
 24 25  2  0
 13 26  1  0
 26 27  2  0
 27  4  1  0
 27 10  1  0
 25 14  1  0
 23 18  1  0
  1 28  1  0
  1 29  1  0
  1 30  1  0
  7 31  1  0
  9 32  1  0
 11 33  1  0
 12 34  1  0
 15 35  1  0
 16 36  1  0
 19 37  1  0
 19 38  1  0
 20 39  1  0
 20 40  1  0
 21 41  1  0
 21 42  1  0
 22 43  1  0
 22 44  1  0
 23 45  1  0
 23 46  1  0
 24 47  1  0
 25 48  1  0
 26 49  1  0
M  CHG  2   7  -1  21   1
M  END
>  <UniqueID>  (17) 
17

>  <SMILES>  (17) 
CC(=O)n1c(C([NH-])=O)cc2ccc(-c3ccc(N4CC[NH2+]CC4)cc3)cc21

>  <Energy>  (17) 
104.6260050143581

>  <Genealogy>  (17) 
CC(=O)n1c(C([NH-])=O)cc2ccc(-c3ccc(N4CC[NH2+]CC4)cc3)cc21 (protonated)
CC(=O)n1c(C([NH-])=O)cc2ccc(-c3ccc(N4CC[NH2+]CC4)cc3)cc21 (3D coordinates assigned)
CC(=O)n1c(C([NH-])=O)cc2ccc(-c3ccc(N4CC[NH2+]CC4)cc3)cc21 (nonaromatic ring conformer: 104.6260050143581 kcal/mol)

>  <smiles>  (17) 
CC(=O)n1c(C(N)=O)cc2ccc(-c3ccc(N4CCNCC4)cc3)cc21

>  <score_type>  (17) 
oracle

>  <origin>  (17) 
adg

>  <m_score__min__energy>  (17) 
-10.27

>  <m_primary>  (17) 
energy

$$$$
17:0
     RDKit          3D

 33 34  0  0  0  0  0  0  0  0999 V2000
   -2.7580   20.2220  -33.6890 C   0  0  0  0  0  0  0  0  0  0  0  0
   -2.3250   21.1290  -32.5450 C   0  0  0  0  0  0  0  0  0  0  0  0
   -3.1500   22.2920  -32.4820 O   0  0  0  0  0  0  0  0  0  0  0  0
   -3.8410   22.6880  -31.3310 C   0  0  0  0  0  0  0  0  0  0  0  0
   -3.2080   22.9870  -30.2820 O   0  0  0  0  0  0  0  0  0  0  0  0
   -5.2760   22.7660  -31.3540 N   0  0  0  0  0  0  0  0  0  0  0  0
   -6.0510   23.7980  -30.9140 C   0  0  0  0  0  0  0  0  0  0  0  0
   -5.5630   25.1230  -30.4880 C   0  0  0  0  0  0  0  0  0  0  0  0
   -4.2050   25.5130  -30.6970 N   0  0  0  0  0  0  0  0  0  0  0  0
   -6.3700   25.9480  -29.9820 O   0  0  0  0  0  0  0  0  0  0  0  0
   -7.4000   23.4590  -30.9680 C   0  0  0  0  0  0  0  0  0  0  0  0
   -7.4320   22.1790  -31.4720 C   0  0  0  0  0  0  0  0  0  0  0  0
   -8.5180   21.3420  -31.7140 C   0  0  0  0  0  0  0  0  0  0  0  0
   -8.2590   20.0490  -32.1970 C   0  0  0  0  0  0  0  0  0  0  0  0
   -6.9290   19.6190  -32.4260 C   0  0  0  0  0  0  0  0  0  0  0  0
   -6.6630   18.2180  -32.8990 C   0  0  0  0  0  0  0  0  0  0  0  0
   -6.0600   18.2460  -34.2360 C   0  0  0  0  0  0  0  0  0  0  0  0
   -5.5840   18.2680  -35.2890 N   0  0  0  0  0  0  0  0  0  0  0  0
   -5.8510   20.4900  -32.1560 C   0  0  0  0  0  0  0  0  0  0  0  0
   -6.1390   21.7820  -31.6960 C   0  0  0  0  0  0  0  0  0  0  0  0
   -3.1979   19.3005  -33.2800 H   0  0  0  0  0  0  0  0  0  0  0  0
   -3.5049   20.7421  -34.3067 H   0  0  0  0  0  0  0  0  0  0  0  0
   -1.8839   19.9682  -34.3067 H   0  0  0  0  0  0  0  0  0  0  0  0
   -2.4058   20.5774  -31.5967 H   0  0  0  0  0  0  0  0  0  0  0  0
   -1.2848   21.4427  -32.7172 H   0  0  0  0  0  0  0  0  0  0  0  0
   -3.5560   24.9220  -31.2620 H   0  0  0  0  0  0  0  0  0  0  0  0
   -3.8650   26.4370  -30.3500 H   0  0  0  0  0  0  0  0  0  0  0  0
   -8.2571   24.0813  -30.6712 H   0  0  0  0  0  0  0  0  0  0  0  0
   -9.5478   21.6832  -31.5323 H   0  0  0  0  0  0  0  0  0  0  0  0
   -9.0960   19.3645  -32.3992 H   0  0  0  0  0  0  0  0  0  0  0  0
   -5.9745   17.7218  -32.1992 H   0  0  0  0  0  0  0  0  0  0  0  0
   -7.6130   17.6651  -32.9428 H   0  0  0  0  0  0  0  0  0  0  0  0
   -4.8112   20.1626  -32.3030 H   0  0  0  0  0  0  0  0  0  0  0  0
  1  2  1  0
  2  3  1  0
  3  4  1  0
  4  5  2  0
  4  6  1  0
  6  7  1  0
  7  8  1  0
  8  9  1  0
  8 10  2  0
  7 11  2  0
 11 12  1  0
 12 13  2  0
 13 14  1  0
 14 15  2  0
 15 16  1  0
 16 17  1  0
 17 18  3  0
 15 19  1  0
 19 20  2  0
 20  6  1  0
 20 12  1  0
  1 21  1  0
  1 22  1  0
  1 23  1  0
  2 24  1  0
  2 25  1  0
  9 26  1  0
  9 27  1  0
 11 28  1  0
 13 29  1  0
 14 30  1  0
 16 31  1  0
 16 32  1  0
 19 33  1  0
M  END
>  <UniqueID>  (18) 
18

>  <SMILES>  (18) 
CCOC(=O)n1c(C(N)=O)cc2ccc(CC#N)cc21

>  <Energy>  (18) 
66.2369748050176

>  <Genealogy>  (18) 
CCOC(=O)n1c(C(N)=O)cc2ccc(CC#N)cc21 (3D coordinates assigned)
CCOC(=O)n1c(C(N)=O)cc2ccc(CC#N)cc21 (optimized conformer: 66.2369748050176 kcal/mol)

>  <smiles>  (18) 
CCOC(=O)n1c(C(N)=O)cc2ccc(CC#N)cc21

>  <score_type>  (18) 
oracle

>  <origin>  (18) 
adg

>  <m_score__min__energy>  (18) 
-8.1199999999999992

>  <m_primary>  (18) 
energy

$$$$
18:0
     RDKit          3D

 27 28  0  0  0  0  0  0  0  0999 V2000
   -4.5540   18.1740  -34.2990 C   0  0  0  0  0  0  0  0  0  0  0  0
   -4.1030   19.3100  -33.5020 N   0  0  0  0  0  0  0  0  0  0  0  0
   -4.9920   20.3080  -32.9650 C   0  0  0  0  0  0  0  0  0  0  0  0
   -6.3970   20.2410  -33.1720 C   0  0  0  0  0  0  0  0  0  0  0  0
   -7.2460   21.2310  -32.6520 C   0  0  0  0  0  0  0  0  0  0  0  0
   -6.6720   22.2670  -31.9230 C   0  0  0  0  0  0  0  0  0  0  0  0
   -7.2600   23.3660  -31.3400 C   0  0  0  0  0  0  0  0  0  0  0  0
   -6.2130   24.0750  -30.7580 C   0  0  0  0  0  0  0  0  0  0  0  0
   -6.4100   25.3030  -29.9630 C   0  0  0  0  0  0  0  0  0  0  0  0
   -5.6350   26.4780  -30.2110 N   0  0  0  0  0  0  0  0  0  0  0  0
   -7.2370   25.2990  -29.0120 O   0  0  0  0  0  0  0  0  0  0  0  0
   -5.0220   23.4510  -30.9810 N   0  0  0  0  0  0  0  0  0  0  0  0
   -3.7100   23.9340  -30.6460 C   0  0  0  0  0  0  0  0  0  0  0  0
   -2.7520   23.1320  -30.5030 O   0  0  0  0  0  0  0  0  0  0  0  0
   -3.4850   25.2960  -30.4830 O   0  0  0  0  0  0  0  0  0  0  0  0
   -5.3230   22.3400  -31.6940 C   0  0  0  0  0  0  0  0  0  0  0  0
   -4.4500   21.3790  -32.2200 C   0  0  0  0  0  0  0  0  0  0  0  0
   -4.8764   17.3620  -33.6306 H   0  0  0  0  0  0  0  0  0  0  0  0
   -5.3976   18.4832  -34.9336 H   0  0  0  0  0  0  0  0  0  0  0  0
   -3.7281   17.8204  -34.9336 H   0  0  0  0  0  0  0  0  0  0  0  0
   -3.0780   19.3940  -33.3150 H   0  0  0  0  0  0  0  0  0  0  0  0
   -6.8233   19.4048  -33.7456 H   0  0  0  0  0  0  0  0  0  0  0  0
   -8.3328   21.1885  -32.8163 H   0  0  0  0  0  0  0  0  0  0  0  0
   -8.3283   23.6281  -31.3349 H   0  0  0  0  0  0  0  0  0  0  0  0
   -5.8130   27.3480  -29.6620 H   0  0  0  0  0  0  0  0  0  0  0  0
   -4.8320   26.4620  -30.8760 H   0  0  0  0  0  0  0  0  0  0  0  0
   -3.3650   21.4567  -32.0564 H   0  0  0  0  0  0  0  0  0  0  0  0
  1  2  1  0
  2  3  1  0
  3  4  2  0
  4  5  1  0
  5  6  2  0
  6  7  1  0
  7  8  2  0
  8  9  1  0
  9 10  1  0
  9 11  2  0
  8 12  1  0
 12 13  1  0
 13 14  2  0
 13 15  1  0
 12 16  1  0
 16 17  2  0
 17  3  1  0
 16  6  1  0
  1 18  1  0
  1 19  1  0
  1 20  1  0
  2 21  1  0
  4 22  1  0
  5 23  1  0
  7 24  1  0
 10 25  1  0
 10 26  1  0
 17 27  1  0
M  CHG  1  15  -1
M  END
>  <UniqueID>  (19) 
19

>  <SMILES>  (19) 
CNc1ccc2cc(C(N)=O)n(C(=O)[O-])c2c1

>  <Energy>  (19) 
66.15962338809022

>  <Genealogy>  (19) 
CNc1ccc2cc(C(N)=O)n(C(=O)[O-])c2c1 (protonated)
CNc1ccc2cc(C(N)=O)n(C(=O)[O-])c2c1 (3D coordinates assigned)
CNc1ccc2cc(C(N)=O)n(C(=O)[O-])c2c1 (optimized conformer: 66.15962338809022 kcal/mol)

>  <smiles>  (19) 
CNc1ccc2cc(C(N)=O)n(C(=O)O)c2c1

>  <score_type>  (19) 
oracle

>  <origin>  (19) 
adg

>  <m_score__min__energy>  (19) 
-8.1699999999999999

>  <m_primary>  (19) 
energy

$$$$
19:0
     RDKit          3D

 39 41  0  0  0  0  0  0  0  0999 V2000
   -9.0800   21.1340  -31.9100 C   0  0  0  0  0  0  0  0  0  0  0  0
   -8.9950   20.0520  -32.8280 O   0  0  0  0  0  0  0  0  0  0  0  0
   -8.2240   18.9110  -32.5820 C   0  0  0  0  0  0  0  0  0  0  0  0
   -8.7260   17.9320  -31.9620 O   0  0  0  0  0  0  0  0  0  0  0  0
   -6.8210   18.8530  -33.0490 C   0  0  0  0  0  0  0  0  0  0  0  0
   -6.4790   18.1230  -34.2000 C   0  0  0  0  0  0  0  0  0  0  0  0
   -5.1530   18.0690  -34.6350 C   0  0  0  0  0  0  0  0  0  0  0  0
   -4.1540   18.7410  -33.9300 C   0  0  0  0  0  0  0  0  0  0  0  0
   -4.4700   19.4800  -32.7760 C   0  0  0  0  0  0  0  0  0  0  0  0
   -3.4090   20.1970  -32.0260 C   0  0  0  0  0  0  0  0  0  0  0  0
   -2.1130   19.6320  -31.9000 C   0  0  0  0  0  0  0  0  0  0  0  0
   -1.1040   20.2980  -31.1830 C   0  0  0  0  0  0  0  0  0  0  0  0
   -1.4140   21.5250  -30.6080 C   0  0  0  0  0  0  0  0  0  0  0  0
   -0.6350   22.3670  -29.8480 C   0  0  0  0  0  0  0  0  0  0  0  0
   -1.4560   23.4500  -29.5350 C   0  0  0  0  0  0  0  0  0  0  0  0
   -0.9940   24.6510  -28.8060 C   0  0  0  0  0  0  0  0  0  0  0  0
   -1.9110   25.6870  -28.4510 N   0  0  0  0  0  0  0  0  0  0  0  0
    0.2130   24.7550  -28.4610 O   0  0  0  0  0  0  0  0  0  0  0  0
   -2.6950   23.2800  -30.0780 N   0  0  0  0  0  0  0  0  0  0  0  0
   -3.8420   24.1340  -29.9290 C   0  0  0  0  0  0  0  0  0  0  0  0
   -3.9500   25.3340  -30.6910 N   0  0  0  0  0  0  0  0  0  0  0  0
   -4.7500   23.8390  -29.1050 O   0  0  0  0  0  0  0  0  0  0  0  0
   -2.6530   22.0970  -30.7320 C   0  0  0  0  0  0  0  0  0  0  0  0
   -3.6820   21.4500  -31.4260 C   0  0  0  0  0  0  0  0  0  0  0  0
   -5.8090   19.5290  -32.3430 C   0  0  0  0  0  0  0  0  0  0  0  0
   -9.0495   20.7454  -30.8814 H   0  0  0  0  0  0  0  0  0  0  0  0
   -8.2328   21.8173  -32.0691 H   0  0  0  0  0  0  0  0  0  0  0  0
  -10.0235   21.6766  -32.0691 H   0  0  0  0  0  0  0  0  0  0  0  0
   -7.2606   17.5907  -34.7619 H   0  0  0  0  0  0  0  0  0  0  0  0
   -4.8952   17.4945  -35.5369 H   0  0  0  0  0  0  0  0  0  0  0  0
   -3.1120   18.6924  -34.2792 H   0  0  0  0  0  0  0  0  0  0  0  0
   -1.8956   18.6611  -32.3692 H   0  0  0  0  0  0  0  0  0  0  0  0
   -0.0996   19.8615  -31.0800 H   0  0  0  0  0  0  0  0  0  0  0  0
    0.4134   22.2175  -29.5503 H   0  0  0  0  0  0  0  0  0  0  0  0
   -1.5820   26.5120  -27.9020 H   0  0  0  0  0  0  0  0  0  0  0  0
   -2.9070   25.6620  -28.7650 H   0  0  0  0  0  0  0  0  0  0  0  0
   -3.3000   25.5270  -31.4840 H   0  0  0  0  0  0  0  0  0  0  0  0
   -4.6805   21.9049  -31.5035 H   0  0  0  0  0  0  0  0  0  0  0  0
   -6.0672   20.1033  -31.4410 H   0  0  0  0  0  0  0  0  0  0  0  0
  1  2  1  0
  2  3  1  0
  3  4  2  0
  3  5  1  0
  5  6  2  0
  6  7  1  0
  7  8  2  0
  8  9  1  0
  9 10  1  0
 10 11  2  0
 11 12  1  0
 12 13  2  0
 13 14  1  0
 14 15  2  0
 15 16  1  0
 16 17  1  0
 16 18  2  0
 15 19  1  0
 19 20  1  0
 20 21  1  0
 20 22  2  0
 19 23  1  0
 23 24  2  0
  9 25  2  0
 25  5  1  0
 24 10  1  0
 23 13  1  0
  1 26  1  0
  1 27  1  0
  1 28  1  0
  6 29  1  0
  7 30  1  0
  8 31  1  0
 11 32  1  0
 12 33  1  0
 14 34  1  0
 17 35  1  0
 17 36  1  0
 21 37  1  0
 24 38  1  0
 25 39  1  0
M  CHG  1  21  -1
M  END
>  <UniqueID>  (20) 
20

>  <SMILES>  (20) 
COC(=O)c1cccc(-c2ccc3cc(C(N)=O)n(C([NH-])=O)c3c2)c1

>  <Energy>  (20) 
84.02235865291412

>  <Genealogy>  (20) 
COC(=O)c1cccc(-c2ccc3cc(C(N)=O)n(C([NH-])=O)c3c2)c1 (protonated)
COC(=O)c1cccc(-c2ccc3cc(C(N)=O)n(C([NH-])=O)c3c2)c1 (3D coordinates assigned)
COC(=O)c1cccc(-c2ccc3cc(C(N)=O)n(C([NH-])=O)c3c2)c1 (optimized conformer: 84.02235865291412 kcal/mol)

>  <smiles>  (20) 
COC(=O)c1cccc(-c2ccc3cc(C(N)=O)n(C(N)=O)c3c2)c1

>  <score_type>  (20) 
oracle

>  <origin>  (20) 
adg

>  <m_score__min__energy>  (20) 
-9.6999999999999993

>  <m_primary>  (20) 
energy

$$$$
20:0
     RDKit          3D

 38 40  0  0  0  0  0  0  0  0999 V2000
   -6.3850   17.0650  -32.8090 C   0  0  0  0  0  0  0  0  0  0  0  0
   -7.1390   18.3370  -32.5190 C   0  0  0  0  0  0  0  0  0  0  0  0
   -8.3070   18.2680  -31.7370 C   0  0  0  0  0  0  0  0  0  0  0  0
   -9.0530   19.4150  -31.4680 C   0  0  0  0  0  0  0  0  0  0  0  0
   -8.6500   20.6470  -31.9790 C   0  0  0  0  0  0  0  0  0  0  0  0
   -7.4960   20.7370  -32.7580 C   0  0  0  0  0  0  0  0  0  0  0  0
   -6.7230   19.5940  -33.0340 C   0  0  0  0  0  0  0  0  0  0  0  0
   -5.4700   19.7660  -33.8700 C   0  0  0  0  0  0  0  0  0  0  0  0
   -4.3250   20.2560  -33.0210 C   0  0  0  0  0  0  0  0  0  0  0  0
   -3.0830   19.5730  -33.0380 C   0  0  0  0  0  0  0  0  0  0  0  0
   -1.9960   20.0430  -32.2820 C   0  0  0  0  0  0  0  0  0  0  0  0
   -2.1800   21.1930  -31.5210 C   0  0  0  0  0  0  0  0  0  0  0  0
   -1.2940   21.8770  -30.7200 C   0  0  0  0  0  0  0  0  0  0  0  0
   -2.0100   22.9580  -30.2150 C   0  0  0  0  0  0  0  0  0  0  0  0
   -1.4590   23.9120  -29.2300 C   0  0  0  0  0  0  0  0  0  0  0  0
   -1.7530   25.3030  -29.3490 N   0  0  0  0  0  0  0  0  0  0  0  0
   -0.7000   23.5190  -28.3060 O   0  0  0  0  0  0  0  0  0  0  0  0
   -3.2890   22.9490  -30.6890 N   0  0  0  0  0  0  0  0  0  0  0  0
   -4.3200   23.9260  -30.4690 C   0  0  0  0  0  0  0  0  0  0  0  0
   -4.1130   25.2860  -30.8440 N   0  0  0  0  0  0  0  0  0  0  0  0
   -5.4250   23.5790  -29.9720 O   0  0  0  0  0  0  0  0  0  0  0  0
   -3.3780   21.8590  -31.4840 C   0  0  0  0  0  0  0  0  0  0  0  0
   -4.4720   21.4220  -32.2390 C   0  0  0  0  0  0  0  0  0  0  0  0
   -6.0998   16.5838  -31.8619 H   0  0  0  0  0  0  0  0  0  0  0  0
   -7.0250   16.3833  -33.3884 H   0  0  0  0  0  0  0  0  0  0  0  0
   -5.4798   17.2993  -33.3884 H   0  0  0  0  0  0  0  0  0  0  0  0
   -8.6351   17.2987  -31.3335 H   0  0  0  0  0  0  0  0  0  0  0  0
   -9.9613   19.3470  -30.8513 H   0  0  0  0  0  0  0  0  0  0  0  0
   -9.2423   21.5496  -31.7680 H   0  0  0  0  0  0  0  0  0  0  0  0
   -7.1869   21.7127  -33.1611 H   0  0  0  0  0  0  0  0  0  0  0  0
   -5.1991   18.7984  -34.3176 H   0  0  0  0  0  0  0  0  0  0  0  0
   -5.6694   20.5085  -34.6567 H   0  0  0  0  0  0  0  0  0  0  0  0
   -2.9691   18.6657  -33.6494 H   0  0  0  0  0  0  0  0  0  0  0  0
   -1.0294   19.5180  -32.2915 H   0  0  0  0  0  0  0  0  0  0  0  0
   -0.2424   21.6229  -30.5211 H   0  0  0  0  0  0  0  0  0  0  0  0
   -2.7390   25.6460  -29.3320 H   0  0  0  0  0  0  0  0  0  0  0  0
   -3.1480   25.6730  -30.9470 H   0  0  0  0  0  0  0  0  0  0  0  0
   -5.4235   21.9737  -32.2235 H   0  0  0  0  0  0  0  0  0  0  0  0
  1  2  1  0
  2  3  2  0
  3  4  1  0
  4  5  2  0
  5  6  1  0
  6  7  2  0
  7  8  1  0
  8  9  1  0
  9 10  2  0
 10 11  1  0
 11 12  2  0
 12 13  1  0
 13 14  2  0
 14 15  1  0
 15 16  1  0
 15 17  2  0
 14 18  1  0
 18 19  1  0
 19 20  1  0
 19 21  2  0
 18 22  1  0
 22 23  2  0
  7  2  1  0
 23  9  1  0
 22 12  1  0
  1 24  1  0
  1 25  1  0
  1 26  1  0
  3 27  1  0
  4 28  1  0
  5 29  1  0
  6 30  1  0
  8 31  1  0
  8 32  1  0
 10 33  1  0
 11 34  1  0
 13 35  1  0
 16 36  1  0
 20 37  1  0
 23 38  1  0
M  CHG  2  16  -1  20  -1
M  END
>  <UniqueID>  (21) 
21

>  <SMILES>  (21) 
Cc1ccccc1Cc1ccc2cc(C([NH-])=O)n(C([NH-])=O)c2c1

>  <Energy>  (21) 
80.06517190983706

>  <Genealogy>  (21) 
Cc1ccccc1Cc1ccc2cc(C([NH-])=O)n(C([NH-])=O)c2c1 (protonated)
Cc1ccccc1Cc1ccc2cc(C([NH-])=O)n(C([NH-])=O)c2c1 (3D coordinates assigned)
Cc1ccccc1Cc1ccc2cc(C([NH-])=O)n(C([NH-])=O)c2c1 (optimized conformer: 80.06517190983706 kcal/mol)

>  <smiles>  (21) 
Cc1ccccc1Cc1ccc2cc(C(N)=O)n(C(N)=O)c2c1

>  <score_type>  (21) 
oracle

>  <origin>  (21) 
adg

>  <m_score__min__energy>  (21) 
-12.27

>  <m_primary>  (21) 
energy

$$$$
21:0
     RDKit          3D

 39 40  0  0  0  0  0  0  0  0999 V2000
   -5.4220   24.0900  -29.5600 C   0  0  0  0  0  0  0  0  0  0  0  0
   -4.1860   24.3150  -30.3710 C   0  0  0  0  0  0  0  0  0  0  0  0
   -3.9780   25.4510  -30.8760 O   0  0  0  0  0  0  0  0  0  0  0  0
   -3.1980   23.2820  -30.5090 N   0  0  0  0  0  0  0  0  0  0  0  0
   -1.8950   23.3030  -30.1080 C   0  0  0  0  0  0  0  0  0  0  0  0
   -1.2560   24.3550  -29.2930 C   0  0  0  0  0  0  0  0  0  0  0  0
   -1.9520   25.5550  -28.9690 N   0  0  0  0  0  0  0  0  0  0  0  0
   -0.0930   24.1760  -28.8410 O   0  0  0  0  0  0  0  0  0  0  0  0
   -1.2450   22.1360  -30.5080 C   0  0  0  0  0  0  0  0  0  0  0  0
   -2.2000   21.3910  -31.1610 C   0  0  0  0  0  0  0  0  0  0  0  0
   -2.1030   20.1460  -31.7770 C   0  0  0  0  0  0  0  0  0  0  0  0
   -3.2520   19.6270  -32.3990 C   0  0  0  0  0  0  0  0  0  0  0  0
   -4.4690   20.3540  -32.3900 C   0  0  0  0  0  0  0  0  0  0  0  0
   -5.6800   19.8090  -33.1000 C   0  0  0  0  0  0  0  0  0  0  0  0
   -6.9240   20.6510  -32.7670 C   0  0  0  0  0  0  0  0  0  0  0  0
   -8.1830   19.8800  -32.9000 N   0  0  0  0  0  0  0  0  0  0  0  0
   -9.2790   20.5910  -32.2180 C   0  0  0  0  0  0  0  0  0  0  0  0
   -8.0530   18.5220  -32.3380 C   0  0  0  0  0  0  0  0  0  0  0  0
   -4.5260   21.6200  -31.7660 C   0  0  0  0  0  0  0  0  0  0  0  0
   -3.3700   22.1050  -31.1460 C   0  0  0  0  0  0  0  0  0  0  0  0
   -5.1717   24.1356  -28.4898 H   0  0  0  0  0  0  0  0  0  0  0  0
   -6.1626   24.8681  -29.7968 H   0  0  0  0  0  0  0  0  0  0  0  0
   -5.8409   23.1008  -29.7968 H   0  0  0  0  0  0  0  0  0  0  0  0
   -2.9640   25.6690  -29.2030 H   0  0  0  0  0  0  0  0  0  0  0  0
   -0.1919   21.8678  -30.3376 H   0  0  0  0  0  0  0  0  0  0  0  0
   -1.1564   19.5857  -31.7770 H   0  0  0  0  0  0  0  0  0  0  0  0
   -3.2063   18.6475  -32.8974 H   0  0  0  0  0  0  0  0  0  0  0  0
   -5.5053   19.8349  -34.1857 H   0  0  0  0  0  0  0  0  0  0  0  0
   -5.8514   18.7743  -32.7682 H   0  0  0  0  0  0  0  0  0  0  0  0
   -6.8390   21.0118  -31.7314 H   0  0  0  0  0  0  0  0  0  0  0  0
   -6.9651   21.4847  -33.4834 H   0  0  0  0  0  0  0  0  0  0  0  0
   -8.4380   19.8010  -33.9130 H   0  0  0  0  0  0  0  0  0  0  0  0
   -9.1490   20.5067  -31.1290 H   0  0  0  0  0  0  0  0  0  0  0  0
   -9.2642   21.6520  -32.5080 H   0  0  0  0  0  0  0  0  0  0  0  0
  -10.2418   20.1450  -32.5080 H   0  0  0  0  0  0  0  0  0  0  0  0
   -8.0583   18.5778  -31.2394 H   0  0  0  0  0  0  0  0  0  0  0  0
   -8.8959   17.9023  -32.6778 H   0  0  0  0  0  0  0  0  0  0  0  0
   -7.1078   18.0735  -32.6778 H   0  0  0  0  0  0  0  0  0  0  0  0
   -5.4551   22.2089  -31.7677 H   0  0  0  0  0  0  0  0  0  0  0  0
  1  2  1  0
  2  3  2  0
  2  4  1  0
  4  5  1  0
  5  6  1  0
  6  7  1  0
  6  8  2  0
  5  9  2  0
  9 10  1  0
 10 11  2  0
 11 12  1  0
 12 13  2  0
 13 14  1  0
 14 15  1  0
 15 16  1  0
 16 17  1  0
 16 18  1  0
 13 19  1  0
 19 20  2  0
 20  4  1  0
 20 10  1  0
  1 21  1  0
  1 22  1  0
  1 23  1  0
  7 24  1  0
  9 25  1  0
 11 26  1  0
 12 27  1  0
 14 28  1  0
 14 29  1  0
 15 30  1  0
 15 31  1  0
 16 32  1  0
 17 33  1  0
 17 34  1  0
 17 35  1  0
 18 36  1  0
 18 37  1  0
 18 38  1  0
 19 39  1  0
M  CHG  2   7  -1  16   1
M  END
>  <UniqueID>  (22) 
22

>  <SMILES>  (22) 
CC(=O)n1c(C([NH-])=O)cc2ccc(CC[NH+](C)C)cc21

>  <Energy>  (22) 
76.61267810821384

>  <Genealogy>  (22) 
CC(=O)n1c(C([NH-])=O)cc2ccc(CC[NH+](C)C)cc21 (protonated)
CC(=O)n1c(C([NH-])=O)cc2ccc(CC[NH+](C)C)cc21 (3D coordinates assigned)
CC(=O)n1c(C([NH-])=O)cc2ccc(CC[NH+](C)C)cc21 (optimized conformer: 76.61267810821384 kcal/mol)

>  <smiles>  (22) 
CC(=O)n1c(C(N)=O)cc2ccc(CCN(C)C)cc21

>  <score_type>  (22) 
oracle

>  <origin>  (22) 
adg

>  <m_score__min__energy>  (22) 
-9.7799999999999994

>  <m_primary>  (22) 
energy

$$$$
22:0
     RDKit          3D

 41 42  0  0  0  0  0  0  0  0999 V2000
   -2.9770   15.1170  -33.8450 C   0  0  0  0  0  0  0  0  0  0  0  0
   -4.2890   15.3130  -33.2180 N   0  0  0  0  0  0  0  0  0  0  0  0
   -4.6170   14.6090  -31.9740 C   0  0  0  0  0  0  0  0  0  0  0  0
   -5.2870   16.1660  -33.8210 C   0  0  0  0  0  0  0  0  0  0  0  0
   -6.4910   16.0650  -33.4560 O   0  0  0  0  0  0  0  0  0  0  0  0
   -4.9450   17.1510  -34.9140 C   0  0  0  0  0  0  0  0  0  0  0  0
   -5.3840   18.5890  -34.5830 C   0  0  0  0  0  0  0  0  0  0  0  0
   -4.6850   19.1950  -33.3520 C   0  0  0  0  0  0  0  0  0  0  0  0
   -5.4970   20.2930  -32.7170 C   0  0  0  0  0  0  0  0  0  0  0  0
   -6.9080   20.3060  -32.8520 C   0  0  0  0  0  0  0  0  0  0  0  0
   -7.6670   21.3630  -32.3240 C   0  0  0  0  0  0  0  0  0  0  0  0
   -6.9910   22.3890  -31.6700 C   0  0  0  0  0  0  0  0  0  0  0  0
   -7.4740   23.5550  -31.1220 C   0  0  0  0  0  0  0  0  0  0  0  0
   -6.3530   24.2270  -30.6430 C   0  0  0  0  0  0  0  0  0  0  0  0
   -6.4240   25.5160  -29.9270 C   0  0  0  0  0  0  0  0  0  0  0  0
   -5.5540   26.5980  -30.2630 N   0  0  0  0  0  0  0  0  0  0  0  0
   -7.2300   25.6460  -28.9670 O   0  0  0  0  0  0  0  0  0  0  0  0
   -5.2180   23.5140  -30.8930 N   0  0  0  0  0  0  0  0  0  0  0  0
   -3.8600   23.9400  -30.6880 C   0  0  0  0  0  0  0  0  0  0  0  0
   -2.9410   23.0930  -30.5310 O   0  0  0  0  0  0  0  0  0  0  0  0
   -3.5440   25.2930  -30.6750 O   0  0  0  0  0  0  0  0  0  0  0  0
   -5.6280   22.3850  -31.5160 C   0  0  0  0  0  0  0  0  0  0  0  0
   -4.8480   21.3490  -32.0390 C   0  0  0  0  0  0  0  0  0  0  0  0
   -2.2108   15.0025  -33.0641 H   0  0  0  0  0  0  0  0  0  0  0  0
   -3.0010   14.2125  -34.4705 H   0  0  0  0  0  0  0  0  0  0  0  0
   -2.7356   15.9890  -34.4705 H   0  0  0  0  0  0  0  0  0  0  0  0
   -4.3275   15.2304  -31.1137 H   0  0  0  0  0  0  0  0  0  0  0  0
   -5.6989   14.4136  -31.9376 H   0  0  0  0  0  0  0  0  0  0  0  0
   -4.0707   13.6550  -31.9376 H   0  0  0  0  0  0  0  0  0  0  0  0
   -3.8555   17.1427  -35.0658 H   0  0  0  0  0  0  0  0  0  0  0  0
   -5.4867   16.8406  -35.8197 H   0  0  0  0  0  0  0  0  0  0  0  0
   -5.1641   19.2256  -35.4527 H   0  0  0  0  0  0  0  0  0  0  0  0
   -6.4575   18.5453  -34.3472 H   0  0  0  0  0  0  0  0  0  0  0  0
   -4.5236   18.3996  -32.6095 H   0  0  0  0  0  0  0  0  0  0  0  0
   -3.7322   19.6313  -33.6866 H   0  0  0  0  0  0  0  0  0  0  0  0
   -7.4130   19.4806  -33.3751 H   0  0  0  0  0  0  0  0  0  0  0  0
   -8.7623   21.3796  -32.4242 H   0  0  0  0  0  0  0  0  0  0  0  0
   -8.5220   23.8855  -31.0729 H   0  0  0  0  0  0  0  0  0  0  0  0
   -4.7660   26.4680  -30.9340 H   0  0  0  0  0  0  0  0  0  0  0  0
   -5.6470   27.5150  -29.7720 H   0  0  0  0  0  0  0  0  0  0  0  0
   -3.7539   21.3560  -31.9251 H   0  0  0  0  0  0  0  0  0  0  0  0
  1  2  1  0
  2  3  1  0
  2  4  1  0
  4  5  2  0
  4  6  1  0
  6  7  1  0
  7  8  1  0
  8  9  1  0
  9 10  2  0
 10 11  1  0
 11 12  2  0
 12 13  1  0
 13 14  2  0
 14 15  1  0
 15 16  1  0
 15 17  2  0
 14 18  1  0
 18 19  1  0
 19 20  2  0
 19 21  1  0
 18 22  1  0
 22 23  2  0
 23  9  1  0
 22 12  1  0
  1 24  1  0
  1 25  1  0
  1 26  1  0
  3 27  1  0
  3 28  1  0
  3 29  1  0
  6 30  1  0
  6 31  1  0
  7 32  1  0
  7 33  1  0
  8 34  1  0
  8 35  1  0
 10 36  1  0
 11 37  1  0
 13 38  1  0
 16 39  1  0
 16 40  1  0
 23 41  1  0
M  CHG  1  21  -1
M  END
>  <UniqueID>  (23) 
23

>  <SMILES>  (23) 
CN(C)C(=O)CCCc1ccc2cc(C(N)=O)n(C(=O)[O-])c2c1

>  <Energy>  (23) 
72.87984561846673

>  <Genealogy>  (23) 
CN(C)C(=O)CCCc1ccc2cc(C(N)=O)n(C(=O)[O-])c2c1 (protonated)
CN(C)C(=O)CCCc1ccc2cc(C(N)=O)n(C(=O)[O-])c2c1 (3D coordinates assigned)
CN(C)C(=O)CCCc1ccc2cc(C(N)=O)n(C(=O)[O-])c2c1 (optimized conformer: 72.87984561846673 kcal/mol)

>  <smiles>  (23) 
CN(C)C(=O)CCCc1ccc2cc(C(N)=O)n(C(=O)O)c2c1

>  <score_type>  (23) 
oracle

>  <origin>  (23) 
adg

>  <m_score__min__energy>  (23) 
-9.1199999999999992

>  <m_primary>  (23) 
energy

$$$$
23:0
     RDKit          3D

 38 39  0  0  0  0  0  0  0  0999 V2000
   -9.1090   18.9020  -31.9130 C   0  0  0  0  0  0  0  0  0  0  0  0
   -7.8390   18.1330  -31.5650 C   0  0  0  0  0  0  0  0  0  0  0  0
   -7.4960   17.2260  -32.6110 O   0  0  0  0  0  0  0  0  0  0  0  0
   -6.1760   16.9190  -32.9620 C   0  0  0  0  0  0  0  0  0  0  0  0
   -5.4300   16.2790  -32.1720 O   0  0  0  0  0  0  0  0  0  0  0  0
   -5.6330   17.4060  -34.2670 C   0  0  0  0  0  0  0  0  0  0  0  0
   -4.5030   18.4110  -34.0340 C   0  0  0  0  0  0  0  0  0  0  0  0
   -5.0460   19.6890  -33.4560 C   0  0  0  0  0  0  0  0  0  0  0  0
   -6.4230   19.9990  -33.5870 C   0  0  0  0  0  0  0  0  0  0  0  0
   -6.9520   21.1650  -33.0090 C   0  0  0  0  0  0  0  0  0  0  0  0
   -6.0840   21.9990  -32.3110 C   0  0  0  0  0  0  0  0  0  0  0  0
   -6.3410   23.1610  -31.6200 C   0  0  0  0  0  0  0  0  0  0  0  0
   -5.1150   23.5550  -31.0950 C   0  0  0  0  0  0  0  0  0  0  0  0
   -4.9250   24.7960  -30.3170 C   0  0  0  0  0  0  0  0  0  0  0  0
   -5.5940   24.9990  -29.0710 N   0  0  0  0  0  0  0  0  0  0  0  0
   -4.1160   25.6680  -30.7320 O   0  0  0  0  0  0  0  0  0  0  0  0
   -4.1360   22.6690  -31.4350 N   0  0  0  0  0  0  0  0  0  0  0  0
   -2.7700   22.6660  -30.9890 C   0  0  0  0  0  0  0  0  0  0  0  0
   -2.3330   23.5910  -29.9960 N   0  0  0  0  0  0  0  0  0  0  0  0
   -1.9490   21.8390  -31.4680 O   0  0  0  0  0  0  0  0  0  0  0  0
   -4.7470   21.7200  -32.1820 C   0  0  0  0  0  0  0  0  0  0  0  0
   -4.1980   20.5530  -32.7280 C   0  0  0  0  0  0  0  0  0  0  0  0
   -9.6168   19.2095  -30.9870 H   0  0  0  0  0  0  0  0  0  0  0  0
   -8.8479   19.7939  -32.5015 H   0  0  0  0  0  0  0  0  0  0  0  0
   -9.7784   18.2573  -32.5015 H   0  0  0  0  0  0  0  0  0  0  0  0
   -7.0137   18.8456  -31.4200 H   0  0  0  0  0  0  0  0  0  0  0  0
   -8.0145   17.5593  -30.6430 H   0  0  0  0  0  0  0  0  0  0  0  0
   -5.2448   16.5508  -34.8396 H   0  0  0  0  0  0  0  0  0  0  0  0
   -6.4404   17.9010  -34.8265 H   0  0  0  0  0  0  0  0  0  0  0  0
   -3.7726   17.9787  -33.3342 H   0  0  0  0  0  0  0  0  0  0  0  0
   -4.0199   18.6329  -34.9970 H   0  0  0  0  0  0  0  0  0  0  0  0
   -7.0835   19.3202  -34.1465 H   0  0  0  0  0  0  0  0  0  0  0  0
   -8.0198   21.4112  -33.1053 H   0  0  0  0  0  0  0  0  0  0  0  0
   -7.3097   23.6697  -31.5070 H   0  0  0  0  0  0  0  0  0  0  0  0
   -5.4790   25.9000  -28.5570 H   0  0  0  0  0  0  0  0  0  0  0  0
   -6.1310   24.2290  -28.6150 H   0  0  0  0  0  0  0  0  0  0  0  0
   -2.3100   24.6170  -30.1910 H   0  0  0  0  0  0  0  0  0  0  0  0
   -3.1325   20.3150  -32.5933 H   0  0  0  0  0  0  0  0  0  0  0  0
  1  2  1  0
  2  3  1  0
  3  4  1  0
  4  5  2  0
  4  6  1  0
  6  7  1  0
  7  8  1  0
  8  9  2  0
  9 10  1  0
 10 11  2  0
 11 12  1  0
 12 13  2  0
 13 14  1  0
 14 15  1  0
 14 16  2  0
 13 17  1  0
 17 18  1  0
 18 19  1  0
 18 20  2  0
 17 21  1  0
 21 22  2  0
 22  8  1  0
 21 11  1  0
  1 23  1  0
  1 24  1  0
  1 25  1  0
  2 26  1  0
  2 27  1  0
  6 28  1  0
  6 29  1  0
  7 30  1  0
  7 31  1  0
  9 32  1  0
 10 33  1  0
 12 34  1  0
 15 35  1  0
 15 36  1  0
 19 37  1  0
 22 38  1  0
M  CHG  1  19  -1
M  END
>  <UniqueID>  (24) 
24

>  <SMILES>  (24) 
CCOC(=O)CCc1ccc2cc(C(N)=O)n(C([NH-])=O)c2c1

>  <Energy>  (24) 
69.49245798598247

>  <Genealogy>  (24) 
CCOC(=O)CCc1ccc2cc(C(N)=O)n(C([NH-])=O)c2c1 (protonated)
CCOC(=O)CCc1ccc2cc(C(N)=O)n(C([NH-])=O)c2c1 (3D coordinates assigned)
CCOC(=O)CCc1ccc2cc(C(N)=O)n(C([NH-])=O)c2c1 (optimized conformer: 69.49245798598247 kcal/mol)

>  <smiles>  (24) 
CCOC(=O)CCc1ccc2cc(C(N)=O)n(C(N)=O)c2c1

>  <score_type>  (24) 
oracle

>  <origin>  (24) 
adg

>  <m_score__min__energy>  (24) 
-8.4199999999999999

>  <m_primary>  (24) 
energy

$$$$
24:0
     RDKit          3D

 42 44  0  0  0  0  0  0  0  0999 V2000
   -3.2210   20.0000  -33.3150 C   0  0  0  0  0  0  0  0  0  0  0  0
   -3.2820   21.5220  -33.3850 C   0  0  0  0  0  0  0  0  0  0  0  0
   -3.2440   22.0880  -32.0770 O   0  0  0  0  0  0  0  0  0  0  0  0
   -4.0960   21.6920  -31.0390 C   0  0  0  0  0  0  0  0  0  0  0  0
   -3.6670   20.9540  -30.1110 O   0  0  0  0  0  0  0  0  0  0  0  0
   -5.4630   22.1350  -31.0320 N   0  0  0  0  0  0  0  0  0  0  0  0
   -5.9240   23.3810  -30.7280 C   0  0  0  0  0  0  0  0  0  0  0  0
   -5.1230   24.4890  -30.1740 C   0  0  0  0  0  0  0  0  0  0  0  0
   -5.2830   24.9150  -28.8200 N   0  0  0  0  0  0  0  0  0  0  0  0
   -4.3210   25.1080  -30.9240 O   0  0  0  0  0  0  0  0  0  0  0  0
   -7.2940   23.4690  -30.9600 C   0  0  0  0  0  0  0  0  0  0  0  0
   -7.6670   22.2230  -31.4100 C   0  0  0  0  0  0  0  0  0  0  0  0
   -8.9170   21.7500  -31.7990 C   0  0  0  0  0  0  0  0  0  0  0  0
   -9.0080   20.4250  -32.2530 C   0  0  0  0  0  0  0  0  0  0  0  0
   -7.8530   19.6070  -32.3280 C   0  0  0  0  0  0  0  0  0  0  0  0
   -7.9670   18.1810  -32.7910 C   0  0  0  0  0  0  0  0  0  0  0  0
   -6.6310   17.6860  -33.2750 C   0  0  0  0  0  0  0  0  0  0  0  0
   -6.1080   18.1370  -34.4980 C   0  0  0  0  0  0  0  0  0  0  0  0
   -4.8830   17.6470  -34.9650 C   0  0  0  0  0  0  0  0  0  0  0  0
   -4.1790   16.6980  -34.2180 C   0  0  0  0  0  0  0  0  0  0  0  0
   -4.6990   16.2350  -33.0060 C   0  0  0  0  0  0  0  0  0  0  0  0
   -4.0170   15.3090  -32.2870 F   0  0  0  0  0  0  0  0  0  0  0  0
   -5.9230   16.7230  -32.5360 C   0  0  0  0  0  0  0  0  0  0  0  0
   -6.6020   20.1190  -31.9180 C   0  0  0  0  0  0  0  0  0  0  0  0
   -6.5430   21.4360  -31.4470 C   0  0  0  0  0  0  0  0  0  0  0  0
   -3.2082   19.6816  -32.2622 H   0  0  0  0  0  0  0  0  0  0  0  0
   -4.1028   19.5743  -33.8162 H   0  0  0  0  0  0  0  0  0  0  0  0
   -2.3080   19.6462  -33.8162 H   0  0  0  0  0  0  0  0  0  0  0  0
   -2.4226   21.8917  -33.9636 H   0  0  0  0  0  0  0  0  0  0  0  0
   -4.2240   21.8165  -33.8708 H   0  0  0  0  0  0  0  0  0  0  0  0
   -4.6780   25.6730  -28.4330 H   0  0  0  0  0  0  0  0  0  0  0  0
   -6.0520   24.5370  -28.2240 H   0  0  0  0  0  0  0  0  0  0  0  0
   -7.9404   24.3471  -30.8146 H   0  0  0  0  0  0  0  0  0  0  0  0
   -9.8067   22.3952  -31.7520 H   0  0  0  0  0  0  0  0  0  0  0  0
   -9.9847   20.0177  -32.5533 H   0  0  0  0  0  0  0  0  0  0  0  0
   -8.3063   17.5528  -31.9542 H   0  0  0  0  0  0  0  0  0  0  0  0
   -8.6915   18.1275  -33.6170 H   0  0  0  0  0  0  0  0  0  0  0  0
   -6.6634   18.8783  -35.0912 H   0  0  0  0  0  0  0  0  0  0  0  0
   -4.4741   18.0087  -35.9200 H   0  0  0  0  0  0  0  0  0  0  0  0
   -3.2150   16.3153  -34.5843 H   0  0  0  0  0  0  0  0  0  0  0  0
   -6.3325   16.3517  -31.5850 H   0  0  0  0  0  0  0  0  0  0  0  0
   -5.6957   19.4976  -31.9676 H   0  0  0  0  0  0  0  0  0  0  0  0
  1  2  1  0
  2  3  1  0
  3  4  1  0
  4  5  2  0
  4  6  1  0
  6  7  1  0
  7  8  1  0
  8  9  1  0
  8 10  2  0
  7 11  2  0
 11 12  1  0
 12 13  2  0
 13 14  1  0
 14 15  2  0
 15 16  1  0
 16 17  1  0
 17 18  2  0
 18 19  1  0
 19 20  2  0
 20 21  1  0
 21 22  1  0
 21 23  2  0
 15 24  1  0
 24 25  2  0
 25  6  1  0
 25 12  1  0
 23 17  1  0
  1 26  1  0
  1 27  1  0
  1 28  1  0
  2 29  1  0
  2 30  1  0
  9 31  1  0
  9 32  1  0
 11 33  1  0
 13 34  1  0
 14 35  1  0
 16 36  1  0
 16 37  1  0
 18 38  1  0
 19 39  1  0
 20 40  1  0
 23 41  1  0
 24 42  1  0
M  END
>  <UniqueID>  (25) 
25

>  <SMILES>  (25) 
CCOC(=O)n1c(C(N)=O)cc2ccc(Cc3cccc(F)c3)cc21

>  <Energy>  (25) 
78.06721269680077

>  <Genealogy>  (25) 
CCOC(=O)n1c(C(N)=O)cc2ccc(Cc3cccc(F)c3)cc21 (3D coordinates assigned)
CCOC(=O)n1c(C(N)=O)cc2ccc(Cc3cccc(F)c3)cc21 (optimized conformer: 78.06721269680077 kcal/mol)

>  <smiles>  (25) 
CCOC(=O)n1c(C(N)=O)cc2ccc(Cc3cccc(F)c3)cc21

>  <score_type>  (25) 
oracle

>  <origin>  (25) 
adg

>  <m_score__min__energy>  (25) 
-9.3200000000000003

>  <m_primary>  (25) 
energy

$$$$
25:0
     RDKit          3D

 32 34  0  0  0  0  0  0  0  0999 V2000
   -1.5940   25.6770  -29.2500 N   0  0  0  0  0  0  0  0  0  0  0  0
   -1.2440   24.2970  -29.3060 C   0  0  0  0  0  0  0  0  0  0  0  0
   -0.0850   23.9400  -28.9630 O   0  0  0  0  0  0  0  0  0  0  0  0
   -2.2020   23.2900  -29.8060 C   0  0  0  0  0  0  0  0  0  0  0  0
   -1.8320   22.0050  -30.1980 C   0  0  0  0  0  0  0  0  0  0  0  0
   -2.9810   21.4270  -30.6860 C   0  0  0  0  0  0  0  0  0  0  0  0
   -3.1930   20.1530  -31.2020 C   0  0  0  0  0  0  0  0  0  0  0  0
   -4.4950   19.8160  -31.6110 C   0  0  0  0  0  0  0  0  0  0  0  0
   -5.5600   20.7480  -31.4920 C   0  0  0  0  0  0  0  0  0  0  0  0
   -6.9340   20.3780  -31.9180 C   0  0  0  0  0  0  0  0  0  0  0  0
   -7.9760   21.3210  -31.8900 C   0  0  0  0  0  0  0  0  0  0  0  0
   -9.2620   20.9580  -32.2930 C   0  0  0  0  0  0  0  0  0  0  0  0
   -9.5010   19.6530  -32.7230 C   0  0  0  0  0  0  0  0  0  0  0  0
   -8.4890   18.7480  -32.7460 N   0  0  0  0  0  0  0  0  0  0  0  0
   -7.2260   19.0760  -32.3600 C   0  0  0  0  0  0  0  0  0  0  0  0
   -5.3000   22.0340  -30.9600 C   0  0  0  0  0  0  0  0  0  0  0  0
   -3.9910   22.3460  -30.5760 C   0  0  0  0  0  0  0  0  0  0  0  0
   -3.5310   23.4930  -30.0330 N   0  0  0  0  0  0  0  0  0  0  0  0
   -4.3180   24.6460  -29.6960 C   0  0  0  0  0  0  0  0  0  0  0  0
   -5.2140   24.6100  -28.5860 N   0  0  0  0  0  0  0  0  0  0  0  0
   -4.2450   25.6850  -30.4050 O   0  0  0  0  0  0  0  0  0  0  0  0
   -2.5520   25.9760  -28.9630 H   0  0  0  0  0  0  0  0  0  0  0  0
   -0.8330   21.5494  -30.1314 H   0  0  0  0  0  0  0  0  0  0  0  0
   -2.3673   19.4313  -31.2874 H   0  0  0  0  0  0  0  0  0  0  0  0
   -4.6915   18.8175  -32.0286 H   0  0  0  0  0  0  0  0  0  0  0  0
   -7.7773   22.3479  -31.5495 H   0  0  0  0  0  0  0  0  0  0  0  0
  -10.0791   21.6941  -32.2717 H   0  0  0  0  0  0  0  0  0  0  0  0
  -10.5105   19.3565  -33.0439 H   0  0  0  0  0  0  0  0  0  0  0  0
   -6.4293   18.3182  -32.3941 H   0  0  0  0  0  0  0  0  0  0  0  0
   -6.1089   22.7714  -30.8509 H   0  0  0  0  0  0  0  0  0  0  0  0
   -5.3430   23.7330  -28.0350 H   0  0  0  0  0  0  0  0  0  0  0  0
   -5.7770   25.4540  -28.3350 H   0  0  0  0  0  0  0  0  0  0  0  0
  1  2  1  0
  2  3  2  0
  2  4  1  0
  4  5  2  0
  5  6  1  0
  6  7  2  0
  7  8  1  0
  8  9  2  0
  9 10  1  0
 10 11  2  0
 11 12  1  0
 12 13  2  0
 13 14  1  0
 14 15  2  0
  9 16  1  0
 16 17  2  0
 17 18  1  0
 18 19  1  0
 19 20  1  0
 19 21  2  0
 18  4  1  0
 17  6  1  0
 15 10  1  0
  1 22  1  0
  5 23  1  0
  7 24  1  0
  8 25  1  0
 11 26  1  0
 12 27  1  0
 13 28  1  0
 15 29  1  0
 16 30  1  0
 20 31  1  0
 20 32  1  0
M  CHG  1   1  -1
M  END
>  <UniqueID>  (26) 
26

>  <SMILES>  (26) 
[NH-]C(=O)c1cc2ccc(-c3cccnc3)cc2n1C(N)=O

>  <Energy>  (26) 
79.51336266694979

>  <Genealogy>  (26) 
[NH-]C(=O)c1cc2ccc(-c3cccnc3)cc2n1C(N)=O (protonated)
[NH-]C(=O)c1cc2ccc(-c3cccnc3)cc2n1C(N)=O (3D coordinates assigned)
[NH-]C(=O)c1cc2ccc(-c3cccnc3)cc2n1C(N)=O (optimized conformer: 79.51336266694979 kcal/mol)

>  <smiles>  (26) 
NC(=O)c1cc2ccc(-c3cccnc3)cc2n1C(N)=O

>  <score_type>  (26) 
oracle

>  <origin>  (26) 
adg

>  <m_score__min__energy>  (26) 
-10.390000000000001

>  <m_primary>  (26) 
energy

$$$$
26:0
     RDKit          3D

 49 51  0  0  0  0  0  0  0  0999 V2000
   -9.2690   21.6320  -30.1360 C   0  0  0  0  0  0  0  0  0  0  0  0
   -9.1450   21.7760  -31.5970 N   0  0  0  0  0  0  0  0  0  0  0  0
   -7.8490   22.3680  -31.9860 C   0  0  0  0  0  0  0  0  0  0  0  0
   -6.6630   21.4010  -31.7900 C   0  0  0  0  0  0  0  0  0  0  0  0
   -7.0310   19.9160  -32.0410 C   0  0  0  0  0  0  0  0  0  0  0  0
   -5.9020   19.1630  -32.6220 N   0  0  0  0  0  0  0  0  0  0  0  0
   -5.1810   19.8770  -33.6950 C   0  0  0  0  0  0  0  0  0  0  0  0
   -3.6840   19.4980  -33.8090 C   0  0  0  0  0  0  0  0  0  0  0  0
   -2.8260   20.1900  -32.7760 C   0  0  0  0  0  0  0  0  0  0  0  0
   -1.5360   19.6880  -32.4730 C   0  0  0  0  0  0  0  0  0  0  0  0
   -0.7130   20.3410  -31.5410 C   0  0  0  0  0  0  0  0  0  0  0  0
   -1.2020   21.4930  -30.9340 C   0  0  0  0  0  0  0  0  0  0  0  0
   -0.6160   22.3190  -30.0020 C   0  0  0  0  0  0  0  0  0  0  0  0
   -1.5500   23.3230  -29.7630 C   0  0  0  0  0  0  0  0  0  0  0  0
   -1.2940   24.4740  -28.8750 C   0  0  0  0  0  0  0  0  0  0  0  0
   -2.3620   25.3010  -28.4110 N   0  0  0  0  0  0  0  0  0  0  0  0
   -0.1090   24.7660  -28.5660 O   0  0  0  0  0  0  0  0  0  0  0  0
   -2.6780   23.1200  -30.5010 N   0  0  0  0  0  0  0  0  0  0  0  0
   -3.8900   23.8920  -30.4730 C   0  0  0  0  0  0  0  0  0  0  0  0
   -3.8510   25.3030  -30.6710 N   0  0  0  0  0  0  0  0  0  0  0  0
   -4.9940   23.3250  -30.2590 O   0  0  0  0  0  0  0  0  0  0  0  0
   -2.4490   21.9910  -31.2110 C   0  0  0  0  0  0  0  0  0  0  0  0
   -3.3060   21.3370  -32.1030 C   0  0  0  0  0  0  0  0  0  0  0  0
   -8.2500   19.8280  -32.9670 C   0  0  0  0  0  0  0  0  0  0  0  0
   -9.4710   20.5230  -32.3270 C   0  0  0  0  0  0  0  0  0  0  0  0
   -8.6288   22.3755  -29.6386 H   0  0  0  0  0  0  0  0  0  0  0  0
  -10.3160   21.7926  -29.8393 H   0  0  0  0  0  0  0  0  0  0  0  0
   -8.9548   20.6204  -29.8393 H   0  0  0  0  0  0  0  0  0  0  0  0
   -7.8978   22.6526  -33.0474 H   0  0  0  0  0  0  0  0  0  0  0  0
   -7.6757   23.2382  -31.3358 H   0  0  0  0  0  0  0  0  0  0  0  0
   -5.8626   21.6848  -32.4891 H   0  0  0  0  0  0  0  0  0  0  0  0
   -6.3467   21.4840  -30.7397 H   0  0  0  0  0  0  0  0  0  0  0  0
   -7.2721   19.4617  -31.0686 H   0  0  0  0  0  0  0  0  0  0  0  0
   -5.2150   18.9310  -31.8660 H   0  0  0  0  0  0  0  0  0  0  0  0
   -5.6700   19.6464  -34.6530 H   0  0  0  0  0  0  0  0  0  0  0  0
   -5.2198   20.9478  -33.4462 H   0  0  0  0  0  0  0  0  0  0  0  0
   -3.5855   18.4104  -33.6766 H   0  0  0  0  0  0  0  0  0  0  0  0
   -3.3346   19.8210  -34.8008 H   0  0  0  0  0  0  0  0  0  0  0  0
   -1.1753   18.7771  -32.9731 H   0  0  0  0  0  0  0  0  0  0  0  0
    0.2875   19.9534  -31.2985 H   0  0  0  0  0  0  0  0  0  0  0  0
    0.3780   22.2092  -29.5439 H   0  0  0  0  0  0  0  0  0  0  0  0
   -2.1670   26.0850  -27.7490 H   0  0  0  0  0  0  0  0  0  0  0  0
   -3.3300   25.1960  -28.7880 H   0  0  0  0  0  0  0  0  0  0  0  0
   -4.1270   25.7250  -31.5850 H   0  0  0  0  0  0  0  0  0  0  0  0
   -4.3277   21.7060  -32.2763 H   0  0  0  0  0  0  0  0  0  0  0  0
   -8.0142   20.3194  -33.9225 H   0  0  0  0  0  0  0  0  0  0  0  0
   -8.4926   18.7681  -33.1334 H   0  0  0  0  0  0  0  0  0  0  0  0
  -10.1878   20.7653  -33.1254 H   0  0  0  0  0  0  0  0  0  0  0  0
   -9.8809   19.8221  -31.5849 H   0  0  0  0  0  0  0  0  0  0  0  0
  1  2  1  0
  2  3  1  0
  3  4  1  0
  4  5  1  0
  5  6  1  0
  6  7  1  0
  7  8  1  0
  8  9  1  0
  9 10  2  0
 10 11  1  0
 11 12  2  0
 12 13  1  0
 13 14  2  0
 14 15  1  0
 15 16  1  0
 15 17  2  0
 14 18  1  0
 18 19  1  0
 19 20  1  0
 19 21  2  0
 18 22  1  0
 22 23  2  0
  5 24  1  0
 24 25  1  0
 25  2  1  0
 23  9  1  0
 22 12  1  0
  1 26  1  0
  1 27  1  0
  1 28  1  0
  3 29  1  0
  3 30  1  0
  4 31  1  0
  4 32  1  0
  5 33  1  0
  6 34  1  0
  7 35  1  0
  7 36  1  0
  8 37  1  0
  8 38  1  0
 10 39  1  0
 11 40  1  0
 13 41  1  0
 16 42  1  0
 16 43  1  0
 20 44  1  0
 23 45  1  0
 24 46  1  0
 24 47  1  0
 25 48  1  0
 25 49  1  0
M  CHG  1  20  -1
M  END
>  <UniqueID>  (27) 
27

>  <SMILES>  (27) 
CN1CCC(NCCc2ccc3cc(C(N)=O)n(C([NH-])=O)c3c2)CC1

>  <Energy>  (27) 
96.9043255551216

>  <Genealogy>  (27) 
CN1CCC(NCCc2ccc3cc(C(N)=O)n(C([NH-])=O)c3c2)CC1 (protonated)
CN1CCC(NCCc2ccc3cc(C(N)=O)n(C([NH-])=O)c3c2)CC1 (3D coordinates assigned)
CN1CCC(NCCc2ccc3cc(C(N)=O)n(C([NH-])=O)c3c2)CC1 (nonaromatic ring conformer: 96.9043255551216 kcal/mol)

>  <smiles>  (27) 
CN1CCC(NCCc2ccc3cc(C(N)=O)n(C(N)=O)c3c2)CC1

>  <score_type>  (27) 
oracle

>  <origin>  (27) 
adg

>  <m_score__min__energy>  (27) 
-9.8200000000000003

>  <m_primary>  (27) 
energy

$$$$
27:0
     RDKit          3D

 35 38  0  0  0  0  0  0  0  0999 V2000
   -5.6320   26.4980  -30.2090 N   0  0  0  0  0  0  0  0  0  0  0  0
   -6.4120   25.3320  -29.9420 C   0  0  0  0  0  0  0  0  0  0  0  0
   -7.2290   25.3440  -28.9830 O   0  0  0  0  0  0  0  0  0  0  0  0
   -6.2320   24.0940  -30.7250 C   0  0  0  0  0  0  0  0  0  0  0  0
   -7.2890   23.3800  -31.2820 C   0  0  0  0  0  0  0  0  0  0  0  0
   -6.7140   22.2770  -31.8670 C   0  0  0  0  0  0  0  0  0  0  0  0
   -7.3010   21.2360  -32.5780 C   0  0  0  0  0  0  0  0  0  0  0  0
   -6.4610   20.2430  -33.1080 C   0  0  0  0  0  0  0  0  0  0  0  0
   -5.0550   20.3110  -32.9320 C   0  0  0  0  0  0  0  0  0  0  0  0
   -4.1750   19.2630  -33.5100 C   0  0  0  0  0  0  0  0  0  0  0  0
   -2.7610   19.3930  -33.4440 C   0  0  0  0  0  0  0  0  0  0  0  0
   -1.9230   18.4020  -33.9890 C   0  0  0  0  0  0  0  0  0  0  0  0
   -2.5240   17.3010  -34.5890 C   0  0  0  0  0  0  0  0  0  0  0  0
   -3.8710   17.1660  -34.6570 C   0  0  0  0  0  0  0  0  0  0  0  0
   -4.7360   18.1210  -34.1310 C   0  0  0  0  0  0  0  0  0  0  0  0
   -4.1840   15.9870  -35.3050 O   0  0  0  0  0  0  0  0  0  0  0  0
   -2.9540   15.3400  -35.6650 C   0  0  0  0  0  0  0  0  0  0  0  0
   -1.9210   16.2120  -35.1890 O   0  0  0  0  0  0  0  0  0  0  0  0
   -4.4960   21.3880  -32.2030 C   0  0  0  0  0  0  0  0  0  0  0  0
   -5.3590   22.3510  -31.6650 C   0  0  0  0  0  0  0  0  0  0  0  0
   -5.0460   23.4660  -30.9670 N   0  0  0  0  0  0  0  0  0  0  0  0
   -3.7250   23.9430  -30.6550 C   0  0  0  0  0  0  0  0  0  0  0  0
   -2.7660   23.1330  -30.5500 O   0  0  0  0  0  0  0  0  0  0  0  0
   -3.4930   25.2980  -30.4620 O   0  0  0  0  0  0  0  0  0  0  0  0
   -4.8320   26.4690  -30.8810 H   0  0  0  0  0  0  0  0  0  0  0  0
   -5.7990   27.3760  -29.6710 H   0  0  0  0  0  0  0  0  0  0  0  0
   -8.3570   23.6425  -31.2590 H   0  0  0  0  0  0  0  0  0  0  0  0
   -8.3908   21.1916  -32.7211 H   0  0  0  0  0  0  0  0  0  0  0  0
   -6.8986   19.4023  -33.6664 H   0  0  0  0  0  0  0  0  0  0  0  0
   -2.3173   20.2768  -32.9623 H   0  0  0  0  0  0  0  0  0  0  0  0
   -0.8280   18.4955  -33.9418 H   0  0  0  0  0  0  0  0  0  0  0  0
   -5.8265   17.9920  -34.1960 H   0  0  0  0  0  0  0  0  0  0  0  0
   -2.8803   14.3543  -35.1823 H   0  0  0  0  0  0  0  0  0  0  0  0
   -2.8808   15.1671  -36.7489 H   0  0  0  0  0  0  0  0  0  0  0  0
   -3.4079   21.4668  -32.0622 H   0  0  0  0  0  0  0  0  0  0  0  0
  1  2  1  0
  2  3  2  0
  2  4  1  0
  4  5  2  0
  5  6  1  0
  6  7  2  0
  7  8  1  0
  8  9  2  0
  9 10  1  0
 10 11  2  0
 11 12  1  0
 12 13  2  0
 13 14  1  0
 14 15  2  0
 14 16  1  0
 16 17  1  0
 17 18  1  0
  9 19  1  0
 19 20  2  0
 20 21  1  0
 21 22  1  0
 22 23  2  0
 22 24  1  0
 21  4  1  0
 20  6  1  0
 15 10  1  0
 18 13  1  0
  1 25  1  0
  1 26  1  0
  5 27  1  0
  7 28  1  0
  8 29  1  0
 11 30  1  0
 12 31  1  0
 15 32  1  0
 17 33  1  0
 17 34  1  0
 19 35  1  0
M  CHG  1  24  -1
M  END
>  <UniqueID>  (28) 
28

>  <SMILES>  (28) 
NC(=O)c1cc2ccc(-c3ccc4c(c3)OCO4)cc2n1C(=O)[O-]

>  <Energy>  (28) 
112.50720122687386

>  <Genealogy>  (28) 
NC(=O)c1cc2ccc(-c3ccc4c(c3)OCO4)cc2n1C(=O)[O-] (protonated)
NC(=O)c1cc2ccc(-c3ccc4c(c3)OCO4)cc2n1C(=O)[O-] (3D coordinates assigned)
NC(=O)c1cc2ccc(-c3ccc4c(c3)OCO4)cc2n1C(=O)[O-] (nonaromatic ring conformer: 112.50720122687386 kcal/mol)

>  <smiles>  (28) 
NC(=O)c1cc2ccc(-c3ccc4c(c3)OCO4)cc2n1C(=O)O

>  <score_type>  (28) 
oracle

>  <origin>  (28) 
adg

>  <m_score__min__energy>  (28) 
-9.4600000000000009

>  <m_primary>  (28) 
energy

$$$$
28:0
     RDKit          3D

 38 40  0  0  0  0  0  0  0  0999 V2000
   -6.1160   25.4150  -29.0290 N   0  0  0  0  0  0  0  0  0  0  0  0
   -5.5420   24.9840  -30.2660 C   0  0  0  0  0  0  0  0  0  0  0  0
   -4.6240   25.6710  -30.7850 O   0  0  0  0  0  0  0  0  0  0  0  0
   -6.0010   23.7380  -30.9240 C   0  0  0  0  0  0  0  0  0  0  0  0
   -7.3360   23.4320  -31.1840 C   0  0  0  0  0  0  0  0  0  0  0  0
   -7.3180   22.1730  -31.7400 C   0  0  0  0  0  0  0  0  0  0  0  0
   -8.3650   21.3850  -32.1980 C   0  0  0  0  0  0  0  0  0  0  0  0
   -8.0570   20.1320  -32.7520 C   0  0  0  0  0  0  0  0  0  0  0  0
   -6.7070   19.6760  -32.8580 C   0  0  0  0  0  0  0  0  0  0  0  0
   -6.3940   18.3750  -33.4460 N   0  0  0  0  0  0  0  0  0  0  0  0
   -7.2280   17.2050  -33.0990 C   0  0  0  0  0  0  0  0  0  0  0  0
   -6.8320   15.9280  -33.8440 C   0  0  0  0  0  0  0  0  0  0  0  0
   -5.4340   15.8300  -33.9680 O   0  0  0  0  0  0  0  0  0  0  0  0
   -4.9990   16.8270  -34.8620 C   0  0  0  0  0  0  0  0  0  0  0  0
   -5.1650   18.2230  -34.2540 C   0  0  0  0  0  0  0  0  0  0  0  0
   -5.6750   20.5250  -32.3680 C   0  0  0  0  0  0  0  0  0  0  0  0
   -6.0170   21.7580  -31.8020 C   0  0  0  0  0  0  0  0  0  0  0  0
   -5.1960   22.7050  -31.2980 N   0  0  0  0  0  0  0  0  0  0  0  0
   -3.7610   22.6560  -31.2350 C   0  0  0  0  0  0  0  0  0  0  0  0
   -3.1140   23.6980  -30.9450 O   0  0  0  0  0  0  0  0  0  0  0  0
   -3.0250   21.3680  -31.4430 C   0  0  0  0  0  0  0  0  0  0  0  0
   -2.4990   21.2190  -33.1400 Cl  0  0  0  0  0  0  0  0  0  0  0  0
   -6.9220   24.9130  -28.5970 H   0  0  0  0  0  0  0  0  0  0  0  0
   -5.7570   26.2740  -28.5590 H   0  0  0  0  0  0  0  0  0  0  0  0
   -8.2158   24.0621  -30.9869 H   0  0  0  0  0  0  0  0  0  0  0  0
   -9.4065   21.7323  -32.1289 H   0  0  0  0  0  0  0  0  0  0  0  0
   -8.8725   19.4876  -33.1121 H   0  0  0  0  0  0  0  0  0  0  0  0
   -7.1356   17.0202  -32.0186 H   0  0  0  0  0  0  0  0  0  0  0  0
   -8.2598   17.4448  -33.3956 H   0  0  0  0  0  0  0  0  0  0  0  0
   -7.2058   15.0560  -33.2873 H   0  0  0  0  0  0  0  0  0  0  0  0
   -7.2720   15.9592  -34.8517 H   0  0  0  0  0  0  0  0  0  0  0  0
   -3.9371   16.6611  -35.0962 H   0  0  0  0  0  0  0  0  0  0  0  0
   -5.6099   16.7685  -35.7749 H   0  0  0  0  0  0  0  0  0  0  0  0
   -4.2975   18.4267  -33.6090 H   0  0  0  0  0  0  0  0  0  0  0  0
   -5.2399   18.9324  -35.0913 H   0  0  0  0  0  0  0  0  0  0  0  0
   -4.6215   20.2155  -32.4335 H   0  0  0  0  0  0  0  0  0  0  0  0
   -2.1425   21.3449  -30.7868 H   0  0  0  0  0  0  0  0  0  0  0  0
   -3.6968   20.5307  -31.2031 H   0  0  0  0  0  0  0  0  0  0  0  0
  1  2  1  0
  2  3  2  0
  2  4  1  0
  4  5  2  0
  5  6  1  0
  6  7  2  0
  7  8  1  0
  8  9  2  0
  9 10  1  0
 10 11  1  0
 11 12  1  0
 12 13  1  0
 13 14  1  0
 14 15  1  0
  9 16  1  0
 16 17  2  0
 17 18  1  0
 18 19  1  0
 19 20  2  0
 19 21  1  0
 21 22  1  0
 18  4  1  0
 17  6  1  0
 15 10  1  0
  1 23  1  0
  1 24  1  0
  5 25  1  0
  7 26  1  0
  8 27  1  0
 11 28  1  0
 11 29  1  0
 12 30  1  0
 12 31  1  0
 14 32  1  0
 14 33  1  0
 15 34  1  0
 15 35  1  0
 16 36  1  0
 21 37  1  0
 21 38  1  0
M  END
>  <UniqueID>  (29) 
29

>  <SMILES>  (29) 
NC(=O)c1cc2ccc(N3CCOCC3)cc2n1C(=O)CCl

>  <Energy>  (29) 
85.23760194044853

>  <Genealogy>  (29) 
NC(=O)c1cc2ccc(N3CCOCC3)cc2n1C(=O)CCl (3D coordinates assigned)
NC(=O)c1cc2ccc(N3CCOCC3)cc2n1C(=O)CCl (nonaromatic ring conformer: 85.23760194044853 kcal/mol)

>  <smiles>  (29) 
NC(=O)c1cc2ccc(N3CCOCC3)cc2n1C(=O)CCl

>  <score_type>  (29) 
oracle

>  <origin>  (29) 
adg

>  <m_score__min__energy>  (29) 
-8.9700000000000006

>  <m_primary>  (29) 
energy

$$$$
29:0
     RDKit          3D

 29 30  0  0  0  0  0  0  0  0999 V2000
   -6.4990   18.3050  -33.4780 C   0  0  0  0  0  0  0  0  0  0  0  0
   -7.7750   18.6550  -32.7200 C   0  0  0  0  0  0  0  0  0  0  0  0
   -7.7030   20.0550  -32.1720 C   0  0  0  0  0  0  0  0  0  0  0  0
   -8.8350   20.6300  -31.5430 C   0  0  0  0  0  0  0  0  0  0  0  0
   -8.7680   21.9200  -30.9910 C   0  0  0  0  0  0  0  0  0  0  0  0
   -7.5600   22.6060  -31.0790 C   0  0  0  0  0  0  0  0  0  0  0  0
   -7.2110   23.8530  -30.6110 C   0  0  0  0  0  0  0  0  0  0  0  0
   -5.8740   24.0200  -30.9670 C   0  0  0  0  0  0  0  0  0  0  0  0
   -5.1200   25.2700  -30.7360 C   0  0  0  0  0  0  0  0  0  0  0  0
   -3.7180   25.2440  -30.4800 N   0  0  0  0  0  0  0  0  0  0  0  0
   -5.7140   26.3800  -30.8060 O   0  0  0  0  0  0  0  0  0  0  0  0
   -5.4130   22.9180  -31.6210 N   0  0  0  0  0  0  0  0  0  0  0  0
   -4.0760   22.6560  -32.0780 C   0  0  0  0  0  0  0  0  0  0  0  0
   -3.8340   22.2960  -33.4380 N   0  0  0  0  0  0  0  0  0  0  0  0
   -3.1050   22.7770  -31.2850 O   0  0  0  0  0  0  0  0  0  0  0  0
   -6.4570   22.0640  -31.6870 C   0  0  0  0  0  0  0  0  0  0  0  0
   -6.4900   20.7760  -32.2320 C   0  0  0  0  0  0  0  0  0  0  0  0
   -5.6950   18.0845  -32.7604 H   0  0  0  0  0  0  0  0  0  0  0  0
   -6.6783   17.4229  -34.1102 H   0  0  0  0  0  0  0  0  0  0  0  0
   -6.2032   19.1552  -34.1102 H   0  0  0  0  0  0  0  0  0  0  0  0
   -8.6333   18.5789  -33.4038 H   0  0  0  0  0  0  0  0  0  0  0  0
   -7.8910   17.9531  -31.8811 H   0  0  0  0  0  0  0  0  0  0  0  0
   -9.7748   20.0611  -31.4864 H   0  0  0  0  0  0  0  0  0  0  0  0
   -9.6435   22.3742  -30.5040 H   0  0  0  0  0  0  0  0  0  0  0  0
   -7.8514   24.5659  -30.0709 H   0  0  0  0  0  0  0  0  0  0  0  0
   -3.0430   24.9330  -31.2150 H   0  0  0  0  0  0  0  0  0  0  0  0
   -2.8640   22.0940  -33.7660 H   0  0  0  0  0  0  0  0  0  0  0  0
   -4.6180   22.2660  -34.1260 H   0  0  0  0  0  0  0  0  0  0  0  0
   -5.5945   20.3362  -32.6952 H   0  0  0  0  0  0  0  0  0  0  0  0
  1  2  1  0
  2  3  1  0
  3  4  2  0
  4  5  1  0
  5  6  2  0
  6  7  1  0
  7  8  2  0
  8  9  1  0
  9 10  1  0
  9 11  2  0
  8 12  1  0
 12 13  1  0
 13 14  1  0
 13 15  2  0
 12 16  1  0
 16 17  2  0
 17  3  1  0
 16  6  1  0
  1 18  1  0
  1 19  1  0
  1 20  1  0
  2 21  1  0
  2 22  1  0
  4 23  1  0
  5 24  1  0
  7 25  1  0
 10 26  1  0
 14 27  1  0
 14 28  1  0
 17 29  1  0
M  CHG  1  10  -1
M  END
>  <UniqueID>  (30) 
30

>  <SMILES>  (30) 
CCc1ccc2cc(C([NH-])=O)n(C(N)=O)c2c1

>  <Energy>  (30) 
64.52226770289037

>  <Genealogy>  (30) 
CCc1ccc2cc(C([NH-])=O)n(C(N)=O)c2c1 (protonated)
CCc1ccc2cc(C([NH-])=O)n(C(N)=O)c2c1 (3D coordinates assigned)
CCc1ccc2cc(C([NH-])=O)n(C(N)=O)c2c1 (optimized conformer: 64.52226770289037 kcal/mol)

>  <smiles>  (30) 
CCc1ccc2cc(C(N)=O)n(C(N)=O)c2c1

>  <score_type>  (30) 
oracle

>  <origin>  (30) 
adg

>  <m_score__min__energy>  (30) 
-10.26

>  <m_primary>  (30) 
energy

$$$$
30:0
     RDKit          3D

 46 49  0  0  0  0  0  0  0  0999 V2000
   -3.8600   25.3640  -30.4700 N   0  0  0  0  0  0  0  0  0  0  0  0
   -5.2150   24.9720  -30.2710 C   0  0  0  0  0  0  0  0  0  0  0  0
   -5.9900   25.7330  -29.6330 O   0  0  0  0  0  0  0  0  0  0  0  0
   -5.6870   23.6670  -30.7780 C   0  0  0  0  0  0  0  0  0  0  0  0
   -6.9780   23.4460  -31.2550 C   0  0  0  0  0  0  0  0  0  0  0  0
   -6.9790   22.1480  -31.7150 C   0  0  0  0  0  0  0  0  0  0  0  0
   -8.0030   21.4020  -32.2890 C   0  0  0  0  0  0  0  0  0  0  0  0
   -7.7270   20.0750  -32.6540 C   0  0  0  0  0  0  0  0  0  0  0  0
   -6.4400   19.5130  -32.4380 C   0  0  0  0  0  0  0  0  0  0  0  0
   -6.1610   18.1050  -32.8190 C   0  0  0  0  0  0  0  0  0  0  0  0
   -4.8790   17.5550  -32.6610 C   0  0  0  0  0  0  0  0  0  0  0  0
   -4.6310   16.2310  -33.0250 C   0  0  0  0  0  0  0  0  0  0  0  0
   -5.6680   15.4570  -33.5630 C   0  0  0  0  0  0  0  0  0  0  0  0
   -5.4560   14.0470  -33.9370 C   0  0  0  0  0  0  0  0  0  0  0  0
   -4.5710   13.3860  -33.3280 O   0  0  0  0  0  0  0  0  0  0  0  0
   -6.2370   13.4110  -34.9640 N   0  0  0  0  0  0  0  0  0  0  0  0
   -5.6520   12.5130  -35.9470 C   0  0  0  0  0  0  0  0  0  0  0  0
   -6.8200   11.7430  -36.5510 C   0  0  0  0  0  0  0  0  0  0  0  0
   -8.0790   12.5120  -36.1580 C   0  0  2  0  0  0  0  0  0  0  0  0
   -8.4630   13.3420  -37.2000 F   0  0  0  0  0  0  0  0  0  0  0  0
   -7.6900   13.3510  -34.9470 C   0  0  0  0  0  0  0  0  0  0  0  0
   -6.9100   15.9980  -33.6870 N   0  0  0  0  0  0  0  0  0  0  0  0
   -7.1770   17.2850  -33.3400 C   0  0  0  0  0  0  0  0  0  0  0  0
   -5.4260   20.3080  -31.8510 C   0  0  0  0  0  0  0  0  0  0  0  0
   -5.7280   21.6300  -31.5110 C   0  0  0  0  0  0  0  0  0  0  0  0
   -4.9240   22.5470  -30.9300 N   0  0  0  0  0  0  0  0  0  0  0  0
   -3.5650   22.3420  -30.5160 C   0  0  0  0  0  0  0  0  0  0  0  0
   -2.5620   23.3120  -30.8190 N   0  0  0  0  0  0  0  0  0  0  0  0
   -3.2580   21.3170  -29.8510 O   0  0  0  0  0  0  0  0  0  0  0  0
   -3.6020   26.0510  -31.2130 H   0  0  0  0  0  0  0  0  0  0  0  0
   -7.8173   24.1570  -31.2624 H   0  0  0  0  0  0  0  0  0  0  0  0
   -8.9993   21.8388  -32.4520 H   0  0  0  0  0  0  0  0  0  0  0  0
   -8.5170   19.4625  -33.1130 H   0  0  0  0  0  0  0  0  0  0  0  0
   -4.0662   18.1707  -32.2483 H   0  0  0  0  0  0  0  0  0  0  0  0
   -3.6288   15.7979  -32.8906 H   0  0  0  0  0  0  0  0  0  0  0  0
   -5.1273   13.0863  -36.7255 H   0  0  0  0  0  0  0  0  0  0  0  0
   -4.9139   11.8373  -35.4902 H   0  0  0  0  0  0  0  0  0  0  0  0
   -6.7243   11.7004  -37.6460 H   0  0  0  0  0  0  0  0  0  0  0  0
   -6.8508   10.7059  -36.1858 H   0  0  0  0  0  0  0  0  0  0  0  0
   -8.9183   11.8372  -35.9341 H   0  0  0  0  0  0  0  0  0  0  0  0
   -8.1171   14.3616  -35.0267 H   0  0  0  0  0  0  0  0  0  0  0  0
   -8.0687   12.9150  -34.0108 H   0  0  0  0  0  0  0  0  0  0  0  0
   -8.1931   17.6867  -33.4675 H   0  0  0  0  0  0  0  0  0  0  0  0
   -4.4234   19.8948  -31.6667 H   0  0  0  0  0  0  0  0  0  0  0  0
   -2.8140   24.2060  -31.2950 H   0  0  0  0  0  0  0  0  0  0  0  0
   -1.5710   23.1540  -30.5290 H   0  0  0  0  0  0  0  0  0  0  0  0
  1  2  1  0
  2  3  2  0
  2  4  1  0
  4  5  2  0
  5  6  1  0
  6  7  2  0
  7  8  1  0
  8  9  2  0
  9 10  1  0
 10 11  2  0
 11 12  1  0
 12 13  2  0
 13 14  1  0
 14 15  2  0
 14 16  1  0
 16 17  1  0
 17 18  1  0
 18 19  1  0
 19 20  1  0
 19 21  1  0
 13 22  1  0
 22 23  2  0
  9 24  1  0
 24 25  2  0
 25 26  1  0
 26 27  1  0
 27 28  1  0
 27 29  2  0
 26  4  1  0
 25  6  1  0
 23 10  1  0
 21 16  1  0
  1 30  1  0
  5 31  1  0
  7 32  1  0
  8 33  1  0
 11 34  1  0
 12 35  1  0
 17 36  1  0
 17 37  1  0
 18 38  1  0
 18 39  1  0
 19 40  1  1
 21 41  1  0
 21 42  1  0
 23 43  1  0
 24 44  1  0
 28 45  1  0
 28 46  1  0
M  CHG  1   1  -1
M  END
>  <UniqueID>  (31) 
31

>  <SMILES>  (31) 
[NH-]C(=O)c1cc2ccc(-c3ccc(C(=O)N4CC[C@H](F)C4)nc3)cc2n1C(N)=O

>  <Energy>  (31) 
98.0732578389416

>  <Genealogy>  (31) 
[NH-]C(=O)c1cc2ccc(-c3ccc(C(=O)N4CCC(F)C4)nc3)cc2n1C(N)=O (protonated)
[NH-]C(=O)c1cc2ccc(-c3ccc(C(=O)N4CC[C@H](F)C4)nc3)cc2n1C(N)=O (chirality)
[NH-]C(=O)c1cc2ccc(-c3ccc(C(=O)N4CC[C@H](F)C4)nc3)cc2n1C(N)=O (3D coordinates assigned)
[NH-]C(=O)c1cc2ccc(-c3ccc(C(=O)N4CC[C@H](F)C4)nc3)cc2n1C(N)=O (nonaromatic ring conformer: 98.0732578389416 kcal/mol)

>  <smiles>  (31) 
NC(=O)c1cc2ccc(-c3ccc(C(=O)N4CCC(F)C4)nc3)cc2n1C(N)=O

>  <score_type>  (31) 
oracle

>  <origin>  (31) 
adg

>  <m_score__min__energy>  (31) 
-10.51

>  <m_primary>  (31) 
energy

$$$$
31:0
     RDKit          3D

 31 33  0  0  0  0  0  0  0  0999 V2000
   -1.6000   26.0400  -28.9410 N   0  0  0  0  0  0  0  0  0  0  0  0
   -0.8890   24.8060  -28.8880 C   0  0  0  0  0  0  0  0  0  0  0  0
    0.1570   24.7260  -28.1910 O   0  0  0  0  0  0  0  0  0  0  0  0
   -1.3570   23.6520  -29.6830 C   0  0  0  0  0  0  0  0  0  0  0  0
   -0.5330   22.5940  -30.0580 C   0  0  0  0  0  0  0  0  0  0  0  0
   -1.3570   21.6970  -30.6960 C   0  0  0  0  0  0  0  0  0  0  0  0
   -1.0600   20.4710  -31.2840 C   0  0  0  0  0  0  0  0  0  0  0  0
   -2.1060   19.7650  -31.9000 C   0  0  0  0  0  0  0  0  0  0  0  0
   -3.4240   20.2930  -31.9220 C   0  0  0  0  0  0  0  0  0  0  0  0
   -4.5150   19.5440  -32.5930 C   0  0  0  0  0  0  0  0  0  0  0  0
   -5.7780   19.4450  -31.9810 C   0  0  0  0  0  0  0  0  0  0  0  0
   -6.8110   18.7370  -32.6010 C   0  0  0  0  0  0  0  0  0  0  0  0
   -6.5970   18.1250  -33.8380 C   0  0  0  0  0  0  0  0  0  0  0  0
   -5.3500   18.2220  -34.4580 C   0  0  0  0  0  0  0  0  0  0  0  0
   -4.3100   18.9280  -33.8440 C   0  0  0  0  0  0  0  0  0  0  0  0
   -3.1200   19.0360  -34.4880 F   0  0  0  0  0  0  0  0  0  0  0  0
   -3.6830   21.5450  -31.3170 C   0  0  0  0  0  0  0  0  0  0  0  0
   -2.6250   22.2180  -30.6960 C   0  0  0  0  0  0  0  0  0  0  0  0
   -2.6420   23.4210  -30.0790 N   0  0  0  0  0  0  0  0  0  0  0  0
   -3.7730   24.2970  -29.9470 C   0  0  0  0  0  0  0  0  0  0  0  0
   -3.8480   25.3480  -30.6370 O   0  0  0  0  0  0  0  0  0  0  0  0
   -4.7840   24.0070  -29.0390 O   0  0  0  0  0  0  0  0  0  0  0  0
   -2.6440   26.0570  -28.9670 H   0  0  0  0  0  0  0  0  0  0  0  0
    0.5483   22.4965  -29.8812 H   0  0  0  0  0  0  0  0  0  0  0  0
   -0.0369   20.0673  -31.2667 H   0  0  0  0  0  0  0  0  0  0  0  0
   -1.9021   18.7920  -32.3708 H   0  0  0  0  0  0  0  0  0  0  0  0
   -5.9534   19.9279  -31.0084 H   0  0  0  0  0  0  0  0  0  0  0  0
   -7.7944   18.6616  -32.1139 H   0  0  0  0  0  0  0  0  0  0  0  0
   -7.4109   17.5667  -34.3237 H   0  0  0  0  0  0  0  0  0  0  0  0
   -5.1845   17.7413  -35.4334 H   0  0  0  0  0  0  0  0  0  0  0  0
   -4.6933   21.9798  -31.3343 H   0  0  0  0  0  0  0  0  0  0  0  0
  1  2  1  0
  2  3  2  0
  2  4  1  0
  4  5  2  0
  5  6  1  0
  6  7  2  0
  7  8  1  0
  8  9  2  0
  9 10  1  0
 10 11  2  0
 11 12  1  0
 12 13  2  0
 13 14  1  0
 14 15  2  0
 15 16  1  0
  9 17  1  0
 17 18  2  0
 18 19  1  0
 19 20  1  0
 20 21  2  0
 20 22  1  0
 19  4  1  0
 18  6  1  0
 15 10  1  0
  1 23  1  0
  5 24  1  0
  7 25  1  0
  8 26  1  0
 11 27  1  0
 12 28  1  0
 13 29  1  0
 14 30  1  0
 17 31  1  0
M  CHG  2   1  -1  22  -1
M  END
>  <UniqueID>  (32) 
32

>  <SMILES>  (32) 
[NH-]C(=O)c1cc2ccc(-c3ccccc3F)cc2n1C(=O)[O-]

>  <Energy>  (32) 
79.5612051503257

>  <Genealogy>  (32) 
[NH-]C(=O)c1cc2ccc(-c3ccccc3F)cc2n1C(=O)[O-] (protonated)
[NH-]C(=O)c1cc2ccc(-c3ccccc3F)cc2n1C(=O)[O-] (3D coordinates assigned)
[NH-]C(=O)c1cc2ccc(-c3ccccc3F)cc2n1C(=O)[O-] (optimized conformer: 79.5612051503257 kcal/mol)

>  <smiles>  (32) 
NC(=O)c1cc2ccc(-c3ccccc3F)cc2n1C(=O)O

>  <score_type>  (32) 
oracle

>  <origin>  (32) 
adg

>  <m_score__min__energy>  (32) 
-11.369999999999999

>  <m_primary>  (32) 
energy

$$$$
32:0
     RDKit          3D

 37 38  0  0  0  0  0  0  0  0999 V2000
   -3.7860   16.6280  -35.1650 N   0  0  0  0  0  0  0  0  0  0  0  0
   -3.5510   17.8020  -34.4370 C   0  0  0  0  0  0  0  0  0  0  0  0
   -2.3040   18.0780  -34.2630 O   0  0  0  0  0  0  0  0  0  0  0  0
   -4.4910   18.7200  -33.8690 C   0  0  0  0  0  0  0  0  0  0  0  0
   -5.8540   18.4000  -33.7500 C   0  0  0  0  0  0  0  0  0  0  0  0
   -6.5130   19.4600  -33.1740 C   0  0  0  0  0  0  0  0  0  0  0  0
   -7.8390   19.6330  -32.8510 C   0  0  0  0  0  0  0  0  0  0  0  0
   -8.2640   20.8070  -32.2700 C   0  0  0  0  0  0  0  0  0  0  0  0
   -7.3410   21.7740  -32.0290 C   0  0  0  0  0  0  0  0  0  0  0  0
   -7.8130   23.0480  -31.3960 C   0  0  0  0  0  0  0  0  0  0  0  0
   -6.7010   24.0560  -31.4170 C   0  0  0  0  0  0  0  0  0  0  0  0
   -6.1140   24.2670  -30.0450 C   0  0  0  0  0  0  0  0  0  0  0  0
   -4.5320   24.3700  -30.1210 B   0  0  0  0  0  0  0  0  0  0  0  0
   -3.8630   25.5430  -30.6510 O   0  0  0  0  0  0  0  0  0  0  0  0
   -3.8000   23.1080  -30.1720 O   0  0  0  0  0  0  0  0  0  0  0  0
   -6.0090   21.5920  -32.3560 C   0  0  0  0  0  0  0  0  0  0  0  0
   -5.5470   20.4150  -32.9450 C   0  0  0  0  0  0  0  0  0  0  0  0
   -4.3340   19.9710  -33.3620 N   0  0  0  0  0  0  0  0  0  0  0  0
   -3.1700   20.7220  -33.2590 C   0  0  0  0  0  0  0  0  0  0  0  0
   -2.0270   20.7050  -34.0830 N   0  0  0  0  0  0  0  0  0  0  0  0
   -3.0970   21.5580  -32.2870 O   0  0  0  0  0  0  0  0  0  0  0  0
   -3.8700   16.7120  -36.2230 H   0  0  0  0  0  0  0  0  0  0  0  0
   -3.8740   15.6820  -34.6890 H   0  0  0  0  0  0  0  0  0  0  0  0
   -6.3185   17.4544  -34.0665 H   0  0  0  0  0  0  0  0  0  0  0  0
   -8.5625   18.8306  -33.0576 H   0  0  0  0  0  0  0  0  0  0  0  0
   -9.3218   20.9575  -32.0083 H   0  0  0  0  0  0  0  0  0  0  0  0
   -8.6742   23.4397  -31.9571 H   0  0  0  0  0  0  0  0  0  0  0  0
   -8.1128   22.8528  -30.3558 H   0  0  0  0  0  0  0  0  0  0  0  0
   -5.9094   23.6995  -32.0925 H   0  0  0  0  0  0  0  0  0  0  0  0
   -7.1136   25.0146  -31.7646 H   0  0  0  0  0  0  0  0  0  0  0  0
   -6.5164   25.1981  -29.6195 H   0  0  0  0  0  0  0  0  0  0  0  0
   -6.3823   23.4098  -29.4100 H   0  0  0  0  0  0  0  0  0  0  0  0
   -4.0460   25.6900  -31.6130 H   0  0  0  0  0  0  0  0  0  0  0  0
   -3.9090   22.6400  -31.0260 H   0  0  0  0  0  0  0  0  0  0  0  0
   -5.2928   22.3998  -32.1451 H   0  0  0  0  0  0  0  0  0  0  0  0
   -1.2600   20.0460  -33.8250 H   0  0  0  0  0  0  0  0  0  0  0  0
   -2.0030   21.3550  -34.8980 H   0  0  0  0  0  0  0  0  0  0  0  0
  1  2  1  0
  2  3  2  0
  2  4  1  0
  4  5  2  0
  5  6  1  0
  6  7  2  0
  7  8  1  0
  8  9  2  0
  9 10  1  0
 10 11  1  0
 11 12  1  0
 12 13  1  0
 13 14  1  0
 13 15  1  0
  9 16  1  0
 16 17  2  0
 17 18  1  0
 18 19  1  0
 19 20  1  0
 19 21  2  0
 18  4  1  0
 17  6  1  0
  1 22  1  0
  1 23  1  0
  5 24  1  0
  7 25  1  0
  8 26  1  0
 10 27  1  0
 10 28  1  0
 11 29  1  0
 11 30  1  0
 12 31  1  0
 12 32  1  0
 14 33  1  0
 15 34  1  0
 16 35  1  0
 20 36  1  0
 20 37  1  0
M  END
>  <smiles>  (33) 
NC(=O)c1cc2ccc(CCCB(O)O)cc2n1C(N)=O

>  <score_type>  (33) 
oracle

>  <origin>  (33) 
adg

>  <m_score__min__energy>  (33) 
-8.3300000000000001

>  <m_primary>  (33) 
energy

$$$$
33:0
     RDKit          3D

 55 56  0  0  0  0  0  0  0  0999 V2000
   -3.3910   21.7430  -30.3800 C   0  0  0  0  0  0  0  0  0  0  0  0
   -4.1260   22.9220  -30.9390 C   0  0  0  0  0  0  0  0  0  0  0  0
   -3.4840   23.9760  -31.2030 O   0  0  0  0  0  0  0  0  0  0  0  0
   -5.5370   22.8610  -31.2040 N   0  0  0  0  0  0  0  0  0  0  0  0
   -6.4800   23.7770  -30.8460 C   0  0  0  0  0  0  0  0  0  0  0  0
   -6.2220   25.0770  -30.1930 C   0  0  0  0  0  0  0  0  0  0  0  0
   -5.1130   25.8930  -30.5730 N   0  0  0  0  0  0  0  0  0  0  0  0
   -7.0190   25.4960  -29.3130 O   0  0  0  0  0  0  0  0  0  0  0  0
   -7.7520   23.3330  -31.2000 C   0  0  0  0  0  0  0  0  0  0  0  0
   -7.5550   22.1090  -31.7970 C   0  0  0  0  0  0  0  0  0  0  0  0
   -8.4740   21.2230  -32.3410 C   0  0  0  0  0  0  0  0  0  0  0  0
   -7.9940   20.0130  -32.8690 C   0  0  0  0  0  0  0  0  0  0  0  0
   -6.6100   19.6690  -32.8100 C   0  0  0  0  0  0  0  0  0  0  0  0
   -6.0850   18.3400  -33.4150 C   0  0  0  0  0  0  0  0  0  0  0  0
   -7.2390   17.3060  -33.5970 C   0  0  0  0  0  0  0  0  0  0  0  0
   -5.5640   18.5730  -34.8660 C   0  0  0  0  0  0  0  0  0  0  0  0
   -4.9640   17.7010  -32.4950 C   0  0  1  0  0  0  0  0  0  0  0  0
   -5.4860   16.5660  -31.5830 C   0  0  0  0  0  0  0  0  0  0  0  0
   -3.7330   17.1840  -33.3040 C   0  0  0  0  0  0  0  0  0  0  0  0
   -2.4880   18.0790  -33.1400 C   0  0  0  0  0  0  0  0  0  0  0  0
   -2.8090   19.5820  -33.2740 C   0  0  0  0  0  0  0  0  0  0  0  0
   -1.5640   20.4910  -33.2470 C   0  0  0  0  0  0  0  0  0  0  0  0
   -0.8220   20.4220  -34.5830 C   0  0  0  0  0  0  0  0  0  0  0  0
   -1.9440   21.8050  -33.0150 F   0  0  0  0  0  0  0  0  0  0  0  0
   -0.6970   20.0880  -32.2430 F   0  0  0  0  0  0  0  0  0  0  0  0
   -5.7130   20.6270  -32.2530 C   0  0  0  0  0  0  0  0  0  0  0  0
   -6.2140   21.8420  -31.7780 C   0  0  0  0  0  0  0  0  0  0  0  0
   -3.4158   21.7828  -29.2810 H   0  0  0  0  0  0  0  0  0  0  0  0
   -3.8708   20.8149  -30.7242 H   0  0  0  0  0  0  0  0  0  0  0  0
   -2.3465   21.7652  -30.7242 H   0  0  0  0  0  0  0  0  0  0  0  0
   -4.5520   25.6790  -31.4280 H   0  0  0  0  0  0  0  0  0  0  0  0
   -4.9240   26.7890  -30.0710 H   0  0  0  0  0  0  0  0  0  0  0  0
   -8.7091   23.8502  -31.0371 H   0  0  0  0  0  0  0  0  0  0  0  0
   -9.5477   21.4613  -32.3583 H   0  0  0  0  0  0  0  0  0  0  0  0
   -8.7015   19.3141  -33.3391 H   0  0  0  0  0  0  0  0  0  0  0  0
   -7.6003   16.9823  -32.6098 H   0  0  0  0  0  0  0  0  0  0  0  0
   -8.0645   17.7723  -34.1548 H   0  0  0  0  0  0  0  0  0  0  0  0
   -6.8658   16.4344  -34.1548 H   0  0  0  0  0  0  0  0  0  0  0  0
   -4.5605   19.0218  -34.8276 H   0  0  0  0  0  0  0  0  0  0  0  0
   -5.5153   17.6109  -35.3970 H   0  0  0  0  0  0  0  0  0  0  0  0
   -6.2487   19.2507  -35.3970 H   0  0  0  0  0  0  0  0  0  0  0  0
   -4.6412   18.5344  -31.8538 H   0  0  0  0  0  0  0  0  0  0  0  0
   -5.3542   16.8525  -30.5292 H   0  0  0  0  0  0  0  0  0  0  0  0
   -6.5535   16.3944  -31.7856 H   0  0  0  0  0  0  0  0  0  0  0  0
   -4.9215   15.6439  -31.7856 H   0  0  0  0  0  0  0  0  0  0  0  0
   -3.4849   16.1704  -32.9560 H   0  0  0  0  0  0  0  0  0  0  0  0
   -4.0095   17.1952  -34.3686 H   0  0  0  0  0  0  0  0  0  0  0  0
   -2.0551   17.8996  -32.1448 H   0  0  0  0  0  0  0  0  0  0  0  0
   -1.7848   17.8180  -33.9446 H   0  0  0  0  0  0  0  0  0  0  0  0
   -3.3331   19.7406  -34.2280 H   0  0  0  0  0  0  0  0  0  0  0  0
   -3.4238   19.8562  -32.4040 H   0  0  0  0  0  0  0  0  0  0  0  0
    0.2577   20.3216  -34.3980 H   0  0  0  0  0  0  0  0  0  0  0  0
   -1.1782   19.5531  -35.1558 H   0  0  0  0  0  0  0  0  0  0  0  0
   -1.0119   21.3417  -35.1558 H   0  0  0  0  0  0  0  0  0  0  0  0
   -4.6357   20.4116  -32.1976 H   0  0  0  0  0  0  0  0  0  0  0  0
  1  2  1  0
  2  3  2  0
  2  4  1  0
  4  5  1  0
  5  6  1  0
  6  7  1  0
  6  8  2  0
  5  9  2  0
  9 10  1  0
 10 11  2  0
 11 12  1  0
 12 13  2  0
 13 14  1  0
 14 15  1  0
 14 16  1  0
 14 17  1  0
 17 18  1  0
 17 19  1  0
 19 20  1  0
 20 21  1  0
 21 22  1  0
 22 23  1  0
 22 24  1  0
 22 25  1  0
 13 26  1  0
 26 27  2  0
 27  4  1  0
 27 10  1  0
  1 28  1  0
  1 29  1  0
  1 30  1  0
  7 31  1  0
  7 32  1  0
  9 33  1  0
 11 34  1  0
 12 35  1  0
 15 36  1  0
 15 37  1  0
 15 38  1  0
 16 39  1  0
 16 40  1  0
 16 41  1  0
 17 42  1  1
 18 43  1  0
 18 44  1  0
 18 45  1  0
 19 46  1  0
 19 47  1  0
 20 48  1  0
 20 49  1  0
 21 50  1  0
 21 51  1  0
 23 52  1  0
 23 53  1  0
 23 54  1  0
 26 55  1  0
M  END
>  <UniqueID>  (34) 
33

>  <SMILES>  (34) 
CC(=O)n1c(C(N)=O)cc2ccc(C(C)(C)[C@@H](C)CCCC(C)(F)F)cc21

>  <Energy>  (34) 
95.34546396552547

>  <Genealogy>  (34) 
CC(=O)n1c(C(N)=O)cc2ccc(C(C)(C)[C@@H](C)CCCC(C)(F)F)cc21 (chirality)
CC(=O)n1c(C(N)=O)cc2ccc(C(C)(C)[C@@H](C)CCCC(C)(F)F)cc21 (3D coordinates assigned)
CC(=O)n1c(C(N)=O)cc2ccc(C(C)(C)[C@@H](C)CCCC(C)(F)F)cc21 (optimized conformer: 95.34546396552547 kcal/mol)

>  <smiles>  (34) 
CC(=O)n1c(C(N)=O)cc2ccc(C(C)(C)C(C)CCCC(C)(F)F)cc21

>  <score_type>  (34) 
oracle

>  <origin>  (34) 
adg

>  <m_score__min__energy>  (34) 
-9.0899999999999999

>  <m_primary>  (34) 
energy

$$$$
34:0
     RDKit          3D

 44 46  0  0  0  0  0  0  0  0999 V2000
   -3.1410   23.4850  -30.7580 N   0  0  0  0  0  0  0  0  0  0  0  0
   -4.1310   22.4710  -30.5960 C   0  0  0  0  0  0  0  0  0  0  0  0
   -3.7960   21.3450  -30.1400 O   0  0  0  0  0  0  0  0  0  0  0  0
   -5.5030   22.7360  -30.9370 N   0  0  0  0  0  0  0  0  0  0  0  0
   -6.1990   23.8900  -30.7370 C   0  0  0  0  0  0  0  0  0  0  0  0
   -5.6320   25.1760  -30.2850 C   0  0  0  0  0  0  0  0  0  0  0  0
   -6.1420   25.8430  -29.1300 N   0  0  0  0  0  0  0  0  0  0  0  0
   -4.6440   25.6650  -30.8940 O   0  0  0  0  0  0  0  0  0  0  0  0
   -7.5400   23.7210  -31.0710 C   0  0  0  0  0  0  0  0  0  0  0  0
   -7.6450   22.4190  -31.5030 C   0  0  0  0  0  0  0  0  0  0  0  0
   -8.7610   21.7100  -31.9390 C   0  0  0  0  0  0  0  0  0  0  0  0
   -8.5890   20.3600  -32.2840 C   0  0  0  0  0  0  0  0  0  0  0  0
   -7.3140   19.7480  -32.1910 C   0  0  0  0  0  0  0  0  0  0  0  0
   -7.1510   18.2880  -32.5150 C   0  0  0  0  0  0  0  0  0  0  0  0
   -5.6710   17.9380  -32.6750 C   0  0  0  0  0  0  0  0  0  0  0  0
   -5.0850   18.3840  -34.3020 S   0  0  0  0  0  0  0  0  0  0  0  0
   -4.9540   17.1380  -35.1330 O   0  0  0  0  0  0  0  0  0  0  0  0
   -6.0850   19.3030  -34.9490 O   0  0  0  0  0  0  0  0  0  0  0  0
   -3.5470   19.2010  -34.1750 N   0  0  0  0  0  0  0  0  0  0  0  0
   -3.6830   20.4970  -33.5120 C   0  0  0  0  0  0  0  0  0  0  0  0
   -2.3460   20.7900  -32.8510 C   0  0  0  0  0  0  0  0  0  0  0  0
   -1.6390   19.4470  -32.7560 C   0  0  0  0  0  0  0  0  0  0  0  0
   -2.6090   18.4390  -33.3520 C   0  0  0  0  0  0  0  0  0  0  0  0
   -6.2070   20.4960  -31.7310 C   0  0  0  0  0  0  0  0  0  0  0  0
   -6.4030   21.8450  -31.4120 C   0  0  0  0  0  0  0  0  0  0  0  0
   -3.2110   24.1840  -31.5300 H   0  0  0  0  0  0  0  0  0  0  0  0
   -6.8480   25.3870  -28.5100 H   0  0  0  0  0  0  0  0  0  0  0  0
   -5.7540   26.7700  -28.8450 H   0  0  0  0  0  0  0  0  0  0  0  0
   -8.3439   24.4688  -31.0038 H   0  0  0  0  0  0  0  0  0  0  0  0
   -9.7469   22.1925  -32.0109 H   0  0  0  0  0  0  0  0  0  0  0  0
   -9.4518   19.7718  -32.6297 H   0  0  0  0  0  0  0  0  0  0  0  0
   -7.5795   17.6861  -31.7000 H   0  0  0  0  0  0  0  0  0  0  0  0
   -7.6722   18.0724  -33.4594 H   0  0  0  0  0  0  0  0  0  0  0  0
   -5.0876   18.4846  -31.9194 H   0  0  0  0  0  0  0  0  0  0  0  0
   -5.5494   16.8529  -32.5421 H   0  0  0  0  0  0  0  0  0  0  0  0
   -3.9206   21.2775  -34.2498 H   0  0  0  0  0  0  0  0  0  0  0  0
   -4.4961   20.4799  -32.7713 H   0  0  0  0  0  0  0  0  0  0  0  0
   -1.7596   21.4911  -33.4631 H   0  0  0  0  0  0  0  0  0  0  0  0
   -2.4719   21.2566  -31.8629 H   0  0  0  0  0  0  0  0  0  0  0  0
   -0.7006   19.4643  -33.3297 H   0  0  0  0  0  0  0  0  0  0  0  0
   -1.3735   19.1962  -31.7184 H   0  0  0  0  0  0  0  0  0  0  0  0
   -2.0662   17.7096  -33.9711 H   0  0  0  0  0  0  0  0  0  0  0  0
   -3.1349   17.8797  -32.5642 H   0  0  0  0  0  0  0  0  0  0  0  0
   -5.2161   20.0301  -31.6262 H   0  0  0  0  0  0  0  0  0  0  0  0
  1  2  1  0
  2  3  2  0
  2  4  1  0
  4  5  1  0
  5  6  1  0
  6  7  1  0
  6  8  2  0
  5  9  2  0
  9 10  1  0
 10 11  2  0
 11 12  1  0
 12 13  2  0
 13 14  1  0
 14 15  1  0
 15 16  1  0
 16 17  2  0
 16 18  2  0
 16 19  1  0
 19 20  1  0
 20 21  1  0
 21 22  1  0
 22 23  1  0
 13 24  1  0
 24 25  2  0
 25  4  1  0
 25 10  1  0
 23 19  1  0
  1 26  1  0
  7 27  1  0
  7 28  1  0
  9 29  1  0
 11 30  1  0
 12 31  1  0
 14 32  1  0
 14 33  1  0
 15 34  1  0
 15 35  1  0
 20 36  1  0
 20 37  1  0
 21 38  1  0
 21 39  1  0
 22 40  1  0
 22 41  1  0
 23 42  1  0
 23 43  1  0
 24 44  1  0
M  CHG  1   1  -1
M  END
>  <UniqueID>  (35) 
34

>  <SMILES>  (35) 
[NH-]C(=O)n1c(C(N)=O)cc2ccc(CCS(=O)(=O)N3CCCC3)cc21

>  <Energy>  (35) 
77.07139117618156

>  <Genealogy>  (35) 
[NH-]C(=O)n1c(C(N)=O)cc2ccc(CCS(=O)(=O)N3CCCC3)cc21 (protonated)
[NH-]C(=O)n1c(C(N)=O)cc2ccc(CCS(=O)(=O)N3CCCC3)cc21 (3D coordinates assigned)
[NH-]C(=O)n1c(C(N)=O)cc2ccc(CCS(=O)(=O)N3CCCC3)cc21 (nonaromatic ring conformer: 77.07139117618156 kcal/mol)

>  <smiles>  (35) 
NC(=O)c1cc2ccc(CCS(=O)(=O)N3CCCC3)cc2n1C(N)=O

>  <score_type>  (35) 
oracle

>  <origin>  (35) 
adg

>  <m_score__min__energy>  (35) 
-10.06

>  <m_primary>  (35) 
energy

$$$$
35:0
     RDKit          3D

 34 35  0  0  0  0  0  0  0  0999 V2000
   -4.2160   18.8020  -34.1070 C   0  0  0  0  0  0  0  0  0  0  0  0
   -5.6070   18.5820  -34.1840 O   0  0  0  0  0  0  0  0  0  0  0  0
   -6.0860   18.0180  -32.9770 C   0  0  0  0  0  0  0  0  0  0  0  0
   -7.5290   18.4620  -32.7230 C   0  0  0  0  0  0  0  0  0  0  0  0
   -7.5690   19.8800  -32.2200 C   0  0  0  0  0  0  0  0  0  0  0  0
   -8.8120   20.5340  -32.0370 C   0  0  0  0  0  0  0  0  0  0  0  0
   -8.8620   21.8660  -31.5930 C   0  0  0  0  0  0  0  0  0  0  0  0
   -7.6570   22.5190  -31.3530 C   0  0  0  0  0  0  0  0  0  0  0  0
   -7.4130   23.8010  -30.9130 C   0  0  0  0  0  0  0  0  0  0  0  0
   -6.0250   23.9160  -30.8600 C   0  0  0  0  0  0  0  0  0  0  0  0
   -5.3200   25.1690  -30.5190 C   0  0  0  0  0  0  0  0  0  0  0  0
   -3.9090   25.2610  -30.7000 N   0  0  0  0  0  0  0  0  0  0  0  0
   -5.9470   26.1490  -30.0390 O   0  0  0  0  0  0  0  0  0  0  0  0
   -5.4360   22.7480  -31.2450 N   0  0  0  0  0  0  0  0  0  0  0  0
   -4.0350   22.4300  -31.2790 C   0  0  0  0  0  0  0  0  0  0  0  0
   -3.2600   22.2390  -30.0150 C   0  0  0  0  0  0  0  0  0  0  0  0
   -3.4620   22.2500  -32.3870 O   0  0  0  0  0  0  0  0  0  0  0  0
   -6.4460   21.9080  -31.5490 C   0  0  0  0  0  0  0  0  0  0  0  0
   -6.3650   20.5790  -31.9790 C   0  0  0  0  0  0  0  0  0  0  0  0
   -3.9103   18.8503  -33.0514 H   0  0  0  0  0  0  0  0  0  0  0  0
   -3.6861   17.9765  -34.6048 H   0  0  0  0  0  0  0  0  0  0  0  0
   -3.9667   19.7507  -34.6048 H   0  0  0  0  0  0  0  0  0  0  0  0
   -6.0506   16.9209  -33.0492 H   0  0  0  0  0  0  0  0  0  0  0  0
   -5.4532   18.3598  -32.1447 H   0  0  0  0  0  0  0  0  0  0  0  0
   -8.0977   18.3959  -33.6623 H   0  0  0  0  0  0  0  0  0  0  0  0
   -7.9724   17.8040  -31.9611 H   0  0  0  0  0  0  0  0  0  0  0  0
   -9.7474   19.9937  -32.2446 H   0  0  0  0  0  0  0  0  0  0  0  0
   -9.8241   22.3769  -31.4398 H   0  0  0  0  0  0  0  0  0  0  0  0
   -8.1560   24.5709  -30.6576 H   0  0  0  0  0  0  0  0  0  0  0  0
   -3.4890   26.0450  -31.2480 H   0  0  0  0  0  0  0  0  0  0  0  0
   -3.9213   22.4020  -29.1512 H   0  0  0  0  0  0  0  0  0  0  0  0
   -2.8591   21.2152  -29.9818 H   0  0  0  0  0  0  0  0  0  0  0  0
   -2.4293   22.9593  -29.9818 H   0  0  0  0  0  0  0  0  0  0  0  0
   -5.3899   20.0914  -32.1255 H   0  0  0  0  0  0  0  0  0  0  0  0
  1  2  1  0
  2  3  1  0
  3  4  1  0
  4  5  1  0
  5  6  2  0
  6  7  1  0
  7  8  2  0
  8  9  1  0
  9 10  2  0
 10 11  1  0
 11 12  1  0
 11 13  2  0
 10 14  1  0
 14 15  1  0
 15 16  1  0
 15 17  2  0
 14 18  1  0
 18 19  2  0
 19  5  1  0
 18  8  1  0
  1 20  1  0
  1 21  1  0
  1 22  1  0
  3 23  1  0
  3 24  1  0
  4 25  1  0
  4 26  1  0
  6 27  1  0
  7 28  1  0
  9 29  1  0
 12 30  1  0
 16 31  1  0
 16 32  1  0
 16 33  1  0
 19 34  1  0
M  CHG  1  12  -1
M  END
>  <UniqueID>  (36) 
35

>  <SMILES>  (36) 
COCCc1ccc2cc(C([NH-])=O)n(C(C)=O)c2c1

>  <Energy>  (36) 
72.06504530967709

>  <Genealogy>  (36) 
COCCc1ccc2cc(C([NH-])=O)n(C(C)=O)c2c1 (protonated)
COCCc1ccc2cc(C([NH-])=O)n(C(C)=O)c2c1 (3D coordinates assigned)
COCCc1ccc2cc(C([NH-])=O)n(C(C)=O)c2c1 (optimized conformer: 72.06504530967709 kcal/mol)

>  <smiles>  (36) 
COCCc1ccc2cc(C(N)=O)n(C(C)=O)c2c1

>  <score_type>  (36) 
oracle

>  <origin>  (36) 
adg

>  <m_score__min__energy>  (36) 
-9.7300000000000004

>  <m_primary>  (36) 
energy

$$$$
36:0
     RDKit          3D

 47 49  0  0  0  0  0  0  0  0999 V2000
   -3.0560   15.2150  -36.7620 C   0  0  0  0  0  0  0  0  0  0  0  0
   -3.3070   15.7190  -35.3320 C   0  0  0  0  0  0  0  0  0  0  0  0
   -1.9490   16.0120  -34.6630 C   0  0  0  0  0  0  0  0  0  0  0  0
   -3.9680   14.7010  -34.6190 O   0  0  0  0  0  0  0  0  0  0  0  0
   -4.1640   17.0120  -35.3480 C   0  0  0  0  0  0  0  0  0  0  0  0
   -4.9080   17.1970  -34.0990 N   0  0  0  0  0  0  0  0  0  0  0  0
   -4.4590   18.0130  -32.9830 C   0  0  0  0  0  0  0  0  0  0  0  0
   -5.6390   18.0510  -31.9770 C   0  0  1  0  0  0  0  0  0  0  0  0
   -6.1890   19.4560  -31.8070 C   0  0  0  0  0  0  0  0  0  0  0  0
   -7.5570   19.7330  -32.0720 C   0  0  0  0  0  0  0  0  0  0  0  0
   -8.0730   21.0270  -31.8980 C   0  0  0  0  0  0  0  0  0  0  0  0
   -7.2030   22.0260  -31.4730 C   0  0  0  0  0  0  0  0  0  0  0  0
   -7.4500   23.3490  -31.1890 C   0  0  0  0  0  0  0  0  0  0  0  0
   -6.2260   23.8720  -30.7870 C   0  0  0  0  0  0  0  0  0  0  0  0
   -6.0260   25.2920  -30.4340 C   0  0  0  0  0  0  0  0  0  0  0  0
   -6.5100   25.8260  -29.2020 N   0  0  0  0  0  0  0  0  0  0  0  0
   -5.3690   26.0350  -31.2110 O   0  0  0  0  0  0  0  0  0  0  0  0
   -5.2590   22.9110  -30.8080 N   0  0  0  0  0  0  0  0  0  0  0  0
   -3.9000   23.0330  -30.3540 C   0  0  0  0  0  0  0  0  0  0  0  0
   -3.2100   24.2750  -30.4690 N   0  0  0  0  0  0  0  0  0  0  0  0
   -3.3130   22.0420  -29.8440 O   0  0  0  0  0  0  0  0  0  0  0  0
   -5.8740   21.7840  -31.2320 C   0  0  0  0  0  0  0  0  0  0  0  0
   -5.3390   20.4980  -31.3730 C   0  0  0  0  0  0  0  0  0  0  0  0
   -6.7170   17.0760  -32.5060 C   0  0  0  0  0  0  0  0  0  0  0  0
   -6.1970   16.6790  -33.8290 C   0  0  0  0  0  0  0  0  0  0  0  0
   -6.8310   15.9500  -34.6370 O   0  0  0  0  0  0  0  0  0  0  0  0
   -2.5659   14.2310  -36.7232 H   0  0  0  0  0  0  0  0  0  0  0  0
   -4.0152   15.1263  -37.2932 H   0  0  0  0  0  0  0  0  0  0  0  0
   -2.4072   15.9270  -37.2932 H   0  0  0  0  0  0  0  0  0  0  0  0
   -2.0659   15.9868  -33.5695 H   0  0  0  0  0  0  0  0  0  0  0  0
   -1.2167   15.2512  -34.9711 H   0  0  0  0  0  0  0  0  0  0  0  0
   -1.5956   17.0071  -34.9711 H   0  0  0  0  0  0  0  0  0  0  0  0
   -4.9460   14.8730  -34.6760 H   0  0  0  0  0  0  0  0  0  0  0  0
   -3.4994   17.8760  -35.4960 H   0  0  0  0  0  0  0  0  0  0  0  0
   -4.8936   16.9241  -36.1665 H   0  0  0  0  0  0  0  0  0  0  0  0
   -3.5715   17.5633  -32.5138 H   0  0  0  0  0  0  0  0  0  0  0  0
   -4.1779   19.0244  -33.3117 H   0  0  0  0  0  0  0  0  0  0  0  0
   -5.2994   17.7431  -30.9771 H   0  0  0  0  0  0  0  0  0  0  0  0
   -8.2189   18.9251  -32.4172 H   0  0  0  0  0  0  0  0  0  0  0  0
   -9.1337   21.2445  -32.0919 H   0  0  0  0  0  0  0  0  0  0  0  0
   -8.4105   23.8798  -31.2639 H   0  0  0  0  0  0  0  0  0  0  0  0
   -6.3960   26.8410  -28.9900 H   0  0  0  0  0  0  0  0  0  0  0  0
   -6.9010   25.2020  -28.4610 H   0  0  0  0  0  0  0  0  0  0  0  0
   -3.4770   24.9720  -31.1980 H   0  0  0  0  0  0  0  0  0  0  0  0
   -4.2795   20.3029  -31.1507 H   0  0  0  0  0  0  0  0  0  0  0  0
   -6.8176   16.2032  -31.8442 H   0  0  0  0  0  0  0  0  0  0  0  0
   -7.7187   17.5279  -32.5554 H   0  0  0  0  0  0  0  0  0  0  0  0
  1  2  1  0
  2  3  1  0
  2  4  1  0
  2  5  1  0
  5  6  1  0
  6  7  1  0
  7  8  1  0
  8  9  1  0
  9 10  2  0
 10 11  1  0
 11 12  2  0
 12 13  1  0
 13 14  2  0
 14 15  1  0
 15 16  1  0
 15 17  2  0
 14 18  1  0
 18 19  1  0
 19 20  1  0
 19 21  2  0
 18 22  1  0
 22 23  2  0
  8 24  1  0
 24 25  1  0
 25 26  2  0
 25  6  1  0
 23  9  1  0
 22 12  1  0
  1 27  1  0
  1 28  1  0
  1 29  1  0
  3 30  1  0
  3 31  1  0
  3 32  1  0
  4 33  1  0
  5 34  1  0
  5 35  1  0
  7 36  1  0
  7 37  1  0
  8 38  1  1
 10 39  1  0
 11 40  1  0
 13 41  1  0
 16 42  1  0
 16 43  1  0
 20 44  1  0
 23 45  1  0
 24 46  1  0
 24 47  1  0
M  CHG  1  20  -1
M  END
>  <UniqueID>  (37) 
36

>  <SMILES>  (37) 
CC(C)(O)CN1C[C@@H](c2ccc3cc(C(N)=O)n(C([NH-])=O)c3c2)CC1=O

>  <Energy>  (37) 
91.59122055289775

>  <Genealogy>  (37) 
CC(C)(O)CN1C[C@@H](c2ccc3cc(C(N)=O)n(C([NH-])=O)c3c2)CC1=O (protonated)
CC(C)(O)CN1C[C@@H](c2ccc3cc(C(N)=O)n(C([NH-])=O)c3c2)CC1=O (3D coordinates assigned)
CC(C)(O)CN1C[C@@H](c2ccc3cc(C(N)=O)n(C([NH-])=O)c3c2)CC1=O (nonaromatic ring conformer: 91.59122055289775 kcal/mol)

>  <smiles>  (37) 
CC(C)(O)CN1C[C@@H](c2ccc3cc(C(N)=O)n(C(N)=O)c3c2)CC1=O

>  <score_type>  (37) 
oracle

>  <origin>  (37) 
adg

>  <m_score__min__energy>  (37) 
-9.5999999999999996

>  <m_primary>  (37) 
energy

$$$$
37:0
     RDKit          3D

 38 40  0  0  0  0  0  0  0  0999 V2000
   -2.1580   20.0850  -33.4750 C   0  0  0  0  0  0  0  0  0  0  0  0
   -1.8570   21.0970  -32.3750 C   0  0  0  0  0  0  0  0  0  0  0  0
   -2.7350   22.2170  -32.4690 O   0  0  0  0  0  0  0  0  0  0  0  0
   -3.4310   22.7440  -31.3760 C   0  0  0  0  0  0  0  0  0  0  0  0
   -2.8120   23.1070  -30.3390 O   0  0  0  0  0  0  0  0  0  0  0  0
   -4.8630   22.8430  -31.4250 N   0  0  0  0  0  0  0  0  0  0  0  0
   -5.6470   23.8660  -30.9820 C   0  0  0  0  0  0  0  0  0  0  0  0
   -5.1700   25.1780  -30.4950 C   0  0  0  0  0  0  0  0  0  0  0  0
   -3.8800   25.6680  -30.8500 N   0  0  0  0  0  0  0  0  0  0  0  0
   -5.9320   25.8980  -29.7940 O   0  0  0  0  0  0  0  0  0  0  0  0
   -6.9950   23.5470  -31.1270 C   0  0  0  0  0  0  0  0  0  0  0  0
   -7.0140   22.2890  -31.6860 C   0  0  0  0  0  0  0  0  0  0  0  0
   -8.0910   21.4830  -32.0390 C   0  0  0  0  0  0  0  0  0  0  0  0
   -7.8160   20.2150  -32.5750 C   0  0  0  0  0  0  0  0  0  0  0  0
   -6.4790   19.7690  -32.7430 C   0  0  0  0  0  0  0  0  0  0  0  0
   -6.2020   18.4200  -33.2990 C   0  0  0  0  0  0  0  0  0  0  0  0
   -7.1380   17.3830  -33.1630 C   0  0  0  0  0  0  0  0  0  0  0  0
   -6.8580   16.1220  -33.6930 C   0  0  0  0  0  0  0  0  0  0  0  0
   -5.6820   15.8950  -34.3390 N   0  0  0  0  0  0  0  0  0  0  0  0
   -4.7540   16.8800  -34.4860 C   0  0  0  0  0  0  0  0  0  0  0  0
   -3.2470   16.5470  -35.3210 Cl  0  0  0  0  0  0  0  0  0  0  0  0
   -4.9970   18.1570  -33.9720 C   0  0  0  0  0  0  0  0  0  0  0  0
   -5.4130   20.6210  -32.3700 C   0  0  0  0  0  0  0  0  0  0  0  0
   -5.7160   21.8870  -31.8560 C   0  0  0  0  0  0  0  0  0  0  0  0
   -2.4437   19.1245  -33.0214 H   0  0  0  0  0  0  0  0  0  0  0  0
   -2.9846   20.4563  -34.0986 H   0  0  0  0  0  0  0  0  0  0  0  0
   -1.2629   19.9442  -34.0986 H   0  0  0  0  0  0  0  0  0  0  0  0
   -1.9890   20.6155  -31.3948 H   0  0  0  0  0  0  0  0  0  0  0  0
   -0.8209   21.4481  -32.4901 H   0  0  0  0  0  0  0  0  0  0  0  0
   -3.0150   25.2620  -30.4280 H   0  0  0  0  0  0  0  0  0  0  0  0
   -7.8605   24.1682  -30.8531 H   0  0  0  0  0  0  0  0  0  0  0  0
   -9.1264   21.8284  -31.9024 H   0  0  0  0  0  0  0  0  0  0  0  0
   -8.6480   19.5581  -32.8688 H   0  0  0  0  0  0  0  0  0  0  0  0
   -8.0891   17.5632  -32.6405 H   0  0  0  0  0  0  0  0  0  0  0  0
   -7.5911   15.3086  -33.5879 H   0  0  0  0  0  0  0  0  0  0  0  0
   -5.4930   14.9450  -34.7280 H   0  0  0  0  0  0  0  0  0  0  0  0
   -4.2477   18.9530  -34.0940 H   0  0  0  0  0  0  0  0  0  0  0  0
   -4.3682   20.2954  -32.4816 H   0  0  0  0  0  0  0  0  0  0  0  0
  1  2  1  0
  2  3  1  0
  3  4  1  0
  4  5  2  0
  4  6  1  0
  6  7  1  0
  7  8  1  0
  8  9  1  0
  8 10  2  0
  7 11  2  0
 11 12  1  0
 12 13  2  0
 13 14  1  0
 14 15  2  0
 15 16  1  0
 16 17  2  0
 17 18  1  0
 18 19  2  0
 19 20  1  0
 20 21  1  0
 20 22  2  0
 15 23  1  0
 23 24  2  0
 24  6  1  0
 24 12  1  0
 22 16  1  0
  1 25  1  0
  1 26  1  0
  1 27  1  0
  2 28  1  0
  2 29  1  0
  9 30  1  0
 11 31  1  0
 13 32  1  0
 14 33  1  0
 17 34  1  0
 18 35  1  0
 19 36  1  0
 22 37  1  0
 23 38  1  0
M  CHG  2   9  -1  19   1
M  END
>  <UniqueID>  (38) 
37

>  <SMILES>  (38) 
CCOC(=O)n1c(C([NH-])=O)cc2ccc(-c3cc[nH+]c(Cl)c3)cc21

>  <Energy>  (38) 
80.92635649163763

>  <Genealogy>  (38) 
CCOC(=O)n1c(C([NH-])=O)cc2ccc(-c3cc[nH+]c(Cl)c3)cc21 (protonated)
CCOC(=O)n1c(C([NH-])=O)cc2ccc(-c3cc[nH+]c(Cl)c3)cc21 (3D coordinates assigned)
CCOC(=O)n1c(C([NH-])=O)cc2ccc(-c3cc[nH+]c(Cl)c3)cc21 (optimized conformer: 80.92635649163763 kcal/mol)

>  <smiles>  (38) 
CCOC(=O)n1c(C(N)=O)cc2ccc(-c3ccnc(Cl)c3)cc21

>  <score_type>  (38) 
oracle

>  <origin>  (38) 
adg

>  <m_score__min__energy>  (38) 
-10.460000000000001

>  <m_primary>  (38) 
energy

$$$$
38:0
     RDKit          3D

 52 54  0  0  0  0  0  0  0  0999 V2000
   -3.9310   14.3860  -34.9720 C   0  0  0  0  0  0  0  0  0  0  0  0
   -5.1540   14.4960  -34.0420 C   0  0  0  0  0  0  0  0  0  0  0  0
   -4.7160   14.8080  -32.5990 C   0  0  0  0  0  0  0  0  0  0  0  0
   -5.9060   13.1570  -34.0530 C   0  0  0  0  0  0  0  0  0  0  0  0
   -6.0660   15.4960  -34.5220 O   0  0  0  0  0  0  0  0  0  0  0  0
   -6.4950   16.6370  -33.8250 C   0  0  0  0  0  0  0  0  0  0  0  0
   -7.5840   16.6270  -33.1880 O   0  0  0  0  0  0  0  0  0  0  0  0
   -5.6880   17.8300  -33.8370 N   0  0  0  0  0  0  0  0  0  0  0  0
   -6.2230   19.0680  -33.2480 C   0  0  0  0  0  0  0  0  0  0  0  0
   -5.2880   20.2540  -33.4900 C   0  0  0  0  0  0  0  0  0  0  0  0
   -3.9110   19.8680  -33.1670 N   0  0  0  0  0  0  0  0  0  0  0  0
   -3.1230   20.6540  -32.2530 C   0  0  0  0  0  0  0  0  0  0  0  0
   -1.7880   20.2790  -31.9570 C   0  0  0  0  0  0  0  0  0  0  0  0
   -1.0090   21.0380  -31.0680 C   0  0  0  0  0  0  0  0  0  0  0  0
   -1.5850   22.1710  -30.5010 C   0  0  0  0  0  0  0  0  0  0  0  0
   -1.0690   23.0660  -29.5910 C   0  0  0  0  0  0  0  0  0  0  0  0
   -2.0870   23.9910  -29.3640 C   0  0  0  0  0  0  0  0  0  0  0  0
   -1.9390   25.1740  -28.4910 C   0  0  0  0  0  0  0  0  0  0  0  0
   -1.2160   26.3120  -28.9550 N   0  0  0  0  0  0  0  0  0  0  0  0
   -2.4640   25.2020  -27.3480 O   0  0  0  0  0  0  0  0  0  0  0  0
   -3.1870   23.6780  -30.1050 N   0  0  0  0  0  0  0  0  0  0  0  0
   -4.4570   24.3500  -30.1210 C   0  0  0  0  0  0  0  0  0  0  0  0
   -4.9910   24.9140  -28.9240 N   0  0  0  0  0  0  0  0  0  0  0  0
   -5.1030   24.4510  -31.1990 O   0  0  0  0  0  0  0  0  0  0  0  0
   -2.8640   22.5620  -30.7940 C   0  0  0  0  0  0  0  0  0  0  0  0
   -3.6700   21.8130  -31.6590 C   0  0  0  0  0  0  0  0  0  0  0  0
   -3.3520   18.6260  -33.7230 C   0  0  0  0  0  0  0  0  0  0  0  0
   -4.3930   17.8440  -34.5360 C   0  0  0  0  0  0  0  0  0  0  0  0
   -3.0163   14.3037  -34.3666 H   0  0  0  0  0  0  0  0  0  0  0  0
   -4.0321   13.4933  -35.6067 H   0  0  0  0  0  0  0  0  0  0  0  0
   -3.8712   15.2824  -35.6067 H   0  0  0  0  0  0  0  0  0  0  0  0
   -5.4032   14.3185  -31.8933 H   0  0  0  0  0  0  0  0  0  0  0  0
   -3.6949   14.4327  -32.4365 H   0  0  0  0  0  0  0  0  0  0  0  0
   -4.7370   15.8957  -32.4365 H   0  0  0  0  0  0  0  0  0  0  0  0
   -6.0892   12.8308  -33.0186 H   0  0  0  0  0  0  0  0  0  0  0  0
   -6.8668   13.2803  -34.5742 H   0  0  0  0  0  0  0  0  0  0  0  0
   -5.3006   12.4007  -34.5742 H   0  0  0  0  0  0  0  0  0  0  0  0
   -7.2012   19.2858  -33.7015 H   0  0  0  0  0  0  0  0  0  0  0  0
   -6.3187   18.9201  -32.1622 H   0  0  0  0  0  0  0  0  0  0  0  0
   -5.3455   20.5560  -34.5462 H   0  0  0  0  0  0  0  0  0  0  0  0
   -5.5915   21.0953  -32.8496 H   0  0  0  0  0  0  0  0  0  0  0  0
   -1.3574   19.3835  -32.4289 H   0  0  0  0  0  0  0  0  0  0  0  0
    0.0239   20.7460  -30.8275 H   0  0  0  0  0  0  0  0  0  0  0  0
   -0.0663   23.0538  -29.1390 H   0  0  0  0  0  0  0  0  0  0  0  0
   -0.9250   26.3910  -29.9550 H   0  0  0  0  0  0  0  0  0  0  0  0
   -5.8990   25.4290  -28.9430 H   0  0  0  0  0  0  0  0  0  0  0  0
   -4.5030   24.7820  -28.0110 H   0  0  0  0  0  0  0  0  0  0  0  0
   -4.7049   22.1196  -31.8712 H   0  0  0  0  0  0  0  0  0  0  0  0
   -2.5057   18.8790  -34.3785 H   0  0  0  0  0  0  0  0  0  0  0  0
   -3.0280   17.9923  -32.8843 H   0  0  0  0  0  0  0  0  0  0  0  0
   -4.5174   18.3212  -35.5192 H   0  0  0  0  0  0  0  0  0  0  0  0
   -4.0437   16.8082  -34.6589 H   0  0  0  0  0  0  0  0  0  0  0  0
  1  2  1  0
  2  3  1  0
  2  4  1  0
  2  5  1  0
  5  6  1  0
  6  7  2  0
  6  8  1  0
  8  9  1  0
  9 10  1  0
 10 11  1  0
 11 12  1  0
 12 13  2  0
 13 14  1  0
 14 15  2  0
 15 16  1  0
 16 17  2  0
 17 18  1  0
 18 19  1  0
 18 20  2  0
 17 21  1  0
 21 22  1  0
 22 23  1  0
 22 24  2  0
 21 25  1  0
 25 26  2  0
 11 27  1  0
 27 28  1  0
 28  8  1  0
 26 12  1  0
 25 15  1  0
  1 29  1  0
  1 30  1  0
  1 31  1  0
  3 32  1  0
  3 33  1  0
  3 34  1  0
  4 35  1  0
  4 36  1  0
  4 37  1  0
  9 38  1  0
  9 39  1  0
 10 40  1  0
 10 41  1  0
 13 42  1  0
 14 43  1  0
 16 44  1  0
 19 45  1  0
 23 46  1  0
 23 47  1  0
 26 48  1  0
 27 49  1  0
 27 50  1  0
 28 51  1  0
 28 52  1  0
M  CHG  1  19  -1
M  END
>  <UniqueID>  (39) 
38

>  <SMILES>  (39) 
CC(C)(C)OC(=O)N1CCN(c2ccc3cc(C([NH-])=O)n(C(N)=O)c3c2)CC1

>  <Energy>  (39) 
90.15042739132114

>  <Genealogy>  (39) 
CC(C)(C)OC(=O)N1CCN(c2ccc3cc(C([NH-])=O)n(C(N)=O)c3c2)CC1 (protonated)
CC(C)(C)OC(=O)N1CCN(c2ccc3cc(C([NH-])=O)n(C(N)=O)c3c2)CC1 (3D coordinates assigned)
CC(C)(C)OC(=O)N1CCN(c2ccc3cc(C([NH-])=O)n(C(N)=O)c3c2)CC1 (nonaromatic ring conformer: 90.15042739132114 kcal/mol)

>  <smiles>  (39) 
CC(C)(C)OC(=O)N1CCN(c2ccc3cc(C(N)=O)n(C(N)=O)c3c2)CC1

>  <score_type>  (39) 
oracle

>  <origin>  (39) 
adg

>  <m_score__min__energy>  (39) 
-10.210000000000001

>  <m_primary>  (39) 
energy

$$$$
39:0
     RDKit          3D

 35 37  0  0  0  0  0  0  0  0999 V2000
   -3.4380   12.7400  -33.0120 C   0  0  0  0  0  0  0  0  0  0  0  0
   -4.2560   13.9310  -32.6260 C   0  0  0  0  0  0  0  0  0  0  0  0
   -4.6010   14.0750  -31.4220 O   0  0  0  0  0  0  0  0  0  0  0  0
   -4.6710   14.8650  -33.6350 N   0  0  0  0  0  0  0  0  0  0  0  0
   -5.4200   16.0650  -33.3910 C   0  0  0  0  0  0  0  0  0  0  0  0
   -6.7200   16.1870  -33.7320 N   0  0  0  0  0  0  0  0  0  0  0  0
   -7.2220   17.4110  -33.4180 C   0  0  0  0  0  0  0  0  0  0  0  0
   -6.3140   18.2910  -32.8200 C   0  0  0  0  0  0  0  0  0  0  0  0
   -6.5770   19.6840  -32.3770 C   0  0  0  0  0  0  0  0  0  0  0  0
   -7.9040   20.1870  -32.2990 C   0  0  0  0  0  0  0  0  0  0  0  0
   -8.1520   21.5070  -31.8900 C   0  0  0  0  0  0  0  0  0  0  0  0
   -7.0620   22.3040  -31.5540 C   0  0  0  0  0  0  0  0  0  0  0  0
   -7.0180   23.6180  -31.1530 C   0  0  0  0  0  0  0  0  0  0  0  0
   -5.6670   23.9020  -30.9640 C   0  0  0  0  0  0  0  0  0  0  0  0
   -5.1710   25.1970  -30.4540 C   0  0  0  0  0  0  0  0  0  0  0  0
   -3.8810   25.6660  -30.8440 N   0  0  0  0  0  0  0  0  0  0  0  0
   -5.8840   25.9110  -29.7020 O   0  0  0  0  0  0  0  0  0  0  0  0
   -4.9060   22.8050  -31.2430 N   0  0  0  0  0  0  0  0  0  0  0  0
   -3.4730   22.7010  -31.2240 C   0  0  0  0  0  0  0  0  0  0  0  0
   -2.7320   23.1990  -30.1130 N   0  0  0  0  0  0  0  0  0  0  0  0
   -2.8650   22.1590  -32.1850 O   0  0  0  0  0  0  0  0  0  0  0  0
   -5.7770   21.8350  -31.6000 C   0  0  0  0  0  0  0  0  0  0  0  0
   -5.4970   20.5290  -32.0230 C   0  0  0  0  0  0  0  0  0  0  0  0
   -4.8380   17.4830  -32.6930 S   0  0  0  0  0  0  0  0  0  0  0  0
   -3.0859   12.2274  -32.1047 H   0  0  0  0  0  0  0  0  0  0  0  0
   -4.0536   12.0498  -33.6076 H   0  0  0  0  0  0  0  0  0  0  0  0
   -2.5729   13.0668  -33.6076 H   0  0  0  0  0  0  0  0  0  0  0  0
   -4.4100   14.6590  -34.6250 H   0  0  0  0  0  0  0  0  0  0  0  0
   -8.2670   17.6891  -33.6197 H   0  0  0  0  0  0  0  0  0  0  0  0
   -8.7483   19.5331  -32.5627 H   0  0  0  0  0  0  0  0  0  0  0  0
   -9.1781   21.8997  -31.8367 H   0  0  0  0  0  0  0  0  0  0  0  0
   -7.8689   24.3006  -31.0113 H   0  0  0  0  0  0  0  0  0  0  0  0
   -3.0170   25.2980  -30.3900 H   0  0  0  0  0  0  0  0  0  0  0  0
   -2.4570   24.2050  -30.0600 H   0  0  0  0  0  0  0  0  0  0  0  0
   -4.4597   20.1674  -32.0790 H   0  0  0  0  0  0  0  0  0  0  0  0
  1  2  1  0
  2  3  2  0
  2  4  1  0
  4  5  1  0
  5  6  2  0
  6  7  1  0
  7  8  2  0
  8  9  1  0
  9 10  2  0
 10 11  1  0
 11 12  2  0
 12 13  1  0
 13 14  2  0
 14 15  1  0
 15 16  1  0
 15 17  2  0
 14 18  1  0
 18 19  1  0
 19 20  1  0
 19 21  2  0
 18 22  1  0
 22 23  2  0
  8 24  1  0
 24  5  1  0
 23  9  1  0
 22 12  1  0
  1 25  1  0
  1 26  1  0
  1 27  1  0
  4 28  1  0
  7 29  1  0
 10 30  1  0
 11 31  1  0
 13 32  1  0
 16 33  1  0
 20 34  1  0
 23 35  1  0
M  CHG  2  16  -1  20  -1
M  END
>  <UniqueID>  (40) 
39

>  <SMILES>  (40) 
CC(=O)Nc1ncc(-c2ccc3cc(C([NH-])=O)n(C([NH-])=O)c3c2)s1

>  <Energy>  (40) 
108.13646231450906

>  <Genealogy>  (40) 
CC(=O)Nc1ncc(-c2ccc3cc(C([NH-])=O)n(C([NH-])=O)c3c2)s1 (protonated)
CC(=O)Nc1ncc(-c2ccc3cc(C([NH-])=O)n(C([NH-])=O)c3c2)s1 (3D coordinates assigned)
CC(=O)Nc1ncc(-c2ccc3cc(C([NH-])=O)n(C([NH-])=O)c3c2)s1 (optimized conformer: 108.13646231450906 kcal/mol)

>  <smiles>  (40) 
CC(=O)Nc1ncc(-c2ccc3cc(C(N)=O)n(C(N)=O)c3c2)s1

>  <score_type>  (40) 
oracle

>  <origin>  (40) 
adg

>  <m_score__min__energy>  (40) 
-10.73

>  <m_primary>  (40) 
energy

$$$$
40:0
     RDKit          3D

 49 51  0  0  0  0  0  0  0  0999 V2000
   -2.5110   20.0100  -33.6400 C   0  0  0  0  0  0  0  0  0  0  0  0
   -2.2080   20.8790  -32.4240 C   0  0  0  0  0  0  0  0  0  0  0  0
   -2.9020   22.1220  -32.5080 O   0  0  0  0  0  0  0  0  0  0  0  0
   -3.5550   22.7170  -31.4220 C   0  0  0  0  0  0  0  0  0  0  0  0
   -2.8930   23.1410  -30.4350 O   0  0  0  0  0  0  0  0  0  0  0  0
   -4.9840   22.8590  -31.4390 N   0  0  0  0  0  0  0  0  0  0  0  0
   -5.7270   23.8820  -30.9270 C   0  0  0  0  0  0  0  0  0  0  0  0
   -5.1980   25.1450  -30.3730 C   0  0  0  0  0  0  0  0  0  0  0  0
   -3.9510   25.6560  -30.8390 N   0  0  0  0  0  0  0  0  0  0  0  0
   -5.8180   25.7630  -29.4680 O   0  0  0  0  0  0  0  0  0  0  0  0
   -7.0870   23.6150  -31.0670 C   0  0  0  0  0  0  0  0  0  0  0  0
   -7.1570   22.3890  -31.6920 C   0  0  0  0  0  0  0  0  0  0  0  0
   -8.2650   21.6400  -32.0700 C   0  0  0  0  0  0  0  0  0  0  0  0
   -8.0410   20.3930  -32.6780 C   0  0  0  0  0  0  0  0  0  0  0  0
   -6.7210   19.9160  -32.8890 C   0  0  0  0  0  0  0  0  0  0  0  0
   -6.5030   18.6310  -33.5020 N   0  0  0  0  0  0  0  0  0  0  0  0
   -7.2430   17.4610  -33.0140 C   0  0  0  0  0  0  0  0  0  0  0  0
   -6.8680   16.2060  -33.8140 C   0  0  0  0  0  0  0  0  0  0  0  0
   -5.4030   16.0990  -34.0050 N   0  0  0  0  0  0  0  0  0  0  0  0
   -4.7110   15.8630  -32.7080 C   0  0  0  0  0  0  0  0  0  0  0  0
   -4.5830   14.3700  -32.3830 C   0  0  0  0  0  0  0  0  0  0  0  0
   -4.8340   17.2730  -34.7360 C   0  0  0  0  0  0  0  0  0  0  0  0
   -5.7380   18.5230  -34.7480 C   0  0  0  0  0  0  0  0  0  0  0  0
   -5.6220   20.7100  -32.4900 C   0  0  0  0  0  0  0  0  0  0  0  0
   -5.8740   21.9550  -31.9040 C   0  0  0  0  0  0  0  0  0  0  0  0
   -2.8561   19.0202  -33.3065 H   0  0  0  0  0  0  0  0  0  0  0  0
   -3.2958   20.4872  -34.2453 H   0  0  0  0  0  0  0  0  0  0  0  0
   -1.5997   19.8958  -34.2453 H   0  0  0  0  0  0  0  0  0  0  0  0
   -2.5248   20.3493  -31.5135 H   0  0  0  0  0  0  0  0  0  0  0  0
   -1.1268   21.0788  -32.3923 H   0  0  0  0  0  0  0  0  0  0  0  0
   -3.0480   25.2980  -30.4560 H   0  0  0  0  0  0  0  0  0  0  0  0
   -7.9271   24.2487  -30.7465 H   0  0  0  0  0  0  0  0  0  0  0  0
   -9.2859   22.0119  -31.8985 H   0  0  0  0  0  0  0  0  0  0  0  0
   -8.8980   19.7799  -32.9938 H   0  0  0  0  0  0  0  0  0  0  0  0
   -7.0012   17.2981  -31.9533 H   0  0  0  0  0  0  0  0  0  0  0  0
   -8.3199   17.6486  -33.1370 H   0  0  0  0  0  0  0  0  0  0  0  0
   -7.2232   15.3174  -33.2715 H   0  0  0  0  0  0  0  0  0  0  0  0
   -7.3401   16.2758  -34.8051 H   0  0  0  0  0  0  0  0  0  0  0  0
   -5.2560   15.2500  -34.6020 H   0  0  0  0  0  0  0  0  0  0  0  0
   -3.7037   16.3021  -32.7589 H   0  0  0  0  0  0  0  0  0  0  0  0
   -5.3121   16.3310  -31.9145 H   0  0  0  0  0  0  0  0  0  0  0  0
   -4.5712   14.2320  -31.2918 H   0  0  0  0  0  0  0  0  0  0  0  0
   -5.4379   13.8267  -32.8120 H   0  0  0  0  0  0  0  0  0  0  0  0
   -3.6481   13.9802  -32.8120 H   0  0  0  0  0  0  0  0  0  0  0  0
   -3.8803   17.5441  -34.2597 H   0  0  0  0  0  0  0  0  0  0  0  0
   -4.7199   16.9613  -35.7847 H   0  0  0  0  0  0  0  0  0  0  0  0
   -5.1108   19.4192  -34.8637 H   0  0  0  0  0  0  0  0  0  0  0  0
   -6.4448   18.4359  -35.5864 H   0  0  0  0  0  0  0  0  0  0  0  0
   -4.5907   20.3566  -32.6371 H   0  0  0  0  0  0  0  0  0  0  0  0
  1  2  1  0
  2  3  1  0
  3  4  1  0
  4  5  2  0
  4  6  1  0
  6  7  1  0
  7  8  1  0
  8  9  1  0
  8 10  2  0
  7 11  2  0
 11 12  1  0
 12 13  2  0
 13 14  1  0
 14 15  2  0
 15 16  1  0
 16 17  1  0
 17 18  1  0
 18 19  1  0
 19 20  1  0
 20 21  1  0
 19 22  1  0
 22 23  1  0
 15 24  1  0
 24 25  2  0
 25  6  1  0
 25 12  1  0
 23 16  1  0
  1 26  1  0
  1 27  1  0
  1 28  1  0
  2 29  1  0
  2 30  1  0
  9 31  1  0
 11 32  1  0
 13 33  1  0
 14 34  1  0
 17 35  1  0
 17 36  1  0
 18 37  1  0
 18 38  1  0
 19 39  1  0
 20 40  1  0
 20 41  1  0
 21 42  1  0
 21 43  1  0
 21 44  1  0
 22 45  1  0
 22 46  1  0
 23 47  1  0
 23 48  1  0
 24 49  1  0
M  CHG  2   9  -1  19   1
M  END
>  <UniqueID>  (41) 
40

>  <SMILES>  (41) 
CCOC(=O)n1c(C([NH-])=O)cc2ccc(N3CC[NH+](CC)CC3)cc21

>  <Energy>  (41) 
95.88591378767225

>  <Genealogy>  (41) 
CCOC(=O)n1c(C([NH-])=O)cc2ccc(N3CC[NH+](CC)CC3)cc21 (protonated)
CCOC(=O)n1c(C([NH-])=O)cc2ccc(N3CC[NH+](CC)CC3)cc21 (3D coordinates assigned)
CCOC(=O)n1c(C([NH-])=O)cc2ccc(N3CC[NH+](CC)CC3)cc21 (nonaromatic ring conformer: 95.88591378767225 kcal/mol)

>  <smiles>  (41) 
CCOC(=O)n1c(C(N)=O)cc2ccc(N3CCN(CC)CC3)cc21

>  <score_type>  (41) 
oracle

>  <origin>  (41) 
adg

>  <m_score__min__energy>  (41) 
-9.8900000000000006

>  <m_primary>  (41) 
energy

$$$$
41:0
     RDKit          3D

 43 45  0  0  0  0  0  0  0  0999 V2000
   -2.9570   21.9020  -32.4000 C   0  0  0  0  0  0  0  0  0  0  0  0
   -3.6560   22.6430  -31.3060 C   0  0  0  0  0  0  0  0  0  0  0  0
   -2.9830   23.1110  -30.3500 O   0  0  0  0  0  0  0  0  0  0  0  0
   -5.0830   22.8190  -31.3290 N   0  0  0  0  0  0  0  0  0  0  0  0
   -5.7940   23.8850  -30.8640 C   0  0  0  0  0  0  0  0  0  0  0  0
   -5.2230   25.1380  -30.3280 C   0  0  0  0  0  0  0  0  0  0  0  0
   -3.9830   25.6280  -30.8360 N   0  0  0  0  0  0  0  0  0  0  0  0
   -5.8060   25.7720  -29.4100 O   0  0  0  0  0  0  0  0  0  0  0  0
   -7.1610   23.6630  -31.0180 C   0  0  0  0  0  0  0  0  0  0  0  0
   -7.2660   22.4170  -31.5930 C   0  0  0  0  0  0  0  0  0  0  0  0
   -8.3960   21.6890  -31.9530 C   0  0  0  0  0  0  0  0  0  0  0  0
   -8.2100   20.4110  -32.5020 C   0  0  0  0  0  0  0  0  0  0  0  0
   -6.9040   19.8760  -32.6740 C   0  0  0  0  0  0  0  0  0  0  0  0
   -6.7030   18.4870  -33.2540 C   0  0  1  0  0  0  0  0  0  0  0  0
   -5.5440   18.4660  -34.2590 C   0  0  0  0  0  0  0  0  0  0  0  0
   -5.4070   17.0750  -34.9080 C   0  0  0  0  0  0  0  0  0  0  0  0
   -5.6040   15.9350  -33.9630 N   0  0  2  0  0  0  0  0  0  0  0  0
   -6.8600   15.2080  -34.2330 C   0  0  0  0  0  0  0  0  0  0  0  0
   -5.5040   16.3250  -32.5360 C   0  0  0  0  0  0  0  0  0  0  0  0
   -6.5090   17.4270  -32.1430 C   0  0  0  0  0  0  0  0  0  0  0  0
   -5.7820   20.6490  -32.2940 C   0  0  0  0  0  0  0  0  0  0  0  0
   -5.9980   21.9270  -31.7680 C   0  0  0  0  0  0  0  0  0  0  0  0
   -2.2647   21.1681  -31.9616 H   0  0  0  0  0  0  0  0  0  0  0  0
   -3.6993   21.3800  -33.0217 H   0  0  0  0  0  0  0  0  0  0  0  0
   -2.3926   22.6126  -33.0217 H   0  0  0  0  0  0  0  0  0  0  0  0
   -3.0740   25.2670  -30.4720 H   0  0  0  0  0  0  0  0  0  0  0  0
   -7.9820   24.3400  -30.7392 H   0  0  0  0  0  0  0  0  0  0  0  0
   -9.4052   22.1031  -31.8114 H   0  0  0  0  0  0  0  0  0  0  0  0
   -9.0850   19.8161  -32.8028 H   0  0  0  0  0  0  0  0  0  0  0  0
   -7.6208   18.2220  -33.7993 H   0  0  0  0  0  0  0  0  0  0  0  0
   -4.6086   18.7135  -33.7358 H   0  0  0  0  0  0  0  0  0  0  0  0
   -5.7485   19.2045  -35.0482 H   0  0  0  0  0  0  0  0  0  0  0  0
   -4.3988   16.9941  -35.3404 H   0  0  0  0  0  0  0  0  0  0  0  0
   -6.2028   16.9996  -35.6637 H   0  0  0  0  0  0  0  0  0  0  0  0
   -4.8310   15.2480  -34.1360 H   0  0  0  0  0  0  0  0  0  0  0  0
   -7.3362   14.9324  -33.2805 H   0  0  0  0  0  0  0  0  0  0  0  0
   -7.5398   15.8522  -34.8099 H   0  0  0  0  0  0  0  0  0  0  0  0
   -6.6400   14.2976  -34.8099 H   0  0  0  0  0  0  0  0  0  0  0  0
   -4.4857   16.6938  -32.3435 H   0  0  0  0  0  0  0  0  0  0  0  0
   -5.7378   15.4349  -31.9334 H   0  0  0  0  0  0  0  0  0  0  0  0
   -6.1412   17.9309  -31.2370 H   0  0  0  0  0  0  0  0  0  0  0  0
   -7.4821   16.9425  -31.9745 H   0  0  0  0  0  0  0  0  0  0  0  0
   -4.7620   20.2538  -32.4096 H   0  0  0  0  0  0  0  0  0  0  0  0
  1  2  1  0
  2  3  2  0
  2  4  1  0
  4  5  1  0
  5  6  1  0
  6  7  1  0
  6  8  2  0
  5  9  2  0
  9 10  1  0
 10 11  2  0
 11 12  1  0
 12 13  2  0
 13 14  1  0
 14 15  1  0
 15 16  1  0
 16 17  1  0
 17 18  1  0
 17 19  1  0
 19 20  1  0
 13 21  1  0
 21 22  2  0
 22  4  1  0
 22 10  1  0
 20 14  1  0
  1 23  1  0
  1 24  1  0
  1 25  1  0
  7 26  1  0
  9 27  1  0
 11 28  1  0
 12 29  1  0
 14 30  1  6
 15 31  1  0
 15 32  1  0
 16 33  1  0
 16 34  1  0
 17 35  1  6
 18 36  1  0
 18 37  1  0
 18 38  1  0
 19 39  1  0
 19 40  1  0
 20 41  1  0
 20 42  1  0
 21 43  1  0
M  CHG  2   7  -1  17   1
M  END
>  <UniqueID>  (42) 
41

>  <SMILES>  (42) 
CC(=O)n1c(C([NH-])=O)cc2ccc(C3CC[NH+](C)CC3)cc21

>  <Energy>  (42) 
91.99423870710416

>  <Genealogy>  (42) 
CC(=O)n1c(C([NH-])=O)cc2ccc(C3CC[NH+](C)CC3)cc21 (protonated)
CC(=O)n1c(C([NH-])=O)cc2ccc(C3CC[NH+](C)CC3)cc21 (3D coordinates assigned)
CC(=O)n1c(C([NH-])=O)cc2ccc(C3CC[NH+](C)CC3)cc21 (nonaromatic ring conformer: 91.99423870710416 kcal/mol)

>  <smiles>  (42) 
CC(=O)n1c(C(N)=O)cc2ccc(C3CCN(C)CC3)cc21

>  <score_type>  (42) 
oracle

>  <origin>  (42) 
adg

>  <m_score__min__energy>  (42) 
-10.81

>  <m_primary>  (42) 
energy

$$$$
42:0
     RDKit          3D

 50 53  0  0  0  0  0  0  0  0999 V2000
   -1.6080   25.7290  -29.0010 N   0  0  0  0  0  0  0  0  0  0  0  0
   -1.2060   24.3920  -28.7150 C   0  0  0  0  0  0  0  0  0  0  0  0
   -0.6630   24.1350  -27.6080 O   0  0  0  0  0  0  0  0  0  0  0  0
   -1.4700   23.2980  -29.6720 C   0  0  0  0  0  0  0  0  0  0  0  0
   -0.5200   22.3410  -30.0220 C   0  0  0  0  0  0  0  0  0  0  0  0
   -1.1800   21.4540  -30.8420 C   0  0  0  0  0  0  0  0  0  0  0  0
   -0.7150   20.3090  -31.4820 C   0  0  0  0  0  0  0  0  0  0  0  0
   -1.6170   19.5910  -32.2840 C   0  0  0  0  0  0  0  0  0  0  0  0
   -2.9580   20.0290  -32.4390 C   0  0  0  0  0  0  0  0  0  0  0  0
   -3.9010   19.2540  -33.2850 C   0  0  0  0  0  0  0  0  0  0  0  0
   -3.5360   17.9730  -33.7370 C   0  0  0  0  0  0  0  0  0  0  0  0
   -4.4080   17.2260  -34.5300 C   0  0  0  0  0  0  0  0  0  0  0  0
   -5.6550   17.7450  -34.8770 C   0  0  0  0  0  0  0  0  0  0  0  0
   -6.0370   19.0120  -34.4310 C   0  0  0  0  0  0  0  0  0  0  0  0
   -5.1670   19.7770  -33.6290 C   0  0  0  0  0  0  0  0  0  0  0  0
   -5.5330   21.0440  -33.1480 O   0  0  0  0  0  0  0  0  0  0  0  0
   -6.8670   21.4700  -32.8880 C   0  0  0  0  0  0  0  0  0  0  0  0
   -7.3550   20.8570  -31.5630 C   0  0  0  0  0  0  0  0  0  0  0  0
   -7.6100   19.3340  -31.6820 C   0  0  0  0  0  0  0  0  0  0  0  0
   -9.0860   19.0130  -31.9780 C   0  0  0  0  0  0  0  0  0  0  0  0
   -9.6860   20.0580  -32.7150 O   0  0  0  0  0  0  0  0  0  0  0  0
   -9.8690   21.2000  -31.8930 C   0  0  0  0  0  0  0  0  0  0  0  0
   -8.6210   21.5690  -31.0540 C   0  0  0  0  0  0  0  0  0  0  0  0
   -3.3860   21.2080  -31.7850 C   0  0  0  0  0  0  0  0  0  0  0  0
   -2.4730   21.8870  -30.9720 C   0  0  0  0  0  0  0  0  0  0  0  0
   -2.6680   23.0210  -30.2620 N   0  0  0  0  0  0  0  0  0  0  0  0
   -3.8740   23.8000  -30.2190 C   0  0  0  0  0  0  0  0  0  0  0  0
   -3.8300   25.2050  -30.4550 N   0  0  0  0  0  0  0  0  0  0  0  0
   -4.9820   23.2390  -30.0040 O   0  0  0  0  0  0  0  0  0  0  0  0
   -2.6150   26.0040  -28.9750 H   0  0  0  0  0  0  0  0  0  0  0  0
    0.5339   22.3024  -29.7094 H   0  0  0  0  0  0  0  0  0  0  0  0
    0.3269   19.9766  -31.3633 H   0  0  0  0  0  0  0  0  0  0  0  0
   -1.2802   18.6786  -32.7980 H   0  0  0  0  0  0  0  0  0  0  0  0
   -2.5553   17.5567  -33.4632 H   0  0  0  0  0  0  0  0  0  0  0  0
   -4.1115   16.2268  -34.8817 H   0  0  0  0  0  0  0  0  0  0  0  0
   -6.3396   17.1547  -35.5038 H   0  0  0  0  0  0  0  0  0  0  0  0
   -7.0225   19.4150  -34.7073 H   0  0  0  0  0  0  0  0  0  0  0  0
   -6.8935   22.5673  -32.8156 H   0  0  0  0  0  0  0  0  0  0  0  0
   -7.5226   21.1395  -33.7071 H   0  0  0  0  0  0  0  0  0  0  0  0
   -6.5470   21.0047  -30.8313 H   0  0  0  0  0  0  0  0  0  0  0  0
   -6.9899   18.9337  -32.4976 H   0  0  0  0  0  0  0  0  0  0  0  0
   -7.3506   18.8718  -30.7181 H   0  0  0  0  0  0  0  0  0  0  0  0
   -9.1432   18.0814  -32.5602 H   0  0  0  0  0  0  0  0  0  0  0  0
   -9.6217   18.9002  -31.0239 H   0  0  0  0  0  0  0  0  0  0  0  0
  -10.1195   22.0554  -32.5376 H   0  0  0  0  0  0  0  0  0  0  0  0
  -10.6742   20.9596  -31.1831 H   0  0  0  0  0  0  0  0  0  0  0  0
   -8.4640   22.6563  -31.1097 H   0  0  0  0  0  0  0  0  0  0  0  0
   -8.7998   21.2462  -30.0177 H   0  0  0  0  0  0  0  0  0  0  0  0
   -4.4126   21.5818  -31.9129 H   0  0  0  0  0  0  0  0  0  0  0  0
   -2.9710   25.6580  -30.8380 H   0  0  0  0  0  0  0  0  0  0  0  0
  1  2  1  0
  2  3  2  0
  2  4  1  0
  4  5  2  0
  5  6  1  0
  6  7  2  0
  7  8  1  0
  8  9  2  0
  9 10  1  0
 10 11  2  0
 11 12  1  0
 12 13  2  0
 13 14  1  0
 14 15  2  0
 15 16  1  0
 16 17  1  0
 17 18  1  0
 18 19  1  0
 19 20  1  0
 20 21  1  0
 21 22  1  0
 22 23  1  0
  9 24  1  0
 24 25  2  0
 25 26  1  0
 26 27  1  0
 27 28  1  0
 27 29  2  0
 26  4  1  0
 25  6  1  0
 15 10  1  0
 23 18  1  0
  1 30  1  0
  5 31  1  0
  7 32  1  0
  8 33  1  0
 11 34  1  0
 12 35  1  0
 13 36  1  0
 14 37  1  0
 17 38  1  0
 17 39  1  0
 18 40  1  0
 19 41  1  0
 19 42  1  0
 20 43  1  0
 20 44  1  0
 22 45  1  0
 22 46  1  0
 23 47  1  0
 23 48  1  0
 24 49  1  0
 28 50  1  0
M  CHG  2   1  -1  28  -1
M  END
>  <UniqueID>  (43) 
42

>  <SMILES>  (43) 
[NH-]C(=O)c1cc2ccc(-c3ccccc3OCC3CCOCC3)cc2n1C([NH-])=O

>  <Energy>  (43) 
103.52992386468539

>  <Genealogy>  (43) 
[NH-]C(=O)c1cc2ccc(-c3ccccc3OCC3CCOCC3)cc2n1C([NH-])=O (protonated)
[NH-]C(=O)c1cc2ccc(-c3ccccc3OCC3CCOCC3)cc2n1C([NH-])=O (3D coordinates assigned)
[NH-]C(=O)c1cc2ccc(-c3ccccc3OCC3CCOCC3)cc2n1C([NH-])=O (nonaromatic ring conformer: 103.52992386468539 kcal/mol)

>  <smiles>  (43) 
NC(=O)c1cc2ccc(-c3ccccc3OCC3CCOCC3)cc2n1C(N)=O

>  <score_type>  (43) 
oracle

>  <origin>  (43) 
adg

>  <m_score__min__energy>  (43) 
-12.880000000000001

>  <m_primary>  (43) 
energy

$$$$
43:0
     RDKit          3D

 24 25  0  0  0  0  0  0  0  0999 V2000
   -1.6270   25.6950  -28.9640 N   0  0  0  0  0  0  0  0  0  0  0  0
   -1.0690   24.4130  -29.2340 C   0  0  0  0  0  0  0  0  0  0  0  0
    0.0290   24.0930  -28.7050 O   0  0  0  0  0  0  0  0  0  0  0  0
   -1.7860   23.4340  -30.0770 C   0  0  0  0  0  0  0  0  0  0  0  0
   -1.2040   22.2610  -30.5510 C   0  0  0  0  0  0  0  0  0  0  0  0
   -2.2120   21.5910  -31.2040 C   0  0  0  0  0  0  0  0  0  0  0  0
   -2.1900   20.3680  -31.8690 C   0  0  0  0  0  0  0  0  0  0  0  0
   -3.3770   19.9270  -32.4760 C   0  0  0  0  0  0  0  0  0  0  0  0
   -4.5510   20.7180  -32.4250 C   0  0  0  0  0  0  0  0  0  0  0  0
   -5.8190   20.2240  -33.0560 C   0  0  0  0  0  0  0  0  0  0  0  0
   -5.5130   19.3970  -34.1190 F   0  0  0  0  0  0  0  0  0  0  0  0
   -4.5400   21.9470  -31.7290 C   0  0  0  0  0  0  0  0  0  0  0  0
   -3.3480   22.3550  -31.1170 C   0  0  0  0  0  0  0  0  0  0  0  0
   -3.1020   23.4920  -30.4300 N   0  0  0  0  0  0  0  0  0  0  0  0
   -4.0210   24.5760  -30.2150 C   0  0  0  0  0  0  0  0  0  0  0  0
   -3.8720   25.6680  -30.8250 O   0  0  0  0  0  0  0  0  0  0  0  0
   -5.0680   24.4380  -29.3120 O   0  0  0  0  0  0  0  0  0  0  0  0
   -2.6600   25.8510  -29.0040 H   0  0  0  0  0  0  0  0  0  0  0  0
   -0.1594   21.9387  -30.4290 H   0  0  0  0  0  0  0  0  0  0  0  0
   -1.2709   19.7656  -31.9174 H   0  0  0  0  0  0  0  0  0  0  0  0
   -3.3953   18.9579  -32.9961 H   0  0  0  0  0  0  0  0  0  0  0  0
   -6.4044   19.6636  -32.3122 H   0  0  0  0  0  0  0  0  0  0  0  0
   -6.4072   21.0810  -33.4159 H   0  0  0  0  0  0  0  0  0  0  0  0
   -5.4455   22.5686  -31.6690 H   0  0  0  0  0  0  0  0  0  0  0  0
  1  2  1  0
  2  3  2  0
  2  4  1  0
  4  5  2  0
  5  6  1  0
  6  7  2  0
  7  8  1  0
  8  9  2  0
  9 10  1  0
 10 11  1  0
  9 12  1  0
 12 13  2  0
 13 14  1  0
 14 15  1  0
 15 16  2  0
 15 17  1  0
 14  4  1  0
 13  6  1  0
  1 18  1  0
  5 19  1  0
  7 20  1  0
  8 21  1  0
 10 22  1  0
 10 23  1  0
 12 24  1  0
M  CHG  2   1  -1  17  -1
M  END
>  <UniqueID>  (44) 
43

>  <SMILES>  (44) 
[NH-]C(=O)c1cc2ccc(CF)cc2n1C(=O)[O-]

>  <Energy>  (44) 
63.81222963165555

>  <Genealogy>  (44) 
[NH-]C(=O)c1cc2ccc(CF)cc2n1C(=O)[O-] (protonated)
[NH-]C(=O)c1cc2ccc(CF)cc2n1C(=O)[O-] (3D coordinates assigned)
[NH-]C(=O)c1cc2ccc(CF)cc2n1C(=O)[O-] (optimized conformer: 63.81222963165555 kcal/mol)

>  <smiles>  (44) 
NC(=O)c1cc2ccc(CF)cc2n1C(=O)O

>  <score_type>  (44) 
oracle

>  <origin>  (44) 
adg

>  <m_score__min__energy>  (44) 
-9.3300000000000001

>  <m_primary>  (44) 
energy

$$$$
44:0
     RDKit          3D

 32 33  0  0  0  0  0  0  0  0999 V2000
   -3.3730   20.0420  -33.2580 C   0  0  0  0  0  0  0  0  0  0  0  0
   -3.5140   21.5550  -33.2850 C   0  0  0  0  0  0  0  0  0  0  0  0
   -3.2830   22.0770  -31.9810 O   0  0  0  0  0  0  0  0  0  0  0  0
   -4.2150   21.9620  -30.9450 C   0  0  0  0  0  0  0  0  0  0  0  0
   -3.8510   21.5580  -29.8070 O   0  0  0  0  0  0  0  0  0  0  0  0
   -5.5910   22.3040  -31.1840 N   0  0  0  0  0  0  0  0  0  0  0  0
   -6.2020   23.4940  -30.9220 C   0  0  0  0  0  0  0  0  0  0  0  0
   -5.5280   24.7360  -30.4950 C   0  0  0  0  0  0  0  0  0  0  0  0
   -5.8480   25.3630  -29.2520 N   0  0  0  0  0  0  0  0  0  0  0  0
   -4.6150   25.2240  -31.2140 O   0  0  0  0  0  0  0  0  0  0  0  0
   -7.5700   23.4090  -31.1600 C   0  0  0  0  0  0  0  0  0  0  0  0
   -7.7850   22.1210  -31.5930 C   0  0  0  0  0  0  0  0  0  0  0  0
   -8.9680   21.4880  -31.9630 C   0  0  0  0  0  0  0  0  0  0  0  0
   -8.9030   20.1370  -32.3380 C   0  0  0  0  0  0  0  0  0  0  0  0
   -7.6700   19.4420  -32.3140 C   0  0  0  0  0  0  0  0  0  0  0  0
   -7.6100   18.0040  -32.7410 C   0  0  0  0  0  0  0  0  0  0  0  0
   -6.4860   20.1180  -31.9460 C   0  0  0  0  0  0  0  0  0  0  0  0
   -6.5760   21.4720  -31.5960 C   0  0  0  0  0  0  0  0  0  0  0  0
   -3.3407   19.6953  -32.2146 H   0  0  0  0  0  0  0  0  0  0  0  0
   -4.2324   19.5845  -33.7699 H   0  0  0  0  0  0  0  0  0  0  0  0
   -2.4439   19.7511  -33.7699 H   0  0  0  0  0  0  0  0  0  0  0  0
   -2.7792   21.9792  -33.9851 H   0  0  0  0  0  0  0  0  0  0  0  0
   -4.5296   21.8226  -33.6122 H   0  0  0  0  0  0  0  0  0  0  0  0
   -6.4770   24.8980  -28.5600 H   0  0  0  0  0  0  0  0  0  0  0  0
   -5.3930   26.2640  -28.9860 H   0  0  0  0  0  0  0  0  0  0  0  0
   -8.3202   24.2028  -31.0297 H   0  0  0  0  0  0  0  0  0  0  0  0
   -9.9251   22.0302  -31.9616 H   0  0  0  0  0  0  0  0  0  0  0  0
   -9.8179   19.6139  -32.6532 H   0  0  0  0  0  0  0  0  0  0  0  0
   -7.5830   17.3581  -31.8510 H   0  0  0  0  0  0  0  0  0  0  0  0
   -8.4989   17.7627  -33.3424 H   0  0  0  0  0  0  0  0  0  0  0  0
   -6.7041   17.8376  -33.3424 H   0  0  0  0  0  0  0  0  0  0  0  0
   -5.5182   19.5953  -31.9344 H   0  0  0  0  0  0  0  0  0  0  0  0
  1  2  1  0
  2  3  1  0
  3  4  1  0
  4  5  2  0
  4  6  1  0
  6  7  1  0
  7  8  1  0
  8  9  1  0
  8 10  2  0
  7 11  2  0
 11 12  1  0
 12 13  2  0
 13 14  1  0
 14 15  2  0
 15 16  1  0
 15 17  1  0
 17 18  2  0
 18  6  1  0
 18 12  1  0
  1 19  1  0
  1 20  1  0
  1 21  1  0
  2 22  1  0
  2 23  1  0
  9 24  1  0
  9 25  1  0
 11 26  1  0
 13 27  1  0
 14 28  1  0
 16 29  1  0
 16 30  1  0
 16 31  1  0
 17 32  1  0
M  END
>  <UniqueID>  (45) 
44

>  <SMILES>  (45) 
CCOC(=O)n1c(C(N)=O)cc2ccc(C)cc21

>  <Energy>  (45) 
65.54649787099083

>  <Genealogy>  (45) 
CCOC(=O)n1c(C(N)=O)cc2ccc(C)cc21 (3D coordinates assigned)
CCOC(=O)n1c(C(N)=O)cc2ccc(C)cc21 (optimized conformer: 65.54649787099083 kcal/mol)

>  <smiles>  (45) 
CCOC(=O)n1c(C(N)=O)cc2ccc(C)cc21

>  <score_type>  (45) 
oracle

>  <origin>  (45) 
adg

>  <m_score__min__energy>  (45) 
-7.6200000000000001

>  <m_primary>  (45) 
energy

$$$$
45:0
     RDKit          3D

 36 38  0  0  0  0  0  0  0  0999 V2000
   -6.1530   13.6570  -34.4420 C   0  0  0  0  0  0  0  0  0  0  0  0
   -5.3770   14.8270  -34.6720 O   0  0  0  0  0  0  0  0  0  0  0  0
   -5.7200   16.0760  -34.1470 C   0  0  0  0  0  0  0  0  0  0  0  0
   -4.8770   17.1680  -34.3680 C   0  0  0  0  0  0  0  0  0  0  0  0
   -5.2180   18.4160  -33.8450 C   0  0  0  0  0  0  0  0  0  0  0  0
   -6.4010   18.5740  -33.1030 C   0  0  0  0  0  0  0  0  0  0  0  0
   -6.7770   19.8960  -32.5420 C   0  0  0  0  0  0  0  0  0  0  0  0
   -8.1450   20.2500  -32.4010 C   0  0  0  0  0  0  0  0  0  0  0  0
   -8.5140   21.5030  -31.8880 C   0  0  0  0  0  0  0  0  0  0  0  0
   -7.5010   22.3800  -31.5140 C   0  0  0  0  0  0  0  0  0  0  0  0
   -7.5840   23.6540  -31.0070 C   0  0  0  0  0  0  0  0  0  0  0  0
   -6.2680   24.0650  -30.8360 C   0  0  0  0  0  0  0  0  0  0  0  0
   -5.9040   25.3820  -30.2880 C   0  0  0  0  0  0  0  0  0  0  0  0
   -6.5120   25.8690  -29.0910 N   0  0  0  0  0  0  0  0  0  0  0  0
   -4.9950   26.0550  -30.8420 O   0  0  0  0  0  0  0  0  0  0  0  0
   -5.3950   23.0790  -31.1920 N   0  0  0  0  0  0  0  0  0  0  0  0
   -3.9660   23.0680  -30.9990 C   0  0  0  0  0  0  0  0  0  0  0  0
   -3.3000   24.2080  -30.4600 N   0  0  0  0  0  0  0  0  0  0  0  0
   -3.2820   22.0680  -31.3380 O   0  0  0  0  0  0  0  0  0  0  0  0
   -6.1720   22.0540  -31.6200 C   0  0  0  0  0  0  0  0  0  0  0  0
   -5.7780   20.8170  -32.1480 C   0  0  0  0  0  0  0  0  0  0  0  0
   -7.2180   17.4470  -32.9060 C   0  0  0  0  0  0  0  0  0  0  0  0
   -6.8620   16.2410  -33.4240 N   0  0  0  0  0  0  0  0  0  0  0  0
   -6.2603   13.4952  -33.3593 H   0  0  0  0  0  0  0  0  0  0  0  0
   -7.1478   13.7820  -34.8944 H   0  0  0  0  0  0  0  0  0  0  0  0
   -5.6509   12.7892  -34.8944 H   0  0  0  0  0  0  0  0  0  0  0  0
   -3.9516   17.0450  -34.9498 H   0  0  0  0  0  0  0  0  0  0  0  0
   -4.5581   19.2797  -34.0142 H   0  0  0  0  0  0  0  0  0  0  0  0
   -8.9250   19.5333  -32.6975 H   0  0  0  0  0  0  0  0  0  0  0  0
   -9.5727   21.7833  -31.7847 H   0  0  0  0  0  0  0  0  0  0  0  0
   -8.4967   24.2261  -30.7842 H   0  0  0  0  0  0  0  0  0  0  0  0
   -6.2590   26.8090  -28.7170 H   0  0  0  0  0  0  0  0  0  0  0  0
   -7.1690   25.2670  -28.5460 H   0  0  0  0  0  0  0  0  0  0  0  0
   -3.2230   25.0940  -31.0080 H   0  0  0  0  0  0  0  0  0  0  0  0
   -4.7121   20.5669  -32.2541 H   0  0  0  0  0  0  0  0  0  0  0  0
   -8.1502   17.5412  -32.3298 H   0  0  0  0  0  0  0  0  0  0  0  0
  1  2  1  0
  2  3  1  0
  3  4  2  0
  4  5  1  0
  5  6  2  0
  6  7  1  0
  7  8  2  0
  8  9  1  0
  9 10  2  0
 10 11  1  0
 11 12  2  0
 12 13  1  0
 13 14  1  0
 13 15  2  0
 12 16  1  0
 16 17  1  0
 17 18  1  0
 17 19  2  0
 16 20  1  0
 20 21  2  0
  6 22  1  0
 22 23  2  0
 23  3  1  0
 21  7  1  0
 20 10  1  0
  1 24  1  0
  1 25  1  0
  1 26  1  0
  4 27  1  0
  5 28  1  0
  8 29  1  0
  9 30  1  0
 11 31  1  0
 14 32  1  0
 14 33  1  0
 18 34  1  0
 21 35  1  0
 22 36  1  0
M  CHG  1  18  -1
M  END
>  <UniqueID>  (46) 
45

>  <SMILES>  (46) 
COc1ccc(-c2ccc3cc(C(N)=O)n(C([NH-])=O)c3c2)cn1

>  <Energy>  (46) 
85.03707746426517

>  <Genealogy>  (46) 
COc1ccc(-c2ccc3cc(C(N)=O)n(C([NH-])=O)c3c2)cn1 (protonated)
COc1ccc(-c2ccc3cc(C(N)=O)n(C([NH-])=O)c3c2)cn1 (3D coordinates assigned)
COc1ccc(-c2ccc3cc(C(N)=O)n(C([NH-])=O)c3c2)cn1 (optimized conformer: 85.03707746426517 kcal/mol)

>  <smiles>  (46) 
COc1ccc(-c2ccc3cc(C(N)=O)n(C(N)=O)c3c2)cn1

>  <score_type>  (46) 
oracle

>  <origin>  (46) 
adg

>  <m_score__min__energy>  (46) 
-9.4100000000000001

>  <m_primary>  (46) 
energy

$$$$
46:0
     RDKit          3D

 47 49  0  0  0  0  0  0  0  0999 V2000
   -2.3170   18.7160  -33.0140 C   0  0  0  0  0  0  0  0  0  0  0  0
   -2.3230   18.6320  -34.4220 O   0  0  0  0  0  0  0  0  0  0  0  0
   -3.2950   17.6980  -34.8590 C   0  0  0  0  0  0  0  0  0  0  0  0
   -4.5110   17.6920  -33.9140 C   0  0  2  0  0  0  0  0  0  0  0  0
   -5.0330   16.2520  -33.6770 C   0  0  0  0  0  0  0  0  0  0  0  0
   -6.4770   16.1930  -33.1320 C   0  0  0  0  0  0  0  0  0  0  0  0
   -6.9120   17.5140  -32.4920 C   0  0  0  0  0  0  0  0  0  0  0  0
   -6.8770   18.6600  -33.5280 C   0  0  1  0  0  0  0  0  0  0  0  0
   -7.0150   20.0060  -32.8400 C   0  0  0  0  0  0  0  0  0  0  0  0
   -8.3040   20.5070  -32.5190 C   0  0  0  0  0  0  0  0  0  0  0  0
   -8.4540   21.7440  -31.8670 C   0  0  0  0  0  0  0  0  0  0  0  0
   -7.3040   22.4570  -31.5480 C   0  0  0  0  0  0  0  0  0  0  0  0
   -7.1580   23.6650  -30.9040 C   0  0  0  0  0  0  0  0  0  0  0  0
   -5.7830   23.8930  -30.8510 C   0  0  0  0  0  0  0  0  0  0  0  0
   -5.1790   25.1290  -30.3140 C   0  0  0  0  0  0  0  0  0  0  0  0
   -3.9530   25.6320  -30.8370 N   0  0  0  0  0  0  0  0  0  0  0  0
   -5.7740   25.7710  -29.4070 O   0  0  0  0  0  0  0  0  0  0  0  0
   -5.1090   22.8590  -31.4290 N   0  0  0  0  0  0  0  0  0  0  0  0
   -3.6890   22.6630  -31.5180 C   0  0  0  0  0  0  0  0  0  0  0  0
   -3.0870   21.9370  -32.6790 C   0  0  0  0  0  0  0  0  0  0  0  0
   -2.9310   23.1700  -30.6480 O   0  0  0  0  0  0  0  0  0  0  0  0
   -6.0530   21.9930  -31.8540 C   0  0  0  0  0  0  0  0  0  0  0  0
   -5.8700   20.7630  -32.4900 C   0  0  0  0  0  0  0  0  0  0  0  0
   -5.6310   18.6020  -34.4610 C   0  0  0  0  0  0  0  0  0  0  0  0
   -2.3892   17.7052  -32.5861 H   0  0  0  0  0  0  0  0  0  0  0  0
   -1.3827   19.1901  -32.6789 H   0  0  0  0  0  0  0  0  0  0  0  0
   -3.1744   19.3181  -32.6789 H   0  0  0  0  0  0  0  0  0  0  0  0
   -3.6267   17.9699  -35.8719 H   0  0  0  0  0  0  0  0  0  0  0  0
   -2.8444   16.6945  -34.8603 H   0  0  0  0  0  0  0  0  0  0  0  0
   -4.1857   18.0920  -32.9423 H   0  0  0  0  0  0  0  0  0  0  0  0
   -5.0012   15.7100  -34.6336 H   0  0  0  0  0  0  0  0  0  0  0  0
   -4.3841   15.7981  -32.9135 H   0  0  0  0  0  0  0  0  0  0  0  0
   -7.1594   15.9612  -33.9631 H   0  0  0  0  0  0  0  0  0  0  0  0
   -6.5113   15.4156  -32.3546 H   0  0  0  0  0  0  0  0  0  0  0  0
   -7.9363   17.4079  -32.1053 H   0  0  0  0  0  0  0  0  0  0  0  0
   -6.2183   17.7558  -31.6733 H   0  0  0  0  0  0  0  0  0  0  0  0
   -7.7441   18.5237  -34.1909 H   0  0  0  0  0  0  0  0  0  0  0  0
   -9.1962   19.9205  -32.7835 H   0  0  0  0  0  0  0  0  0  0  0  0
   -9.4511   22.1355  -31.6170 H   0  0  0  0  0  0  0  0  0  0  0  0
   -7.9566   24.3131  -30.5139 H   0  0  0  0  0  0  0  0  0  0  0  0
   -3.0340   25.2990  -30.4690 H   0  0  0  0  0  0  0  0  0  0  0  0
   -2.4256   21.1394  -32.3097 H   0  0  0  0  0  0  0  0  0  0  0  0
   -3.8877   21.4956  -33.2906 H   0  0  0  0  0  0  0  0  0  0  0  0
   -2.5050   22.6421  -33.2906 H   0  0  0  0  0  0  0  0  0  0  0  0
   -4.8595   20.3906  -32.7140 H   0  0  0  0  0  0  0  0  0  0  0  0
   -5.9457   18.2191  -35.4430 H   0  0  0  0  0  0  0  0  0  0  0  0
   -5.2232   19.6213  -34.5297 H   0  0  0  0  0  0  0  0  0  0  0  0
  1  2  1  0
  2  3  1  0
  3  4  1  0
  4  5  1  0
  5  6  1  0
  6  7  1  0
  7  8  1  0
  8  9  1  0
  9 10  2  0
 10 11  1  0
 11 12  2  0
 12 13  1  0
 13 14  2  0
 14 15  1  0
 15 16  1  0
 15 17  2  0
 14 18  1  0
 18 19  1  0
 19 20  1  0
 19 21  2  0
 18 22  1  0
 22 23  2  0
  8 24  1  0
 24  4  1  0
 23  9  1  0
 22 12  1  0
  1 25  1  0
  1 26  1  0
  1 27  1  0
  3 28  1  0
  3 29  1  0
  4 30  1  1
  5 31  1  0
  5 32  1  0
  6 33  1  0
  6 34  1  0
  7 35  1  0
  7 36  1  0
  8 37  1  6
 10 38  1  0
 11 39  1  0
 13 40  1  0
 16 41  1  0
 20 42  1  0
 20 43  1  0
 20 44  1  0
 23 45  1  0
 24 46  1  0
 24 47  1  0
M  CHG  1  16  -1
M  END
>  <UniqueID>  (47) 
46

>  <SMILES>  (47) 
COC[C@@H]1CCC[C@@H](c2ccc3cc(C([NH-])=O)n(C(C)=O)c3c2)C1

>  <Energy>  (47) 
91.2883297344216

>  <Genealogy>  (47) 
COCC1CCCC(c2ccc3cc(C([NH-])=O)n(C(C)=O)c3c2)C1 (protonated)
COC[C@@H]1CCC[C@@H](c2ccc3cc(C([NH-])=O)n(C(C)=O)c3c2)C1 (chirality)
COC[C@@H]1CCC[C@@H](c2ccc3cc(C([NH-])=O)n(C(C)=O)c3c2)C1 (3D coordinates assigned)
COC[C@@H]1CCC[C@@H](c2ccc3cc(C([NH-])=O)n(C(C)=O)c3c2)C1 (nonaromatic ring conformer: 91.2883297344216 kcal/mol)

>  <smiles>  (47) 
COCC1CCCC(c2ccc3cc(C(N)=O)n(C(C)=O)c3c2)C1

>  <score_type>  (47) 
oracle

>  <origin>  (47) 
adg

>  <m_score__min__energy>  (47) 
-11.470000000000001

>  <m_primary>  (47) 
energy

$$$$
47:0
     RDKit          3D

 33 35  0  0  0  0  0  0  0  0999 V2000
   -3.7610   25.0600  -30.6210 N   0  0  0  0  0  0  0  0  0  0  0  0
   -5.1830   25.1450  -30.6800 C   0  0  0  0  0  0  0  0  0  0  0  0
   -5.7460   26.2520  -30.4700 O   0  0  0  0  0  0  0  0  0  0  0  0
   -5.9820   23.9320  -30.9420 C   0  0  0  0  0  0  0  0  0  0  0  0
   -7.3110   23.7800  -30.5460 C   0  0  0  0  0  0  0  0  0  0  0  0
   -7.7020   22.5600  -31.0490 C   0  0  0  0  0  0  0  0  0  0  0  0
   -8.9220   21.8960  -30.9490 C   0  0  0  0  0  0  0  0  0  0  0  0
   -9.0330   20.6290  -31.5490 C   0  0  0  0  0  0  0  0  0  0  0  0
   -7.9310   20.0530  -32.2250 C   0  0  0  0  0  0  0  0  0  0  0  0
   -8.0540   18.7610  -32.8230 N   0  0  0  0  0  0  0  0  0  0  0  0
   -6.7100   20.7550  -32.3070 C   0  0  0  0  0  0  0  0  0  0  0  0
   -6.6330   22.0180  -31.7130 C   0  0  0  0  0  0  0  0  0  0  0  0
   -5.5690   22.8450  -31.6520 N   0  0  0  0  0  0  0  0  0  0  0  0
   -4.2570   22.5590  -32.1640 C   0  0  0  0  0  0  0  0  0  0  0  0
   -4.1290   22.2680  -33.3840 O   0  0  0  0  0  0  0  0  0  0  0  0
   -3.0810   22.6610  -31.3240 N   0  0  0  0  0  0  0  0  0  0  0  0
   -3.1020   21.8170  -30.1180 C   0  0  0  0  0  0  0  0  0  0  0  0
   -1.9160   20.9910  -30.5810 C   0  0  0  0  0  0  0  0  0  0  0  0
   -1.9460   21.8670  -31.8200 C   0  0  0  0  0  0  0  0  0  0  0  0
   -3.1620   25.6790  -31.2100 H   0  0  0  0  0  0  0  0  0  0  0  0
   -7.9169   24.4846  -29.9575 H   0  0  0  0  0  0  0  0  0  0  0  0
   -9.7721   22.3484  -30.4174 H   0  0  0  0  0  0  0  0  0  0  0  0
   -9.9849   20.0807  -31.4924 H   0  0  0  0  0  0  0  0  0  0  0  0
   -8.4430   18.6510  -33.7850 H   0  0  0  0  0  0  0  0  0  0  0  0
   -7.7570   17.9020  -32.3060 H   0  0  0  0  0  0  0  0  0  0  0  0
   -5.8421   20.3202  -32.8244 H   0  0  0  0  0  0  0  0  0  0  0  0
   -2.8020   23.6490  -31.1230 H   0  0  0  0  0  0  0  0  0  0  0  0
   -2.9105   22.3754  -29.1898 H   0  0  0  0  0  0  0  0  0  0  0  0
   -4.0350   21.3006  -29.8481 H   0  0  0  0  0  0  0  0  0  0  0  0
   -1.0108   21.0868  -29.9634 H   0  0  0  0  0  0  0  0  0  0  0  0
   -1.9357   19.8921  -30.6266 H   0  0  0  0  0  0  0  0  0  0  0  0
   -1.0282   22.4567  -31.9610 H   0  0  0  0  0  0  0  0  0  0  0  0
   -2.0256   21.3872  -32.8067 H   0  0  0  0  0  0  0  0  0  0  0  0
  1  2  1  0
  2  3  2  0
  2  4  1  0
  4  5  2  0
  5  6  1  0
  6  7  2  0
  7  8  1  0
  8  9  2  0
  9 10  1  0
  9 11  1  0
 11 12  2  0
 12 13  1  0
 13 14  1  0
 14 15  2  0
 14 16  1  0
 16 17  1  0
 17 18  1  0
 18 19  1  0
 13  4  1  0
 19 16  1  0
 12  6  1  0
  1 20  1  0
  5 21  1  0
  7 22  1  0
  8 23  1  0
 10 24  1  0
 10 25  1  0
 11 26  1  0
 16 27  1  0
 17 28  1  0
 17 29  1  0
 18 30  1  0
 18 31  1  0
 19 32  1  0
 19 33  1  0
M  CHG  2   1  -1  16   1
M  END
>  <UniqueID>  (48) 
47

>  <SMILES>  (48) 
[NH-]C(=O)c1cc2ccc(N)cc2n1C(=O)[NH+]1CCC1

>  <Energy>  (48) 
147.1823769333321

>  <Genealogy>  (48) 
[NH-]C(=O)c1cc2ccc(N)cc2n1C(=O)[NH+]1CCC1 (protonated)
[NH-]C(=O)c1cc2ccc(N)cc2n1C(=O)[NH+]1CCC1 (3D coordinates assigned)
[NH-]C(=O)c1cc2ccc(N)cc2n1C(=O)[NH+]1CCC1 (nonaromatic ring conformer: 147.1823769333321 kcal/mol)

>  <smiles>  (48) 
NC(=O)c1cc2ccc(N)cc2n1C(=O)N1CCC1

>  <score_type>  (48) 
oracle

>  <origin>  (48) 
adg

>  <m_score__min__energy>  (48) 
-8.4100000000000001

>  <m_primary>  (48) 
energy

$$$$
48:0
     RDKit          3D

 39 40  0  0  0  0  0  0  0  0999 V2000
   -1.3740   18.0690  -32.8740 C   0  0  0  0  0  0  0  0  0  0  0  0
   -2.4070   17.6590  -33.7630 O   0  0  0  0  0  0  0  0  0  0  0  0
   -3.5560   18.4220  -33.9850 C   0  0  0  0  0  0  0  0  0  0  0  0
   -3.4750   19.6730  -34.1330 O   0  0  0  0  0  0  0  0  0  0  0  0
   -4.8290   17.7690  -34.0380 N   0  0  0  0  0  0  0  0  0  0  0  0
   -6.0770   18.4820  -34.3120 C   0  0  0  0  0  0  0  0  0  0  0  0
   -6.9640   18.5490  -33.0630 C   0  0  0  0  0  0  0  0  0  0  0  0
   -7.0930   19.9610  -32.5560 C   0  0  0  0  0  0  0  0  0  0  0  0
   -8.3750   20.5290  -32.3490 C   0  0  0  0  0  0  0  0  0  0  0  0
   -8.5070   21.8280  -31.8310 C   0  0  0  0  0  0  0  0  0  0  0  0
   -7.3450   22.5330  -31.5310 C   0  0  0  0  0  0  0  0  0  0  0  0
   -7.1860   23.7880  -30.9910 C   0  0  0  0  0  0  0  0  0  0  0  0
   -5.8080   23.9740  -30.8900 C   0  0  0  0  0  0  0  0  0  0  0  0
   -5.1910   25.2370  -30.4330 C   0  0  0  0  0  0  0  0  0  0  0  0
   -3.8880   25.6150  -30.8680 N   0  0  0  0  0  0  0  0  0  0  0  0
   -5.8430   26.0170  -29.6890 O   0  0  0  0  0  0  0  0  0  0  0  0
   -5.1420   22.8740  -31.3410 N   0  0  0  0  0  0  0  0  0  0  0  0
   -3.7260   22.6330  -31.3110 C   0  0  0  0  0  0  0  0  0  0  0  0
   -3.0210   23.1370  -30.3950 O   0  0  0  0  0  0  0  0  0  0  0  0
   -3.1330   21.8590  -32.3130 O   0  0  0  0  0  0  0  0  0  0  0  0
   -1.7450   21.5500  -32.3220 C   0  0  0  0  0  0  0  0  0  0  0  0
   -6.0970   22.0020  -31.7330 C   0  0  0  0  0  0  0  0  0  0  0  0
   -5.9360   20.7030  -32.2310 C   0  0  0  0  0  0  0  0  0  0  0  0
   -1.7100   17.9356  -31.8351 H   0  0  0  0  0  0  0  0  0  0  0  0
   -0.4755   17.4593  -33.0499 H   0  0  0  0  0  0  0  0  0  0  0  0
   -1.1381   19.1289  -33.0499 H   0  0  0  0  0  0  0  0  0  0  0  0
   -4.8720   16.7440  -33.8380 H   0  0  0  0  0  0  0  0  0  0  0  0
   -5.8410   19.5052  -34.6396 H   0  0  0  0  0  0  0  0  0  0  0  0
   -6.6227   17.9389  -35.0977 H   0  0  0  0  0  0  0  0  0  0  0  0
   -7.9642   18.1658  -33.3134 H   0  0  0  0  0  0  0  0  0  0  0  0
   -6.4985   17.9392  -32.2746 H   0  0  0  0  0  0  0  0  0  0  0  0
   -9.2751   19.9471  -32.5963 H   0  0  0  0  0  0  0  0  0  0  0  0
   -9.4988   22.2746  -31.6674 H   0  0  0  0  0  0  0  0  0  0  0  0
   -7.9776   24.4945  -30.7007 H   0  0  0  0  0  0  0  0  0  0  0  0
   -3.0370   25.3010  -30.3510 H   0  0  0  0  0  0  0  0  0  0  0  0
   -1.3807   21.4689  -31.2872 H   0  0  0  0  0  0  0  0  0  0  0  0
   -1.5855   20.5944  -32.8429 H   0  0  0  0  0  0  0  0  0  0  0  0
   -1.1951   22.3477  -32.8429 H   0  0  0  0  0  0  0  0  0  0  0  0
   -4.9333   20.2713  -32.3657 H   0  0  0  0  0  0  0  0  0  0  0  0
  1  2  1  0
  2  3  1  0
  3  4  2  0
  3  5  1  0
  5  6  1  0
  6  7  1  0
  7  8  1  0
  8  9  2  0
  9 10  1  0
 10 11  2  0
 11 12  1  0
 12 13  2  0
 13 14  1  0
 14 15  1  0
 14 16  2  0
 13 17  1  0
 17 18  1  0
 18 19  2  0
 18 20  1  0
 20 21  1  0
 17 22  1  0
 22 23  2  0
 23  8  1  0
 22 11  1  0
  1 24  1  0
  1 25  1  0
  1 26  1  0
  5 27  1  0
  6 28  1  0
  6 29  1  0
  7 30  1  0
  7 31  1  0
  9 32  1  0
 10 33  1  0
 12 34  1  0
 15 35  1  0
 21 36  1  0
 21 37  1  0
 21 38  1  0
 23 39  1  0
M  CHG  1  15  -1
M  END
>  <UniqueID>  (49) 
48

>  <SMILES>  (49) 
COC(=O)NCCc1ccc2cc(C([NH-])=O)n(C(=O)OC)c2c1

>  <Energy>  (49) 
68.50159784017916

>  <Genealogy>  (49) 
COC(=O)NCCc1ccc2cc(C([NH-])=O)n(C(=O)OC)c2c1 (protonated)
COC(=O)NCCc1ccc2cc(C([NH-])=O)n(C(=O)OC)c2c1 (3D coordinates assigned)
COC(=O)NCCc1ccc2cc(C([NH-])=O)n(C(=O)OC)c2c1 (optimized conformer: 68.50159784017916 kcal/mol)

>  <smiles>  (49) 
COC(=O)NCCc1ccc2cc(C(N)=O)n(C(=O)OC)c2c1

>  <score_type>  (49) 
oracle

>  <origin>  (49) 
adg

>  <m_score__min__energy>  (49) 
-9.6799999999999997

>  <m_primary>  (49) 
energy

$$$$
49:0
     RDKit          3D

 30 31  0  0  0  0  0  0  0  0999 V2000
   -2.7080   19.4220  -33.4710 C   0  0  0  0  0  0  0  0  0  0  0  0
   -4.1680   19.2980  -33.5580 N   0  0  0  0  0  0  0  0  0  0  0  0
   -4.7410   18.1210  -34.2230 C   0  0  0  0  0  0  0  0  0  0  0  0
   -5.0310   20.3200  -32.9950 C   0  0  0  0  0  0  0  0  0  0  0  0
   -6.4400   20.2680  -33.1880 C   0  0  0  0  0  0  0  0  0  0  0  0
   -7.2820   21.2590  -32.6590 C   0  0  0  0  0  0  0  0  0  0  0  0
   -6.7010   22.2890  -31.9300 C   0  0  0  0  0  0  0  0  0  0  0  0
   -7.2830   23.3870  -31.3400 C   0  0  0  0  0  0  0  0  0  0  0  0
   -6.2300   24.0910  -30.7630 C   0  0  0  0  0  0  0  0  0  0  0  0
   -6.4170   25.3190  -29.9640 C   0  0  0  0  0  0  0  0  0  0  0  0
   -5.6640   26.5010  -30.2380 N   0  0  0  0  0  0  0  0  0  0  0  0
   -7.2140   25.3060  -28.9880 O   0  0  0  0  0  0  0  0  0  0  0  0
   -5.0430   23.4630  -30.9950 N   0  0  0  0  0  0  0  0  0  0  0  0
   -3.7280   23.9400  -30.6650 C   0  0  0  0  0  0  0  0  0  0  0  0
   -2.7660   23.1350  -30.5530 O   0  0  0  0  0  0  0  0  0  0  0  0
   -3.5030   25.2970  -30.4690 O   0  0  0  0  0  0  0  0  0  0  0  0
   -5.3510   22.3560  -31.7110 C   0  0  0  0  0  0  0  0  0  0  0  0
   -4.4840   21.3950  -32.2450 C   0  0  0  0  0  0  0  0  0  0  0  0
   -2.4045   19.4478  -32.4140 H   0  0  0  0  0  0  0  0  0  0  0  0
   -2.2367   18.5607  -33.9669 H   0  0  0  0  0  0  0  0  0  0  0  0
   -2.3887   20.3505  -33.9669 H   0  0  0  0  0  0  0  0  0  0  0  0
   -5.0897   17.4048  -33.4644 H   0  0  0  0  0  0  0  0  0  0  0  0
   -5.5888   18.4314  -34.8514 H   0  0  0  0  0  0  0  0  0  0  0  0
   -3.9738   17.6451  -34.8514 H   0  0  0  0  0  0  0  0  0  0  0  0
   -6.8768   19.4371  -33.7615 H   0  0  0  0  0  0  0  0  0  0  0  0
   -8.3699   21.2210  -32.8171 H   0  0  0  0  0  0  0  0  0  0  0  0
   -8.3506   23.6516  -31.3270 H   0  0  0  0  0  0  0  0  0  0  0  0
   -5.8360   27.3710  -29.6870 H   0  0  0  0  0  0  0  0  0  0  0  0
   -4.8810   26.4940  -30.9280 H   0  0  0  0  0  0  0  0  0  0  0  0
   -3.3982   21.4712  -32.0864 H   0  0  0  0  0  0  0  0  0  0  0  0
  1  2  1  0
  2  3  1  0
  2  4  1  0
  4  5  2  0
  5  6  1  0
  6  7  2  0
  7  8  1  0
  8  9  2  0
  9 10  1  0
 10 11  1  0
 10 12  2  0
  9 13  1  0
 13 14  1  0
 14 15  2  0
 14 16  1  0
 13 17  1  0
 17 18  2  0
 18  4  1  0
 17  7  1  0
  1 19  1  0
  1 20  1  0
  1 21  1  0
  3 22  1  0
  3 23  1  0
  3 24  1  0
  5 25  1  0
  6 26  1  0
  8 27  1  0
 11 28  1  0
 11 29  1  0
 18 30  1  0
M  CHG  1  16  -1
M  END
>  <UniqueID>  (50) 
49

>  <SMILES>  (50) 
CN(C)c1ccc2cc(C(N)=O)n(C(=O)[O-])c2c1

>  <Energy>  (50) 
71.76411841164585

>  <Genealogy>  (50) 
CN(C)c1ccc2cc(C(N)=O)n(C(=O)[O-])c2c1 (protonated)
CN(C)c1ccc2cc(C(N)=O)n(C(=O)[O-])c2c1 (3D coordinates assigned)
CN(C)c1ccc2cc(C(N)=O)n(C(=O)[O-])c2c1 (optimized conformer: 71.76411841164585 kcal/mol)

>  <smiles>  (50) 
CN(C)c1ccc2cc(C(N)=O)n(C(=O)O)c2c1

>  <score_type>  (50) 
oracle

>  <origin>  (50) 
adg

>  <m_score__min__energy>  (50) 
-8.1300000000000008

>  <m_primary>  (50) 
energy

$$$$
50:0
     RDKit          3D

 34 35  0  0  0  0  0  0  0  0999 V2000
   -2.4630   23.7580  -28.0530 C   0  0  0  0  0  0  0  0  0  0  0  0
   -2.4370   24.9250  -28.9920 C   0  0  0  0  0  0  0  0  0  0  0  0
   -1.4470   25.7040  -28.9780 O   0  0  0  0  0  0  0  0  0  0  0  0
   -3.4920   25.1620  -29.9320 N   0  0  0  0  0  0  0  0  0  0  0  0
   -4.0790   24.1510  -30.8050 C   0  0  0  0  0  0  0  0  0  0  0  0
   -5.6020   24.1380  -30.6540 C   0  0  0  0  0  0  0  0  0  0  0  0
   -6.1790   22.8760  -31.2370 C   0  0  0  0  0  0  0  0  0  0  0  0
   -7.5750   22.6430  -31.1870 C   0  0  0  0  0  0  0  0  0  0  0  0
   -8.1280   21.4910  -31.7690 C   0  0  0  0  0  0  0  0  0  0  0  0
   -7.2640   20.5970  -32.3950 C   0  0  0  0  0  0  0  0  0  0  0  0
   -7.5370   19.4250  -33.0610 C   0  0  0  0  0  0  0  0  0  0  0  0
   -6.3010   18.9520  -33.5020 C   0  0  0  0  0  0  0  0  0  0  0  0
   -6.1130   17.6580  -34.1940 C   0  0  0  0  0  0  0  0  0  0  0  0
   -5.0320   17.4720  -35.1100 N   0  0  0  0  0  0  0  0  0  0  0  0
   -6.9260   16.7150  -34.0060 O   0  0  0  0  0  0  0  0  0  0  0  0
   -5.3040   19.8020  -33.1240 N   0  0  0  0  0  0  0  0  0  0  0  0
   -3.9030   19.7050  -33.4340 C   0  0  0  0  0  0  0  0  0  0  0  0
   -3.3120   18.5950  -33.3690 O   0  0  0  0  0  0  0  0  0  0  0  0
   -3.1880   20.8320  -33.8200 O   0  0  0  0  0  0  0  0  0  0  0  0
   -5.9090   20.8030  -32.4460 C   0  0  0  0  0  0  0  0  0  0  0  0
   -5.3340   21.9520  -31.8900 C   0  0  0  0  0  0  0  0  0  0  0  0
   -2.4549   24.1223  -27.0151 H   0  0  0  0  0  0  0  0  0  0  0  0
   -3.3745   23.1674  -28.2272 H   0  0  0  0  0  0  0  0  0  0  0  0
   -1.5787   23.1274  -28.2272 H   0  0  0  0  0  0  0  0  0  0  0  0
   -3.8199   24.3788  -31.8495 H   0  0  0  0  0  0  0  0  0  0  0  0
   -3.6833   23.1635  -30.5253 H   0  0  0  0  0  0  0  0  0  0  0  0
   -5.8604   24.1946  -29.5863 H   0  0  0  0  0  0  0  0  0  0  0  0
   -6.0201   25.0017  -31.1917 H   0  0  0  0  0  0  0  0  0  0  0  0
   -8.2317   23.3707  -30.6879 H   0  0  0  0  0  0  0  0  0  0  0  0
   -9.2108   21.3008  -31.7314 H   0  0  0  0  0  0  0  0  0  0  0  0
   -8.5217   18.9592  -33.2136 H   0  0  0  0  0  0  0  0  0  0  0  0
   -4.9300   16.5680  -35.6230 H   0  0  0  0  0  0  0  0  0  0  0  0
   -4.3070   18.2090  -35.2520 H   0  0  0  0  0  0  0  0  0  0  0  0
   -4.2509   22.1306  -31.9601 H   0  0  0  0  0  0  0  0  0  0  0  0
  1  2  1  0
  2  3  2  0
  2  4  1  0
  4  5  1  0
  5  6  1  0
  6  7  1  0
  7  8  2  0
  8  9  1  0
  9 10  2  0
 10 11  1  0
 11 12  2  0
 12 13  1  0
 13 14  1  0
 13 15  2  0
 12 16  1  0
 16 17  1  0
 17 18  2  0
 17 19  1  0
 16 20  1  0
 20 21  2  0
 21  7  1  0
 20 10  1  0
  1 22  1  0
  1 23  1  0
  1 24  1  0
  5 25  1  0
  5 26  1  0
  6 27  1  0
  6 28  1  0
  8 29  1  0
  9 30  1  0
 11 31  1  0
 14 32  1  0
 14 33  1  0
 21 34  1  0
M  CHG  2   4  -1  19  -1
M  END
>  <UniqueID>  (51) 
50

>  <SMILES>  (51) 
CC(=O)[N-]CCc1ccc2cc(C(N)=O)n(C(=O)[O-])c2c1

>  <Energy>  (51) 
68.01882086942192

>  <Genealogy>  (51) 
CC(=O)[N-]CCc1ccc2cc(C(N)=O)n(C(=O)[O-])c2c1 (protonated)
CC(=O)[N-]CCc1ccc2cc(C(N)=O)n(C(=O)[O-])c2c1 (3D coordinates assigned)
CC(=O)[N-]CCc1ccc2cc(C(N)=O)n(C(=O)[O-])c2c1 (optimized conformer: 68.01882086942192 kcal/mol)

>  <smiles>  (51) 
CC(=O)NCCc1ccc2cc(C(N)=O)n(C(=O)O)c2c1

>  <score_type>  (51) 
oracle

>  <origin>  (51) 
adg

>  <m_score__min__energy>  (51) 
-9.0800000000000001

>  <m_primary>  (51) 
energy

$$$$
51:0
     RDKit          3D

 46 49  0  0  0  0  0  0  0  0999 V2000
   -4.0530   25.6630  -30.8440 N   0  0  0  0  0  0  0  0  0  0  0  0
   -5.3670   25.2960  -30.4320 C   0  0  0  0  0  0  0  0  0  0  0  0
   -6.0260   26.0820  -29.7010 O   0  0  0  0  0  0  0  0  0  0  0  0
   -5.9300   23.9940  -30.8410 C   0  0  0  0  0  0  0  0  0  0  0  0
   -7.2770   23.7900  -31.1420 C   0  0  0  0  0  0  0  0  0  0  0  0
   -7.3650   22.4770  -31.5510 C   0  0  0  0  0  0  0  0  0  0  0  0
   -8.4640   21.7380  -31.9770 C   0  0  0  0  0  0  0  0  0  0  0  0
   -8.2570   20.3950  -32.3360 C   0  0  0  0  0  0  0  0  0  0  0  0
   -6.9660   19.8070  -32.2500 C   0  0  0  0  0  0  0  0  0  0  0  0
   -6.7720   18.3590  -32.6810 C   0  0  0  0  0  0  0  0  0  0  0  0
   -5.7260   17.5990  -31.8120 C   0  0  0  0  0  0  0  0  0  0  0  0
   -4.4610   17.1980  -32.5880 C   0  0  0  0  0  0  0  0  0  0  0  0
   -4.0720   18.2620  -33.5230 N   0  0  0  0  0  0  0  0  0  0  0  0
   -2.7520   18.8330  -33.5020 C   0  0  0  0  0  0  0  0  0  0  0  0
   -2.0390   18.9970  -32.2730 N   0  0  0  0  0  0  0  0  0  0  0  0
   -2.2270   19.2380  -34.5740 O   0  0  0  0  0  0  0  0  0  0  0  0
   -5.0390   18.7310  -34.5250 C   0  0  0  0  0  0  0  0  0  0  0  0
   -6.4670   18.2700  -34.1930 C   0  0  0  0  0  0  0  0  0  0  0  0
   -5.8740   20.6020  -31.8210 C   0  0  0  0  0  0  0  0  0  0  0  0
   -6.1110   21.9360  -31.4850 C   0  0  0  0  0  0  0  0  0  0  0  0
   -5.2200   22.8490  -31.0480 N   0  0  0  0  0  0  0  0  0  0  0  0
   -3.8190   22.6230  -30.8370 C   0  0  0  0  0  0  0  0  0  0  0  0
   -2.9780   23.1750  -31.5960 O   0  0  0  0  0  0  0  0  0  0  0  0
   -3.3590   21.7060  -29.7830 C   0  0  0  0  0  0  0  0  0  0  0  0
   -3.4720   21.9080  -28.4230 C   0  0  0  0  0  0  0  0  0  0  0  0
   -2.8830   20.7880  -27.8760 C   0  0  0  0  0  0  0  0  0  0  0  0
   -2.4670   20.0160  -28.8540 O   0  0  0  0  0  0  0  0  0  0  0  0
   -2.7350   20.5370  -30.0160 N   0  0  0  0  0  0  0  0  0  0  0  0
   -3.2240   25.0910  -30.5670 H   0  0  0  0  0  0  0  0  0  0  0  0
   -8.0950   24.5218  -31.0685 H   0  0  0  0  0  0  0  0  0  0  0  0
   -9.4649   22.1911  -32.0312 H   0  0  0  0  0  0  0  0  0  0  0  0
   -9.1059   19.7907  -32.6884 H   0  0  0  0  0  0  0  0  0  0  0  0
   -7.7247   17.8384  -32.5039 H   0  0  0  0  0  0  0  0  0  0  0  0
   -5.4301   18.2489  -30.9753 H   0  0  0  0  0  0  0  0  0  0  0  0
   -6.2039   16.6696  -31.4688 H   0  0  0  0  0  0  0  0  0  0  0  0
   -3.6402   17.0232  -31.8768 H   0  0  0  0  0  0  0  0  0  0  0  0
   -4.6696   16.2813  -33.1591 H   0  0  0  0  0  0  0  0  0  0  0  0
   -1.0670   19.3760  -32.2800 H   0  0  0  0  0  0  0  0  0  0  0  0
   -2.5070   18.8460  -31.3520 H   0  0  0  0  0  0  0  0  0  0  0  0
   -5.0168   19.8304  -34.5552 H   0  0  0  0  0  0  0  0  0  0  0  0
   -4.7581   18.3053  -35.4996 H   0  0  0  0  0  0  0  0  0  0  0  0
   -7.1803   18.9071  -34.7364 H   0  0  0  0  0  0  0  0  0  0  0  0
   -6.5607   17.2164  -34.4951 H   0  0  0  0  0  0  0  0  0  0  0  0
   -4.8616   20.1771  -31.7542 H   0  0  0  0  0  0  0  0  0  0  0  0
   -3.9254   22.7619  -27.8984 H   0  0  0  0  0  0  0  0  0  0  0  0
   -2.7789   20.5764  -26.8016 H   0  0  0  0  0  0  0  0  0  0  0  0
  1  2  1  0
  2  3  2  0
  2  4  1  0
  4  5  2  0
  5  6  1  0
  6  7  2  0
  7  8  1  0
  8  9  2  0
  9 10  1  0
 10 11  1  0
 11 12  1  0
 12 13  1  0
 13 14  1  0
 14 15  1  0
 14 16  2  0
 13 17  1  0
 17 18  1  0
  9 19  1  0
 19 20  2  0
 20 21  1  0
 21 22  1  0
 22 23  2  0
 22 24  1  0
 24 25  1  0
 25 26  2  0
 26 27  1  0
 27 28  1  0
 21  4  1  0
 28 24  2  0
 20  6  1  0
 18 10  1  0
  1 29  1  0
  5 30  1  0
  7 31  1  0
  8 32  1  0
 10 33  1  0
 11 34  1  0
 11 35  1  0
 12 36  1  0
 12 37  1  0
 15 38  1  0
 15 39  1  0
 17 40  1  0
 17 41  1  0
 18 42  1  0
 18 43  1  0
 19 44  1  0
 25 45  1  0
 26 46  1  0
M  CHG  1   1  -1
M  END
>  <UniqueID>  (52) 
51

>  <SMILES>  (52) 
[NH-]C(=O)c1cc2ccc(C3CCN(C(N)=O)CC3)cc2n1C(=O)c1ccon1

>  <Energy>  (52) 
122.5008788094574

>  <Genealogy>  (52) 
[NH-]C(=O)c1cc2ccc(C3CCN(C(N)=O)CC3)cc2n1C(=O)c1ccon1 (protonated)
[NH-]C(=O)c1cc2ccc(C3CCN(C(N)=O)CC3)cc2n1C(=O)c1ccon1 (3D coordinates assigned)
[NH-]C(=O)c1cc2ccc(C3CCN(C(N)=O)CC3)cc2n1C(=O)c1ccon1 (nonaromatic ring conformer: 122.5008788094574 kcal/mol)

>  <smiles>  (52) 
NC(=O)c1cc2ccc(C3CCN(C(N)=O)CC3)cc2n1C(=O)c1ccon1

>  <score_type>  (52) 
oracle

>  <origin>  (52) 
adg

>  <m_score__min__energy>  (52) 
-11.19

>  <m_primary>  (52) 
energy

$$$$
52:0
     RDKit          3D

 30 32  0  0  0  0  0  0  0  0999 V2000
   -3.2990   24.1560  -30.7700 N   0  0  0  0  0  0  0  0  0  0  0  0
   -4.0110   23.0030  -31.2120 C   0  0  0  0  0  0  0  0  0  0  0  0
   -3.3740   21.9600  -31.5160 O   0  0  0  0  0  0  0  0  0  0  0  0
   -5.4470   23.0260  -31.2990 N   0  0  0  0  0  0  0  0  0  0  0  0
   -6.2910   23.9830  -30.8200 C   0  0  0  0  0  0  0  0  0  0  0  0
   -5.8900   25.2900  -30.2630 C   0  0  0  0  0  0  0  0  0  0  0  0
   -6.3010   25.6950  -28.9560 N   0  0  0  0  0  0  0  0  0  0  0  0
   -5.1240   26.0380  -30.9280 O   0  0  0  0  0  0  0  0  0  0  0  0
   -7.6180   23.5930  -30.9760 C   0  0  0  0  0  0  0  0  0  0  0  0
   -7.5630   22.3600  -31.5840 C   0  0  0  0  0  0  0  0  0  0  0  0
   -8.5930   21.5040  -31.9600 C   0  0  0  0  0  0  0  0  0  0  0  0
   -8.2490   20.2720  -32.5370 C   0  0  0  0  0  0  0  0  0  0  0  0
   -6.8880   19.9070  -32.7200 C   0  0  0  0  0  0  0  0  0  0  0  0
   -6.5350   18.5950  -33.3180 C   0  0  0  0  0  0  0  0  0  0  0  0
   -5.4910   18.4150  -34.2460 C   0  0  0  0  0  0  0  0  0  0  0  0
   -5.3380   17.1030  -34.6720 C   0  0  0  0  0  0  0  0  0  0  0  0
   -6.4940   16.1650  -33.8970 S   0  0  0  0  0  0  0  0  0  0  0  0
   -7.2030   17.4080  -33.0170 C   0  0  0  0  0  0  0  0  0  0  0  0
   -5.8710   20.8080  -32.3200 C   0  0  0  0  0  0  0  0  0  0  0  0
   -6.2430   22.0390  -31.7680 C   0  0  0  0  0  0  0  0  0  0  0  0
   -3.4370   25.0820  -31.2320 H   0  0  0  0  0  0  0  0  0  0  0  0
   -6.7950   25.0340  -28.3180 H   0  0  0  0  0  0  0  0  0  0  0  0
   -6.0390   26.6390  -28.5940 H   0  0  0  0  0  0  0  0  0  0  0  0
   -8.5177   24.1509  -30.6773 H   0  0  0  0  0  0  0  0  0  0  0  0
   -9.6459   21.7845  -31.8095 H   0  0  0  0  0  0  0  0  0  0  0  0
   -9.0436   19.5795  -32.8519 H   0  0  0  0  0  0  0  0  0  0  0  0
   -4.8548   19.2392  -34.6009 H   0  0  0  0  0  0  0  0  0  0  0  0
   -4.5895   16.7410  -35.3922 H   0  0  0  0  0  0  0  0  0  0  0  0
   -8.0494   17.3037  -32.3222 H   0  0  0  0  0  0  0  0  0  0  0  0
   -4.8097   20.5453  -32.4408 H   0  0  0  0  0  0  0  0  0  0  0  0
  1  2  1  0
  2  3  2  0
  2  4  1  0
  4  5  1  0
  5  6  1  0
  6  7  1  0
  6  8  2  0
  5  9  2  0
  9 10  1  0
 10 11  2  0
 11 12  1  0
 12 13  2  0
 13 14  1  0
 14 15  1  0
 15 16  2  0
 16 17  1  0
 17 18  1  0
 13 19  1  0
 19 20  2  0
 20  4  1  0
 20 10  1  0
 18 14  2  0
  1 21  1  0
  7 22  1  0
  7 23  1  0
  9 24  1  0
 11 25  1  0
 12 26  1  0
 15 27  1  0
 16 28  1  0
 18 29  1  0
 19 30  1  0
M  CHG  1   1  -1
M  END
>  <UniqueID>  (53) 
52

>  <SMILES>  (53) 
[NH-]C(=O)n1c(C(N)=O)cc2ccc(-c3ccsc3)cc21

>  <Energy>  (53) 
101.48377169810826

>  <Genealogy>  (53) 
[NH-]C(=O)n1c(C(N)=O)cc2ccc(-c3ccsc3)cc21 (protonated)
[NH-]C(=O)n1c(C(N)=O)cc2ccc(-c3ccsc3)cc21 (3D coordinates assigned)
[NH-]C(=O)n1c(C(N)=O)cc2ccc(-c3ccsc3)cc21 (optimized conformer: 101.48377169810826 kcal/mol)

>  <smiles>  (53) 
NC(=O)c1cc2ccc(-c3ccsc3)cc2n1C(N)=O

>  <score_type>  (53) 
oracle

>  <origin>  (53) 
adg

>  <m_score__min__energy>  (53) 
-9.7100000000000009

>  <m_primary>  (53) 
energy

$$$$
53:0
     RDKit          3D

 45 48  0  0  0  0  0  0  0  0999 V2000
   -4.1580   25.3140  -30.8300 N   0  0  0  0  0  0  0  0  0  0  0  0
   -5.5390   25.1360  -30.5190 C   0  0  0  0  0  0  0  0  0  0  0  0
   -6.1510   26.0370  -29.8880 O   0  0  0  0  0  0  0  0  0  0  0  0
   -6.2280   23.8910  -30.9190 C   0  0  0  0  0  0  0  0  0  0  0  0
   -7.6090   23.7870  -31.0760 C   0  0  0  0  0  0  0  0  0  0  0  0
   -7.8330   22.5010  -31.5090 C   0  0  0  0  0  0  0  0  0  0  0  0
   -9.0250   21.8550  -31.8250 C   0  0  0  0  0  0  0  0  0  0  0  0
   -8.9580   20.5130  -32.2350 C   0  0  0  0  0  0  0  0  0  0  0  0
   -7.7120   19.8400  -32.3020 C   0  0  0  0  0  0  0  0  0  0  0  0
   -7.6420   18.4150  -32.7720 C   0  0  0  0  0  0  0  0  0  0  0  0
   -6.3530   18.1680  -33.4080 N   0  0  0  0  0  0  0  0  0  0  0  0
   -5.3070   17.5100  -32.8790 C   0  0  0  0  0  0  0  0  0  0  0  0
   -4.3200   17.4050  -33.7830 N   0  0  0  0  0  0  0  0  0  0  0  0
   -4.8170   18.0160  -34.8770 C   0  0  0  0  0  0  0  0  0  0  0  0
   -6.0660   18.4800  -34.6620 N   0  0  0  0  0  0  0  0  0  0  0  0
   -6.5240   20.5300  -31.9820 C   0  0  0  0  0  0  0  0  0  0  0  0
   -6.6170   21.8720  -31.5980 C   0  0  0  0  0  0  0  0  0  0  0  0
   -5.6220   22.7140  -31.2430 N   0  0  0  0  0  0  0  0  0  0  0  0
   -4.2190   22.4080  -31.1820 C   0  0  0  0  0  0  0  0  0  0  0  0
   -3.5070   22.5480  -32.2130 O   0  0  0  0  0  0  0  0  0  0  0  0
   -3.6160   21.8400  -29.9250 C   0  0  0  0  0  0  0  0  0  0  0  0
   -3.8140   22.7560  -28.7040 C   0  0  0  0  0  0  0  0  0  0  0  0
   -2.4970   23.4060  -28.2400 C   0  0  0  0  0  0  0  0  0  0  0  0
   -2.6030   24.8780  -27.9050 C   0  0  0  0  0  0  0  0  0  0  0  0
   -1.7880   25.2540  -28.9890 O   0  0  0  0  0  0  0  0  0  0  0  0
   -1.6340   23.9100  -29.3770 C   0  0  0  0  0  0  0  0  0  0  0  0
   -3.4870   25.6630  -30.1100 H   0  0  0  0  0  0  0  0  0  0  0  0
   -8.3610   24.5685  -30.8924 H   0  0  0  0  0  0  0  0  0  0  0  0
   -9.9896   22.3792  -31.7558 H   0  0  0  0  0  0  0  0  0  0  0  0
   -9.8808   19.9795  -32.5066 H   0  0  0  0  0  0  0  0  0  0  0  0
   -7.7599   17.7403  -31.9113 H   0  0  0  0  0  0  0  0  0  0  0  0
   -8.4470   18.2321  -33.4990 H   0  0  0  0  0  0  0  0  0  0  0  0
   -5.2657   17.1146  -31.8534 H   0  0  0  0  0  0  0  0  0  0  0  0
   -3.3890   16.9460  -33.6680 H   0  0  0  0  0  0  0  0  0  0  0  0
   -4.2724   18.1231  -35.8267 H   0  0  0  0  0  0  0  0  0  0  0  0
   -5.5481   20.0251  -32.0332 H   0  0  0  0  0  0  0  0  0  0  0  0
   -4.0880   20.8686  -29.7162 H   0  0  0  0  0  0  0  0  0  0  0  0
   -2.5335   21.7391  -30.0923 H   0  0  0  0  0  0  0  0  0  0  0  0
   -4.5261   23.5510  -28.9702 H   0  0  0  0  0  0  0  0  0  0  0  0
   -4.1928   22.1370  -27.8774 H   0  0  0  0  0  0  0  0  0  0  0  0
   -2.1880   22.6370  -27.5167 H   0  0  0  0  0  0  0  0  0  0  0  0
   -3.6288   25.2696  -27.9718 H   0  0  0  0  0  0  0  0  0  0  0  0
   -2.3306   25.2139  -26.8936 H   0  0  0  0  0  0  0  0  0  0  0  0
   -2.0487   23.6910  -30.3720 H   0  0  0  0  0  0  0  0  0  0  0  0
   -0.6186   23.5035  -29.4945 H   0  0  0  0  0  0  0  0  0  0  0  0
  1  2  1  0
  2  3  2  0
  2  4  1  0
  4  5  2  0
  5  6  1  0
  6  7  2  0
  7  8  1  0
  8  9  2  0
  9 10  1  0
 10 11  1  0
 11 12  1  0
 12 13  2  0
 13 14  1  0
 14 15  2  0
  9 16  1  0
 16 17  2  0
 17 18  1  0
 18 19  1  0
 19 20  2  0
 19 21  1  0
 21 22  1  0
 22 23  1  0
 23 24  1  0
 24 25  1  0
 25 26  1  0
 18  4  1  0
 26 23  1  0
 17  6  1  0
 15 11  1  0
  1 27  1  0
  5 28  1  0
  7 29  1  0
  8 30  1  0
 10 31  1  0
 10 32  1  0
 12 33  1  0
 13 34  1  0
 14 35  1  0
 16 36  1  0
 21 37  1  0
 21 38  1  0
 22 39  1  0
 22 40  1  0
 23 41  1  0
 24 42  1  0
 24 43  1  0
 26 44  1  0
 26 45  1  0
M  CHG  2   1  -1  13   1
M  END
>  <UniqueID>  (54) 
53

>  <SMILES>  (54) 
[NH-]C(=O)c1cc2ccc(Cn3c[nH+]cn3)cc2n1C(=O)CCC1COC1

>  <Energy>  (54) 
180.5585114764341

>  <Genealogy>  (54) 
[NH-]C(=O)c1cc2ccc(Cn3c[nH+]cn3)cc2n1C(=O)CCC1COC1 (protonated)
[NH-]C(=O)c1cc2ccc(Cn3c[nH+]cn3)cc2n1C(=O)CCC1COC1 (3D coordinates assigned)
[NH-]C(=O)c1cc2ccc(Cn3c[nH+]cn3)cc2n1C(=O)CCC1COC1 (nonaromatic ring conformer: 180.5585114764341 kcal/mol)

>  <smiles>  (54) 
NC(=O)c1cc2ccc(Cn3cncn3)cc2n1C(=O)CCC1COC1

>  <score_type>  (54) 
oracle

>  <origin>  (54) 
adg

>  <m_score__min__energy>  (54) 
-11.109999999999999

>  <m_primary>  (54) 
energy

$$$$
54:0
     RDKit          3D

 39 41  0  0  0  0  0  0  0  0999 V2000
   -3.5290   22.4550  -29.5690 C   0  0  0  0  0  0  0  0  0  0  0  0
   -4.3060   22.1850  -30.8160 C   0  0  0  0  0  0  0  0  0  0  0  0
   -3.7830   21.4940  -31.7310 O   0  0  0  0  0  0  0  0  0  0  0  0
   -5.6410   22.6920  -30.9790 N   0  0  0  0  0  0  0  0  0  0  0  0
   -6.0610   23.9820  -30.8480 C   0  0  0  0  0  0  0  0  0  0  0  0
   -5.2400   25.1190  -30.3780 C   0  0  0  0  0  0  0  0  0  0  0  0
   -3.8580   25.2160  -30.7130 N   0  0  0  0  0  0  0  0  0  0  0  0
   -5.7600   26.0020  -29.6440 O   0  0  0  0  0  0  0  0  0  0  0  0
   -7.4140   24.0880  -31.1660 C   0  0  0  0  0  0  0  0  0  0  0  0
   -7.8130   22.8140  -31.4970 C   0  0  0  0  0  0  0  0  0  0  0  0
   -9.0540   22.3450  -31.9170 C   0  0  0  0  0  0  0  0  0  0  0  0
   -9.1710   20.9800  -32.2320 C   0  0  0  0  0  0  0  0  0  0  0  0
   -8.0530   20.1160  -32.1200 C   0  0  0  0  0  0  0  0  0  0  0  0
   -8.1770   18.6690  -32.5080 C   0  0  0  0  0  0  0  0  0  0  0  0
   -6.9540   17.8790  -32.0370 C   0  0  0  0  0  0  0  0  0  0  0  0
   -5.8260   18.0270  -33.0140 C   0  0  0  0  0  0  0  0  0  0  0  0
   -5.6970   17.2320  -34.1530 C   0  0  0  0  0  0  0  0  0  0  0  0
   -4.2710   17.6730  -34.9380 S   0  0  0  0  0  0  0  0  0  0  0  0
   -3.8810   18.8400  -33.7960 C   0  0  0  0  0  0  0  0  0  0  0  0
   -2.7120   19.6540  -33.8340 N   0  0  0  0  0  0  0  0  0  0  0  0
   -4.8080   18.9110  -32.8180 N   0  0  0  0  0  0  0  0  0  0  0  0
   -6.8060   20.6310  -31.7050 C   0  0  0  0  0  0  0  0  0  0  0  0
   -6.7240   21.9900  -31.3790 C   0  0  0  0  0  0  0  0  0  0  0  0
   -4.1560   22.2371  -28.6919 H   0  0  0  0  0  0  0  0  0  0  0  0
   -2.6346   21.8150  -29.5485 H   0  0  0  0  0  0  0  0  0  0  0  0
   -3.2242   23.5117  -29.5485 H   0  0  0  0  0  0  0  0  0  0  0  0
   -3.4870   26.0450  -31.2250 H   0  0  0  0  0  0  0  0  0  0  0  0
   -8.0319   24.9980  -31.1546 H   0  0  0  0  0  0  0  0  0  0  0  0
   -9.9172   23.0218  -32.0000 H   0  0  0  0  0  0  0  0  0  0  0  0
  -10.1385   20.5790  -32.5683 H   0  0  0  0  0  0  0  0  0  0  0  0
   -9.0808   18.2465  -32.0447 H   0  0  0  0  0  0  0  0  0  0  0  0
   -8.2437   18.5999  -33.6038 H   0  0  0  0  0  0  0  0  0  0  0  0
   -6.6345   18.2577  -31.0549 H   0  0  0  0  0  0  0  0  0  0  0  0
   -7.2240   16.8152  -31.9633 H   0  0  0  0  0  0  0  0  0  0  0  0
   -6.4018   16.4539  -34.4815 H   0  0  0  0  0  0  0  0  0  0  0  0
   -1.8680   19.3440  -34.3650 H   0  0  0  0  0  0  0  0  0  0  0  0
   -2.6910   20.5680  -33.3300 H   0  0  0  0  0  0  0  0  0  0  0  0
   -4.7480   19.5630  -32.0040 H   0  0  0  0  0  0  0  0  0  0  0  0
   -5.9210   19.9810  -31.6394 H   0  0  0  0  0  0  0  0  0  0  0  0
  1  2  1  0
  2  3  2  0
  2  4  1  0
  4  5  1  0
  5  6  1  0
  6  7  1  0
  6  8  2  0
  5  9  2  0
  9 10  1  0
 10 11  2  0
 11 12  1  0
 12 13  2  0
 13 14  1  0
 14 15  1  0
 15 16  1  0
 16 17  2  0
 17 18  1  0
 18 19  1  0
 19 20  1  0
 19 21  2  0
 13 22  1  0
 22 23  2  0
 23  4  1  0
 23 10  1  0
 21 16  1  0
  1 24  1  0
  1 25  1  0
  1 26  1  0
  7 27  1  0
  9 28  1  0
 11 29  1  0
 12 30  1  0
 14 31  1  0
 14 32  1  0
 15 33  1  0
 15 34  1  0
 17 35  1  0
 20 36  1  0
 20 37  1  0
 21 38  1  0
 22 39  1  0
M  CHG  2   7  -1  21   1
M  END
>  <UniqueID>  (55) 
54

>  <SMILES>  (55) 
CC(=O)n1c(C([NH-])=O)cc2ccc(CCc3csc(N)[nH+]3)cc21

>  <Energy>  (55) 
103.87318344704656

>  <Genealogy>  (55) 
CC(=O)n1c(C([NH-])=O)cc2ccc(CCc3csc(N)[nH+]3)cc21 (protonated)
CC(=O)n1c(C([NH-])=O)cc2ccc(CCc3csc(N)[nH+]3)cc21 (3D coordinates assigned)
CC(=O)n1c(C([NH-])=O)cc2ccc(CCc3csc(N)[nH+]3)cc21 (optimized conformer: 103.87318344704656 kcal/mol)

>  <smiles>  (55) 
CC(=O)n1c(C(N)=O)cc2ccc(CCc3csc(N)n3)cc21

>  <score_type>  (55) 
oracle

>  <origin>  (55) 
adg

>  <m_score__min__energy>  (55) 
-10.35

>  <m_primary>  (55) 
energy

$$$$
55:0
     RDKit          3D

 34 35  0  0  0  0  0  0  0  0999 V2000
   -2.7580   20.0010  -33.7040 C   0  0  0  0  0  0  0  0  0  0  0  0
   -2.4320   20.9720  -32.5740 C   0  0  0  0  0  0  0  0  0  0  0  0
   -3.3150   22.0910  -32.6030 O   0  0  0  0  0  0  0  0  0  0  0  0
   -3.8010   22.7210  -31.4500 C   0  0  0  0  0  0  0  0  0  0  0  0
   -3.0020   23.1320  -30.5640 O   0  0  0  0  0  0  0  0  0  0  0  0
   -5.2130   22.9270  -31.2930 N   0  0  0  0  0  0  0  0  0  0  0  0
   -5.8560   24.0730  -30.9290 C   0  0  0  0  0  0  0  0  0  0  0  0
   -5.2130   25.3190  -30.4590 C   0  0  0  0  0  0  0  0  0  0  0  0
   -3.8810   25.6480  -30.8450 N   0  0  0  0  0  0  0  0  0  0  0  0
   -5.8320   26.0790  -29.6670 O   0  0  0  0  0  0  0  0  0  0  0  0
   -7.2370   23.8950  -30.9790 C   0  0  0  0  0  0  0  0  0  0  0  0
   -7.4230   22.5900  -31.3770 C   0  0  0  0  0  0  0  0  0  0  0  0
   -8.6000   21.8830  -31.6060 C   0  0  0  0  0  0  0  0  0  0  0  0
   -8.4930   20.5530  -32.0450 C   0  0  0  0  0  0  0  0  0  0  0  0
   -7.2220   19.9580  -32.2450 C   0  0  0  0  0  0  0  0  0  0  0  0
   -7.1220   18.5490  -32.7610 C   0  0  0  0  0  0  0  0  0  0  0  0
   -5.9290   18.4120  -33.6520 C   0  0  0  0  0  0  0  0  0  0  0  0
   -5.9650   18.9390  -34.9760 N   0  0  0  0  0  0  0  0  0  0  0  0
   -4.9070   17.7970  -33.2480 O   0  0  0  0  0  0  0  0  0  0  0  0
   -6.0490   20.7110  -32.0140 C   0  0  0  0  0  0  0  0  0  0  0  0
   -6.1850   22.0270  -31.5590 C   0  0  0  0  0  0  0  0  0  0  0  0
   -3.0809   19.0391  -33.2792 H   0  0  0  0  0  0  0  0  0  0  0  0
   -3.5655   20.4176  -34.3239 H   0  0  0  0  0  0  0  0  0  0  0  0
   -1.8627   19.8459  -34.3239 H   0  0  0  0  0  0  0  0  0  0  0  0
   -2.5376   20.4531  -31.6098 H   0  0  0  0  0  0  0  0  0  0  0  0
   -1.4002   21.3313  -32.7020 H   0  0  0  0  0  0  0  0  0  0  0  0
   -3.0620   25.2930  -30.3040 H   0  0  0  0  0  0  0  0  0  0  0  0
   -8.0139   24.6391  -30.7493 H   0  0  0  0  0  0  0  0  0  0  0  0
   -9.5829   22.3511  -31.4482 H   0  0  0  0  0  0  0  0  0  0  0  0
   -9.4045   19.9674  -32.2355 H   0  0  0  0  0  0  0  0  0  0  0  0
   -7.0235   17.8566  -31.9119 H   0  0  0  0  0  0  0  0  0  0  0  0
   -8.0295   18.3103  -33.3349 H   0  0  0  0  0  0  0  0  0  0  0  0
   -6.8460   19.3390  -35.3700 H   0  0  0  0  0  0  0  0  0  0  0  0
   -5.0546   20.2739  -32.1874 H   0  0  0  0  0  0  0  0  0  0  0  0
  1  2  1  0
  2  3  1  0
  3  4  1  0
  4  5  2  0
  4  6  1  0
  6  7  1  0
  7  8  1  0
  8  9  1  0
  8 10  2  0
  7 11  2  0
 11 12  1  0
 12 13  2  0
 13 14  1  0
 14 15  2  0
 15 16  1  0
 16 17  1  0
 17 18  1  0
 17 19  2  0
 15 20  1  0
 20 21  2  0
 21  6  1  0
 21 12  1  0
  1 22  1  0
  1 23  1  0
  1 24  1  0
  2 25  1  0
  2 26  1  0
  9 27  1  0
 11 28  1  0
 13 29  1  0
 14 30  1  0
 16 31  1  0
 16 32  1  0
 18 33  1  0
 20 34  1  0
M  CHG  2   9  -1  18  -1
M  END
>  <UniqueID>  (56) 
55

>  <SMILES>  (56) 
CCOC(=O)n1c(C([NH-])=O)cc2ccc(CC([NH-])=O)cc21

>  <Energy>  (56) 
66.90438482688975

>  <Genealogy>  (56) 
CCOC(=O)n1c(C([NH-])=O)cc2ccc(CC([NH-])=O)cc21 (protonated)
CCOC(=O)n1c(C([NH-])=O)cc2ccc(CC([NH-])=O)cc21 (3D coordinates assigned)
CCOC(=O)n1c(C([NH-])=O)cc2ccc(CC([NH-])=O)cc21 (optimized conformer: 66.90438482688975 kcal/mol)

>  <smiles>  (56) 
CCOC(=O)n1c(C(N)=O)cc2ccc(CC(N)=O)cc21

>  <score_type>  (56) 
oracle

>  <origin>  (56) 
adg

>  <m_score__min__energy>  (56) 
-9.6799999999999997

>  <m_primary>  (56) 
energy

$$$$
56:0
     RDKit          3D

 53 56  0  0  0  0  0  0  0  0999 V2000
   -2.6610   20.8810  -33.4980 C   0  0  0  0  0  0  0  0  0  0  0  0
   -1.6060   19.7680  -33.5790 C   0  0  0  0  0  0  0  0  0  0  0  0
   -0.2530   20.3920  -33.9740 C   0  0  0  0  0  0  0  0  0  0  0  0
   -1.5060   19.0780  -32.2060 C   0  0  0  0  0  0  0  0  0  0  0  0
   -2.0460   18.8390  -34.5810 O   0  0  0  0  0  0  0  0  0  0  0  0
   -1.9740   17.4390  -34.5090 C   0  0  0  0  0  0  0  0  0  0  0  0
   -0.8600   16.8510  -34.5480 O   0  0  0  0  0  0  0  0  0  0  0  0
   -3.1930   16.6860  -34.4020 N   0  0  0  0  0  0  0  0  0  0  0  0
   -3.2880   15.2730  -34.7700 C   0  0  0  0  0  0  0  0  0  0  0  0
   -4.7330   14.8360  -34.4410 C   0  0  0  0  0  0  0  0  0  0  0  0
   -5.3570   16.0800  -33.9150 C   0  0  0  0  0  0  0  0  0  0  0  0
   -6.6700   16.2490  -33.4790 C   0  0  0  0  0  0  0  0  0  0  0  0
   -7.0710   17.5140  -33.0250 C   0  0  0  0  0  0  0  0  0  0  0  0
   -8.3380   17.6730  -32.5640 F   0  0  0  0  0  0  0  0  0  0  0  0
   -6.1570   18.5980  -33.0210 C   0  0  0  0  0  0  0  0  0  0  0  0
   -6.5740   19.9420  -32.5560 C   0  0  0  0  0  0  0  0  0  0  0  0
   -7.9210   20.3640  -32.7090 C   0  0  0  0  0  0  0  0  0  0  0  0
   -8.3330   21.6270  -32.2550 C   0  0  0  0  0  0  0  0  0  0  0  0
   -7.3830   22.4500  -31.6580 C   0  0  0  0  0  0  0  0  0  0  0  0
   -7.5190   23.7020  -31.1080 C   0  0  0  0  0  0  0  0  0  0  0  0
   -6.2500   24.0400  -30.6400 C   0  0  0  0  0  0  0  0  0  0  0  0
   -5.9270   25.3510  -30.0370 C   0  0  0  0  0  0  0  0  0  0  0  0
   -4.7970   26.0850  -30.5020 N   0  0  0  0  0  0  0  0  0  0  0  0
   -6.6180   25.8160  -29.0930 O   0  0  0  0  0  0  0  0  0  0  0  0
   -5.3660   23.0320  -30.8880 N   0  0  0  0  0  0  0  0  0  0  0  0
   -3.9800   22.9650  -30.5130 C   0  0  0  0  0  0  0  0  0  0  0  0
   -3.1200   24.0800  -30.7390 N   0  0  0  0  0  0  0  0  0  0  0  0
   -3.5120   21.9150  -29.9960 O   0  0  0  0  0  0  0  0  0  0  0  0
   -6.0750   22.0660  -31.5120 C   0  0  0  0  0  0  0  0  0  0  0  0
   -5.6400   20.8060  -31.9370 C   0  0  0  0  0  0  0  0  0  0  0  0
   -4.8330   18.3890  -33.4670 C   0  0  0  0  0  0  0  0  0  0  0  0
   -4.4580   17.1110  -33.9050 C   0  0  0  0  0  0  0  0  0  0  0  0
   -2.8753   21.1070  -32.4430 H   0  0  0  0  0  0  0  0  0  0  0  0
   -2.2799   21.7845  -33.9965 H   0  0  0  0  0  0  0  0  0  0  0  0
   -3.5836   20.5487  -33.9965 H   0  0  0  0  0  0  0  0  0  0  0  0
    0.3102   20.6517  -33.0655 H   0  0  0  0  0  0  0  0  0  0  0  0
    0.3243   19.6692  -34.5692 H   0  0  0  0  0  0  0  0  0  0  0  0
   -0.4280   21.3004  -34.5692 H   0  0  0  0  0  0  0  0  0  0  0  0
   -1.6148   19.8288  -31.4095 H   0  0  0  0  0  0  0  0  0  0  0  0
   -2.3047   18.3273  -32.1139 H   0  0  0  0  0  0  0  0  0  0  0  0
   -0.5270   18.5849  -32.1139 H   0  0  0  0  0  0  0  0  0  0  0  0
   -3.0863   15.1445  -35.8437 H   0  0  0  0  0  0  0  0  0  0  0  0
   -2.5520   14.6665  -34.2218 H   0  0  0  0  0  0  0  0  0  0  0  0
   -5.2538   14.4857  -35.3444 H   0  0  0  0  0  0  0  0  0  0  0  0
   -4.7773   13.9986  -33.7291 H   0  0  0  0  0  0  0  0  0  0  0  0
   -7.3777   15.4070  -33.4907 H   0  0  0  0  0  0  0  0  0  0  0  0
   -8.6498   19.6940  -33.1885 H   0  0  0  0  0  0  0  0  0  0  0  0
   -9.3764   21.9564  -32.3679 H   0  0  0  0  0  0  0  0  0  0  0  0
   -8.4347   24.3087  -31.0494 H   0  0  0  0  0  0  0  0  0  0  0  0
   -3.8670   25.9890  -30.0380 H   0  0  0  0  0  0  0  0  0  0  0  0
   -3.4780   24.9510  -31.1890 H   0  0  0  0  0  0  0  0  0  0  0  0
   -4.5950   20.4940  -31.7931 H   0  0  0  0  0  0  0  0  0  0  0  0
   -4.1076   19.2159  -33.4706 H   0  0  0  0  0  0  0  0  0  0  0  0
  1  2  1  0
  2  3  1  0
  2  4  1  0
  2  5  1  0
  5  6  1  0
  6  7  2  0
  6  8  1  0
  8  9  1  0
  9 10  1  0
 10 11  1  0
 11 12  2  0
 12 13  1  0
 13 14  1  0
 13 15  2  0
 15 16  1  0
 16 17  2  0
 17 18  1  0
 18 19  2  0
 19 20  1  0
 20 21  2  0
 21 22  1  0
 22 23  1  0
 22 24  2  0
 21 25  1  0
 25 26  1  0
 26 27  1  0
 26 28  2  0
 25 29  1  0
 29 30  2  0
 15 31  1  0
 31 32  2  0
 32  8  1  0
 32 11  1  0
 30 16  1  0
 29 19  1  0
  1 33  1  0
  1 34  1  0
  1 35  1  0
  3 36  1  0
  3 37  1  0
  3 38  1  0
  4 39  1  0
  4 40  1  0
  4 41  1  0
  9 42  1  0
  9 43  1  0
 10 44  1  0
 10 45  1  0
 12 46  1  0
 17 47  1  0
 18 48  1  0
 20 49  1  0
 23 50  1  0
 27 51  1  0
 30 52  1  0
 31 53  1  0
M  CHG  2  23  -1  27  -1
M  END
>  <UniqueID>  (57) 
56

>  <SMILES>  (57) 
CC(C)(C)OC(=O)N1CCc2cc(F)c(-c3ccc4cc(C([NH-])=O)n(C([NH-])=O)c4c3)cc21

>  <Energy>  (57) 
112.65057525198998

>  <Genealogy>  (57) 
CC(C)(C)OC(=O)N1CCc2cc(F)c(-c3ccc4cc(C([NH-])=O)n(C([NH-])=O)c4c3)cc21 (protonated)
CC(C)(C)OC(=O)N1CCc2cc(F)c(-c3ccc4cc(C([NH-])=O)n(C([NH-])=O)c4c3)cc21 (3D coordinates assigned)
CC(C)(C)OC(=O)N1CCc2cc(F)c(-c3ccc4cc(C([NH-])=O)n(C([NH-])=O)c4c3)cc21 (nonaromatic ring conformer: 112.65057525198998 kcal/mol)

>  <smiles>  (57) 
CC(C)(C)OC(=O)N1CCc2cc(F)c(-c3ccc4cc(C(N)=O)n(C(N)=O)c4c3)cc21

>  <score_type>  (57) 
oracle

>  <origin>  (57) 
adg

>  <m_score__min__energy>  (57) 
-12.75

>  <m_primary>  (57) 
energy

$$$$
57:0
     RDKit          3D

 35 37  0  0  0  0  0  0  0  0999 V2000
   -5.5790   24.3970  -29.4070 C   0  0  0  0  0  0  0  0  0  0  0  0
   -4.3240   24.5560  -30.2050 C   0  0  0  0  0  0  0  0  0  0  0  0
   -4.1000   25.6480  -30.7910 O   0  0  0  0  0  0  0  0  0  0  0  0
   -3.4170   23.4550  -30.3760 N   0  0  0  0  0  0  0  0  0  0  0  0
   -2.1330   23.3450  -29.9330 C   0  0  0  0  0  0  0  0  0  0  0  0
   -1.3390   24.4180  -29.3010 C   0  0  0  0  0  0  0  0  0  0  0  0
   -1.9320   25.6710  -28.9720 N   0  0  0  0  0  0  0  0  0  0  0  0
   -0.1100   24.2410  -29.0850 O   0  0  0  0  0  0  0  0  0  0  0  0
   -1.6240   22.0810  -30.2270 C   0  0  0  0  0  0  0  0  0  0  0  0
   -2.6420   21.4210  -30.8810 C   0  0  0  0  0  0  0  0  0  0  0  0
   -2.6960   20.1240  -31.3740 C   0  0  0  0  0  0  0  0  0  0  0  0
   -3.8930   19.6960  -31.9730 C   0  0  0  0  0  0  0  0  0  0  0  0
   -5.0040   20.5740  -32.0970 C   0  0  0  0  0  0  0  0  0  0  0  0
   -6.3200   20.0730  -32.6730 C   0  0  0  0  0  0  0  0  0  0  0  0
   -6.1110   19.4180  -33.9790 C   0  0  0  0  0  0  0  0  0  0  0  0
   -5.9460   18.9050  -35.0030 N   0  0  0  0  0  0  0  0  0  0  0  0
   -7.1700   19.2150  -31.7200 C   0  0  0  0  0  0  0  0  0  0  0  0
   -8.3040   20.2260  -31.8120 C   0  0  0  0  0  0  0  0  0  0  0  0
   -7.4550   21.1090  -32.7150 C   0  0  0  0  0  0  0  0  0  0  0  0
   -4.9170   21.8730  -31.5380 C   0  0  0  0  0  0  0  0  0  0  0  0
   -3.7100   22.2750  -30.9600 C   0  0  0  0  0  0  0  0  0  0  0  0
   -5.3377   24.4276  -28.3342 H   0  0  0  0  0  0  0  0  0  0  0  0
   -6.2740   25.2143  -29.6499 H   0  0  0  0  0  0  0  0  0  0  0  0
   -6.0482   23.4322  -29.6499 H   0  0  0  0  0  0  0  0  0  0  0  0
   -2.9700   25.7910  -28.9680 H   0  0  0  0  0  0  0  0  0  0  0  0
   -0.6229   21.6929  -29.9879 H   0  0  0  0  0  0  0  0  0  0  0  0
   -1.8284   19.4521  -31.2980 H   0  0  0  0  0  0  0  0  0  0  0  0
   -3.9714   18.6662  -32.3516 H   0  0  0  0  0  0  0  0  0  0  0  0
   -7.4226   18.2207  -32.1169 H   0  0  0  0  0  0  0  0  0  0  0  0
   -6.7721   18.9153  -30.7393 H   0  0  0  0  0  0  0  0  0  0  0  0
   -9.2133   19.8365  -32.2931 H   0  0  0  0  0  0  0  0  0  0  0  0
   -8.7532   20.6392  -30.8969 H   0  0  0  0  0  0  0  0  0  0  0  0
   -7.8811   21.2664  -33.7168 H   0  0  0  0  0  0  0  0  0  0  0  0
   -7.2599   22.1565  -32.4416 H   0  0  0  0  0  0  0  0  0  0  0  0
   -5.7825   22.5516  -31.5586 H   0  0  0  0  0  0  0  0  0  0  0  0
  1  2  1  0
  2  3  2  0
  2  4  1  0
  4  5  1  0
  5  6  1  0
  6  7  1  0
  6  8  2  0
  5  9  2  0
  9 10  1  0
 10 11  2  0
 11 12  1  0
 12 13  2  0
 13 14  1  0
 14 15  1  0
 15 16  3  0
 14 17  1  0
 17 18  1  0
 18 19  1  0
 13 20  1  0
 20 21  2  0
 21  4  1  0
 21 10  1  0
 19 14  1  0
  1 22  1  0
  1 23  1  0
  1 24  1  0
  7 25  1  0
  9 26  1  0
 11 27  1  0
 12 28  1  0
 17 29  1  0
 17 30  1  0
 18 31  1  0
 18 32  1  0
 19 33  1  0
 19 34  1  0
 20 35  1  0
M  CHG  1   7  -1
M  END
>  <UniqueID>  (58) 
57

>  <SMILES>  (58) 
CC(=O)n1c(C([NH-])=O)cc2ccc(C3(C#N)CCC3)cc21

>  <Energy>  (58) 
138.28623795052854

>  <Genealogy>  (58) 
CC(=O)n1c(C([NH-])=O)cc2ccc(C3(C#N)CCC3)cc21 (protonated)
CC(=O)n1c(C([NH-])=O)cc2ccc(C3(C#N)CCC3)cc21 (3D coordinates assigned)
CC(=O)n1c(C([NH-])=O)cc2ccc(C3(C#N)CCC3)cc21 (nonaromatic ring conformer: 138.28623795052854 kcal/mol)

>  <smiles>  (58) 
CC(=O)n1c(C(N)=O)cc2ccc(C3(C#N)CCC3)cc21

>  <score_type>  (58) 
oracle

>  <origin>  (58) 
adg

>  <m_score__min__energy>  (58) 
-10.869999999999999

>  <m_primary>  (58) 
energy

$$$$
58:0
     RDKit          3D

 40 42  0  0  0  0  0  0  0  0999 V2000
   -8.7540   21.1310  -31.2840 C   0  0  0  0  0  0  0  0  0  0  0  0
   -8.7640   20.4310  -32.6400 C   0  0  0  0  0  0  0  0  0  0  0  0
   -8.1950   19.0130  -32.5350 C   0  0  0  0  0  0  0  0  0  0  0  0
   -6.7750   18.9790  -33.0330 C   0  0  0  0  0  0  0  0  0  0  0  0
   -5.7670   19.6570  -32.3310 C   0  0  0  0  0  0  0  0  0  0  0  0
   -4.4480   19.6480  -32.8160 C   0  0  0  0  0  0  0  0  0  0  0  0
   -3.3690   20.3570  -32.0850 C   0  0  0  0  0  0  0  0  0  0  0  0
   -2.0710   19.7890  -31.9950 C   0  0  0  0  0  0  0  0  0  0  0  0
   -1.0450   20.4450  -31.2960 C   0  0  0  0  0  0  0  0  0  0  0  0
   -1.3390   21.6690  -30.7030 C   0  0  0  0  0  0  0  0  0  0  0  0
   -0.5420   22.5000  -29.9490 C   0  0  0  0  0  0  0  0  0  0  0  0
   -1.3530   23.5790  -29.6070 C   0  0  0  0  0  0  0  0  0  0  0  0
   -0.8630   24.7590  -28.8650 C   0  0  0  0  0  0  0  0  0  0  0  0
   -1.5590   26.0010  -28.9220 N   0  0  0  0  0  0  0  0  0  0  0  0
    0.2110   24.6840  -28.2120 O   0  0  0  0  0  0  0  0  0  0  0  0
   -2.6060   23.4180  -30.1210 N   0  0  0  0  0  0  0  0  0  0  0  0
   -3.7540   24.2580  -29.9150 C   0  0  0  0  0  0  0  0  0  0  0  0
   -4.6430   23.9280  -29.0860 O   0  0  0  0  0  0  0  0  0  0  0  0
   -3.8800   25.4540  -30.6090 O   0  0  0  0  0  0  0  0  0  0  0  0
   -2.5790   22.2430  -30.7910 C   0  0  0  0  0  0  0  0  0  0  0  0
   -3.6260   21.6040  -31.4670 C   0  0  0  0  0  0  0  0  0  0  0  0
   -4.1730   18.9590  -34.0090 C   0  0  0  0  0  0  0  0  0  0  0  0
   -5.2050   18.3080  -34.6860 C   0  0  0  0  0  0  0  0  0  0  0  0
   -6.4730   18.3340  -34.1960 N   0  0  0  0  0  0  0  0  0  0  0  0
   -8.7648   20.3778  -30.4824 H   0  0  0  0  0  0  0  0  0  0  0  0
   -7.8470   21.7471  -31.1961 H   0  0  0  0  0  0  0  0  0  0  0  0
   -9.6431   21.7727  -31.1961 H   0  0  0  0  0  0  0  0  0  0  0  0
   -9.7992   20.3760  -33.0078 H   0  0  0  0  0  0  0  0  0  0  0  0
   -8.1359   21.0080  -33.3347 H   0  0  0  0  0  0  0  0  0  0  0  0
   -8.2182   18.6901  -31.4837 H   0  0  0  0  0  0  0  0  0  0  0  0
   -8.8056   18.3371  -33.1517 H   0  0  0  0  0  0  0  0  0  0  0  0
   -6.0088   20.1948  -31.4024 H   0  0  0  0  0  0  0  0  0  0  0  0
   -1.8664   18.8226  -32.4791 H   0  0  0  0  0  0  0  0  0  0  0  0
   -0.0398   20.0049  -31.2195 H   0  0  0  0  0  0  0  0  0  0  0  0
    0.5119   22.3447  -29.6748 H   0  0  0  0  0  0  0  0  0  0  0  0
   -2.6030   26.0310  -28.9540 H   0  0  0  0  0  0  0  0  0  0  0  0
   -4.6254   22.0610  -31.5165 H   0  0  0  0  0  0  0  0  0  0  0  0
   -3.1482   18.9328  -34.4079 H   0  0  0  0  0  0  0  0  0  0  0  0
   -4.9914   17.7706  -35.6217 H   0  0  0  0  0  0  0  0  0  0  0  0
   -7.2260   17.8450  -34.7320 H   0  0  0  0  0  0  0  0  0  0  0  0
  1  2  1  0
  2  3  1  0
  3  4  1  0
  4  5  2  0
  5  6  1  0
  6  7  1  0
  7  8  2  0
  8  9  1  0
  9 10  2  0
 10 11  1  0
 11 12  2  0
 12 13  1  0
 13 14  1  0
 13 15  2  0
 12 16  1  0
 16 17  1  0
 17 18  2  0
 17 19  1  0
 16 20  1  0
 20 21  2  0
  6 22  2  0
 22 23  1  0
 23 24  2  0
 24  4  1  0
 21  7  1  0
 20 10  1  0
  1 25  1  0
  1 26  1  0
  1 27  1  0
  2 28  1  0
  2 29  1  0
  3 30  1  0
  3 31  1  0
  5 32  1  0
  8 33  1  0
  9 34  1  0
 11 35  1  0
 14 36  1  0
 21 37  1  0
 22 38  1  0
 23 39  1  0
 24 40  1  0
M  CHG  3  14  -1  19  -1  24   1
M  END
>  <UniqueID>  (59) 
58

>  <SMILES>  (59) 
CCCc1cc(-c2ccc3cc(C([NH-])=O)n(C(=O)[O-])c3c2)cc[nH+]1

>  <Energy>  (59) 
81.82451546835485

>  <Genealogy>  (59) 
CCCc1cc(-c2ccc3cc(C([NH-])=O)n(C(=O)[O-])c3c2)cc[nH+]1 (protonated)
CCCc1cc(-c2ccc3cc(C([NH-])=O)n(C(=O)[O-])c3c2)cc[nH+]1 (3D coordinates assigned)
CCCc1cc(-c2ccc3cc(C([NH-])=O)n(C(=O)[O-])c3c2)cc[nH+]1 (optimized conformer: 81.82451546835485 kcal/mol)

>  <smiles>  (59) 
CCCc1cc(-c2ccc3cc(C(N)=O)n(C(=O)O)c3c2)ccn1

>  <score_type>  (59) 
oracle

>  <origin>  (59) 
adg

>  <m_score__min__energy>  (59) 
-12.06

>  <m_primary>  (59) 
energy

$$$$
59:0
     RDKit          3D

 36 38  0  0  0  0  0  0  0  0999 V2000
   -2.0940   20.6970  -31.7720 C   0  0  0  0  0  0  0  0  0  0  0  0
   -2.8810   21.8410  -32.0780 O   0  0  0  0  0  0  0  0  0  0  0  0
   -3.6260   22.5240  -31.1130 C   0  0  0  0  0  0  0  0  0  0  0  0
   -3.0450   23.0950  -30.1500 O   0  0  0  0  0  0  0  0  0  0  0  0
   -5.0590   22.5760  -31.2180 N   0  0  0  0  0  0  0  0  0  0  0  0
   -5.8690   23.6510  -31.0010 C   0  0  0  0  0  0  0  0  0  0  0  0
   -5.4460   24.9560  -30.4550 C   0  0  0  0  0  0  0  0  0  0  0  0
   -4.1530   25.4920  -30.7370 N   0  0  0  0  0  0  0  0  0  0  0  0
   -6.2190   25.5810  -29.6810 O   0  0  0  0  0  0  0  0  0  0  0  0
   -7.1880   23.3440  -31.3200 C   0  0  0  0  0  0  0  0  0  0  0  0
   -7.1670   22.0310  -31.7310 C   0  0  0  0  0  0  0  0  0  0  0  0
   -8.2030   21.2200  -32.1780 C   0  0  0  0  0  0  0  0  0  0  0  0
   -7.8900   19.9110  -32.5780 C   0  0  0  0  0  0  0  0  0  0  0  0
   -6.5520   19.4370  -32.5370 C   0  0  0  0  0  0  0  0  0  0  0  0
   -6.2290   18.0540  -32.9770 C   0  0  0  0  0  0  0  0  0  0  0  0
   -6.5040   17.4660  -34.2040 C   0  0  0  0  0  0  0  0  0  0  0  0
   -6.0610   16.1950  -34.2020 N   0  0  0  0  0  0  0  0  0  0  0  0
   -5.5080   15.9660  -33.0230 N   0  0  0  0  0  0  0  0  0  0  0  0
   -4.9740   14.6740  -32.6130 C   0  0  0  0  0  0  0  0  0  0  0  0
   -5.5990   17.0610  -32.2470 C   0  0  0  0  0  0  0  0  0  0  0  0
   -5.5270   20.2980  -32.0770 C   0  0  0  0  0  0  0  0  0  0  0  0
   -5.8720   21.5900  -31.6620 C   0  0  0  0  0  0  0  0  0  0  0  0
   -2.0176   20.5859  -30.6803 H   0  0  0  0  0  0  0  0  0  0  0  0
   -2.5678   19.8010  -32.1995 H   0  0  0  0  0  0  0  0  0  0  0  0
   -1.0878   20.8191  -32.1995 H   0  0  0  0  0  0  0  0  0  0  0  0
   -3.8860   26.4350  -30.3750 H   0  0  0  0  0  0  0  0  0  0  0  0
   -3.4290   24.9240  -31.2290 H   0  0  0  0  0  0  0  0  0  0  0  0
   -8.0617   24.0093  -31.2570 H   0  0  0  0  0  0  0  0  0  0  0  0
   -9.2373   21.5923  -32.2173 H   0  0  0  0  0  0  0  0  0  0  0  0
   -8.6917   19.2439  -32.9277 H   0  0  0  0  0  0  0  0  0  0  0  0
   -7.0063   17.9621  -35.0476 H   0  0  0  0  0  0  0  0  0  0  0  0
   -4.9511   14.6186  -31.5146 H   0  0  0  0  0  0  0  0  0  0  0  0
   -5.6139   13.8709  -33.0074 H   0  0  0  0  0  0  0  0  0  0  0  0
   -3.9538   14.5570  -33.0074 H   0  0  0  0  0  0  0  0  0  0  0  0
   -5.2360   17.1515  -31.2126 H   0  0  0  0  0  0  0  0  0  0  0  0
   -4.4810   19.9591  -32.0462 H   0  0  0  0  0  0  0  0  0  0  0  0
  1  2  1  0
  2  3  1  0
  3  4  2  0
  3  5  1  0
  5  6  1  0
  6  7  1  0
  7  8  1  0
  7  9  2  0
  6 10  2  0
 10 11  1  0
 11 12  2  0
 12 13  1  0
 13 14  2  0
 14 15  1  0
 15 16  1  0
 16 17  2  0
 17 18  1  0
 18 19  1  0
 18 20  1  0
 14 21  1  0
 21 22  2  0
 22  5  1  0
 22 11  1  0
 20 15  2  0
  1 23  1  0
  1 24  1  0
  1 25  1  0
  8 26  1  0
  8 27  1  0
 10 28  1  0
 12 29  1  0
 13 30  1  0
 16 31  1  0
 19 32  1  0
 19 33  1  0
 19 34  1  0
 20 35  1  0
 21 36  1  0
M  END
>  <UniqueID>  (60) 
59

>  <SMILES>  (60) 
COC(=O)n1c(C(N)=O)cc2ccc(-c3cnn(C)c3)cc21

>  <Energy>  (60) 
106.66573593698105

>  <Genealogy>  (60) 
COC(=O)n1c(C(N)=O)cc2ccc(-c3cnn(C)c3)cc21 (3D coordinates assigned)
COC(=O)n1c(C(N)=O)cc2ccc(-c3cnn(C)c3)cc21 (optimized conformer: 106.66573593698105 kcal/mol)

>  <smiles>  (60) 
COC(=O)n1c(C(N)=O)cc2ccc(-c3cnn(C)c3)cc21

>  <score_type>  (60) 
oracle

>  <origin>  (60) 
adg

>  <m_score__min__energy>  (60) 
-8.8300000000000001

>  <m_primary>  (60) 
energy

$$$$
60:0
     RDKit          3D

 37 38  0  0  0  0  0  0  0  0999 V2000
   -6.4660   16.2380  -34.1990 C   0  0  0  0  0  0  0  0  0  0  0  0
   -5.8020   17.4000  -33.5850 N   0  0  0  0  0  0  0  0  0  0  0  0
   -5.7290   18.4970  -34.5650 C   0  0  0  0  0  0  0  0  0  0  0  0
   -6.5290   17.8200  -32.3660 C   0  0  0  0  0  0  0  0  0  0  0  0
   -7.7670   18.6580  -32.7140 C   0  0  0  0  0  0  0  0  0  0  0  0
   -7.6800   20.0390  -32.1190 C   0  0  0  0  0  0  0  0  0  0  0  0
   -8.8230   20.6320  -31.5250 C   0  0  0  0  0  0  0  0  0  0  0  0
   -8.7590   21.9290  -30.9890 C   0  0  0  0  0  0  0  0  0  0  0  0
   -7.5500   22.6130  -31.0780 C   0  0  0  0  0  0  0  0  0  0  0  0
   -7.2040   23.8640  -30.6230 C   0  0  0  0  0  0  0  0  0  0  0  0
   -5.8660   24.0310  -30.9770 C   0  0  0  0  0  0  0  0  0  0  0  0
   -5.1060   25.2750  -30.7330 C   0  0  0  0  0  0  0  0  0  0  0  0
   -3.7030   25.2430  -30.4840 N   0  0  0  0  0  0  0  0  0  0  0  0
   -5.6980   26.3860  -30.7790 O   0  0  0  0  0  0  0  0  0  0  0  0
   -5.4040   22.9240  -31.6230 N   0  0  0  0  0  0  0  0  0  0  0  0
   -4.0700   22.6680  -32.0880 C   0  0  0  0  0  0  0  0  0  0  0  0
   -3.8360   22.3040  -33.4480 N   0  0  0  0  0  0  0  0  0  0  0  0
   -3.0980   22.7580  -31.2920 O   0  0  0  0  0  0  0  0  0  0  0  0
   -6.4440   22.0640  -31.6750 C   0  0  0  0  0  0  0  0  0  0  0  0
   -6.4720   20.7660  -32.1960 C   0  0  0  0  0  0  0  0  0  0  0  0
   -6.8459   15.5732  -33.4093 H   0  0  0  0  0  0  0  0  0  0  0  0
   -7.3039   16.5820  -34.8232 H   0  0  0  0  0  0  0  0  0  0  0  0
   -5.7443   15.6908  -34.8232 H   0  0  0  0  0  0  0  0  0  0  0  0
   -5.6650   19.4587  -34.0348 H   0  0  0  0  0  0  0  0  0  0  0  0
   -4.8376   18.3662  -35.1961 H   0  0  0  0  0  0  0  0  0  0  0  0
   -6.6299   18.4855  -35.1961 H   0  0  0  0  0  0  0  0  0  0  0  0
   -6.8470   16.9243  -31.8123 H   0  0  0  0  0  0  0  0  0  0  0  0
   -5.8536   18.4368  -31.7549 H   0  0  0  0  0  0  0  0  0  0  0  0
   -7.8454   18.7437  -33.8079 H   0  0  0  0  0  0  0  0  0  0  0  0
   -8.6531   18.1565  -32.2976 H   0  0  0  0  0  0  0  0  0  0  0  0
   -9.7684   20.0713  -31.4835 H   0  0  0  0  0  0  0  0  0  0  0  0
   -9.6374   22.3899  -30.5136 H   0  0  0  0  0  0  0  0  0  0  0  0
   -7.8471   24.5812  -30.0920 H   0  0  0  0  0  0  0  0  0  0  0  0
   -3.0360   24.9110  -31.2140 H   0  0  0  0  0  0  0  0  0  0  0  0
   -2.8690   22.0900  -33.7780 H   0  0  0  0  0  0  0  0  0  0  0  0
   -4.6210   22.2870  -34.1360 H   0  0  0  0  0  0  0  0  0  0  0  0
   -5.5755   20.3229  -32.6541 H   0  0  0  0  0  0  0  0  0  0  0  0
  1  2  1  0
  2  3  1  0
  2  4  1  0
  4  5  1  0
  5  6  1  0
  6  7  2  0
  7  8  1  0
  8  9  2  0
  9 10  1  0
 10 11  2  0
 11 12  1  0
 12 13  1  0
 12 14  2  0
 11 15  1  0
 15 16  1  0
 16 17  1  0
 16 18  2  0
 15 19  1  0
 19 20  2  0
 20  6  1  0
 19  9  1  0
  1 21  1  0
  1 22  1  0
  1 23  1  0
  3 24  1  0
  3 25  1  0
  3 26  1  0
  4 27  1  0
  4 28  1  0
  5 29  1  0
  5 30  1  0
  7 31  1  0
  8 32  1  0
 10 33  1  0
 13 34  1  0
 17 35  1  0
 17 36  1  0
 20 37  1  0
M  CHG  1  13  -1
M  END
>  <UniqueID>  (61) 
60

>  <SMILES>  (61) 
CN(C)CCc1ccc2cc(C([NH-])=O)n(C(N)=O)c2c1

>  <Energy>  (61) 
73.2723448952812

>  <Genealogy>  (61) 
CN(C)CCc1ccc2cc(C([NH-])=O)n(C(N)=O)c2c1 (protonated)
CN(C)CCc1ccc2cc(C([NH-])=O)n(C(N)=O)c2c1 (3D coordinates assigned)
CN(C)CCc1ccc2cc(C([NH-])=O)n(C(N)=O)c2c1 (optimized conformer: 73.2723448952812 kcal/mol)

>  <smiles>  (61) 
CN(C)CCc1ccc2cc(C(N)=O)n(C(N)=O)c2c1

>  <score_type>  (61) 
oracle

>  <origin>  (61) 
adg

>  <m_score__min__energy>  (61) 
-10.359999999999999

>  <m_primary>  (61) 
energy

$$$$
61:0
     RDKit          3D

 35 36  0  0  0  0  0  0  0  0999 V2000
   -7.5460   18.2200  -32.2490 C   0  0  0  0  0  0  0  0  0  0  0  0
   -7.7810   19.7000  -32.4420 C   0  0  0  0  0  0  0  0  0  0  0  0
   -9.0660   20.3170  -31.9540 C   0  0  0  0  0  0  0  0  0  0  0  0
   -6.8680   20.4970  -33.0390 C   0  0  0  0  0  0  0  0  0  0  0  0
   -5.5370   20.0250  -33.5690 C   0  0  0  0  0  0  0  0  0  0  0  0
   -4.3980   20.4980  -32.7060 C   0  0  0  0  0  0  0  0  0  0  0  0
   -3.2580   19.6750  -32.5230 C   0  0  0  0  0  0  0  0  0  0  0  0
   -2.1920   20.0970  -31.7130 C   0  0  0  0  0  0  0  0  0  0  0  0
   -2.2850   21.3490  -31.1120 C   0  0  0  0  0  0  0  0  0  0  0  0
   -1.4160   21.9830  -30.2550 C   0  0  0  0  0  0  0  0  0  0  0  0
   -2.0190   23.2010  -29.9560 C   0  0  0  0  0  0  0  0  0  0  0  0
   -1.3870   24.2320  -29.1080 C   0  0  0  0  0  0  0  0  0  0  0  0
   -2.1630   25.2680  -28.5040 N   0  0  0  0  0  0  0  0  0  0  0  0
   -0.1360   24.2330  -28.9630 O   0  0  0  0  0  0  0  0  0  0  0  0
   -3.2200   23.3150  -30.5900 N   0  0  0  0  0  0  0  0  0  0  0  0
   -4.1900   24.3640  -30.4350 C   0  0  0  0  0  0  0  0  0  0  0  0
   -5.3410   24.1110  -29.9920 O   0  0  0  0  0  0  0  0  0  0  0  0
   -3.8650   25.6740  -30.7670 O   0  0  0  0  0  0  0  0  0  0  0  0
   -3.3680   22.1710  -31.2980 C   0  0  0  0  0  0  0  0  0  0  0  0
   -4.4520   21.7670  -32.0860 C   0  0  0  0  0  0  0  0  0  0  0  0
   -7.5097   17.9917  -31.1736 H   0  0  0  0  0  0  0  0  0  0  0  0
   -8.3656   17.6546  -32.7165 H   0  0  0  0  0  0  0  0  0  0  0  0
   -6.5916   17.9363  -32.7165 H   0  0  0  0  0  0  0  0  0  0  0  0
   -9.0759   20.3218  -30.8541 H   0  0  0  0  0  0  0  0  0  0  0  0
   -9.1414   21.3495  -32.3258 H   0  0  0  0  0  0  0  0  0  0  0  0
   -9.9189   19.7302  -32.3258 H   0  0  0  0  0  0  0  0  0  0  0  0
   -7.1122   21.5642  -33.1460 H   0  0  0  0  0  0  0  0  0  0  0  0
   -5.5326   18.9253  -33.5948 H   0  0  0  0  0  0  0  0  0  0  0  0
   -5.4007   20.4420  -34.5777 H   0  0  0  0  0  0  0  0  0  0  0  0
   -3.2084   18.6955  -33.0210 H   0  0  0  0  0  0  0  0  0  0  0  0
   -1.3103   19.4579  -31.5580 H   0  0  0  0  0  0  0  0  0  0  0  0
   -0.4506   21.6075  -29.8850 H   0  0  0  0  0  0  0  0  0  0  0  0
   -1.7050   25.9670  -27.8780 H   0  0  0  0  0  0  0  0  0  0  0  0
   -3.1720   25.3920  -28.7370 H   0  0  0  0  0  0  0  0  0  0  0  0
   -5.3256   22.4219  -32.2196 H   0  0  0  0  0  0  0  0  0  0  0  0
  1  2  1  0
  2  3  1  0
  2  4  2  3
  4  5  1  0
  5  6  1  0
  6  7  2  0
  7  8  1  0
  8  9  2  0
  9 10  1  0
 10 11  2  0
 11 12  1  0
 12 13  1  0
 12 14  2  0
 11 15  1  0
 15 16  1  0
 16 17  2  0
 16 18  1  0
 15 19  1  0
 19 20  2  0
 20  6  1  0
 19  9  1  0
  1 21  1  0
  1 22  1  0
  1 23  1  0
  3 24  1  0
  3 25  1  0
  3 26  1  0
  4 27  1  0
  5 28  1  0
  5 29  1  0
  7 30  1  0
  8 31  1  0
 10 32  1  0
 13 33  1  0
 13 34  1  0
 20 35  1  0
M  CHG  1  18  -1
M  END
>  <UniqueID>  (62) 
61

>  <SMILES>  (62) 
CC(C)=CCc1ccc2cc(C(N)=O)n(C(=O)[O-])c2c1

>  <Energy>  (62) 
69.95660331847782

>  <Genealogy>  (62) 
CC(C)=CCc1ccc2cc(C(N)=O)n(C(=O)[O-])c2c1 (protonated)
CC(C)=CCc1ccc2cc(C(N)=O)n(C(=O)[O-])c2c1 (3D coordinates assigned)
CC(C)=CCc1ccc2cc(C(N)=O)n(C(=O)[O-])c2c1 (optimized conformer: 69.95660331847782 kcal/mol)

>  <smiles>  (62) 
CC(C)=CCc1ccc2cc(C(N)=O)n(C(=O)O)c2c1

>  <score_type>  (62) 
oracle

>  <origin>  (62) 
adg

>  <m_score__min__energy>  (62) 
-9.2300000000000004

>  <m_primary>  (62) 
energy

$$$$
62:0
     RDKit          3D

 38 40  0  0  0  0  0  0  0  0999 V2000
   -3.3210   21.9220  -32.6580 C   0  0  0  0  0  0  0  0  0  0  0  0
   -3.8610   22.7270  -31.5190 C   0  0  0  0  0  0  0  0  0  0  0  0
   -3.0730   23.1300  -30.6210 O   0  0  0  0  0  0  0  0  0  0  0  0
   -5.2700   22.9710  -31.3940 N   0  0  0  0  0  0  0  0  0  0  0  0
   -5.8960   24.1150  -30.9970 C   0  0  0  0  0  0  0  0  0  0  0  0
   -5.2340   25.3210  -30.4570 C   0  0  0  0  0  0  0  0  0  0  0  0
   -3.9110   25.6700  -30.8510 N   0  0  0  0  0  0  0  0  0  0  0  0
   -5.8310   26.0310  -29.6050 O   0  0  0  0  0  0  0  0  0  0  0  0
   -7.2790   23.9720  -31.0940 C   0  0  0  0  0  0  0  0  0  0  0  0
   -7.4810   22.6910  -31.5540 C   0  0  0  0  0  0  0  0  0  0  0  0
   -8.6640   22.0160  -31.8390 C   0  0  0  0  0  0  0  0  0  0  0  0
   -8.5710   20.7000  -32.3220 C   0  0  0  0  0  0  0  0  0  0  0  0
   -7.3080   20.0820  -32.5180 C   0  0  0  0  0  0  0  0  0  0  0  0
   -7.2370   18.6600  -33.0490 C   0  0  0  0  0  0  0  0  0  0  0  0
   -7.1550   17.6140  -31.9040 C   0  0  0  0  0  0  0  0  0  0  0  0
   -5.7590   17.0100  -31.7200 C   0  0  0  0  0  0  0  0  0  0  0  0
   -5.2370   16.0160  -33.1690 S   0  0  0  0  0  0  0  0  0  0  0  0
   -5.9260   17.0600  -34.5110 C   0  0  0  0  0  0  0  0  0  0  0  0
   -6.1120   18.5180  -34.0950 C   0  0  0  0  0  0  0  0  0  0  0  0
   -6.1290   20.8060  -32.2170 C   0  0  0  0  0  0  0  0  0  0  0  0
   -6.2540   22.1080  -31.7260 C   0  0  0  0  0  0  0  0  0  0  0  0
   -2.7486   21.0688  -32.2651 H   0  0  0  0  0  0  0  0  0  0  0  0
   -4.1545   21.5523  -33.2733 H   0  0  0  0  0  0  0  0  0  0  0  0
   -2.6627   22.5529  -33.2733 H   0  0  0  0  0  0  0  0  0  0  0  0
   -3.0800   25.2860  -30.3460 H   0  0  0  0  0  0  0  0  0  0  0  0
   -8.0458   24.7233  -30.8539 H   0  0  0  0  0  0  0  0  0  0  0  0
   -9.6417   22.4979  -31.6907 H   0  0  0  0  0  0  0  0  0  0  0  0
   -9.4898   20.1405  -32.5516 H   0  0  0  0  0  0  0  0  0  0  0  0
   -8.1794   18.4418  -33.5728 H   0  0  0  0  0  0  0  0  0  0  0  0
   -7.4478   18.1045  -30.9640 H   0  0  0  0  0  0  0  0  0  0  0  0
   -7.8294   16.7881  -32.1743 H   0  0  0  0  0  0  0  0  0  0  0  0
   -5.0367   17.8263  -31.5718 H   0  0  0  0  0  0  0  0  0  0  0  0
   -5.7930   16.3416  -30.8470 H   0  0  0  0  0  0  0  0  0  0  0  0
   -5.2398   17.0251  -35.3701 H   0  0  0  0  0  0  0  0  0  0  0  0
   -6.9191   16.6598  -34.7632 H   0  0  0  0  0  0  0  0  0  0  0  0
   -5.1714   18.8908  -33.6633 H   0  0  0  0  0  0  0  0  0  0  0  0
   -6.3882   19.1020  -34.9853 H   0  0  0  0  0  0  0  0  0  0  0  0
   -5.1374   20.3537  -32.3663 H   0  0  0  0  0  0  0  0  0  0  0  0
  1  2  1  0
  2  3  2  0
  2  4  1  0
  4  5  1  0
  5  6  1  0
  6  7  1  0
  6  8  2  0
  5  9  2  0
  9 10  1  0
 10 11  2  0
 11 12  1  0
 12 13  2  0
 13 14  1  0
 14 15  1  0
 15 16  1  0
 16 17  1  0
 17 18  1  0
 18 19  1  0
 13 20  1  0
 20 21  2  0
 21  4  1  0
 21 10  1  0
 19 14  1  0
  1 22  1  0
  1 23  1  0
  1 24  1  0
  7 25  1  0
  9 26  1  0
 11 27  1  0
 12 28  1  0
 14 29  1  0
 15 30  1  0
 15 31  1  0
 16 32  1  0
 16 33  1  0
 18 34  1  0
 18 35  1  0
 19 36  1  0
 19 37  1  0
 20 38  1  0
M  CHG  1   7  -1
M  END
>  <UniqueID>  (63) 
62

>  <SMILES>  (63) 
CC(=O)n1c(C([NH-])=O)cc2ccc(C3CCSCC3)cc21

>  <Energy>  (63) 
80.84389656989526

>  <Genealogy>  (63) 
CC(=O)n1c(C([NH-])=O)cc2ccc(C3CCSCC3)cc21 (protonated)
CC(=O)n1c(C([NH-])=O)cc2ccc(C3CCSCC3)cc21 (3D coordinates assigned)
CC(=O)n1c(C([NH-])=O)cc2ccc(C3CCSCC3)cc21 (nonaromatic ring conformer: 80.84389656989526 kcal/mol)

>  <smiles>  (63) 
CC(=O)n1c(C(N)=O)cc2ccc(C3CCSCC3)cc21

>  <score_type>  (63) 
oracle

>  <origin>  (63) 
adg

>  <m_score__min__energy>  (63) 
-11.6

>  <m_primary>  (63) 
energy

$$$$
63:0
     RDKit          3D

 42 44  0  0  0  0  0  0  0  0999 V2000
   -9.1050   21.5750  -30.7940 C   0  0  0  0  0  0  0  0  0  0  0  0
   -7.7130   21.2920  -30.8620 O   0  0  0  0  0  0  0  0  0  0  0  0
   -6.8130   22.0940  -31.5700 C   0  0  0  0  0  0  0  0  0  0  0  0
   -7.0910   23.3020  -31.8080 O   0  0  0  0  0  0  0  0  0  0  0  0
   -5.5690   21.5410  -32.0310 N   0  0  0  0  0  0  0  0  0  0  0  0
   -5.3900   20.5480  -32.9480 C   0  0  0  0  0  0  0  0  0  0  0  0
   -6.4460   19.9430  -33.7830 C   0  0  0  0  0  0  0  0  0  0  0  0
   -7.8290   20.1560  -33.4980 N   0  0  0  0  0  0  0  0  0  0  0  0
   -6.1220   19.2710  -34.7990 O   0  0  0  0  0  0  0  0  0  0  0  0
   -4.0460   20.1980  -33.0410 C   0  0  0  0  0  0  0  0  0  0  0  0
   -3.3940   21.0240  -32.1540 C   0  0  0  0  0  0  0  0  0  0  0  0
   -2.0420   21.0960  -31.8280 C   0  0  0  0  0  0  0  0  0  0  0  0
   -1.6510   22.0190  -30.8440 C   0  0  0  0  0  0  0  0  0  0  0  0
   -2.6130   22.8350  -30.2050 C   0  0  0  0  0  0  0  0  0  0  0  0
   -2.2010   23.7650  -29.1870 C   0  0  0  0  0  0  0  0  0  0  0  0
   -1.8560   24.5440  -28.3340 C   0  0  0  0  0  0  0  0  0  0  0  0
   -1.4460   25.4730  -27.3150 C   0  0  0  0  0  0  0  0  0  0  0  0
   -0.4910   26.4550  -27.6040 C   0  0  0  0  0  0  0  0  0  0  0  0
   -0.0930   27.3590  -26.6130 C   0  0  0  0  0  0  0  0  0  0  0  0
   -0.6400   27.2910  -25.3270 C   0  0  0  0  0  0  0  0  0  0  0  0
   -0.2090   28.2190  -24.3680 O   0  0  0  0  0  0  0  0  0  0  0  0
    0.7390   27.9360  -23.3440 C   0  0  0  0  0  0  0  0  0  0  0  0
   -1.6010   26.3000  -25.0410 C   0  0  0  0  0  0  0  0  0  0  0  0
   -1.9990   25.3960  -26.0310 C   0  0  0  0  0  0  0  0  0  0  0  0
   -3.9740   22.7360  -30.5550 C   0  0  0  0  0  0  0  0  0  0  0  0
   -4.3350   21.8240  -31.5550 C   0  0  0  0  0  0  0  0  0  0  0  0
   -9.4153   21.6381  -29.7406 H   0  0  0  0  0  0  0  0  0  0  0  0
   -9.3093   22.5330  -31.2944 H   0  0  0  0  0  0  0  0  0  0  0  0
   -9.6671   20.7728  -31.2944 H   0  0  0  0  0  0  0  0  0  0  0  0
   -8.1310   20.8410  -32.7720 H   0  0  0  0  0  0  0  0  0  0  0  0
   -8.5610   19.6860  -34.0760 H   0  0  0  0  0  0  0  0  0  0  0  0
   -3.6003   19.4262  -33.6857 H   0  0  0  0  0  0  0  0  0  0  0  0
   -1.3034   20.4503  -32.3255 H   0  0  0  0  0  0  0  0  0  0  0  0
   -0.5897   22.1076  -30.5687 H   0  0  0  0  0  0  0  0  0  0  0  0
   -0.0531   26.5160  -28.6112 H   0  0  0  0  0  0  0  0  0  0  0  0
    0.6563   28.1297  -26.8469 H   0  0  0  0  0  0  0  0  0  0  0  0
    0.2684   28.0765  -22.3597 H   0  0  0  0  0  0  0  0  0  0  0  0
    1.0836   26.8958  -23.4406 H   0  0  0  0  0  0  0  0  0  0  0  0
    1.5974   28.6171  -23.4406 H   0  0  0  0  0  0  0  0  0  0  0  0
   -2.0399   26.2375  -24.0343 H   0  0  0  0  0  0  0  0  0  0  0  0
   -2.7474   24.6235  -25.8007 H   0  0  0  0  0  0  0  0  0  0  0  0
   -4.7323   23.3578  -30.0567 H   0  0  0  0  0  0  0  0  0  0  0  0
  1  2  1  0
  2  3  1  0
  3  4  2  0
  3  5  1  0
  5  6  1  0
  6  7  1  0
  7  8  1  0
  7  9  2  0
  6 10  2  0
 10 11  1  0
 11 12  2  0
 12 13  1  0
 13 14  2  0
 14 15  1  0
 15 16  3  0
 16 17  1  0
 17 18  2  0
 18 19  1  0
 19 20  2  0
 20 21  1  0
 21 22  1  0
 20 23  1  0
 23 24  2  0
 14 25  1  0
 25 26  2  0
 26  5  1  0
 26 11  1  0
 24 17  1  0
  1 27  1  0
  1 28  1  0
  1 29  1  0
  8 30  1  0
  8 31  1  0
 10 32  1  0
 12 33  1  0
 13 34  1  0
 18 35  1  0
 19 36  1  0
 22 37  1  0
 22 38  1  0
 22 39  1  0
 23 40  1  0
 24 41  1  0
 25 42  1  0
M  END
>  <UniqueID>  (64) 
63

>  <SMILES>  (64) 
COC(=O)n1c(C(N)=O)cc2ccc(C#Cc3ccc(OC)cc3)cc21

>  <Energy>  (64) 
77.50923763555964

>  <Genealogy>  (64) 
COC(=O)n1c(C(N)=O)cc2ccc(C#Cc3ccc(OC)cc3)cc21 (3D coordinates assigned)
COC(=O)n1c(C(N)=O)cc2ccc(C#Cc3ccc(OC)cc3)cc21 (optimized conformer: 77.50923763555964 kcal/mol)

>  <smiles>  (64) 
COC(=O)n1c(C(N)=O)cc2ccc(C#Cc3ccc(OC)cc3)cc21

>  <score_type>  (64) 
oracle

>  <origin>  (64) 
adg

>  <m_score__min__energy>  (64) 
-8.7599999999999998

>  <m_primary>  (64) 
energy

$$$$
64:0
     RDKit          3D

 35 37  0  0  0  0  0  0  0  0999 V2000
   -2.2680   25.2910  -28.5810 N   0  0  0  0  0  0  0  0  0  0  0  0
   -1.4450   24.2630  -29.1360 C   0  0  0  0  0  0  0  0  0  0  0  0
   -0.2490   24.1570  -28.7560 O   0  0  0  0  0  0  0  0  0  0  0  0
   -1.9910   23.2820  -30.0950 C   0  0  0  0  0  0  0  0  0  0  0  0
   -1.2890   22.1590  -30.5220 C   0  0  0  0  0  0  0  0  0  0  0  0
   -2.1580   21.4780  -31.3420 C   0  0  0  0  0  0  0  0  0  0  0  0
   -1.9750   20.2950  -32.0510 C   0  0  0  0  0  0  0  0  0  0  0  0
   -3.0340   19.8350  -32.8500 C   0  0  0  0  0  0  0  0  0  0  0  0
   -4.2460   20.5650  -32.9350 C   0  0  0  0  0  0  0  0  0  0  0  0
   -5.3800   20.0640  -33.7900 C   0  0  0  0  0  0  0  0  0  0  0  0
   -6.6050   19.7880  -32.9490 C   0  0  0  0  0  0  0  0  0  0  0  0
   -7.4030   20.8670  -32.5250 C   0  0  0  0  0  0  0  0  0  0  0  0
   -8.5230   20.6490  -31.7190 C   0  0  0  0  0  0  0  0  0  0  0  0
   -8.8570   19.3530  -31.3220 C   0  0  0  0  0  0  0  0  0  0  0  0
   -8.0720   18.2730  -31.7300 C   0  0  0  0  0  0  0  0  0  0  0  0
   -6.9460   18.4790  -32.5370 C   0  0  0  0  0  0  0  0  0  0  0  0
   -5.9990   17.0750  -33.0140 Cl  0  0  0  0  0  0  0  0  0  0  0  0
   -4.3930   21.7670  -32.2050 C   0  0  0  0  0  0  0  0  0  0  0  0
   -3.3290   22.1900  -31.3980 C   0  0  0  0  0  0  0  0  0  0  0  0
   -3.2410   23.3060  -30.6370 N   0  0  0  0  0  0  0  0  0  0  0  0
   -4.2170   24.3570  -30.5300 C   0  0  0  0  0  0  0  0  0  0  0  0
   -5.4040   24.0960  -30.2040 O   0  0  0  0  0  0  0  0  0  0  0  0
   -3.8600   25.6740  -30.7930 O   0  0  0  0  0  0  0  0  0  0  0  0
   -1.8560   25.9980  -27.9320 H   0  0  0  0  0  0  0  0  0  0  0  0
   -3.2970   25.3050  -28.7470 H   0  0  0  0  0  0  0  0  0  0  0  0
   -0.2588   21.8763  -30.2597 H   0  0  0  0  0  0  0  0  0  0  0  0
   -1.0292   19.7369  -31.9875 H   0  0  0  0  0  0  0  0  0  0  0  0
   -2.9219   18.8984  -33.4159 H   0  0  0  0  0  0  0  0  0  0  0  0
   -5.6253   20.8248  -34.5457 H   0  0  0  0  0  0  0  0  0  0  0  0
   -5.0680   19.1279  -34.2763 H   0  0  0  0  0  0  0  0  0  0  0  0
   -7.1425   21.8910  -32.8310 H   0  0  0  0  0  0  0  0  0  0  0  0
   -9.1422   21.4992  -31.3969 H   0  0  0  0  0  0  0  0  0  0  0  0
   -9.7392   19.1826  -30.6874 H   0  0  0  0  0  0  0  0  0  0  0  0
   -8.3396   17.2534  -31.4155 H   0  0  0  0  0  0  0  0  0  0  0  0
   -5.3201   22.3555  -32.2692 H   0  0  0  0  0  0  0  0  0  0  0  0
  1  2  1  0
  2  3  2  0
  2  4  1  0
  4  5  2  0
  5  6  1  0
  6  7  2  0
  7  8  1  0
  8  9  2  0
  9 10  1  0
 10 11  1  0
 11 12  2  0
 12 13  1  0
 13 14  2  0
 14 15  1  0
 15 16  2  0
 16 17  1  0
  9 18  1  0
 18 19  2  0
 19 20  1  0
 20 21  1  0
 21 22  2  0
 21 23  1  0
 20  4  1  0
 19  6  1  0
 16 11  1  0
  1 24  1  0
  1 25  1  0
  5 26  1  0
  7 27  1  0
  8 28  1  0
 10 29  1  0
 10 30  1  0
 12 31  1  0
 13 32  1  0
 14 33  1  0
 15 34  1  0
 18 35  1  0
M  CHG  1  23  -1
M  END
>  <UniqueID>  (65) 
64

>  <SMILES>  (65) 
NC(=O)c1cc2ccc(Cc3ccccc3Cl)cc2n1C(=O)[O-]

>  <Energy>  (65) 
77.81056456126657

>  <Genealogy>  (65) 
NC(=O)c1cc2ccc(Cc3ccccc3Cl)cc2n1C(=O)[O-] (protonated)
NC(=O)c1cc2ccc(Cc3ccccc3Cl)cc2n1C(=O)[O-] (3D coordinates assigned)
NC(=O)c1cc2ccc(Cc3ccccc3Cl)cc2n1C(=O)[O-] (optimized conformer: 77.81056456126657 kcal/mol)

>  <smiles>  (65) 
NC(=O)c1cc2ccc(Cc3ccccc3Cl)cc2n1C(=O)O

>  <score_type>  (65) 
oracle

>  <origin>  (65) 
adg

>  <m_score__min__energy>  (65) 
-10.390000000000001

>  <m_primary>  (65) 
energy

$$$$
65:0
     RDKit          3D

 38 40  0  0  0  0  0  0  0  0999 V2000
   -3.0980   14.2720  -36.1150 C   0  0  0  0  0  0  0  0  0  0  0  0
   -3.6850   14.0260  -34.8420 O   0  0  0  0  0  0  0  0  0  0  0  0
   -5.0090   14.3630  -34.5430 C   0  0  0  0  0  0  0  0  0  0  0  0
   -5.9260   13.5090  -34.6900 O   0  0  0  0  0  0  0  0  0  0  0  0
   -5.3310   15.7220  -34.0520 C   0  0  0  0  0  0  0  0  0  0  0  0
   -6.6590   16.0750  -33.7600 C   0  0  0  0  0  0  0  0  0  0  0  0
   -6.9670   17.3570  -33.2970 C   0  0  0  0  0  0  0  0  0  0  0  0
   -5.9540   18.3140  -33.1130 C   0  0  0  0  0  0  0  0  0  0  0  0
   -6.2810   19.6750  -32.6180 C   0  0  0  0  0  0  0  0  0  0  0  0
   -7.6320   20.1070  -32.5450 C   0  0  0  0  0  0  0  0  0  0  0  0
   -7.9540   21.3890  -32.0700 C   0  0  0  0  0  0  0  0  0  0  0  0
   -6.9090   22.2220  -31.6810 C   0  0  0  0  0  0  0  0  0  0  0  0
   -6.9390   23.4970  -31.1650 C   0  0  0  0  0  0  0  0  0  0  0  0
   -5.6070   23.8390  -30.9480 C   0  0  0  0  0  0  0  0  0  0  0  0
   -5.1750   25.1720  -30.4790 C   0  0  0  0  0  0  0  0  0  0  0  0
   -3.8810   25.6620  -30.8270 N   0  0  0  0  0  0  0  0  0  0  0  0
   -5.9200   25.8690  -29.7410 O   0  0  0  0  0  0  0  0  0  0  0  0
   -4.7850   22.8120  -31.3080 N   0  0  0  0  0  0  0  0  0  0  0  0
   -3.3560   22.7380  -31.1760 C   0  0  0  0  0  0  0  0  0  0  0  0
   -2.7180   23.2070  -29.9900 N   0  0  0  0  0  0  0  0  0  0  0  0
   -2.6610   22.2310  -32.0960 O   0  0  0  0  0  0  0  0  0  0  0  0
   -5.5980   21.8320  -31.7590 C   0  0  0  0  0  0  0  0  0  0  0  0
   -5.2480   20.5550  -32.2130 C   0  0  0  0  0  0  0  0  0  0  0  0
   -4.6250   17.9590  -33.4040 C   0  0  0  0  0  0  0  0  0  0  0  0
   -4.3170   16.6780  -33.8690 C   0  0  0  0  0  0  0  0  0  0  0  0
   -2.0913   14.6939  -35.9792 H   0  0  0  0  0  0  0  0  0  0  0  0
   -3.0274   13.3278  -36.6749 H   0  0  0  0  0  0  0  0  0  0  0  0
   -3.7217   14.9845  -36.6749 H   0  0  0  0  0  0  0  0  0  0  0  0
   -7.4627   15.3365  -33.8969 H   0  0  0  0  0  0  0  0  0  0  0  0
   -8.0117   17.6197  -33.0745 H   0  0  0  0  0  0  0  0  0  0  0  0
   -8.4368   19.4287  -32.8647 H   0  0  0  0  0  0  0  0  0  0  0  0
   -8.9998   21.7243  -32.0074 H   0  0  0  0  0  0  0  0  0  0  0  0
   -7.8270   24.1150  -30.9661 H   0  0  0  0  0  0  0  0  0  0  0  0
   -3.0230   25.2890  -30.3630 H   0  0  0  0  0  0  0  0  0  0  0  0
   -2.9400   24.1490  -29.5980 H   0  0  0  0  0  0  0  0  0  0  0  0
   -4.1943   20.2420  -32.2543 H   0  0  0  0  0  0  0  0  0  0  0  0
   -3.8207   18.6963  -33.2643 H   0  0  0  0  0  0  0  0  0  0  0  0
   -3.2727   16.4155  -34.0937 H   0  0  0  0  0  0  0  0  0  0  0  0
  1  2  1  0
  2  3  1  0
  3  4  2  0
  3  5  1  0
  5  6  2  0
  6  7  1  0
  7  8  2  0
  8  9  1  0
  9 10  2  0
 10 11  1  0
 11 12  2  0
 12 13  1  0
 13 14  2  0
 14 15  1  0
 15 16  1  0
 15 17  2  0
 14 18  1  0
 18 19  1  0
 19 20  1  0
 19 21  2  0
 18 22  1  0
 22 23  2  0
  8 24  1  0
 24 25  2  0
 25  5  1  0
 23  9  1  0
 22 12  1  0
  1 26  1  0
  1 27  1  0
  1 28  1  0
  6 29  1  0
  7 30  1  0
 10 31  1  0
 11 32  1  0
 13 33  1  0
 16 34  1  0
 20 35  1  0
 23 36  1  0
 24 37  1  0
 25 38  1  0
M  CHG  2  16  -1  20  -1
M  END
>  <UniqueID>  (66) 
65

>  <SMILES>  (66) 
COC(=O)c1ccc(-c2ccc3cc(C([NH-])=O)n(C([NH-])=O)c3c2)cc1

>  <Energy>  (66) 
83.29477274420518

>  <Genealogy>  (66) 
COC(=O)c1ccc(-c2ccc3cc(C([NH-])=O)n(C([NH-])=O)c3c2)cc1 (protonated)
COC(=O)c1ccc(-c2ccc3cc(C([NH-])=O)n(C([NH-])=O)c3c2)cc1 (3D coordinates assigned)
COC(=O)c1ccc(-c2ccc3cc(C([NH-])=O)n(C([NH-])=O)c3c2)cc1 (optimized conformer: 83.29477274420518 kcal/mol)

>  <smiles>  (66) 
COC(=O)c1ccc(-c2ccc3cc(C(N)=O)n(C(N)=O)c3c2)cc1

>  <score_type>  (66) 
oracle

>  <origin>  (66) 
adg

>  <m_score__min__energy>  (66) 
-10.48

>  <m_primary>  (66) 
energy

$$$$
66:0
     RDKit          3D

 37 39  0  0  0  0  0  0  0  0999 V2000
   -1.6200   25.9270  -28.9380 N   0  0  0  0  0  0  0  0  0  0  0  0
   -0.9200   24.6850  -28.9170 C   0  0  0  0  0  0  0  0  0  0  0  0
    0.1340   24.5830  -28.2380 O   0  0  0  0  0  0  0  0  0  0  0  0
   -1.4160   23.5490  -29.7230 C   0  0  0  0  0  0  0  0  0  0  0  0
   -0.6190   22.4690  -30.0950 C   0  0  0  0  0  0  0  0  0  0  0  0
   -1.4620   21.6000  -30.7470 C   0  0  0  0  0  0  0  0  0  0  0  0
   -1.1960   20.3630  -31.3300 C   0  0  0  0  0  0  0  0  0  0  0  0
   -2.2590   19.6900  -31.9570 C   0  0  0  0  0  0  0  0  0  0  0  0
   -3.5510   20.2680  -32.0050 C   0  0  0  0  0  0  0  0  0  0  0  0
   -4.6850   19.5250  -32.6590 C   0  0  0  0  0  0  0  0  0  0  0  0
   -5.5570   20.4850  -33.4730 C   0  0  0  0  0  0  0  0  0  0  0  0
   -6.7940   20.8590  -32.7000 C   0  0  0  0  0  0  0  0  0  0  0  0
   -7.8410   19.9340  -32.5460 C   0  0  0  0  0  0  0  0  0  0  0  0
   -9.0030   20.2940  -31.8570 C   0  0  0  0  0  0  0  0  0  0  0  0
   -9.1320   21.5810  -31.3260 C   0  0  0  0  0  0  0  0  0  0  0  0
  -10.2610   21.9280  -30.6580 F   0  0  0  0  0  0  0  0  0  0  0  0
   -8.1010   22.5100  -31.4870 C   0  0  0  0  0  0  0  0  0  0  0  0
   -6.9370   22.1540  -32.1760 C   0  0  0  0  0  0  0  0  0  0  0  0
   -3.7850   21.5190  -31.3920 C   0  0  0  0  0  0  0  0  0  0  0  0
   -2.7140   22.1590  -30.7580 C   0  0  0  0  0  0  0  0  0  0  0  0
   -2.7030   23.3590  -30.1360 N   0  0  0  0  0  0  0  0  0  0  0  0
   -3.8140   24.2590  -30.0030 C   0  0  0  0  0  0  0  0  0  0  0  0
   -4.7450   24.0070  -29.1930 O   0  0  0  0  0  0  0  0  0  0  0  0
   -3.8620   25.4290  -30.7500 O   0  0  0  0  0  0  0  0  0  0  0  0
   -2.6620   25.9560  -28.9790 H   0  0  0  0  0  0  0  0  0  0  0  0
    0.4570   22.3388  -29.9070 H   0  0  0  0  0  0  0  0  0  0  0  0
   -0.1866   19.9269  -31.3006 H   0  0  0  0  0  0  0  0  0  0  0  0
   -2.0856   18.7049  -32.4148 H   0  0  0  0  0  0  0  0  0  0  0  0
   -4.2746   18.7538  -33.3274 H   0  0  0  0  0  0  0  0  0  0  0  0
   -5.3030   19.0596  -31.8770 H   0  0  0  0  0  0  0  0  0  0  0  0
   -4.9813   21.3952  -33.6970 H   0  0  0  0  0  0  0  0  0  0  0  0
   -5.8581   19.9870  -34.4064 H   0  0  0  0  0  0  0  0  0  0  0  0
   -7.7458   18.9231  -32.9691 H   0  0  0  0  0  0  0  0  0  0  0  0
   -9.8165   19.5641  -31.7325 H   0  0  0  0  0  0  0  0  0  0  0  0
   -8.2048   23.5231  -31.0712 H   0  0  0  0  0  0  0  0  0  0  0  0
   -6.1310   22.8908  -32.3078 H   0  0  0  0  0  0  0  0  0  0  0  0
   -4.7841   21.9787  -31.4125 H   0  0  0  0  0  0  0  0  0  0  0  0
  1  2  1  0
  2  3  2  0
  2  4  1  0
  4  5  2  0
  5  6  1  0
  6  7  2  0
  7  8  1  0
  8  9  2  0
  9 10  1  0
 10 11  1  0
 11 12  1  0
 12 13  2  0
 13 14  1  0
 14 15  2  0
 15 16  1  0
 15 17  1  0
 17 18  2  0
  9 19  1  0
 19 20  2  0
 20 21  1  0
 21 22  1  0
 22 23  2  0
 22 24  1  0
 21  4  1  0
 20  6  1  0
 18 12  1  0
  1 25  1  0
  5 26  1  0
  7 27  1  0
  8 28  1  0
 10 29  1  0
 10 30  1  0
 11 31  1  0
 11 32  1  0
 13 33  1  0
 14 34  1  0
 17 35  1  0
 18 36  1  0
 19 37  1  0
M  CHG  2   1  -1  24  -1
M  END
>  <UniqueID>  (67) 
66

>  <SMILES>  (67) 
[NH-]C(=O)c1cc2ccc(CCc3ccc(F)cc3)cc2n1C(=O)[O-]

>  <Energy>  (67) 
75.71558469168365

>  <Genealogy>  (67) 
[NH-]C(=O)c1cc2ccc(CCc3ccc(F)cc3)cc2n1C(=O)[O-] (protonated)
[NH-]C(=O)c1cc2ccc(CCc3ccc(F)cc3)cc2n1C(=O)[O-] (3D coordinates assigned)
[NH-]C(=O)c1cc2ccc(CCc3ccc(F)cc3)cc2n1C(=O)[O-] (optimized conformer: 75.71558469168365 kcal/mol)

>  <smiles>  (67) 
NC(=O)c1cc2ccc(CCc3ccc(F)cc3)cc2n1C(=O)O

>  <score_type>  (67) 
oracle

>  <origin>  (67) 
adg

>  <m_score__min__energy>  (67) 
-12.17

>  <m_primary>  (67) 
energy

$$$$
67:0
     RDKit          3D

 34 36  0  0  0  0  0  0  0  0999 V2000
   -7.1840   13.7200  -34.5670 C   0  0  0  0  0  0  0  0  0  0  0  0
   -5.4360   14.0640  -34.1970 S   0  0  0  0  0  0  0  0  0  0  0  0
   -5.7650   15.7380  -33.6510 C   0  0  0  0  0  0  0  0  0  0  0  0
   -6.1210   16.6830  -34.5600 N   0  0  0  0  0  0  0  0  0  0  0  0
   -6.3740   17.9610  -34.1790 C   0  0  0  0  0  0  0  0  0  0  0  0
   -6.2760   18.3270  -32.8290 C   0  0  0  0  0  0  0  0  0  0  0  0
   -6.5480   19.7180  -32.3870 C   0  0  0  0  0  0  0  0  0  0  0  0
   -7.8840   20.1870  -32.2730 C   0  0  0  0  0  0  0  0  0  0  0  0
   -8.1530   21.4970  -31.8450 C   0  0  0  0  0  0  0  0  0  0  0  0
   -7.0730   22.3200  -31.5440 C   0  0  0  0  0  0  0  0  0  0  0  0
   -7.0500   23.6170  -31.0860 C   0  0  0  0  0  0  0  0  0  0  0  0
   -5.7010   23.9360  -30.9450 C   0  0  0  0  0  0  0  0  0  0  0  0
   -5.2220   25.2780  -30.5510 C   0  0  0  0  0  0  0  0  0  0  0  0
   -3.8860   25.6720  -30.8540 N   0  0  0  0  0  0  0  0  0  0  0  0
   -5.9690   26.0680  -29.9160 O   0  0  0  0  0  0  0  0  0  0  0  0
   -4.9200   22.8750  -31.2960 N   0  0  0  0  0  0  0  0  0  0  0  0
   -3.4880   22.7750  -31.2370 C   0  0  0  0  0  0  0  0  0  0  0  0
   -2.8400   22.3140  -32.2130 O   0  0  0  0  0  0  0  0  0  0  0  0
   -2.8010   23.2090  -30.1100 O   0  0  0  0  0  0  0  0  0  0  0  0
   -5.7750   21.8950  -31.6640 C   0  0  0  0  0  0  0  0  0  0  0  0
   -5.4780   20.5890  -32.0700 C   0  0  0  0  0  0  0  0  0  0  0  0
   -5.9110   17.3310  -31.9110 C   0  0  0  0  0  0  0  0  0  0  0  0
   -5.6650   16.0640  -32.3350 N   0  0  0  0  0  0  0  0  0  0  0  0
   -7.7432   13.6100  -33.6261 H   0  0  0  0  0  0  0  0  0  0  0  0
   -7.6062   14.5523  -35.1493 H   0  0  0  0  0  0  0  0  0  0  0  0
   -7.2594   12.7898  -35.1493 H   0  0  0  0  0  0  0  0  0  0  0  0
   -6.6568   18.7118  -34.9316 H   0  0  0  0  0  0  0  0  0  0  0  0
   -8.7185   19.5154  -32.5232 H   0  0  0  0  0  0  0  0  0  0  0  0
   -9.1866   21.8613  -31.7506 H   0  0  0  0  0  0  0  0  0  0  0  0
   -7.9136   24.2650  -30.8757 H   0  0  0  0  0  0  0  0  0  0  0  0
   -3.0790   25.2980  -30.3080 H   0  0  0  0  0  0  0  0  0  0  0  0
   -4.4351   20.2465  -32.1413 H   0  0  0  0  0  0  0  0  0  0  0  0
   -5.8235   17.5772  -30.8425 H   0  0  0  0  0  0  0  0  0  0  0  0
   -5.3880   15.3360  -31.6390 H   0  0  0  0  0  0  0  0  0  0  0  0
  1  2  1  0
  2  3  1  0
  3  4  2  0
  4  5  1  0
  5  6  2  0
  6  7  1  0
  7  8  2  0
  8  9  1  0
  9 10  2  0
 10 11  1  0
 11 12  2  0
 12 13  1  0
 13 14  1  0
 13 15  2  0
 12 16  1  0
 16 17  1  0
 17 18  2  0
 17 19  1  0
 16 20  1  0
 20 21  2  0
  6 22  1  0
 22 23  2  0
 23  3  1  0
 21  7  1  0
 20 10  1  0
  1 24  1  0
  1 25  1  0
  1 26  1  0
  5 27  1  0
  8 28  1  0
  9 29  1  0
 11 30  1  0
 14 31  1  0
 21 32  1  0
 22 33  1  0
 23 34  1  0
M  CHG  3  14  -1  19  -1  23   1
M  END
>  <UniqueID>  (68) 
67

>  <SMILES>  (68) 
CSc1ncc(-c2ccc3cc(C([NH-])=O)n(C(=O)[O-])c3c2)c[nH+]1

>  <Energy>  (68) 
77.42174856207264

>  <Genealogy>  (68) 
CSc1ncc(-c2ccc3cc(C([NH-])=O)n(C(=O)[O-])c3c2)c[nH+]1 (protonated)
CSc1ncc(-c2ccc3cc(C([NH-])=O)n(C(=O)[O-])c3c2)c[nH+]1 (3D coordinates assigned)
CSc1ncc(-c2ccc3cc(C([NH-])=O)n(C(=O)[O-])c3c2)c[nH+]1 (optimized conformer: 77.42174856207264 kcal/mol)

>  <smiles>  (68) 
CSc1ncc(-c2ccc3cc(C(N)=O)n(C(=O)O)c3c2)cn1

>  <score_type>  (68) 
oracle

>  <origin>  (68) 
adg

>  <m_score__min__energy>  (68) 
-10.35

>  <m_primary>  (68) 
energy

$$$$
68:0
     RDKit          3D

 44 46  0  0  0  0  0  0  0  0999 V2000
   -6.4440   23.7780  -31.7280 C   0  0  0  0  0  0  0  0  0  0  0  0
   -6.4240   23.9110  -30.2140 C   0  0  0  0  0  0  0  0  0  0  0  0
   -5.1130   23.6370  -29.7310 O   0  0  0  0  0  0  0  0  0  0  0  0
   -3.9600   24.1020  -30.3700 C   0  0  0  0  0  0  0  0  0  0  0  0
   -3.9210   25.2730  -30.8380 O   0  0  0  0  0  0  0  0  0  0  0  0
   -2.8270   23.2310  -30.5160 N   0  0  0  0  0  0  0  0  0  0  0  0
   -1.5660   23.4050  -30.0280 C   0  0  0  0  0  0  0  0  0  0  0  0
   -1.1290   24.4780  -29.1100 C   0  0  0  0  0  0  0  0  0  0  0  0
   -1.9680   25.6090  -28.8920 N   0  0  0  0  0  0  0  0  0  0  0  0
   -0.0050   24.4250  -28.5440 O   0  0  0  0  0  0  0  0  0  0  0  0
   -0.7320   22.3710  -30.4490 C   0  0  0  0  0  0  0  0  0  0  0  0
   -1.5290   21.5460  -31.2080 C   0  0  0  0  0  0  0  0  0  0  0  0
   -1.2110   20.3740  -31.8890 C   0  0  0  0  0  0  0  0  0  0  0  0
   -2.2270   19.7450  -32.6260 C   0  0  0  0  0  0  0  0  0  0  0  0
   -3.5330   20.2960  -32.6730 C   0  0  0  0  0  0  0  0  0  0  0  0
   -4.5970   19.6520  -33.5250 C   0  0  0  0  0  0  0  0  0  0  0  0
   -5.4160   18.6260  -32.7310 C   0  0  0  0  0  0  0  0  0  0  0  0
   -6.8100   19.1230  -32.4460 C   0  0  0  0  0  0  0  0  0  0  0  0
   -7.1090   20.4930  -32.5380 C   0  0  0  0  0  0  0  0  0  0  0  0
   -8.4140   20.9460  -32.3210 C   0  0  0  0  0  0  0  0  0  0  0  0
   -9.4290   20.0360  -32.0140 C   0  0  0  0  0  0  0  0  0  0  0  0
   -9.1420   18.6700  -31.9270 C   0  0  0  0  0  0  0  0  0  0  0  0
   -7.8380   18.2140  -32.1460 C   0  0  0  0  0  0  0  0  0  0  0  0
   -3.8160   21.4900  -31.9750 C   0  0  0  0  0  0  0  0  0  0  0  0
   -2.7880   22.0860  -31.2330 C   0  0  0  0  0  0  0  0  0  0  0  0
   -6.6024   22.7244  -32.0015 H   0  0  0  0  0  0  0  0  0  0  0  0
   -7.2602   24.3902  -32.1391 H   0  0  0  0  0  0  0  0  0  0  0  0
   -5.4839   24.1231  -32.1391 H   0  0  0  0  0  0  0  0  0  0  0  0
   -6.7123   24.9344  -29.9319 H   0  0  0  0  0  0  0  0  0  0  0  0
   -7.1341   23.1956  -29.7736 H   0  0  0  0  0  0  0  0  0  0  0  0
   -2.9090   25.6750  -29.3400 H   0  0  0  0  0  0  0  0  0  0  0  0
    0.3367   22.2420  -30.2225 H   0  0  0  0  0  0  0  0  0  0  0  0
   -0.1951   19.9539  -31.8508 H   0  0  0  0  0  0  0  0  0  0  0  0
   -2.0080   18.8157  -33.1723 H   0  0  0  0  0  0  0  0  0  0  0  0
   -5.2734   20.4334  -33.9017 H   0  0  0  0  0  0  0  0  0  0  0  0
   -4.1007   19.1267  -34.3543 H   0  0  0  0  0  0  0  0  0  0  0  0
   -5.4819   17.6952  -33.3135 H   0  0  0  0  0  0  0  0  0  0  0  0
   -4.9104   18.4552  -31.7691 H   0  0  0  0  0  0  0  0  0  0  0  0
   -6.3131   21.2121  -32.7818 H   0  0  0  0  0  0  0  0  0  0  0  0
   -8.6418   22.0198  -32.3920 H   0  0  0  0  0  0  0  0  0  0  0  0
  -10.4545   20.3943  -31.8406 H   0  0  0  0  0  0  0  0  0  0  0  0
   -9.9418   17.9542  -31.6863 H   0  0  0  0  0  0  0  0  0  0  0  0
   -7.6164   17.1384  -32.0830 H   0  0  0  0  0  0  0  0  0  0  0  0
   -4.8186   21.9411  -32.0128 H   0  0  0  0  0  0  0  0  0  0  0  0
  1  2  1  0
  2  3  1  0
  3  4  1  0
  4  5  2  0
  4  6  1  0
  6  7  1  0
  7  8  1  0
  8  9  1  0
  8 10  2  0
  7 11  2  0
 11 12  1  0
 12 13  2  0
 13 14  1  0
 14 15  2  0
 15 16  1  0
 16 17  1  0
 17 18  1  0
 18 19  2  0
 19 20  1  0
 20 21  2  0
 21 22  1  0
 22 23  2  0
 15 24  1  0
 24 25  2  0
 25  6  1  0
 25 12  1  0
 23 18  1  0
  1 26  1  0
  1 27  1  0
  1 28  1  0
  2 29  1  0
  2 30  1  0
  9 31  1  0
 11 32  1  0
 13 33  1  0
 14 34  1  0
 16 35  1  0
 16 36  1  0
 17 37  1  0
 17 38  1  0
 19 39  1  0
 20 40  1  0
 21 41  1  0
 22 42  1  0
 23 43  1  0
 24 44  1  0
M  CHG  1   9  -1
M  END
>  <UniqueID>  (69) 
68

>  <SMILES>  (69) 
CCOC(=O)n1c(C([NH-])=O)cc2ccc(CCc3ccccc3)cc21

>  <Energy>  (69) 
75.78121582509328

>  <Genealogy>  (69) 
CCOC(=O)n1c(C([NH-])=O)cc2ccc(CCc3ccccc3)cc21 (protonated)
CCOC(=O)n1c(C([NH-])=O)cc2ccc(CCc3ccccc3)cc21 (3D coordinates assigned)
CCOC(=O)n1c(C([NH-])=O)cc2ccc(CCc3ccccc3)cc21 (optimized conformer: 75.78121582509328 kcal/mol)

>  <smiles>  (69) 
CCOC(=O)n1c(C(N)=O)cc2ccc(CCc3ccccc3)cc21

>  <score_type>  (69) 
oracle

>  <origin>  (69) 
adg

>  <m_score__min__energy>  (69) 
-11.220000000000001

>  <m_primary>  (69) 
energy

$$$$
69:0
     RDKit          3D

 36 37  0  0  0  0  0  0  0  0999 V2000
   -6.2650   18.3720  -31.3830 C   0  0  0  0  0  0  0  0  0  0  0  0
   -6.9280   18.6900  -32.7420 C   0  0  0  0  0  0  0  0  0  0  0  0
   -6.8360   17.4260  -33.6240 C   0  0  0  0  0  0  0  0  0  0  0  0
   -6.1820   19.8520  -33.4580 C   0  0  0  0  0  0  0  0  0  0  0  0
   -4.9370   20.3160  -32.7360 C   0  0  0  0  0  0  0  0  0  0  0  0
   -3.7560   19.5320  -32.7760 C   0  0  0  0  0  0  0  0  0  0  0  0
   -2.5960   19.9490  -32.1040 C   0  0  0  0  0  0  0  0  0  0  0  0
   -2.6470   21.1460  -31.3970 C   0  0  0  0  0  0  0  0  0  0  0  0
   -1.6660   21.7930  -30.6800 C   0  0  0  0  0  0  0  0  0  0  0  0
   -2.2670   22.9520  -30.1930 C   0  0  0  0  0  0  0  0  0  0  0  0
   -1.5830   23.9070  -29.2960 C   0  0  0  0  0  0  0  0  0  0  0  0
   -1.8650   25.3020  -29.3540 N   0  0  0  0  0  0  0  0  0  0  0  0
   -0.7690   23.4780  -28.4340 O   0  0  0  0  0  0  0  0  0  0  0  0
   -3.5680   23.0230  -30.5990 N   0  0  0  0  0  0  0  0  0  0  0  0
   -4.5040   24.0890  -30.3740 C   0  0  0  0  0  0  0  0  0  0  0  0
   -4.2110   25.4080  -30.8260 N   0  0  0  0  0  0  0  0  0  0  0  0
   -5.5830   23.8650  -29.7630 O   0  0  0  0  0  0  0  0  0  0  0  0
   -3.7840   21.9090  -31.3340 C   0  0  0  0  0  0  0  0  0  0  0  0
   -4.9470   21.5290  -32.0120 C   0  0  0  0  0  0  0  0  0  0  0  0
   -8.3920   19.0460  -32.5500 C   0  0  0  0  0  0  0  0  0  0  0  0
   -9.1640   18.2540  -31.9450 O   0  0  0  0  0  0  0  0  0  0  0  0
   -8.9180   20.2180  -33.0840 O   0  0  0  0  0  0  0  0  0  0  0  0
   -6.9301   18.6910  -30.5670 H   0  0  0  0  0  0  0  0  0  0  0  0
   -6.0849   17.2895  -31.3073 H   0  0  0  0  0  0  0  0  0  0  0  0
   -5.3080   18.9091  -31.3073 H   0  0  0  0  0  0  0  0  0  0  0  0
   -6.7711   16.5350  -32.9822 H   0  0  0  0  0  0  0  0  0  0  0  0
   -7.7314   17.3561  -34.2591 H   0  0  0  0  0  0  0  0  0  0  0  0
   -5.9399   17.4865  -34.2591 H   0  0  0  0  0  0  0  0  0  0  0  0
   -5.8930   19.5111  -34.4631 H   0  0  0  0  0  0  0  0  0  0  0  0
   -6.8733   20.7072  -33.4854 H   0  0  0  0  0  0  0  0  0  0  0  0
   -3.7487   18.5873  -33.3394 H   0  0  0  0  0  0  0  0  0  0  0  0
   -1.6753   19.3479  -32.1355 H   0  0  0  0  0  0  0  0  0  0  0  0
   -0.6277   21.4646  -30.5245 H   0  0  0  0  0  0  0  0  0  0  0  0
   -2.8470   25.6540  -29.3180 H   0  0  0  0  0  0  0  0  0  0  0  0
   -3.2250   25.7160  -30.9800 H   0  0  0  0  0  0  0  0  0  0  0  0
   -5.8478   22.1596  -31.9821 H   0  0  0  0  0  0  0  0  0  0  0  0
  1  2  1  0
  2  3  1  0
  2  4  1  0
  4  5  1  0
  5  6  2  0
  6  7  1  0
  7  8  2  0
  8  9  1  0
  9 10  2  0
 10 11  1  0
 11 12  1  0
 11 13  2  0
 10 14  1  0
 14 15  1  0
 15 16  1  0
 15 17  2  0
 14 18  1  0
 18 19  2  0
  2 20  1  0
 20 21  2  0
 20 22  1  0
 19  5  1  0
 18  8  1  0
  1 23  1  0
  1 24  1  0
  1 25  1  0
  3 26  1  0
  3 27  1  0
  3 28  1  0
  4 29  1  0
  4 30  1  0
  6 31  1  0
  7 32  1  0
  9 33  1  0
 12 34  1  0
 16 35  1  0
 19 36  1  0
M  CHG  3  12  -1  16  -1  22  -1
M  END
>  <UniqueID>  (70) 
69

>  <SMILES>  (70) 
CC(C)(Cc1ccc2cc(C([NH-])=O)n(C([NH-])=O)c2c1)C(=O)[O-]

>  <Energy>  (70) 
73.14461096407925

>  <Genealogy>  (70) 
CC(C)(Cc1ccc2cc(C([NH-])=O)n(C([NH-])=O)c2c1)C(=O)[O-] (protonated)
CC(C)(Cc1ccc2cc(C([NH-])=O)n(C([NH-])=O)c2c1)C(=O)[O-] (3D coordinates assigned)
CC(C)(Cc1ccc2cc(C([NH-])=O)n(C([NH-])=O)c2c1)C(=O)[O-] (optimized conformer: 73.14461096407925 kcal/mol)

>  <smiles>  (70) 
CC(C)(Cc1ccc2cc(C(N)=O)n(C(N)=O)c2c1)C(=O)O

>  <score_type>  (70) 
oracle

>  <origin>  (70) 
adg

>  <m_score__min__energy>  (70) 
-10.880000000000001

>  <m_primary>  (70) 
energy

$$$$
70:0
     RDKit          3D

 36 39  0  0  0  0  0  0  0  0999 V2000
   -1.5870   26.0550  -28.9170 N   0  0  0  0  0  0  0  0  0  0  0  0
   -0.8320   24.8510  -28.8020 C   0  0  0  0  0  0  0  0  0  0  0  0
    0.2210   24.8480  -28.1100 O   0  0  0  0  0  0  0  0  0  0  0  0
   -1.2360   23.6260  -29.5230 C   0  0  0  0  0  0  0  0  0  0  0  0
   -0.3460   22.6070  -29.8610 C   0  0  0  0  0  0  0  0  0  0  0  0
   -1.0860   21.7020  -30.5850 C   0  0  0  0  0  0  0  0  0  0  0  0
   -0.7100   20.4870  -31.1500 C   0  0  0  0  0  0  0  0  0  0  0  0
   -1.6950   19.7370  -31.8140 C   0  0  0  0  0  0  0  0  0  0  0  0
   -3.0300   20.2070  -31.9000 C   0  0  0  0  0  0  0  0  0  0  0  0
   -4.0550   19.3910  -32.5840 C   0  0  0  0  0  0  0  0  0  0  0  0
   -3.8200   18.3540  -33.4890 C   0  0  0  0  0  0  0  0  0  0  0  0
   -4.9860   17.8180  -33.9160 N   0  0  0  0  0  0  0  0  0  0  0  0
   -5.9510   18.5130  -33.2950 C   0  0  0  0  0  0  0  0  0  0  0  0
   -7.2860   18.3390  -33.4510 N   0  0  0  0  0  0  0  0  0  0  0  0
   -8.1340   19.1660  -32.7700 C   0  0  0  0  0  0  0  0  0  0  0  0
   -9.5440   19.0070  -32.9080 N   0  0  0  0  0  0  0  0  0  0  0  0
   -7.6350   20.1570  -31.9640 N   0  0  0  0  0  0  0  0  0  0  0  0
   -6.2920   20.3400  -31.8060 C   0  0  0  0  0  0  0  0  0  0  0  0
   -5.4350   19.4780  -32.4820 C   0  0  0  0  0  0  0  0  0  0  0  0
   -3.3750   21.4380  -31.2970 C   0  0  0  0  0  0  0  0  0  0  0  0
   -2.3700   22.1760  -30.6630 C   0  0  0  0  0  0  0  0  0  0  0  0
   -2.4790   23.3550  -30.0130 N   0  0  0  0  0  0  0  0  0  0  0  0
   -3.6850   24.1120  -29.8190 C   0  0  0  0  0  0  0  0  0  0  0  0
   -3.9010   25.3190  -30.5450 N   0  0  0  0  0  0  0  0  0  0  0  0
   -4.5660   23.7040  -29.0160 O   0  0  0  0  0  0  0  0  0  0  0  0
   -2.6300   26.0320  -28.9560 H   0  0  0  0  0  0  0  0  0  0  0  0
    0.7213   22.5412  -29.6032 H   0  0  0  0  0  0  0  0  0  0  0  0
    0.3263   20.1251  -31.0789 H   0  0  0  0  0  0  0  0  0  0  0  0
   -1.4274   18.7737  -32.2727 H   0  0  0  0  0  0  0  0  0  0  0  0
   -2.8229   18.0188  -33.8107 H   0  0  0  0  0  0  0  0  0  0  0  0
   -5.1080   17.0330  -34.5940 H   0  0  0  0  0  0  0  0  0  0  0  0
  -10.1390   18.8160  -32.0700 H   0  0  0  0  0  0  0  0  0  0  0  0
   -9.9950   19.0790  -33.8470 H   0  0  0  0  0  0  0  0  0  0  0  0
   -5.8999   21.1432  -31.1648 H   0  0  0  0  0  0  0  0  0  0  0  0
   -4.4107   21.8074  -31.3257 H   0  0  0  0  0  0  0  0  0  0  0  0
   -3.9110   26.2440  -30.0600 H   0  0  0  0  0  0  0  0  0  0  0  0
  1  2  1  0
  2  3  2  0
  2  4  1  0
  4  5  2  0
  5  6  1  0
  6  7  2  0
  7  8  1  0
  8  9  2  0
  9 10  1  0
 10 11  2  0
 11 12  1  0
 12 13  1  0
 13 14  2  0
 14 15  1  0
 15 16  1  0
 15 17  2  0
 17 18  1  0
 18 19  2  0
  9 20  1  0
 20 21  2  0
 21 22  1  0
 22 23  1  0
 23 24  1  0
 23 25  2  0
 22  4  1  0
 21  6  1  0
 19 10  1  0
 19 13  1  0
  1 26  1  0
  5 27  1  0
  7 28  1  0
  8 29  1  0
 11 30  1  0
 12 31  1  0
 16 32  1  0
 16 33  1  0
 18 34  1  0
 20 35  1  0
 24 36  1  0
M  CHG  2   1  -1  24  -1
M  END
>  <UniqueID>  (71) 
70

>  <SMILES>  (71) 
[NH-]C(=O)c1cc2ccc(-c3c[nH]c4nc(N)ncc34)cc2n1C([NH-])=O

>  <Energy>  (71) 
119.05909406543852

>  <Genealogy>  (71) 
[NH-]C(=O)c1cc2ccc(-c3c[nH]c4nc(N)ncc34)cc2n1C([NH-])=O (protonated)
[NH-]C(=O)c1cc2ccc(-c3c[nH]c4nc(N)ncc34)cc2n1C([NH-])=O (3D coordinates assigned)
[NH-]C(=O)c1cc2ccc(-c3c[nH]c4nc(N)ncc34)cc2n1C([NH-])=O (optimized conformer: 119.05909406543852 kcal/mol)

>  <smiles>  (71) 
NC(=O)c1cc2ccc(-c3c[nH]c4nc(N)ncc34)cc2n1C(N)=O

>  <score_type>  (71) 
oracle

>  <origin>  (71) 
adg

>  <m_score__min__energy>  (71) 
-11.5

>  <m_primary>  (71) 
energy

$$$$
71:0
     RDKit          3D

 39 40  0  0  0  0  0  0  0  0999 V2000
   -1.8130   24.6090  -26.1260 C   0  0  0  0  0  0  0  0  0  0  0  0
   -2.0030   25.1180  -27.5600 C   0  0  2  0  0  0  0  0  0  0  0  0
   -3.2160   24.5630  -28.1640 N   0  0  0  0  0  0  0  0  0  0  0  0
   -0.8070   24.7780  -28.4010 C   0  0  0  0  0  0  0  0  0  0  0  0
    0.3560   24.9200  -27.9330 O   0  0  0  0  0  0  0  0  0  0  0  0
   -0.9970   24.3250  -29.7110 O   0  0  0  0  0  0  0  0  0  0  0  0
   -1.4400   23.0070  -30.0160 C   0  0  0  0  0  0  0  0  0  0  0  0
   -2.6960   23.0680  -30.6840 O   0  0  0  0  0  0  0  0  0  0  0  0
   -3.7390   22.1780  -30.4130 C   0  0  0  0  0  0  0  0  0  0  0  0
   -3.5180   21.1150  -29.7720 O   0  0  0  0  0  0  0  0  0  0  0  0
   -5.0750   22.4920  -30.8420 N   0  0  0  0  0  0  0  0  0  0  0  0
   -5.7330   23.6770  -30.7080 C   0  0  0  0  0  0  0  0  0  0  0  0
   -5.1410   24.9470  -30.2430 C   0  0  0  0  0  0  0  0  0  0  0  0
   -3.8430   25.3320  -30.6890 N   0  0  0  0  0  0  0  0  0  0  0  0
   -5.7540   25.6790  -29.4220 O   0  0  0  0  0  0  0  0  0  0  0  0
   -7.0480   23.5610  -31.1540 C   0  0  0  0  0  0  0  0  0  0  0  0
   -7.1740   22.2570  -31.5780 C   0  0  0  0  0  0  0  0  0  0  0  0
   -8.2800   21.5890  -32.0940 C   0  0  0  0  0  0  0  0  0  0  0  0
   -8.1380   20.2280  -32.4110 C   0  0  0  0  0  0  0  0  0  0  0  0
   -6.8990   19.5630  -32.2180 C   0  0  0  0  0  0  0  0  0  0  0  0
   -6.7790   18.0880  -32.5040 C   0  0  0  0  0  0  0  0  0  0  0  0
   -5.8910   17.5230  -31.6080 F   0  0  0  0  0  0  0  0  0  0  0  0
   -6.3160   17.8750  -33.7910 F   0  0  0  0  0  0  0  0  0  0  0  0
   -8.0070   17.4630  -32.3780 F   0  0  0  0  0  0  0  0  0  0  0  0
   -5.8070   20.2730  -31.6680 C   0  0  0  0  0  0  0  0  0  0  0  0
   -5.9710   21.6320  -31.3790 C   0  0  0  0  0  0  0  0  0  0  0  0
   -2.1067   25.3959  -25.4157 H   0  0  0  0  0  0  0  0  0  0  0  0
   -2.4394   23.7189  -25.9668 H   0  0  0  0  0  0  0  0  0  0  0  0
   -0.7566   24.3471  -25.9668 H   0  0  0  0  0  0  0  0  0  0  0  0
   -2.1107   26.2118  -27.5161 H   0  0  0  0  0  0  0  0  0  0  0  0
   -2.9570   24.0990  -29.0660 H   0  0  0  0  0  0  0  0  0  0  0  0
   -3.8790   25.3380  -28.3950 H   0  0  0  0  0  0  0  0  0  0  0  0
   -0.7027   22.5144  -30.6669 H   0  0  0  0  0  0  0  0  0  0  0  0
   -1.5495   22.4334  -29.0838 H   0  0  0  0  0  0  0  0  0  0  0  0
   -2.9980   25.1420  -30.1050 H   0  0  0  0  0  0  0  0  0  0  0  0
   -7.8205   24.3440  -31.1650 H   0  0  0  0  0  0  0  0  0  0  0  0
   -9.2360   22.1105  -32.2489 H   0  0  0  0  0  0  0  0  0  0  0  0
   -8.9970   19.6711  -32.8135 H   0  0  0  0  0  0  0  0  0  0  0  0
   -4.8497   19.7680  -31.4717 H   0  0  0  0  0  0  0  0  0  0  0  0
  1  2  1  0
  2  3  1  0
  2  4  1  0
  4  5  2  0
  4  6  1  0
  6  7  1  0
  7  8  1  0
  8  9  1  0
  9 10  2  0
  9 11  1  0
 11 12  1  0
 12 13  1  0
 13 14  1  0
 13 15  2  0
 12 16  2  0
 16 17  1  0
 17 18  2  0
 18 19  1  0
 19 20  2  0
 20 21  1  0
 21 22  1  0
 21 23  1  0
 21 24  1  0
 20 25  1  0
 25 26  2  0
 26 11  1  0
 26 17  1  0
  1 27  1  0
  1 28  1  0
  1 29  1  0
  2 30  1  1
  3 31  1  0
  3 32  1  0
  7 33  1  0
  7 34  1  0
 14 35  1  0
 16 36  1  0
 18 37  1  0
 19 38  1  0
 25 39  1  0
M  CHG  1  14  -1
M  END
>  <UniqueID>  (72) 
71

>  <SMILES>  (72) 
C[C@H](N)C(=O)OCOC(=O)n1c(C([NH-])=O)cc2ccc(C(F)(F)F)cc21

>  <Energy>  (72) 
71.32712110958008

>  <Genealogy>  (72) 
CC(N)C(=O)OCOC(=O)n1c(C([NH-])=O)cc2ccc(C(F)(F)F)cc21 (protonated)
C[C@H](N)C(=O)OCOC(=O)n1c(C([NH-])=O)cc2ccc(C(F)(F)F)cc21 (chirality)
C[C@H](N)C(=O)OCOC(=O)n1c(C([NH-])=O)cc2ccc(C(F)(F)F)cc21 (3D coordinates assigned)
C[C@H](N)C(=O)OCOC(=O)n1c(C([NH-])=O)cc2ccc(C(F)(F)F)cc21 (optimized conformer: 71.32712110958008 kcal/mol)

>  <smiles>  (72) 
CC(N)C(=O)OCOC(=O)n1c(C(N)=O)cc2ccc(C(F)(F)F)cc21

>  <score_type>  (72) 
oracle

>  <origin>  (72) 
adg

>  <m_score__min__energy>  (72) 
-9.5999999999999996

>  <m_primary>  (72) 
energy

$$$$
72:0
     RDKit          3D

 40 42  0  0  0  0  0  0  0  0999 V2000
   -2.3510   21.2310  -31.4310 C   0  0  0  0  0  0  0  0  0  0  0  0
   -3.2050   22.1850  -32.0510 O   0  0  0  0  0  0  0  0  0  0  0  0
   -3.9870   23.0840  -31.3200 C   0  0  0  0  0  0  0  0  0  0  0  0
   -3.4410   24.0160  -30.6690 O   0  0  0  0  0  0  0  0  0  0  0  0
   -5.4180   22.9420  -31.3110 N   0  0  0  0  0  0  0  0  0  0  0  0
   -6.3380   23.8850  -30.9600 C   0  0  0  0  0  0  0  0  0  0  0  0
   -6.0410   25.1950  -30.3470 C   0  0  0  0  0  0  0  0  0  0  0  0
   -4.9890   26.0240  -30.8430 N   0  0  0  0  0  0  0  0  0  0  0  0
   -6.6920   25.5640  -29.3330 O   0  0  0  0  0  0  0  0  0  0  0  0
   -7.6290   23.4300  -31.2090 C   0  0  0  0  0  0  0  0  0  0  0  0
   -7.4760   22.1610  -31.7170 C   0  0  0  0  0  0  0  0  0  0  0  0
   -8.4350   21.2510  -32.1470 C   0  0  0  0  0  0  0  0  0  0  0  0
   -7.9930   20.0210  -32.6620 C   0  0  0  0  0  0  0  0  0  0  0  0
   -6.6070   19.7250  -32.7470 C   0  0  0  0  0  0  0  0  0  0  0  0
   -6.1520   18.4260  -33.3060 C   0  0  0  0  0  0  0  0  0  0  0  0
   -6.8840   17.2500  -33.0670 C   0  0  0  0  0  0  0  0  0  0  0  0
   -6.4560   16.0270  -33.5930 C   0  0  0  0  0  0  0  0  0  0  0  0
   -5.2850   15.9600  -34.3700 C   0  0  0  0  0  0  0  0  0  0  0  0
   -4.8140   14.7580  -34.9200 O   0  0  0  0  0  0  0  0  0  0  0  0
   -4.0510   13.7910  -34.2060 C   0  0  0  0  0  0  0  0  0  0  0  0
   -4.5560   17.1300  -34.6080 C   0  0  0  0  0  0  0  0  0  0  0  0
   -4.9820   18.3520  -34.0830 C   0  0  0  0  0  0  0  0  0  0  0  0
   -5.6630   20.6800  -32.2990 C   0  0  0  0  0  0  0  0  0  0  0  0
   -6.1330   21.8890  -31.7710 C   0  0  0  0  0  0  0  0  0  0  0  0
   -2.4324   21.3219  -30.3378 H   0  0  0  0  0  0  0  0  0  0  0  0
   -2.6493   20.2177  -31.7379 H   0  0  0  0  0  0  0  0  0  0  0  0
   -1.3110   21.4158  -31.7379 H   0  0  0  0  0  0  0  0  0  0  0  0
   -4.8210   26.9650  -30.4230 H   0  0  0  0  0  0  0  0  0  0  0  0
   -4.3260   25.6770  -31.5710 H   0  0  0  0  0  0  0  0  0  0  0  0
   -8.5715   23.9702  -31.0363 H   0  0  0  0  0  0  0  0  0  0  0  0
   -9.5076   21.4870  -32.0858 H   0  0  0  0  0  0  0  0  0  0  0  0
   -8.7293   19.2785  -33.0034 H   0  0  0  0  0  0  0  0  0  0  0  0
   -7.8012   17.2921  -32.4612 H   0  0  0  0  0  0  0  0  0  0  0  0
   -7.0373   15.1136  -33.3985 H   0  0  0  0  0  0  0  0  0  0  0  0
   -4.1767   13.9503  -33.1249 H   0  0  0  0  0  0  0  0  0  0  0  0
   -4.3985   12.7815  -34.4707 H   0  0  0  0  0  0  0  0  0  0  0  0
   -2.9883   13.8942  -34.4707 H   0  0  0  0  0  0  0  0  0  0  0  0
   -3.6390   17.0871  -35.2141 H   0  0  0  0  0  0  0  0  0  0  0  0
   -4.3981   19.2635  -34.2787 H   0  0  0  0  0  0  0  0  0  0  0  0
   -4.5839   20.4769  -32.3642 H   0  0  0  0  0  0  0  0  0  0  0  0
  1  2  1  0
  2  3  1  0
  3  4  2  0
  3  5  1  0
  5  6  1  0
  6  7  1  0
  7  8  1  0
  7  9  2  0
  6 10  2  0
 10 11  1  0
 11 12  2  0
 12 13  1  0
 13 14  2  0
 14 15  1  0
 15 16  2  0
 16 17  1  0
 17 18  2  0
 18 19  1  0
 19 20  1  0
 18 21  1  0
 21 22  2  0
 14 23  1  0
 23 24  2  0
 24  5  1  0
 24 11  1  0
 22 15  1  0
  1 25  1  0
  1 26  1  0
  1 27  1  0
  8 28  1  0
  8 29  1  0
 10 30  1  0
 12 31  1  0
 13 32  1  0
 16 33  1  0
 17 34  1  0
 20 35  1  0
 20 36  1  0
 20 37  1  0
 21 38  1  0
 22 39  1  0
 23 40  1  0
M  END
>  <UniqueID>  (73) 
72

>  <SMILES>  (73) 
COC(=O)n1c(C(N)=O)cc2ccc(-c3ccc(OC)cc3)cc21

>  <Energy>  (73) 
84.40147319244355

>  <Genealogy>  (73) 
COC(=O)n1c(C(N)=O)cc2ccc(-c3ccc(OC)cc3)cc21 (3D coordinates assigned)
COC(=O)n1c(C(N)=O)cc2ccc(-c3ccc(OC)cc3)cc21 (optimized conformer: 84.40147319244355 kcal/mol)

>  <smiles>  (73) 
COC(=O)n1c(C(N)=O)cc2ccc(-c3ccc(OC)cc3)cc21

>  <score_type>  (73) 
oracle

>  <origin>  (73) 
adg

>  <m_score__min__energy>  (73) 
-8.1600000000000001

>  <m_primary>  (73) 
energy

$$$$
73:0
     RDKit          3D

 41 43  0  0  0  0  0  0  0  0999 V2000
   -9.3310   22.0070  -31.9180 C   0  0  0  0  0  0  0  0  0  0  0  0
   -8.3550   23.0210  -31.7160 O   0  0  0  0  0  0  0  0  0  0  0  0
   -7.3450   22.9140  -30.7560 C   0  0  0  0  0  0  0  0  0  0  0  0
   -7.6130   23.0660  -29.5320 O   0  0  0  0  0  0  0  0  0  0  0  0
   -5.9950   22.6320  -31.1630 N   0  0  0  0  0  0  0  0  0  0  0  0
   -4.9070   23.4430  -31.0450 C   0  0  0  0  0  0  0  0  0  0  0  0
   -4.8600   24.7300  -30.3220 C   0  0  0  0  0  0  0  0  0  0  0  0
   -5.5340   24.9020  -29.0750 N   0  0  0  0  0  0  0  0  0  0  0  0
   -4.1670   25.6750  -30.7840 O   0  0  0  0  0  0  0  0  0  0  0  0
   -3.7990   22.8730  -31.6660 C   0  0  0  0  0  0  0  0  0  0  0  0
   -4.2410   21.6690  -32.1610 C   0  0  0  0  0  0  0  0  0  0  0  0
   -3.5570   20.6940  -32.8790 C   0  0  0  0  0  0  0  0  0  0  0  0
   -4.2710   19.5610  -33.2980 C   0  0  0  0  0  0  0  0  0  0  0  0
   -5.6570   19.4250  -33.0140 C   0  0  0  0  0  0  0  0  0  0  0  0
   -6.4360   18.1910  -33.4460 C   0  0  0  0  0  0  0  0  0  0  0  0
   -6.8370   17.3240  -32.2320 C   0  0  0  0  0  0  0  0  0  0  0  0
   -5.7380   16.3330  -31.8030 C   0  0  0  0  0  0  0  0  0  0  0  0
   -5.0560   15.6430  -32.9200 N   0  0  0  0  0  0  0  0  0  0  0  0
   -5.6610   15.8820  -34.2370 C   0  0  0  0  0  0  0  0  0  0  0  0
   -5.7110   17.3810  -34.5540 C   0  0  0  0  0  0  0  0  0  0  0  0
   -6.3120   20.4390  -32.2740 C   0  0  0  0  0  0  0  0  0  0  0  0
   -5.5700   21.5470  -31.8490 C   0  0  0  0  0  0  0  0  0  0  0  0
   -9.6849   21.6394  -30.9435 H   0  0  0  0  0  0  0  0  0  0  0  0
  -10.1787   22.4214  -32.4834 H   0  0  0  0  0  0  0  0  0  0  0  0
   -8.8845   21.1757  -32.4834 H   0  0  0  0  0  0  0  0  0  0  0  0
   -5.5220   25.8310  -28.5970 H   0  0  0  0  0  0  0  0  0  0  0  0
   -5.9710   24.0930  -28.5810 H   0  0  0  0  0  0  0  0  0  0  0  0
   -2.7864   23.2956  -31.7439 H   0  0  0  0  0  0  0  0  0  0  0  0
   -2.4879   20.8076  -33.1116 H   0  0  0  0  0  0  0  0  0  0  0  0
   -3.7508   18.7671  -33.8540 H   0  0  0  0  0  0  0  0  0  0  0  0
   -7.3697   18.5444  -33.9080 H   0  0  0  0  0  0  0  0  0  0  0  0
   -7.0572   17.9899  -31.3846 H   0  0  0  0  0  0  0  0  0  0  0  0
   -7.7136   16.7302  -32.5303 H   0  0  0  0  0  0  0  0  0  0  0  0
   -4.9808   16.8884  -31.2302 H   0  0  0  0  0  0  0  0  0  0  0  0
   -6.2387   15.5502  -31.2143 H   0  0  0  0  0  0  0  0  0  0  0  0
   -4.0570   15.9540  -32.9560 H   0  0  0  0  0  0  0  0  0  0  0  0
   -5.0626   15.3714  -35.0059 H   0  0  0  0  0  0  0  0  0  0  0  0
   -6.6892   15.4912  -34.2268 H   0  0  0  0  0  0  0  0  0  0  0  0
   -4.6818   17.7569  -34.6516 H   0  0  0  0  0  0  0  0  0  0  0  0
   -6.2747   17.5095  -35.4898 H   0  0  0  0  0  0  0  0  0  0  0  0
   -7.3832   20.3575  -32.0377 H   0  0  0  0  0  0  0  0  0  0  0  0
  1  2  1  0
  2  3  1  0
  3  4  2  0
  3  5  1  0
  5  6  1  0
  6  7  1  0
  7  8  1  0
  7  9  2  0
  6 10  2  0
 10 11  1  0
 11 12  2  0
 12 13  1  0
 13 14  2  0
 14 15  1  0
 15 16  1  0
 16 17  1  0
 17 18  1  0
 18 19  1  0
 19 20  1  0
 14 21  1  0
 21 22  2  0
 22  5  1  0
 22 11  1  0
 20 15  1  0
  1 23  1  0
  1 24  1  0
  1 25  1  0
  8 26  1  0
  8 27  1  0
 10 28  1  0
 12 29  1  0
 13 30  1  0
 15 31  1  0
 16 32  1  0
 16 33  1  0
 17 34  1  0
 17 35  1  0
 18 36  1  0
 19 37  1  0
 19 38  1  0
 20 39  1  0
 20 40  1  0
 21 41  1  0
M  END
>  <UniqueID>  (74) 
73

>  <SMILES>  (74) 
COC(=O)n1c(C(N)=O)cc2ccc(C3CCNCC3)cc21

>  <Energy>  (74) 
88.38726289280588

>  <Genealogy>  (74) 
COC(=O)n1c(C(N)=O)cc2ccc(C3CCNCC3)cc21 (3D coordinates assigned)
COC(=O)n1c(C(N)=O)cc2ccc(C3CCNCC3)cc21 (nonaromatic ring conformer: 88.38726289280588 kcal/mol)

>  <smiles>  (74) 
COC(=O)n1c(C(N)=O)cc2ccc(C3CCNCC3)cc21

>  <score_type>  (74) 
oracle

>  <origin>  (74) 
adg

>  <m_score__min__energy>  (74) 
-9.3100000000000005

>  <m_primary>  (74) 
energy

$$$$
74:0
     RDKit          3D

 43 45  0  0  0  0  0  0  0  0999 V2000
   -1.2320   25.3500  -29.1130 N   0  0  0  0  0  0  0  0  0  0  0  0
   -0.9060   23.9610  -29.0760 C   0  0  0  0  0  0  0  0  0  0  0  0
   -0.1240   23.5320  -28.1860 O   0  0  0  0  0  0  0  0  0  0  0  0
   -1.5190   23.0060  -30.0220 C   0  0  0  0  0  0  0  0  0  0  0  0
   -0.8450   21.9050  -30.5410 C   0  0  0  0  0  0  0  0  0  0  0  0
   -1.7700   21.2450  -31.3150 C   0  0  0  0  0  0  0  0  0  0  0  0
   -1.6360   20.0850  -32.0730 C   0  0  0  0  0  0  0  0  0  0  0  0
   -2.7500   19.6440  -32.8050 C   0  0  0  0  0  0  0  0  0  0  0  0
   -3.9630   20.3750  -32.7830 C   0  0  0  0  0  0  0  0  0  0  0  0
   -5.1590   19.8810  -33.5530 C   0  0  0  0  0  0  0  0  0  0  0  0
   -6.4040   20.6990  -33.1980 C   0  0  0  0  0  0  0  0  0  0  0  0
   -6.8340   20.3910  -31.8130 N   0  0  0  0  0  0  0  0  0  0  0  0
   -7.4220   21.5450  -31.0840 C   0  0  0  0  0  0  0  0  0  0  0  0
   -8.9650   21.5410  -31.0350 C   0  0  0  0  0  0  0  0  0  0  0  0
   -9.5610   20.8300  -32.2460 C   0  0  0  0  0  0  0  0  0  0  0  0
   -9.0820   19.3720  -32.3190 C   0  0  0  0  0  0  0  0  0  0  0  0
   -7.6700   19.1740  -31.7250 C   0  0  0  0  0  0  0  0  0  0  0  0
   -4.0660   21.5440  -31.9960 C   0  0  0  0  0  0  0  0  0  0  0  0
   -2.9460   21.9490  -31.2570 C   0  0  0  0  0  0  0  0  0  0  0  0
   -2.8080   23.0370  -30.4660 N   0  0  0  0  0  0  0  0  0  0  0  0
   -3.7840   24.0690  -30.2460 C   0  0  0  0  0  0  0  0  0  0  0  0
   -3.4940   25.2760  -30.4650 O   0  0  0  0  0  0  0  0  0  0  0  0
   -5.0570   23.7500  -29.7920 O   0  0  0  0  0  0  0  0  0  0  0  0
   -2.0000   25.7080  -29.7230 H   0  0  0  0  0  0  0  0  0  0  0  0
   -0.7600   26.0160  -28.4620 H   0  0  0  0  0  0  0  0  0  0  0  0
    0.2041   21.6228  -30.3688 H   0  0  0  0  0  0  0  0  0  0  0  0
   -0.6862   19.5308  -32.0977 H   0  0  0  0  0  0  0  0  0  0  0  0
   -2.6801   18.7222  -33.4011 H   0  0  0  0  0  0  0  0  0  0  0  0
   -4.9594   19.9756  -34.6306 H   0  0  0  0  0  0  0  0  0  0  0  0
   -5.3397   18.8282  -33.2905 H   0  0  0  0  0  0  0  0  0  0  0  0
   -6.1705   21.7710  -33.2772 H   0  0  0  0  0  0  0  0  0  0  0  0
   -7.2160   20.4420  -33.8942 H   0  0  0  0  0  0  0  0  0  0  0  0
   -7.0438   21.5299  -30.0512 H   0  0  0  0  0  0  0  0  0  0  0  0
   -7.1249   22.4509  -31.6327 H   0  0  0  0  0  0  0  0  0  0  0  0
   -9.2922   21.0246  -30.1205 H   0  0  0  0  0  0  0  0  0  0  0  0
   -9.3132   22.5844  -31.0415 H   0  0  0  0  0  0  0  0  0  0  0  0
  -10.6581   20.8448  -32.1679 H   0  0  0  0  0  0  0  0  0  0  0  0
   -9.2325   21.3529  -33.1563 H   0  0  0  0  0  0  0  0  0  0  0  0
   -9.7895   18.7415  -31.7605 H   0  0  0  0  0  0  0  0  0  0  0  0
   -9.0358   19.0920  -33.3818 H   0  0  0  0  0  0  0  0  0  0  0  0
   -7.7706   18.8928  -30.6663 H   0  0  0  0  0  0  0  0  0  0  0  0
   -7.1720   18.3877  -32.3112 H   0  0  0  0  0  0  0  0  0  0  0  0
   -5.0016   22.1216  -31.9641 H   0  0  0  0  0  0  0  0  0  0  0  0
  1  2  1  0
  2  3  2  0
  2  4  1  0
  4  5  2  0
  5  6  1  0
  6  7  2  0
  7  8  1  0
  8  9  2  0
  9 10  1  0
 10 11  1  0
 11 12  1  0
 12 13  1  0
 13 14  1  0
 14 15  1  0
 15 16  1  0
 16 17  1  0
  9 18  1  0
 18 19  2  0
 19 20  1  0
 20 21  1  0
 21 22  2  0
 21 23  1  0
 20  4  1  0
 19  6  1  0
 17 12  1  0
  1 24  1  0
  1 25  1  0
  5 26  1  0
  7 27  1  0
  8 28  1  0
 10 29  1  0
 10 30  1  0
 11 31  1  0
 11 32  1  0
 13 33  1  0
 13 34  1  0
 14 35  1  0
 14 36  1  0
 15 37  1  0
 15 38  1  0
 16 39  1  0
 16 40  1  0
 17 41  1  0
 17 42  1  0
 18 43  1  0
M  CHG  1  23  -1
M  END
>  <UniqueID>  (75) 
74

>  <SMILES>  (75) 
NC(=O)c1cc2ccc(CCN3CCCCC3)cc2n1C(=O)[O-]

>  <Energy>  (75) 
91.45902315711386

>  <Genealogy>  (75) 
NC(=O)c1cc2ccc(CCN3CCCCC3)cc2n1C(=O)[O-] (protonated)
NC(=O)c1cc2ccc(CCN3CCCCC3)cc2n1C(=O)[O-] (3D coordinates assigned)
NC(=O)c1cc2ccc(CCN3CCCCC3)cc2n1C(=O)[O-] (nonaromatic ring conformer: 91.45902315711386 kcal/mol)

>  <smiles>  (75) 
NC(=O)c1cc2ccc(CCN3CCCCC3)cc2n1C(=O)O

>  <score_type>  (75) 
oracle

>  <origin>  (75) 
adg

>  <m_score__min__energy>  (75) 
-9.8699999999999992

>  <m_primary>  (75) 
energy

$$$$
75:0
     RDKit          3D

 53 55  0  0  0  0  0  0  0  0999 V2000
   -0.9480   16.5590  -32.5560 C   0  0  0  0  0  0  0  0  0  0  0  0
   -2.1750   16.3190  -33.2100 O   0  0  0  0  0  0  0  0  0  0  0  0
   -1.9470   16.1700  -34.5950 C   0  0  0  0  0  0  0  0  0  0  0  0
   -3.1320   15.4370  -35.2200 C   0  0  0  0  0  0  0  0  0  0  0  0
   -4.3440   15.6310  -34.3920 N   0  0  0  0  0  0  0  0  0  0  0  0
   -5.0780   14.3580  -34.2000 C   0  0  0  0  0  0  0  0  0  0  0  0
   -5.0260   13.9270  -32.7340 C   0  0  0  0  0  0  0  0  0  0  0  0
   -4.3410   14.8900  -31.9820 O   0  0  0  0  0  0  0  0  0  0  0  0
   -5.2230   16.6710  -34.9710 C   0  0  0  0  0  0  0  0  0  0  0  0
   -5.4800   17.7510  -33.9550 C   0  0  0  0  0  0  0  0  0  0  0  0
   -6.7960   18.0410  -33.5650 C   0  0  0  0  0  0  0  0  0  0  0  0
   -7.0460   19.0310  -32.6130 C   0  0  0  0  0  0  0  0  0  0  0  0
   -5.9870   19.7410  -32.0430 C   0  0  0  0  0  0  0  0  0  0  0  0
   -4.6600   19.4660  -32.4190 C   0  0  0  0  0  0  0  0  0  0  0  0
   -3.5340   20.2190  -31.8130 C   0  0  0  0  0  0  0  0  0  0  0  0
   -2.2200   19.6830  -31.8310 C   0  0  0  0  0  0  0  0  0  0  0  0
   -1.1460   20.3930  -31.2680 C   0  0  0  0  0  0  0  0  0  0  0  0
   -1.4130   21.6280  -30.6870 C   0  0  0  0  0  0  0  0  0  0  0  0
   -0.5580   22.5310  -30.0970 C   0  0  0  0  0  0  0  0  0  0  0  0
   -1.3630   23.5960  -29.7010 C   0  0  0  0  0  0  0  0  0  0  0  0
   -0.8570   24.7560  -28.9420 C   0  0  0  0  0  0  0  0  0  0  0  0
   -1.5570   25.9980  -28.9500 N   0  0  0  0  0  0  0  0  0  0  0  0
    0.1810   24.6370  -28.2400 O   0  0  0  0  0  0  0  0  0  0  0  0
   -2.6630   23.3660  -30.0410 N   0  0  0  0  0  0  0  0  0  0  0  0
   -3.7800   24.2580  -29.8890 C   0  0  0  0  0  0  0  0  0  0  0  0
   -3.8580   25.3040  -30.5860 O   0  0  0  0  0  0  0  0  0  0  0  0
   -4.7690   23.9900  -28.9510 O   0  0  0  0  0  0  0  0  0  0  0  0
   -2.6770   22.1560  -30.6420 C   0  0  0  0  0  0  0  0  0  0  0  0
   -3.7620   21.4810  -31.2130 C   0  0  0  0  0  0  0  0  0  0  0  0
   -4.4170   18.4660  -33.3810 C   0  0  0  0  0  0  0  0  0  0  0  0
   -1.1009   16.5291  -31.4671 H   0  0  0  0  0  0  0  0  0  0  0  0
   -0.2209   15.7861  -32.8455 H   0  0  0  0  0  0  0  0  0  0  0  0
   -0.5657   17.5489  -32.8455 H   0  0  0  0  0  0  0  0  0  0  0  0
   -1.8404   17.1614  -35.0596 H   0  0  0  0  0  0  0  0  0  0  0  0
   -1.0254   15.5924  -34.7590 H   0  0  0  0  0  0  0  0  0  0  0  0
   -3.3138   15.8337  -36.2297 H   0  0  0  0  0  0  0  0  0  0  0  0
   -2.9022   14.3627  -35.2759 H   0  0  0  0  0  0  0  0  0  0  0  0
   -6.1273   14.4961  -34.4999 H   0  0  0  0  0  0  0  0  0  0  0  0
   -4.6072   13.5787  -34.8173 H   0  0  0  0  0  0  0  0  0  0  0  0
   -6.0504   13.8221  -32.3473 H   0  0  0  0  0  0  0  0  0  0  0  0
   -4.5010   12.9635  -32.6563 H   0  0  0  0  0  0  0  0  0  0  0  0
   -3.8940   15.4850  -32.6380 H   0  0  0  0  0  0  0  0  0  0  0  0
   -4.7354   17.1099  -35.8540 H   0  0  0  0  0  0  0  0  0  0  0  0
   -6.1802   16.2139  -35.2623 H   0  0  0  0  0  0  0  0  0  0  0  0
   -7.6344   17.4860  -34.0112 H   0  0  0  0  0  0  0  0  0  0  0  0
   -8.0802   19.2525  -32.3109 H   0  0  0  0  0  0  0  0  0  0  0  0
   -6.1922   20.5207  -31.2947 H   0  0  0  0  0  0  0  0  0  0  0  0
   -2.0402   18.7002  -32.2911 H   0  0  0  0  0  0  0  0  0  0  0  0
   -0.1249   19.9843  -31.2863 H   0  0  0  0  0  0  0  0  0  0  0  0
    0.5297   22.4324  -29.9662 H   0  0  0  0  0  0  0  0  0  0  0  0
   -2.6000   26.0260  -28.9660 H   0  0  0  0  0  0  0  0  0  0  0  0
   -4.7699   21.9214  -31.1960 H   0  0  0  0  0  0  0  0  0  0  0  0
   -3.3838   18.2431  -33.6855 H   0  0  0  0  0  0  0  0  0  0  0  0
  1  2  1  0
  2  3  1  0
  3  4  1  0
  4  5  1  0
  5  6  1  0
  6  7  1  0
  7  8  1  0
  5  9  1  0
  9 10  1  0
 10 11  2  0
 11 12  1  0
 12 13  2  0
 13 14  1  0
 14 15  1  0
 15 16  2  0
 16 17  1  0
 17 18  2  0
 18 19  1  0
 19 20  2  0
 20 21  1  0
 21 22  1  0
 21 23  2  0
 20 24  1  0
 24 25  1  0
 25 26  2  0
 25 27  1  0
 24 28  1  0
 28 29  2  0
 14 30  2  0
 30 10  1  0
 29 15  1  0
 28 18  1  0
  1 31  1  0
  1 32  1  0
  1 33  1  0
  3 34  1  0
  3 35  1  0
  4 36  1  0
  4 37  1  0
  6 38  1  0
  6 39  1  0
  7 40  1  0
  7 41  1  0
  8 42  1  0
  9 43  1  0
  9 44  1  0
 11 45  1  0
 12 46  1  0
 13 47  1  0
 16 48  1  0
 17 49  1  0
 19 50  1  0
 22 51  1  0
 29 52  1  0
 30 53  1  0
M  CHG  2  22  -1  27  -1
M  END
>  <UniqueID>  (76) 
75

>  <SMILES>  (76) 
COCCN(CCO)Cc1cccc(-c2ccc3cc(C([NH-])=O)n(C(=O)[O-])c3c2)c1

>  <Energy>  (76) 
98.67731508392382

>  <Genealogy>  (76) 
COCCN(CCO)Cc1cccc(-c2ccc3cc(C([NH-])=O)n(C(=O)[O-])c3c2)c1 (protonated)
COCCN(CCO)Cc1cccc(-c2ccc3cc(C([NH-])=O)n(C(=O)[O-])c3c2)c1 (3D coordinates assigned)
COCCN(CCO)Cc1cccc(-c2ccc3cc(C([NH-])=O)n(C(=O)[O-])c3c2)c1 (optimized conformer: 98.67731508392382 kcal/mol)

>  <smiles>  (76) 
COCCN(CCO)Cc1cccc(-c2ccc3cc(C(N)=O)n(C(=O)O)c3c2)c1

>  <score_type>  (76) 
oracle

>  <origin>  (76) 
adg

>  <m_score__min__energy>  (76) 
-11.65

>  <m_primary>  (76) 
energy

$$$$
76:0
     RDKit          3D

 42 44  0  0  0  0  0  0  0  0999 V2000
   -1.5490   25.9720  -28.9040 N   0  0  0  0  0  0  0  0  0  0  0  0
   -0.8880   24.7100  -28.9630 C   0  0  0  0  0  0  0  0  0  0  0  0
    0.2170   24.5650  -28.3750 O   0  0  0  0  0  0  0  0  0  0  0  0
   -1.5240   23.5790  -29.6690 C   0  0  0  0  0  0  0  0  0  0  0  0
   -0.8430   22.4150  -30.0190 C   0  0  0  0  0  0  0  0  0  0  0  0
   -1.7490   21.6610  -30.7290 C   0  0  0  0  0  0  0  0  0  0  0  0
   -1.6070   20.4020  -31.3060 C   0  0  0  0  0  0  0  0  0  0  0  0
   -2.7220   19.8460  -31.9550 C   0  0  0  0  0  0  0  0  0  0  0  0
   -3.9500   20.5510  -32.0120 C   0  0  0  0  0  0  0  0  0  0  0  0
   -5.1530   19.9310  -32.6760 C   0  0  0  0  0  0  0  0  0  0  0  0
   -6.1900   20.9870  -33.0890 C   0  0  0  0  0  0  0  0  0  0  0  0
   -7.5720   20.7290  -32.4420 C   0  0  0  0  0  0  0  0  0  0  0  0
   -8.2090   21.9340  -31.8590 N   0  0  0  0  0  0  0  0  0  0  0  0
   -8.1140   21.9980  -30.3920 C   0  0  0  0  0  0  0  0  0  0  0  0
   -7.2280   23.1820  -30.0170 C   0  0  0  0  0  0  0  0  0  0  0  0
   -6.7800   23.8020  -31.3280 C   0  0  0  0  0  0  0  0  0  0  0  0
   -7.6870   23.2000  -32.3850 C   0  0  0  0  0  0  0  0  0  0  0  0
   -4.0560   21.8260  -31.4130 C   0  0  0  0  0  0  0  0  0  0  0  0
   -2.9240   22.3640  -30.7880 C   0  0  0  0  0  0  0  0  0  0  0  0
   -2.8050   23.5420  -30.1380 N   0  0  0  0  0  0  0  0  0  0  0  0
   -3.8450   24.5140  -29.9400 C   0  0  0  0  0  0  0  0  0  0  0  0
   -4.7320   24.3290  -29.0660 O   0  0  0  0  0  0  0  0  0  0  0  0
   -3.8960   25.6570  -30.7280 O   0  0  0  0  0  0  0  0  0  0  0  0
   -2.5890   26.0360  -28.9680 H   0  0  0  0  0  0  0  0  0  0  0  0
    0.1982   22.1541  -29.7787 H   0  0  0  0  0  0  0  0  0  0  0  0
   -0.6515   19.8595  -31.2553 H   0  0  0  0  0  0  0  0  0  0  0  0
   -2.6411   18.8540  -32.4234 H   0  0  0  0  0  0  0  0  0  0  0  0
   -4.8227   19.3875  -33.5735 H   0  0  0  0  0  0  0  0  0  0  0  0
   -5.6285   19.2523  -31.9526 H   0  0  0  0  0  0  0  0  0  0  0  0
   -5.8310   21.9784  -32.7756 H   0  0  0  0  0  0  0  0  0  0  0  0
   -6.3116   20.9338  -34.1810 H   0  0  0  0  0  0  0  0  0  0  0  0
   -8.2432   20.3242  -33.2138 H   0  0  0  0  0  0  0  0  0  0  0  0
   -7.4039   20.0289  -31.6104 H   0  0  0  0  0  0  0  0  0  0  0  0
   -9.1168   22.1333  -29.9605 H   0  0  0  0  0  0  0  0  0  0  0  0
   -7.6827   21.0648  -30.0005 H   0  0  0  0  0  0  0  0  0  0  0  0
   -7.7975   23.9126  -29.4237 H   0  0  0  0  0  0  0  0  0  0  0  0
   -6.3691   22.8649  -29.4073 H   0  0  0  0  0  0  0  0  0  0  0  0
   -6.8968   24.8953  -31.2971 H   0  0  0  0  0  0  0  0  0  0  0  0
   -5.7185   23.6015  -31.5354 H   0  0  0  0  0  0  0  0  0  0  0  0
   -8.5186   23.8872  -32.6001 H   0  0  0  0  0  0  0  0  0  0  0  0
   -7.1294   23.0281  -33.3175 H   0  0  0  0  0  0  0  0  0  0  0  0
   -5.0045   22.3826  -31.4369 H   0  0  0  0  0  0  0  0  0  0  0  0
  1  2  1  0
  2  3  2  0
  2  4  1  0
  4  5  2  0
  5  6  1  0
  6  7  2  0
  7  8  1  0
  8  9  2  0
  9 10  1  0
 10 11  1  0
 11 12  1  0
 12 13  1  0
 13 14  1  0
 14 15  1  0
 15 16  1  0
 16 17  1  0
  9 18  1  0
 18 19  2  0
 19 20  1  0
 20 21  1  0
 21 22  2  0
 21 23  1  0
 20  4  1  0
 19  6  1  0
 17 13  1  0
  1 24  1  0
  5 25  1  0
  7 26  1  0
  8 27  1  0
 10 28  1  0
 10 29  1  0
 11 30  1  0
 11 31  1  0
 12 32  1  0
 12 33  1  0
 14 34  1  0
 14 35  1  0
 15 36  1  0
 15 37  1  0
 16 38  1  0
 16 39  1  0
 17 40  1  0
 17 41  1  0
 18 42  1  0
M  CHG  2   1  -1  23  -1
M  END
>  <UniqueID>  (77) 
76

>  <SMILES>  (77) 
[NH-]C(=O)c1cc2ccc(CCCN3CCCC3)cc2n1C(=O)[O-]

>  <Energy>  (77) 
84.11970841008613

>  <Genealogy>  (77) 
[NH-]C(=O)c1cc2ccc(CCCN3CCCC3)cc2n1C(=O)[O-] (protonated)
[NH-]C(=O)c1cc2ccc(CCCN3CCCC3)cc2n1C(=O)[O-] (3D coordinates assigned)
[NH-]C(=O)c1cc2ccc(CCCN3CCCC3)cc2n1C(=O)[O-] (nonaromatic ring conformer: 84.11970841008613 kcal/mol)

>  <smiles>  (77) 
NC(=O)c1cc2ccc(CCCN3CCCC3)cc2n1C(=O)O

>  <score_type>  (77) 
oracle

>  <origin>  (77) 
adg

>  <m_score__min__energy>  (77) 
-12.1

>  <m_primary>  (77) 
energy

$$$$
77:0
     RDKit          3D

 31 32  0  0  0  0  0  0  0  0999 V2000
   -3.1880   22.2390  -29.9280 C   0  0  0  0  0  0  0  0  0  0  0  0
   -3.9400   22.3940  -31.2120 C   0  0  0  0  0  0  0  0  0  0  0  0
   -3.3180   22.3130  -32.3040 O   0  0  0  0  0  0  0  0  0  0  0  0
   -5.3390   22.7130  -31.2110 N   0  0  0  0  0  0  0  0  0  0  0  0
   -5.9300   23.9080  -30.9290 C   0  0  0  0  0  0  0  0  0  0  0  0
   -5.2490   25.1090  -30.4040 C   0  0  0  0  0  0  0  0  0  0  0  0
   -3.8500   25.3000  -30.5930 N   0  0  0  0  0  0  0  0  0  0  0  0
   -5.9040   25.9610  -29.7440 O   0  0  0  0  0  0  0  0  0  0  0  0
   -7.3090   23.8290  -31.1270 C   0  0  0  0  0  0  0  0  0  0  0  0
   -7.5440   22.5340  -31.5330 C   0  0  0  0  0  0  0  0  0  0  0  0
   -8.7370   21.9060  -31.8810 C   0  0  0  0  0  0  0  0  0  0  0  0
   -8.6790   20.5620  -32.2870 C   0  0  0  0  0  0  0  0  0  0  0  0
   -7.4390   19.8750  -32.3340 C   0  0  0  0  0  0  0  0  0  0  0  0
   -7.3870   18.4470  -32.8110 C   0  0  0  0  0  0  0  0  0  0  0  0
   -6.1960   18.2160  -33.7400 C   0  0  0  0  0  0  0  0  0  0  0  0
   -6.1000   19.2590  -34.6700 O   0  0  0  0  0  0  0  0  0  0  0  0
   -6.2490   20.5490  -31.9830 C   0  0  0  0  0  0  0  0  0  0  0  0
   -6.3400   21.8830  -31.5720 C   0  0  0  0  0  0  0  0  0  0  0  0
   -3.8755   22.3807  -29.0811 H   0  0  0  0  0  0  0  0  0  0  0  0
   -2.7491   21.2315  -29.8794 H   0  0  0  0  0  0  0  0  0  0  0  0
   -2.3865   22.9908  -29.8794 H   0  0  0  0  0  0  0  0  0  0  0  0
   -3.4900   26.0510  -31.2220 H   0  0  0  0  0  0  0  0  0  0  0  0
   -8.0501   24.6299  -30.9884 H   0  0  0  0  0  0  0  0  0  0  0  0
   -9.6949   22.4451  -31.8394 H   0  0  0  0  0  0  0  0  0  0  0  0
   -9.6036   20.0380  -32.5709 H   0  0  0  0  0  0  0  0  0  0  0  0
   -7.2967   17.7812  -31.9401 H   0  0  0  0  0  0  0  0  0  0  0  0
   -8.3102   18.2333  -33.3696 H   0  0  0  0  0  0  0  0  0  0  0  0
   -5.2725   18.1744  -33.1438 H   0  0  0  0  0  0  0  0  0  0  0  0
   -6.3383   17.2670  -34.2777 H   0  0  0  0  0  0  0  0  0  0  0  0
   -7.0210   19.4150  -35.0040 H   0  0  0  0  0  0  0  0  0  0  0  0
   -5.2759   20.0385  -32.0315 H   0  0  0  0  0  0  0  0  0  0  0  0
  1  2  1  0
  2  3  2  0
  2  4  1  0
  4  5  1  0
  5  6  1  0
  6  7  1  0
  6  8  2  0
  5  9  2  0
  9 10  1  0
 10 11  2  0
 11 12  1  0
 12 13  2  0
 13 14  1  0
 14 15  1  0
 15 16  1  0
 13 17  1  0
 17 18  2  0
 18  4  1  0
 18 10  1  0
  1 19  1  0
  1 20  1  0
  1 21  1  0
  7 22  1  0
  9 23  1  0
 11 24  1  0
 12 25  1  0
 14 26  1  0
 14 27  1  0
 15 28  1  0
 15 29  1  0
 16 30  1  0
 17 31  1  0
M  CHG  1   7  -1
M  END
>  <UniqueID>  (78) 
77

>  <SMILES>  (78) 
CC(=O)n1c(C([NH-])=O)cc2ccc(CCO)cc21

>  <Energy>  (78) 
67.10754492204879

>  <Genealogy>  (78) 
CC(=O)n1c(C([NH-])=O)cc2ccc(CCO)cc21 (protonated)
CC(=O)n1c(C([NH-])=O)cc2ccc(CCO)cc21 (3D coordinates assigned)
CC(=O)n1c(C([NH-])=O)cc2ccc(CCO)cc21 (optimized conformer: 67.10754492204879 kcal/mol)

>  <smiles>  (78) 
CC(=O)n1c(C(N)=O)cc2ccc(CCO)cc21

>  <score_type>  (78) 
oracle

>  <origin>  (78) 
adg

>  <m_score__min__energy>  (78) 
-9.9700000000000006

>  <m_primary>  (78) 
energy

$$$$
78:0
     RDKit          3D

 31 32  0  0  0  0  0  0  0  0999 V2000
   -3.7530   25.2780  -30.3530 N   0  0  0  0  0  0  0  0  0  0  0  0
   -5.1690   25.2810  -30.5120 C   0  0  0  0  0  0  0  0  0  0  0  0
   -5.7960   26.3710  -30.4320 O   0  0  0  0  0  0  0  0  0  0  0  0
   -5.9050   24.0340  -30.8090 C   0  0  0  0  0  0  0  0  0  0  0  0
   -7.2340   23.8190  -30.4440 C   0  0  0  0  0  0  0  0  0  0  0  0
   -7.5580   22.5840  -30.9550 C   0  0  0  0  0  0  0  0  0  0  0  0
   -8.7450   21.8610  -30.8690 C   0  0  0  0  0  0  0  0  0  0  0  0
   -8.7840   20.5860  -31.4580 C   0  0  0  0  0  0  0  0  0  0  0  0
   -7.6450   20.0600  -32.1170 C   0  0  0  0  0  0  0  0  0  0  0  0
   -7.6850   18.6720  -32.6990 C   0  0  0  0  0  0  0  0  0  0  0  0
   -6.2670   18.1200  -32.8650 C   0  0  0  0  0  0  0  0  0  0  0  0
   -5.6570   18.6170  -34.1380 C   0  0  0  0  0  0  0  0  0  0  0  0
   -5.9020   18.0370  -35.2270 O   0  0  0  0  0  0  0  0  0  0  0  0
   -4.7760   19.6910  -34.1130 O   0  0  0  0  0  0  0  0  0  0  0  0
   -6.4540   20.8170  -32.1730 C   0  0  0  0  0  0  0  0  0  0  0  0
   -6.4510   22.0910  -31.5960 C   0  0  0  0  0  0  0  0  0  0  0  0
   -5.4280   22.9710  -31.5160 N   0  0  0  0  0  0  0  0  0  0  0  0
   -4.0930   22.7670  -32.0040 C   0  0  0  0  0  0  0  0  0  0  0  0
   -3.8740   22.1330  -33.2640 N   0  0  0  0  0  0  0  0  0  0  0  0
   -3.1070   23.1420  -31.3160 O   0  0  0  0  0  0  0  0  0  0  0  0
   -3.1190   25.3250  -31.1820 H   0  0  0  0  0  0  0  0  0  0  0  0
   -7.8850   24.4942  -29.8692 H   0  0  0  0  0  0  0  0  0  0  0  0
   -9.6252   22.2754  -30.3556 H   0  0  0  0  0  0  0  0  0  0  0  0
   -9.7074   19.9904  -31.4071 H   0  0  0  0  0  0  0  0  0  0  0  0
   -8.2535   18.0134  -32.0259 H   0  0  0  0  0  0  0  0  0  0  0  0
   -8.1687   18.7136  -33.6861 H   0  0  0  0  0  0  0  0  0  0  0  0
   -5.6494   18.4473  -32.0157 H   0  0  0  0  0  0  0  0  0  0  0  0
   -6.3144   17.0215  -32.8982 H   0  0  0  0  0  0  0  0  0  0  0  0
   -5.5522   20.4150  -32.6578 H   0  0  0  0  0  0  0  0  0  0  0  0
   -4.6800   21.8730  -33.8750 H   0  0  0  0  0  0  0  0  0  0  0  0
   -2.9030   21.9570  -33.6040 H   0  0  0  0  0  0  0  0  0  0  0  0
  1  2  1  0
  2  3  2  0
  2  4  1  0
  4  5  2  0
  5  6  1  0
  6  7  2  0
  7  8  1  0
  8  9  2  0
  9 10  1  0
 10 11  1  0
 11 12  1  0
 12 13  2  0
 12 14  1  0
  9 15  1  0
 15 16  2  0
 16 17  1  0
 17 18  1  0
 18 19  1  0
 18 20  2  0
 17  4  1  0
 16  6  1  0
  1 21  1  0
  5 22  1  0
  7 23  1  0
  8 24  1  0
 10 25  1  0
 10 26  1  0
 11 27  1  0
 11 28  1  0
 15 29  1  0
 19 30  1  0
 19 31  1  0
M  CHG  2   1  -1  14  -1
M  END
>  <UniqueID>  (79) 
78

>  <SMILES>  (79) 
[NH-]C(=O)c1cc2ccc(CCC(=O)[O-])cc2n1C(N)=O

>  <Energy>  (79) 
65.99205366069357

>  <Genealogy>  (79) 
[NH-]C(=O)c1cc2ccc(CCC(=O)[O-])cc2n1C(N)=O (protonated)
[NH-]C(=O)c1cc2ccc(CCC(=O)[O-])cc2n1C(N)=O (3D coordinates assigned)
[NH-]C(=O)c1cc2ccc(CCC(=O)[O-])cc2n1C(N)=O (optimized conformer: 65.99205366069357 kcal/mol)

>  <smiles>  (79) 
NC(=O)c1cc2ccc(CCC(=O)O)cc2n1C(N)=O

>  <score_type>  (79) 
oracle

>  <origin>  (79) 
adg

>  <m_score__min__energy>  (79) 
-10.51

>  <m_primary>  (79) 
energy

$$$$
79:0
     RDKit          3D

 37 39  0  0  0  0  0  0  0  0999 V2000
   -5.5980   23.8540  -29.7550 C   0  0  0  0  0  0  0  0  0  0  0  0
   -4.3160   24.1670  -30.4600 C   0  0  0  0  0  0  0  0  0  0  0  0
   -4.0940   25.3460  -30.8430 O   0  0  0  0  0  0  0  0  0  0  0  0
   -3.3050   23.1610  -30.6290 N   0  0  0  0  0  0  0  0  0  0  0  0
   -2.0540   23.1230  -30.0890 C   0  0  0  0  0  0  0  0  0  0  0  0
   -1.5200   24.0560  -29.0750 C   0  0  0  0  0  0  0  0  0  0  0  0
   -1.9510   25.4130  -29.0270 N   0  0  0  0  0  0  0  0  0  0  0  0
   -0.7010   23.6370  -28.2130 O   0  0  0  0  0  0  0  0  0  0  0  0
   -1.3520   22.0160  -30.5630 C   0  0  0  0  0  0  0  0  0  0  0  0
   -2.2230   21.3670  -31.4090 C   0  0  0  0  0  0  0  0  0  0  0  0
   -2.0520   20.2040  -32.1540 C   0  0  0  0  0  0  0  0  0  0  0  0
   -3.1240   19.7700  -32.9520 C   0  0  0  0  0  0  0  0  0  0  0  0
   -4.3340   20.5080  -33.0010 C   0  0  0  0  0  0  0  0  0  0  0  0
   -5.4860   20.0150  -33.8320 C   0  0  0  0  0  0  0  0  0  0  0  0
   -6.6860   19.7680  -32.9590 C   0  0  0  0  0  0  0  0  0  0  0  0
   -6.9460   18.4810  -32.4590 C   0  0  0  0  0  0  0  0  0  0  0  0
   -8.0820   18.2440  -31.6790 C   0  0  0  0  0  0  0  0  0  0  0  0
   -8.9700   19.2870  -31.4000 C   0  0  0  0  0  0  0  0  0  0  0  0
   -8.7250   20.5680  -31.9040 C   0  0  0  0  0  0  0  0  0  0  0  0
   -9.5920   21.5770  -31.6390 F   0  0  0  0  0  0  0  0  0  0  0  0
   -7.5900   20.8090  -32.6840 C   0  0  0  0  0  0  0  0  0  0  0  0
   -4.4740   21.6780  -32.2230 C   0  0  0  0  0  0  0  0  0  0  0  0
   -3.3940   22.0780  -31.4300 C   0  0  0  0  0  0  0  0  0  0  0  0
   -5.4374   23.8932  -28.6675 H   0  0  0  0  0  0  0  0  0  0  0  0
   -6.3626   24.5919  -30.0396 H   0  0  0  0  0  0  0  0  0  0  0  0
   -5.9365   22.8468  -30.0396 H   0  0  0  0  0  0  0  0  0  0  0  0
   -2.9280   25.6760  -29.2830 H   0  0  0  0  0  0  0  0  0  0  0  0
   -0.3213   21.7232  -30.3141 H   0  0  0  0  0  0  0  0  0  0  0  0
   -1.1070   19.6420  -32.1192 H   0  0  0  0  0  0  0  0  0  0  0  0
   -3.0237   18.8487  -33.5446 H   0  0  0  0  0  0  0  0  0  0  0  0
   -5.7374   20.7713  -34.5902 H   0  0  0  0  0  0  0  0  0  0  0  0
   -5.1984   19.0735  -34.3228 H   0  0  0  0  0  0  0  0  0  0  0  0
   -6.2530   17.6564  -32.6821 H   0  0  0  0  0  0  0  0  0  0  0  0
   -8.2771   17.2359  -31.2845 H   0  0  0  0  0  0  0  0  0  0  0  0
   -9.8618   19.0999  -30.7838 H   0  0  0  0  0  0  0  0  0  0  0  0
   -7.4037   21.8166  -33.0839 H   0  0  0  0  0  0  0  0  0  0  0  0
   -5.4077   22.2593  -32.2403 H   0  0  0  0  0  0  0  0  0  0  0  0
  1  2  1  0
  2  3  2  0
  2  4  1  0
  4  5  1  0
  5  6  1  0
  6  7  1  0
  6  8  2  0
  5  9  2  0
  9 10  1  0
 10 11  2  0
 11 12  1  0
 12 13  2  0
 13 14  1  0
 14 15  1  0
 15 16  2  0
 16 17  1  0
 17 18  2  0
 18 19  1  0
 19 20  1  0
 19 21  2  0
 13 22  1  0
 22 23  2  0
 23  4  1  0
 23 10  1  0
 21 15  1  0
  1 24  1  0
  1 25  1  0
  1 26  1  0
  7 27  1  0
  9 28  1  0
 11 29  1  0
 12 30  1  0
 14 31  1  0
 14 32  1  0
 16 33  1  0
 17 34  1  0
 18 35  1  0
 21 36  1  0
 22 37  1  0
M  CHG  1   7  -1
M  END
>  <UniqueID>  (80) 
79

>  <SMILES>  (80) 
CC(=O)n1c(C([NH-])=O)cc2ccc(Cc3cccc(F)c3)cc21

>  <Energy>  (80) 
77.09203218406263

>  <Genealogy>  (80) 
CC(=O)n1c(C([NH-])=O)cc2ccc(Cc3cccc(F)c3)cc21 (protonated)
CC(=O)n1c(C([NH-])=O)cc2ccc(Cc3cccc(F)c3)cc21 (3D coordinates assigned)
CC(=O)n1c(C([NH-])=O)cc2ccc(Cc3cccc(F)c3)cc21 (optimized conformer: 77.09203218406263 kcal/mol)

>  <smiles>  (80) 
CC(=O)n1c(C(N)=O)cc2ccc(Cc3cccc(F)c3)cc21

>  <score_type>  (80) 
oracle

>  <origin>  (80) 
adg

>  <m_score__min__energy>  (80) 
-11.35

>  <m_primary>  (80) 
energy

$$$$
80:0
     RDKit          3D

 36 38  0  0  0  0  0  0  0  0999 V2000
   -3.8770   25.4400  -30.4940 N   0  0  0  0  0  0  0  0  0  0  0  0
   -5.2470   25.0470  -30.4640 C   0  0  0  0  0  0  0  0  0  0  0  0
   -6.1010   25.8250  -29.9600 O   0  0  0  0  0  0  0  0  0  0  0  0
   -5.6460   23.7240  -30.9850 C   0  0  0  0  0  0  0  0  0  0  0  0
   -6.9620   23.3800  -31.2920 C   0  0  0  0  0  0  0  0  0  0  0  0
   -6.8900   22.1150  -31.8310 C   0  0  0  0  0  0  0  0  0  0  0  0
   -7.8990   21.2870  -32.3000 C   0  0  0  0  0  0  0  0  0  0  0  0
   -7.5430   20.0180  -32.7850 C   0  0  0  0  0  0  0  0  0  0  0  0
   -6.1820   19.5800  -32.7960 C   0  0  0  0  0  0  0  0  0  0  0  0
   -5.8220   18.2550  -33.2950 N   0  0  0  0  0  0  0  0  0  0  0  0
   -6.8630   17.2100  -33.3900 C   0  0  0  0  0  0  0  0  0  0  0  0
   -6.3270   15.8510  -33.8490 C   0  0  0  0  0  0  0  0  0  0  0  0
   -5.3400   16.0060  -34.8390 O   0  0  0  0  0  0  0  0  0  0  0  0
   -4.2000   16.5760  -34.2410 C   0  0  0  0  0  0  0  0  0  0  0  0
   -4.4630   18.0280  -33.8300 C   0  0  0  0  0  0  0  0  0  0  0  0
   -5.1910   20.4700  -32.2950 C   0  0  0  0  0  0  0  0  0  0  0  0
   -5.5790   21.7330  -31.8350 C   0  0  0  0  0  0  0  0  0  0  0  0
   -4.8010   22.7070  -31.3130 N   0  0  0  0  0  0  0  0  0  0  0  0
   -3.3810   22.6390  -31.1040 C   0  0  0  0  0  0  0  0  0  0  0  0
   -2.7880   23.2490  -29.9580 N   0  0  0  0  0  0  0  0  0  0  0  0
   -2.6550   22.0090  -31.9190 O   0  0  0  0  0  0  0  0  0  0  0  0
   -3.5110   26.0540  -31.2550 H   0  0  0  0  0  0  0  0  0  0  0  0
   -7.8647   23.9891  -31.1368 H   0  0  0  0  0  0  0  0  0  0  0  0
   -8.9489   21.6151  -32.2923 H   0  0  0  0  0  0  0  0  0  0  0  0
   -8.3277   19.3469  -33.1644 H   0  0  0  0  0  0  0  0  0  0  0  0
   -7.3226   17.0857  -32.3984 H   0  0  0  0  0  0  0  0  0  0  0  0
   -7.5872   17.5439  -34.1477 H   0  0  0  0  0  0  0  0  0  0  0  0
   -5.8914   15.3261  -32.9860 H   0  0  0  0  0  0  0  0  0  0  0  0
   -7.1601   15.2710  -34.2729 H   0  0  0  0  0  0  0  0  0  0  0  0
   -3.9325   15.9923  -33.3479 H   0  0  0  0  0  0  0  0  0  0  0  0
   -3.3775   16.5622  -34.9713 H   0  0  0  0  0  0  0  0  0  0  0  0
   -3.7333   18.3078  -33.0559 H   0  0  0  0  0  0  0  0  0  0  0  0
   -4.3669   18.6424  -34.7374 H   0  0  0  0  0  0  0  0  0  0  0  0
   -4.1334   20.1687  -32.2697 H   0  0  0  0  0  0  0  0  0  0  0  0
   -1.7550   23.2110  -29.8150 H   0  0  0  0  0  0  0  0  0  0  0  0
   -3.3840   23.7050  -29.2320 H   0  0  0  0  0  0  0  0  0  0  0  0
  1  2  1  0
  2  3  2  0
  2  4  1  0
  4  5  2  0
  5  6  1  0
  6  7  2  0
  7  8  1  0
  8  9  2  0
  9 10  1  0
 10 11  1  0
 11 12  1  0
 12 13  1  0
 13 14  1  0
 14 15  1  0
  9 16  1  0
 16 17  2  0
 17 18  1  0
 18 19  1  0
 19 20  1  0
 19 21  2  0
 18  4  1  0
 17  6  1  0
 15 10  1  0
  1 22  1  0
  5 23  1  0
  7 24  1  0
  8 25  1  0
 11 26  1  0
 11 27  1  0
 12 28  1  0
 12 29  1  0
 14 30  1  0
 14 31  1  0
 15 32  1  0
 15 33  1  0
 16 34  1  0
 20 35  1  0
 20 36  1  0
M  CHG  1   1  -1
M  END
>  <UniqueID>  (81) 
80

>  <SMILES>  (81) 
[NH-]C(=O)c1cc2ccc(N3CCOCC3)cc2n1C(N)=O

>  <Energy>  (81) 
83.46651827740037

>  <Genealogy>  (81) 
[NH-]C(=O)c1cc2ccc(N3CCOCC3)cc2n1C(N)=O (protonated)
[NH-]C(=O)c1cc2ccc(N3CCOCC3)cc2n1C(N)=O (3D coordinates assigned)
[NH-]C(=O)c1cc2ccc(N3CCOCC3)cc2n1C(N)=O (nonaromatic ring conformer: 83.46651827740037 kcal/mol)

>  <smiles>  (81) 
NC(=O)c1cc2ccc(N3CCOCC3)cc2n1C(N)=O

>  <score_type>  (81) 
oracle

>  <origin>  (81) 
adg

>  <m_score__min__energy>  (81) 
-10.23

>  <m_primary>  (81) 
energy

$$$$
81:0
     RDKit          3D

 40 42  0  0  0  0  0  0  0  0999 V2000
   -3.8930   25.3110  -30.6050 N   0  0  0  0  0  0  0  0  0  0  0  0
   -5.2750   25.3580  -30.2550 C   0  0  0  0  0  0  0  0  0  0  0  0
   -5.8430   26.4740  -30.1040 O   0  0  0  0  0  0  0  0  0  0  0  0
   -6.0520   24.0800  -30.0790 C   0  0  0  0  0  0  0  0  0  0  0  0
   -5.1100   22.9030  -29.7120 C   0  0  0  0  0  0  0  0  0  0  0  0
   -4.8480   21.9640  -30.8940 C   0  0  0  0  0  0  0  0  0  0  0  0
   -6.1180   21.4620  -31.4430 N   0  0  0  0  0  0  0  0  0  0  0  0
   -6.1850   20.1450  -32.0390 C   0  0  0  0  0  0  0  0  0  0  0  0
   -7.3830   19.3860  -31.9730 C   0  0  0  0  0  0  0  0  0  0  0  0
   -7.4580   18.1050  -32.5420 C   0  0  0  0  0  0  0  0  0  0  0  0
   -6.3250   17.6050  -33.1740 C   0  0  0  0  0  0  0  0  0  0  0  0
   -6.1180   16.3840  -33.7740 C   0  0  0  0  0  0  0  0  0  0  0  0
   -4.8000   16.4170  -34.2210 C   0  0  0  0  0  0  0  0  0  0  0  0
   -4.1780   15.3210  -34.9910 C   0  0  0  0  0  0  0  0  0  0  0  0
   -3.0330   15.5550  -35.8130 N   0  0  0  0  0  0  0  0  0  0  0  0
   -4.7000   14.1750  -34.9710 O   0  0  0  0  0  0  0  0  0  0  0  0
   -4.2090   17.6020  -33.9000 N   0  0  0  0  0  0  0  0  0  0  0  0
   -2.8240   17.9520  -34.0640 C   0  0  0  0  0  0  0  0  0  0  0  0
   -1.9270   17.0710  -33.9960 O   0  0  0  0  0  0  0  0  0  0  0  0
   -2.4600   19.2690  -34.3140 O   0  0  0  0  0  0  0  0  0  0  0  0
   -5.1600   18.3210  -33.2610 C   0  0  0  0  0  0  0  0  0  0  0  0
   -5.0530   19.5940  -32.6870 C   0  0  0  0  0  0  0  0  0  0  0  0
   -7.3120   22.3230  -31.4240 C   0  0  0  0  0  0  0  0  0  0  0  0
   -6.9180   23.8010  -31.3280 C   0  0  0  0  0  0  0  0  0  0  0  0
   -3.4830   26.0080  -31.2640 H   0  0  0  0  0  0  0  0  0  0  0  0
   -6.7444   24.1914  -29.2316 H   0  0  0  0  0  0  0  0  0  0  0  0
   -4.1490   23.3149  -29.3702 H   0  0  0  0  0  0  0  0  0  0  0  0
   -5.6042   22.3154  -28.9243 H   0  0  0  0  0  0  0  0  0  0  0  0
   -4.3056   22.5119  -31.6786 H   0  0  0  0  0  0  0  0  0  0  0  0
   -4.2484   21.1104  -30.5449 H   0  0  0  0  0  0  0  0  0  0  0  0
   -8.2650   19.8078  -31.4688 H   0  0  0  0  0  0  0  0  0  0  0  0
   -8.3848   17.5148  -32.4895 H   0  0  0  0  0  0  0  0  0  0  0  0
   -6.8387   15.5595  -33.8780 H   0  0  0  0  0  0  0  0  0  0  0  0
   -2.6000   14.7670  -36.3440 H   0  0  0  0  0  0  0  0  0  0  0  0
   -2.6650   16.5190  -35.9640 H   0  0  0  0  0  0  0  0  0  0  0  0
   -4.1081   20.1548  -32.7386 H   0  0  0  0  0  0  0  0  0  0  0  0
   -7.8866   22.1626  -32.3482 H   0  0  0  0  0  0  0  0  0  0  0  0
   -7.9193   22.0630  -30.5445 H   0  0  0  0  0  0  0  0  0  0  0  0
   -6.3472   24.0772  -32.2268 H   0  0  0  0  0  0  0  0  0  0  0  0
   -7.8387   24.3975  -31.2479 H   0  0  0  0  0  0  0  0  0  0  0  0
  1  2  1  0
  2  3  2  0
  2  4  1  0
  4  5  1  0
  5  6  1  0
  6  7  1  0
  7  8  1  0
  8  9  2  0
  9 10  1  0
 10 11  2  0
 11 12  1  0
 12 13  2  0
 13 14  1  0
 14 15  1  0
 14 16  2  0
 13 17  1  0
 17 18  1  0
 18 19  2  0
 18 20  1  0
 17 21  1  0
 21 22  2  0
  7 23  1  0
 23 24  1  0
 24  4  1  0
 22  8  1  0
 21 11  1  0
  1 25  1  0
  4 26  1  0
  5 27  1  0
  5 28  1  0
  6 29  1  0
  6 30  1  0
  9 31  1  0
 10 32  1  0
 12 33  1  0
 15 34  1  0
 15 35  1  0
 22 36  1  0
 23 37  1  0
 23 38  1  0
 24 39  1  0
 24 40  1  0
M  CHG  2   1  -1  20  -1
M  END
>  <UniqueID>  (82) 
81

>  <SMILES>  (82) 
[NH-]C(=O)C1CCN(c2ccc3cc(C(N)=O)n(C(=O)[O-])c3c2)CC1

>  <Energy>  (82) 
85.97983329039914

>  <Genealogy>  (82) 
[NH-]C(=O)C1CCN(c2ccc3cc(C(N)=O)n(C(=O)[O-])c3c2)CC1 (protonated)
[NH-]C(=O)C1CCN(c2ccc3cc(C(N)=O)n(C(=O)[O-])c3c2)CC1 (3D coordinates assigned)
[NH-]C(=O)C1CCN(c2ccc3cc(C(N)=O)n(C(=O)[O-])c3c2)CC1 (nonaromatic ring conformer: 85.97983329039914 kcal/mol)

>  <smiles>  (82) 
NC(=O)c1cc2ccc(N3CCC(C(N)=O)CC3)cc2n1C(=O)O

>  <score_type>  (82) 
oracle

>  <origin>  (82) 
adg

>  <m_score__min__energy>  (82) 
-10.199999999999999

>  <m_primary>  (82) 
energy

$$$$
82:0
     RDKit          3D

 52 55  0  0  0  0  0  0  0  0999 V2000
   -6.5420   14.7830  -34.3310 C   0  0  0  0  0  0  0  0  0  0  0  0
   -5.3510   15.5170  -33.8720 N   0  0  0  0  0  0  0  0  0  0  0  0
   -5.3500   15.7310  -32.4000 C   0  0  0  0  0  0  0  0  0  0  0  0
   -5.5300   17.2010  -31.9750 C   0  0  0  0  0  0  0  0  0  0  0  0
   -6.5700   17.8990  -32.8660 C   0  0  0  0  0  0  0  0  0  0  0  0
   -6.8280   19.3210  -32.4030 C   0  0  0  0  0  0  0  0  0  0  0  0
   -8.1400   19.8660  -32.4240 C   0  0  0  0  0  0  0  0  0  0  0  0
   -8.3780   21.1860  -32.0070 C   0  0  0  0  0  0  0  0  0  0  0  0
   -7.2930   21.9360  -31.5670 C   0  0  0  0  0  0  0  0  0  0  0  0
   -7.2340   23.2420  -31.1340 C   0  0  0  0  0  0  0  0  0  0  0  0
   -5.8930   23.4690  -30.8310 C   0  0  0  0  0  0  0  0  0  0  0  0
   -5.3820   24.7470  -30.2940 C   0  0  0  0  0  0  0  0  0  0  0  0
   -5.8740   25.2890  -29.0680 N   0  0  0  0  0  0  0  0  0  0  0  0
   -4.5220   25.3920  -30.9500 O   0  0  0  0  0  0  0  0  0  0  0  0
   -5.1510   22.3550  -31.0850 N   0  0  0  0  0  0  0  0  0  0  0  0
   -3.7240   22.2010  -30.9970 C   0  0  0  0  0  0  0  0  0  0  0  0
   -3.0900   21.7740  -31.9990 O   0  0  0  0  0  0  0  0  0  0  0  0
   -2.9890   22.5490  -29.7570 C   0  0  0  0  0  0  0  0  0  0  0  0
   -3.0360   21.6940  -28.6440 C   0  0  0  0  0  0  0  0  0  0  0  0
   -2.3510   22.0200  -27.4730 C   0  0  0  0  0  0  0  0  0  0  0  0
   -1.6070   23.1990  -27.3990 C   0  0  0  0  0  0  0  0  0  0  0  0
   -1.5350   24.0660  -28.5030 C   0  0  0  0  0  0  0  0  0  0  0  0
   -0.7640   25.2800  -28.4340 N   0  0  0  0  0  0  0  0  0  0  0  0
   -1.2100   26.3450  -28.9090 O   0  0  0  0  0  0  0  0  0  0  0  0
    0.4810   25.2870  -27.8480 O   0  0  0  0  0  0  0  0  0  0  0  0
   -2.2270   23.7290  -29.6810 C   0  0  0  0  0  0  0  0  0  0  0  0
   -6.0240   21.4240  -31.5270 C   0  0  0  0  0  0  0  0  0  0  0  0
   -5.7520   20.1190  -31.9490 C   0  0  0  0  0  0  0  0  0  0  0  0
   -6.1610   17.8470  -34.3590 C   0  0  0  0  0  0  0  0  0  0  0  0
   -5.1230   16.7470  -34.6580 C   0  0  0  0  0  0  0  0  0  0  0  0
   -7.1138   14.4306  -33.4599 H   0  0  0  0  0  0  0  0  0  0  0  0
   -7.1722   15.4496  -34.9380 H   0  0  0  0  0  0  0  0  0  0  0  0
   -6.2298   13.9204  -34.9380 H   0  0  0  0  0  0  0  0  0  0  0  0
   -6.1720   15.1432  -31.9655 H   0  0  0  0  0  0  0  0  0  0  0  0
   -4.3612   15.4156  -32.0356 H   0  0  0  0  0  0  0  0  0  0  0  0
   -5.8686   17.2359  -30.9290 H   0  0  0  0  0  0  0  0  0  0  0  0
   -4.5665   17.7210  -32.0810 H   0  0  0  0  0  0  0  0  0  0  0  0
   -7.5165   17.3471  -32.7688 H   0  0  0  0  0  0  0  0  0  0  0  0
   -8.9799   19.2464  -32.7712 H   0  0  0  0  0  0  0  0  0  0  0  0
   -9.3914   21.6132  -32.0279 H   0  0  0  0  0  0  0  0  0  0  0  0
   -8.0677   23.9541  -31.0461 H   0  0  0  0  0  0  0  0  0  0  0  0
   -6.7130   24.8870  -28.5950 H   0  0  0  0  0  0  0  0  0  0  0  0
   -5.4520   26.1600  -28.6740 H   0  0  0  0  0  0  0  0  0  0  0  0
   -3.6166   20.7612  -28.6957 H   0  0  0  0  0  0  0  0  0  0  0  0
   -2.3973   21.3457  -26.6051 H   0  0  0  0  0  0  0  0  0  0  0  0
   -1.0736   23.4511  -26.4706 H   0  0  0  0  0  0  0  0  0  0  0  0
   -2.1714   24.3967  -30.5534 H   0  0  0  0  0  0  0  0  0  0  0  0
   -4.7261   19.7226  -31.9284 H   0  0  0  0  0  0  0  0  0  0  0  0
   -7.0601   17.6548  -34.9629 H   0  0  0  0  0  0  0  0  0  0  0  0
   -5.6994   18.8136  -34.6090 H   0  0  0  0  0  0  0  0  0  0  0  0
   -5.1753   16.4955  -35.7276 H   0  0  0  0  0  0  0  0  0  0  0  0
   -4.1340   17.1399  -34.3796 H   0  0  0  0  0  0  0  0  0  0  0  0
  1  2  1  0
  2  3  1  0
  3  4  1  0
  4  5  1  0
  5  6  1  0
  6  7  2  0
  7  8  1  0
  8  9  2  0
  9 10  1  0
 10 11  2  0
 11 12  1  0
 12 13  1  0
 12 14  2  0
 11 15  1  0
 15 16  1  0
 16 17  2  0
 16 18  1  0
 18 19  2  0
 19 20  1  0
 20 21  2  0
 21 22  1  0
 22 23  1  0
 23 24  2  0
 23 25  1  0
 22 26  2  0
 15 27  1  0
 27 28  2  0
  5 29  1  0
 29 30  1  0
 30  2  1  0
 28  6  1  0
 27  9  1  0
 26 18  1  0
  1 31  1  0
  1 32  1  0
  1 33  1  0
  3 34  1  0
  3 35  1  0
  4 36  1  0
  4 37  1  0
  5 38  1  0
  7 39  1  0
  8 40  1  0
 10 41  1  0
 13 42  1  0
 13 43  1  0
 19 44  1  0
 20 45  1  0
 21 46  1  0
 26 47  1  0
 28 48  1  0
 29 49  1  0
 29 50  1  0
 30 51  1  0
 30 52  1  0
M  CHG  2  23   1  25  -1
M  END
>  <UniqueID>  (83) 
82

>  <SMILES>  (83) 
CN1CCC(c2ccc3cc(C(N)=O)n(C(=O)c4cccc([N+](=O)[O-])c4)c3c2)CC1

>  <Energy>  (83) 
107.45712509825802

>  <Genealogy>  (83) 
CN1CCC(c2ccc3cc(C(N)=O)n(C(=O)c4cccc([N+](=O)[O-])c4)c3c2)CC1 (3D coordinates assigned)
CN1CCC(c2ccc3cc(C(N)=O)n(C(=O)c4cccc([N+](=O)[O-])c4)c3c2)CC1 (nonaromatic ring conformer: 107.45712509825802 kcal/mol)

>  <smiles>  (83) 
CN1CCC(c2ccc3cc(C(N)=O)n(C(=O)c4cccc([N+](=O)[O-])c4)c3c2)CC1

>  <score_type>  (83) 
oracle

>  <origin>  (83) 
adg

>  <m_score__min__energy>  (83) 
-11.76

>  <m_primary>  (83) 
energy

$$$$
83:0
     RDKit          3D

 46 48  0  0  0  0  0  0  0  0999 V2000
   -2.3840   20.3310  -33.7540 C   0  0  0  0  0  0  0  0  0  0  0  0
   -2.2000   20.9860  -32.3860 C   0  0  0  0  0  0  0  0  0  0  0  0
   -2.8720   22.2450  -32.3240 O   0  0  0  0  0  0  0  0  0  0  0  0
   -3.6340   22.6740  -31.2290 C   0  0  0  0  0  0  0  0  0  0  0  0
   -3.0650   23.0460  -30.1680 O   0  0  0  0  0  0  0  0  0  0  0  0
   -5.0700   22.6880  -31.3250 N   0  0  0  0  0  0  0  0  0  0  0  0
   -5.9080   23.6900  -30.9290 C   0  0  0  0  0  0  0  0  0  0  0  0
   -5.5000   25.0480  -30.5170 C   0  0  0  0  0  0  0  0  0  0  0  0
   -4.1650   25.5080  -30.7270 N   0  0  0  0  0  0  0  0  0  0  0  0
   -6.3560   25.8330  -30.0310 O   0  0  0  0  0  0  0  0  0  0  0  0
   -7.2380   23.2900  -31.0240 C   0  0  0  0  0  0  0  0  0  0  0  0
   -7.1930   22.0040  -31.5130 C   0  0  0  0  0  0  0  0  0  0  0  0
   -8.2300   21.1210  -31.7940 C   0  0  0  0  0  0  0  0  0  0  0  0
   -7.8990   19.8400  -32.2700 C   0  0  0  0  0  0  0  0  0  0  0  0
   -6.5420   19.4610  -32.4610 C   0  0  0  0  0  0  0  0  0  0  0  0
   -6.2120   18.1450  -32.9670 N   0  0  0  0  0  0  0  0  0  0  0  0
   -4.8580   17.8400  -33.4480 C   0  0  0  0  0  0  0  0  0  0  0  0
   -4.4960   16.3820  -33.1290 C   0  0  0  0  0  0  0  0  0  0  0  0
   -5.5240   15.3950  -33.5570 N   0  0  0  0  0  0  0  0  0  0  0  0
   -4.9980   14.4800  -34.5840 C   0  0  0  0  0  0  0  0  0  0  0  0
   -6.8000   15.9880  -34.0080 C   0  0  0  0  0  0  0  0  0  0  0  0
   -7.2500   17.1090  -33.0710 C   0  0  0  0  0  0  0  0  0  0  0  0
   -5.5160   20.3870  -32.1470 C   0  0  0  0  0  0  0  0  0  0  0  0
   -5.8750   21.6620  -31.6880 C   0  0  0  0  0  0  0  0  0  0  0  0
   -2.6793   19.2798  -33.6205 H   0  0  0  0  0  0  0  0  0  0  0  0
   -3.1673   20.8637  -34.3132 H   0  0  0  0  0  0  0  0  0  0  0  0
   -1.4379   20.3779  -34.3132 H   0  0  0  0  0  0  0  0  0  0  0  0
   -2.6101   20.3213  -31.6114 H   0  0  0  0  0  0  0  0  0  0  0  0
   -1.1256   21.1550  -32.2213 H   0  0  0  0  0  0  0  0  0  0  0  0
   -3.8810   26.4580  -30.3980 H   0  0  0  0  0  0  0  0  0  0  0  0
   -3.4680   24.9180  -31.2260 H   0  0  0  0  0  0  0  0  0  0  0  0
   -8.1323   23.8755  -30.7643 H   0  0  0  0  0  0  0  0  0  0  0  0
   -9.2795   21.4164  -31.6480 H   0  0  0  0  0  0  0  0  0  0  0  0
   -8.7004   19.1217  -32.4976 H   0  0  0  0  0  0  0  0  0  0  0  0
   -4.8158   17.9948  -34.5362 H   0  0  0  0  0  0  0  0  0  0  0  0
   -4.1408   18.5054  -32.9452 H   0  0  0  0  0  0  0  0  0  0  0  0
   -3.5516   16.1407  -33.6388 H   0  0  0  0  0  0  0  0  0  0  0  0
   -4.4183   16.3058  -32.0344 H   0  0  0  0  0  0  0  0  0  0  0  0
   -4.5066   13.6251  -34.0964 H   0  0  0  0  0  0  0  0  0  0  0  0
   -5.8259   14.1181  -35.2113 H   0  0  0  0  0  0  0  0  0  0  0  0
   -4.2686   15.0133  -35.2113 H   0  0  0  0  0  0  0  0  0  0  0  0
   -6.6673   16.3979  -35.0201 H   0  0  0  0  0  0  0  0  0  0  0  0
   -7.5696   15.2020  -34.0058 H   0  0  0  0  0  0  0  0  0  0  0  0
   -8.1729   17.5602  -33.4643 H   0  0  0  0  0  0  0  0  0  0  0  0
   -7.4292   16.6853  -32.0718 H   0  0  0  0  0  0  0  0  0  0  0  0
   -4.4575   20.1103  -32.2614 H   0  0  0  0  0  0  0  0  0  0  0  0
  1  2  1  0
  2  3  1  0
  3  4  1  0
  4  5  2  0
  4  6  1  0
  6  7  1  0
  7  8  1  0
  8  9  1  0
  8 10  2  0
  7 11  2  0
 11 12  1  0
 12 13  2  0
 13 14  1  0
 14 15  2  0
 15 16  1  0
 16 17  1  0
 17 18  1  0
 18 19  1  0
 19 20  1  0
 19 21  1  0
 21 22  1  0
 15 23  1  0
 23 24  2  0
 24  6  1  0
 24 12  1  0
 22 16  1  0
  1 25  1  0
  1 26  1  0
  1 27  1  0
  2 28  1  0
  2 29  1  0
  9 30  1  0
  9 31  1  0
 11 32  1  0
 13 33  1  0
 14 34  1  0
 17 35  1  0
 17 36  1  0
 18 37  1  0
 18 38  1  0
 20 39  1  0
 20 40  1  0
 20 41  1  0
 21 42  1  0
 21 43  1  0
 22 44  1  0
 22 45  1  0
 23 46  1  0
M  END
>  <UniqueID>  (84) 
83

>  <SMILES>  (84) 
CCOC(=O)n1c(C(N)=O)cc2ccc(N3CCN(C)CC3)cc21

>  <Energy>  (84) 
91.87081185014057

>  <Genealogy>  (84) 
CCOC(=O)n1c(C(N)=O)cc2ccc(N3CCN(C)CC3)cc21 (3D coordinates assigned)
CCOC(=O)n1c(C(N)=O)cc2ccc(N3CCN(C)CC3)cc21 (nonaromatic ring conformer: 91.87081185014057 kcal/mol)

>  <smiles>  (84) 
CCOC(=O)n1c(C(N)=O)cc2ccc(N3CCN(C)CC3)cc21

>  <score_type>  (84) 
oracle

>  <origin>  (84) 
adg

>  <m_score__min__energy>  (84) 
-8.7899999999999991

>  <m_primary>  (84) 
energy

$$$$
84:0
     RDKit          3D

 52 53  0  0  0  0  0  0  0  0999 V2000
   -4.6340   14.7430  -31.9810 C   0  0  0  0  0  0  0  0  0  0  0  0
   -4.6950   16.1580  -32.1010 O   0  0  0  0  0  0  0  0  0  0  0  0
   -5.8700   16.8840  -31.8770 C   0  0  0  0  0  0  0  0  0  0  0  0
   -6.1420   17.3160  -30.7230 O   0  0  0  0  0  0  0  0  0  0  0  0
   -6.7940   17.2090  -33.0210 C   0  0  2  0  0  0  0  0  0  0  0  0
   -6.8610   16.0730  -34.0490 C   0  0  0  0  0  0  0  0  0  0  0  0
   -6.3940   18.4790  -33.6570 N   0  0  0  0  0  0  0  0  0  0  0  0
   -5.7280   18.4890  -34.9670 C   0  0  0  0  0  0  0  0  0  0  0  0
   -6.6850   19.7360  -33.0120 C   0  0  0  0  0  0  0  0  0  0  0  0
   -8.0260   20.0960  -32.7170 C   0  0  0  0  0  0  0  0  0  0  0  0
   -8.3200   21.3090  -32.0750 C   0  0  0  0  0  0  0  0  0  0  0  0
   -7.2600   22.1490  -31.7500 C   0  0  0  0  0  0  0  0  0  0  0  0
   -7.2610   23.3570  -31.0890 C   0  0  0  0  0  0  0  0  0  0  0  0
   -5.9230   23.7350  -31.0160 C   0  0  0  0  0  0  0  0  0  0  0  0
   -5.4700   25.0090  -30.4250 C   0  0  0  0  0  0  0  0  0  0  0  0
   -4.2000   25.5690  -30.7600 N   0  0  0  0  0  0  0  0  0  0  0  0
   -6.2370   25.6410  -29.6510 O   0  0  0  0  0  0  0  0  0  0  0  0
   -5.1240   22.7960  -31.5960 N   0  0  0  0  0  0  0  0  0  0  0  0
   -3.6870   22.7650  -31.6020 C   0  0  0  0  0  0  0  0  0  0  0  0
   -3.0450   23.2770  -30.6470 O   0  0  0  0  0  0  0  0  0  0  0  0
   -3.0170   22.1660  -32.6810 O   0  0  0  0  0  0  0  0  0  0  0  0
   -2.2740   20.9400  -32.6470 C   0  0  0  0  0  0  0  0  0  0  0  0
   -2.6970   20.0150  -33.8040 C   0  0  0  0  0  0  0  0  0  0  0  0
   -0.7590   21.2200  -32.7010 C   0  0  0  0  0  0  0  0  0  0  0  0
   -2.6020   20.2500  -31.3130 C   0  0  0  0  0  0  0  0  0  0  0  0
   -5.9590   21.8300  -32.0430 C   0  0  0  0  0  0  0  0  0  0  0  0
   -5.6360   20.6170  -32.6620 C   0  0  0  0  0  0  0  0  0  0  0  0
   -4.6220   14.4655  -30.9167 H   0  0  0  0  0  0  0  0  0  0  0  0
   -5.5137   14.2956  -32.4667 H   0  0  0  0  0  0  0  0  0  0  0  0
   -3.7191   14.3729  -32.4667 H   0  0  0  0  0  0  0  0  0  0  0  0
   -7.8074   17.3246  -32.6092 H   0  0  0  0  0  0  0  0  0  0  0  0
   -6.9180   15.1074  -33.5252 H   0  0  0  0  0  0  0  0  0  0  0  0
   -7.7531   16.2013  -34.6796 H   0  0  0  0  0  0  0  0  0  0  0  0
   -5.9600   16.0955  -34.6796 H   0  0  0  0  0  0  0  0  0  0  0  0
   -4.6375   18.5054  -34.8238 H   0  0  0  0  0  0  0  0  0  0  0  0
   -6.0105   17.5865  -35.5289 H   0  0  0  0  0  0  0  0  0  0  0  0
   -6.0375   19.3826  -35.5289 H   0  0  0  0  0  0  0  0  0  0  0  0
   -8.8448   19.4160  -32.9949 H   0  0  0  0  0  0  0  0  0  0  0  0
   -9.3572   21.5869  -31.8361 H   0  0  0  0  0  0  0  0  0  0  0  0
   -8.1322   23.9057  -30.7017 H   0  0  0  0  0  0  0  0  0  0  0  0
   -3.6180   25.1630  -31.5270 H   0  0  0  0  0  0  0  0  0  0  0  0
   -3.8720   26.4440  -30.2950 H   0  0  0  0  0  0  0  0  0  0  0  0
   -3.1216   19.0865  -33.3946 H   0  0  0  0  0  0  0  0  0  0  0  0
   -3.4525   20.5225  -34.4218 H   0  0  0  0  0  0  0  0  0  0  0  0
   -1.8189   19.7755  -34.4218 H   0  0  0  0  0  0  0  0  0  0  0  0
   -0.3629   21.2932  -31.6774 H   0  0  0  0  0  0  0  0  0  0  0  0
   -0.2533   20.4001  -33.2321 H   0  0  0  0  0  0  0  0  0  0  0  0
   -0.5797   22.1665  -33.2321 H   0  0  0  0  0  0  0  0  0  0  0  0
   -2.2939   20.8982  -30.4794 H   0  0  0  0  0  0  0  0  0  0  0  0
   -3.6846   20.0646  -31.2525 H   0  0  0  0  0  0  0  0  0  0  0  0
   -2.0623   19.2934  -31.2525 H   0  0  0  0  0  0  0  0  0  0  0  0
   -4.5885   20.3547  -32.8717 H   0  0  0  0  0  0  0  0  0  0  0  0
  1  2  1  0
  2  3  1  0
  3  4  2  0
  3  5  1  0
  5  6  1  0
  5  7  1  0
  7  8  1  0
  7  9  1  0
  9 10  2  0
 10 11  1  0
 11 12  2  0
 12 13  1  0
 13 14  2  0
 14 15  1  0
 15 16  1  0
 15 17  2  0
 14 18  1  0
 18 19  1  0
 19 20  2  0
 19 21  1  0
 21 22  1  0
 22 23  1  0
 22 24  1  0
 22 25  1  0
 18 26  1  0
 26 27  2  0
 27  9  1  0
 26 12  1  0
  1 28  1  0
  1 29  1  0
  1 30  1  0
  5 31  1  1
  6 32  1  0
  6 33  1  0
  6 34  1  0
  8 35  1  0
  8 36  1  0
  8 37  1  0
 10 38  1  0
 11 39  1  0
 13 40  1  0
 16 41  1  0
 16 42  1  0
 23 43  1  0
 23 44  1  0
 23 45  1  0
 24 46  1  0
 24 47  1  0
 24 48  1  0
 25 49  1  0
 25 50  1  0
 25 51  1  0
 27 52  1  0
M  END
>  <UniqueID>  (85) 
84

>  <SMILES>  (85) 
COC(=O)[C@H](C)N(C)c1ccc2cc(C(N)=O)n(C(=O)OC(C)(C)C)c2c1

>  <Energy>  (85) 
84.52469173269589

>  <Genealogy>  (85) 
COC(=O)[C@H](C)N(C)c1ccc2cc(C(N)=O)n(C(=O)OC(C)(C)C)c2c1 (chirality)
COC(=O)[C@H](C)N(C)c1ccc2cc(C(N)=O)n(C(=O)OC(C)(C)C)c2c1 (3D coordinates assigned)
COC(=O)[C@H](C)N(C)c1ccc2cc(C(N)=O)n(C(=O)OC(C)(C)C)c2c1 (optimized conformer: 84.52469173269589 kcal/mol)

>  <smiles>  (85) 
COC(=O)C(C)N(C)c1ccc2cc(C(N)=O)n(C(=O)OC(C)(C)C)c2c1

>  <score_type>  (85) 
oracle

>  <origin>  (85) 
adg

>  <m_score__min__energy>  (85) 
-9.1699999999999999

>  <m_primary>  (85) 
energy

$$$$
85:0
     RDKit          3D

 26 27  0  0  0  0  0  0  0  0999 V2000
   -3.7020   25.2460  -30.4740 N   0  0  0  0  0  0  0  0  0  0  0  0
   -5.1000   25.2760  -30.7470 C   0  0  0  0  0  0  0  0  0  0  0  0
   -5.6910   26.3870  -30.8140 O   0  0  0  0  0  0  0  0  0  0  0  0
   -5.8570   24.0290  -30.9910 C   0  0  0  0  0  0  0  0  0  0  0  0
   -7.1930   23.8580  -30.6340 C   0  0  0  0  0  0  0  0  0  0  0  0
   -7.5350   22.6040  -31.0870 C   0  0  0  0  0  0  0  0  0  0  0  0
   -8.7400   21.9150  -30.9930 C   0  0  0  0  0  0  0  0  0  0  0  0
   -8.8000   20.6160  -31.5260 C   0  0  0  0  0  0  0  0  0  0  0  0
   -7.6550   20.0270  -32.1190 C   0  0  0  0  0  0  0  0  0  0  0  0
   -7.7380   18.6490  -32.7050 C   0  0  0  0  0  0  0  0  0  0  0  0
   -8.6400   17.8930  -31.9790 F   0  0  0  0  0  0  0  0  0  0  0  0
   -6.4530   20.7610  -32.2080 C   0  0  0  0  0  0  0  0  0  0  0  0
   -6.4290   22.0600  -31.6880 C   0  0  0  0  0  0  0  0  0  0  0  0
   -5.3910   22.9240  -31.6390 N   0  0  0  0  0  0  0  0  0  0  0  0
   -4.0560   22.6720  -32.1020 C   0  0  0  0  0  0  0  0  0  0  0  0
   -3.8220   22.2930  -33.4580 N   0  0  0  0  0  0  0  0  0  0  0  0
   -3.0840   22.7810  -31.3090 O   0  0  0  0  0  0  0  0  0  0  0  0
   -3.0190   24.9410  -31.2020 H   0  0  0  0  0  0  0  0  0  0  0  0
   -7.8378   24.5735  -30.1027 H   0  0  0  0  0  0  0  0  0  0  0  0
   -9.6190   22.3730  -30.5160 H   0  0  0  0  0  0  0  0  0  0  0  0
   -9.7432   20.0517  -31.4827 H   0  0  0  0  0  0  0  0  0  0  0  0
   -8.0727   18.7148  -33.7508 H   0  0  0  0  0  0  0  0  0  0  0  0
   -6.7467   18.1739  -32.6666 H   0  0  0  0  0  0  0  0  0  0  0  0
   -5.5579   20.3233  -32.6741 H   0  0  0  0  0  0  0  0  0  0  0  0
   -4.6080   22.2590  -34.1430 H   0  0  0  0  0  0  0  0  0  0  0  0
   -2.8530   22.0800  -33.7860 H   0  0  0  0  0  0  0  0  0  0  0  0
  1  2  1  0
  2  3  2  0
  2  4  1  0
  4  5  2  0
  5  6  1  0
  6  7  2  0
  7  8  1  0
  8  9  2  0
  9 10  1  0
 10 11  1  0
  9 12  1  0
 12 13  2  0
 13 14  1  0
 14 15  1  0
 15 16  1  0
 15 17  2  0
 14  4  1  0
 13  6  1  0
  1 18  1  0
  5 19  1  0
  7 20  1  0
  8 21  1  0
 10 22  1  0
 10 23  1  0
 12 24  1  0
 16 25  1  0
 16 26  1  0
M  CHG  1   1  -1
M  END
>  <UniqueID>  (86) 
85

>  <SMILES>  (86) 
[NH-]C(=O)c1cc2ccc(CF)cc2n1C(N)=O

>  <Energy>  (86) 
64.33032369309198

>  <Genealogy>  (86) 
[NH-]C(=O)c1cc2ccc(CF)cc2n1C(N)=O (protonated)
[NH-]C(=O)c1cc2ccc(CF)cc2n1C(N)=O (3D coordinates assigned)
[NH-]C(=O)c1cc2ccc(CF)cc2n1C(N)=O (optimized conformer: 64.33032369309198 kcal/mol)

>  <smiles>  (86) 
NC(=O)c1cc2ccc(CF)cc2n1C(N)=O

>  <score_type>  (86) 
oracle

>  <origin>  (86) 
adg

>  <m_score__min__energy>  (86) 
-9.2799999999999994

>  <m_primary>  (86) 
energy

$$$$
86:0
     RDKit          3D

 35 36  0  0  0  0  0  0  0  0999 V2000
   -2.6390   25.8310  -29.0230 H   0  0  0  0  0  0  0  0  0  0  0  0
   -1.6080   25.6710  -28.9870 N   0  0  0  0  0  0  0  0  0  0  0  0
   -1.0590   24.3780  -29.2330 C   0  0  0  0  0  0  0  0  0  0  0  0
    0.0900   24.1040  -28.7960 O   0  0  0  0  0  0  0  0  0  0  0  0
   -1.8200   23.3960  -30.0310 C   0  0  0  0  0  0  0  0  0  0  0  0
   -1.2870   22.1860  -30.4690 C   0  0  0  0  0  0  0  0  0  0  0  0
   -0.2533   21.8302  -30.3473 H   0  0  0  0  0  0  0  0  0  0  0  0
   -2.3270   21.5300  -31.0860 C   0  0  0  0  0  0  0  0  0  0  0  0
   -2.3530   20.2900  -31.7170 C   0  0  0  0  0  0  0  0  0  0  0  0
   -1.4552   19.6558  -31.7582 H   0  0  0  0  0  0  0  0  0  0  0  0
   -3.5620   19.8730  -32.3000 C   0  0  0  0  0  0  0  0  0  0  0  0
   -3.6157   18.8966  -32.8037 H   0  0  0  0  0  0  0  0  0  0  0  0
   -4.7130   20.6990  -32.2450 C   0  0  0  0  0  0  0  0  0  0  0  0
   -5.9930   20.2610  -32.9080 C   0  0  0  0  0  0  0  0  0  0  0  0
   -5.8213   19.2987  -33.4124 H   0  0  0  0  0  0  0  0  0  0  0  0
   -6.2879   21.0384  -33.6282 H   0  0  0  0  0  0  0  0  0  0  0  0
   -7.1310   20.0940  -31.8960 C   0  0  0  0  0  0  0  0  0  0  0  0
   -7.9603   20.7566  -32.1845 H   0  0  0  0  0  0  0  0  0  0  0  0
   -6.7361   20.3514  -30.9021 H   0  0  0  0  0  0  0  0  0  0  0  0
   -7.7520   18.3740  -31.8210 S   0  0  0  0  0  0  0  0  0  0  0  0
   -6.1190   17.6180  -31.8880 C   0  0  0  0  0  0  0  0  0  0  0  0
   -5.5091   17.6452  -30.9730 H   0  0  0  0  0  0  0  0  0  0  0  0
   -5.5880   17.0230  -32.9700 C   0  0  0  0  0  0  0  0  0  0  0  0
   -4.2760   16.4360  -32.8340 C   0  0  0  0  0  0  0  0  0  0  0  0
   -3.2240   15.9660  -32.7240 N   0  0  0  0  0  0  0  0  0  0  0  0
   -6.2610   16.9190  -34.2900 C   0  0  0  0  0  0  0  0  0  0  0  0
   -6.0250   17.7800  -35.1790 O   0  0  0  0  0  0  0  0  0  0  0  0
   -7.1660   15.9050  -34.5750 O   0  0  0  0  0  0  0  0  0  0  0  0
   -4.6450   21.9540  -31.6010 C   0  0  0  0  0  0  0  0  0  0  0  0
   -5.5233   22.6151  -31.5610 H   0  0  0  0  0  0  0  0  0  0  0  0
   -3.4330   22.3360  -31.0150 C   0  0  0  0  0  0  0  0  0  0  0  0
   -3.1380   23.4890  -30.3710 N   0  0  0  0  0  0  0  0  0  0  0  0
   -4.0220   24.6040  -30.1670 C   0  0  0  0  0  0  0  0  0  0  0  0
   -3.8810   25.6590  -30.8410 O   0  0  0  0  0  0  0  0  0  0  0  0
   -5.0220   24.5400  -29.2060 O   0  0  0  0  0  0  0  0  0  0  0  0
  1  2  1  0
  2  3  1  0
  3  4  2  0
  3  5  1  0
  5  6  2  0
  6  7  1  0
  6  8  1  0
  8  9  2  0
  9 10  1  0
  9 11  1  0
 11 12  1  0
 11 13  2  0
 13 14  1  0
 14 15  1  0
 14 16  1  0
 14 17  1  0
 17 18  1  0
 17 19  1  0
 17 20  1  0
 20 21  1  0
 21 22  1  0
 21 23  2  0
 23 24  1  0
 24 25  3  0
 23 26  1  0
 26 27  2  0
 26 28  1  0
 13 29  1  0
 29 30  1  0
 29 31  2  0
 31 32  1  0
 32 33  1  0
 33 34  2  0
 33 35  1  0
 32  5  1  0
 31  8  1  0
M  CHG  3   2  -1  28  -1  35  -1
M  END
>  <UniqueID>  (87) 
86

>  <SMILES>  (87) 
N#C/C(=C/SCCc1ccc2cc(C([NH-])=O)n(C(=O)[O-])c2c1)C(=O)[O-]

>  <Energy>  (87) 
71.19480636738821

>  <Genealogy>  (87) 
N#C/C(=C/SCCc1ccc2cc(C([NH-])=O)n(C(=O)[O-])c2c1)C(=O)[O-] (protonated)
N#C/C(=C/SCCc1ccc2cc(C([NH-])=O)n(C(=O)[O-])c2c1)C(=O)[O-] (cis-trans isomerization)
N#C/C(=C/SCCc1ccc2cc(C([NH-])=O)n(C(=O)[O-])c2c1)C(=O)[O-] (3D coordinates assigned)
N#C/C(=C/SCCc1ccc2cc(C([NH-])=O)n(C(=O)[O-])c2c1)C(=O)[O-] (optimized conformer: 71.19480636738821 kcal/mol)

>  <smiles>  (87) 
N#C/C(=C/SCCc1ccc2cc(C(N)=O)n(C(=O)O)c2c1)C(=O)O

>  <score_type>  (87) 
oracle

>  <origin>  (87) 
adg

>  <m_score__min__energy>  (87) 
-11.970000000000001

>  <m_primary>  (87) 
energy

$$$$
87:0
     RDKit          3D

 42 44  0  0  0  0  0  0  0  0999 V2000
   -6.9140   23.7870  -31.7420 C   0  0  0  0  0  0  0  0  0  0  0  0
   -6.8160   24.0520  -30.2450 C   0  0  0  0  0  0  0  0  0  0  0  0
   -5.5030   23.7700  -29.7690 O   0  0  0  0  0  0  0  0  0  0  0  0
   -4.3380   24.1660  -30.4370 C   0  0  0  0  0  0  0  0  0  0  0  0
   -4.2120   25.3530  -30.8480 O   0  0  0  0  0  0  0  0  0  0  0  0
   -3.2810   23.2180  -30.6530 N   0  0  0  0  0  0  0  0  0  0  0  0
   -2.0560   23.1900  -30.0560 C   0  0  0  0  0  0  0  0  0  0  0  0
   -1.5030   24.2310  -29.1680 C   0  0  0  0  0  0  0  0  0  0  0  0
   -2.3450   25.2240  -28.5780 N   0  0  0  0  0  0  0  0  0  0  0  0
   -0.2600   24.2800  -28.9700 O   0  0  0  0  0  0  0  0  0  0  0  0
   -1.3460   22.0560  -30.4410 C   0  0  0  0  0  0  0  0  0  0  0  0
   -2.1770   21.3870  -31.3120 C   0  0  0  0  0  0  0  0  0  0  0  0
   -1.9770   20.1920  -31.9980 C   0  0  0  0  0  0  0  0  0  0  0  0
   -3.0180   19.7200  -32.8140 C   0  0  0  0  0  0  0  0  0  0  0  0
   -4.2380   20.4330  -32.9110 C   0  0  0  0  0  0  0  0  0  0  0  0
   -5.3360   19.9330  -33.8090 C   0  0  0  0  0  0  0  0  0  0  0  0
   -6.5840   19.6770  -33.0090 C   0  0  0  0  0  0  0  0  0  0  0  0
   -6.8840   18.3800  -32.5590 C   0  0  0  0  0  0  0  0  0  0  0  0
   -8.0640   18.1360  -31.8480 C   0  0  0  0  0  0  0  0  0  0  0  0
   -8.9540   19.1820  -31.5910 C   0  0  0  0  0  0  0  0  0  0  0  0
   -8.6690   20.4720  -32.0460 C   0  0  0  0  0  0  0  0  0  0  0  0
   -7.4910   20.7200  -32.7550 C   0  0  0  0  0  0  0  0  0  0  0  0
   -4.4020   21.6460  -32.2070 C   0  0  0  0  0  0  0  0  0  0  0  0
   -3.3390   22.1070  -31.4220 C   0  0  0  0  0  0  0  0  0  0  0  0
   -7.2911   22.7674  -31.9100 H   0  0  0  0  0  0  0  0  0  0  0  0
   -7.6032   24.5127  -32.1985 H   0  0  0  0  0  0  0  0  0  0  0  0
   -5.9185   23.8896  -32.1985 H   0  0  0  0  0  0  0  0  0  0  0  0
   -7.0521   25.1083  -30.0490 H   0  0  0  0  0  0  0  0  0  0  0  0
   -7.5298   23.3983  -29.7224 H   0  0  0  0  0  0  0  0  0  0  0  0
   -3.3450   25.3200  -28.8580 H   0  0  0  0  0  0  0  0  0  0  0  0
   -1.9420   25.9270  -27.9190 H   0  0  0  0  0  0  0  0  0  0  0  0
   -0.3374   21.7582  -30.1186 H   0  0  0  0  0  0  0  0  0  0  0  0
   -1.0331   19.6350  -31.9038 H   0  0  0  0  0  0  0  0  0  0  0  0
   -2.8847   18.7881  -33.3830 H   0  0  0  0  0  0  0  0  0  0  0  0
   -5.5471   20.6884  -34.5803 H   0  0  0  0  0  0  0  0  0  0  0  0
   -5.0135   18.9938  -34.2822 H   0  0  0  0  0  0  0  0  0  0  0  0
   -6.1885   17.5535  -32.7665 H   0  0  0  0  0  0  0  0  0  0  0  0
   -8.2911   17.1205  -31.4913 H   0  0  0  0  0  0  0  0  0  0  0  0
   -9.8803   18.9897  -31.0297 H   0  0  0  0  0  0  0  0  0  0  0  0
   -9.3729   21.2932  -31.8457 H   0  0  0  0  0  0  0  0  0  0  0  0
   -7.2725   21.7359  -33.1159 H   0  0  0  0  0  0  0  0  0  0  0  0
   -5.3415   22.2142  -32.2739 H   0  0  0  0  0  0  0  0  0  0  0  0
  1  2  1  0
  2  3  1  0
  3  4  1  0
  4  5  2  0
  4  6  1  0
  6  7  1  0
  7  8  1  0
  8  9  1  0
  8 10  2  0
  7 11  2  0
 11 12  1  0
 12 13  2  0
 13 14  1  0
 14 15  2  0
 15 16  1  0
 16 17  1  0
 17 18  2  0
 18 19  1  0
 19 20  2  0
 20 21  1  0
 21 22  2  0
 15 23  1  0
 23 24  2  0
 24  6  1  0
 24 12  1  0
 22 17  1  0
  1 25  1  0
  1 26  1  0
  1 27  1  0
  2 28  1  0
  2 29  1  0
  9 30  1  0
  9 31  1  0
 11 32  1  0
 13 33  1  0
 14 34  1  0
 16 35  1  0
 16 36  1  0
 18 37  1  0
 19 38  1  0
 20 39  1  0
 21 40  1  0
 22 41  1  0
 23 42  1  0
M  END
>  <UniqueID>  (88) 
87

>  <SMILES>  (88) 
CCOC(=O)n1c(C(N)=O)cc2ccc(Cc3ccccc3)cc21

>  <Energy>  (88) 
77.88682252771223

>  <Genealogy>  (88) 
CCOC(=O)n1c(C(N)=O)cc2ccc(Cc3ccccc3)cc21 (3D coordinates assigned)
CCOC(=O)n1c(C(N)=O)cc2ccc(Cc3ccccc3)cc21 (optimized conformer: 77.88682252771223 kcal/mol)

>  <smiles>  (88) 
CCOC(=O)n1c(C(N)=O)cc2ccc(Cc3ccccc3)cc21

>  <score_type>  (88) 
oracle

>  <origin>  (88) 
adg

>  <m_score__min__energy>  (88) 
-9.3499999999999996

>  <m_primary>  (88) 
energy

$$$$
88:0
     RDKit          3D

 38 39  0  0  0  0  0  0  0  0999 V2000
   -5.4230   23.7480  -29.1000 N   0  0  0  0  0  0  0  0  0  0  0  0
   -5.8750   22.6910  -29.9440 C   0  0  0  0  0  0  0  0  0  0  0  0
   -7.0850   22.3440  -29.8980 O   0  0  0  0  0  0  0  0  0  0  0  0
   -4.9470   21.9590  -30.8330 C   0  0  0  0  0  0  0  0  0  0  0  0
   -5.3250   21.4450  -32.0690 C   0  0  0  0  0  0  0  0  0  0  0  0
   -4.1860   20.8830  -32.5950 C   0  0  0  0  0  0  0  0  0  0  0  0
   -3.9830   20.2670  -33.8270 C   0  0  0  0  0  0  0  0  0  0  0  0
   -2.6830   19.8450  -34.1450 C   0  0  0  0  0  0  0  0  0  0  0  0
   -1.6110   20.0720  -33.2470 C   0  0  0  0  0  0  0  0  0  0  0  0
   -0.2170   19.6130  -33.5950 C   0  0  0  0  0  0  0  0  0  0  0  0
    0.5160   20.6360  -34.4820 C   0  0  2  0  0  0  0  0  0  0  0  0
   -0.1400   21.9400  -34.3840 N   0  0  0  0  0  0  0  0  0  0  0  0
    0.5220   20.1850  -35.9170 C   0  0  0  0  0  0  0  0  0  0  0  0
    1.0480   19.0850  -36.2330 O   0  0  0  0  0  0  0  0  0  0  0  0
   -0.0800   20.9650  -36.8980 O   0  0  0  0  0  0  0  0  0  0  0  0
   -1.8550   20.7020  -32.0070 C   0  0  0  0  0  0  0  0  0  0  0  0
   -3.1700   21.0730  -31.6950 C   0  0  0  0  0  0  0  0  0  0  0  0
   -3.6250   21.7180  -30.5940 N   0  0  0  0  0  0  0  0  0  0  0  0
   -2.8400   22.1900  -29.4830 C   0  0  0  0  0  0  0  0  0  0  0  0
   -3.0420   21.7120  -28.3340 O   0  0  0  0  0  0  0  0  0  0  0  0
   -1.8050   23.2660  -29.6620 C   0  0  0  0  0  0  0  0  0  0  0  0
   -2.4790   24.9180  -29.2960 P   0  0  0  0  0  0  0  0  0  0  0  0
   -3.1320   24.9290  -27.9320 O   0  0  0  0  0  0  0  0  0  0  0  0
   -1.2400   26.0660  -29.3410 O   0  0  0  0  0  0  0  0  0  0  0  0
   -3.6340   25.3100  -30.4670 O   0  0  0  0  0  0  0  0  0  0  0  0
   -6.1070   24.2870  -28.5230 H   0  0  0  0  0  0  0  0  0  0  0  0
   -4.4070   23.9350  -28.9660 H   0  0  0  0  0  0  0  0  0  0  0  0
   -6.3239   21.4807  -32.5283 H   0  0  0  0  0  0  0  0  0  0  0  0
   -4.8159   20.1158  -34.5294 H   0  0  0  0  0  0  0  0  0  0  0  0
   -2.4946   19.3332  -35.1003 H   0  0  0  0  0  0  0  0  0  0  0  0
    0.3545   19.4733  -32.6655 H   0  0  0  0  0  0  0  0  0  0  0  0
   -0.2970   18.6696  -34.1550 H   0  0  0  0  0  0  0  0  0  0  0  0
    1.5552   20.7183  -34.1310 H   0  0  0  0  0  0  0  0  0  0  0  0
   -0.8840   21.9900  -35.1190 H   0  0  0  0  0  0  0  0  0  0  0  0
    0.5560   22.6800  -34.6330 H   0  0  0  0  0  0  0  0  0  0  0  0
   -1.0327   20.8969  -31.3028 H   0  0  0  0  0  0  0  0  0  0  0  0
   -0.9626   23.0665  -28.9834 H   0  0  0  0  0  0  0  0  0  0  0  0
   -1.4772   23.2547  -30.7120 H   0  0  0  0  0  0  0  0  0  0  0  0
  1  2  1  0
  2  3  2  0
  2  4  1  0
  4  5  2  0
  5  6  1  0
  6  7  2  0
  7  8  1  0
  8  9  2  0
  9 10  1  0
 10 11  1  0
 11 12  1  0
 11 13  1  0
 13 14  2  0
 13 15  1  0
  9 16  1  0
 16 17  2  0
 17 18  1  0
 18 19  1  0
 19 20  2  0
 19 21  1  0
 21 22  1  0
 22 23  2  0
 22 24  1  0
 22 25  1  0
 18  4  1  0
 17  6  1  0
  1 26  1  0
  1 27  1  0
  5 28  1  0
  7 29  1  0
  8 30  1  0
 10 31  1  0
 10 32  1  0
 11 33  1  1
 12 34  1  0
 12 35  1  0
 16 36  1  0
 21 37  1  0
 21 38  1  0
M  CHG  3  15  -1  24  -1  25  -1
M  END
>  <UniqueID>  (89) 
88

>  <SMILES>  (89) 
NC(=O)c1cc2ccc(C[C@H](N)C(=O)[O-])cc2n1C(=O)CP(=O)([O-])[O-]

>  <Energy>  (89) 
71.01628292955522

>  <Genealogy>  (89) 
NC(=O)c1cc2ccc(C[C@H](N)C(=O)[O-])cc2n1C(=O)CP(=O)([O-])[O-] (protonated)
NC(=O)c1cc2ccc(C[C@H](N)C(=O)[O-])cc2n1C(=O)CP(=O)([O-])[O-] (3D coordinates assigned)
NC(=O)c1cc2ccc(C[C@H](N)C(=O)[O-])cc2n1C(=O)CP(=O)([O-])[O-] (optimized conformer: 71.01628292955522 kcal/mol)

>  <smiles>  (89) 
NC(=O)c1cc2ccc(C[C@H](N)C(=O)O)cc2n1C(=O)CP(=O)(O)O

>  <score_type>  (89) 
oracle

>  <origin>  (89) 
adg

>  <m_score__min__energy>  (89) 
-12.41

>  <m_primary>  (89) 
energy

$$$$
89:0
     RDKit          3D

 40 42  0  0  0  0  0  0  0  0999 V2000
   -3.8640   25.3200  -30.5020 N   0  0  0  0  0  0  0  0  0  0  0  0
   -5.2550   25.0580  -30.3310 C   0  0  0  0  0  0  0  0  0  0  0  0
   -5.9650   25.8850  -29.7000 O   0  0  0  0  0  0  0  0  0  0  0  0
   -5.8390   23.8090  -30.8600 C   0  0  0  0  0  0  0  0  0  0  0  0
   -7.2100   23.5740  -30.9480 C   0  0  0  0  0  0  0  0  0  0  0  0
   -7.3330   22.3570  -31.5770 C   0  0  0  0  0  0  0  0  0  0  0  0
   -8.4720   21.6360  -31.9200 C   0  0  0  0  0  0  0  0  0  0  0  0
   -8.3000   20.3930  -32.5500 C   0  0  0  0  0  0  0  0  0  0  0  0
   -6.9980   19.8870  -32.8190 C   0  0  0  0  0  0  0  0  0  0  0  0
   -6.8100   18.5430  -33.5000 C   0  0  1  0  0  0  0  0  0  0  0  0
   -5.4490   18.3950  -34.1740 C   0  0  0  0  0  0  0  0  0  0  0  0
   -4.8340   17.1430  -33.5630 C   0  0  0  0  0  0  0  0  0  0  0  0
   -5.9110   16.3670  -32.9260 N   0  0  0  0  0  0  0  0  0  0  0  0
   -6.4960   15.3840  -33.8630 C   0  0  0  0  0  0  0  0  0  0  0  0
   -5.5160   14.2900  -34.1510 C   0  0  0  0  0  0  0  0  0  0  0  0
   -4.5690   14.4820  -34.9580 O   0  0  0  0  0  0  0  0  0  0  0  0
   -5.6480   13.0570  -33.5250 O   0  0  0  0  0  0  0  0  0  0  0  0
   -6.9060   17.3700  -32.5220 C   0  0  0  0  0  0  0  0  0  0  0  0
   -5.8670   20.6530  -32.4580 C   0  0  0  0  0  0  0  0  0  0  0  0
   -6.0710   21.8940  -31.8440 C   0  0  0  0  0  0  0  0  0  0  0  0
   -5.1430   22.7720  -31.4050 N   0  0  0  0  0  0  0  0  0  0  0  0
   -3.7180   22.5970  -31.4610 C   0  0  0  0  0  0  0  0  0  0  0  0
   -2.8930   23.0330  -30.3800 N   0  0  0  0  0  0  0  0  0  0  0  0
   -3.1930   22.0250  -32.4530 O   0  0  0  0  0  0  0  0  0  0  0  0
   -3.5300   26.0070  -31.2140 H   0  0  0  0  0  0  0  0  0  0  0  0
   -8.0219   24.2242  -30.5901 H   0  0  0  0  0  0  0  0  0  0  0  0
   -9.4770   22.0277  -31.7042 H   0  0  0  0  0  0  0  0  0  0  0  0
   -9.1826   19.8035  -32.8390 H   0  0  0  0  0  0  0  0  0  0  0  0
   -7.6210   18.5181  -34.2427 H   0  0  0  0  0  0  0  0  0  0  0  0
   -5.5680   18.2751  -35.2610 H   0  0  0  0  0  0  0  0  0  0  0  0
   -4.8157   19.2811  -34.0197 H   0  0  0  0  0  0  0  0  0  0  0  0
   -4.3559   16.5408  -34.3496 H   0  0  0  0  0  0  0  0  0  0  0  0
   -4.0716   17.4176  -32.8191 H   0  0  0  0  0  0  0  0  0  0  0  0
   -7.4018   14.9502  -33.4143 H   0  0  0  0  0  0  0  0  0  0  0  0
   -6.7475   15.8945  -34.8044 H   0  0  0  0  0  0  0  0  0  0  0  0
   -7.9147   16.9329  -32.5595 H   0  0  0  0  0  0  0  0  0  0  0  0
   -6.7139   17.7099  -31.4936 H   0  0  0  0  0  0  0  0  0  0  0  0
   -4.8501   20.2827  -32.6549 H   0  0  0  0  0  0  0  0  0  0  0  0
   -3.3190   23.4320  -29.5140 H   0  0  0  0  0  0  0  0  0  0  0  0
   -1.8570   22.9190  -30.4280 H   0  0  0  0  0  0  0  0  0  0  0  0
  1  2  1  0
  2  3  2  0
  2  4  1  0
  4  5  2  0
  5  6  1  0
  6  7  2  0
  7  8  1  0
  8  9  2  0
  9 10  1  0
 10 11  1  0
 11 12  1  0
 12 13  1  0
 13 14  1  0
 14 15  1  0
 15 16  2  0
 15 17  1  0
 13 18  1  0
  9 19  1  0
 19 20  2  0
 20 21  1  0
 21 22  1  0
 22 23  1  0
 22 24  2  0
 21  4  1  0
 20  6  1  0
 18 10  1  0
  1 25  1  0
  5 26  1  0
  7 27  1  0
  8 28  1  0
 10 29  1  6
 11 30  1  0
 11 31  1  0
 12 32  1  0
 12 33  1  0
 14 34  1  0
 14 35  1  0
 18 36  1  0
 18 37  1  0
 19 38  1  0
 23 39  1  0
 23 40  1  0
M  CHG  2   1  -1  17  -1
M  END
>  <UniqueID>  (90) 
89

>  <SMILES>  (90) 
[NH-]C(=O)c1cc2ccc([C@H]3CCN(CC(=O)[O-])C3)cc2n1C(N)=O

>  <Energy>  (90) 
84.34324848155234

>  <Genealogy>  (90) 
[NH-]C(=O)c1cc2ccc([C@H]3CCN(CC(=O)[O-])C3)cc2n1C(N)=O (protonated)
[NH-]C(=O)c1cc2ccc([C@H]3CCN(CC(=O)[O-])C3)cc2n1C(N)=O (3D coordinates assigned)
[NH-]C(=O)c1cc2ccc([C@H]3CCN(CC(=O)[O-])C3)cc2n1C(N)=O (nonaromatic ring conformer: 84.34324848155234 kcal/mol)

>  <smiles>  (90) 
NC(=O)c1cc2ccc([C@H]3CCN(CC(=O)O)C3)cc2n1C(N)=O

>  <score_type>  (90) 
oracle

>  <origin>  (90) 
adg

>  <m_score__min__energy>  (90) 
-11.210000000000001

>  <m_primary>  (90) 
energy

$$$$
90:0
     RDKit          3D

 34 35  0  0  0  0  0  0  0  0999 V2000
   -1.1460   21.2120  -33.1940 C   0  0  0  0  0  0  0  0  0  0  0  0
   -2.5360   20.8740  -32.6490 C   0  0  0  0  0  0  0  0  0  0  0  0
   -3.1760   19.7600  -33.4750 C   0  0  0  0  0  0  0  0  0  0  0  0
   -3.3770   22.0260  -32.6990 O   0  0  0  0  0  0  0  0  0  0  0  0
   -3.8340   22.7010  -31.5620 C   0  0  0  0  0  0  0  0  0  0  0  0
   -3.0150   23.1580  -30.7180 O   0  0  0  0  0  0  0  0  0  0  0  0
   -5.2430   22.8920  -31.3690 N   0  0  0  0  0  0  0  0  0  0  0  0
   -5.8860   24.0080  -30.9200 C   0  0  0  0  0  0  0  0  0  0  0  0
   -5.2440   25.2230  -30.3780 C   0  0  0  0  0  0  0  0  0  0  0  0
   -3.9650   25.6470  -30.8430 N   0  0  0  0  0  0  0  0  0  0  0  0
   -5.8090   25.8690  -29.4550 O   0  0  0  0  0  0  0  0  0  0  0  0
   -7.2670   23.8260  -30.9620 C   0  0  0  0  0  0  0  0  0  0  0  0
   -7.4520   22.5500  -31.4450 C   0  0  0  0  0  0  0  0  0  0  0  0
   -8.6290   21.8520  -31.7000 C   0  0  0  0  0  0  0  0  0  0  0  0
   -8.5230   20.5550  -32.2280 C   0  0  0  0  0  0  0  0  0  0  0  0
   -7.2530   19.9860  -32.4980 C   0  0  0  0  0  0  0  0  0  0  0  0
   -7.1640   18.6040  -33.0810 C   0  0  0  0  0  0  0  0  0  0  0  0
   -6.8500   17.6990  -32.0840 F   0  0  0  0  0  0  0  0  0  0  0  0
   -6.1840   18.5690  -34.0550 F   0  0  0  0  0  0  0  0  0  0  0  0
   -6.0800   20.7260  -32.2280 C   0  0  0  0  0  0  0  0  0  0  0  0
   -6.2160   22.0090  -31.6830 C   0  0  0  0  0  0  0  0  0  0  0  0
   -0.4543   21.3802  -32.3554 H   0  0  0  0  0  0  0  0  0  0  0  0
   -0.7802   20.3766  -33.8091 H   0  0  0  0  0  0  0  0  0  0  0  0
   -1.2047   22.1221  -33.8091 H   0  0  0  0  0  0  0  0  0  0  0  0
   -2.4239   20.5401  -31.6069 H   0  0  0  0  0  0  0  0  0  0  0  0
   -3.6090   19.0063  -32.8009 H   0  0  0  0  0  0  0  0  0  0  0  0
   -3.9687   20.1831  -34.1095 H   0  0  0  0  0  0  0  0  0  0  0  0
   -2.4112   19.2883  -34.1095 H   0  0  0  0  0  0  0  0  0  0  0  0
   -3.0880   25.3000  -30.3950 H   0  0  0  0  0  0  0  0  0  0  0  0
   -8.0440   24.5482  -30.6711 H   0  0  0  0  0  0  0  0  0  0  0  0
   -9.6114   22.3022  -31.4944 H   0  0  0  0  0  0  0  0  0  0  0  0
   -9.4345   19.9748  -32.4341 H   0  0  0  0  0  0  0  0  0  0  0  0
   -8.1334   18.3388  -33.5281 H   0  0  0  0  0  0  0  0  0  0  0  0
   -5.0860   20.3054  -32.4403 H   0  0  0  0  0  0  0  0  0  0  0  0
  1  2  1  0
  2  3  1  0
  2  4  1  0
  4  5  1  0
  5  6  2  0
  5  7  1  0
  7  8  1  0
  8  9  1  0
  9 10  1  0
  9 11  2  0
  8 12  2  0
 12 13  1  0
 13 14  2  0
 14 15  1  0
 15 16  2  0
 16 17  1  0
 17 18  1  0
 17 19  1  0
 16 20  1  0
 20 21  2  0
 21  7  1  0
 21 13  1  0
  1 22  1  0
  1 23  1  0
  1 24  1  0
  2 25  1  0
  3 26  1  0
  3 27  1  0
  3 28  1  0
 10 29  1  0
 12 30  1  0
 14 31  1  0
 15 32  1  0
 17 33  1  0
 20 34  1  0
M  CHG  1  10  -1
M  END
>  <UniqueID>  (91) 
90

>  <SMILES>  (91) 
CC(C)OC(=O)n1c(C([NH-])=O)cc2ccc(C(F)F)cc21

>  <Energy>  (91) 
66.69610165494814

>  <Genealogy>  (91) 
CC(C)OC(=O)n1c(C([NH-])=O)cc2ccc(C(F)F)cc21 (protonated)
CC(C)OC(=O)n1c(C([NH-])=O)cc2ccc(C(F)F)cc21 (3D coordinates assigned)
CC(C)OC(=O)n1c(C([NH-])=O)cc2ccc(C(F)F)cc21 (optimized conformer: 66.69610165494814 kcal/mol)

>  <smiles>  (91) 
CC(C)OC(=O)n1c(C(N)=O)cc2ccc(C(F)F)cc21

>  <score_type>  (91) 
oracle

>  <origin>  (91) 
adg

>  <m_score__min__energy>  (91) 
-9.25

>  <m_primary>  (91) 
energy

$$$$
91:0
     RDKit          3D

 48 50  0  0  0  0  0  0  0  0999 V2000
   -4.1740   17.4970  -34.9850 C   0  0  0  0  0  0  0  0  0  0  0  0
   -5.5560   18.0510  -34.6600 C   0  0  0  0  0  0  0  0  0  0  0  0
   -6.3180   17.0970  -33.9220 O   0  0  0  0  0  0  0  0  0  0  0  0
   -6.7790   17.3200  -32.6200 C   0  0  0  0  0  0  0  0  0  0  0  0
   -6.0750   17.0100  -31.6210 O   0  0  0  0  0  0  0  0  0  0  0  0
   -8.1480   17.8830  -32.4170 C   0  0  0  0  0  0  0  0  0  0  0  0
   -8.0590   19.3560  -32.1330 C   0  0  0  0  0  0  0  0  0  0  0  0
   -9.2130   20.1710  -32.2450 C   0  0  0  0  0  0  0  0  0  0  0  0
   -9.1540   21.5410  -31.9390 C   0  0  0  0  0  0  0  0  0  0  0  0
   -7.9330   22.0650  -31.5240 C   0  0  0  0  0  0  0  0  0  0  0  0
   -7.6070   23.3460  -31.1450 C   0  0  0  0  0  0  0  0  0  0  0  0
   -6.2530   23.3010  -30.8190 C   0  0  0  0  0  0  0  0  0  0  0  0
   -5.4580   24.4910  -30.4440 C   0  0  0  0  0  0  0  0  0  0  0  0
   -5.7230   25.1900  -29.2270 N   0  0  0  0  0  0  0  0  0  0  0  0
   -4.5610   24.9210  -31.2160 O   0  0  0  0  0  0  0  0  0  0  0  0
   -5.7630   22.0400  -30.9840 N   0  0  0  0  0  0  0  0  0  0  0  0
   -4.4350   21.5740  -30.6850 C   0  0  0  0  0  0  0  0  0  0  0  0
   -3.6740   22.2600  -29.9520 O   0  0  0  0  0  0  0  0  0  0  0  0
   -3.9910   20.3580  -31.2180 O   0  0  0  0  0  0  0  0  0  0  0  0
   -3.4980   20.2170  -32.5500 C   0  0  0  0  0  0  0  0  0  0  0  0
   -2.3900   19.1800  -32.5920 C   0  0  0  0  0  0  0  0  0  0  0  0
   -1.5070   19.5940  -33.7540 C   0  0  0  0  0  0  0  0  0  0  0  0
   -1.6110   21.1120  -33.8340 C   0  0  0  0  0  0  0  0  0  0  0  0
   -2.8660   21.5110  -33.0610 C   0  0  0  0  0  0  0  0  0  0  0  0
   -6.8050   21.2940  -31.4170 C   0  0  0  0  0  0  0  0  0  0  0  0
   -6.8400   19.9220  -31.6960 C   0  0  0  0  0  0  0  0  0  0  0  0
   -3.6362   17.2814  -34.0500 H   0  0  0  0  0  0  0  0  0  0  0  0
   -4.2783   16.5712  -35.5698 H   0  0  0  0  0  0  0  0  0  0  0  0
   -3.6099   18.2385  -35.5698 H   0  0  0  0  0  0  0  0  0  0  0  0
   -5.4466   18.9674  -34.0615 H   0  0  0  0  0  0  0  0  0  0  0  0
   -6.0801   18.2720  -35.6015 H   0  0  0  0  0  0  0  0  0  0  0  0
   -8.7467   17.7224  -33.3257 H   0  0  0  0  0  0  0  0  0  0  0  0
   -8.6241   17.3780  -31.5636 H   0  0  0  0  0  0  0  0  0  0  0  0
  -10.1638   19.7268  -32.5746 H   0  0  0  0  0  0  0  0  0  0  0  0
  -10.0453   22.1799  -32.0247 H   0  0  0  0  0  0  0  0  0  0  0  0
   -8.2734   24.2203  -31.1072 H   0  0  0  0  0  0  0  0  0  0  0  0
   -6.4280   24.8390  -28.5410 H   0  0  0  0  0  0  0  0  0  0  0  0
   -5.1770   26.0480  -28.9860 H   0  0  0  0  0  0  0  0  0  0  0  0
   -4.3621   19.9327  -33.1685 H   0  0  0  0  0  0  0  0  0  0  0  0
   -1.8193   19.1860  -31.6517 H   0  0  0  0  0  0  0  0  0  0  0  0
   -2.7836   18.1603  -32.7156 H   0  0  0  0  0  0  0  0  0  0  0  0
   -0.4657   19.2905  -33.5709 H   0  0  0  0  0  0  0  0  0  0  0  0
   -1.8233   19.1164  -34.6931 H   0  0  0  0  0  0  0  0  0  0  0  0
   -0.7232   21.5766  -33.3801 H   0  0  0  0  0  0  0  0  0  0  0  0
   -1.6685   21.4485  -34.8797 H   0  0  0  0  0  0  0  0  0  0  0  0
   -2.5993   22.1621  -32.2155 H   0  0  0  0  0  0  0  0  0  0  0  0
   -3.5659   22.0661  -33.7029 H   0  0  0  0  0  0  0  0  0  0  0  0
   -5.9405   19.3000  -31.5779 H   0  0  0  0  0  0  0  0  0  0  0  0
  1  2  1  0
  2  3  1  0
  3  4  1  0
  4  5  2  0
  4  6  1  0
  6  7  1  0
  7  8  2  0
  8  9  1  0
  9 10  2  0
 10 11  1  0
 11 12  2  0
 12 13  1  0
 13 14  1  0
 13 15  2  0
 12 16  1  0
 16 17  1  0
 17 18  2  0
 17 19  1  0
 19 20  1  0
 20 21  1  0
 21 22  1  0
 22 23  1  0
 23 24  1  0
 16 25  1  0
 25 26  2  0
 26  7  1  0
 25 10  1  0
 24 20  1  0
  1 27  1  0
  1 28  1  0
  1 29  1  0
  2 30  1  0
  2 31  1  0
  6 32  1  0
  6 33  1  0
  8 34  1  0
  9 35  1  0
 11 36  1  0
 14 37  1  0
 14 38  1  0
 20 39  1  0
 21 40  1  0
 21 41  1  0
 22 42  1  0
 22 43  1  0
 23 44  1  0
 23 45  1  0
 24 46  1  0
 24 47  1  0
 26 48  1  0
M  END
>  <UniqueID>  (92) 
91

>  <SMILES>  (92) 
CCOC(=O)Cc1ccc2cc(C(N)=O)n(C(=O)OC3CCCC3)c2c1

>  <Energy>  (92) 
78.90774990108089

>  <Genealogy>  (92) 
CCOC(=O)Cc1ccc2cc(C(N)=O)n(C(=O)OC3CCCC3)c2c1 (3D coordinates assigned)
CCOC(=O)Cc1ccc2cc(C(N)=O)n(C(=O)OC3CCCC3)c2c1 (nonaromatic ring conformer: 78.90774990108089 kcal/mol)

>  <smiles>  (92) 
CCOC(=O)Cc1ccc2cc(C(N)=O)n(C(=O)OC3CCCC3)c2c1

>  <score_type>  (92) 
oracle

>  <origin>  (92) 
adg

>  <m_score__min__energy>  (92) 
-9.0700000000000003

>  <m_primary>  (92) 
energy

$$$$
92:0
     RDKit          3D

 38 39  0  0  0  0  0  0  0  0999 V2000
   -7.0790   18.3190  -32.7080 C   0  0  0  0  0  0  0  0  0  0  0  0
   -7.2570   19.7600  -32.3370 C   0  0  0  0  0  0  0  0  0  0  0  0
   -8.5480   20.3430  -32.3540 C   0  0  0  0  0  0  0  0  0  0  0  0
   -8.7360   21.6780  -31.9600 C   0  0  0  0  0  0  0  0  0  0  0  0
   -7.6180   22.4010  -31.5530 C   0  0  0  0  0  0  0  0  0  0  0  0
   -7.5230   23.6920  -31.0850 C   0  0  0  0  0  0  0  0  0  0  0  0
   -6.1730   23.8820  -30.8040 C   0  0  0  0  0  0  0  0  0  0  0  0
   -5.6130   25.1650  -30.3320 C   0  0  0  0  0  0  0  0  0  0  0  0
   -4.2560   25.5240  -30.5990 N   0  0  0  0  0  0  0  0  0  0  0  0
   -6.3600   25.9810  -29.7300 O   0  0  0  0  0  0  0  0  0  0  0  0
   -5.4620   22.7520  -31.0710 N   0  0  0  0  0  0  0  0  0  0  0  0
   -4.0700   22.5110  -30.8140 C   0  0  0  0  0  0  0  0  0  0  0  0
   -3.1970   23.0840  -31.5190 O   0  0  0  0  0  0  0  0  0  0  0  0
   -3.7000   21.6390  -29.7780 O   0  0  0  0  0  0  0  0  0  0  0  0
   -3.0410   21.9990  -28.5560 C   0  0  0  0  0  0  0  0  0  0  0  0
   -1.7000   22.6430  -28.9380 C   0  0  0  0  0  0  0  0  0  0  0  0
   -3.8810   23.0240  -27.7690 C   0  0  0  0  0  0  0  0  0  0  0  0
   -2.7670   20.7480  -27.7000 C   0  0  0  0  0  0  0  0  0  0  0  0
   -6.3610   21.8540  -31.5330 C   0  0  0  0  0  0  0  0  0  0  0  0
   -6.1490   20.5190  -31.9000 C   0  0  0  0  0  0  0  0  0  0  0  0
   -7.0040   17.7116  -31.7940 H   0  0  0  0  0  0  0  0  0  0  0  0
   -7.9426   17.9837  -33.3012 H   0  0  0  0  0  0  0  0  0  0  0  0
   -6.1598   18.2039  -33.3012 H   0  0  0  0  0  0  0  0  0  0  0  0
   -9.4117   19.7443  -32.6790 H   0  0  0  0  0  0  0  0  0  0  0  0
   -9.7352   22.1378  -31.9726 H   0  0  0  0  0  0  0  0  0  0  0  0
   -8.3395   24.4184  -30.9598 H   0  0  0  0  0  0  0  0  0  0  0  0
   -3.8660   26.4160  -30.2210 H   0  0  0  0  0  0  0  0  0  0  0  0
   -3.6630   24.9540  -31.2420 H   0  0  0  0  0  0  0  0  0  0  0  0
   -1.1473   22.9084  -28.0247 H   0  0  0  0  0  0  0  0  0  0  0  0
   -1.1073   21.9313  -29.5314 H   0  0  0  0  0  0  0  0  0  0  0  0
   -1.8849   23.5505  -29.5314 H   0  0  0  0  0  0  0  0  0  0  0  0
   -3.7452   22.8583  -26.6901 H   0  0  0  0  0  0  0  0  0  0  0  0
   -3.5540   24.0419  -28.0276 H   0  0  0  0  0  0  0  0  0  0  0  0
   -4.9433   22.9033  -28.0276 H   0  0  0  0  0  0  0  0  0  0  0  0
   -2.8251   21.0132  -26.6340 H   0  0  0  0  0  0  0  0  0  0  0  0
   -3.5175   19.9766  -27.9274 H   0  0  0  0  0  0  0  0  0  0  0  0
   -1.7628   20.3609  -27.9274 H   0  0  0  0  0  0  0  0  0  0  0  0
   -5.1448   20.0729  -31.8491 H   0  0  0  0  0  0  0  0  0  0  0  0
  1  2  1  0
  2  3  2  0
  3  4  1  0
  4  5  2  0
  5  6  1  0
  6  7  2  0
  7  8  1  0
  8  9  1  0
  8 10  2  0
  7 11  1  0
 11 12  1  0
 12 13  2  0
 12 14  1  0
 14 15  1  0
 15 16  1  0
 15 17  1  0
 15 18  1  0
 11 19  1  0
 19 20  2  0
 20  2  1  0
 19  5  1  0
  1 21  1  0
  1 22  1  0
  1 23  1  0
  3 24  1  0
  4 25  1  0
  6 26  1  0
  9 27  1  0
  9 28  1  0
 16 29  1  0
 16 30  1  0
 16 31  1  0
 17 32  1  0
 17 33  1  0
 17 34  1  0
 18 35  1  0
 18 36  1  0
 18 37  1  0
 20 38  1  0
M  END
>  <UniqueID>  (93) 
92

>  <SMILES>  (93) 
Cc1ccc2cc(C(N)=O)n(C(=O)OC(C)(C)C)c2c1

>  <Energy>  (93) 
71.47726236505333

>  <Genealogy>  (93) 
Cc1ccc2cc(C(N)=O)n(C(=O)OC(C)(C)C)c2c1 (3D coordinates assigned)
Cc1ccc2cc(C(N)=O)n(C(=O)OC(C)(C)C)c2c1 (optimized conformer: 71.47726236505333 kcal/mol)

>  <smiles>  (93) 
Cc1ccc2cc(C(N)=O)n(C(=O)OC(C)(C)C)c2c1

>  <score_type>  (93) 
oracle

>  <origin>  (93) 
adg

>  <m_score__min__energy>  (93) 
-8.6300000000000008

>  <m_primary>  (93) 
energy

$$$$
93:0
     RDKit          3D

 39 41  0  0  0  0  0  0  0  0999 V2000
   -3.3170   22.6770  -28.9300 C   0  0  0  0  0  0  0  0  0  0  0  0
   -3.0500   23.1870  -30.2310 O   0  0  0  0  0  0  0  0  0  0  0  0
   -3.7210   22.7340  -31.3710 C   0  0  0  0  0  0  0  0  0  0  0  0
   -3.0690   22.2930  -32.3580 O   0  0  0  0  0  0  0  0  0  0  0  0
   -5.1570   22.7610  -31.4120 N   0  0  0  0  0  0  0  0  0  0  0  0
   -5.9790   23.7370  -30.9330 C   0  0  0  0  0  0  0  0  0  0  0  0
   -5.5380   25.0520  -30.4130 C   0  0  0  0  0  0  0  0  0  0  0  0
   -4.2000   25.5070  -30.6230 N   0  0  0  0  0  0  0  0  0  0  0  0
   -6.3320   25.7680  -29.7500 O   0  0  0  0  0  0  0  0  0  0  0  0
   -7.3140   23.3720  -31.0900 C   0  0  0  0  0  0  0  0  0  0  0  0
   -7.2830   22.1310  -31.6850 C   0  0  0  0  0  0  0  0  0  0  0  0
   -8.3260   21.2990  -32.0620 C   0  0  0  0  0  0  0  0  0  0  0  0
   -8.0100   20.0570  -32.6340 C   0  0  0  0  0  0  0  0  0  0  0  0
   -6.6540   19.6460  -32.8170 C   0  0  0  0  0  0  0  0  0  0  0  0
   -6.3340   18.3450  -33.4030 N   0  0  0  0  0  0  0  0  0  0  0  0
   -7.1990   17.1840  -33.1040 C   0  0  0  0  0  0  0  0  0  0  0  0
   -6.7880   15.9070  -33.8400 C   0  0  0  0  0  0  0  0  0  0  0  0
   -5.3870   15.7930  -33.9130 O   0  0  0  0  0  0  0  0  0  0  0  0
   -4.9060   16.7920  -34.7790 C   0  0  0  0  0  0  0  0  0  0  0  0
   -5.0750   18.1820  -34.1600 C   0  0  0  0  0  0  0  0  0  0  0  0
   -5.6240   20.5430  -32.4170 C   0  0  0  0  0  0  0  0  0  0  0  0
   -5.9740   21.7830  -31.8670 C   0  0  0  0  0  0  0  0  0  0  0  0
   -2.9459   23.3858  -28.1751 H   0  0  0  0  0  0  0  0  0  0  0  0
   -4.4015   22.5420  -28.8045 H   0  0  0  0  0  0  0  0  0  0  0  0
   -2.8101   21.7089  -28.8045 H   0  0  0  0  0  0  0  0  0  0  0  0
   -3.8880   26.4190  -30.2200 H   0  0  0  0  0  0  0  0  0  0  0  0
   -3.5280   24.9680  -31.2130 H   0  0  0  0  0  0  0  0  0  0  0  0
   -8.2030   23.9515  -30.8004 H   0  0  0  0  0  0  0  0  0  0  0  0
   -9.3728   21.6041  -31.9167 H   0  0  0  0  0  0  0  0  0  0  0  0
   -8.8232   19.3861  -32.9479 H   0  0  0  0  0  0  0  0  0  0  0  0
   -7.1585   16.9899  -32.0220 H   0  0  0  0  0  0  0  0  0  0  0  0
   -8.2125   17.4408  -33.4458 H   0  0  0  0  0  0  0  0  0  0  0  0
   -7.1918   15.0365  -33.3021 H   0  0  0  0  0  0  0  0  0  0  0  0
   -7.1890   15.9491  -34.8634 H   0  0  0  0  0  0  0  0  0  0  0  0
   -3.8387   16.6135  -34.9766 H   0  0  0  0  0  0  0  0  0  0  0  0
   -5.4829   16.7524  -35.7148 H   0  0  0  0  0  0  0  0  0  0  0  0
   -4.2325   18.3627  -33.4762 H   0  0  0  0  0  0  0  0  0  0  0  0
   -5.1029   18.9030  -34.9903 H   0  0  0  0  0  0  0  0  0  0  0  0
   -4.5663   20.2661  -32.5382 H   0  0  0  0  0  0  0  0  0  0  0  0
  1  2  1  0
  2  3  1  0
  3  4  2  0
  3  5  1  0
  5  6  1  0
  6  7  1  0
  7  8  1  0
  7  9  2  0
  6 10  2  0
 10 11  1  0
 11 12  2  0
 12 13  1  0
 13 14  2  0
 14 15  1  0
 15 16  1  0
 16 17  1  0
 17 18  1  0
 18 19  1  0
 19 20  1  0
 14 21  1  0
 21 22  2  0
 22  5  1  0
 22 11  1  0
 20 15  1  0
  1 23  1  0
  1 24  1  0
  1 25  1  0
  8 26  1  0
  8 27  1  0
 10 28  1  0
 12 29  1  0
 13 30  1  0
 16 31  1  0
 16 32  1  0
 17 33  1  0
 17 34  1  0
 19 35  1  0
 19 36  1  0
 20 37  1  0
 20 38  1  0
 21 39  1  0
M  END
>  <UniqueID>  (94) 
93

>  <SMILES>  (94) 
COC(=O)n1c(C(N)=O)cc2ccc(N3CCOCC3)cc21

>  <Energy>  (94) 
84.75782884962224

>  <Genealogy>  (94) 
COC(=O)n1c(C(N)=O)cc2ccc(N3CCOCC3)cc21 (3D coordinates assigned)
COC(=O)n1c(C(N)=O)cc2ccc(N3CCOCC3)cc21 (nonaromatic ring conformer: 84.75782884962224 kcal/mol)

>  <smiles>  (94) 
COC(=O)n1c(C(N)=O)cc2ccc(N3CCOCC3)cc21

>  <score_type>  (94) 
oracle

>  <origin>  (94) 
adg

>  <m_score__min__energy>  (94) 
-8.4600000000000009

>  <m_primary>  (94) 
energy

$$$$
94:0
     RDKit          3D

 35 37  0  0  0  0  0  0  0  0999 V2000
   -3.2430   24.1890  -30.5730 N   0  0  0  0  0  0  0  0  0  0  0  0
   -3.9350   23.0340  -31.0440 C   0  0  0  0  0  0  0  0  0  0  0  0
   -3.2870   21.9850  -31.3010 O   0  0  0  0  0  0  0  0  0  0  0  0
   -5.3630   23.0630  -31.2100 N   0  0  0  0  0  0  0  0  0  0  0  0
   -6.2270   24.0310  -30.7950 C   0  0  0  0  0  0  0  0  0  0  0  0
   -5.8520   25.3460  -30.2380 C   0  0  0  0  0  0  0  0  0  0  0  0
   -6.3760   25.7960  -28.9880 N   0  0  0  0  0  0  0  0  0  0  0  0
   -5.0110   26.0580  -30.8470 O   0  0  0  0  0  0  0  0  0  0  0  0
   -7.5460   23.6440  -31.0180 C   0  0  0  0  0  0  0  0  0  0  0  0
   -7.4650   22.4010  -31.6030 C   0  0  0  0  0  0  0  0  0  0  0  0
   -8.4760   21.5420  -32.0190 C   0  0  0  0  0  0  0  0  0  0  0  0
   -8.1060   20.2990  -32.5550 C   0  0  0  0  0  0  0  0  0  0  0  0
   -6.7400   19.9320  -32.6600 C   0  0  0  0  0  0  0  0  0  0  0  0
   -6.3650   18.6060  -33.2080 C   0  0  0  0  0  0  0  0  0  0  0  0
   -7.2240   17.5100  -33.0290 C   0  0  0  0  0  0  0  0  0  0  0  0
   -6.8830   16.2550  -33.5310 C   0  0  0  0  0  0  0  0  0  0  0  0
   -5.6830   16.0760  -34.2190 C   0  0  0  0  0  0  0  0  0  0  0  0
   -4.8050   17.1560  -34.4200 C   0  0  0  0  0  0  0  0  0  0  0  0
   -3.5380   16.9380  -35.1610 C   0  0  0  0  0  0  0  0  0  0  0  0
   -2.5200   17.6390  -34.9230 O   0  0  0  0  0  0  0  0  0  0  0  0
   -3.4570   15.9500  -36.1360 O   0  0  0  0  0  0  0  0  0  0  0  0
   -5.1550   18.4260  -33.9100 C   0  0  0  0  0  0  0  0  0  0  0  0
   -4.3450   19.4960  -34.1270 F   0  0  0  0  0  0  0  0  0  0  0  0
   -5.7400   20.8290  -32.2170 C   0  0  0  0  0  0  0  0  0  0  0  0
   -6.1370   22.0710  -31.7070 C   0  0  0  0  0  0  0  0  0  0  0  0
   -3.2220   25.0680  -31.1350 H   0  0  0  0  0  0  0  0  0  0  0  0
   -6.9430   25.1640  -28.3820 H   0  0  0  0  0  0  0  0  0  0  0  0
   -6.1280   26.7450  -28.6270 H   0  0  0  0  0  0  0  0  0  0  0  0
   -8.4577   24.2107  -30.7779 H   0  0  0  0  0  0  0  0  0  0  0  0
   -9.5344   21.8282  -31.9306 H   0  0  0  0  0  0  0  0  0  0  0  0
   -8.8843   19.6013  -32.8977 H   0  0  0  0  0  0  0  0  0  0  0  0
   -8.1730   17.6426  -32.4887 H   0  0  0  0  0  0  0  0  0  0  0  0
   -7.5628   15.4028  -33.3840 H   0  0  0  0  0  0  0  0  0  0  0  0
   -5.4210   15.0810  -34.6079 H   0  0  0  0  0  0  0  0  0  0  0  0
   -4.6755   20.5572  -32.2719 H   0  0  0  0  0  0  0  0  0  0  0  0
  1  2  1  0
  2  3  2  0
  2  4  1  0
  4  5  1  0
  5  6  1  0
  6  7  1  0
  6  8  2  0
  5  9  2  0
  9 10  1  0
 10 11  2  0
 11 12  1  0
 12 13  2  0
 13 14  1  0
 14 15  2  0
 15 16  1  0
 16 17  2  0
 17 18  1  0
 18 19  1  0
 19 20  2  0
 19 21  1  0
 18 22  2  0
 22 23  1  0
 13 24  1  0
 24 25  2  0
 25  4  1  0
 25 10  1  0
 22 14  1  0
  1 26  1  0
  7 27  1  0
  7 28  1  0
  9 29  1  0
 11 30  1  0
 12 31  1  0
 15 32  1  0
 16 33  1  0
 17 34  1  0
 24 35  1  0
M  CHG  2   1  -1  21  -1
M  END
>  <UniqueID>  (95) 
94

>  <SMILES>  (95) 
[NH-]C(=O)n1c(C(N)=O)cc2ccc(-c3cccc(C(=O)[O-])c3F)cc21

>  <Energy>  (95) 
85.56885138661558

>  <Genealogy>  (95) 
[NH-]C(=O)n1c(C(N)=O)cc2ccc(-c3cccc(C(=O)[O-])c3F)cc21 (protonated)
[NH-]C(=O)n1c(C(N)=O)cc2ccc(-c3cccc(C(=O)[O-])c3F)cc21 (3D coordinates assigned)
[NH-]C(=O)n1c(C(N)=O)cc2ccc(-c3cccc(C(=O)[O-])c3F)cc21 (optimized conformer: 85.56885138661558 kcal/mol)

>  <smiles>  (95) 
NC(=O)c1cc2ccc(-c3cccc(C(=O)O)c3F)cc2n1C(N)=O

>  <score_type>  (95) 
oracle

>  <origin>  (95) 
adg

>  <m_score__min__energy>  (95) 
-10.01

>  <m_primary>  (95) 
energy

$$$$
95:0
     RDKit          3D

 45 47  0  0  0  0  0  0  0  0999 V2000
   -6.4450   13.6560  -34.2340 C   0  0  0  0  0  0  0  0  0  0  0  0
   -5.0410   14.1650  -33.8340 C   0  0  0  0  0  0  0  0  0  0  0  0
   -4.6130   13.4090  -32.5570 C   0  0  0  0  0  0  0  0  0  0  0  0
   -5.0370   15.6550  -33.6740 N   0  0  0  0  0  0  0  0  0  0  0  0
   -5.1280   16.0350  -32.2260 C   0  0  0  0  0  0  0  0  0  0  0  0
   -6.1520   17.1370  -31.8950 C   0  0  0  0  0  0  0  0  0  0  0  0
   -6.1070   18.2080  -32.8930 N   0  0  0  0  0  0  0  0  0  0  0  0
   -6.3630   19.5790  -32.5170 C   0  0  0  0  0  0  0  0  0  0  0  0
   -7.6630   20.1290  -32.6640 C   0  0  0  0  0  0  0  0  0  0  0  0
   -7.9250   21.4630  -32.3130 C   0  0  0  0  0  0  0  0  0  0  0  0
   -6.8770   22.2230  -31.8080 C   0  0  0  0  0  0  0  0  0  0  0  0
   -6.8490   23.5430  -31.4230 C   0  0  0  0  0  0  0  0  0  0  0  0
   -5.5380   23.7800  -31.0140 C   0  0  0  0  0  0  0  0  0  0  0  0
   -5.0890   25.0640  -30.4380 C   0  0  0  0  0  0  0  0  0  0  0  0
   -3.8770   25.6770  -30.8690 N   0  0  0  0  0  0  0  0  0  0  0  0
   -5.7570   25.6000  -29.5150 O   0  0  0  0  0  0  0  0  0  0  0  0
   -4.7820   22.6530  -31.1500 N   0  0  0  0  0  0  0  0  0  0  0  0
   -3.3700   22.5100  -30.9220 C   0  0  0  0  0  0  0  0  0  0  0  0
   -2.7970   23.1950  -30.0340 O   0  0  0  0  0  0  0  0  0  0  0  0
   -2.6290   21.5950  -31.6590 O   0  0  0  0  0  0  0  0  0  0  0  0
   -5.6180   21.7080  -31.6370 C   0  0  0  0  0  0  0  0  0  0  0  0
   -5.3240   20.3870  -31.9950 C   0  0  0  0  0  0  0  0  0  0  0  0
   -6.0340   17.8470  -34.3120 C   0  0  0  0  0  0  0  0  0  0  0  0
   -6.0780   16.3240  -34.4980 C   0  0  0  0  0  0  0  0  0  0  0  0
   -7.0302   13.4438  -33.3271 H   0  0  0  0  0  0  0  0  0  0  0  0
   -6.9580   14.4254  -34.8298 H   0  0  0  0  0  0  0  0  0  0  0  0
   -6.3457   12.7366  -34.8298 H   0  0  0  0  0  0  0  0  0  0  0  0
   -4.3047   13.9592  -34.6249 H   0  0  0  0  0  0  0  0  0  0  0  0
   -4.9338   13.9757  -31.6705 H   0  0  0  0  0  0  0  0  0  0  0  0
   -5.0817   12.4139  -32.5455 H   0  0  0  0  0  0  0  0  0  0  0  0
   -3.5186   13.2989  -32.5455 H   0  0  0  0  0  0  0  0  0  0  0  0
   -4.1140   16.0040  -34.0340 H   0  0  0  0  0  0  0  0  0  0  0  0
   -5.4016   15.1351  -31.6556 H   0  0  0  0  0  0  0  0  0  0  0  0
   -4.1434   16.4460  -31.9582 H   0  0  0  0  0  0  0  0  0  0  0  0
   -7.1610   16.6991  -31.8817 H   0  0  0  0  0  0  0  0  0  0  0  0
   -5.9053   17.5624  -30.9111 H   0  0  0  0  0  0  0  0  0  0  0  0
   -8.4762   19.5018  -33.0582 H   0  0  0  0  0  0  0  0  0  0  0  0
   -8.9299   21.8937  -32.4342 H   0  0  0  0  0  0  0  0  0  0  0  0
   -7.6837   24.2593  -31.4353 H   0  0  0  0  0  0  0  0  0  0  0  0
   -2.9500   25.2890  -30.5870 H   0  0  0  0  0  0  0  0  0  0  0  0
   -4.3073   19.9852  -31.8734 H   0  0  0  0  0  0  0  0  0  0  0  0
   -6.8859   18.2983  -34.8418 H   0  0  0  0  0  0  0  0  0  0  0  0
   -5.0831   18.2212  -34.7191 H   0  0  0  0  0  0  0  0  0  0  0  0
   -7.0687   15.9534  -34.1959 H   0  0  0  0  0  0  0  0  0  0  0  0
   -5.8866   16.0952  -35.5568 H   0  0  0  0  0  0  0  0  0  0  0  0
  1  2  1  0
  2  3  1  0
  2  4  1  0
  4  5  1  0
  5  6  1  0
  6  7  1  0
  7  8  1  0
  8  9  2  0
  9 10  1  0
 10 11  2  0
 11 12  1  0
 12 13  2  0
 13 14  1  0
 14 15  1  0
 14 16  2  0
 13 17  1  0
 17 18  1  0
 18 19  2  0
 18 20  1  0
 17 21  1  0
 21 22  2  0
  7 23  1  0
 23 24  1  0
 24  4  1  0
 22  8  1  0
 21 11  1  0
  1 25  1  0
  1 26  1  0
  1 27  1  0
  2 28  1  0
  3 29  1  0
  3 30  1  0
  3 31  1  0
  4 32  1  0
  5 33  1  0
  5 34  1  0
  6 35  1  0
  6 36  1  0
  9 37  1  0
 10 38  1  0
 12 39  1  0
 15 40  1  0
 22 41  1  0
 23 42  1  0
 23 43  1  0
 24 44  1  0
 24 45  1  0
M  CHG  3   4   1  15  -1  20  -1
M  END
>  <UniqueID>  (96) 
95

>  <SMILES>  (96) 
CC(C)[NH+]1CCN(c2ccc3cc(C([NH-])=O)n(C(=O)[O-])c3c2)CC1

>  <Energy>  (96) 
99.75051457074854

>  <Genealogy>  (96) 
CC(C)[NH+]1CCN(c2ccc3cc(C([NH-])=O)n(C(=O)[O-])c3c2)CC1 (protonated)
CC(C)[NH+]1CCN(c2ccc3cc(C([NH-])=O)n(C(=O)[O-])c3c2)CC1 (3D coordinates assigned)
CC(C)[NH+]1CCN(c2ccc3cc(C([NH-])=O)n(C(=O)[O-])c3c2)CC1 (nonaromatic ring conformer: 99.75051457074854 kcal/mol)

>  <smiles>  (96) 
CC(C)N1CCN(c2ccc3cc(C(N)=O)n(C(=O)O)c3c2)CC1

>  <score_type>  (96) 
oracle

>  <origin>  (96) 
adg

>  <m_score__min__energy>  (96) 
-10.15

>  <m_primary>  (96) 
energy

$$$$
96:0
     RDKit          3D

 48 51  0  0  0  0  0  0  0  0999 V2000
   -6.4830   25.8450  -28.8830 N   0  0  0  0  0  0  0  0  0  0  0  0
   -6.0410   25.4770  -30.1890 C   0  0  0  0  0  0  0  0  0  0  0  0
   -5.3660   26.2960  -30.8670 O   0  0  0  0  0  0  0  0  0  0  0  0
   -6.3050   24.1300  -30.7350 C   0  0  0  0  0  0  0  0  0  0  0  0
   -7.5850   23.6330  -30.9600 C   0  0  0  0  0  0  0  0  0  0  0  0
   -7.3990   22.3920  -31.5220 C   0  0  0  0  0  0  0  0  0  0  0  0
   -8.3340   21.4480  -31.9310 C   0  0  0  0  0  0  0  0  0  0  0  0
   -7.8620   20.2280  -32.4420 C   0  0  0  0  0  0  0  0  0  0  0  0
   -6.4700   19.9660  -32.5240 C   0  0  0  0  0  0  0  0  0  0  0  0
   -5.9810   18.6660  -33.0500 C   0  0  0  0  0  0  0  0  0  0  0  0
   -5.8720   17.5490  -32.2040 C   0  0  0  0  0  0  0  0  0  0  0  0
   -5.4200   16.3230  -32.7010 C   0  0  0  0  0  0  0  0  0  0  0  0
   -5.0780   16.1880  -34.0540 C   0  0  0  0  0  0  0  0  0  0  0  0
   -4.6180   14.8530  -34.5950 C   0  0  0  0  0  0  0  0  0  0  0  0
   -3.1540   14.6440  -34.5060 N   0  0  0  0  0  0  0  0  0  0  0  0
   -2.3540   15.3710  -35.5130 C   0  0  0  0  0  0  0  0  0  0  0  0
   -1.8890   16.7630  -35.0220 C   0  0  0  0  0  0  0  0  0  0  0  0
   -2.2630   17.0270  -33.6850 O   0  0  0  0  0  0  0  0  0  0  0  0
   -1.8150   15.9810  -32.8540 C   0  0  0  0  0  0  0  0  0  0  0  0
   -2.5920   14.6840  -33.1380 C   0  0  0  0  0  0  0  0  0  0  0  0
   -5.1680   17.3070  -34.8980 C   0  0  0  0  0  0  0  0  0  0  0  0
   -5.6180   18.5330  -34.4010 C   0  0  0  0  0  0  0  0  0  0  0  0
   -5.5500   20.9520  -32.0950 C   0  0  0  0  0  0  0  0  0  0  0  0
   -6.0490   22.1680  -31.6120 C   0  0  0  0  0  0  0  0  0  0  0  0
   -5.3610   23.2280  -31.1280 N   0  0  0  0  0  0  0  0  0  0  0  0
   -3.9370   23.3230  -30.9570 C   0  0  0  0  0  0  0  0  0  0  0  0
   -3.4100   24.4080  -30.5960 O   0  0  0  0  0  0  0  0  0  0  0  0
   -3.1240   22.2190  -31.1860 O   0  0  0  0  0  0  0  0  0  0  0  0
   -6.3210   26.8140  -28.5290 H   0  0  0  0  0  0  0  0  0  0  0  0
   -6.8930   25.1380  -28.2330 H   0  0  0  0  0  0  0  0  0  0  0  0
   -8.5417   24.1275  -30.7360 H   0  0  0  0  0  0  0  0  0  0  0  0
   -9.4126   21.6508  -31.8565 H   0  0  0  0  0  0  0  0  0  0  0  0
   -8.5796   19.4670  -32.7825 H   0  0  0  0  0  0  0  0  0  0  0  0
   -6.1445   17.6402  -31.1422 H   0  0  0  0  0  0  0  0  0  0  0  0
   -5.3321   15.4587  -32.0262 H   0  0  0  0  0  0  0  0  0  0  0  0
   -5.1174   14.0566  -34.0237 H   0  0  0  0  0  0  0  0  0  0  0  0
   -4.8801   14.8327  -35.6631 H   0  0  0  0  0  0  0  0  0  0  0  0
   -1.4655   14.7698  -35.7562 H   0  0  0  0  0  0  0  0  0  0  0  0
   -2.9950   15.5285  -36.3929 H   0  0  0  0  0  0  0  0  0  0  0  0
   -0.7927   16.8134  -35.0964 H   0  0  0  0  0  0  0  0  0  0  0  0
   -2.3771   17.5173  -35.6567 H   0  0  0  0  0  0  0  0  0  0  0  0
   -0.7446   15.8075  -33.0386 H   0  0  0  0  0  0  0  0  0  0  0  0
   -1.9820   16.2687  -31.8055 H   0  0  0  0  0  0  0  0  0  0  0  0
   -1.9098   13.8303  -33.0125 H   0  0  0  0  0  0  0  0  0  0  0  0
   -3.4337   14.6389  -32.4312 H   0  0  0  0  0  0  0  0  0  0  0  0
   -4.8825   17.2178  -35.9566 H   0  0  0  0  0  0  0  0  0  0  0  0
   -5.6887   19.4011  -35.0728 H   0  0  0  0  0  0  0  0  0  0  0  0
   -4.4666   20.7673  -32.1400 H   0  0  0  0  0  0  0  0  0  0  0  0
  1  2  1  0
  2  3  2  0
  2  4  1  0
  4  5  2  0
  5  6  1  0
  6  7  2  0
  7  8  1  0
  8  9  2  0
  9 10  1  0
 10 11  2  0
 11 12  1  0
 12 13  2  0
 13 14  1  0
 14 15  1  0
 15 16  1  0
 16 17  1  0
 17 18  1  0
 18 19  1  0
 19 20  1  0
 13 21  1  0
 21 22  2  0
  9 23  1  0
 23 24  2  0
 24 25  1  0
 25 26  1  0
 26 27  2  0
 26 28  1  0
 25  4  1  0
 24  6  1  0
 22 10  1  0
 20 15  1  0
  1 29  1  0
  1 30  1  0
  5 31  1  0
  7 32  1  0
  8 33  1  0
 11 34  1  0
 12 35  1  0
 14 36  1  0
 14 37  1  0
 16 38  1  0
 16 39  1  0
 17 40  1  0
 17 41  1  0
 19 42  1  0
 19 43  1  0
 20 44  1  0
 20 45  1  0
 21 46  1  0
 22 47  1  0
 23 48  1  0
M  CHG  1  28  -1
M  END
>  <UniqueID>  (97) 
96

>  <SMILES>  (97) 
NC(=O)c1cc2ccc(-c3ccc(CN4CCOCC4)cc3)cc2n1C(=O)[O-]

>  <Energy>  (97) 
111.4864122726641

>  <Genealogy>  (97) 
NC(=O)c1cc2ccc(-c3ccc(CN4CCOCC4)cc3)cc2n1C(=O)[O-] (protonated)
NC(=O)c1cc2ccc(-c3ccc(CN4CCOCC4)cc3)cc2n1C(=O)[O-] (3D coordinates assigned)
NC(=O)c1cc2ccc(-c3ccc(CN4CCOCC4)cc3)cc2n1C(=O)[O-] (nonaromatic ring conformer: 111.4864122726641 kcal/mol)

>  <smiles>  (97) 
NC(=O)c1cc2ccc(-c3ccc(CN4CCOCC4)cc3)cc2n1C(=O)O

>  <score_type>  (97) 
oracle

>  <origin>  (97) 
adg

>  <m_score__min__energy>  (97) 
-10.109999999999999

>  <m_primary>  (97) 
energy

$$$$
97:0
     RDKit          3D

 34 36  0  0  0  0  0  0  0  0999 V2000
   -3.7580   21.5500  -33.0540 C   0  0  0  0  0  0  0  0  0  0  0  0
   -4.1880   22.1210  -31.7390 C   0  0  0  0  0  0  0  0  0  0  0  0
   -3.3100   22.4870  -30.9130 O   0  0  0  0  0  0  0  0  0  0  0  0
   -5.5800   22.3030  -31.4300 N   0  0  0  0  0  0  0  0  0  0  0  0
   -6.1690   23.3580  -30.8000 C   0  0  0  0  0  0  0  0  0  0  0  0
   -5.4950   24.6240  -30.4350 C   0  0  0  0  0  0  0  0  0  0  0  0
   -5.8170   25.2990  -29.2180 N   0  0  0  0  0  0  0  0  0  0  0  0
   -4.6460   25.1330  -31.2130 O   0  0  0  0  0  0  0  0  0  0  0  0
   -7.5350   23.1250  -30.6370 C   0  0  0  0  0  0  0  0  0  0  0  0
   -7.7630   21.8880  -31.1950 C   0  0  0  0  0  0  0  0  0  0  0  0
   -8.9460   21.1630  -31.3160 C   0  0  0  0  0  0  0  0  0  0  0  0
   -8.8850   19.9030  -31.9330 C   0  0  0  0  0  0  0  0  0  0  0  0
   -7.6510   19.3870  -32.4030 C   0  0  0  0  0  0  0  0  0  0  0  0
   -7.6030   18.0520  -33.0900 C   0  0  0  0  0  0  0  0  0  0  0  0
   -6.2100   17.7670  -33.5610 C   0  0  0  0  0  0  0  0  0  0  0  0
   -5.7410   18.1440  -34.8160 C   0  0  0  0  0  0  0  0  0  0  0  0
   -4.1230   17.6980  -34.9050 S   0  0  0  0  0  0  0  0  0  0  0  0
   -4.0840   17.0570  -33.3520 C   0  0  0  0  0  0  0  0  0  0  0  0
   -5.2890   17.1750  -32.7520 N   0  0  0  0  0  0  0  0  0  0  0  0
   -6.4740   20.1580  -32.2740 C   0  0  0  0  0  0  0  0  0  0  0  0
   -6.5680   21.4150  -31.6670 C   0  0  0  0  0  0  0  0  0  0  0  0
   -3.1045   20.6822  -32.8809 H   0  0  0  0  0  0  0  0  0  0  0  0
   -4.6442   21.2338  -33.6238 H   0  0  0  0  0  0  0  0  0  0  0  0
   -3.2093   22.3143  -33.6238 H   0  0  0  0  0  0  0  0  0  0  0  0
   -6.4720   24.8810  -28.5210 H   0  0  0  0  0  0  0  0  0  0  0  0
   -5.3620   26.2110  -28.9890 H   0  0  0  0  0  0  0  0  0  0  0  0
   -8.2729   23.7891  -30.1631 H   0  0  0  0  0  0  0  0  0  0  0  0
   -9.8984   21.5648  -30.9400 H   0  0  0  0  0  0  0  0  0  0  0  0
   -9.8039   19.3104  -32.0528 H   0  0  0  0  0  0  0  0  0  0  0  0
   -7.9164   17.2681  -32.3848 H   0  0  0  0  0  0  0  0  0  0  0  0
   -8.2806   18.0677  -33.9564 H   0  0  0  0  0  0  0  0  0  0  0  0
   -6.3228   18.6426  -35.6052 H   0  0  0  0  0  0  0  0  0  0  0  0
   -3.1970   16.6025  -32.8866 H   0  0  0  0  0  0  0  0  0  0  0  0
   -5.5086   19.7797  -32.6414 H   0  0  0  0  0  0  0  0  0  0  0  0
  1  2  1  0
  2  3  2  0
  2  4  1  0
  4  5  1  0
  5  6  1  0
  6  7  1  0
  6  8  2  0
  5  9  2  0
  9 10  1  0
 10 11  2  0
 11 12  1  0
 12 13  2  0
 13 14  1  0
 14 15  1  0
 15 16  2  0
 16 17  1  0
 17 18  1  0
 18 19  2  0
 13 20  1  0
 20 21  2  0
 21  4  1  0
 21 10  1  0
 19 15  1  0
  1 22  1  0
  1 23  1  0
  1 24  1  0
  7 25  1  0
  7 26  1  0
  9 27  1  0
 11 28  1  0
 12 29  1  0
 14 30  1  0
 14 31  1  0
 16 32  1  0
 18 33  1  0
 20 34  1  0
M  END
>  <UniqueID>  (98) 
97

>  <SMILES>  (98) 
CC(=O)n1c(C(N)=O)cc2ccc(Cc3cscn3)cc21

>  <Energy>  (98) 
102.07261971181487

>  <Genealogy>  (98) 
CC(=O)n1c(C(N)=O)cc2ccc(Cc3cscn3)cc21 (3D coordinates assigned)
CC(=O)n1c(C(N)=O)cc2ccc(Cc3cscn3)cc21 (optimized conformer: 102.07261971181487 kcal/mol)

>  <smiles>  (98) 
CC(=O)n1c(C(N)=O)cc2ccc(Cc3cscn3)cc21

>  <score_type>  (98) 
oracle

>  <origin>  (98) 
adg

>  <m_score__min__energy>  (98) 
-8.8900000000000006

>  <m_primary>  (98) 
energy

$$$$
98:0
     RDKit          3D

 35 36  0  0  0  0  0  0  0  0999 V2000
   -9.1080   20.8480  -31.3690 C   0  0  0  0  0  0  0  0  0  0  0  0
   -9.4220   22.2170  -31.9530 C   0  0  0  0  0  0  0  0  0  0  0  0
   -8.2350   22.9990  -31.9940 O   0  0  0  0  0  0  0  0  0  0  0  0
   -7.2390   22.9160  -31.0170 C   0  0  0  0  0  0  0  0  0  0  0  0
   -7.5330   23.0540  -29.7980 O   0  0  0  0  0  0  0  0  0  0  0  0
   -5.8770   22.6680  -31.4030 N   0  0  0  0  0  0  0  0  0  0  0  0
   -4.7690   23.3780  -31.0450 C   0  0  0  0  0  0  0  0  0  0  0  0
   -4.7630   24.6570  -30.3070 C   0  0  0  0  0  0  0  0  0  0  0  0
   -5.3910   24.7780  -29.0300 N   0  0  0  0  0  0  0  0  0  0  0  0
   -4.2420   25.6740  -30.8380 O   0  0  0  0  0  0  0  0  0  0  0  0
   -3.6140   22.7640  -31.5210 C   0  0  0  0  0  0  0  0  0  0  0  0
   -4.0500   21.6490  -32.2010 C   0  0  0  0  0  0  0  0  0  0  0  0
   -3.3240   20.6700  -32.8710 C   0  0  0  0  0  0  0  0  0  0  0  0
   -4.0330   19.6090  -33.4590 C   0  0  0  0  0  0  0  0  0  0  0  0
   -5.4440   19.5370  -33.3520 C   0  0  0  0  0  0  0  0  0  0  0  0
   -6.1950   18.4030  -33.9980 C   0  0  0  0  0  0  0  0  0  0  0  0
   -6.9560   17.5720  -32.9630 C   0  0  0  0  0  0  0  0  0  0  0  0
   -7.2200   16.3090  -33.4640 F   0  0  0  0  0  0  0  0  0  0  0  0
   -8.1540   18.1960  -32.6680 F   0  0  0  0  0  0  0  0  0  0  0  0
   -6.2140   17.4570  -31.8010 F   0  0  0  0  0  0  0  0  0  0  0  0
   -6.1490   20.5530  -32.6690 C   0  0  0  0  0  0  0  0  0  0  0  0
   -5.4190   21.6120  -32.1130 C   0  0  0  0  0  0  0  0  0  0  0  0
   -9.1213   20.9061  -30.2706 H   0  0  0  0  0  0  0  0  0  0  0  0
   -9.8632   20.1232  -31.7070 H   0  0  0  0  0  0  0  0  0  0  0  0
   -8.1124   20.5247  -31.7070 H   0  0  0  0  0  0  0  0  0  0  0  0
   -9.8184   22.0986  -32.9723 H   0  0  0  0  0  0  0  0  0  0  0  0
  -10.1710   22.7206  -31.3242 H   0  0  0  0  0  0  0  0  0  0  0  0
   -5.9760   24.0070  -28.6410 H   0  0  0  0  0  0  0  0  0  0  0  0
   -5.3410   25.6800  -28.5060 H   0  0  0  0  0  0  0  0  0  0  0  0
   -2.5751   23.0981  -31.3833 H   0  0  0  0  0  0  0  0  0  0  0  0
   -2.2274   20.7247  -32.9385 H   0  0  0  0  0  0  0  0  0  0  0  0
   -3.4875   18.8269  -34.0075 H   0  0  0  0  0  0  0  0  0  0  0  0
   -6.9126   18.8163  -34.7220 H   0  0  0  0  0  0  0  0  0  0  0  0
   -5.4667   17.7478  -34.4984 H   0  0  0  0  0  0  0  0  0  0  0  0
   -7.2444   20.5137  -32.5759 H   0  0  0  0  0  0  0  0  0  0  0  0
  1  2  1  0
  2  3  1  0
  3  4  1  0
  4  5  2  0
  4  6  1  0
  6  7  1  0
  7  8  1  0
  8  9  1  0
  8 10  2  0
  7 11  2  0
 11 12  1  0
 12 13  2  0
 13 14  1  0
 14 15  2  0
 15 16  1  0
 16 17  1  0
 17 18  1  0
 17 19  1  0
 17 20  1  0
 15 21  1  0
 21 22  2  0
 22  6  1  0
 22 12  1  0
  1 23  1  0
  1 24  1  0
  1 25  1  0
  2 26  1  0
  2 27  1  0
  9 28  1  0
  9 29  1  0
 11 30  1  0
 13 31  1  0
 14 32  1  0
 16 33  1  0
 16 34  1  0
 21 35  1  0
M  END
>  <UniqueID>  (99) 
98

>  <SMILES>  (99) 
CCOC(=O)n1c(C(N)=O)cc2ccc(CC(F)(F)F)cc21

>  <Energy>  (99) 
66.63645419479282

>  <Genealogy>  (99) 
CCOC(=O)n1c(C(N)=O)cc2ccc(CC(F)(F)F)cc21 (3D coordinates assigned)
CCOC(=O)n1c(C(N)=O)cc2ccc(CC(F)(F)F)cc21 (optimized conformer: 66.63645419479282 kcal/mol)

>  <smiles>  (99) 
CCOC(=O)n1c(C(N)=O)cc2ccc(CC(F)(F)F)cc21

>  <score_type>  (99) 
oracle

>  <origin>  (99) 
adg

>  <m_score__min__energy>  (99) 
-7.4800000000000004

>  <m_primary>  (99) 
energy

$$$$
99:0
     RDKit          3D

 34 36  0  0  0  0  0  0  0  0999 V2000
   -6.0620   18.0340  -34.2130 C   0  0  0  0  0  0  0  0  0  0  0  0
   -6.2070   19.1490  -33.1660 C   0  0  0  0  0  0  0  0  0  0  0  0
   -5.3620   20.3260  -33.4690 N   0  0  0  0  0  0  0  0  0  0  0  0
   -4.2330   20.8190  -32.7160 C   0  0  0  0  0  0  0  0  0  0  0  0
   -3.0590   20.0270  -32.6590 C   0  0  0  0  0  0  0  0  0  0  0  0
   -1.9430   20.4370  -31.9110 C   0  0  0  0  0  0  0  0  0  0  0  0
   -2.0280   21.6430  -31.2240 C   0  0  0  0  0  0  0  0  0  0  0  0
   -1.1110   22.2600  -30.4060 C   0  0  0  0  0  0  0  0  0  0  0  0
   -1.7300   23.4300  -29.9740 C   0  0  0  0  0  0  0  0  0  0  0  0
   -1.0570   24.4430  -29.1330 C   0  0  0  0  0  0  0  0  0  0  0  0
   -1.6080   25.7470  -28.9700 N   0  0  0  0  0  0  0  0  0  0  0  0
    0.0460   24.1670  -28.5900 O   0  0  0  0  0  0  0  0  0  0  0  0
   -2.9860   23.5280  -30.4970 N   0  0  0  0  0  0  0  0  0  0  0  0
   -3.9760   24.5370  -30.2370 C   0  0  0  0  0  0  0  0  0  0  0  0
   -3.8860   25.6700  -30.7800 O   0  0  0  0  0  0  0  0  0  0  0  0
   -5.0260   24.2820  -29.3640 O   0  0  0  0  0  0  0  0  0  0  0  0
   -3.1510   22.4270  -31.2650 C   0  0  0  0  0  0  0  0  0  0  0  0
   -4.2850   22.0310  -31.9820 C   0  0  0  0  0  0  0  0  0  0  0  0
   -7.6420   19.4410  -32.7710 C   0  0  0  0  0  0  0  0  0  0  0  0
   -7.4300   18.9960  -31.4490 O   0  0  0  0  0  0  0  0  0  0  0  0
   -6.0880   18.6660  -31.7380 C   0  0  0  0  0  0  0  0  0  0  0  0
   -5.9363   17.0671  -33.7039 H   0  0  0  0  0  0  0  0  0  0  0  0
   -6.9636   18.0025  -34.8424 H   0  0  0  0  0  0  0  0  0  0  0  0
   -5.1823   18.2341  -34.8424 H   0  0  0  0  0  0  0  0  0  0  0  0
   -5.7230   20.9680  -34.2110 H   0  0  0  0  0  0  0  0  0  0  0  0
   -3.0212   19.0755  -33.2096 H   0  0  0  0  0  0  0  0  0  0  0  0
   -1.0308   19.8236  -31.8700 H   0  0  0  0  0  0  0  0  0  0  0  0
   -0.1025   21.9047  -30.1477 H   0  0  0  0  0  0  0  0  0  0  0  0
   -2.6410   25.8990  -28.9920 H   0  0  0  0  0  0  0  0  0  0  0  0
   -5.1968   22.6462  -31.9765 H   0  0  0  0  0  0  0  0  0  0  0  0
   -7.9088   20.5060  -32.8390 H   0  0  0  0  0  0  0  0  0  0  0  0
   -8.4599   19.0001  -33.3598 H   0  0  0  0  0  0  0  0  0  0  0  0
   -5.3581   19.2334  -31.1419 H   0  0  0  0  0  0  0  0  0  0  0  0
   -5.7373   17.6408  -31.5484 H   0  0  0  0  0  0  0  0  0  0  0  0
  1  2  1  0
  2  3  1  0
  3  4  1  0
  4  5  2  0
  5  6  1  0
  6  7  2  0
  7  8  1  0
  8  9  2  0
  9 10  1  0
 10 11  1  0
 10 12  2  0
  9 13  1  0
 13 14  1  0
 14 15  2  0
 14 16  1  0
 13 17  1  0
 17 18  2  0
  2 19  1  0
 19 20  1  0
 20 21  1  0
 21  2  1  0
 18  4  1  0
 17  7  1  0
  1 22  1  0
  1 23  1  0
  1 24  1  0
  3 25  1  0
  5 26  1  0
  6 27  1  0
  8 28  1  0
 11 29  1  0
 18 30  1  0
 19 31  1  0
 19 32  1  0
 21 33  1  0
 21 34  1  0
M  CHG  2  11  -1  16  -1
M  END
>  <UniqueID>  (100) 
99

>  <SMILES>  (100) 
CC1(Nc2ccc3cc(C([NH-])=O)n(C(=O)[O-])c3c2)COC1

>  <Energy>  (100) 
146.4850878874568

>  <Genealogy>  (100) 
CC1(Nc2ccc3cc(C([NH-])=O)n(C(=O)[O-])c3c2)COC1 (protonated)
CC1(Nc2ccc3cc(C([NH-])=O)n(C(=O)[O-])c3c2)COC1 (3D coordinates assigned)
CC1(Nc2ccc3cc(C([NH-])=O)n(C(=O)[O-])c3c2)COC1 (nonaromatic ring conformer: 146.4850878874568 kcal/mol)

>  <smiles>  (100) 
CC1(Nc2ccc3cc(C(N)=O)n(C(=O)O)c3c2)COC1

>  <score_type>  (100) 
oracle

>  <origin>  (100) 
adg

>  <m_score__min__energy>  (100) 
-11.25

>  <m_primary>  (100) 
energy

$$$$
