0:0
     RDKit          3D

 38 40  0  0  0  0  0  0  0  0999 V2000
   -5.3080   24.7870  -29.0560 N   0  0  0  0  0  0  0  0  0  0  0  0
   -5.2280   24.4940  -30.4540 C   0  0  0  0  0  0  0  0  0  0  0  0
   -4.6630   25.3210  -31.2170 O   0  0  0  0  0  0  0  0  0  0  0  0
   -5.7960   23.2420  -31.0110 C   0  0  0  0  0  0  0  0  0  0  0  0
   -7.1490   23.0340  -31.2930 C   0  0  0  0  0  0  0  0  0  0  0  0
   -7.2300   21.7430  -31.7680 C   0  0  0  0  0  0  0  0  0  0  0  0
   -8.3230   21.0250  -32.2430 C   0  0  0  0  0  0  0  0  0  0  0  0
   -8.1010   19.7210  -32.7180 C   0  0  0  0  0  0  0  0  0  0  0  0
   -6.7990   19.1540  -32.7000 C   0  0  0  0  0  0  0  0  0  0  0  0
   -6.5640   17.7800  -33.2740 C   0  0  0  0  0  0  0  0  0  0  0  0
   -7.6160   16.9340  -32.9630 F   0  0  0  0  0  0  0  0  0  0  0  0
   -5.4020   17.2300  -32.7630 F   0  0  0  0  0  0  0  0  0  0  0  0
   -6.4510   17.8750  -34.6490 F   0  0  0  0  0  0  0  0  0  0  0  0
   -5.7120   19.9230  -32.2250 C   0  0  0  0  0  0  0  0  0  0  0  0
   -5.9680   21.2130  -31.7520 C   0  0  0  0  0  0  0  0  0  0  0  0
   -5.0820   22.1180  -31.2920 N   0  0  0  0  0  0  0  0  0  0  0  0
   -3.6640   21.9310  -31.2030 C   0  0  0  0  0  0  0  0  0  0  0  0
   -2.9230   22.3040  -32.1510 O   0  0  0  0  0  0  0  0  0  0  0  0
   -3.0540   21.4290  -29.9310 C   0  0  0  0  0  0  0  0  0  0  0  0
   -3.1960   22.4410  -28.8920 N   0  0  0  0  0  0  0  0  0  0  0  0
   -2.2460   23.2900  -28.4650 C   0  0  0  0  0  0  0  0  0  0  0  0
   -2.7990   23.9690  -27.4010 C   0  0  0  0  0  0  0  0  0  0  0  0
   -2.1340   25.0170  -26.5710 C   0  0  0  0  0  0  0  0  0  0  0  0
   -3.1070   25.8430  -25.9960 O   0  0  0  0  0  0  0  0  0  0  0  0
   -4.0520   23.5110  -27.2050 N   0  0  0  0  0  0  0  0  0  0  0  0
   -4.2640   22.5770  -28.1230 N   0  0  0  0  0  0  0  0  0  0  0  0
   -5.7870   24.1480  -28.3860 H   0  0  0  0  0  0  0  0  0  0  0  0
   -4.8990   25.6750  -28.6870 H   0  0  0  0  0  0  0  0  0  0  0  0
   -7.9745   23.7494  -31.1632 H   0  0  0  0  0  0  0  0  0  0  0  0
   -9.3312   21.4650  -32.2467 H   0  0  0  0  0  0  0  0  0  0  0  0
   -8.9450   19.1331  -33.1080 H   0  0  0  0  0  0  0  0  0  0  0  0
   -4.6900   19.5161  -32.2276 H   0  0  0  0  0  0  0  0  0  0  0  0
   -3.5660   20.5073  -29.6176 H   0  0  0  0  0  0  0  0  0  0  0  0
   -1.9868   21.2181  -30.0942 H   0  0  0  0  0  0  0  0  0  0  0  0
   -1.2350   23.4169  -28.8795 H   0  0  0  0  0  0  0  0  0  0  0  0
   -1.5448   24.5362  -25.7762 H   0  0  0  0  0  0  0  0  0  0  0  0
   -1.4689   25.6207  -27.2060 H   0  0  0  0  0  0  0  0  0  0  0  0
   -3.9440   25.6820  -26.5070 H   0  0  0  0  0  0  0  0  0  0  0  0
  1  2  1  0
  2  3  2  0
  2  4  1  0
  4  5  2  0
  5  6  1  0
  6  7  2  0
  7  8  1  0
  8  9  2  0
  9 10  1  0
 10 11  1  0
 10 12  1  0
 10 13  1  0
  9 14  1  0
 14 15  2  0
 15 16  1  0
 16 17  1  0
 17 18  2  0
 17 19  1  0
 19 20  1  0
 20 21  1  0
 21 22  2  0
 22 23  1  0
 23 24  1  0
 22 25  1  0
 25 26  2  0
 16  4  1  0
 26 20  1  0
 15  6  1  0
  1 27  1  0
  1 28  1  0
  5 29  1  0
  7 30  1  0
  8 31  1  0
 14 32  1  0
 19 33  1  0
 19 34  1  0
 21 35  1  0
 23 36  1  0
 23 37  1  0
 24 38  1  0
M  END
>  <UniqueID>  (1) 
1

>  <SMILES>  (1) 
NC(=O)c1cc2ccc(C(F)(F)F)cc2n1C(=O)Cn1cc(CO)nn1

>  <Energy>  (1) 
110.51778280960266

>  <Genealogy>  (1) 
NC(=O)c1cc2ccc(C(F)(F)F)cc2n1C(=O)Cn1cc(CO)nn1 (3D coordinates assigned)
NC(=O)c1cc2ccc(C(F)(F)F)cc2n1C(=O)Cn1cc(CO)nn1 (optimized conformer: 110.51778280960266 kcal/mol)

>  <smiles>  (1) 
NC(=O)c1cc2ccc(C(F)(F)F)cc2n1C(=O)Cn1cc(CO)nn1

>  <score_type>  (1) 
oracle

>  <origin>  (1) 
adg

>  <m_score__min__energy>  (1) 
-8.8499999999999996

>  <m_primary>  (1) 
energy

$$$$
1:0
     RDKit          3D

 43 44  0  0  0  0  0  0  0  0999 V2000
   -1.1520   18.7700  -27.1980 C   0  0  0  0  0  0  0  0  0  0  0  0
   -2.1680   19.6480  -26.5920 N   0  0  0  0  0  0  0  0  0  0  0  0
   -3.4210   18.9230  -26.3380 C   0  0  0  0  0  0  0  0  0  0  0  0
   -2.3620   20.9150  -27.3390 C   0  0  0  0  0  0  0  0  0  0  0  0
   -2.3420   20.7750  -28.8820 C   0  0  0  0  0  0  0  0  0  0  0  0
   -1.7020   21.9870  -29.5740 C   0  0  0  0  0  0  0  0  0  0  0  0
   -2.7030   22.8020  -30.1800 O   0  0  0  0  0  0  0  0  0  0  0  0
   -3.3440   22.4790  -31.3820 C   0  0  0  0  0  0  0  0  0  0  0  0
   -2.6500   22.1580  -32.3860 O   0  0  0  0  0  0  0  0  0  0  0  0
   -4.7840   22.5560  -31.4880 N   0  0  0  0  0  0  0  0  0  0  0  0
   -5.5990   23.5150  -30.9570 C   0  0  0  0  0  0  0  0  0  0  0  0
   -5.1660   24.7730  -30.3260 C   0  0  0  0  0  0  0  0  0  0  0  0
   -5.7370   25.2050  -29.0900 N   0  0  0  0  0  0  0  0  0  0  0  0
   -4.2320   25.4410  -30.8480 O   0  0  0  0  0  0  0  0  0  0  0  0
   -6.9380   23.1740  -31.1020 C   0  0  0  0  0  0  0  0  0  0  0  0
   -6.9350   21.9750  -31.7700 C   0  0  0  0  0  0  0  0  0  0  0  0
   -8.0070   21.2010  -32.2010 C   0  0  0  0  0  0  0  0  0  0  0  0
   -7.7260   20.0150  -32.8960 C   0  0  0  0  0  0  0  0  0  0  0  0
   -6.3870   19.6200  -33.1450 C   0  0  0  0  0  0  0  0  0  0  0  0
   -6.1030   18.3830  -33.9600 C   0  0  0  0  0  0  0  0  0  0  0  0
   -7.0710   17.4160  -33.7330 F   0  0  0  0  0  0  0  0  0  0  0  0
   -6.1030   18.7130  -35.3030 F   0  0  0  0  0  0  0  0  0  0  0  0
   -4.8710   17.8470  -33.6260 F   0  0  0  0  0  0  0  0  0  0  0  0
   -5.3250   20.4480  -32.7130 C   0  0  0  0  0  0  0  0  0  0  0  0
   -5.6280   21.6210  -32.0010 C   0  0  0  0  0  0  0  0  0  0  0  0
   -0.5764   18.2725  -26.4035 H   0  0  0  0  0  0  0  0  0  0  0  0
   -1.6478   18.0114  -27.8215 H   0  0  0  0  0  0  0  0  0  0  0  0
   -0.4733   19.3705  -27.8215 H   0  0  0  0  0  0  0  0  0  0  0  0
   -3.5785   18.8319  -25.2531 H   0  0  0  0  0  0  0  0  0  0  0  0
   -4.2610   19.4746  -26.7854 H   0  0  0  0  0  0  0  0  0  0  0  0
   -3.3614   17.9199  -26.7854 H   0  0  0  0  0  0  0  0  0  0  0  0
   -3.3348   21.3376  -27.0473 H   0  0  0  0  0  0  0  0  0  0  0  0
   -1.5098   21.5596  -27.0777 H   0  0  0  0  0  0  0  0  0  0  0  0
   -1.7691   19.8742  -29.1471 H   0  0  0  0  0  0  0  0  0  0  0  0
   -3.3849   20.7064  -29.2250 H   0  0  0  0  0  0  0  0  0  0  0  0
   -1.1534   22.5815  -28.8286 H   0  0  0  0  0  0  0  0  0  0  0  0
   -1.0141   21.6291  -30.3542 H   0  0  0  0  0  0  0  0  0  0  0  0
   -6.4370   24.6120  -28.5880 H   0  0  0  0  0  0  0  0  0  0  0  0
   -5.4120   26.0900  -28.6400 H   0  0  0  0  0  0  0  0  0  0  0  0
   -7.8133   23.7431  -30.7556 H   0  0  0  0  0  0  0  0  0  0  0  0
   -9.0442   21.5094  -32.0030 H   0  0  0  0  0  0  0  0  0  0  0  0
   -8.5540   19.3843  -33.2519 H   0  0  0  0  0  0  0  0  0  0  0  0
   -4.2809   20.1787  -32.9304 H   0  0  0  0  0  0  0  0  0  0  0  0
  1  2  1  0
  2  3  1  0
  2  4  1  0
  4  5  1  0
  5  6  1  0
  6  7  1  0
  7  8  1  0
  8  9  2  0
  8 10  1  0
 10 11  1  0
 11 12  1  0
 12 13  1  0
 12 14  2  0
 11 15  2  0
 15 16  1  0
 16 17  2  0
 17 18  1  0
 18 19  2  0
 19 20  1  0
 20 21  1  0
 20 22  1  0
 20 23  1  0
 19 24  1  0
 24 25  2  0
 25 10  1  0
 25 16  1  0
  1 26  1  0
  1 27  1  0
  1 28  1  0
  3 29  1  0
  3 30  1  0
  3 31  1  0
  4 32  1  0
  4 33  1  0
  5 34  1  0
  5 35  1  0
  6 36  1  0
  6 37  1  0
 13 38  1  0
 13 39  1  0
 15 40  1  0
 17 41  1  0
 18 42  1  0
 24 43  1  0
M  END
>  <UniqueID>  (2) 
2

>  <SMILES>  (2) 
CN(C)CCCOC(=O)n1c(C(N)=O)cc2ccc(C(F)(F)F)cc21

>  <Energy>  (2) 
86.22048456491112

>  <Genealogy>  (2) 
CN(C)CCCOC(=O)n1c(C(N)=O)cc2ccc(C(F)(F)F)cc21 (3D coordinates assigned)
CN(C)CCCOC(=O)n1c(C(N)=O)cc2ccc(C(F)(F)F)cc21 (optimized conformer: 86.22048456491112 kcal/mol)

>  <smiles>  (2) 
CN(C)CCCOC(=O)n1c(C(N)=O)cc2ccc(C(F)(F)F)cc21

>  <score_type>  (2) 
oracle

>  <origin>  (2) 
adg

>  <m_score__min__energy>  (2) 
-8.2599999999999998

>  <m_primary>  (2) 
energy

$$$$
2:0
     RDKit          3D

 49 50  0  0  0  0  0  0  0  0999 V2000
   -7.1890   17.2330  -32.6560 C   0  0  0  0  0  0  0  0  0  0  0  0
   -6.6670   18.4270  -33.3360 N   0  0  0  0  0  0  0  0  0  0  0  0
   -5.9340   18.2550  -34.5980 C   0  0  0  0  0  0  0  0  0  0  0  0
   -6.8640   19.7500  -32.7680 C   0  0  0  0  0  0  0  0  0  0  0  0
   -8.1700   20.3140  -32.6680 C   0  0  0  0  0  0  0  0  0  0  0  0
   -8.3720   21.5880  -32.1160 C   0  0  0  0  0  0  0  0  0  0  0  0
   -7.2590   22.2910  -31.6720 C   0  0  0  0  0  0  0  0  0  0  0  0
   -7.1780   23.5250  -31.0680 C   0  0  0  0  0  0  0  0  0  0  0  0
   -5.8230   23.7230  -30.8150 C   0  0  0  0  0  0  0  0  0  0  0  0
   -5.2660   24.9670  -30.2410 C   0  0  0  0  0  0  0  0  0  0  0  0
   -3.8530   25.1700  -30.1720 N   0  0  0  0  0  0  0  0  0  0  0  0
   -6.0370   25.8500  -29.7780 O   0  0  0  0  0  0  0  0  0  0  0  0
   -5.0950   22.6530  -31.2450 N   0  0  0  0  0  0  0  0  0  0  0  0
   -3.6840   22.4330  -31.0770 C   0  0  0  0  0  0  0  0  0  0  0  0
   -2.8750   22.7900  -31.9760 O   0  0  0  0  0  0  0  0  0  0  0  0
   -3.2000   21.7920  -29.8950 N   0  0  0  0  0  0  0  0  0  0  0  0
   -2.6170   22.5160  -28.7760 C   0  0  0  0  0  0  0  0  0  0  0  0
   -1.6800   23.5490  -29.3040 C   0  0  0  0  0  0  0  0  0  0  0  0
   -0.7940   23.2150  -30.1360 O   0  0  0  0  0  0  0  0  0  0  0  0
   -1.7620   24.8570  -28.8080 O   0  0  0  0  0  0  0  0  0  0  0  0
   -1.3690   25.2950  -27.4980 C   0  0  0  0  0  0  0  0  0  0  0  0
   -2.5800   25.2990  -26.5450 C   0  0  0  0  0  0  0  0  0  0  0  0
   -0.8440   26.7330  -27.6380 C   0  0  0  0  0  0  0  0  0  0  0  0
   -0.2400   24.4050  -26.9420 C   0  0  0  0  0  0  0  0  0  0  0  0
   -5.9910   21.7850  -31.7660 C   0  0  0  0  0  0  0  0  0  0  0  0
   -5.7600   20.5100  -32.2980 C   0  0  0  0  0  0  0  0  0  0  0  0
   -7.1270   17.3748  -31.5669 H   0  0  0  0  0  0  0  0  0  0  0  0
   -8.2382   17.0751  -32.9461 H   0  0  0  0  0  0  0  0  0  0  0  0
   -6.5924   16.3556  -32.9461 H   0  0  0  0  0  0  0  0  0  0  0  0
   -4.8840   18.0086  -34.3815 H   0  0  0  0  0  0  0  0  0  0  0  0
   -6.3898   17.4394  -35.1786 H   0  0  0  0  0  0  0  0  0  0  0  0
   -5.9795   19.1882  -35.1786 H   0  0  0  0  0  0  0  0  0  0  0  0
   -9.0352   19.7395  -33.0304 H   0  0  0  0  0  0  0  0  0  0  0  0
   -9.3816   22.0174  -32.0371 H   0  0  0  0  0  0  0  0  0  0  0  0
   -8.0071   24.2092  -30.8347 H   0  0  0  0  0  0  0  0  0  0  0  0
   -3.4690   26.0390  -29.7390 H   0  0  0  0  0  0  0  0  0  0  0  0
   -3.1860   24.4850  -30.5920 H   0  0  0  0  0  0  0  0  0  0  0  0
   -3.4145   23.0031  -28.1957 H   0  0  0  0  0  0  0  0  0  0  0  0
   -2.0723   21.8176  -28.1237 H   0  0  0  0  0  0  0  0  0  0  0  0
   -2.2268   25.2978  -25.5033 H   0  0  0  0  0  0  0  0  0  0  0  0
   -3.1859   26.1992  -26.7257 H   0  0  0  0  0  0  0  0  0  0  0  0
   -3.1918   24.4029  -26.7257 H   0  0  0  0  0  0  0  0  0  0  0  0
   -0.6864   27.1647  -26.6386 H   0  0  0  0  0  0  0  0  0  0  0  0
    0.1087   26.7236  -28.1878 H   0  0  0  0  0  0  0  0  0  0  0  0
   -1.5786   27.3397  -28.1878 H   0  0  0  0  0  0  0  0  0  0  0  0
   -0.2652   24.4249  -25.8425 H   0  0  0  0  0  0  0  0  0  0  0  0
   -0.3806   23.3722  -27.2934 H   0  0  0  0  0  0  0  0  0  0  0  0
    0.7315   24.7828  -27.2934 H   0  0  0  0  0  0  0  0  0  0  0  0
   -4.7392   20.1036  -32.3510 H   0  0  0  0  0  0  0  0  0  0  0  0
  1  2  1  0
  2  3  1  0
  2  4  1  0
  4  5  2  0
  5  6  1  0
  6  7  2  0
  7  8  1  0
  8  9  2  0
  9 10  1  0
 10 11  1  0
 10 12  2  0
  9 13  1  0
 13 14  1  0
 14 15  2  0
 14 16  1  0
 16 17  1  0
 17 18  1  0
 18 19  2  0
 18 20  1  0
 20 21  1  0
 21 22  1  0
 21 23  1  0
 21 24  1  0
 13 25  1  0
 25 26  2  0
 26  4  1  0
 25  7  1  0
  1 27  1  0
  1 28  1  0
  1 29  1  0
  3 30  1  0
  3 31  1  0
  3 32  1  0
  5 33  1  0
  6 34  1  0
  8 35  1  0
 11 36  1  0
 11 37  1  0
 17 38  1  0
 17 39  1  0
 22 40  1  0
 22 41  1  0
 22 42  1  0
 23 43  1  0
 23 44  1  0
 23 45  1  0
 24 46  1  0
 24 47  1  0
 24 48  1  0
 26 49  1  0
M  CHG  1  16  -1
M  END
>  <UniqueID>  (3) 
3

>  <SMILES>  (3) 
CN(C)c1ccc2cc(C(N)=O)n(C(=O)[N-]CC(=O)OC(C)(C)C)c2c1

>  <Energy>  (3) 
80.26984456615463

>  <Genealogy>  (3) 
CN(C)c1ccc2cc(C(N)=O)n(C(=O)[N-]CC(=O)OC(C)(C)C)c2c1 (protonated)
CN(C)c1ccc2cc(C(N)=O)n(C(=O)[N-]CC(=O)OC(C)(C)C)c2c1 (3D coordinates assigned)
CN(C)c1ccc2cc(C(N)=O)n(C(=O)[N-]CC(=O)OC(C)(C)C)c2c1 (optimized conformer: 80.26984456615463 kcal/mol)

>  <smiles>  (3) 
CN(C)c1ccc2cc(C(N)=O)n(C(=O)NCC(=O)OC(C)(C)C)c2c1

>  <score_type>  (3) 
oracle

>  <origin>  (3) 
adg

>  <m_score__min__energy>  (3) 
-10.210000000000001

>  <m_primary>  (3) 
energy

$$$$
3:0
     RDKit          3D

 41 42  0  0  0  0  0  0  0  0999 V2000
   -2.5090   20.4430  -30.2370 C   0  0  0  0  0  0  0  0  0  0  0  0
   -2.8520   21.8380  -30.5260 N   0  0  0  0  0  0  0  0  0  0  0  0
   -2.1440   22.9270  -29.8360 C   0  0  0  0  0  0  0  0  0  0  0  0
   -2.0430   22.6360  -28.3330 C   0  0  0  0  0  0  0  0  0  0  0  0
   -1.3360   23.7600  -27.5550 C   0  0  0  0  0  0  0  0  0  0  0  0
   -1.8430   25.1610  -27.9240 C   0  0  0  0  0  0  0  0  0  0  0  0
   -1.3540   25.5490  -29.1770 O   0  0  0  0  0  0  0  0  0  0  0  0
   -3.8650   22.1190  -31.5160 C   0  0  0  0  0  0  0  0  0  0  0  0
   -3.5840   22.0510  -32.7430 O   0  0  0  0  0  0  0  0  0  0  0  0
   -5.2000   22.4760  -31.1280 N   0  0  0  0  0  0  0  0  0  0  0  0
   -5.5990   23.5810  -30.4380 C   0  0  0  0  0  0  0  0  0  0  0  0
   -4.7060   24.6270  -29.8970 C   0  0  0  0  0  0  0  0  0  0  0  0
   -3.8840   25.3860  -30.7810 N   0  0  0  0  0  0  0  0  0  0  0  0
   -4.6670   24.8640  -28.6610 O   0  0  0  0  0  0  0  0  0  0  0  0
   -6.9850   23.5820  -30.2810 C   0  0  0  0  0  0  0  0  0  0  0  0
   -7.4250   22.4430  -30.9180 C   0  0  0  0  0  0  0  0  0  0  0  0
   -8.7140   21.9460  -31.0840 C   0  0  0  0  0  0  0  0  0  0  0  0
   -8.8710   20.7500  -31.8050 C   0  0  0  0  0  0  0  0  0  0  0  0
   -7.7460   20.0820  -32.3460 C   0  0  0  0  0  0  0  0  0  0  0  0
   -7.9190   18.8680  -33.0820 N   0  0  0  0  0  0  0  0  0  0  0  0
   -6.4540   20.6160  -32.1610 C   0  0  0  0  0  0  0  0  0  0  0  0
   -6.3270   21.7990  -31.4270 C   0  0  0  0  0  0  0  0  0  0  0  0
   -2.4720   20.2926  -29.1480 H   0  0  0  0  0  0  0  0  0  0  0  0
   -3.2709   19.7802  -30.6730 H   0  0  0  0  0  0  0  0  0  0  0  0
   -1.5266   20.2091  -30.6730 H   0  0  0  0  0  0  0  0  0  0  0  0
   -1.1314   23.0227  -30.2549 H   0  0  0  0  0  0  0  0  0  0  0  0
   -2.7044   23.8625  -29.9800 H   0  0  0  0  0  0  0  0  0  0  0  0
   -3.0590   22.5143  -27.9294 H   0  0  0  0  0  0  0  0  0  0  0  0
   -1.4440   21.7214  -28.2119 H   0  0  0  0  0  0  0  0  0  0  0  0
   -1.5030   23.5996  -26.4796 H   0  0  0  0  0  0  0  0  0  0  0  0
   -0.2686   23.7185  -27.8177 H   0  0  0  0  0  0  0  0  0  0  0  0
   -2.9426   25.1514  -27.9525 H   0  0  0  0  0  0  0  0  0  0  0  0
   -1.4875   25.8767  -27.1681 H   0  0  0  0  0  0  0  0  0  0  0  0
   -2.1490   25.6670  -29.7590 H   0  0  0  0  0  0  0  0  0  0  0  0
   -2.8440   25.2850  -30.7640 H   0  0  0  0  0  0  0  0  0  0  0  0
   -7.5966   24.3329  -29.7593 H   0  0  0  0  0  0  0  0  0  0  0  0
   -9.5833   22.4730  -30.6638 H   0  0  0  0  0  0  0  0  0  0  0  0
   -9.8768   20.3291  -31.9503 H   0  0  0  0  0  0  0  0  0  0  0  0
   -8.7180   18.7550  -33.7450 H   0  0  0  0  0  0  0  0  0  0  0  0
   -7.2500   18.0740  -32.9670 H   0  0  0  0  0  0  0  0  0  0  0  0
   -5.5701   20.1153  -32.5828 H   0  0  0  0  0  0  0  0  0  0  0  0
  1  2  1  0
  2  3  1  0
  3  4  1  0
  4  5  1  0
  5  6  1  0
  6  7  1  0
  2  8  1  0
  8  9  2  0
  8 10  1  0
 10 11  1  0
 11 12  1  0
 12 13  1  0
 12 14  2  0
 11 15  2  0
 15 16  1  0
 16 17  2  0
 17 18  1  0
 18 19  2  0
 19 20  1  0
 19 21  1  0
 21 22  2  0
 22 10  1  0
 22 16  1  0
  1 23  1  0
  1 24  1  0
  1 25  1  0
  3 26  1  0
  3 27  1  0
  4 28  1  0
  4 29  1  0
  5 30  1  0
  5 31  1  0
  6 32  1  0
  6 33  1  0
  7 34  1  0
 13 35  1  0
 15 36  1  0
 17 37  1  0
 18 38  1  0
 20 39  1  0
 20 40  1  0
 21 41  1  0
M  CHG  1  13  -1
M  END
>  <UniqueID>  (4) 
4

>  <SMILES>  (4) 
CN(CCCCO)C(=O)n1c(C([NH-])=O)cc2ccc(N)cc21

>  <Energy>  (4) 
70.35572327425987

>  <Genealogy>  (4) 
CN(CCCCO)C(=O)n1c(C([NH-])=O)cc2ccc(N)cc21 (protonated)
CN(CCCCO)C(=O)n1c(C([NH-])=O)cc2ccc(N)cc21 (3D coordinates assigned)
CN(CCCCO)C(=O)n1c(C([NH-])=O)cc2ccc(N)cc21 (optimized conformer: 70.35572327425987 kcal/mol)

>  <smiles>  (4) 
CN(CCCCO)C(=O)n1c(C(N)=O)cc2ccc(N)cc21

>  <score_type>  (4) 
oracle

>  <origin>  (4) 
adg

>  <m_score__min__energy>  (4) 
-9.9600000000000009

>  <m_primary>  (4) 
energy

$$$$
4:0
     RDKit          3D

 53 57  0  0  0  0  0  0  0  0999 V2000
   -8.4130   23.4150  -31.7030 C   0  0  0  0  0  0  0  0  0  0  0  0
   -7.5450   22.3250  -32.1340 N   0  0  0  0  0  0  0  0  0  0  0  0
   -6.2100   22.3800  -32.3490 C   0  0  0  0  0  0  0  0  0  0  0  0
   -5.6710   21.1730  -32.6600 N   0  0  0  0  0  0  0  0  0  0  0  0
   -6.7300   20.3370  -32.6300 C   0  0  0  0  0  0  0  0  0  0  0  0
   -6.7470   18.9480  -32.8430 C   0  0  0  0  0  0  0  0  0  0  0  0
   -5.5370   18.1700  -33.1970 C   0  0  0  0  0  0  0  0  0  0  0  0
   -4.2870   18.6490  -33.5420 C   0  0  0  0  0  0  0  0  0  0  0  0
   -3.5260   17.5680  -33.7830 N   0  0  0  0  0  0  0  0  0  0  0  0
   -2.1040   17.5600  -34.1060 C   0  0  0  0  0  0  0  0  0  0  0  0
   -1.3230   18.1910  -32.9880 C   0  0  0  0  0  0  0  0  0  0  0  0
   -0.2020   17.5250  -32.4330 C   0  0  0  0  0  0  0  0  0  0  0  0
    0.5060   18.0890  -31.3580 C   0  0  0  0  0  0  0  0  0  0  0  0
    0.0660   19.3120  -30.8580 C   0  0  0  0  0  0  0  0  0  0  0  0
    0.5400   20.0550  -29.8020 C   0  0  0  0  0  0  0  0  0  0  0  0
   -0.2950   21.1680  -29.7320 C   0  0  0  0  0  0  0  0  0  0  0  0
   -0.0990   22.2710  -28.7700 C   0  0  0  0  0  0  0  0  0  0  0  0
   -0.7100   23.5470  -28.9730 N   0  0  0  0  0  0  0  0  0  0  0  0
    0.6660   22.1040  -27.7840 O   0  0  0  0  0  0  0  0  0  0  0  0
   -1.2570   21.1100  -30.6960 N   0  0  0  0  0  0  0  0  0  0  0  0
   -2.3800   21.9910  -30.8620 C   0  0  0  0  0  0  0  0  0  0  0  0
   -2.7860   22.2800  -32.0210 O   0  0  0  0  0  0  0  0  0  0  0  0
   -3.0140   22.5330  -29.7380 O   0  0  0  0  0  0  0  0  0  0  0  0
   -4.0580   23.5000  -29.8180 C   0  0  0  0  0  0  0  0  0  0  0  0
   -3.4850   24.8650  -30.0300 C   0  0  0  0  0  0  0  0  0  0  0  0
   -4.0170   25.6540  -30.8550 O   0  0  0  0  0  0  0  0  0  0  0  0
   -2.3760   25.2750  -29.2990 O   0  0  0  0  0  0  0  0  0  0  0  0
   -1.0170   19.9700  -31.3820 C   0  0  0  0  0  0  0  0  0  0  0  0
   -1.7480   19.4230  -32.4450 C   0  0  0  0  0  0  0  0  0  0  0  0
   -4.2570   16.4830  -33.5890 N   0  0  0  0  0  0  0  0  0  0  0  0
   -5.4910   16.8200  -33.2400 N   0  0  0  0  0  0  0  0  0  0  0  0
   -7.9940   18.2950  -32.6890 C   0  0  0  0  0  0  0  0  0  0  0  0
   -9.1560   19.0190  -32.3450 C   0  0  0  0  0  0  0  0  0  0  0  0
   -9.0970   20.4080  -32.1440 C   0  0  0  0  0  0  0  0  0  0  0  0
   -7.8600   21.0310  -32.2980 C   0  0  0  0  0  0  0  0  0  0  0  0
   -8.4403   23.4493  -30.6039 H   0  0  0  0  0  0  0  0  0  0  0  0
   -8.0241   24.3684  -32.0900 H   0  0  0  0  0  0  0  0  0  0  0  0
   -9.4293   23.2494  -32.0900 H   0  0  0  0  0  0  0  0  0  0  0  0
   -5.6220   23.3070  -32.2790 H   0  0  0  0  0  0  0  0  0  0  0  0
   -3.9776   19.7026  -33.6063 H   0  0  0  0  0  0  0  0  0  0  0  0
   -1.7674   16.5221  -34.2458 H   0  0  0  0  0  0  0  0  0  0  0  0
   -1.9391   18.1317  -35.0312 H   0  0  0  0  0  0  0  0  0  0  0  0
    0.1170   16.5573  -32.8476 H   0  0  0  0  0  0  0  0  0  0  0  0
    1.3801   17.5805  -30.9252 H   0  0  0  0  0  0  0  0  0  0  0  0
    1.3956   19.8205  -29.1517 H   0  0  0  0  0  0  0  0  0  0  0  0
   -0.5730   24.3100  -28.2740 H   0  0  0  0  0  0  0  0  0  0  0  0
   -1.2170   23.7670  -29.8580 H   0  0  0  0  0  0  0  0  0  0  0  0
   -4.7208   23.2498  -30.6595 H   0  0  0  0  0  0  0  0  0  0  0  0
   -4.6261   23.4924  -28.8761 H   0  0  0  0  0  0  0  0  0  0  0  0
   -2.6315   19.9409  -32.8466 H   0  0  0  0  0  0  0  0  0  0  0  0
   -8.0582   17.2073  -32.8397 H   0  0  0  0  0  0  0  0  0  0  0  0
  -10.1148   18.4915  -32.2335 H   0  0  0  0  0  0  0  0  0  0  0  0
   -9.9950   20.9833  -31.8747 H   0  0  0  0  0  0  0  0  0  0  0  0
  1  2  1  0
  2  3  1  0
  3  4  2  0
  4  5  1  0
  5  6  2  0
  6  7  1  0
  7  8  2  0
  8  9  1  0
  9 10  1  0
 10 11  1  0
 11 12  2  0
 12 13  1  0
 13 14  2  0
 14 15  1  0
 15 16  2  0
 16 17  1  0
 17 18  1  0
 17 19  2  0
 16 20  1  0
 20 21  1  0
 21 22  2  0
 21 23  1  0
 23 24  1  0
 24 25  1  0
 25 26  2  0
 25 27  1  0
 20 28  1  0
 28 29  2  0
  9 30  1  0
 30 31  2  0
  6 32  1  0
 32 33  2  0
 33 34  1  0
 34 35  2  0
 35  2  1  0
 35  5  1  0
 31  7  1  0
 29 11  1  0
 28 14  1  0
  1 36  1  0
  1 37  1  0
  1 38  1  0
  3 39  1  0
  8 40  1  0
 10 41  1  0
 10 42  1  0
 12 43  1  0
 13 44  1  0
 15 45  1  0
 18 46  1  0
 18 47  1  0
 24 48  1  0
 24 49  1  0
 29 50  1  0
 32 51  1  0
 33 52  1  0
 34 53  1  0
M  CHG  1  27  -1
M  END
>  <UniqueID>  (5) 
5

>  <SMILES>  (5) 
Cn1cnc2c(-c3cn(Cc4ccc5cc(C(N)=O)n(C(=O)OCC(=O)[O-])c5c4)nn3)cccc21

>  <Energy>  (5) 
167.8478383112621

>  <Genealogy>  (5) 
Cn1cnc2c(-c3cn(Cc4ccc5cc(C(N)=O)n(C(=O)OCC(=O)[O-])c5c4)nn3)cccc21 (protonated)
Cn1cnc2c(-c3cn(Cc4ccc5cc(C(N)=O)n(C(=O)OCC(=O)[O-])c5c4)nn3)cccc21 (3D coordinates assigned)
Cn1cnc2c(-c3cn(Cc4ccc5cc(C(N)=O)n(C(=O)OCC(=O)[O-])c5c4)nn3)cccc21 (optimized conformer: 167.8478383112621 kcal/mol)

>  <smiles>  (5) 
Cn1cnc2c(-c3cn(Cc4ccc5cc(C(N)=O)n(C(=O)OCC(=O)O)c5c4)nn3)cccc21

>  <score_type>  (5) 
oracle

>  <origin>  (5) 
adg

>  <m_score__min__energy>  (5) 
-12.69

>  <m_primary>  (5) 
energy

$$$$
5:0
     RDKit          3D

 37 38  0  0  0  0  0  0  0  0999 V2000
   -3.4880   25.6740  -29.8950 H   0  0  0  0  0  0  0  0  0  0  0  0
   -4.0740   25.3560  -30.7000 N   0  0  0  0  0  0  0  0  0  0  0  0
   -5.4740   25.1340  -30.5430 C   0  0  0  0  0  0  0  0  0  0  0  0
   -6.1870   26.0350  -30.0260 O   0  0  0  0  0  0  0  0  0  0  0  0
   -6.0760   23.8720  -31.0210 C   0  0  0  0  0  0  0  0  0  0  0  0
   -7.4420   23.7020  -31.2400 C   0  0  0  0  0  0  0  0  0  0  0  0
   -8.2305   24.4643  -31.1556 H   0  0  0  0  0  0  0  0  0  0  0  0
   -7.5950   22.3790  -31.5840 C   0  0  0  0  0  0  0  0  0  0  0  0
   -8.7440   21.6610  -31.9000 C   0  0  0  0  0  0  0  0  0  0  0  0
   -9.7326   22.1433  -31.8947 H   0  0  0  0  0  0  0  0  0  0  0  0
   -8.6040   20.3020  -32.2260 C   0  0  0  0  0  0  0  0  0  0  0  0
   -9.4971   19.7049  -32.4624 H   0  0  0  0  0  0  0  0  0  0  0  0
   -7.3230   19.6900  -32.2540 C   0  0  0  0  0  0  0  0  0  0  0  0
   -7.1900   18.2210  -32.5670 C   0  0  0  0  0  0  0  0  0  0  0  0
   -8.3960   17.5930  -32.3150 F   0  0  0  0  0  0  0  0  0  0  0  0
   -6.8520   18.0330  -33.8960 F   0  0  0  0  0  0  0  0  0  0  0  0
   -6.2070   17.6410  -31.7850 F   0  0  0  0  0  0  0  0  0  0  0  0
   -6.1820   20.4480  -31.9030 C   0  0  0  0  0  0  0  0  0  0  0  0
   -5.1824   19.9891  -31.8927 H   0  0  0  0  0  0  0  0  0  0  0  0
   -6.3550   21.7960  -31.5690 C   0  0  0  0  0  0  0  0  0  0  0  0
   -5.4110   22.7000  -31.2310 N   0  0  0  0  0  0  0  0  0  0  0  0
   -3.9960   22.4620  -31.1710 C   0  0  0  0  0  0  0  0  0  0  0  0
   -3.3870   22.0640  -32.2010 O   0  0  0  0  0  0  0  0  0  0  0  0
   -3.2570   22.7250  -29.9210 C   0  0  0  0  0  0  0  0  0  0  0  0
   -3.7854   22.6219  -28.9618 H   0  0  0  0  0  0  0  0  0  0  0  0
   -1.9690   23.0840  -29.9110 C   0  0  0  0  0  0  0  0  0  0  0  0
   -1.4375   23.2131  -30.8654 H   0  0  0  0  0  0  0  0  0  0  0  0
   -1.2350   23.3140  -28.6230 C   0  0  0  0  0  0  0  0  0  0  0  0
   -0.3535   22.6570  -28.5862 H   0  0  0  0  0  0  0  0  0  0  0  0
   -1.9097   23.0899  -27.7836 H   0  0  0  0  0  0  0  0  0  0  0  0
   -0.7920   24.7380  -28.5210 C   0  0  0  0  0  0  0  0  0  0  0  0
   -1.5430   25.6620  -28.9400 O   0  0  0  0  0  0  0  0  0  0  0  0
    0.4380   25.0360  -27.9250 O   0  0  0  0  0  0  0  0  0  0  0  0
    0.5810   25.2370  -26.5250 C   0  0  0  0  0  0  0  0  0  0  0  0
    0.0258   24.4566  -25.9839 H   0  0  0  0  0  0  0  0  0  0  0  0
    1.6458   25.1843  -26.2539 H   0  0  0  0  0  0  0  0  0  0  0  0
    0.1821   26.2256  -26.2539 H   0  0  0  0  0  0  0  0  0  0  0  0
  1  2  1  0
  2  3  1  0
  3  4  2  0
  3  5  1  0
  5  6  2  0
  6  7  1  0
  6  8  1  0
  8  9  2  0
  9 10  1  0
  9 11  1  0
 11 12  1  0
 11 13  2  0
 13 14  1  0
 14 15  1  0
 14 16  1  0
 14 17  1  0
 13 18  1  0
 18 19  1  0
 18 20  2  0
 20 21  1  0
 21 22  1  0
 22 23  2  0
 22 24  1  0
 24 25  1  0
 24 26  2  0
 26 27  1  0
 26 28  1  0
 28 29  1  0
 28 30  1  0
 28 31  1  0
 31 32  2  0
 31 33  1  0
 33 34  1  0
 34 35  1  0
 34 36  1  0
 34 37  1  0
 21  5  1  0
 20  8  1  0
M  CHG  1   2  -1
M  END
>  <UniqueID>  (6) 
6

>  <SMILES>  (6) 
COC(=O)C/C=C/C(=O)n1c(C([NH-])=O)cc2ccc(C(F)(F)F)cc21

>  <Energy>  (6) 
70.78755975403999

>  <Genealogy>  (6) 
COC(=O)C/C=C/C(=O)n1c(C([NH-])=O)cc2ccc(C(F)(F)F)cc21 (protonated)
COC(=O)C/C=C/C(=O)n1c(C([NH-])=O)cc2ccc(C(F)(F)F)cc21 (cis-trans isomerization)
COC(=O)C/C=C/C(=O)n1c(C([NH-])=O)cc2ccc(C(F)(F)F)cc21 (3D coordinates assigned)
COC(=O)C/C=C/C(=O)n1c(C([NH-])=O)cc2ccc(C(F)(F)F)cc21 (optimized conformer: 70.78755975403999 kcal/mol)

>  <smiles>  (6) 
COC(=O)C/C=C/C(=O)n1c(C(N)=O)cc2ccc(C(F)(F)F)cc21

>  <score_type>  (6) 
oracle

>  <origin>  (6) 
adg

>  <m_score__min__energy>  (6) 
-10.6

>  <m_primary>  (6) 
energy

$$$$
6:0
     RDKit          3D

 45 46  0  0  0  0  0  0  0  0999 V2000
   -6.1940   17.9940  -32.4760 C   0  0  0  0  0  0  0  0  0  0  0  0
   -6.4330   19.4440  -32.1810 C   0  0  0  0  0  0  0  0  0  0  0  0
   -7.6670   20.0460  -32.5310 C   0  0  0  0  0  0  0  0  0  0  0  0
   -7.8930   21.4090  -32.2830 C   0  0  0  0  0  0  0  0  0  0  0  0
   -6.8650   22.1460  -31.7020 C   0  0  0  0  0  0  0  0  0  0  0  0
   -6.8210   23.4730  -31.3540 C   0  0  0  0  0  0  0  0  0  0  0  0
   -5.5550   23.6730  -30.8100 C   0  0  0  0  0  0  0  0  0  0  0  0
   -5.0980   24.9980  -30.3460 C   0  0  0  0  0  0  0  0  0  0  0  0
   -3.8920   25.5760  -30.8330 N   0  0  0  0  0  0  0  0  0  0  0  0
   -5.7400   25.5900  -29.4380 O   0  0  0  0  0  0  0  0  0  0  0  0
   -4.8270   22.5150  -30.8400 N   0  0  0  0  0  0  0  0  0  0  0  0
   -3.4340   22.3260  -30.5260 C   0  0  0  0  0  0  0  0  0  0  0  0
   -2.5930   23.2060  -30.8600 O   0  0  0  0  0  0  0  0  0  0  0  0
   -3.0050   21.1690  -29.8710 O   0  0  0  0  0  0  0  0  0  0  0  0
   -2.3590   21.1650  -28.5970 C   0  0  2  0  0  0  0  0  0  0  0  0
   -3.0950   20.2300  -27.6810 C   0  0  0  0  0  0  0  0  0  0  0  0
   -2.5010   19.6420  -26.7920 O   0  0  0  0  0  0  0  0  0  0  0  0
   -2.3040   22.5820  -28.0010 C   0  0  0  0  0  0  0  0  0  0  0  0
   -0.8940   23.0170  -27.8230 N   0  0  0  0  0  0  0  0  0  0  0  0
   -0.1380   22.8530  -29.0790 C   0  0  0  0  0  0  0  0  0  0  0  0
   -0.8270   24.4110  -27.3300 C   0  0  0  0  0  0  0  0  0  0  0  0
   -1.9270   25.2910  -27.9400 C   0  0  0  0  0  0  0  0  0  0  0  0
   -1.5910   25.6490  -29.2530 O   0  0  0  0  0  0  0  0  0  0  0  0
   -5.6520   21.5900  -31.3850 C   0  0  0  0  0  0  0  0  0  0  0  0
   -5.4060   20.2280  -31.6100 C   0  0  0  0  0  0  0  0  0  0  0  0
   -6.1023   17.4379  -31.5314 H   0  0  0  0  0  0  0  0  0  0  0  0
   -7.0383   17.5939  -33.0566 H   0  0  0  0  0  0  0  0  0  0  0  0
   -5.2659   17.8861  -33.0566 H   0  0  0  0  0  0  0  0  0  0  0  0
   -8.4551   19.4397  -33.0014 H   0  0  0  0  0  0  0  0  0  0  0  0
   -8.8531   21.8803  -32.5399 H   0  0  0  0  0  0  0  0  0  0  0  0
   -7.6180   24.2209  -31.4786 H   0  0  0  0  0  0  0  0  0  0  0  0
   -2.9650   25.2970  -30.4430 H   0  0  0  0  0  0  0  0  0  0  0  0
   -1.3215   20.8201  -28.7178 H   0  0  0  0  0  0  0  0  0  0  0  0
   -4.1760   20.0742  -27.8122 H   0  0  0  0  0  0  0  0  0  0  0  0
   -2.8154   23.2804  -28.6797 H   0  0  0  0  0  0  0  0  0  0  0  0
   -2.8009   22.5749  -27.0197 H   0  0  0  0  0  0  0  0  0  0  0  0
    0.9129   22.6250  -28.8473 H   0  0  0  0  0  0  0  0  0  0  0  0
   -0.5720   22.0281  -29.6631 H   0  0  0  0  0  0  0  0  0  0  0  0
   -0.1912   23.7836  -29.6631 H   0  0  0  0  0  0  0  0  0  0  0  0
   -0.9418   24.4065  -26.2360 H   0  0  0  0  0  0  0  0  0  0  0  0
    0.1460   24.8296  -27.6266 H   0  0  0  0  0  0  0  0  0  0  0  0
   -2.8754   24.7337  -27.9472 H   0  0  0  0  0  0  0  0  0  0  0  0
   -2.0312   26.2041  -27.3355 H   0  0  0  0  0  0  0  0  0  0  0  0
   -1.9460   24.9340  -29.8430 H   0  0  0  0  0  0  0  0  0  0  0  0
   -4.4359   19.7805  -31.3480 H   0  0  0  0  0  0  0  0  0  0  0  0
  1  2  1  0
  2  3  2  0
  3  4  1  0
  4  5  2  0
  5  6  1  0
  6  7  2  0
  7  8  1  0
  8  9  1  0
  8 10  2  0
  7 11  1  0
 11 12  1  0
 12 13  2  0
 12 14  1  0
 14 15  1  0
 15 16  1  0
 16 17  2  0
 15 18  1  0
 18 19  1  0
 19 20  1  0
 19 21  1  0
 21 22  1  0
 22 23  1  0
 11 24  1  0
 24 25  2  0
 25  2  1  0
 24  5  1  0
  1 26  1  0
  1 27  1  0
  1 28  1  0
  3 29  1  0
  4 30  1  0
  6 31  1  0
  9 32  1  0
 15 33  1  6
 16 34  1  0
 18 35  1  0
 18 36  1  0
 20 37  1  0
 20 38  1  0
 20 39  1  0
 21 40  1  0
 21 41  1  0
 22 42  1  0
 22 43  1  0
 23 44  1  0
 25 45  1  0
M  CHG  1   9  -1
M  END
>  <UniqueID>  (7) 
7

>  <SMILES>  (7) 
Cc1ccc2cc(C([NH-])=O)n(C(=O)O[C@H](C=O)CN(C)CCO)c2c1

>  <Energy>  (7) 
83.0093109125686

>  <Genealogy>  (7) 
Cc1ccc2cc(C([NH-])=O)n(C(=O)OC(C=O)CN(C)CCO)c2c1 (protonated)
Cc1ccc2cc(C([NH-])=O)n(C(=O)O[C@H](C=O)CN(C)CCO)c2c1 (chirality)
Cc1ccc2cc(C([NH-])=O)n(C(=O)O[C@H](C=O)CN(C)CCO)c2c1 (3D coordinates assigned)
Cc1ccc2cc(C([NH-])=O)n(C(=O)O[C@H](C=O)CN(C)CCO)c2c1 (optimized conformer: 83.0093109125686 kcal/mol)

>  <smiles>  (7) 
Cc1ccc2cc(C(N)=O)n(C(=O)OC(C=O)CN(C)CCO)c2c1

>  <score_type>  (7) 
oracle

>  <origin>  (7) 
adg

>  <m_score__min__energy>  (7) 
-9.6699999999999999

>  <m_primary>  (7) 
energy

$$$$
7:0
     RDKit          3D

 38 39  0  0  0  0  0  0  0  0999 V2000
   -0.9220   22.1190  -29.6380 C   0  0  0  0  0  0  0  0  0  0  0  0
   -1.8890   23.2860  -29.3780 C   0  0  0  0  0  0  0  0  0  0  0  0
   -2.8230   22.9640  -28.1960 C   0  0  0  0  0  0  0  0  0  0  0  0
   -2.6850   23.5640  -30.5800 N   0  0  0  0  0  0  0  0  0  0  0  0
   -3.3660   22.6120  -31.4090 C   0  0  0  0  0  0  0  0  0  0  0  0
   -2.7190   21.7580  -32.0720 O   0  0  0  0  0  0  0  0  0  0  0  0
   -4.7980   22.6460  -31.4960 N   0  0  0  0  0  0  0  0  0  0  0  0
   -5.6460   23.5850  -30.9870 C   0  0  0  0  0  0  0  0  0  0  0  0
   -5.2510   24.8640  -30.3610 C   0  0  0  0  0  0  0  0  0  0  0  0
   -4.1330   25.6040  -30.8450 N   0  0  0  0  0  0  0  0  0  0  0  0
   -5.9370   25.3320  -29.4130 O   0  0  0  0  0  0  0  0  0  0  0  0
   -6.9720   23.2130  -31.2050 C   0  0  0  0  0  0  0  0  0  0  0  0
   -6.9090   22.0130  -31.8750 C   0  0  0  0  0  0  0  0  0  0  0  0
   -7.9330   21.1840  -32.3250 C   0  0  0  0  0  0  0  0  0  0  0  0
   -7.5780   19.9810  -32.9580 C   0  0  0  0  0  0  0  0  0  0  0  0
   -6.2150   19.6310  -33.1290 C   0  0  0  0  0  0  0  0  0  0  0  0
   -5.8470   18.3210  -33.7660 C   0  0  0  0  0  0  0  0  0  0  0  0
   -6.5050   17.1930  -33.0380 C   0  0  0  0  0  0  0  0  0  0  0  0
   -6.4160   17.1110  -31.7850 O   0  0  0  0  0  0  0  0  0  0  0  0
   -7.1750   16.2040  -33.7470 O   0  0  0  0  0  0  0  0  0  0  0  0
   -5.2030   20.4920  -32.6480 C   0  0  0  0  0  0  0  0  0  0  0  0
   -5.5870   21.6920  -32.0380 C   0  0  0  0  0  0  0  0  0  0  0  0
   -1.0720   24.5150  -29.0490 C   0  0  0  0  0  0  0  0  0  0  0  0
   -1.5440   25.6680  -29.2360 O   0  0  0  0  0  0  0  0  0  0  0  0
    0.2400   24.3870  -28.6050 O   0  0  0  0  0  0  0  0  0  0  0  0
   -0.5795   21.7057  -28.6778 H   0  0  0  0  0  0  0  0  0  0  0  0
   -1.4389   21.3352  -30.2111 H   0  0  0  0  0  0  0  0  0  0  0  0
   -0.0558   22.4813  -30.2111 H   0  0  0  0  0  0  0  0  0  0  0  0
   -2.2930   23.1467  -27.2496 H   0  0  0  0  0  0  0  0  0  0  0  0
   -3.7142   23.6068  -28.2472 H   0  0  0  0  0  0  0  0  0  0  0  0
   -3.1287   21.9086  -28.2472 H   0  0  0  0  0  0  0  0  0  0  0  0
   -3.1570   25.2910  -30.6470 H   0  0  0  0  0  0  0  0  0  0  0  0
   -7.8765   23.7624  -30.9050 H   0  0  0  0  0  0  0  0  0  0  0  0
   -8.9884   21.4626  -32.1890 H   0  0  0  0  0  0  0  0  0  0  0  0
   -8.3646   19.3048  -33.3241 H   0  0  0  0  0  0  0  0  0  0  0  0
   -6.1792   18.3203  -34.8146 H   0  0  0  0  0  0  0  0  0  0  0  0
   -4.7556   18.1918  -33.7191 H   0  0  0  0  0  0  0  0  0  0  0  0
   -4.1405   20.2260  -32.7503 H   0  0  0  0  0  0  0  0  0  0  0  0
  1  2  1  0
  2  3  1  0
  2  4  1  0
  4  5  1  0
  5  6  2  0
  5  7  1  0
  7  8  1  0
  8  9  1  0
  9 10  1  0
  9 11  2  0
  8 12  2  0
 12 13  1  0
 13 14  2  0
 14 15  1  0
 15 16  2  0
 16 17  1  0
 17 18  1  0
 18 19  2  0
 18 20  1  0
 16 21  1  0
 21 22  2  0
  2 23  1  0
 23 24  2  0
 23 25  1  0
 22  7  1  0
 22 13  1  0
  1 26  1  0
  1 27  1  0
  1 28  1  0
  3 29  1  0
  3 30  1  0
  3 31  1  0
 10 32  1  0
 12 33  1  0
 14 34  1  0
 15 35  1  0
 17 36  1  0
 17 37  1  0
 21 38  1  0
M  CHG  4   4  -1  10  -1  20  -1  25  -1
M  END
>  <UniqueID>  (8) 
8

>  <SMILES>  (8) 
CC(C)([N-]C(=O)n1c(C([NH-])=O)cc2ccc(CC(=O)[O-])cc21)C(=O)[O-]

>  <Energy>  (8) 
72.86735694289442

>  <Genealogy>  (8) 
CC(C)([N-]C(=O)n1c(C([NH-])=O)cc2ccc(CC(=O)[O-])cc21)C(=O)[O-] (protonated)
CC(C)([N-]C(=O)n1c(C([NH-])=O)cc2ccc(CC(=O)[O-])cc21)C(=O)[O-] (3D coordinates assigned)
CC(C)([N-]C(=O)n1c(C([NH-])=O)cc2ccc(CC(=O)[O-])cc21)C(=O)[O-] (optimized conformer: 72.86735694289442 kcal/mol)

>  <smiles>  (8) 
CC(C)(NC(=O)n1c(C(N)=O)cc2ccc(CC(=O)O)cc21)C(=O)O

>  <score_type>  (8) 
oracle

>  <origin>  (8) 
adg

>  <m_score__min__energy>  (8) 
-13.43

>  <m_primary>  (8) 
energy

$$$$
8:0
     RDKit          3D

 35 36  0  0  0  0  0  0  0  0999 V2000
   -9.1730   21.5010  -31.3790 C   0  0  0  0  0  0  0  0  0  0  0  0
   -7.7830   21.2790  -31.8960 C   0  0  0  0  0  0  0  0  0  0  0  0
   -7.5660   20.4120  -32.9940 C   0  0  0  0  0  0  0  0  0  0  0  0
   -6.2630   20.1540  -33.4560 C   0  0  0  0  0  0  0  0  0  0  0  0
   -5.2040   20.7700  -32.7960 C   0  0  0  0  0  0  0  0  0  0  0  0
   -3.8470   20.6600  -33.0020 C   0  0  0  0  0  0  0  0  0  0  0  0
   -3.2570   21.4650  -32.0260 C   0  0  0  0  0  0  0  0  0  0  0  0
   -1.7980   21.6790  -31.8820 C   0  0  0  0  0  0  0  0  0  0  0  0
   -1.2690   22.4170  -30.7790 N   0  0  0  0  0  0  0  0  0  0  0  0
   -1.0040   21.1970  -32.7310 O   0  0  0  0  0  0  0  0  0  0  0  0
   -4.2160   22.0560  -31.2580 N   0  0  0  0  0  0  0  0  0  0  0  0
   -4.0160   22.8870  -30.1040 C   0  0  0  0  0  0  0  0  0  0  0  0
   -4.0500   22.3760  -28.9540 O   0  0  0  0  0  0  0  0  0  0  0  0
   -3.7850   24.3330  -30.2480 C   0  0  0  0  0  0  0  0  0  0  0  0
   -4.6270   25.0490  -30.8530 O   0  0  0  0  0  0  0  0  0  0  0  0
   -2.5960   24.9190  -29.7090 N   0  0  0  0  0  0  0  0  0  0  0  0
   -2.2570   24.9020  -28.2900 C   0  0  0  0  0  0  0  0  0  0  0  0
   -0.8280   24.3980  -28.0860 C   0  0  0  0  0  0  0  0  0  0  0  0
   -0.2010   24.2050  -29.3250 O   0  0  0  0  0  0  0  0  0  0  0  0
   -5.3990   21.6150  -31.7360 C   0  0  0  0  0  0  0  0  0  0  0  0
   -6.6830   21.8760  -31.2430 C   0  0  0  0  0  0  0  0  0  0  0  0
   -9.1598   21.4989  -30.2791 H   0  0  0  0  0  0  0  0  0  0  0  0
   -9.5478   22.4704  -31.7393 H   0  0  0  0  0  0  0  0  0  0  0  0
   -9.8311   20.6966  -31.7393 H   0  0  0  0  0  0  0  0  0  0  0  0
   -8.4244   19.9358  -33.4903 H   0  0  0  0  0  0  0  0  0  0  0  0
   -6.0865   19.4863  -34.3121 H   0  0  0  0  0  0  0  0  0  0  0  0
   -3.3360   20.0640  -33.7725 H   0  0  0  0  0  0  0  0  0  0  0  0
   -0.2360   22.5260  -30.6710 H   0  0  0  0  0  0  0  0  0  0  0  0
   -1.8910   22.8850  -30.0860 H   0  0  0  0  0  0  0  0  0  0  0  0
   -2.3424   25.9213  -27.8853 H   0  0  0  0  0  0  0  0  0  0  0  0
   -2.9501   24.2266  -27.7671 H   0  0  0  0  0  0  0  0  0  0  0  0
   -0.2611   25.1391  -27.5034 H   0  0  0  0  0  0  0  0  0  0  0  0
   -0.8590   23.4399  -27.5464 H   0  0  0  0  0  0  0  0  0  0  0  0
   -0.8040   24.5910  -30.0130 H   0  0  0  0  0  0  0  0  0  0  0  0
   -6.8308   22.5288  -30.3701 H   0  0  0  0  0  0  0  0  0  0  0  0
  1  2  1  0
  2  3  2  0
  3  4  1  0
  4  5  2  0
  5  6  1  0
  6  7  2  0
  7  8  1  0
  8  9  1  0
  8 10  2  0
  7 11  1  0
 11 12  1  0
 12 13  2  0
 12 14  1  0
 14 15  2  0
 14 16  1  0
 16 17  1  0
 17 18  1  0
 18 19  1  0
 11 20  1  0
 20 21  2  0
 21  2  1  0
 20  5  1  0
  1 22  1  0
  1 23  1  0
  1 24  1  0
  3 25  1  0
  4 26  1  0
  6 27  1  0
  9 28  1  0
  9 29  1  0
 17 30  1  0
 17 31  1  0
 18 32  1  0
 18 33  1  0
 19 34  1  0
 21 35  1  0
M  CHG  1  16  -1
M  END
>  <UniqueID>  (9) 
9

>  <SMILES>  (9) 
Cc1ccc2cc(C(N)=O)n(C(=O)C(=O)[N-]CCO)c2c1

>  <Energy>  (9) 
68.80645592490544

>  <Genealogy>  (9) 
Cc1ccc2cc(C(N)=O)n(C(=O)C(=O)[N-]CCO)c2c1 (protonated)
Cc1ccc2cc(C(N)=O)n(C(=O)C(=O)[N-]CCO)c2c1 (3D coordinates assigned)
Cc1ccc2cc(C(N)=O)n(C(=O)C(=O)[N-]CCO)c2c1 (optimized conformer: 68.80645592490544 kcal/mol)

>  <smiles>  (9) 
Cc1ccc2cc(C(N)=O)n(C(=O)C(=O)NCCO)c2c1

>  <score_type>  (9) 
oracle

>  <origin>  (9) 
adg

>  <m_score__min__energy>  (9) 
-8.1699999999999999

>  <m_primary>  (9) 
energy

$$$$
9:0
     RDKit          3D

 37 38  0  0  0  0  0  0  0  0999 V2000
   -2.7460   20.8640  -27.7370 C   0  0  0  0  0  0  0  0  0  0  0  0
   -3.0740   22.0680  -28.6410 C   0  0  0  0  0  0  0  0  0  0  0  0
   -1.8340   22.9630  -28.8270 C   0  0  0  0  0  0  0  0  0  0  0  0
   -4.1880   22.8950  -27.9830 C   0  0  0  0  0  0  0  0  0  0  0  0
   -3.5710   21.6240  -29.9120 O   0  0  0  0  0  0  0  0  0  0  0  0
   -3.9840   22.4410  -30.9750 C   0  0  0  0  0  0  0  0  0  0  0  0
   -3.1640   22.8330  -31.8490 O   0  0  0  0  0  0  0  0  0  0  0  0
   -5.3550   22.8560  -31.0510 N   0  0  0  0  0  0  0  0  0  0  0  0
   -5.8720   24.0920  -30.8020 C   0  0  0  0  0  0  0  0  0  0  0  0
   -5.0960   25.3240  -30.5470 C   0  0  0  0  0  0  0  0  0  0  0  0
   -3.6760   25.2870  -30.4390 N   0  0  0  0  0  0  0  0  0  0  0  0
   -5.6910   26.4320  -30.4710 O   0  0  0  0  0  0  0  0  0  0  0  0
   -7.2620   24.0690  -30.9030 C   0  0  0  0  0  0  0  0  0  0  0  0
   -7.5820   22.7720  -31.2330 C   0  0  0  0  0  0  0  0  0  0  0  0
   -8.8240   22.1870  -31.4600 C   0  0  0  0  0  0  0  0  0  0  0  0
   -8.8590   20.8160  -31.7680 C   0  0  0  0  0  0  0  0  0  0  0  0
   -7.6650   20.0520  -31.8170 C   0  0  0  0  0  0  0  0  0  0  0  0
   -7.7130   18.5900  -32.1850 C   0  0  0  0  0  0  0  0  0  0  0  0
   -6.9420   17.8720  -31.2910 F   0  0  0  0  0  0  0  0  0  0  0  0
   -9.0130   18.1170  -32.1410 F   0  0  0  0  0  0  0  0  0  0  0  0
   -7.2240   18.3910  -33.4640 F   0  0  0  0  0  0  0  0  0  0  0  0
   -6.4210   20.6900  -31.6020 C   0  0  0  0  0  0  0  0  0  0  0  0
   -6.4140   22.0600  -31.3160 C   0  0  0  0  0  0  0  0  0  0  0  0
   -2.8279   21.1645  -26.6820 H   0  0  0  0  0  0  0  0  0  0  0  0
   -3.4546   20.0479  -27.9418 H   0  0  0  0  0  0  0  0  0  0  0  0
   -1.7214   20.5201  -27.9418 H   0  0  0  0  0  0  0  0  0  0  0  0
   -1.4373   23.2493  -27.8418 H   0  0  0  0  0  0  0  0  0  0  0  0
   -1.0640   22.4111  -29.3860 H   0  0  0  0  0  0  0  0  0  0  0  0
   -2.1153   23.8676  -29.3860 H   0  0  0  0  0  0  0  0  0  0  0  0
   -4.0972   22.8276  -26.8888 H   0  0  0  0  0  0  0  0  0  0  0  0
   -4.0971   23.9461  -28.2944 H   0  0  0  0  0  0  0  0  0  0  0  0
   -5.1678   22.5038  -28.2944 H   0  0  0  0  0  0  0  0  0  0  0  0
   -3.0870   24.9100  -31.2150 H   0  0  0  0  0  0  0  0  0  0  0  0
   -7.9557   24.9091  -30.7512 H   0  0  0  0  0  0  0  0  0  0  0  0
   -9.7493   22.7788  -31.4003 H   0  0  0  0  0  0  0  0  0  0  0  0
   -9.8240   20.3297  -31.9735 H   0  0  0  0  0  0  0  0  0  0  0  0
   -5.4805   20.1223  -31.6583 H   0  0  0  0  0  0  0  0  0  0  0  0
  1  2  1  0
  2  3  1  0
  2  4  1  0
  2  5  1  0
  5  6  1  0
  6  7  2  0
  6  8  1  0
  8  9  1  0
  9 10  1  0
 10 11  1  0
 10 12  2  0
  9 13  2  0
 13 14  1  0
 14 15  2  0
 15 16  1  0
 16 17  2  0
 17 18  1  0
 18 19  1  0
 18 20  1  0
 18 21  1  0
 17 22  1  0
 22 23  2  0
 23  8  1  0
 23 14  1  0
  1 24  1  0
  1 25  1  0
  1 26  1  0
  3 27  1  0
  3 28  1  0
  3 29  1  0
  4 30  1  0
  4 31  1  0
  4 32  1  0
 11 33  1  0
 13 34  1  0
 15 35  1  0
 16 36  1  0
 22 37  1  0
M  CHG  1  11  -1
M  END
>  <UniqueID>  (10) 
10

>  <SMILES>  (10) 
CC(C)(C)OC(=O)n1c(C([NH-])=O)cc2ccc(C(F)(F)F)cc21

>  <Energy>  (10) 
71.88827232974894

>  <Genealogy>  (10) 
CC(C)(C)OC(=O)n1c(C([NH-])=O)cc2ccc(C(F)(F)F)cc21 (protonated)
CC(C)(C)OC(=O)n1c(C([NH-])=O)cc2ccc(C(F)(F)F)cc21 (3D coordinates assigned)
CC(C)(C)OC(=O)n1c(C([NH-])=O)cc2ccc(C(F)(F)F)cc21 (optimized conformer: 71.88827232974894 kcal/mol)

>  <smiles>  (10) 
CC(C)(C)OC(=O)n1c(C(N)=O)cc2ccc(C(F)(F)F)cc21

>  <score_type>  (10) 
oracle

>  <origin>  (10) 
adg

>  <m_score__min__energy>  (10) 
-9.5800000000000001

>  <m_primary>  (10) 
energy

$$$$
10:0
     RDKit          3D

 45 46  0  0  0  0  0  0  0  0999 V2000
   -6.6650   18.2540  -33.7180 C   0  0  0  0  0  0  0  0  0  0  0  0
   -6.8710   19.5260  -32.9480 C   0  0  0  0  0  0  0  0  0  0  0  0
   -8.1790   19.9520  -32.6120 C   0  0  0  0  0  0  0  0  0  0  0  0
   -8.3810   21.1540  -31.9130 C   0  0  0  0  0  0  0  0  0  0  0  0
   -7.2630   21.9170  -31.5910 C   0  0  0  0  0  0  0  0  0  0  0  0
   -7.1710   23.1060  -30.9020 C   0  0  0  0  0  0  0  0  0  0  0  0
   -5.8130   23.4120  -30.8780 C   0  0  0  0  0  0  0  0  0  0  0  0
   -5.2700   24.6520  -30.2900 C   0  0  0  0  0  0  0  0  0  0  0  0
   -5.7360   25.1390  -29.0310 N   0  0  0  0  0  0  0  0  0  0  0  0
   -4.3410   25.2630  -30.8830 O   0  0  0  0  0  0  0  0  0  0  0  0
   -5.0900   22.4470  -31.5130 N   0  0  0  0  0  0  0  0  0  0  0  0
   -3.6610   22.3560  -31.6320 C   0  0  0  0  0  0  0  0  0  0  0  0
   -2.9360   22.5370  -30.6160 O   0  0  0  0  0  0  0  0  0  0  0  0
   -3.0910   22.0600  -32.8760 O   0  0  0  0  0  0  0  0  0  0  0  0
   -2.4120   20.8760  -33.1960 C   0  0  0  0  0  0  0  0  0  0  0  0
   -3.0080   19.9220  -33.7660 O   0  0  0  0  0  0  0  0  0  0  0  0
   -0.9720   20.7070  -32.8030 C   0  0  0  0  0  0  0  0  0  0  0  0
   -0.0640   20.3690  -34.0020 C   0  0  0  0  0  0  0  0  0  0  0  0
    1.2650   21.1750  -34.0080 C   0  0  0  0  0  0  0  0  0  0  0  0
    1.3010   22.3060  -34.9630 N   0  0  0  0  0  0  0  0  0  0  0  0
    2.6320   22.5240  -35.5510 C   0  0  0  0  0  0  0  0  0  0  0  0
    0.2580   22.2230  -35.9980 C   0  0  0  0  0  0  0  0  0  0  0  0
   -5.9930   21.5380  -31.9440 C   0  0  0  0  0  0  0  0  0  0  0  0
   -5.7610   20.3300  -32.6100 C   0  0  0  0  0  0  0  0  0  0  0  0
   -6.5296   17.4182  -33.0158 H   0  0  0  0  0  0  0  0  0  0  0  0
   -7.5438   18.0623  -34.3512 H   0  0  0  0  0  0  0  0  0  0  0  0
   -5.7706   18.3494  -34.3512 H   0  0  0  0  0  0  0  0  0  0  0  0
   -9.0440   19.3368  -32.9006 H   0  0  0  0  0  0  0  0  0  0  0  0
   -9.3919   21.4817  -31.6291 H   0  0  0  0  0  0  0  0  0  0  0  0
   -7.9945   23.6892  -30.4642 H   0  0  0  0  0  0  0  0  0  0  0  0
   -5.3690   26.0380  -28.6480 H   0  0  0  0  0  0  0  0  0  0  0  0
   -6.3730   24.5670  -28.4340 H   0  0  0  0  0  0  0  0  0  0  0  0
   -0.6192   21.6440  -32.3475 H   0  0  0  0  0  0  0  0  0  0  0  0
   -0.9168   19.8655  -32.0967 H   0  0  0  0  0  0  0  0  0  0  0  0
    0.1774   19.2964  -33.9666 H   0  0  0  0  0  0  0  0  0  0  0  0
   -0.6143   20.6379  -34.9157 H   0  0  0  0  0  0  0  0  0  0  0  0
    1.4266   21.5759  -32.9965 H   0  0  0  0  0  0  0  0  0  0  0  0
    2.0505   20.4745  -34.3279 H   0  0  0  0  0  0  0  0  0  0  0  0
    3.3727   22.6453  -34.7469 H   0  0  0  0  0  0  0  0  0  0  0  0
    2.9044   21.6585  -36.1729 H   0  0  0  0  0  0  0  0  0  0  0  0
    2.6140   23.4312  -36.1729 H   0  0  0  0  0  0  0  0  0  0  0  0
   -0.7289   22.1445  -35.5186 H   0  0  0  0  0  0  0  0  0  0  0  0
    0.2904   23.1266  -36.6245 H   0  0  0  0  0  0  0  0  0  0  0  0
    0.4329   21.3359  -36.6245 H   0  0  0  0  0  0  0  0  0  0  0  0
   -4.7384   20.0142  -32.8642 H   0  0  0  0  0  0  0  0  0  0  0  0
  1  2  1  0
  2  3  2  0
  3  4  1  0
  4  5  2  0
  5  6  1  0
  6  7  2  0
  7  8  1  0
  8  9  1  0
  8 10  2  0
  7 11  1  0
 11 12  1  0
 12 13  2  0
 12 14  1  0
 14 15  1  0
 15 16  2  0
 15 17  1  0
 17 18  1  0
 18 19  1  0
 19 20  1  0
 20 21  1  0
 20 22  1  0
 11 23  1  0
 23 24  2  0
 24  2  1  0
 23  5  1  0
  1 25  1  0
  1 26  1  0
  1 27  1  0
  3 28  1  0
  4 29  1  0
  6 30  1  0
  9 31  1  0
  9 32  1  0
 17 33  1  0
 17 34  1  0
 18 35  1  0
 18 36  1  0
 19 37  1  0
 19 38  1  0
 21 39  1  0
 21 40  1  0
 21 41  1  0
 22 42  1  0
 22 43  1  0
 22 44  1  0
 24 45  1  0
M  END
>  <UniqueID>  (11) 
11

>  <SMILES>  (11) 
Cc1ccc2cc(C(N)=O)n(C(=O)OC(=O)CCCN(C)C)c2c1

>  <Energy>  (11) 
85.66372255111347

>  <Genealogy>  (11) 
Cc1ccc2cc(C(N)=O)n(C(=O)OC(=O)CCCN(C)C)c2c1 (3D coordinates assigned)
Cc1ccc2cc(C(N)=O)n(C(=O)OC(=O)CCCN(C)C)c2c1 (optimized conformer: 85.66372255111347 kcal/mol)

>  <smiles>  (11) 
Cc1ccc2cc(C(N)=O)n(C(=O)OC(=O)CCCN(C)C)c2c1

>  <score_type>  (11) 
oracle

>  <origin>  (11) 
adg

>  <m_score__min__energy>  (11) 
-8.9600000000000009

>  <m_primary>  (11) 
energy

$$$$
11:0
     RDKit          3D

 39 40  0  0  0  0  0  0  0  0999 V2000
   -4.0041   20.6206  -32.7502 H   0  0  0  0  0  0  0  0  0  0  0  0
   -3.5620   21.3940  -32.1050 C   0  0  0  0  0  0  0  0  0  0  0  0
   -4.4360   22.5200  -31.7100 C   0  0  0  0  0  0  0  0  0  0  0  0
   -3.9210   23.6620  -31.5830 O   0  0  0  0  0  0  0  0  0  0  0  0
   -5.8260   22.3370  -31.3880 N   0  0  0  0  0  0  0  0  0  0  0  0
   -6.5990   23.1200  -30.5830 C   0  0  0  0  0  0  0  0  0  0  0  0
   -6.1780   24.4090  -29.9820 C   0  0  0  0  0  0  0  0  0  0  0  0
   -6.9680   25.3890  -29.9710 O   0  0  0  0  0  0  0  0  0  0  0  0
   -4.8830   24.5610  -29.3960 N   0  0  0  0  0  0  0  0  0  0  0  0
   -4.1680   23.8040  -29.4420 H   0  0  0  0  0  0  0  0  0  0  0  0
   -4.6180   25.4640  -28.9450 H   0  0  0  0  0  0  0  0  0  0  0  0
   -7.8680   22.5590  -30.4370 C   0  0  0  0  0  0  0  0  0  0  0  0
   -8.7140   22.9646  -29.8628 H   0  0  0  0  0  0  0  0  0  0  0  0
   -7.8370   21.3900  -31.1640 C   0  0  0  0  0  0  0  0  0  0  0  0
   -8.8210   20.4210  -31.3440 C   0  0  0  0  0  0  0  0  0  0  0  0
   -9.8175   20.5337  -30.8920 H   0  0  0  0  0  0  0  0  0  0  0  0
   -8.5010   19.2950  -32.1210 C   0  0  0  0  0  0  0  0  0  0  0  0
   -9.2554   18.5104  -32.2803 H   0  0  0  0  0  0  0  0  0  0  0  0
   -7.2160   19.1610  -32.7010 C   0  0  0  0  0  0  0  0  0  0  0  0
   -6.8710   17.9310  -33.4880 C   0  0  0  0  0  0  0  0  0  0  0  0
   -6.6398   17.1067  -32.7973 H   0  0  0  0  0  0  0  0  0  0  0  0
   -7.7249   17.6497  -34.1218 H   0  0  0  0  0  0  0  0  0  0  0  0
   -5.9954   18.1349  -34.1218 H   0  0  0  0  0  0  0  0  0  0  0  0
   -6.2380   20.1540  -32.4810 C   0  0  0  0  0  0  0  0  0  0  0  0
   -5.2253   20.0514  -32.8980 H   0  0  0  0  0  0  0  0  0  0  0  0
   -6.5910   21.2730  -31.7180 C   0  0  0  0  0  0  0  0  0  0  0  0
   -2.2790   21.2300  -31.7480 C   0  0  0  0  0  0  0  0  0  0  0  0
   -1.7460   20.3658  -32.1712 H   0  0  0  0  0  0  0  0  0  0  0  0
   -1.5060   22.1270  -30.8180 C   0  0  0  0  0  0  0  0  0  0  0  0
   -0.6325   21.5794  -30.4344 H   0  0  0  0  0  0  0  0  0  0  0  0
   -1.1882   23.0192  -31.3774 H   0  0  0  0  0  0  0  0  0  0  0  0
   -2.3370   22.5580  -29.6860 N   0  0  0  0  0  0  0  0  0  0  0  0
   -2.9860   23.3030  -30.0380 H   0  0  0  0  0  0  0  0  0  0  0  0
   -1.5200   23.1450  -28.6180 C   0  0  0  0  0  0  0  0  0  0  0  0
   -1.9661   22.9044  -27.6417 H   0  0  0  0  0  0  0  0  0  0  0  0
   -0.5014   22.7330  -28.6693 H   0  0  0  0  0  0  0  0  0  0  0  0
   -1.4640   24.6290  -28.7870 C   0  0  0  0  0  0  0  0  0  0  0  0
   -0.4450   25.2700  -28.4200 O   0  0  0  0  0  0  0  0  0  0  0  0
   -2.5150   25.3000  -29.4000 O   0  0  0  0  0  0  0  0  0  0  0  0
  1  2  1  0
  2  3  1  0
  3  4  2  0
  3  5  1  0
  5  6  1  0
  6  7  1  0
  7  8  2  0
  7  9  1  0
  9 10  1  0
  9 11  1  0
  6 12  2  0
 12 13  1  0
 12 14  1  0
 14 15  2  0
 15 16  1  0
 15 17  1  0
 17 18  1  0
 17 19  2  0
 19 20  1  0
 20 21  1  0
 20 22  1  0
 20 23  1  0
 19 24  1  0
 24 25  1  0
 24 26  2  0
  2 27  2  0
 27 28  1  0
 27 29  1  0
 29 30  1  0
 29 31  1  0
 29 32  1  0
 32 33  1  0
 32 34  1  0
 34 35  1  0
 34 36  1  0
 34 37  1  0
 37 38  2  0
 37 39  1  0
 26  5  1  0
 26 14  1  0
M  CHG  1  39  -1
M  END
>  <UniqueID>  (12) 
12

>  <SMILES>  (12) 
Cc1ccc2cc(C(N)=O)n(C(=O)/C=C\CNCC(=O)[O-])c2c1

>  <Energy>  (12) 
75.667432595989

>  <Genealogy>  (12) 
Cc1ccc2cc(C(N)=O)n(C(=O)C=CCNCC(=O)[O-])c2c1 (protonated)
Cc1ccc2cc(C(N)=O)n(C(=O)/C=C\CNCC(=O)[O-])c2c1 (cis-trans isomerization)
Cc1ccc2cc(C(N)=O)n(C(=O)/C=C\CNCC(=O)[O-])c2c1 (3D coordinates assigned)
Cc1ccc2cc(C(N)=O)n(C(=O)/C=C\CNCC(=O)[O-])c2c1 (optimized conformer: 75.667432595989 kcal/mol)

>  <smiles>  (12) 
Cc1ccc2cc(C(N)=O)n(C(=O)C=CCNCC(=O)O)c2c1

>  <score_type>  (12) 
oracle

>  <origin>  (12) 
adg

>  <m_score__min__energy>  (12) 
-11.199999999999999

>  <m_primary>  (12) 
energy

$$$$
12:0
     RDKit          3D

 43 45  0  0  0  0  0  0  0  0999 V2000
   -5.1760   24.8730  -28.9880 N   0  0  0  0  0  0  0  0  0  0  0  0
   -5.2720   24.5720  -30.3810 C   0  0  0  0  0  0  0  0  0  0  0  0
   -4.6760   25.3120  -31.2070 O   0  0  0  0  0  0  0  0  0  0  0  0
   -6.0520   23.4050  -30.8610 C   0  0  0  0  0  0  0  0  0  0  0  0
   -7.4470   23.3380  -30.8870 C   0  0  0  0  0  0  0  0  0  0  0  0
   -7.7440   22.0650  -31.3230 C   0  0  0  0  0  0  0  0  0  0  0  0
   -8.9760   21.4590  -31.5570 C   0  0  0  0  0  0  0  0  0  0  0  0
   -8.9780   20.1370  -32.0350 C   0  0  0  0  0  0  0  0  0  0  0  0
   -7.7590   19.4470  -32.2590 C   0  0  0  0  0  0  0  0  0  0  0  0
   -7.7700   18.0540  -32.8210 C   0  0  0  0  0  0  0  0  0  0  0  0
   -6.4930   17.7740  -33.4700 N   0  0  0  0  0  0  0  0  0  0  0  0
   -5.5780   16.8760  -33.0580 C   0  0  0  0  0  0  0  0  0  0  0  0
   -4.5510   16.8570  -33.9760 C   0  0  0  0  0  0  0  0  0  0  0  0
   -4.9210   17.7760  -34.9390 C   0  0  0  0  0  0  0  0  0  0  0  0
   -6.1120   18.3170  -34.6140 N   0  0  0  0  0  0  0  0  0  0  0  0
   -6.5310   20.1000  -32.0220 C   0  0  0  0  0  0  0  0  0  0  0  0
   -6.5610   21.4120  -31.5420 C   0  0  0  0  0  0  0  0  0  0  0  0
   -5.5180   22.2190  -31.2660 N   0  0  0  0  0  0  0  0  0  0  0  0
   -4.1330   21.8820  -31.4220 C   0  0  0  0  0  0  0  0  0  0  0  0
   -3.7670   21.1820  -32.4040 O   0  0  0  0  0  0  0  0  0  0  0  0
   -3.1100   22.4150  -30.4660 C   0  0  0  0  0  0  0  0  0  0  0  0
   -3.4670   22.0230  -29.0680 C   0  0  0  0  0  0  0  0  0  0  0  0
   -3.4370   20.8080  -28.7300 O   0  0  0  0  0  0  0  0  0  0  0  0
   -3.8600   23.0080  -28.1590 O   0  0  0  0  0  0  0  0  0  0  0  0
   -2.9320   23.7340  -27.3610 C   0  0  0  0  0  0  0  0  0  0  0  0
   -2.0070   24.5020  -28.2500 C   0  0  0  0  0  0  0  0  0  0  0  0
   -2.4550   25.2780  -29.0780 O   0  0  0  0  0  0  0  0  0  0  0  0
   -4.5740   25.6650  -28.6690 H   0  0  0  0  0  0  0  0  0  0  0  0
   -5.7040   24.3320  -28.2700 H   0  0  0  0  0  0  0  0  0  0  0  0
   -8.1577   24.1329  -30.6167 H   0  0  0  0  0  0  0  0  0  0  0  0
   -9.9174   21.9976  -31.3736 H   0  0  0  0  0  0  0  0  0  0  0  0
   -9.9344   19.6326  -32.2373 H   0  0  0  0  0  0  0  0  0  0  0  0
   -7.9319   17.3326  -32.0065 H   0  0  0  0  0  0  0  0  0  0  0  0
   -8.5804   17.9661  -33.5596 H   0  0  0  0  0  0  0  0  0  0  0  0
   -5.6399   16.2637  -32.1463 H   0  0  0  0  0  0  0  0  0  0  0  0
   -3.6375   16.2449  -33.9484 H   0  0  0  0  0  0  0  0  0  0  0  0
   -4.3334   18.0277  -35.8342 H   0  0  0  0  0  0  0  0  0  0  0  0
   -5.5749   19.5896  -32.2102 H   0  0  0  0  0  0  0  0  0  0  0  0
   -2.1229   22.0013  -30.7200 H   0  0  0  0  0  0  0  0  0  0  0  0
   -3.0832   23.5123  -30.5388 H   0  0  0  0  0  0  0  0  0  0  0  0
   -3.4767   24.4316  -26.7078 H   0  0  0  0  0  0  0  0  0  0  0  0
   -2.3509   23.0331  -26.7438 H   0  0  0  0  0  0  0  0  0  0  0  0
   -0.9193   24.3669  -28.1572 H   0  0  0  0  0  0  0  0  0  0  0  0
  1  2  1  0
  2  3  2  0
  2  4  1  0
  4  5  2  0
  5  6  1  0
  6  7  2  0
  7  8  1  0
  8  9  2  0
  9 10  1  0
 10 11  1  0
 11 12  1  0
 12 13  2  0
 13 14  1  0
 14 15  2  0
  9 16  1  0
 16 17  2  0
 17 18  1  0
 18 19  1  0
 19 20  2  0
 19 21  1  0
 21 22  1  0
 22 23  2  0
 22 24  1  0
 24 25  1  0
 25 26  1  0
 26 27  2  0
 18  4  1  0
 17  6  1  0
 15 11  1  0
  1 28  1  0
  1 29  1  0
  5 30  1  0
  7 31  1  0
  8 32  1  0
 10 33  1  0
 10 34  1  0
 12 35  1  0
 13 36  1  0
 14 37  1  0
 16 38  1  0
 21 39  1  0
 21 40  1  0
 25 41  1  0
 25 42  1  0
 26 43  1  0
M  END
>  <UniqueID>  (13) 
13

>  <SMILES>  (13) 
NC(=O)c1cc2ccc(Cn3cccn3)cc2n1C(=O)CC(=O)OCC=O

>  <Energy>  (13) 
105.81598745234275

>  <Genealogy>  (13) 
NC(=O)c1cc2ccc(Cn3cccn3)cc2n1C(=O)CC(=O)OCC=O (3D coordinates assigned)
NC(=O)c1cc2ccc(Cn3cccn3)cc2n1C(=O)CC(=O)OCC=O (optimized conformer: 105.81598745234275 kcal/mol)

>  <smiles>  (13) 
NC(=O)c1cc2ccc(Cn3cccn3)cc2n1C(=O)CC(=O)OCC=O

>  <score_type>  (13) 
oracle

>  <origin>  (13) 
adg

>  <m_score__min__energy>  (13) 
-9.1500000000000004

>  <m_primary>  (13) 
energy

$$$$
13:0
     RDKit          3D

 55 56  0  0  0  0  0  0  0  0999 V2000
    0.6140   21.9840  -27.3070 C   0  0  0  0  0  0  0  0  0  0  0  0
   -0.3960   22.0480  -26.2440 N   0  0  0  0  0  0  0  0  0  0  0  0
   -1.5300   21.1120  -26.3030 C   0  0  0  0  0  0  0  0  0  0  0  0
   -2.3280   21.2580  -27.6110 C   0  0  0  0  0  0  0  0  0  0  0  0
   -1.6750   20.5500  -28.8130 C   0  0  0  0  0  0  0  0  0  0  0  0
   -2.5140   20.6630  -30.0960 C   0  0  0  0  0  0  0  0  0  0  0  0
   -2.7170   22.0960  -30.4980 C   0  0  0  0  0  0  0  0  0  0  0  0
   -1.7560   22.7640  -30.9650 O   0  0  0  0  0  0  0  0  0  0  0  0
   -3.9850   22.7290  -30.2820 N   0  0  0  0  0  0  0  0  0  0  0  0
   -4.2610   23.7730  -29.4540 C   0  0  0  0  0  0  0  0  0  0  0  0
   -3.2680   24.5490  -28.6780 C   0  0  0  0  0  0  0  0  0  0  0  0
   -2.2250   25.2700  -29.3290 N   0  0  0  0  0  0  0  0  0  0  0  0
   -3.3470   24.5840  -27.4200 O   0  0  0  0  0  0  0  0  0  0  0  0
   -5.6340   24.0200  -29.4260 C   0  0  0  0  0  0  0  0  0  0  0  0
   -6.1930   23.0820  -30.2640 C   0  0  0  0  0  0  0  0  0  0  0  0
   -7.5240   22.8540  -30.5970 C   0  0  0  0  0  0  0  0  0  0  0  0
   -7.8080   21.8050  -31.4880 C   0  0  0  0  0  0  0  0  0  0  0  0
   -6.7660   21.0090  -32.0280 C   0  0  0  0  0  0  0  0  0  0  0  0
   -7.1000   19.9220  -33.0150 C   0  0  0  0  0  0  0  0  0  0  0  0
   -6.9270   18.6640  -32.4620 F   0  0  0  0  0  0  0  0  0  0  0  0
   -6.2780   20.0410  -34.1200 F   0  0  0  0  0  0  0  0  0  0  0  0
   -8.4180   20.0420  -33.4180 F   0  0  0  0  0  0  0  0  0  0  0  0
   -5.4240   21.2860  -31.6750 C   0  0  0  0  0  0  0  0  0  0  0  0
   -5.1750   22.3180  -30.7700 C   0  0  0  0  0  0  0  0  0  0  0  0
   -0.2720   22.9830  -25.1410 C   0  0  0  0  0  0  0  0  0  0  0  0
   -0.2650   22.5490  -23.9600 O   0  0  0  0  0  0  0  0  0  0  0  0
   -0.2170   24.4860  -25.3510 C   0  0  0  0  0  0  0  0  0  0  0  0
    0.2130   25.2560  -24.1580 N   0  0  0  0  0  0  0  0  0  0  0  0
   -0.7960   26.2410  -23.7330 C   0  0  0  0  0  0  0  0  0  0  0  0
    1.5280   25.8980  -24.3380 C   0  0  0  0  0  0  0  0  0  0  0  0
    1.6159   21.9205  -26.8575 H   0  0  0  0  0  0  0  0  0  0  0  0
    0.4347   21.0954  -27.9301 H   0  0  0  0  0  0  0  0  0  0  0  0
    0.5483   22.8881  -27.9301 H   0  0  0  0  0  0  0  0  0  0  0  0
   -1.1460   20.0835  -26.2337 H   0  0  0  0  0  0  0  0  0  0  0  0
   -2.2047   21.3410  -25.4650 H   0  0  0  0  0  0  0  0  0  0  0  0
   -3.3296   20.8300  -27.4571 H   0  0  0  0  0  0  0  0  0  0  0  0
   -2.3643   22.3313  -27.8491 H   0  0  0  0  0  0  0  0  0  0  0  0
   -0.6897   21.0037  -28.9958 H   0  0  0  0  0  0  0  0  0  0  0  0
   -1.5913   19.4818  -28.5639 H   0  0  0  0  0  0  0  0  0  0  0  0
   -1.9959   20.1338  -30.9094 H   0  0  0  0  0  0  0  0  0  0  0  0
   -3.5005   20.2161  -29.9031 H   0  0  0  0  0  0  0  0  0  0  0  0
   -1.6670   24.8310  -30.0940 H   0  0  0  0  0  0  0  0  0  0  0  0
   -6.1589   24.7998  -28.8547 H   0  0  0  0  0  0  0  0  0  0  0  0
   -8.3287   23.4749  -30.1764 H   0  0  0  0  0  0  0  0  0  0  0  0
   -8.8511   21.5989  -31.7699 H   0  0  0  0  0  0  0  0  0  0  0  0
   -4.5968   20.7015  -32.1040 H   0  0  0  0  0  0  0  0  0  0  0  0
    0.4900   24.6937  -26.1677 H   0  0  0  0  0  0  0  0  0  0  0  0
   -1.2433   24.8088  -25.5799 H   0  0  0  0  0  0  0  0  0  0  0  0
    0.3180   24.5660  -23.3760 H   0  0  0  0  0  0  0  0  0  0  0  0
   -0.8331   26.2772  -22.6342 H   0  0  0  0  0  0  0  0  0  0  0  0
   -0.5269   27.2335  -24.1237 H   0  0  0  0  0  0  0  0  0  0  0  0
   -1.7817   25.9481  -24.1237 H   0  0  0  0  0  0  0  0  0  0  0  0
    1.9688   26.1132  -23.3534 H   0  0  0  0  0  0  0  0  0  0  0  0
    2.1922   25.2228  -24.8974 H   0  0  0  0  0  0  0  0  0  0  0  0
    1.4041   26.8370  -24.8974 H   0  0  0  0  0  0  0  0  0  0  0  0
  1  2  1  0
  2  3  1  0
  3  4  1  0
  4  5  1  0
  5  6  1  0
  6  7  1  0
  7  8  2  0
  7  9  1  0
  9 10  1  0
 10 11  1  0
 11 12  1  0
 11 13  2  0
 10 14  2  0
 14 15  1  0
 15 16  2  0
 16 17  1  0
 17 18  2  0
 18 19  1  0
 19 20  1  0
 19 21  1  0
 19 22  1  0
 18 23  1  0
 23 24  2  0
  2 25  1  0
 25 26  2  0
 25 27  1  0
 27 28  1  0
 28 29  1  0
 28 30  1  0
 24  9  1  0
 24 15  1  0
  1 31  1  0
  1 32  1  0
  1 33  1  0
  3 34  1  0
  3 35  1  0
  4 36  1  0
  4 37  1  0
  5 38  1  0
  5 39  1  0
  6 40  1  0
  6 41  1  0
 12 42  1  0
 14 43  1  0
 16 44  1  0
 17 45  1  0
 23 46  1  0
 27 47  1  0
 27 48  1  0
 28 49  1  0
 29 50  1  0
 29 51  1  0
 29 52  1  0
 30 53  1  0
 30 54  1  0
 30 55  1  0
M  CHG  2  12  -1  28   1
M  END
>  <UniqueID>  (14) 
14

>  <SMILES>  (14) 
CN(CCCCC(=O)n1c(C([NH-])=O)cc2ccc(C(F)(F)F)cc21)C(=O)C[NH+](C)C

>  <Energy>  (14) 
88.75158336373062

>  <Genealogy>  (14) 
CN(CCCCC(=O)n1c(C([NH-])=O)cc2ccc(C(F)(F)F)cc21)C(=O)C[NH+](C)C (protonated)
CN(CCCCC(=O)n1c(C([NH-])=O)cc2ccc(C(F)(F)F)cc21)C(=O)C[NH+](C)C (3D coordinates assigned)
CN(CCCCC(=O)n1c(C([NH-])=O)cc2ccc(C(F)(F)F)cc21)C(=O)C[NH+](C)C (optimized conformer: 88.75158336373062 kcal/mol)

>  <smiles>  (14) 
CN(C)CC(=O)N(C)CCCCC(=O)n1c(C(N)=O)cc2ccc(C(F)(F)F)cc21

>  <score_type>  (14) 
oracle

>  <origin>  (14) 
adg

>  <m_score__min__energy>  (14) 
-10.81

>  <m_primary>  (14) 
energy

$$$$
15:0
     RDKit          3D

 30 31  0  0  0  0  0  0  0  0999 V2000
   -3.9840   25.6750  -30.8460 N   0  0  0  0  0  0  0  0  0  0  0  0
   -5.1950   25.0340  -30.4510 C   0  0  0  0  0  0  0  0  0  0  0  0
   -5.9900   25.6340  -29.6790 O   0  0  0  0  0  0  0  0  0  0  0  0
   -5.4930   23.6670  -30.9250 C   0  0  0  0  0  0  0  0  0  0  0  0
   -6.6080   23.3370  -31.6960 C   0  0  0  0  0  0  0  0  0  0  0  0
   -6.4660   21.9980  -31.9860 C   0  0  0  0  0  0  0  0  0  0  0  0
   -7.2890   21.1440  -32.7150 C   0  0  0  0  0  0  0  0  0  0  0  0
   -6.9010   19.7990  -32.8350 C   0  0  0  0  0  0  0  0  0  0  0  0
   -5.7070   19.3330  -32.2260 C   0  0  0  0  0  0  0  0  0  0  0  0
   -5.3180   17.8880  -32.3550 C   0  0  0  0  0  0  0  0  0  0  0  0
   -5.6710   17.4210  -33.6090 F   0  0  0  0  0  0  0  0  0  0  0  0
   -5.9670   17.1430  -31.3900 F   0  0  0  0  0  0  0  0  0  0  0  0
   -4.8980   20.2300  -31.4940 C   0  0  0  0  0  0  0  0  0  0  0  0
   -5.3060   21.5630  -31.4010 C   0  0  0  0  0  0  0  0  0  0  0  0
   -4.7030   22.5730  -30.7420 N   0  0  0  0  0  0  0  0  0  0  0  0
   -3.5020   22.4710  -29.9630 C   0  0  0  0  0  0  0  0  0  0  0  0
   -3.5400   21.9270  -28.8270 O   0  0  0  0  0  0  0  0  0  0  0  0
   -2.2330   23.1090  -30.4370 C   0  0  0  0  0  0  0  0  0  0  0  0
   -1.4450   24.0110  -29.0710 P   0  0  0  0  0  0  0  0  0  0  0  0
   -2.0960   23.6290  -27.7620 O   0  0  0  0  0  0  0  0  0  0  0  0
   -1.6100   25.6760  -29.3180 O   0  0  0  0  0  0  0  0  0  0  0  0
    0.1990   23.6150  -29.0160 O   0  0  0  0  0  0  0  0  0  0  0  0
   -3.0570   25.3000  -30.5490 H   0  0  0  0  0  0  0  0  0  0  0  0
   -7.4260   24.0039  -32.0061 H   0  0  0  0  0  0  0  0  0  0  0  0
   -8.2146   21.5110  -33.1827 H   0  0  0  0  0  0  0  0  0  0  0  0
   -7.5291   19.1001  -33.4068 H   0  0  0  0  0  0  0  0  0  0  0  0
   -4.2303   17.7938  -32.2207 H   0  0  0  0  0  0  0  0  0  0  0  0
   -3.9713   19.8881  -31.0100 H   0  0  0  0  0  0  0  0  0  0  0  0
   -1.5478   22.3300  -30.8027 H   0  0  0  0  0  0  0  0  0  0  0  0
   -2.4640   23.8133  -31.2498 H   0  0  0  0  0  0  0  0  0  0  0  0
  1  2  1  0
  2  3  2  0
  2  4  1  0
  4  5  2  0
  5  6  1  0
  6  7  2  0
  7  8  1  0
  8  9  2  0
  9 10  1  0
 10 11  1  0
 10 12  1  0
  9 13  1  0
 13 14  2  0
 14 15  1  0
 15 16  1  0
 16 17  2  0
 16 18  1  0
 18 19  1  0
 19 20  2  0
 19 21  1  0
 19 22  1  0
 15  4  1  0
 14  6  1  0
  1 23  1  0
  5 24  1  0
  7 25  1  0
  8 26  1  0
 10 27  1  0
 13 28  1  0
 18 29  1  0
 18 30  1  0
M  CHG  3   1  -1  21  -1  22  -1
M  END
>  <UniqueID>  (15) 
15

>  <SMILES>  (15) 
[NH-]C(=O)c1cc2ccc(C(F)F)cc2n1C(=O)CP(=O)([O-])[O-]

>  <Energy>  (15) 
64.00761109933573

>  <Genealogy>  (15) 
[NH-]C(=O)c1cc2ccc(C(F)F)cc2n1C(=O)CP(=O)([O-])[O-] (protonated)
[NH-]C(=O)c1cc2ccc(C(F)F)cc2n1C(=O)CP(=O)([O-])[O-] (3D coordinates assigned)
[NH-]C(=O)c1cc2ccc(C(F)F)cc2n1C(=O)CP(=O)([O-])[O-] (optimized conformer: 64.00761109933573 kcal/mol)

>  <smiles>  (15) 
NC(=O)c1cc2ccc(C(F)F)cc2n1C(=O)CP(=O)(O)O

>  <score_type>  (15) 
oracle

>  <origin>  (15) 
adg

>  <m_score__min__energy>  (15) 
-12.31

>  <m_primary>  (15) 
energy

$$$$
16:0
     RDKit          3D

 44 45  0  0  0  0  0  0  0  0999 V2000
   -1.5040   20.2260  -29.9920 C   0  0  0  0  0  0  0  0  0  0  0  0
   -2.6420   21.0690  -29.4110 C   0  0  2  0  0  0  0  0  0  0  0  0
   -3.7660   21.0410  -30.2900 O   0  0  0  0  0  0  0  0  0  0  0  0
   -4.0860   22.0740  -31.1790 C   0  0  0  0  0  0  0  0  0  0  0  0
   -3.2060   22.5470  -31.9500 O   0  0  0  0  0  0  0  0  0  0  0  0
   -5.4240   22.5940  -31.2140 N   0  0  0  0  0  0  0  0  0  0  0  0
   -5.8340   23.8580  -30.9110 C   0  0  0  0  0  0  0  0  0  0  0  0
   -4.9530   25.0090  -30.6320 C   0  0  0  0  0  0  0  0  0  0  0  0
   -3.5350   24.8520  -30.5480 N   0  0  0  0  0  0  0  0  0  0  0  0
   -5.4540   26.1600  -30.5210 O   0  0  0  0  0  0  0  0  0  0  0  0
   -7.2220   23.9470  -30.9440 C   0  0  0  0  0  0  0  0  0  0  0  0
   -7.6580   22.6890  -31.2950 C   0  0  0  0  0  0  0  0  0  0  0  0
   -8.9520   22.2030  -31.4500 C   0  0  0  0  0  0  0  0  0  0  0  0
   -9.1120   20.8450  -31.7740 C   0  0  0  0  0  0  0  0  0  0  0  0
   -7.9830   20.0010  -31.9420 C   0  0  0  0  0  0  0  0  0  0  0  0
   -8.1700   18.5320  -32.2250 C   0  0  0  0  0  0  0  0  0  0  0  0
   -7.5950   17.7670  -31.2260 F   0  0  0  0  0  0  0  0  0  0  0  0
   -9.5220   18.2500  -32.2870 F   0  0  0  0  0  0  0  0  0  0  0  0
   -7.5810   18.1870  -33.4280 F   0  0  0  0  0  0  0  0  0  0  0  0
   -6.6860   20.5290  -31.7490 C   0  0  0  0  0  0  0  0  0  0  0  0
   -6.5540   21.8900  -31.4510 C   0  0  0  0  0  0  0  0  0  0  0  0
   -2.1830   22.4980  -29.2460 C   0  0  0  0  0  0  0  0  0  0  0  0
   -1.4010   22.9740  -30.1160 O   0  0  0  0  0  0  0  0  0  0  0  0
   -2.5570   23.3120  -28.1080 N   0  0  0  0  0  0  0  0  0  0  0  0
   -3.9680   23.3520  -27.7070 C   0  0  0  0  0  0  0  0  0  0  0  0
   -1.5680   24.0680  -27.3230 C   0  0  0  0  0  0  0  0  0  0  0  0
   -0.8600   25.0640  -28.1890 C   0  0  0  0  0  0  0  0  0  0  0  0
    0.3970   25.1140  -28.1990 O   0  0  0  0  0  0  0  0  0  0  0  0
   -1.5910   25.9590  -28.9600 O   0  0  0  0  0  0  0  0  0  0  0  0
   -0.9151   19.7898  -29.1717 H   0  0  0  0  0  0  0  0  0  0  0  0
   -1.9242   19.4195  -30.6109 H   0  0  0  0  0  0  0  0  0  0  0  0
   -0.8549   20.8629  -30.6109 H   0  0  0  0  0  0  0  0  0  0  0  0
   -2.9286   20.6541  -28.4334 H   0  0  0  0  0  0  0  0  0  0  0  0
   -2.9310   25.6710  -30.3090 H   0  0  0  0  0  0  0  0  0  0  0  0
   -3.0760   23.9510  -30.8040 H   0  0  0  0  0  0  0  0  0  0  0  0
   -7.8392   24.8331  -30.7345 H   0  0  0  0  0  0  0  0  0  0  0  0
   -9.8237   22.8617  -31.3228 H   0  0  0  0  0  0  0  0  0  0  0  0
  -10.1236   20.4313  -31.8989 H   0  0  0  0  0  0  0  0  0  0  0  0
   -5.7990   19.8836  -31.8313 H   0  0  0  0  0  0  0  0  0  0  0  0
   -4.0373   23.3540  -26.6092 H   0  0  0  0  0  0  0  0  0  0  0  0
   -4.4368   24.2638  -28.1056 H   0  0  0  0  0  0  0  0  0  0  0  0
   -4.4877   22.4682  -28.1056 H   0  0  0  0  0  0  0  0  0  0  0  0
   -2.0820   24.5982  -26.5077 H   0  0  0  0  0  0  0  0  0  0  0  0
   -0.8283   23.3652  -26.9119 H   0  0  0  0  0  0  0  0  0  0  0  0
  1  2  1  0
  2  3  1  0
  3  4  1  0
  4  5  2  0
  4  6  1  0
  6  7  1  0
  7  8  1  0
  8  9  1  0
  8 10  2  0
  7 11  2  0
 11 12  1  0
 12 13  2  0
 13 14  1  0
 14 15  2  0
 15 16  1  0
 16 17  1  0
 16 18  1  0
 16 19  1  0
 15 20  1  0
 20 21  2  0
  2 22  1  0
 22 23  2  0
 22 24  1  0
 24 25  1  0
 24 26  1  0
 26 27  1  0
 27 28  2  0
 27 29  1  0
 21  6  1  0
 21 12  1  0
  1 30  1  0
  1 31  1  0
  1 32  1  0
  2 33  1  1
  9 34  1  0
  9 35  1  0
 11 36  1  0
 13 37  1  0
 14 38  1  0
 20 39  1  0
 25 40  1  0
 25 41  1  0
 25 42  1  0
 26 43  1  0
 26 44  1  0
M  CHG  1  29  -1
M  END
>  <UniqueID>  (16) 
16

>  <SMILES>  (16) 
C[C@H](OC(=O)n1c(C(N)=O)cc2ccc(C(F)(F)F)cc21)C(=O)N(C)CC(=O)[O-]

>  <Energy>  (16) 
77.86558055185067

>  <Genealogy>  (16) 
CC(OC(=O)n1c(C(N)=O)cc2ccc(C(F)(F)F)cc21)C(=O)N(C)CC(=O)[O-] (protonated)
C[C@H](OC(=O)n1c(C(N)=O)cc2ccc(C(F)(F)F)cc21)C(=O)N(C)CC(=O)[O-] (chirality)
C[C@H](OC(=O)n1c(C(N)=O)cc2ccc(C(F)(F)F)cc21)C(=O)N(C)CC(=O)[O-] (3D coordinates assigned)
C[C@H](OC(=O)n1c(C(N)=O)cc2ccc(C(F)(F)F)cc21)C(=O)N(C)CC(=O)[O-] (optimized conformer: 77.86558055185067 kcal/mol)

>  <smiles>  (16) 
CC(OC(=O)n1c(C(N)=O)cc2ccc(C(F)(F)F)cc21)C(=O)N(C)CC(=O)O

>  <score_type>  (16) 
oracle

>  <origin>  (16) 
adg

>  <m_score__min__energy>  (16) 
-10.550000000000001

>  <m_primary>  (16) 
energy

$$$$
17:0
     RDKit          3D

 46 47  0  0  0  0  0  0  0  0999 V2000
   -6.1080   18.6560  -34.1970 C   0  0  0  0  0  0  0  0  0  0  0  0
   -6.5280   19.6870  -33.1930 C   0  0  0  0  0  0  0  0  0  0  0  0
   -7.8590   19.7020  -32.7120 C   0  0  0  0  0  0  0  0  0  0  0  0
   -8.2690   20.6660  -31.7790 C   0  0  0  0  0  0  0  0  0  0  0  0
   -7.3380   21.6140  -31.3640 C   0  0  0  0  0  0  0  0  0  0  0  0
   -7.4720   22.6470  -30.4680 C   0  0  0  0  0  0  0  0  0  0  0  0
   -6.2380   23.2910  -30.4640 C   0  0  0  0  0  0  0  0  0  0  0  0
   -5.9820   24.5310  -29.7030 C   0  0  0  0  0  0  0  0  0  0  0  0
   -4.7710   24.7170  -28.9690 N   0  0  0  0  0  0  0  0  0  0  0  0
   -6.8210   25.4680  -29.7550 O   0  0  0  0  0  0  0  0  0  0  0  0
   -5.3640   22.6700  -31.3080 N   0  0  0  0  0  0  0  0  0  0  0  0
   -3.9960   23.0330  -31.5720 C   0  0  0  0  0  0  0  0  0  0  0  0
   -3.5300   24.1140  -31.1190 O   0  0  0  0  0  0  0  0  0  0  0  0
   -3.1860   22.1940  -32.3430 O   0  0  0  0  0  0  0  0  0  0  0  0
   -2.0650   21.5010  -31.8020 C   0  0  0  0  0  0  0  0  0  0  0  0
   -2.4870   20.7450  -30.6710 O   0  0  0  0  0  0  0  0  0  0  0  0
   -1.6800   20.5860  -29.5390 C   0  0  0  0  0  0  0  0  0  0  0  0
   -0.9290   19.5790  -29.4230 O   0  0  0  0  0  0  0  0  0  0  0  0
   -1.7140   21.6190  -28.4550 C   0  0  0  0  0  0  0  0  0  0  0  0
   -2.2880   22.8670  -28.9520 N   0  0  0  0  0  0  0  0  0  0  0  0
   -1.6000   24.1190  -28.9210 C   0  0  0  0  0  0  0  0  0  0  0  0
   -0.4190   24.2010  -29.3490 O   0  0  0  0  0  0  0  0  0  0  0  0
   -2.2400   25.2440  -28.3980 O   0  0  0  0  0  0  0  0  0  0  0  0
   -1.9650   25.7420  -27.0910 C   0  0  0  0  0  0  0  0  0  0  0  0
   -3.0570   25.2980  -26.1270 C   0  0  0  0  0  0  0  0  0  0  0  0
   -3.8950   24.3690  -26.7570 O   0  0  0  0  0  0  0  0  0  0  0  0
   -6.0560   21.6430  -31.8560 C   0  0  0  0  0  0  0  0  0  0  0  0
   -5.6150   20.6790  -32.7710 C   0  0  0  0  0  0  0  0  0  0  0  0
   -5.7432   17.7606  -33.6724 H   0  0  0  0  0  0  0  0  0  0  0  0
   -6.9681   18.3866  -34.8276 H   0  0  0  0  0  0  0  0  0  0  0  0
   -5.3045   19.0643  -34.8276 H   0  0  0  0  0  0  0  0  0  0  0  0
   -8.5779   18.9516  -33.0727 H   0  0  0  0  0  0  0  0  0  0  0  0
   -9.2966   20.6726  -31.3866 H   0  0  0  0  0  0  0  0  0  0  0  0
   -8.3637   22.9090  -29.8797 H   0  0  0  0  0  0  0  0  0  0  0  0
   -4.5990   25.6120  -28.4600 H   0  0  0  0  0  0  0  0  0  0  0  0
   -4.0050   24.0110  -28.9990 H   0  0  0  0  0  0  0  0  0  0  0  0
   -1.6478   20.8246  -32.5625 H   0  0  0  0  0  0  0  0  0  0  0  0
   -1.2934   22.2237  -31.4982 H   0  0  0  0  0  0  0  0  0  0  0  0
   -2.3259   21.2469  -27.6201 H   0  0  0  0  0  0  0  0  0  0  0  0
   -0.6853   21.8118  -28.1164 H   0  0  0  0  0  0  0  0  0  0  0  0
   -0.9953   25.3517  -26.7485 H   0  0  0  0  0  0  0  0  0  0  0  0
   -1.9336   26.8411  -27.1214 H   0  0  0  0  0  0  0  0  0  0  0  0
   -2.5969   24.8340  -25.2422 H   0  0  0  0  0  0  0  0  0  0  0  0
   -3.6492   26.1727  -25.8201 H   0  0  0  0  0  0  0  0  0  0  0  0
   -3.3380   23.9270  -27.4490 H   0  0  0  0  0  0  0  0  0  0  0  0
   -4.5831   20.6938  -33.1518 H   0  0  0  0  0  0  0  0  0  0  0  0
  1  2  1  0
  2  3  2  0
  3  4  1  0
  4  5  2  0
  5  6  1  0
  6  7  2  0
  7  8  1  0
  8  9  1  0
  8 10  2  0
  7 11  1  0
 11 12  1  0
 12 13  2  0
 12 14  1  0
 14 15  1  0
 15 16  1  0
 16 17  1  0
 17 18  2  0
 17 19  1  0
 19 20  1  0
 20 21  1  0
 21 22  2  0
 21 23  1  0
 23 24  1  0
 24 25  1  0
 25 26  1  0
 11 27  1  0
 27 28  2  0
 28  2  1  0
 27  5  1  0
  1 29  1  0
  1 30  1  0
  1 31  1  0
  3 32  1  0
  4 33  1  0
  6 34  1  0
  9 35  1  0
  9 36  1  0
 15 37  1  0
 15 38  1  0
 19 39  1  0
 19 40  1  0
 24 41  1  0
 24 42  1  0
 25 43  1  0
 25 44  1  0
 26 45  1  0
 28 46  1  0
M  CHG  1  20  -1
M  END
>  <UniqueID>  (17) 
17

>  <SMILES>  (17) 
Cc1ccc2cc(C(N)=O)n(C(=O)OCOC(=O)C[N-]C(=O)OCCO)c2c1

>  <Energy>  (17) 
72.72080732441678

>  <Genealogy>  (17) 
Cc1ccc2cc(C(N)=O)n(C(=O)OCOC(=O)C[N-]C(=O)OCCO)c2c1 (protonated)
Cc1ccc2cc(C(N)=O)n(C(=O)OCOC(=O)C[N-]C(=O)OCCO)c2c1 (3D coordinates assigned)
Cc1ccc2cc(C(N)=O)n(C(=O)OCOC(=O)C[N-]C(=O)OCCO)c2c1 (optimized conformer: 72.72080732441678 kcal/mol)

>  <smiles>  (17) 
Cc1ccc2cc(C(N)=O)n(C(=O)OCOC(=O)CNC(=O)OCCO)c2c1

>  <score_type>  (17) 
oracle

>  <origin>  (17) 
adg

>  <m_score__min__energy>  (17) 
-8.9499999999999993

>  <m_primary>  (17) 
energy

$$$$
18:0
     RDKit          3D

 40 41  0  0  0  0  0  0  0  0999 V2000
   -2.4430   22.1410  -27.4950 C   0  0  0  0  0  0  0  0  0  0  0  0
   -2.7300   23.5790  -27.4740 N   0  0  0  0  0  0  0  0  0  0  0  0
   -1.6430   24.5370  -27.2150 C   0  0  0  0  0  0  0  0  0  0  0  0
   -0.9900   24.9490  -28.4950 C   0  0  0  0  0  0  0  0  0  0  0  0
   -1.6090   25.6740  -29.3170 O   0  0  0  0  0  0  0  0  0  0  0  0
    0.2980   24.5200  -28.7910 O   0  0  0  0  0  0  0  0  0  0  0  0
   -4.0820   24.0180  -27.7390 C   0  0  0  0  0  0  0  0  0  0  0  0
   -4.5680   24.9630  -27.0590 O   0  0  0  0  0  0  0  0  0  0  0  0
   -4.9290   23.3610  -28.8060 C   0  0  0  0  0  0  0  0  0  0  0  0
   -4.3720   23.5400  -30.1910 C   0  0  0  0  0  0  0  0  0  0  0  0
   -3.9030   24.6610  -30.5270 O   0  0  0  0  0  0  0  0  0  0  0  0
   -4.4340   22.4790  -31.1610 N   0  0  0  0  0  0  0  0  0  0  0  0
   -3.3840   21.7730  -31.6660 C   0  0  0  0  0  0  0  0  0  0  0  0
   -1.9540   22.0600  -31.4290 C   0  0  0  0  0  0  0  0  0  0  0  0
   -1.5430   23.0560  -30.4900 N   0  0  0  0  0  0  0  0  0  0  0  0
   -1.0820   21.4520  -32.1040 O   0  0  0  0  0  0  0  0  0  0  0  0
   -3.8330   20.7300  -32.4720 C   0  0  0  0  0  0  0  0  0  0  0  0
   -5.2050   20.8230  -32.4530 C   0  0  0  0  0  0  0  0  0  0  0  0
   -6.1610   20.0260  -33.0750 C   0  0  0  0  0  0  0  0  0  0  0  0
   -7.5160   20.3240  -32.8490 C   0  0  0  0  0  0  0  0  0  0  0  0
   -7.8890   21.3860  -31.9850 C   0  0  0  0  0  0  0  0  0  0  0  0
   -9.3460   21.7170  -31.7790 C   0  0  0  0  0  0  0  0  0  0  0  0
   -9.6120   22.9580  -32.3260 F   0  0  0  0  0  0  0  0  0  0  0  0
   -9.6570   21.7430  -30.4310 F   0  0  0  0  0  0  0  0  0  0  0  0
  -10.1510   20.7720  -32.3910 F   0  0  0  0  0  0  0  0  0  0  0  0
   -6.8870   22.1830  -31.3880 C   0  0  0  0  0  0  0  0  0  0  0  0
   -5.5450   21.8810  -31.6500 C   0  0  0  0  0  0  0  0  0  0  0  0
   -2.3683   21.7669  -26.4633 H   0  0  0  0  0  0  0  0  0  0  0  0
   -3.2535   21.6130  -28.0187 H   0  0  0  0  0  0  0  0  0  0  0  0
   -1.4919   21.9645  -28.0187 H   0  0  0  0  0  0  0  0  0  0  0  0
   -2.0560   25.4266  -26.7169 H   0  0  0  0  0  0  0  0  0  0  0  0
   -0.8915   24.0559  -26.5718 H   0  0  0  0  0  0  0  0  0  0  0  0
   -4.9919   22.2843  -28.5899 H   0  0  0  0  0  0  0  0  0  0  0  0
   -5.9177   23.8426  -28.7842 H   0  0  0  0  0  0  0  0  0  0  0  0
   -0.5280   23.2070  -30.3030 H   0  0  0  0  0  0  0  0  0  0  0  0
   -2.2310   23.7130  -30.0640 H   0  0  0  0  0  0  0  0  0  0  0  0
   -3.2213   19.9901  -33.0089 H   0  0  0  0  0  0  0  0  0  0  0  0
   -5.8655   19.1883  -33.7238 H   0  0  0  0  0  0  0  0  0  0  0  0
   -8.2950   19.7280  -33.3469 H   0  0  0  0  0  0  0  0  0  0  0  0
   -7.1554   23.0234  -30.7310 H   0  0  0  0  0  0  0  0  0  0  0  0
  1  2  1  0
  2  3  1  0
  3  4  1  0
  4  5  2  0
  4  6  1  0
  2  7  1  0
  7  8  2  0
  7  9  1  0
  9 10  1  0
 10 11  2  0
 10 12  1  0
 12 13  1  0
 13 14  1  0
 14 15  1  0
 14 16  2  0
 13 17  2  0
 17 18  1  0
 18 19  2  0
 19 20  1  0
 20 21  2  0
 21 22  1  0
 22 23  1  0
 22 24  1  0
 22 25  1  0
 21 26  1  0
 26 27  2  0
 27 12  1  0
 27 18  1  0
  1 28  1  0
  1 29  1  0
  1 30  1  0
  3 31  1  0
  3 32  1  0
  9 33  1  0
  9 34  1  0
 15 35  1  0
 15 36  1  0
 17 37  1  0
 19 38  1  0
 20 39  1  0
 26 40  1  0
M  CHG  1   6  -1
M  END
>  <UniqueID>  (18) 
18

>  <SMILES>  (18) 
CN(CC(=O)[O-])C(=O)CC(=O)n1c(C(N)=O)cc2ccc(C(F)(F)F)cc21

>  <Energy>  (18) 
78.65128595030991

>  <Genealogy>  (18) 
CN(CC(=O)[O-])C(=O)CC(=O)n1c(C(N)=O)cc2ccc(C(F)(F)F)cc21 (protonated)
CN(CC(=O)[O-])C(=O)CC(=O)n1c(C(N)=O)cc2ccc(C(F)(F)F)cc21 (3D coordinates assigned)
CN(CC(=O)[O-])C(=O)CC(=O)n1c(C(N)=O)cc2ccc(C(F)(F)F)cc21 (optimized conformer: 78.65128595030991 kcal/mol)

>  <smiles>  (18) 
CN(CC(=O)O)C(=O)CC(=O)n1c(C(N)=O)cc2ccc(C(F)(F)F)cc21

>  <score_type>  (18) 
oracle

>  <origin>  (18) 
adg

>  <m_score__min__energy>  (18) 
-10.539999999999999

>  <m_primary>  (18) 
energy

$$$$
19:0
     RDKit          3D

 40 42  0  0  0  0  0  0  0  0999 V2000
   -4.0450   25.6760  -30.8430 N   0  0  0  0  0  0  0  0  0  0  0  0
   -5.2810   25.0750  -30.4660 C   0  0  0  0  0  0  0  0  0  0  0  0
   -6.0790   25.7150  -29.7310 O   0  0  0  0  0  0  0  0  0  0  0  0
   -5.6610   23.7380  -30.9690 C   0  0  0  0  0  0  0  0  0  0  0  0
   -6.9590   23.4010  -31.3440 C   0  0  0  0  0  0  0  0  0  0  0  0
   -6.8750   22.1180  -31.8350 C   0  0  0  0  0  0  0  0  0  0  0  0
   -7.8660   21.2900  -32.3430 C   0  0  0  0  0  0  0  0  0  0  0  0
   -7.5020   20.0000  -32.7590 C   0  0  0  0  0  0  0  0  0  0  0  0
   -6.1540   19.5370  -32.6550 C   0  0  0  0  0  0  0  0  0  0  0  0
   -5.7870   18.1880  -33.0810 N   0  0  0  0  0  0  0  0  0  0  0  0
   -4.3630   17.8670  -33.3210 C   0  0  0  0  0  0  0  0  0  0  0  0
   -4.1180   16.4020  -33.6930 C   0  0  0  0  0  0  0  0  0  0  0  0
   -5.1430   15.9130  -34.5240 O   0  0  0  0  0  0  0  0  0  0  0  0
   -6.3230   15.8230  -33.7640 C   0  0  0  0  0  0  0  0  0  0  0  0
   -6.8530   17.2160  -33.4060 C   0  0  0  0  0  0  0  0  0  0  0  0
   -5.1790   20.4310  -32.1310 C   0  0  0  0  0  0  0  0  0  0  0  0
   -5.5700   21.7180  -31.7440 C   0  0  0  0  0  0  0  0  0  0  0  0
   -4.8110   22.7000  -31.2110 N   0  0  0  0  0  0  0  0  0  0  0  0
   -3.4120   22.6170  -30.8990 C   0  0  0  0  0  0  0  0  0  0  0  0
   -2.6440   21.9330  -31.6300 O   0  0  0  0  0  0  0  0  0  0  0  0
   -2.9040   23.3160  -29.7970 O   0  0  0  0  0  0  0  0  0  0  0  0
   -1.5820   23.1330  -29.2970 C   0  0  0  0  0  0  0  0  0  0  0  0
   -0.9320   24.4560  -29.0490 C   0  0  0  0  0  0  0  0  0  0  0  0
    0.2500   24.5080  -28.6150 O   0  0  0  0  0  0  0  0  0  0  0  0
   -1.6160   25.6330  -29.3250 O   0  0  0  0  0  0  0  0  0  0  0  0
   -3.1350   25.2880  -30.5080 H   0  0  0  0  0  0  0  0  0  0  0  0
   -7.8600   24.0271  -31.2647 H   0  0  0  0  0  0  0  0  0  0  0  0
   -8.9078   21.6351  -32.4175 H   0  0  0  0  0  0  0  0  0  0  0  0
   -8.2705   19.3312  -33.1739 H   0  0  0  0  0  0  0  0  0  0  0  0
   -3.9978   18.5001  -34.1431 H   0  0  0  0  0  0  0  0  0  0  0  0
   -3.8274   18.0539  -32.3786 H   0  0  0  0  0  0  0  0  0  0  0  0
   -3.1570   16.3214  -34.2222 H   0  0  0  0  0  0  0  0  0  0  0  0
   -4.1015   15.8047  -32.7695 H   0  0  0  0  0  0  0  0  0  0  0  0
   -7.0862   15.2865  -34.3468 H   0  0  0  0  0  0  0  0  0  0  0  0
   -6.0995   15.2828  -32.8322 H   0  0  0  0  0  0  0  0  0  0  0  0
   -7.4258   17.6011  -34.2625 H   0  0  0  0  0  0  0  0  0  0  0  0
   -7.4738   17.1038  -32.5049 H   0  0  0  0  0  0  0  0  0  0  0  0
   -4.1303   20.1144  -32.0312 H   0  0  0  0  0  0  0  0  0  0  0  0
   -1.6259   22.5681  -28.3542 H   0  0  0  0  0  0  0  0  0  0  0  0
   -0.9918   22.5790  -30.0419 H   0  0  0  0  0  0  0  0  0  0  0  0
  1  2  1  0
  2  3  2  0
  2  4  1  0
  4  5  2  0
  5  6  1  0
  6  7  2  0
  7  8  1  0
  8  9  2  0
  9 10  1  0
 10 11  1  0
 11 12  1  0
 12 13  1  0
 13 14  1  0
 14 15  1  0
  9 16  1  0
 16 17  2  0
 17 18  1  0
 18 19  1  0
 19 20  2  0
 19 21  1  0
 21 22  1  0
 22 23  1  0
 23 24  2  0
 23 25  1  0
 18  4  1  0
 17  6  1  0
 15 10  1  0
  1 26  1  0
  5 27  1  0
  7 28  1  0
  8 29  1  0
 11 30  1  0
 11 31  1  0
 12 32  1  0
 12 33  1  0
 14 34  1  0
 14 35  1  0
 15 36  1  0
 15 37  1  0
 16 38  1  0
 22 39  1  0
 22 40  1  0
M  CHG  2   1  -1  25  -1
M  END
>  <UniqueID>  (19) 
19

>  <SMILES>  (19) 
[NH-]C(=O)c1cc2ccc(N3CCOCC3)cc2n1C(=O)OCC(=O)[O-]

>  <Energy>  (19) 
86.15991527732649

>  <Genealogy>  (19) 
[NH-]C(=O)c1cc2ccc(N3CCOCC3)cc2n1C(=O)OCC(=O)[O-] (protonated)
[NH-]C(=O)c1cc2ccc(N3CCOCC3)cc2n1C(=O)OCC(=O)[O-] (3D coordinates assigned)
[NH-]C(=O)c1cc2ccc(N3CCOCC3)cc2n1C(=O)OCC(=O)[O-] (nonaromatic ring conformer: 86.15991527732649 kcal/mol)

>  <smiles>  (19) 
NC(=O)c1cc2ccc(N3CCOCC3)cc2n1C(=O)OCC(=O)O

>  <score_type>  (19) 
oracle

>  <origin>  (19) 
adg

>  <m_score__min__energy>  (19) 
-12.69

>  <m_primary>  (19) 
energy

$$$$
20:0
     RDKit          3D

 36 38  0  0  0  0  0  0  0  0999 V2000
   -1.9470   21.1580  -27.0850 C   0  0  0  0  0  0  0  0  0  0  0  0
   -1.8600   22.2650  -28.0840 C   0  0  0  0  0  0  0  0  0  0  0  0
   -1.6730   23.5280  -27.7820 O   0  0  0  0  0  0  0  0  0  0  0  0
   -1.6540   24.1710  -28.9270 C   0  0  0  0  0  0  0  0  0  0  0  0
   -1.4940   25.4160  -29.0260 O   0  0  0  0  0  0  0  0  0  0  0  0
   -1.8210   23.3750  -29.9580 O   0  0  0  0  0  0  0  0  0  0  0  0
   -1.9530   22.1660  -29.4610 C   0  0  0  0  0  0  0  0  0  0  0  0
   -2.1620   20.9320  -30.2830 C   0  0  0  0  0  0  0  0  0  0  0  0
   -3.4730   20.9300  -30.8430 O   0  0  0  0  0  0  0  0  0  0  0  0
   -4.0280   22.0340  -31.5000 C   0  0  0  0  0  0  0  0  0  0  0  0
   -3.3610   22.6620  -32.3670 O   0  0  0  0  0  0  0  0  0  0  0  0
   -5.3540   22.4710  -31.1630 N   0  0  0  0  0  0  0  0  0  0  0  0
   -5.7180   23.6290  -30.5440 C   0  0  0  0  0  0  0  0  0  0  0  0
   -4.7980   24.6190  -29.9470 C   0  0  0  0  0  0  0  0  0  0  0  0
   -3.8610   25.3060  -30.7720 N   0  0  0  0  0  0  0  0  0  0  0  0
   -4.8550   24.8920  -28.7180 O   0  0  0  0  0  0  0  0  0  0  0  0
   -7.1060   23.7290  -30.4720 C   0  0  0  0  0  0  0  0  0  0  0  0
   -7.5860   22.5840  -31.0660 C   0  0  0  0  0  0  0  0  0  0  0  0
   -8.8970   22.1680  -31.2800 C   0  0  0  0  0  0  0  0  0  0  0  0
   -9.1000   20.9490  -31.9490 C   0  0  0  0  0  0  0  0  0  0  0  0
   -7.9980   20.1800  -32.3930 C   0  0  0  0  0  0  0  0  0  0  0  0
   -8.2180   18.9470  -33.0840 N   0  0  0  0  0  0  0  0  0  0  0  0
   -6.6820   20.6320  -32.1600 C   0  0  0  0  0  0  0  0  0  0  0  0
   -6.5080   21.8400  -31.4750 C   0  0  0  0  0  0  0  0  0  0  0  0
   -1.9140   21.5778  -26.0688 H   0  0  0  0  0  0  0  0  0  0  0  0
   -2.8909   20.6109  -27.2253 H   0  0  0  0  0  0  0  0  0  0  0  0
   -1.1001   20.4701  -27.2253 H   0  0  0  0  0  0  0  0  0  0  0  0
   -1.4201   20.9061  -31.0947 H   0  0  0  0  0  0  0  0  0  0  0  0
   -2.0452   20.0477  -29.6393 H   0  0  0  0  0  0  0  0  0  0  0  0
   -2.8360   25.2510  -30.5810 H   0  0  0  0  0  0  0  0  0  0  0  0
   -7.6935   24.5491  -30.0334 H   0  0  0  0  0  0  0  0  0  0  0  0
   -9.7477   22.7746  -30.9361 H   0  0  0  0  0  0  0  0  0  0  0  0
  -10.1239   20.5895  -32.1291 H   0  0  0  0  0  0  0  0  0  0  0  0
   -9.0480   18.8240  -33.7050 H   0  0  0  0  0  0  0  0  0  0  0  0
   -7.5500   18.1500  -32.9810 H   0  0  0  0  0  0  0  0  0  0  0  0
   -5.8155   20.0503  -32.5076 H   0  0  0  0  0  0  0  0  0  0  0  0
  1  2  1  0
  2  3  1  0
  3  4  1  0
  4  5  2  0
  4  6  1  0
  6  7  1  0
  7  8  1  0
  8  9  1  0
  9 10  1  0
 10 11  2  0
 10 12  1  0
 12 13  1  0
 13 14  1  0
 14 15  1  0
 14 16  2  0
 13 17  2  0
 17 18  1  0
 18 19  2  0
 19 20  1  0
 20 21  2  0
 21 22  1  0
 21 23  1  0
 23 24  2  0
  7  2  2  0
 24 12  1  0
 24 18  1  0
  1 25  1  0
  1 26  1  0
  1 27  1  0
  8 28  1  0
  8 29  1  0
 15 30  1  0
 17 31  1  0
 19 32  1  0
 20 33  1  0
 22 34  1  0
 22 35  1  0
 23 36  1  0
M  CHG  1  15  -1
M  END
>  <UniqueID>  (20) 
20

>  <SMILES>  (20) 
Cc1oc(=O)oc1COC(=O)n1c(C([NH-])=O)cc2ccc(N)cc21

>  <Energy>  (20) 
105.87985556537478

>  <Genealogy>  (20) 
Cc1oc(=O)oc1COC(=O)n1c(C([NH-])=O)cc2ccc(N)cc21 (protonated)
Cc1oc(=O)oc1COC(=O)n1c(C([NH-])=O)cc2ccc(N)cc21 (3D coordinates assigned)
Cc1oc(=O)oc1COC(=O)n1c(C([NH-])=O)cc2ccc(N)cc21 (optimized conformer: 105.87985556537478 kcal/mol)

>  <smiles>  (20) 
Cc1oc(=O)oc1COC(=O)n1c(C(N)=O)cc2ccc(N)cc21

>  <score_type>  (20) 
oracle

>  <origin>  (20) 
adg

>  <m_score__min__energy>  (20) 
-10.1

>  <m_primary>  (20) 
energy

$$$$
21:0
     RDKit          3D

 37 38  0  0  0  0  0  0  0  0999 V2000
   -5.6020   23.7710  -30.2570 N   0  0  0  0  0  0  0  0  0  0  0  0
   -6.7470   23.2300  -30.9180 C   0  0  0  0  0  0  0  0  0  0  0  0
   -7.7370   23.9760  -31.1460 O   0  0  0  0  0  0  0  0  0  0  0  0
   -6.7640   21.8350  -31.3970 C   0  0  0  0  0  0  0  0  0  0  0  0
   -7.8760   21.0050  -31.2880 C   0  0  0  0  0  0  0  0  0  0  0  0
   -7.5160   19.8320  -31.9110 C   0  0  0  0  0  0  0  0  0  0  0  0
   -8.2350   18.6540  -32.0770 C   0  0  0  0  0  0  0  0  0  0  0  0
   -7.6020   17.5820  -32.7270 C   0  0  0  0  0  0  0  0  0  0  0  0
   -6.2720   17.7070  -33.2060 C   0  0  0  0  0  0  0  0  0  0  0  0
   -5.5800   16.5300  -33.8460 C   0  0  0  0  0  0  0  0  0  0  0  0
   -6.5030   15.5740  -34.2370 F   0  0  0  0  0  0  0  0  0  0  0  0
   -4.7060   15.9670  -32.9360 F   0  0  0  0  0  0  0  0  0  0  0  0
   -4.8720   16.9300  -34.9660 F   0  0  0  0  0  0  0  0  0  0  0  0
   -5.5670   18.9140  -32.9930 C   0  0  0  0  0  0  0  0  0  0  0  0
   -6.2270   19.9730  -32.3590 C   0  0  0  0  0  0  0  0  0  0  0  0
   -5.7460   21.1980  -32.0440 N   0  0  0  0  0  0  0  0  0  0  0  0
   -4.4060   21.6810  -32.2480 C   0  0  0  0  0  0  0  0  0  0  0  0
   -4.1900   22.9220  -32.3290 O   0  0  0  0  0  0  0  0  0  0  0  0
   -3.3430   20.7790  -32.3570 O   0  0  0  0  0  0  0  0  0  0  0  0
   -2.2590   20.7530  -31.4340 C   0  0  0  0  0  0  0  0  0  0  0  0
   -2.7500   20.5400  -30.1300 O   0  0  0  0  0  0  0  0  0  0  0  0
   -2.8200   22.0330  -29.3080 P   0  0  2  0  0  0  0  0  0  0  0  0
   -1.7350   22.0500  -28.2560 O   0  0  0  0  0  0  0  0  0  0  0  0
   -4.3270   22.2060  -28.5550 O   0  0  0  0  0  0  0  0  0  0  0  0
   -2.5470   23.2850  -30.4310 O   0  0  0  0  0  0  0  0  0  0  0  0
   -2.9840   24.7530  -29.6890 P   0  0  0  0  0  0  0  0  0  0  0  0
   -3.8510   24.4850  -28.4800 O   0  0  0  0  0  0  0  0  0  0  0  0
   -1.6170   25.6360  -29.2250 O   0  0  0  0  0  0  0  0  0  0  0  0
   -3.8700   25.6740  -30.7980 O   0  0  0  0  0  0  0  0  0  0  0  0
   -5.6200   24.7490  -29.8930 H   0  0  0  0  0  0  0  0  0  0  0  0
   -4.7100   23.2330  -30.1990 H   0  0  0  0  0  0  0  0  0  0  0  0
   -8.8374   21.2372  -30.8066 H   0  0  0  0  0  0  0  0  0  0  0  0
   -9.2682   18.5642  -31.7104 H   0  0  0  0  0  0  0  0  0  0  0  0
   -8.1433   16.6346  -32.8664 H   0  0  0  0  0  0  0  0  0  0  0  0
   -4.5216   19.0186  -33.3188 H   0  0  0  0  0  0  0  0  0  0  0  0
   -1.5696   19.9390  -31.7026 H   0  0  0  0  0  0  0  0  0  0  0  0
   -1.7268   21.7150  -31.4701 H   0  0  0  0  0  0  0  0  0  0  0  0
  1  2  1  0
  2  3  2  0
  2  4  1  0
  4  5  2  0
  5  6  1  0
  6  7  2  0
  7  8  1  0
  8  9  2  0
  9 10  1  0
 10 11  1  0
 10 12  1  0
 10 13  1  0
  9 14  1  0
 14 15  2  0
 15 16  1  0
 16 17  1  0
 17 18  2  0
 17 19  1  0
 19 20  1  0
 20 21  1  0
 21 22  1  0
 22 23  2  0
 22 24  1  1
 22 25  1  0
 25 26  1  0
 26 27  2  0
 26 28  1  0
 26 29  1  0
 16  4  1  0
 15  6  1  0
  1 30  1  0
  1 31  1  0
  5 32  1  0
  7 33  1  0
  8 34  1  0
 14 35  1  0
 20 36  1  0
 20 37  1  0
M  CHG  3  24  -1  28  -1  29  -1
M  END
>  <UniqueID>  (21) 
21

>  <SMILES>  (21) 
NC(=O)c1cc2ccc(C(F)(F)F)cc2n1C(=O)OCO[P@](=O)([O-])OP(=O)([O-])[O-]

>  <Energy>  (21) 
73.47429363429188

>  <Genealogy>  (21) 
NC(=O)c1cc2ccc(C(F)(F)F)cc2n1C(=O)OCOP(=O)([O-])OP(=O)([O-])[O-] (protonated)
NC(=O)c1cc2ccc(C(F)(F)F)cc2n1C(=O)OCO[P@](=O)([O-])OP(=O)([O-])[O-] (chirality)
NC(=O)c1cc2ccc(C(F)(F)F)cc2n1C(=O)OCO[P@](=O)([O-])OP(=O)([O-])[O-] (3D coordinates assigned)
NC(=O)c1cc2ccc(C(F)(F)F)cc2n1C(=O)OCO[P@](=O)([O-])OP(=O)([O-])[O-] (optimized conformer: 73.47429363429188 kcal/mol)

>  <smiles>  (21) 
NC(=O)c1cc2ccc(C(F)(F)F)cc2n1C(=O)OCOP(=O)(O)OP(=O)(O)O

>  <score_type>  (21) 
oracle

>  <origin>  (21) 
adg

>  <m_score__min__energy>  (21) 
-12.67

>  <m_primary>  (21) 
energy

$$$$
22:0
     RDKit          3D

 60 62  0  0  0  0  0  0  0  0999 V2000
   -1.1330   20.2510  -28.6900 C   0  0  0  0  0  0  0  0  0  0  0  0
   -2.2750   20.4470  -29.5230 O   0  0  0  0  0  0  0  0  0  0  0  0
   -2.2460   20.4910  -30.9280 C   0  0  0  0  0  0  0  0  0  0  0  0
   -1.5910   19.4950  -31.6810 C   0  0  0  0  0  0  0  0  0  0  0  0
   -1.6130   19.5170  -33.0830 C   0  0  0  0  0  0  0  0  0  0  0  0
   -0.9930   18.4430  -33.8150 N   0  0  0  0  0  0  0  0  0  0  0  0
   -0.6030   18.5320  -35.2230 C   0  0  0  0  0  0  0  0  0  0  0  0
    0.7290   19.2710  -35.3930 C   0  0  0  0  0  0  0  0  0  0  0  0
    1.6160   18.9890  -34.2690 N   0  0  0  0  0  0  0  0  0  0  0  0
    1.6290   19.7790  -33.0780 C   0  0  0  0  0  0  0  0  0  0  0  0
    1.0810   20.9160  -33.0620 O   0  0  0  0  0  0  0  0  0  0  0  0
    2.2700   19.2840  -31.9370 O   0  0  0  0  0  0  0  0  0  0  0  0
    1.5900   19.0780  -30.7040 C   0  0  0  0  0  0  0  0  0  0  0  0
    1.5590   17.5860  -30.3660 C   0  0  0  0  0  0  0  0  0  0  0  0
    0.4650   16.8500  -31.1460 C   0  0  0  0  0  0  0  0  0  0  0  0
    0.8560   16.6830  -32.4850 O   0  0  0  0  0  0  0  0  0  0  0  0
   -2.2470   20.5820  -33.7410 C   0  0  0  0  0  0  0  0  0  0  0  0
   -2.8850   21.5830  -33.0080 C   0  0  0  0  0  0  0  0  0  0  0  0
   -2.9090   21.5410  -31.6030 C   0  0  0  0  0  0  0  0  0  0  0  0
   -3.6470   22.5920  -30.8570 C   0  0  0  0  0  0  0  0  0  0  0  0
   -3.0470   23.2920  -29.9960 O   0  0  0  0  0  0  0  0  0  0  0  0
   -5.0450   22.8300  -31.1020 N   0  0  0  0  0  0  0  0  0  0  0  0
   -5.7450   23.9730  -30.8590 C   0  0  0  0  0  0  0  0  0  0  0  0
   -5.1710   25.2690  -30.4330 C   0  0  0  0  0  0  0  0  0  0  0  0
   -3.8630   25.6560  -30.8470 N   0  0  0  0  0  0  0  0  0  0  0  0
   -5.8550   26.0590  -29.7230 O   0  0  0  0  0  0  0  0  0  0  0  0
   -7.0980   23.7840  -31.1320 C   0  0  0  0  0  0  0  0  0  0  0  0
   -7.2050   22.4770  -31.5580 C   0  0  0  0  0  0  0  0  0  0  0  0
   -8.3200   21.7570  -31.9770 C   0  0  0  0  0  0  0  0  0  0  0  0
   -8.1350   20.4160  -32.3590 C   0  0  0  0  0  0  0  0  0  0  0  0
   -6.8530   19.8100  -32.2860 C   0  0  0  0  0  0  0  0  0  0  0  0
   -6.6470   18.3870  -32.7480 C   0  0  0  0  0  0  0  0  0  0  0  0
   -6.4320   18.3840  -34.1160 F   0  0  0  0  0  0  0  0  0  0  0  0
   -7.7560   17.6040  -32.4620 F   0  0  0  0  0  0  0  0  0  0  0  0
   -5.5460   17.8290  -32.1140 F   0  0  0  0  0  0  0  0  0  0  0  0
   -5.7450   20.5790  -31.8660 C   0  0  0  0  0  0  0  0  0  0  0  0
   -5.9540   21.9210  -31.5220 C   0  0  0  0  0  0  0  0  0  0  0  0
   -1.4362   20.3030  -27.6339 H   0  0  0  0  0  0  0  0  0  0  0  0
   -0.6932   19.2642  -28.8970 H   0  0  0  0  0  0  0  0  0  0  0  0
   -0.3893   21.0346  -28.8970 H   0  0  0  0  0  0  0  0  0  0  0  0
   -1.0543   18.6881  -31.1606 H   0  0  0  0  0  0  0  0  0  0  0  0
   -0.9340   17.5030  -33.3610 H   0  0  0  0  0  0  0  0  0  0  0  0
   -0.5019   17.5153  -35.6305 H   0  0  0  0  0  0  0  0  0  0  0  0
   -1.3802   19.0948  -35.7608 H   0  0  0  0  0  0  0  0  0  0  0  0
    1.2099   18.9408  -36.3256 H   0  0  0  0  0  0  0  0  0  0  0  0
    0.5339   20.3529  -35.4300 H   0  0  0  0  0  0  0  0  0  0  0  0
    2.1136   19.6219  -29.9040 H   0  0  0  0  0  0  0  0  0  0  0  0
    0.5584   19.4491  -30.7943 H   0  0  0  0  0  0  0  0  0  0  0  0
    2.5344   17.1435  -30.6167 H   0  0  0  0  0  0  0  0  0  0  0  0
    1.3429   17.4824  -29.2924 H   0  0  0  0  0  0  0  0  0  0  0  0
    0.2949   15.8631  -30.6909 H   0  0  0  0  0  0  0  0  0  0  0  0
   -0.4614   17.4422  -31.1126 H   0  0  0  0  0  0  0  0  0  0  0  0
    1.3490   17.5060  -32.7430 H   0  0  0  0  0  0  0  0  0  0  0  0
   -2.2409   20.6278  -34.8400 H   0  0  0  0  0  0  0  0  0  0  0  0
   -3.3749   22.4147  -33.5355 H   0  0  0  0  0  0  0  0  0  0  0  0
   -3.0140   25.2990  -30.3520 H   0  0  0  0  0  0  0  0  0  0  0  0
   -7.9084   24.5207  -31.0295 H   0  0  0  0  0  0  0  0  0  0  0  0
   -9.3160   22.2227  -32.0085 H   0  0  0  0  0  0  0  0  0  0  0  0
   -8.9936   19.8299  -32.7185 H   0  0  0  0  0  0  0  0  0  0  0  0
   -4.7405   20.1341  -31.8103 H   0  0  0  0  0  0  0  0  0  0  0  0
  1  2  1  0
  2  3  1  0
  3  4  2  0
  4  5  1  0
  5  6  1  0
  6  7  1  0
  7  8  1  0
  8  9  1  0
  9 10  1  0
 10 11  2  0
 10 12  1  0
 12 13  1  0
 13 14  1  0
 14 15  1  0
 15 16  1  0
  5 17  2  0
 17 18  1  0
 18 19  2  0
 19 20  1  0
 20 21  2  0
 20 22  1  0
 22 23  1  0
 23 24  1  0
 24 25  1  0
 24 26  2  0
 23 27  2  0
 27 28  1  0
 28 29  2  0
 29 30  1  0
 30 31  2  0
 31 32  1  0
 32 33  1  0
 32 34  1  0
 32 35  1  0
 31 36  1  0
 36 37  2  0
 19  3  1  0
 37 22  1  0
 37 28  1  0
  1 38  1  0
  1 39  1  0
  1 40  1  0
  4 41  1  0
  6 42  1  0
  7 43  1  0
  7 44  1  0
  8 45  1  0
  8 46  1  0
 13 47  1  0
 13 48  1  0
 14 49  1  0
 14 50  1  0
 15 51  1  0
 15 52  1  0
 16 53  1  0
 17 54  1  0
 18 55  1  0
 25 56  1  0
 27 57  1  0
 29 58  1  0
 30 59  1  0
 36 60  1  0
M  CHG  2   9  -1  25  -1
M  END
>  <UniqueID>  (22) 
22

>  <SMILES>  (22) 
COc1cc(NCC[N-]C(=O)OCCCO)ccc1C(=O)n1c(C([NH-])=O)cc2ccc(C(F)(F)F)cc21

>  <Energy>  (22) 
92.62782703216007

>  <Genealogy>  (22) 
COc1cc(NCC[N-]C(=O)OCCCO)ccc1C(=O)n1c(C([NH-])=O)cc2ccc(C(F)(F)F)cc21 (protonated)
COc1cc(NCC[N-]C(=O)OCCCO)ccc1C(=O)n1c(C([NH-])=O)cc2ccc(C(F)(F)F)cc21 (3D coordinates assigned)
COc1cc(NCC[N-]C(=O)OCCCO)ccc1C(=O)n1c(C([NH-])=O)cc2ccc(C(F)(F)F)cc21 (optimized conformer: 92.62782703216007 kcal/mol)

>  <smiles>  (22) 
COc1cc(NCCNC(=O)OCCCO)ccc1C(=O)n1c(C(N)=O)cc2ccc(C(F)(F)F)cc21

>  <score_type>  (22) 
oracle

>  <origin>  (22) 
adg

>  <m_score__min__energy>  (22) 
-11.19

>  <m_primary>  (22) 
energy

$$$$
23:0
     RDKit          3D

 36 37  0  0  0  0  0  0  0  0999 V2000
   -3.7920   25.2660  -30.8420 N   0  0  0  0  0  0  0  0  0  0  0  0
   -5.1850   25.1350  -30.5660 C   0  0  0  0  0  0  0  0  0  0  0  0
   -5.7910   26.0770  -29.9910 O   0  0  0  0  0  0  0  0  0  0  0  0
   -5.9080   23.9180  -30.9910 C   0  0  0  0  0  0  0  0  0  0  0  0
   -7.2430   23.9180  -31.3910 C   0  0  0  0  0  0  0  0  0  0  0  0
   -7.5560   22.5970  -31.6170 C   0  0  0  0  0  0  0  0  0  0  0  0
   -8.7500   22.0210  -32.0340 C   0  0  0  0  0  0  0  0  0  0  0  0
   -8.7840   20.6260  -32.2060 C   0  0  0  0  0  0  0  0  0  0  0  0
   -7.6230   19.8400  -31.9870 C   0  0  0  0  0  0  0  0  0  0  0  0
   -7.6810   18.3410  -32.1410 C   0  0  0  0  0  0  0  0  0  0  0  0
   -6.8650   17.7220  -31.2110 F   0  0  0  0  0  0  0  0  0  0  0  0
   -7.2600   17.9630  -33.4050 F   0  0  0  0  0  0  0  0  0  0  0  0
   -8.9830   17.9160  -31.9530 F   0  0  0  0  0  0  0  0  0  0  0  0
   -6.4340   20.4630  -31.5410 C   0  0  0  0  0  0  0  0  0  0  0  0
   -6.4360   21.8510  -31.3600 C   0  0  0  0  0  0  0  0  0  0  0  0
   -5.4140   22.6480  -30.9750 N   0  0  0  0  0  0  0  0  0  0  0  0
   -4.0680   22.2330  -30.6940 C   0  0  0  0  0  0  0  0  0  0  0  0
   -3.5680   21.2580  -31.3190 O   0  0  0  0  0  0  0  0  0  0  0  0
   -3.3140   22.9240  -29.7390 O   0  0  0  0  0  0  0  0  0  0  0  0
   -3.4840   22.7590  -28.3330 C   0  0  0  0  0  0  0  0  0  0  0  0
   -3.2200   24.0720  -27.6010 C   0  0  0  0  0  0  0  0  0  0  0  0
   -1.8590   24.1360  -27.2500 O   0  0  0  0  0  0  0  0  0  0  0  0
   -0.9950   24.7970  -28.5640 P   0  0  2  0  0  0  0  0  0  0  0  0
    0.4730   24.9120  -28.2160 O   0  0  0  0  0  0  0  0  0  0  0  0
   -1.6030   26.3280  -28.9550 O   0  0  0  0  0  0  0  0  0  0  0  0
   -1.1690   23.7810  -29.9050 O   0  0  0  0  0  0  0  0  0  0  0  0
   -3.0790   25.0870  -30.1010 H   0  0  0  0  0  0  0  0  0  0  0  0
   -7.9057   24.7888  -31.5024 H   0  0  0  0  0  0  0  0  0  0  0  0
   -9.6410   22.6375  -32.2237 H   0  0  0  0  0  0  0  0  0  0  0  0
   -9.7208   20.1385  -32.5137 H   0  0  0  0  0  0  0  0  0  0  0  0
   -5.5290   19.8706  -31.3411 H   0  0  0  0  0  0  0  0  0  0  0  0
   -4.5146   22.4328  -28.1295 H   0  0  0  0  0  0  0  0  0  0  0  0
   -2.7679   22.0043  -27.9759 H   0  0  0  0  0  0  0  0  0  0  0  0
   -3.4714   24.9175  -28.2582 H   0  0  0  0  0  0  0  0  0  0  0  0
   -3.8402   24.1226  -26.6939 H   0  0  0  0  0  0  0  0  0  0  0  0
   -2.0420   24.0330  -30.3010 H   0  0  0  0  0  0  0  0  0  0  0  0
  1  2  1  0
  2  3  2  0
  2  4  1  0
  4  5  2  0
  5  6  1  0
  6  7  2  0
  7  8  1  0
  8  9  2  0
  9 10  1  0
 10 11  1  0
 10 12  1  0
 10 13  1  0
  9 14  1  0
 14 15  2  0
 15 16  1  0
 16 17  1  0
 17 18  2  0
 17 19  1  0
 19 20  1  0
 20 21  1  0
 21 22  1  0
 22 23  1  0
 23 24  2  0
 23 25  1  6
 23 26  1  0
 16  4  1  0
 15  6  1  0
  1 27  1  0
  5 28  1  0
  7 29  1  0
  8 30  1  0
 14 31  1  0
 20 32  1  0
 20 33  1  0
 21 34  1  0
 21 35  1  0
 26 36  1  0
M  CHG  2   1  -1  25  -1
M  END
>  <UniqueID>  (23) 
23

>  <SMILES>  (23) 
[NH-]C(=O)c1cc2ccc(C(F)(F)F)cc2n1C(=O)OCCO[P@](=O)([O-])O

>  <Energy>  (23) 
69.86915253938069

>  <Genealogy>  (23) 
[NH-]C(=O)c1cc2ccc(C(F)(F)F)cc2n1C(=O)OCCOP(=O)([O-])O (protonated)
[NH-]C(=O)c1cc2ccc(C(F)(F)F)cc2n1C(=O)OCCO[P@](=O)([O-])O (chirality)
[NH-]C(=O)c1cc2ccc(C(F)(F)F)cc2n1C(=O)OCCO[P@](=O)([O-])O (3D coordinates assigned)
[NH-]C(=O)c1cc2ccc(C(F)(F)F)cc2n1C(=O)OCCO[P@](=O)([O-])O (optimized conformer: 69.86915253938069 kcal/mol)

>  <smiles>  (23) 
NC(=O)c1cc2ccc(C(F)(F)F)cc2n1C(=O)OCCOP(=O)(O)O

>  <score_type>  (23) 
oracle

>  <origin>  (23) 
adg

>  <m_score__min__energy>  (23) 
-11.970000000000001

>  <m_primary>  (23) 
energy

$$$$
24:0
     RDKit          3D

 38 39  0  0  0  0  0  0  0  0999 V2000
   -3.1720   21.6570  -30.7190 C   0  0  0  0  0  0  0  0  0  0  0  0
   -3.2400   22.2270  -31.9240 C   0  0  0  0  0  0  0  0  0  0  0  0
   -3.5300   21.4140  -33.1490 C   0  0  0  0  0  0  0  0  0  0  0  0
   -3.8960   20.0930  -32.7680 O   0  0  0  0  0  0  0  0  0  0  0  0
   -4.7840   19.3100  -33.5120 C   0  0  0  0  0  0  0  0  0  0  0  0
   -4.4160   18.7930  -34.6020 O   0  0  0  0  0  0  0  0  0  0  0  0
   -6.1270   19.1140  -33.0410 N   0  0  0  0  0  0  0  0  0  0  0  0
   -6.8180   17.9410  -32.9640 C   0  0  0  0  0  0  0  0  0  0  0  0
   -6.3860   16.6410  -33.5180 C   0  0  0  0  0  0  0  0  0  0  0  0
   -5.0320   16.2120  -33.4110 N   0  0  0  0  0  0  0  0  0  0  0  0
   -7.2140   15.9210  -34.1370 O   0  0  0  0  0  0  0  0  0  0  0  0
   -8.0520   18.1410  -32.3510 C   0  0  0  0  0  0  0  0  0  0  0  0
   -8.1020   19.4840  -32.0610 C   0  0  0  0  0  0  0  0  0  0  0  0
   -9.0980   20.2280  -31.4360 C   0  0  0  0  0  0  0  0  0  0  0  0
   -8.8710   21.6000  -31.2350 C   0  0  0  0  0  0  0  0  0  0  0  0
   -7.6520   22.2020  -31.6520 C   0  0  0  0  0  0  0  0  0  0  0  0
   -7.3950   23.6040  -31.4450 N   0  0  0  0  0  0  0  0  0  0  0  0
   -6.1330   24.2490  -31.8120 C   0  0  0  0  0  0  0  0  0  0  0  0
   -5.2750   24.8860  -30.3380 P   0  0  1  0  0  0  0  0  0  0  0  0
   -4.9410   23.7410  -29.4100 O   0  0  0  0  0  0  0  0  0  0  0  0
   -3.8490   25.6630  -30.8070 O   0  0  0  0  0  0  0  0  0  0  0  0
   -6.2740   25.9900  -29.5350 O   0  0  0  0  0  0  0  0  0  0  0  0
   -6.6670   21.4100  -32.2820 C   0  0  0  0  0  0  0  0  0  0  0  0
   -6.9290   20.0500  -32.4860 C   0  0  0  0  0  0  0  0  0  0  0  0
   -2.9580   22.2707  -29.8316 H   0  0  0  0  0  0  0  0  0  0  0  0
   -3.3300   20.5735  -30.6134 H   0  0  0  0  0  0  0  0  0  0  0  0
   -3.0806   23.3112  -32.0194 H   0  0  0  0  0  0  0  0  0  0  0  0
   -4.3568   21.8763  -33.7082 H   0  0  0  0  0  0  0  0  0  0  0  0
   -2.6326   21.3762  -33.7839 H   0  0  0  0  0  0  0  0  0  0  0  0
   -4.2490   16.8170  -33.7430 H   0  0  0  0  0  0  0  0  0  0  0  0
   -8.8233   17.3849  -32.1429 H   0  0  0  0  0  0  0  0  0  0  0  0
  -10.0360   19.7557  -31.1087 H   0  0  0  0  0  0  0  0  0  0  0  0
   -9.6439   22.2145  -30.7503 H   0  0  0  0  0  0  0  0  0  0  0  0
   -8.1500   24.1820  -31.0110 H   0  0  0  0  0  0  0  0  0  0  0  0
   -5.4867   23.5150  -32.3156 H   0  0  0  0  0  0  0  0  0  0  0  0
   -6.3521   25.0928  -32.4828 H   0  0  0  0  0  0  0  0  0  0  0  0
   -5.7760   26.2360  -28.7160 H   0  0  0  0  0  0  0  0  0  0  0  0
   -5.7135   21.8526  -32.6058 H   0  0  0  0  0  0  0  0  0  0  0  0
  1  2  2  0
  2  3  1  0
  3  4  1  0
  4  5  1  0
  5  6  2  0
  5  7  1  0
  7  8  1  0
  8  9  1  0
  9 10  1  0
  9 11  2  0
  8 12  2  0
 12 13  1  0
 13 14  2  0
 14 15  1  0
 15 16  2  0
 16 17  1  0
 17 18  1  0
 18 19  1  0
 19 20  2  0
 19 21  1  6
 19 22  1  0
 16 23  1  0
 23 24  2  0
 24  7  1  0
 24 13  1  0
  1 25  1  0
  1 26  1  0
  2 27  1  0
  3 28  1  0
  3 29  1  0
 10 30  1  0
 12 31  1  0
 14 32  1  0
 15 33  1  0
 17 34  1  0
 18 35  1  0
 18 36  1  0
 22 37  1  0
 23 38  1  0
M  CHG  2  10  -1  21  -1
M  END
>  <UniqueID>  (24) 
24

>  <SMILES>  (24) 
C=CCOC(=O)n1c(C([NH-])=O)cc2ccc(NC[P@@](=O)([O-])O)cc21

>  <Energy>  (24) 
66.86509537406862

>  <Genealogy>  (24) 
C=CCOC(=O)n1c(C([NH-])=O)cc2ccc(NCP(=O)([O-])O)cc21 (protonated)
C=CCOC(=O)n1c(C([NH-])=O)cc2ccc(NC[P@@](=O)([O-])O)cc21 (chirality)
C=CCOC(=O)n1c(C([NH-])=O)cc2ccc(NC[P@@](=O)([O-])O)cc21 (3D coordinates assigned)
C=CCOC(=O)n1c(C([NH-])=O)cc2ccc(NC[P@@](=O)([O-])O)cc21 (optimized conformer: 66.86509537406862 kcal/mol)

>  <smiles>  (24) 
C=CCOC(=O)n1c(C(N)=O)cc2ccc(NCP(=O)(O)O)cc21

>  <score_type>  (24) 
oracle

>  <origin>  (24) 
adg

>  <m_score__min__energy>  (24) 
-10.210000000000001

>  <m_primary>  (24) 
energy

$$$$
25:0
     RDKit          3D

 31 32  0  0  0  0  0  0  0  0999 V2000
   -2.6010   24.9040  -29.6500 N   0  0  0  0  0  0  0  0  0  0  0  0
   -2.3960   23.5040  -29.4870 C   0  0  0  0  0  0  0  0  0  0  0  0
   -2.3520   23.0040  -28.3300 O   0  0  0  0  0  0  0  0  0  0  0  0
   -2.2540   22.6260  -30.6920 C   0  0  0  0  0  0  0  0  0  0  0  0
   -3.4740   22.5900  -31.4290 O   0  0  0  0  0  0  0  0  0  0  0  0
   -4.5440   21.7460  -31.1090 C   0  0  0  0  0  0  0  0  0  0  0  0
   -4.3350   20.5340  -30.8290 O   0  0  0  0  0  0  0  0  0  0  0  0
   -5.8850   22.2650  -31.1200 N   0  0  0  0  0  0  0  0  0  0  0  0
   -6.2680   23.5530  -30.9020 C   0  0  0  0  0  0  0  0  0  0  0  0
   -5.4020   24.6360  -30.3960 C   0  0  0  0  0  0  0  0  0  0  0  0
   -5.2170   24.8380  -28.9940 N   0  0  0  0  0  0  0  0  0  0  0  0
   -4.8640   25.4330  -31.2120 O   0  0  0  0  0  0  0  0  0  0  0  0
   -7.6250   23.7200  -31.1660 C   0  0  0  0  0  0  0  0  0  0  0  0
   -8.0730   22.4750  -31.5470 C   0  0  0  0  0  0  0  0  0  0  0  0
   -9.3440   22.0680  -31.9460 C   0  0  0  0  0  0  0  0  0  0  0  0
   -9.5150   20.7280  -32.3300 C   0  0  0  0  0  0  0  0  0  0  0  0
   -8.4220   19.8280  -32.3130 C   0  0  0  0  0  0  0  0  0  0  0  0
   -8.6090   18.4650  -32.7080 N   0  0  0  0  0  0  0  0  0  0  0  0
   -7.1460   20.2740  -31.9040 C   0  0  0  0  0  0  0  0  0  0  0  0
   -7.0060   21.6130  -31.5110 C   0  0  0  0  0  0  0  0  0  0  0  0
   -2.9430   25.2940  -30.5560 H   0  0  0  0  0  0  0  0  0  0  0  0
   -1.4537   23.0206  -31.3353 H   0  0  0  0  0  0  0  0  0  0  0  0
   -2.0067   21.6061  -30.3624 H   0  0  0  0  0  0  0  0  0  0  0  0
   -5.7620   24.2880  -28.2940 H   0  0  0  0  0  0  0  0  0  0  0  0
   -4.5980   25.6050  -28.6510 H   0  0  0  0  0  0  0  0  0  0  0  0
   -8.2124   24.6467  -31.0872 H   0  0  0  0  0  0  0  0  0  0  0  0
  -10.1874   22.7741  -31.9599 H   0  0  0  0  0  0  0  0  0  0  0  0
  -10.5072   20.3743  -32.6469 H   0  0  0  0  0  0  0  0  0  0  0  0
   -8.5980   17.6960  -32.0010 H   0  0  0  0  0  0  0  0  0  0  0  0
   -8.7680   18.2160  -33.7100 H   0  0  0  0  0  0  0  0  0  0  0  0
   -6.2850   19.5895  -31.8939 H   0  0  0  0  0  0  0  0  0  0  0  0
  1  2  1  0
  2  3  2  0
  2  4  1  0
  4  5  1  0
  5  6  1  0
  6  7  2  0
  6  8  1  0
  8  9  1  0
  9 10  1  0
 10 11  1  0
 10 12  2  0
  9 13  2  0
 13 14  1  0
 14 15  2  0
 15 16  1  0
 16 17  2  0
 17 18  1  0
 17 19  1  0
 19 20  2  0
 20  8  1  0
 20 14  1  0
  1 21  1  0
  4 22  1  0
  4 23  1  0
 11 24  1  0
 11 25  1  0
 13 26  1  0
 15 27  1  0
 16 28  1  0
 18 29  1  0
 18 30  1  0
 19 31  1  0
M  CHG  1   1  -1
M  END
>  <UniqueID>  (25) 
25

>  <SMILES>  (25) 
[NH-]C(=O)COC(=O)n1c(C(N)=O)cc2ccc(N)cc21

>  <Energy>  (25) 
66.54290904009306

>  <Genealogy>  (25) 
[NH-]C(=O)COC(=O)n1c(C(N)=O)cc2ccc(N)cc21 (protonated)
[NH-]C(=O)COC(=O)n1c(C(N)=O)cc2ccc(N)cc21 (3D coordinates assigned)
[NH-]C(=O)COC(=O)n1c(C(N)=O)cc2ccc(N)cc21 (optimized conformer: 66.54290904009306 kcal/mol)

>  <smiles>  (25) 
NC(=O)COC(=O)n1c(C(N)=O)cc2ccc(N)cc21

>  <score_type>  (25) 
oracle

>  <origin>  (25) 
adg

>  <m_score__min__energy>  (25) 
-10.19

>  <m_primary>  (25) 
energy

$$$$
26:0
     RDKit          3D

 32 33  0  0  0  0  0  0  0  0999 V2000
   -4.2160   24.2870  -27.4640 C   0  0  0  0  0  0  0  0  0  0  0  0
   -3.6490   23.4840  -28.5940 C   0  0  0  0  0  0  0  0  0  0  0  0
   -3.4410   21.8720  -28.3650 S   0  0  0  0  0  0  0  0  0  0  0  0
   -3.6360   24.0430  -29.9210 N   0  0  0  0  0  0  0  0  0  0  0  0
   -3.1230   25.2850  -30.0930 O   0  0  0  0  0  0  0  0  0  0  0  0
   -4.1190   23.3290  -31.0730 C   0  0  0  0  0  0  0  0  0  0  0  0
   -3.3170   22.8790  -31.9360 O   0  0  0  0  0  0  0  0  0  0  0  0
   -5.5280   23.1350  -31.2640 N   0  0  0  0  0  0  0  0  0  0  0  0
   -6.5410   23.9320  -30.8230 C   0  0  0  0  0  0  0  0  0  0  0  0
   -6.3620   25.2370  -30.1430 C   0  0  0  0  0  0  0  0  0  0  0  0
   -5.3390   26.1460  -30.5530 N   0  0  0  0  0  0  0  0  0  0  0  0
   -7.1080   25.5520  -29.1780 O   0  0  0  0  0  0  0  0  0  0  0  0
   -7.7760   23.3680  -31.1470 C   0  0  0  0  0  0  0  0  0  0  0  0
   -7.4810   22.1890  -31.7940 C   0  0  0  0  0  0  0  0  0  0  0  0
   -8.3270   21.2100  -32.3050 C   0  0  0  0  0  0  0  0  0  0  0  0
   -7.7420   20.0700  -32.8850 C   0  0  0  0  0  0  0  0  0  0  0  0
   -6.3310   19.9330  -32.9530 C   0  0  0  0  0  0  0  0  0  0  0  0
   -5.7170   18.6790  -33.5220 C   0  0  0  0  0  0  0  0  0  0  0  0
   -6.1790   17.5610  -32.8500 F   0  0  0  0  0  0  0  0  0  0  0  0
   -4.3380   18.7160  -33.4040 F   0  0  0  0  0  0  0  0  0  0  0  0
   -6.0520   18.5730  -34.8580 F   0  0  0  0  0  0  0  0  0  0  0  0
   -5.5060   20.9400  -32.3990 C   0  0  0  0  0  0  0  0  0  0  0  0
   -6.1170   22.0700  -31.8470 C   0  0  0  0  0  0  0  0  0  0  0  0
   -3.9035   23.8444  -26.5067 H   0  0  0  0  0  0  0  0  0  0  0  0
   -3.8468   25.3212  -27.5277 H   0  0  0  0  0  0  0  0  0  0  0  0
   -5.3142   24.2851  -27.5277 H   0  0  0  0  0  0  0  0  0  0  0  0
   -5.2040   27.0450  -30.0400 H   0  0  0  0  0  0  0  0  0  0  0  0
   -4.7400   25.9580  -31.3870 H   0  0  0  0  0  0  0  0  0  0  0  0
   -8.7735   23.7784  -30.9312 H   0  0  0  0  0  0  0  0  0  0  0  0
   -9.4200   21.3240  -32.2569 H   0  0  0  0  0  0  0  0  0  0  0  0
   -8.3855   19.2754  -33.2906 H   0  0  0  0  0  0  0  0  0  0  0  0
   -4.4109   20.8365  -32.4024 H   0  0  0  0  0  0  0  0  0  0  0  0
  1  2  1  0
  2  3  2  0
  2  4  1  0
  4  5  1  0
  4  6  1  0
  6  7  2  0
  6  8  1  0
  8  9  1  0
  9 10  1  0
 10 11  1  0
 10 12  2  0
  9 13  2  0
 13 14  1  0
 14 15  2  0
 15 16  1  0
 16 17  2  0
 17 18  1  0
 18 19  1  0
 18 20  1  0
 18 21  1  0
 17 22  1  0
 22 23  2  0
 23  8  1  0
 23 14  1  0
  1 24  1  0
  1 25  1  0
  1 26  1  0
 11 27  1  0
 11 28  1  0
 13 29  1  0
 15 30  1  0
 16 31  1  0
 22 32  1  0
M  CHG  1   5  -1
M  END
>  <UniqueID>  (26) 
26

>  <SMILES>  (26) 
CC(=S)N([O-])C(=O)n1c(C(N)=O)cc2ccc(C(F)(F)F)cc21

>  <Energy>  (26) 
74.68293958372966

>  <Genealogy>  (26) 
CC(=S)N([O-])C(=O)n1c(C(N)=O)cc2ccc(C(F)(F)F)cc21 (protonated)
CC(=S)N([O-])C(=O)n1c(C(N)=O)cc2ccc(C(F)(F)F)cc21 (3D coordinates assigned)
CC(=S)N([O-])C(=O)n1c(C(N)=O)cc2ccc(C(F)(F)F)cc21 (optimized conformer: 74.68293958372966 kcal/mol)

>  <smiles>  (26) 
CC(=S)N(O)C(=O)n1c(C(N)=O)cc2ccc(C(F)(F)F)cc21

>  <score_type>  (26) 
oracle

>  <origin>  (26) 
adg

>  <m_score__min__energy>  (26) 
-10.279999999999999

>  <m_primary>  (26) 
energy

$$$$
27:0
     RDKit          3D

 34 36  0  0  0  0  0  0  0  0999 V2000
   -4.0070   25.3110  -30.5480 N   0  0  0  0  0  0  0  0  0  0  0  0
   -5.4280   25.1970  -30.5430 C   0  0  0  0  0  0  0  0  0  0  0  0
   -6.1230   26.1700  -30.1440 O   0  0  0  0  0  0  0  0  0  0  0  0
   -6.0930   23.9380  -30.9400 C   0  0  0  0  0  0  0  0  0  0  0  0
   -7.4720   23.8210  -31.1090 C   0  0  0  0  0  0  0  0  0  0  0  0
   -7.6930   22.4910  -31.3850 C   0  0  0  0  0  0  0  0  0  0  0  0
   -8.8810   21.8200  -31.6640 C   0  0  0  0  0  0  0  0  0  0  0  0
   -8.8100   20.4470  -31.9540 C   0  0  0  0  0  0  0  0  0  0  0  0
   -7.5640   19.7680  -31.9470 C   0  0  0  0  0  0  0  0  0  0  0  0
   -7.4890   18.3070  -32.3120 C   0  0  0  0  0  0  0  0  0  0  0  0
   -6.6530   17.6240  -31.4460 F   0  0  0  0  0  0  0  0  0  0  0  0
   -6.9980   18.1560  -33.5980 F   0  0  0  0  0  0  0  0  0  0  0  0
   -8.7550   17.7540  -32.2450 F   0  0  0  0  0  0  0  0  0  0  0  0
   -6.3780   20.4910  -31.6840 C   0  0  0  0  0  0  0  0  0  0  0  0
   -6.4800   21.8540  -31.3830 C   0  0  0  0  0  0  0  0  0  0  0  0
   -5.4860   22.7310  -31.1160 N   0  0  0  0  0  0  0  0  0  0  0  0
   -4.0790   22.4450  -31.1200 C   0  0  0  0  0  0  0  0  0  0  0  0
   -3.4590   22.3810  -32.2150 O   0  0  0  0  0  0  0  0  0  0  0  0
   -3.4140   22.2210  -29.9080 O   0  0  0  0  0  0  0  0  0  0  0  0
   -2.9220   23.2260  -29.0910 N   0  0  0  0  0  0  0  0  0  0  0  0
   -3.4250   23.6970  -27.9280 C   0  0  0  0  0  0  0  0  0  0  0  0
   -2.6290   24.6300  -27.3660 N   0  0  0  0  0  0  0  0  0  0  0  0
   -1.5900   24.7220  -28.2230 C   0  0  0  0  0  0  0  0  0  0  0  0
   -0.4870   25.6130  -28.0380 N   0  0  0  0  0  0  0  0  0  0  0  0
   -0.6570   26.8500  -28.0740 O   0  0  0  0  0  0  0  0  0  0  0  0
    0.7650   25.1100  -27.7700 O   0  0  0  0  0  0  0  0  0  0  0  0
   -1.7530   23.8520  -29.2780 C   0  0  0  0  0  0  0  0  0  0  0  0
   -3.4920   25.6720  -29.7150 H   0  0  0  0  0  0  0  0  0  0  0  0
   -8.2233   24.6213  -31.0371 H   0  0  0  0  0  0  0  0  0  0  0  0
   -9.8456   22.3488  -31.6575 H   0  0  0  0  0  0  0  0  0  0  0  0
   -9.7304   19.8924  -32.1890 H   0  0  0  0  0  0  0  0  0  0  0  0
   -5.3974   19.9936  -31.7152 H   0  0  0  0  0  0  0  0  0  0  0  0
   -4.3753   23.3581  -27.4897 H   0  0  0  0  0  0  0  0  0  0  0  0
   -1.0557   23.7002  -30.1150 H   0  0  0  0  0  0  0  0  0  0  0  0
  1  2  1  0
  2  3  2  0
  2  4  1  0
  4  5  2  0
  5  6  1  0
  6  7  2  0
  7  8  1  0
  8  9  2  0
  9 10  1  0
 10 11  1  0
 10 12  1  0
 10 13  1  0
  9 14  1  0
 14 15  2  0
 15 16  1  0
 16 17  1  0
 17 18  2  0
 17 19  1  0
 19 20  1  0
 20 21  1  0
 21 22  2  0
 22 23  1  0
 23 24  1  0
 24 25  2  0
 24 26  1  0
 23 27  2  0
 16  4  1  0
 27 20  1  0
 15  6  1  0
  1 28  1  0
  5 29  1  0
  7 30  1  0
  8 31  1  0
 14 32  1  0
 21 33  1  0
 27 34  1  0
M  CHG  3   1  -1  24   1  26  -1
M  END
>  <UniqueID>  (27) 
27

>  <SMILES>  (27) 
[NH-]C(=O)c1cc2ccc(C(F)(F)F)cc2n1C(=O)On1cnc([N+](=O)[O-])c1

>  <Energy>  (27) 
109.96130174187961

>  <Genealogy>  (27) 
[NH-]C(=O)c1cc2ccc(C(F)(F)F)cc2n1C(=O)On1cnc([N+](=O)[O-])c1 (protonated)
[NH-]C(=O)c1cc2ccc(C(F)(F)F)cc2n1C(=O)On1cnc([N+](=O)[O-])c1 (3D coordinates assigned)
[NH-]C(=O)c1cc2ccc(C(F)(F)F)cc2n1C(=O)On1cnc([N+](=O)[O-])c1 (optimized conformer: 109.96130174187961 kcal/mol)

>  <smiles>  (27) 
NC(=O)c1cc2ccc(C(F)(F)F)cc2n1C(=O)On1cnc([N+](=O)[O-])c1

>  <score_type>  (27) 
oracle

>  <origin>  (27) 
adg

>  <m_score__min__energy>  (27) 
-11.050000000000001

>  <m_primary>  (27) 
energy

$$$$
28:0
     RDKit          3D

 31 32  0  0  0  0  0  0  0  0999 V2000
   -6.2910   17.9100  -33.2090 C   0  0  0  0  0  0  0  0  0  0  0  0
   -6.7300   19.2260  -32.6410 C   0  0  0  0  0  0  0  0  0  0  0  0
   -8.1010   19.5820  -32.6560 C   0  0  0  0  0  0  0  0  0  0  0  0
   -8.5180   20.8350  -32.1760 C   0  0  0  0  0  0  0  0  0  0  0  0
   -7.5460   21.7040  -31.6890 C   0  0  0  0  0  0  0  0  0  0  0  0
   -7.6690   22.9920  -31.2170 C   0  0  0  0  0  0  0  0  0  0  0  0
   -6.3730   23.3940  -30.9060 C   0  0  0  0  0  0  0  0  0  0  0  0
   -6.0430   24.7220  -30.3490 C   0  0  0  0  0  0  0  0  0  0  0  0
   -5.7030   24.8870  -28.9720 N   0  0  0  0  0  0  0  0  0  0  0  0
   -6.1090   25.7360  -31.0930 O   0  0  0  0  0  0  0  0  0  0  0  0
   -5.4810   22.3990  -31.1780 N   0  0  0  0  0  0  0  0  0  0  0  0
   -4.0480   22.4860  -31.1150 C   0  0  0  0  0  0  0  0  0  0  0  0
   -3.3890   22.6490  -32.1780 O   0  0  0  0  0  0  0  0  0  0  0  0
   -3.3380   22.5170  -29.7910 C   0  0  0  0  0  0  0  0  0  0  0  0
   -2.8870   24.2180  -29.3150 P   0  0  0  0  0  0  0  0  0  0  0  0
   -3.4810   24.5600  -27.9680 O   0  0  0  0  0  0  0  0  0  0  0  0
   -1.2030   24.3570  -29.2340 O   0  0  0  0  0  0  0  0  0  0  0  0
   -3.4780   25.2940  -30.4770 O   0  0  0  0  0  0  0  0  0  0  0  0
   -6.2160   21.3720  -31.6610 C   0  0  0  0  0  0  0  0  0  0  0  0
   -5.7700   20.1420  -32.1590 C   0  0  0  0  0  0  0  0  0  0  0  0
   -6.0593   17.2154  -32.3882 H   0  0  0  0  0  0  0  0  0  0  0  0
   -7.0978   17.4903  -33.8278 H   0  0  0  0  0  0  0  0  0  0  0  0
   -5.3938   18.0587  -33.8278 H   0  0  0  0  0  0  0  0  0  0  0  0
   -8.8449   18.8720  -33.0465 H   0  0  0  0  0  0  0  0  0  0  0  0
   -9.5803   21.1204  -32.1849 H   0  0  0  0  0  0  0  0  0  0  0  0
   -8.5937   23.5779  -31.1089 H   0  0  0  0  0  0  0  0  0  0  0  0
   -5.8260   24.1090  -28.2870 H   0  0  0  0  0  0  0  0  0  0  0  0
   -5.4200   25.8250  -28.6130 H   0  0  0  0  0  0  0  0  0  0  0  0
   -3.9993   22.0936  -29.0207 H   0  0  0  0  0  0  0  0  0  0  0  0
   -2.4139   21.9270  -29.8808 H   0  0  0  0  0  0  0  0  0  0  0  0
   -4.6981   19.8954  -32.1744 H   0  0  0  0  0  0  0  0  0  0  0  0
  1  2  1  0
  2  3  2  0
  3  4  1  0
  4  5  2  0
  5  6  1  0
  6  7  2  0
  7  8  1  0
  8  9  1  0
  8 10  2  0
  7 11  1  0
 11 12  1  0
 12 13  2  0
 12 14  1  0
 14 15  1  0
 15 16  2  0
 15 17  1  0
 15 18  1  0
 11 19  1  0
 19 20  2  0
 20  2  1  0
 19  5  1  0
  1 21  1  0
  1 22  1  0
  1 23  1  0
  3 24  1  0
  4 25  1  0
  6 26  1  0
  9 27  1  0
  9 28  1  0
 14 29  1  0
 14 30  1  0
 20 31  1  0
M  CHG  2  17  -1  18  -1
M  END
>  <UniqueID>  (28) 
28

>  <SMILES>  (28) 
Cc1ccc2cc(C(N)=O)n(C(=O)CP(=O)([O-])[O-])c2c1

>  <Energy>  (28) 
66.95928807723212

>  <Genealogy>  (28) 
Cc1ccc2cc(C(N)=O)n(C(=O)CP(=O)([O-])[O-])c2c1 (protonated)
Cc1ccc2cc(C(N)=O)n(C(=O)CP(=O)([O-])[O-])c2c1 (3D coordinates assigned)
Cc1ccc2cc(C(N)=O)n(C(=O)CP(=O)([O-])[O-])c2c1 (optimized conformer: 66.95928807723212 kcal/mol)

>  <smiles>  (28) 
Cc1ccc2cc(C(N)=O)n(C(=O)CP(=O)(O)O)c2c1

>  <score_type>  (28) 
oracle

>  <origin>  (28) 
adg

>  <m_score__min__energy>  (28) 
-12

>  <m_primary>  (28) 
energy

$$$$
29:0
     RDKit          3D

 32 33  0  0  0  0  0  0  0  0999 V2000
   -5.2110   17.7510  -32.2060 C   0  0  0  0  0  0  0  0  0  0  0  0
   -5.6070   19.1950  -32.2600 C   0  0  0  0  0  0  0  0  0  0  0  0
   -6.7140   19.5990  -33.0460 C   0  0  0  0  0  0  0  0  0  0  0  0
   -7.1110   20.9460  -33.0850 C   0  0  0  0  0  0  0  0  0  0  0  0
   -6.3970   21.8590  -32.3140 C   0  0  0  0  0  0  0  0  0  0  0  0
   -6.5530   23.2200  -32.1820 C   0  0  0  0  0  0  0  0  0  0  0  0
   -5.5630   23.6200  -31.2860 C   0  0  0  0  0  0  0  0  0  0  0  0
   -5.4220   25.0060  -30.7940 C   0  0  0  0  0  0  0  0  0  0  0  0
   -4.1560   25.6610  -30.7890 N   0  0  0  0  0  0  0  0  0  0  0  0
   -6.4270   25.6080  -30.3300 O   0  0  0  0  0  0  0  0  0  0  0  0
   -4.8200   22.5490  -30.8860 N   0  0  0  0  0  0  0  0  0  0  0  0
   -3.6660   22.5500  -30.0320 C   0  0  0  0  0  0  0  0  0  0  0  0
   -3.8040   22.7040  -28.7890 O   0  0  0  0  0  0  0  0  0  0  0  0
   -2.3610   22.3870  -30.5960 N   0  0  0  0  0  0  0  0  0  0  0  0
   -1.1350   22.4140  -29.8090 C   0  0  0  0  0  0  0  0  0  0  0  0
   -0.8420   23.8110  -29.3550 C   0  0  0  0  0  0  0  0  0  0  0  0
    0.3250   24.1210  -28.9910 O   0  0  0  0  0  0  0  0  0  0  0  0
   -1.8750   24.7980  -29.3540 N   0  0  0  0  0  0  0  0  0  0  0  0
   -1.6130   26.0670  -28.9620 O   0  0  0  0  0  0  0  0  0  0  0  0
   -5.3440   21.4790  -31.5220 C   0  0  0  0  0  0  0  0  0  0  0  0
   -4.9160   20.1470  -31.4790 C   0  0  0  0  0  0  0  0  0  0  0  0
   -5.1240   17.4337  -31.1564 H   0  0  0  0  0  0  0  0  0  0  0  0
   -5.9753   17.1421  -32.7110 H   0  0  0  0  0  0  0  0  0  0  0  0
   -4.2430   17.6171  -32.7110 H   0  0  0  0  0  0  0  0  0  0  0  0
   -7.2682   18.8507  -33.6316 H   0  0  0  0  0  0  0  0  0  0  0  0
   -7.9598   21.2693  -33.7056 H   0  0  0  0  0  0  0  0  0  0  0  0
   -7.3002   23.8568  -32.6782 H   0  0  0  0  0  0  0  0  0  0  0  0
   -3.5700   25.6930  -29.9260 H   0  0  0  0  0  0  0  0  0  0  0  0
   -1.2533   21.7636  -28.9298 H   0  0  0  0  0  0  0  0  0  0  0  0
   -0.3013   22.0567  -30.4313 H   0  0  0  0  0  0  0  0  0  0  0  0
   -2.8400   24.5480  -29.6630 H   0  0  0  0  0  0  0  0  0  0  0  0
   -4.0624   19.8492  -30.8523 H   0  0  0  0  0  0  0  0  0  0  0  0
  1  2  1  0
  2  3  2  0
  3  4  1  0
  4  5  2  0
  5  6  1  0
  6  7  2  0
  7  8  1  0
  8  9  1  0
  8 10  2  0
  7 11  1  0
 11 12  1  0
 12 13  2  0
 12 14  1  0
 14 15  1  0
 15 16  1  0
 16 17  2  0
 16 18  1  0
 18 19  1  0
 11 20  1  0
 20 21  2  0
 21  2  1  0
 20  5  1  0
  1 22  1  0
  1 23  1  0
  1 24  1  0
  3 25  1  0
  4 26  1  0
  6 27  1  0
  9 28  1  0
 15 29  1  0
 15 30  1  0
 18 31  1  0
 21 32  1  0
M  CHG  3   9  -1  14  -1  19  -1
M  END
>  <UniqueID>  (29) 
29

>  <SMILES>  (29) 
Cc1ccc2cc(C([NH-])=O)n(C(=O)[N-]CC(=O)N[O-])c2c1

>  <Energy>  (29) 
66.84683056113185

>  <Genealogy>  (29) 
Cc1ccc2cc(C([NH-])=O)n(C(=O)[N-]CC(=O)N[O-])c2c1 (protonated)
Cc1ccc2cc(C([NH-])=O)n(C(=O)[N-]CC(=O)N[O-])c2c1 (3D coordinates assigned)
Cc1ccc2cc(C([NH-])=O)n(C(=O)[N-]CC(=O)N[O-])c2c1 (optimized conformer: 66.84683056113185 kcal/mol)

>  <smiles>  (29) 
Cc1ccc2cc(C(N)=O)n(C(=O)NCC(=O)NO)c2c1

>  <score_type>  (29) 
oracle

>  <origin>  (29) 
adg

>  <m_score__min__energy>  (29) 
-13.44

>  <m_primary>  (29) 
energy

$$$$
30:0
     RDKit          3D

 31 32  0  0  0  0  0  0  0  0999 V2000
   -6.5430   18.1690  -32.1500 C   0  0  0  0  0  0  0  0  0  0  0  0
   -6.7690   19.6270  -31.8800 C   0  0  0  0  0  0  0  0  0  0  0  0
   -8.0870   20.1420  -31.8220 C   0  0  0  0  0  0  0  0  0  0  0  0
   -8.3120   21.5020  -31.5460 C   0  0  0  0  0  0  0  0  0  0  0  0
   -7.2060   22.3110  -31.3090 C   0  0  0  0  0  0  0  0  0  0  0  0
   -7.1330   23.6600  -31.0420 C   0  0  0  0  0  0  0  0  0  0  0  0
   -5.7740   23.9370  -30.9040 C   0  0  0  0  0  0  0  0  0  0  0  0
   -5.2440   25.2730  -30.5540 C   0  0  0  0  0  0  0  0  0  0  0  0
   -3.8910   25.6240  -30.8340 N   0  0  0  0  0  0  0  0  0  0  0  0
   -5.9880   26.1070  -29.9720 O   0  0  0  0  0  0  0  0  0  0  0  0
   -5.0370   22.8050  -31.0790 N   0  0  0  0  0  0  0  0  0  0  0  0
   -3.6060   22.6830  -31.0810 C   0  0  0  0  0  0  0  0  0  0  0  0
   -2.9810   22.6890  -32.1750 O   0  0  0  0  0  0  0  0  0  0  0  0
   -2.8460   22.5470  -29.7990 C   0  0  0  0  0  0  0  0  0  0  0  0
   -1.5160   22.9530  -30.0140 O   0  0  0  0  0  0  0  0  0  0  0  0
   -1.1200   24.1250  -28.8420 P   0  0  0  0  0  0  0  0  0  0  0  0
   -1.8130   23.7760  -27.5450 O   0  0  0  0  0  0  0  0  0  0  0  0
   -1.6360   25.6540  -29.3480 O   0  0  0  0  0  0  0  0  0  0  0  0
    0.5520   24.1500  -28.5840 O   0  0  0  0  0  0  0  0  0  0  0  0
   -5.9260   21.8200  -31.3300 C   0  0  0  0  0  0  0  0  0  0  0  0
   -5.6700   20.4750  -31.6220 C   0  0  0  0  0  0  0  0  0  0  0  0
   -6.4592   17.6281  -31.1959 H   0  0  0  0  0  0  0  0  0  0  0  0
   -7.3896   17.7672  -32.7261 H   0  0  0  0  0  0  0  0  0  0  0  0
   -5.6145   18.0424  -32.7261 H   0  0  0  0  0  0  0  0  0  0  0  0
   -8.9422   19.4720  -31.9944 H   0  0  0  0  0  0  0  0  0  0  0  0
   -9.3317   21.9136  -31.5184 H   0  0  0  0  0  0  0  0  0  0  0  0
   -7.9698   24.3687  -30.9559 H   0  0  0  0  0  0  0  0  0  0  0  0
   -3.1260   24.9180  -30.7570 H   0  0  0  0  0  0  0  0  0  0  0  0
   -3.3061   23.1820  -29.0275 H   0  0  0  0  0  0  0  0  0  0  0  0
   -2.8669   21.5002  -29.4618 H   0  0  0  0  0  0  0  0  0  0  0  0
   -4.6403   20.0892  -31.6497 H   0  0  0  0  0  0  0  0  0  0  0  0
  1  2  1  0
  2  3  2  0
  3  4  1  0
  4  5  2  0
  5  6  1  0
  6  7  2  0
  7  8  1  0
  8  9  1  0
  8 10  2  0
  7 11  1  0
 11 12  1  0
 12 13  2  0
 12 14  1  0
 14 15  1  0
 15 16  1  0
 16 17  2  0
 16 18  1  0
 16 19  1  0
 11 20  1  0
 20 21  2  0
 21  2  1  0
 20  5  1  0
  1 22  1  0
  1 23  1  0
  1 24  1  0
  3 25  1  0
  4 26  1  0
  6 27  1  0
  9 28  1  0
 14 29  1  0
 14 30  1  0
 21 31  1  0
M  CHG  3   9  -1  18  -1  19  -1
M  END
>  <UniqueID>  (30) 
30

>  <SMILES>  (30) 
Cc1ccc2cc(C([NH-])=O)n(C(=O)COP(=O)([O-])[O-])c2c1

>  <Energy>  (30) 
68.054632955611

>  <Genealogy>  (30) 
Cc1ccc2cc(C([NH-])=O)n(C(=O)COP(=O)([O-])[O-])c2c1 (protonated)
Cc1ccc2cc(C([NH-])=O)n(C(=O)COP(=O)([O-])[O-])c2c1 (3D coordinates assigned)
Cc1ccc2cc(C([NH-])=O)n(C(=O)COP(=O)([O-])[O-])c2c1 (optimized conformer: 68.054632955611 kcal/mol)

>  <smiles>  (30) 
Cc1ccc2cc(C(N)=O)n(C(=O)COP(=O)(O)O)c2c1

>  <score_type>  (30) 
oracle

>  <origin>  (30) 
adg

>  <m_score__min__energy>  (30) 
-13.59

>  <m_primary>  (30) 
energy

$$$$
31:0
     RDKit          3D

 51 53  0  0  0  0  0  0  0  0999 V2000
   -2.7410   20.3680  -28.1000 C   0  0  0  0  0  0  0  0  0  0  0  0
   -1.2490   20.5400  -27.7790 C   0  0  0  0  0  0  0  0  0  0  0  0
   -1.1090   21.4170  -26.5200 C   0  0  0  0  0  0  0  0  0  0  0  0
   -0.6270   19.1500  -27.5450 C   0  0  0  0  0  0  0  0  0  0  0  0
   -0.6440   21.1810  -28.9110 O   0  0  0  0  0  0  0  0  0  0  0  0
   -1.2120   21.3290  -30.1860 C   0  0  0  0  0  0  0  0  0  0  0  0
   -0.7470   20.7060  -31.1780 O   0  0  0  0  0  0  0  0  0  0  0  0
   -2.3230   22.2200  -30.3630 N   0  0  0  0  0  0  0  0  0  0  0  0
   -2.3810   23.5490  -30.0620 C   0  0  0  0  0  0  0  0  0  0  0  0
   -1.3470   24.3200  -29.3410 C   0  0  0  0  0  0  0  0  0  0  0  0
   -1.6110   25.6650  -28.9470 N   0  0  0  0  0  0  0  0  0  0  0  0
   -0.2460   23.7920  -29.0350 O   0  0  0  0  0  0  0  0  0  0  0  0
   -3.6030   24.0870  -30.4590 C   0  0  0  0  0  0  0  0  0  0  0  0
   -4.3010   23.0380  -31.0130 C   0  0  0  0  0  0  0  0  0  0  0  0
   -5.5690   23.0100  -31.5810 C   0  0  0  0  0  0  0  0  0  0  0  0
   -6.0300   21.7900  -32.1060 C   0  0  0  0  0  0  0  0  0  0  0  0
   -5.2170   20.6270  -32.0620 C   0  0  0  0  0  0  0  0  0  0  0  0
   -5.7070   19.3460  -32.6310 C   0  0  0  0  0  0  0  0  0  0  0  0
   -6.6760   18.5850  -31.9520 C   0  0  0  0  0  0  0  0  0  0  0  0
   -7.1370   17.3800  -32.4910 C   0  0  0  0  0  0  0  0  0  0  0  0
   -6.6550   16.9210  -33.7240 C   0  0  0  0  0  0  0  0  0  0  0  0
   -7.1410   15.6240  -34.2490 C   0  0  0  0  0  0  0  0  0  0  0  0
   -6.4520   14.4670  -34.2000 C   0  0  0  0  0  0  0  0  0  0  0  0
   -5.1030   14.4150  -33.6770 C   0  0  0  0  0  0  0  0  0  0  0  0
   -4.0230   14.3720  -33.2620 N   0  0  0  0  0  0  0  0  0  0  0  0
   -7.0350   13.2240  -34.7500 C   0  0  0  0  0  0  0  0  0  0  0  0
   -7.8730   13.2770  -35.6890 O   0  0  0  0  0  0  0  0  0  0  0  0
   -6.6660   11.9810  -34.2470 O   0  0  0  0  0  0  0  0  0  0  0  0
   -5.6640   17.6620  -34.3900 C   0  0  0  0  0  0  0  0  0  0  0  0
   -5.2030   18.8670  -33.8530 C   0  0  0  0  0  0  0  0  0  0  0  0
   -3.9320   20.7000  -31.4730 C   0  0  0  0  0  0  0  0  0  0  0  0
   -3.5080   21.9230  -30.9420 C   0  0  0  0  0  0  0  0  0  0  0  0
   -3.3125   20.3021  -27.1625 H   0  0  0  0  0  0  0  0  0  0  0  0
   -3.0924   21.2316  -28.6837 H   0  0  0  0  0  0  0  0  0  0  0  0
   -2.8867   19.4471  -28.6837 H   0  0  0  0  0  0  0  0  0  0  0  0
   -1.2093   20.7888  -25.6226 H   0  0  0  0  0  0  0  0  0  0  0  0
   -0.1220   21.9026  -26.5193 H   0  0  0  0  0  0  0  0  0  0  0  0
   -1.8958   22.1857  -26.5193 H   0  0  0  0  0  0  0  0  0  0  0  0
   -0.5433   18.9630  -26.4643 H   0  0  0  0  0  0  0  0  0  0  0  0
   -1.2666   18.3805  -28.0018 H   0  0  0  0  0  0  0  0  0  0  0  0
    0.3730   19.1142  -28.0018 H   0  0  0  0  0  0  0  0  0  0  0  0
   -2.5830   26.0480  -28.9640 H   0  0  0  0  0  0  0  0  0  0  0  0
   -3.9389   25.1290  -30.3524 H   0  0  0  0  0  0  0  0  0  0  0  0
   -6.1931   23.9150  -31.6187 H   0  0  0  0  0  0  0  0  0  0  0  0
   -7.0323   21.7359  -32.5561 H   0  0  0  0  0  0  0  0  0  0  0  0
   -7.0739   18.9405  -30.9901 H   0  0  0  0  0  0  0  0  0  0  0  0
   -7.8842   16.7875  -31.9426 H   0  0  0  0  0  0  0  0  0  0  0  0
   -8.1381   15.6038  -34.7132 H   0  0  0  0  0  0  0  0  0  0  0  0
   -5.2490   17.2916  -35.3390 H   0  0  0  0  0  0  0  0  0  0  0  0
   -4.4385   19.4463  -34.3915 H   0  0  0  0  0  0  0  0  0  0  0  0
   -3.2808   19.8143  -31.4336 H   0  0  0  0  0  0  0  0  0  0  0  0
  1  2  1  0
  2  3  1  0
  2  4  1  0
  2  5  1  0
  5  6  1  0
  6  7  2  0
  6  8  1  0
  8  9  1  0
  9 10  1  0
 10 11  1  0
 10 12  2  0
  9 13  2  0
 13 14  1  0
 14 15  2  0
 15 16  1  0
 16 17  2  0
 17 18  1  0
 18 19  2  0
 19 20  1  0
 20 21  2  0
 21 22  1  0
 22 23  2  3
 23 24  1  0
 24 25  3  0
 23 26  1  0
 26 27  2  0
 26 28  1  0
 21 29  1  0
 29 30  2  0
 17 31  1  0
 31 32  2  0
 32  8  1  0
 32 14  1  0
 30 18  1  0
  1 33  1  0
  1 34  1  0
  1 35  1  0
  3 36  1  0
  3 37  1  0
  3 38  1  0
  4 39  1  0
  4 40  1  0
  4 41  1  0
 11 42  1  0
 13 43  1  0
 15 44  1  0
 16 45  1  0
 19 46  1  0
 20 47  1  0
 22 48  1  0
 29 49  1  0
 30 50  1  0
 31 51  1  0
M  CHG  2  11  -1  28  -1
M  END
>  <UniqueID>  (31) 
31

>  <SMILES>  (31) 
CC(C)(C)OC(=O)n1c(C([NH-])=O)cc2ccc(-c3ccc(C=C(C#N)C(=O)[O-])cc3)cc21

>  <Energy>  (31) 
97.70008808051126

>  <Genealogy>  (31) 
CC(C)(C)OC(=O)n1c(C([NH-])=O)cc2ccc(-c3ccc(C=C(C#N)C(=O)[O-])cc3)cc21 (protonated)
CC(C)(C)OC(=O)n1c(C([NH-])=O)cc2ccc(-c3ccc(C=C(C#N)C(=O)[O-])cc3)cc21 (3D coordinates assigned)
CC(C)(C)OC(=O)n1c(C([NH-])=O)cc2ccc(-c3ccc(C=C(C#N)C(=O)[O-])cc3)cc21 (optimized conformer: 97.70008808051126 kcal/mol)

>  <smiles>  (31) 
CC(C)(C)OC(=O)n1c(C(N)=O)cc2ccc(-c3ccc(C=C(C#N)C(=O)O)cc3)cc21

>  <score_type>  (31) 
oracle

>  <origin>  (31) 
adg

>  <m_score__min__energy>  (31) 
-11.43

>  <m_primary>  (31) 
energy

$$$$
32:0
     RDKit          3D

 37 39  0  0  0  0  0  0  0  0999 V2000
   -9.6630   21.8550  -31.2850 C   0  0  0  0  0  0  0  0  0  0  0  0
   -8.5640   20.8970  -31.6380 C   0  0  0  0  0  0  0  0  0  0  0  0
   -8.8140   19.5020  -31.6470 C   0  0  0  0  0  0  0  0  0  0  0  0
   -7.8020   18.5960  -32.0040 C   0  0  0  0  0  0  0  0  0  0  0  0
   -6.5610   19.1140  -32.3640 C   0  0  0  0  0  0  0  0  0  0  0  0
   -5.4010   18.4680  -32.7340 C   0  0  0  0  0  0  0  0  0  0  0  0
   -4.4770   19.4830  -32.9760 C   0  0  0  0  0  0  0  0  0  0  0  0
   -3.0970   19.2350  -33.4460 C   0  0  0  0  0  0  0  0  0  0  0  0
   -2.3790   20.2150  -34.1970 N   0  0  0  0  0  0  0  0  0  0  0  0
   -2.5530   18.1260  -33.2050 O   0  0  0  0  0  0  0  0  0  0  0  0
   -5.0370   20.7030  -32.7490 N   0  0  0  0  0  0  0  0  0  0  0  0
   -4.3940   21.9860  -32.7750 C   0  0  0  0  0  0  0  0  0  0  0  0
   -3.8460   22.3770  -33.8420 O   0  0  0  0  0  0  0  0  0  0  0  0
   -4.3930   22.8350  -31.6110 N   0  0  0  0  0  0  0  0  0  0  0  0
   -3.5210   22.5320  -30.4680 C   0  0  0  0  0  0  0  0  0  0  0  0
   -2.7140   23.7730  -30.1090 C   0  0  0  0  0  0  0  0  0  0  0  0
   -3.6080   24.9040  -29.8960 N   0  0  0  0  0  0  0  0  0  0  0  0
   -4.8160   25.0650  -30.6440 C   0  0  0  0  0  0  0  0  0  0  0  0
   -5.4770   26.1300  -30.5280 O   0  0  0  0  0  0  0  0  0  0  0  0
   -5.3370   23.9600  -31.5220 C   0  0  0  0  0  0  0  0  0  0  0  0
   -6.3130   20.4620  -32.3830 C   0  0  0  0  0  0  0  0  0  0  0  0
   -7.2960   21.3860  -32.0180 C   0  0  0  0  0  0  0  0  0  0  0  0
   -9.7477   21.9288  -30.1907 H   0  0  0  0  0  0  0  0  0  0  0  0
   -9.4335   22.8464  -31.7027 H   0  0  0  0  0  0  0  0  0  0  0  0
  -10.6138   21.4923  -31.7027 H   0  0  0  0  0  0  0  0  0  0  0  0
   -9.8102   19.1253  -31.3717 H   0  0  0  0  0  0  0  0  0  0  0  0
   -7.9842   17.5112  -31.9993 H   0  0  0  0  0  0  0  0  0  0  0  0
   -5.2391   17.3834  -32.8199 H   0  0  0  0  0  0  0  0  0  0  0  0
   -1.3780   20.0500  -34.4470 H   0  0  0  0  0  0  0  0  0  0  0  0
   -2.8570   21.0520  -34.5940 H   0  0  0  0  0  0  0  0  0  0  0  0
   -4.1353   22.2310  -29.6066 H   0  0  0  0  0  0  0  0  0  0  0  0
   -2.8378   21.7114  -30.7325 H   0  0  0  0  0  0  0  0  0  0  0  0
   -2.1422   23.5822  -29.1889 H   0  0  0  0  0  0  0  0  0  0  0  0
   -2.0253   24.0073  -30.9341 H   0  0  0  0  0  0  0  0  0  0  0  0
   -6.2873   23.5941  -31.1060 H   0  0  0  0  0  0  0  0  0  0  0  0
   -5.4763   24.3675  -32.5342 H   0  0  0  0  0  0  0  0  0  0  0  0
   -7.0868   22.4659  -32.0267 H   0  0  0  0  0  0  0  0  0  0  0  0
  1  2  1  0
  2  3  2  0
  3  4  1  0
  4  5  2  0
  5  6  1  0
  6  7  2  0
  7  8  1  0
  8  9  1  0
  8 10  2  0
  7 11  1  0
 11 12  1  0
 12 13  2  0
 12 14  1  0
 14 15  1  0
 15 16  1  0
 16 17  1  0
 17 18  1  0
 18 19  2  0
 18 20  1  0
 11 21  1  0
 21 22  2  0
 22  2  1  0
 21  5  1  0
 20 14  1  0
  1 23  1  0
  1 24  1  0
  1 25  1  0
  3 26  1  0
  4 27  1  0
  6 28  1  0
  9 29  1  0
  9 30  1  0
 15 31  1  0
 15 32  1  0
 16 33  1  0
 16 34  1  0
 20 35  1  0
 20 36  1  0
 22 37  1  0
M  CHG  1  17  -1
M  END
>  <UniqueID>  (32) 
32

>  <SMILES>  (32) 
Cc1ccc2cc(C(N)=O)n(C(=O)N3CC[N-]C(=O)C3)c2c1

>  <Energy>  (32) 
78.0620618677004

>  <Genealogy>  (32) 
Cc1ccc2cc(C(N)=O)n(C(=O)N3CC[N-]C(=O)C3)c2c1 (protonated)
Cc1ccc2cc(C(N)=O)n(C(=O)N3CC[N-]C(=O)C3)c2c1 (3D coordinates assigned)
Cc1ccc2cc(C(N)=O)n(C(=O)N3CC[N-]C(=O)C3)c2c1 (nonaromatic ring conformer: 78.0620618677004 kcal/mol)

>  <smiles>  (32) 
Cc1ccc2cc(C(N)=O)n(C(=O)N3CCNC(=O)C3)c2c1

>  <score_type>  (32) 
oracle

>  <origin>  (32) 
adg

>  <m_score__min__energy>  (32) 
-9.25

>  <m_primary>  (32) 
energy

$$$$
33:0
     RDKit          3D

 32 33  0  0  0  0  0  0  0  0999 V2000
   -6.1420   24.1000  -30.6590 N   0  0  0  0  0  0  0  0  0  0  0  0
   -7.1840   23.3400  -31.2740 C   0  0  0  0  0  0  0  0  0  0  0  0
   -8.2570   23.9150  -31.6020 O   0  0  0  0  0  0  0  0  0  0  0  0
   -7.0010   21.9100  -31.5910 C   0  0  0  0  0  0  0  0  0  0  0  0
   -8.0360   20.9800  -31.5560 C   0  0  0  0  0  0  0  0  0  0  0  0
   -7.4740   19.7970  -31.9790 C   0  0  0  0  0  0  0  0  0  0  0  0
   -8.0470   18.5380  -32.1290 C   0  0  0  0  0  0  0  0  0  0  0  0
   -7.2210   17.4840  -32.5520 C   0  0  0  0  0  0  0  0  0  0  0  0
   -5.8420   17.7000  -32.7920 C   0  0  0  0  0  0  0  0  0  0  0  0
   -4.9760   16.5710  -33.2650 C   0  0  0  0  0  0  0  0  0  0  0  0
   -4.9770   15.5610  -32.3210 F   0  0  0  0  0  0  0  0  0  0  0  0
   -5.2960   18.9940  -32.6420 C   0  0  0  0  0  0  0  0  0  0  0  0
   -6.1470   20.0320  -32.2410 C   0  0  0  0  0  0  0  0  0  0  0  0
   -5.8410   21.3270  -32.0040 N   0  0  0  0  0  0  0  0  0  0  0  0
   -4.5360   21.9250  -32.0630 C   0  0  0  0  0  0  0  0  0  0  0  0
   -4.0440   22.2530  -33.1770 O   0  0  0  0  0  0  0  0  0  0  0  0
   -3.8210   22.1520  -30.8810 O   0  0  0  0  0  0  0  0  0  0  0  0
   -2.7430   23.0780  -30.7760 C   0  0  0  0  0  0  0  0  0  0  0  0
   -3.2590   24.5510  -29.8410 P   0  0  0  0  0  0  0  0  0  0  0  0
   -4.1300   24.1250  -28.6800 O   0  0  0  0  0  0  0  0  0  0  0  0
   -4.1340   25.5990  -30.8380 O   0  0  0  0  0  0  0  0  0  0  0  0
   -1.8910   25.3500  -29.2500 O   0  0  0  0  0  0  0  0  0  0  0  0
   -5.1850   23.7020  -30.5410 H   0  0  0  0  0  0  0  0  0  0  0  0
   -6.3040   25.0990  -30.4020 H   0  0  0  0  0  0  0  0  0  0  0  0
   -9.0796   21.1534  -31.2548 H   0  0  0  0  0  0  0  0  0  0  0  0
   -9.1148   18.3732  -31.9225 H   0  0  0  0  0  0  0  0  0  0  0  0
   -7.6490   16.4813  -32.6983 H   0  0  0  0  0  0  0  0  0  0  0  0
   -5.3673   16.1831  -34.2171 H   0  0  0  0  0  0  0  0  0  0  0  0
   -3.9481   16.9345  -33.4111 H   0  0  0  0  0  0  0  0  0  0  0  0
   -4.2295   19.1819  -32.8352 H   0  0  0  0  0  0  0  0  0  0  0  0
   -1.9010   22.5963  -30.2573 H   0  0  0  0  0  0  0  0  0  0  0  0
   -2.4385   23.3864  -31.7870 H   0  0  0  0  0  0  0  0  0  0  0  0
  1  2  1  0
  2  3  2  0
  2  4  1  0
  4  5  2  0
  5  6  1  0
  6  7  2  0
  7  8  1  0
  8  9  2  0
  9 10  1  0
 10 11  1  0
  9 12  1  0
 12 13  2  0
 13 14  1  0
 14 15  1  0
 15 16  2  0
 15 17  1  0
 17 18  1  0
 18 19  1  0
 19 20  2  0
 19 21  1  0
 19 22  1  0
 14  4  1  0
 13  6  1  0
  1 23  1  0
  1 24  1  0
  5 25  1  0
  7 26  1  0
  8 27  1  0
 10 28  1  0
 10 29  1  0
 12 30  1  0
 18 31  1  0
 18 32  1  0
M  CHG  2  21  -1  22  -1
M  END
>  <UniqueID>  (33) 
33

>  <SMILES>  (33) 
NC(=O)c1cc2ccc(CF)cc2n1C(=O)OCP(=O)([O-])[O-]

>  <Energy>  (33) 
65.91718533087955

>  <Genealogy>  (33) 
NC(=O)c1cc2ccc(CF)cc2n1C(=O)OCP(=O)([O-])[O-] (protonated)
NC(=O)c1cc2ccc(CF)cc2n1C(=O)OCP(=O)([O-])[O-] (3D coordinates assigned)
NC(=O)c1cc2ccc(CF)cc2n1C(=O)OCP(=O)([O-])[O-] (optimized conformer: 65.91718533087955 kcal/mol)

>  <smiles>  (33) 
NC(=O)c1cc2ccc(CF)cc2n1C(=O)OCP(=O)(O)O

>  <score_type>  (33) 
oracle

>  <origin>  (33) 
adg

>  <m_score__min__energy>  (33) 
-11.42

>  <m_primary>  (33) 
energy

$$$$
34:0
     RDKit          3D

 29 30  0  0  0  0  0  0  0  0999 V2000
   -3.6960   22.2620  -28.7750 C   0  0  0  0  0  0  0  0  0  0  0  0
   -3.1580   22.5440  -29.9700 C   0  0  0  0  0  0  0  0  0  0  0  0
   -1.7560   23.0070  -30.0670 C   0  0  0  0  0  0  0  0  0  0  0  0
   -1.3910   24.1040  -29.5660 O   0  0  0  0  0  0  0  0  0  0  0  0
   -3.9650   22.4180  -31.2100 C   0  0  0  0  0  0  0  0  0  0  0  0
   -3.4230   21.9980  -32.2680 O   0  0  0  0  0  0  0  0  0  0  0  0
   -5.3610   22.7610  -31.2300 N   0  0  0  0  0  0  0  0  0  0  0  0
   -5.9240   23.9680  -30.9490 C   0  0  0  0  0  0  0  0  0  0  0  0
   -5.2040   25.1590  -30.4530 C   0  0  0  0  0  0  0  0  0  0  0  0
   -3.8630   25.4040  -30.8690 N   0  0  0  0  0  0  0  0  0  0  0  0
   -5.7670   25.9750  -29.6760 O   0  0  0  0  0  0  0  0  0  0  0  0
   -7.3030   23.9200  -31.1490 C   0  0  0  0  0  0  0  0  0  0  0  0
   -7.5660   22.6360  -31.5730 C   0  0  0  0  0  0  0  0  0  0  0  0
   -8.7700   22.0380  -31.9340 C   0  0  0  0  0  0  0  0  0  0  0  0
   -8.7380   20.6980  -32.3570 C   0  0  0  0  0  0  0  0  0  0  0  0
   -7.5130   19.9910  -32.4200 C   0  0  0  0  0  0  0  0  0  0  0  0
   -7.4920   18.6320  -32.8610 N   0  0  0  0  0  0  0  0  0  0  0  0
   -6.3110   20.6300  -32.0490 C   0  0  0  0  0  0  0  0  0  0  0  0
   -6.3750   21.9590  -31.6180 C   0  0  0  0  0  0  0  0  0  0  0  0
   -4.7388   21.9182  -28.7086 H   0  0  0  0  0  0  0  0  0  0  0  0
   -3.0947   22.3744  -27.8608 H   0  0  0  0  0  0  0  0  0  0  0  0
   -1.0168   22.3803  -30.5874 H   0  0  0  0  0  0  0  0  0  0  0  0
   -3.0660   25.2970  -30.2030 H   0  0  0  0  0  0  0  0  0  0  0  0
   -8.0272   24.7345  -30.9999 H   0  0  0  0  0  0  0  0  0  0  0  0
   -9.7166   22.5965  -31.8896 H   0  0  0  0  0  0  0  0  0  0  0  0
   -9.6733   20.1940  -32.6417 H   0  0  0  0  0  0  0  0  0  0  0  0
   -6.8100   17.9500  -32.4590 H   0  0  0  0  0  0  0  0  0  0  0  0
   -8.1580   18.2970  -33.5920 H   0  0  0  0  0  0  0  0  0  0  0  0
   -5.3497   20.0974  -32.0974 H   0  0  0  0  0  0  0  0  0  0  0  0
  1  2  2  0
  2  3  1  0
  3  4  2  0
  2  5  1  0
  5  6  2  0
  5  7  1  0
  7  8  1  0
  8  9  1  0
  9 10  1  0
  9 11  2  0
  8 12  2  0
 12 13  1  0
 13 14  2  0
 14 15  1  0
 15 16  2  0
 16 17  1  0
 16 18  1  0
 18 19  2  0
 19  7  1  0
 19 13  1  0
  1 20  1  0
  1 21  1  0
  3 22  1  0
 10 23  1  0
 12 24  1  0
 14 25  1  0
 15 26  1  0
 17 27  1  0
 17 28  1  0
 18 29  1  0
M  CHG  1  10  -1
M  END
>  <UniqueID>  (34) 
34

>  <SMILES>  (34) 
C=C(C=O)C(=O)n1c(C([NH-])=O)cc2ccc(N)cc21

>  <Energy>  (34) 
68.21467705486968

>  <Genealogy>  (34) 
C=C(C=O)C(=O)n1c(C([NH-])=O)cc2ccc(N)cc21 (protonated)
C=C(C=O)C(=O)n1c(C([NH-])=O)cc2ccc(N)cc21 (3D coordinates assigned)
C=C(C=O)C(=O)n1c(C([NH-])=O)cc2ccc(N)cc21 (optimized conformer: 68.21467705486968 kcal/mol)

>  <smiles>  (34) 
C=C(C=O)C(=O)n1c(C(N)=O)cc2ccc(N)cc21

>  <score_type>  (34) 
oracle

>  <origin>  (34) 
adg

>  <m_score__min__energy>  (34) 
-9.3200000000000003

>  <m_primary>  (34) 
energy

$$$$
35:0
     RDKit          3D

 44 46  0  0  0  0  0  0  0  0999 V2000
   -7.1640   18.3970  -32.6160 C   0  0  0  0  0  0  0  0  0  0  0  0
   -7.3260   19.8170  -32.1640 C   0  0  0  0  0  0  0  0  0  0  0  0
   -8.6050   20.4290  -32.1780 C   0  0  0  0  0  0  0  0  0  0  0  0
   -8.7580   21.7750  -31.8020 C   0  0  0  0  0  0  0  0  0  0  0  0
   -7.6190   22.4790  -31.4180 C   0  0  0  0  0  0  0  0  0  0  0  0
   -7.4710   23.7960  -31.0390 C   0  0  0  0  0  0  0  0  0  0  0  0
   -6.1060   23.9590  -30.8030 C   0  0  0  0  0  0  0  0  0  0  0  0
   -5.4950   25.2210  -30.3370 C   0  0  0  0  0  0  0  0  0  0  0  0
   -4.2380   25.6590  -30.8460 N   0  0  0  0  0  0  0  0  0  0  0  0
   -6.0770   25.9100  -29.4570 O   0  0  0  0  0  0  0  0  0  0  0  0
   -5.4450   22.7880  -31.0100 N   0  0  0  0  0  0  0  0  0  0  0  0
   -4.0280   22.5760  -31.0150 C   0  0  0  0  0  0  0  0  0  0  0  0
   -3.3430   23.0990  -31.9360 O   0  0  0  0  0  0  0  0  0  0  0  0
   -3.3830   21.7800  -29.9920 N   0  0  0  0  0  0  0  0  0  0  0  0
   -2.6380   20.5690  -30.3740 C   0  0  0  0  0  0  0  0  0  0  0  0
   -1.2590   20.9040  -30.8570 C   0  0  0  0  0  0  0  0  0  0  0  0
   -0.9770   20.8400  -32.0820 O   0  0  0  0  0  0  0  0  0  0  0  0
   -0.2870   21.3100  -29.9510 O   0  0  0  0  0  0  0  0  0  0  0  0
   -3.5340   22.1230  -28.5670 C   0  0  0  0  0  0  0  0  0  0  0  0
   -2.5080   23.1450  -28.1540 C   0  0  0  0  0  0  0  0  0  0  0  0
   -1.7480   22.9650  -26.9860 C   0  0  0  0  0  0  0  0  0  0  0  0
   -0.8360   23.9450  -26.5800 C   0  0  0  0  0  0  0  0  0  0  0  0
   -0.6640   25.1000  -27.3450 C   0  0  0  0  0  0  0  0  0  0  0  0
   -1.3960   25.2750  -28.5230 C   0  0  0  0  0  0  0  0  0  0  0  0
   -1.2170   26.4190  -29.2910 O   0  0  0  0  0  0  0  0  0  0  0  0
   -2.3120   24.2980  -28.9300 C   0  0  0  0  0  0  0  0  0  0  0  0
   -6.3780   21.8970  -31.4020 C   0  0  0  0  0  0  0  0  0  0  0  0
   -6.1910   20.5680  -31.7870 C   0  0  0  0  0  0  0  0  0  0  0  0
   -7.0889   17.7389  -31.7377 H   0  0  0  0  0  0  0  0  0  0  0  0
   -8.0345   18.1032  -33.2210 H   0  0  0  0  0  0  0  0  0  0  0  0
   -6.2497   18.3068  -33.2210 H   0  0  0  0  0  0  0  0  0  0  0  0
   -9.4852   19.8455  -32.4858 H   0  0  0  0  0  0  0  0  0  0  0  0
   -9.7466   22.2573  -31.8108 H   0  0  0  0  0  0  0  0  0  0  0  0
   -8.2605   24.5559  -30.9432 H   0  0  0  0  0  0  0  0  0  0  0  0
   -3.4120   25.0200  -30.8560 H   0  0  0  0  0  0  0  0  0  0  0  0
   -2.5596   19.9064  -29.4995 H   0  0  0  0  0  0  0  0  0  0  0  0
   -3.1803   20.0731  -31.1926 H   0  0  0  0  0  0  0  0  0  0  0  0
   -4.5406   22.5336  -28.3991 H   0  0  0  0  0  0  0  0  0  0  0  0
   -3.3881   21.2128  -27.9667 H   0  0  0  0  0  0  0  0  0  0  0  0
   -1.8706   22.0497  -26.3884 H   0  0  0  0  0  0  0  0  0  0  0  0
   -0.2539   23.8054  -25.6571 H   0  0  0  0  0  0  0  0  0  0  0  0
    0.0481   25.8730  -27.0206 H   0  0  0  0  0  0  0  0  0  0  0  0
   -2.8805   24.4344  -29.8618 H   0  0  0  0  0  0  0  0  0  0  0  0
   -5.1872   20.1183  -31.7964 H   0  0  0  0  0  0  0  0  0  0  0  0
  1  2  1  0
  2  3  2  0
  3  4  1  0
  4  5  2  0
  5  6  1  0
  6  7  2  0
  7  8  1  0
  8  9  1  0
  8 10  2  0
  7 11  1  0
 11 12  1  0
 12 13  2  0
 12 14  1  0
 14 15  1  0
 15 16  1  0
 16 17  2  0
 16 18  1  0
 14 19  1  0
 19 20  1  0
 20 21  2  0
 21 22  1  0
 22 23  2  0
 23 24  1  0
 24 25  1  0
 24 26  2  0
 11 27  1  0
 27 28  2  0
 28  2  1  0
 27  5  1  0
 26 20  1  0
  1 29  1  0
  1 30  1  0
  1 31  1  0
  3 32  1  0
  4 33  1  0
  6 34  1  0
  9 35  1  0
 15 36  1  0
 15 37  1  0
 19 38  1  0
 19 39  1  0
 21 40  1  0
 22 41  1  0
 23 42  1  0
 26 43  1  0
 28 44  1  0
M  CHG  3   9  -1  18  -1  25  -1
M  END
>  <UniqueID>  (35) 
35

>  <SMILES>  (35) 
Cc1ccc2cc(C([NH-])=O)n(C(=O)N(CC(=O)[O-])Cc3cccc([O-])c3)c2c1

>  <Energy>  (35) 
80.96663158384735

>  <Genealogy>  (35) 
Cc1ccc2cc(C([NH-])=O)n(C(=O)N(CC(=O)[O-])Cc3cccc([O-])c3)c2c1 (protonated)
Cc1ccc2cc(C([NH-])=O)n(C(=O)N(CC(=O)[O-])Cc3cccc([O-])c3)c2c1 (3D coordinates assigned)
Cc1ccc2cc(C([NH-])=O)n(C(=O)N(CC(=O)[O-])Cc3cccc([O-])c3)c2c1 (optimized conformer: 80.96663158384735 kcal/mol)

>  <smiles>  (35) 
Cc1ccc2cc(C(N)=O)n(C(=O)N(CC(=O)O)Cc3cccc(O)c3)c2c1

>  <score_type>  (35) 
oracle

>  <origin>  (35) 
adg

>  <m_score__min__energy>  (35) 
-13.92

>  <m_primary>  (35) 
energy

$$$$
36:0
     RDKit          3D

 50 52  0  0  0  0  0  0  0  0999 V2000
   -4.8330   13.7500  -31.4540 N   0  0  0  0  0  0  0  0  0  0  0  0
   -3.9440   13.8960  -32.5620 C   0  0  0  0  0  0  0  0  0  0  0  0
   -3.7130   12.8970  -33.2930 O   0  0  0  0  0  0  0  0  0  0  0  0
   -3.3320   15.2080  -32.8760 C   0  0  0  0  0  0  0  0  0  0  0  0
   -1.9920   15.3770  -33.2210 C   0  0  0  0  0  0  0  0  0  0  0  0
   -1.8090   16.7360  -33.3270 C   0  0  0  0  0  0  0  0  0  0  0  0
   -0.6650   17.4620  -33.6370 C   0  0  0  0  0  0  0  0  0  0  0  0
   -0.7640   18.8630  -33.6780 C   0  0  0  0  0  0  0  0  0  0  0  0
   -2.0020   19.5110  -33.4340 C   0  0  0  0  0  0  0  0  0  0  0  0
   -2.0820   21.0150  -33.4420 C   0  0  0  0  0  0  0  0  0  0  0  0
   -1.8590   21.5210  -32.1730 F   0  0  0  0  0  0  0  0  0  0  0  0
   -3.3410   21.4010  -33.8660 F   0  0  0  0  0  0  0  0  0  0  0  0
   -1.1340   21.5540  -34.2950 F   0  0  0  0  0  0  0  0  0  0  0  0
   -3.1390   18.7370  -33.1000 C   0  0  0  0  0  0  0  0  0  0  0  0
   -3.0060   17.3430  -33.0510 C   0  0  0  0  0  0  0  0  0  0  0  0
   -3.9530   16.4200  -32.7760 N   0  0  0  0  0  0  0  0  0  0  0  0
   -5.3290   16.6770  -32.4530 C   0  0  0  0  0  0  0  0  0  0  0  0
   -5.7460   16.4970  -31.2760 O   0  0  0  0  0  0  0  0  0  0  0  0
   -6.2020   17.1340  -33.4440 O   0  0  0  0  0  0  0  0  0  0  0  0
   -6.3920   18.5170  -33.7250 C   0  0  0  0  0  0  0  0  0  0  0  0
   -6.5940   19.2320  -32.5090 O   0  0  0  0  0  0  0  0  0  0  0  0
   -7.8610   19.4050  -31.9440 C   0  0  0  0  0  0  0  0  0  0  0  0
   -8.7600   18.5350  -32.1150 O   0  0  0  0  0  0  0  0  0  0  0  0
   -8.1280   20.5630  -31.2070 O   0  0  0  0  0  0  0  0  0  0  0  0
   -8.3090   21.8440  -31.8080 C   0  0  0  0  0  0  0  0  0  0  0  0
   -7.1220   22.7250  -31.5180 C   0  0  0  0  0  0  0  0  0  0  0  0
   -7.2960   23.9270  -30.8170 C   0  0  0  0  0  0  0  0  0  0  0  0
   -6.1910   24.7170  -30.4880 C   0  0  0  0  0  0  0  0  0  0  0  0
   -4.8970   24.3160  -30.8370 C   0  0  0  0  0  0  0  0  0  0  0  0
   -3.8270   25.1390  -30.4560 O   0  0  0  0  0  0  0  0  0  0  0  0
   -2.6030   24.7020  -29.3260 P   0  0  0  0  0  0  0  0  0  0  0  0
   -3.2430   24.1850  -28.0570 O   0  0  0  0  0  0  0  0  0  0  0  0
   -1.6370   23.4870  -29.9970 O   0  0  0  0  0  0  0  0  0  0  0  0
   -1.6380   26.0430  -28.9670 O   0  0  0  0  0  0  0  0  0  0  0  0
   -4.7230   23.1100  -31.5440 C   0  0  0  0  0  0  0  0  0  0  0  0
   -5.8280   22.3220  -31.8790 C   0  0  0  0  0  0  0  0  0  0  0  0
   -5.0080   14.5330  -30.7870 H   0  0  0  0  0  0  0  0  0  0  0  0
   -5.3020   12.8340  -31.2770 H   0  0  0  0  0  0  0  0  0  0  0  0
   -1.2397   14.5896  -33.3758 H   0  0  0  0  0  0  0  0  0  0  0  0
    0.2890   16.9551  -33.8440 H   0  0  0  0  0  0  0  0  0  0  0  0
    0.1293   19.4645  -33.9020 H   0  0  0  0  0  0  0  0  0  0  0  0
   -4.1042   19.2184  -32.8840 H   0  0  0  0  0  0  0  0  0  0  0  0
   -5.5021   18.9114  -34.2373 H   0  0  0  0  0  0  0  0  0  0  0  0
   -7.2747   18.6393  -34.3698 H   0  0  0  0  0  0  0  0  0  0  0  0
   -8.4152   21.7235  -32.8962 H   0  0  0  0  0  0  0  0  0  0  0  0
   -9.2140   22.3115  -31.3928 H   0  0  0  0  0  0  0  0  0  0  0  0
   -8.3063   24.2494  -30.5249 H   0  0  0  0  0  0  0  0  0  0  0  0
   -6.3404   25.6641  -29.9489 H   0  0  0  0  0  0  0  0  0  0  0  0
   -3.7124   22.7867  -31.8340 H   0  0  0  0  0  0  0  0  0  0  0  0
   -5.6818   21.3806  -32.4288 H   0  0  0  0  0  0  0  0  0  0  0  0
  1  2  1  0
  2  3  2  0
  2  4  1  0
  4  5  2  0
  5  6  1  0
  6  7  2  0
  7  8  1  0
  8  9  2  0
  9 10  1  0
 10 11  1  0
 10 12  1  0
 10 13  1  0
  9 14  1  0
 14 15  2  0
 15 16  1  0
 16 17  1  0
 17 18  2  0
 17 19  1  0
 19 20  1  0
 20 21  1  0
 21 22  1  0
 22 23  2  0
 22 24  1  0
 24 25  1  0
 25 26  1  0
 26 27  2  0
 27 28  1  0
 28 29  2  0
 29 30  1  0
 30 31  1  0
 31 32  2  0
 31 33  1  0
 31 34  1  0
 29 35  1  0
 35 36  2  0
 16  4  1  0
 36 26  1  0
 15  6  1  0
  1 37  1  0
  1 38  1  0
  5 39  1  0
  7 40  1  0
  8 41  1  0
 14 42  1  0
 20 43  1  0
 20 44  1  0
 25 45  1  0
 25 46  1  0
 27 47  1  0
 28 48  1  0
 35 49  1  0
 36 50  1  0
M  CHG  2  33  -1  34  -1
M  END
>  <UniqueID>  (36) 
36

>  <SMILES>  (36) 
NC(=O)c1cc2ccc(C(F)(F)F)cc2n1C(=O)OCOC(=O)OCc1ccc(OP(=O)([O-])[O-])cc1

>  <Energy>  (36) 
81.4468670532855

>  <Genealogy>  (36) 
NC(=O)c1cc2ccc(C(F)(F)F)cc2n1C(=O)OCOC(=O)OCc1ccc(OP(=O)([O-])[O-])cc1 (protonated)
NC(=O)c1cc2ccc(C(F)(F)F)cc2n1C(=O)OCOC(=O)OCc1ccc(OP(=O)([O-])[O-])cc1 (3D coordinates assigned)
NC(=O)c1cc2ccc(C(F)(F)F)cc2n1C(=O)OCOC(=O)OCc1ccc(OP(=O)([O-])[O-])cc1 (optimized conformer: 81.4468670532855 kcal/mol)

>  <smiles>  (36) 
NC(=O)c1cc2ccc(C(F)(F)F)cc2n1C(=O)OCOC(=O)OCc1ccc(OP(=O)(O)O)cc1

>  <score_type>  (36) 
oracle

>  <origin>  (36) 
adg

>  <m_score__min__energy>  (36) 
-11.43

>  <m_primary>  (36) 
energy

$$$$
37:0
     RDKit          3D

 34 35  0  0  0  0  0  0  0  0999 V2000
   -6.1900   18.4670  -32.5340 C   0  0  0  0  0  0  0  0  0  0  0  0
   -6.5970   19.8540  -32.1360 C   0  0  0  0  0  0  0  0  0  0  0  0
   -7.9440   20.2700  -32.2850 C   0  0  0  0  0  0  0  0  0  0  0  0
   -8.3320   21.5760  -31.9420 C   0  0  0  0  0  0  0  0  0  0  0  0
   -7.3500   22.4470  -31.4780 C   0  0  0  0  0  0  0  0  0  0  0  0
   -7.4510   23.7500  -31.0440 C   0  0  0  0  0  0  0  0  0  0  0  0
   -6.1590   24.1160  -30.6700 C   0  0  0  0  0  0  0  0  0  0  0  0
   -5.7980   25.4520  -30.1500 C   0  0  0  0  0  0  0  0  0  0  0  0
   -4.5240   26.0130  -30.4570 N   0  0  0  0  0  0  0  0  0  0  0  0
   -6.5980   26.0990  -29.4250 O   0  0  0  0  0  0  0  0  0  0  0  0
   -5.2920   23.0870  -30.8830 N   0  0  0  0  0  0  0  0  0  0  0  0
   -3.8960   23.0350  -30.5550 C   0  0  0  0  0  0  0  0  0  0  0  0
   -3.1020   23.8480  -31.0950 O   0  0  0  0  0  0  0  0  0  0  0  0
   -3.3860   22.0920  -29.6030 N   0  0  0  0  0  0  0  0  0  0  0  0
   -2.2390   22.3130  -28.7260 C   0  0  0  0  0  0  0  0  0  0  0  0
   -2.2960   23.7140  -28.0950 C   0  0  2  0  0  0  0  0  0  0  0  0
   -3.5720   24.2870  -28.2350 O   0  0  0  0  0  0  0  0  0  0  0  0
   -1.2540   24.6140  -28.7010 C   0  0  0  0  0  0  0  0  0  0  0  0
   -1.5990   25.6610  -29.3100 O   0  0  0  0  0  0  0  0  0  0  0  0
    0.0950   24.2950  -28.5980 O   0  0  0  0  0  0  0  0  0  0  0  0
   -6.0380   22.0680  -31.3600 C   0  0  0  0  0  0  0  0  0  0  0  0
   -5.6270   20.7690  -31.6730 C   0  0  0  0  0  0  0  0  0  0  0  0
   -6.0129   17.8636  -31.6315 H   0  0  0  0  0  0  0  0  0  0  0  0
   -6.9910   18.0070  -33.1313 H   0  0  0  0  0  0  0  0  0  0  0  0
   -5.2674   18.5128  -33.1313 H   0  0  0  0  0  0  0  0  0  0  0  0
   -8.6926   19.5635  -32.6729 H   0  0  0  0  0  0  0  0  0  0  0  0
   -9.3788   21.9002  -32.0371 H   0  0  0  0  0  0  0  0  0  0  0  0
   -8.3585   24.3702  -31.0015 H   0  0  0  0  0  0  0  0  0  0  0  0
   -3.6600   25.6810  -29.9710 H   0  0  0  0  0  0  0  0  0  0  0  0
   -2.2451   21.5571  -27.9269 H   0  0  0  0  0  0  0  0  0  0  0  0
   -1.3183   22.2322  -29.3225 H   0  0  0  0  0  0  0  0  0  0  0  0
   -2.0866   23.6025  -27.0209 H   0  0  0  0  0  0  0  0  0  0  0  0
   -3.6040   24.7410  -29.1170 H   0  0  0  0  0  0  0  0  0  0  0  0
   -4.5750   20.4677  -31.5614 H   0  0  0  0  0  0  0  0  0  0  0  0
  1  2  1  0
  2  3  2  0
  3  4  1  0
  4  5  2  0
  5  6  1  0
  6  7  2  0
  7  8  1  0
  8  9  1  0
  8 10  2  0
  7 11  1  0
 11 12  1  0
 12 13  2  0
 12 14  1  0
 14 15  1  0
 15 16  1  0
 16 17  1  0
 16 18  1  0
 18 19  2  0
 18 20  1  0
 11 21  1  0
 21 22  2  0
 22  2  1  0
 21  5  1  0
  1 23  1  0
  1 24  1  0
  1 25  1  0
  3 26  1  0
  4 27  1  0
  6 28  1  0
  9 29  1  0
 15 30  1  0
 15 31  1  0
 16 32  1  1
 17 33  1  0
 22 34  1  0
M  CHG  3   9  -1  14  -1  20  -1
M  END
>  <UniqueID>  (37) 
37

>  <SMILES>  (37) 
Cc1ccc2cc(C([NH-])=O)n(C(=O)[N-]C[C@H](O)C(=O)[O-])c2c1

>  <Energy>  (37) 
70.19623586734059

>  <Genealogy>  (37) 
Cc1ccc2cc(C([NH-])=O)n(C(=O)[N-]CC(O)C(=O)[O-])c2c1 (protonated)
Cc1ccc2cc(C([NH-])=O)n(C(=O)[N-]C[C@H](O)C(=O)[O-])c2c1 (chirality)
Cc1ccc2cc(C([NH-])=O)n(C(=O)[N-]C[C@H](O)C(=O)[O-])c2c1 (3D coordinates assigned)
Cc1ccc2cc(C([NH-])=O)n(C(=O)[N-]C[C@H](O)C(=O)[O-])c2c1 (optimized conformer: 70.19623586734059 kcal/mol)

>  <smiles>  (37) 
Cc1ccc2cc(C(N)=O)n(C(=O)NCC(O)C(=O)O)c2c1

>  <score_type>  (37) 
oracle

>  <origin>  (37) 
adg

>  <m_score__min__energy>  (37) 
-12.640000000000001

>  <m_primary>  (37) 
energy

$$$$
39:0
     RDKit          3D

 42 44  0  0  0  0  0  0  0  0999 V2000
   -3.9900   25.6740  -30.8570 N   0  0  0  0  0  0  0  0  0  0  0  0
   -5.2330   25.0640  -30.5140 C   0  0  0  0  0  0  0  0  0  0  0  0
   -6.0350   25.6800  -29.7640 O   0  0  0  0  0  0  0  0  0  0  0  0
   -5.5550   23.7130  -31.0200 C   0  0  0  0  0  0  0  0  0  0  0  0
   -6.7640   23.3830  -31.6290 C   0  0  0  0  0  0  0  0  0  0  0  0
   -6.6380   22.0640  -32.0010 C   0  0  0  0  0  0  0  0  0  0  0  0
   -7.5480   21.2180  -32.6270 C   0  0  0  0  0  0  0  0  0  0  0  0
   -7.1590   19.8880  -32.8600 C   0  0  0  0  0  0  0  0  0  0  0  0
   -5.8760   19.4290  -32.4660 C   0  0  0  0  0  0  0  0  0  0  0  0
   -5.4920   18.0580  -32.6890 N   0  0  0  0  0  0  0  0  0  0  0  0
   -6.4580   16.9640  -32.5340 C   0  0  0  0  0  0  0  0  0  0  0  0
   -6.5030   16.1010  -33.8110 C   0  0  0  0  0  0  0  0  0  0  0  0
   -5.2360   16.0970  -34.5730 N   0  0  0  0  0  0  0  0  0  0  0  0
   -4.0620   16.3300  -33.7220 C   0  0  0  0  0  0  0  0  0  0  0  0
   -4.1200   17.7320  -33.0970 C   0  0  0  0  0  0  0  0  0  0  0  0
   -4.9860   20.3170  -31.8220 C   0  0  0  0  0  0  0  0  0  0  0  0
   -5.3920   21.6390  -31.6200 C   0  0  0  0  0  0  0  0  0  0  0  0
   -4.7130   22.6400  -31.0170 N   0  0  0  0  0  0  0  0  0  0  0  0
   -3.4010   22.5610  -30.4370 C   0  0  0  0  0  0  0  0  0  0  0  0
   -2.4990   21.9070  -31.0270 O   0  0  0  0  0  0  0  0  0  0  0  0
   -3.1250   23.1580  -29.0870 C   0  0  0  0  0  0  0  0  0  0  0  0
   -1.4920   23.9650  -29.0320 P   0  0  1  0  0  0  0  0  0  0  0  0
   -0.6020   23.3550  -30.0910 O   0  0  0  0  0  0  0  0  0  0  0  0
   -1.6690   25.6190  -29.3400 O   0  0  0  0  0  0  0  0  0  0  0  0
   -0.7840   23.7520  -27.5110 O   0  0  0  0  0  0  0  0  0  0  0  0
   -3.0860   25.2700  -30.5270 H   0  0  0  0  0  0  0  0  0  0  0  0
   -7.6347   24.0380  -31.7804 H   0  0  0  0  0  0  0  0  0  0  0  0
   -8.5417   21.5793  -32.9303 H   0  0  0  0  0  0  0  0  0  0  0  0
   -7.8569   19.1954  -33.3532 H   0  0  0  0  0  0  0  0  0  0  0  0
   -6.1598   16.3353  -31.6821 H   0  0  0  0  0  0  0  0  0  0  0  0
   -7.4559   17.3918  -32.3574 H   0  0  0  0  0  0  0  0  0  0  0  0
   -6.7372   15.0658  -33.5220 H   0  0  0  0  0  0  0  0  0  0  0  0
   -7.2701   16.5387  -34.4668 H   0  0  0  0  0  0  0  0  0  0  0  0
   -5.2750   16.8540  -35.2970 H   0  0  0  0  0  0  0  0  0  0  0  0
   -4.0408   15.5770  -32.9204 H   0  0  0  0  0  0  0  0  0  0  0  0
   -3.1546   16.2529  -34.3390 H   0  0  0  0  0  0  0  0  0  0  0  0
   -3.4634   17.7623  -32.2150 H   0  0  0  0  0  0  0  0  0  0  0  0
   -3.7871   18.4679  -33.8438 H   0  0  0  0  0  0  0  0  0  0  0  0
   -3.9954   19.9756  -31.4870 H   0  0  0  0  0  0  0  0  0  0  0  0
   -3.9003   23.9052  -28.8617 H   0  0  0  0  0  0  0  0  0  0  0  0
   -3.1334   22.3471  -28.3438 H   0  0  0  0  0  0  0  0  0  0  0  0
   -1.2160   22.9420  -27.1410 H   0  0  0  0  0  0  0  0  0  0  0  0
  1  2  1  0
  2  3  2  0
  2  4  1  0
  4  5  2  0
  5  6  1  0
  6  7  2  0
  7  8  1  0
  8  9  2  0
  9 10  1  0
 10 11  1  0
 11 12  1  0
 12 13  1  0
 13 14  1  0
 14 15  1  0
  9 16  1  0
 16 17  2  0
 17 18  1  0
 18 19  1  0
 19 20  2  0
 19 21  1  0
 21 22  1  0
 22 23  2  0
 22 24  1  6
 22 25  1  0
 18  4  1  0
 17  6  1  0
 15 10  1  0
  1 26  1  0
  5 27  1  0
  7 28  1  0
  8 29  1  0
 11 30  1  0
 11 31  1  0
 12 32  1  0
 12 33  1  0
 13 34  1  0
 14 35  1  0
 14 36  1  0
 15 37  1  0
 15 38  1  0
 16 39  1  0
 21 40  1  0
 21 41  1  0
 25 42  1  0
M  CHG  2   1  -1  24  -1
M  END
>  <UniqueID>  (38) 
38

>  <SMILES>  (38) 
[NH-]C(=O)c1cc2ccc(N3CCNCC3)cc2n1C(=O)C[P@@](=O)([O-])O

>  <Energy>  (38) 
85.05719069824596

>  <Genealogy>  (38) 
[NH-]C(=O)c1cc2ccc(N3CCNCC3)cc2n1C(=O)CP(=O)([O-])O (protonated)
[NH-]C(=O)c1cc2ccc(N3CCNCC3)cc2n1C(=O)C[P@@](=O)([O-])O (chirality)
[NH-]C(=O)c1cc2ccc(N3CCNCC3)cc2n1C(=O)C[P@@](=O)([O-])O (3D coordinates assigned)
[NH-]C(=O)c1cc2ccc(N3CCNCC3)cc2n1C(=O)C[P@@](=O)([O-])O (nonaromatic ring conformer: 85.05719069824596 kcal/mol)

>  <smiles>  (38) 
NC(=O)c1cc2ccc(N3CCNCC3)cc2n1C(=O)CP(=O)(O)O

>  <score_type>  (38) 
oracle

>  <origin>  (38) 
adg

>  <m_score__min__energy>  (38) 
-12.609999999999999

>  <m_primary>  (38) 
energy

$$$$
40:0
     RDKit          3D

 36 37  0  0  0  0  0  0  0  0999 V2000
   -3.9630   25.6560  -30.8270 N   0  0  0  0  0  0  0  0  0  0  0  0
   -5.2310   25.1320  -30.4400 C   0  0  0  0  0  0  0  0  0  0  0  0
   -5.8960   25.7250  -29.5480 O   0  0  0  0  0  0  0  0  0  0  0  0
   -5.7470   23.8780  -31.0270 C   0  0  0  0  0  0  0  0  0  0  0  0
   -7.1050   23.5930  -31.1500 C   0  0  0  0  0  0  0  0  0  0  0  0
   -7.1640   22.3120  -31.6500 C   0  0  0  0  0  0  0  0  0  0  0  0
   -8.2660   21.5340  -31.9890 C   0  0  0  0  0  0  0  0  0  0  0  0
   -8.0310   20.2550  -32.5210 C   0  0  0  0  0  0  0  0  0  0  0  0
   -6.7080   19.7730  -32.6960 C   0  0  0  0  0  0  0  0  0  0  0  0
   -6.4690   18.4240  -33.3270 C   0  0  0  0  0  0  0  0  0  0  0  0
   -5.4400   17.7600  -32.6830 F   0  0  0  0  0  0  0  0  0  0  0  0
   -7.6070   17.6400  -33.2480 F   0  0  0  0  0  0  0  0  0  0  0  0
   -6.1320   18.5980  -34.6570 F   0  0  0  0  0  0  0  0  0  0  0  0
   -5.6140   20.6060  -32.3620 C   0  0  0  0  0  0  0  0  0  0  0  0
   -5.8790   21.8670  -31.8180 C   0  0  0  0  0  0  0  0  0  0  0  0
   -4.9950   22.8190  -31.4430 N   0  0  0  0  0  0  0  0  0  0  0  0
   -3.5660   22.7500  -31.5670 C   0  0  0  0  0  0  0  0  0  0  0  0
   -3.0470   22.0710  -32.4940 O   0  0  0  0  0  0  0  0  0  0  0  0
   -2.7350   23.4740  -30.6560 N   0  0  0  0  0  0  0  0  0  0  0  0
   -2.1560   22.8710  -29.4640 C   0  0  0  0  0  0  0  0  0  0  0  0
   -2.1190   23.9010  -28.3250 C   0  0  2  0  0  0  0  0  0  0  0  0
   -3.3220   24.6260  -28.2720 O   0  0  0  0  0  0  0  0  0  0  0  0
   -0.9170   24.8480  -28.4740 C   0  0  0  0  0  0  0  0  0  0  0  0
   -1.2420   25.9240  -29.3140 O   0  0  0  0  0  0  0  0  0  0  0  0
   -3.0820   25.3130  -30.3860 H   0  0  0  0  0  0  0  0  0  0  0  0
   -7.9501   24.2514  -30.9006 H   0  0  0  0  0  0  0  0  0  0  0  0
   -9.2902   21.9086  -31.8450 H   0  0  0  0  0  0  0  0  0  0  0  0
   -8.8829   19.6197  -32.8052 H   0  0  0  0  0  0  0  0  0  0  0  0
   -4.5796   20.2698  -32.5263 H   0  0  0  0  0  0  0  0  0  0  0  0
   -2.7669   22.0092  -29.1573 H   0  0  0  0  0  0  0  0  0  0  0  0
   -1.1313   22.5387  -29.6864 H   0  0  0  0  0  0  0  0  0  0  0  0
   -2.0028   23.3550  -27.3772 H   0  0  0  0  0  0  0  0  0  0  0  0
   -3.4380   25.0800  -29.1480 H   0  0  0  0  0  0  0  0  0  0  0  0
   -0.6350   25.2341  -27.4833 H   0  0  0  0  0  0  0  0  0  0  0  0
   -0.0775   24.2915  -28.9163 H   0  0  0  0  0  0  0  0  0  0  0  0
   -2.0770   25.6740  -29.7890 H   0  0  0  0  0  0  0  0  0  0  0  0
  1  2  1  0
  2  3  2  0
  2  4  1  0
  4  5  2  0
  5  6  1  0
  6  7  2  0
  7  8  1  0
  8  9  2  0
  9 10  1  0
 10 11  1  0
 10 12  1  0
 10 13  1  0
  9 14  1  0
 14 15  2  0
 15 16  1  0
 16 17  1  0
 17 18  2  0
 17 19  1  0
 19 20  1  0
 20 21  1  0
 21 22  1  0
 21 23  1  0
 23 24  1  0
 16  4  1  0
 15  6  1  0
  1 25  1  0
  5 26  1  0
  7 27  1  0
  8 28  1  0
 14 29  1  0
 20 30  1  0
 20 31  1  0
 21 32  1  1
 22 33  1  0
 23 34  1  0
 23 35  1  0
 24 36  1  0
M  CHG  2   1  -1  19  -1
M  END
>  <UniqueID>  (39) 
39

>  <SMILES>  (39) 
[NH-]C(=O)c1cc2ccc(C(F)(F)F)cc2n1C(=O)[N-]C[C@H](O)CO

>  <Energy>  (39) 
70.93958093089093

>  <Genealogy>  (39) 
[NH-]C(=O)c1cc2ccc(C(F)(F)F)cc2n1C(=O)[N-]CC(O)CO (protonated)
[NH-]C(=O)c1cc2ccc(C(F)(F)F)cc2n1C(=O)[N-]C[C@H](O)CO (chirality)
[NH-]C(=O)c1cc2ccc(C(F)(F)F)cc2n1C(=O)[N-]C[C@H](O)CO (3D coordinates assigned)
[NH-]C(=O)c1cc2ccc(C(F)(F)F)cc2n1C(=O)[N-]C[C@H](O)CO (optimized conformer: 70.93958093089093 kcal/mol)

>  <smiles>  (39) 
NC(=O)c1cc2ccc(C(F)(F)F)cc2n1C(=O)NCC(O)CO

>  <score_type>  (39) 
oracle

>  <origin>  (39) 
adg

>  <m_score__min__energy>  (39) 
-10.43

>  <m_primary>  (39) 
energy

$$$$
41:0
     RDKit          3D

 36 38  0  0  0  0  0  0  0  0999 V2000
   -3.9580   25.6510  -30.6350 N   0  0  0  0  0  0  0  0  0  0  0  0
   -5.2500   25.0430  -30.7320 C   0  0  0  0  0  0  0  0  0  0  0  0
   -6.2090   25.6990  -30.4510 O   0  0  0  0  0  0  0  0  0  0  0  0
   -5.5130   23.6070  -31.1270 C   0  0  0  0  0  0  0  0  0  0  0  0
   -6.8340   23.2320  -31.2980 C   0  0  0  0  0  0  0  0  0  0  0  0
   -6.8180   21.9280  -31.6790 C   0  0  0  0  0  0  0  0  0  0  0  0
   -7.9190   21.0970  -31.9710 C   0  0  0  0  0  0  0  0  0  0  0  0
   -7.6850   19.8030  -32.3410 C   0  0  0  0  0  0  0  0  0  0  0  0
   -6.3810   19.3370  -32.4240 C   0  0  0  0  0  0  0  0  0  0  0  0
   -6.1280   17.9630  -32.8120 C   0  0  0  0  0  0  0  0  0  0  0  0
   -6.4670   17.5090  -34.0920 C   0  0  0  0  0  0  0  0  0  0  0  0
   -6.2060   16.1800  -34.4390 C   0  0  0  0  0  0  0  0  0  0  0  0
   -5.6340   15.3360  -33.5560 N   0  0  0  0  0  0  0  0  0  0  0  0
   -5.2920   15.7430  -32.3070 C   0  0  0  0  0  0  0  0  0  0  0  0
   -5.5320   17.0630  -31.9080 C   0  0  0  0  0  0  0  0  0  0  0  0
   -5.2990   20.2020  -32.1230 C   0  0  0  0  0  0  0  0  0  0  0  0
   -5.5640   21.5440  -31.7390 C   0  0  0  0  0  0  0  0  0  0  0  0
   -4.7030   22.5730  -31.4010 N   0  0  0  0  0  0  0  0  0  0  0  0
   -3.2820   22.3700  -31.4150 C   0  0  0  0  0  0  0  0  0  0  0  0
   -2.7370   22.2830  -32.4640 O   0  0  0  0  0  0  0  0  0  0  0  0
   -2.3600   22.2750  -30.2150 C   0  0  0  0  0  0  0  0  0  0  0  0
   -2.5830   23.7010  -29.0830 P   0  0  0  0  0  0  0  0  0  0  0  0
   -3.9060   23.8980  -28.3770 O   0  0  0  0  0  0  0  0  0  0  0  0
   -1.5670   25.0340  -29.2060 O   0  0  0  0  0  0  0  0  0  0  0  0
   -3.4930   25.6740  -29.6930 H   0  0  0  0  0  0  0  0  0  0  0  0
   -7.7220   23.8650  -31.1539 H   0  0  0  0  0  0  0  0  0  0  0  0
   -8.9467   21.4833  -31.9022 H   0  0  0  0  0  0  0  0  0  0  0  0
   -8.5267   19.1336  -32.5721 H   0  0  0  0  0  0  0  0  0  0  0  0
   -6.9341   18.1911  -34.8177 H   0  0  0  0  0  0  0  0  0  0  0  0
   -6.4702   15.8185  -35.4438 H   0  0  0  0  0  0  0  0  0  0  0  0
   -4.8254   15.0342  -31.6071 H   0  0  0  0  0  0  0  0  0  0  0  0
   -5.2571   17.3947  -30.8959 H   0  0  0  0  0  0  0  0  0  0  0  0
   -4.2631   19.8373  -32.1862 H   0  0  0  0  0  0  0  0  0  0  0  0
   -2.5796   21.3463  -29.6679 H   0  0  0  0  0  0  0  0  0  0  0  0
   -1.3210   22.2797  -30.5762 H   0  0  0  0  0  0  0  0  0  0  0  0
   -2.0270   25.6760  -29.7890 H   0  0  0  0  0  0  0  0  0  0  0  0
  1  2  1  0
  2  3  2  0
  2  4  1  0
  4  5  2  0
  5  6  1  0
  6  7  2  0
  7  8  1  0
  8  9  2  0
  9 10  1  0
 10 11  2  0
 11 12  1  0
 12 13  2  0
 13 14  1  0
 14 15  2  0
  9 16  1  0
 16 17  2  0
 17 18  1  0
 18 19  1  0
 19 20  2  0
 19 21  1  0
 21 22  1  0
 22 23  2  0
 22 24  1  0
 18  4  1  0
 17  6  1  0
 15 10  1  0
  1 25  1  0
  5 26  1  0
  7 27  1  0
  8 28  1  0
 11 29  1  0
 12 30  1  0
 14 31  1  0
 15 32  1  0
 16 33  1  0
 21 34  1  0
 21 35  1  0
 24 36  1  0
M  CHG  2   1  -1  22   1
M  END
>  <UniqueID>  (40) 
40

>  <SMILES>  (40) 
[NH-]C(=O)c1cc2ccc(-c3ccncc3)cc2n1C(=O)C[P+](=O)O

>  <Energy>  (40) 
149.24874387845063

>  <Genealogy>  (40) 
[NH-]C(=O)c1cc2ccc(-c3ccncc3)cc2n1C(=O)C[P+](=O)O (protonated)
[NH-]C(=O)c1cc2ccc(-c3ccncc3)cc2n1C(=O)C[P+](=O)O (chirality)
[NH-]C(=O)c1cc2ccc(-c3ccncc3)cc2n1C(=O)C[P+](=O)O (3D coordinates assigned)
[NH-]C(=O)c1cc2ccc(-c3ccncc3)cc2n1C(=O)C[P+](=O)O (optimized conformer: 149.24874387845063 kcal/mol)

>  <smiles>  (40) 
NC(=O)c1cc2ccc(-c3ccncc3)cc2n1C(=O)C[P+](=O)O

>  <score_type>  (40) 
oracle

>  <origin>  (40) 
adg

>  <m_score__min__energy>  (40) 
-9.8300000000000001

>  <m_primary>  (40) 
energy

$$$$
42:0
     RDKit          3D

 56 57  0  0  0  0  0  0  0  0999 V2000
   -1.1450   26.4950  -26.4680 C   0  0  0  0  0  0  0  0  0  0  0  0
   -0.8480   27.0470  -27.8520 C   0  0  0  0  0  0  0  0  0  0  0  0
   -1.2810   26.1160  -28.8410 O   0  0  0  0  0  0  0  0  0  0  0  0
   -1.0750   24.7400  -28.7220 C   0  0  0  0  0  0  0  0  0  0  0  0
    0.0940   24.2660  -28.6990 O   0  0  0  0  0  0  0  0  0  0  0  0
   -2.1850   23.8980  -28.6450 O   0  0  0  0  0  0  0  0  0  0  0  0
   -2.2530   22.7830  -27.7620 C   0  0  0  0  0  0  0  0  0  0  0  0
   -1.3940   21.7680  -28.2280 O   0  0  0  0  0  0  0  0  0  0  0  0
   -1.6920   21.5040  -29.8910 P   0  0  2  0  0  0  0  0  0  0  0  0
   -1.2550   22.7200  -30.6840 O   0  0  0  0  0  0  0  0  0  0  0  0
   -3.4660   21.1830  -30.1950 C   0  0  0  0  0  0  0  0  0  0  0  0
   -4.0030   22.1000  -31.2550 C   0  0  0  0  0  0  0  0  0  0  0  0
   -3.2620   22.4690  -32.2070 O   0  0  0  0  0  0  0  0  0  0  0  0
   -5.3590   22.5590  -31.2010 N   0  0  0  0  0  0  0  0  0  0  0  0
   -5.8110   23.8120  -30.9030 C   0  0  0  0  0  0  0  0  0  0  0  0
   -4.9500   24.9840  -30.5970 C   0  0  0  0  0  0  0  0  0  0  0  0
   -3.5320   24.8460  -30.4640 N   0  0  0  0  0  0  0  0  0  0  0  0
   -5.4660   26.1290  -30.4490 O   0  0  0  0  0  0  0  0  0  0  0  0
   -7.2080   23.8240  -30.8900 C   0  0  0  0  0  0  0  0  0  0  0  0
   -7.5910   22.5320  -31.1800 C   0  0  0  0  0  0  0  0  0  0  0  0
   -8.8600   21.9720  -31.2870 C   0  0  0  0  0  0  0  0  0  0  0  0
   -8.9550   20.6030  -31.6020 C   0  0  0  0  0  0  0  0  0  0  0  0
   -7.7860   19.8240  -31.8160 C   0  0  0  0  0  0  0  0  0  0  0  0
   -7.8880   18.3500  -32.1280 C   0  0  0  0  0  0  0  0  0  0  0  0
   -9.1830   17.8890  -31.9510 F   0  0  0  0  0  0  0  0  0  0  0  0
   -7.0390   17.6460  -31.2870 F   0  0  0  0  0  0  0  0  0  0  0  0
   -7.5230   18.1120  -33.4420 F   0  0  0  0  0  0  0  0  0  0  0  0
   -6.5140   20.4260  -31.6620 C   0  0  0  0  0  0  0  0  0  0  0  0
   -6.4550   21.7900  -31.3550 C   0  0  0  0  0  0  0  0  0  0  0  0
   -0.7980   20.1240  -30.3620 O   0  0  0  0  0  0  0  0  0  0  0  0
   -1.0190   19.8570  -31.7280 C   0  0  0  0  0  0  0  0  0  0  0  0
   -0.2700   20.7750  -32.5220 O   0  0  0  0  0  0  0  0  0  0  0  0
   -0.6880   21.2000  -33.7850 C   0  0  0  0  0  0  0  0  0  0  0  0
   -1.8420   20.9110  -34.2140 O   0  0  0  0  0  0  0  0  0  0  0  0
    0.1940   21.9500  -34.5670 O   0  0  0  0  0  0  0  0  0  0  0  0
    0.3990   21.6900  -35.9520 C   0  0  0  0  0  0  0  0  0  0  0  0
   -0.7691   27.1937  -25.7061 H   0  0  0  0  0  0  0  0  0  0  0  0
   -2.2314   26.3714  -26.3479 H   0  0  0  0  0  0  0  0  0  0  0  0
   -0.6496   25.5203  -26.3479 H   0  0  0  0  0  0  0  0  0  0  0  0
   -1.3804   27.9999  -27.9881 H   0  0  0  0  0  0  0  0  0  0  0  0
    0.2346   27.2123  -27.9549 H   0  0  0  0  0  0  0  0  0  0  0  0
   -1.9422   23.0933  -26.7535 H   0  0  0  0  0  0  0  0  0  0  0  0
   -3.2851   22.4044  -27.7247 H   0  0  0  0  0  0  0  0  0  0  0  0
   -3.5922   20.1407  -30.5230 H   0  0  0  0  0  0  0  0  0  0  0  0
   -4.0202   21.3623  -29.2619 H   0  0  0  0  0  0  0  0  0  0  0  0
   -2.9510   25.6740  -30.2130 H   0  0  0  0  0  0  0  0  0  0  0  0
   -3.0430   23.9320  -30.6130 H   0  0  0  0  0  0  0  0  0  0  0  0
   -7.8644   24.6838  -30.6903 H   0  0  0  0  0  0  0  0  0  0  0  0
   -9.7626   22.5808  -31.1301 H   0  0  0  0  0  0  0  0  0  0  0  0
   -9.9453   20.1312  -31.6834 H   0  0  0  0  0  0  0  0  0  0  0  0
   -5.5936   19.8354  -31.7809 H   0  0  0  0  0  0  0  0  0  0  0  0
   -0.6993   18.8296  -31.9566 H   0  0  0  0  0  0  0  0  0  0  0  0
   -2.0899   19.9681  -31.9534 H   0  0  0  0  0  0  0  0  0  0  0  0
    1.0763   20.8310  -36.0675 H   0  0  0  0  0  0  0  0  0  0  0  0
   -0.5658   21.4630  -36.4292 H   0  0  0  0  0  0  0  0  0  0  0  0
    0.8448   22.5752  -36.4292 H   0  0  0  0  0  0  0  0  0  0  0  0
  1  2  1  0
  2  3  1  0
  3  4  1  0
  4  5  2  0
  4  6  1  0
  6  7  1  0
  7  8  1  0
  9  8  1  1
  9 10  2  0
  9 11  1  0
 11 12  1  0
 12 13  2  0
 12 14  1  0
 14 15  1  0
 15 16  1  0
 16 17  1  0
 16 18  2  0
 15 19  2  0
 19 20  1  0
 20 21  2  0
 21 22  1  0
 22 23  2  0
 23 24  1  0
 24 25  1  0
 24 26  1  0
 24 27  1  0
 23 28  1  0
 28 29  2  0
  9 30  1  0
 30 31  1  0
 31 32  1  0
 32 33  1  0
 33 34  2  0
 33 35  1  0
 35 36  1  0
 29 14  1  0
 29 20  1  0
  1 37  1  0
  1 38  1  0
  1 39  1  0
  2 40  1  0
  2 41  1  0
  7 42  1  0
  7 43  1  0
 11 44  1  0
 11 45  1  0
 17 46  1  0
 17 47  1  0
 19 48  1  0
 21 49  1  0
 22 50  1  0
 28 51  1  0
 31 52  1  0
 31 53  1  0
 36 54  1  0
 36 55  1  0
 36 56  1  0
M  END
>  <UniqueID>  (41) 
41

>  <SMILES>  (41) 
CCOC(=O)OCO[P@](=O)(CC(=O)n1c(C(N)=O)cc2ccc(C(F)(F)F)cc21)OCOC(=O)OC

>  <Energy>  (41) 
81.95754353031043

>  <Genealogy>  (41) 
CCOC(=O)OCO[P@](=O)(CC(=O)n1c(C(N)=O)cc2ccc(C(F)(F)F)cc21)OCOC(=O)OC (chirality)
CCOC(=O)OCO[P@](=O)(CC(=O)n1c(C(N)=O)cc2ccc(C(F)(F)F)cc21)OCOC(=O)OC (3D coordinates assigned)
CCOC(=O)OCO[P@](=O)(CC(=O)n1c(C(N)=O)cc2ccc(C(F)(F)F)cc21)OCOC(=O)OC (optimized conformer: 81.95754353031043 kcal/mol)

>  <smiles>  (41) 
CCOC(=O)OCOP(=O)(CC(=O)n1c(C(N)=O)cc2ccc(C(F)(F)F)cc21)OCOC(=O)OC

>  <score_type>  (41) 
oracle

>  <origin>  (41) 
adg

>  <m_score__min__energy>  (41) 
-8.2400000000000002

>  <m_primary>  (41) 
energy

$$$$
43:0
     RDKit          3D

 31 32  0  0  0  0  0  0  0  0999 V2000
   -5.7900   24.9900  -28.9730 N   0  0  0  0  0  0  0  0  0  0  0  0
   -6.0720   24.7280  -30.3490 C   0  0  0  0  0  0  0  0  0  0  0  0
   -6.0570   25.6840  -31.1700 O   0  0  0  0  0  0  0  0  0  0  0  0
   -6.4000   23.3610  -30.8120 C   0  0  0  0  0  0  0  0  0  0  0  0
   -7.6960   22.8550  -30.9260 C   0  0  0  0  0  0  0  0  0  0  0  0
   -7.5500   21.5970  -31.4670 C   0  0  0  0  0  0  0  0  0  0  0  0
   -8.5090   20.6450  -31.8000 C   0  0  0  0  0  0  0  0  0  0  0  0
   -8.0670   19.4230  -32.3350 C   0  0  0  0  0  0  0  0  0  0  0  0
   -6.6820   19.1650  -32.5090 C   0  0  0  0  0  0  0  0  0  0  0  0
   -6.2220   17.8670  -33.1210 C   0  0  0  0  0  0  0  0  0  0  0  0
   -7.2600   16.9520  -33.1640 F   0  0  0  0  0  0  0  0  0  0  0  0
   -5.1910   17.3160  -32.3810 F   0  0  0  0  0  0  0  0  0  0  0  0
   -5.7770   18.1020  -34.4080 F   0  0  0  0  0  0  0  0  0  0  0  0
   -5.7400   20.1700  -32.1850 C   0  0  0  0  0  0  0  0  0  0  0  0
   -6.2130   21.3790  -31.6640 C   0  0  0  0  0  0  0  0  0  0  0  0
   -5.4960   22.4490  -31.2650 N   0  0  0  0  0  0  0  0  0  0  0  0
   -4.0650   22.5510  -31.2670 C   0  0  0  0  0  0  0  0  0  0  0  0
   -3.4430   22.5930  -32.3620 O   0  0  0  0  0  0  0  0  0  0  0  0
   -3.2970   22.4890  -29.9820 C   0  0  0  0  0  0  0  0  0  0  0  0
   -2.9070   24.1710  -29.4150 P   0  0  0  0  0  0  0  0  0  0  0  0
   -3.5560   24.4240  -28.0740 O   0  0  0  0  0  0  0  0  0  0  0  0
   -1.2300   24.3350  -29.2670 O   0  0  0  0  0  0  0  0  0  0  0  0
   -3.4810   25.2970  -30.5390 O   0  0  0  0  0  0  0  0  0  0  0  0
   -5.5960   25.9660  -28.6560 H   0  0  0  0  0  0  0  0  0  0  0  0
   -5.7310   24.2200  -28.2720 H   0  0  0  0  0  0  0  0  0  0  0  0
   -8.6343   23.3548  -30.6437 H   0  0  0  0  0  0  0  0  0  0  0  0
   -9.5804   20.8431  -31.6490 H   0  0  0  0  0  0  0  0  0  0  0  0
   -8.8028   18.6575  -32.6223 H   0  0  0  0  0  0  0  0  0  0  0  0
   -4.6634   20.0048  -32.3389 H   0  0  0  0  0  0  0  0  0  0  0  0
   -3.9026   21.9778  -29.2191 H   0  0  0  0  0  0  0  0  0  0  0  0
   -2.3609   21.9349  -30.1452 H   0  0  0  0  0  0  0  0  0  0  0  0
  1  2  1  0
  2  3  2  0
  2  4  1  0
  4  5  2  0
  5  6  1  0
  6  7  2  0
  7  8  1  0
  8  9  2  0
  9 10  1  0
 10 11  1  0
 10 12  1  0
 10 13  1  0
  9 14  1  0
 14 15  2  0
 15 16  1  0
 16 17  1  0
 17 18  2  0
 17 19  1  0
 19 20  1  0
 20 21  2  0
 20 22  1  0
 20 23  1  0
 16  4  1  0
 15  6  1  0
  1 24  1  0
  1 25  1  0
  5 26  1  0
  7 27  1  0
  8 28  1  0
 14 29  1  0
 19 30  1  0
 19 31  1  0
M  CHG  2  22  -1  23  -1
M  END
>  <UniqueID>  (42) 
42

>  <SMILES>  (42) 
NC(=O)c1cc2ccc(C(F)(F)F)cc2n1C(=O)CP(=O)([O-])[O-]

>  <Energy>  (42) 
65.8609101159915

>  <Genealogy>  (42) 
NC(=O)c1cc2ccc(C(F)(F)F)cc2n1C(=O)CP(=O)([O-])[O-] (protonated)
NC(=O)c1cc2ccc(C(F)(F)F)cc2n1C(=O)CP(=O)([O-])[O-] (3D coordinates assigned)
NC(=O)c1cc2ccc(C(F)(F)F)cc2n1C(=O)CP(=O)([O-])[O-] (optimized conformer: 65.8609101159915 kcal/mol)

>  <smiles>  (42) 
NC(=O)c1cc2ccc(C(F)(F)F)cc2n1C(=O)CP(=O)(O)O

>  <score_type>  (42) 
oracle

>  <origin>  (42) 
adg

>  <m_score__min__energy>  (42) 
-11.81

>  <m_primary>  (42) 
energy

$$$$
44:0
     RDKit          3D

 47 48  0  0  0  0  0  0  0  0999 V2000
   -6.9210   18.3690  -32.4920 C   0  0  0  0  0  0  0  0  0  0  0  0
   -7.0650   19.8190  -32.1340 C   0  0  0  0  0  0  0  0  0  0  0  0
   -8.3060   20.4830  -32.3030 C   0  0  0  0  0  0  0  0  0  0  0  0
   -8.4290   21.8510  -32.0040 C   0  0  0  0  0  0  0  0  0  0  0  0
   -7.3020   22.5210  -31.5330 C   0  0  0  0  0  0  0  0  0  0  0  0
   -7.1320   23.8470  -31.2060 C   0  0  0  0  0  0  0  0  0  0  0  0
   -5.7960   23.9640  -30.8240 C   0  0  0  0  0  0  0  0  0  0  0  0
   -5.1900   25.2290  -30.3490 C   0  0  0  0  0  0  0  0  0  0  0  0
   -3.8850   25.5990  -30.7870 N   0  0  0  0  0  0  0  0  0  0  0  0
   -5.8250   26.0000  -29.5810 O   0  0  0  0  0  0  0  0  0  0  0  0
   -5.1650   22.7570  -30.9050 N   0  0  0  0  0  0  0  0  0  0  0  0
   -3.7750   22.4820  -30.6470 C   0  0  0  0  0  0  0  0  0  0  0  0
   -2.8950   23.1960  -31.1980 O   0  0  0  0  0  0  0  0  0  0  0  0
   -3.3290   21.3320  -29.7740 C   0  0  0  0  0  0  0  0  0  0  0  0
   -2.8130   21.7790  -28.4580 N   0  0  0  0  0  0  0  0  0  0  0  0
   -2.1130   20.6680  -27.7820 C   0  0  0  0  0  0  0  0  0  0  0  0
   -3.9200   22.2370  -27.5820 C   0  0  0  0  0  0  0  0  0  0  0  0
   -4.1370   23.7620  -27.6400 C   0  0  0  0  0  0  0  0  0  0  0  0
   -2.9790   24.4390  -28.2460 N   0  0  0  0  0  0  0  0  0  0  0  0
   -2.1240   25.0760  -27.2290 C   0  0  0  0  0  0  0  0  0  0  0  0
   -0.9760   25.8240  -27.9030 C   0  0  0  0  0  0  0  0  0  0  0  0
   -1.2460   25.9800  -29.2690 O   0  0  0  0  0  0  0  0  0  0  0  0
   -6.1000   21.8870  -31.3490 C   0  0  0  0  0  0  0  0  0  0  0  0
   -5.9420   20.5360  -31.6690 C   0  0  0  0  0  0  0  0  0  0  0  0
   -6.8614   17.7684  -31.5723 H   0  0  0  0  0  0  0  0  0  0  0  0
   -7.7918   18.0490  -33.0831 H   0  0  0  0  0  0  0  0  0  0  0  0
   -6.0043   18.2265  -33.0831 H   0  0  0  0  0  0  0  0  0  0  0  0
   -9.1789   19.9238  -32.6707 H   0  0  0  0  0  0  0  0  0  0  0  0
   -9.3860   22.3765  -32.1378 H   0  0  0  0  0  0  0  0  0  0  0  0
   -7.8888   24.6446  -31.2390 H   0  0  0  0  0  0  0  0  0  0  0  0
   -3.0340   25.2420  -30.2960 H   0  0  0  0  0  0  0  0  0  0  0  0
   -4.1866   20.6637  -29.6071 H   0  0  0  0  0  0  0  0  0  0  0  0
   -2.5081   20.8181  -30.2955 H   0  0  0  0  0  0  0  0  0  0  0  0
   -2.1923   20.7938  -26.6921 H   0  0  0  0  0  0  0  0  0  0  0  0
   -2.5726   19.7126  -28.0752 H   0  0  0  0  0  0  0  0  0  0  0  0
   -1.0528   20.6701  -28.0752 H   0  0  0  0  0  0  0  0  0  0  0  0
   -4.8478   21.7379  -27.8984 H   0  0  0  0  0  0  0  0  0  0  0  0
   -3.6505   21.9804  -26.5469 H   0  0  0  0  0  0  0  0  0  0  0  0
   -5.0330   23.9748  -28.2416 H   0  0  0  0  0  0  0  0  0  0  0  0
   -4.2629   24.1364  -26.6134 H   0  0  0  0  0  0  0  0  0  0  0  0
   -3.3420   25.1900  -28.8810 H   0  0  0  0  0  0  0  0  0  0  0  0
   -2.7249   25.7853  -26.6409 H   0  0  0  0  0  0  0  0  0  0  0  0
   -1.7098   24.2996  -26.5691 H   0  0  0  0  0  0  0  0  0  0  0  0
   -0.8631   26.8145  -27.4380 H   0  0  0  0  0  0  0  0  0  0  0  0
   -0.0469   25.2480  -27.7807 H   0  0  0  0  0  0  0  0  0  0  0  0
   -2.2360   26.0520  -29.3470 H   0  0  0  0  0  0  0  0  0  0  0  0
   -4.9648   20.0427  -31.5609 H   0  0  0  0  0  0  0  0  0  0  0  0
  1  2  1  0
  2  3  2  0
  3  4  1  0
  4  5  2  0
  5  6  1  0
  6  7  2  0
  7  8  1  0
  8  9  1  0
  8 10  2  0
  7 11  1  0
 11 12  1  0
 12 13  2  0
 12 14  1  0
 14 15  1  0
 15 16  1  0
 15 17  1  0
 17 18  1  0
 18 19  1  0
 19 20  1  0
 20 21  1  0
 21 22  1  0
 11 23  1  0
 23 24  2  0
 24  2  1  0
 23  5  1  0
  1 25  1  0
  1 26  1  0
  1 27  1  0
  3 28  1  0
  4 29  1  0
  6 30  1  0
  9 31  1  0
 14 32  1  0
 14 33  1  0
 16 34  1  0
 16 35  1  0
 16 36  1  0
 17 37  1  0
 17 38  1  0
 18 39  1  0
 18 40  1  0
 19 41  1  0
 20 42  1  0
 20 43  1  0
 21 44  1  0
 21 45  1  0
 22 46  1  0
 24 47  1  0
M  CHG  1   9  -1
M  END
>  <UniqueID>  (43) 
43

>  <SMILES>  (43) 
Cc1ccc2cc(C([NH-])=O)n(C(=O)CN(C)CCNCCO)c2c1

>  <Energy>  (43) 
83.11884423526361

>  <Genealogy>  (43) 
Cc1ccc2cc(C([NH-])=O)n(C(=O)CN(C)CCNCCO)c2c1 (protonated)
Cc1ccc2cc(C([NH-])=O)n(C(=O)CN(C)CCNCCO)c2c1 (3D coordinates assigned)
Cc1ccc2cc(C([NH-])=O)n(C(=O)CN(C)CCNCCO)c2c1 (optimized conformer: 83.11884423526361 kcal/mol)

>  <smiles>  (43) 
Cc1ccc2cc(C(N)=O)n(C(=O)CN(C)CCNCCO)c2c1

>  <score_type>  (43) 
oracle

>  <origin>  (43) 
adg

>  <m_score__min__energy>  (43) 
-10.27

>  <m_primary>  (43) 
energy

$$$$
45:0
     RDKit          3D

 36 37  0  0  0  0  0  0  0  0999 V2000
   -9.4630   19.2860  -32.6520 C   0  0  0  0  0  0  0  0  0  0  0  0
   -7.9610   19.3150  -32.6760 C   0  0  0  0  0  0  0  0  0  0  0  0
   -7.2360   18.1750  -33.1030 C   0  0  0  0  0  0  0  0  0  0  0  0
   -5.8350   18.2060  -33.1690 C   0  0  0  0  0  0  0  0  0  0  0  0
   -5.1900   19.3890  -32.8090 C   0  0  0  0  0  0  0  0  0  0  0  0
   -3.8450   19.7050  -32.8030 C   0  0  0  0  0  0  0  0  0  0  0  0
   -3.7700   21.0290  -32.3550 C   0  0  0  0  0  0  0  0  0  0  0  0
   -2.5000   21.7740  -32.1180 C   0  0  0  0  0  0  0  0  0  0  0  0
   -2.3580   22.6830  -31.0180 N   0  0  0  0  0  0  0  0  0  0  0  0
   -1.5310   21.6270  -32.9080 O   0  0  0  0  0  0  0  0  0  0  0  0
   -5.0240   21.5020  -32.1030 N   0  0  0  0  0  0  0  0  0  0  0  0
   -5.3810   22.7830  -31.5660 C   0  0  0  0  0  0  0  0  0  0  0  0
   -5.3530   23.7970  -32.3130 O   0  0  0  0  0  0  0  0  0  0  0  0
   -5.7680   22.9050  -30.1860 N   0  0  0  0  0  0  0  0  0  0  0  0
   -7.1690   22.7510  -29.7880 C   0  0  0  0  0  0  0  0  0  0  0  0
   -4.8100   22.9720  -29.2200 O   0  0  0  0  0  0  0  0  0  0  0  0
   -4.6380   24.3330  -28.8830 C   0  0  0  0  0  0  0  0  0  0  0  0
   -3.5470   24.9240  -29.7090 C   0  0  0  0  0  0  0  0  0  0  0  0
   -2.3440   24.6800  -29.4410 O   0  0  0  0  0  0  0  0  0  0  0  0
   -3.8690   25.6720  -30.8280 O   0  0  0  0  0  0  0  0  0  0  0  0
   -5.8800   20.4950  -32.3910 C   0  0  0  0  0  0  0  0  0  0  0  0
   -7.2760   20.5000  -32.3320 C   0  0  0  0  0  0  0  0  0  0  0  0
   -9.8130   19.2792  -31.6092 H   0  0  0  0  0  0  0  0  0  0  0  0
   -9.8552   20.1767  -33.1646 H   0  0  0  0  0  0  0  0  0  0  0  0
   -9.8205   18.3808  -33.1646 H   0  0  0  0  0  0  0  0  0  0  0  0
   -7.7757   17.2589  -33.3848 H   0  0  0  0  0  0  0  0  0  0  0  0
   -5.2630   17.3246  -33.4946 H   0  0  0  0  0  0  0  0  0  0  0  0
   -3.0076   19.0522  -33.0904 H   0  0  0  0  0  0  0  0  0  0  0  0
   -3.1230   22.8390  -30.3210 H   0  0  0  0  0  0  0  0  0  0  0  0
   -1.4720   23.2180  -30.8920 H   0  0  0  0  0  0  0  0  0  0  0  0
   -7.2396   22.7432  -28.6903 H   0  0  0  0  0  0  0  0  0  0  0  0
   -7.7580   23.5898  -30.1874 H   0  0  0  0  0  0  0  0  0  0  0  0
   -7.5617   21.8043  -30.1874 H   0  0  0  0  0  0  0  0  0  0  0  0
   -5.5750   24.8773  -29.0723 H   0  0  0  0  0  0  0  0  0  0  0  0
   -4.3714   24.4126  -27.8188 H   0  0  0  0  0  0  0  0  0  0  0  0
   -7.8257   21.4023  -32.0260 H   0  0  0  0  0  0  0  0  0  0  0  0
  1  2  1  0
  2  3  2  0
  3  4  1  0
  4  5  2  0
  5  6  1  0
  6  7  2  0
  7  8  1  0
  8  9  1  0
  8 10  2  0
  7 11  1  0
 11 12  1  0
 12 13  2  0
 12 14  1  0
 14 15  1  0
 14 16  1  0
 16 17  1  0
 17 18  1  0
 18 19  2  0
 18 20  1  0
 11 21  1  0
 21 22  2  0
 22  2  1  0
 21  5  1  0
  1 23  1  0
  1 24  1  0
  1 25  1  0
  3 26  1  0
  4 27  1  0
  6 28  1  0
  9 29  1  0
  9 30  1  0
 15 31  1  0
 15 32  1  0
 15 33  1  0
 17 34  1  0
 17 35  1  0
 22 36  1  0
M  CHG  1  20  -1
M  END
>  <UniqueID>  (44) 
44

>  <SMILES>  (44) 
Cc1ccc2cc(C(N)=O)n(C(=O)N(C)OCC(=O)[O-])c2c1

>  <Energy>  (44) 
70.93333796635095

>  <Genealogy>  (44) 
Cc1ccc2cc(C(N)=O)n(C(=O)N(C)OCC(=O)[O-])c2c1 (protonated)
Cc1ccc2cc(C(N)=O)n(C(=O)N(C)OCC(=O)[O-])c2c1 (3D coordinates assigned)
Cc1ccc2cc(C(N)=O)n(C(=O)N(C)OCC(=O)[O-])c2c1 (optimized conformer: 70.93333796635095 kcal/mol)

>  <smiles>  (44) 
Cc1ccc2cc(C(N)=O)n(C(=O)N(C)OCC(=O)O)c2c1

>  <score_type>  (44) 
oracle

>  <origin>  (44) 
adg

>  <m_score__min__energy>  (44) 
-10.470000000000001

>  <m_primary>  (44) 
energy

$$$$
46:0
     RDKit          3D

 38 39  0  0  0  0  0  0  0  0999 V2000
   -5.1900   24.4310  -29.3870 N   0  0  0  0  0  0  0  0  0  0  0  0
   -6.4220   24.2200  -30.0750 C   0  0  0  0  0  0  0  0  0  0  0  0
   -7.2610   25.1570  -30.1430 O   0  0  0  0  0  0  0  0  0  0  0  0
   -6.6920   22.9530  -30.7760 C   0  0  0  0  0  0  0  0  0  0  0  0
   -7.9600   22.3880  -30.8650 C   0  0  0  0  0  0  0  0  0  0  0  0
   -7.7870   21.2180  -31.5670 C   0  0  0  0  0  0  0  0  0  0  0  0
   -8.7200   20.2600  -31.9490 C   0  0  0  0  0  0  0  0  0  0  0  0
   -8.2610   19.1490  -32.6780 C   0  0  0  0  0  0  0  0  0  0  0  0
   -6.8950   19.0320  -33.0390 C   0  0  0  0  0  0  0  0  0  0  0  0
   -6.4000   17.8180  -33.7810 C   0  0  0  0  0  0  0  0  0  0  0  0
   -6.0860   18.1760  -35.0780 F   0  0  0  0  0  0  0  0  0  0  0  0
   -7.3780   16.8390  -33.8090 F   0  0  0  0  0  0  0  0  0  0  0  0
   -5.2750   17.2890  -33.1710 F   0  0  0  0  0  0  0  0  0  0  0  0
   -5.9770   20.0210  -32.6190 C   0  0  0  0  0  0  0  0  0  0  0  0
   -6.4550   21.1020  -31.8670 C   0  0  0  0  0  0  0  0  0  0  0  0
   -5.7600   22.1470  -31.3610 N   0  0  0  0  0  0  0  0  0  0  0  0
   -4.3280   22.3280  -31.3700 C   0  0  0  0  0  0  0  0  0  0  0  0
   -3.8480   23.4720  -31.5790 O   0  0  0  0  0  0  0  0  0  0  0  0
   -3.3770   21.2050  -31.2100 C   0  0  0  0  0  0  0  0  0  0  0  0
   -2.2360   21.2250  -30.5040 C   0  0  0  0  0  0  0  0  0  0  0  0
   -1.6590   22.4070  -29.8410 C   0  0  0  0  0  0  0  0  0  0  0  0
   -0.7300   23.0210  -30.4310 O   0  0  0  0  0  0  0  0  0  0  0  0
   -2.1600   22.9020  -28.5840 N   0  0  0  0  0  0  0  0  0  0  0  0
   -3.5630   22.1830  -27.8590 S   0  0  0  0  0  0  0  0  0  0  0  0
   -1.6610   24.1600  -28.0290 C   0  0  0  0  0  0  0  0  0  0  0  0
   -1.9610   25.2920  -28.9580 C   0  0  0  0  0  0  0  0  0  0  0  0
   -2.9760   25.2510  -29.7020 O   0  0  0  0  0  0  0  0  0  0  0  0
   -1.1520   26.4220  -28.9600 O   0  0  0  0  0  0  0  0  0  0  0  0
   -5.0310   25.3150  -28.8560 H   0  0  0  0  0  0  0  0  0  0  0  0
   -4.3950   23.7620  -29.4990 H   0  0  0  0  0  0  0  0  0  0  0  0
   -8.9002   22.7909  -30.4604 H   0  0  0  0  0  0  0  0  0  0  0  0
   -9.7833   20.3681  -31.6890 H   0  0  0  0  0  0  0  0  0  0  0  0
   -8.9702   18.3611  -32.9718 H   0  0  0  0  0  0  0  0  0  0  0  0
   -4.9105   19.9437  -32.8769 H   0  0  0  0  0  0  0  0  0  0  0  0
   -3.6300   20.2632  -31.7189 H   0  0  0  0  0  0  0  0  0  0  0  0
   -1.6844   20.2777  -30.4126 H   0  0  0  0  0  0  0  0  0  0  0  0
   -2.1469   24.3472  -27.0601 H   0  0  0  0  0  0  0  0  0  0  0  0
   -0.5716   24.0853  -27.8960 H   0  0  0  0  0  0  0  0  0  0  0  0
  1  2  1  0
  2  3  2  0
  2  4  1  0
  4  5  2  0
  5  6  1  0
  6  7  2  0
  7  8  1  0
  8  9  2  0
  9 10  1  0
 10 11  1  0
 10 12  1  0
 10 13  1  0
  9 14  1  0
 14 15  2  0
 15 16  1  0
 16 17  1  0
 17 18  2  0
 17 19  1  0
 19 20  2  3
 20 21  1  0
 21 22  2  0
 21 23  1  0
 23 24  1  0
 23 25  1  0
 25 26  1  0
 26 27  2  0
 26 28  1  0
 16  4  1  0
 15  6  1  0
  1 29  1  0
  1 30  1  0
  5 31  1  0
  7 32  1  0
  8 33  1  0
 14 34  1  0
 19 35  1  0
 20 36  1  0
 25 37  1  0
 25 38  1  0
M  CHG  2  24  -1  28  -1
M  END
>  <UniqueID>  (45) 
45

>  <SMILES>  (45) 
NC(=O)c1cc2ccc(C(F)(F)F)cc2n1C(=O)C=CC(=O)N([S-])CC(=O)[O-]

>  <Energy>  (45) 
86.03911560258187

>  <Genealogy>  (45) 
NC(=O)c1cc2ccc(C(F)(F)F)cc2n1C(=O)C=CC(=O)N([S-])CC(=O)[O-] (protonated)
NC(=O)c1cc2ccc(C(F)(F)F)cc2n1C(=O)C=CC(=O)N([S-])CC(=O)[O-] (3D coordinates assigned)
NC(=O)c1cc2ccc(C(F)(F)F)cc2n1C(=O)C=CC(=O)N([S-])CC(=O)[O-] (optimized conformer: 86.03911560258187 kcal/mol)

>  <smiles>  (45) 
NC(=O)c1cc2ccc(C(F)(F)F)cc2n1C(=O)C=CC(=O)N(S)CC(=O)O

>  <score_type>  (45) 
oracle

>  <origin>  (45) 
adg

>  <m_score__min__energy>  (45) 
-11.039999999999999

>  <m_primary>  (45) 
energy

$$$$
47:0
     RDKit          3D

 41 42  0  0  0  0  0  0  0  0999 V2000
   -6.0030   15.6920  -33.8890 C   0  0  0  0  0  0  0  0  0  0  0  0
   -5.6790   16.9660  -34.5150 N   0  0  0  0  0  0  0  0  0  0  0  0
   -6.2270   18.2220  -34.1010 C   0  0  0  0  0  0  0  0  0  0  0  0
   -6.0970   19.2170  -34.8630 O   0  0  0  0  0  0  0  0  0  0  0  0
   -6.9530   18.3550  -32.7840 C   0  0  0  0  0  0  0  0  0  0  0  0
   -7.1350   19.7940  -32.3690 C   0  0  0  0  0  0  0  0  0  0  0  0
   -8.4280   20.3760  -32.3670 C   0  0  0  0  0  0  0  0  0  0  0  0
   -8.6110   21.7100  -31.9620 C   0  0  0  0  0  0  0  0  0  0  0  0
   -7.4910   22.4260  -31.5490 C   0  0  0  0  0  0  0  0  0  0  0  0
   -7.3770   23.7310  -31.1230 C   0  0  0  0  0  0  0  0  0  0  0  0
   -6.0230   23.9140  -30.8470 C   0  0  0  0  0  0  0  0  0  0  0  0
   -5.4500   25.1730  -30.3270 C   0  0  0  0  0  0  0  0  0  0  0  0
   -4.2160   25.6630  -30.8510 N   0  0  0  0  0  0  0  0  0  0  0  0
   -6.0410   25.8290  -29.4290 O   0  0  0  0  0  0  0  0  0  0  0  0
   -5.3320   22.7660  -31.0900 N   0  0  0  0  0  0  0  0  0  0  0  0
   -3.9250   22.5350  -30.9200 C   0  0  0  0  0  0  0  0  0  0  0  0
   -3.0930   23.2790  -31.5050 O   0  0  0  0  0  0  0  0  0  0  0  0
   -3.4400   21.4500  -30.0070 C   0  0  0  0  0  0  0  0  0  0  0  0
   -1.9520   21.3490  -30.0850 C   0  0  0  0  0  0  0  0  0  0  0  0
   -1.4200   20.3910  -30.7090 O   0  0  0  0  0  0  0  0  0  0  0  0
   -1.1420   22.3530  -29.4630 N   0  0  0  0  0  0  0  0  0  0  0  0
   -1.6570   23.3350  -28.5170 C   0  0  0  0  0  0  0  0  0  0  0  0
   -0.9620   24.6440  -28.7000 C   0  0  0  0  0  0  0  0  0  0  0  0
    0.2300   24.7890  -28.3210 O   0  0  0  0  0  0  0  0  0  0  0  0
   -1.6120   25.6910  -29.3430 O   0  0  0  0  0  0  0  0  0  0  0  0
   -6.2410   21.8670  -31.5220 C   0  0  0  0  0  0  0  0  0  0  0  0
   -6.0240   20.5490  -31.9350 C   0  0  0  0  0  0  0  0  0  0  0  0
   -5.9747   15.8033  -32.7950 H   0  0  0  0  0  0  0  0  0  0  0  0
   -7.0100   15.3765  -34.1995 H   0  0  0  0  0  0  0  0  0  0  0  0
   -5.2691   14.9337  -34.1995 H   0  0  0  0  0  0  0  0  0  0  0  0
   -7.9439   17.8867  -32.8782 H   0  0  0  0  0  0  0  0  0  0  0  0
   -6.3437   17.8590  -32.0142 H   0  0  0  0  0  0  0  0  0  0  0  0
   -9.2953   19.7788  -32.6850 H   0  0  0  0  0  0  0  0  0  0  0  0
   -9.6085   22.1735  -31.9712 H   0  0  0  0  0  0  0  0  0  0  0  0
   -8.1838   24.4719  -31.0220 H   0  0  0  0  0  0  0  0  0  0  0  0
   -3.3060   25.2400  -30.5610 H   0  0  0  0  0  0  0  0  0  0  0  0
   -3.7363   21.6830  -28.9736 H   0  0  0  0  0  0  0  0  0  0  0  0
   -3.8851   20.4920  -30.3138 H   0  0  0  0  0  0  0  0  0  0  0  0
   -2.7356   23.4701  -28.6851 H   0  0  0  0  0  0  0  0  0  0  0  0
   -1.4778   22.9744  -27.4934 H   0  0  0  0  0  0  0  0  0  0  0  0
   -5.0146   20.1121  -31.9221 H   0  0  0  0  0  0  0  0  0  0  0  0
  1  2  1  0
  2  3  1  0
  3  4  2  0
  3  5  1  0
  5  6  1  0
  6  7  2  0
  7  8  1  0
  8  9  2  0
  9 10  1  0
 10 11  2  0
 11 12  1  0
 12 13  1  0
 12 14  2  0
 11 15  1  0
 15 16  1  0
 16 17  2  0
 16 18  1  0
 18 19  1  0
 19 20  2  0
 19 21  1  0
 21 22  1  0
 22 23  1  0
 23 24  2  0
 23 25  1  0
 15 26  1  0
 26 27  2  0
 27  6  1  0
 26  9  1  0
  1 28  1  0
  1 29  1  0
  1 30  1  0
  5 31  1  0
  5 32  1  0
  7 33  1  0
  8 34  1  0
 10 35  1  0
 13 36  1  0
 18 37  1  0
 18 38  1  0
 22 39  1  0
 22 40  1  0
 27 41  1  0
M  CHG  4   2  -1  13  -1  21  -1  25  -1
M  END
>  <UniqueID>  (46) 
46

>  <SMILES>  (46) 
C[N-]C(=O)Cc1ccc2cc(C([NH-])=O)n(C(=O)CC(=O)[N-]CC(=O)[O-])c2c1

>  <Energy>  (46) 
71.64257732246388

>  <Genealogy>  (46) 
C[N-]C(=O)Cc1ccc2cc(C([NH-])=O)n(C(=O)CC(=O)[N-]CC(=O)[O-])c2c1 (protonated)
C[N-]C(=O)Cc1ccc2cc(C([NH-])=O)n(C(=O)CC(=O)[N-]CC(=O)[O-])c2c1 (3D coordinates assigned)
C[N-]C(=O)Cc1ccc2cc(C([NH-])=O)n(C(=O)CC(=O)[N-]CC(=O)[O-])c2c1 (optimized conformer: 71.64257732246388 kcal/mol)

>  <smiles>  (46) 
CNC(=O)Cc1ccc2cc(C(N)=O)n(C(=O)CC(=O)NCC(=O)O)c2c1

>  <score_type>  (46) 
oracle

>  <origin>  (46) 
adg

>  <m_score__min__energy>  (46) 
-13.31

>  <m_primary>  (46) 
energy

$$$$
48:0
     RDKit          3D

 40 41  0  0  0  0  0  0  0  0999 V2000
   -6.9980   18.6840  -34.9540 H   0  0  0  0  0  0  0  0  0  0  0  0
   -6.1050   18.9170  -35.3190 O   0  0  0  0  0  0  0  0  0  0  0  0
   -5.2250   17.9100  -34.9010 C   0  0  0  0  0  0  0  0  0  0  0  0
   -4.2053   18.1593  -35.2298 H   0  0  0  0  0  0  0  0  0  0  0  0
   -5.5393   16.9531  -35.3432 H   0  0  0  0  0  0  0  0  0  0  0  0
   -5.2480   17.7860  -33.3750 C   0  0  0  0  0  0  0  0  0  0  0  0
   -4.4555   18.4194  -32.9499 H   0  0  0  0  0  0  0  0  0  0  0  0
   -5.0831   16.7326  -33.1047 H   0  0  0  0  0  0  0  0  0  0  0  0
   -6.5480   18.2130  -32.8350 N   0  0  0  0  0  0  0  0  0  0  0  0
   -6.8100   19.5990  -32.4920 C   0  0  0  0  0  0  0  0  0  0  0  0
   -8.1170   20.1440  -32.6350 C   0  0  0  0  0  0  0  0  0  0  0  0
   -8.9336   19.5015  -32.9962 H   0  0  0  0  0  0  0  0  0  0  0  0
   -8.3830   21.4880  -32.3230 C   0  0  0  0  0  0  0  0  0  0  0  0
   -9.3933   21.9074  -32.4386 H   0  0  0  0  0  0  0  0  0  0  0  0
   -7.3310   22.2710  -31.8640 C   0  0  0  0  0  0  0  0  0  0  0  0
   -7.3060   23.6000  -31.5100 C   0  0  0  0  0  0  0  0  0  0  0  0
   -8.1467   24.3092  -31.5219 H   0  0  0  0  0  0  0  0  0  0  0  0
   -5.9890   23.8570  -31.1330 C   0  0  0  0  0  0  0  0  0  0  0  0
   -5.5310   25.1440  -30.5690 C   0  0  0  0  0  0  0  0  0  0  0  0
   -6.3360   25.8820  -29.9410 O   0  0  0  0  0  0  0  0  0  0  0  0
   -4.1840   25.5840  -30.7560 N   0  0  0  0  0  0  0  0  0  0  0  0
   -3.8790   26.5110  -30.3860 H   0  0  0  0  0  0  0  0  0  0  0  0
   -3.4760   24.9760  -31.2240 H   0  0  0  0  0  0  0  0  0  0  0  0
   -5.2280   22.7320  -31.2640 N   0  0  0  0  0  0  0  0  0  0  0  0
   -3.8180   22.5810  -31.0140 C   0  0  0  0  0  0  0  0  0  0  0  0
   -3.0020   22.7540  -31.9580 O   0  0  0  0  0  0  0  0  0  0  0  0
   -3.2900   22.1540  -29.7010 C   0  0  0  0  0  0  0  0  0  0  0  0
   -3.6248   21.1783  -29.3189 H   0  0  0  0  0  0  0  0  0  0  0  0
   -2.4380   22.8520  -28.9340 C   0  0  0  0  0  0  0  0  0  0  0  0
   -2.2746   22.4894  -27.9084 H   0  0  0  0  0  0  0  0  0  0  0  0
   -1.7020   24.0610  -29.3440 C   0  0  0  0  0  0  0  0  0  0  0  0
   -0.4720   24.0180  -29.6100 O   0  0  0  0  0  0  0  0  0  0  0  0
   -2.3560   25.2850  -29.3540 O   0  0  0  0  0  0  0  0  0  0  0  0
   -6.0690   21.7690  -31.7010 C   0  0  0  0  0  0  0  0  0  0  0  0
   -5.7700   20.4400  -32.0180 C   0  0  0  0  0  0  0  0  0  0  0  0
   -4.7467   20.0535  -31.9019 H   0  0  0  0  0  0  0  0  0  0  0  0
   -7.6030   17.2030  -32.6860 C   0  0  0  0  0  0  0  0  0  0  0  0
   -7.7905   17.0235  -31.6171 H   0  0  0  0  0  0  0  0  0  0  0  0
   -8.5256   17.5631  -33.1647 H   0  0  0  0  0  0  0  0  0  0  0  0
   -7.2834   16.2656  -33.1647 H   0  0  0  0  0  0  0  0  0  0  0  0
  1  2  1  0
  2  3  1  0
  3  4  1  0
  3  5  1  0
  3  6  1  0
  6  7  1  0
  6  8  1  0
  6  9  1  0
  9 10  1  0
 10 11  2  0
 11 12  1  0
 11 13  1  0
 13 14  1  0
 13 15  2  0
 15 16  1  0
 16 17  1  0
 16 18  2  0
 18 19  1  0
 19 20  2  0
 19 21  1  0
 21 22  1  0
 21 23  1  0
 18 24  1  0
 24 25  1  0
 25 26  2  0
 25 27  1  0
 27 28  1  0
 27 29  2  0
 29 30  1  0
 29 31  1  0
 31 32  2  0
 31 33  1  0
 24 34  1  0
 34 35  2  0
 35 36  1  0
  9 37  1  0
 37 38  1  0
 37 39  1  0
 37 40  1  0
 35 10  1  0
 34 15  1  0
M  CHG  1  33  -1
M  END
>  <UniqueID>  (47) 
47

>  <SMILES>  (47) 
CN(CCO)c1ccc2cc(C(N)=O)n(C(=O)/C=C\C(=O)[O-])c2c1

>  <Energy>  (47) 
84.6068880967937

>  <Genealogy>  (47) 
CN(CCO)c1ccc2cc(C(N)=O)n(C(=O)/C=C\C(=O)[O-])c2c1 (protonated)
CN(CCO)c1ccc2cc(C(N)=O)n(C(=O)/C=C\C(=O)[O-])c2c1 (cis-trans isomerization)
CN(CCO)c1ccc2cc(C(N)=O)n(C(=O)/C=C\C(=O)[O-])c2c1 (3D coordinates assigned)
CN(CCO)c1ccc2cc(C(N)=O)n(C(=O)/C=C\C(=O)[O-])c2c1 (optimized conformer: 84.6068880967937 kcal/mol)

>  <smiles>  (47) 
CN(CCO)c1ccc2cc(C(N)=O)n(C(=O)/C=C\C(=O)O)c2c1

>  <score_type>  (47) 
oracle

>  <origin>  (47) 
adg

>  <m_score__min__energy>  (47) 
-10.75

>  <m_primary>  (47) 
energy

$$$$
49:0
     RDKit          3D

 47 48  0  0  0  0  0  0  0  0999 V2000
   -0.8080   26.4990  -28.0770 C   0  0  0  0  0  0  0  0  0  0  0  0
   -1.6040   25.6910  -28.9350 O   0  0  0  0  0  0  0  0  0  0  0  0
   -2.2730   24.5490  -28.4870 C   0  0  0  0  0  0  0  0  0  0  0  0
   -3.5250   24.5510  -28.3420 O   0  0  0  0  0  0  0  0  0  0  0  0
   -1.4910   23.3060  -28.1910 C   0  0  0  0  0  0  0  0  0  0  0  0
   -1.1610   22.5100  -29.4640 C   0  0  0  0  0  0  0  0  0  0  0  0
   -2.0100   21.2260  -29.6230 C   0  0  2  0  0  0  0  0  0  0  0  0
   -3.4140   21.5600  -29.8940 N   0  0  0  0  0  0  0  0  0  0  0  0
   -3.8440   22.5700  -30.8200 C   0  0  0  0  0  0  0  0  0  0  0  0
   -3.0040   23.2370  -31.4800 O   0  0  0  0  0  0  0  0  0  0  0  0
   -5.2460   22.8200  -31.0030 N   0  0  0  0  0  0  0  0  0  0  0  0
   -5.9000   24.0110  -30.9100 C   0  0  0  0  0  0  0  0  0  0  0  0
   -5.3080   25.2930  -30.4700 C   0  0  0  0  0  0  0  0  0  0  0  0
   -3.9840   25.6600  -30.8460 N   0  0  0  0  0  0  0  0  0  0  0  0
   -5.9720   26.0610  -29.7230 O   0  0  0  0  0  0  0  0  0  0  0  0
   -7.2480   23.8510  -31.2280 C   0  0  0  0  0  0  0  0  0  0  0  0
   -7.3990   22.5130  -31.5180 C   0  0  0  0  0  0  0  0  0  0  0  0
   -8.5280   21.8030  -31.9170 C   0  0  0  0  0  0  0  0  0  0  0  0
   -8.3810   20.4300  -32.1840 C   0  0  0  0  0  0  0  0  0  0  0  0
   -7.1210   19.7980  -32.0430 C   0  0  0  0  0  0  0  0  0  0  0  0
   -6.9690   18.3460  -32.3830 C   0  0  0  0  0  0  0  0  0  0  0  0
   -5.9950   20.5540  -31.6520 C   0  0  0  0  0  0  0  0  0  0  0  0
   -6.1740   21.9140  -31.3750 C   0  0  0  0  0  0  0  0  0  0  0  0
   -1.9240   20.3000  -28.4380 C   0  0  0  0  0  0  0  0  0  0  0  0
   -0.7990   19.8470  -28.0900 O   0  0  0  0  0  0  0  0  0  0  0  0
   -3.0840   19.9030  -27.7650 O   0  0  0  0  0  0  0  0  0  0  0  0
   -3.0600   19.0060  -26.6610 C   0  0  0  0  0  0  0  0  0  0  0  0
   -1.0419   26.2616  -27.0287 H   0  0  0  0  0  0  0  0  0  0  0  0
    0.2566   26.2999  -28.2693 H   0  0  0  0  0  0  0  0  0  0  0  0
   -1.0230   27.5605  -28.2693 H   0  0  0  0  0  0  0  0  0  0  0  0
   -0.5501   23.5889  -27.6963 H   0  0  0  0  0  0  0  0  0  0  0  0
   -2.1075   22.6657  -27.5430 H   0  0  0  0  0  0  0  0  0  0  0  0
   -1.3399   23.1565  -30.3358 H   0  0  0  0  0  0  0  0  0  0  0  0
   -0.1093   22.1967  -29.3877 H   0  0  0  0  0  0  0  0  0  0  0  0
   -1.5831   20.6870  -30.4816 H   0  0  0  0  0  0  0  0  0  0  0  0
   -4.1460   21.0590  -29.3420 H   0  0  0  0  0  0  0  0  0  0  0  0
   -3.1540   25.1860  -30.4260 H   0  0  0  0  0  0  0  0  0  0  0  0
   -8.0260   24.6285  -31.2439 H   0  0  0  0  0  0  0  0  0  0  0  0
   -9.5039   22.3000  -32.0202 H   0  0  0  0  0  0  0  0  0  0  0  0
   -9.2528   19.8412  -32.5054 H   0  0  0  0  0  0  0  0  0  0  0  0
   -6.9073   17.7569  -31.4561 H   0  0  0  0  0  0  0  0  0  0  0  0
   -7.8373   18.0143  -32.9712 H   0  0  0  0  0  0  0  0  0  0  0  0
   -6.0508   18.2013  -32.9712 H   0  0  0  0  0  0  0  0  0  0  0  0
   -5.0029   20.0865  -31.5673 H   0  0  0  0  0  0  0  0  0  0  0  0
   -3.0753   19.5793  -25.7223 H   0  0  0  0  0  0  0  0  0  0  0  0
   -3.9409   18.3485  -26.7035 H   0  0  0  0  0  0  0  0  0  0  0  0
   -2.1452   18.3966  -26.7035 H   0  0  0  0  0  0  0  0  0  0  0  0
  1  2  1  0
  2  3  1  0
  3  4  2  0
  3  5  1  0
  5  6  1  0
  6  7  1  0
  7  8  1  0
  8  9  1  0
  9 10  2  0
  9 11  1  0
 11 12  1  0
 12 13  1  0
 13 14  1  0
 13 15  2  0
 12 16  2  0
 16 17  1  0
 17 18  2  0
 18 19  1  0
 19 20  2  0
 20 21  1  0
 20 22  1  0
 22 23  2  0
  7 24  1  0
 24 25  2  0
 24 26  1  0
 26 27  1  0
 23 11  1  0
 23 17  1  0
  1 28  1  0
  1 29  1  0
  1 30  1  0
  5 31  1  0
  5 32  1  0
  6 33  1  0
  6 34  1  0
  7 35  1  6
  8 36  1  0
 14 37  1  0
 16 38  1  0
 18 39  1  0
 19 40  1  0
 21 41  1  0
 21 42  1  0
 21 43  1  0
 22 44  1  0
 27 45  1  0
 27 46  1  0
 27 47  1  0
M  CHG  1  14  -1
M  END
>  <UniqueID>  (48) 
48

>  <SMILES>  (48) 
COC(=O)CC[C@H](NC(=O)n1c(C([NH-])=O)cc2ccc(C)cc21)C(=O)OC

>  <Energy>  (48) 
75.31704217575415

>  <Genealogy>  (48) 
COC(=O)CC[C@H](NC(=O)n1c(C([NH-])=O)cc2ccc(C)cc21)C(=O)OC (protonated)
COC(=O)CC[C@H](NC(=O)n1c(C([NH-])=O)cc2ccc(C)cc21)C(=O)OC (3D coordinates assigned)
COC(=O)CC[C@H](NC(=O)n1c(C([NH-])=O)cc2ccc(C)cc21)C(=O)OC (optimized conformer: 75.31704217575415 kcal/mol)

>  <smiles>  (48) 
COC(=O)CC[C@H](NC(=O)n1c(C(N)=O)cc2ccc(C)cc21)C(=O)OC

>  <score_type>  (48) 
oracle

>  <origin>  (48) 
adg

>  <m_score__min__energy>  (48) 
-10.19

>  <m_primary>  (48) 
energy

$$$$
50:0
     RDKit          3D

 31 32  0  0  0  0  0  0  0  0999 V2000
   -4.3460   25.6290  -30.8290 N   0  0  0  0  0  0  0  0  0  0  0  0
   -5.6030   25.1980  -30.3120 C   0  0  0  0  0  0  0  0  0  0  0  0
   -6.1820   25.8960  -29.4370 O   0  0  0  0  0  0  0  0  0  0  0  0
   -6.2300   23.9660  -30.8340 C   0  0  0  0  0  0  0  0  0  0  0  0
   -7.5530   23.8970  -31.2650 C   0  0  0  0  0  0  0  0  0  0  0  0
   -7.7660   22.5740  -31.5790 C   0  0  0  0  0  0  0  0  0  0  0  0
   -8.9060   21.9390  -32.0640 C   0  0  0  0  0  0  0  0  0  0  0  0
   -8.8330   20.5590  -32.3180 C   0  0  0  0  0  0  0  0  0  0  0  0
   -7.6310   19.8440  -32.0880 C   0  0  0  0  0  0  0  0  0  0  0  0
   -7.5720   18.3710  -32.3760 C   0  0  0  0  0  0  0  0  0  0  0  0
   -6.4570   17.8210  -31.7710 F   0  0  0  0  0  0  0  0  0  0  0  0
   -8.7090   17.7560  -31.8860 F   0  0  0  0  0  0  0  0  0  0  0  0
   -6.4930   20.5230  -31.5970 C   0  0  0  0  0  0  0  0  0  0  0  0
   -6.6010   21.8940  -31.3410 C   0  0  0  0  0  0  0  0  0  0  0  0
   -5.6460   22.7360  -30.8890 N   0  0  0  0  0  0  0  0  0  0  0  0
   -4.2860   22.3870  -30.5910 C   0  0  0  0  0  0  0  0  0  0  0  0
   -3.7710   21.3700  -31.1330 O   0  0  0  0  0  0  0  0  0  0  0  0
   -3.4820   23.2430  -29.6960 C   0  0  0  0  0  0  0  0  0  0  0  0
   -2.1610   23.3690  -29.8250 C   0  0  0  0  0  0  0  0  0  0  0  0
   -1.2340   24.4130  -28.7060 P   0  0  0  0  0  0  0  0  0  0  0  0
   -1.5870   24.0670  -27.2780 O   0  0  0  0  0  0  0  0  0  0  0  0
   -1.6150   26.0340  -29.0020 O   0  0  0  0  0  0  0  0  0  0  0  0
    0.4230   24.1730  -28.9510 O   0  0  0  0  0  0  0  0  0  0  0  0
   -3.5000   25.6740  -30.2170 H   0  0  0  0  0  0  0  0  0  0  0  0
   -8.2743   24.7243  -31.3387 H   0  0  0  0  0  0  0  0  0  0  0  0
   -9.8350   22.5002  -32.2428 H   0  0  0  0  0  0  0  0  0  0  0  0
   -9.7178   20.0281  -32.6993 H   0  0  0  0  0  0  0  0  0  0  0  0
   -7.5108   18.2184  -33.4636 H   0  0  0  0  0  0  0  0  0  0  0  0
   -5.5481   19.9880  -31.4209 H   0  0  0  0  0  0  0  0  0  0  0  0
   -3.9914   23.7969  -28.8937 H   0  0  0  0  0  0  0  0  0  0  0  0
   -1.6368   22.8268  -30.6258 H   0  0  0  0  0  0  0  0  0  0  0  0
  1  2  1  0
  2  3  2  0
  2  4  1  0
  4  5  2  0
  5  6  1  0
  6  7  2  0
  7  8  1  0
  8  9  2  0
  9 10  1  0
 10 11  1  0
 10 12  1  0
  9 13  1  0
 13 14  2  0
 14 15  1  0
 15 16  1  0
 16 17  2  0
 16 18  1  0
 18 19  2  3
 19 20  1  0
 20 21  2  0
 20 22  1  0
 20 23  1  0
 15  4  1  0
 14  6  1  0
  1 24  1  0
  5 25  1  0
  7 26  1  0
  8 27  1  0
 10 28  1  0
 13 29  1  0
 18 30  1  0
 19 31  1  0
M  CHG  3   1  -1  22  -1  23  -1
M  END
>  <UniqueID>  (49) 
49

>  <SMILES>  (49) 
[NH-]C(=O)c1cc2ccc(C(F)F)cc2n1C(=O)C=CP(=O)([O-])[O-]

>  <Energy>  (49) 
66.04258109335372

>  <Genealogy>  (49) 
[NH-]C(=O)c1cc2ccc(C(F)F)cc2n1C(=O)C=CP(=O)([O-])[O-] (protonated)
[NH-]C(=O)c1cc2ccc(C(F)F)cc2n1C(=O)C=CP(=O)([O-])[O-] (3D coordinates assigned)
[NH-]C(=O)c1cc2ccc(C(F)F)cc2n1C(=O)C=CP(=O)([O-])[O-] (optimized conformer: 66.04258109335372 kcal/mol)

>  <smiles>  (49) 
NC(=O)c1cc2ccc(C(F)F)cc2n1C(=O)C=CP(=O)(O)O

>  <score_type>  (49) 
oracle

>  <origin>  (49) 
adg

>  <m_score__min__energy>  (49) 
-13.58

>  <m_primary>  (49) 
energy

$$$$
51:0
     RDKit          3D

 36 37  0  0  0  0  0  0  0  0999 V2000
   -6.1120   17.1320  -32.0630 C   0  0  0  0  0  0  0  0  0  0  0  0
   -6.1060   18.2390  -33.0280 N   0  0  0  0  0  0  0  0  0  0  0  0
   -5.7930   17.9520  -34.4340 C   0  0  0  0  0  0  0  0  0  0  0  0
   -6.4060   19.5930  -32.6000 C   0  0  0  0  0  0  0  0  0  0  0  0
   -7.7360   20.1000  -32.6640 C   0  0  0  0  0  0  0  0  0  0  0  0
   -8.0370   21.4050  -32.2440 C   0  0  0  0  0  0  0  0  0  0  0  0
   -6.9970   22.1950  -31.7700 C   0  0  0  0  0  0  0  0  0  0  0  0
   -7.0140   23.4790  -31.2750 C   0  0  0  0  0  0  0  0  0  0  0  0
   -5.6920   23.7600  -30.9320 C   0  0  0  0  0  0  0  0  0  0  0  0
   -5.2420   25.0700  -30.4140 C   0  0  0  0  0  0  0  0  0  0  0  0
   -4.0060   25.6410  -30.8360 N   0  0  0  0  0  0  0  0  0  0  0  0
   -5.9750   25.7100  -29.6140 O   0  0  0  0  0  0  0  0  0  0  0  0
   -4.8940   22.6900  -31.2030 N   0  0  0  0  0  0  0  0  0  0  0  0
   -3.4910   22.5500  -30.9360 C   0  0  0  0  0  0  0  0  0  0  0  0
   -2.8180   21.6890  -31.5660 O   0  0  0  0  0  0  0  0  0  0  0  0
   -2.8570   23.3910  -29.9630 N   0  0  0  0  0  0  0  0  0  0  0  0
   -1.4290   23.3120  -29.6680 C   0  0  0  0  0  0  0  0  0  0  0  0
   -0.9660   24.5810  -29.0260 C   0  0  0  0  0  0  0  0  0  0  0  0
    0.1820   24.6500  -28.5130 O   0  0  0  0  0  0  0  0  0  0  0  0
   -1.8150   25.6790  -28.9660 O   0  0  0  0  0  0  0  0  0  0  0  0
   -5.7080   21.7410  -31.7140 C   0  0  0  0  0  0  0  0  0  0  0  0
   -5.3790   20.4390  -32.1050 C   0  0  0  0  0  0  0  0  0  0  0  0
   -6.1098   17.5371  -31.0403 H   0  0  0  0  0  0  0  0  0  0  0  0
   -7.0135   16.5197  -32.2129 H   0  0  0  0  0  0  0  0  0  0  0  0
   -5.2172   16.5100  -32.2129 H   0  0  0  0  0  0  0  0  0  0  0  0
   -4.9831   17.2094  -34.4851 H   0  0  0  0  0  0  0  0  0  0  0  0
   -6.6877   17.5538  -34.9349 H   0  0  0  0  0  0  0  0  0  0  0  0
   -5.4737   18.8778  -34.9349 H   0  0  0  0  0  0  0  0  0  0  0  0
   -8.5412   19.4573  -33.0494 H   0  0  0  0  0  0  0  0  0  0  0  0
   -9.0661   21.7910  -32.2888 H   0  0  0  0  0  0  0  0  0  0  0  0
   -7.8853   24.1425  -31.1719 H   0  0  0  0  0  0  0  0  0  0  0  0
   -3.0970   25.3000  -30.4500 H   0  0  0  0  0  0  0  0  0  0  0  0
   -3.4400   24.0780  -29.4310 H   0  0  0  0  0  0  0  0  0  0  0  0
   -1.2447   22.4701  -28.9844 H   0  0  0  0  0  0  0  0  0  0  0  0
   -0.8753   23.1603  -30.6063 H   0  0  0  0  0  0  0  0  0  0  0  0
   -4.3430   20.0770  -32.0303 H   0  0  0  0  0  0  0  0  0  0  0  0
  1  2  1  0
  2  3  1  0
  2  4  1  0
  4  5  2  0
  5  6  1  0
  6  7  2  0
  7  8  1  0
  8  9  2  0
  9 10  1  0
 10 11  1  0
 10 12  2  0
  9 13  1  0
 13 14  1  0
 14 15  2  0
 14 16  1  0
 16 17  1  0
 17 18  1  0
 18 19  2  0
 18 20  1  0
 13 21  1  0
 21 22  2  0
 22  4  1  0
 21  7  1  0
  1 23  1  0
  1 24  1  0
  1 25  1  0
  3 26  1  0
  3 27  1  0
  3 28  1  0
  5 29  1  0
  6 30  1  0
  8 31  1  0
 11 32  1  0
 16 33  1  0
 17 34  1  0
 17 35  1  0
 22 36  1  0
M  CHG  2  11  -1  20  -1
M  END
>  <UniqueID>  (50) 
50

>  <SMILES>  (50) 
CN(C)c1ccc2cc(C([NH-])=O)n(C(=O)NCC(=O)[O-])c2c1

>  <Energy>  (50) 
73.72780478523944

>  <Genealogy>  (50) 
CN(C)c1ccc2cc(C([NH-])=O)n(C(=O)NCC(=O)[O-])c2c1 (protonated)
CN(C)c1ccc2cc(C([NH-])=O)n(C(=O)NCC(=O)[O-])c2c1 (3D coordinates assigned)
CN(C)c1ccc2cc(C([NH-])=O)n(C(=O)NCC(=O)[O-])c2c1 (optimized conformer: 73.72780478523944 kcal/mol)

>  <smiles>  (50) 
CN(C)c1ccc2cc(C(N)=O)n(C(=O)NCC(=O)O)c2c1

>  <score_type>  (50) 
oracle

>  <origin>  (50) 
adg

>  <m_score__min__energy>  (50) 
-12.029999999999999

>  <m_primary>  (50) 
energy

$$$$
52:0
     RDKit          3D

 48 49  0  0  0  0  0  0  0  0999 V2000
   -3.9450   25.6520  -30.8470 N   0  0  0  0  0  0  0  0  0  0  0  0
   -5.1650   25.0280  -30.4490 C   0  0  0  0  0  0  0  0  0  0  0  0
   -5.8990   25.5970  -29.6000 O   0  0  0  0  0  0  0  0  0  0  0  0
   -5.5420   23.7180  -31.0200 C   0  0  0  0  0  0  0  0  0  0  0  0
   -6.8490   23.3610  -31.3450 C   0  0  0  0  0  0  0  0  0  0  0  0
   -6.7590   22.0970  -31.8850 C   0  0  0  0  0  0  0  0  0  0  0  0
   -7.7550   21.2560  -32.3690 C   0  0  0  0  0  0  0  0  0  0  0  0
   -7.3730   19.9920  -32.8500 C   0  0  0  0  0  0  0  0  0  0  0  0
   -6.0120   19.5930  -32.8340 C   0  0  0  0  0  0  0  0  0  0  0  0
   -5.6070   18.2500  -33.3880 C   0  0  0  0  0  0  0  0  0  0  0  0
   -4.6750   18.3720  -34.6080 C   0  0  0  0  0  0  0  0  0  0  0  0
   -3.2120   17.9800  -34.3300 C   0  0  0  0  0  0  0  0  0  0  0  0
   -2.6010   18.7630  -33.1550 C   0  0  0  0  0  0  0  0  0  0  0  0
   -1.4200   19.5670  -33.5400 N   0  0  0  0  0  0  0  0  0  0  0  0
   -0.6820   19.1460  -34.7620 C   0  0  1  0  0  0  0  0  0  0  0  0
   -0.1130   20.3240  -35.5940 C   0  0  0  0  0  0  0  0  0  0  0  0
    0.3060   21.4780  -34.7320 C   0  0  0  0  0  0  0  0  0  0  0  0
    0.3240   21.3580  -33.4790 O   0  0  0  0  0  0  0  0  0  0  0  0
    0.6700   22.6870  -35.3120 O   0  0  0  0  0  0  0  0  0  0  0  0
    0.3640   18.0980  -34.4540 C   0  0  0  0  0  0  0  0  0  0  0  0
    0.9160   17.4360  -35.3740 O   0  0  0  0  0  0  0  0  0  0  0  0
    0.7090   17.8380  -33.1340 O   0  0  0  0  0  0  0  0  0  0  0  0
   -5.0310   20.4700  -32.3210 C   0  0  0  0  0  0  0  0  0  0  0  0
   -5.4380   21.7300  -31.8700 C   0  0  0  0  0  0  0  0  0  0  0  0
   -4.6790   22.7150  -31.3480 N   0  0  0  0  0  0  0  0  0  0  0  0
   -3.2580   22.6780  -31.1380 C   0  0  0  0  0  0  0  0  0  0  0  0
   -2.7540   23.3140  -30.1740 O   0  0  0  0  0  0  0  0  0  0  0  0
   -2.3830   21.9120  -32.0350 C   0  0  0  0  0  0  0  0  0  0  0  0
   -1.4220   21.2430  -31.5710 O   0  0  0  0  0  0  0  0  0  0  0  0
   -2.6210   21.9070  -33.4040 O   0  0  0  0  0  0  0  0  0  0  0  0
   -3.0250   25.3030  -30.4970 H   0  0  0  0  0  0  0  0  0  0  0  0
   -7.7595   23.9612  -31.2009 H   0  0  0  0  0  0  0  0  0  0  0  0
   -8.8091   21.5703  -32.3752 H   0  0  0  0  0  0  0  0  0  0  0  0
   -8.1372   19.3052  -33.2428 H   0  0  0  0  0  0  0  0  0  0  0  0
   -5.0853   17.6863  -32.6005 H   0  0  0  0  0  0  0  0  0  0  0  0
   -6.5215   17.7343  -33.7163 H   0  0  0  0  0  0  0  0  0  0  0  0
   -5.0616   17.7180  -35.4035 H   0  0  0  0  0  0  0  0  0  0  0  0
   -4.6675   19.4343  -34.8935 H   0  0  0  0  0  0  0  0  0  0  0  0
   -3.1739   16.9061  -34.0951 H   0  0  0  0  0  0  0  0  0  0  0  0
   -2.6267   18.2203  -35.2298 H   0  0  0  0  0  0  0  0  0  0  0  0
   -3.3676   19.4400  -32.7501 H   0  0  0  0  0  0  0  0  0  0  0  0
   -2.2653   18.0256  -32.4109 H   0  0  0  0  0  0  0  0  0  0  0  0
   -1.7060   20.5700  -33.6290 H   0  0  0  0  0  0  0  0  0  0  0  0
   -0.7500   19.5350  -32.7360 H   0  0  0  0  0  0  0  0  0  0  0  0
   -1.4343   18.6785  -35.4144 H   0  0  0  0  0  0  0  0  0  0  0  0
    0.7613   19.9685  -36.1591 H   0  0  0  0  0  0  0  0  0  0  0  0
   -0.9087   20.6770  -36.2665 H   0  0  0  0  0  0  0  0  0  0  0  0
   -3.9737   20.1698  -32.2772 H   0  0  0  0  0  0  0  0  0  0  0  0
  1  2  1  0
  2  3  2  0
  2  4  1  0
  4  5  2  0
  5  6  1  0
  6  7  2  0
  7  8  1  0
  8  9  2  0
  9 10  1  0
 10 11  1  0
 11 12  1  0
 12 13  1  0
 13 14  1  0
 14 15  1  0
 15 16  1  0
 16 17  1  0
 17 18  2  0
 17 19  1  0
 15 20  1  0
 20 21  2  0
 20 22  1  0
  9 23  1  0
 23 24  2  0
 24 25  1  0
 25 26  1  0
 26 27  2  0
 26 28  1  0
 28 29  2  0
 28 30  1  0
 25  4  1  0
 24  6  1  0
  1 31  1  0
  5 32  1  0
  7 33  1  0
  8 34  1  0
 10 35  1  0
 10 36  1  0
 11 37  1  0
 11 38  1  0
 12 39  1  0
 12 40  1  0
 13 41  1  0
 13 42  1  0
 14 43  1  0
 14 44  1  0
 15 45  1  6
 16 46  1  0
 16 47  1  0
 23 48  1  0
M  CHG  5   1  -1  14   1  19  -1  22  -1  30  -1
M  END
>  <UniqueID>  (51) 
51

>  <SMILES>  (51) 
[NH-]C(=O)c1cc2ccc(CCCC[NH2+][C@@H](CC(=O)[O-])C(=O)[O-])cc2n1C(=O)C(=O)[O-]

>  <Energy>  (51) 
85.37910177198718

>  <Genealogy>  (51) 
[NH-]C(=O)c1cc2ccc(CCCC[NH2+][C@@H](CC(=O)[O-])C(=O)[O-])cc2n1C(=O)C(=O)[O-] (protonated)
[NH-]C(=O)c1cc2ccc(CCCC[NH2+][C@@H](CC(=O)[O-])C(=O)[O-])cc2n1C(=O)C(=O)[O-] (3D coordinates assigned)
[NH-]C(=O)c1cc2ccc(CCCC[NH2+][C@@H](CC(=O)[O-])C(=O)[O-])cc2n1C(=O)C(=O)[O-] (optimized conformer: 85.37910177198718 kcal/mol)

>  <smiles>  (51) 
NC(=O)c1cc2ccc(CCCCN[C@@H](CC(=O)O)C(=O)O)cc2n1C(=O)C(=O)O

>  <score_type>  (51) 
oracle

>  <origin>  (51) 
adg

>  <m_score__min__energy>  (51) 
-9.8200000000000003

>  <m_primary>  (51) 
energy

$$$$
53:0
     RDKit          3D

 37 38  0  0  0  0  0  0  0  0999 V2000
   -1.2780   26.3490  -26.5050 C   0  0  0  0  0  0  0  0  0  0  0  0
   -0.8750   27.0050  -27.8200 C   0  0  0  0  0  0  0  0  0  0  0  0
   -1.2560   26.1670  -28.9520 N   0  0  0  0  0  0  0  0  0  0  0  0
   -1.0180   24.7580  -29.0100 C   0  0  0  0  0  0  0  0  0  0  0  0
    0.1490   24.3030  -28.8590 O   0  0  0  0  0  0  0  0  0  0  0  0
   -2.0930   23.8960  -29.2360 O   0  0  0  0  0  0  0  0  0  0  0  0
   -2.0620   22.8560  -30.2110 C   0  0  0  0  0  0  0  0  0  0  0  0
   -3.3670   22.3100  -30.3940 O   0  0  0  0  0  0  0  0  0  0  0  0
   -4.1270   22.5320  -31.5480 C   0  0  0  0  0  0  0  0  0  0  0  0
   -3.6130   22.3690  -32.6880 O   0  0  0  0  0  0  0  0  0  0  0  0
   -5.5080   22.9110  -31.4320 N   0  0  0  0  0  0  0  0  0  0  0  0
   -6.0150   24.0810  -30.9510 C   0  0  0  0  0  0  0  0  0  0  0  0
   -5.2320   25.2820  -30.5980 C   0  0  0  0  0  0  0  0  0  0  0  0
   -3.8520   25.3570  -30.9480 N   0  0  0  0  0  0  0  0  0  0  0  0
   -5.7600   26.2270  -29.9570 O   0  0  0  0  0  0  0  0  0  0  0  0
   -7.4070   24.0340  -30.9150 C   0  0  0  0  0  0  0  0  0  0  0  0
   -7.7420   22.7900  -31.3990 C   0  0  0  0  0  0  0  0  0  0  0  0
   -8.9930   22.2030  -31.5710 C   0  0  0  0  0  0  0  0  0  0  0  0
   -9.0410   20.8890  -32.0650 C   0  0  0  0  0  0  0  0  0  0  0  0
   -7.8490   20.1900  -32.3690 C   0  0  0  0  0  0  0  0  0  0  0  0
   -7.9110   18.8490  -32.8600 N   0  0  0  0  0  0  0  0  0  0  0  0
   -6.5980   20.8150  -32.1820 C   0  0  0  0  0  0  0  0  0  0  0  0
   -6.5790   22.1310  -31.7040 C   0  0  0  0  0  0  0  0  0  0  0  0
   -0.9065   26.9537  -25.6646 H   0  0  0  0  0  0  0  0  0  0  0  0
   -2.3745   26.2800  -26.4506 H   0  0  0  0  0  0  0  0  0  0  0  0
   -0.8439   25.3397  -26.4506 H   0  0  0  0  0  0  0  0  0  0  0  0
   -1.3780   27.9794  -27.9066 H   0  0  0  0  0  0  0  0  0  0  0  0
    0.2170   27.1372  -27.8294 H   0  0  0  0  0  0  0  0  0  0  0  0
   -1.7025   23.2652  -31.1667 H   0  0  0  0  0  0  0  0  0  0  0  0
   -1.3866   22.0602  -29.8640 H   0  0  0  0  0  0  0  0  0  0  0  0
   -3.1090   25.2650  -30.2200 H   0  0  0  0  0  0  0  0  0  0  0  0
   -8.0924   24.8233  -30.5726 H   0  0  0  0  0  0  0  0  0  0  0  0
   -9.9150   22.7513  -31.3276 H   0  0  0  0  0  0  0  0  0  0  0  0
  -10.0141   20.3990  -32.2169 H   0  0  0  0  0  0  0  0  0  0  0  0
   -7.3730   18.0840  -32.3960 H   0  0  0  0  0  0  0  0  0  0  0  0
   -8.4960   18.6110  -33.6920 H   0  0  0  0  0  0  0  0  0  0  0  0
   -5.6620   20.2823  -32.4059 H   0  0  0  0  0  0  0  0  0  0  0  0
  1  2  1  0
  2  3  1  0
  3  4  1  0
  4  5  2  0
  4  6  1  0
  6  7  1  0
  7  8  1  0
  8  9  1  0
  9 10  2  0
  9 11  1  0
 11 12  1  0
 12 13  1  0
 13 14  1  0
 13 15  2  0
 12 16  2  0
 16 17  1  0
 17 18  2  0
 18 19  1  0
 19 20  2  0
 20 21  1  0
 20 22  1  0
 22 23  2  0
 23 11  1  0
 23 17  1  0
  1 24  1  0
  1 25  1  0
  1 26  1  0
  2 27  1  0
  2 28  1  0
  7 29  1  0
  7 30  1  0
 14 31  1  0
 16 32  1  0
 18 33  1  0
 19 34  1  0
 21 35  1  0
 21 36  1  0
 22 37  1  0
M  CHG  2   3  -1  14  -1
M  END
>  <UniqueID>  (52) 
52

>  <SMILES>  (52) 
CC[N-]C(=O)OCOC(=O)n1c(C([NH-])=O)cc2ccc(N)cc21

>  <Energy>  (52) 
67.26576763920546

>  <Genealogy>  (52) 
CC[N-]C(=O)OCOC(=O)n1c(C([NH-])=O)cc2ccc(N)cc21 (protonated)
CC[N-]C(=O)OCOC(=O)n1c(C([NH-])=O)cc2ccc(N)cc21 (3D coordinates assigned)
CC[N-]C(=O)OCOC(=O)n1c(C([NH-])=O)cc2ccc(N)cc21 (optimized conformer: 67.26576763920546 kcal/mol)

>  <smiles>  (52) 
CCNC(=O)OCOC(=O)n1c(C(N)=O)cc2ccc(N)cc21

>  <score_type>  (52) 
oracle

>  <origin>  (52) 
adg

>  <m_score__min__energy>  (52) 
-10.720000000000001

>  <m_primary>  (52) 
energy

$$$$
54:0
     RDKit          3D

 39 40  0  0  0  0  0  0  0  0999 V2000
   -4.0910   25.2940  -30.9720 N   0  0  0  0  0  0  0  0  0  0  0  0
   -5.4130   25.0470  -30.4960 C   0  0  0  0  0  0  0  0  0  0  0  0
   -5.9660   25.8950  -29.7470 O   0  0  0  0  0  0  0  0  0  0  0  0
   -6.1290   23.8260  -30.9160 C   0  0  0  0  0  0  0  0  0  0  0  0
   -7.4920   23.7940  -31.2050 C   0  0  0  0  0  0  0  0  0  0  0  0
   -7.7790   22.4740  -31.4710 C   0  0  0  0  0  0  0  0  0  0  0  0
   -8.9820   21.8730  -31.8190 C   0  0  0  0  0  0  0  0  0  0  0  0
   -8.9820   20.4900  -32.0630 C   0  0  0  0  0  0  0  0  0  0  0  0
   -7.7800   19.7390  -31.9810 C   0  0  0  0  0  0  0  0  0  0  0  0
   -7.8000   18.2500  -32.2190 C   0  0  0  0  0  0  0  0  0  0  0  0
   -7.4380   17.9590  -33.5230 F   0  0  0  0  0  0  0  0  0  0  0  0
   -6.9110   17.6110  -31.3720 F   0  0  0  0  0  0  0  0  0  0  0  0
   -9.0740   17.7700  -31.9870 F   0  0  0  0  0  0  0  0  0  0  0  0
   -6.5810   20.3840  -31.5960 C   0  0  0  0  0  0  0  0  0  0  0  0
   -6.6160   21.7590  -31.3440 C   0  0  0  0  0  0  0  0  0  0  0  0
   -5.5940   22.5750  -31.0050 N   0  0  0  0  0  0  0  0  0  0  0  0
   -4.2200   22.1910  -30.8450 C   0  0  0  0  0  0  0  0  0  0  0  0
   -3.3780   22.4990  -31.7320 O   0  0  0  0  0  0  0  0  0  0  0  0
   -3.8310   21.4780  -29.7030 O   0  0  0  0  0  0  0  0  0  0  0  0
   -3.0880   22.0110  -28.6410 C   0  0  0  0  0  0  0  0  0  0  0  0
   -1.9790   21.5140  -28.3040 O   0  0  0  0  0  0  0  0  0  0  0  0
   -3.6310   23.1800  -27.8790 C   0  0  0  0  0  0  0  0  0  0  0  0
   -2.6700   23.6460  -26.7750 C   0  0  0  0  0  0  0  0  0  0  0  0
   -2.1650   25.0880  -26.9470 C   0  0  0  0  0  0  0  0  0  0  0  0
   -1.1760   25.3090  -28.4640 P   0  0  0  0  0  0  0  0  0  0  0  0
    0.2550   24.9110  -28.1830 O   0  0  0  0  0  0  0  0  0  0  0  0
   -1.2130   26.9260  -28.9550 O   0  0  0  0  0  0  0  0  0  0  0  0
   -1.7860   24.3300  -29.7030 O   0  0  0  0  0  0  0  0  0  0  0  0
   -3.4080   24.5120  -31.0880 H   0  0  0  0  0  0  0  0  0  0  0  0
   -8.1906   24.6436  -31.2179 H   0  0  0  0  0  0  0  0  0  0  0  0
   -9.9070   22.4627  -31.9010 H   0  0  0  0  0  0  0  0  0  0  0  0
   -9.9237   19.9831  -32.3205 H   0  0  0  0  0  0  0  0  0  0  0  0
   -5.6434   19.8172  -31.4972 H   0  0  0  0  0  0  0  0  0  0  0  0
   -3.7985   24.0125  -28.5782 H   0  0  0  0  0  0  0  0  0  0  0  0
   -4.5704   22.8660  -27.4005 H   0  0  0  0  0  0  0  0  0  0  0  0
   -3.1934   23.5765  -25.8100 H   0  0  0  0  0  0  0  0  0  0  0  0
   -1.7864   22.9930  -26.8284 H   0  0  0  0  0  0  0  0  0  0  0  0
   -3.0330   25.7623  -26.9910 H   0  0  0  0  0  0  0  0  0  0  0  0
   -1.5155   25.3180  -26.0895 H   0  0  0  0  0  0  0  0  0  0  0  0
  1  2  1  0
  2  3  2  0
  2  4  1  0
  4  5  2  0
  5  6  1  0
  6  7  2  0
  7  8  1  0
  8  9  2  0
  9 10  1  0
 10 11  1  0
 10 12  1  0
 10 13  1  0
  9 14  1  0
 14 15  2  0
 15 16  1  0
 16 17  1  0
 17 18  2  0
 17 19  1  0
 19 20  1  0
 20 21  2  0
 20 22  1  0
 22 23  1  0
 23 24  1  0
 24 25  1  0
 25 26  2  0
 25 27  1  0
 25 28  1  0
 16  4  1  0
 15  6  1  0
  1 29  1  0
  5 30  1  0
  7 31  1  0
  8 32  1  0
 14 33  1  0
 22 34  1  0
 22 35  1  0
 23 36  1  0
 23 37  1  0
 24 38  1  0
 24 39  1  0
M  CHG  3   1  -1  27  -1  28  -1
M  END
>  <UniqueID>  (53) 
53

>  <SMILES>  (53) 
[NH-]C(=O)c1cc2ccc(C(F)(F)F)cc2n1C(=O)OC(=O)CCCP(=O)([O-])[O-]

>  <Energy>  (53) 
70.11719146208328

>  <Genealogy>  (53) 
[NH-]C(=O)c1cc2ccc(C(F)(F)F)cc2n1C(=O)OC(=O)CCCP(=O)([O-])[O-] (protonated)
[NH-]C(=O)c1cc2ccc(C(F)(F)F)cc2n1C(=O)OC(=O)CCCP(=O)([O-])[O-] (3D coordinates assigned)
[NH-]C(=O)c1cc2ccc(C(F)(F)F)cc2n1C(=O)OC(=O)CCCP(=O)([O-])[O-] (optimized conformer: 70.11719146208328 kcal/mol)

>  <smiles>  (53) 
NC(=O)c1cc2ccc(C(F)(F)F)cc2n1C(=O)OC(=O)CCCP(=O)(O)O

>  <score_type>  (53) 
oracle

>  <origin>  (53) 
adg

>  <m_score__min__energy>  (53) 
-13.859999999999999

>  <m_primary>  (53) 
energy

$$$$
55:0
     RDKit          3D

 44 45  0  0  0  0  0  0  0  0999 V2000
   -0.3240   22.6730  -24.4410 C   0  0  0  0  0  0  0  0  0  0  0  0
   -1.1050   22.9010  -25.5930 O   0  0  0  0  0  0  0  0  0  0  0  0
   -0.8630   24.2070  -26.0760 C   0  0  0  0  0  0  0  0  0  0  0  0
   -1.6680   24.4310  -27.3620 C   0  0  2  0  0  0  0  0  0  0  0  0
   -2.2740   23.1690  -27.7940 N   0  0  0  0  0  0  0  0  0  0  0  0
   -1.4900   22.0790  -28.2990 C   0  0  0  0  0  0  0  0  0  0  0  0
   -0.2640   21.9900  -28.0190 O   0  0  0  0  0  0  0  0  0  0  0  0
   -2.1070   21.0860  -29.2270 C   0  0  0  0  0  0  0  0  0  0  0  0
   -3.4540   21.5310  -29.5510 N   0  0  0  0  0  0  0  0  0  0  0  0
   -3.7430   22.5170  -30.5430 C   0  0  0  0  0  0  0  0  0  0  0  0
   -2.8070   23.1600  -31.0900 O   0  0  0  0  0  0  0  0  0  0  0  0
   -5.1080   22.7930  -30.8940 N   0  0  0  0  0  0  0  0  0  0  0  0
   -5.7760   23.9770  -30.8010 C   0  0  0  0  0  0  0  0  0  0  0  0
   -5.1900   25.2810  -30.4220 C   0  0  0  0  0  0  0  0  0  0  0  0
   -3.8890   25.6580  -30.8630 N   0  0  0  0  0  0  0  0  0  0  0  0
   -5.8660   26.0920  -29.7340 O   0  0  0  0  0  0  0  0  0  0  0  0
   -7.1040   23.8190  -31.1950 C   0  0  0  0  0  0  0  0  0  0  0  0
   -7.2250   22.4940  -31.5490 C   0  0  0  0  0  0  0  0  0  0  0  0
   -8.3320   21.7880  -32.0040 C   0  0  0  0  0  0  0  0  0  0  0  0
   -8.1780   20.4160  -32.2630 C   0  0  0  0  0  0  0  0  0  0  0  0
   -6.9260   19.7760  -32.0690 C   0  0  0  0  0  0  0  0  0  0  0  0
   -6.8020   18.2900  -32.2880 C   0  0  0  0  0  0  0  0  0  0  0  0
   -6.1420   18.0140  -33.4740 F   0  0  0  0  0  0  0  0  0  0  0  0
   -8.0560   17.7060  -32.3460 F   0  0  0  0  0  0  0  0  0  0  0  0
   -6.0950   17.7320  -31.2400 F   0  0  0  0  0  0  0  0  0  0  0  0
   -5.8290   20.5270  -31.5860 C   0  0  0  0  0  0  0  0  0  0  0  0
   -6.0070   21.8970  -31.3580 C   0  0  0  0  0  0  0  0  0  0  0  0
   -0.7860   24.9640  -28.4540 C   0  0  0  0  0  0  0  0  0  0  0  0
    0.3850   24.5220  -28.5950 O   0  0  0  0  0  0  0  0  0  0  0  0
   -1.2450   25.9650  -29.3040 O   0  0  0  0  0  0  0  0  0  0  0  0
   -0.9341   22.8511  -23.5432 H   0  0  0  0  0  0  0  0  0  0  0  0
    0.0339   21.6329  -24.4406 H   0  0  0  0  0  0  0  0  0  0  0  0
    0.5373   23.3572  -24.4406 H   0  0  0  0  0  0  0  0  0  0  0  0
   -1.1708   24.9418  -25.3175 H   0  0  0  0  0  0  0  0  0  0  0  0
    0.2096   24.3279  -26.2878 H   0  0  0  0  0  0  0  0  0  0  0  0
   -2.4575   25.1683  -27.1545 H   0  0  0  0  0  0  0  0  0  0  0  0
   -3.3030   23.1560  -27.9790 H   0  0  0  0  0  0  0  0  0  0  0  0
   -1.5081   21.0160  -30.1470 H   0  0  0  0  0  0  0  0  0  0  0  0
   -2.1421   20.0956  -28.7497 H   0  0  0  0  0  0  0  0  0  0  0  0
   -3.0340   25.2580  -30.4180 H   0  0  0  0  0  0  0  0  0  0  0  0
   -7.8887   24.5895  -31.2181 H   0  0  0  0  0  0  0  0  0  0  0  0
   -9.2996   22.2884  -32.1567 H   0  0  0  0  0  0  0  0  0  0  0  0
   -9.0380   19.8306  -32.6204 H   0  0  0  0  0  0  0  0  0  0  0  0
   -4.8586   20.0459  -31.3940 H   0  0  0  0  0  0  0  0  0  0  0  0
  1  2  1  0
  2  3  1  0
  3  4  1  0
  4  5  1  0
  5  6  1  0
  6  7  2  0
  6  8  1  0
  8  9  1  0
  9 10  1  0
 10 11  2  0
 10 12  1  0
 12 13  1  0
 13 14  1  0
 14 15  1  0
 14 16  2  0
 13 17  2  0
 17 18  1  0
 18 19  2  0
 19 20  1  0
 20 21  2  0
 21 22  1  0
 22 23  1  0
 22 24  1  0
 22 25  1  0
 21 26  1  0
 26 27  2  0
  4 28  1  0
 28 29  2  0
 28 30  1  0
 27 12  1  0
 27 18  1  0
  1 31  1  0
  1 32  1  0
  1 33  1  0
  3 34  1  0
  3 35  1  0
  4 36  1  1
  5 37  1  0
  8 38  1  0
  8 39  1  0
 15 40  1  0
 17 41  1  0
 19 42  1  0
 20 43  1  0
 26 44  1  0
M  CHG  3   9  -1  15  -1  30  -1
M  END
>  <UniqueID>  (54) 
54

>  <SMILES>  (54) 
COC[C@H](NC(=O)C[N-]C(=O)n1c(C([NH-])=O)cc2ccc(C(F)(F)F)cc21)C(=O)[O-]

>  <Energy>  (54) 
76.10111125008805

>  <Genealogy>  (54) 
COCC(NC(=O)C[N-]C(=O)n1c(C([NH-])=O)cc2ccc(C(F)(F)F)cc21)C(=O)[O-] (protonated)
COC[C@H](NC(=O)C[N-]C(=O)n1c(C([NH-])=O)cc2ccc(C(F)(F)F)cc21)C(=O)[O-] (chirality)
COC[C@H](NC(=O)C[N-]C(=O)n1c(C([NH-])=O)cc2ccc(C(F)(F)F)cc21)C(=O)[O-] (3D coordinates assigned)
COC[C@H](NC(=O)C[N-]C(=O)n1c(C([NH-])=O)cc2ccc(C(F)(F)F)cc21)C(=O)[O-] (optimized conformer: 76.10111125008805 kcal/mol)

>  <smiles>  (54) 
COCC(NC(=O)CNC(=O)n1c(C(N)=O)cc2ccc(C(F)(F)F)cc21)C(=O)O

>  <score_type>  (54) 
oracle

>  <origin>  (54) 
adg

>  <m_score__min__energy>  (54) 
-12.359999999999999

>  <m_primary>  (54) 
energy

$$$$
56:0
     RDKit          3D

 41 42  0  0  0  0  0  0  0  0999 V2000
   -7.2430   17.2920  -33.1310 C   0  0  0  0  0  0  0  0  0  0  0  0
   -7.3000   18.4320  -32.7420 C   0  0  0  0  0  0  0  0  0  0  0  0
   -7.3680   19.7920  -32.2780 C   0  0  0  0  0  0  0  0  0  0  0  0
   -8.6210   20.3660  -31.9590 C   0  0  0  0  0  0  0  0  0  0  0  0
   -8.6990   21.6910  -31.4940 C   0  0  0  0  0  0  0  0  0  0  0  0
   -7.5130   22.4090  -31.3710 C   0  0  0  0  0  0  0  0  0  0  0  0
   -7.2950   23.6930  -30.9220 C   0  0  0  0  0  0  0  0  0  0  0  0
   -5.9150   23.8810  -30.9930 C   0  0  0  0  0  0  0  0  0  0  0  0
   -5.2420   25.1490  -30.6400 C   0  0  0  0  0  0  0  0  0  0  0  0
   -3.8450   25.3260  -30.8570 N   0  0  0  0  0  0  0  0  0  0  0  0
   -5.9160   26.1020  -30.1630 O   0  0  0  0  0  0  0  0  0  0  0  0
   -5.3060   22.7590  -31.4710 N   0  0  0  0  0  0  0  0  0  0  0  0
   -3.8990   22.5240  -31.6260 C   0  0  0  0  0  0  0  0  0  0  0  0
   -3.4210   22.3350  -32.7770 O   0  0  0  0  0  0  0  0  0  0  0  0
   -3.0070   22.4940  -30.4590 C   0  0  0  0  0  0  0  0  0  0  0  0
   -2.0270   23.2860  -30.3930 O   0  0  0  0  0  0  0  0  0  0  0  0
   -3.2640   21.5960  -29.4200 O   0  0  0  0  0  0  0  0  0  0  0  0
   -3.8370   21.9980  -28.1810 C   0  0  0  0  0  0  0  0  0  0  0  0
   -3.3420   23.3700  -27.8250 C   0  0  0  0  0  0  0  0  0  0  0  0
   -4.0340   24.3660  -28.1720 O   0  0  0  0  0  0  0  0  0  0  0  0
   -2.0870   23.5710  -27.1360 N   0  0  0  0  0  0  0  0  0  0  0  0
   -1.4500   22.4700  -26.4040 C   0  0  0  0  0  0  0  0  0  0  0  0
   -1.4650   24.9020  -27.1210 C   0  0  0  0  0  0  0  0  0  0  0  0
   -0.7280   25.1380  -28.4010 C   0  0  0  0  0  0  0  0  0  0  0  0
    0.3680   24.5570  -28.6150 O   0  0  0  0  0  0  0  0  0  0  0  0
   -1.2340   26.0230  -29.3440 O   0  0  0  0  0  0  0  0  0  0  0  0
   -6.2950   21.8670  -31.6930 C   0  0  0  0  0  0  0  0  0  0  0  0
   -6.1850   20.5460  -32.1380 C   0  0  0  0  0  0  0  0  0  0  0  0
   -7.1910   16.2521  -33.4858 H   0  0  0  0  0  0  0  0  0  0  0  0
   -9.5398   19.7724  -32.0753 H   0  0  0  0  0  0  0  0  0  0  0  0
   -9.6668   22.1456  -31.2357 H   0  0  0  0  0  0  0  0  0  0  0  0
   -8.0496   24.4166  -30.5800 H   0  0  0  0  0  0  0  0  0  0  0  0
   -3.1580   25.1870  -30.0830 H   0  0  0  0  0  0  0  0  0  0  0  0
   -4.9331   22.0154  -28.2719 H   0  0  0  0  0  0  0  0  0  0  0  0
   -3.5467   21.2867  -27.3937 H   0  0  0  0  0  0  0  0  0  0  0  0
   -1.5499   22.6427  -25.3222 H   0  0  0  0  0  0  0  0  0  0  0  0
   -1.9387   21.5213  -26.6706 H   0  0  0  0  0  0  0  0  0  0  0  0
   -0.3839   22.4208  -26.6706 H   0  0  0  0  0  0  0  0  0  0  0  0
   -2.2462   25.6676  -27.0042 H   0  0  0  0  0  0  0  0  0  0  0  0
   -0.7568   24.9596  -26.2813 H   0  0  0  0  0  0  0  0  0  0  0  0
   -5.2036   20.1077  -32.3721 H   0  0  0  0  0  0  0  0  0  0  0  0
  1  2  3  0
  2  3  1  0
  3  4  2  0
  4  5  1  0
  5  6  2  0
  6  7  1  0
  7  8  2  0
  8  9  1  0
  9 10  1  0
  9 11  2  0
  8 12  1  0
 12 13  1  0
 13 14  2  0
 13 15  1  0
 15 16  2  0
 15 17  1  0
 17 18  1  0
 18 19  1  0
 19 20  2  0
 19 21  1  0
 21 22  1  0
 21 23  1  0
 23 24  1  0
 24 25  2  0
 24 26  1  0
 12 27  1  0
 27 28  2  0
 28  3  1  0
 27  6  1  0
  1 29  1  0
  4 30  1  0
  5 31  1  0
  7 32  1  0
 10 33  1  0
 18 34  1  0
 18 35  1  0
 22 36  1  0
 22 37  1  0
 22 38  1  0
 23 39  1  0
 23 40  1  0
 28 41  1  0
M  CHG  2  10  -1  26  -1
M  END
>  <UniqueID>  (55) 
55

>  <SMILES>  (55) 
C#Cc1ccc2cc(C([NH-])=O)n(C(=O)C(=O)OCC(=O)N(C)CC(=O)[O-])c2c1

>  <Energy>  (55) 
72.96518210422983

>  <Genealogy>  (55) 
C#Cc1ccc2cc(C([NH-])=O)n(C(=O)C(=O)OCC(=O)N(C)CC(=O)[O-])c2c1 (protonated)
C#Cc1ccc2cc(C([NH-])=O)n(C(=O)C(=O)OCC(=O)N(C)CC(=O)[O-])c2c1 (3D coordinates assigned)
C#Cc1ccc2cc(C([NH-])=O)n(C(=O)C(=O)OCC(=O)N(C)CC(=O)[O-])c2c1 (optimized conformer: 72.96518210422983 kcal/mol)

>  <smiles>  (55) 
C#Cc1ccc2cc(C(N)=O)n(C(=O)C(=O)OCC(=O)N(C)CC(=O)O)c2c1

>  <score_type>  (55) 
oracle

>  <origin>  (55) 
adg

>  <m_score__min__energy>  (55) 
-12.68

>  <m_primary>  (55) 
energy

$$$$
57:0
     RDKit          3D

 32 33  0  0  0  0  0  0  0  0999 V2000
   -7.0880   18.3040  -32.5060 C   0  0  0  0  0  0  0  0  0  0  0  0
   -7.2540   19.7610  -32.1920 C   0  0  0  0  0  0  0  0  0  0  0  0
   -8.5240   20.3750  -32.3290 C   0  0  0  0  0  0  0  0  0  0  0  0
   -8.7040   21.7260  -31.9910 C   0  0  0  0  0  0  0  0  0  0  0  0
   -7.6030   22.4340  -31.5180 C   0  0  0  0  0  0  0  0  0  0  0  0
   -7.5050   23.7390  -31.0940 C   0  0  0  0  0  0  0  0  0  0  0  0
   -6.1760   23.9050  -30.7110 C   0  0  0  0  0  0  0  0  0  0  0  0
   -5.6130   25.1980  -30.2650 C   0  0  0  0  0  0  0  0  0  0  0  0
   -4.3960   25.6740  -30.8350 N   0  0  0  0  0  0  0  0  0  0  0  0
   -6.1740   25.8690  -29.3610 O   0  0  0  0  0  0  0  0  0  0  0  0
   -5.4800   22.7450  -30.8820 N   0  0  0  0  0  0  0  0  0  0  0  0
   -4.1070   22.4800  -30.5540 C   0  0  0  0  0  0  0  0  0  0  0  0
   -3.5920   21.3670  -30.8480 O   0  0  0  0  0  0  0  0  0  0  0  0
   -3.3400   23.4700  -29.9310 O   0  0  0  0  0  0  0  0  0  0  0  0
   -3.2070   23.5640  -28.5180 C   0  0  0  0  0  0  0  0  0  0  0  0
   -1.8960   23.1940  -28.1670 O   0  0  0  0  0  0  0  0  0  0  0  0
   -0.9020   24.5750  -28.2880 P   0  0  0  0  0  0  0  0  0  0  0  0
   -0.7500   25.1920  -26.9160 O   0  0  0  0  0  0  0  0  0  0  0  0
    0.6270   24.1440  -28.8710 O   0  0  0  0  0  0  0  0  0  0  0  0
   -1.6040   25.7090  -29.3280 O   0  0  0  0  0  0  0  0  0  0  0  0
   -6.3670   21.8550  -31.3810 C   0  0  0  0  0  0  0  0  0  0  0  0
   -6.1640   20.5050  -31.6920 C   0  0  0  0  0  0  0  0  0  0  0  0
   -7.0228   17.7320  -31.5687 H   0  0  0  0  0  0  0  0  0  0  0  0
   -7.9521   17.9540  -33.0898 H   0  0  0  0  0  0  0  0  0  0  0  0
   -6.1673   18.1573  -33.0898 H   0  0  0  0  0  0  0  0  0  0  0  0
   -9.3759   19.7883  -32.7033 H   0  0  0  0  0  0  0  0  0  0  0  0
   -9.6859   22.2103  -32.0969 H   0  0  0  0  0  0  0  0  0  0  0  0
   -8.3064   24.4919  -31.0638 H   0  0  0  0  0  0  0  0  0  0  0  0
   -3.4960   25.6100  -30.3100 H   0  0  0  0  0  0  0  0  0  0  0  0
   -3.3997   24.5978  -28.1952 H   0  0  0  0  0  0  0  0  0  0  0  0
   -3.9309   22.8975  -28.0264 H   0  0  0  0  0  0  0  0  0  0  0  0
   -5.1792   20.0359  -31.5501 H   0  0  0  0  0  0  0  0  0  0  0  0
  1  2  1  0
  2  3  2  0
  3  4  1  0
  4  5  2  0
  5  6  1  0
  6  7  2  0
  7  8  1  0
  8  9  1  0
  8 10  2  0
  7 11  1  0
 11 12  1  0
 12 13  2  0
 12 14  1  0
 14 15  1  0
 15 16  1  0
 16 17  1  0
 17 18  2  0
 17 19  1  0
 17 20  1  0
 11 21  1  0
 21 22  2  0
 22  2  1  0
 21  5  1  0
  1 23  1  0
  1 24  1  0
  1 25  1  0
  3 26  1  0
  4 27  1  0
  6 28  1  0
  9 29  1  0
 15 30  1  0
 15 31  1  0
 22 32  1  0
M  CHG  3   9  -1  19  -1  20  -1
M  END
>  <UniqueID>  (56) 
56

>  <SMILES>  (56) 
Cc1ccc2cc(C([NH-])=O)n(C(=O)OCOP(=O)([O-])[O-])c2c1

>  <Energy>  (56) 
67.25494009946384

>  <Genealogy>  (56) 
Cc1ccc2cc(C([NH-])=O)n(C(=O)OCOP(=O)([O-])[O-])c2c1 (protonated)
Cc1ccc2cc(C([NH-])=O)n(C(=O)OCOP(=O)([O-])[O-])c2c1 (3D coordinates assigned)
Cc1ccc2cc(C([NH-])=O)n(C(=O)OCOP(=O)([O-])[O-])c2c1 (optimized conformer: 67.25494009946384 kcal/mol)

>  <smiles>  (56) 
Cc1ccc2cc(C(N)=O)n(C(=O)OCOP(=O)(O)O)c2c1

>  <score_type>  (56) 
oracle

>  <origin>  (56) 
adg

>  <m_score__min__energy>  (56) 
-13.48

>  <m_primary>  (56) 
energy

$$$$
58:0
     RDKit          3D

 37 38  0  0  0  0  0  0  0  0999 V2000
   -7.9620   18.5420  -32.4710 C   0  0  0  0  0  0  0  0  0  0  0  0
   -7.8400   19.9880  -32.0910 C   0  0  0  0  0  0  0  0  0  0  0  0
   -9.0020   20.7830  -31.9400 C   0  0  0  0  0  0  0  0  0  0  0  0
   -8.9010   22.1320  -31.5640 C   0  0  0  0  0  0  0  0  0  0  0  0
   -7.6320   22.6510  -31.3240 C   0  0  0  0  0  0  0  0  0  0  0  0
   -7.2480   23.9260  -30.9760 C   0  0  0  0  0  0  0  0  0  0  0  0
   -5.8580   23.8760  -30.8760 C   0  0  0  0  0  0  0  0  0  0  0  0
   -5.0320   25.0270  -30.4550 C   0  0  0  0  0  0  0  0  0  0  0  0
   -3.6780   24.8530  -30.0340 N   0  0  0  0  0  0  0  0  0  0  0  0
   -5.5490   26.1740  -30.4080 O   0  0  0  0  0  0  0  0  0  0  0  0
   -5.4010   22.6260  -31.1650 N   0  0  0  0  0  0  0  0  0  0  0  0
   -4.0360   22.2010  -31.2830 C   0  0  0  0  0  0  0  0  0  0  0  0
   -3.1950   22.9440  -31.8610 O   0  0  0  0  0  0  0  0  0  0  0  0
   -3.6420   20.9680  -30.7510 O   0  0  0  0  0  0  0  0  0  0  0  0
   -3.1550   20.8110  -29.4200 C   0  0  0  0  0  0  0  0  0  0  0  0
   -3.1660   22.1250  -28.7060 C   0  0  0  0  0  0  0  0  0  0  0  0
   -4.2660   22.6610  -28.4020 O   0  0  0  0  0  0  0  0  0  0  0  0
   -1.9300   22.7850  -28.4110 N   0  0  0  0  0  0  0  0  0  0  0  0
   -1.8300   23.9640  -27.5600 C   0  0  0  0  0  0  0  0  0  0  0  0
   -1.0060   25.0180  -28.2270 C   0  0  0  0  0  0  0  0  0  0  0  0
    0.2480   25.0000  -28.1200 O   0  0  0  0  0  0  0  0  0  0  0  0
   -1.6220   26.0290  -28.9530 O   0  0  0  0  0  0  0  0  0  0  0  0
   -6.4990   21.8850  -31.4330 C   0  0  0  0  0  0  0  0  0  0  0  0
   -6.5690   20.5440  -31.8260 C   0  0  0  0  0  0  0  0  0  0  0  0
   -8.0139   17.9268  -31.5606 H   0  0  0  0  0  0  0  0  0  0  0  0
   -8.8757   18.3949  -33.0655 H   0  0  0  0  0  0  0  0  0  0  0  0
   -7.0858   18.2439  -33.0655 H   0  0  0  0  0  0  0  0  0  0  0  0
   -9.9927   20.3397  -32.1189 H   0  0  0  0  0  0  0  0  0  0  0  0
   -9.7983   22.7601  -31.4621 H   0  0  0  0  0  0  0  0  0  0  0  0
   -7.8983   24.7979  -30.8119 H   0  0  0  0  0  0  0  0  0  0  0  0
   -3.0990   25.6840  -29.7810 H   0  0  0  0  0  0  0  0  0  0  0  0
   -3.2780   23.9010  -29.8770 H   0  0  0  0  0  0  0  0  0  0  0  0
   -3.7967   20.0991  -28.8802 H   0  0  0  0  0  0  0  0  0  0  0  0
   -2.1228   20.4328  -29.4585 H   0  0  0  0  0  0  0  0  0  0  0  0
   -2.8384   24.3594  -27.3681 H   0  0  0  0  0  0  0  0  0  0  0  0
   -1.3490   23.6809  -26.6121 H   0  0  0  0  0  0  0  0  0  0  0  0
   -5.6566   19.9377  -31.9261 H   0  0  0  0  0  0  0  0  0  0  0  0
  1  2  1  0
  2  3  2  0
  3  4  1  0
  4  5  2  0
  5  6  1  0
  6  7  2  0
  7  8  1  0
  8  9  1  0
  8 10  2  0
  7 11  1  0
 11 12  1  0
 12 13  2  0
 12 14  1  0
 14 15  1  0
 15 16  1  0
 16 17  2  0
 16 18  1  0
 18 19  1  0
 19 20  1  0
 20 21  2  0
 20 22  1  0
 11 23  1  0
 23 24  2  0
 24  2  1  0
 23  5  1  0
  1 25  1  0
  1 26  1  0
  1 27  1  0
  3 28  1  0
  4 29  1  0
  6 30  1  0
  9 31  1  0
  9 32  1  0
 15 33  1  0
 15 34  1  0
 19 35  1  0
 19 36  1  0
 24 37  1  0
M  CHG  2  18  -1  22  -1
M  END
>  <UniqueID>  (57) 
57

>  <SMILES>  (57) 
Cc1ccc2cc(C(N)=O)n(C(=O)OCC(=O)[N-]CC(=O)[O-])c2c1

>  <Energy>  (57) 
70.10719870905585

>  <Genealogy>  (57) 
Cc1ccc2cc(C(N)=O)n(C(=O)OCC(=O)[N-]CC(=O)[O-])c2c1 (protonated)
Cc1ccc2cc(C(N)=O)n(C(=O)OCC(=O)[N-]CC(=O)[O-])c2c1 (3D coordinates assigned)
Cc1ccc2cc(C(N)=O)n(C(=O)OCC(=O)[N-]CC(=O)[O-])c2c1 (optimized conformer: 70.10719870905585 kcal/mol)

>  <smiles>  (57) 
Cc1ccc2cc(C(N)=O)n(C(=O)OCC(=O)NCC(=O)O)c2c1

>  <score_type>  (57) 
oracle

>  <origin>  (57) 
adg

>  <m_score__min__energy>  (57) 
-12.210000000000001

>  <m_primary>  (57) 
energy

$$$$
59:0
     RDKit          3D

 42 43  0  0  0  0  0  0  0  0999 V2000
   -7.2140   18.5310  -33.1090 C   0  0  0  0  0  0  0  0  0  0  0  0
   -7.3520   19.9070  -32.5300 C   0  0  0  0  0  0  0  0  0  0  0  0
   -8.6380   20.4700  -32.3390 C   0  0  0  0  0  0  0  0  0  0  0  0
   -8.7800   21.7780  -31.8430 C   0  0  0  0  0  0  0  0  0  0  0  0
   -7.6220   22.4940  -31.5530 C   0  0  0  0  0  0  0  0  0  0  0  0
   -7.4720   23.7810  -31.0910 C   0  0  0  0  0  0  0  0  0  0  0  0
   -6.0960   23.9830  -31.0000 C   0  0  0  0  0  0  0  0  0  0  0  0
   -5.4880   25.2170  -30.4580 C   0  0  0  0  0  0  0  0  0  0  0  0
   -4.1780   25.5990  -30.8690 N   0  0  0  0  0  0  0  0  0  0  0  0
   -6.1260   25.9570  -29.6650 O   0  0  0  0  0  0  0  0  0  0  0  0
   -5.4220   22.8660  -31.3990 N   0  0  0  0  0  0  0  0  0  0  0  0
   -4.0010   22.6840  -31.5100 C   0  0  0  0  0  0  0  0  0  0  0  0
   -3.2330   23.1840  -30.6440 O   0  0  0  0  0  0  0  0  0  0  0  0
   -3.4760   21.9670  -32.5910 O   0  0  0  0  0  0  0  0  0  0  0  0
   -2.6430   20.8210  -32.4370 C   0  0  0  0  0  0  0  0  0  0  0  0
   -1.1900   21.2070  -32.5040 C   0  0  0  0  0  0  0  0  0  0  0  0
   -0.5360   20.9380  -33.5460 O   0  0  0  0  0  0  0  0  0  0  0  0
   -0.5300   21.9140  -31.4450 N   0  0  0  0  0  0  0  0  0  0  0  0
   -0.7990   21.7810  -30.0150 C   0  0  0  0  0  0  0  0  0  0  0  0
   -0.6160   23.1150  -29.2940 C   0  0  0  0  0  0  0  0  0  0  0  0
   -1.4500   23.1510  -28.1590 O   0  0  0  0  0  0  0  0  0  0  0  0
   -2.2460   24.6590  -28.1240 P   0  0  1  0  0  0  0  0  0  0  0  0
   -2.0240   25.2970  -26.7730 O   0  0  0  0  0  0  0  0  0  0  0  0
   -1.6140   25.6750  -29.3220 O   0  0  0  0  0  0  0  0  0  0  0  0
   -3.9090   24.4520  -28.3670 O   0  0  0  0  0  0  0  0  0  0  0  0
   -6.3710   21.9630  -31.7300 C   0  0  0  0  0  0  0  0  0  0  0  0
   -6.1990   20.6710  -32.2400 C   0  0  0  0  0  0  0  0  0  0  0  0
   -7.1403   17.7959  -32.2940 H   0  0  0  0  0  0  0  0  0  0  0  0
   -8.0939   18.3041  -33.7289 H   0  0  0  0  0  0  0  0  0  0  0  0
   -6.3066   18.4834  -33.7289 H   0  0  0  0  0  0  0  0  0  0  0  0
   -9.5334   19.8786  -32.5809 H   0  0  0  0  0  0  0  0  0  0  0  0
   -9.7748   22.2215  -31.6890 H   0  0  0  0  0  0  0  0  0  0  0  0
   -8.2689   24.4984  -30.8455 H   0  0  0  0  0  0  0  0  0  0  0  0
   -3.3360   25.2940  -30.3320 H   0  0  0  0  0  0  0  0  0  0  0  0
   -2.8480   20.3539  -31.4624 H   0  0  0  0  0  0  0  0  0  0  0  0
   -2.8593   20.1144  -33.2518 H   0  0  0  0  0  0  0  0  0  0  0  0
   -1.8341   21.4360  -29.8748 H   0  0  0  0  0  0  0  0  0  0  0  0
   -0.0887   21.0553  -29.5922 H   0  0  0  0  0  0  0  0  0  0  0  0
    0.4333   23.2228  -28.9821 H   0  0  0  0  0  0  0  0  0  0  0  0
   -0.8822   23.9391  -29.9722 H   0  0  0  0  0  0  0  0  0  0  0  0
   -4.2200   25.3090  -28.7540 H   0  0  0  0  0  0  0  0  0  0  0  0
   -5.1926   20.2610  -32.4106 H   0  0  0  0  0  0  0  0  0  0  0  0
  1  2  1  0
  2  3  2  0
  3  4  1  0
  4  5  2  0
  5  6  1  0
  6  7  2  0
  7  8  1  0
  8  9  1  0
  8 10  2  0
  7 11  1  0
 11 12  1  0
 12 13  2  0
 12 14  1  0
 14 15  1  0
 15 16  1  0
 16 17  2  0
 16 18  1  0
 18 19  1  0
 19 20  1  0
 20 21  1  0
 21 22  1  0
 22 23  2  0
 22 24  1  6
 22 25  1  0
 11 26  1  0
 26 27  2  0
 27  2  1  0
 26  5  1  0
  1 28  1  0
  1 29  1  0
  1 30  1  0
  3 31  1  0
  4 32  1  0
  6 33  1  0
  9 34  1  0
 15 35  1  0
 15 36  1  0
 19 37  1  0
 19 38  1  0
 20 39  1  0
 20 40  1  0
 25 41  1  0
 27 42  1  0
M  CHG  3   9  -1  18  -1  24  -1
M  END
>  <UniqueID>  (58) 
58

>  <SMILES>  (58) 
Cc1ccc2cc(C([NH-])=O)n(C(=O)OCC(=O)[N-]CCO[P@@](=O)([O-])O)c2c1

>  <Energy>  (58) 
72.66461009205919

>  <Genealogy>  (58) 
Cc1ccc2cc(C([NH-])=O)n(C(=O)OCC(=O)[N-]CCOP(=O)([O-])O)c2c1 (protonated)
Cc1ccc2cc(C([NH-])=O)n(C(=O)OCC(=O)[N-]CCO[P@@](=O)([O-])O)c2c1 (chirality)
Cc1ccc2cc(C([NH-])=O)n(C(=O)OCC(=O)[N-]CCO[P@@](=O)([O-])O)c2c1 (3D coordinates assigned)
Cc1ccc2cc(C([NH-])=O)n(C(=O)OCC(=O)[N-]CCO[P@@](=O)([O-])O)c2c1 (optimized conformer: 72.66461009205919 kcal/mol)

>  <smiles>  (58) 
Cc1ccc2cc(C(N)=O)n(C(=O)OCC(=O)NCCOP(=O)(O)O)c2c1

>  <score_type>  (58) 
oracle

>  <origin>  (58) 
adg

>  <m_score__min__energy>  (58) 
-12.24

>  <m_primary>  (58) 
energy

$$$$
60:0
     RDKit          3D

 40 41  0  0  0  0  0  0  0  0999 V2000
   -1.3790   25.9680  -25.8560 C   0  0  0  0  0  0  0  0  0  0  0  0
   -0.9280   26.5770  -27.1830 C   0  0  0  0  0  0  0  0  0  0  0  0
   -0.7290   25.5110  -28.2620 C   0  0  0  0  0  0  0  0  0  0  0  0
   -1.9890   25.2480  -28.9460 N   0  0  0  0  0  0  0  0  0  0  0  0
   -2.9510   24.3010  -28.4770 C   0  0  0  0  0  0  0  0  0  0  0  0
   -3.6750   24.5660  -27.4790 O   0  0  0  0  0  0  0  0  0  0  0  0
   -3.1340   23.0110  -29.2070 C   0  0  0  0  0  0  0  0  0  0  0  0
   -2.9030   23.2190  -30.5960 O   0  0  0  0  0  0  0  0  0  0  0  0
   -3.7510   22.7300  -31.5910 C   0  0  0  0  0  0  0  0  0  0  0  0
   -3.2760   22.1320  -32.5950 O   0  0  0  0  0  0  0  0  0  0  0  0
   -5.1720   22.8810  -31.4480 N   0  0  0  0  0  0  0  0  0  0  0  0
   -5.8640   23.9890  -31.0560 C   0  0  0  0  0  0  0  0  0  0  0  0
   -5.2780   25.2440  -30.5390 C   0  0  0  0  0  0  0  0  0  0  0  0
   -3.9760   25.6650  -30.9380 N   0  0  0  0  0  0  0  0  0  0  0  0
   -5.9160   25.9280  -29.6950 O   0  0  0  0  0  0  0  0  0  0  0  0
   -7.2370   23.7570  -31.1240 C   0  0  0  0  0  0  0  0  0  0  0  0
   -7.3660   22.4600  -31.5630 C   0  0  0  0  0  0  0  0  0  0  0  0
   -8.5120   21.7100  -31.8130 C   0  0  0  0  0  0  0  0  0  0  0  0
   -8.3490   20.3970  -32.2870 C   0  0  0  0  0  0  0  0  0  0  0  0
   -7.0570   19.8660  -32.5110 C   0  0  0  0  0  0  0  0  0  0  0  0
   -6.9110   18.4620  -33.0190 C   0  0  0  0  0  0  0  0  0  0  0  0
   -5.9160   20.6530  -32.2400 C   0  0  0  0  0  0  0  0  0  0  0  0
   -6.1060   21.9520  -31.7510 C   0  0  0  0  0  0  0  0  0  0  0  0
   -0.9512   26.5456  -25.0233 H   0  0  0  0  0  0  0  0  0  0  0  0
   -2.4770   25.9945  -25.7947 H   0  0  0  0  0  0  0  0  0  0  0  0
   -1.0334   24.9255  -25.7947 H   0  0  0  0  0  0  0  0  0  0  0  0
   -1.6923   27.2905  -27.5248 H   0  0  0  0  0  0  0  0  0  0  0  0
    0.0370   27.0784  -27.0173 H   0  0  0  0  0  0  0  0  0  0  0  0
    0.0136   25.8663  -28.9916 H   0  0  0  0  0  0  0  0  0  0  0  0
   -0.3757   24.5826  -27.7895 H   0  0  0  0  0  0  0  0  0  0  0  0
   -2.4201   22.2673  -28.8232 H   0  0  0  0  0  0  0  0  0  0  0  0
   -4.1599   22.6443  -29.0552 H   0  0  0  0  0  0  0  0  0  0  0  0
   -3.1240   25.2940  -30.4640 H   0  0  0  0  0  0  0  0  0  0  0  0
   -8.0454   24.4615  -30.8787 H   0  0  0  0  0  0  0  0  0  0  0  0
   -9.5138   22.1319  -31.6448 H   0  0  0  0  0  0  0  0  0  0  0  0
   -9.2349   19.7760  -32.4858 H   0  0  0  0  0  0  0  0  0  0  0  0
   -6.8390   17.7696  -32.1673 H   0  0  0  0  0  0  0  0  0  0  0  0
   -7.7868   18.2006  -33.6311 H   0  0  0  0  0  0  0  0  0  0  0  0
   -6.0001   18.3864  -33.6311 H   0  0  0  0  0  0  0  0  0  0  0  0
   -4.9040   20.2561  -32.4086 H   0  0  0  0  0  0  0  0  0  0  0  0
  1  2  1  0
  2  3  1  0
  3  4  1  0
  4  5  1  0
  5  6  2  0
  5  7  1  0
  7  8  1  0
  8  9  1  0
  9 10  2  0
  9 11  1  0
 11 12  1  0
 12 13  1  0
 13 14  1  0
 13 15  2  0
 12 16  2  0
 16 17  1  0
 17 18  2  0
 18 19  1  0
 19 20  2  0
 20 21  1  0
 20 22  1  0
 22 23  2  0
 23 11  1  0
 23 17  1  0
  1 24  1  0
  1 25  1  0
  1 26  1  0
  2 27  1  0
  2 28  1  0
  3 29  1  0
  3 30  1  0
  7 31  1  0
  7 32  1  0
 14 33  1  0
 16 34  1  0
 18 35  1  0
 19 36  1  0
 21 37  1  0
 21 38  1  0
 21 39  1  0
 22 40  1  0
M  CHG  2   4  -1  14  -1
M  END
>  <UniqueID>  (59) 
59

>  <SMILES>  (59) 
CCC[N-]C(=O)COC(=O)n1c(C([NH-])=O)cc2ccc(C)cc21

>  <Energy>  (59) 
66.36531761249859

>  <Genealogy>  (59) 
CCC[N-]C(=O)COC(=O)n1c(C([NH-])=O)cc2ccc(C)cc21 (protonated)
CCC[N-]C(=O)COC(=O)n1c(C([NH-])=O)cc2ccc(C)cc21 (3D coordinates assigned)
CCC[N-]C(=O)COC(=O)n1c(C([NH-])=O)cc2ccc(C)cc21 (optimized conformer: 66.36531761249859 kcal/mol)

>  <smiles>  (59) 
CCCNC(=O)COC(=O)n1c(C(N)=O)cc2ccc(C)cc21

>  <score_type>  (59) 
oracle

>  <origin>  (59) 
adg

>  <m_score__min__energy>  (59) 
-11.67

>  <m_primary>  (59) 
energy

$$$$
61:0
     RDKit          3D

 39 40  0  0  0  0  0  0  0  0999 V2000
   -0.5100   22.3160  -29.6510 C   0  0  0  0  0  0  0  0  0  0  0  0
   -1.6000   22.9060  -28.8570 N   0  0  2  0  0  0  0  0  0  0  0  0
   -1.0600   23.8190  -27.8280 C   0  0  0  0  0  0  0  0  0  0  0  0
   -0.8810   25.2100  -28.3650 C   0  0  0  0  0  0  0  0  0  0  0  0
   -1.6200   25.6300  -29.2940 O   0  0  0  0  0  0  0  0  0  0  0  0
    0.1280   26.0240  -27.8670 O   0  0  0  0  0  0  0  0  0  0  0  0
   -2.3900   21.8570  -28.2580 C   0  0  0  0  0  0  0  0  0  0  0  0
   -2.4040   21.7050  -27.0040 O   0  0  0  0  0  0  0  0  0  0  0  0
   -3.1930   21.0510  -29.0750 O   0  0  0  0  0  0  0  0  0  0  0  0
   -3.3820   21.2860  -30.4250 N   0  0  0  0  0  0  0  0  0  0  0  0
   -3.8390   22.5280  -30.9740 C   0  0  0  0  0  0  0  0  0  0  0  0
   -3.0090   23.4200  -31.2960 O   0  0  0  0  0  0  0  0  0  0  0  0
   -5.2470   22.7860  -31.0870 N   0  0  0  0  0  0  0  0  0  0  0  0
   -5.8990   23.9650  -30.8770 C   0  0  0  0  0  0  0  0  0  0  0  0
   -5.2990   25.2030  -30.3380 C   0  0  0  0  0  0  0  0  0  0  0  0
   -4.0520   25.6690  -30.8500 N   0  0  0  0  0  0  0  0  0  0  0  0
   -5.8920   25.8740  -29.4540 O   0  0  0  0  0  0  0  0  0  0  0  0
   -7.2570   23.8290  -31.1600 C   0  0  0  0  0  0  0  0  0  0  0  0
   -7.4200   22.5180  -31.5460 C   0  0  0  0  0  0  0  0  0  0  0  0
   -8.5670   21.8370  -31.9370 C   0  0  0  0  0  0  0  0  0  0  0  0
   -8.4410   20.4860  -32.3000 C   0  0  0  0  0  0  0  0  0  0  0  0
   -7.1720   19.8480  -32.2920 C   0  0  0  0  0  0  0  0  0  0  0  0
   -7.0560   18.3860  -32.6460 C   0  0  0  0  0  0  0  0  0  0  0  0
   -8.2960   17.7880  -32.5160 F   0  0  0  0  0  0  0  0  0  0  0  0
   -6.6170   18.2340  -33.9490 F   0  0  0  0  0  0  0  0  0  0  0  0
   -6.1560   17.7500  -31.8090 F   0  0  0  0  0  0  0  0  0  0  0  0
   -6.0320   20.5710  -31.8670 C   0  0  0  0  0  0  0  0  0  0  0  0
   -6.1930   21.9100  -31.4950 C   0  0  0  0  0  0  0  0  0  0  0  0
    0.2535   21.9027  -28.9755 H   0  0  0  0  0  0  0  0  0  0  0  0
   -0.9120   21.5123  -30.2854 H   0  0  0  0  0  0  0  0  0  0  0  0
   -0.0569   23.0920  -30.2854 H   0  0  0  0  0  0  0  0  0  0  0  0
   -2.2060   23.4530  -29.5140 H   0  0  0  0  0  0  0  0  0  0  0  0
   -1.7570   23.8512  -26.9776 H   0  0  0  0  0  0  0  0  0  0  0  0
   -0.0758   23.4412  -27.5139 H   0  0  0  0  0  0  0  0  0  0  0  0
   -3.1490   25.3010  -30.4790 H   0  0  0  0  0  0  0  0  0  0  0  0
   -8.0336   24.6048  -31.0897 H   0  0  0  0  0  0  0  0  0  0  0  0
   -9.5443   22.3412  -31.9614 H   0  0  0  0  0  0  0  0  0  0  0  0
   -9.3347   19.9159  -32.5936 H   0  0  0  0  0  0  0  0  0  0  0  0
   -5.0427   20.0915  -31.8300 H   0  0  0  0  0  0  0  0  0  0  0  0
  1  2  1  0
  2  3  1  0
  3  4  1  0
  4  5  2  0
  4  6  1  0
  2  7  1  0
  7  8  2  0
  7  9  1  0
  9 10  1  0
 10 11  1  0
 11 12  2  0
 11 13  1  0
 13 14  1  0
 14 15  1  0
 15 16  1  0
 15 17  2  0
 14 18  2  0
 18 19  1  0
 19 20  2  0
 20 21  1  0
 21 22  2  0
 22 23  1  0
 23 24  1  0
 23 25  1  0
 23 26  1  0
 22 27  1  0
 27 28  2  0
 28 13  1  0
 28 19  1  0
  1 29  1  0
  1 30  1  0
  1 31  1  0
  2 32  1  6
  3 33  1  0
  3 34  1  0
 16 35  1  0
 18 36  1  0
 20 37  1  0
 21 38  1  0
 27 39  1  0
M  CHG  4   2   1   6  -1  10  -1  16  -1
M  END
>  <UniqueID>  (60) 
60

>  <SMILES>  (60) 
C[N@H+](CC(=O)[O-])C(=O)O[N-]C(=O)n1c(C([NH-])=O)cc2ccc(C(F)(F)F)cc21

>  <Energy>  (60) 
85.16214225726296

>  <Genealogy>  (60) 
C[NH+](CC(=O)[O-])C(=O)O[N-]C(=O)n1c(C([NH-])=O)cc2ccc(C(F)(F)F)cc21 (protonated)
C[N@H+](CC(=O)[O-])C(=O)O[N-]C(=O)n1c(C([NH-])=O)cc2ccc(C(F)(F)F)cc21 (chirality)
C[N@H+](CC(=O)[O-])C(=O)O[N-]C(=O)n1c(C([NH-])=O)cc2ccc(C(F)(F)F)cc21 (3D coordinates assigned)
C[N@H+](CC(=O)[O-])C(=O)O[N-]C(=O)n1c(C([NH-])=O)cc2ccc(C(F)(F)F)cc21 (optimized conformer: 85.16214225726296 kcal/mol)

>  <smiles>  (60) 
CN(CC(=O)O)C(=O)ONC(=O)n1c(C(N)=O)cc2ccc(C(F)(F)F)cc21

>  <score_type>  (60) 
oracle

>  <origin>  (60) 
adg

>  <m_score__min__energy>  (60) 
-11.470000000000001

>  <m_primary>  (60) 
energy

$$$$
62:0
     RDKit          3D

 42 43  0  0  0  0  0  0  0  0999 V2000
   -0.9070   26.0430  -28.0990 C   0  0  0  0  0  0  0  0  0  0  0  0
   -1.9520   25.3990  -28.7960 O   0  0  0  0  0  0  0  0  0  0  0  0
   -2.7330   24.6190  -27.9100 C   0  0  0  0  0  0  0  0  0  0  0  0
   -2.7270   23.1480  -28.3610 C   0  0  0  0  0  0  0  0  0  0  0  0
   -2.3970   22.9950  -29.7990 N   0  0  1  0  0  0  0  0  0  0  0  0
   -1.0070   22.5480  -30.0040 C   0  0  0  0  0  0  0  0  0  0  0  0
   -3.2940   22.0320  -30.4050 C   0  0  0  0  0  0  0  0  0  0  0  0
   -3.4140   20.8790  -29.9030 O   0  0  0  0  0  0  0  0  0  0  0  0
   -4.0540   22.3560  -31.6320 C   0  0  0  0  0  0  0  0  0  0  0  0
   -3.4690   22.3990  -32.7470 O   0  0  0  0  0  0  0  0  0  0  0  0
   -5.4630   22.6210  -31.5640 N   0  0  0  0  0  0  0  0  0  0  0  0
   -6.0800   23.7490  -31.1120 C   0  0  0  0  0  0  0  0  0  0  0  0
   -5.4070   25.0010  -30.7060 C   0  0  0  0  0  0  0  0  0  0  0  0
   -3.9850   25.1070  -30.7120 N   0  0  0  0  0  0  0  0  0  0  0  0
   -6.0970   26.0020  -30.3760 O   0  0  0  0  0  0  0  0  0  0  0  0
   -7.4650   23.5870  -31.1350 C   0  0  0  0  0  0  0  0  0  0  0  0
   -7.6770   22.3150  -31.6160 C   0  0  0  0  0  0  0  0  0  0  0  0
   -8.8650   21.6250  -31.8380 C   0  0  0  0  0  0  0  0  0  0  0  0
   -8.7820   20.3080  -32.3220 C   0  0  0  0  0  0  0  0  0  0  0  0
   -7.5210   19.7030  -32.5530 C   0  0  0  0  0  0  0  0  0  0  0  0
   -7.4430   18.3040  -33.0910 C   0  0  0  0  0  0  0  0  0  0  0  0
   -6.4390   17.3030  -32.0140 Cl  0  0  0  0  0  0  0  0  0  0  0  0
   -6.3370   20.4370  -32.3250 C   0  0  0  0  0  0  0  0  0  0  0  0
   -6.4520   21.7520  -31.8630 C   0  0  0  0  0  0  0  0  0  0  0  0
   -1.0715   25.9416  -27.0161 H   0  0  0  0  0  0  0  0  0  0  0  0
    0.0536   25.5800  -28.3689 H   0  0  0  0  0  0  0  0  0  0  0  0
   -0.8888   27.1092  -28.3689 H   0  0  0  0  0  0  0  0  0  0  0  0
   -2.3143   24.6909  -26.8954 H   0  0  0  0  0  0  0  0  0  0  0  0
   -3.7671   24.9941  -27.9137 H   0  0  0  0  0  0  0  0  0  0  0  0
   -1.9800   22.6004  -27.7676 H   0  0  0  0  0  0  0  0  0  0  0  0
   -3.7398   22.7474  -28.2065 H   0  0  0  0  0  0  0  0  0  0  0  0
   -2.5150   23.9240  -30.2670 H   0  0  0  0  0  0  0  0  0  0  0  0
   -0.5241   22.3927  -29.0280 H   0  0  0  0  0  0  0  0  0  0  0  0
   -1.0049   21.6039  -30.5685 H   0  0  0  0  0  0  0  0  0  0  0  0
   -0.4550   23.3139  -30.5685 H   0  0  0  0  0  0  0  0  0  0  0  0
   -3.4840   25.6670  -29.9880 H   0  0  0  0  0  0  0  0  0  0  0  0
   -8.2268   24.3206  -30.8327 H   0  0  0  0  0  0  0  0  0  0  0  0
   -9.8393   22.0960  -31.6407 H   0  0  0  0  0  0  0  0  0  0  0  0
   -9.7034   19.7419  -32.5232 H   0  0  0  0  0  0  0  0  0  0  0  0
   -8.4552   17.8773  -33.1487 H   0  0  0  0  0  0  0  0  0  0  0  0
   -6.9932   18.3239  -34.0946 H   0  0  0  0  0  0  0  0  0  0  0  0
   -5.3499   19.9865  -32.5059 H   0  0  0  0  0  0  0  0  0  0  0  0
  1  2  1  0
  2  3  1  0
  3  4  1  0
  4  5  1  0
  5  6  1  0
  5  7  1  0
  7  8  2  0
  7  9  1  0
  9 10  2  0
  9 11  1  0
 11 12  1  0
 12 13  1  0
 13 14  1  0
 13 15  2  0
 12 16  2  0
 16 17  1  0
 17 18  2  0
 18 19  1  0
 19 20  2  0
 20 21  1  0
 21 22  1  0
 20 23  1  0
 23 24  2  0
 24 11  1  0
 24 17  1  0
  1 25  1  0
  1 26  1  0
  1 27  1  0
  3 28  1  0
  3 29  1  0
  4 30  1  0
  4 31  1  0
  5 32  1  6
  6 33  1  0
  6 34  1  0
  6 35  1  0
 14 36  1  0
 16 37  1  0
 18 38  1  0
 19 39  1  0
 21 40  1  0
 21 41  1  0
 23 42  1  0
M  CHG  2   5   1  14  -1
M  END
>  <UniqueID>  (61) 
61

>  <SMILES>  (61) 
COCC[N@@H+](C)C(=O)C(=O)n1c(C([NH-])=O)cc2ccc(CCl)cc21

>  <Energy>  (61) 
83.73530831793232

>  <Genealogy>  (61) 
COCC[NH+](C)C(=O)C(=O)n1c(C([NH-])=O)cc2ccc(CCl)cc21 (protonated)
COCC[N@@H+](C)C(=O)C(=O)n1c(C([NH-])=O)cc2ccc(CCl)cc21 (chirality)
COCC[N@@H+](C)C(=O)C(=O)n1c(C([NH-])=O)cc2ccc(CCl)cc21 (3D coordinates assigned)
COCC[N@@H+](C)C(=O)C(=O)n1c(C([NH-])=O)cc2ccc(CCl)cc21 (optimized conformer: 83.73530831793232 kcal/mol)

>  <smiles>  (61) 
COCCN(C)C(=O)C(=O)n1c(C(N)=O)cc2ccc(CCl)cc21

>  <score_type>  (61) 
oracle

>  <origin>  (61) 
adg

>  <m_score__min__energy>  (61) 
-8.9399999999999995

>  <m_primary>  (61) 
energy

$$$$
63:0
     RDKit          3D

 42 43  0  0  0  0  0  0  0  0999 V2000
   -1.6030   20.1180  -27.3300 C   0  0  0  0  0  0  0  0  0  0  0  0
   -1.4660   21.2980  -28.1930 N   0  0  0  0  0  0  0  0  0  0  0  0
   -0.7230   22.4730  -27.7110 C   0  0  0  0  0  0  0  0  0  0  0  0
   -1.6090   23.7210  -27.7750 C   0  0  0  0  0  0  0  0  0  0  0  0
   -0.8850   24.8480  -28.4400 C   0  0  0  0  0  0  0  0  0  0  0  0
    0.3260   25.0690  -28.1730 O   0  0  0  0  0  0  0  0  0  0  0  0
   -1.5570   25.6820  -29.3250 O   0  0  0  0  0  0  0  0  0  0  0  0
   -2.0200   21.2970  -29.5290 C   0  0  0  0  0  0  0  0  0  0  0  0
   -1.2490   21.1700  -30.5220 O   0  0  0  0  0  0  0  0  0  0  0  0
   -3.5110   21.3880  -29.7570 C   0  0  0  0  0  0  0  0  0  0  0  0
   -3.8780   22.5340  -30.6570 C   0  0  0  0  0  0  0  0  0  0  0  0
   -2.9670   23.1990  -31.2190 O   0  0  0  0  0  0  0  0  0  0  0  0
   -5.2520   22.8290  -30.9420 N   0  0  0  0  0  0  0  0  0  0  0  0
   -5.9130   24.0080  -30.7700 C   0  0  0  0  0  0  0  0  0  0  0  0
   -5.3020   25.2920  -30.3720 C   0  0  0  0  0  0  0  0  0  0  0  0
   -4.0120   25.6660  -30.8440 N   0  0  0  0  0  0  0  0  0  0  0  0
   -5.9470   26.0890  -29.6380 O   0  0  0  0  0  0  0  0  0  0  0  0
   -7.2570   23.8660  -31.1150 C   0  0  0  0  0  0  0  0  0  0  0  0
   -7.3950   22.5560  -31.5160 C   0  0  0  0  0  0  0  0  0  0  0  0
   -8.5190   21.8660  -31.9610 C   0  0  0  0  0  0  0  0  0  0  0  0
   -8.3710   20.5070  -32.2890 C   0  0  0  0  0  0  0  0  0  0  0  0
   -7.1110   19.8660  -32.1660 C   0  0  0  0  0  0  0  0  0  0  0  0
   -6.9620   18.4070  -32.4860 C   0  0  0  0  0  0  0  0  0  0  0  0
   -8.1830   17.7740  -32.3420 F   0  0  0  0  0  0  0  0  0  0  0  0
   -6.0440   17.8280  -31.6270 F   0  0  0  0  0  0  0  0  0  0  0  0
   -5.9930   20.6010  -31.7140 C   0  0  0  0  0  0  0  0  0  0  0  0
   -6.1690   21.9540  -31.4060 C   0  0  0  0  0  0  0  0  0  0  0  0
   -1.5669   20.4288  -26.2754 H   0  0  0  0  0  0  0  0  0  0  0  0
   -2.5645   19.6242  -27.5340 H   0  0  0  0  0  0  0  0  0  0  0  0
   -0.7802   19.4170  -27.5340 H   0  0  0  0  0  0  0  0  0  0  0  0
   -0.4092   22.3029  -26.6705 H   0  0  0  0  0  0  0  0  0  0  0  0
    0.1600   22.6262  -28.3489 H   0  0  0  0  0  0  0  0  0  0  0  0
   -2.5194   23.4889  -28.3470 H   0  0  0  0  0  0  0  0  0  0  0  0
   -1.8698   24.0233  -26.7500 H   0  0  0  0  0  0  0  0  0  0  0  0
   -3.8569   20.4509  -30.2176 H   0  0  0  0  0  0  0  0  0  0  0  0
   -3.9923   21.5561  -28.7823 H   0  0  0  0  0  0  0  0  0  0  0  0
   -3.1490   25.2280  -30.4510 H   0  0  0  0  0  0  0  0  0  0  0  0
   -8.0405   24.6370  -31.0752 H   0  0  0  0  0  0  0  0  0  0  0  0
   -9.4931   22.3686  -32.0532 H   0  0  0  0  0  0  0  0  0  0  0  0
   -9.2406   19.9348  -32.6445 H   0  0  0  0  0  0  0  0  0  0  0  0
   -6.6095   18.3010  -33.5226 H   0  0  0  0  0  0  0  0  0  0  0  0
   -5.0088   20.1216  -31.6069 H   0  0  0  0  0  0  0  0  0  0  0  0
  1  2  1  0
  2  3  1  0
  3  4  1  0
  4  5  1  0
  5  6  2  0
  5  7  1  0
  2  8  1  0
  8  9  2  0
  8 10  1  0
 10 11  1  0
 11 12  2  0
 11 13  1  0
 13 14  1  0
 14 15  1  0
 15 16  1  0
 15 17  2  0
 14 18  2  0
 18 19  1  0
 19 20  2  0
 20 21  1  0
 21 22  2  0
 22 23  1  0
 23 24  1  0
 23 25  1  0
 22 26  1  0
 26 27  2  0
 27 13  1  0
 27 19  1  0
  1 28  1  0
  1 29  1  0
  1 30  1  0
  3 31  1  0
  3 32  1  0
  4 33  1  0
  4 34  1  0
 10 35  1  0
 10 36  1  0
 16 37  1  0
 18 38  1  0
 20 39  1  0
 21 40  1  0
 23 41  1  0
 26 42  1  0
M  CHG  2   7  -1  16  -1
M  END
>  <UniqueID>  (62) 
62

>  <SMILES>  (62) 
CN(CCC(=O)[O-])C(=O)CC(=O)n1c(C([NH-])=O)cc2ccc(C(F)F)cc21

>  <Energy>  (62) 
76.22322547142356

>  <Genealogy>  (62) 
CN(CCC(=O)[O-])C(=O)CC(=O)n1c(C([NH-])=O)cc2ccc(C(F)F)cc21 (protonated)
CN(CCC(=O)[O-])C(=O)CC(=O)n1c(C([NH-])=O)cc2ccc(C(F)F)cc21 (3D coordinates assigned)
CN(CCC(=O)[O-])C(=O)CC(=O)n1c(C([NH-])=O)cc2ccc(C(F)F)cc21 (optimized conformer: 76.22322547142356 kcal/mol)

>  <smiles>  (62) 
CN(CCC(=O)O)C(=O)CC(=O)n1c(C(N)=O)cc2ccc(C(F)F)cc21

>  <score_type>  (62) 
oracle

>  <origin>  (62) 
adg

>  <m_score__min__energy>  (62) 
-12.59

>  <m_primary>  (62) 
energy

$$$$
64:0
     RDKit          3D

 39 41  0  0  0  0  0  0  0  0999 V2000
   -4.5420   25.6950  -30.7920 N   0  0  0  0  0  0  0  0  0  0  0  0
   -5.7540   25.0550  -30.3990 C   0  0  0  0  0  0  0  0  0  0  0  0
   -6.5240   25.6380  -29.5910 O   0  0  0  0  0  0  0  0  0  0  0  0
   -6.0800   23.7110  -30.9210 C   0  0  0  0  0  0  0  0  0  0  0  0
   -7.3510   23.3340  -31.3470 C   0  0  0  0  0  0  0  0  0  0  0  0
   -7.2130   22.0430  -31.8050 C   0  0  0  0  0  0  0  0  0  0  0  0
   -8.1630   21.1730  -32.3280 C   0  0  0  0  0  0  0  0  0  0  0  0
   -7.7460   19.8840  -32.6970 C   0  0  0  0  0  0  0  0  0  0  0  0
   -6.3930   19.4770  -32.5290 C   0  0  0  0  0  0  0  0  0  0  0  0
   -5.9720   18.1450  -32.9020 N   0  0  0  0  0  0  0  0  0  0  0  0
   -6.8640   17.1330  -33.4530 C   0  0  0  0  0  0  0  0  0  0  0  0
   -6.0440   15.8530  -33.5320 C   0  0  0  0  0  0  0  0  0  0  0  0
   -4.5870   16.2930  -33.4490 C   0  0  2  0  0  0  0  0  0  0  0  0
   -3.8330   15.3870  -32.7220 F   0  0  0  0  0  0  0  0  0  0  0  0
   -4.6050   17.6580  -32.7730 C   0  0  0  0  0  0  0  0  0  0  0  0
   -5.4620   20.3980  -31.9880 C   0  0  0  0  0  0  0  0  0  0  0  0
   -5.9030   21.6800  -31.6500 C   0  0  0  0  0  0  0  0  0  0  0  0
   -5.1920   22.6940  -31.1100 N   0  0  0  0  0  0  0  0  0  0  0  0
   -3.8000   22.6740  -30.7530 C   0  0  0  0  0  0  0  0  0  0  0  0
   -2.9280   22.5680  -31.6590 O   0  0  0  0  0  0  0  0  0  0  0  0
   -3.3830   22.6660  -29.3100 C   0  0  0  0  0  0  0  0  0  0  0  0
   -1.8780   23.6590  -29.0420 P   0  0  0  0  0  0  0  0  0  0  0  0
   -1.4230   23.4950  -27.6100 O   0  0  0  0  0  0  0  0  0  0  0  0
   -0.6550   23.1250  -30.0800 O   0  0  0  0  0  0  0  0  0  0  0  0
   -2.1910   25.2930  -29.3440 O   0  0  0  0  0  0  0  0  0  0  0  0
   -3.8690   26.0560  -30.0800 H   0  0  0  0  0  0  0  0  0  0  0  0
   -8.2695   23.9388  -31.3228 H   0  0  0  0  0  0  0  0  0  0  0  0
   -9.2107   21.4854  -32.4492 H   0  0  0  0  0  0  0  0  0  0  0  0
   -8.4756   19.1789  -33.1219 H   0  0  0  0  0  0  0  0  0  0  0  0
   -7.7338   16.9903  -32.7949 H   0  0  0  0  0  0  0  0  0  0  0  0
   -7.2487   17.4280  -34.4404 H   0  0  0  0  0  0  0  0  0  0  0  0
   -6.2919   15.1859  -32.6932 H   0  0  0  0  0  0  0  0  0  0  0  0
   -6.2484   15.2955  -34.4580 H   0  0  0  0  0  0  0  0  0  0  0  0
   -4.1254   16.3441  -34.4462 H   0  0  0  0  0  0  0  0  0  0  0  0
   -4.3301   17.5640  -31.7121 H   0  0  0  0  0  0  0  0  0  0  0  0
   -3.8833   18.3484  -33.2340 H   0  0  0  0  0  0  0  0  0  0  0  0
   -4.4114   20.1090  -31.8369 H   0  0  0  0  0  0  0  0  0  0  0  0
   -4.1986   23.0819  -28.7002 H   0  0  0  0  0  0  0  0  0  0  0  0
   -3.1665   21.6273  -29.0198 H   0  0  0  0  0  0  0  0  0  0  0  0
  1  2  1  0
  2  3  2  0
  2  4  1  0
  4  5  2  0
  5  6  1  0
  6  7  2  0
  7  8  1  0
  8  9  2  0
  9 10  1  0
 10 11  1  0
 11 12  1  0
 12 13  1  0
 13 14  1  0
 13 15  1  0
  9 16  1  0
 16 17  2  0
 17 18  1  0
 18 19  1  0
 19 20  2  0
 19 21  1  0
 21 22  1  0
 22 23  2  0
 22 24  1  0
 22 25  1  0
 18  4  1  0
 17  6  1  0
 15 10  1  0
  1 26  1  0
  5 27  1  0
  7 28  1  0
  8 29  1  0
 11 30  1  0
 11 31  1  0
 12 32  1  0
 12 33  1  0
 13 34  1  6
 15 35  1  0
 15 36  1  0
 16 37  1  0
 21 38  1  0
 21 39  1  0
M  CHG  3   1  -1  24  -1  25  -1
M  END
>  <UniqueID>  (63) 
63

>  <SMILES>  (63) 
[NH-]C(=O)c1cc2ccc(N3CC[C@H](F)C3)cc2n1C(=O)CP(=O)([O-])[O-]

>  <Energy>  (63) 
76.76482806436597

>  <Genealogy>  (63) 
[NH-]C(=O)c1cc2ccc(N3CC[C@H](F)C3)cc2n1C(=O)CP(=O)([O-])[O-] (protonated)
[NH-]C(=O)c1cc2ccc(N3CC[C@H](F)C3)cc2n1C(=O)CP(=O)([O-])[O-] (3D coordinates assigned)
[NH-]C(=O)c1cc2ccc(N3CC[C@H](F)C3)cc2n1C(=O)CP(=O)([O-])[O-] (nonaromatic ring conformer: 76.76482806436597 kcal/mol)

>  <smiles>  (63) 
NC(=O)c1cc2ccc(N3CC[C@H](F)C3)cc2n1C(=O)CP(=O)(O)O

>  <score_type>  (63) 
oracle

>  <origin>  (63) 
adg

>  <m_score__min__energy>  (63) 
-13.42

>  <m_primary>  (63) 
energy

$$$$
65:0
     RDKit          3D

 37 38  0  0  0  0  0  0  0  0999 V2000
   -3.0440   24.2990  -30.7940 H   0  0  0  0  0  0  0  0  0  0  0  0
   -3.1460   25.0020  -30.0990 O   0  0  0  0  0  0  0  0  0  0  0  0
   -2.7770   24.4050  -28.8890 C   0  0  0  0  0  0  0  0  0  0  0  0
   -3.6567   23.9254  -28.4350 H   0  0  0  0  0  0  0  0  0  0  0  0
   -2.3829   25.1747  -28.2091 H   0  0  0  0  0  0  0  0  0  0  0  0
   -1.7150   23.3690  -29.1360 C   0  0  0  0  0  0  0  0  0  0  0  0
   -0.6721   23.7067  -29.2277 H   0  0  0  0  0  0  0  0  0  0  0  0
   -1.9680   22.0540  -29.2510 C   0  0  0  0  0  0  0  0  0  0  0  0
   -1.1227   21.3720  -29.4252 H   0  0  0  0  0  0  0  0  0  0  0  0
   -3.3530   21.4680  -29.1530 C   0  0  0  0  0  0  0  0  0  0  0  0
   -3.9965   22.1538  -28.5824 H   0  0  0  0  0  0  0  0  0  0  0  0
   -3.2916   20.4941  -28.6453 H   0  0  0  0  0  0  0  0  0  0  0  0
   -3.9080   21.2760  -30.4520 O   0  0  0  0  0  0  0  0  0  0  0  0
   -4.5710   22.2840  -31.1630 C   0  0  0  0  0  0  0  0  0  0  0  0
   -3.9110   23.1820  -31.7550 O   0  0  0  0  0  0  0  0  0  0  0  0
   -6.0070   22.2920  -31.2150 N   0  0  0  0  0  0  0  0  0  0  0  0
   -6.8310   23.3610  -31.0230 C   0  0  0  0  0  0  0  0  0  0  0  0
   -6.4200   24.6940  -30.5370 C   0  0  0  0  0  0  0  0  0  0  0  0
   -7.0630   25.2340  -29.5990 O   0  0  0  0  0  0  0  0  0  0  0  0
   -5.2680   25.3500  -31.0650 N   0  0  0  0  0  0  0  0  0  0  0  0
   -5.0160   26.3100  -30.7400 H   0  0  0  0  0  0  0  0  0  0  0  0
   -4.6170   24.8570  -31.7150 H   0  0  0  0  0  0  0  0  0  0  0  0
   -8.1520   23.0200  -31.2960 C   0  0  0  0  0  0  0  0  0  0  0  0
   -9.0349   23.6736  -31.2393 H   0  0  0  0  0  0  0  0  0  0  0  0
   -8.1190   21.6910  -31.6520 C   0  0  0  0  0  0  0  0  0  0  0  0
   -9.1520   20.8450  -32.0400 C   0  0  0  0  0  0  0  0  0  0  0  0
  -10.1929   21.1994  -32.0705 H   0  0  0  0  0  0  0  0  0  0  0  0
   -8.8270   19.5240  -32.3920 C   0  0  0  0  0  0  0  0  0  0  0  0
   -9.6232   18.8295  -32.6981 H   0  0  0  0  0  0  0  0  0  0  0  0
   -7.4820   19.0790  -32.3560 C   0  0  0  0  0  0  0  0  0  0  0  0
   -7.1360   17.6700  -32.7420 C   0  0  0  0  0  0  0  0  0  0  0  0
   -8.0611   17.0789  -32.8111 H   0  0  0  0  0  0  0  0  0  0  0  0
   -6.3040   17.1150  -31.7870 F   0  0  0  0  0  0  0  0  0  0  0  0
   -6.4930   17.6660  -33.9660 F   0  0  0  0  0  0  0  0  0  0  0  0
   -6.4580   19.9680  -31.9600 C   0  0  0  0  0  0  0  0  0  0  0  0
   -5.4074   19.6428  -31.9372 H   0  0  0  0  0  0  0  0  0  0  0  0
   -6.8130   21.2740  -31.5970 C   0  0  0  0  0  0  0  0  0  0  0  0
  1  2  1  0
  2  3  1  0
  3  4  1  0
  3  5  1  0
  3  6  1  0
  6  7  1  0
  6  8  2  0
  8  9  1  0
  8 10  1  0
 10 11  1  0
 10 12  1  0
 10 13  1  0
 13 14  1  0
 14 15  2  0
 14 16  1  0
 16 17  1  0
 17 18  1  0
 18 19  2  0
 18 20  1  0
 20 21  1  0
 20 22  1  0
 17 23  2  0
 23 24  1  0
 23 25  1  0
 25 26  2  0
 26 27  1  0
 26 28  1  0
 28 29  1  0
 28 30  2  0
 30 31  1  0
 31 32  1  0
 31 33  1  0
 31 34  1  0
 30 35  1  0
 35 36  1  0
 35 37  2  0
 37 16  1  0
 37 25  1  0
M  END
>  <UniqueID>  (64) 
64

>  <SMILES>  (64) 
NC(=O)c1cc2ccc(C(F)F)cc2n1C(=O)OC/C=C\CO

>  <Energy>  (64) 
70.8928296512882

>  <Genealogy>  (64) 
NC(=O)c1cc2ccc(C(F)F)cc2n1C(=O)OC/C=C\CO (cis-trans isomerization)
NC(=O)c1cc2ccc(C(F)F)cc2n1C(=O)OC/C=C\CO (3D coordinates assigned)
NC(=O)c1cc2ccc(C(F)F)cc2n1C(=O)OC/C=C\CO (optimized conformer: 70.8928296512882 kcal/mol)

>  <smiles>  (64) 
NC(=O)c1cc2ccc(C(F)F)cc2n1C(=O)OC/C=C\CO

>  <score_type>  (64) 
oracle

>  <origin>  (64) 
adg

>  <m_score__min__energy>  (64) 
-8.2300000000000004

>  <m_primary>  (64) 
energy

$$$$
66:0
     RDKit          3D

 45 46  0  0  0  0  0  0  0  0999 V2000
   -7.2020   17.8780  -33.0760 C   0  0  0  0  0  0  0  0  0  0  0  0
   -7.3450   19.2670  -32.5300 C   0  0  0  0  0  0  0  0  0  0  0  0
   -8.6240   19.7640  -32.1790 C   0  0  0  0  0  0  0  0  0  0  0  0
   -8.7670   21.0500  -31.6280 C   0  0  0  0  0  0  0  0  0  0  0  0
   -7.6150   21.8080  -31.4360 C   0  0  0  0  0  0  0  0  0  0  0  0
   -7.4580   23.0680  -30.9000 C   0  0  0  0  0  0  0  0  0  0  0  0
   -6.0830   23.3150  -30.9310 C   0  0  0  0  0  0  0  0  0  0  0  0
   -5.4400   24.5720  -30.4790 C   0  0  0  0  0  0  0  0  0  0  0  0
   -5.8080   25.1850  -29.2420 N   0  0  0  0  0  0  0  0  0  0  0  0
   -4.5590   25.1200  -31.1930 O   0  0  0  0  0  0  0  0  0  0  0  0
   -5.4280   22.2540  -31.4750 N   0  0  0  0  0  0  0  0  0  0  0  0
   -4.0120   22.0910  -31.6430 C   0  0  0  0  0  0  0  0  0  0  0  0
   -3.5140   22.2020  -32.7950 O   0  0  0  0  0  0  0  0  0  0  0  0
   -3.1650   21.8120  -30.5120 N   0  0  0  0  0  0  0  0  0  0  0  0
   -2.9010   20.4390  -30.0810 C   0  0  0  0  0  0  0  0  0  0  0  0
   -2.7130   22.8890  -29.6800 C   0  0  0  0  0  0  0  0  0  0  0  0
   -2.0490   23.8260  -30.2020 O   0  0  0  0  0  0  0  0  0  0  0  0
   -3.0350   22.9170  -28.2740 N   0  0  0  0  0  0  0  0  0  0  0  0
   -4.3880   22.5680  -27.8320 C   0  0  0  0  0  0  0  0  0  0  0  0
   -2.0560   23.3960  -27.2870 C   0  0  0  0  0  0  0  0  0  0  0  0
   -1.9910   24.9280  -27.2640 C   0  0  0  0  0  0  0  0  0  0  0  0
   -0.9500   25.4510  -28.2040 C   0  0  0  0  0  0  0  0  0  0  0  0
   -1.2160   26.4120  -28.9720 O   0  0  0  0  0  0  0  0  0  0  0  0
    0.3270   24.9060  -28.2010 O   0  0  0  0  0  0  0  0  0  0  0  0
   -6.3730   21.3380  -31.7700 C   0  0  0  0  0  0  0  0  0  0  0  0
   -6.1970   20.0570  -32.3040 C   0  0  0  0  0  0  0  0  0  0  0  0
   -7.1284   17.1626  -32.2437 H   0  0  0  0  0  0  0  0  0  0  0  0
   -8.0798   17.6342  -33.6925 H   0  0  0  0  0  0  0  0  0  0  0  0
   -6.2929   17.8181  -33.6925 H   0  0  0  0  0  0  0  0  0  0  0  0
   -9.5142   19.1380  -32.3389 H   0  0  0  0  0  0  0  0  0  0  0  0
   -9.7575   21.4445  -31.3573 H   0  0  0  0  0  0  0  0  0  0  0  0
   -8.2474   23.7371  -30.5270 H   0  0  0  0  0  0  0  0  0  0  0  0
   -6.4830   24.7380  -28.5850 H   0  0  0  0  0  0  0  0  0  0  0  0
   -5.3660   26.0880  -28.9570 H   0  0  0  0  0  0  0  0  0  0  0  0
   -2.8925   20.3949  -28.9819 H   0  0  0  0  0  0  0  0  0  0  0  0
   -3.6880   19.7753  -30.4685 H   0  0  0  0  0  0  0  0  0  0  0  0
   -1.9240   20.1145  -30.4685 H   0  0  0  0  0  0  0  0  0  0  0  0
   -4.4236   22.5588  -26.7326 H   0  0  0  0  0  0  0  0  0  0  0  0
   -5.1023   23.3113  -28.2158 H   0  0  0  0  0  0  0  0  0  0  0  0
   -4.6536   21.5719  -28.2158 H   0  0  0  0  0  0  0  0  0  0  0  0
   -2.3469   23.0348  -26.2895 H   0  0  0  0  0  0  0  0  0  0  0  0
   -1.0644   23.0108  -27.5668 H   0  0  0  0  0  0  0  0  0  0  0  0
   -2.9715   25.3311  -27.5575 H   0  0  0  0  0  0  0  0  0  0  0  0
   -1.7241   25.2451  -26.2451 H   0  0  0  0  0  0  0  0  0  0  0  0
   -5.1926   19.6761  -32.5411 H   0  0  0  0  0  0  0  0  0  0  0  0
  1  2  1  0
  2  3  2  0
  3  4  1  0
  4  5  2  0
  5  6  1  0
  6  7  2  0
  7  8  1  0
  8  9  1  0
  8 10  2  0
  7 11  1  0
 11 12  1  0
 12 13  2  0
 12 14  1  0
 14 15  1  0
 14 16  1  0
 16 17  2  0
 16 18  1  0
 18 19  1  0
 18 20  1  0
 20 21  1  0
 21 22  1  0
 22 23  2  0
 22 24  1  0
 11 25  1  0
 25 26  2  0
 26  2  1  0
 25  5  1  0
  1 27  1  0
  1 28  1  0
  1 29  1  0
  3 30  1  0
  4 31  1  0
  6 32  1  0
  9 33  1  0
  9 34  1  0
 15 35  1  0
 15 36  1  0
 15 37  1  0
 19 38  1  0
 19 39  1  0
 19 40  1  0
 20 41  1  0
 20 42  1  0
 21 43  1  0
 21 44  1  0
 26 45  1  0
M  CHG  1  24  -1
M  END
>  <UniqueID>  (65) 
65

>  <SMILES>  (65) 
Cc1ccc2cc(C(N)=O)n(C(=O)N(C)C(=O)N(C)CCC(=O)[O-])c2c1

>  <Energy>  (65) 
83.82069046359668

>  <Genealogy>  (65) 
Cc1ccc2cc(C(N)=O)n(C(=O)N(C)C(=O)N(C)CCC(=O)[O-])c2c1 (protonated)
Cc1ccc2cc(C(N)=O)n(C(=O)N(C)C(=O)N(C)CCC(=O)[O-])c2c1 (3D coordinates assigned)
Cc1ccc2cc(C(N)=O)n(C(=O)N(C)C(=O)N(C)CCC(=O)[O-])c2c1 (optimized conformer: 83.82069046359668 kcal/mol)

>  <smiles>  (65) 
Cc1ccc2cc(C(N)=O)n(C(=O)N(C)C(=O)N(C)CCC(=O)O)c2c1

>  <score_type>  (65) 
oracle

>  <origin>  (65) 
adg

>  <m_score__min__energy>  (65) 
-11.16

>  <m_primary>  (65) 
energy

$$$$
67:0
     RDKit          3D

 41 43  0  0  0  0  0  0  0  0999 V2000
   -3.8650   25.6610  -30.7980 N   0  0  0  0  0  0  0  0  0  0  0  0
   -5.1990   25.1960  -30.6290 C   0  0  0  0  0  0  0  0  0  0  0  0
   -6.0390   25.9420  -30.0580 O   0  0  0  0  0  0  0  0  0  0  0  0
   -5.6040   23.8400  -31.0670 C   0  0  0  0  0  0  0  0  0  0  0  0
   -6.8700   23.5540  -31.5710 C   0  0  0  0  0  0  0  0  0  0  0  0
   -6.8750   22.2010  -31.8080 C   0  0  0  0  0  0  0  0  0  0  0  0
   -7.9020   21.3760  -32.2510 C   0  0  0  0  0  0  0  0  0  0  0  0
   -7.6530   19.9960  -32.3290 C   0  0  0  0  0  0  0  0  0  0  0  0
   -6.3890   19.4660  -31.9670 C   0  0  0  0  0  0  0  0  0  0  0  0
   -6.1500   17.9770  -31.9740 C   0  0  0  0  0  0  0  0  0  0  0  0
   -6.1140   17.4770  -30.6820 F   0  0  0  0  0  0  0  0  0  0  0  0
   -7.1630   17.3310  -32.6610 F   0  0  0  0  0  0  0  0  0  0  0  0
   -4.9440   17.7130  -32.5950 F   0  0  0  0  0  0  0  0  0  0  0  0
   -5.3790   20.3360  -31.4950 C   0  0  0  0  0  0  0  0  0  0  0  0
   -5.6420   21.7100  -31.4600 C   0  0  0  0  0  0  0  0  0  0  0  0
   -4.8410   22.7090  -31.0230 N   0  0  0  0  0  0  0  0  0  0  0  0
   -3.4500   22.5920  -30.6690 C   0  0  0  0  0  0  0  0  0  0  0  0
   -2.5800   23.0160  -31.4790 O   0  0  0  0  0  0  0  0  0  0  0  0
   -3.0640   22.0430  -29.3750 N   0  0  2  0  0  0  0  0  0  0  0  0
   -4.1500   22.0520  -28.3550 C   0  0  0  0  0  0  0  0  0  0  0  0
   -4.1670   23.3080  -27.4540 C   0  0  0  0  0  0  0  0  0  0  0  0
   -3.4310   24.4870  -28.0820 C   0  0  0  0  0  0  0  0  0  0  0  0
   -1.9730   24.1190  -28.3930 C   0  0  2  0  0  0  0  0  0  0  0  0
   -1.4690   25.0070  -29.3540 O   0  0  0  0  0  0  0  0  0  0  0  0
   -1.8130   22.6490  -28.8670 C   0  0  0  0  0  0  0  0  0  0  0  0
   -3.0590   24.9980  -30.7870 H   0  0  0  0  0  0  0  0  0  0  0  0
   -7.6934   24.2628  -31.7432 H   0  0  0  0  0  0  0  0  0  0  0  0
   -8.8809   21.7916  -32.5322 H   0  0  0  0  0  0  0  0  0  0  0  0
   -8.4478   19.3187  -32.6749 H   0  0  0  0  0  0  0  0  0  0  0  0
   -4.4076   19.9412  -31.1625 H   0  0  0  0  0  0  0  0  0  0  0  0
   -2.8420   21.0350  -29.5390 H   0  0  0  0  0  0  0  0  0  0  0  0
   -5.1152   21.9911  -28.8791 H   0  0  0  0  0  0  0  0  0  0  0  0
   -3.9674   21.1925  -27.6933 H   0  0  0  0  0  0  0  0  0  0  0  0
   -5.2124   23.5996  -27.2749 H   0  0  0  0  0  0  0  0  0  0  0  0
   -3.6519   23.0536  -26.5160 H   0  0  0  0  0  0  0  0  0  0  0  0
   -3.9377   24.7720  -29.0158 H   0  0  0  0  0  0  0  0  0  0  0  0
   -3.4380   25.3256  -27.3702 H   0  0  0  0  0  0  0  0  0  0  0  0
   -1.3966   24.2063  -27.4602 H   0  0  0  0  0  0  0  0  0  0  0  0
   -1.8990   24.7740  -30.2180 H   0  0  0  0  0  0  0  0  0  0  0  0
   -1.0643   22.6244  -29.6725 H   0  0  0  0  0  0  0  0  0  0  0  0
   -1.5077   22.0617  -27.9884 H   0  0  0  0  0  0  0  0  0  0  0  0
  1  2  1  0
  2  3  2  0
  2  4  1  0
  4  5  2  0
  5  6  1  0
  6  7  2  0
  7  8  1  0
  8  9  2  0
  9 10  1  0
 10 11  1  0
 10 12  1  0
 10 13  1  0
  9 14  1  0
 14 15  2  0
 15 16  1  0
 16 17  1  0
 17 18  2  0
 17 19  1  0
 19 20  1  0
 20 21  1  0
 21 22  1  0
 22 23  1  0
 23 24  1  0
 23 25  1  0
 16  4  1  0
 25 19  1  0
 15  6  1  0
  1 26  1  0
  5 27  1  0
  7 28  1  0
  8 29  1  0
 14 30  1  0
 19 31  1  6
 20 32  1  0
 20 33  1  0
 21 34  1  0
 21 35  1  0
 22 36  1  0
 22 37  1  0
 23 38  1  1
 24 39  1  0
 25 40  1  0
 25 41  1  0
M  CHG  2   1  -1  19   1
M  END
>  <UniqueID>  (66) 
66

>  <SMILES>  (66) 
[NH-]C(=O)c1cc2ccc(C(F)(F)F)cc2n1C(=O)[N@@H+]1CCC[C@H](O)C1

>  <Energy>  (66) 
96.84309448894143

>  <Genealogy>  (66) 
[NH-]C(=O)c1cc2ccc(C(F)(F)F)cc2n1C(=O)[NH+]1CCCC(O)C1 (protonated)
[NH-]C(=O)c1cc2ccc(C(F)(F)F)cc2n1C(=O)[N@@H+]1CCC[C@H](O)C1 (chirality)
[NH-]C(=O)c1cc2ccc(C(F)(F)F)cc2n1C(=O)[N@@H+]1CCC[C@H](O)C1 (3D coordinates assigned)
[NH-]C(=O)c1cc2ccc(C(F)(F)F)cc2n1C(=O)[N@@H+]1CCC[C@H](O)C1 (nonaromatic ring conformer: 96.84309448894143 kcal/mol)

>  <smiles>  (66) 
NC(=O)c1cc2ccc(C(F)(F)F)cc2n1C(=O)N1CCCC(O)C1

>  <score_type>  (66) 
oracle

>  <origin>  (66) 
adg

>  <m_score__min__energy>  (66) 
-9.3300000000000001

>  <m_primary>  (66) 
energy

$$$$
68:0
     RDKit          3D

 38 39  0  0  0  0  0  0  0  0999 V2000
   -9.4500   19.0050  -32.3420 C   0  0  0  0  0  0  0  0  0  0  0  0
   -8.5040   20.1280  -32.3200 N   0  0  0  0  0  0  0  0  0  0  0  0
   -8.9870   21.4520  -31.9110 C   0  0  0  0  0  0  0  0  0  0  0  0
   -7.1170   19.9320  -32.6970 C   0  0  0  0  0  0  0  0  0  0  0  0
   -6.7140   18.7660  -33.4080 C   0  0  0  0  0  0  0  0  0  0  0  0
   -5.3720   18.5610  -33.7670 C   0  0  0  0  0  0  0  0  0  0  0  0
   -4.4470   19.5360  -33.4170 C   0  0  0  0  0  0  0  0  0  0  0  0
   -3.0840   19.5720  -33.6120 C   0  0  0  0  0  0  0  0  0  0  0  0
   -2.6650   20.7720  -33.0490 C   0  0  0  0  0  0  0  0  0  0  0  0
   -1.2680   21.2480  -33.0920 C   0  0  0  0  0  0  0  0  0  0  0  0
   -0.5480   21.5390  -31.8930 N   0  0  0  0  0  0  0  0  0  0  0  0
   -0.7190   21.4520  -34.2070 O   0  0  0  0  0  0  0  0  0  0  0  0
   -3.7210   21.4470  -32.5120 N   0  0  0  0  0  0  0  0  0  0  0  0
   -3.6840   22.6670  -31.7530 C   0  0  0  0  0  0  0  0  0  0  0  0
   -2.7150   22.8950  -30.9790 O   0  0  0  0  0  0  0  0  0  0  0  0
   -4.7250   23.5940  -31.8760 O   0  0  0  0  0  0  0  0  0  0  0  0
   -5.5820   23.9600  -30.7970 C   0  0  0  0  0  0  0  0  0  0  0  0
   -5.0820   25.2330  -30.1110 C   0  0  0  0  0  0  0  0  0  0  0  0
   -3.8750   25.6580  -30.6830 O   0  0  0  0  0  0  0  0  0  0  0  0
   -4.8070   20.6760  -32.7500 C   0  0  0  0  0  0  0  0  0  0  0  0
   -6.1320   20.8970  -32.3580 C   0  0  0  0  0  0  0  0  0  0  0  0
   -9.6962   18.7127  -31.3105 H   0  0  0  0  0  0  0  0  0  0  0  0
  -10.3681   19.3092  -32.8660 H   0  0  0  0  0  0  0  0  0  0  0  0
   -8.9943   18.1519  -32.8660 H   0  0  0  0  0  0  0  0  0  0  0  0
   -9.0086   21.5113  -30.8128 H   0  0  0  0  0  0  0  0  0  0  0  0
   -8.3135   22.2264  -32.3068 H   0  0  0  0  0  0  0  0  0  0  0  0
  -10.0010   21.6108  -32.3068 H   0  0  0  0  0  0  0  0  0  0  0  0
   -7.4674   18.0124  -33.6809 H   0  0  0  0  0  0  0  0  0  0  0  0
   -5.0627   17.6553  -34.3092 H   0  0  0  0  0  0  0  0  0  0  0  0
   -2.4603   18.8133  -34.1074 H   0  0  0  0  0  0  0  0  0  0  0  0
    0.4530   21.8330  -31.9430 H   0  0  0  0  0  0  0  0  0  0  0  0
   -1.0250   21.5490  -30.9650 H   0  0  0  0  0  0  0  0  0  0  0  0
   -6.5961   24.1348  -31.1857 H   0  0  0  0  0  0  0  0  0  0  0  0
   -5.5887   23.1430  -30.0605 H   0  0  0  0  0  0  0  0  0  0  0  0
   -5.8358   26.0259  -30.2258 H   0  0  0  0  0  0  0  0  0  0  0  0
   -4.9145   25.0199  -29.0449 H   0  0  0  0  0  0  0  0  0  0  0  0
   -3.5310   24.8950  -31.2180 H   0  0  0  0  0  0  0  0  0  0  0  0
   -6.4058   21.8027  -31.7969 H   0  0  0  0  0  0  0  0  0  0  0  0
  1  2  1  0
  2  3  1  0
  2  4  1  0
  4  5  2  0
  5  6  1  0
  6  7  2  0
  7  8  1  0
  8  9  2  0
  9 10  1  0
 10 11  1  0
 10 12  2  0
  9 13  1  0
 13 14  1  0
 14 15  2  0
 14 16  1  0
 16 17  1  0
 17 18  1  0
 18 19  1  0
 13 20  1  0
 20 21  2  0
 21  4  1  0
 20  7  1  0
  1 22  1  0
  1 23  1  0
  1 24  1  0
  3 25  1  0
  3 26  1  0
  3 27  1  0
  5 28  1  0
  6 29  1  0
  8 30  1  0
 11 31  1  0
 11 32  1  0
 17 33  1  0
 17 34  1  0
 18 35  1  0
 18 36  1  0
 19 37  1  0
 21 38  1  0
M  END
>  <UniqueID>  (67) 
67

>  <SMILES>  (67) 
CN(C)c1ccc2cc(C(N)=O)n(C(=O)OCCO)c2c1

>  <Energy>  (67) 
74.93278016349134

>  <Genealogy>  (67) 
CN(C)c1ccc2cc(C(N)=O)n(C(=O)OCCO)c2c1 (3D coordinates assigned)
CN(C)c1ccc2cc(C(N)=O)n(C(=O)OCCO)c2c1 (optimized conformer: 74.93278016349134 kcal/mol)

>  <smiles>  (67) 
CN(C)c1ccc2cc(C(N)=O)n(C(=O)OCCO)c2c1

>  <score_type>  (67) 
oracle

>  <origin>  (67) 
adg

>  <m_score__min__energy>  (67) 
-8.1799999999999997

>  <m_primary>  (67) 
energy

$$$$
69:0
     RDKit          3D

 34 35  0  0  0  0  0  0  0  0999 V2000
   -3.2540   25.1000  -30.6070 H   0  0  0  0  0  0  0  0  0  0  0  0
   -4.1020   25.6580  -30.8500 N   0  0  0  0  0  0  0  0  0  0  0  0
   -5.3870   25.2910  -30.3570 C   0  0  0  0  0  0  0  0  0  0  0  0
   -6.0280   26.1070  -29.6410 O   0  0  0  0  0  0  0  0  0  0  0  0
   -6.0010   23.9960  -30.7170 C   0  0  0  0  0  0  0  0  0  0  0  0
   -7.3710   23.8230  -30.8980 C   0  0  0  0  0  0  0  0  0  0  0  0
   -8.1636   24.5705  -30.7463 H   0  0  0  0  0  0  0  0  0  0  0  0
   -7.5220   22.5180  -31.3070 C   0  0  0  0  0  0  0  0  0  0  0  0
   -8.6790   21.8050  -31.6130 C   0  0  0  0  0  0  0  0  0  0  0  0
   -9.6686   22.2835  -31.5712 H   0  0  0  0  0  0  0  0  0  0  0  0
   -8.5410   20.4540  -31.9770 C   0  0  0  0  0  0  0  0  0  0  0  0
   -9.4351   19.8621  -32.2223 H   0  0  0  0  0  0  0  0  0  0  0  0
   -7.2630   19.8480  -32.0310 C   0  0  0  0  0  0  0  0  0  0  0  0
   -7.1350   18.3930  -32.3690 C   0  0  0  0  0  0  0  0  0  0  0  0
   -7.0832   17.8042  -31.4413 H   0  0  0  0  0  0  0  0  0  0  0  0
   -8.0086   18.0749  -32.9569 H   0  0  0  0  0  0  0  0  0  0  0  0
   -6.2193   18.2323  -32.9569 H   0  0  0  0  0  0  0  0  0  0  0  0
   -6.1140   20.5980  -31.6970 C   0  0  0  0  0  0  0  0  0  0  0  0
   -5.1165   20.1345  -31.7030 H   0  0  0  0  0  0  0  0  0  0  0  0
   -6.2770   21.9470  -31.3580 C   0  0  0  0  0  0  0  0  0  0  0  0
   -5.3310   22.8420  -30.9950 N   0  0  0  0  0  0  0  0  0  0  0  0
   -3.9270   22.5780  -30.8540 C   0  0  0  0  0  0  0  0  0  0  0  0
   -3.0970   23.1650  -31.6010 O   0  0  0  0  0  0  0  0  0  0  0  0
   -3.4840   21.6960  -29.8650 O   0  0  0  0  0  0  0  0  0  0  0  0
   -2.4020   21.9940  -28.9920 C   0  0  0  0  0  0  0  0  0  0  0  0
   -2.4740   21.3684  -28.0901 H   0  0  0  0  0  0  0  0  0  0  0  0
   -1.4489   21.7888  -29.5015 H   0  0  0  0  0  0  0  0  0  0  0  0
   -2.4650   23.4480  -28.6030 C   0  0  0  0  0  0  0  0  0  0  0  0
   -1.3520   24.3590  -28.9600 C   0  0  0  0  0  0  0  0  0  0  0  0
   -0.1600   23.9530  -28.9240 O   0  0  0  0  0  0  0  0  0  0  0  0
   -1.6030   25.6740  -29.3350 O   0  0  0  0  0  0  0  0  0  0  0  0
   -3.4910   23.8950  -27.8640 C   0  0  0  0  0  0  0  0  0  0  0  0
   -3.5209   24.9533  -27.5654 H   0  0  0  0  0  0  0  0  0  0  0  0
   -4.4930   23.0650  -27.4780 F   0  0  0  0  0  0  0  0  0  0  0  0
  1  2  1  0
  2  3  1  0
  3  4  2  0
  3  5  1  0
  5  6  2  0
  6  7  1  0
  6  8  1  0
  8  9  2  0
  9 10  1  0
  9 11  1  0
 11 12  1  0
 11 13  2  0
 13 14  1  0
 14 15  1  0
 14 16  1  0
 14 17  1  0
 13 18  1  0
 18 19  1  0
 18 20  2  0
 20 21  1  0
 21 22  1  0
 22 23  2  0
 22 24  1  0
 24 25  1  0
 25 26  1  0
 25 27  1  0
 25 28  1  0
 28 29  1  0
 29 30  2  0
 29 31  1  0
 28 32  2  0
 32 33  1  0
 32 34  1  0
 21  5  1  0
 20  8  1  0
M  CHG  2   2  -1  31  -1
M  END
>  <UniqueID>  (68) 
68

>  <SMILES>  (68) 
Cc1ccc2cc(C([NH-])=O)n(C(=O)OC/C(=C\F)C(=O)[O-])c2c1

>  <Energy>  (68) 
69.86453381998476

>  <Genealogy>  (68) 
Cc1ccc2cc(C([NH-])=O)n(C(=O)OC/C(=C\F)C(=O)[O-])c2c1 (protonated)
Cc1ccc2cc(C([NH-])=O)n(C(=O)OC/C(=C\F)C(=O)[O-])c2c1 (cis-trans isomerization)
Cc1ccc2cc(C([NH-])=O)n(C(=O)OC/C(=C\F)C(=O)[O-])c2c1 (3D coordinates assigned)
Cc1ccc2cc(C([NH-])=O)n(C(=O)OC/C(=C\F)C(=O)[O-])c2c1 (optimized conformer: 69.86453381998476 kcal/mol)

>  <smiles>  (68) 
Cc1ccc2cc(C(N)=O)n(C(=O)OC/C(=C\F)C(=O)O)c2c1

>  <score_type>  (68) 
oracle

>  <origin>  (68) 
adg

>  <m_score__min__energy>  (68) 
-12.529999999999999

>  <m_primary>  (68) 
energy

$$$$
70:0
     RDKit          3D

 40 41  0  0  0  0  0  0  0  0999 V2000
   -6.5470   17.4670  -31.8540 C   0  0  0  0  0  0  0  0  0  0  0  0
   -6.7980   18.4070  -33.0280 C   0  0  0  0  0  0  0  0  0  0  0  0
   -7.0410   19.8100  -32.5410 C   0  0  0  0  0  0  0  0  0  0  0  0
   -8.3600   20.3260  -32.4860 C   0  0  0  0  0  0  0  0  0  0  0  0
   -8.6040   21.6150  -31.9850 C   0  0  0  0  0  0  0  0  0  0  0  0
   -7.5150   22.3580  -31.5390 C   0  0  0  0  0  0  0  0  0  0  0  0
   -7.4680   23.6180  -30.9890 C   0  0  0  0  0  0  0  0  0  0  0  0
   -6.1210   23.8530  -30.7170 C   0  0  0  0  0  0  0  0  0  0  0  0
   -5.5950   25.1460  -30.2290 C   0  0  0  0  0  0  0  0  0  0  0  0
   -4.2600   25.5520  -30.5330 N   0  0  0  0  0  0  0  0  0  0  0  0
   -6.3150   25.8890  -29.5110 O   0  0  0  0  0  0  0  0  0  0  0  0
   -5.3670   22.7740  -31.0740 N   0  0  0  0  0  0  0  0  0  0  0  0
   -3.9520   22.5810  -30.8940 C   0  0  0  0  0  0  0  0  0  0  0  0
   -3.1440   23.0670  -31.7310 O   0  0  0  0  0  0  0  0  0  0  0  0
   -3.4130   21.7920  -29.7350 C   0  0  0  0  0  0  0  0  0  0  0  0
   -3.0820   22.6930  -28.6120 N   0  0  0  0  0  0  0  0  0  0  0  0
   -2.8270   21.9180  -27.3910 C   0  0  0  0  0  0  0  0  0  0  0  0
   -1.6590   23.6400  -28.9850 S   0  0  0  0  0  0  0  0  0  0  0  0
   -2.1020   25.2710  -29.3410 N   0  0  0  0  0  0  0  0  0  0  0  0
   -0.9400   23.0540  -30.1680 O   0  0  0  0  0  0  0  0  0  0  0  0
   -0.7340   23.6410  -27.8000 O   0  0  0  0  0  0  0  0  0  0  0  0
   -6.2330   21.8740  -31.5870 C   0  0  0  0  0  0  0  0  0  0  0  0
   -5.9620   20.5920  -32.0760 C   0  0  0  0  0  0  0  0  0  0  0  0
   -6.6926   18.0124  -30.9099 H   0  0  0  0  0  0  0  0  0  0  0  0
   -7.2514   16.6235  -31.9026 H   0  0  0  0  0  0  0  0  0  0  0  0
   -5.5159   17.0869  -31.9026 H   0  0  0  0  0  0  0  0  0  0  0  0
   -5.9194   18.4012  -33.6899 H   0  0  0  0  0  0  0  0  0  0  0  0
   -7.6884   18.0621  -33.5742 H   0  0  0  0  0  0  0  0  0  0  0  0
   -9.2007   19.7108  -32.8392 H   0  0  0  0  0  0  0  0  0  0  0  0
   -9.6241   22.0247  -31.9463 H   0  0  0  0  0  0  0  0  0  0  0  0
   -8.3138   24.2963  -30.8032 H   0  0  0  0  0  0  0  0  0  0  0  0
   -3.8870   26.4500  -30.1540 H   0  0  0  0  0  0  0  0  0  0  0  0
   -3.6520   24.9850  -31.1640 H   0  0  0  0  0  0  0  0  0  0  0  0
   -4.1710   21.0657  -29.4064 H   0  0  0  0  0  0  0  0  0  0  0  0
   -2.5007   21.2661  -30.0531 H   0  0  0  0  0  0  0  0  0  0  0  0
   -3.0328   22.5436  -26.5099 H   0  0  0  0  0  0  0  0  0  0  0  0
   -3.4817   21.0342  -27.3742 H   0  0  0  0  0  0  0  0  0  0  0  0
   -1.7754   21.5957  -27.3742 H   0  0  0  0  0  0  0  0  0  0  0  0
   -2.3820   25.3010  -30.3470 H   0  0  0  0  0  0  0  0  0  0  0  0
   -4.9334   20.2028  -32.0977 H   0  0  0  0  0  0  0  0  0  0  0  0
  1  2  1  0
  2  3  1  0
  3  4  2  0
  4  5  1  0
  5  6  2  0
  6  7  1  0
  7  8  2  0
  8  9  1  0
  9 10  1  0
  9 11  2  0
  8 12  1  0
 12 13  1  0
 13 14  2  0
 13 15  1  0
 15 16  1  0
 16 17  1  0
 16 18  1  0
 18 19  1  0
 18 20  2  0
 18 21  2  0
 12 22  1  0
 22 23  2  0
 23  3  1  0
 22  6  1  0
  1 24  1  0
  1 25  1  0
  1 26  1  0
  2 27  1  0
  2 28  1  0
  4 29  1  0
  5 30  1  0
  7 31  1  0
 10 32  1  0
 10 33  1  0
 15 34  1  0
 15 35  1  0
 17 36  1  0
 17 37  1  0
 17 38  1  0
 19 39  1  0
 23 40  1  0
M  CHG  1  19  -1
M  END
>  <UniqueID>  (69) 
69

>  <SMILES>  (69) 
CCc1ccc2cc(C(N)=O)n(C(=O)CN(C)S([NH-])(=O)=O)c2c1

>  <Energy>  (69) 
71.70562385958377

>  <Genealogy>  (69) 
CCc1ccc2cc(C(N)=O)n(C(=O)CN(C)S([NH-])(=O)=O)c2c1 (protonated)
CCc1ccc2cc(C(N)=O)n(C(=O)CN(C)S([NH-])(=O)=O)c2c1 (3D coordinates assigned)
CCc1ccc2cc(C(N)=O)n(C(=O)CN(C)S([NH-])(=O)=O)c2c1 (optimized conformer: 71.70562385958377 kcal/mol)

>  <smiles>  (69) 
CCc1ccc2cc(C(N)=O)n(C(=O)CN(C)S(N)(=O)=O)c2c1

>  <score_type>  (69) 
oracle

>  <origin>  (69) 
adg

>  <m_score__min__energy>  (69) 
-11.16

>  <m_primary>  (69) 
energy

$$$$
71:0
     RDKit          3D

 44 46  0  0  0  0  0  0  0  0999 V2000
   -7.6240   18.5380  -32.6850 C   0  0  0  0  0  0  0  0  0  0  0  0
   -7.6060   19.9180  -32.0990 C   0  0  0  0  0  0  0  0  0  0  0  0
   -8.7700   20.4450  -31.4880 C   0  0  0  0  0  0  0  0  0  0  0  0
   -8.7590   21.7270  -30.9100 C   0  0  0  0  0  0  0  0  0  0  0  0
   -7.5680   22.4460  -30.9430 C   0  0  0  0  0  0  0  0  0  0  0  0
   -7.2800   23.7090  -30.4790 C   0  0  0  0  0  0  0  0  0  0  0  0
   -5.9370   23.9200  -30.7910 C   0  0  0  0  0  0  0  0  0  0  0  0
   -5.1860   25.1350  -30.4170 C   0  0  0  0  0  0  0  0  0  0  0  0
   -3.8350   25.2960  -30.8430 N   0  0  0  0  0  0  0  0  0  0  0  0
   -5.7360   26.0510  -29.7500 O   0  0  0  0  0  0  0  0  0  0  0  0
   -5.4210   22.8300  -31.4230 N   0  0  0  0  0  0  0  0  0  0  0  0
   -4.1060   22.6680  -31.9750 C   0  0  0  0  0  0  0  0  0  0  0  0
   -3.9510   22.6390  -33.2260 O   0  0  0  0  0  0  0  0  0  0  0  0
   -2.9020   22.6340  -31.0800 C   0  0  0  0  0  0  0  0  0  0  0  0
   -3.1000   21.7070  -30.0300 O   0  0  0  0  0  0  0  0  0  0  0  0
   -1.9230   21.5440  -29.2590 C   0  0  0  0  0  0  0  0  0  0  0  0
   -1.5950   22.8430  -28.5180 C   0  0  0  0  0  0  0  0  0  0  0  0
   -2.7390   23.7750  -28.5920 N   0  0  0  0  0  0  0  0  0  0  0  0
   -3.8880   23.2740  -27.8220 C   0  0  0  0  0  0  0  0  0  0  0  0
   -3.8090   24.4040  -26.8100 C   0  0  0  0  0  0  0  0  0  0  0  0
   -4.8970   25.2810  -26.9020 O   0  0  0  0  0  0  0  0  0  0  0  0
   -2.6240   24.8840  -27.6290 C   0  0  0  0  0  0  0  0  0  0  0  0
   -6.4270   21.9370  -31.5060 C   0  0  0  0  0  0  0  0  0  0  0  0
   -6.4110   20.6700  -32.0990 C   0  0  0  0  0  0  0  0  0  0  0  0
   -7.6337   17.7952  -31.8737 H   0  0  0  0  0  0  0  0  0  0  0  0
   -8.5238   18.4149  -33.3056 H   0  0  0  0  0  0  0  0  0  0  0  0
   -6.7277   18.3915  -33.3056 H   0  0  0  0  0  0  0  0  0  0  0  0
   -9.6920   19.8455  -31.4653 H   0  0  0  0  0  0  0  0  0  0  0  0
   -9.6633   22.1481  -30.4464 H   0  0  0  0  0  0  0  0  0  0  0  0
   -7.9636   24.4045  -29.9701 H   0  0  0  0  0  0  0  0  0  0  0  0
   -3.0520   25.3020  -30.1530 H   0  0  0  0  0  0  0  0  0  0  0  0
   -2.0211   22.3353  -31.6672 H   0  0  0  0  0  0  0  0  0  0  0  0
   -2.7454   23.6346  -30.6507 H   0  0  0  0  0  0  0  0  0  0  0  0
   -2.0761   20.7367  -28.5277 H   0  0  0  0  0  0  0  0  0  0  0  0
   -1.0871   21.2901  -29.9275 H   0  0  0  0  0  0  0  0  0  0  0  0
   -1.3793   22.6154  -27.4636 H   0  0  0  0  0  0  0  0  0  0  0  0
   -0.7182   23.3127  -28.9876 H   0  0  0  0  0  0  0  0  0  0  0  0
   -4.8271   23.2656  -28.3947 H   0  0  0  0  0  0  0  0  0  0  0  0
   -3.8681   22.2362  -27.4579 H   0  0  0  0  0  0  0  0  0  0  0  0
   -3.7676   24.2345  -25.7239 H   0  0  0  0  0  0  0  0  0  0  0  0
   -4.8870   25.6250  -27.8320 H   0  0  0  0  0  0  0  0  0  0  0  0
   -2.7787   25.8742  -28.0825 H   0  0  0  0  0  0  0  0  0  0  0  0
   -1.6615   25.0465  -27.1218 H   0  0  0  0  0  0  0  0  0  0  0  0
   -5.4922   20.2704  -32.5530 H   0  0  0  0  0  0  0  0  0  0  0  0
  1  2  1  0
  2  3  2  0
  3  4  1  0
  4  5  2  0
  5  6  1  0
  6  7  2  0
  7  8  1  0
  8  9  1  0
  8 10  2  0
  7 11  1  0
 11 12  1  0
 12 13  2  0
 12 14  1  0
 14 15  1  0
 15 16  1  0
 16 17  1  0
 17 18  1  0
 18 19  1  0
 19 20  1  0
 20 21  1  0
 20 22  1  0
 11 23  1  0
 23 24  2  0
 24  2  1  0
 23  5  1  0
 22 18  1  0
  1 25  1  0
  1 26  1  0
  1 27  1  0
  3 28  1  0
  4 29  1  0
  6 30  1  0
  9 31  1  0
 14 32  1  0
 14 33  1  0
 16 34  1  0
 16 35  1  0
 17 36  1  0
 17 37  1  0
 19 38  1  0
 19 39  1  0
 20 40  1  0
 21 41  1  0
 22 42  1  0
 22 43  1  0
 24 44  1  0
M  CHG  1   9  -1
M  END
>  <UniqueID>  (70) 
70

>  <SMILES>  (70) 
Cc1ccc2cc(C([NH-])=O)n(C(=O)COCCN3CC(O)C3)c2c1

>  <Energy>  (70) 
152.94669881878946

>  <Genealogy>  (70) 
Cc1ccc2cc(C([NH-])=O)n(C(=O)COCCN3CC(O)C3)c2c1 (protonated)
Cc1ccc2cc(C([NH-])=O)n(C(=O)COCCN3CC(O)C3)c2c1 (3D coordinates assigned)
Cc1ccc2cc(C([NH-])=O)n(C(=O)COCCN3CC(O)C3)c2c1 (nonaromatic ring conformer: 152.94669881878946 kcal/mol)

>  <smiles>  (70) 
Cc1ccc2cc(C(N)=O)n(C(=O)COCCN3CC(O)C3)c2c1

>  <score_type>  (70) 
oracle

>  <origin>  (70) 
adg

>  <m_score__min__energy>  (70) 
-10.789999999999999

>  <m_primary>  (70) 
energy

$$$$
72:0
     RDKit          3D

 52 53  0  0  0  0  0  0  0  0999 V2000
   -8.2560   23.8050  -31.6190 C   0  0  0  0  0  0  0  0  0  0  0  0
   -6.7720   23.4290  -31.4280 C   0  0  0  0  0  0  0  0  0  0  0  0
   -6.5680   22.9180  -29.9950 C   0  0  0  0  0  0  0  0  0  0  0  0
   -6.3700   22.3190  -32.4170 C   0  0  0  0  0  0  0  0  0  0  0  0
   -5.9200   24.5710  -31.5970 O   0  0  0  0  0  0  0  0  0  0  0  0
   -5.2820   25.2850  -30.5740 C   0  0  0  0  0  0  0  0  0  0  0  0
   -5.9450   25.9490  -29.7320 O   0  0  0  0  0  0  0  0  0  0  0  0
   -3.8550   25.2630  -30.5030 N   0  0  0  0  0  0  0  0  0  0  0  0
   -3.1190   24.6600  -29.3960 C   0  0  0  0  0  0  0  0  0  0  0  0
   -2.9550   23.1480  -29.6170 C   0  0  0  0  0  0  0  0  0  0  0  0
   -3.7380   22.6840  -30.7720 N   0  0  0  0  0  0  0  0  0  0  0  0
   -3.3220   21.3590  -31.2600 C   0  0  0  0  0  0  0  0  0  0  0  0
   -3.5170   21.2100  -32.7460 C   0  0  0  0  0  0  0  0  0  0  0  0
   -3.4820   22.2370  -33.4770 O   0  0  0  0  0  0  0  0  0  0  0  0
   -3.7130   19.9180  -33.3460 N   0  0  0  0  0  0  0  0  0  0  0  0
   -2.8110   19.1670  -34.0410 C   0  0  0  0  0  0  0  0  0  0  0  0
   -1.3860   19.5020  -34.2410 C   0  0  0  0  0  0  0  0  0  0  0  0
   -0.9900   20.8360  -34.5670 N   0  0  0  0  0  0  0  0  0  0  0  0
   -0.5060   18.6050  -34.1550 O   0  0  0  0  0  0  0  0  0  0  0  0
   -3.3830   17.9580  -34.4330 C   0  0  0  0  0  0  0  0  0  0  0  0
   -4.6670   17.9850  -33.9400 C   0  0  0  0  0  0  0  0  0  0  0  0
   -5.6660   17.0190  -33.9910 C   0  0  0  0  0  0  0  0  0  0  0  0
   -6.9020   17.3170  -33.3910 C   0  0  0  0  0  0  0  0  0  0  0  0
   -7.1230   18.5740  -32.7710 C   0  0  0  0  0  0  0  0  0  0  0  0
   -8.4430   18.8740  -32.1080 C   0  0  0  0  0  0  0  0  0  0  0  0
   -9.1510   17.7080  -31.8760 F   0  0  0  0  0  0  0  0  0  0  0  0
   -9.2150   19.6950  -32.9120 F   0  0  0  0  0  0  0  0  0  0  0  0
   -8.2140   19.5100  -30.9030 F   0  0  0  0  0  0  0  0  0  0  0  0
   -6.0660   19.5120  -32.7020 C   0  0  0  0  0  0  0  0  0  0  0  0
   -4.8440   19.1810  -33.2970 C   0  0  0  0  0  0  0  0  0  0  0  0
   -8.7332   23.9259  -30.6353 H   0  0  0  0  0  0  0  0  0  0  0  0
   -8.3259   24.7492  -32.1790 H   0  0  0  0  0  0  0  0  0  0  0  0
   -8.7671   23.0080  -32.1790 H   0  0  0  0  0  0  0  0  0  0  0  0
   -6.8782   23.6951  -29.2810 H   0  0  0  0  0  0  0  0  0  0  0  0
   -7.1739   22.0134  -29.8386 H   0  0  0  0  0  0  0  0  0  0  0  0
   -5.5057   22.6793  -29.8386 H   0  0  0  0  0  0  0  0  0  0  0  0
   -6.0475   21.4285  -31.8575 H   0  0  0  0  0  0  0  0  0  0  0  0
   -7.2322   22.0620  -33.0500 H   0  0  0  0  0  0  0  0  0  0  0  0
   -5.5432   22.6737  -33.0500 H   0  0  0  0  0  0  0  0  0  0  0  0
   -2.1247   25.1254  -29.3266 H   0  0  0  0  0  0  0  0  0  0  0  0
   -3.6810   24.8239  -28.4647 H   0  0  0  0  0  0  0  0  0  0  0  0
   -1.8922   22.9257  -29.7932 H   0  0  0  0  0  0  0  0  0  0  0  0
   -3.3208   22.6265  -28.7202 H   0  0  0  0  0  0  0  0  0  0  0  0
   -3.6380   23.3820  -31.5460 H   0  0  0  0  0  0  0  0  0  0  0  0
   -2.2568   21.2146  -31.0268 H   0  0  0  0  0  0  0  0  0  0  0  0
   -3.9483   20.6048  -30.7611 H   0  0  0  0  0  0  0  0  0  0  0  0
   -1.6840   21.6160  -34.5910 H   0  0  0  0  0  0  0  0  0  0  0  0
    0.0150   21.0550  -34.7430 H   0  0  0  0  0  0  0  0  0  0  0  0
   -2.9085   17.1531  -35.0134 H   0  0  0  0  0  0  0  0  0  0  0  0
   -5.4944   16.0515  -34.4856 H   0  0  0  0  0  0  0  0  0  0  0  0
   -7.7068   16.5672  -33.4023 H   0  0  0  0  0  0  0  0  0  0  0  0
   -6.2018   20.4777  -32.1931 H   0  0  0  0  0  0  0  0  0  0  0  0
  1  2  1  0
  2  3  1  0
  2  4  1  0
  2  5  1  0
  5  6  1  0
  6  7  2  0
  6  8  1  0
  8  9  1  0
  9 10  1  0
 10 11  1  0
 11 12  1  0
 12 13  1  0
 13 14  2  0
 13 15  1  0
 15 16  1  0
 16 17  1  0
 17 18  1  0
 17 19  2  0
 16 20  2  0
 20 21  1  0
 21 22  2  0
 22 23  1  0
 23 24  2  0
 24 25  1  0
 25 26  1  0
 25 27  1  0
 25 28  1  0
 24 29  1  0
 29 30  2  0
 30 15  1  0
 30 21  1  0
  1 31  1  0
  1 32  1  0
  1 33  1  0
  3 34  1  0
  3 35  1  0
  3 36  1  0
  4 37  1  0
  4 38  1  0
  4 39  1  0
  9 40  1  0
  9 41  1  0
 10 42  1  0
 10 43  1  0
 11 44  1  0
 12 45  1  0
 12 46  1  0
 18 47  1  0
 18 48  1  0
 20 49  1  0
 22 50  1  0
 23 51  1  0
 29 52  1  0
M  CHG  1   8  -1
M  END
>  <UniqueID>  (71) 
71

>  <SMILES>  (71) 
CC(C)(C)OC(=O)[N-]CCNCC(=O)n1c(C(N)=O)cc2ccc(C(F)(F)F)cc21

>  <Energy>  (71) 
81.09001578176792

>  <Genealogy>  (71) 
CC(C)(C)OC(=O)[N-]CCNCC(=O)n1c(C(N)=O)cc2ccc(C(F)(F)F)cc21 (protonated)
CC(C)(C)OC(=O)[N-]CCNCC(=O)n1c(C(N)=O)cc2ccc(C(F)(F)F)cc21 (3D coordinates assigned)
CC(C)(C)OC(=O)[N-]CCNCC(=O)n1c(C(N)=O)cc2ccc(C(F)(F)F)cc21 (optimized conformer: 81.09001578176792 kcal/mol)

>  <smiles>  (71) 
CC(C)(C)OC(=O)NCCNCC(=O)n1c(C(N)=O)cc2ccc(C(F)(F)F)cc21

>  <score_type>  (71) 
oracle

>  <origin>  (71) 
adg

>  <m_score__min__energy>  (71) 
-10.08

>  <m_primary>  (71) 
energy

$$$$
73:0
     RDKit          3D

 37 38  0  0  0  0  0  0  0  0999 V2000
   -7.2290   17.4480  -33.0950 C   0  0  0  0  0  0  0  0  0  0  0  0
   -7.2680   18.5550  -32.6200 C   0  0  0  0  0  0  0  0  0  0  0  0
   -7.3160   19.8770  -32.0510 C   0  0  0  0  0  0  0  0  0  0  0  0
   -8.5260   20.3660  -31.5070 C   0  0  0  0  0  0  0  0  0  0  0  0
   -8.5820   21.6500  -30.9380 C   0  0  0  0  0  0  0  0  0  0  0  0
   -7.4170   22.4140  -30.9370 C   0  0  0  0  0  0  0  0  0  0  0  0
   -7.1850   23.6700  -30.4260 C   0  0  0  0  0  0  0  0  0  0  0  0
   -5.8430   23.9330  -30.6910 C   0  0  0  0  0  0  0  0  0  0  0  0
   -5.1940   25.2230  -30.3860 C   0  0  0  0  0  0  0  0  0  0  0  0
   -3.8760   25.5040  -30.8470 N   0  0  0  0  0  0  0  0  0  0  0  0
   -5.8310   26.1100  -29.7570 O   0  0  0  0  0  0  0  0  0  0  0  0
   -5.2640   22.8790  -31.3330 N   0  0  0  0  0  0  0  0  0  0  0  0
   -3.8780   22.7130  -31.6700 C   0  0  0  0  0  0  0  0  0  0  0  0
   -3.5540   22.0750  -32.7100 O   0  0  0  0  0  0  0  0  0  0  0  0
   -2.8920   23.2330  -30.8270 O   0  0  0  0  0  0  0  0  0  0  0  0
   -2.7410   22.8210  -29.4730 C   0  0  0  0  0  0  0  0  0  0  0  0
   -1.6880   23.5610  -28.8660 O   0  0  0  0  0  0  0  0  0  0  0  0
   -1.8800   24.8220  -28.2920 C   0  0  0  0  0  0  0  0  0  0  0  0
   -1.5220   25.8670  -28.9000 O   0  0  0  0  0  0  0  0  0  0  0  0
   -2.5350   24.9280  -26.9550 C   0  0  0  0  0  0  0  0  0  0  0  0
   -1.2810   24.8930  -25.6270 S   0  0  0  0  0  0  0  0  0  0  0  0
   -1.5750   26.5970  -25.0500 C   0  0  0  0  0  0  0  0  0  0  0  0
   -6.2430   21.9570  -31.4780 C   0  0  0  0  0  0  0  0  0  0  0  0
   -6.1540   20.6740  -32.0340 C   0  0  0  0  0  0  0  0  0  0  0  0
   -7.1934   16.4377  -33.5285 H   0  0  0  0  0  0  0  0  0  0  0  0
   -9.4288   19.7379  -31.5292 H   0  0  0  0  0  0  0  0  0  0  0  0
   -9.5162   22.0394  -30.5071 H   0  0  0  0  0  0  0  0  0  0  0  0
   -7.9057   24.3267  -29.9167 H   0  0  0  0  0  0  0  0  0  0  0  0
   -3.0440   25.2860  -30.2540 H   0  0  0  0  0  0  0  0  0  0  0  0
   -3.6788   23.0032  -28.9277 H   0  0  0  0  0  0  0  0  0  0  0  0
   -2.5005   21.7481  -29.4411 H   0  0  0  0  0  0  0  0  0  0  0  0
   -3.0952   25.8731  -26.8997 H   0  0  0  0  0  0  0  0  0  0  0  0
   -3.2178   24.0756  -26.8236 H   0  0  0  0  0  0  0  0  0  0  0  0
   -1.5783   26.6163  -23.9502 H   0  0  0  0  0  0  0  0  0  0  0  0
   -0.7770   27.2542  -25.4258 H   0  0  0  0  0  0  0  0  0  0  0  0
   -2.5471   26.9488  -25.4258 H   0  0  0  0  0  0  0  0  0  0  0  0
   -5.2048   20.2998  -32.4452 H   0  0  0  0  0  0  0  0  0  0  0  0
  1  2  3  0
  2  3  1  0
  3  4  2  0
  4  5  1  0
  5  6  2  0
  6  7  1  0
  7  8  2  0
  8  9  1  0
  9 10  1  0
  9 11  2  0
  8 12  1  0
 12 13  1  0
 13 14  2  0
 13 15  1  0
 15 16  1  0
 16 17  1  0
 17 18  1  0
 18 19  2  0
 18 20  1  0
 20 21  1  0
 21 22  1  0
 12 23  1  0
 23 24  2  0
 24  3  1  0
 23  6  1  0
  1 25  1  0
  4 26  1  0
  5 27  1  0
  7 28  1  0
 10 29  1  0
 16 30  1  0
 16 31  1  0
 20 32  1  0
 20 33  1  0
 22 34  1  0
 22 35  1  0
 22 36  1  0
 24 37  1  0
M  CHG  1  10  -1
M  END
>  <UniqueID>  (72) 
72

>  <SMILES>  (72) 
C#Cc1ccc2cc(C([NH-])=O)n(C(=O)OCOC(=O)CSC)c2c1

>  <Energy>  (72) 
65.62777007124554

>  <Genealogy>  (72) 
C#Cc1ccc2cc(C([NH-])=O)n(C(=O)OCOC(=O)CSC)c2c1 (protonated)
C#Cc1ccc2cc(C([NH-])=O)n(C(=O)OCOC(=O)CSC)c2c1 (3D coordinates assigned)
C#Cc1ccc2cc(C([NH-])=O)n(C(=O)OCOC(=O)CSC)c2c1 (optimized conformer: 65.62777007124554 kcal/mol)

>  <smiles>  (72) 
C#Cc1ccc2cc(C(N)=O)n(C(=O)OCOC(=O)CSC)c2c1

>  <score_type>  (72) 
oracle

>  <origin>  (72) 
adg

>  <m_score__min__energy>  (72) 
-10.449999999999999

>  <m_primary>  (72) 
energy

$$$$
74:0
     RDKit          3D

 50 51  0  0  0  0  0  0  0  0999 V2000
   -8.1060   18.6200  -32.1760 C   0  0  0  0  0  0  0  0  0  0  0  0
   -8.0090   20.0770  -31.8350 C   0  0  0  0  0  0  0  0  0  0  0  0
   -9.1610   20.8980  -31.8980 C   0  0  0  0  0  0  0  0  0  0  0  0
   -9.0790   22.2700  -31.6060 C   0  0  0  0  0  0  0  0  0  0  0  0
   -7.8330   22.7930  -31.2740 C   0  0  0  0  0  0  0  0  0  0  0  0
   -7.4730   24.0760  -30.9310 C   0  0  0  0  0  0  0  0  0  0  0  0
   -6.1000   24.0260  -30.7020 C   0  0  0  0  0  0  0  0  0  0  0  0
   -5.2830   25.2190  -30.3940 C   0  0  0  0  0  0  0  0  0  0  0  0
   -3.8900   25.2520  -30.6900 N   0  0  0  0  0  0  0  0  0  0  0  0
   -5.8340   26.2430  -29.9070 O   0  0  0  0  0  0  0  0  0  0  0  0
   -5.6300   22.7600  -30.8880 N   0  0  0  0  0  0  0  0  0  0  0  0
   -4.2950   22.2750  -30.6800 C   0  0  0  0  0  0  0  0  0  0  0  0
   -4.0290   21.5830  -29.6580 O   0  0  0  0  0  0  0  0  0  0  0  0
   -3.3020   22.5540  -31.6250 O   0  0  0  0  0  0  0  0  0  0  0  0
   -2.8940   21.6290  -32.6320 C   0  0  0  0  0  0  0  0  0  0  0  0
   -4.1230   21.0920  -33.3940 C   0  0  0  0  0  0  0  0  0  0  0  0
   -4.0200   19.6660  -33.7860 N   0  0  0  0  0  0  0  0  0  0  0  0
   -3.0620   18.9100  -32.9640 C   0  0  0  0  0  0  0  0  0  0  0  0
   -5.3330   18.9900  -33.8910 C   0  0  0  0  0  0  0  0  0  0  0  0
   -5.1550   17.6200  -34.5560 C   0  0  0  0  0  0  0  0  0  0  0  0
   -5.7680   16.5560  -33.7300 N   0  0  0  0  0  0  0  0  0  0  0  0
   -5.4850   16.7660  -32.2990 C   0  0  0  0  0  0  0  0  0  0  0  0
   -5.2600   15.2350  -34.1380 C   0  0  0  0  0  0  0  0  0  0  0  0
   -6.7020   22.0180  -31.2410 C   0  0  0  0  0  0  0  0  0  0  0  0
   -6.7570   20.6450  -31.5100 C   0  0  0  0  0  0  0  0  0  0  0  0
   -8.1454   18.0284  -31.2495 H   0  0  0  0  0  0  0  0  0  0  0  0
   -9.0180   18.4411  -32.7643 H   0  0  0  0  0  0  0  0  0  0  0  0
   -7.2257   18.3217  -32.7643 H   0  0  0  0  0  0  0  0  0  0  0  0
  -10.1292   20.4575  -32.1782 H   0  0  0  0  0  0  0  0  0  0  0  0
   -9.9724   22.9110  -31.6389 H   0  0  0  0  0  0  0  0  0  0  0  0
   -8.1301   24.9548  -30.8540 H   0  0  0  0  0  0  0  0  0  0  0  0
   -3.4700   26.0490  -31.2170 H   0  0  0  0  0  0  0  0  0  0  0  0
   -2.2212   22.1359  -33.3394 H   0  0  0  0  0  0  0  0  0  0  0  0
   -2.3725   20.7865  -32.1543 H   0  0  0  0  0  0  0  0  0  0  0  0
   -5.0068   21.2096  -32.7497 H   0  0  0  0  0  0  0  0  0  0  0  0
   -4.1948   21.6715  -34.3262 H   0  0  0  0  0  0  0  0  0  0  0  0
   -3.2781   19.0805  -31.8990 H   0  0  0  0  0  0  0  0  0  0  0  0
   -3.1522   17.8371  -33.1892 H   0  0  0  0  0  0  0  0  0  0  0  0
   -2.0395   19.2472  -33.1892 H   0  0  0  0  0  0  0  0  0  0  0  0
   -5.7572   18.8561  -32.8850 H   0  0  0  0  0  0  0  0  0  0  0  0
   -6.0128   19.6052  -34.4987 H   0  0  0  0  0  0  0  0  0  0  0  0
   -5.6369   17.6328  -35.5447 H   0  0  0  0  0  0  0  0  0  0  0  0
   -4.0796   17.4132  -34.6593 H   0  0  0  0  0  0  0  0  0  0  0  0
   -6.2233   16.2182  -31.6950 H   0  0  0  0  0  0  0  0  0  0  0  0
   -4.4750   16.3970  -32.0670 H   0  0  0  0  0  0  0  0  0  0  0  0
   -5.5455   17.8395  -32.0670 H   0  0  0  0  0  0  0  0  0  0  0  0
   -5.0304   14.6380  -33.2431 H   0  0  0  0  0  0  0  0  0  0  0  0
   -6.0234   14.7178  -34.7378 H   0  0  0  0  0  0  0  0  0  0  0  0
   -4.3468   15.3626  -34.7378 H   0  0  0  0  0  0  0  0  0  0  0  0
   -5.8493   20.0250  -31.4693 H   0  0  0  0  0  0  0  0  0  0  0  0
  1  2  1  0
  2  3  2  0
  3  4  1  0
  4  5  2  0
  5  6  1  0
  6  7  2  0
  7  8  1  0
  8  9  1  0
  8 10  2  0
  7 11  1  0
 11 12  1  0
 12 13  2  0
 12 14  1  0
 14 15  1  0
 15 16  1  0
 16 17  1  0
 17 18  1  0
 17 19  1  0
 19 20  1  0
 20 21  1  0
 21 22  1  0
 21 23  1  0
 11 24  1  0
 24 25  2  0
 25  2  1  0
 24  5  1  0
  1 26  1  0
  1 27  1  0
  1 28  1  0
  3 29  1  0
  4 30  1  0
  6 31  1  0
  9 32  1  0
 15 33  1  0
 15 34  1  0
 16 35  1  0
 16 36  1  0
 18 37  1  0
 18 38  1  0
 18 39  1  0
 19 40  1  0
 19 41  1  0
 20 42  1  0
 20 43  1  0
 22 44  1  0
 22 45  1  0
 22 46  1  0
 23 47  1  0
 23 48  1  0
 23 49  1  0
 25 50  1  0
M  CHG  1   9  -1
M  END
>  <UniqueID>  (73) 
73

>  <SMILES>  (73) 
Cc1ccc2cc(C([NH-])=O)n(C(=O)OCCN(C)CCN(C)C)c2c1

>  <Energy>  (73) 
89.76339965611146

>  <Genealogy>  (73) 
Cc1ccc2cc(C([NH-])=O)n(C(=O)OCCN(C)CCN(C)C)c2c1 (protonated)
Cc1ccc2cc(C([NH-])=O)n(C(=O)OCCN(C)CCN(C)C)c2c1 (3D coordinates assigned)
Cc1ccc2cc(C([NH-])=O)n(C(=O)OCCN(C)CCN(C)C)c2c1 (optimized conformer: 89.76339965611146 kcal/mol)

>  <smiles>  (73) 
Cc1ccc2cc(C(N)=O)n(C(=O)OCCN(C)CCN(C)C)c2c1

>  <score_type>  (73) 
oracle

>  <origin>  (73) 
adg

>  <m_score__min__energy>  (73) 
-9.9499999999999993

>  <m_primary>  (73) 
energy

$$$$
76:0
     RDKit          3D

 46 47  0  0  0  0  0  0  0  0999 V2000
   -3.4820   21.3550  -27.8130 C   0  0  0  0  0  0  0  0  0  0  0  0
   -2.3750   22.2870  -27.5300 N   0  0  0  0  0  0  0  0  0  0  0  0
   -1.4710   21.6890  -26.5310 C   0  0  0  0  0  0  0  0  0  0  0  0
   -2.8670   23.5980  -27.0330 C   0  0  0  0  0  0  0  0  0  0  0  0
   -1.8850   24.7610  -27.2710 C   0  0  0  0  0  0  0  0  0  0  0  0
   -1.3090   24.7390  -28.6530 C   0  0  0  0  0  0  0  0  0  0  0  0
   -1.2260   25.8100  -29.3140 O   0  0  0  0  0  0  0  0  0  0  0  0
   -0.8910   23.5230  -29.2050 O   0  0  0  0  0  0  0  0  0  0  0  0
   -1.3460   23.0530  -30.4680 C   0  0  0  0  0  0  0  0  0  0  0  0
   -2.7010   22.6310  -30.3610 O   0  0  0  0  0  0  0  0  0  0  0  0
   -3.5390   22.4880  -31.4700 C   0  0  0  0  0  0  0  0  0  0  0  0
   -3.0530   22.2180  -32.6030 O   0  0  0  0  0  0  0  0  0  0  0  0
   -4.9560   22.6730  -31.3210 N   0  0  0  0  0  0  0  0  0  0  0  0
   -5.6140   23.7780  -30.8670 C   0  0  0  0  0  0  0  0  0  0  0  0
   -5.0030   25.0870  -30.5580 C   0  0  0  0  0  0  0  0  0  0  0  0
   -3.6080   25.2880  -30.7750 N   0  0  0  0  0  0  0  0  0  0  0  0
   -5.6910   26.0220  -30.0660 O   0  0  0  0  0  0  0  0  0  0  0  0
   -6.9860   23.5410  -30.8120 C   0  0  0  0  0  0  0  0  0  0  0  0
   -7.1510   22.2490  -31.2540 C   0  0  0  0  0  0  0  0  0  0  0  0
   -8.3110   21.4970  -31.4080 C   0  0  0  0  0  0  0  0  0  0  0  0
   -8.1850   20.1770  -31.8720 C   0  0  0  0  0  0  0  0  0  0  0  0
   -6.9070   19.6240  -32.1490 C   0  0  0  0  0  0  0  0  0  0  0  0
   -6.7870   18.2180  -32.6810 C   0  0  0  0  0  0  0  0  0  0  0  0
   -8.0070   17.5640  -32.6140 F   0  0  0  0  0  0  0  0  0  0  0  0
   -5.8610   17.5230  -31.9250 F   0  0  0  0  0  0  0  0  0  0  0  0
   -6.3760   18.2270  -34.0030 F   0  0  0  0  0  0  0  0  0  0  0  0
   -5.7540   20.4280  -32.0030 C   0  0  0  0  0  0  0  0  0  0  0  0
   -5.9110   21.7470  -31.5560 C   0  0  0  0  0  0  0  0  0  0  0  0
   -3.9095   20.9950  -26.8656 H   0  0  0  0  0  0  0  0  0  0  0  0
   -4.2596   21.8744  -28.3923 H   0  0  0  0  0  0  0  0  0  0  0  0
   -3.1027   20.5003  -28.3923 H   0  0  0  0  0  0  0  0  0  0  0  0
   -1.8210   22.4260  -28.4070 H   0  0  0  0  0  0  0  0  0  0  0  0
   -1.8323   21.9280  -25.5199 H   0  0  0  0  0  0  0  0  0  0  0  0
   -1.4485   20.5973  -26.6638 H   0  0  0  0  0  0  0  0  0  0  0  0
   -0.4575   22.0954  -26.6638 H   0  0  0  0  0  0  0  0  0  0  0  0
   -3.8117   23.8311  -27.5461 H   0  0  0  0  0  0  0  0  0  0  0  0
   -2.9920   23.5017  -25.9444 H   0  0  0  0  0  0  0  0  0  0  0  0
   -2.4189   25.7115  -27.1245 H   0  0  0  0  0  0  0  0  0  0  0  0
   -1.0552   24.6548  -26.5568 H   0  0  0  0  0  0  0  0  0  0  0  0
   -1.2724   23.8633  -31.2082 H   0  0  0  0  0  0  0  0  0  0  0  0
   -0.7234   22.2043  -30.7876 H   0  0  0  0  0  0  0  0  0  0  0  0
   -2.8970   24.7890  -30.1950 H   0  0  0  0  0  0  0  0  0  0  0  0
   -7.7706   24.2390  -30.4846 H   0  0  0  0  0  0  0  0  0  0  0  0
   -9.2976   21.9232  -31.1735 H   0  0  0  0  0  0  0  0  0  0  0  0
   -9.0866   19.5650  -32.0224 H   0  0  0  0  0  0  0  0  0  0  0  0
   -4.7560   20.0277  -32.2349 H   0  0  0  0  0  0  0  0  0  0  0  0
  1  2  1  0
  2  3  1  0
  2  4  1  0
  4  5  1  0
  5  6  1  0
  6  7  2  0
  6  8  1  0
  8  9  1  0
  9 10  1  0
 10 11  1  0
 11 12  2  0
 11 13  1  0
 13 14  1  0
 14 15  1  0
 15 16  1  0
 15 17  2  0
 14 18  2  0
 18 19  1  0
 19 20  2  0
 20 21  1  0
 21 22  2  0
 22 23  1  0
 23 24  1  0
 23 25  1  0
 23 26  1  0
 22 27  1  0
 27 28  2  0
 28 13  1  0
 28 19  1  0
  1 29  1  0
  1 30  1  0
  1 31  1  0
  2 32  1  0
  3 33  1  0
  3 34  1  0
  3 35  1  0
  4 36  1  0
  4 37  1  0
  5 38  1  0
  5 39  1  0
  9 40  1  0
  9 41  1  0
 16 42  1  0
 18 43  1  0
 20 44  1  0
 21 45  1  0
 27 46  1  0
M  CHG  2   2   1  16  -1
M  END
>  <UniqueID>  (74) 
74

>  <SMILES>  (74) 
C[NH+](C)CCC(=O)OCOC(=O)n1c(C([NH-])=O)cc2ccc(C(F)(F)F)cc21

>  <Energy>  (74) 
80.33198375353268

>  <Genealogy>  (74) 
C[NH+](C)CCC(=O)OCOC(=O)n1c(C([NH-])=O)cc2ccc(C(F)(F)F)cc21 (protonated)
C[NH+](C)CCC(=O)OCOC(=O)n1c(C([NH-])=O)cc2ccc(C(F)(F)F)cc21 (3D coordinates assigned)
C[NH+](C)CCC(=O)OCOC(=O)n1c(C([NH-])=O)cc2ccc(C(F)(F)F)cc21 (optimized conformer: 80.33198375353268 kcal/mol)

>  <smiles>  (74) 
CN(C)CCC(=O)OCOC(=O)n1c(C(N)=O)cc2ccc(C(F)(F)F)cc21

>  <score_type>  (74) 
oracle

>  <origin>  (74) 
adg

>  <m_score__min__energy>  (74) 
-10.460000000000001

>  <m_primary>  (74) 
energy

$$$$
77:0
     RDKit          3D

 39 40  0  0  0  0  0  0  0  0999 V2000
   -6.3930   17.4550  -32.1050 C   0  0  0  0  0  0  0  0  0  0  0  0
   -7.0980   18.4720  -32.8790 N   0  0  0  0  0  0  0  0  0  0  0  0
   -7.2630   19.8320  -32.4380 C   0  0  0  0  0  0  0  0  0  0  0  0
   -8.5640   20.3930  -32.4040 C   0  0  0  0  0  0  0  0  0  0  0  0
   -8.7700   21.7140  -31.9720 C   0  0  0  0  0  0  0  0  0  0  0  0
   -7.6570   22.4550  -31.5910 C   0  0  0  0  0  0  0  0  0  0  0  0
   -7.5690   23.7430  -31.1070 C   0  0  0  0  0  0  0  0  0  0  0  0
   -6.2110   23.9570  -30.8690 C   0  0  0  0  0  0  0  0  0  0  0  0
   -5.6330   25.2270  -30.3690 C   0  0  0  0  0  0  0  0  0  0  0  0
   -4.2650   25.5610  -30.6140 N   0  0  0  0  0  0  0  0  0  0  0  0
   -6.3460   26.0270  -29.7060 O   0  0  0  0  0  0  0  0  0  0  0  0
   -5.4930   22.8500  -31.2040 N   0  0  0  0  0  0  0  0  0  0  0  0
   -4.0800   22.6500  -31.0510 C   0  0  0  0  0  0  0  0  0  0  0  0
   -3.3110   22.9900  -31.9880 O   0  0  0  0  0  0  0  0  0  0  0  0
   -3.5390   22.0670  -29.8010 C   0  0  0  0  0  0  0  0  0  0  0  0
   -3.4120   20.8150  -29.7290 O   0  0  0  0  0  0  0  0  0  0  0  0
   -3.1640   22.8750  -28.6640 N   0  0  0  0  0  0  0  0  0  0  0  0
   -4.2150   23.3130  -27.7410 C   0  0  0  0  0  0  0  0  0  0  0  0
   -1.7600   23.1690  -28.3450 C   0  0  0  0  0  0  0  0  0  0  0  0
   -1.3810   24.5450  -28.8010 C   0  0  0  0  0  0  0  0  0  0  0  0
   -2.2210   25.2750  -29.3920 O   0  0  0  0  0  0  0  0  0  0  0  0
   -0.1130   25.0420  -28.5270 O   0  0  0  0  0  0  0  0  0  0  0  0
   -6.3900   21.9380  -31.6330 C   0  0  0  0  0  0  0  0  0  0  0  0
   -6.1560   20.6200  -32.0390 C   0  0  0  0  0  0  0  0  0  0  0  0
   -6.5292   17.6515  -31.0313 H   0  0  0  0  0  0  0  0  0  0  0  0
   -6.7974   16.4618  -32.3502 H   0  0  0  0  0  0  0  0  0  0  0  0
   -5.3211   17.4852  -32.3502 H   0  0  0  0  0  0  0  0  0  0  0  0
   -7.4960   18.1880  -33.8030 H   0  0  0  0  0  0  0  0  0  0  0  0
   -9.4248   19.7856  -32.7203 H   0  0  0  0  0  0  0  0  0  0  0  0
   -9.7800   22.1483  -31.9364 H   0  0  0  0  0  0  0  0  0  0  0  0
   -8.3943   24.4515  -30.9432 H   0  0  0  0  0  0  0  0  0  0  0  0
   -3.6550   24.9650  -31.2130 H   0  0  0  0  0  0  0  0  0  0  0  0
   -3.8660   26.4450  -30.2250 H   0  0  0  0  0  0  0  0  0  0  0  0
   -3.8751   23.1713  -26.7045 H   0  0  0  0  0  0  0  0  0  0  0  0
   -4.4338   24.3772  -27.9129 H   0  0  0  0  0  0  0  0  0  0  0  0
   -5.1248   22.7191  -27.9129 H   0  0  0  0  0  0  0  0  0  0  0  0
   -1.6163   23.0987  -27.2567 H   0  0  0  0  0  0  0  0  0  0  0  0
   -1.1227   22.4397  -28.8665 H   0  0  0  0  0  0  0  0  0  0  0  0
   -5.1370   20.2057  -32.0481 H   0  0  0  0  0  0  0  0  0  0  0  0
  1  2  1  0
  2  3  1  0
  3  4  2  0
  4  5  1  0
  5  6  2  0
  6  7  1  0
  7  8  2  0
  8  9  1  0
  9 10  1  0
  9 11  2  0
  8 12  1  0
 12 13  1  0
 13 14  2  0
 13 15  1  0
 15 16  2  0
 15 17  1  0
 17 18  1  0
 17 19  1  0
 19 20  1  0
 20 21  2  0
 20 22  1  0
 12 23  1  0
 23 24  2  0
 24  3  1  0
 23  6  1  0
  1 25  1  0
  1 26  1  0
  1 27  1  0
  2 28  1  0
  4 29  1  0
  5 30  1  0
  7 31  1  0
 10 32  1  0
 10 33  1  0
 18 34  1  0
 18 35  1  0
 18 36  1  0
 19 37  1  0
 19 38  1  0
 24 39  1  0
M  CHG  1  22  -1
M  END
>  <UniqueID>  (75) 
75

>  <SMILES>  (75) 
CNc1ccc2cc(C(N)=O)n(C(=O)C(=O)N(C)CC(=O)[O-])c2c1

>  <Energy>  (75) 
77.89091492231674

>  <Genealogy>  (75) 
CNc1ccc2cc(C(N)=O)n(C(=O)C(=O)N(C)CC(=O)[O-])c2c1 (protonated)
CNc1ccc2cc(C(N)=O)n(C(=O)C(=O)N(C)CC(=O)[O-])c2c1 (3D coordinates assigned)
CNc1ccc2cc(C(N)=O)n(C(=O)C(=O)N(C)CC(=O)[O-])c2c1 (optimized conformer: 77.89091492231674 kcal/mol)

>  <smiles>  (75) 
CNc1ccc2cc(C(N)=O)n(C(=O)C(=O)N(C)CC(=O)O)c2c1

>  <score_type>  (75) 
oracle

>  <origin>  (75) 
adg

>  <m_score__min__energy>  (75) 
-10.52

>  <m_primary>  (75) 
energy

$$$$
78:0
     RDKit          3D

 35 36  0  0  0  0  0  0  0  0999 V2000
   -3.8690   17.8010  -35.1740 N   0  0  0  0  0  0  0  0  0  0  0  0
   -4.8900   18.5910  -34.5690 C   0  0  0  0  0  0  0  0  0  0  0  0
   -6.0810   18.4620  -34.9590 O   0  0  0  0  0  0  0  0  0  0  0  0
   -4.5490   19.5160  -33.4690 C   0  0  0  0  0  0  0  0  0  0  0  0
   -5.5030   20.1500  -32.6760 C   0  0  0  0  0  0  0  0  0  0  0  0
   -4.7910   20.9810  -31.8410 C   0  0  0  0  0  0  0  0  0  0  0  0
   -5.2350   21.8440  -30.8440 C   0  0  0  0  0  0  0  0  0  0  0  0
   -4.2710   22.5660  -30.1210 C   0  0  0  0  0  0  0  0  0  0  0  0
   -2.8890   22.4030  -30.3940 C   0  0  0  0  0  0  0  0  0  0  0  0
   -1.8730   23.2040  -29.6240 C   0  0  1  0  0  0  0  0  0  0  0  0
   -0.6840   23.2800  -30.3270 F   0  0  0  0  0  0  0  0  0  0  0  0
   -2.5020   24.8840  -29.3160 P   0  0  0  0  0  0  0  0  0  0  0  0
   -3.1840   24.9250  -27.9690 O   0  0  0  0  0  0  0  0  0  0  0  0
   -3.6140   25.3010  -30.5200 O   0  0  0  0  0  0  0  0  0  0  0  0
   -1.2200   25.9860  -29.3290 O   0  0  0  0  0  0  0  0  0  0  0  0
   -2.4780   21.5240  -31.4220 C   0  0  0  0  0  0  0  0  0  0  0  0
   -3.4610   20.8330  -32.1390 C   0  0  0  0  0  0  0  0  0  0  0  0
   -3.2960   19.9360  -33.1360 N   0  0  0  0  0  0  0  0  0  0  0  0
   -2.0440   19.4720  -33.6660 C   0  0  0  0  0  0  0  0  0  0  0  0
   -1.6370   19.9000  -34.7800 O   0  0  0  0  0  0  0  0  0  0  0  0
   -1.2780   18.5570  -32.9340 O   0  0  0  0  0  0  0  0  0  0  0  0
   -1.6720   17.2060  -32.6940 C   0  0  0  0  0  0  0  0  0  0  0  0
   -1.1980   16.2920  -33.8270 C   0  0  0  0  0  0  0  0  0  0  0  0
   -1.1280   16.9880  -35.0400 O   0  0  0  0  0  0  0  0  0  0  0  0
   -2.8850   18.1460  -35.2290 H   0  0  0  0  0  0  0  0  0  0  0  0
   -6.5942   20.0151  -32.7100 H   0  0  0  0  0  0  0  0  0  0  0  0
   -6.3077   21.9574  -30.6286 H   0  0  0  0  0  0  0  0  0  0  0  0
   -4.5915   23.2653  -29.3347 H   0  0  0  0  0  0  0  0  0  0  0  0
   -1.6912   22.7002  -28.6632 H   0  0  0  0  0  0  0  0  0  0  0  0
   -1.4113   21.3866  -31.6527 H   0  0  0  0  0  0  0  0  0  0  0  0
   -1.2302   16.8644  -31.7463 H   0  0  0  0  0  0  0  0  0  0  0  0
   -2.7699   17.1629  -32.6421 H   0  0  0  0  0  0  0  0  0  0  0  0
   -0.2003   15.9005  -33.5793 H   0  0  0  0  0  0  0  0  0  0  0  0
   -1.9196   15.4691  -33.9373 H   0  0  0  0  0  0  0  0  0  0  0  0
   -1.7430   17.7640  -34.9590 H   0  0  0  0  0  0  0  0  0  0  0  0
  1  2  1  0
  2  3  2  0
  2  4  1  0
  4  5  2  0
  5  6  1  0
  6  7  2  0
  7  8  1  0
  8  9  2  0
  9 10  1  0
 10 11  1  0
 10 12  1  0
 12 13  2  0
 12 14  1  0
 12 15  1  0
  9 16  1  0
 16 17  2  0
 17 18  1  0
 18 19  1  0
 19 20  2  0
 19 21  1  0
 21 22  1  0
 22 23  1  0
 23 24  1  0
 18  4  1  0
 17  6  1  0
  1 25  1  0
  5 26  1  0
  7 27  1  0
  8 28  1  0
 10 29  1  1
 16 30  1  0
 22 31  1  0
 22 32  1  0
 23 33  1  0
 23 34  1  0
 24 35  1  0
M  CHG  3   1  -1  14  -1  15  -1
M  END
>  <UniqueID>  (76) 
76

>  <SMILES>  (76) 
[NH-]C(=O)c1cc2ccc([C@@H](F)P(=O)([O-])[O-])cc2n1C(=O)OCCO

>  <Energy>  (76) 
66.56506247488412

>  <Genealogy>  (76) 
[NH-]C(=O)c1cc2ccc(C(F)P(=O)([O-])[O-])cc2n1C(=O)OCCO (protonated)
[NH-]C(=O)c1cc2ccc([C@@H](F)P(=O)([O-])[O-])cc2n1C(=O)OCCO (chirality)
[NH-]C(=O)c1cc2ccc([C@@H](F)P(=O)([O-])[O-])cc2n1C(=O)OCCO (3D coordinates assigned)
[NH-]C(=O)c1cc2ccc([C@@H](F)P(=O)([O-])[O-])cc2n1C(=O)OCCO (optimized conformer: 66.56506247488412 kcal/mol)

>  <smiles>  (76) 
NC(=O)c1cc2ccc(C(F)P(=O)(O)O)cc2n1C(=O)OCCO

>  <score_type>  (76) 
oracle

>  <origin>  (76) 
adg

>  <m_score__min__energy>  (76) 
-10.039999999999999

>  <m_primary>  (76) 
energy

$$$$
79:0
     RDKit          3D

 43 44  0  0  0  0  0  0  0  0999 V2000
   -6.2970   17.1880  -33.4990 C   0  0  0  0  0  0  0  0  0  0  0  0
   -5.3810   18.3330  -33.5680 N   0  0  0  0  0  0  0  0  0  0  0  0
   -4.0490   18.1630  -34.1730 C   0  0  0  0  0  0  0  0  0  0  0  0
   -2.9420   18.1850  -33.1070 C   0  0  0  0  0  0  0  0  0  0  0  0
   -2.2160   19.4560  -33.1090 N   0  0  0  0  0  0  0  0  0  0  0  0
   -5.7890   19.6030  -33.0110 C   0  0  0  0  0  0  0  0  0  0  0  0
   -7.1550   19.9900  -33.0190 C   0  0  0  0  0  0  0  0  0  0  0  0
   -7.5580   21.2220  -32.4770 C   0  0  0  0  0  0  0  0  0  0  0  0
   -6.5790   22.0510  -31.9410 C   0  0  0  0  0  0  0  0  0  0  0  0
   -6.6950   23.2830  -31.3400 C   0  0  0  0  0  0  0  0  0  0  0  0
   -5.3960   23.6470  -30.9900 C   0  0  0  0  0  0  0  0  0  0  0  0
   -5.0500   24.9530  -30.3900 C   0  0  0  0  0  0  0  0  0  0  0  0
   -3.9060   25.6660  -30.8550 N   0  0  0  0  0  0  0  0  0  0  0  0
   -5.7330   25.4320  -29.4460 O   0  0  0  0  0  0  0  0  0  0  0  0
   -4.5140   22.6730  -31.3540 N   0  0  0  0  0  0  0  0  0  0  0  0
   -3.0960   22.6380  -31.1270 C   0  0  0  0  0  0  0  0  0  0  0  0
   -2.3840   21.7810  -31.7200 O   0  0  0  0  0  0  0  0  0  0  0  0
   -2.5080   23.5770  -30.2720 O   0  0  0  0  0  0  0  0  0  0  0  0
   -2.5170   23.4710  -28.8500 C   0  0  0  0  0  0  0  0  0  0  0  0
   -2.1290   24.7980  -28.2020 C   0  0  0  0  0  0  0  0  0  0  0  0
   -1.4650   25.6130  -29.1270 O   0  0  0  0  0  0  0  0  0  0  0  0
   -5.2540   21.7050  -31.9370 C   0  0  0  0  0  0  0  0  0  0  0  0
   -4.8260   20.4760  -32.4510 C   0  0  0  0  0  0  0  0  0  0  0  0
   -6.4953   16.9401  -32.4458 H   0  0  0  0  0  0  0  0  0  0  0  0
   -7.2424   17.4440  -33.9997 H   0  0  0  0  0  0  0  0  0  0  0  0
   -5.8397   16.3219  -33.9997 H   0  0  0  0  0  0  0  0  0  0  0  0
   -4.0168   17.1994  -34.7026 H   0  0  0  0  0  0  0  0  0  0  0  0
   -3.8759   18.9970  -34.8691 H   0  0  0  0  0  0  0  0  0  0  0  0
   -3.3972   18.0356  -32.1168 H   0  0  0  0  0  0  0  0  0  0  0  0
   -2.2276   17.3808  -33.3368 H   0  0  0  0  0  0  0  0  0  0  0  0
   -1.4140   19.4130  -33.7790 H   0  0  0  0  0  0  0  0  0  0  0  0
   -1.8650   19.6740  -32.1490 H   0  0  0  0  0  0  0  0  0  0  0  0
   -2.8670   20.2180  -33.4080 H   0  0  0  0  0  0  0  0  0  0  0  0
   -7.9075   19.3166  -33.4552 H   0  0  0  0  0  0  0  0  0  0  0  0
   -8.6164   21.5217  -32.4767 H   0  0  0  0  0  0  0  0  0  0  0  0
   -7.6171   23.8586  -31.1715 H   0  0  0  0  0  0  0  0  0  0  0  0
   -2.9420   25.3040  -30.6830 H   0  0  0  0  0  0  0  0  0  0  0  0
   -3.5265   23.1889  -28.5163 H   0  0  0  0  0  0  0  0  0  0  0  0
   -1.7853   22.7063  -28.5500 H   0  0  0  0  0  0  0  0  0  0  0  0
   -3.0372   25.3107  -27.8524 H   0  0  0  0  0  0  0  0  0  0  0  0
   -1.4586   24.5998  -27.3527 H   0  0  0  0  0  0  0  0  0  0  0  0
   -2.0590   25.6700  -29.9200 H   0  0  0  0  0  0  0  0  0  0  0  0
   -3.7632   20.1942  -32.4205 H   0  0  0  0  0  0  0  0  0  0  0  0
  1  2  1  0
  2  3  1  0
  3  4  1  0
  4  5  1  0
  2  6  1  0
  6  7  2  0
  7  8  1  0
  8  9  2  0
  9 10  1  0
 10 11  2  0
 11 12  1  0
 12 13  1  0
 12 14  2  0
 11 15  1  0
 15 16  1  0
 16 17  2  0
 16 18  1  0
 18 19  1  0
 19 20  1  0
 20 21  1  0
 15 22  1  0
 22 23  2  0
 23  6  1  0
 22  9  1  0
  1 24  1  0
  1 25  1  0
  1 26  1  0
  3 27  1  0
  3 28  1  0
  4 29  1  0
  4 30  1  0
  5 31  1  0
  5 32  1  0
  5 33  1  0
  7 34  1  0
  8 35  1  0
 10 36  1  0
 13 37  1  0
 19 38  1  0
 19 39  1  0
 20 40  1  0
 20 41  1  0
 21 42  1  0
 23 43  1  0
M  CHG  2   5   1  13  -1
M  END
>  <UniqueID>  (77) 
77

>  <SMILES>  (77) 
CN(CC[NH3+])c1ccc2cc(C([NH-])=O)n(C(=O)OCCO)c2c1

>  <Energy>  (77) 
76.84972173569338

>  <Genealogy>  (77) 
CN(CC[NH3+])c1ccc2cc(C([NH-])=O)n(C(=O)OCCO)c2c1 (protonated)
CN(CC[NH3+])c1ccc2cc(C([NH-])=O)n(C(=O)OCCO)c2c1 (3D coordinates assigned)
CN(CC[NH3+])c1ccc2cc(C([NH-])=O)n(C(=O)OCCO)c2c1 (optimized conformer: 76.84972173569338 kcal/mol)

>  <smiles>  (77) 
CN(CCN)c1ccc2cc(C(N)=O)n(C(=O)OCCO)c2c1

>  <score_type>  (77) 
oracle

>  <origin>  (77) 
adg

>  <m_score__min__energy>  (77) 
-9.1899999999999995

>  <m_primary>  (77) 
energy

$$$$
80:0
     RDKit          3D

 40 42  0  0  0  0  0  0  0  0999 V2000
   -3.8760   25.6140  -30.8410 N   0  0  0  0  0  0  0  0  0  0  0  0
   -5.1060   25.0960  -30.3380 C   0  0  0  0  0  0  0  0  0  0  0  0
   -5.6930   25.7000  -29.4020 O   0  0  0  0  0  0  0  0  0  0  0  0
   -5.6690   23.8330  -30.8600 C   0  0  0  0  0  0  0  0  0  0  0  0
   -6.9930   23.6930  -31.2700 C   0  0  0  0  0  0  0  0  0  0  0  0
   -7.1400   22.3590  -31.5820 C   0  0  0  0  0  0  0  0  0  0  0  0
   -8.2520   21.6640  -32.0470 C   0  0  0  0  0  0  0  0  0  0  0  0
   -8.1090   20.2900  -32.3060 C   0  0  0  0  0  0  0  0  0  0  0  0
   -6.8660   19.6420  -32.1010 C   0  0  0  0  0  0  0  0  0  0  0  0
   -6.7130   18.1770  -32.3920 C   0  0  0  0  0  0  0  0  0  0  0  0
   -6.2230   17.5280  -31.2730 F   0  0  0  0  0  0  0  0  0  0  0  0
   -7.9400   17.6370  -32.7310 F   0  0  0  0  0  0  0  0  0  0  0  0
   -5.7580   20.3810  -31.6290 C   0  0  0  0  0  0  0  0  0  0  0  0
   -5.9340   21.7440  -31.3650 C   0  0  0  0  0  0  0  0  0  0  0  0
   -5.0200   22.6360  -30.9290 N   0  0  0  0  0  0  0  0  0  0  0  0
   -3.6360   22.3710  -30.6630 C   0  0  0  0  0  0  0  0  0  0  0  0
   -3.1640   21.2200  -30.8720 O   0  0  0  0  0  0  0  0  0  0  0  0
   -2.8180   23.3930  -30.1710 O   0  0  0  0  0  0  0  0  0  0  0  0
   -2.6840   23.6710  -28.7800 C   0  0  0  0  0  0  0  0  0  0  0  0
   -1.9250   24.8620  -28.5870 O   0  0  0  0  0  0  0  0  0  0  0  0
   -0.7340   24.8940  -27.8520 C   0  0  0  0  0  0  0  0  0  0  0  0
    0.3540   24.5460  -28.3880 O   0  0  0  0  0  0  0  0  0  0  0  0
   -0.7490   25.3230  -26.4450 C   0  0  0  0  0  0  0  0  0  0  0  0
    0.0360   24.6770  -25.4780 C   0  0  0  0  0  0  0  0  0  0  0  0
    0.0040   25.1110  -24.1880 N   0  0  0  0  0  0  0  0  0  0  0  0
   -0.7770   26.1610  -23.8210 C   0  0  0  0  0  0  0  0  0  0  0  0
   -1.5580   26.8070  -24.7800 C   0  0  0  0  0  0  0  0  0  0  0  0
   -1.5270   26.3750  -26.0670 N   0  0  0  0  0  0  0  0  0  0  0  0
   -2.9590   25.2950  -30.4560 H   0  0  0  0  0  0  0  0  0  0  0  0
   -7.7587   24.4804  -31.3316 H   0  0  0  0  0  0  0  0  0  0  0  0
   -9.2134   22.1741  -32.2070 H   0  0  0  0  0  0  0  0  0  0  0  0
   -8.9707   19.7121  -32.6715 H   0  0  0  0  0  0  0  0  0  0  0  0
   -6.0112   18.0488  -33.2293 H   0  0  0  0  0  0  0  0  0  0  0  0
   -4.7824   19.8975  -31.4731 H   0  0  0  0  0  0  0  0  0  0  0  0
   -3.6827   23.8009  -28.3375 H   0  0  0  0  0  0  0  0  0  0  0  0
   -2.1645   22.8317  -28.2946 H   0  0  0  0  0  0  0  0  0  0  0  0
    0.6729   23.8257  -25.7602 H   0  0  0  0  0  0  0  0  0  0  0  0
    0.5900   24.6310  -23.4690 H   0  0  0  0  0  0  0  0  0  0  0  0
   -0.7933   26.4994  -22.7745 H   0  0  0  0  0  0  0  0  0  0  0  0
   -2.1933   27.6589  -24.4959 H   0  0  0  0  0  0  0  0  0  0  0  0
  1  2  1  0
  2  3  2  0
  2  4  1  0
  4  5  2  0
  5  6  1  0
  6  7  2  0
  7  8  1  0
  8  9  2  0
  9 10  1  0
 10 11  1  0
 10 12  1  0
  9 13  1  0
 13 14  2  0
 14 15  1  0
 15 16  1  0
 16 17  2  0
 16 18  1  0
 18 19  1  0
 19 20  1  0
 20 21  1  0
 21 22  2  0
 21 23  1  0
 23 24  2  0
 24 25  1  0
 25 26  2  0
 26 27  1  0
 27 28  2  0
 15  4  1  0
 28 23  1  0
 14  6  1  0
  1 29  1  0
  5 30  1  0
  7 31  1  0
  8 32  1  0
 10 33  1  0
 13 34  1  0
 19 35  1  0
 19 36  1  0
 24 37  1  0
 25 38  1  0
 26 39  1  0
 27 40  1  0
M  CHG  2   1  -1  25   1
M  END
>  <UniqueID>  (78) 
78

>  <SMILES>  (78) 
[NH-]C(=O)c1cc2ccc(C(F)F)cc2n1C(=O)OCOC(=O)c1c[nH+]ccn1

>  <Energy>  (78) 
78.33958963533613

>  <Genealogy>  (78) 
[NH-]C(=O)c1cc2ccc(C(F)F)cc2n1C(=O)OCOC(=O)c1c[nH+]ccn1 (protonated)
[NH-]C(=O)c1cc2ccc(C(F)F)cc2n1C(=O)OCOC(=O)c1c[nH+]ccn1 (3D coordinates assigned)
[NH-]C(=O)c1cc2ccc(C(F)F)cc2n1C(=O)OCOC(=O)c1c[nH+]ccn1 (optimized conformer: 78.33958963533613 kcal/mol)

>  <smiles>  (78) 
NC(=O)c1cc2ccc(C(F)F)cc2n1C(=O)OCOC(=O)c1cnccn1

>  <score_type>  (78) 
oracle

>  <origin>  (78) 
adg

>  <m_score__min__energy>  (78) 
-11.09

>  <m_primary>  (78) 
energy

$$$$
81:0
     RDKit          3D

 46 47  0  0  0  0  0  0  0  0999 V2000
   -0.5120   27.1470  -23.3660 C   0  0  0  0  0  0  0  0  0  0  0  0
   -0.7460   25.9870  -24.3250 C   0  0  0  0  0  0  0  0  0  0  0  0
   -1.8320   26.2770  -25.2060 O   0  0  0  0  0  0  0  0  0  0  0  0
   -2.2870   25.3800  -26.1810 C   0  0  0  0  0  0  0  0  0  0  0  0
   -3.5230   25.2230  -26.3850 O   0  0  0  0  0  0  0  0  0  0  0  0
   -1.2980   24.5910  -26.9770 C   0  0  0  0  0  0  0  0  0  0  0  0
   -1.5560   24.7820  -28.4450 C   0  0  0  0  0  0  0  0  0  0  0  0
   -1.5990   25.9530  -28.9050 O   0  0  0  0  0  0  0  0  0  0  0  0
   -1.8310   23.6850  -29.3290 N   0  0  0  0  0  0  0  0  0  0  0  0
   -1.5670   22.2770  -29.0580 C   0  0  0  0  0  0  0  0  0  0  0  0
   -2.8820   21.5000  -28.9550 C   0  0  0  0  0  0  0  0  0  0  0  0
   -3.4940   21.3870  -30.2370 O   0  0  0  0  0  0  0  0  0  0  0  0
   -3.9040   22.4930  -30.9940 C   0  0  0  0  0  0  0  0  0  0  0  0
   -3.0530   23.2110  -31.5890 O   0  0  0  0  0  0  0  0  0  0  0  0
   -5.3000   22.8210  -31.0810 N   0  0  0  0  0  0  0  0  0  0  0  0
   -5.8830   24.0380  -30.8810 C   0  0  0  0  0  0  0  0  0  0  0  0
   -5.2070   25.2560  -30.3860 C   0  0  0  0  0  0  0  0  0  0  0  0
   -3.8950   25.5710  -30.8460 N   0  0  0  0  0  0  0  0  0  0  0  0
   -5.7870   26.0420  -29.5900 O   0  0  0  0  0  0  0  0  0  0  0  0
   -7.2540   23.9650  -31.1300 C   0  0  0  0  0  0  0  0  0  0  0  0
   -7.4970   22.6560  -31.4820 C   0  0  0  0  0  0  0  0  0  0  0  0
   -8.6840   22.0340  -31.8540 C   0  0  0  0  0  0  0  0  0  0  0  0
   -8.6340   20.6750  -32.2090 C   0  0  0  0  0  0  0  0  0  0  0  0
   -7.4070   19.9680  -32.1800 C   0  0  0  0  0  0  0  0  0  0  0  0
   -7.3610   18.5330  -32.6150 C   0  0  0  0  0  0  0  0  0  0  0  0
   -6.2190   20.6360  -31.8080 C   0  0  0  0  0  0  0  0  0  0  0  0
   -6.3020   21.9850  -31.4440 C   0  0  0  0  0  0  0  0  0  0  0  0
   -0.5848   26.7862  -22.3294 H   0  0  0  0  0  0  0  0  0  0  0  0
    0.4893   27.5687  -23.5380 H   0  0  0  0  0  0  0  0  0  0  0  0
   -1.2715   27.9239  -23.5380 H   0  0  0  0  0  0  0  0  0  0  0  0
    0.1653   25.8177  -24.9174 H   0  0  0  0  0  0  0  0  0  0  0  0
   -0.9919   25.0875  -23.7416 H   0  0  0  0  0  0  0  0  0  0  0  0
   -0.2805   24.9336  -26.7377 H   0  0  0  0  0  0  0  0  0  0  0  0
   -1.3992   23.5246  -26.7267 H   0  0  0  0  0  0  0  0  0  0  0  0
   -0.9608   21.8578  -29.8746 H   0  0  0  0  0  0  0  0  0  0  0  0
   -1.0254   22.1916  -28.1044 H   0  0  0  0  0  0  0  0  0  0  0  0
   -2.6783   20.4935  -28.5606 H   0  0  0  0  0  0  0  0  0  0  0  0
   -3.5633   22.0395  -28.2807 H   0  0  0  0  0  0  0  0  0  0  0  0
   -3.0580   25.1390  -30.4020 H   0  0  0  0  0  0  0  0  0  0  0  0
   -7.9872   24.7820  -31.0598 H   0  0  0  0  0  0  0  0  0  0  0  0
   -9.6336   22.5891  -31.8699 H   0  0  0  0  0  0  0  0  0  0  0  0
   -9.5554   20.1561  -32.5119 H   0  0  0  0  0  0  0  0  0  0  0  0
   -7.3401   17.8817  -31.7288 H   0  0  0  0  0  0  0  0  0  0  0  0
   -8.2523   18.3038  -33.2176 H   0  0  0  0  0  0  0  0  0  0  0  0
   -6.4569   18.3613  -33.2176 H   0  0  0  0  0  0  0  0  0  0  0  0
   -5.2533   20.1093  -31.8045 H   0  0  0  0  0  0  0  0  0  0  0  0
  1  2  1  0
  2  3  1  0
  3  4  1  0
  4  5  2  0
  4  6  1  0
  6  7  1  0
  7  8  2  0
  7  9  1  0
  9 10  1  0
 10 11  1  0
 11 12  1  0
 12 13  1  0
 13 14  2  0
 13 15  1  0
 15 16  1  0
 16 17  1  0
 17 18  1  0
 17 19  2  0
 16 20  2  0
 20 21  1  0
 21 22  2  0
 22 23  1  0
 23 24  2  0
 24 25  1  0
 24 26  1  0
 26 27  2  0
 27 15  1  0
 27 21  1  0
  1 28  1  0
  1 29  1  0
  1 30  1  0
  2 31  1  0
  2 32  1  0
  6 33  1  0
  6 34  1  0
 10 35  1  0
 10 36  1  0
 11 37  1  0
 11 38  1  0
 18 39  1  0
 20 40  1  0
 22 41  1  0
 23 42  1  0
 25 43  1  0
 25 44  1  0
 25 45  1  0
 26 46  1  0
M  CHG  2   9  -1  18  -1
M  END
>  <UniqueID>  (79) 
79

>  <SMILES>  (79) 
CCOC(=O)CC(=O)[N-]CCOC(=O)n1c(C([NH-])=O)cc2ccc(C)cc21

>  <Energy>  (79) 
73.42897459949366

>  <Genealogy>  (79) 
CCOC(=O)CC(=O)[N-]CCOC(=O)n1c(C([NH-])=O)cc2ccc(C)cc21 (protonated)
CCOC(=O)CC(=O)[N-]CCOC(=O)n1c(C([NH-])=O)cc2ccc(C)cc21 (3D coordinates assigned)
CCOC(=O)CC(=O)[N-]CCOC(=O)n1c(C([NH-])=O)cc2ccc(C)cc21 (optimized conformer: 73.42897459949366 kcal/mol)

>  <smiles>  (79) 
CCOC(=O)CC(=O)NCCOC(=O)n1c(C(N)=O)cc2ccc(C)cc21

>  <score_type>  (79) 
oracle

>  <origin>  (79) 
adg

>  <m_score__min__energy>  (79) 
-11.449999999999999

>  <m_primary>  (79) 
energy

$$$$
82:0
     RDKit          3D

 38 39  0  0  0  0  0  0  0  0999 V2000
   -7.1450   17.0380  -33.1440 C   0  0  0  0  0  0  0  0  0  0  0  0
   -6.5480   18.2610  -33.6910 N   0  0  0  0  0  0  0  0  0  0  0  0
   -5.7840   18.1810  -34.9420 C   0  0  0  0  0  0  0  0  0  0  0  0
   -6.7080   19.5310  -33.0040 C   0  0  0  0  0  0  0  0  0  0  0  0
   -8.0030   20.0720  -32.7650 C   0  0  0  0  0  0  0  0  0  0  0  0
   -8.1640   21.3020  -32.1040 C   0  0  0  0  0  0  0  0  0  0  0  0
   -7.0230   21.9720  -31.6800 C   0  0  0  0  0  0  0  0  0  0  0  0
   -6.8890   23.1830  -31.0400 C   0  0  0  0  0  0  0  0  0  0  0  0
   -5.5170   23.3660  -30.8760 C   0  0  0  0  0  0  0  0  0  0  0  0
   -4.9190   24.5270  -30.1850 C   0  0  0  0  0  0  0  0  0  0  0  0
   -3.9120   25.3000  -30.8340 N   0  0  0  0  0  0  0  0  0  0  0  0
   -5.3020   24.8570  -29.0310 O   0  0  0  0  0  0  0  0  0  0  0  0
   -4.8330   22.3070  -31.3920 N   0  0  0  0  0  0  0  0  0  0  0  0
   -3.4090   22.1330  -31.4660 C   0  0  0  0  0  0  0  0  0  0  0  0
   -2.8680   21.8940  -32.5800 O   0  0  0  0  0  0  0  0  0  0  0  0
   -2.5790   22.2150  -30.2500 C   0  0  0  0  0  0  0  0  0  0  0  0
   -2.4230   21.1860  -29.5380 O   0  0  0  0  0  0  0  0  0  0  0  0
   -1.9450   23.4490  -29.8790 N   0  0  0  0  0  0  0  0  0  0  0  0
   -0.9930   23.5310  -28.7750 C   0  0  0  0  0  0  0  0  0  0  0  0
   -0.5590   24.9480  -28.5740 C   0  0  0  0  0  0  0  0  0  0  0  0
    0.4310   25.2110  -27.8410 O   0  0  0  0  0  0  0  0  0  0  0  0
   -1.2240   25.9770  -29.2290 O   0  0  0  0  0  0  0  0  0  0  0  0
   -5.7670   21.4660  -31.8850 C   0  0  0  0  0  0  0  0  0  0  0  0
   -5.5730   20.2570  -32.5600 C   0  0  0  0  0  0  0  0  0  0  0  0
   -7.1246   17.0798  -32.0450 H   0  0  0  0  0  0  0  0  0  0  0  0
   -8.1862   16.9525  -33.4884 H   0  0  0  0  0  0  0  0  0  0  0  0
   -6.5720   16.1645  -33.4884 H   0  0  0  0  0  0  0  0  0  0  0  0
   -4.7142   18.0690  -34.7118 H   0  0  0  0  0  0  0  0  0  0  0  0
   -6.1262   17.3138  -35.5258 H   0  0  0  0  0  0  0  0  0  0  0  0
   -5.9391   19.1003  -35.5258 H   0  0  0  0  0  0  0  0  0  0  0  0
   -8.8916   19.5187  -33.1030 H   0  0  0  0  0  0  0  0  0  0  0  0
   -9.1651   21.7223  -31.9274 H   0  0  0  0  0  0  0  0  0  0  0  0
   -7.6943   23.8627  -30.7246 H   0  0  0  0  0  0  0  0  0  0  0  0
   -2.9280   25.3010  -30.4850 H   0  0  0  0  0  0  0  0  0  0  0  0
   -2.1390   24.3150  -30.4300 H   0  0  0  0  0  0  0  0  0  0  0  0
   -1.4704   23.1628  -27.8549 H   0  0  0  0  0  0  0  0  0  0  0  0
   -0.1129   22.9154  -29.0124 H   0  0  0  0  0  0  0  0  0  0  0  0
   -4.5578   19.8754  -32.7436 H   0  0  0  0  0  0  0  0  0  0  0  0
  1  2  1  0
  2  3  1  0
  2  4  1  0
  4  5  2  0
  5  6  1  0
  6  7  2  0
  7  8  1  0
  8  9  2  0
  9 10  1  0
 10 11  1  0
 10 12  2  0
  9 13  1  0
 13 14  1  0
 14 15  2  0
 14 16  1  0
 16 17  2  0
 16 18  1  0
 18 19  1  0
 19 20  1  0
 20 21  2  0
 20 22  1  0
 13 23  1  0
 23 24  2  0
 24  4  1  0
 23  7  1  0
  1 25  1  0
  1 26  1  0
  1 27  1  0
  3 28  1  0
  3 29  1  0
  3 30  1  0
  5 31  1  0
  6 32  1  0
  8 33  1  0
 11 34  1  0
 18 35  1  0
 19 36  1  0
 19 37  1  0
 24 38  1  0
M  CHG  2  11  -1  22  -1
M  END
>  <UniqueID>  (80) 
80

>  <SMILES>  (80) 
CN(C)c1ccc2cc(C([NH-])=O)n(C(=O)C(=O)NCC(=O)[O-])c2c1

>  <Energy>  (80) 
74.88789189884245

>  <Genealogy>  (80) 
CN(C)c1ccc2cc(C([NH-])=O)n(C(=O)C(=O)NCC(=O)[O-])c2c1 (protonated)
CN(C)c1ccc2cc(C([NH-])=O)n(C(=O)C(=O)NCC(=O)[O-])c2c1 (3D coordinates assigned)
CN(C)c1ccc2cc(C([NH-])=O)n(C(=O)C(=O)NCC(=O)[O-])c2c1 (optimized conformer: 74.88789189884245 kcal/mol)

>  <smiles>  (80) 
CN(C)c1ccc2cc(C(N)=O)n(C(=O)C(=O)NCC(=O)O)c2c1

>  <score_type>  (80) 
oracle

>  <origin>  (80) 
adg

>  <m_score__min__energy>  (80) 
-12.289999999999999

>  <m_primary>  (80) 
energy

$$$$
83:0
     RDKit          3D

 55 56  0  0  0  0  0  0  0  0999 V2000
   -2.9540   21.0140  -29.6770 C   0  0  0  0  0  0  0  0  0  0  0  0
   -2.7290   22.5330  -29.5670 C   0  0  0  0  0  0  0  0  0  0  0  0
   -3.5850   23.1290  -28.4320 C   0  0  0  0  0  0  0  0  0  0  0  0
   -1.2470   22.7960  -29.2580 C   0  0  0  0  0  0  0  0  0  0  0  0
   -3.0220   23.1770  -30.8160 O   0  0  0  0  0  0  0  0  0  0  0  0
   -3.9970   22.7860  -31.7450 C   0  0  0  0  0  0  0  0  0  0  0  0
   -3.6710   22.2700  -32.8470 O   0  0  0  0  0  0  0  0  0  0  0  0
   -5.3860   23.0020  -31.4440 N   0  0  0  0  0  0  0  0  0  0  0  0
   -5.9580   24.1190  -30.9120 C   0  0  0  0  0  0  0  0  0  0  0  0
   -5.2350   25.2940  -30.3810 C   0  0  0  0  0  0  0  0  0  0  0  0
   -3.9230   25.5900  -30.8490 N   0  0  0  0  0  0  0  0  0  0  0  0
   -5.7810   26.0610  -29.5450 O   0  0  0  0  0  0  0  0  0  0  0  0
   -7.3430   23.9810  -30.8600 C   0  0  0  0  0  0  0  0  0  0  0  0
   -7.6050   22.7320  -31.3740 C   0  0  0  0  0  0  0  0  0  0  0  0
   -8.8200   22.0840  -31.5750 C   0  0  0  0  0  0  0  0  0  0  0  0
   -8.7970   20.8070  -32.1590 C   0  0  0  0  0  0  0  0  0  0  0  0
   -7.5690   20.2000  -32.5290 C   0  0  0  0  0  0  0  0  0  0  0  0
   -7.5600   18.9060  -33.1620 N   0  0  0  0  0  0  0  0  0  0  0  0
   -7.5280   17.8480  -32.1420 C   0  0  0  0  0  0  0  0  0  0  0  0
   -6.2070   17.0710  -32.2020 C   0  0  0  0  0  0  0  0  0  0  0  0
   -5.5430   17.3200  -33.4280 O   0  0  0  0  0  0  0  0  0  0  0  0
   -4.1610   17.5720  -33.2340 C   0  0  0  0  0  0  0  0  0  0  0  0
   -3.8770   19.0830  -33.2110 C   0  0  2  0  0  0  0  0  0  0  0  0
   -4.7300   19.7280  -34.1210 O   0  0  0  0  0  0  0  0  0  0  0  0
   -2.4140   19.3990  -33.5580 C   0  0  0  0  0  0  0  0  0  0  0  0
   -2.3560   20.3880  -34.5500 O   0  0  0  0  0  0  0  0  0  0  0  0
   -6.3560   20.8970  -32.3200 C   0  0  0  0  0  0  0  0  0  0  0  0
   -6.4080   22.1610  -31.7200 C   0  0  0  0  0  0  0  0  0  0  0  0
   -3.0184   20.5789  -28.6688 H   0  0  0  0  0  0  0  0  0  0  0  0
   -3.8906   20.8205  -30.2204 H   0  0  0  0  0  0  0  0  0  0  0  0
   -2.1137   20.5573  -30.2204 H   0  0  0  0  0  0  0  0  0  0  0  0
   -3.1619   22.8344  -27.4603 H   0  0  0  0  0  0  0  0  0  0  0  0
   -3.5888   24.2260  -28.5129 H   0  0  0  0  0  0  0  0  0  0  0  0
   -4.6152   22.7519  -28.5129 H   0  0  0  0  0  0  0  0  0  0  0  0
   -1.0987   22.8223  -28.1684 H   0  0  0  0  0  0  0  0  0  0  0  0
   -0.6337   21.9927  -29.6922 H   0  0  0  0  0  0  0  0  0  0  0  0
   -0.9476   23.7613  -29.6922 H   0  0  0  0  0  0  0  0  0  0  0  0
   -3.0800   25.2800  -30.3160 H   0  0  0  0  0  0  0  0  0  0  0  0
   -8.0726   24.7149  -30.4871 H   0  0  0  0  0  0  0  0  0  0  0  0
   -9.7696   22.5576  -31.2853 H   0  0  0  0  0  0  0  0  0  0  0  0
   -9.7420   20.2711  -32.3316 H   0  0  0  0  0  0  0  0  0  0  0  0
   -8.4140   18.7990  -33.7580 H   0  0  0  0  0  0  0  0  0  0  0  0
   -6.7200   18.8230  -33.7820 H   0  0  0  0  0  0  0  0  0  0  0  0
   -7.6329   18.3040  -31.1465 H   0  0  0  0  0  0  0  0  0  0  0  0
   -8.3560   17.1496  -32.3334 H   0  0  0  0  0  0  0  0  0  0  0  0
   -5.5618   17.3882  -31.3694 H   0  0  0  0  0  0  0  0  0  0  0  0
   -6.4221   15.9950  -32.1248 H   0  0  0  0  0  0  0  0  0  0  0  0
   -3.8455   17.1316  -32.2767 H   0  0  0  0  0  0  0  0  0  0  0  0
   -3.6012   17.1217  -34.0670 H   0  0  0  0  0  0  0  0  0  0  0  0
   -4.0609   19.4480  -32.1897 H   0  0  0  0  0  0  0  0  0  0  0  0
   -4.4680   20.6870  -34.1310 H   0  0  0  0  0  0  0  0  0  0  0  0
   -1.8957   19.7574  -32.6564 H   0  0  0  0  0  0  0  0  0  0  0  0
   -1.9277   18.4858  -33.9317 H   0  0  0  0  0  0  0  0  0  0  0  0
   -3.0360   21.0660  -34.3040 H   0  0  0  0  0  0  0  0  0  0  0  0
   -5.3944   20.4563  -32.6218 H   0  0  0  0  0  0  0  0  0  0  0  0
  1  2  1  0
  2  3  1  0
  2  4  1  0
  2  5  1  0
  5  6  1  0
  6  7  2  0
  6  8  1  0
  8  9  1  0
  9 10  1  0
 10 11  1  0
 10 12  2  0
  9 13  2  0
 13 14  1  0
 14 15  2  0
 15 16  1  0
 16 17  2  0
 17 18  1  0
 18 19  1  0
 19 20  1  0
 20 21  1  0
 21 22  1  0
 22 23  1  0
 23 24  1  0
 23 25  1  0
 25 26  1  0
 17 27  1  0
 27 28  2  0
 28  8  1  0
 28 14  1  0
  1 29  1  0
  1 30  1  0
  1 31  1  0
  3 32  1  0
  3 33  1  0
  3 34  1  0
  4 35  1  0
  4 36  1  0
  4 37  1  0
 11 38  1  0
 13 39  1  0
 15 40  1  0
 16 41  1  0
 18 42  1  0
 18 43  1  0
 19 44  1  0
 19 45  1  0
 20 46  1  0
 20 47  1  0
 22 48  1  0
 22 49  1  0
 23 50  1  1
 24 51  1  0
 25 52  1  0
 25 53  1  0
 26 54  1  0
 27 55  1  0
M  CHG  2  11  -1  18   1
M  END
>  <UniqueID>  (81) 
81

>  <SMILES>  (81) 
CC(C)(C)OC(=O)n1c(C([NH-])=O)cc2ccc([NH2+]CCOC[C@H](O)CO)cc21

>  <Energy>  (81) 
87.02724444430471

>  <Genealogy>  (81) 
CC(C)(C)OC(=O)n1c(C([NH-])=O)cc2ccc([NH2+]CCOC[C@H](O)CO)cc21 (protonated)
CC(C)(C)OC(=O)n1c(C([NH-])=O)cc2ccc([NH2+]CCOC[C@H](O)CO)cc21 (3D coordinates assigned)
CC(C)(C)OC(=O)n1c(C([NH-])=O)cc2ccc([NH2+]CCOC[C@H](O)CO)cc21 (optimized conformer: 87.02724444430471 kcal/mol)

>  <smiles>  (81) 
CC(C)(C)OC(=O)n1c(C(N)=O)cc2ccc(NCCOC[C@H](O)CO)cc21

>  <score_type>  (81) 
oracle

>  <origin>  (81) 
adg

>  <m_score__min__energy>  (81) 
-9.4600000000000009

>  <m_primary>  (81) 
energy

$$$$
84:0
     RDKit          3D

 39 40  0  0  0  0  0  0  0  0999 V2000
   -7.6050   18.3470  -33.0990 C   0  0  0  0  0  0  0  0  0  0  0  0
   -7.4970   19.7170  -32.4990 C   0  0  0  0  0  0  0  0  0  0  0  0
   -8.6580   20.5160  -32.3430 C   0  0  0  0  0  0  0  0  0  0  0  0
   -8.5670   21.8090  -31.8030 C   0  0  0  0  0  0  0  0  0  0  0  0
   -7.3070   22.2820  -31.4500 C   0  0  0  0  0  0  0  0  0  0  0  0
   -6.9400   23.4840  -30.8890 C   0  0  0  0  0  0  0  0  0  0  0  0
   -5.5550   23.4170  -30.7460 C   0  0  0  0  0  0  0  0  0  0  0  0
   -4.7220   24.5380  -30.2580 C   0  0  0  0  0  0  0  0  0  0  0  0
   -3.8970   24.3830  -29.1030 N   0  0  0  0  0  0  0  0  0  0  0  0
   -4.7580   25.6540  -30.8420 O   0  0  0  0  0  0  0  0  0  0  0  0
   -5.0840   22.2210  -31.2000 N   0  0  0  0  0  0  0  0  0  0  0  0
   -3.7300   21.7420  -31.1510 C   0  0  0  0  0  0  0  0  0  0  0  0
   -3.2580   21.0780  -32.1140 O   0  0  0  0  0  0  0  0  0  0  0  0
   -2.9440   22.0020  -30.0250 O   0  0  0  0  0  0  0  0  0  0  0  0
   -1.5210   21.9140  -30.0380 C   0  0  0  0  0  0  0  0  0  0  0  0
   -0.9620   23.1630  -30.3670 O   0  0  0  0  0  0  0  0  0  0  0  0
   -0.9340   24.1450  -28.9700 P   0  0  1  0  0  0  0  0  0  0  0  0
    0.5000   24.3200  -28.5220 O   0  0  0  0  0  0  0  0  0  0  0  0
   -1.5650   25.6720  -29.3360 O   0  0  0  0  0  0  0  0  0  0  0  0
   -1.8740   23.4470  -27.7180 O   0  0  0  0  0  0  0  0  0  0  0  0
   -1.1450   22.4550  -27.0180 C   0  0  0  0  0  0  0  0  0  0  0  0
   -0.0320   22.1370  -27.7730 F   0  0  0  0  0  0  0  0  0  0  0  0
   -0.6900   22.9080  -25.7850 F   0  0  0  0  0  0  0  0  0  0  0  0
   -1.9570   21.2030  -26.8590 C   0  0  0  0  0  0  0  0  0  0  0  0
   -3.0470   21.0680  -27.4750 O   0  0  0  0  0  0  0  0  0  0  0  0
   -1.5340   20.2070  -25.9870 O   0  0  0  0  0  0  0  0  0  0  0  0
   -6.1700   21.5360  -31.6270 C   0  0  0  0  0  0  0  0  0  0  0  0
   -6.2330   20.2360  -32.1450 C   0  0  0  0  0  0  0  0  0  0  0  0
   -7.6640   17.5983  -32.2953 H   0  0  0  0  0  0  0  0  0  0  0  0
   -8.5105   18.2894  -33.7209 H   0  0  0  0  0  0  0  0  0  0  0  0
   -6.7197   18.1483  -33.7209 H   0  0  0  0  0  0  0  0  0  0  0  0
   -9.6379   20.1197  -32.6475 H   0  0  0  0  0  0  0  0  0  0  0  0
   -9.4647   22.4292  -31.6633 H   0  0  0  0  0  0  0  0  0  0  0  0
   -7.5994   24.3198  -30.6123 H   0  0  0  0  0  0  0  0  0  0  0  0
   -3.3410   25.1910  -28.7440 H   0  0  0  0  0  0  0  0  0  0  0  0
   -3.8010   23.4610  -28.6240 H   0  0  0  0  0  0  0  0  0  0  0  0
   -1.1664   21.6075  -29.0429 H   0  0  0  0  0  0  0  0  0  0  0  0
   -1.2131   21.1725  -30.7899 H   0  0  0  0  0  0  0  0  0  0  0  0
   -5.3206   19.6349  -32.2726 H   0  0  0  0  0  0  0  0  0  0  0  0
  1  2  1  0
  2  3  2  0
  3  4  1  0
  4  5  2  0
  5  6  1  0
  6  7  2  0
  7  8  1  0
  8  9  1  0
  8 10  2  0
  7 11  1  0
 11 12  1  0
 12 13  2  0
 12 14  1  0
 14 15  1  0
 15 16  1  0
 16 17  1  0
 17 18  2  0
 17 19  1  6
 17 20  1  0
 20 21  1  0
 21 22  1  0
 21 23  1  0
 21 24  1  0
 24 25  2  0
 24 26  1  0
 11 27  1  0
 27 28  2  0
 28  2  1  0
 27  5  1  0
  1 29  1  0
  1 30  1  0
  1 31  1  0
  3 32  1  0
  4 33  1  0
  6 34  1  0
  9 35  1  0
  9 36  1  0
 15 37  1  0
 15 38  1  0
 28 39  1  0
M  CHG  2  19  -1  26  -1
M  END
>  <UniqueID>  (82) 
82

>  <SMILES>  (82) 
Cc1ccc2cc(C(N)=O)n(C(=O)OCO[P@@](=O)([O-])OC(F)(F)C(=O)[O-])c2c1

>  <Energy>  (82) 
77.94637971232822

>  <Genealogy>  (82) 
Cc1ccc2cc(C(N)=O)n(C(=O)OCOP(=O)([O-])OC(F)(F)C(=O)[O-])c2c1 (protonated)
Cc1ccc2cc(C(N)=O)n(C(=O)OCO[P@@](=O)([O-])OC(F)(F)C(=O)[O-])c2c1 (chirality)
Cc1ccc2cc(C(N)=O)n(C(=O)OCO[P@@](=O)([O-])OC(F)(F)C(=O)[O-])c2c1 (3D coordinates assigned)
Cc1ccc2cc(C(N)=O)n(C(=O)OCO[P@@](=O)([O-])OC(F)(F)C(=O)[O-])c2c1 (optimized conformer: 77.94637971232822 kcal/mol)

>  <smiles>  (82) 
Cc1ccc2cc(C(N)=O)n(C(=O)OCOP(=O)(O)OC(F)(F)C(=O)O)c2c1

>  <score_type>  (82) 
oracle

>  <origin>  (82) 
adg

>  <m_score__min__energy>  (82) 
-12.44

>  <m_primary>  (82) 
energy

$$$$
85:0
     RDKit          3D

 47 48  0  0  0  0  0  0  0  0999 V2000
   -7.4660   18.6410  -32.4890 C   0  0  0  0  0  0  0  0  0  0  0  0
   -7.4790   20.0700  -32.0390 C   0  0  0  0  0  0  0  0  0  0  0  0
   -8.7020   20.7840  -31.9770 C   0  0  0  0  0  0  0  0  0  0  0  0
   -8.7260   22.1320  -31.5830 C   0  0  0  0  0  0  0  0  0  0  0  0
   -7.5130   22.7410  -31.2730 C   0  0  0  0  0  0  0  0  0  0  0  0
   -7.2450   24.0260  -30.8560 C   0  0  0  0  0  0  0  0  0  0  0  0
   -5.8610   24.0830  -30.7000 C   0  0  0  0  0  0  0  0  0  0  0  0
   -5.1240   25.3150  -30.3550 C   0  0  0  0  0  0  0  0  0  0  0  0
   -3.7000   25.2900  -30.2640 N   0  0  0  0  0  0  0  0  0  0  0  0
   -5.7390   26.3860  -30.1080 O   0  0  0  0  0  0  0  0  0  0  0  0
   -5.2990   22.8780  -30.9960 N   0  0  0  0  0  0  0  0  0  0  0  0
   -3.9160   22.4990  -30.9070 C   0  0  0  0  0  0  0  0  0  0  0  0
   -3.0570   23.1260  -31.5820 O   0  0  0  0  0  0  0  0  0  0  0  0
   -3.5010   21.3150  -30.0780 C   0  0  0  0  0  0  0  0  0  0  0  0
   -2.0280   21.6980  -29.0480 P   0  0  1  0  0  0  0  0  0  0  0  0
   -2.3120   21.0040  -27.4840 S   0  0  0  0  0  0  0  0  0  0  0  0
   -0.5700   20.9100  -29.7040 N   0  0  0  0  0  0  0  0  0  0  0  0
   -0.3810   21.2430  -31.1220 C   0  0  0  0  0  0  0  0  0  0  0  0
   -0.5600   19.4510  -29.5080 C   0  0  0  0  0  0  0  0  0  0  0  0
   -1.8390   23.4630  -28.8510 N   0  0  0  0  0  0  0  0  0  0  0  0
   -0.4310   23.8090  -28.5800 C   0  0  0  0  0  0  0  0  0  0  0  0
   -2.6930   23.9900  -27.7750 C   0  0  0  0  0  0  0  0  0  0  0  0
   -6.3200   22.0710  -31.3520 C   0  0  0  0  0  0  0  0  0  0  0  0
   -6.2660   20.7270  -31.7340 C   0  0  0  0  0  0  0  0  0  0  0  0
   -7.4600   17.9798  -31.6099 H   0  0  0  0  0  0  0  0  0  0  0  0
   -8.3623   18.4388  -33.0937 H   0  0  0  0  0  0  0  0  0  0  0  0
   -6.5661   18.4552  -33.0937 H   0  0  0  0  0  0  0  0  0  0  0  0
   -9.6421   20.2771  -32.2402 H   0  0  0  0  0  0  0  0  0  0  0  0
   -9.6728   22.6886  -31.5214 H   0  0  0  0  0  0  0  0  0  0  0  0
   -7.9694   24.8355  -30.6828 H   0  0  0  0  0  0  0  0  0  0  0  0
   -3.1080   25.2730  -31.1230 H   0  0  0  0  0  0  0  0  0  0  0  0
   -4.3342   21.0305  -29.4186 H   0  0  0  0  0  0  0  0  0  0  0  0
   -3.2417   20.4907  -30.7586 H   0  0  0  0  0  0  0  0  0  0  0  0
    0.1604   22.1969  -31.2056 H   0  0  0  0  0  0  0  0  0  0  0  0
    0.2002   20.4474  -31.6112 H   0  0  0  0  0  0  0  0  0  0  0  0
   -1.3620   21.3341  -31.6112 H   0  0  0  0  0  0  0  0  0  0  0  0
   -0.5585   19.2257  -28.4313 H   0  0  0  0  0  0  0  0  0  0  0  0
   -1.4552   19.0124  -29.9731 H   0  0  0  0  0  0  0  0  0  0  0  0
    0.3411   19.0247  -29.9731 H   0  0  0  0  0  0  0  0  0  0  0  0
   -2.1140   23.9230  -29.7500 H   0  0  0  0  0  0  0  0  0  0  0  0
   -0.2660   23.8495  -27.4932 H   0  0  0  0  0  0  0  0  0  0  0  0
    0.2259   23.0456  -29.0224 H   0  0  0  0  0  0  0  0  0  0  0  0
   -0.2028   24.7899  -29.0224 H   0  0  0  0  0  0  0  0  0  0  0  0
   -2.2604   23.7230  -26.7995 H   0  0  0  0  0  0  0  0  0  0  0  0
   -2.7569   25.0848  -27.8605 H   0  0  0  0  0  0  0  0  0  0  0  0
   -3.7002   23.5562  -27.8605 H   0  0  0  0  0  0  0  0  0  0  0  0
   -5.3049   20.1955  -31.7954 H   0  0  0  0  0  0  0  0  0  0  0  0
  1  2  1  0
  2  3  2  0
  3  4  1  0
  4  5  2  0
  5  6  1  0
  6  7  2  0
  7  8  1  0
  8  9  1  0
  8 10  2  0
  7 11  1  0
 11 12  1  0
 12 13  2  0
 12 14  1  0
 14 15  1  0
 15 16  2  0
 15 17  1  6
 17 18  1  0
 17 19  1  0
 15 20  1  0
 20 21  1  0
 20 22  1  0
 11 23  1  0
 23 24  2  0
 24  2  1  0
 23  5  1  0
  1 25  1  0
  1 26  1  0
  1 27  1  0
  3 28  1  0
  4 29  1  0
  6 30  1  0
  9 31  1  0
 14 32  1  0
 14 33  1  0
 18 34  1  0
 18 35  1  0
 18 36  1  0
 19 37  1  0
 19 38  1  0
 19 39  1  0
 20 40  1  0
 21 41  1  0
 21 42  1  0
 21 43  1  0
 22 44  1  0
 22 45  1  0
 22 46  1  0
 24 47  1  0
M  CHG  2   9  -1  20   1
M  END
>  <UniqueID>  (83) 
83

>  <SMILES>  (83) 
Cc1ccc2cc(C([NH-])=O)n(C(=O)C[P@@](=S)(N(C)C)[NH+](C)C)c2c1

>  <Energy>  (83) 
80.59000772427595

>  <Genealogy>  (83) 
Cc1ccc2cc(C([NH-])=O)n(C(=O)CP(=S)(N(C)C)[NH+](C)C)c2c1 (protonated)
Cc1ccc2cc(C([NH-])=O)n(C(=O)C[P@@](=S)(N(C)C)[NH+](C)C)c2c1 (chirality)
Cc1ccc2cc(C([NH-])=O)n(C(=O)C[P@@](=S)(N(C)C)[NH+](C)C)c2c1 (3D coordinates assigned)
Cc1ccc2cc(C([NH-])=O)n(C(=O)C[P@@](=S)(N(C)C)[NH+](C)C)c2c1 (optimized conformer: 80.59000772427595 kcal/mol)

>  <smiles>  (83) 
Cc1ccc2cc(C(N)=O)n(C(=O)CP(=S)(N(C)C)N(C)C)c2c1

>  <score_type>  (83) 
oracle

>  <origin>  (83) 
adg

>  <m_score__min__energy>  (83) 
-8.9000000000000004

>  <m_primary>  (83) 
energy

$$$$
86:0
     RDKit          3D

 43 44  0  0  0  0  0  0  0  0999 V2000
   -6.0840   18.0370  -33.2390 C   0  0  0  0  0  0  0  0  0  0  0  0
   -6.4320   19.3900  -32.6970 C   0  0  0  0  0  0  0  0  0  0  0  0
   -7.7640   19.8670  -32.7780 C   0  0  0  0  0  0  0  0  0  0  0  0
   -8.0940   21.1520  -32.3140 C   0  0  0  0  0  0  0  0  0  0  0  0
   -7.0740   21.9360  -31.7850 C   0  0  0  0  0  0  0  0  0  0  0  0
   -7.1060   23.2210  -31.2900 C   0  0  0  0  0  0  0  0  0  0  0  0
   -5.7940   23.5050  -30.9160 C   0  0  0  0  0  0  0  0  0  0  0  0
   -5.3840   24.7620  -30.2600 C   0  0  0  0  0  0  0  0  0  0  0  0
   -4.0860   25.3010  -30.5030 N   0  0  0  0  0  0  0  0  0  0  0  0
   -6.1800   25.3850  -29.5110 O   0  0  0  0  0  0  0  0  0  0  0  0
   -4.9830   22.4420  -31.1780 N   0  0  0  0  0  0  0  0  0  0  0  0
   -3.5560   22.3540  -31.0270 C   0  0  0  0  0  0  0  0  0  0  0  0
   -2.8570   21.9790  -32.0110 O   0  0  0  0  0  0  0  0  0  0  0  0
   -2.9190   22.8480  -29.8230 N   0  0  2  0  0  0  0  0  0  0  0  0
   -1.4760   23.0570  -30.1120 C   0  0  0  0  0  0  0  0  0  0  0  0
   -0.8990   24.2180  -29.3530 C   0  0  0  0  0  0  0  0  0  0  0  0
    0.2810   24.1650  -28.9160 O   0  0  0  0  0  0  0  0  0  0  0  0
   -1.6460   25.3760  -29.1720 O   0  0  0  0  0  0  0  0  0  0  0  0
   -3.1540   21.8940  -28.7040 C   0  0  0  0  0  0  0  0  0  0  0  0
   -3.1450   22.5600  -27.3070 C   0  0  1  0  0  0  0  0  0  0  0  0
   -1.8670   23.0500  -26.9810 O   0  0  0  0  0  0  0  0  0  0  0  0
   -4.1850   23.6910  -27.2330 C   0  0  0  0  0  0  0  0  0  0  0  0
   -3.6490   24.8840  -27.7420 O   0  0  0  0  0  0  0  0  0  0  0  0
   -5.7810   21.4890  -31.7050 C   0  0  0  0  0  0  0  0  0  0  0  0
   -5.4190   20.2210  -32.1680 C   0  0  0  0  0  0  0  0  0  0  0  0
   -5.9054   17.3426  -32.4047 H   0  0  0  0  0  0  0  0  0  0  0  0
   -6.9154   17.6639  -33.8551 H   0  0  0  0  0  0  0  0  0  0  0  0
   -5.1757   18.1113  -33.8551 H   0  0  0  0  0  0  0  0  0  0  0  0
   -8.5471   19.2254  -33.2081 H   0  0  0  0  0  0  0  0  0  0  0  0
   -9.1270   21.5262  -32.3675 H   0  0  0  0  0  0  0  0  0  0  0  0
   -7.9811   23.8824  -31.2075 H   0  0  0  0  0  0  0  0  0  0  0  0
   -3.4980   25.6580  -29.7170 H   0  0  0  0  0  0  0  0  0  0  0  0
   -3.3660   23.7660  -29.5940 H   0  0  0  0  0  0  0  0  0  0  0  0
   -0.9253   22.1459  -29.8351 H   0  0  0  0  0  0  0  0  0  0  0  0
   -1.3789   23.2781  -31.1852 H   0  0  0  0  0  0  0  0  0  0  0  0
   -4.1333   21.4162  -28.8547 H   0  0  0  0  0  0  0  0  0  0  0  0
   -2.3267   21.1692  -28.7201 H   0  0  0  0  0  0  0  0  0  0  0  0
   -3.4126   21.7878  -26.5707 H   0  0  0  0  0  0  0  0  0  0  0  0
   -1.7360   23.8990  -27.4790 H   0  0  0  0  0  0  0  0  0  0  0  0
   -5.0688   23.4097  -27.8244 H   0  0  0  0  0  0  0  0  0  0  0  0
   -4.4672   23.8473  -26.1814 H   0  0  0  0  0  0  0  0  0  0  0  0
   -4.3280   25.2570  -28.3630 H   0  0  0  0  0  0  0  0  0  0  0  0
   -4.3744   19.8794  -32.1219 H   0  0  0  0  0  0  0  0  0  0  0  0
  1  2  1  0
  2  3  2  0
  3  4  1  0
  4  5  2  0
  5  6  1  0
  6  7  2  0
  7  8  1  0
  8  9  1  0
  8 10  2  0
  7 11  1  0
 11 12  1  0
 12 13  2  0
 12 14  1  0
 14 15  1  0
 15 16  1  0
 16 17  2  0
 16 18  1  0
 14 19  1  0
 19 20  1  0
 20 21  1  0
 20 22  1  0
 22 23  1  0
 11 24  1  0
 24 25  2  0
 25  2  1  0
 24  5  1  0
  1 26  1  0
  1 27  1  0
  1 28  1  0
  3 29  1  0
  4 30  1  0
  6 31  1  0
  9 32  1  0
 14 33  1  1
 15 34  1  0
 15 35  1  0
 19 36  1  0
 19 37  1  0
 20 38  1  1
 21 39  1  0
 22 40  1  0
 22 41  1  0
 23 42  1  0
 25 43  1  0
M  CHG  3   9  -1  14   1  18  -1
M  END
>  <UniqueID>  (84) 
84

>  <SMILES>  (84) 
Cc1ccc2cc(C([NH-])=O)n(C(=O)[N@H+](CC(=O)[O-])C[C@@H](O)CO)c2c1

>  <Energy>  (84) 
85.01691555217734

>  <Genealogy>  (84) 
Cc1ccc2cc(C([NH-])=O)n(C(=O)[NH+](CC(=O)[O-])CC(O)CO)c2c1 (protonated)
Cc1ccc2cc(C([NH-])=O)n(C(=O)[N@H+](CC(=O)[O-])C[C@@H](O)CO)c2c1 (chirality)
Cc1ccc2cc(C([NH-])=O)n(C(=O)[N@H+](CC(=O)[O-])C[C@@H](O)CO)c2c1 (3D coordinates assigned)
Cc1ccc2cc(C([NH-])=O)n(C(=O)[N@H+](CC(=O)[O-])C[C@@H](O)CO)c2c1 (optimized conformer: 85.01691555217734 kcal/mol)

>  <smiles>  (84) 
Cc1ccc2cc(C(N)=O)n(C(=O)N(CC(=O)O)CC(O)CO)c2c1

>  <score_type>  (84) 
oracle

>  <origin>  (84) 
adg

>  <m_score__min__energy>  (84) 
-10.01

>  <m_primary>  (84) 
energy

$$$$
87:0
     RDKit          3D

 74 78  0  0  0  0  0  0  0  0999 V2000
   -1.1350   19.3490  -33.7340 N   0  0  0  0  0  0  0  0  0  0  0  0
   -2.4160   18.8630  -34.1440 C   0  0  0  0  0  0  0  0  0  0  0  0
   -2.4970   17.7840  -34.7870 O   0  0  0  0  0  0  0  0  0  0  0  0
   -3.6480   19.5600  -33.7280 C   0  0  0  0  0  0  0  0  0  0  0  0
   -3.6660   20.9070  -33.3590 C   0  0  0  0  0  0  0  0  0  0  0  0
   -4.9570   21.1520  -32.9550 C   0  0  0  0  0  0  0  0  0  0  0  0
   -5.5380   22.3220  -32.4710 C   0  0  0  0  0  0  0  0  0  0  0  0
   -6.8990   22.2890  -32.1230 C   0  0  0  0  0  0  0  0  0  0  0  0
   -7.6600   21.0970  -32.2750 C   0  0  0  0  0  0  0  0  0  0  0  0
   -9.1240   21.0460  -31.9080 C   0  0  0  0  0  0  0  0  0  0  0  0
   -9.7190   19.9910  -32.5800 F   0  0  0  0  0  0  0  0  0  0  0  0
   -9.3110   20.8740  -30.5420 F   0  0  0  0  0  0  0  0  0  0  0  0
   -9.7420   22.2270  -32.2850 F   0  0  0  0  0  0  0  0  0  0  0  0
   -7.0230   19.9230  -32.7430 C   0  0  0  0  0  0  0  0  0  0  0  0
   -5.6630   19.9820  -33.0730 C   0  0  0  0  0  0  0  0  0  0  0  0
   -4.8700   18.9880  -33.5330 N   0  0  0  0  0  0  0  0  0  0  0  0
   -5.1950   17.5880  -33.5310 C   0  0  0  0  0  0  0  0  0  0  0  0
   -5.8770   17.1060  -34.4790 O   0  0  0  0  0  0  0  0  0  0  0  0
   -4.7170   16.7310  -32.4880 N   0  0  0  0  0  0  0  0  0  0  0  0
   -4.9980   15.2990  -32.4160 C   0  0  0  0  0  0  0  0  0  0  0  0
   -3.7420   14.4580  -32.7020 C   0  0  0  0  0  0  0  0  0  0  0  0
   -3.0630   14.7970  -34.0400 C   0  0  0  0  0  0  0  0  0  0  0  0
   -1.8340   14.0360  -34.2570 N   0  0  0  0  0  0  0  0  0  0  0  0
   -0.7700   14.4330  -35.1260 C   0  0  0  0  0  0  0  0  0  0  0  0
   -0.1510   13.5790  -35.8090 O   0  0  0  0  0  0  0  0  0  0  0  0
   -0.3540   15.8740  -35.1730 C   0  0  0  0  0  0  0  0  0  0  0  0
    0.8540   16.0990  -34.2590 C   0  0  0  0  0  0  0  0  0  0  0  0
    0.4730   16.8190  -33.0030 C   0  0  0  0  0  0  0  0  0  0  0  0
   -0.6890   16.6850  -32.5300 O   0  0  0  0  0  0  0  0  0  0  0  0
    1.3770   17.7310  -32.4490 O   0  0  0  0  0  0  0  0  0  0  0  0
    1.5910   17.8300  -31.0880 N   0  0  0  0  0  0  0  0  0  0  0  0
    0.6780   18.5720  -30.2710 C   0  0  0  0  0  0  0  0  0  0  0  0
    0.5140   18.2470  -28.8980 C   0  0  0  0  0  0  0  0  0  0  0  0
   -0.3760   18.9760  -28.0880 C   0  0  0  0  0  0  0  0  0  0  0  0
   -1.0900   20.0200  -28.6720 C   0  0  0  0  0  0  0  0  0  0  0  0
   -0.9440   20.3370  -30.0050 C   0  0  0  0  0  0  0  0  0  0  0  0
   -0.0650   19.6360  -30.8300 C   0  0  0  0  0  0  0  0  0  0  0  0
   -1.8340   21.4570  -30.2900 C   0  0  0  0  0  0  0  0  0  0  0  0
   -1.9410   22.0420  -31.3980 O   0  0  0  0  0  0  0  0  0  0  0  0
   -2.5680   21.8200  -29.1160 N   0  0  0  0  0  0  0  0  0  0  0  0
   -3.3750   23.0300  -28.9430 C   0  0  2  0  0  0  0  0  0  0  0  0
   -4.7790   22.8150  -29.5370 C   0  0  0  0  0  0  0  0  0  0  0  0
   -5.6280   24.0890  -29.4460 C   0  0  0  0  0  0  0  0  0  0  0  0
   -4.9210   25.2420  -30.0920 C   0  0  0  0  0  0  0  0  0  0  0  0
   -5.5830   26.2100  -30.5530 O   0  0  0  0  0  0  0  0  0  0  0  0
   -3.4890   25.2920  -30.1140 N   0  0  0  0  0  0  0  0  0  0  0  0
   -2.7020   24.2310  -29.5680 C   0  0  0  0  0  0  0  0  0  0  0  0
   -1.4470   24.3490  -29.5270 O   0  0  0  0  0  0  0  0  0  0  0  0
   -2.0680   20.9400  -28.1000 C   0  0  0  0  0  0  0  0  0  0  0  0
   -2.4270   20.9680  -26.8920 O   0  0  0  0  0  0  0  0  0  0  0  0
   -0.4660   18.7440  -33.2080 H   0  0  0  0  0  0  0  0  0  0  0  0
   -2.8276   21.6186  -33.3859 H   0  0  0  0  0  0  0  0  0  0  0  0
   -4.9486   23.2446  -32.3644 H   0  0  0  0  0  0  0  0  0  0  0  0
   -7.3814   23.1954  -31.7285 H   0  0  0  0  0  0  0  0  0  0  0  0
   -7.5848   18.9829  -32.8455 H   0  0  0  0  0  0  0  0  0  0  0  0
   -5.3664   15.0582  -31.4079 H   0  0  0  0  0  0  0  0  0  0  0  0
   -5.7529   15.0587  -33.1792 H   0  0  0  0  0  0  0  0  0  0  0  0
   -3.0178   14.6287  -31.8919 H   0  0  0  0  0  0  0  0  0  0  0  0
   -4.0646   13.4081  -32.7619 H   0  0  0  0  0  0  0  0  0  0  0  0
   -3.7644   14.5734  -34.8573 H   0  0  0  0  0  0  0  0  0  0  0  0
   -2.7939   15.8633  -34.0156 H   0  0  0  0  0  0  0  0  0  0  0  0
   -0.0850   16.1423  -36.2053 H   0  0  0  0  0  0  0  0  0  0  0  0
   -1.1889   16.5029  -34.8303 H   0  0  0  0  0  0  0  0  0  0  0  0
    1.2862   15.1231  -33.9931 H   0  0  0  0  0  0  0  0  0  0  0  0
    1.5830   16.7190  -34.8014 H   0  0  0  0  0  0  0  0  0  0  0  0
    2.4250   17.3730  -30.6460 H   0  0  0  0  0  0  0  0  0  0  0  0
    1.0891   17.4162  -28.4632 H   0  0  0  0  0  0  0  0  0  0  0  0
   -0.5044   18.7286  -27.0239 H   0  0  0  0  0  0  0  0  0  0  0  0
    0.0473   19.9049  -31.8907 H   0  0  0  0  0  0  0  0  0  0  0  0
   -3.4738   23.2313  -27.8661 H   0  0  0  0  0  0  0  0  0  0  0  0
   -4.6798   22.5261  -30.5937 H   0  0  0  0  0  0  0  0  0  0  0  0
   -5.2805   22.0237  -28.9606 H   0  0  0  0  0  0  0  0  0  0  0  0
   -6.5875   23.9212  -29.9571 H   0  0  0  0  0  0  0  0  0  0  0  0
   -5.7979   24.3267  -28.3855 H   0  0  0  0  0  0  0  0  0  0  0  0
  1  2  1  0
  2  3  2  0
  2  4  1  0
  4  5  2  0
  5  6  1  0
  6  7  2  0
  7  8  1  0
  8  9  2  0
  9 10  1  0
 10 11  1  0
 10 12  1  0
 10 13  1  0
  9 14  1  0
 14 15  2  0
 15 16  1  0
 16 17  1  0
 17 18  2  0
 17 19  1  0
 19 20  1  0
 20 21  1  0
 21 22  1  0
 22 23  1  0
 23 24  1  0
 24 25  2  0
 24 26  1  0
 26 27  1  0
 27 28  1  0
 28 29  2  0
 28 30  1  0
 30 31  1  0
 31 32  1  0
 32 33  2  0
 33 34  1  0
 34 35  2  0
 35 36  1  0
 36 37  2  0
 36 38  1  0
 38 39  2  0
 38 40  1  0
 40 41  1  0
 41 42  1  0
 42 43  1  0
 43 44  1  0
 44 45  2  0
 44 46  1  0
 46 47  1  0
 47 48  2  0
 40 49  1  0
 49 50  2  0
 16  4  1  0
 37 32  1  0
 47 41  1  0
 15  6  1  0
 49 35  1  0
  1 51  1  0
  5 52  1  0
  7 53  1  0
  8 54  1  0
 14 55  1  0
 20 56  1  0
 20 57  1  0
 21 58  1  0
 21 59  1  0
 22 60  1  0
 22 61  1  0
 26 62  1  0
 26 63  1  0
 27 64  1  0
 27 65  1  0
 31 66  1  0
 33 67  1  0
 34 68  1  0
 37 69  1  0
 41 70  1  1
 42 71  1  0
 42 72  1  0
 43 73  1  0
 43 74  1  0
M  CHG  4   1  -1  19  -1  23  -1  46  -1
M  END
>  <UniqueID>  (85) 
85

>  <SMILES>  (85) 
[NH-]C(=O)c1cc2ccc(C(F)(F)F)cc2n1C(=O)[N-]CCC[N-]C(=O)CCC(=O)ONc1ccc2c(c1)C(=O)N([C@@H]1CCC(=O)[N-]C1=O)C2=O

>  <Energy>  (85) 
141.13700491374044

>  <Genealogy>  (85) 
[NH-]C(=O)c1cc2ccc(C(F)(F)F)cc2n1C(=O)[N-]CCC[N-]C(=O)CCC(=O)ONc1ccc2c(c1)C(=O)N(C1CCC(=O)[N-]C1=O)C2=O (protonated)
[NH-]C(=O)c1cc2ccc(C(F)(F)F)cc2n1C(=O)[N-]CCC[N-]C(=O)CCC(=O)ONc1ccc2c(c1)C(=O)N([C@@H]1CCC(=O)[N-]C1=O)C2=O (chirality)
[NH-]C(=O)c1cc2ccc(C(F)(F)F)cc2n1C(=O)[N-]CCC[N-]C(=O)CCC(=O)ONc1ccc2c(c1)C(=O)N([C@@H]1CCC(=O)[N-]C1=O)C2=O (3D coordinates assigned)
[NH-]C(=O)c1cc2ccc(C(F)(F)F)cc2n1C(=O)[N-]CCC[N-]C(=O)CCC(=O)ONc1ccc2c(c1)C(=O)N([C@@H]1CCC(=O)[N-]C1=O)C2=O (nonaromatic ring conformer: 141.13700491374044 kcal/mol)

>  <smiles>  (85) 
NC(=O)c1cc2ccc(C(F)(F)F)cc2n1C(=O)NCCCNC(=O)CCC(=O)ONc1ccc2c(c1)C(=O)N(C1CCC(=O)NC1=O)C2=O

>  <score_type>  (85) 
oracle

>  <origin>  (85) 
adg

>  <m_score__min__energy>  (85) 
-13.119999999999999

>  <m_primary>  (85) 
energy

$$$$
88:0
     RDKit          3D

 30 31  0  0  0  0  0  0  0  0999 V2000
   -4.2680   25.6760  -30.8130 N   0  0  0  0  0  0  0  0  0  0  0  0
   -5.5460   25.1450  -30.4660 C   0  0  0  0  0  0  0  0  0  0  0  0
   -6.3410   25.8450  -29.7860 O   0  0  0  0  0  0  0  0  0  0  0  0
   -5.9100   23.7750  -30.8760 C   0  0  0  0  0  0  0  0  0  0  0  0
   -7.1390   23.4390  -31.4430 C   0  0  0  0  0  0  0  0  0  0  0  0
   -7.0430   22.1010  -31.7530 C   0  0  0  0  0  0  0  0  0  0  0  0
   -7.9730   21.2470  -32.3390 C   0  0  0  0  0  0  0  0  0  0  0  0
   -7.6030   19.9040  -32.5320 C   0  0  0  0  0  0  0  0  0  0  0  0
   -6.3270   19.4410  -32.1240 C   0  0  0  0  0  0  0  0  0  0  0  0
   -5.9340   18.0120  -32.3600 C   0  0  0  0  0  0  0  0  0  0  0  0
   -5.4880   17.7870  -34.0700 Cl  0  0  0  0  0  0  0  0  0  0  0  0
   -5.4050   20.3400  -31.5450 C   0  0  0  0  0  0  0  0  0  0  0  0
   -5.7970   21.6720  -31.3770 C   0  0  0  0  0  0  0  0  0  0  0  0
   -5.0920   22.6860  -30.8330 N   0  0  0  0  0  0  0  0  0  0  0  0
   -3.7720   22.5860  -30.2770 C   0  0  0  0  0  0  0  0  0  0  0  0
   -2.9770   21.7180  -30.7270 O   0  0  0  0  0  0  0  0  0  0  0  0
   -3.4090   23.3800  -29.0540 C   0  0  0  0  0  0  0  0  0  0  0  0
   -1.6880   23.9820  -29.1060 P   0  0  0  0  0  0  0  0  0  0  0  0
   -0.9500   23.3170  -30.2450 O   0  0  0  0  0  0  0  0  0  0  0  0
   -1.6630   25.6590  -29.3260 O   0  0  0  0  0  0  0  0  0  0  0  0
   -0.9230   23.6000  -27.6480 O   0  0  0  0  0  0  0  0  0  0  0  0
   -3.4810   25.6720  -30.1260 H   0  0  0  0  0  0  0  0  0  0  0  0
   -8.0014   24.1018  -31.6075 H   0  0  0  0  0  0  0  0  0  0  0  0
   -8.9659   21.6111  -32.6416 H   0  0  0  0  0  0  0  0  0  0  0  0
   -8.3105   19.2064  -33.0040 H   0  0  0  0  0  0  0  0  0  0  0  0
   -5.0748   17.7588  -31.7216 H   0  0  0  0  0  0  0  0  0  0  0  0
   -6.7820   17.3556  -32.1151 H   0  0  0  0  0  0  0  0  0  0  0  0
   -4.4054   20.0019  -31.2344 H   0  0  0  0  0  0  0  0  0  0  0  0
   -4.0844   24.2451  -28.9804 H   0  0  0  0  0  0  0  0  0  0  0  0
   -3.5080   22.7180  -28.1811 H   0  0  0  0  0  0  0  0  0  0  0  0
  1  2  1  0
  2  3  2  0
  2  4  1  0
  4  5  2  0
  5  6  1  0
  6  7  2  0
  7  8  1  0
  8  9  2  0
  9 10  1  0
 10 11  1  0
  9 12  1  0
 12 13  2  0
 13 14  1  0
 14 15  1  0
 15 16  2  0
 15 17  1  0
 17 18  1  0
 18 19  2  0
 18 20  1  0
 18 21  1  0
 14  4  1  0
 13  6  1  0
  1 22  1  0
  5 23  1  0
  7 24  1  0
  8 25  1  0
 10 26  1  0
 10 27  1  0
 12 28  1  0
 17 29  1  0
 17 30  1  0
M  CHG  3   1  -1  20  -1  21  -1
M  END
>  <UniqueID>  (86) 
86

>  <SMILES>  (86) 
[NH-]C(=O)c1cc2ccc(CCl)cc2n1C(=O)CP(=O)([O-])[O-]

>  <Energy>  (86) 
65.75119283344232

>  <Genealogy>  (86) 
[NH-]C(=O)c1cc2ccc(CCl)cc2n1C(=O)CP(=O)([O-])[O-] (protonated)
[NH-]C(=O)c1cc2ccc(CCl)cc2n1C(=O)CP(=O)([O-])[O-] (3D coordinates assigned)
[NH-]C(=O)c1cc2ccc(CCl)cc2n1C(=O)CP(=O)([O-])[O-] (optimized conformer: 65.75119283344232 kcal/mol)

>  <smiles>  (86) 
NC(=O)c1cc2ccc(CCl)cc2n1C(=O)CP(=O)(O)O

>  <score_type>  (86) 
oracle

>  <origin>  (86) 
adg

>  <m_score__min__energy>  (86) 
-12.869999999999999

>  <m_primary>  (86) 
energy

$$$$
89:0
     RDKit          3D

 40 42  0  0  0  0  0  0  0  0999 V2000
   -6.8580   17.9780  -33.4270 C   0  0  0  0  0  0  0  0  0  0  0  0
   -6.9130   19.3330  -32.7860 C   0  0  0  0  0  0  0  0  0  0  0  0
   -8.1390   20.0390  -32.7270 C   0  0  0  0  0  0  0  0  0  0  0  0
   -8.1990   21.3180  -32.1490 C   0  0  0  0  0  0  0  0  0  0  0  0
   -7.0180   21.8700  -31.6600 C   0  0  0  0  0  0  0  0  0  0  0  0
   -6.8020   23.0730  -31.0350 C   0  0  0  0  0  0  0  0  0  0  0  0
   -5.4360   23.1060  -30.7550 C   0  0  0  0  0  0  0  0  0  0  0  0
   -4.7670   24.2750  -30.1440 C   0  0  0  0  0  0  0  0  0  0  0  0
   -5.1850   24.7700  -28.8700 N   0  0  0  0  0  0  0  0  0  0  0  0
   -3.8410   24.8680  -30.7550 O   0  0  0  0  0  0  0  0  0  0  0  0
   -4.8280   21.9620  -31.1890 N   0  0  0  0  0  0  0  0  0  0  0  0
   -3.4490   21.5590  -31.0470 C   0  0  0  0  0  0  0  0  0  0  0  0
   -2.6540   21.7150  -32.0110 O   0  0  0  0  0  0  0  0  0  0  0  0
   -2.9830   20.7870  -29.8450 C   0  0  0  0  0  0  0  0  0  0  0  0
   -2.7420   21.6130  -28.6030 C   0  0  0  0  0  0  0  0  0  0  0  0
   -3.2690   21.2240  -27.5280 O   0  0  0  0  0  0  0  0  0  0  0  0
   -2.0130   22.8490  -28.5970 N   0  0  0  0  0  0  0  0  0  0  0  0
   -1.0830   23.6410  -29.4320 C   0  0  0  0  0  0  0  0  0  0  0  0
   -0.9340   24.7750  -28.4740 C   0  0  0  0  0  0  0  0  0  0  0  0
   -1.5400   25.9460  -28.9510 O   0  0  0  0  0  0  0  0  0  0  0  0
   -1.8570   23.9550  -27.6340 C   0  0  0  0  0  0  0  0  0  0  0  0
   -5.8160   21.2160  -31.7390 C   0  0  0  0  0  0  0  0  0  0  0  0
   -5.7320   19.9310  -32.2940 C   0  0  0  0  0  0  0  0  0  0  0  0
   -6.8266   17.2040  -32.6461 H   0  0  0  0  0  0  0  0  0  0  0  0
   -7.7509   17.8318  -34.0525 H   0  0  0  0  0  0  0  0  0  0  0  0
   -5.9561   17.9046  -34.0525 H   0  0  0  0  0  0  0  0  0  0  0  0
   -9.0518   19.5823  -33.1371 H   0  0  0  0  0  0  0  0  0  0  0  0
   -9.1502   21.8667  -32.0847 H   0  0  0  0  0  0  0  0  0  0  0  0
   -7.5484   23.8472  -30.8039 H   0  0  0  0  0  0  0  0  0  0  0  0
   -5.9100   24.2730  -28.3060 H   0  0  0  0  0  0  0  0  0  0  0  0
   -4.7340   25.6200  -28.4660 H   0  0  0  0  0  0  0  0  0  0  0  0
   -3.7471   20.0319  -29.6084 H   0  0  0  0  0  0  0  0  0  0  0  0
   -2.0086   20.3559  -30.1184 H   0  0  0  0  0  0  0  0  0  0  0  0
   -0.1338   23.1187  -29.6221 H   0  0  0  0  0  0  0  0  0  0  0  0
   -1.4129   23.8877  -30.4520 H   0  0  0  0  0  0  0  0  0  0  0  0
    0.0296   25.1722  -28.1223 H   0  0  0  0  0  0  0  0  0  0  0  0
   -2.0560   25.6730  -29.7530 H   0  0  0  0  0  0  0  0  0  0  0  0
   -1.3957   23.6321  -26.6891 H   0  0  0  0  0  0  0  0  0  0  0  0
   -2.7775   24.4434  -27.2818 H   0  0  0  0  0  0  0  0  0  0  0  0
   -4.7692   19.4014  -32.3449 H   0  0  0  0  0  0  0  0  0  0  0  0
  1  2  1  0
  2  3  2  0
  3  4  1  0
  4  5  2  0
  5  6  1  0
  6  7  2  0
  7  8  1  0
  8  9  1  0
  8 10  2  0
  7 11  1  0
 11 12  1  0
 12 13  2  0
 12 14  1  0
 14 15  1  0
 15 16  2  0
 15 17  1  0
 17 18  1  0
 18 19  1  0
 19 20  1  0
 19 21  1  0
 11 22  1  0
 22 23  2  0
 23  2  1  0
 22  5  1  0
 21 17  1  0
  1 24  1  0
  1 25  1  0
  1 26  1  0
  3 27  1  0
  4 28  1  0
  6 29  1  0
  9 30  1  0
  9 31  1  0
 14 32  1  0
 14 33  1  0
 18 34  1  0
 18 35  1  0
 19 36  1  0
 20 37  1  0
 21 38  1  0
 21 39  1  0
 23 40  1  0
M  END
>  <UniqueID>  (87) 
87

>  <SMILES>  (87) 
Cc1ccc2cc(C(N)=O)n(C(=O)CC(=O)N3CC(O)C3)c2c1

>  <Energy>  (87) 
126.93801243095774

>  <Genealogy>  (87) 
Cc1ccc2cc(C(N)=O)n(C(=O)CC(=O)N3CC(O)C3)c2c1 (3D coordinates assigned)
Cc1ccc2cc(C(N)=O)n(C(=O)CC(=O)N3CC(O)C3)c2c1 (nonaromatic ring conformer: 126.93801243095774 kcal/mol)

>  <smiles>  (87) 
Cc1ccc2cc(C(N)=O)n(C(=O)CC(=O)N3CC(O)C3)c2c1

>  <score_type>  (87) 
oracle

>  <origin>  (87) 
adg

>  <m_score__min__energy>  (87) 
-9.4299999999999997

>  <m_primary>  (87) 
energy

$$$$
90:0
     RDKit          3D

 40 41  0  0  0  0  0  0  0  0999 V2000
   -7.8950   18.6430  -32.3610 C   0  0  0  0  0  0  0  0  0  0  0  0
   -7.8210   20.1080  -32.0510 C   0  0  0  0  0  0  0  0  0  0  0  0
   -9.0100   20.8750  -31.9560 C   0  0  0  0  0  0  0  0  0  0  0  0
   -8.9560   22.2390  -31.6190 C   0  0  0  0  0  0  0  0  0  0  0  0
   -7.7060   22.8020  -31.3770 C   0  0  0  0  0  0  0  0  0  0  0  0
   -7.3650   24.0840  -31.0040 C   0  0  0  0  0  0  0  0  0  0  0  0
   -5.9760   24.0730  -30.8770 C   0  0  0  0  0  0  0  0  0  0  0  0
   -5.1720   25.2660  -30.5380 C   0  0  0  0  0  0  0  0  0  0  0  0
   -3.7640   25.2880  -30.7630 N   0  0  0  0  0  0  0  0  0  0  0  0
   -5.7380   26.2890  -30.0700 O   0  0  0  0  0  0  0  0  0  0  0  0
   -5.4850   22.8350  -31.1560 N   0  0  0  0  0  0  0  0  0  0  0  0
   -4.1300   22.3770  -31.0520 C   0  0  0  0  0  0  0  0  0  0  0  0
   -3.2610   22.8070  -31.8580 O   0  0  0  0  0  0  0  0  0  0  0  0
   -3.7710   21.2960  -30.0810 C   0  0  0  0  0  0  0  0  0  0  0  0
   -2.7300   21.8060  -29.1210 C   0  0  0  0  0  0  0  0  0  0  0  0
   -2.6710   21.3130  -28.0030 O   0  0  0  0  0  0  0  0  0  0  0  0
   -1.7860   22.8340  -29.5240 N   0  0  2  0  0  0  0  0  0  0  0  0
   -0.7980   22.3000  -30.4780 C   0  0  0  0  0  0  0  0  0  0  0  0
   -1.1560   23.4900  -28.3550 C   0  0  0  0  0  0  0  0  0  0  0  0
   -0.8980   24.9610  -28.5450 C   0  0  0  0  0  0  0  0  0  0  0  0
   -1.6220   25.6370  -29.3210 O   0  0  0  0  0  0  0  0  0  0  0  0
    0.1430   25.5800  -27.8660 O   0  0  0  0  0  0  0  0  0  0  0  0
   -6.5520   22.0710  -31.4620 C   0  0  0  0  0  0  0  0  0  0  0  0
   -6.5730   20.7100  -31.7850 C   0  0  0  0  0  0  0  0  0  0  0  0
   -7.9239   18.0706  -31.4221 H   0  0  0  0  0  0  0  0  0  0  0  0
   -8.8047   18.4371  -32.9442 H   0  0  0  0  0  0  0  0  0  0  0  0
   -7.0107   18.3465  -32.9442 H   0  0  0  0  0  0  0  0  0  0  0  0
   -9.9829   20.3988  -32.1476 H   0  0  0  0  0  0  0  0  0  0  0  0
   -9.8730   22.8425  -31.5488 H   0  0  0  0  0  0  0  0  0  0  0  0
   -8.0434   24.9345  -30.8412 H   0  0  0  0  0  0  0  0  0  0  0  0
   -3.1590   24.4960  -30.4500 H   0  0  0  0  0  0  0  0  0  0  0  0
   -4.6684   20.9936  -29.5214 H   0  0  0  0  0  0  0  0  0  0  0  0
   -3.3702   20.4305  -30.6291 H   0  0  0  0  0  0  0  0  0  0  0  0
   -2.3110   23.5820  -30.0350 H   0  0  0  0  0  0  0  0  0  0  0  0
    0.0385   21.8479  -29.9250 H   0  0  0  0  0  0  0  0  0  0  0  0
   -1.2745   21.5366  -31.1106 H   0  0  0  0  0  0  0  0  0  0  0  0
   -0.4204   23.1169  -31.1106 H   0  0  0  0  0  0  0  0  0  0  0  0
   -1.8209   23.3644  -27.4877 H   0  0  0  0  0  0  0  0  0  0  0  0
   -0.1766   23.0107  -28.2101 H   0  0  0  0  0  0  0  0  0  0  0  0
   -5.6423   20.1254  -31.8303 H   0  0  0  0  0  0  0  0  0  0  0  0
  1  2  1  0
  2  3  2  0
  3  4  1  0
  4  5  2  0
  5  6  1  0
  6  7  2  0
  7  8  1  0
  8  9  1  0
  8 10  2  0
  7 11  1  0
 11 12  1  0
 12 13  2  0
 12 14  1  0
 14 15  1  0
 15 16  2  0
 15 17  1  0
 17 18  1  0
 17 19  1  0
 19 20  1  0
 20 21  2  0
 20 22  1  0
 11 23  1  0
 23 24  2  0
 24  2  1  0
 23  5  1  0
  1 25  1  0
  1 26  1  0
  1 27  1  0
  3 28  1  0
  4 29  1  0
  6 30  1  0
  9 31  1  0
 14 32  1  0
 14 33  1  0
 17 34  1  6
 18 35  1  0
 18 36  1  0
 18 37  1  0
 19 38  1  0
 19 39  1  0
 24 40  1  0
M  CHG  3   9  -1  17   1  22  -1
M  END
>  <UniqueID>  (88) 
88

>  <SMILES>  (88) 
Cc1ccc2cc(C([NH-])=O)n(C(=O)CC(=O)[N@H+](C)CC(=O)[O-])c2c1

>  <Energy>  (88) 
79.26681287708472

>  <Genealogy>  (88) 
Cc1ccc2cc(C([NH-])=O)n(C(=O)CC(=O)[NH+](C)CC(=O)[O-])c2c1 (protonated)
Cc1ccc2cc(C([NH-])=O)n(C(=O)CC(=O)[N@H+](C)CC(=O)[O-])c2c1 (chirality)
Cc1ccc2cc(C([NH-])=O)n(C(=O)CC(=O)[N@H+](C)CC(=O)[O-])c2c1 (3D coordinates assigned)
Cc1ccc2cc(C([NH-])=O)n(C(=O)CC(=O)[N@H+](C)CC(=O)[O-])c2c1 (optimized conformer: 79.26681287708472 kcal/mol)

>  <smiles>  (88) 
Cc1ccc2cc(C(N)=O)n(C(=O)CC(=O)N(C)CC(=O)O)c2c1

>  <score_type>  (88) 
oracle

>  <origin>  (88) 
adg

>  <m_score__min__energy>  (88) 
-11.369999999999999

>  <m_primary>  (88) 
energy

$$$$
91:0
     RDKit          3D

 42 43  0  0  0  0  0  0  0  0999 V2000
   -1.8510   19.4320  -33.5800 C   0  0  0  0  0  0  0  0  0  0  0  0
   -1.9840   20.7580  -32.9670 N   0  0  0  0  0  0  0  0  0  0  0  0
   -0.8820   21.4130  -32.4400 O   0  0  0  0  0  0  0  0  0  0  0  0
   -0.5520   21.4170  -31.0800 C   0  0  0  0  0  0  0  0  0  0  0  0
    0.0160   20.4230  -30.5500 O   0  0  0  0  0  0  0  0  0  0  0  0
   -0.8150   22.5640  -30.3270 O   0  0  0  0  0  0  0  0  0  0  0  0
   -0.5090   22.6620  -28.9390 C   0  0  0  0  0  0  0  0  0  0  0  0
   -1.4600   23.4720  -28.2890 O   0  0  0  0  0  0  0  0  0  0  0  0
   -0.8010   25.0300  -28.0660 P   0  0  0  0  0  0  0  0  0  0  0  0
   -1.3320   25.6070  -26.7730 O   0  0  0  0  0  0  0  0  0  0  0  0
   -1.2410   26.0490  -29.3430 O   0  0  0  0  0  0  0  0  0  0  0  0
    0.8860   24.9380  -27.9730 O   0  0  0  0  0  0  0  0  0  0  0  0
   -3.2880   21.3600  -32.8350 C   0  0  0  0  0  0  0  0  0  0  0  0
   -3.8520   21.8600  -33.8470 O   0  0  0  0  0  0  0  0  0  0  0  0
   -3.9870   21.4290  -31.5330 C   0  0  0  0  0  0  0  0  0  0  0  0
   -3.5000   20.8620  -30.5190 O   0  0  0  0  0  0  0  0  0  0  0  0
   -5.1990   22.1900  -31.3960 N   0  0  0  0  0  0  0  0  0  0  0  0
   -5.3370   23.4750  -30.9650 C   0  0  0  0  0  0  0  0  0  0  0  0
   -4.2220   24.3990  -30.6600 C   0  0  0  0  0  0  0  0  0  0  0  0
   -2.9870   23.9080  -30.1330 N   0  0  0  0  0  0  0  0  0  0  0  0
   -4.3580   25.6370  -30.8430 O   0  0  0  0  0  0  0  0  0  0  0  0
   -6.6850   23.8350  -30.9380 C   0  0  0  0  0  0  0  0  0  0  0  0
   -7.3690   22.7240  -31.3770 C   0  0  0  0  0  0  0  0  0  0  0  0
   -8.7350   22.5200  -31.5500 C   0  0  0  0  0  0  0  0  0  0  0  0
   -9.1610   21.2610  -32.0090 C   0  0  0  0  0  0  0  0  0  0  0  0
   -8.2200   20.2390  -32.2820 C   0  0  0  0  0  0  0  0  0  0  0  0
   -8.6660   18.9610  -32.7430 N   0  0  0  0  0  0  0  0  0  0  0  0
   -6.8420   20.4810  -32.0980 C   0  0  0  0  0  0  0  0  0  0  0  0
   -6.4480   21.7460  -31.6500 C   0  0  0  0  0  0  0  0  0  0  0  0
   -1.7745   18.6693  -32.7910 H   0  0  0  0  0  0  0  0  0  0  0  0
   -2.7330   19.2265  -34.2043 H   0  0  0  0  0  0  0  0  0  0  0  0
   -0.9457   19.4058  -34.2043 H   0  0  0  0  0  0  0  0  0  0  0  0
   -0.5211   21.6569  -28.4921 H   0  0  0  0  0  0  0  0  0  0  0  0
    0.4876   23.1124  -28.8214 H   0  0  0  0  0  0  0  0  0  0  0  0
   -2.8080   22.8860  -30.0240 H   0  0  0  0  0  0  0  0  0  0  0  0
   -2.2200   24.5740  -29.8890 H   0  0  0  0  0  0  0  0  0  0  0  0
   -7.1107   24.8017  -30.6310 H   0  0  0  0  0  0  0  0  0  0  0  0
   -9.4592   23.3194  -31.3342 H   0  0  0  0  0  0  0  0  0  0  0  0
  -10.2339   21.0686  -32.1571 H   0  0  0  0  0  0  0  0  0  0  0  0
   -8.5110   18.1030  -32.1690 H   0  0  0  0  0  0  0  0  0  0  0  0
   -9.1530   18.8650  -33.6620 H   0  0  0  0  0  0  0  0  0  0  0  0
   -6.0983   19.6964  -32.3013 H   0  0  0  0  0  0  0  0  0  0  0  0
  1  2  1  0
  2  3  1  0
  3  4  1  0
  4  5  2  0
  4  6  1  0
  6  7  1  0
  7  8  1  0
  8  9  1  0
  9 10  2  0
  9 11  1  0
  9 12  1  0
  2 13  1  0
 13 14  2  0
 13 15  1  0
 15 16  2  0
 15 17  1  0
 17 18  1  0
 18 19  1  0
 19 20  1  0
 19 21  2  0
 18 22  2  0
 22 23  1  0
 23 24  2  0
 24 25  1  0
 25 26  2  0
 26 27  1  0
 26 28  1  0
 28 29  2  0
 29 17  1  0
 29 23  1  0
  1 30  1  0
  1 31  1  0
  1 32  1  0
  7 33  1  0
  7 34  1  0
 20 35  1  0
 20 36  1  0
 22 37  1  0
 24 38  1  0
 25 39  1  0
 27 40  1  0
 27 41  1  0
 28 42  1  0
M  CHG  2  11  -1  12  -1
M  END
>  <UniqueID>  (89) 
89

>  <SMILES>  (89) 
CN(OC(=O)OCOP(=O)([O-])[O-])C(=O)C(=O)n1c(C(N)=O)cc2ccc(N)cc21

>  <Energy>  (89) 
82.43819013358195

>  <Genealogy>  (89) 
CN(OC(=O)OCOP(=O)([O-])[O-])C(=O)C(=O)n1c(C(N)=O)cc2ccc(N)cc21 (protonated)
CN(OC(=O)OCOP(=O)([O-])[O-])C(=O)C(=O)n1c(C(N)=O)cc2ccc(N)cc21 (3D coordinates assigned)
CN(OC(=O)OCOP(=O)([O-])[O-])C(=O)C(=O)n1c(C(N)=O)cc2ccc(N)cc21 (optimized conformer: 82.43819013358195 kcal/mol)

>  <smiles>  (89) 
CN(OC(=O)OCOP(=O)(O)O)C(=O)C(=O)n1c(C(N)=O)cc2ccc(N)cc21

>  <score_type>  (89) 
oracle

>  <origin>  (89) 
adg

>  <m_score__min__energy>  (89) 
-11.460000000000001

>  <m_primary>  (89) 
energy

$$$$
92:0
     RDKit          3D

 32 34  0  0  0  0  0  0  0  0999 V2000
   -1.5510   26.0300  -28.9160 N   0  0  0  0  0  0  0  0  0  0  0  0
   -0.8440   24.7910  -28.8930 C   0  0  0  0  0  0  0  0  0  0  0  0
    0.2410   24.7120  -28.2610 O   0  0  0  0  0  0  0  0  0  0  0  0
   -1.3680   23.6330  -29.6460 C   0  0  0  0  0  0  0  0  0  0  0  0
   -0.5850   22.5430  -30.0190 C   0  0  0  0  0  0  0  0  0  0  0  0
   -1.4530   21.6550  -30.6100 C   0  0  0  0  0  0  0  0  0  0  0  0
   -1.2080   20.4080  -31.1750 C   0  0  0  0  0  0  0  0  0  0  0  0
   -2.2910   19.7170  -31.7430 C   0  0  0  0  0  0  0  0  0  0  0  0
   -3.5930   20.2810  -31.7380 C   0  0  0  0  0  0  0  0  0  0  0  0
   -4.7220   19.5490  -32.3600 C   0  0  0  0  0  0  0  0  0  0  0  0
   -5.9510   19.4600  -31.6810 C   0  0  0  0  0  0  0  0  0  0  0  0
   -7.0240   18.7650  -32.2440 C   0  0  0  0  0  0  0  0  0  0  0  0
   -8.2010   18.6800  -31.5760 F   0  0  0  0  0  0  0  0  0  0  0  0
   -6.8850   18.1530  -33.4900 C   0  0  0  0  0  0  0  0  0  0  0  0
   -5.6730   18.2380  -34.1820 C   0  0  0  0  0  0  0  0  0  0  0  0
   -5.5600   17.6450  -35.3970 F   0  0  0  0  0  0  0  0  0  0  0  0
   -4.5890   18.9390  -33.6270 C   0  0  0  0  0  0  0  0  0  0  0  0
   -3.3910   19.0490  -34.3350 O   0  0  0  0  0  0  0  0  0  0  0  0
   -3.8000   21.5550  -31.1600 C   0  0  0  0  0  0  0  0  0  0  0  0
   -2.7050   22.2120  -30.5850 C   0  0  0  0  0  0  0  0  0  0  0  0
   -2.6700   23.4300  -30.0000 N   0  0  0  0  0  0  0  0  0  0  0  0
   -3.7730   24.3410  -29.8560 C   0  0  0  0  0  0  0  0  0  0  0  0
   -4.6810   24.1120  -29.0150 O   0  0  0  0  0  0  0  0  0  0  0  0
   -3.8620   25.4670  -30.6640 O   0  0  0  0  0  0  0  0  0  0  0  0
   -2.5950   26.0510  -28.9640 H   0  0  0  0  0  0  0  0  0  0  0  0
    0.4980   22.4188  -29.8720 H   0  0  0  0  0  0  0  0  0  0  0  0
   -0.1965   19.9758  -31.1770 H   0  0  0  0  0  0  0  0  0  0  0  0
   -2.1280   18.7282  -32.1965 H   0  0  0  0  0  0  0  0  0  0  0  0
   -6.0679   19.9415  -30.6989 H   0  0  0  0  0  0  0  0  0  0  0  0
   -7.7303   17.6027  -33.9288 H   0  0  0  0  0  0  0  0  0  0  0  0
   -3.0650   18.3190  -34.9560 H   0  0  0  0  0  0  0  0  0  0  0  0
   -4.7974   22.0189  -31.1620 H   0  0  0  0  0  0  0  0  0  0  0  0
  1  2  1  0
  2  3  2  0
  2  4  1  0
  4  5  2  0
  5  6  1  0
  6  7  2  0
  7  8  1  0
  8  9  2  0
  9 10  1  0
 10 11  2  0
 11 12  1  0
 12 13  1  0
 12 14  2  0
 14 15  1  0
 15 16  1  0
 15 17  2  0
 17 18  1  0
  9 19  1  0
 19 20  2  0
 20 21  1  0
 21 22  1  0
 22 23  2  0
 22 24  1  0
 21  4  1  0
 20  6  1  0
 17 10  1  0
  1 25  1  0
  5 26  1  0
  7 27  1  0
  8 28  1  0
 11 29  1  0
 14 30  1  0
 18 31  1  0
 19 32  1  0
M  CHG  2   1  -1  24  -1
M  END
>  <UniqueID>  (90) 
90

>  <SMILES>  (90) 
[NH-]C(=O)c1cc2ccc(-c3cc(F)cc(F)c3O)cc2n1C(=O)[O-]

>  <Energy>  (90) 
80.99031360719192

>  <Genealogy>  (90) 
[NH-]C(=O)c1cc2ccc(-c3cc(F)cc(F)c3O)cc2n1C(=O)[O-] (protonated)
[NH-]C(=O)c1cc2ccc(-c3cc(F)cc(F)c3O)cc2n1C(=O)[O-] (3D coordinates assigned)
[NH-]C(=O)c1cc2ccc(-c3cc(F)cc(F)c3O)cc2n1C(=O)[O-] (optimized conformer: 80.99031360719192 kcal/mol)

>  <smiles>  (90) 
NC(=O)c1cc2ccc(-c3cc(F)cc(F)c3O)cc2n1C(=O)O

>  <score_type>  (90) 
oracle

>  <origin>  (90) 
adg

>  <m_score__min__energy>  (90) 
-10.859999999999999

>  <m_primary>  (90) 
energy

$$$$
93:0
     RDKit          3D

 34 35  0  0  0  0  0  0  0  0999 V2000
   -6.6630   18.3990  -32.6650 C   0  0  0  0  0  0  0  0  0  0  0  0
   -6.8610   19.8260  -32.2510 C   0  0  0  0  0  0  0  0  0  0  0  0
   -8.1540   20.4080  -32.3040 C   0  0  0  0  0  0  0  0  0  0  0  0
   -8.3470   21.7550  -31.9500 C   0  0  0  0  0  0  0  0  0  0  0  0
   -7.2320   22.4940  -31.5670 C   0  0  0  0  0  0  0  0  0  0  0  0
   -7.1310   23.8070  -31.1610 C   0  0  0  0  0  0  0  0  0  0  0  0
   -5.7770   24.0080  -30.8930 C   0  0  0  0  0  0  0  0  0  0  0  0
   -5.2060   25.2960  -30.4480 C   0  0  0  0  0  0  0  0  0  0  0  0
   -3.8860   25.6640  -30.8450 N   0  0  0  0  0  0  0  0  0  0  0  0
   -5.8660   26.0730  -29.7090 O   0  0  0  0  0  0  0  0  0  0  0  0
   -5.0710   22.8690  -31.1370 N   0  0  0  0  0  0  0  0  0  0  0  0
   -3.6710   22.6410  -30.9200 C   0  0  0  0  0  0  0  0  0  0  0  0
   -2.9490   22.2950  -31.8950 O   0  0  0  0  0  0  0  0  0  0  0  0
   -3.0800   22.8240  -29.6170 N   0  0  0  0  0  0  0  0  0  0  0  0
   -3.9190   22.6630  -28.4260 C   0  0  0  0  0  0  0  0  0  0  0  0
   -1.7080   23.3270  -29.4660 C   0  0  0  0  0  0  0  0  0  0  0  0
   -1.6890   24.5060  -28.5430 C   0  0  0  0  0  0  0  0  0  0  0  0
   -1.6040   25.6390  -28.9900 O   0  0  0  0  0  0  0  0  0  0  0  0
   -5.9750   21.9500  -31.5360 C   0  0  0  0  0  0  0  0  0  0  0  0
   -5.7520   20.6110  -31.8710 C   0  0  0  0  0  0  0  0  0  0  0  0
   -6.5752   17.7662  -31.7695 H   0  0  0  0  0  0  0  0  0  0  0  0
   -7.5239   18.0684  -33.2646 H   0  0  0  0  0  0  0  0  0  0  0  0
   -5.7446   18.3152  -33.2646 H   0  0  0  0  0  0  0  0  0  0  0  0
   -9.0128   19.8001  -32.6248 H   0  0  0  0  0  0  0  0  0  0  0  0
   -9.3480   22.2103  -31.9751 H   0  0  0  0  0  0  0  0  0  0  0  0
   -7.9452   24.5407  -31.0680 H   0  0  0  0  0  0  0  0  0  0  0  0
   -3.0510   25.2950  -30.3390 H   0  0  0  0  0  0  0  0  0  0  0  0
   -3.3013   22.7815  -27.5236 H   0  0  0  0  0  0  0  0  0  0  0  0
   -4.7120   23.4254  -28.4303 H   0  0  0  0  0  0  0  0  0  0  0  0
   -4.3734   21.6613  -28.4303 H   0  0  0  0  0  0  0  0  0  0  0  0
   -1.0724   22.5306  -29.0515 H   0  0  0  0  0  0  0  0  0  0  0  0
   -1.3281   23.6357  -30.4511 H   0  0  0  0  0  0  0  0  0  0  0  0
   -1.7520   24.3504  -27.4559 H   0  0  0  0  0  0  0  0  0  0  0  0
   -4.7398   20.1814  -31.8392 H   0  0  0  0  0  0  0  0  0  0  0  0
  1  2  1  0
  2  3  2  0
  3  4  1  0
  4  5  2  0
  5  6  1  0
  6  7  2  0
  7  8  1  0
  8  9  1  0
  8 10  2  0
  7 11  1  0
 11 12  1  0
 12 13  2  0
 12 14  1  0
 14 15  1  0
 14 16  1  0
 16 17  1  0
 17 18  2  0
 11 19  1  0
 19 20  2  0
 20  2  1  0
 19  5  1  0
  1 21  1  0
  1 22  1  0
  1 23  1  0
  3 24  1  0
  4 25  1  0
  6 26  1  0
  9 27  1  0
 15 28  1  0
 15 29  1  0
 15 30  1  0
 16 31  1  0
 16 32  1  0
 17 33  1  0
 20 34  1  0
M  CHG  1   9  -1
M  END
>  <UniqueID>  (91) 
91

>  <SMILES>  (91) 
Cc1ccc2cc(C([NH-])=O)n(C(=O)N(C)CC=O)c2c1

>  <Energy>  (91) 
69.30154438063703

>  <Genealogy>  (91) 
Cc1ccc2cc(C([NH-])=O)n(C(=O)N(C)CC=O)c2c1 (protonated)
Cc1ccc2cc(C([NH-])=O)n(C(=O)N(C)CC=O)c2c1 (3D coordinates assigned)
Cc1ccc2cc(C([NH-])=O)n(C(=O)N(C)CC=O)c2c1 (optimized conformer: 69.30154438063703 kcal/mol)

>  <smiles>  (91) 
Cc1ccc2cc(C(N)=O)n(C(=O)N(C)CC=O)c2c1

>  <score_type>  (91) 
oracle

>  <origin>  (91) 
adg

>  <m_score__min__energy>  (91) 
-9.9600000000000009

>  <m_primary>  (91) 
energy

$$$$
94:0
     RDKit          3D

 38 39  0  0  0  0  0  0  0  0999 V2000
   -4.2390   25.5920  -30.7510 N   0  0  0  0  0  0  0  0  0  0  0  0
   -5.5560   25.2140  -30.3480 C   0  0  0  0  0  0  0  0  0  0  0  0
   -6.2100   25.9810  -29.5920 O   0  0  0  0  0  0  0  0  0  0  0  0
   -6.1520   23.9270  -30.7650 C   0  0  0  0  0  0  0  0  0  0  0  0
   -7.4910   23.7800  -31.1250 C   0  0  0  0  0  0  0  0  0  0  0  0
   -7.6250   22.4640  -31.5000 C   0  0  0  0  0  0  0  0  0  0  0  0
   -8.7320   21.7830  -31.9960 C   0  0  0  0  0  0  0  0  0  0  0  0
   -8.5670   20.4390  -32.3680 C   0  0  0  0  0  0  0  0  0  0  0  0
   -7.3060   19.8050  -32.2430 C   0  0  0  0  0  0  0  0  0  0  0  0
   -7.1290   18.3860  -32.6920 C   0  0  0  0  0  0  0  0  0  0  0  0
   -6.4680   18.3660  -33.9070 F   0  0  0  0  0  0  0  0  0  0  0  0
   -6.1990   20.5350  -31.7570 C   0  0  0  0  0  0  0  0  0  0  0  0
   -6.3980   21.8650  -31.3690 C   0  0  0  0  0  0  0  0  0  0  0  0
   -5.4870   22.7460  -30.9010 N   0  0  0  0  0  0  0  0  0  0  0  0
   -4.0680   22.5420  -30.8010 C   0  0  0  0  0  0  0  0  0  0  0  0
   -3.3100   23.1220  -31.6230 O   0  0  0  0  0  0  0  0  0  0  0  0
   -3.4510   21.7100  -29.6910 C   0  0  1  0  0  0  0  0  0  0  0  0
   -2.0570   21.3510  -29.9770 N   0  0  0  0  0  0  0  0  0  0  0  0
   -3.5550   22.4240  -28.3150 C   0  0  0  0  0  0  0  0  0  0  0  0
   -2.2900   23.2140  -27.9480 C   0  0  0  0  0  0  0  0  0  0  0  0
   -1.7970   24.0380  -29.0980 C   0  0  0  0  0  0  0  0  0  0  0  0
   -0.8620   23.6140  -29.8260 O   0  0  0  0  0  0  0  0  0  0  0  0
   -2.3500   25.2870  -29.3460 O   0  0  0  0  0  0  0  0  0  0  0  0
   -3.8690   26.5370  -30.5020 H   0  0  0  0  0  0  0  0  0  0  0  0
   -3.5860   24.9070  -31.1890 H   0  0  0  0  0  0  0  0  0  0  0  0
   -8.2738   24.5527  -31.1118 H   0  0  0  0  0  0  0  0  0  0  0  0
   -9.7073   22.2823  -32.0939 H   0  0  0  0  0  0  0  0  0  0  0  0
   -9.4248   19.8730  -32.7602 H   0  0  0  0  0  0  0  0  0  0  0  0
   -6.5388   17.8357  -31.9444 H   0  0  0  0  0  0  0  0  0  0  0  0
   -8.1148   17.9108  -32.8030 H   0  0  0  0  0  0  0  0  0  0  0  0
   -5.2048   20.0698  -31.6852 H   0  0  0  0  0  0  0  0  0  0  0  0
   -4.0331   20.7780  -29.6417 H   0  0  0  0  0  0  0  0  0  0  0  0
   -1.4470   21.6080  -29.1700 H   0  0  0  0  0  0  0  0  0  0  0  0
   -1.7270   21.8830  -30.8150 H   0  0  0  0  0  0  0  0  0  0  0  0
   -4.4059   23.1204  -28.3456 H   0  0  0  0  0  0  0  0  0  0  0  0
   -3.6876   21.6443  -27.5505 H   0  0  0  0  0  0  0  0  0  0  0  0
   -2.5189   23.8812  -27.1039 H   0  0  0  0  0  0  0  0  0  0  0  0
   -1.5025   22.4943  -27.6799 H   0  0  0  0  0  0  0  0  0  0  0  0
  1  2  1  0
  2  3  2  0
  2  4  1  0
  4  5  2  0
  5  6  1  0
  6  7  2  0
  7  8  1  0
  8  9  2  0
  9 10  1  0
 10 11  1  0
  9 12  1  0
 12 13  2  0
 13 14  1  0
 14 15  1  0
 15 16  2  0
 15 17  1  0
 17 18  1  0
 17 19  1  0
 19 20  1  0
 20 21  1  0
 21 22  2  0
 21 23  1  0
 14  4  1  0
 13  6  1  0
  1 24  1  0
  1 25  1  0
  5 26  1  0
  7 27  1  0
  8 28  1  0
 10 29  1  0
 10 30  1  0
 12 31  1  0
 17 32  1  1
 18 33  1  0
 18 34  1  0
 19 35  1  0
 19 36  1  0
 20 37  1  0
 20 38  1  0
M  CHG  1  23  -1
M  END
>  <UniqueID>  (92) 
92

>  <SMILES>  (92) 
NC(=O)c1cc2ccc(CF)cc2n1C(=O)[C@@H](N)CCC(=O)[O-]

>  <Energy>  (92) 
78.88785568444325

>  <Genealogy>  (92) 
NC(=O)c1cc2ccc(CF)cc2n1C(=O)[C@@H](N)CCC(=O)[O-] (protonated)
NC(=O)c1cc2ccc(CF)cc2n1C(=O)[C@@H](N)CCC(=O)[O-] (3D coordinates assigned)
NC(=O)c1cc2ccc(CF)cc2n1C(=O)[C@@H](N)CCC(=O)[O-] (optimized conformer: 78.88785568444325 kcal/mol)

>  <smiles>  (92) 
NC(=O)c1cc2ccc(CF)cc2n1C(=O)[C@@H](N)CCC(=O)O

>  <score_type>  (92) 
oracle

>  <origin>  (92) 
adg

>  <m_score__min__energy>  (92) 
-9.6799999999999997

>  <m_primary>  (92) 
energy

$$$$
95:0
     RDKit          3D

 60 62  0  0  0  0  0  0  0  0999 V2000
   -0.8330   27.1060  -23.8640 C   0  0  0  0  0  0  0  0  0  0  0  0
    0.3960   25.8140  -24.2250 S   0  0  0  0  0  0  0  0  0  0  0  0
   -0.8380   24.5730  -24.7480 C   0  0  0  0  0  0  0  0  0  0  0  0
   -0.6570   24.1770  -26.2210 C   0  0  0  0  0  0  0  0  0  0  0  0
   -1.5430   24.9980  -27.1930 C   0  0  2  0  0  0  0  0  0  0  0  0
   -1.9610   24.1720  -28.3310 N   0  0  0  0  0  0  0  0  0  0  0  0
   -1.0620   23.6570  -29.3300 C   0  0  0  0  0  0  0  0  0  0  0  0
    0.1810   23.8390  -29.2200 O   0  0  0  0  0  0  0  0  0  0  0  0
   -1.5710   22.8450  -30.4890 C   0  0  0  0  0  0  0  0  0  0  0  0
   -2.9620   22.3990  -30.2800 N   0  0  0  0  0  0  0  0  0  0  0  0
   -3.3600   21.7250  -29.0290 C   0  0  0  0  0  0  0  0  0  0  0  0
   -2.2810   20.8100  -28.5050 C   0  0  0  0  0  0  0  0  0  0  0  0
   -1.4890   20.0550  -29.3840 C   0  0  0  0  0  0  0  0  0  0  0  0
   -0.4590   19.2580  -28.8830 C   0  0  0  0  0  0  0  0  0  0  0  0
   -0.2280   19.2210  -27.5060 C   0  0  0  0  0  0  0  0  0  0  0  0
   -1.0000   19.9620  -26.6660 N   0  0  0  0  0  0  0  0  0  0  0  0
   -2.0070   20.7500  -27.1300 C   0  0  0  0  0  0  0  0  0  0  0  0
   -3.8700   22.3690  -31.4030 C   0  0  0  0  0  0  0  0  0  0  0  0
   -3.4620   22.0140  -32.5420 O   0  0  0  0  0  0  0  0  0  0  0  0
   -5.2430   22.7530  -31.2430 N   0  0  0  0  0  0  0  0  0  0  0  0
   -5.7300   23.9960  -30.9710 C   0  0  0  0  0  0  0  0  0  0  0  0
   -4.9200   25.1930  -30.6580 C   0  0  0  0  0  0  0  0  0  0  0  0
   -3.5780   25.0680  -30.2010 N   0  0  0  0  0  0  0  0  0  0  0  0
   -5.4250   26.3410  -30.7830 O   0  0  0  0  0  0  0  0  0  0  0  0
   -7.1240   23.9920  -31.0270 C   0  0  0  0  0  0  0  0  0  0  0  0
   -7.4720   22.6980  -31.3560 C   0  0  0  0  0  0  0  0  0  0  0  0
   -8.7230   22.1420  -31.6080 C   0  0  0  0  0  0  0  0  0  0  0  0
   -8.7770   20.7930  -32.0010 C   0  0  0  0  0  0  0  0  0  0  0  0
   -7.5900   20.0250  -32.1110 C   0  0  0  0  0  0  0  0  0  0  0  0
   -7.6550   18.6040  -32.5780 C   0  0  0  0  0  0  0  0  0  0  0  0
   -6.3380   20.6260  -31.8550 C   0  0  0  0  0  0  0  0  0  0  0  0
   -6.3170   21.9720  -31.4750 C   0  0  0  0  0  0  0  0  0  0  0  0
   -0.8980   26.2640  -27.6910 C   0  0  0  0  0  0  0  0  0  0  0  0
   -0.0370   26.8730  -27.0030 O   0  0  0  0  0  0  0  0  0  0  0  0
   -1.1920   26.7230  -28.9700 O   0  0  0  0  0  0  0  0  0  0  0  0
   -0.9389   27.2173  -22.7748 H   0  0  0  0  0  0  0  0  0  0  0  0
   -0.5009   28.0600  -24.2995 H   0  0  0  0  0  0  0  0  0  0  0  0
   -1.8024   26.8219  -24.2995 H   0  0  0  0  0  0  0  0  0  0  0  0
   -0.7284   23.6755  -24.1216 H   0  0  0  0  0  0  0  0  0  0  0  0
   -1.8387   25.0149  -24.6324 H   0  0  0  0  0  0  0  0  0  0  0  0
    0.3969   24.3302  -26.4962 H   0  0  0  0  0  0  0  0  0  0  0  0
   -0.9624   23.1243  -26.3140 H   0  0  0  0  0  0  0  0  0  0  0  0
   -2.4198   25.3067  -26.6048 H   0  0  0  0  0  0  0  0  0  0  0  0
   -2.9800   23.9690  -28.4160 H   0  0  0  0  0  0  0  0  0  0  0  0
   -1.5278   23.4598  -31.4001 H   0  0  0  0  0  0  0  0  0  0  0  0
   -0.9370   21.9510  -30.5833 H   0  0  0  0  0  0  0  0  0  0  0  0
   -3.5761   22.4896  -28.2682 H   0  0  0  0  0  0  0  0  0  0  0  0
   -4.2472   21.1114  -29.2442 H   0  0  0  0  0  0  0  0  0  0  0  0
   -1.6800   20.0915  -30.4667 H   0  0  0  0  0  0  0  0  0  0  0  0
    0.1655   18.6641  -29.5665 H   0  0  0  0  0  0  0  0  0  0  0  0
    0.5785   18.5924  -27.1006 H   0  0  0  0  0  0  0  0  0  0  0  0
   -2.6087   21.3423  -26.4249 H   0  0  0  0  0  0  0  0  0  0  0  0
   -2.7720   25.2980  -30.8250 H   0  0  0  0  0  0  0  0  0  0  0  0
   -7.8014   24.8398  -30.8472 H   0  0  0  0  0  0  0  0  0  0  0  0
   -9.6407   22.7393  -31.5030 H   0  0  0  0  0  0  0  0  0  0  0  0
   -9.7489   20.3292  -32.2252 H   0  0  0  0  0  0  0  0  0  0  0  0
   -7.6857   17.9328  -31.7070 H   0  0  0  0  0  0  0  0  0  0  0  0
   -8.5607   18.4586  -33.1850 H   0  0  0  0  0  0  0  0  0  0  0  0
   -6.7663   18.3765  -33.1850 H   0  0  0  0  0  0  0  0  0  0  0  0
   -5.4050   20.0515  -31.9518 H   0  0  0  0  0  0  0  0  0  0  0  0
  1  2  1  0
  2  3  1  0
  3  4  1  0
  4  5  1  0
  5  6  1  0
  6  7  1  0
  7  8  2  0
  7  9  1  0
  9 10  1  0
 10 11  1  0
 11 12  1  0
 12 13  2  0
 13 14  1  0
 14 15  2  0
 15 16  1  0
 16 17  2  0
 10 18  1  0
 18 19  2  0
 18 20  1  0
 20 21  1  0
 21 22  1  0
 22 23  1  0
 22 24  2  0
 21 25  2  0
 25 26  1  0
 26 27  2  0
 27 28  1  0
 28 29  2  0
 29 30  1  0
 29 31  1  0
 31 32  2  0
  5 33  1  0
 33 34  2  0
 33 35  1  0
 17 12  1  0
 32 20  1  0
 32 26  1  0
  1 36  1  0
  1 37  1  0
  1 38  1  0
  3 39  1  0
  3 40  1  0
  4 41  1  0
  4 42  1  0
  5 43  1  1
  6 44  1  0
  9 45  1  0
  9 46  1  0
 11 47  1  0
 11 48  1  0
 13 49  1  0
 14 50  1  0
 15 51  1  0
 17 52  1  0
 23 53  1  0
 25 54  1  0
 27 55  1  0
 28 56  1  0
 30 57  1  0
 30 58  1  0
 30 59  1  0
 31 60  1  0
M  CHG  2  23  -1  35  -1
M  END
>  <UniqueID>  (93) 
93

>  <SMILES>  (93) 
CSCC[C@H](NC(=O)CN(Cc1cccnc1)C(=O)n1c(C([NH-])=O)cc2ccc(C)cc21)C(=O)[O-]

>  <Energy>  (93) 
94.36054073559004

>  <Genealogy>  (93) 
CSCCC(NC(=O)CN(Cc1cccnc1)C(=O)n1c(C([NH-])=O)cc2ccc(C)cc21)C(=O)[O-] (protonated)
CSCC[C@H](NC(=O)CN(Cc1cccnc1)C(=O)n1c(C([NH-])=O)cc2ccc(C)cc21)C(=O)[O-] (chirality)
CSCC[C@H](NC(=O)CN(Cc1cccnc1)C(=O)n1c(C([NH-])=O)cc2ccc(C)cc21)C(=O)[O-] (3D coordinates assigned)
CSCC[C@H](NC(=O)CN(Cc1cccnc1)C(=O)n1c(C([NH-])=O)cc2ccc(C)cc21)C(=O)[O-] (optimized conformer: 94.36054073559004 kcal/mol)

>  <smiles>  (93) 
CSCCC(NC(=O)CN(Cc1cccnc1)C(=O)n1c(C(N)=O)cc2ccc(C)cc21)C(=O)O

>  <score_type>  (93) 
oracle

>  <origin>  (93) 
adg

>  <m_score__min__energy>  (93) 
-14.199999999999999

>  <m_primary>  (93) 
energy

$$$$
96:0
     RDKit          3D

 34 35  0  0  0  0  0  0  0  0999 V2000
   -3.4880   25.3070  -30.9310 H   0  0  0  0  0  0  0  0  0  0  0  0
   -4.2380   25.9130  -30.5320 N   0  0  0  0  0  0  0  0  0  0  0  0
   -5.5440   25.3990  -30.2900 C   0  0  0  0  0  0  0  0  0  0  0  0
   -6.3440   26.0570  -29.5730 O   0  0  0  0  0  0  0  0  0  0  0  0
   -5.9520   24.0820  -30.8210 C   0  0  0  0  0  0  0  0  0  0  0  0
   -7.2570   23.7870  -31.2100 C   0  0  0  0  0  0  0  0  0  0  0  0
   -8.1123   24.4773  -31.2535 H   0  0  0  0  0  0  0  0  0  0  0  0
   -7.2480   22.4490  -31.5280 C   0  0  0  0  0  0  0  0  0  0  0  0
   -8.2790   21.6260  -31.9730 C   0  0  0  0  0  0  0  0  0  0  0  0
   -9.2974   22.0182  -32.1112 H   0  0  0  0  0  0  0  0  0  0  0  0
   -7.9800   20.2810  -32.2400 C   0  0  0  0  0  0  0  0  0  0  0  0
   -8.7764   19.6034  -32.5813 H   0  0  0  0  0  0  0  0  0  0  0  0
   -6.6610   19.7870  -32.0740 C   0  0  0  0  0  0  0  0  0  0  0  0
   -6.3570   18.3420  -32.3460 C   0  0  0  0  0  0  0  0  0  0  0  0
   -5.6288   17.9775  -31.6065 H   0  0  0  0  0  0  0  0  0  0  0  0
   -7.2863   17.7579  -32.2739 H   0  0  0  0  0  0  0  0  0  0  0  0
   -5.7980   18.1920  -33.6920 C   0  0  0  0  0  0  0  0  0  0  0  0
   -5.3550   18.0740  -34.7550 N   0  0  0  0  0  0  0  0  0  0  0  0
   -5.6430   20.6500  -31.6090 C   0  0  0  0  0  0  0  0  0  0  0  0
   -4.6160   20.2837  -31.4639 H   0  0  0  0  0  0  0  0  0  0  0  0
   -5.9740   21.9810  -31.3380 C   0  0  0  0  0  0  0  0  0  0  0  0
   -5.1610   22.9760  -30.9190 N   0  0  0  0  0  0  0  0  0  0  0  0
   -3.7470   22.8650  -30.6680 C   0  0  0  0  0  0  0  0  0  0  0  0
   -2.9330   23.1800  -31.5760 O   0  0  0  0  0  0  0  0  0  0  0  0
   -3.2110   22.3310  -29.3970 C   0  0  0  0  0  0  0  0  0  0  0  0
   -3.6259   21.3779  -29.0373 H   0  0  0  0  0  0  0  0  0  0  0  0
   -2.2580   22.9120  -28.6420 C   0  0  0  0  0  0  0  0  0  0  0  0
   -1.4630   24.0710  -29.0980 C   0  0  0  0  0  0  0  0  0  0  0  0
   -0.2360   23.9350  -29.3520 O   0  0  0  0  0  0  0  0  0  0  0  0
   -2.0670   25.3020  -29.3190 O   0  0  0  0  0  0  0  0  0  0  0  0
   -1.9930   22.3560  -27.2690 C   0  0  0  0  0  0  0  0  0  0  0  0
   -2.3356   23.0747  -26.5100 H   0  0  0  0  0  0  0  0  0  0  0  0
   -2.5356   21.4070  -27.1467 H   0  0  0  0  0  0  0  0  0  0  0  0
   -0.9141   22.1799  -27.1467 H   0  0  0  0  0  0  0  0  0  0  0  0
  1  2  1  0
  2  3  1  0
  3  4  2  0
  3  5  1  0
  5  6  2  0
  6  7  1  0
  6  8  1  0
  8  9  2  0
  9 10  1  0
  9 11  1  0
 11 12  1  0
 11 13  2  0
 13 14  1  0
 14 15  1  0
 14 16  1  0
 14 17  1  0
 17 18  3  0
 13 19  1  0
 19 20  1  0
 19 21  2  0
 21 22  1  0
 22 23  1  0
 23 24  2  0
 23 25  1  0
 25 26  1  0
 25 27  2  0
 27 28  1  0
 28 29  2  0
 28 30  1  0
 27 31  1  0
 31 32  1  0
 31 33  1  0
 31 34  1  0
 22  5  1  0
 21  8  1  0
M  CHG  2   2  -1  30  -1
M  END
>  <UniqueID>  (94) 
94

>  <SMILES>  (94) 
C/C(=C/C(=O)n1c(C([NH-])=O)cc2ccc(CC#N)cc21)C(=O)[O-]

>  <Energy>  (94) 
78.1530438198334

>  <Genealogy>  (94) 
CC(=CC(=O)n1c(C([NH-])=O)cc2ccc(CC#N)cc21)C(=O)[O-] (protonated)
C/C(=C/C(=O)n1c(C([NH-])=O)cc2ccc(CC#N)cc21)C(=O)[O-] (cis-trans isomerization)
C/C(=C/C(=O)n1c(C([NH-])=O)cc2ccc(CC#N)cc21)C(=O)[O-] (3D coordinates assigned)
C/C(=C/C(=O)n1c(C([NH-])=O)cc2ccc(CC#N)cc21)C(=O)[O-] (optimized conformer: 78.1530438198334 kcal/mol)

>  <smiles>  (94) 
CC(=CC(=O)n1c(C(N)=O)cc2ccc(CC#N)cc21)C(=O)O

>  <score_type>  (94) 
oracle

>  <origin>  (94) 
adg

>  <m_score__min__energy>  (94) 
-12.58

>  <m_primary>  (94) 
energy

$$$$
