0:0
     RDKit          3D

 37 38  0  0  0  0  0  0  0  0999 V2000
   -4.2140   24.9210  -26.5440 C   0  0  0  0  0  0  0  0  0  0  0  0
   -3.7980   23.7710  -27.4540 C   0  0  0  0  0  0  0  0  0  0  0  0
   -2.3940   23.8100  -27.7030 O   0  0  0  0  0  0  0  0  0  0  0  0
   -1.8370   24.2170  -28.9210 C   0  0  0  0  0  0  0  0  0  0  0  0
   -1.4410   25.4020  -29.0880 O   0  0  0  0  0  0  0  0  0  0  0  0
   -1.6880   23.2220  -30.0240 C   0  0  0  0  0  0  0  0  0  0  0  0
   -2.8850   23.1910  -30.7920 O   0  0  0  0  0  0  0  0  0  0  0  0
   -3.9040   22.2610  -30.5740 C   0  0  0  0  0  0  0  0  0  0  0  0
   -3.6380   21.1300  -30.0850 O   0  0  0  0  0  0  0  0  0  0  0  0
   -5.2630   22.6130  -30.8780 N   0  0  0  0  0  0  0  0  0  0  0  0
   -5.8420   23.8460  -30.8310 C   0  0  0  0  0  0  0  0  0  0  0  0
   -5.2230   25.0780  -30.2980 C   0  0  0  0  0  0  0  0  0  0  0  0
   -4.0050   25.5820  -30.8400 N   0  0  0  0  0  0  0  0  0  0  0  0
   -5.7500   25.6670  -29.3160 O   0  0  0  0  0  0  0  0  0  0  0  0
   -7.1580   23.7860  -31.2830 C   0  0  0  0  0  0  0  0  0  0  0  0
   -7.3760   22.4650  -31.5980 C   0  0  0  0  0  0  0  0  0  0  0  0
   -8.5090   21.8430  -32.1110 C   0  0  0  0  0  0  0  0  0  0  0  0
   -8.4430   20.4650  -32.3750 C   0  0  0  0  0  0  0  0  0  0  0  0
   -7.2560   19.7320  -32.1140 C   0  0  0  0  0  0  0  0  0  0  0  0
   -7.1770   18.2660  -32.4570 C   0  0  0  0  0  0  0  0  0  0  0  0
   -6.2180   17.6640  -31.6620 F   0  0  0  0  0  0  0  0  0  0  0  0
   -8.3950   17.6470  -32.2400 F   0  0  0  0  0  0  0  0  0  0  0  0
   -6.8330   18.0920  -33.7870 F   0  0  0  0  0  0  0  0  0  0  0  0
   -6.1170   20.4080  -31.6190 C   0  0  0  0  0  0  0  0  0  0  0  0
   -6.2180   21.7770  -31.3460 C   0  0  0  0  0  0  0  0  0  0  0  0
   -4.1035   24.6154  -25.4931 H   0  0  0  0  0  0  0  0  0  0  0  0
   -3.5748   25.7942  -26.7411 H   0  0  0  0  0  0  0  0  0  0  0  0
   -5.2640   25.1832  -26.7411 H   0  0  0  0  0  0  0  0  0  0  0  0
   -4.0529   22.8167  -26.9700 H   0  0  0  0  0  0  0  0  0  0  0  0
   -4.3306   23.8663  -28.4117 H   0  0  0  0  0  0  0  0  0  0  0  0
   -0.8449   23.5111  -30.6686 H   0  0  0  0  0  0  0  0  0  0  0  0
   -1.4961   22.2257  -29.5990 H   0  0  0  0  0  0  0  0  0  0  0  0
   -3.0820   25.2940  -30.4450 H   0  0  0  0  0  0  0  0  0  0  0  0
   -7.8717   24.6185  -31.3697 H   0  0  0  0  0  0  0  0  0  0  0  0
   -9.4296   22.4132  -32.3043 H   0  0  0  0  0  0  0  0  0  0  0  0
   -9.3214   19.9480  -32.7888 H   0  0  0  0  0  0  0  0  0  0  0  0
   -5.1723   19.8698  -31.4521 H   0  0  0  0  0  0  0  0  0  0  0  0
  1  2  1  0
  2  3  1  0
  3  4  1  0
  4  5  2  0
  4  6  1  0
  6  7  1  0
  7  8  1  0
  8  9  2  0
  8 10  1  0
 10 11  1  0
 11 12  1  0
 12 13  1  0
 12 14  2  0
 11 15  2  0
 15 16  1  0
 16 17  2  0
 17 18  1  0
 18 19  2  0
 19 20  1  0
 20 21  1  0
 20 22  1  0
 20 23  1  0
 19 24  1  0
 24 25  2  0
 25 10  1  0
 25 16  1  0
  1 26  1  0
  1 27  1  0
  1 28  1  0
  2 29  1  0
  2 30  1  0
  6 31  1  0
  6 32  1  0
 13 33  1  0
 15 34  1  0
 17 35  1  0
 18 36  1  0
 24 37  1  0
M  CHG  1  13  -1
M  END
>  <UniqueID>  (1) 
1

>  <SMILES>  (1) 
CCOC(=O)COC(=O)n1c(C([NH-])=O)cc2ccc(C(F)(F)F)cc21

>  <Energy>  (1) 
69.33290424546723

>  <Genealogy>  (1) 
CCOC(=O)COC(=O)n1c(C([NH-])=O)cc2ccc(C(F)(F)F)cc21 (protonated)
CCOC(=O)COC(=O)n1c(C([NH-])=O)cc2ccc(C(F)(F)F)cc21 (3D coordinates assigned)
CCOC(=O)COC(=O)n1c(C([NH-])=O)cc2ccc(C(F)(F)F)cc21 (optimized conformer: 69.33290424546723 kcal/mol)

>  <smiles>  (1) 
CCOC(=O)COC(=O)n1c(C(N)=O)cc2ccc(C(F)(F)F)cc21

>  <score_type>  (1) 
oracle

>  <origin>  (1) 
adg

>  <m_score__min__energy>  (1) 
-9.9199999999999999

>  <m_primary>  (1) 
energy

$$$$
1:0
     RDKit          3D

 45 46  0  0  0  0  0  0  0  0999 V2000
   -7.7530   18.7700  -32.5110 C   0  0  0  0  0  0  0  0  0  0  0  0
   -7.6530   20.1960  -32.0590 C   0  0  0  0  0  0  0  0  0  0  0  0
   -8.8210   20.9910  -31.9530 C   0  0  0  0  0  0  0  0  0  0  0  0
   -8.7360   22.3420  -31.5760 C   0  0  0  0  0  0  0  0  0  0  0  0
   -7.4740   22.8690  -31.3170 C   0  0  0  0  0  0  0  0  0  0  0  0
   -7.0990   24.1470  -30.9690 C   0  0  0  0  0  0  0  0  0  0  0  0
   -5.7090   24.1100  -30.8670 C   0  0  0  0  0  0  0  0  0  0  0  0
   -4.8860   25.2720  -30.4680 C   0  0  0  0  0  0  0  0  0  0  0  0
   -3.5060   25.1200  -30.1470 N   0  0  0  0  0  0  0  0  0  0  0  0
   -5.4160   26.4120  -30.3820 O   0  0  0  0  0  0  0  0  0  0  0  0
   -5.2450   22.8580  -31.1380 N   0  0  0  0  0  0  0  0  0  0  0  0
   -3.8780   22.4260  -31.2130 C   0  0  0  0  0  0  0  0  0  0  0  0
   -3.2180   22.6410  -32.2660 O   0  0  0  0  0  0  0  0  0  0  0  0
   -3.2440   21.7410  -30.0730 C   0  0  0  0  0  0  0  0  0  0  0  0
   -3.3000   20.4830  -29.9960 O   0  0  0  0  0  0  0  0  0  0  0  0
   -2.5770   22.4910  -29.0480 N   0  0  0  0  0  0  0  0  0  0  0  0
   -1.9500   21.8240  -27.9050 C   0  0  0  0  0  0  0  0  0  0  0  0
   -1.1650   22.8130  -27.0310 C   0  0  0  0  0  0  0  0  0  0  0  0
   -0.5530   23.9530  -27.8590 C   0  0  0  0  0  0  0  0  0  0  0  0
   -1.5070   25.0770  -27.9840 N   0  0  0  0  0  0  0  0  0  0  0  0
   -2.5900   24.9390  -26.9960 C   0  0  0  0  0  0  0  0  0  0  0  0
   -0.8310   26.3730  -27.7870 C   0  0  0  0  0  0  0  0  0  0  0  0
   -6.3360   22.1120  -31.4150 C   0  0  0  0  0  0  0  0  0  0  0  0
   -6.3880   20.7690  -31.8070 C   0  0  0  0  0  0  0  0  0  0  0  0
   -7.7993   18.1094  -31.6327 H   0  0  0  0  0  0  0  0  0  0  0  0
   -8.6625   18.6400  -33.1160 H   0  0  0  0  0  0  0  0  0  0  0  0
   -6.8706   18.5144  -33.1160 H   0  0  0  0  0  0  0  0  0  0  0  0
   -9.8039   20.5463  -32.1679 H   0  0  0  0  0  0  0  0  0  0  0  0
   -9.6390   22.9640  -31.4883 H   0  0  0  0  0  0  0  0  0  0  0  0
   -7.7566   25.0136  -30.8060 H   0  0  0  0  0  0  0  0  0  0  0  0
   -3.0800   25.6360  -29.3450 H   0  0  0  0  0  0  0  0  0  0  0  0
   -2.5230   23.5300  -29.1360 H   0  0  0  0  0  0  0  0  0  0  0  0
   -2.7335   21.3522  -27.2938 H   0  0  0  0  0  0  0  0  0  0  0  0
   -1.2451   21.0728  -28.2907 H   0  0  0  0  0  0  0  0  0  0  0  0
   -1.8464   23.2439  -26.2827 H   0  0  0  0  0  0  0  0  0  0  0  0
   -0.3425   22.2629  -26.5505 H   0  0  0  0  0  0  0  0  0  0  0  0
    0.3620   24.3090  -27.3629 H   0  0  0  0  0  0  0  0  0  0  0  0
   -0.3182   23.5740  -28.8646 H   0  0  0  0  0  0  0  0  0  0  0  0
   -2.1694   24.9926  -25.9810 H   0  0  0  0  0  0  0  0  0  0  0  0
   -3.3184   25.7516  -27.1344 H   0  0  0  0  0  0  0  0  0  0  0  0
   -3.0913   23.9697  -27.1344 H   0  0  0  0  0  0  0  0  0  0  0  0
   -0.7270   26.5724  -26.7102 H   0  0  0  0  0  0  0  0  0  0  0  0
    0.1654   26.3412  -28.2519 H   0  0  0  0  0  0  0  0  0  0  0  0
   -1.4272   27.1720  -28.2519 H   0  0  0  0  0  0  0  0  0  0  0  0
   -5.4677   20.1763  -31.9157 H   0  0  0  0  0  0  0  0  0  0  0  0
  1  2  1  0
  2  3  2  0
  3  4  1  0
  4  5  2  0
  5  6  1  0
  6  7  2  0
  7  8  1  0
  8  9  1  0
  8 10  2  0
  7 11  1  0
 11 12  1  0
 12 13  2  0
 12 14  1  0
 14 15  2  0
 14 16  1  0
 16 17  1  0
 17 18  1  0
 18 19  1  0
 19 20  1  0
 20 21  1  0
 20 22  1  0
 11 23  1  0
 23 24  2  0
 24  2  1  0
 23  5  1  0
  1 25  1  0
  1 26  1  0
  1 27  1  0
  3 28  1  0
  4 29  1  0
  6 30  1  0
  9 31  1  0
 16 32  1  0
 17 33  1  0
 17 34  1  0
 18 35  1  0
 18 36  1  0
 19 37  1  0
 19 38  1  0
 21 39  1  0
 21 40  1  0
 21 41  1  0
 22 42  1  0
 22 43  1  0
 22 44  1  0
 24 45  1  0
M  CHG  1   9  -1
M  END
>  <UniqueID>  (2) 
2

>  <SMILES>  (2) 
Cc1ccc2cc(C([NH-])=O)n(C(=O)C(=O)NCCCN(C)C)c2c1

>  <Energy>  (2) 
78.63542608350838

>  <Genealogy>  (2) 
Cc1ccc2cc(C([NH-])=O)n(C(=O)C(=O)NCCCN(C)C)c2c1 (protonated)
Cc1ccc2cc(C([NH-])=O)n(C(=O)C(=O)NCCCN(C)C)c2c1 (3D coordinates assigned)
Cc1ccc2cc(C([NH-])=O)n(C(=O)C(=O)NCCCN(C)C)c2c1 (optimized conformer: 78.63542608350838 kcal/mol)

>  <smiles>  (2) 
Cc1ccc2cc(C(N)=O)n(C(=O)C(=O)NCCCN(C)C)c2c1

>  <score_type>  (2) 
oracle

>  <origin>  (2) 
adg

>  <m_score__min__energy>  (2) 
-10.18

>  <m_primary>  (2) 
energy

$$$$
2:0
     RDKit          3D

 37 38  0  0  0  0  0  0  0  0999 V2000
   -1.6090   25.8870  -26.5640 C   0  0  0  0  0  0  0  0  0  0  0  0
   -0.9840   26.3540  -27.8700 C   0  0  0  0  0  0  0  0  0  0  0  0
   -1.6020   25.6790  -28.9610 O   0  0  0  0  0  0  0  0  0  0  0  0
   -1.6560   24.2850  -29.0510 C   0  0  0  0  0  0  0  0  0  0  0  0
   -0.6260   23.6180  -29.3440 O   0  0  0  0  0  0  0  0  0  0  0  0
   -2.9560   23.5840  -28.8220 C   0  0  0  0  0  0  0  0  0  0  0  0
   -3.1110   22.4910  -29.7740 N   0  0  0  0  0  0  0  0  0  0  0  0
   -3.7660   22.6320  -31.0400 C   0  0  0  0  0  0  0  0  0  0  0  0
   -3.0970   22.5980  -32.1070 O   0  0  0  0  0  0  0  0  0  0  0  0
   -5.1840   22.8560  -31.0920 N   0  0  0  0  0  0  0  0  0  0  0  0
   -5.8560   24.0240  -30.8840 C   0  0  0  0  0  0  0  0  0  0  0  0
   -5.2620   25.3010  -30.4280 C   0  0  0  0  0  0  0  0  0  0  0  0
   -3.9500   25.6640  -30.8540 N   0  0  0  0  0  0  0  0  0  0  0  0
   -5.9120   26.0900  -29.6930 O   0  0  0  0  0  0  0  0  0  0  0  0
   -7.2220   23.8420  -31.0920 C   0  0  0  0  0  0  0  0  0  0  0  0
   -7.3670   22.5180  -31.4370 C   0  0  0  0  0  0  0  0  0  0  0  0
   -8.5120   21.7960  -31.7600 C   0  0  0  0  0  0  0  0  0  0  0  0
   -8.3630   20.4400  -32.0970 C   0  0  0  0  0  0  0  0  0  0  0  0
   -7.0770   19.8380  -32.1300 C   0  0  0  0  0  0  0  0  0  0  0  0
   -6.9190   18.3750  -32.4550 C   0  0  0  0  0  0  0  0  0  0  0  0
   -6.4660   18.2230  -33.7550 F   0  0  0  0  0  0  0  0  0  0  0  0
   -5.9980   17.8130  -31.5870 F   0  0  0  0  0  0  0  0  0  0  0  0
   -8.1220   17.7000  -32.3320 F   0  0  0  0  0  0  0  0  0  0  0  0
   -5.9420   20.6030  -31.7790 C   0  0  0  0  0  0  0  0  0  0  0  0
   -6.1220   21.9460  -31.4300 C   0  0  0  0  0  0  0  0  0  0  0  0
   -1.0464   26.3074  -25.7174 H   0  0  0  0  0  0  0  0  0  0  0  0
   -2.6538   26.2275  -26.5152 H   0  0  0  0  0  0  0  0  0  0  0  0
   -1.5786   24.7885  -26.5152 H   0  0  0  0  0  0  0  0  0  0  0  0
   -1.1310   27.4386  -27.9794 H   0  0  0  0  0  0  0  0  0  0  0  0
    0.0926   26.1284  -27.8621 H   0  0  0  0  0  0  0  0  0  0  0  0
   -2.9764   23.1807  -27.7988 H   0  0  0  0  0  0  0  0  0  0  0  0
   -3.7798   24.3000  -28.9590 H   0  0  0  0  0  0  0  0  0  0  0  0
   -3.1020   25.2870  -30.3730 H   0  0  0  0  0  0  0  0  0  0  0  0
   -8.0164   24.5973  -30.9998 H   0  0  0  0  0  0  0  0  0  0  0  0
   -9.5035   22.2723  -31.7518 H   0  0  0  0  0  0  0  0  0  0  0  0
   -9.2518   19.8383  -32.3378 H   0  0  0  0  0  0  0  0  0  0  0  0
   -4.9385   20.1524  -31.7801 H   0  0  0  0  0  0  0  0  0  0  0  0
  1  2  1  0
  2  3  1  0
  3  4  1  0
  4  5  2  0
  4  6  1  0
  6  7  1  0
  7  8  1  0
  8  9  2  0
  8 10  1  0
 10 11  1  0
 11 12  1  0
 12 13  1  0
 12 14  2  0
 11 15  2  0
 15 16  1  0
 16 17  2  0
 17 18  1  0
 18 19  2  0
 19 20  1  0
 20 21  1  0
 20 22  1  0
 20 23  1  0
 19 24  1  0
 24 25  2  0
 25 10  1  0
 25 16  1  0
  1 26  1  0
  1 27  1  0
  1 28  1  0
  2 29  1  0
  2 30  1  0
  6 31  1  0
  6 32  1  0
 13 33  1  0
 15 34  1  0
 17 35  1  0
 18 36  1  0
 24 37  1  0
M  CHG  2   7  -1  13  -1
M  END
>  <UniqueID>  (3) 
3

>  <SMILES>  (3) 
CCOC(=O)C[N-]C(=O)n1c(C([NH-])=O)cc2ccc(C(F)(F)F)cc21

>  <Energy>  (3) 
68.72359311528731

>  <Genealogy>  (3) 
CCOC(=O)C[N-]C(=O)n1c(C([NH-])=O)cc2ccc(C(F)(F)F)cc21 (protonated)
CCOC(=O)C[N-]C(=O)n1c(C([NH-])=O)cc2ccc(C(F)(F)F)cc21 (3D coordinates assigned)
CCOC(=O)C[N-]C(=O)n1c(C([NH-])=O)cc2ccc(C(F)(F)F)cc21 (optimized conformer: 68.72359311528731 kcal/mol)

>  <smiles>  (3) 
CCOC(=O)CNC(=O)n1c(C(N)=O)cc2ccc(C(F)(F)F)cc21

>  <score_type>  (3) 
oracle

>  <origin>  (3) 
adg

>  <m_score__min__energy>  (3) 
-10.630000000000001

>  <m_primary>  (3) 
energy

$$$$
3:0
     RDKit          3D

 45 46  0  0  0  0  0  0  0  0999 V2000
   -1.8030   21.5570  -26.8400 C   0  0  0  0  0  0  0  0  0  0  0  0
   -1.5490   22.5750  -27.8840 N   0  0  1  0  0  0  0  0  0  0  0  0
   -2.3170   22.2440  -29.0760 C   0  0  0  0  0  0  0  0  0  0  0  0
   -2.9210   21.1820  -29.1530 O   0  0  0  0  0  0  0  0  0  0  0  0
   -2.3260   23.1670  -30.2670 C   0  0  0  0  0  0  0  0  0  0  0  0
   -3.0150   22.4940  -31.4140 C   0  0  0  0  0  0  0  0  0  0  0  0
   -2.3320   21.9040  -32.2910 O   0  0  0  0  0  0  0  0  0  0  0  0
   -4.4440   22.4130  -31.4550 N   0  0  0  0  0  0  0  0  0  0  0  0
   -5.3490   23.3170  -30.9870 C   0  0  0  0  0  0  0  0  0  0  0  0
   -5.0250   24.6270  -30.3870 C   0  0  0  0  0  0  0  0  0  0  0  0
   -3.9160   25.3790  -30.8760 N   0  0  0  0  0  0  0  0  0  0  0  0
   -5.7040   25.0810  -29.4270 O   0  0  0  0  0  0  0  0  0  0  0  0
   -6.6470   22.8600  -31.2110 C   0  0  0  0  0  0  0  0  0  0  0  0
   -6.5040   21.6410  -31.8350 C   0  0  0  0  0  0  0  0  0  0  0  0
   -7.4660   20.7450  -32.2890 C   0  0  0  0  0  0  0  0  0  0  0  0
   -7.0220   19.5530  -32.8900 C   0  0  0  0  0  0  0  0  0  0  0  0
   -5.6370   19.2770  -33.0200 C   0  0  0  0  0  0  0  0  0  0  0  0
   -5.1970   18.0430  -33.6090 N   0  0  0  0  0  0  0  0  0  0  0  0
   -6.4910   16.4160  -33.8520 I   0  0  0  0  0  0  0  0  0  0  0  0
   -3.2360   17.7760  -34.2890 I   0  0  0  0  0  0  0  0  0  0  0  0
   -4.6940   20.2190  -32.5510 C   0  0  0  0  0  0  0  0  0  0  0  0
   -5.1650   21.3970  -31.9690 C   0  0  0  0  0  0  0  0  0  0  0  0
   -1.7450   23.9940  -27.4190 C   0  0  0  0  0  0  0  0  0  0  0  0
   -3.2390   24.3970  -27.5320 C   0  0  0  0  0  0  0  0  0  0  0  0
   -1.3120   24.2140  -25.9420 C   0  0  0  0  0  0  0  0  0  0  0  0
   -0.9650   24.9400  -28.3280 C   0  0  0  0  0  0  0  0  0  0  0  0
    0.2590   24.7530  -28.5690 O   0  0  0  0  0  0  0  0  0  0  0  0
   -1.6140   26.0060  -28.9430 O   0  0  0  0  0  0  0  0  0  0  0  0
   -1.6888   22.0146  -25.8462 H   0  0  0  0  0  0  0  0  0  0  0  0
   -2.8259   21.1674  -26.9490 H   0  0  0  0  0  0  0  0  0  0  0  0
   -1.0830   20.7325  -26.9490 H   0  0  0  0  0  0  0  0  0  0  0  0
   -0.5350   22.4710  -28.1290 H   0  0  0  0  0  0  0  0  0  0  0  0
   -2.8614   24.0928  -30.0096 H   0  0  0  0  0  0  0  0  0  0  0  0
   -1.2914   23.4092  -30.5514 H   0  0  0  0  0  0  0  0  0  0  0  0
   -2.9680   25.2850  -30.4480 H   0  0  0  0  0  0  0  0  0  0  0  0
   -7.5867   23.3663  -30.9454 H   0  0  0  0  0  0  0  0  0  0  0  0
   -8.5392   20.9613  -32.1816 H   0  0  0  0  0  0  0  0  0  0  0  0
   -7.7582   18.8261  -33.2637 H   0  0  0  0  0  0  0  0  0  0  0  0
   -3.6145   20.0285  -32.6424 H   0  0  0  0  0  0  0  0  0  0  0  0
   -3.6650   24.5119  -26.5244 H   0  0  0  0  0  0  0  0  0  0  0  0
   -3.3217   25.3496  -28.0759 H   0  0  0  0  0  0  0  0  0  0  0  0
   -3.7895   23.6153  -28.0759 H   0  0  0  0  0  0  0  0  0  0  0  0
   -2.0882   23.8196  -25.2697 H   0  0  0  0  0  0  0  0  0  0  0  0
   -0.3639   23.6883  -25.7557 H   0  0  0  0  0  0  0  0  0  0  0  0
   -1.1776   25.2897  -25.7557 H   0  0  0  0  0  0  0  0  0  0  0  0
  1  2  1  0
  2  3  1  0
  3  4  2  0
  3  5  1  0
  5  6  1  0
  6  7  2  0
  6  8  1  0
  8  9  1  0
  9 10  1  0
 10 11  1  0
 10 12  2  0
  9 13  2  0
 13 14  1  0
 14 15  2  0
 15 16  1  0
 16 17  2  0
 17 18  1  0
 18 19  1  0
 18 20  1  0
 17 21  1  0
 21 22  2  0
  2 23  1  0
 23 24  1  0
 23 25  1  0
 23 26  1  0
 26 27  2  0
 26 28  1  0
 22  8  1  0
 22 14  1  0
  1 29  1  0
  1 30  1  0
  1 31  1  0
  2 32  1  6
  5 33  1  0
  5 34  1  0
 11 35  1  0
 13 36  1  0
 15 37  1  0
 16 38  1  0
 21 39  1  0
 24 40  1  0
 24 41  1  0
 24 42  1  0
 25 43  1  0
 25 44  1  0
 25 45  1  0
M  CHG  3   2   1  11  -1  28  -1
M  END
>  <UniqueID>  (4) 
4

>  <SMILES>  (4) 
C[N@@H+](C(=O)CC(=O)n1c(C([NH-])=O)cc2ccc(N(I)I)cc21)C(C)(C)C(=O)[O-]

>  <Energy>  (4) 
92.73338930842104

>  <Genealogy>  (4) 
C[NH+](C(=O)CC(=O)n1c(C([NH-])=O)cc2ccc(N(I)I)cc21)C(C)(C)C(=O)[O-] (protonated)
C[N@@H+](C(=O)CC(=O)n1c(C([NH-])=O)cc2ccc(N(I)I)cc21)C(C)(C)C(=O)[O-] (chirality)
C[N@@H+](C(=O)CC(=O)n1c(C([NH-])=O)cc2ccc(N(I)I)cc21)C(C)(C)C(=O)[O-] (3D coordinates assigned)
C[N@@H+](C(=O)CC(=O)n1c(C([NH-])=O)cc2ccc(N(I)I)cc21)C(C)(C)C(=O)[O-] (optimized conformer: 92.73338930842104 kcal/mol)

>  <smiles>  (4) 
CN(C(=O)CC(=O)n1c(C(N)=O)cc2ccc(N(I)I)cc21)C(C)(C)C(=O)O

>  <score_type>  (4) 
oracle

>  <origin>  (4) 
adg

>  <m_score__min__energy>  (4) 
-12.550000000000001

>  <m_primary>  (4) 
energy

$$$$
5:0
     RDKit          3D

 43 44  0  0  0  0  0  0  0  0999 V2000
   -3.3040   17.7910  -34.5600 C   0  0  0  0  0  0  0  0  0  0  0  0
   -4.2810   18.0280  -33.5020 N   0  0  0  0  0  0  0  0  0  0  0  0
   -5.6680   18.2430  -33.7870 C   0  0  0  0  0  0  0  0  0  0  0  0
   -6.0630   18.3470  -34.9800 O   0  0  0  0  0  0  0  0  0  0  0  0
   -6.6670   18.3310  -32.6720 C   0  0  0  0  0  0  0  0  0  0  0  0
   -6.8660   19.7690  -32.2790 C   0  0  0  0  0  0  0  0  0  0  0  0
   -8.1750   20.2750  -32.0820 C   0  0  0  0  0  0  0  0  0  0  0  0
   -8.3750   21.5940  -31.6380 C   0  0  0  0  0  0  0  0  0  0  0  0
   -7.2520   22.3800  -31.4040 C   0  0  0  0  0  0  0  0  0  0  0  0
   -7.1610   23.6770  -30.9470 C   0  0  0  0  0  0  0  0  0  0  0  0
   -5.7950   23.9380  -30.8590 C   0  0  0  0  0  0  0  0  0  0  0  0
   -5.2370   25.2390  -30.4290 C   0  0  0  0  0  0  0  0  0  0  0  0
   -3.9440   25.6410  -30.8900 N   0  0  0  0  0  0  0  0  0  0  0  0
   -5.8720   25.9900  -29.6410 O   0  0  0  0  0  0  0  0  0  0  0  0
   -5.0740   22.8490  -31.2500 N   0  0  0  0  0  0  0  0  0  0  0  0
   -3.6490   22.6850  -31.2550 C   0  0  0  0  0  0  0  0  0  0  0  0
   -3.0670   22.3890  -32.3350 O   0  0  0  0  0  0  0  0  0  0  0  0
   -2.8860   22.7950  -30.0370 N   0  0  0  0  0  0  0  0  0  0  0  0
   -1.4470   23.0900  -30.0980 C   0  0  0  0  0  0  0  0  0  0  0  0
   -1.1160   24.3240  -29.3160 C   0  0  0  0  0  0  0  0  0  0  0  0
   -1.9160   25.2920  -29.2860 O   0  0  0  0  0  0  0  0  0  0  0  0
    0.0800   24.4070  -28.6170 O   0  0  0  0  0  0  0  0  0  0  0  0
   -3.4960   22.4530  -28.7450 C   0  0  0  0  0  0  0  0  0  0  0  0
   -3.0330   21.1140  -28.2520 C   0  0  0  0  0  0  0  0  0  0  0  0
   -3.4090   20.7050  -27.1230 O   0  0  0  0  0  0  0  0  0  0  0  0
   -2.2340   20.2940  -29.0470 O   0  0  0  0  0  0  0  0  0  0  0  0
   -5.9800   21.9070  -31.5950 C   0  0  0  0  0  0  0  0  0  0  0  0
   -5.7470   20.5940  -32.0190 C   0  0  0  0  0  0  0  0  0  0  0  0
   -2.3279   17.5542  -34.1114 H   0  0  0  0  0  0  0  0  0  0  0  0
   -3.6356   16.9472  -35.1830 H   0  0  0  0  0  0  0  0  0  0  0  0
   -3.2121   18.6929  -35.1830 H   0  0  0  0  0  0  0  0  0  0  0  0
   -3.9510   17.9980  -32.5080 H   0  0  0  0  0  0  0  0  0  0  0  0
   -7.6257   17.9077  -33.0063 H   0  0  0  0  0  0  0  0  0  0  0  0
   -6.2946   17.7656  -31.8050 H   0  0  0  0  0  0  0  0  0  0  0  0
   -9.0435   19.6292  -32.2785 H   0  0  0  0  0  0  0  0  0  0  0  0
   -9.3884   21.9918  -31.4806 H   0  0  0  0  0  0  0  0  0  0  0  0
   -7.9887   24.3595  -30.7040 H   0  0  0  0  0  0  0  0  0  0  0  0
   -3.0670   25.2650  -30.4680 H   0  0  0  0  0  0  0  0  0  0  0  0
   -0.8879   22.2395  -29.6808 H   0  0  0  0  0  0  0  0  0  0  0  0
   -1.1688   23.2573  -31.1490 H   0  0  0  0  0  0  0  0  0  0  0  0
   -3.2206   23.2200  -28.0062 H   0  0  0  0  0  0  0  0  0  0  0  0
   -4.5868   22.4110  -28.8803 H   0  0  0  0  0  0  0  0  0  0  0  0
   -4.7225   20.2142  -32.1465 H   0  0  0  0  0  0  0  0  0  0  0  0
  1  2  1  0
  2  3  1  0
  3  4  2  0
  3  5  1  0
  5  6  1  0
  6  7  2  0
  7  8  1  0
  8  9  2  0
  9 10  1  0
 10 11  2  0
 11 12  1  0
 12 13  1  0
 12 14  2  0
 11 15  1  0
 15 16  1  0
 16 17  2  0
 16 18  1  0
 18 19  1  0
 19 20  1  0
 20 21  2  0
 20 22  1  0
 18 23  1  0
 23 24  1  0
 24 25  2  0
 24 26  1  0
 15 27  1  0
 27 28  2  0
 28  6  1  0
 27  9  1  0
  1 29  1  0
  1 30  1  0
  1 31  1  0
  2 32  1  0
  5 33  1  0
  5 34  1  0
  7 35  1  0
  8 36  1  0
 10 37  1  0
 13 38  1  0
 19 39  1  0
 19 40  1  0
 23 41  1  0
 23 42  1  0
 28 43  1  0
M  CHG  3  13  -1  22  -1  26  -1
M  END
>  <UniqueID>  (5) 
5

>  <SMILES>  (5) 
CNC(=O)Cc1ccc2cc(C([NH-])=O)n(C(=O)N(CC(=O)[O-])CC(=O)[O-])c2c1

>  <Energy>  (5) 
75.36840479687594

>  <Genealogy>  (5) 
CNC(=O)Cc1ccc2cc(C([NH-])=O)n(C(=O)N(CC(=O)[O-])CC(=O)[O-])c2c1 (protonated)
CNC(=O)Cc1ccc2cc(C([NH-])=O)n(C(=O)N(CC(=O)[O-])CC(=O)[O-])c2c1 (3D coordinates assigned)
CNC(=O)Cc1ccc2cc(C([NH-])=O)n(C(=O)N(CC(=O)[O-])CC(=O)[O-])c2c1 (optimized conformer: 75.36840479687594 kcal/mol)

>  <smiles>  (5) 
CNC(=O)Cc1ccc2cc(C(N)=O)n(C(=O)N(CC(=O)O)CC(=O)O)c2c1

>  <score_type>  (5) 
oracle

>  <origin>  (5) 
adg

>  <m_score__min__energy>  (5) 
-12.5

>  <m_primary>  (5) 
energy

$$$$
6:0
     RDKit          3D

 35 36  0  0  0  0  0  0  0  0999 V2000
   -8.1190   19.1800  -33.0410 N   0  0  0  0  0  0  0  0  0  0  0  0
   -8.6840   20.3980  -32.5510 C   0  0  0  0  0  0  0  0  0  0  0  0
   -9.9230   20.5870  -32.6650 O   0  0  0  0  0  0  0  0  0  0  0  0
   -7.8360   21.4110  -31.8860 C   0  0  0  0  0  0  0  0  0  0  0  0
   -8.3390   22.5010  -31.1750 C   0  0  0  0  0  0  0  0  0  0  0  0
   -7.2350   23.2360  -30.8070 C   0  0  0  0  0  0  0  0  0  0  0  0
   -7.1520   24.4140  -30.0740 C   0  0  0  0  0  0  0  0  0  0  0  0
   -5.8750   24.9430  -29.8170 C   0  0  0  0  0  0  0  0  0  0  0  0
   -4.7070   24.2830  -30.2890 C   0  0  0  0  0  0  0  0  0  0  0  0
   -3.3900   24.8000  -30.0240 N   0  0  0  0  0  0  0  0  0  0  0  0
   -2.4590   24.1800  -29.0780 C   0  0  0  0  0  0  0  0  0  0  0  0
   -1.2150   24.9990  -28.9470 C   0  0  0  0  0  0  0  0  0  0  0  0
   -0.1640   24.4860  -28.4810 O   0  0  0  0  0  0  0  0  0  0  0  0
   -1.2290   26.3450  -29.2910 O   0  0  0  0  0  0  0  0  0  0  0  0
   -4.8380   23.0880  -31.0310 C   0  0  0  0  0  0  0  0  0  0  0  0
   -6.1240   22.5950  -31.2880 C   0  0  0  0  0  0  0  0  0  0  0  0
   -6.4760   21.4720  -31.9540 N   0  0  0  0  0  0  0  0  0  0  0  0
   -5.5870   20.5060  -32.5360 C   0  0  0  0  0  0  0  0  0  0  0  0
   -4.7290   20.8700  -33.3870 O   0  0  0  0  0  0  0  0  0  0  0  0
   -5.6690   19.1630  -32.1470 O   0  0  0  0  0  0  0  0  0  0  0  0
   -4.9860   18.1090  -32.8210 C   0  0  0  0  0  0  0  0  0  0  0  0
   -5.7920   17.6260  -33.9850 C   0  0  0  0  0  0  0  0  0  0  0  0
   -6.9170   17.0920  -33.7990 O   0  0  0  0  0  0  0  0  0  0  0  0
   -5.3050   17.7730  -35.2760 O   0  0  0  0  0  0  0  0  0  0  0  0
   -7.0890   19.0090  -33.0120 H   0  0  0  0  0  0  0  0  0  0  0  0
   -8.7320   18.4550  -33.4760 H   0  0  0  0  0  0  0  0  0  0  0  0
   -9.3933   22.7252  -30.9553 H   0  0  0  0  0  0  0  0  0  0  0  0
   -8.0582   24.9173  -29.7060 H   0  0  0  0  0  0  0  0  0  0  0  0
   -5.7782   25.8774  -29.2447 H   0  0  0  0  0  0  0  0  0  0  0  0
   -3.0870   25.6620  -30.5360 H   0  0  0  0  0  0  0  0  0  0  0  0
   -2.9440   24.1001  -28.0939 H   0  0  0  0  0  0  0  0  0  0  0  0
   -2.1874   23.1818  -29.4519 H   0  0  0  0  0  0  0  0  0  0  0  0
   -3.9487   22.5556  -31.3994 H   0  0  0  0  0  0  0  0  0  0  0  0
   -4.0146   18.4786  -33.1812 H   0  0  0  0  0  0  0  0  0  0  0  0
   -4.8365   17.2748  -32.1197 H   0  0  0  0  0  0  0  0  0  0  0  0
  1  2  1  0
  2  3  2  0
  2  4  1  0
  4  5  2  0
  5  6  1  0
  6  7  2  0
  7  8  1  0
  8  9  2  0
  9 10  1  0
 10 11  1  0
 11 12  1  0
 12 13  2  0
 12 14  1  0
  9 15  1  0
 15 16  2  0
 16 17  1  0
 17 18  1  0
 18 19  2  0
 18 20  1  0
 20 21  1  0
 21 22  1  0
 22 23  2  0
 22 24  1  0
 17  4  1  0
 16  6  1  0
  1 25  1  0
  1 26  1  0
  5 27  1  0
  7 28  1  0
  8 29  1  0
 10 30  1  0
 11 31  1  0
 11 32  1  0
 15 33  1  0
 21 34  1  0
 21 35  1  0
M  CHG  2  14  -1  24  -1
M  END
>  <UniqueID>  (6) 
6

>  <SMILES>  (6) 
NC(=O)c1cc2ccc(NCC(=O)[O-])cc2n1C(=O)OCC(=O)[O-]

>  <Energy>  (6) 
70.55489992950287

>  <Genealogy>  (6) 
NC(=O)c1cc2ccc(NCC(=O)[O-])cc2n1C(=O)OCC(=O)[O-] (protonated)
NC(=O)c1cc2ccc(NCC(=O)[O-])cc2n1C(=O)OCC(=O)[O-] (3D coordinates assigned)
NC(=O)c1cc2ccc(NCC(=O)[O-])cc2n1C(=O)OCC(=O)[O-] (optimized conformer: 70.55489992950287 kcal/mol)

>  <smiles>  (6) 
NC(=O)c1cc2ccc(NCC(=O)O)cc2n1C(=O)OCC(=O)O

>  <score_type>  (6) 
oracle

>  <origin>  (6) 
adg

>  <m_score__min__energy>  (6) 
-9.5899999999999999

>  <m_primary>  (6) 
energy

$$$$
7:0
     RDKit          3D

 48 51  0  0  0  0  0  0  0  0999 V2000
   -7.6860   18.6720  -32.3780 C   0  0  0  0  0  0  0  0  0  0  0  0
   -7.6310   20.1420  -32.0810 C   0  0  0  0  0  0  0  0  0  0  0  0
   -8.8190   20.9140  -32.0710 C   0  0  0  0  0  0  0  0  0  0  0  0
   -8.7780   22.2870  -31.7710 C   0  0  0  0  0  0  0  0  0  0  0  0
   -7.5420   22.8530  -31.4760 C   0  0  0  0  0  0  0  0  0  0  0  0
   -7.2100   24.1530  -31.1620 C   0  0  0  0  0  0  0  0  0  0  0  0
   -5.8290   24.1430  -30.9600 C   0  0  0  0  0  0  0  0  0  0  0  0
   -5.0570   25.3190  -30.5090 C   0  0  0  0  0  0  0  0  0  0  0  0
   -3.6320   25.2640  -30.4710 N   0  0  0  0  0  0  0  0  0  0  0  0
   -5.6420   26.3880  -30.1900 O   0  0  0  0  0  0  0  0  0  0  0  0
   -5.3300   22.8900  -31.1490 N   0  0  0  0  0  0  0  0  0  0  0  0
   -3.9620   22.4630  -31.0830 C   0  0  0  0  0  0  0  0  0  0  0  0
   -3.1870   22.6910  -32.0500 O   0  0  0  0  0  0  0  0  0  0  0  0
   -3.4250   21.8160  -29.8410 C   0  0  0  0  0  0  0  0  0  0  0  0
   -2.6380   22.7790  -29.0740 N   0  0  0  0  0  0  0  0  0  0  0  0
   -2.2530   22.5380  -27.7110 C   0  0  0  0  0  0  0  0  0  0  0  0
   -2.3850   21.3830  -27.2210 O   0  0  0  0  0  0  0  0  0  0  0  0
   -1.7300   23.5970  -26.8900 N   0  0  0  0  0  0  0  0  0  0  0  0
   -0.3380   23.7150  -26.4970 C   0  0  2  0  0  0  0  0  0  0  0  0
   -0.4130   24.6180  -25.2580 C   0  0  0  0  0  0  0  0  0  0  0  0
   -1.6750   25.4610  -25.4870 C   0  0  0  0  0  0  0  0  0  0  0  0
   -2.2210   24.9610  -26.8310 C   0  0  1  0  0  0  0  0  0  0  0  0
   -1.5570   25.7330  -28.0130 C   0  0  0  0  0  0  0  0  0  0  0  0
   -0.4990   24.9940  -28.6210 O   0  0  0  0  0  0  0  0  0  0  0  0
    0.4010   24.4400  -27.6620 C   0  0  0  0  0  0  0  0  0  0  0  0
   -6.3890   22.1110  -31.4590 C   0  0  0  0  0  0  0  0  0  0  0  0
   -6.3970   20.7470  -31.7610 C   0  0  0  0  0  0  0  0  0  0  0  0
   -7.7071   18.1077  -31.4340 H   0  0  0  0  0  0  0  0  0  0  0  0
   -8.5931   18.4490  -32.9589 H   0  0  0  0  0  0  0  0  0  0  0  0
   -6.7981   18.3818  -32.9589 H   0  0  0  0  0  0  0  0  0  0  0  0
   -9.7823   20.4348  -32.3000 H   0  0  0  0  0  0  0  0  0  0  0  0
   -9.6949   22.8948  -31.7696 H   0  0  0  0  0  0  0  0  0  0  0  0
   -7.8889   25.0152  -31.0866 H   0  0  0  0  0  0  0  0  0  0  0  0
   -3.0970   24.7120  -31.1800 H   0  0  0  0  0  0  0  0  0  0  0  0
   -4.2635   21.4585  -29.2252 H   0  0  0  0  0  0  0  0  0  0  0  0
   -2.7820   20.9698  -30.1247 H   0  0  0  0  0  0  0  0  0  0  0  0
   -2.3570   23.6660  -29.5480 H   0  0  0  0  0  0  0  0  0  0  0  0
    0.1822   22.7678  -26.2913 H   0  0  0  0  0  0  0  0  0  0  0  0
   -0.5056   24.0169  -24.3414 H   0  0  0  0  0  0  0  0  0  0  0  0
    0.4891   25.2339  -25.1285 H   0  0  0  0  0  0  0  0  0  0  0  0
   -2.4065   25.2952  -24.6824 H   0  0  0  0  0  0  0  0  0  0  0  0
   -1.4659   26.5409  -25.4920 H   0  0  0  0  0  0  0  0  0  0  0  0
   -3.3122   25.0774  -26.9066 H   0  0  0  0  0  0  0  0  0  0  0  0
   -2.3240   25.9419  -28.7733 H   0  0  0  0  0  0  0  0  0  0  0  0
   -1.1272   26.6608  -27.6074 H   0  0  0  0  0  0  0  0  0  0  0  0
    1.0549   23.7156  -28.1696 H   0  0  0  0  0  0  0  0  0  0  0  0
    0.9769   25.2699  -27.2265 H   0  0  0  0  0  0  0  0  0  0  0  0
   -5.4665   20.1605  -31.7496 H   0  0  0  0  0  0  0  0  0  0  0  0
  1  2  1  0
  2  3  2  0
  3  4  1  0
  4  5  2  0
  5  6  1  0
  6  7  2  0
  7  8  1  0
  8  9  1  0
  8 10  2  0
  7 11  1  0
 11 12  1  0
 12 13  2  0
 12 14  1  0
 14 15  1  0
 15 16  1  0
 16 17  2  0
 16 18  1  0
 18 19  1  0
 19 20  1  0
 20 21  1  0
 21 22  1  0
 22 23  1  0
 23 24  1  0
 24 25  1  0
 11 26  1  0
 26 27  2  0
 27  2  1  0
 26  5  1  0
 22 18  1  0
 25 19  1  0
  1 28  1  0
  1 29  1  0
  1 30  1  0
  3 31  1  0
  4 32  1  0
  6 33  1  0
  9 34  1  0
 14 35  1  0
 14 36  1  0
 15 37  1  0
 19 38  1  1
 20 39  1  0
 20 40  1  0
 21 41  1  0
 21 42  1  0
 22 43  1  1
 23 44  1  0
 23 45  1  0
 25 46  1  0
 25 47  1  0
 27 48  1  0
M  CHG  1   9  -1
M  END
>  <UniqueID>  (7) 
7

>  <SMILES>  (7) 
Cc1ccc2cc(C([NH-])=O)n(C(=O)CNC(=O)N3[C@@H]4CC[C@H]3COC4)c2c1

>  <Energy>  (7) 
114.62957309551092

>  <Genealogy>  (7) 
Cc1ccc2cc(C([NH-])=O)n(C(=O)CNC(=O)N3C4CCC3COC4)c2c1 (protonated)
Cc1ccc2cc(C([NH-])=O)n(C(=O)CNC(=O)N3[C@@H]4CC[C@H]3COC4)c2c1 (chirality)
Cc1ccc2cc(C([NH-])=O)n(C(=O)CNC(=O)N3[C@@H]4CC[C@H]3COC4)c2c1 (3D coordinates assigned)
Cc1ccc2cc(C([NH-])=O)n(C(=O)CNC(=O)N3[C@@H]4CC[C@H]3COC4)c2c1 (nonaromatic ring conformer: 114.62957309551092 kcal/mol)

>  <smiles>  (7) 
Cc1ccc2cc(C(N)=O)n(C(=O)CNC(=O)N3C4CCC3COC4)c2c1

>  <score_type>  (7) 
oracle

>  <origin>  (7) 
adg

>  <m_score__min__energy>  (7) 
-11.539999999999999

>  <m_primary>  (7) 
energy

$$$$
8:0
     RDKit          3D

 40 42  0  0  0  0  0  0  0  0999 V2000
   -4.1450   25.3950  -30.8460 N   0  0  0  0  0  0  0  0  0  0  0  0
   -5.1680   24.8390  -30.0240 C   0  0  0  0  0  0  0  0  0  0  0  0
   -5.3560   25.3050  -28.8700 O   0  0  0  0  0  0  0  0  0  0  0  0
   -5.9790   23.7070  -30.5220 C   0  0  0  0  0  0  0  0  0  0  0  0
   -7.3130   23.8220  -30.9100 C   0  0  0  0  0  0  0  0  0  0  0  0
   -7.6630   22.5780  -31.3860 C   0  0  0  0  0  0  0  0  0  0  0  0
   -8.8700   22.1230  -31.9100 C   0  0  0  0  0  0  0  0  0  0  0  0
   -8.9440   20.7820  -32.3230 C   0  0  0  0  0  0  0  0  0  0  0  0
   -7.8240   19.9220  -32.1900 C   0  0  0  0  0  0  0  0  0  0  0  0
   -7.9040   18.5010  -32.6700 C   0  0  0  0  0  0  0  0  0  0  0  0
   -6.6380   18.1150  -33.2840 N   0  0  0  0  0  0  0  0  0  0  0  0
   -5.7480   17.2300  -32.8070 C   0  0  0  0  0  0  0  0  0  0  0  0
   -4.6540   17.1730  -33.5910 N   0  0  0  0  0  0  0  0  0  0  0  0
   -4.9390   18.0760  -34.5550 C   0  0  0  0  0  0  0  0  0  0  0  0
   -6.1390   18.6620  -34.3760 N   0  0  0  0  0  0  0  0  0  0  0  0
   -6.6120   20.4230  -31.6660 C   0  0  0  0  0  0  0  0  0  0  0  0
   -6.5660   21.7650  -31.2750 C   0  0  0  0  0  0  0  0  0  0  0  0
   -5.5270   22.4410  -30.7410 N   0  0  0  0  0  0  0  0  0  0  0  0
   -4.2310   21.8980  -30.4480 C   0  0  0  0  0  0  0  0  0  0  0  0
   -3.9840   20.6930  -30.7230 O   0  0  0  0  0  0  0  0  0  0  0  0
   -3.2020   22.7140  -29.7890 C   0  0  0  0  0  0  0  0  0  0  0  0
   -2.3180   23.2900  -30.4800 O   0  0  0  0  0  0  0  0  0  0  0  0
   -3.2190   22.8490  -28.3960 O   0  0  0  0  0  0  0  0  0  0  0  0
   -2.0980   23.2980  -27.6370 C   0  0  0  0  0  0  0  0  0  0  0  0
   -2.0400   24.8260  -27.6150 C   0  0  0  0  0  0  0  0  0  0  0  0
   -2.3640   25.3420  -28.8770 O   0  0  0  0  0  0  0  0  0  0  0  0
   -3.1370   25.2980  -30.5870 H   0  0  0  0  0  0  0  0  0  0  0  0
   -7.9506   24.7163  -30.8489 H   0  0  0  0  0  0  0  0  0  0  0  0
   -9.7385   22.7924  -31.9979 H   0  0  0  0  0  0  0  0  0  0  0  0
   -9.8795   20.3955  -32.7536 H   0  0  0  0  0  0  0  0  0  0  0  0
   -8.1132   17.8386  -31.8171 H   0  0  0  0  0  0  0  0  0  0  0  0
   -8.7100   18.4135  -33.4135 H   0  0  0  0  0  0  0  0  0  0  0  0
   -5.8931   16.6306  -31.8962 H   0  0  0  0  0  0  0  0  0  0  0  0
   -4.2656   18.3072  -35.3935 H   0  0  0  0  0  0  0  0  0  0  0  0
   -5.7283   19.7754  -31.5681 H   0  0  0  0  0  0  0  0  0  0  0  0
   -2.1866   22.9247  -26.6061 H   0  0  0  0  0  0  0  0  0  0  0  0
   -1.1780   22.9149  -28.1027 H   0  0  0  0  0  0  0  0  0  0  0  0
   -2.7570   25.2059  -26.8723 H   0  0  0  0  0  0  0  0  0  0  0  0
   -1.0204   25.1422  -27.3495 H   0  0  0  0  0  0  0  0  0  0  0  0
   -3.1930   24.8780  -29.1690 H   0  0  0  0  0  0  0  0  0  0  0  0
  1  2  1  0
  2  3  2  0
  2  4  1  0
  4  5  2  0
  5  6  1  0
  6  7  2  0
  7  8  1  0
  8  9  2  0
  9 10  1  0
 10 11  1  0
 11 12  1  0
 12 13  2  0
 13 14  1  0
 14 15  2  0
  9 16  1  0
 16 17  2  0
 17 18  1  0
 18 19  1  0
 19 20  2  0
 19 21  1  0
 21 22  2  0
 21 23  1  0
 23 24  1  0
 24 25  1  0
 25 26  1  0
 18  4  1  0
 17  6  1  0
 15 11  1  0
  1 27  1  0
  5 28  1  0
  7 29  1  0
  8 30  1  0
 10 31  1  0
 10 32  1  0
 12 33  1  0
 14 34  1  0
 16 35  1  0
 24 36  1  0
 24 37  1  0
 25 38  1  0
 25 39  1  0
 26 40  1  0
M  CHG  1   1  -1
M  END
>  <UniqueID>  (8) 
8

>  <SMILES>  (8) 
[NH-]C(=O)c1cc2ccc(Cn3cncn3)cc2n1C(=O)C(=O)OCCO

>  <Energy>  (8) 
108.45020732629509

>  <Genealogy>  (8) 
[NH-]C(=O)c1cc2ccc(Cn3cncn3)cc2n1C(=O)C(=O)OCCO (protonated)
[NH-]C(=O)c1cc2ccc(Cn3cncn3)cc2n1C(=O)C(=O)OCCO (3D coordinates assigned)
[NH-]C(=O)c1cc2ccc(Cn3cncn3)cc2n1C(=O)C(=O)OCCO (optimized conformer: 108.45020732629509 kcal/mol)

>  <smiles>  (8) 
NC(=O)c1cc2ccc(Cn3cncn3)cc2n1C(=O)C(=O)OCCO

>  <score_type>  (8) 
oracle

>  <origin>  (8) 
adg

>  <m_score__min__energy>  (8) 
-10.859999999999999

>  <m_primary>  (8) 
energy

$$$$
9:0
     RDKit          3D

 50 51  0  0  0  0  0  0  0  0999 V2000
   -3.1510   17.7650  -34.5180 C   0  0  0  0  0  0  0  0  0  0  0  0
   -4.5440   17.4430  -35.0480 C   0  0  0  0  0  0  0  0  0  0  0  0
   -5.6010   17.9510  -34.1070 C   0  0  0  0  0  0  0  0  0  0  0  0
   -6.6140   17.0780  -33.6370 C   0  0  0  0  0  0  0  0  0  0  0  0
   -7.5820   17.5310  -32.7250 C   0  0  0  0  0  0  0  0  0  0  0  0
   -7.5090   18.8530  -32.2990 C   0  0  0  0  0  0  0  0  0  0  0  0
   -8.2960   19.5410  -31.4030 C   0  0  0  0  0  0  0  0  0  0  0  0
   -7.7580   20.8250  -31.3490 C   0  0  0  0  0  0  0  0  0  0  0  0
   -8.3400   21.9160  -30.5370 C   0  0  0  0  0  0  0  0  0  0  0  0
   -7.5810   23.0760  -30.1890 N   0  0  0  0  0  0  0  0  0  0  0  0
   -9.5450   21.8420  -30.1780 O   0  0  0  0  0  0  0  0  0  0  0  0
   -6.6690   20.9220  -32.1640 N   0  0  0  0  0  0  0  0  0  0  0  0
   -5.7820   22.0400  -32.3330 C   0  0  0  0  0  0  0  0  0  0  0  0
   -6.2530   23.1370  -32.7340 O   0  0  0  0  0  0  0  0  0  0  0  0
   -4.3330   21.8970  -32.0560 C   0  0  0  0  0  0  0  0  0  0  0  0
   -3.5910   21.4610  -32.9760 O   0  0  0  0  0  0  0  0  0  0  0  0
   -3.7500   22.2130  -30.7710 N   0  0  0  0  0  0  0  0  0  0  0  0
   -4.4350   23.1680  -29.8830 C   0  0  0  0  0  0  0  0  0  0  0  0
   -4.4850   24.5270  -30.5030 C   0  0  0  0  0  0  0  0  0  0  0  0
   -3.4850   25.2900  -30.4400 O   0  0  0  0  0  0  0  0  0  0  0  0
   -5.6530   24.9720  -31.1130 O   0  0  0  0  0  0  0  0  0  0  0  0
   -2.6050   21.4530  -30.2440 C   0  0  0  0  0  0  0  0  0  0  0  0
   -1.3520   22.2750  -30.2420 C   0  0  0  0  0  0  0  0  0  0  0  0
   -0.3010   21.8010  -30.7550 O   0  0  0  0  0  0  0  0  0  0  0  0
   -1.3590   23.5680  -29.7090 O   0  0  0  0  0  0  0  0  0  0  0  0
   -1.3200   23.8230  -28.3090 C   0  0  0  0  0  0  0  0  0  0  0  0
   -1.2580   25.3250  -28.0650 C   0  0  0  0  0  0  0  0  0  0  0  0
   -1.2300   26.0050  -29.2890 O   0  0  0  0  0  0  0  0  0  0  0  0
   -6.5360   19.7110  -32.7450 C   0  0  0  0  0  0  0  0  0  0  0  0
   -5.5510   19.2840  -33.6430 C   0  0  0  0  0  0  0  0  0  0  0  0
   -3.1672   17.7612  -33.4181 H   0  0  0  0  0  0  0  0  0  0  0  0
   -2.4381   17.0080  -34.8768 H   0  0  0  0  0  0  0  0  0  0  0  0
   -2.8427   18.7581  -34.8768 H   0  0  0  0  0  0  0  0  0  0  0  0
   -4.6757   17.9199  -36.0305 H   0  0  0  0  0  0  0  0  0  0  0  0
   -4.6449   16.3513  -35.1372 H   0  0  0  0  0  0  0  0  0  0  0  0
   -6.6425   16.0364  -33.9895 H   0  0  0  0  0  0  0  0  0  0  0  0
   -8.3735   16.8605  -32.3590 H   0  0  0  0  0  0  0  0  0  0  0  0
   -9.1650   19.1582  -30.8477 H   0  0  0  0  0  0  0  0  0  0  0  0
   -6.6460   23.2570  -30.6120 H   0  0  0  0  0  0  0  0  0  0  0  0
   -7.9930   23.8020  -29.5630 H   0  0  0  0  0  0  0  0  0  0  0  0
   -5.4613   22.8174  -29.6994 H   0  0  0  0  0  0  0  0  0  0  0  0
   -3.8774   23.2323  -28.9370 H   0  0  0  0  0  0  0  0  0  0  0  0
   -2.8282   21.1397  -29.2134 H   0  0  0  0  0  0  0  0  0  0  0  0
   -2.4430   20.5800  -30.8933 H   0  0  0  0  0  0  0  0  0  0  0  0
   -2.2246   23.4124  -27.8367 H   0  0  0  0  0  0  0  0  0  0  0  0
   -0.4291   23.3453  -27.8753 H   0  0  0  0  0  0  0  0  0  0  0  0
   -2.1439   25.6387  -27.4934 H   0  0  0  0  0  0  0  0  0  0  0  0
   -0.3464   25.5628  -27.4972 H   0  0  0  0  0  0  0  0  0  0  0  0
   -1.3510   25.3140  -29.9910 H   0  0  0  0  0  0  0  0  0  0  0  0
   -4.7584   19.9689  -33.9787 H   0  0  0  0  0  0  0  0  0  0  0  0
  1  2  1  0
  2  3  1  0
  3  4  2  0
  4  5  1  0
  5  6  2  0
  6  7  1  0
  7  8  2  0
  8  9  1  0
  9 10  1  0
  9 11  2  0
  8 12  1  0
 12 13  1  0
 13 14  2  0
 13 15  1  0
 15 16  2  0
 15 17  1  0
 17 18  1  0
 18 19  1  0
 19 20  2  0
 19 21  1  0
 17 22  1  0
 22 23  1  0
 23 24  2  0
 23 25  1  0
 25 26  1  0
 26 27  1  0
 27 28  1  0
 12 29  1  0
 29 30  2  0
 30  3  1  0
 29  6  1  0
  1 31  1  0
  1 32  1  0
  1 33  1  0
  2 34  1  0
  2 35  1  0
  4 36  1  0
  5 37  1  0
  7 38  1  0
 10 39  1  0
 10 40  1  0
 18 41  1  0
 18 42  1  0
 22 43  1  0
 22 44  1  0
 26 45  1  0
 26 46  1  0
 27 47  1  0
 27 48  1  0
 28 49  1  0
 30 50  1  0
M  CHG  1  21  -1
M  END
>  <UniqueID>  (9) 
9

>  <SMILES>  (9) 
CCc1ccc2cc(C(N)=O)n(C(=O)C(=O)N(CC(=O)[O-])CC(=O)OCCO)c2c1

>  <Energy>  (9) 
81.82690127055913

>  <Genealogy>  (9) 
CCc1ccc2cc(C(N)=O)n(C(=O)C(=O)N(CC(=O)[O-])CC(=O)OCCO)c2c1 (protonated)
CCc1ccc2cc(C(N)=O)n(C(=O)C(=O)N(CC(=O)[O-])CC(=O)OCCO)c2c1 (3D coordinates assigned)
CCc1ccc2cc(C(N)=O)n(C(=O)C(=O)N(CC(=O)[O-])CC(=O)OCCO)c2c1 (optimized conformer: 81.82690127055913 kcal/mol)

>  <smiles>  (9) 
CCc1ccc2cc(C(N)=O)n(C(=O)C(=O)N(CC(=O)O)CC(=O)OCCO)c2c1

>  <score_type>  (9) 
oracle

>  <origin>  (9) 
adg

>  <m_score__min__energy>  (9) 
-10.699999999999999

>  <m_primary>  (9) 
energy

$$$$
10:0
     RDKit          3D

 40 41  0  0  0  0  0  0  0  0999 V2000
   -0.4360   26.2910  -27.3820 C   0  0  0  0  0  0  0  0  0  0  0  0
   -0.2770   24.8430  -27.8530 C   0  0  0  0  0  0  0  0  0  0  0  0
   -1.5290   24.2230  -28.5130 C   0  0  1  0  0  0  0  0  0  0  0  0
   -2.2880   25.2260  -29.2680 N   0  0  0  0  0  0  0  0  0  0  0  0
   -1.2350   22.9580  -29.3510 C   0  0  0  0  0  0  0  0  0  0  0  0
   -2.3110   22.6740  -30.2910 N   0  0  0  0  0  0  0  0  0  0  0  0
   -3.4960   21.9600  -29.9310 C   0  0  0  0  0  0  0  0  0  0  0  0
   -3.4720   21.1470  -28.9680 O   0  0  0  0  0  0  0  0  0  0  0  0
   -4.7080   22.1640  -30.6750 N   0  0  0  0  0  0  0  0  0  0  0  0
   -5.3530   23.3450  -30.8940 C   0  0  0  0  0  0  0  0  0  0  0  0
   -5.0340   24.6370  -30.2550 C   0  0  0  0  0  0  0  0  0  0  0  0
   -5.6460   25.0230  -29.0230 N   0  0  0  0  0  0  0  0  0  0  0  0
   -4.2510   25.4370  -30.8320 O   0  0  0  0  0  0  0  0  0  0  0  0
   -6.4140   23.1700  -31.7790 C   0  0  0  0  0  0  0  0  0  0  0  0
   -6.4090   21.8300  -32.0900 C   0  0  0  0  0  0  0  0  0  0  0  0
   -7.2470   21.1050  -32.9320 C   0  0  0  0  0  0  0  0  0  0  0  0
   -6.9920   19.7330  -33.0930 C   0  0  0  0  0  0  0  0  0  0  0  0
   -5.8960   19.1160  -32.4370 C   0  0  0  0  0  0  0  0  0  0  0  0
   -5.6550   17.6360  -32.5900 C   0  0  0  0  0  0  0  0  0  0  0  0
   -5.8930   16.9760  -31.3960 F   0  0  0  0  0  0  0  0  0  0  0  0
   -4.3420   17.4250  -32.9660 F   0  0  0  0  0  0  0  0  0  0  0  0
   -6.4920   17.1010  -33.5530 F   0  0  0  0  0  0  0  0  0  0  0  0
   -5.0800   19.8830  -31.5720 C   0  0  0  0  0  0  0  0  0  0  0  0
   -5.3690   21.2440  -31.4140 C   0  0  0  0  0  0  0  0  0  0  0  0
   -0.4393   26.3206  -26.2824 H   0  0  0  0  0  0  0  0  0  0  0  0
    0.4013   26.8944  -27.7626 H   0  0  0  0  0  0  0  0  0  0  0  0
   -1.3843   26.6983  -27.7626 H   0  0  0  0  0  0  0  0  0  0  0  0
    0.5438   24.8116  -28.5846 H   0  0  0  0  0  0  0  0  0  0  0  0
   -0.0834   24.2480  -26.9483 H   0  0  0  0  0  0  0  0  0  0  0  0
   -2.1637   23.8728  -27.6857 H   0  0  0  0  0  0  0  0  0  0  0  0
   -2.4140   24.9190  -30.2590 H   0  0  0  0  0  0  0  0  0  0  0  0
   -3.2430   25.3050  -28.8490 H   0  0  0  0  0  0  0  0  0  0  0  0
   -0.3017   23.1111  -29.9127 H   0  0  0  0  0  0  0  0  0  0  0  0
   -1.1449   22.1039  -28.6637 H   0  0  0  0  0  0  0  0  0  0  0  0
   -5.3790   25.9230  -28.5650 H   0  0  0  0  0  0  0  0  0  0  0  0
   -6.4120   24.4540  -28.6000 H   0  0  0  0  0  0  0  0  0  0  0  0
   -7.1077   23.9389  -32.1500 H   0  0  0  0  0  0  0  0  0  0  0  0
   -8.0834   21.5914  -33.4554 H   0  0  0  0  0  0  0  0  0  0  0  0
   -7.6502   19.1298  -33.7356 H   0  0  0  0  0  0  0  0  0  0  0  0
   -4.2380   19.4207  -31.0360 H   0  0  0  0  0  0  0  0  0  0  0  0
  1  2  1  0
  2  3  1  0
  3  4  1  0
  3  5  1  0
  5  6  1  0
  6  7  1  0
  7  8  2  0
  7  9  1  0
  9 10  1  0
 10 11  1  0
 11 12  1  0
 11 13  2  0
 10 14  2  0
 14 15  1  0
 15 16  2  0
 16 17  1  0
 17 18  2  0
 18 19  1  0
 19 20  1  0
 19 21  1  0
 19 22  1  0
 18 23  1  0
 23 24  2  0
 24  9  1  0
 24 15  1  0
  1 25  1  0
  1 26  1  0
  1 27  1  0
  2 28  1  0
  2 29  1  0
  3 30  1  1
  4 31  1  0
  4 32  1  0
  5 33  1  0
  5 34  1  0
 12 35  1  0
 12 36  1  0
 14 37  1  0
 16 38  1  0
 17 39  1  0
 23 40  1  0
M  CHG  1   6  -1
M  END
>  <UniqueID>  (10) 
10

>  <SMILES>  (10) 
CC[C@@H](N)C[N-]C(=O)n1c(C(N)=O)cc2ccc(C(F)(F)F)cc21

>  <Energy>  (10) 
74.35286676442723

>  <Genealogy>  (10) 
CC[C@@H](N)C[N-]C(=O)n1c(C(N)=O)cc2ccc(C(F)(F)F)cc21 (protonated)
CC[C@@H](N)C[N-]C(=O)n1c(C(N)=O)cc2ccc(C(F)(F)F)cc21 (3D coordinates assigned)
CC[C@@H](N)C[N-]C(=O)n1c(C(N)=O)cc2ccc(C(F)(F)F)cc21 (optimized conformer: 74.35286676442723 kcal/mol)

>  <smiles>  (10) 
CC[C@@H](N)CNC(=O)n1c(C(N)=O)cc2ccc(C(F)(F)F)cc21

>  <score_type>  (10) 
oracle

>  <origin>  (10) 
adg

>  <m_score__min__energy>  (10) 
-8.9900000000000002

>  <m_primary>  (10) 
energy

$$$$
11:0
     RDKit          3D

 41 42  0  0  0  0  0  0  0  0999 V2000
    1.0070   23.6880  -27.5290 C   0  0  0  0  0  0  0  0  0  0  0  0
    0.5800   24.0670  -28.8130 O   0  0  0  0  0  0  0  0  0  0  0  0
   -1.1260   24.1460  -28.8220 P   0  0  1  0  0  0  0  0  0  0  0  0
   -1.6680   23.9290  -27.4260 O   0  0  0  0  0  0  0  0  0  0  0  0
   -1.5860   25.6860  -29.3490 O   0  0  0  0  0  0  0  0  0  0  0  0
   -1.8310   22.9150  -29.9660 C   0  0  0  0  0  0  0  0  0  0  0  0
   -2.9260   23.4780  -30.6840 O   0  0  0  0  0  0  0  0  0  0  0  0
   -3.6990   22.7580  -31.6010 C   0  0  0  0  0  0  0  0  0  0  0  0
   -3.1450   22.0240  -32.4660 O   0  0  0  0  0  0  0  0  0  0  0  0
   -5.1310   22.8370  -31.5420 N   0  0  0  0  0  0  0  0  0  0  0  0
   -5.8890   23.7840  -30.9210 C   0  0  0  0  0  0  0  0  0  0  0  0
   -5.3860   25.0280  -30.3010 C   0  0  0  0  0  0  0  0  0  0  0  0
   -4.2310   25.6700  -30.8370 N   0  0  0  0  0  0  0  0  0  0  0  0
   -5.9420   25.5100  -29.2800 O   0  0  0  0  0  0  0  0  0  0  0  0
   -7.2430   23.4630  -31.0130 C   0  0  0  0  0  0  0  0  0  0  0  0
   -7.2900   22.2830  -31.7180 C   0  0  0  0  0  0  0  0  0  0  0  0
   -8.3830   21.4990  -32.0790 C   0  0  0  0  0  0  0  0  0  0  0  0
   -8.1350   20.3040  -32.7740 C   0  0  0  0  0  0  0  0  0  0  0  0
   -6.8090   19.9150  -33.0970 C   0  0  0  0  0  0  0  0  0  0  0  0
   -6.5650   18.6640  -33.7720 N   0  0  0  0  0  0  0  0  0  0  0  0
   -5.1240   18.3780  -33.7920 C   0  0  0  0  0  0  0  0  0  0  0  0
   -4.8670   16.8770  -33.9140 C   0  0  0  0  0  0  0  0  0  0  0  0
   -6.0720   16.2020  -33.9790 F   0  0  0  0  0  0  0  0  0  0  0  0
   -5.7260   20.7330  -32.7030 C   0  0  0  0  0  0  0  0  0  0  0  0
   -6.0030   21.9260  -32.0270 C   0  0  0  0  0  0  0  0  0  0  0  0
    0.4097   24.2182  -26.7726 H   0  0  0  0  0  0  0  0  0  0  0  0
    0.8766   22.6029  -27.4046 H   0  0  0  0  0  0  0  0  0  0  0  0
    2.0690   23.9463  -27.4046 H   0  0  0  0  0  0  0  0  0  0  0  0
   -1.0559   22.5955  -30.6781 H   0  0  0  0  0  0  0  0  0  0  0  0
   -2.1890   22.0513  -29.3865 H   0  0  0  0  0  0  0  0  0  0  0  0
   -3.2720   25.3150  -30.6260 H   0  0  0  0  0  0  0  0  0  0  0  0
   -8.0926   24.0324  -30.6079 H   0  0  0  0  0  0  0  0  0  0  0  0
   -9.4089   21.8062  -31.8276 H   0  0  0  0  0  0  0  0  0  0  0  0
   -8.9778   19.6626  -33.0712 H   0  0  0  0  0  0  0  0  0  0  0  0
   -6.9300   18.7160  -34.7520 H   0  0  0  0  0  0  0  0  0  0  0  0
   -7.0720   17.8920  -33.2780 H   0  0  0  0  0  0  0  0  0  0  0  0
   -4.6667   18.8925  -34.6501 H   0  0  0  0  0  0  0  0  0  0  0  0
   -4.6822   18.7344  -32.8498 H   0  0  0  0  0  0  0  0  0  0  0  0
   -4.2868   16.6783  -34.8272 H   0  0  0  0  0  0  0  0  0  0  0  0
   -4.3025   16.5313  -33.0354 H   0  0  0  0  0  0  0  0  0  0  0  0
   -4.6892   20.4384  -32.9228 H   0  0  0  0  0  0  0  0  0  0  0  0
  1  2  1  0
  2  3  1  0
  3  4  2  0
  3  5  1  6
  3  6  1  0
  6  7  1  0
  7  8  1  0
  8  9  2  0
  8 10  1  0
 10 11  1  0
 11 12  1  0
 12 13  1  0
 12 14  2  0
 11 15  2  0
 15 16  1  0
 16 17  2  0
 17 18  1  0
 18 19  2  0
 19 20  1  0
 20 21  1  0
 21 22  1  0
 22 23  1  0
 19 24  1  0
 24 25  2  0
 25 10  1  0
 25 16  1  0
  1 26  1  0
  1 27  1  0
  1 28  1  0
  6 29  1  0
  6 30  1  0
 13 31  1  0
 15 32  1  0
 17 33  1  0
 18 34  1  0
 20 35  1  0
 20 36  1  0
 21 37  1  0
 21 38  1  0
 22 39  1  0
 22 40  1  0
 24 41  1  0
M  CHG  3   5  -1  13  -1  20   1
M  END
>  <UniqueID>  (11) 
11

>  <SMILES>  (11) 
CO[P@@](=O)([O-])COC(=O)n1c(C([NH-])=O)cc2ccc([NH2+]CCF)cc21

>  <Energy>  (11) 
72.14884399700205

>  <Genealogy>  (11) 
COP(=O)([O-])COC(=O)n1c(C([NH-])=O)cc2ccc([NH2+]CCF)cc21 (protonated)
CO[P@@](=O)([O-])COC(=O)n1c(C([NH-])=O)cc2ccc([NH2+]CCF)cc21 (chirality)
CO[P@@](=O)([O-])COC(=O)n1c(C([NH-])=O)cc2ccc([NH2+]CCF)cc21 (3D coordinates assigned)
CO[P@@](=O)([O-])COC(=O)n1c(C([NH-])=O)cc2ccc([NH2+]CCF)cc21 (optimized conformer: 72.14884399700205 kcal/mol)

>  <smiles>  (11) 
COP(=O)(O)COC(=O)n1c(C(N)=O)cc2ccc(NCCF)cc21

>  <score_type>  (11) 
oracle

>  <origin>  (11) 
adg

>  <m_score__min__energy>  (11) 
-12.18

>  <m_primary>  (11) 
energy

$$$$
12:0
     RDKit          3D

 45 46  0  0  0  0  0  0  0  0999 V2000
   -5.3080   23.4310  -32.1740 C   0  0  0  0  0  0  0  0  0  0  0  0
   -4.7370   23.1540  -30.7760 C   0  0  2  0  0  0  0  0  0  0  0  0
   -3.7370   24.2060  -30.3660 C   0  0  0  0  0  0  0  0  0  0  0  0
   -3.9870   25.4310  -30.5470 O   0  0  0  0  0  0  0  0  0  0  0  0
   -2.4730   23.8000  -29.8240 N   0  0  0  0  0  0  0  0  0  0  0  0
   -2.1820   23.7530  -28.3900 C   0  0  0  0  0  0  0  0  0  0  0  0
   -1.1170   22.6800  -28.1270 C   0  0  0  0  0  0  0  0  0  0  0  0
   -0.2300   22.6110  -29.2140 O   0  0  0  0  0  0  0  0  0  0  0  0
   -1.7330   25.1380  -27.8810 C   0  0  0  0  0  0  0  0  0  0  0  0
   -1.5180   26.0310  -28.9430 O   0  0  0  0  0  0  0  0  0  0  0  0
   -4.1290   21.7730  -30.7360 C   0  0  0  0  0  0  0  0  0  0  0  0
   -3.5280   21.3660  -29.7030 O   0  0  0  0  0  0  0  0  0  0  0  0
   -4.1140   20.9630  -31.9230 N   0  0  0  0  0  0  0  0  0  0  0  0
   -3.0470   20.6540  -32.7110 C   0  0  0  0  0  0  0  0  0  0  0  0
   -1.7110   21.2810  -32.6400 C   0  0  0  0  0  0  0  0  0  0  0  0
   -1.2050   21.8110  -31.4130 N   0  0  0  0  0  0  0  0  0  0  0  0
   -1.0190   21.3830  -33.6890 O   0  0  0  0  0  0  0  0  0  0  0  0
   -3.3960   19.6720  -33.6400 C   0  0  0  0  0  0  0  0  0  0  0  0
   -4.7230   19.3920  -33.3960 C   0  0  0  0  0  0  0  0  0  0  0  0
   -5.5810   18.4910  -34.0180 C   0  0  0  0  0  0  0  0  0  0  0  0
   -6.8990   18.3970  -33.5370 C   0  0  0  0  0  0  0  0  0  0  0  0
   -7.3280   19.1820  -32.4340 C   0  0  0  0  0  0  0  0  0  0  0  0
   -8.7590   19.1180  -31.9590 C   0  0  0  0  0  0  0  0  0  0  0  0
   -9.6240   19.5020  -32.9700 F   0  0  0  0  0  0  0  0  0  0  0  0
   -9.0520   17.8180  -31.5880 F   0  0  0  0  0  0  0  0  0  0  0  0
   -8.9580   19.9560  -30.8740 F   0  0  0  0  0  0  0  0  0  0  0  0
   -6.4290   20.1010  -31.8420 C   0  0  0  0  0  0  0  0  0  0  0  0
   -5.1300   20.1830  -32.3530 C   0  0  0  0  0  0  0  0  0  0  0  0
   -6.2940   23.9093  -32.0792 H   0  0  0  0  0  0  0  0  0  0  0  0
   -4.6275   24.0991  -32.7222 H   0  0  0  0  0  0  0  0  0  0  0  0
   -5.4116   22.4830  -32.7222 H   0  0  0  0  0  0  0  0  0  0  0  0
   -5.5612   23.1979  -30.0488 H   0  0  0  0  0  0  0  0  0  0  0  0
   -3.0937   23.4854  -27.8357 H   0  0  0  0  0  0  0  0  0  0  0  0
   -0.5576   22.9369  -27.2154 H   0  0  0  0  0  0  0  0  0  0  0  0
   -1.6092   21.7047  -27.9984 H   0  0  0  0  0  0  0  0  0  0  0  0
   -0.5280   23.3050  -29.8590 H   0  0  0  0  0  0  0  0  0  0  0  0
   -2.5132   25.5470  -27.2223 H   0  0  0  0  0  0  0  0  0  0  0  0
   -0.7855   25.0151  -27.3358 H   0  0  0  0  0  0  0  0  0  0  0  0
   -2.0010   25.6660  -29.7300 H   0  0  0  0  0  0  0  0  0  0  0  0
   -1.8050   21.8800  -30.5620 H   0  0  0  0  0  0  0  0  0  0  0  0
   -0.2410   22.2140  -31.3740 H   0  0  0  0  0  0  0  0  0  0  0  0
   -2.7487   19.2180  -34.4048 H   0  0  0  0  0  0  0  0  0  0  0  0
   -5.2391   17.8712  -34.8600 H   0  0  0  0  0  0  0  0  0  0  0  0
   -7.6062   17.7072  -34.0208 H   0  0  0  0  0  0  0  0  0  0  0  0
   -6.7445   20.7352  -31.0005 H   0  0  0  0  0  0  0  0  0  0  0  0
  1  2  1  0
  2  3  1  0
  3  4  2  0
  3  5  1  0
  5  6  1  0
  6  7  1  0
  7  8  1  0
  6  9  1  0
  9 10  1  0
  2 11  1  0
 11 12  2  0
 11 13  1  0
 13 14  1  0
 14 15  1  0
 15 16  1  0
 15 17  2  0
 14 18  2  0
 18 19  1  0
 19 20  2  0
 20 21  1  0
 21 22  2  0
 22 23  1  0
 23 24  1  0
 23 25  1  0
 23 26  1  0
 22 27  1  0
 27 28  2  0
 28 13  1  0
 28 19  1  0
  1 29  1  0
  1 30  1  0
  1 31  1  0
  2 32  1  1
  6 33  1  0
  7 34  1  0
  7 35  1  0
  8 36  1  0
  9 37  1  0
  9 38  1  0
 10 39  1  0
 16 40  1  0
 16 41  1  0
 18 42  1  0
 20 43  1  0
 21 44  1  0
 27 45  1  0
M  CHG  1   5  -1
M  END
>  <UniqueID>  (12) 
12

>  <SMILES>  (12) 
C[C@H](C(=O)[N-]C(CO)CO)C(=O)n1c(C(N)=O)cc2ccc(C(F)(F)F)cc21

>  <Energy>  (12) 
78.14324451901958

>  <Genealogy>  (12) 
CC(C(=O)[N-]C(CO)CO)C(=O)n1c(C(N)=O)cc2ccc(C(F)(F)F)cc21 (protonated)
C[C@H](C(=O)[N-]C(CO)CO)C(=O)n1c(C(N)=O)cc2ccc(C(F)(F)F)cc21 (chirality)
C[C@H](C(=O)[N-]C(CO)CO)C(=O)n1c(C(N)=O)cc2ccc(C(F)(F)F)cc21 (3D coordinates assigned)
C[C@H](C(=O)[N-]C(CO)CO)C(=O)n1c(C(N)=O)cc2ccc(C(F)(F)F)cc21 (optimized conformer: 78.14324451901958 kcal/mol)

>  <smiles>  (12) 
CC(C(=O)NC(CO)CO)C(=O)n1c(C(N)=O)cc2ccc(C(F)(F)F)cc21

>  <score_type>  (12) 
oracle

>  <origin>  (12) 
adg

>  <m_score__min__energy>  (12) 
-8.9199999999999999

>  <m_primary>  (12) 
energy

$$$$
13:0
     RDKit          3D

 56 59  0  0  0  0  0  0  0  0999 V2000
   -1.0910   20.9710  -32.6110 N   0  0  0  0  0  0  0  0  0  0  0  0
   -1.9000   20.4250  -33.6540 C   0  0  0  0  0  0  0  0  0  0  0  0
   -1.4710   20.4390  -34.8390 O   0  0  0  0  0  0  0  0  0  0  0  0
   -3.2650   19.9230  -33.3850 C   0  0  0  0  0  0  0  0  0  0  0  0
   -3.6830   18.6390  -33.7240 C   0  0  0  0  0  0  0  0  0  0  0  0
   -5.0140   18.5890  -33.3840 C   0  0  0  0  0  0  0  0  0  0  0  0
   -5.9300   17.5520  -33.5170 C   0  0  0  0  0  0  0  0  0  0  0  0
   -7.2440   17.7710  -33.0720 C   0  0  0  0  0  0  0  0  0  0  0  0
   -7.6140   19.0060  -32.4810 C   0  0  0  0  0  0  0  0  0  0  0  0
   -9.0390   19.2460  -32.0530 C   0  0  0  0  0  0  0  0  0  0  0  0
   -9.1380   20.4140  -31.3150 F   0  0  0  0  0  0  0  0  0  0  0  0
   -9.4630   18.1860  -31.2760 F   0  0  0  0  0  0  0  0  0  0  0  0
   -9.8690   19.3580  -33.1540 F   0  0  0  0  0  0  0  0  0  0  0  0
   -6.6580   20.0440  -32.3820 C   0  0  0  0  0  0  0  0  0  0  0  0
   -5.3600   19.8060  -32.8510 C   0  0  0  0  0  0  0  0  0  0  0  0
   -4.2910   20.6370  -32.8430 N   0  0  0  0  0  0  0  0  0  0  0  0
   -4.2280   21.9590  -32.2760 C   0  0  0  0  0  0  0  0  0  0  0  0
   -3.1110   22.5180  -32.0940 O   0  0  0  0  0  0  0  0  0  0  0  0
   -5.4100   22.6230  -31.9260 O   0  0  0  0  0  0  0  0  0  0  0  0
   -5.8870   22.6900  -30.5860 C   0  0  0  0  0  0  0  0  0  0  0  0
   -5.6540   23.9930  -30.0650 O   0  0  0  0  0  0  0  0  0  0  0  0
   -4.3770   24.5460  -29.9350 C   0  0  0  0  0  0  0  0  0  0  0  0
   -3.9200   25.2960  -30.8420 O   0  0  0  0  0  0  0  0  0  0  0  0
   -3.5740   24.2320  -28.7840 N   0  0  0  0  0  0  0  0  0  0  0  0
   -4.1610   23.5470  -27.6260 C   0  0  0  0  0  0  0  0  0  0  0  0
   -3.5970   22.1200  -27.4970 C   0  0  0  0  0  0  0  0  0  0  0  0
   -2.1980   21.9720  -28.1620 C   0  0  0  0  0  0  0  0  0  0  0  0
   -1.3810   23.2850  -28.0860 C   0  0  0  0  0  0  0  0  0  0  0  0
   -2.1140   24.4260  -28.8180 C   0  0  0  0  0  0  0  0  0  0  0  0
   -1.4240   20.7350  -27.6760 C   0  0  0  0  0  0  0  0  0  0  0  0
   -1.4970   20.1310  -29.0830 C   0  0  0  0  0  0  0  0  0  0  0  0
   -0.1540   19.9180  -29.7330 C   0  0  0  0  0  0  0  0  0  0  0  0
    0.2720   20.7360  -30.5900 O   0  0  0  0  0  0  0  0  0  0  0  0
    0.6720   18.8830  -29.3120 O   0  0  0  0  0  0  0  0  0  0  0  0
   -2.2440   21.3720  -29.5810 C   0  0  0  0  0  0  0  0  0  0  0  0
   -0.1120   21.2730  -32.8150 H   0  0  0  0  0  0  0  0  0  0  0  0
   -1.4850   21.1690  -31.6640 H   0  0  0  0  0  0  0  0  0  0  0  0
   -3.0773   17.8358  -34.1690 H   0  0  0  0  0  0  0  0  0  0  0  0
   -5.6345   16.5884  -33.9577 H   0  0  0  0  0  0  0  0  0  0  0  0
   -7.9951   16.9751  -33.1832 H   0  0  0  0  0  0  0  0  0  0  0  0
   -6.9283   21.0171  -31.9461 H   0  0  0  0  0  0  0  0  0  0  0  0
   -6.9658   22.4759  -30.5696 H   0  0  0  0  0  0  0  0  0  0  0  0
   -5.3569   21.9484  -29.9703 H   0  0  0  0  0  0  0  0  0  0  0  0
   -3.9244   24.1131  -26.7130 H   0  0  0  0  0  0  0  0  0  0  0  0
   -5.2505   23.4864  -27.7647 H   0  0  0  0  0  0  0  0  0  0  0  0
   -3.5087   21.8704  -26.4293 H   0  0  0  0  0  0  0  0  0  0  0  0
   -4.2880   21.4385  -28.0148 H   0  0  0  0  0  0  0  0  0  0  0  0
   -1.2423   23.5634  -27.0309 H   0  0  0  0  0  0  0  0  0  0  0  0
   -0.4063   23.1234  -28.5695 H   0  0  0  0  0  0  0  0  0  0  0  0
   -1.8678   25.3809  -28.3306 H   0  0  0  0  0  0  0  0  0  0  0  0
   -1.7884   24.4304  -29.8687 H   0  0  0  0  0  0  0  0  0  0  0  0
   -0.4014   20.9518  -27.3336 H   0  0  0  0  0  0  0  0  0  0  0  0
   -1.7808   20.1628  -26.8069 H   0  0  0  0  0  0  0  0  0  0  0  0
   -1.9225   19.1281  -29.2353 H   0  0  0  0  0  0  0  0  0  0  0  0
   -1.6930   21.9557  -30.3331 H   0  0  0  0  0  0  0  0  0  0  0  0
   -3.2028   21.2687  -30.1101 H   0  0  0  0  0  0  0  0  0  0  0  0
  1  2  1  0
  2  3  2  0
  2  4  1  0
  4  5  2  0
  5  6  1  0
  6  7  2  0
  7  8  1  0
  8  9  2  0
  9 10  1  0
 10 11  1  0
 10 12  1  0
 10 13  1  0
  9 14  1  0
 14 15  2  0
 15 16  1  0
 16 17  1  0
 17 18  2  0
 17 19  1  0
 19 20  1  0
 20 21  1  0
 21 22  1  0
 22 23  2  0
 22 24  1  0
 24 25  1  0
 25 26  1  0
 26 27  1  0
 27 28  1  0
 28 29  1  0
 27 30  1  0
 30 31  1  0
 31 32  1  0
 32 33  2  0
 32 34  1  0
 31 35  1  0
 16  4  1  0
 29 24  1  0
 15  6  1  0
 35 27  1  0
  1 36  1  0
  1 37  1  0
  5 38  1  0
  7 39  1  0
  8 40  1  0
 14 41  1  0
 20 42  1  0
 20 43  1  0
 25 44  1  0
 25 45  1  0
 26 46  1  0
 26 47  1  0
 28 48  1  0
 28 49  1  0
 29 50  1  0
 29 51  1  0
 30 52  1  0
 30 53  1  0
 31 54  1  0
 35 55  1  0
 35 56  1  0
M  CHG  1  34  -1
M  END
>  <UniqueID>  (13) 
13

>  <SMILES>  (13) 
NC(=O)c1cc2ccc(C(F)(F)F)cc2n1C(=O)OCOC(=O)N1CCC2(CC1)CC(C(=O)[O-])C2

>  <Energy>  (13) 
161.1882474180345

>  <Genealogy>  (13) 
NC(=O)c1cc2ccc(C(F)(F)F)cc2n1C(=O)OCOC(=O)N1CCC2(CC1)CC(C(=O)[O-])C2 (protonated)
NC(=O)c1cc2ccc(C(F)(F)F)cc2n1C(=O)OCOC(=O)N1CCC2(CC1)CC(C(=O)[O-])C2 (3D coordinates assigned)
NC(=O)c1cc2ccc(C(F)(F)F)cc2n1C(=O)OCOC(=O)N1CCC2(CC1)CC(C(=O)[O-])C2 (nonaromatic ring conformer: 161.1882474180345 kcal/mol)

>  <smiles>  (13) 
NC(=O)c1cc2ccc(C(F)(F)F)cc2n1C(=O)OCOC(=O)N1CCC2(CC1)CC(C(=O)O)C2

>  <score_type>  (13) 
oracle

>  <origin>  (13) 
adg

>  <m_score__min__energy>  (13) 
-10.550000000000001

>  <m_primary>  (13) 
energy

$$$$
14:0
     RDKit          3D

 38 39  0  0  0  0  0  0  0  0999 V2000
   -3.0260   24.7790  -26.6690 C   0  0  0  0  0  0  0  0  0  0  0  0
   -2.1800   24.7550  -27.8670 N   0  0  0  0  0  0  0  0  0  0  0  0
   -1.2710   25.8720  -28.1480 C   0  0  0  0  0  0  0  0  0  0  0  0
   -2.2250   23.6410  -28.7860 C   0  0  0  0  0  0  0  0  0  0  0  0
   -1.4780   23.6380  -29.8020 O   0  0  0  0  0  0  0  0  0  0  0  0
   -3.1720   22.4920  -28.5930 C   0  0  0  0  0  0  0  0  0  0  0  0
   -3.4060   21.8380  -29.8720 N   0  0  0  0  0  0  0  0  0  0  0  0
   -3.9370   22.5220  -31.0090 C   0  0  0  0  0  0  0  0  0  0  0  0
   -3.1760   22.8610  -31.9560 O   0  0  0  0  0  0  0  0  0  0  0  0
   -5.3370   22.8370  -31.0660 N   0  0  0  0  0  0  0  0  0  0  0  0
   -5.9370   24.0270  -30.7800 C   0  0  0  0  0  0  0  0  0  0  0  0
   -5.2480   25.3020  -30.4910 C   0  0  0  0  0  0  0  0  0  0  0  0
   -3.8670   25.4760  -30.8000 N   0  0  0  0  0  0  0  0  0  0  0  0
   -5.8970   26.2670  -30.0070 O   0  0  0  0  0  0  0  0  0  0  0  0
   -7.3230   23.9090  -30.8720 C   0  0  0  0  0  0  0  0  0  0  0  0
   -7.5540   22.6030  -31.2370 C   0  0  0  0  0  0  0  0  0  0  0  0
   -8.7550   21.9320  -31.4490 C   0  0  0  0  0  0  0  0  0  0  0  0
   -8.6990   20.5690  -31.7820 C   0  0  0  0  0  0  0  0  0  0  0  0
   -7.4520   19.9030  -31.9070 C   0  0  0  0  0  0  0  0  0  0  0  0
   -7.4070   18.4250  -32.2040 C   0  0  0  0  0  0  0  0  0  0  0  0
   -8.6630   17.8610  -32.0660 F   0  0  0  0  0  0  0  0  0  0  0  0
   -6.5370   17.8110  -31.3220 F   0  0  0  0  0  0  0  0  0  0  0  0
   -6.9710   18.2000  -33.4980 F   0  0  0  0  0  0  0  0  0  0  0  0
   -6.2550   20.6140  -31.6580 C   0  0  0  0  0  0  0  0  0  0  0  0
   -6.3400   21.9760  -31.3470 C   0  0  0  0  0  0  0  0  0  0  0  0
   -2.3908   24.7610  -25.7711 H   0  0  0  0  0  0  0  0  0  0  0  0
   -3.6354   25.6948  -26.6687 H   0  0  0  0  0  0  0  0  0  0  0  0
   -3.6863   23.8992  -26.6687 H   0  0  0  0  0  0  0  0  0  0  0  0
   -0.9185   26.3052  -27.2003 H   0  0  0  0  0  0  0  0  0  0  0  0
   -0.4099   25.5072  -28.7272 H   0  0  0  0  0  0  0  0  0  0  0  0
   -1.8032   26.6410  -28.7272 H   0  0  0  0  0  0  0  0  0  0  0  0
   -2.7349   21.7709  -27.8867 H   0  0  0  0  0  0  0  0  0  0  0  0
   -4.1256   22.8654  -28.1915 H   0  0  0  0  0  0  0  0  0  0  0  0
   -3.1960   24.6790  -30.7310 H   0  0  0  0  0  0  0  0  0  0  0  0
   -8.0726   24.6935  -30.6912 H   0  0  0  0  0  0  0  0  0  0  0  0
   -9.7191   22.4538  -31.3584 H   0  0  0  0  0  0  0  0  0  0  0  0
   -9.6324   20.0111  -31.9479 H   0  0  0  0  0  0  0  0  0  0  0  0
   -5.2795   20.1081  -31.7076 H   0  0  0  0  0  0  0  0  0  0  0  0
  1  2  1  0
  2  3  1  0
  2  4  1  0
  4  5  2  0
  4  6  1  0
  6  7  1  0
  7  8  1  0
  8  9  2  0
  8 10  1  0
 10 11  1  0
 11 12  1  0
 12 13  1  0
 12 14  2  0
 11 15  2  0
 15 16  1  0
 16 17  2  0
 17 18  1  0
 18 19  2  0
 19 20  1  0
 20 21  1  0
 20 22  1  0
 20 23  1  0
 19 24  1  0
 24 25  2  0
 25 10  1  0
 25 16  1  0
  1 26  1  0
  1 27  1  0
  1 28  1  0
  3 29  1  0
  3 30  1  0
  3 31  1  0
  6 32  1  0
  6 33  1  0
 13 34  1  0
 15 35  1  0
 17 36  1  0
 18 37  1  0
 24 38  1  0
M  CHG  2   7  -1  13  -1
M  END
>  <UniqueID>  (14) 
14

>  <SMILES>  (14) 
CN(C)C(=O)C[N-]C(=O)n1c(C([NH-])=O)cc2ccc(C(F)(F)F)cc21

>  <Energy>  (14) 
72.20595571500665

>  <Genealogy>  (14) 
CN(C)C(=O)C[N-]C(=O)n1c(C([NH-])=O)cc2ccc(C(F)(F)F)cc21 (protonated)
CN(C)C(=O)C[N-]C(=O)n1c(C([NH-])=O)cc2ccc(C(F)(F)F)cc21 (3D coordinates assigned)
CN(C)C(=O)C[N-]C(=O)n1c(C([NH-])=O)cc2ccc(C(F)(F)F)cc21 (optimized conformer: 72.20595571500665 kcal/mol)

>  <smiles>  (14) 
CN(C)C(=O)CNC(=O)n1c(C(N)=O)cc2ccc(C(F)(F)F)cc21

>  <score_type>  (14) 
oracle

>  <origin>  (14) 
adg

>  <m_score__min__energy>  (14) 
-10.56

>  <m_primary>  (14) 
energy

$$$$
15:0
     RDKit          3D

 41 42  0  0  0  0  0  0  0  0999 V2000
   -5.7240   16.8780  -34.1560 C   0  0  0  0  0  0  0  0  0  0  0  0
   -5.4660   18.2070  -34.8600 C   0  0  0  0  0  0  0  0  0  0  0  0
   -4.2930   18.8150  -34.3520 O   0  0  0  0  0  0  0  0  0  0  0  0
   -4.2710   18.7940  -32.9360 C   0  0  0  0  0  0  0  0  0  0  0  0
   -3.4180   19.9530  -32.4030 C   0  0  0  0  0  0  0  0  0  0  0  0
   -3.1130   20.9860  -33.4910 C   0  0  0  0  0  0  0  0  0  0  0  0
   -3.7810   22.2460  -33.1910 N   0  0  0  0  0  0  0  0  0  0  0  0
   -4.0600   22.6780  -31.8570 C   0  0  0  0  0  0  0  0  0  0  0  0
   -3.1260   22.7800  -31.0170 O   0  0  0  0  0  0  0  0  0  0  0  0
   -5.4050   23.0130  -31.4800 N   0  0  0  0  0  0  0  0  0  0  0  0
   -5.8690   24.2070  -31.0110 C   0  0  0  0  0  0  0  0  0  0  0  0
   -5.0430   25.3760  -30.6430 C   0  0  0  0  0  0  0  0  0  0  0  0
   -3.6390   25.2460  -30.4330 N   0  0  0  0  0  0  0  0  0  0  0  0
   -5.5920   26.4960  -30.4640 O   0  0  0  0  0  0  0  0  0  0  0  0
   -7.2510   24.1620  -30.8440 C   0  0  0  0  0  0  0  0  0  0  0  0
   -7.6240   22.8920  -31.2190 C   0  0  0  0  0  0  0  0  0  0  0  0
   -8.8860   22.3070  -31.2670 C   0  0  0  0  0  0  0  0  0  0  0  0
   -8.9810   20.9830  -31.7290 C   0  0  0  0  0  0  0  0  0  0  0  0
   -7.8220   20.2730  -32.1280 C   0  0  0  0  0  0  0  0  0  0  0  0
   -7.9440   18.8810  -32.6700 C   0  0  0  0  0  0  0  0  0  0  0  0
   -6.5590   20.9050  -32.0830 C   0  0  0  0  0  0  0  0  0  0  0  0
   -6.4910   22.2170  -31.5990 C   0  0  0  0  0  0  0  0  0  0  0  0
   -5.6948   17.0284  -33.0667 H   0  0  0  0  0  0  0  0  0  0  0  0
   -6.7133   16.4950  -34.4469 H   0  0  0  0  0  0  0  0  0  0  0  0
   -4.9499   16.1526  -34.4469 H   0  0  0  0  0  0  0  0  0  0  0  0
   -5.3436   18.0281  -35.9384 H   0  0  0  0  0  0  0  0  0  0  0  0
   -6.3205   18.8766  -34.6825 H   0  0  0  0  0  0  0  0  0  0  0  0
   -5.2981   18.8933  -32.5550 H   0  0  0  0  0  0  0  0  0  0  0  0
   -3.8358   17.8422  -32.5974 H   0  0  0  0  0  0  0  0  0  0  0  0
   -3.9622   20.4481  -31.5853 H   0  0  0  0  0  0  0  0  0  0  0  0
   -2.4624   19.5381  -32.0499 H   0  0  0  0  0  0  0  0  0  0  0  0
   -2.0268   21.1531  -33.5389 H   0  0  0  0  0  0  0  0  0  0  0  0
   -3.4781   20.6077  -34.4572 H   0  0  0  0  0  0  0  0  0  0  0  0
   -3.0080   24.9340  -31.2030 H   0  0  0  0  0  0  0  0  0  0  0  0
   -7.9058   24.9709  -30.4876 H   0  0  0  0  0  0  0  0  0  0  0  0
   -9.7813   22.8636  -30.9531 H   0  0  0  0  0  0  0  0  0  0  0  0
   -9.9647   20.4935  -31.7812 H   0  0  0  0  0  0  0  0  0  0  0  0
   -8.0066   18.1668  -31.8357 H   0  0  0  0  0  0  0  0  0  0  0  0
   -8.8522   18.8057  -33.2860 H   0  0  0  0  0  0  0  0  0  0  0  0
   -7.0628   18.6488  -33.2860 H   0  0  0  0  0  0  0  0  0  0  0  0
   -5.6529   20.3799  -32.4195 H   0  0  0  0  0  0  0  0  0  0  0  0
  1  2  1  0
  2  3  1  0
  3  4  1  0
  4  5  1  0
  5  6  1  0
  6  7  1  0
  7  8  1  0
  8  9  2  0
  8 10  1  0
 10 11  1  0
 11 12  1  0
 12 13  1  0
 12 14  2  0
 11 15  2  0
 15 16  1  0
 16 17  2  0
 17 18  1  0
 18 19  2  0
 19 20  1  0
 19 21  1  0
 21 22  2  0
 22 10  1  0
 22 16  1  0
  1 23  1  0
  1 24  1  0
  1 25  1  0
  2 26  1  0
  2 27  1  0
  4 28  1  0
  4 29  1  0
  5 30  1  0
  5 31  1  0
  6 32  1  0
  6 33  1  0
 13 34  1  0
 15 35  1  0
 17 36  1  0
 18 37  1  0
 20 38  1  0
 20 39  1  0
 20 40  1  0
 21 41  1  0
M  CHG  2   7  -1  13  -1
M  END
>  <UniqueID>  (15) 
15

>  <SMILES>  (15) 
CCOCCC[N-]C(=O)n1c(C([NH-])=O)cc2ccc(C)cc21

>  <Energy>  (15) 
73.93918153100289

>  <Genealogy>  (15) 
CCOCCC[N-]C(=O)n1c(C([NH-])=O)cc2ccc(C)cc21 (protonated)
CCOCCC[N-]C(=O)n1c(C([NH-])=O)cc2ccc(C)cc21 (3D coordinates assigned)
CCOCCC[N-]C(=O)n1c(C([NH-])=O)cc2ccc(C)cc21 (optimized conformer: 73.93918153100289 kcal/mol)

>  <smiles>  (15) 
CCOCCCNC(=O)n1c(C(N)=O)cc2ccc(C)cc21

>  <score_type>  (15) 
oracle

>  <origin>  (15) 
adg

>  <m_score__min__energy>  (15) 
-10.6

>  <m_primary>  (15) 
energy

$$$$
16:0
     RDKit          3D

 50 51  0  0  0  0  0  0  0  0999 V2000
   -3.0560   21.5490  -33.4420 C   0  0  0  0  0  0  0  0  0  0  0  0
   -3.0810   21.4090  -31.9830 N   0  0  0  0  0  0  0  0  0  0  0  0
   -2.5140   20.2150  -31.3450 C   0  0  0  0  0  0  0  0  0  0  0  0
   -1.5940   20.6140  -30.2340 C   0  0  0  0  0  0  0  0  0  0  0  0
   -0.7610   21.5420  -30.4230 O   0  0  0  0  0  0  0  0  0  0  0  0
   -1.6980   19.9660  -28.9940 O   0  0  0  0  0  0  0  0  0  0  0  0
   -1.9820   20.5860  -27.7310 C   0  0  0  0  0  0  0  0  0  0  0  0
   -0.7340   21.2990  -27.1770 C   0  0  0  0  0  0  0  0  0  0  0  0
   -2.3830   19.4650  -26.7610 C   0  0  0  0  0  0  0  0  0  0  0  0
   -3.1560   21.5740  -27.8630 C   0  0  0  0  0  0  0  0  0  0  0  0
   -3.6800   22.4430  -31.1770 C   0  0  0  0  0  0  0  0  0  0  0  0
   -2.9620   23.1660  -30.4340 O   0  0  0  0  0  0  0  0  0  0  0  0
   -5.0950   22.6710  -31.2120 N   0  0  0  0  0  0  0  0  0  0  0  0
   -5.7690   23.8050  -30.8840 C   0  0  0  0  0  0  0  0  0  0  0  0
   -5.1650   25.0440  -30.3490 C   0  0  0  0  0  0  0  0  0  0  0  0
   -3.9310   25.5380  -30.8630 N   0  0  0  0  0  0  0  0  0  0  0  0
   -5.7390   25.6680  -29.4190 O   0  0  0  0  0  0  0  0  0  0  0  0
   -7.1370   23.6360  -31.1010 C   0  0  0  0  0  0  0  0  0  0  0  0
   -7.2750   22.3500  -31.5780 C   0  0  0  0  0  0  0  0  0  0  0  0
   -8.4150   21.6500  -31.9700 C   0  0  0  0  0  0  0  0  0  0  0  0
   -8.2490   20.3370  -32.4460 C   0  0  0  0  0  0  0  0  0  0  0  0
   -6.9600   19.7590  -32.5160 C   0  0  0  0  0  0  0  0  0  0  0  0
   -6.8020   18.4160  -33.0070 C   0  0  0  0  0  0  0  0  0  0  0  0
   -6.6650   17.2900  -33.4150 C   0  0  0  0  0  0  0  0  0  0  0  0
   -6.4910   15.9230  -33.9110 C   0  0  0  0  0  0  0  0  0  0  0  0
   -5.2150   15.4510  -33.5730 O   0  0  0  0  0  0  0  0  0  0  0  0
   -5.8290   20.4930  -32.1060 C   0  0  0  0  0  0  0  0  0  0  0  0
   -6.0260   21.7940  -31.6370 C   0  0  0  0  0  0  0  0  0  0  0  0
   -2.8683   22.6001  -33.7063 H   0  0  0  0  0  0  0  0  0  0  0  0
   -2.2563   20.9181  -33.8572 H   0  0  0  0  0  0  0  0  0  0  0  0
   -4.0246   21.2338  -33.8572 H   0  0  0  0  0  0  0  0  0  0  0  0
   -3.3289   19.5977  -30.9388 H   0  0  0  0  0  0  0  0  0  0  0  0
   -1.9476   19.6413  -32.0933 H   0  0  0  0  0  0  0  0  0  0  0  0
   -0.7608   21.2837  -26.0774 H   0  0  0  0  0  0  0  0  0  0  0  0
    0.1705   20.7814  -27.5290 H   0  0  0  0  0  0  0  0  0  0  0  0
   -0.7205   22.3411  -27.5290 H   0  0  0  0  0  0  0  0  0  0  0  0
   -2.2581   19.8141  -25.7254 H   0  0  0  0  0  0  0  0  0  0  0  0
   -3.4347   19.1915  -26.9314 H   0  0  0  0  0  0  0  0  0  0  0  0
   -1.7434   18.5864  -26.9314 H   0  0  0  0  0  0  0  0  0  0  0  0
   -3.5035   21.8665  -26.8612 H   0  0  0  0  0  0  0  0  0  0  0  0
   -2.8232   22.4678  -28.4111 H   0  0  0  0  0  0  0  0  0  0  0  0
   -3.9798   21.0934  -28.4111 H   0  0  0  0  0  0  0  0  0  0  0  0
   -3.0210   25.2800  -30.4180 H   0  0  0  0  0  0  0  0  0  0  0  0
   -7.9356   24.3724  -30.9282 H   0  0  0  0  0  0  0  0  0  0  0  0
   -9.4124   22.1098  -31.9090 H   0  0  0  0  0  0  0  0  0  0  0  0
   -9.1268   19.7562  -32.7657 H   0  0  0  0  0  0  0  0  0  0  0  0
   -7.2526   15.2711  -33.4583 H   0  0  0  0  0  0  0  0  0  0  0  0
   -6.6003   15.9185  -35.0055 H   0  0  0  0  0  0  0  0  0  0  0  0
   -4.9190   15.9710  -32.7810 H   0  0  0  0  0  0  0  0  0  0  0  0
   -4.8213   20.0546  -32.1539 H   0  0  0  0  0  0  0  0  0  0  0  0
  1  2  1  0
  2  3  1  0
  3  4  1  0
  4  5  2  0
  4  6  1  0
  6  7  1  0
  7  8  1  0
  7  9  1  0
  7 10  1  0
  2 11  1  0
 11 12  2  0
 11 13  1  0
 13 14  1  0
 14 15  1  0
 15 16  1  0
 15 17  2  0
 14 18  2  0
 18 19  1  0
 19 20  2  0
 20 21  1  0
 21 22  2  0
 22 23  1  0
 23 24  3  0
 24 25  1  0
 25 26  1  0
 22 27  1  0
 27 28  2  0
 28 13  1  0
 28 19  1  0
  1 29  1  0
  1 30  1  0
  1 31  1  0
  3 32  1  0
  3 33  1  0
  8 34  1  0
  8 35  1  0
  8 36  1  0
  9 37  1  0
  9 38  1  0
  9 39  1  0
 10 40  1  0
 10 41  1  0
 10 42  1  0
 16 43  1  0
 18 44  1  0
 20 45  1  0
 21 46  1  0
 25 47  1  0
 25 48  1  0
 26 49  1  0
 27 50  1  0
M  CHG  1  16  -1
M  END
>  <UniqueID>  (16) 
16

>  <SMILES>  (16) 
CN(CC(=O)OC(C)(C)C)C(=O)n1c(C([NH-])=O)cc2ccc(C#CCO)cc21

>  <Energy>  (16) 
73.1276263235947

>  <Genealogy>  (16) 
CN(CC(=O)OC(C)(C)C)C(=O)n1c(C([NH-])=O)cc2ccc(C#CCO)cc21 (protonated)
CN(CC(=O)OC(C)(C)C)C(=O)n1c(C([NH-])=O)cc2ccc(C#CCO)cc21 (3D coordinates assigned)
CN(CC(=O)OC(C)(C)C)C(=O)n1c(C([NH-])=O)cc2ccc(C#CCO)cc21 (optimized conformer: 73.1276263235947 kcal/mol)

>  <smiles>  (16) 
CN(CC(=O)OC(C)(C)C)C(=O)n1c(C(N)=O)cc2ccc(C#CCO)cc21

>  <score_type>  (16) 
oracle

>  <origin>  (16) 
adg

>  <m_score__min__energy>  (16) 
-11.130000000000001

>  <m_primary>  (16) 
energy

$$$$
17:0
     RDKit          3D

 44 46  0  0  0  0  0  0  0  0999 V2000
   -4.5740   23.0290  -28.7570 C   0  0  0  0  0  0  0  0  0  0  0  0
   -4.7740   23.7950  -29.8390 C   0  0  0  0  0  0  0  0  0  0  0  0
   -3.8420   24.9080  -30.1450 C   0  0  0  0  0  0  0  0  0  0  0  0
   -4.0450   25.6670  -31.1310 O   0  0  0  0  0  0  0  0  0  0  0  0
   -2.7350   25.1430  -29.3370 O   0  0  0  0  0  0  0  0  0  0  0  0
   -5.9430   23.5370  -30.7180 C   0  0  0  0  0  0  0  0  0  0  0  0
   -6.8740   24.3850  -30.7880 O   0  0  0  0  0  0  0  0  0  0  0  0
   -6.0430   22.3280  -31.4910 N   0  0  0  0  0  0  0  0  0  0  0  0
   -7.1760   21.7380  -31.9620 C   0  0  0  0  0  0  0  0  0  0  0  0
   -8.5570   22.1710  -31.6460 C   0  0  0  0  0  0  0  0  0  0  0  0
   -9.0090   23.4850  -31.9810 N   0  0  0  0  0  0  0  0  0  0  0  0
   -9.3580   21.3730  -31.0920 O   0  0  0  0  0  0  0  0  0  0  0  0
   -6.8560   20.6220  -32.7360 C   0  0  0  0  0  0  0  0  0  0  0  0
   -5.4800   20.5560  -32.7300 C   0  0  0  0  0  0  0  0  0  0  0  0
   -4.6220   19.6580  -33.3600 C   0  0  0  0  0  0  0  0  0  0  0  0
   -3.2390   19.8540  -33.2090 C   0  0  0  0  0  0  0  0  0  0  0  0
   -2.7430   20.9300  -32.4320 C   0  0  0  0  0  0  0  0  0  0  0  0
   -1.2620   21.1630  -32.3230 C   0  0  0  0  0  0  0  0  0  0  0  0
   -0.9100   21.4660  -30.9410 N   0  0  0  0  0  0  0  0  0  0  0  0
   -0.8950   22.6900  -30.3800 C   0  0  0  0  0  0  0  0  0  0  0  0
   -0.5860   22.5380  -29.0450 C   0  0  0  0  0  0  0  0  0  0  0  0
   -0.4650   23.5970  -28.0380 C   0  0  0  0  0  0  0  0  0  0  0  0
    0.3450   24.5460  -28.2190 O   0  0  0  0  0  0  0  0  0  0  0  0
   -1.2510   23.5430  -26.8830 O   0  0  0  0  0  0  0  0  0  0  0  0
   -2.0100   24.6540  -26.4200 C   0  0  0  0  0  0  0  0  0  0  0  0
   -0.4340   21.1760  -28.8570 C   0  0  0  0  0  0  0  0  0  0  0  0
   -0.6450   20.5430  -30.0290 N   0  0  0  0  0  0  0  0  0  0  0  0
   -3.6430   21.8290  -31.8200 C   0  0  0  0  0  0  0  0  0  0  0  0
   -5.0140   21.5990  -31.9750 C   0  0  0  0  0  0  0  0  0  0  0  0
   -5.2660   22.2042  -28.5315 H   0  0  0  0  0  0  0  0  0  0  0  0
   -3.7179   23.2254  -28.0947 H   0  0  0  0  0  0  0  0  0  0  0  0
   -8.3630   24.2000  -32.3810 H   0  0  0  0  0  0  0  0  0  0  0  0
   -9.9960   23.7630  -31.7850 H   0  0  0  0  0  0  0  0  0  0  0  0
   -7.5541   19.9398  -33.2432 H   0  0  0  0  0  0  0  0  0  0  0  0
   -5.0147   18.8217  -33.9570 H   0  0  0  0  0  0  0  0  0  0  0  0
   -2.5346   19.1655  -33.6987 H   0  0  0  0  0  0  0  0  0  0  0  0
   -0.7253   20.2590  -32.6467 H   0  0  0  0  0  0  0  0  0  0  0  0
   -0.9797   22.0112  -32.9640 H   0  0  0  0  0  0  0  0  0  0  0  0
   -1.0938   23.6415  -30.8950 H   0  0  0  0  0  0  0  0  0  0  0  0
   -2.0152   24.6616  -25.3200 H   0  0  0  0  0  0  0  0  0  0  0  0
   -1.5592   25.5862  -26.7910 H   0  0  0  0  0  0  0  0  0  0  0  0
   -3.0424   24.5730  -26.7910 H   0  0  0  0  0  0  0  0  0  0  0  0
   -0.1815   20.6875  -27.9043 H   0  0  0  0  0  0  0  0  0  0  0  0
   -3.2762   22.6868  -31.2372 H   0  0  0  0  0  0  0  0  0  0  0  0
  1  2  2  0
  2  3  1  0
  3  4  2  0
  3  5  1  0
  2  6  1  0
  6  7  2  0
  6  8  1  0
  8  9  1  0
  9 10  1  0
 10 11  1  0
 10 12  2  0
  9 13  2  0
 13 14  1  0
 14 15  2  0
 15 16  1  0
 16 17  2  0
 17 18  1  0
 18 19  1  0
 19 20  1  0
 20 21  2  0
 21 22  1  0
 22 23  2  0
 22 24  1  0
 24 25  1  0
 21 26  1  0
 26 27  2  0
 17 28  1  0
 28 29  2  0
 29  8  1  0
 29 14  1  0
 27 19  1  0
  1 30  1  0
  1 31  1  0
 11 32  1  0
 11 33  1  0
 13 34  1  0
 15 35  1  0
 16 36  1  0
 18 37  1  0
 18 38  1  0
 20 39  1  0
 25 40  1  0
 25 41  1  0
 25 42  1  0
 26 43  1  0
 28 44  1  0
M  CHG  1   5  -1
M  END
>  <UniqueID>  (17) 
17

>  <SMILES>  (17) 
C=C(C(=O)[O-])C(=O)n1c(C(N)=O)cc2ccc(Cn3cc(C(=O)OC)cn3)cc21

>  <Energy>  (17) 
111.94362642678878

>  <Genealogy>  (17) 
C=C(C(=O)[O-])C(=O)n1c(C(N)=O)cc2ccc(Cn3cc(C(=O)OC)cn3)cc21 (protonated)
C=C(C(=O)[O-])C(=O)n1c(C(N)=O)cc2ccc(Cn3cc(C(=O)OC)cn3)cc21 (3D coordinates assigned)
C=C(C(=O)[O-])C(=O)n1c(C(N)=O)cc2ccc(Cn3cc(C(=O)OC)cn3)cc21 (optimized conformer: 111.94362642678878 kcal/mol)

>  <smiles>  (17) 
C=C(C(=O)O)C(=O)n1c(C(N)=O)cc2ccc(Cn3cc(C(=O)OC)cn3)cc21

>  <score_type>  (17) 
oracle

>  <origin>  (17) 
adg

>  <m_score__min__energy>  (17) 
-10.98

>  <m_primary>  (17) 
energy

$$$$
18:0
     RDKit          3D

 40 41  0  0  0  0  0  0  0  0999 V2000
   -3.5310   25.1470  -30.5060 N   0  0  0  0  0  0  0  0  0  0  0  0
   -4.9520   25.2050  -30.5990 C   0  0  0  0  0  0  0  0  0  0  0  0
   -5.5330   26.3160  -30.4630 O   0  0  0  0  0  0  0  0  0  0  0  0
   -5.7500   23.9940  -30.8940 C   0  0  0  0  0  0  0  0  0  0  0  0
   -7.1230   24.0190  -31.1310 C   0  0  0  0  0  0  0  0  0  0  0  0
   -7.4670   22.7200  -31.4380 C   0  0  0  0  0  0  0  0  0  0  0  0
   -8.7070   22.1710  -31.7460 C   0  0  0  0  0  0  0  0  0  0  0  0
   -8.7730   20.7920  -31.9940 C   0  0  0  0  0  0  0  0  0  0  0  0
   -7.6110   19.9790  -31.8960 C   0  0  0  0  0  0  0  0  0  0  0  0
   -7.6740   18.5000  -32.1800 C   0  0  0  0  0  0  0  0  0  0  0  0
   -8.9730   18.0590  -32.0160 F   0  0  0  0  0  0  0  0  0  0  0  0
   -7.2700   18.2460  -33.4790 F   0  0  0  0  0  0  0  0  0  0  0  0
   -6.8490   17.7900  -31.3240 F   0  0  0  0  0  0  0  0  0  0  0  0
   -6.3670   20.5790  -31.5990 C   0  0  0  0  0  0  0  0  0  0  0  0
   -6.3270   21.9620  -31.3800 C   0  0  0  0  0  0  0  0  0  0  0  0
   -5.2650   22.7280  -31.0470 N   0  0  0  0  0  0  0  0  0  0  0  0
   -3.9290   22.2550  -30.8130 C   0  0  0  0  0  0  0  0  0  0  0  0
   -3.2210   21.8770  -31.7830 O   0  0  0  0  0  0  0  0  0  0  0  0
   -3.4110   22.2620  -29.5120 O   0  0  0  0  0  0  0  0  0  0  0  0
   -2.2940   21.4760  -29.0980 C   0  0  0  0  0  0  0  0  0  0  0  0
   -0.9670   22.1340  -29.5180 C   0  0  1  0  0  0  0  0  0  0  0  0
   -1.2220   23.1290  -30.4730 O   0  0  0  0  0  0  0  0  0  0  0  0
   -0.2370   22.7650  -28.3290 C   0  0  0  0  0  0  0  0  0  0  0  0
    0.1500   24.0770  -28.6680 O   0  0  0  0  0  0  0  0  0  0  0  0
   -1.0980   25.1520  -28.2180 P   0  0  1  0  0  0  0  0  0  0  0  0
   -0.7730   25.7260  -26.8620 O   0  0  0  0  0  0  0  0  0  0  0  0
   -1.2360   26.4260  -29.3250 O   0  0  0  0  0  0  0  0  0  0  0  0
   -2.5710   24.3270  -28.1160 O   0  0  0  0  0  0  0  0  0  0  0  0
   -3.0450   24.2690  -30.2190 H   0  0  0  0  0  0  0  0  0  0  0  0
   -7.7913   24.8914  -31.0832 H   0  0  0  0  0  0  0  0  0  0  0  0
   -9.6088   22.7991  -31.7937 H   0  0  0  0  0  0  0  0  0  0  0  0
   -9.7351   20.3343  -32.2675 H   0  0  0  0  0  0  0  0  0  0  0  0
   -5.4503   19.9737  -31.5410 H   0  0  0  0  0  0  0  0  0  0  0  0
   -2.3132   21.3732  -28.0030 H   0  0  0  0  0  0  0  0  0  0  0  0
   -2.3629   20.4898  -29.5803 H   0  0  0  0  0  0  0  0  0  0  0  0
   -0.3233   21.3461  -29.9362 H   0  0  0  0  0  0  0  0  0  0  0  0
   -1.8690   23.7620  -30.0670 H   0  0  0  0  0  0  0  0  0  0  0  0
   -0.9078   22.7925  -27.4576 H   0  0  0  0  0  0  0  0  0  0  0  0
    0.6536   22.1684  -28.0824 H   0  0  0  0  0  0  0  0  0  0  0  0
   -2.6810   23.8780  -28.9910 H   0  0  0  0  0  0  0  0  0  0  0  0
  1  2  1  0
  2  3  2  0
  2  4  1  0
  4  5  2  0
  5  6  1  0
  6  7  2  0
  7  8  1  0
  8  9  2  0
  9 10  1  0
 10 11  1  0
 10 12  1  0
 10 13  1  0
  9 14  1  0
 14 15  2  0
 15 16  1  0
 16 17  1  0
 17 18  2  0
 17 19  1  0
 19 20  1  0
 20 21  1  0
 21 22  1  0
 21 23  1  0
 23 24  1  0
 24 25  1  0
 25 26  2  0
 25 27  1  6
 25 28  1  0
 16  4  1  0
 15  6  1  0
  1 29  1  0
  5 30  1  0
  7 31  1  0
  8 32  1  0
 14 33  1  0
 20 34  1  0
 20 35  1  0
 21 36  1  6
 22 37  1  0
 23 38  1  0
 23 39  1  0
 28 40  1  0
M  CHG  2   1  -1  27  -1
M  END
>  <UniqueID>  (18) 
18

>  <SMILES>  (18) 
[NH-]C(=O)c1cc2ccc(C(F)(F)F)cc2n1C(=O)OC[C@@H](O)CO[P@@](=O)([O-])O

>  <Energy>  (18) 
73.38662524771306

>  <Genealogy>  (18) 
[NH-]C(=O)c1cc2ccc(C(F)(F)F)cc2n1C(=O)OCC(O)COP(=O)([O-])O (protonated)
[NH-]C(=O)c1cc2ccc(C(F)(F)F)cc2n1C(=O)OC[C@@H](O)CO[P@@](=O)([O-])O (chirality)
[NH-]C(=O)c1cc2ccc(C(F)(F)F)cc2n1C(=O)OC[C@@H](O)CO[P@@](=O)([O-])O (3D coordinates assigned)
[NH-]C(=O)c1cc2ccc(C(F)(F)F)cc2n1C(=O)OC[C@@H](O)CO[P@@](=O)([O-])O (optimized conformer: 73.38662524771306 kcal/mol)

>  <smiles>  (18) 
NC(=O)c1cc2ccc(C(F)(F)F)cc2n1C(=O)OCC(O)COP(=O)(O)O

>  <score_type>  (18) 
oracle

>  <origin>  (18) 
adg

>  <m_score__min__energy>  (18) 
-11.19

>  <m_primary>  (18) 
energy

$$$$
19:0
     RDKit          3D

 58 61  0  0  0  0  0  0  0  0999 V2000
   -0.9250   21.8730  -26.2770 C   0  0  0  0  0  0  0  0  0  0  0  0
   -0.2230   23.0110  -26.9440 C   0  0  0  0  0  0  0  0  0  0  0  0
    1.0530   23.0330  -27.2450 O   0  0  0  0  0  0  0  0  0  0  0  0
    1.2690   24.2020  -27.8050 C   0  0  0  0  0  0  0  0  0  0  0  0
    2.3940   24.5780  -28.2270 O   0  0  0  0  0  0  0  0  0  0  0  0
    0.1830   24.9380  -27.8770 O   0  0  0  0  0  0  0  0  0  0  0  0
   -0.7740   24.2160  -27.3430 C   0  0  0  0  0  0  0  0  0  0  0  0
   -2.1960   24.6480  -27.2060 C   0  0  0  0  0  0  0  0  0  0  0  0
   -2.9110   24.2860  -28.3820 O   0  0  0  0  0  0  0  0  0  0  0  0
   -3.5340   23.0460  -28.5390 C   0  0  0  0  0  0  0  0  0  0  0  0
   -4.3480   22.6340  -27.6680 O   0  0  0  0  0  0  0  0  0  0  0  0
   -3.2460   22.2410  -29.6990 N   0  0  0  0  0  0  0  0  0  0  0  0
   -2.4300   21.0280  -29.5650 C   0  0  0  0  0  0  0  0  0  0  0  0
   -1.2910   21.0410  -30.5520 C   0  0  0  0  0  0  0  0  0  0  0  0
   -0.4920   22.0150  -30.5520 O   0  0  0  0  0  0  0  0  0  0  0  0
   -1.1100   20.0090  -31.5320 N   0  0  0  0  0  0  0  0  0  0  0  0
   -2.0760   19.5970  -32.5460 C   0  0  0  0  0  0  0  0  0  0  0  0
   -2.0210   20.5220  -33.7600 C   0  0  0  0  0  0  0  0  0  0  0  0
   -1.0570   21.5140  -33.5450 O   0  0  0  0  0  0  0  0  0  0  0  0
   -3.8030   22.5840  -30.9830 C   0  0  0  0  0  0  0  0  0  0  0  0
   -3.0470   22.6910  -31.9880 O   0  0  0  0  0  0  0  0  0  0  0  0
   -5.2060   22.8650  -31.1210 N   0  0  0  0  0  0  0  0  0  0  0  0
   -5.8580   24.0300  -30.8510 C   0  0  0  0  0  0  0  0  0  0  0  0
   -5.2220   25.3000  -30.4410 C   0  0  0  0  0  0  0  0  0  0  0  0
   -3.8820   25.5850  -30.8370 N   0  0  0  0  0  0  0  0  0  0  0  0
   -5.8420   26.1290  -29.7240 O   0  0  0  0  0  0  0  0  0  0  0  0
   -7.2240   23.8890  -31.0850 C   0  0  0  0  0  0  0  0  0  0  0  0
   -7.3900   22.5890  -31.5090 C   0  0  0  0  0  0  0  0  0  0  0  0
   -8.5430   21.9060  -31.8780 C   0  0  0  0  0  0  0  0  0  0  0  0
   -8.4200   20.5590  -32.2610 C   0  0  0  0  0  0  0  0  0  0  0  0
   -7.1490   19.9120  -32.2550 C   0  0  0  0  0  0  0  0  0  0  0  0
   -6.9450   18.4580  -32.6460 C   0  0  0  0  0  0  0  0  0  0  0  0
   -6.0900   18.1670  -33.8710 C   0  0  0  0  0  0  0  0  0  0  0  0
   -5.5410   17.8920  -32.4770 C   0  0  0  0  0  0  0  0  0  0  0  0
   -6.0070   20.6470  -31.8710 C   0  0  0  0  0  0  0  0  0  0  0  0
   -6.1590   21.9920  -31.5170 C   0  0  0  0  0  0  0  0  0  0  0  0
   -0.8542   21.9878  -25.1853 H   0  0  0  0  0  0  0  0  0  0  0  0
   -1.9832   21.8683  -26.5773 H   0  0  0  0  0  0  0  0  0  0  0  0
   -0.4544   20.9252  -26.5773 H   0  0  0  0  0  0  0  0  0  0  0  0
   -2.6482   24.1534  -26.3337 H   0  0  0  0  0  0  0  0  0  0  0  0
   -2.2391   25.7385  -27.0686 H   0  0  0  0  0  0  0  0  0  0  0  0
   -2.0229   20.9775  -28.5443 H   0  0  0  0  0  0  0  0  0  0  0  0
   -3.0632   20.1515  -29.7669 H   0  0  0  0  0  0  0  0  0  0  0  0
   -1.8466   18.5697  -32.8655 H   0  0  0  0  0  0  0  0  0  0  0  0
   -3.0850   19.6482  -32.1110 H   0  0  0  0  0  0  0  0  0  0  0  0
   -1.7547   19.9390  -34.6539 H   0  0  0  0  0  0  0  0  0  0  0  0
   -3.0045   20.9914  -33.9093 H   0  0  0  0  0  0  0  0  0  0  0  0
   -1.1620   21.8020  -32.6010 H   0  0  0  0  0  0  0  0  0  0  0  0
   -3.0750   25.2950  -30.2430 H   0  0  0  0  0  0  0  0  0  0  0  0
   -8.0045   24.6536  -30.9581 H   0  0  0  0  0  0  0  0  0  0  0  0
   -9.5233   22.4050  -31.8705 H   0  0  0  0  0  0  0  0  0  0  0  0
   -9.3144   19.9975  -32.5689 H   0  0  0  0  0  0  0  0  0  0  0  0
   -7.9533   18.1634  -32.3197 H   0  0  0  0  0  0  0  0  0  0  0  0
   -6.3482   17.3293  -34.5355 H   0  0  0  0  0  0  0  0  0  0  0  0
   -5.7507   18.7511  -34.7391 H   0  0  0  0  0  0  0  0  0  0  0  0
   -5.4031   16.8558  -32.1346 H   0  0  0  0  0  0  0  0  0  0  0  0
   -4.6415   18.1952  -31.9212 H   0  0  0  0  0  0  0  0  0  0  0  0
   -5.0155   20.1711  -31.8504 H   0  0  0  0  0  0  0  0  0  0  0  0
  1  2  1  0
  2  3  1  0
  3  4  1  0
  4  5  2  0
  4  6  1  0
  6  7  1  0
  7  8  1  0
  8  9  1  0
  9 10  1  0
 10 11  2  0
 10 12  1  0
 12 13  1  0
 13 14  1  0
 14 15  2  0
 14 16  1  0
 16 17  1  0
 17 18  1  0
 18 19  1  0
 12 20  1  0
 20 21  2  0
 20 22  1  0
 22 23  1  0
 23 24  1  0
 24 25  1  0
 24 26  2  0
 23 27  2  0
 27 28  1  0
 28 29  2  0
 29 30  1  0
 30 31  2  0
 31 32  1  0
 32 33  1  0
 33 34  1  0
 31 35  1  0
 35 36  2  0
  7  2  2  0
 36 22  1  0
 36 28  1  0
 34 32  1  0
  1 37  1  0
  1 38  1  0
  1 39  1  0
  8 40  1  0
  8 41  1  0
 13 42  1  0
 13 43  1  0
 17 44  1  0
 17 45  1  0
 18 46  1  0
 18 47  1  0
 19 48  1  0
 25 49  1  0
 27 50  1  0
 29 51  1  0
 30 52  1  0
 32 53  1  0
 33 54  1  0
 33 55  1  0
 34 56  1  0
 34 57  1  0
 35 58  1  0
M  CHG  2  16  -1  25  -1
M  END
>  <UniqueID>  (19) 
19

>  <SMILES>  (19) 
Cc1oc(=O)oc1COC(=O)N(CC(=O)[N-]CCO)C(=O)n1c(C([NH-])=O)cc2ccc(C3CC3)cc21

>  <Energy>  (19) 
391.4026511946914

>  <Genealogy>  (19) 
Cc1oc(=O)oc1COC(=O)N(CC(=O)[N-]CCO)C(=O)n1c(C([NH-])=O)cc2ccc(C3CC3)cc21 (protonated)
Cc1oc(=O)oc1COC(=O)N(CC(=O)[N-]CCO)C(=O)n1c(C([NH-])=O)cc2ccc(C3CC3)cc21 (3D coordinates assigned)
Cc1oc(=O)oc1COC(=O)N(CC(=O)[N-]CCO)C(=O)n1c(C([NH-])=O)cc2ccc(C3CC3)cc21 (nonaromatic ring conformer: 391.4026511946914 kcal/mol)

>  <smiles>  (19) 
Cc1oc(=O)oc1COC(=O)N(CC(=O)NCCO)C(=O)n1c(C(N)=O)cc2ccc(C3CC3)cc21

>  <score_type>  (19) 
oracle

>  <origin>  (19) 
adg

>  <m_score__min__energy>  (19) 
-12.609999999999999

>  <m_primary>  (19) 
energy

$$$$
20:0
     RDKit          3D

 50 52  0  0  0  0  0  0  0  0999 V2000
   -6.8090   17.6390  -32.0090 C   0  0  0  0  0  0  0  0  0  0  0  0
   -7.5190   18.5690  -32.9870 C   0  0  0  0  0  0  0  0  0  0  0  0
   -7.5550   19.9750  -32.4530 C   0  0  0  0  0  0  0  0  0  0  0  0
   -8.7900   20.6590  -32.3320 C   0  0  0  0  0  0  0  0  0  0  0  0
   -8.8320   21.9810  -31.8560 C   0  0  0  0  0  0  0  0  0  0  0  0
   -7.6260   22.5950  -31.5300 C   0  0  0  0  0  0  0  0  0  0  0  0
   -7.3780   23.8550  -31.0360 C   0  0  0  0  0  0  0  0  0  0  0  0
   -5.9940   23.9330  -30.8950 C   0  0  0  0  0  0  0  0  0  0  0  0
   -5.2840   25.1440  -30.4330 C   0  0  0  0  0  0  0  0  0  0  0  0
   -3.8810   25.2700  -30.6520 N   0  0  0  0  0  0  0  0  0  0  0  0
   -5.8980   26.0650  -29.8340 O   0  0  0  0  0  0  0  0  0  0  0  0
   -5.4100   22.7660  -31.2890 N   0  0  0  0  0  0  0  0  0  0  0  0
   -4.0090   22.4430  -31.2850 C   0  0  0  0  0  0  0  0  0  0  0  0
   -3.5430   21.7200  -32.2100 O   0  0  0  0  0  0  0  0  0  0  0  0
   -3.1700   22.8440  -30.1750 N   0  0  2  0  0  0  0  0  0  0  0  0
   -1.7300   22.6050  -30.4690 C   0  0  0  0  0  0  0  0  0  0  0  0
   -0.8520   22.5340  -29.1970 C   0  0  0  0  0  0  0  0  0  0  0  0
   -1.4990   23.2830  -28.0210 C   0  0  2  0  0  0  0  0  0  0  0  0
   -0.5870   23.3880  -26.7700 C   0  0  0  0  0  0  0  0  0  0  0  0
    0.5290   24.4480  -26.8270 C   0  0  0  0  0  0  0  0  0  0  0  0
    0.7290   24.9240  -28.1280 O   0  0  0  0  0  0  0  0  0  0  0  0
   -2.8980   22.7050  -27.6990 C   0  0  0  0  0  0  0  0  0  0  0  0
   -3.6050   22.1420  -28.9510 C   0  0  0  0  0  0  0  0  0  0  0  0
   -6.4210   21.9570  -31.6720 C   0  0  0  0  0  0  0  0  0  0  0  0
   -6.3510   20.6350  -32.1220 C   0  0  0  0  0  0  0  0  0  0  0  0
   -7.0419   17.9441  -30.9781 H   0  0  0  0  0  0  0  0  0  0  0  0
   -7.1504   16.6060  -32.1717 H   0  0  0  0  0  0  0  0  0  0  0  0
   -5.7226   17.6961  -32.1717 H   0  0  0  0  0  0  0  0  0  0  0  0
   -6.9824   18.5611  -33.9472 H   0  0  0  0  0  0  0  0  0  0  0  0
   -8.5518   18.2162  -33.1241 H   0  0  0  0  0  0  0  0  0  0  0  0
   -9.7243   20.1509  -32.6131 H   0  0  0  0  0  0  0  0  0  0  0  0
   -9.7880   22.5136  -31.7446 H   0  0  0  0  0  0  0  0  0  0  0  0
   -8.1165   24.6359  -30.8018 H   0  0  0  0  0  0  0  0  0  0  0  0
   -3.4950   26.0520  -31.2270 H   0  0  0  0  0  0  0  0  0  0  0  0
   -3.3100   23.8720  -30.0240 H   0  0  0  0  0  0  0  0  0  0  0  0
   -1.6373   21.6525  -31.0114 H   0  0  0  0  0  0  0  0  0  0  0  0
   -1.3724   23.4569  -31.0660 H   0  0  0  0  0  0  0  0  0  0  0  0
   -0.7146   21.4793  -28.9164 H   0  0  0  0  0  0  0  0  0  0  0  0
    0.1144   23.0104  -29.4187 H   0  0  0  0  0  0  0  0  0  0  0  0
   -1.6364   24.3242  -28.3481 H   0  0  0  0  0  0  0  0  0  0  0  0
   -1.2275   23.6216  -25.9068 H   0  0  0  0  0  0  0  0  0  0  0  0
   -0.0692   22.4199  -26.7020 H   0  0  0  0  0  0  0  0  0  0  0  0
    0.2519   25.2918  -26.1780 H   0  0  0  0  0  0  0  0  0  0  0  0
    1.4640   23.9781  -26.4878 H   0  0  0  0  0  0  0  0  0  0  0  0
    1.5840   25.4300  -28.1170 H   0  0  0  0  0  0  0  0  0  0  0  0
   -2.7848   21.8952  -26.9632 H   0  0  0  0  0  0  0  0  0  0  0  0
   -3.5167   23.5246  -27.3047 H   0  0  0  0  0  0  0  0  0  0  0  0
   -3.3655   21.0727  -29.0471 H   0  0  0  0  0  0  0  0  0  0  0  0
   -4.6887   22.2895  -28.8331 H   0  0  0  0  0  0  0  0  0  0  0  0
   -5.3825   20.1219  -32.2159 H   0  0  0  0  0  0  0  0  0  0  0  0
  1  2  1  0
  2  3  1  0
  3  4  2  0
  4  5  1  0
  5  6  2  0
  6  7  1  0
  7  8  2  0
  8  9  1  0
  9 10  1  0
  9 11  2  0
  8 12  1  0
 12 13  1  0
 13 14  2  0
 13 15  1  0
 15 16  1  0
 16 17  1  0
 17 18  1  0
 18 19  1  0
 19 20  1  0
 20 21  1  0
 18 22  1  0
 22 23  1  0
 12 24  1  0
 24 25  2  0
 25  3  1  0
 24  6  1  0
 23 15  1  0
  1 26  1  0
  1 27  1  0
  1 28  1  0
  2 29  1  0
  2 30  1  0
  4 31  1  0
  5 32  1  0
  7 33  1  0
 10 34  1  0
 15 35  1  1
 16 36  1  0
 16 37  1  0
 17 38  1  0
 17 39  1  0
 18 40  1  6
 19 41  1  0
 19 42  1  0
 20 43  1  0
 20 44  1  0
 21 45  1  0
 22 46  1  0
 22 47  1  0
 23 48  1  0
 23 49  1  0
 25 50  1  0
M  CHG  2  10  -1  15   1
M  END
>  <UniqueID>  (20) 
20

>  <SMILES>  (20) 
CCc1ccc2cc(C([NH-])=O)n(C(=O)[NH+]3CCC(CCO)CC3)c2c1

>  <Energy>  (20) 
94.68226371296338

>  <Genealogy>  (20) 
CCc1ccc2cc(C([NH-])=O)n(C(=O)[NH+]3CCC(CCO)CC3)c2c1 (protonated)
CCc1ccc2cc(C([NH-])=O)n(C(=O)[NH+]3CCC(CCO)CC3)c2c1 (3D coordinates assigned)
CCc1ccc2cc(C([NH-])=O)n(C(=O)[NH+]3CCC(CCO)CC3)c2c1 (nonaromatic ring conformer: 94.68226371296338 kcal/mol)

>  <smiles>  (20) 
CCc1ccc2cc(C(N)=O)n(C(=O)N3CCC(CCO)CC3)c2c1

>  <score_type>  (20) 
oracle

>  <origin>  (20) 
adg

>  <m_score__min__energy>  (20) 
-10.84

>  <m_primary>  (20) 
energy

$$$$
21:0
     RDKit          3D

 32 33  0  0  0  0  0  0  0  0999 V2000
   -4.0140   25.6430  -30.8460 N   0  0  0  0  0  0  0  0  0  0  0  0
   -5.3620   25.2950  -30.5400 C   0  0  0  0  0  0  0  0  0  0  0  0
   -6.0600   26.0810  -29.8470 O   0  0  0  0  0  0  0  0  0  0  0  0
   -5.9300   24.0010  -30.9750 C   0  0  0  0  0  0  0  0  0  0  0  0
   -7.2680   23.8320  -31.3250 C   0  0  0  0  0  0  0  0  0  0  0  0
   -7.4120   22.4860  -31.5740 C   0  0  0  0  0  0  0  0  0  0  0  0
   -8.5310   21.7660  -31.9800 C   0  0  0  0  0  0  0  0  0  0  0  0
   -8.3840   20.3860  -32.1970 C   0  0  0  0  0  0  0  0  0  0  0  0
   -7.1320   19.7490  -31.9950 C   0  0  0  0  0  0  0  0  0  0  0  0
   -6.9720   18.2800  -32.2920 C   0  0  0  0  0  0  0  0  0  0  0  0
   -6.3580   18.1280  -33.5200 F   0  0  0  0  0  0  0  0  0  0  0  0
   -6.1980   17.6670  -31.3220 F   0  0  0  0  0  0  0  0  0  0  0  0
   -8.2050   17.6510  -32.3220 F   0  0  0  0  0  0  0  0  0  0  0  0
   -6.0130   20.5200  -31.6050 C   0  0  0  0  0  0  0  0  0  0  0  0
   -6.1930   21.8910  -31.3780 C   0  0  0  0  0  0  0  0  0  0  0  0
   -5.2700   22.8080  -31.0150 N   0  0  0  0  0  0  0  0  0  0  0  0
   -3.8720   22.5660  -30.8010 C   0  0  0  0  0  0  0  0  0  0  0  0
   -3.0800   22.5430  -31.7830 O   0  0  0  0  0  0  0  0  0  0  0  0
   -3.4000   22.3280  -29.5050 O   0  0  0  0  0  0  0  0  0  0  0  0
   -3.1170   23.3630  -28.5680 C   0  0  0  0  0  0  0  0  0  0  0  0
   -1.4630   24.0580  -28.8730 P   0  0  2  0  0  0  0  0  0  0  0  0
   -0.6240   23.9690  -27.6190 O   0  0  0  0  0  0  0  0  0  0  0  0
   -1.6180   25.6800  -29.3270 O   0  0  0  0  0  0  0  0  0  0  0  0
   -0.7140   23.1940  -30.1190 O   0  0  0  0  0  0  0  0  0  0  0  0
   -3.2240   25.0060  -30.5990 H   0  0  0  0  0  0  0  0  0  0  0  0
   -8.0441   24.6089  -31.3888 H   0  0  0  0  0  0  0  0  0  0  0  0
   -9.5016   22.2624  -32.1267 H   0  0  0  0  0  0  0  0  0  0  0  0
   -9.2491   19.7923  -32.5273 H   0  0  0  0  0  0  0  0  0  0  0  0
   -5.0239   20.0544  -31.4826 H   0  0  0  0  0  0  0  0  0  0  0  0
   -3.8692   24.1592  -28.6690 H   0  0  0  0  0  0  0  0  0  0  0  0
   -3.1462   22.9429  -27.5518 H   0  0  0  0  0  0  0  0  0  0  0  0
   -1.4030   22.5560  -30.4340 H   0  0  0  0  0  0  0  0  0  0  0  0
  1  2  1  0
  2  3  2  0
  2  4  1  0
  4  5  2  0
  5  6  1  0
  6  7  2  0
  7  8  1  0
  8  9  2  0
  9 10  1  0
 10 11  1  0
 10 12  1  0
 10 13  1  0
  9 14  1  0
 14 15  2  0
 15 16  1  0
 16 17  1  0
 17 18  2  0
 17 19  1  0
 19 20  1  0
 20 21  1  0
 21 22  2  0
 21 23  1  6
 21 24  1  0
 16  4  1  0
 15  6  1  0
  1 25  1  0
  5 26  1  0
  7 27  1  0
  8 28  1  0
 14 29  1  0
 20 30  1  0
 20 31  1  0
 24 32  1  0
M  CHG  2   1  -1  23  -1
M  END
>  <UniqueID>  (21) 
21

>  <SMILES>  (21) 
[NH-]C(=O)c1cc2ccc(C(F)(F)F)cc2n1C(=O)OC[P@](=O)([O-])O

>  <Energy>  (21) 
66.16716021887731

>  <Genealogy>  (21) 
[NH-]C(=O)c1cc2ccc(C(F)(F)F)cc2n1C(=O)OCP(=O)([O-])O (protonated)
[NH-]C(=O)c1cc2ccc(C(F)(F)F)cc2n1C(=O)OC[P@](=O)([O-])O (chirality)
[NH-]C(=O)c1cc2ccc(C(F)(F)F)cc2n1C(=O)OC[P@](=O)([O-])O (3D coordinates assigned)
[NH-]C(=O)c1cc2ccc(C(F)(F)F)cc2n1C(=O)OC[P@](=O)([O-])O (optimized conformer: 66.16716021887731 kcal/mol)

>  <smiles>  (21) 
NC(=O)c1cc2ccc(C(F)(F)F)cc2n1C(=O)OCP(=O)(O)O

>  <score_type>  (21) 
oracle

>  <origin>  (21) 
adg

>  <m_score__min__energy>  (21) 
-12.109999999999999

>  <m_primary>  (21) 
energy

$$$$
22:0
     RDKit          3D

 33 34  0  0  0  0  0  0  0  0999 V2000
   -3.6490   24.8190  -29.9350 N   0  0  0  0  0  0  0  0  0  0  0  0
   -4.8980   24.9370  -30.6180 C   0  0  0  0  0  0  0  0  0  0  0  0
   -5.3460   26.0830  -30.8880 O   0  0  0  0  0  0  0  0  0  0  0  0
   -5.7030   23.7460  -30.9540 C   0  0  0  0  0  0  0  0  0  0  0  0
   -7.0780   23.7860  -31.1650 C   0  0  0  0  0  0  0  0  0  0  0  0
   -7.4480   22.4800  -31.3880 C   0  0  0  0  0  0  0  0  0  0  0  0
   -8.6990   21.9450  -31.6800 C   0  0  0  0  0  0  0  0  0  0  0  0
   -8.7870   20.5620  -31.9120 C   0  0  0  0  0  0  0  0  0  0  0  0
   -7.6330   19.7400  -31.8410 C   0  0  0  0  0  0  0  0  0  0  0  0
   -7.7300   18.2690  -32.1560 C   0  0  0  0  0  0  0  0  0  0  0  0
   -9.0160   17.8070  -31.9370 F   0  0  0  0  0  0  0  0  0  0  0  0
   -6.8560   17.5700  -31.3440 F   0  0  0  0  0  0  0  0  0  0  0  0
   -7.4040   18.0300  -33.4800 F   0  0  0  0  0  0  0  0  0  0  0  0
   -6.3750   20.3270  -31.5680 C   0  0  0  0  0  0  0  0  0  0  0  0
   -6.3200   21.7040  -31.3190 C   0  0  0  0  0  0  0  0  0  0  0  0
   -5.2360   22.4700  -31.0560 N   0  0  0  0  0  0  0  0  0  0  0  0
   -3.8640   22.0420  -31.0230 C   0  0  0  0  0  0  0  0  0  0  0  0
   -3.2890   21.6770  -32.0850 O   0  0  0  0  0  0  0  0  0  0  0  0
   -3.1690   22.0330  -29.8090 O   0  0  0  0  0  0  0  0  0  0  0  0
   -1.7540   22.1540  -29.7300 C   0  0  0  0  0  0  0  0  0  0  0  0
   -1.3830   23.4160  -30.2280 O   0  0  0  0  0  0  0  0  0  0  0  0
   -1.0530   24.4360  -28.9030 P   0  0  0  0  0  0  0  0  0  0  0  0
   -2.0070   24.1070  -27.7790 O   0  0  0  0  0  0  0  0  0  0  0  0
    0.5340   24.1990  -28.3670 O   0  0  0  0  0  0  0  0  0  0  0  0
   -1.2630   26.0560  -29.3480 O   0  0  0  0  0  0  0  0  0  0  0  0
   -3.3290   23.9030  -29.5510 H   0  0  0  0  0  0  0  0  0  0  0  0
   -3.0740   25.6690  -29.7430 H   0  0  0  0  0  0  0  0  0  0  0  0
   -7.7295   24.6723  -31.1555 H   0  0  0  0  0  0  0  0  0  0  0  0
   -9.5920   22.5855  -31.7277 H   0  0  0  0  0  0  0  0  0  0  0  0
   -9.7616   20.1116  -32.1514 H   0  0  0  0  0  0  0  0  0  0  0  0
   -5.4607   19.7156  -31.5517 H   0  0  0  0  0  0  0  0  0  0  0  0
   -1.4319   22.0597  -28.6824 H   0  0  0  0  0  0  0  0  0  0  0  0
   -1.2753   21.3606  -30.3228 H   0  0  0  0  0  0  0  0  0  0  0  0
  1  2  1  0
  2  3  2  0
  2  4  1  0
  4  5  2  0
  5  6  1  0
  6  7  2  0
  7  8  1  0
  8  9  2  0
  9 10  1  0
 10 11  1  0
 10 12  1  0
 10 13  1  0
  9 14  1  0
 14 15  2  0
 15 16  1  0
 16 17  1  0
 17 18  2  0
 17 19  1  0
 19 20  1  0
 20 21  1  0
 21 22  1  0
 22 23  2  0
 22 24  1  0
 22 25  1  0
 16  4  1  0
 15  6  1  0
  1 26  1  0
  1 27  1  0
  5 28  1  0
  7 29  1  0
  8 30  1  0
 14 31  1  0
 20 32  1  0
 20 33  1  0
M  CHG  2  24  -1  25  -1
M  END
>  <UniqueID>  (22) 
22

>  <SMILES>  (22) 
NC(=O)c1cc2ccc(C(F)(F)F)cc2n1C(=O)OCOP(=O)([O-])[O-]

>  <Energy>  (22) 
70.0611979798885

>  <Genealogy>  (22) 
NC(=O)c1cc2ccc(C(F)(F)F)cc2n1C(=O)OCOP(=O)([O-])[O-] (protonated)
NC(=O)c1cc2ccc(C(F)(F)F)cc2n1C(=O)OCOP(=O)([O-])[O-] (3D coordinates assigned)
NC(=O)c1cc2ccc(C(F)(F)F)cc2n1C(=O)OCOP(=O)([O-])[O-] (optimized conformer: 70.0611979798885 kcal/mol)

>  <smiles>  (22) 
NC(=O)c1cc2ccc(C(F)(F)F)cc2n1C(=O)OCOP(=O)(O)O

>  <score_type>  (22) 
oracle

>  <origin>  (22) 
adg

>  <m_score__min__energy>  (22) 
-12.01

>  <m_primary>  (22) 
energy

$$$$
23:0
     RDKit          3D

 34 35  0  0  0  0  0  0  0  0999 V2000
   -3.8720   25.6730  -30.8480 N   0  0  0  0  0  0  0  0  0  0  0  0
   -5.2040   25.3150  -30.4860 C   0  0  0  0  0  0  0  0  0  0  0  0
   -5.9030   26.1270  -29.8230 O   0  0  0  0  0  0  0  0  0  0  0  0
   -5.7910   24.0330  -30.9280 C   0  0  0  0  0  0  0  0  0  0  0  0
   -7.1630   23.8110  -31.0250 C   0  0  0  0  0  0  0  0  0  0  0  0
   -7.2910   22.5480  -31.5550 C   0  0  0  0  0  0  0  0  0  0  0  0
   -8.4340   21.8120  -31.8520 C   0  0  0  0  0  0  0  0  0  0  0  0
   -8.2700   20.5150  -32.3640 C   0  0  0  0  0  0  0  0  0  0  0  0
   -6.9740   19.9760  -32.5610 C   0  0  0  0  0  0  0  0  0  0  0  0
   -6.8020   18.5810  -33.0930 C   0  0  0  0  0  0  0  0  0  0  0  0
   -6.2120   17.7860  -32.1270 F   0  0  0  0  0  0  0  0  0  0  0  0
   -5.9990   18.6060  -34.2180 F   0  0  0  0  0  0  0  0  0  0  0  0
   -5.8360   20.7510  -32.2470 C   0  0  0  0  0  0  0  0  0  0  0  0
   -6.0300   22.0470  -31.7560 C   0  0  0  0  0  0  0  0  0  0  0  0
   -5.0970   22.9480  -31.3730 N   0  0  0  0  0  0  0  0  0  0  0  0
   -3.6770   22.7450  -31.3400 C   0  0  0  0  0  0  0  0  0  0  0  0
   -3.0840   22.3070  -32.3640 O   0  0  0  0  0  0  0  0  0  0  0  0
   -2.9700   23.0090  -30.1590 O   0  0  0  0  0  0  0  0  0  0  0  0
   -1.6270   22.6800  -29.9350 C   0  0  0  0  0  0  0  0  0  0  0  0
   -0.9580   22.0420  -30.7930 O   0  0  0  0  0  0  0  0  0  0  0  0
   -0.9670   23.1290  -28.6690 C   0  0  0  0  0  0  0  0  0  0  0  0
   -1.5130   24.4820  -28.2070 C   0  0  0  0  0  0  0  0  0  0  0  0
   -1.5420   25.3960  -29.2710 O   0  0  0  0  0  0  0  0  0  0  0  0
   -3.0560   25.1180  -30.5080 H   0  0  0  0  0  0  0  0  0  0  0  0
   -7.9719   24.4993  -30.7387 H   0  0  0  0  0  0  0  0  0  0  0  0
   -9.4369   22.2341  -31.6903 H   0  0  0  0  0  0  0  0  0  0  0  0
   -9.1551   19.9118  -32.6145 H   0  0  0  0  0  0  0  0  0  0  0  0
   -7.7880   18.1707  -33.3564 H   0  0  0  0  0  0  0  0  0  0  0  0
   -4.8226   20.3461  -32.3849 H   0  0  0  0  0  0  0  0  0  0  0  0
   -1.1516   22.3810  -27.8838 H   0  0  0  0  0  0  0  0  0  0  0  0
    0.1112   23.2361  -28.8586 H   0  0  0  0  0  0  0  0  0  0  0  0
   -2.5337   24.3461  -27.8201 H   0  0  0  0  0  0  0  0  0  0  0  0
   -0.8551   24.8779  -27.4193 H   0  0  0  0  0  0  0  0  0  0  0  0
   -1.9460   24.9200  -30.0450 H   0  0  0  0  0  0  0  0  0  0  0  0
  1  2  1  0
  2  3  2  0
  2  4  1  0
  4  5  2  0
  5  6  1  0
  6  7  2  0
  7  8  1  0
  8  9  2  0
  9 10  1  0
 10 11  1  0
 10 12  1  0
  9 13  1  0
 13 14  2  0
 14 15  1  0
 15 16  1  0
 16 17  2  0
 16 18  1  0
 18 19  1  0
 19 20  2  0
 19 21  1  0
 21 22  1  0
 22 23  1  0
 15  4  1  0
 14  6  1  0
  1 24  1  0
  5 25  1  0
  7 26  1  0
  8 27  1  0
 10 28  1  0
 13 29  1  0
 21 30  1  0
 21 31  1  0
 22 32  1  0
 22 33  1  0
 23 34  1  0
M  CHG  1   1  -1
M  END
>  <UniqueID>  (23) 
23

>  <SMILES>  (23) 
[NH-]C(=O)c1cc2ccc(C(F)F)cc2n1C(=O)OC(=O)CCO

>  <Energy>  (23) 
70.23188695885753

>  <Genealogy>  (23) 
[NH-]C(=O)c1cc2ccc(C(F)F)cc2n1C(=O)OC(=O)CCO (protonated)
[NH-]C(=O)c1cc2ccc(C(F)F)cc2n1C(=O)OC(=O)CCO (3D coordinates assigned)
[NH-]C(=O)c1cc2ccc(C(F)F)cc2n1C(=O)OC(=O)CCO (optimized conformer: 70.23188695885753 kcal/mol)

>  <smiles>  (23) 
NC(=O)c1cc2ccc(C(F)F)cc2n1C(=O)OC(=O)CCO

>  <score_type>  (23) 
oracle

>  <origin>  (23) 
adg

>  <m_score__min__energy>  (23) 
-9.8599999999999994

>  <m_primary>  (23) 
energy

$$$$
24:0
     RDKit          3D

 40 41  0  0  0  0  0  0  0  0999 V2000
   -6.6070   23.7720  -32.5590 N   0  0  0  0  0  0  0  0  0  0  0  0
   -7.2130   22.5760  -32.0600 C   0  0  0  0  0  0  0  0  0  0  0  0
   -8.2230   22.6650  -31.3130 O   0  0  0  0  0  0  0  0  0  0  0  0
   -6.6990   21.2490  -32.4520 C   0  0  0  0  0  0  0  0  0  0  0  0
   -7.5090   20.1610  -32.7710 C   0  0  0  0  0  0  0  0  0  0  0  0
   -6.6450   19.1020  -32.9440 C   0  0  0  0  0  0  0  0  0  0  0  0
   -6.9080   17.7740  -33.2630 C   0  0  0  0  0  0  0  0  0  0  0  0
   -5.8160   16.8950  -33.3830 C   0  0  0  0  0  0  0  0  0  0  0  0
   -4.4860   17.3620  -33.2050 C   0  0  0  0  0  0  0  0  0  0  0  0
   -3.3250   16.4060  -33.2970 C   0  0  0  0  0  0  0  0  0  0  0  0
   -3.0640   16.0770  -34.6150 F   0  0  0  0  0  0  0  0  0  0  0  0
   -3.6280   15.2520  -32.6000 F   0  0  0  0  0  0  0  0  0  0  0  0
   -2.1820   16.9720  -32.7550 F   0  0  0  0  0  0  0  0  0  0  0  0
   -4.2640   18.7130  -32.8510 C   0  0  0  0  0  0  0  0  0  0  0  0
   -5.3710   19.5610  -32.7310 C   0  0  0  0  0  0  0  0  0  0  0  0
   -5.3880   20.8770  -32.4340 N   0  0  0  0  0  0  0  0  0  0  0  0
   -4.2390   21.7250  -32.2690 C   0  0  0  0  0  0  0  0  0  0  0  0
   -3.9140   22.5270  -33.1880 O   0  0  0  0  0  0  0  0  0  0  0  0
   -3.4190   21.6630  -31.0070 C   0  0  0  0  0  0  0  0  0  0  0  0
   -3.2980   22.9850  -30.3480 N   0  0  0  0  0  0  0  0  0  0  0  0
   -2.3250   22.9350  -29.2320 C   0  0  0  0  0  0  0  0  0  0  0  0
   -1.4640   24.1570  -29.2320 C   0  0  0  0  0  0  0  0  0  0  0  0
   -1.9880   25.2960  -29.3310 O   0  0  0  0  0  0  0  0  0  0  0  0
   -0.0810   24.0390  -29.1570 O   0  0  0  0  0  0  0  0  0  0  0  0
   -4.5990   23.5710  -29.9350 C   0  0  0  0  0  0  0  0  0  0  0  0
   -4.8390   24.9630  -30.4520 C   0  0  0  0  0  0  0  0  0  0  0  0
   -3.8740   25.6680  -30.8530 O   0  0  0  0  0  0  0  0  0  0  0  0
   -6.1290   25.4760  -30.5000 O   0  0  0  0  0  0  0  0  0  0  0  0
   -7.0110   24.7040  -32.3170 H   0  0  0  0  0  0  0  0  0  0  0  0
   -5.7490   23.7400  -33.1530 H   0  0  0  0  0  0  0  0  0  0  0  0
   -8.6049   20.1500  -32.8647 H   0  0  0  0  0  0  0  0  0  0  0  0
   -7.9386   17.4216  -33.4168 H   0  0  0  0  0  0  0  0  0  0  0  0
   -5.9938   15.8350  -33.6171 H   0  0  0  0  0  0  0  0  0  0  0  0
   -3.2453   19.0886  -32.6741 H   0  0  0  0  0  0  0  0  0  0  0  0
   -3.8985   20.9621  -30.3079 H   0  0  0  0  0  0  0  0  0  0  0  0
   -2.4069   21.3297  -31.2800 H   0  0  0  0  0  0  0  0  0  0  0  0
   -2.8706   22.8767  -28.2786 H   0  0  0  0  0  0  0  0  0  0  0  0
   -1.6850   22.0492  -29.3578 H   0  0  0  0  0  0  0  0  0  0  0  0
   -5.4042   22.9208  -30.3076 H   0  0  0  0  0  0  0  0  0  0  0  0
   -4.5810   23.6398  -28.8373 H   0  0  0  0  0  0  0  0  0  0  0  0
  1  2  1  0
  2  3  2  0
  2  4  1  0
  4  5  2  0
  5  6  1  0
  6  7  2  0
  7  8  1  0
  8  9  2  0
  9 10  1  0
 10 11  1  0
 10 12  1  0
 10 13  1  0
  9 14  1  0
 14 15  2  0
 15 16  1  0
 16 17  1  0
 17 18  2  0
 17 19  1  0
 19 20  1  0
 20 21  1  0
 21 22  1  0
 22 23  2  0
 22 24  1  0
 20 25  1  0
 25 26  1  0
 26 27  2  0
 26 28  1  0
 16  4  1  0
 15  6  1  0
  1 29  1  0
  1 30  1  0
  5 31  1  0
  7 32  1  0
  8 33  1  0
 14 34  1  0
 19 35  1  0
 19 36  1  0
 21 37  1  0
 21 38  1  0
 25 39  1  0
 25 40  1  0
M  CHG  2  24  -1  28  -1
M  END
>  <UniqueID>  (24) 
24

>  <SMILES>  (24) 
NC(=O)c1cc2ccc(C(F)(F)F)cc2n1C(=O)CN(CC(=O)[O-])CC(=O)[O-]

>  <Energy>  (24) 
83.82562347766888

>  <Genealogy>  (24) 
NC(=O)c1cc2ccc(C(F)(F)F)cc2n1C(=O)CN(CC(=O)[O-])CC(=O)[O-] (protonated)
NC(=O)c1cc2ccc(C(F)(F)F)cc2n1C(=O)CN(CC(=O)[O-])CC(=O)[O-] (3D coordinates assigned)
NC(=O)c1cc2ccc(C(F)(F)F)cc2n1C(=O)CN(CC(=O)[O-])CC(=O)[O-] (optimized conformer: 83.82562347766888 kcal/mol)

>  <smiles>  (24) 
NC(=O)c1cc2ccc(C(F)(F)F)cc2n1C(=O)CN(CC(=O)O)CC(=O)O

>  <score_type>  (24) 
oracle

>  <origin>  (24) 
adg

>  <m_score__min__energy>  (24) 
-11.470000000000001

>  <m_primary>  (24) 
energy

$$$$
25:0
     RDKit          3D

 59 61  0  0  0  0  0  0  0  0999 V2000
   -0.5590   21.3160  -32.1390 C   0  0  0  0  0  0  0  0  0  0  0  0
   -2.0130   21.1710  -32.0450 N   0  0  0  0  0  0  0  0  0  0  0  0
   -2.6630   20.1870  -32.8650 C   0  0  0  0  0  0  0  0  0  0  0  0
   -3.1800   20.5260  -33.9640 O   0  0  0  0  0  0  0  0  0  0  0  0
   -2.6900   18.8120  -32.4560 N   0  0  0  0  0  0  0  0  0  0  0  0
   -3.5220   17.8250  -33.1480 C   0  0  0  0  0  0  0  0  0  0  0  0
   -4.9230   18.3780  -33.4400 C   0  0  0  0  0  0  0  0  0  0  0  0
   -5.8860   17.8470  -32.5450 O   0  0  0  0  0  0  0  0  0  0  0  0
   -7.1970   17.9540  -33.0660 C   0  0  0  0  0  0  0  0  0  0  0  0
   -8.0630   18.8330  -32.1990 C   0  0  0  0  0  0  0  0  0  0  0  0
   -9.0170   18.2930  -31.5710 O   0  0  0  0  0  0  0  0  0  0  0  0
   -7.8440   20.2580  -32.0830 N   0  0  0  0  0  0  0  0  0  0  0  0
   -8.9790   21.0930  -31.6610 C   0  0  0  0  0  0  0  0  0  0  0  0
   -8.5920   22.5670  -31.5880 C   0  0  0  0  0  0  0  0  0  0  0  0
   -7.2900   22.6750  -30.9340 N   0  0  0  0  0  0  0  0  0  0  0  0
   -6.2200   22.1690  -31.8070 C   0  0  0  0  0  0  0  0  0  0  0  0
   -6.6050   20.8830  -32.5810 C   0  0  0  0  0  0  0  0  0  0  0  0
   -2.7970   22.1880  -31.3860 C   0  0  0  0  0  0  0  0  0  0  0  0
   -3.4150   23.0520  -32.0640 O   0  0  0  0  0  0  0  0  0  0  0  0
   -2.7970   22.2960  -29.9560 N   0  0  0  0  0  0  0  0  0  0  0  0
   -3.5020   23.1630  -29.1810 C   0  0  0  0  0  0  0  0  0  0  0  0
   -4.3740   24.2470  -29.6780 C   0  0  0  0  0  0  0  0  0  0  0  0
   -3.8520   25.2990  -30.4900 N   0  0  0  0  0  0  0  0  0  0  0  0
   -5.5950   24.2570  -29.3580 O   0  0  0  0  0  0  0  0  0  0  0  0
   -3.3030   22.8810  -27.8300 C   0  0  0  0  0  0  0  0  0  0  0  0
   -2.4450   21.8020  -27.8050 C   0  0  0  0  0  0  0  0  0  0  0  0
   -1.9480   21.0710  -26.7310 C   0  0  0  0  0  0  0  0  0  0  0  0
   -1.1330   19.9580  -27.0100 C   0  0  0  0  0  0  0  0  0  0  0  0
   -0.8420   19.5900  -28.3480 C   0  0  0  0  0  0  0  0  0  0  0  0
    0.0300   18.3860  -28.6060 C   0  0  0  0  0  0  0  0  0  0  0  0
   -0.2510   17.8090  -29.8320 F   0  0  0  0  0  0  0  0  0  0  0  0
   -0.1810   17.4370  -27.6210 F   0  0  0  0  0  0  0  0  0  0  0  0
    1.3600   18.7700  -28.5880 F   0  0  0  0  0  0  0  0  0  0  0  0
   -1.3540   20.3690  -29.4130 C   0  0  0  0  0  0  0  0  0  0  0  0
   -2.1550   21.4720  -29.1030 C   0  0  0  0  0  0  0  0  0  0  0  0
   -0.1286   21.3589  -31.1276 H   0  0  0  0  0  0  0  0  0  0  0  0
   -0.1389   20.4553  -32.6800 H   0  0  0  0  0  0  0  0  0  0  0  0
   -0.3171   22.2427  -32.6800 H   0  0  0  0  0  0  0  0  0  0  0  0
   -2.0910   18.5170  -31.6520 H   0  0  0  0  0  0  0  0  0  0  0  0
   -3.0393   17.5538  -34.0985 H   0  0  0  0  0  0  0  0  0  0  0  0
   -3.6268   16.9443  -32.4974 H   0  0  0  0  0  0  0  0  0  0  0  0
   -4.9041   19.4730  -33.3369 H   0  0  0  0  0  0  0  0  0  0  0  0
   -5.2037   18.0868  -34.4630 H   0  0  0  0  0  0  0  0  0  0  0  0
   -7.1466   18.3860  -34.0763 H   0  0  0  0  0  0  0  0  0  0  0  0
   -7.6420   16.9484  -33.0936 H   0  0  0  0  0  0  0  0  0  0  0  0
   -9.7988   20.9741  -32.3847 H   0  0  0  0  0  0  0  0  0  0  0  0
   -9.2922   20.7683  -30.6578 H   0  0  0  0  0  0  0  0  0  0  0  0
   -8.5324   22.9853  -32.6036 H   0  0  0  0  0  0  0  0  0  0  0  0
   -9.3474   23.1261  -31.0163 H   0  0  0  0  0  0  0  0  0  0  0  0
   -7.1040   23.6870  -30.7440 H   0  0  0  0  0  0  0  0  0  0  0  0
   -5.9681   22.9519  -32.5375 H   0  0  0  0  0  0  0  0  0  0  0  0
   -5.3697   21.9119  -31.1582 H   0  0  0  0  0  0  0  0  0  0  0  0
   -6.7445   21.1409  -33.6412 H   0  0  0  0  0  0  0  0  0  0  0  0
   -5.7908   20.1574  -32.4376 H   0  0  0  0  0  0  0  0  0  0  0  0
   -3.1270   25.1050  -31.2200 H   0  0  0  0  0  0  0  0  0  0  0  0
   -3.7380   23.4074  -26.9676 H   0  0  0  0  0  0  0  0  0  0  0  0
   -2.1848   21.3543  -25.6948 H   0  0  0  0  0  0  0  0  0  0  0  0
   -0.7171   19.3670  -26.1807 H   0  0  0  0  0  0  0  0  0  0  0  0
   -1.1273   20.1129  -30.4585 H   0  0  0  0  0  0  0  0  0  0  0  0
  1  2  1  0
  2  3  1  0
  3  4  2  0
  3  5  1  0
  5  6  1  0
  6  7  1  0
  7  8  1  0
  8  9  1  0
  9 10  1  0
 10 11  2  0
 10 12  1  0
 12 13  1  0
 13 14  1  0
 14 15  1  0
 15 16  1  0
 16 17  1  0
  2 18  1  0
 18 19  2  0
 18 20  1  0
 20 21  1  0
 21 22  1  0
 22 23  1  0
 22 24  2  0
 21 25  2  0
 25 26  1  0
 26 27  2  0
 27 28  1  0
 28 29  2  0
 29 30  1  0
 30 31  1  0
 30 32  1  0
 30 33  1  0
 29 34  1  0
 34 35  2  0
 17 12  1  0
 35 20  1  0
 35 26  1  0
  1 36  1  0
  1 37  1  0
  1 38  1  0
  5 39  1  0
  6 40  1  0
  6 41  1  0
  7 42  1  0
  7 43  1  0
  9 44  1  0
  9 45  1  0
 13 46  1  0
 13 47  1  0
 14 48  1  0
 14 49  1  0
 15 50  1  0
 16 51  1  0
 16 52  1  0
 17 53  1  0
 17 54  1  0
 23 55  1  0
 25 56  1  0
 27 57  1  0
 28 58  1  0
 34 59  1  0
M  CHG  1  23  -1
M  END
>  <UniqueID>  (25) 
25

>  <SMILES>  (25) 
CN(C(=O)NCCOCC(=O)N1CCNCC1)C(=O)n1c(C([NH-])=O)cc2ccc(C(F)(F)F)cc21

>  <Energy>  (25) 
107.12383507359345

>  <Genealogy>  (25) 
CN(C(=O)NCCOCC(=O)N1CCNCC1)C(=O)n1c(C([NH-])=O)cc2ccc(C(F)(F)F)cc21 (protonated)
CN(C(=O)NCCOCC(=O)N1CCNCC1)C(=O)n1c(C([NH-])=O)cc2ccc(C(F)(F)F)cc21 (3D coordinates assigned)
CN(C(=O)NCCOCC(=O)N1CCNCC1)C(=O)n1c(C([NH-])=O)cc2ccc(C(F)(F)F)cc21 (nonaromatic ring conformer: 107.12383507359345 kcal/mol)

>  <smiles>  (25) 
CN(C(=O)NCCOCC(=O)N1CCNCC1)C(=O)n1c(C(N)=O)cc2ccc(C(F)(F)F)cc21

>  <score_type>  (25) 
oracle

>  <origin>  (25) 
adg

>  <m_score__min__energy>  (25) 
-11.94

>  <m_primary>  (25) 
energy

$$$$
26:0
     RDKit          3D

 44 45  0  0  0  0  0  0  0  0999 V2000
   -5.1100   24.7590  -29.1680 N   0  0  0  0  0  0  0  0  0  0  0  0
   -6.3560   24.5420  -29.8330 C   0  0  0  0  0  0  0  0  0  0  0  0
   -7.2510   25.4260  -29.7630 O   0  0  0  0  0  0  0  0  0  0  0  0
   -6.5890   23.3100  -30.6200 C   0  0  0  0  0  0  0  0  0  0  0  0
   -7.7980   22.6160  -30.6460 C   0  0  0  0  0  0  0  0  0  0  0  0
   -7.5610   21.5000  -31.4170 C   0  0  0  0  0  0  0  0  0  0  0  0
   -8.4250   20.4780  -31.8000 C   0  0  0  0  0  0  0  0  0  0  0  0
   -7.9230   19.4730  -32.6430 C   0  0  0  0  0  0  0  0  0  0  0  0
   -6.5730   19.4980  -33.0790 C   0  0  0  0  0  0  0  0  0  0  0  0
   -6.0660   18.4510  -34.0350 C   0  0  0  0  0  0  0  0  0  0  0  0
   -6.8490   17.3170  -33.9250 F   0  0  0  0  0  0  0  0  0  0  0  0
   -4.7520   18.1210  -33.7470 F   0  0  0  0  0  0  0  0  0  0  0  0
   -6.1210   18.9110  -35.3400 F   0  0  0  0  0  0  0  0  0  0  0  0
   -5.7340   20.5660  -32.6840 C   0  0  0  0  0  0  0  0  0  0  0  0
   -6.2560   21.5430  -31.8290 C   0  0  0  0  0  0  0  0  0  0  0  0
   -5.6450   22.6490  -31.3500 N   0  0  0  0  0  0  0  0  0  0  0  0
   -4.2900   23.0500  -31.6010 C   0  0  0  0  0  0  0  0  0  0  0  0
   -3.8660   24.1510  -31.1530 O   0  0  0  0  0  0  0  0  0  0  0  0
   -3.4470   22.2180  -32.3460 O   0  0  0  0  0  0  0  0  0  0  0  0
   -2.4830   21.3570  -31.7450 C   0  0  0  0  0  0  0  0  0  0  0  0
   -1.7500   22.0570  -30.7440 O   0  0  0  0  0  0  0  0  0  0  0  0
   -1.3000   21.4490  -29.5680 C   0  0  0  0  0  0  0  0  0  0  0  0
   -0.2030   20.8270  -29.5420 O   0  0  0  0  0  0  0  0  0  0  0  0
   -2.1320   21.5450  -28.3250 C   0  0  0  0  0  0  0  0  0  0  0  0
   -3.1330   22.6190  -28.4130 N   0  0  0  0  0  0  0  0  0  0  0  0
   -2.9100   23.7110  -27.4480 C   0  0  0  0  0  0  0  0  0  0  0  0
   -2.1220   24.8790  -28.0530 C   0  0  0  0  0  0  0  0  0  0  0  0
   -2.3630   24.9400  -29.4300 O   0  0  0  0  0  0  0  0  0  0  0  0
   -4.3640   24.0310  -29.1640 H   0  0  0  0  0  0  0  0  0  0  0  0
   -4.9440   25.6470  -28.6420 H   0  0  0  0  0  0  0  0  0  0  0  0
   -8.7406   22.8996  -30.1551 H   0  0  0  0  0  0  0  0  0  0  0  0
   -9.4687   20.4581  -31.4531 H   0  0  0  0  0  0  0  0  0  0  0  0
   -8.5844   18.6568  -32.9691 H   0  0  0  0  0  0  0  0  0  0  0  0
   -4.6952   20.6271  -33.0407 H   0  0  0  0  0  0  0  0  0  0  0  0
   -2.9981   20.5007  -31.2852 H   0  0  0  0  0  0  0  0  0  0  0  0
   -1.7851   21.0059  -32.5194 H   0  0  0  0  0  0  0  0  0  0  0  0
   -2.6511   20.5876  -28.1704 H   0  0  0  0  0  0  0  0  0  0  0  0
   -1.4609   21.7744  -27.4841 H   0  0  0  0  0  0  0  0  0  0  0  0
   -3.2000   22.9770  -29.3950 H   0  0  0  0  0  0  0  0  0  0  0  0
   -3.8866   24.0842  -27.1060 H   0  0  0  0  0  0  0  0  0  0  0  0
   -2.3175   23.3045  -26.6151 H   0  0  0  0  0  0  0  0  0  0  0  0
   -2.4423   25.8203  -27.5825 H   0  0  0  0  0  0  0  0  0  0  0  0
   -1.0471   24.7277  -27.8750 H   0  0  0  0  0  0  0  0  0  0  0  0
   -2.2040   24.0250  -29.7780 H   0  0  0  0  0  0  0  0  0  0  0  0
  1  2  1  0
  2  3  2  0
  2  4  1  0
  4  5  2  0
  5  6  1  0
  6  7  2  0
  7  8  1  0
  8  9  2  0
  9 10  1  0
 10 11  1  0
 10 12  1  0
 10 13  1  0
  9 14  1  0
 14 15  2  0
 15 16  1  0
 16 17  1  0
 17 18  2  0
 17 19  1  0
 19 20  1  0
 20 21  1  0
 21 22  1  0
 22 23  2  0
 22 24  1  0
 24 25  1  0
 25 26  1  0
 26 27  1  0
 27 28  1  0
 16  4  1  0
 15  6  1  0
  1 29  1  0
  1 30  1  0
  5 31  1  0
  7 32  1  0
  8 33  1  0
 14 34  1  0
 20 35  1  0
 20 36  1  0
 24 37  1  0
 24 38  1  0
 25 39  1  0
 26 40  1  0
 26 41  1  0
 27 42  1  0
 27 43  1  0
 28 44  1  0
M  END
>  <UniqueID>  (26) 
26

>  <SMILES>  (26) 
NC(=O)c1cc2ccc(C(F)(F)F)cc2n1C(=O)OCOC(=O)CNCCO

>  <Energy>  (26) 
78.49857108510632

>  <Genealogy>  (26) 
NC(=O)c1cc2ccc(C(F)(F)F)cc2n1C(=O)OCOC(=O)CNCCO (3D coordinates assigned)
NC(=O)c1cc2ccc(C(F)(F)F)cc2n1C(=O)OCOC(=O)CNCCO (optimized conformer: 78.49857108510632 kcal/mol)

>  <smiles>  (26) 
NC(=O)c1cc2ccc(C(F)(F)F)cc2n1C(=O)OCOC(=O)CNCCO

>  <score_type>  (26) 
oracle

>  <origin>  (26) 
adg

>  <m_score__min__energy>  (26) 
-7.3300000000000001

>  <m_primary>  (26) 
energy

$$$$
27:0
     RDKit          3D

 42 43  0  0  0  0  0  0  0  0999 V2000
   -0.9850   26.5420  -27.9160 C   0  0  0  0  0  0  0  0  0  0  0  0
   -1.5190   25.2940  -28.4450 N   0  0  0  0  0  0  0  0  0  0  0  0
   -0.6700   24.1790  -28.7450 C   0  0  0  0  0  0  0  0  0  0  0  0
    0.5760   24.2660  -28.5640 O   0  0  0  0  0  0  0  0  0  0  0  0
   -1.2510   22.9010  -29.2730 C   0  0  0  0  0  0  0  0  0  0  0  0
   -2.7280   22.9550  -29.2450 N   0  0  0  0  0  0  0  0  0  0  0  0
   -3.2010   22.8230  -27.8550 C   0  0  0  0  0  0  0  0  0  0  0  0
   -3.3160   21.8930  -30.0910 C   0  0  0  0  0  0  0  0  0  0  0  0
   -4.0000   22.5060  -31.2780 C   0  0  0  0  0  0  0  0  0  0  0  0
   -3.3500   22.6800  -32.3450 O   0  0  0  0  0  0  0  0  0  0  0  0
   -5.3750   22.9090  -31.2070 N   0  0  0  0  0  0  0  0  0  0  0  0
   -5.8730   24.1360  -30.8830 C   0  0  0  0  0  0  0  0  0  0  0  0
   -5.0860   25.3200  -30.4690 C   0  0  0  0  0  0  0  0  0  0  0  0
   -3.6620   25.2940  -30.4570 N   0  0  0  0  0  0  0  0  0  0  0  0
   -5.6820   26.3700  -30.1090 O   0  0  0  0  0  0  0  0  0  0  0  0
   -7.2660   24.1280  -30.9560 C   0  0  0  0  0  0  0  0  0  0  0  0
   -7.6060   22.8540  -31.3460 C   0  0  0  0  0  0  0  0  0  0  0  0
   -8.8560   22.2940  -31.5920 C   0  0  0  0  0  0  0  0  0  0  0  0
   -8.9060   20.9530  -32.0100 C   0  0  0  0  0  0  0  0  0  0  0  0
   -7.7150   20.2100  -32.1940 C   0  0  0  0  0  0  0  0  0  0  0  0
   -7.7880   18.7730  -32.6210 C   0  0  0  0  0  0  0  0  0  0  0  0
   -8.1480   17.9890  -31.5410 F   0  0  0  0  0  0  0  0  0  0  0  0
   -6.4640   20.8080  -31.9280 C   0  0  0  0  0  0  0  0  0  0  0  0
   -6.4460   22.1380  -31.4930 C   0  0  0  0  0  0  0  0  0  0  0  0
   -0.9987   26.5099  -26.8166 H   0  0  0  0  0  0  0  0  0  0  0  0
    0.0492   26.6759  -28.2660 H   0  0  0  0  0  0  0  0  0  0  0  0
   -1.6023   27.3825  -28.2660 H   0  0  0  0  0  0  0  0  0  0  0  0
   -2.5490   25.2150  -28.6020 H   0  0  0  0  0  0  0  0  0  0  0  0
   -0.9136   22.7505  -30.3091 H   0  0  0  0  0  0  0  0  0  0  0  0
   -0.9128   22.0674  -28.6399 H   0  0  0  0  0  0  0  0  0  0  0  0
   -2.3768   23.0530  -27.1638 H   0  0  0  0  0  0  0  0  0  0  0  0
   -4.0310   23.5238  -27.6820 H   0  0  0  0  0  0  0  0  0  0  0  0
   -3.5482   21.7937  -27.6820 H   0  0  0  0  0  0  0  0  0  0  0  0
   -2.5185   21.2191  -30.4373 H   0  0  0  0  0  0  0  0  0  0  0  0
   -4.0518   21.3262  -29.5017 H   0  0  0  0  0  0  0  0  0  0  0  0
   -3.1380   24.4620  -30.8090 H   0  0  0  0  0  0  0  0  0  0  0  0
   -7.9486   24.9646  -30.7459 H   0  0  0  0  0  0  0  0  0  0  0  0
   -9.7763   22.8826  -31.4633 H   0  0  0  0  0  0  0  0  0  0  0  0
   -9.8797   20.4763  -32.1959 H   0  0  0  0  0  0  0  0  0  0  0  0
   -8.5379   18.6651  -33.4185 H   0  0  0  0  0  0  0  0  0  0  0  0
   -6.8051   18.4516  -32.9959 H   0  0  0  0  0  0  0  0  0  0  0  0
   -5.5289   20.2438  -32.0591 H   0  0  0  0  0  0  0  0  0  0  0  0
  1  2  1  0
  2  3  1  0
  3  4  2  0
  3  5  1  0
  5  6  1  0
  6  7  1  0
  6  8  1  0
  8  9  1  0
  9 10  2  0
  9 11  1  0
 11 12  1  0
 12 13  1  0
 13 14  1  0
 13 15  2  0
 12 16  2  0
 16 17  1  0
 17 18  2  0
 18 19  1  0
 19 20  2  0
 20 21  1  0
 21 22  1  0
 20 23  1  0
 23 24  2  0
 24 11  1  0
 24 17  1  0
  1 25  1  0
  1 26  1  0
  1 27  1  0
  2 28  1  0
  5 29  1  0
  5 30  1  0
  7 31  1  0
  7 32  1  0
  7 33  1  0
  8 34  1  0
  8 35  1  0
 14 36  1  0
 16 37  1  0
 18 38  1  0
 19 39  1  0
 21 40  1  0
 21 41  1  0
 23 42  1  0
M  CHG  1  14  -1
M  END
>  <UniqueID>  (27) 
27

>  <SMILES>  (27) 
CNC(=O)CN(C)CC(=O)n1c(C([NH-])=O)cc2ccc(CF)cc21

>  <Energy>  (27) 
77.07039538097241

>  <Genealogy>  (27) 
CNC(=O)CN(C)CC(=O)n1c(C([NH-])=O)cc2ccc(CF)cc21 (protonated)
CNC(=O)CN(C)CC(=O)n1c(C([NH-])=O)cc2ccc(CF)cc21 (3D coordinates assigned)
CNC(=O)CN(C)CC(=O)n1c(C([NH-])=O)cc2ccc(CF)cc21 (optimized conformer: 77.07039538097241 kcal/mol)

>  <smiles>  (27) 
CNC(=O)CN(C)CC(=O)n1c(C(N)=O)cc2ccc(CF)cc21

>  <score_type>  (27) 
oracle

>  <origin>  (27) 
adg

>  <m_score__min__energy>  (27) 
-9.75

>  <m_primary>  (27) 
energy

$$$$
28:0
     RDKit          3D

 37 38  0  0  0  0  0  0  0  0999 V2000
   -2.9130   25.2650  -30.3890 H   0  0  0  0  0  0  0  0  0  0  0  0
   -3.8630   25.3700  -30.8100 N   0  0  0  0  0  0  0  0  0  0  0  0
   -5.0050   24.7790  -30.1970 C   0  0  0  0  0  0  0  0  0  0  0  0
   -5.5350   25.3460  -29.2050 O   0  0  0  0  0  0  0  0  0  0  0  0
   -5.5920   23.5280  -30.7250 C   0  0  0  0  0  0  0  0  0  0  0  0
   -6.8710   23.4450  -31.2750 C   0  0  0  0  0  0  0  0  0  0  0  0
   -7.6122   24.2529  -31.3640 H   0  0  0  0  0  0  0  0  0  0  0  0
   -7.0090   22.1370  -31.6830 C   0  0  0  0  0  0  0  0  0  0  0  0
   -8.0780   21.4980  -32.3020 C   0  0  0  0  0  0  0  0  0  0  0  0
   -9.0011   22.0445  -32.5454 H   0  0  0  0  0  0  0  0  0  0  0  0
   -7.9430   20.1330  -32.6070 C   0  0  0  0  0  0  0  0  0  0  0  0
   -8.7636   19.6058  -33.1157 H   0  0  0  0  0  0  0  0  0  0  0  0
   -6.7590   19.4260  -32.2660 C   0  0  0  0  0  0  0  0  0  0  0  0
   -6.6030   17.9690  -32.6400 C   0  0  0  0  0  0  0  0  0  0  0  0
   -5.7260   17.3440  -31.7680 F   0  0  0  0  0  0  0  0  0  0  0  0
   -7.8210   17.3160  -32.5590 F   0  0  0  0  0  0  0  0  0  0  0  0
   -6.0620   17.8450  -34.0630 C   0  0  0  0  0  0  0  0  0  0  0  0
   -4.9904   17.5994  -34.0277 H   0  0  0  0  0  0  0  0  0  0  0  0
   -6.6037   17.0477  -34.5930 H   0  0  0  0  0  0  0  0  0  0  0  0
   -6.2024   18.7986  -34.5930 H   0  0  0  0  0  0  0  0  0  0  0  0
   -5.6910   20.1170  -31.6490 C   0  0  0  0  0  0  0  0  0  0  0  0
   -4.7583   19.5950  -31.3891 H   0  0  0  0  0  0  0  0  0  0  0  0
   -5.8480   21.4790  -31.3770 C   0  0  0  0  0  0  0  0  0  0  0  0
   -4.9660   22.3210  -30.7970 N   0  0  0  0  0  0  0  0  0  0  0  0
   -3.6700   21.9710  -30.2830 C   0  0  0  0  0  0  0  0  0  0  0  0
   -3.4550   20.7910  -29.8990 O   0  0  0  0  0  0  0  0  0  0  0  0
   -2.5750   22.9580  -30.2090 C   0  0  0  0  0  0  0  0  0  0  0  0
   -2.1313   23.3265  -31.1457 H   0  0  0  0  0  0  0  0  0  0  0  0
   -2.1010   23.4220  -29.0470 C   0  0  0  0  0  0  0  0  0  0  0  0
   -2.5393   23.0489  -28.1096 H   0  0  0  0  0  0  0  0  0  0  0  0
   -1.0150   24.4130  -28.9760 C   0  0  0  0  0  0  0  0  0  0  0  0
    0.1930   24.0470  -28.9600 O   0  0  0  0  0  0  0  0  0  0  0  0
   -1.3440   25.7700  -28.9320 O   0  0  0  0  0  0  0  0  0  0  0  0
   -0.8890   26.6360  -27.8980 C   0  0  0  0  0  0  0  0  0  0  0  0
   -1.1222   26.1922  -26.9189 H   0  0  0  0  0  0  0  0  0  0  0  0
    0.1985   26.7748  -27.9880 H   0  0  0  0  0  0  0  0  0  0  0  0
   -1.3917   27.6103  -27.9880 H   0  0  0  0  0  0  0  0  0  0  0  0
  1  2  1  0
  2  3  1  0
  3  4  2  0
  3  5  1  0
  5  6  2  0
  6  7  1  0
  6  8  1  0
  8  9  2  0
  9 10  1  0
  9 11  1  0
 11 12  1  0
 11 13  2  0
 13 14  1  0
 14 15  1  0
 14 16  1  0
 14 17  1  0
 17 18  1  0
 17 19  1  0
 17 20  1  0
 13 21  1  0
 21 22  1  0
 21 23  2  0
 23 24  1  0
 24 25  1  0
 25 26  2  0
 25 27  1  0
 27 28  1  0
 27 29  2  0
 29 30  1  0
 29 31  1  0
 31 32  2  0
 31 33  1  0
 33 34  1  0
 34 35  1  0
 34 36  1  0
 34 37  1  0
 24  5  1  0
 23  8  1  0
M  CHG  1   2  -1
M  END
>  <UniqueID>  (28) 
28

>  <SMILES>  (28) 
COC(=O)/C=C/C(=O)n1c(C([NH-])=O)cc2ccc(C(C)(F)F)cc21

>  <Energy>  (28) 
70.93147232734239

>  <Genealogy>  (28) 
COC(=O)/C=C/C(=O)n1c(C([NH-])=O)cc2ccc(C(C)(F)F)cc21 (protonated)
COC(=O)/C=C/C(=O)n1c(C([NH-])=O)cc2ccc(C(C)(F)F)cc21 (cis-trans isomerization)
COC(=O)/C=C/C(=O)n1c(C([NH-])=O)cc2ccc(C(C)(F)F)cc21 (3D coordinates assigned)
COC(=O)/C=C/C(=O)n1c(C([NH-])=O)cc2ccc(C(C)(F)F)cc21 (optimized conformer: 70.93147232734239 kcal/mol)

>  <smiles>  (28) 
COC(=O)/C=C/C(=O)n1c(C(N)=O)cc2ccc(C(C)(F)F)cc21

>  <score_type>  (28) 
oracle

>  <origin>  (28) 
adg

>  <m_score__min__energy>  (28) 
-10.390000000000001

>  <m_primary>  (28) 
energy

$$$$
29:0
     RDKit          3D

 48 49  0  0  0  0  0  0  0  0999 V2000
   -3.2410   23.4770  -26.8630 C   0  0  0  0  0  0  0  0  0  0  0  0
   -1.7030   23.4100  -26.7610 C   0  0  0  0  0  0  0  0  0  0  0  0
   -1.2130   24.5770  -25.8750 C   0  0  0  0  0  0  0  0  0  0  0  0
   -1.3330   22.0760  -26.0700 C   0  0  0  0  0  0  0  0  0  0  0  0
   -1.0810   23.4650  -28.1990 C   0  0  1  0  0  0  0  0  0  0  0  0
   -2.0350   23.0140  -29.2240 N   0  0  0  0  0  0  0  0  0  0  0  0
   -2.5410   21.6720  -29.2860 C   0  0  0  0  0  0  0  0  0  0  0  0
   -2.3650   20.8770  -28.3220 O   0  0  0  0  0  0  0  0  0  0  0  0
   -3.2850   21.2020  -30.5010 C   0  0  0  0  0  0  0  0  0  0  0  0
   -3.8930   22.3410  -31.2760 C   0  0  0  0  0  0  0  0  0  0  0  0
   -3.1370   23.0980  -31.9420 O   0  0  0  0  0  0  0  0  0  0  0  0
   -5.3070   22.5960  -31.2590 N   0  0  0  0  0  0  0  0  0  0  0  0
   -5.9510   23.7790  -31.0590 C   0  0  0  0  0  0  0  0  0  0  0  0
   -5.3210   25.0420  -30.6310 C   0  0  0  0  0  0  0  0  0  0  0  0
   -3.9080   25.1390  -30.4820 N   0  0  0  0  0  0  0  0  0  0  0  0
   -6.0440   26.0350  -30.3430 O   0  0  0  0  0  0  0  0  0  0  0  0
   -7.3240   23.6240  -31.2390 C   0  0  0  0  0  0  0  0  0  0  0  0
   -7.5020   22.2930  -31.5450 C   0  0  0  0  0  0  0  0  0  0  0  0
   -8.6610   21.5930  -31.8610 C   0  0  0  0  0  0  0  0  0  0  0  0
   -8.5410   20.2300  -32.1820 C   0  0  0  0  0  0  0  0  0  0  0  0
   -7.2740   19.5890  -32.1670 C   0  0  0  0  0  0  0  0  0  0  0  0
   -7.1500   18.1440  -32.5790 C   0  0  0  0  0  0  0  0  0  0  0  0
   -6.1330   17.5500  -31.8560 F   0  0  0  0  0  0  0  0  0  0  0  0
   -8.3310   17.4650  -32.3370 F   0  0  0  0  0  0  0  0  0  0  0  0
   -6.8620   18.0440  -33.9290 F   0  0  0  0  0  0  0  0  0  0  0  0
   -6.1170   20.3430  -31.8640 C   0  0  0  0  0  0  0  0  0  0  0  0
   -6.2690   21.6950  -31.5440 C   0  0  0  0  0  0  0  0  0  0  0  0
   -0.5680   24.8370  -28.5680 C   0  0  0  0  0  0  0  0  0  0  0  0
    0.5610   25.2190  -28.1590 O   0  0  0  0  0  0  0  0  0  0  0  0
   -1.3390   25.6990  -29.3380 O   0  0  0  0  0  0  0  0  0  0  0  0
   -3.6750   23.4959  -25.8524 H   0  0  0  0  0  0  0  0  0  0  0  0
   -3.5332   24.3887  -27.4047 H   0  0  0  0  0  0  0  0  0  0  0  0
   -3.6114   22.5941  -27.4047 H   0  0  0  0  0  0  0  0  0  0  0  0
   -1.3270   24.3056  -24.8151 H   0  0  0  0  0  0  0  0  0  0  0  0
   -0.1535   24.7804  -26.0895 H   0  0  0  0  0  0  0  0  0  0  0  0
   -1.8097   25.4758  -26.0895 H   0  0  0  0  0  0  0  0  0  0  0  0
   -1.3691   22.2062  -24.9783 H   0  0  0  0  0  0  0  0  0  0  0  0
   -2.0489   21.2967  -26.3702 H   0  0  0  0  0  0  0  0  0  0  0  0
   -0.3179   21.7768  -26.3702 H   0  0  0  0  0  0  0  0  0  0  0  0
   -0.2236   22.7765  -28.1701 H   0  0  0  0  0  0  0  0  0  0  0  0
   -2.3490   23.6890  -29.9590 H   0  0  0  0  0  0  0  0  0  0  0  0
   -2.5862   20.6616  -31.1564 H   0  0  0  0  0  0  0  0  0  0  0  0
   -4.1042   20.5507  -30.1624 H   0  0  0  0  0  0  0  0  0  0  0  0
   -3.4870   25.6710  -29.6890 H   0  0  0  0  0  0  0  0  0  0  0  0
   -8.1000   24.3991  -31.1547 H   0  0  0  0  0  0  0  0  0  0  0  0
   -9.6419   22.0908  -31.8598 H   0  0  0  0  0  0  0  0  0  0  0  0
   -9.4390   19.6530  -32.4479 H   0  0  0  0  0  0  0  0  0  0  0  0
   -5.1209   19.8766  -31.8797 H   0  0  0  0  0  0  0  0  0  0  0  0
  1  2  1  0
  2  3  1  0
  2  4  1  0
  2  5  1  0
  5  6  1  0
  6  7  1  0
  7  8  2  0
  7  9  1  0
  9 10  1  0
 10 11  2  0
 10 12  1  0
 12 13  1  0
 13 14  1  0
 14 15  1  0
 14 16  2  0
 13 17  2  0
 17 18  1  0
 18 19  2  0
 19 20  1  0
 20 21  2  0
 21 22  1  0
 22 23  1  0
 22 24  1  0
 22 25  1  0
 21 26  1  0
 26 27  2  0
  5 28  1  0
 28 29  2  0
 28 30  1  0
 27 12  1  0
 27 18  1  0
  1 31  1  0
  1 32  1  0
  1 33  1  0
  3 34  1  0
  3 35  1  0
  3 36  1  0
  4 37  1  0
  4 38  1  0
  4 39  1  0
  5 40  1  1
  6 41  1  0
  9 42  1  0
  9 43  1  0
 15 44  1  0
 17 45  1  0
 19 46  1  0
 20 47  1  0
 26 48  1  0
M  CHG  2  15  -1  30  -1
M  END
>  <UniqueID>  (29) 
29

>  <SMILES>  (29) 
CC(C)(C)[C@@H](NC(=O)CC(=O)n1c(C([NH-])=O)cc2ccc(C(F)(F)F)cc21)C(=O)[O-]

>  <Energy>  (29) 
79.3726637314498

>  <Genealogy>  (29) 
CC(C)(C)C(NC(=O)CC(=O)n1c(C([NH-])=O)cc2ccc(C(F)(F)F)cc21)C(=O)[O-] (protonated)
CC(C)(C)[C@@H](NC(=O)CC(=O)n1c(C([NH-])=O)cc2ccc(C(F)(F)F)cc21)C(=O)[O-] (chirality)
CC(C)(C)[C@@H](NC(=O)CC(=O)n1c(C([NH-])=O)cc2ccc(C(F)(F)F)cc21)C(=O)[O-] (3D coordinates assigned)
CC(C)(C)[C@@H](NC(=O)CC(=O)n1c(C([NH-])=O)cc2ccc(C(F)(F)F)cc21)C(=O)[O-] (optimized conformer: 79.3726637314498 kcal/mol)

>  <smiles>  (29) 
CC(C)(C)C(NC(=O)CC(=O)n1c(C(N)=O)cc2ccc(C(F)(F)F)cc21)C(=O)O

>  <score_type>  (29) 
oracle

>  <origin>  (29) 
adg

>  <m_score__min__energy>  (29) 
-12.550000000000001

>  <m_primary>  (29) 
energy

$$$$
30:0
     RDKit          3D

 43 45  0  0  0  0  0  0  0  0999 V2000
   -8.9000   18.1750  -31.9540 C   0  0  0  0  0  0  0  0  0  0  0  0
   -7.8190   18.8950  -32.6390 N   0  0  0  0  0  0  0  0  0  0  0  0
   -7.7490   20.2540  -32.1620 C   0  0  0  0  0  0  0  0  0  0  0  0
   -8.9380   20.9880  -31.9150 C   0  0  0  0  0  0  0  0  0  0  0  0
   -8.8800   22.3230  -31.4760 C   0  0  0  0  0  0  0  0  0  0  0  0
   -7.6240   22.8950  -31.2960 C   0  0  0  0  0  0  0  0  0  0  0  0
   -7.2730   24.1670  -30.8970 C   0  0  0  0  0  0  0  0  0  0  0  0
   -5.8780   24.1870  -30.9150 C   0  0  0  0  0  0  0  0  0  0  0  0
   -5.0630   25.3770  -30.5910 C   0  0  0  0  0  0  0  0  0  0  0  0
   -3.6470   25.2890  -30.4740 N   0  0  0  0  0  0  0  0  0  0  0  0
   -5.6220   26.4900  -30.4230 O   0  0  0  0  0  0  0  0  0  0  0  0
   -5.3940   22.9780  -31.3090 N   0  0  0  0  0  0  0  0  0  0  0  0
   -4.0280   22.6050  -31.5190 C   0  0  0  0  0  0  0  0  0  0  0  0
   -3.1900   22.7570  -30.5870 O   0  0  0  0  0  0  0  0  0  0  0  0
   -3.5740   22.1220  -32.8590 C   0  0  0  0  0  0  0  0  0  0  0  0
   -2.7590   20.9760  -32.6940 O   0  0  0  0  0  0  0  0  0  0  0  0
   -3.5380   19.7980  -32.5520 C   0  0  0  0  0  0  0  0  0  0  0  0
   -4.3590   19.5160  -33.8180 C   0  0  0  0  0  0  0  0  0  0  0  0
   -5.1620   18.2610  -33.6720 C   0  0  0  0  0  0  0  0  0  0  0  0
   -6.1560   17.9090  -34.5160 N   0  0  0  0  0  0  0  0  0  0  0  0
   -6.5660   16.7220  -34.0280 C   0  0  0  0  0  0  0  0  0  0  0  0
   -5.8110   16.4010  -32.9220 C   0  0  0  0  0  0  0  0  0  0  0  0
   -4.9520   17.3690  -32.7300 O   0  0  0  0  0  0  0  0  0  0  0  0
   -6.4690   22.2010  -31.5410 C   0  0  0  0  0  0  0  0  0  0  0  0
   -6.4940   20.8780  -31.9870 C   0  0  0  0  0  0  0  0  0  0  0  0
   -8.7673   18.2634  -30.8656 H   0  0  0  0  0  0  0  0  0  0  0  0
   -9.8691   18.6086  -32.2416 H   0  0  0  0  0  0  0  0  0  0  0  0
   -8.8734   17.1136  -32.2416 H   0  0  0  0  0  0  0  0  0  0  0  0
   -6.9070   18.4070  -32.4760 H   0  0  0  0  0  0  0  0  0  0  0  0
   -8.0100   18.8900  -33.6690 H   0  0  0  0  0  0  0  0  0  0  0  0
   -9.9156   20.5078  -32.0685 H   0  0  0  0  0  0  0  0  0  0  0  0
   -9.7981   22.8967  -31.2811 H   0  0  0  0  0  0  0  0  0  0  0  0
   -7.9487   24.9906  -30.6229 H   0  0  0  0  0  0  0  0  0  0  0  0
   -3.0700   24.8300  -31.2100 H   0  0  0  0  0  0  0  0  0  0  0  0
   -4.4500   21.8643  -33.4724 H   0  0  0  0  0  0  0  0  0  0  0  0
   -2.9976   22.9141  -33.3594 H   0  0  0  0  0  0  0  0  0  0  0  0
   -2.8683   18.9463  -32.3622 H   0  0  0  0  0  0  0  0  0  0  0  0
   -4.2336   19.9410  -31.7119 H   0  0  0  0  0  0  0  0  0  0  0  0
   -5.0411   20.3598  -33.9991 H   0  0  0  0  0  0  0  0  0  0  0  0
   -3.6658   19.3906  -34.6629 H   0  0  0  0  0  0  0  0  0  0  0  0
   -7.3758   16.1066  -34.4468 H   0  0  0  0  0  0  0  0  0  0  0  0
   -5.9121   15.4930  -32.3094 H   0  0  0  0  0  0  0  0  0  0  0  0
   -5.5602   20.3357  -32.1967 H   0  0  0  0  0  0  0  0  0  0  0  0
  1  2  1  0
  2  3  1  0
  3  4  2  0
  4  5  1  0
  5  6  2  0
  6  7  1  0
  7  8  2  0
  8  9  1  0
  9 10  1  0
  9 11  2  0
  8 12  1  0
 12 13  1  0
 13 14  2  0
 13 15  1  0
 15 16  1  0
 16 17  1  0
 17 18  1  0
 18 19  1  0
 19 20  2  0
 20 21  1  0
 21 22  2  0
 22 23  1  0
 12 24  1  0
 24 25  2  0
 25  3  1  0
 24  6  1  0
 23 19  1  0
  1 26  1  0
  1 27  1  0
  1 28  1  0
  2 29  1  0
  2 30  1  0
  4 31  1  0
  5 32  1  0
  7 33  1  0
 10 34  1  0
 15 35  1  0
 15 36  1  0
 17 37  1  0
 17 38  1  0
 18 39  1  0
 18 40  1  0
 21 41  1  0
 22 42  1  0
 25 43  1  0
M  CHG  2   2   1  10  -1
M  END
>  <UniqueID>  (30) 
30

>  <SMILES>  (30) 
C[NH2+]c1ccc2cc(C([NH-])=O)n(C(=O)COCCc3ncco3)c2c1

>  <Energy>  (30) 
113.60898758597641

>  <Genealogy>  (30) 
C[NH2+]c1ccc2cc(C([NH-])=O)n(C(=O)COCCc3ncco3)c2c1 (protonated)
C[NH2+]c1ccc2cc(C([NH-])=O)n(C(=O)COCCc3ncco3)c2c1 (3D coordinates assigned)
C[NH2+]c1ccc2cc(C([NH-])=O)n(C(=O)COCCc3ncco3)c2c1 (optimized conformer: 113.60898758597641 kcal/mol)

>  <smiles>  (30) 
CNc1ccc2cc(C(N)=O)n(C(=O)COCCc3ncco3)c2c1

>  <score_type>  (30) 
oracle

>  <origin>  (30) 
adg

>  <m_score__min__energy>  (30) 
-10.140000000000001

>  <m_primary>  (30) 
energy

$$$$
31:0
     RDKit          3D

 31 32  0  0  0  0  0  0  0  0999 V2000
   -4.2250   25.6600  -30.5250 N   0  0  0  0  0  0  0  0  0  0  0  0
   -5.5620   25.2530  -30.2440 C   0  0  0  0  0  0  0  0  0  0  0  0
   -6.2860   25.9890  -29.5190 O   0  0  0  0  0  0  0  0  0  0  0  0
   -6.1050   23.9810  -30.7680 C   0  0  0  0  0  0  0  0  0  0  0  0
   -7.4490   23.7960  -31.0900 C   0  0  0  0  0  0  0  0  0  0  0  0
   -7.5480   22.4890  -31.5110 C   0  0  0  0  0  0  0  0  0  0  0  0
   -8.6510   21.7780  -31.9760 C   0  0  0  0  0  0  0  0  0  0  0  0
   -8.4530   20.4480  -32.3840 C   0  0  0  0  0  0  0  0  0  0  0  0
   -7.1640   19.8610  -32.3310 C   0  0  0  0  0  0  0  0  0  0  0  0
   -6.9510   18.4470  -32.7900 C   0  0  0  0  0  0  0  0  0  0  0  0
   -6.0860   18.4330  -33.8680 F   0  0  0  0  0  0  0  0  0  0  0  0
   -6.4110   17.6970  -31.7610 F   0  0  0  0  0  0  0  0  0  0  0  0
   -6.0680   20.6170  -31.8600 C   0  0  0  0  0  0  0  0  0  0  0  0
   -6.3000   21.9300  -31.4370 C   0  0  0  0  0  0  0  0  0  0  0  0
   -5.4050   22.8300  -30.9760 N   0  0  0  0  0  0  0  0  0  0  0  0
   -3.9960   22.6110  -30.8020 C   0  0  0  0  0  0  0  0  0  0  0  0
   -3.2120   22.7820  -31.7740 O   0  0  0  0  0  0  0  0  0  0  0  0
   -3.4440   22.2070  -29.4680 C   0  0  0  0  0  0  0  0  0  0  0  0
   -2.7450   23.6490  -28.6120 P   0  0  2  0  0  0  0  0  0  0  0  0
   -1.9730   24.4990  -29.5970 O   0  0  0  0  0  0  0  0  0  0  0  0
   -1.7110   23.1340  -27.3770 O   0  0  0  0  0  0  0  0  0  0  0  0
   -4.0040   24.5630  -27.9470 O   0  0  0  0  0  0  0  0  0  0  0  0
   -3.4970   25.6700  -29.7770 H   0  0  0  0  0  0  0  0  0  0  0  0
   -8.2587   24.5374  -31.0220 H   0  0  0  0  0  0  0  0  0  0  0  0
   -9.6468   22.2430  -32.0226 H   0  0  0  0  0  0  0  0  0  0  0  0
   -9.3063   19.8569  -32.7479 H   0  0  0  0  0  0  0  0  0  0  0  0
   -7.9183   18.0165  -33.0884 H   0  0  0  0  0  0  0  0  0  0  0  0
   -5.0573   20.1842  -31.8266 H   0  0  0  0  0  0  0  0  0  0  0  0
   -4.2512   21.7779  -28.8562 H   0  0  0  0  0  0  0  0  0  0  0  0
   -2.6496   21.4615  -29.6203 H   0  0  0  0  0  0  0  0  0  0  0  0
   -4.2240   25.2330  -28.6420 H   0  0  0  0  0  0  0  0  0  0  0  0
  1  2  1  0
  2  3  2  0
  2  4  1  0
  4  5  2  0
  5  6  1  0
  6  7  2  0
  7  8  1  0
  8  9  2  0
  9 10  1  0
 10 11  1  0
 10 12  1  0
  9 13  1  0
 13 14  2  0
 14 15  1  0
 15 16  1  0
 16 17  2  0
 16 18  1  0
 18 19  1  0
 19 20  2  0
 19 21  1  1
 19 22  1  0
 15  4  1  0
 14  6  1  0
  1 23  1  0
  5 24  1  0
  7 25  1  0
  8 26  1  0
 10 27  1  0
 13 28  1  0
 18 29  1  0
 18 30  1  0
 22 31  1  0
M  CHG  2   1  -1  21  -1
M  END
>  <UniqueID>  (31) 
31

>  <SMILES>  (31) 
[NH-]C(=O)c1cc2ccc(C(F)F)cc2n1C(=O)C[P@](=O)([O-])O

>  <Energy>  (31) 
64.52745895195713

>  <Genealogy>  (31) 
[NH-]C(=O)c1cc2ccc(C(F)F)cc2n1C(=O)CP(=O)([O-])O (protonated)
[NH-]C(=O)c1cc2ccc(C(F)F)cc2n1C(=O)C[P@](=O)([O-])O (chirality)
[NH-]C(=O)c1cc2ccc(C(F)F)cc2n1C(=O)C[P@](=O)([O-])O (3D coordinates assigned)
[NH-]C(=O)c1cc2ccc(C(F)F)cc2n1C(=O)C[P@](=O)([O-])O (optimized conformer: 64.52745895195713 kcal/mol)

>  <smiles>  (31) 
NC(=O)c1cc2ccc(C(F)F)cc2n1C(=O)CP(=O)(O)O

>  <score_type>  (31) 
oracle

>  <origin>  (31) 
adg

>  <m_score__min__energy>  (31) 
-11.199999999999999

>  <m_primary>  (31) 
energy

$$$$
32:0
     RDKit          3D

 42 43  0  0  0  0  0  0  0  0999 V2000
   -3.3440   21.9280  -32.7340 C   0  0  0  0  0  0  0  0  0  0  0  0
   -3.0670   22.1510  -31.3100 N   0  0  0  0  0  0  0  0  0  0  0  0
   -1.6820   22.3370  -30.8480 C   0  0  0  0  0  0  0  0  0  0  0  0
   -1.6330   23.0230  -29.5140 C   0  0  0  0  0  0  0  0  0  0  0  0
   -1.5950   22.3220  -28.4660 O   0  0  0  0  0  0  0  0  0  0  0  0
   -1.6120   24.4180  -29.4330 O   0  0  0  0  0  0  0  0  0  0  0  0
   -1.2410   25.1140  -28.2470 C   0  0  0  0  0  0  0  0  0  0  0  0
   -2.3720   25.0440  -27.2310 C   0  0  0  0  0  0  0  0  0  0  0  0
   -3.5080   24.4780  -27.8240 O   0  0  0  0  0  0  0  0  0  0  0  0
   -4.1640   22.3230  -30.3870 C   0  0  0  0  0  0  0  0  0  0  0  0
   -3.9850   22.1500  -29.1510 O   0  0  0  0  0  0  0  0  0  0  0  0
   -5.4640   22.7130  -30.8520 N   0  0  0  0  0  0  0  0  0  0  0  0
   -6.0140   23.9580  -30.8250 C   0  0  0  0  0  0  0  0  0  0  0  0
   -5.3230   25.1990  -30.4150 C   0  0  0  0  0  0  0  0  0  0  0  0
   -3.9010   25.2920  -30.4460 N   0  0  0  0  0  0  0  0  0  0  0  0
   -5.9980   26.1990  -30.0510 O   0  0  0  0  0  0  0  0  0  0  0  0
   -7.3350   23.9160  -31.2700 C   0  0  0  0  0  0  0  0  0  0  0  0
   -7.5770   22.5930  -31.5660 C   0  0  0  0  0  0  0  0  0  0  0  0
   -8.7350   21.9730  -32.0250 C   0  0  0  0  0  0  0  0  0  0  0  0
   -8.7060   20.5820  -32.2200 C   0  0  0  0  0  0  0  0  0  0  0  0
   -7.5220   19.8380  -31.9680 C   0  0  0  0  0  0  0  0  0  0  0  0
   -7.5060   18.3410  -32.1470 C   0  0  0  0  0  0  0  0  0  0  0  0
   -8.7760   17.8210  -31.9730 F   0  0  0  0  0  0  0  0  0  0  0  0
   -7.0630   18.0400  -33.4200 F   0  0  0  0  0  0  0  0  0  0  0  0
   -6.6640   17.7420  -31.2250 F   0  0  0  0  0  0  0  0  0  0  0  0
   -6.3760   20.5030  -31.4730 C   0  0  0  0  0  0  0  0  0  0  0  0
   -6.4330   21.8880  -31.3020 C   0  0  0  0  0  0  0  0  0  0  0  0
   -4.1970   21.2413  -32.8385 H   0  0  0  0  0  0  0  0  0  0  0  0
   -3.5845   22.8874  -33.2154 H   0  0  0  0  0  0  0  0  0  0  0  0
   -2.4581   21.4882  -33.2154 H   0  0  0  0  0  0  0  0  0  0  0  0
   -1.1992   21.3524  -30.7613 H   0  0  0  0  0  0  0  0  0  0  0  0
   -1.1567   22.9685  -31.5796 H   0  0  0  0  0  0  0  0  0  0  0  0
   -0.3382   24.6525  -27.8204 H   0  0  0  0  0  0  0  0  0  0  0  0
   -1.0392   26.1670  -28.4928 H   0  0  0  0  0  0  0  0  0  0  0  0
   -2.0585   24.4247  -26.3776 H   0  0  0  0  0  0  0  0  0  0  0  0
   -2.6115   26.0598  -26.8835 H   0  0  0  0  0  0  0  0  0  0  0  0
   -3.2150   24.1370  -28.7080 H   0  0  0  0  0  0  0  0  0  0  0  0
   -3.3680   25.6510  -29.6230 H   0  0  0  0  0  0  0  0  0  0  0  0
   -8.0345   24.7597  -31.3644 H   0  0  0  0  0  0  0  0  0  0  0  0
   -9.6461   22.5547  -32.2291 H   0  0  0  0  0  0  0  0  0  0  0  0
   -9.6099   20.0631  -32.5717 H   0  0  0  0  0  0  0  0  0  0  0  0
   -5.4615   19.9427  -31.2285 H   0  0  0  0  0  0  0  0  0  0  0  0
  1  2  1  0
  2  3  1  0
  3  4  1  0
  4  5  2  0
  4  6  1  0
  6  7  1  0
  7  8  1  0
  8  9  1  0
  2 10  1  0
 10 11  2  0
 10 12  1  0
 12 13  1  0
 13 14  1  0
 14 15  1  0
 14 16  2  0
 13 17  2  0
 17 18  1  0
 18 19  2  0
 19 20  1  0
 20 21  2  0
 21 22  1  0
 22 23  1  0
 22 24  1  0
 22 25  1  0
 21 26  1  0
 26 27  2  0
 27 12  1  0
 27 18  1  0
  1 28  1  0
  1 29  1  0
  1 30  1  0
  3 31  1  0
  3 32  1  0
  7 33  1  0
  7 34  1  0
  8 35  1  0
  8 36  1  0
  9 37  1  0
 15 38  1  0
 17 39  1  0
 19 40  1  0
 20 41  1  0
 26 42  1  0
M  CHG  1  15  -1
M  END
>  <UniqueID>  (32) 
32

>  <SMILES>  (32) 
CN(CC(=O)OCCO)C(=O)n1c(C([NH-])=O)cc2ccc(C(F)(F)F)cc21

>  <Energy>  (32) 
72.65296361053896

>  <Genealogy>  (32) 
CN(CC(=O)OCCO)C(=O)n1c(C([NH-])=O)cc2ccc(C(F)(F)F)cc21 (protonated)
CN(CC(=O)OCCO)C(=O)n1c(C([NH-])=O)cc2ccc(C(F)(F)F)cc21 (3D coordinates assigned)
CN(CC(=O)OCCO)C(=O)n1c(C([NH-])=O)cc2ccc(C(F)(F)F)cc21 (optimized conformer: 72.65296361053896 kcal/mol)

>  <smiles>  (32) 
CN(CC(=O)OCCO)C(=O)n1c(C(N)=O)cc2ccc(C(F)(F)F)cc21

>  <score_type>  (32) 
oracle

>  <origin>  (32) 
adg

>  <m_score__min__energy>  (32) 
-9.6799999999999997

>  <m_primary>  (32) 
energy

$$$$
33:0
     RDKit          3D

 34 35  0  0  0  0  0  0  0  0999 V2000
   -4.2280   25.3920  -30.8160 N   0  0  0  0  0  0  0  0  0  0  0  0
   -5.4160   24.6870  -30.4630 C   0  0  0  0  0  0  0  0  0  0  0  0
   -6.2340   25.2170  -29.6660 O   0  0  0  0  0  0  0  0  0  0  0  0
   -5.6610   23.3380  -31.0090 C   0  0  0  0  0  0  0  0  0  0  0  0
   -6.7680   23.0010  -31.7880 C   0  0  0  0  0  0  0  0  0  0  0  0
   -6.5790   21.6820  -32.1380 C   0  0  0  0  0  0  0  0  0  0  0  0
   -7.3830   20.8260  -32.8870 C   0  0  0  0  0  0  0  0  0  0  0  0
   -6.9520   19.4980  -33.0560 C   0  0  0  0  0  0  0  0  0  0  0  0
   -5.7310   19.0570  -32.4860 C   0  0  0  0  0  0  0  0  0  0  0  0
   -5.3040   17.6240  -32.6300 C   0  0  0  0  0  0  0  0  0  0  0  0
   -5.5140   17.0750  -34.3510 P   0  0  0  0  0  0  0  0  0  0  0  0
   -4.2960   16.2930  -34.7900 O   0  0  0  0  0  0  0  0  0  0  0  0
   -5.7000   18.4270  -35.3490 O   0  0  0  0  0  0  0  0  0  0  0  0
   -6.8870   16.0950  -34.4730 O   0  0  0  0  0  0  0  0  0  0  0  0
   -4.9440   19.9540  -31.7310 C   0  0  0  0  0  0  0  0  0  0  0  0
   -5.3970   21.2670  -31.5840 C   0  0  0  0  0  0  0  0  0  0  0  0
   -4.8270   22.2690  -30.8830 N   0  0  0  0  0  0  0  0  0  0  0  0
   -3.6290   22.1690  -30.1010 C   0  0  0  0  0  0  0  0  0  0  0  0
   -3.5720   21.3470  -29.1490 O   0  0  0  0  0  0  0  0  0  0  0  0
   -2.4970   23.1230  -30.3250 C   0  0  0  0  0  0  0  0  0  0  0  0
   -2.2950   24.2000  -28.8740 P   0  0  1  0  0  0  0  0  0  0  0  0
   -1.4080   23.5210  -27.8530 O   0  0  0  0  0  0  0  0  0  0  0  0
   -1.5890   25.6620  -29.3460 O   0  0  0  0  0  0  0  0  0  0  0  0
   -3.8100   24.5080  -28.1850 O   0  0  0  0  0  0  0  0  0  0  0  0
   -3.5180   25.6450  -30.0920 H   0  0  0  0  0  0  0  0  0  0  0  0
   -7.6121   23.6501  -32.0640 H   0  0  0  0  0  0  0  0  0  0  0  0
   -8.3254   21.1776  -33.3323 H   0  0  0  0  0  0  0  0  0  0  0  0
   -7.5680   18.7949  -33.6358 H   0  0  0  0  0  0  0  0  0  0  0  0
   -4.2456   17.5300  -32.3454 H   0  0  0  0  0  0  0  0  0  0  0  0
   -5.9266   16.9968  -31.9750 H   0  0  0  0  0  0  0  0  0  0  0  0
   -3.9996   19.6275  -31.2710 H   0  0  0  0  0  0  0  0  0  0  0  0
   -1.5693   22.5553  -30.4892 H   0  0  0  0  0  0  0  0  0  0  0  0
   -2.7162   23.7427  -31.2070 H   0  0  0  0  0  0  0  0  0  0  0  0
   -4.2180   25.1970  -28.7670 H   0  0  0  0  0  0  0  0  0  0  0  0
  1  2  1  0
  2  3  2  0
  2  4  1  0
  4  5  2  0
  5  6  1  0
  6  7  2  0
  7  8  1  0
  8  9  2  0
  9 10  1  0
 10 11  1  0
 11 12  2  0
 11 13  1  0
 11 14  1  0
  9 15  1  0
 15 16  2  0
 16 17  1  0
 17 18  1  0
 18 19  2  0
 18 20  1  0
 20 21  1  0
 21 22  2  0
 21 23  1  6
 21 24  1  0
 17  4  1  0
 16  6  1  0
  1 25  1  0
  5 26  1  0
  7 27  1  0
  8 28  1  0
 10 29  1  0
 10 30  1  0
 15 31  1  0
 20 32  1  0
 20 33  1  0
 24 34  1  0
M  CHG  4   1  -1  13  -1  14  -1  23  -1
M  END
>  <UniqueID>  (33) 
33

>  <SMILES>  (33) 
[NH-]C(=O)c1cc2ccc(CP(=O)([O-])[O-])cc2n1C(=O)C[P@@](=O)([O-])O

>  <Energy>  (33) 
61.83675457765455

>  <Genealogy>  (33) 
[NH-]C(=O)c1cc2ccc(CP(=O)([O-])[O-])cc2n1C(=O)CP(=O)([O-])O (protonated)
[NH-]C(=O)c1cc2ccc(CP(=O)([O-])[O-])cc2n1C(=O)C[P@@](=O)([O-])O (chirality)
[NH-]C(=O)c1cc2ccc(CP(=O)([O-])[O-])cc2n1C(=O)C[P@@](=O)([O-])O (3D coordinates assigned)
[NH-]C(=O)c1cc2ccc(CP(=O)([O-])[O-])cc2n1C(=O)C[P@@](=O)([O-])O (optimized conformer: 61.83675457765455 kcal/mol)

>  <smiles>  (33) 
NC(=O)c1cc2ccc(CP(=O)(O)O)cc2n1C(=O)CP(=O)(O)O

>  <score_type>  (33) 
oracle

>  <origin>  (33) 
adg

>  <m_score__min__energy>  (33) 
-11.81

>  <m_primary>  (33) 
energy

$$$$
34:0
     RDKit          3D

 47 48  0  0  0  0  0  0  0  0999 V2000
   -6.0730   17.7390  -34.4930 C   0  0  0  0  0  0  0  0  0  0  0  0
   -6.2600   18.0450  -33.0690 N   0  0  0  0  0  0  0  0  0  0  0  0
   -6.1500   16.9580  -32.0880 C   0  0  0  0  0  0  0  0  0  0  0  0
   -6.5460   19.4010  -32.6380 C   0  0  0  0  0  0  0  0  0  0  0  0
   -7.8810   19.8980  -32.6420 C   0  0  0  0  0  0  0  0  0  0  0  0
   -8.1670   21.2130  -32.2390 C   0  0  0  0  0  0  0  0  0  0  0  0
   -7.1080   22.0140  -31.8280 C   0  0  0  0  0  0  0  0  0  0  0  0
   -7.0960   23.3270  -31.4160 C   0  0  0  0  0  0  0  0  0  0  0  0
   -5.7600   23.6170  -31.1440 C   0  0  0  0  0  0  0  0  0  0  0  0
   -5.3030   24.9080  -30.5970 C   0  0  0  0  0  0  0  0  0  0  0  0
   -3.9190   25.2430  -30.5760 N   0  0  0  0  0  0  0  0  0  0  0  0
   -6.1400   25.7100  -30.1040 O   0  0  0  0  0  0  0  0  0  0  0  0
   -4.9800   22.5270  -31.3830 N   0  0  0  0  0  0  0  0  0  0  0  0
   -3.5460   22.4240  -31.3380 C   0  0  0  0  0  0  0  0  0  0  0  0
   -2.9140   22.2780  -32.4220 O   0  0  0  0  0  0  0  0  0  0  0  0
   -2.8390   22.6710  -30.0940 N   0  0  2  0  0  0  0  0  0  0  0  0
   -1.3980   22.4830  -30.3280 C   0  0  0  0  0  0  0  0  0  0  0  0
   -3.2810   21.7880  -28.9870 C   0  0  0  0  0  0  0  0  0  0  0  0
   -2.3440   21.8320  -27.8140 C   0  0  0  0  0  0  0  0  0  0  0  0
   -2.1760   20.8010  -27.1070 O   0  0  0  0  0  0  0  0  0  0  0  0
   -1.6520   23.0430  -27.5050 N   0  0  0  0  0  0  0  0  0  0  0  0
   -2.3440   24.6110  -27.7460 S   0  0  0  0  0  0  0  0  0  0  0  0
   -2.0250   25.6470  -26.3350 C   0  0  0  0  0  0  0  0  0  0  0  0
   -3.8250   24.4830  -27.9660 O   0  0  0  0  0  0  0  0  0  0  0  0
   -1.7200   25.2370  -28.9610 O   0  0  0  0  0  0  0  0  0  0  0  0
   -5.8200   21.5560  -31.8000 C   0  0  0  0  0  0  0  0  0  0  0  0
   -5.5010   20.2590  -32.2110 C   0  0  0  0  0  0  0  0  0  0  0  0
   -5.5019   16.8045  -34.5953 H   0  0  0  0  0  0  0  0  0  0  0  0
   -7.0549   17.6233  -34.9752 H   0  0  0  0  0  0  0  0  0  0  0  0
   -5.5221   18.5600  -34.9752 H   0  0  0  0  0  0  0  0  0  0  0  0
   -6.1923   17.3759  -31.0714 H   0  0  0  0  0  0  0  0  0  0  0  0
   -6.9812   16.2515  -32.2289 H   0  0  0  0  0  0  0  0  0  0  0  0
   -5.1941   16.4323  -32.2289 H   0  0  0  0  0  0  0  0  0  0  0  0
   -8.7016   19.2411  -32.9661 H   0  0  0  0  0  0  0  0  0  0  0  0
   -9.1977   21.5971  -32.2484 H   0  0  0  0  0  0  0  0  0  0  0  0
   -7.9578   24.0040  -31.3214 H   0  0  0  0  0  0  0  0  0  0  0  0
   -3.4880   25.6690  -29.7260 H   0  0  0  0  0  0  0  0  0  0  0  0
   -2.9830   23.6660  -29.8070 H   0  0  0  0  0  0  0  0  0  0  0  0
   -0.8756   22.4148  -29.3624 H   0  0  0  0  0  0  0  0  0  0  0  0
   -1.2370   21.5562  -30.8982 H   0  0  0  0  0  0  0  0  0  0  0  0
   -1.0046   23.3374  -30.8982 H   0  0  0  0  0  0  0  0  0  0  0  0
   -4.2790   22.1098  -28.6548 H   0  0  0  0  0  0  0  0  0  0  0  0
   -3.2973   20.7555  -29.3661 H   0  0  0  0  0  0  0  0  0  0  0  0
   -2.2013   25.0745  -25.4124 H   0  0  0  0  0  0  0  0  0  0  0  0
   -0.9799   25.9892  -26.3601 H   0  0  0  0  0  0  0  0  0  0  0  0
   -2.6966   26.5178  -26.3601 H   0  0  0  0  0  0  0  0  0  0  0  0
   -4.4579   19.9099  -32.2034 H   0  0  0  0  0  0  0  0  0  0  0  0
  1  2  1  0
  2  3  1  0
  2  4  1  0
  4  5  2  0
  5  6  1  0
  6  7  2  0
  7  8  1  0
  8  9  2  0
  9 10  1  0
 10 11  1  0
 10 12  2  0
  9 13  1  0
 13 14  1  0
 14 15  2  0
 14 16  1  0
 16 17  1  0
 16 18  1  0
 18 19  1  0
 19 20  2  0
 19 21  1  0
 21 22  1  0
 22 23  1  0
 22 24  2  0
 22 25  2  0
 13 26  1  0
 26 27  2  0
 27  4  1  0
 26  7  1  0
  1 28  1  0
  1 29  1  0
  1 30  1  0
  3 31  1  0
  3 32  1  0
  3 33  1  0
  5 34  1  0
  6 35  1  0
  8 36  1  0
 11 37  1  0
 16 38  1  1
 17 39  1  0
 17 40  1  0
 17 41  1  0
 18 42  1  0
 18 43  1  0
 23 44  1  0
 23 45  1  0
 23 46  1  0
 27 47  1  0
M  CHG  3  11  -1  16   1  21  -1
M  END
>  <UniqueID>  (34) 
34

>  <SMILES>  (34) 
CN(C)c1ccc2cc(C([NH-])=O)n(C(=O)[N@H+](C)CC(=O)[N-]S(C)(=O)=O)c2c1

>  <Energy>  (34) 
87.04625972737867

>  <Genealogy>  (34) 
CN(C)c1ccc2cc(C([NH-])=O)n(C(=O)[NH+](C)CC(=O)[N-]S(C)(=O)=O)c2c1 (protonated)
CN(C)c1ccc2cc(C([NH-])=O)n(C(=O)[N@H+](C)CC(=O)[N-]S(C)(=O)=O)c2c1 (chirality)
CN(C)c1ccc2cc(C([NH-])=O)n(C(=O)[N@H+](C)CC(=O)[N-]S(C)(=O)=O)c2c1 (3D coordinates assigned)
CN(C)c1ccc2cc(C([NH-])=O)n(C(=O)[N@H+](C)CC(=O)[N-]S(C)(=O)=O)c2c1 (optimized conformer: 87.04625972737867 kcal/mol)

>  <smiles>  (34) 
CN(CC(=O)NS(C)(=O)=O)C(=O)n1c(C(N)=O)cc2ccc(N(C)C)cc21

>  <score_type>  (34) 
oracle

>  <origin>  (34) 
adg

>  <m_score__min__energy>  (34) 
-10.93

>  <m_primary>  (34) 
energy

$$$$
35:0
     RDKit          3D

 49 50  0  0  0  0  0  0  0  0999 V2000
   -1.6900   19.0190  -26.9800 C   0  0  0  0  0  0  0  0  0  0  0  0
   -0.5020   19.3740  -27.8970 C   0  0  0  0  0  0  0  0  0  0  0  0
    0.5550   18.2640  -27.7870 C   0  0  0  0  0  0  0  0  0  0  0  0
    0.1320   20.7110  -27.4740 C   0  0  0  0  0  0  0  0  0  0  0  0
   -0.9230   19.4230  -29.2670 O   0  0  0  0  0  0  0  0  0  0  0  0
   -1.6210   20.4710  -29.8870 C   0  0  0  0  0  0  0  0  0  0  0  0
   -1.0900   21.1640  -30.7960 O   0  0  0  0  0  0  0  0  0  0  0  0
   -3.0340   20.7570  -29.4790 C   0  0  0  0  0  0  0  0  0  0  0  0
   -3.3510   22.1760  -29.6850 N   0  0  0  0  0  0  0  0  0  0  0  0
   -2.9780   23.1230  -28.6680 C   0  0  0  0  0  0  0  0  0  0  0  0
   -3.4990   23.0410  -27.5230 O   0  0  0  0  0  0  0  0  0  0  0  0
   -1.9710   24.1660  -28.9200 C   0  0  0  0  0  0  0  0  0  0  0  0
   -2.3150   25.2960  -29.3540 O   0  0  0  0  0  0  0  0  0  0  0  0
   -0.6250   23.8970  -28.7060 O   0  0  0  0  0  0  0  0  0  0  0  0
   -3.9240   22.6080  -30.9380 C   0  0  0  0  0  0  0  0  0  0  0  0
   -3.1730   22.8740  -31.9160 O   0  0  0  0  0  0  0  0  0  0  0  0
   -5.3440   22.7650  -31.0910 N   0  0  0  0  0  0  0  0  0  0  0  0
   -6.0850   23.8980  -30.9370 C   0  0  0  0  0  0  0  0  0  0  0  0
   -5.5620   25.2000  -30.4650 C   0  0  0  0  0  0  0  0  0  0  0  0
   -4.2120   25.5880  -30.7290 N   0  0  0  0  0  0  0  0  0  0  0  0
   -6.3130   25.9880  -29.8340 O   0  0  0  0  0  0  0  0  0  0  0  0
   -7.4280   23.6370  -31.2150 C   0  0  0  0  0  0  0  0  0  0  0  0
   -7.4810   22.3000  -31.5380 C   0  0  0  0  0  0  0  0  0  0  0  0
   -8.5650   21.5040  -31.8980 C   0  0  0  0  0  0  0  0  0  0  0  0
   -8.3210   20.1510  -32.1930 C   0  0  0  0  0  0  0  0  0  0  0  0
   -7.0030   19.6240  -32.1440 C   0  0  0  0  0  0  0  0  0  0  0  0
   -6.7590   18.1630  -32.4260 C   0  0  0  0  0  0  0  0  0  0  0  0
   -6.1770   18.0320  -33.6730 F   0  0  0  0  0  0  0  0  0  0  0  0
   -7.9490   17.4550  -32.4070 F   0  0  0  0  0  0  0  0  0  0  0  0
   -5.9160   17.6170  -31.4740 F   0  0  0  0  0  0  0  0  0  0  0  0
   -5.9340   20.4590  -31.7460 C   0  0  0  0  0  0  0  0  0  0  0  0
   -6.2110   21.7970  -31.4490 C   0  0  0  0  0  0  0  0  0  0  0  0
   -1.3816   19.1112  -25.9281 H   0  0  0  0  0  0  0  0  0  0  0  0
   -2.5250   19.7069  -27.1789 H   0  0  0  0  0  0  0  0  0  0  0  0
   -2.0107   17.9858  -27.1789 H   0  0  0  0  0  0  0  0  0  0  0  0
    0.7560   18.0529  -26.7263 H   0  0  0  0  0  0  0  0  0  0  0  0
    0.1824   17.3529  -28.2780 H   0  0  0  0  0  0  0  0  0  0  0  0
    1.4832   18.5916  -28.2780 H   0  0  0  0  0  0  0  0  0  0  0  0
    0.1609   20.7720  -26.3761 H   0  0  0  0  0  0  0  0  0  0  0  0
    1.1556   20.7735  -27.8718 H   0  0  0  0  0  0  0  0  0  0  0  0
   -0.4674   21.5432  -27.8718 H   0  0  0  0  0  0  0  0  0  0  0  0
   -3.7170   20.1420  -30.0834 H   0  0  0  0  0  0  0  0  0  0  0  0
   -3.1520   20.5171  -28.4120 H   0  0  0  0  0  0  0  0  0  0  0  0
   -3.5370   24.9380  -31.1880 H   0  0  0  0  0  0  0  0  0  0  0  0
   -3.8670   26.5230  -30.4180 H   0  0  0  0  0  0  0  0  0  0  0  0
   -8.2660   24.3488  -31.1828 H   0  0  0  0  0  0  0  0  0  0  0  0
   -9.5816   21.9209  -31.9501 H   0  0  0  0  0  0  0  0  0  0  0  0
   -9.1600   19.4936  -32.4647 H   0  0  0  0  0  0  0  0  0  0  0  0
   -4.9094   20.0658  -31.6718 H   0  0  0  0  0  0  0  0  0  0  0  0
  1  2  1  0
  2  3  1  0
  2  4  1  0
  2  5  1  0
  5  6  1  0
  6  7  2  0
  6  8  1  0
  8  9  1  0
  9 10  1  0
 10 11  2  0
 10 12  1  0
 12 13  2  0
 12 14  1  0
  9 15  1  0
 15 16  2  0
 15 17  1  0
 17 18  1  0
 18 19  1  0
 19 20  1  0
 19 21  2  0
 18 22  2  0
 22 23  1  0
 23 24  2  0
 24 25  1  0
 25 26  2  0
 26 27  1  0
 27 28  1  0
 27 29  1  0
 27 30  1  0
 26 31  1  0
 31 32  2  0
 32 17  1  0
 32 23  1  0
  1 33  1  0
  1 34  1  0
  1 35  1  0
  3 36  1  0
  3 37  1  0
  3 38  1  0
  4 39  1  0
  4 40  1  0
  4 41  1  0
  8 42  1  0
  8 43  1  0
 20 44  1  0
 20 45  1  0
 22 46  1  0
 24 47  1  0
 25 48  1  0
 31 49  1  0
M  CHG  1  14  -1
M  END
>  <UniqueID>  (35) 
35

>  <SMILES>  (35) 
CC(C)(C)OC(=O)CN(C(=O)C(=O)[O-])C(=O)n1c(C(N)=O)cc2ccc(C(F)(F)F)cc21

>  <Energy>  (35) 
84.16107190742873

>  <Genealogy>  (35) 
CC(C)(C)OC(=O)CN(C(=O)C(=O)[O-])C(=O)n1c(C(N)=O)cc2ccc(C(F)(F)F)cc21 (protonated)
CC(C)(C)OC(=O)CN(C(=O)C(=O)[O-])C(=O)n1c(C(N)=O)cc2ccc(C(F)(F)F)cc21 (3D coordinates assigned)
CC(C)(C)OC(=O)CN(C(=O)C(=O)[O-])C(=O)n1c(C(N)=O)cc2ccc(C(F)(F)F)cc21 (optimized conformer: 84.16107190742873 kcal/mol)

>  <smiles>  (35) 
CC(C)(C)OC(=O)CN(C(=O)C(=O)O)C(=O)n1c(C(N)=O)cc2ccc(C(F)(F)F)cc21

>  <score_type>  (35) 
oracle

>  <origin>  (35) 
adg

>  <m_score__min__energy>  (35) 
-10.82

>  <m_primary>  (35) 
energy

$$$$
36:0
     RDKit          3D

 42 44  0  0  0  0  0  0  0  0999 V2000
   -0.5910   23.2330  -29.3430 C   0  0  0  0  0  0  0  0  0  0  0  0
   -2.0170   23.5740  -29.2050 N   0  0  2  0  0  0  0  0  0  0  0  0
   -2.1840   24.7090  -28.3460 C   0  0  0  0  0  0  0  0  0  0  0  0
   -1.6480   25.7830  -28.5760 O   0  0  0  0  0  0  0  0  0  0  0  0
   -3.0940   24.5170  -27.1960 C   0  0  0  0  0  0  0  0  0  0  0  0
   -3.6660   23.1300  -27.4390 C   0  0  0  0  0  0  0  0  0  0  0  0
   -2.7830   22.4920  -28.5340 C   0  0  1  0  0  0  0  0  0  0  0  0
   -3.5770   21.5960  -29.5190 C   0  0  0  0  0  0  0  0  0  0  0  0
   -4.0240   22.2580  -30.8010 C   0  0  0  0  0  0  0  0  0  0  0  0
   -3.1870   22.5690  -31.6910 O   0  0  0  0  0  0  0  0  0  0  0  0
   -5.3980   22.6330  -30.9720 N   0  0  0  0  0  0  0  0  0  0  0  0
   -5.9360   23.8800  -30.8610 C   0  0  0  0  0  0  0  0  0  0  0  0
   -5.2070   25.0980  -30.4540 C   0  0  0  0  0  0  0  0  0  0  0  0
   -3.8490   25.2780  -30.8460 N   0  0  0  0  0  0  0  0  0  0  0  0
   -5.7770   25.9950  -29.7780 O   0  0  0  0  0  0  0  0  0  0  0  0
   -7.3010   23.8480  -31.1410 C   0  0  0  0  0  0  0  0  0  0  0  0
   -7.5830   22.5320  -31.4330 C   0  0  0  0  0  0  0  0  0  0  0  0
   -8.7870   21.9290  -31.7860 C   0  0  0  0  0  0  0  0  0  0  0  0
   -8.7800   20.5480  -32.0500 C   0  0  0  0  0  0  0  0  0  0  0  0
   -7.5740   19.8020  -31.9830 C   0  0  0  0  0  0  0  0  0  0  0  0
   -7.5880   18.3150  -32.2270 C   0  0  0  0  0  0  0  0  0  0  0  0
   -6.6890   17.7060  -31.3710 F   0  0  0  0  0  0  0  0  0  0  0  0
   -8.8510   17.7960  -32.0000 F   0  0  0  0  0  0  0  0  0  0  0  0
   -7.2300   18.0290  -33.5340 F   0  0  0  0  0  0  0  0  0  0  0  0
   -6.3770   20.4500  -31.5990 C   0  0  0  0  0  0  0  0  0  0  0  0
   -6.4170   21.8210  -31.3270 C   0  0  0  0  0  0  0  0  0  0  0  0
   -0.1414   23.1255  -28.3448 H   0  0  0  0  0  0  0  0  0  0  0  0
   -0.4921   22.2859  -29.8936 H   0  0  0  0  0  0  0  0  0  0  0  0
   -0.0743   24.0329  -29.8936 H   0  0  0  0  0  0  0  0  0  0  0  0
   -2.4030   23.8210  -30.1440 H   0  0  0  0  0  0  0  0  0  0  0  0
   -2.5426   24.5560  -26.2450 H   0  0  0  0  0  0  0  0  0  0  0  0
   -3.8662   25.2967  -27.1200 H   0  0  0  0  0  0  0  0  0  0  0  0
   -3.6234   22.5319  -26.5168 H   0  0  0  0  0  0  0  0  0  0  0  0
   -4.7206   23.1773  -27.7482 H   0  0  0  0  0  0  0  0  0  0  0  0
   -2.0766   21.7918  -28.0641 H   0  0  0  0  0  0  0  0  0  0  0  0
   -2.9384   20.7412  -29.7863 H   0  0  0  0  0  0  0  0  0  0  0  0
   -4.5007   21.3188  -28.9899 H   0  0  0  0  0  0  0  0  0  0  0  0
   -3.0780   25.2470  -30.1420 H   0  0  0  0  0  0  0  0  0  0  0  0
   -8.0038   24.6942  -31.1309 H   0  0  0  0  0  0  0  0  0  0  0  0
   -9.7153   22.5149  -31.8562 H   0  0  0  0  0  0  0  0  0  0  0  0
   -9.7198   20.0397  -32.3115 H   0  0  0  0  0  0  0  0  0  0  0  0
   -5.4352   19.8878  -31.5161 H   0  0  0  0  0  0  0  0  0  0  0  0
  1  2  1  0
  2  3  1  0
  3  4  2  0
  3  5  1  0
  5  6  1  0
  6  7  1  0
  7  8  1  0
  8  9  1  0
  9 10  2  0
  9 11  1  0
 11 12  1  0
 12 13  1  0
 13 14  1  0
 13 15  2  0
 12 16  2  0
 16 17  1  0
 17 18  2  0
 18 19  1  0
 19 20  2  0
 20 21  1  0
 21 22  1  0
 21 23  1  0
 21 24  1  0
 20 25  1  0
 25 26  2  0
  7  2  1  0
 26 11  1  0
 26 17  1  0
  1 27  1  0
  1 28  1  0
  1 29  1  0
  2 30  1  6
  5 31  1  0
  5 32  1  0
  6 33  1  0
  6 34  1  0
  7 35  1  1
  8 36  1  0
  8 37  1  0
 14 38  1  0
 16 39  1  0
 18 40  1  0
 19 41  1  0
 25 42  1  0
M  CHG  2   2   1  14  -1
M  END
>  <UniqueID>  (36) 
36

>  <SMILES>  (36) 
C[N@@H+]1C(=O)CC[C@H]1CC(=O)n1c(C([NH-])=O)cc2ccc(C(F)(F)F)cc21

>  <Energy>  (36) 
87.81632681378598

>  <Genealogy>  (36) 
C[NH+]1C(=O)CCC1CC(=O)n1c(C([NH-])=O)cc2ccc(C(F)(F)F)cc21 (protonated)
C[N@@H+]1C(=O)CC[C@H]1CC(=O)n1c(C([NH-])=O)cc2ccc(C(F)(F)F)cc21 (chirality)
C[N@@H+]1C(=O)CC[C@H]1CC(=O)n1c(C([NH-])=O)cc2ccc(C(F)(F)F)cc21 (3D coordinates assigned)
C[N@@H+]1C(=O)CC[C@H]1CC(=O)n1c(C([NH-])=O)cc2ccc(C(F)(F)F)cc21 (nonaromatic ring conformer: 87.81632681378598 kcal/mol)

>  <smiles>  (36) 
CN1C(=O)CCC1CC(=O)n1c(C(N)=O)cc2ccc(C(F)(F)F)cc21

>  <score_type>  (36) 
oracle

>  <origin>  (36) 
adg

>  <m_score__min__energy>  (36) 
-9.8599999999999994

>  <m_primary>  (36) 
energy

$$$$
37:0
     RDKit          3D

 46 47  0  0  0  0  0  0  0  0999 V2000
   -0.9980   23.2040  -28.8680 C   0  0  0  0  0  0  0  0  0  0  0  0
   -0.8790   22.0130  -29.8290 C   0  0  1  0  0  0  0  0  0  0  0  0
   -1.3150   20.8420  -29.1880 O   0  0  0  0  0  0  0  0  0  0  0  0
   -1.6820   22.2520  -31.1300 C   0  0  2  0  0  0  0  0  0  0  0  0
   -2.9620   22.9280  -30.8780 N   0  0  0  0  0  0  0  0  0  0  0  0
   -4.0990   22.2070  -30.3820 C   0  0  0  0  0  0  0  0  0  0  0  0
   -3.9330   21.1460  -29.7210 O   0  0  0  0  0  0  0  0  0  0  0  0
   -5.4310   22.6310  -30.7160 N   0  0  0  0  0  0  0  0  0  0  0  0
   -5.9330   23.8990  -30.7550 C   0  0  0  0  0  0  0  0  0  0  0  0
   -5.2460   25.1160  -30.2840 C   0  0  0  0  0  0  0  0  0  0  0  0
   -3.8570   25.2960  -30.5480 N   0  0  0  0  0  0  0  0  0  0  0  0
   -5.8820   26.0180  -29.6800 O   0  0  0  0  0  0  0  0  0  0  0  0
   -7.2430   23.8910  -31.2310 C   0  0  0  0  0  0  0  0  0  0  0  0
   -7.5330   22.5690  -31.4780 C   0  0  0  0  0  0  0  0  0  0  0  0
   -8.6890   21.9870  -31.9870 C   0  0  0  0  0  0  0  0  0  0  0  0
   -8.6980   20.5940  -32.1740 C   0  0  0  0  0  0  0  0  0  0  0  0
   -7.5620   19.8100  -31.8420 C   0  0  0  0  0  0  0  0  0  0  0  0
   -7.5620   18.3260  -32.1050 C   0  0  0  0  0  0  0  0  0  0  0  0
   -8.8500   17.8400  -31.9740 F   0  0  0  0  0  0  0  0  0  0  0  0
   -7.1060   18.0560  -33.3830 F   0  0  0  0  0  0  0  0  0  0  0  0
   -6.7400   17.6690  -31.2060 F   0  0  0  0  0  0  0  0  0  0  0  0
   -6.3980   20.4450  -31.3510 C   0  0  0  0  0  0  0  0  0  0  0  0
   -6.4240   21.8300  -31.1600 C   0  0  0  0  0  0  0  0  0  0  0  0
   -1.8710   20.9560  -31.8920 C   0  0  0  0  0  0  0  0  0  0  0  0
   -0.9620   20.0860  -31.8270 O   0  0  0  0  0  0  0  0  0  0  0  0
   -3.0860   20.6490  -32.6020 N   0  0  0  0  0  0  0  0  0  0  0  0
   -3.6650   21.6090  -33.5450 C   0  0  0  0  0  0  0  0  0  0  0  0
   -3.6410   19.2980  -32.4860 C   0  0  0  0  0  0  0  0  0  0  0  0
   -0.9619   22.8424  -27.8298 H   0  0  0  0  0  0  0  0  0  0  0  0
   -0.1650   23.9008  -29.0428 H   0  0  0  0  0  0  0  0  0  0  0  0
   -1.9524   23.7222  -29.0428 H   0  0  0  0  0  0  0  0  0  0  0  0
    0.1783   21.9005  -30.1108 H   0  0  0  0  0  0  0  0  0  0  0  0
   -1.8960   20.3600  -29.8320 H   0  0  0  0  0  0  0  0  0  0  0  0
   -1.0914   22.9327  -31.7608 H   0  0  0  0  0  0  0  0  0  0  0  0
   -3.1260   23.8810  -31.2730 H   0  0  0  0  0  0  0  0  0  0  0  0
   -3.5290   26.0210  -31.2240 H   0  0  0  0  0  0  0  0  0  0  0  0
   -7.9044   24.7576  -31.3779 H   0  0  0  0  0  0  0  0  0  0  0  0
   -9.5692   22.5981  -32.2356 H   0  0  0  0  0  0  0  0  0  0  0  0
   -9.5953   20.1058  -32.5822 H   0  0  0  0  0  0  0  0  0  0  0  0
   -5.4926   19.8628  -31.1244 H   0  0  0  0  0  0  0  0  0  0  0  0
   -4.1547   22.4209  -32.9874 H   0  0  0  0  0  0  0  0  0  0  0  0
   -2.8684   22.0273  -34.1779 H   0  0  0  0  0  0  0  0  0  0  0  0
   -4.4066   21.0996  -34.1779 H   0  0  0  0  0  0  0  0  0  0  0  0
   -3.7487   19.0359  -31.4231 H   0  0  0  0  0  0  0  0  0  0  0  0
   -4.6263   19.2632  -32.9739 H   0  0  0  0  0  0  0  0  0  0  0  0
   -2.9647   18.5806  -32.9739 H   0  0  0  0  0  0  0  0  0  0  0  0
  1  2  1  0
  2  3  1  0
  2  4  1  0
  4  5  1  0
  5  6  1  0
  6  7  2  0
  6  8  1  0
  8  9  1  0
  9 10  1  0
 10 11  1  0
 10 12  2  0
  9 13  2  0
 13 14  1  0
 14 15  2  0
 15 16  1  0
 16 17  2  0
 17 18  1  0
 18 19  1  0
 18 20  1  0
 18 21  1  0
 17 22  1  0
 22 23  2  0
  4 24  1  0
 24 25  2  0
 24 26  1  0
 26 27  1  0
 26 28  1  0
 23  8  1  0
 23 14  1  0
  1 29  1  0
  1 30  1  0
  1 31  1  0
  2 32  1  6
  3 33  1  0
  4 34  1  6
  5 35  1  0
 11 36  1  0
 13 37  1  0
 15 38  1  0
 16 39  1  0
 22 40  1  0
 27 41  1  0
 27 42  1  0
 27 43  1  0
 28 44  1  0
 28 45  1  0
 28 46  1  0
M  CHG  1  11  -1
M  END
>  <UniqueID>  (37) 
37

>  <SMILES>  (37) 
C[C@@H](O)[C@H](NC(=O)n1c(C([NH-])=O)cc2ccc(C(F)(F)F)cc21)C(=O)N(C)C

>  <Energy>  (37) 
83.80902285411265

>  <Genealogy>  (37) 
C[C@@H](O)[C@H](NC(=O)n1c(C([NH-])=O)cc2ccc(C(F)(F)F)cc21)C(=O)N(C)C (protonated)
C[C@@H](O)[C@H](NC(=O)n1c(C([NH-])=O)cc2ccc(C(F)(F)F)cc21)C(=O)N(C)C (3D coordinates assigned)
C[C@@H](O)[C@H](NC(=O)n1c(C([NH-])=O)cc2ccc(C(F)(F)F)cc21)C(=O)N(C)C (optimized conformer: 83.80902285411265 kcal/mol)

>  <smiles>  (37) 
C[C@@H](O)[C@H](NC(=O)n1c(C(N)=O)cc2ccc(C(F)(F)F)cc21)C(=O)N(C)C

>  <score_type>  (37) 
oracle

>  <origin>  (37) 
adg

>  <m_score__min__energy>  (37) 
-10.869999999999999

>  <m_primary>  (37) 
energy

$$$$
38:0
     RDKit          3D

 38 39  0  0  0  0  0  0  0  0999 V2000
   -1.7330   21.8490  -32.2130 C   0  0  0  0  0  0  0  0  0  0  0  0
   -1.7290   20.8020  -33.0490 C   0  0  0  0  0  0  0  0  0  0  0  0
   -0.8850   20.8280  -34.2690 C   0  0  0  0  0  0  0  0  0  0  0  0
   -0.8230   19.8270  -35.0320 O   0  0  0  0  0  0  0  0  0  0  0  0
   -0.1320   21.9550  -34.5780 O   0  0  0  0  0  0  0  0  0  0  0  0
   -2.5910   19.6280  -32.7590 C   0  0  0  0  0  0  0  0  0  0  0  0
   -2.0780   18.5790  -32.2820 O   0  0  0  0  0  0  0  0  0  0  0  0
   -4.0060   19.6630  -33.0080 N   0  0  0  0  0  0  0  0  0  0  0  0
   -4.7310   18.8730  -33.8490 C   0  0  0  0  0  0  0  0  0  0  0  0
   -4.2180   17.7130  -34.6050 C   0  0  0  0  0  0  0  0  0  0  0  0
   -2.8230   17.5640  -34.8780 N   0  0  0  0  0  0  0  0  0  0  0  0
   -5.0180   16.8140  -34.9780 O   0  0  0  0  0  0  0  0  0  0  0  0
   -6.0600   19.2890  -33.8880 C   0  0  0  0  0  0  0  0  0  0  0  0
   -6.1330   20.3560  -33.0210 C   0  0  0  0  0  0  0  0  0  0  0  0
   -7.2130   21.1620  -32.6790 C   0  0  0  0  0  0  0  0  0  0  0  0
   -6.9900   22.2170  -31.7780 C   0  0  0  0  0  0  0  0  0  0  0  0
   -5.6980   22.4480  -31.2370 C   0  0  0  0  0  0  0  0  0  0  0  0
   -5.4760   23.5410  -30.3260 N   0  0  0  0  0  0  0  0  0  0  0  0
   -6.5300   24.5360  -30.1160 C   0  0  0  0  0  0  0  0  0  0  0  0
   -4.2160   23.6440  -29.5800 C   0  0  0  0  0  0  0  0  0  0  0  0
   -3.5160   24.9150  -29.9330 C   0  0  0  0  0  0  0  0  0  0  0  0
   -3.9620   25.6470  -30.8570 O   0  0  0  0  0  0  0  0  0  0  0  0
   -2.3460   25.2740  -29.2750 O   0  0  0  0  0  0  0  0  0  0  0  0
   -4.6260   21.6090  -31.6140 C   0  0  0  0  0  0  0  0  0  0  0  0
   -4.8800   20.5590  -32.5010 C   0  0  0  0  0  0  0  0  0  0  0  0
   -2.3592   21.8285  -31.3088 H   0  0  0  0  0  0  0  0  0  0  0  0
   -1.1101   22.7291  -32.4308 H   0  0  0  0  0  0  0  0  0  0  0  0
   -2.1150   18.1870  -34.4340 H   0  0  0  0  0  0  0  0  0  0  0  0
   -2.4880   16.7660  -35.4630 H   0  0  0  0  0  0  0  0  0  0  0  0
   -6.8770   18.8570  -34.4845 H   0  0  0  0  0  0  0  0  0  0  0  0
   -8.2122   20.9793  -33.1011 H   0  0  0  0  0  0  0  0  0  0  0  0
   -7.8258   22.8711  -31.4887 H   0  0  0  0  0  0  0  0  0  0  0  0
   -6.6857   24.6830  -29.0371 H   0  0  0  0  0  0  0  0  0  0  0  0
   -6.2314   25.4892  -30.5766 H   0  0  0  0  0  0  0  0  0  0  0  0
   -7.4645   24.1830  -30.5766 H   0  0  0  0  0  0  0  0  0  0  0  0
   -4.4296   23.6333  -28.5010 H   0  0  0  0  0  0  0  0  0  0  0  0
   -3.5711   22.7920  -29.8411 H   0  0  0  0  0  0  0  0  0  0  0  0
   -3.6137   21.7782  -31.2183 H   0  0  0  0  0  0  0  0  0  0  0  0
  1  2  2  0
  2  3  1  0
  3  4  2  0
  3  5  1  0
  2  6  1  0
  6  7  2  0
  6  8  1  0
  8  9  1  0
  9 10  1  0
 10 11  1  0
 10 12  2  0
  9 13  2  0
 13 14  1  0
 14 15  2  0
 15 16  1  0
 16 17  2  0
 17 18  1  0
 18 19  1  0
 18 20  1  0
 20 21  1  0
 21 22  2  0
 21 23  1  0
 17 24  1  0
 24 25  2  0
 25  8  1  0
 25 14  1  0
  1 26  1  0
  1 27  1  0
 11 28  1  0
 11 29  1  0
 13 30  1  0
 15 31  1  0
 16 32  1  0
 19 33  1  0
 19 34  1  0
 19 35  1  0
 20 36  1  0
 20 37  1  0
 24 38  1  0
M  CHG  2   5  -1  23  -1
M  END
>  <UniqueID>  (38) 
38

>  <SMILES>  (38) 
C=C(C(=O)[O-])C(=O)n1c(C(N)=O)cc2ccc(N(C)CC(=O)[O-])cc21

>  <Energy>  (38) 
82.15816191360555

>  <Genealogy>  (38) 
C=C(C(=O)[O-])C(=O)n1c(C(N)=O)cc2ccc(N(C)CC(=O)[O-])cc21 (protonated)
C=C(C(=O)[O-])C(=O)n1c(C(N)=O)cc2ccc(N(C)CC(=O)[O-])cc21 (3D coordinates assigned)
C=C(C(=O)[O-])C(=O)n1c(C(N)=O)cc2ccc(N(C)CC(=O)[O-])cc21 (optimized conformer: 82.15816191360555 kcal/mol)

>  <smiles>  (38) 
C=C(C(=O)O)C(=O)n1c(C(N)=O)cc2ccc(N(C)CC(=O)O)cc21

>  <score_type>  (38) 
oracle

>  <origin>  (38) 
adg

>  <m_score__min__energy>  (38) 
-10.470000000000001

>  <m_primary>  (38) 
energy

$$$$
39:0
     RDKit          3D

 42 44  0  0  0  0  0  0  0  0999 V2000
   -4.2000   25.5710  -30.4740 N   0  0  0  0  0  0  0  0  0  0  0  0
   -5.1840   24.5430  -30.3970 C   0  0  0  0  0  0  0  0  0  0  0  0
   -6.2540   24.7590  -29.7670 O   0  0  0  0  0  0  0  0  0  0  0  0
   -4.9830   23.2470  -31.0780 C   0  0  0  0  0  0  0  0  0  0  0  0
   -5.7960   22.7790  -32.1100 C   0  0  0  0  0  0  0  0  0  0  0  0
   -5.2310   21.5880  -32.5090 C   0  0  0  0  0  0  0  0  0  0  0  0
   -5.6270   20.6910  -33.4970 C   0  0  0  0  0  0  0  0  0  0  0  0
   -4.8580   19.5280  -33.6770 C   0  0  0  0  0  0  0  0  0  0  0  0
   -3.7260   19.2780  -32.8610 C   0  0  0  0  0  0  0  0  0  0  0  0
   -2.8950   18.0420  -33.0770 C   0  0  0  0  0  0  0  0  0  0  0  0
   -1.5100   18.2070  -32.4510 C   0  0  0  0  0  0  0  0  0  0  0  0
   -0.8410   19.3740  -33.0150 N   0  0  0  0  0  0  0  0  0  0  0  0
   -0.6790   19.6540  -34.3190 C   0  0  0  0  0  0  0  0  0  0  0  0
   -0.0620   20.8860  -34.3660 C   0  0  0  0  0  0  0  0  0  0  0  0
    0.3270   21.6280  -35.5680 C   0  0  0  0  0  0  0  0  0  0  0  0
    0.1140   21.1400  -36.7080 O   0  0  0  0  0  0  0  0  0  0  0  0
    0.9340   22.8720  -35.4550 O   0  0  0  0  0  0  0  0  0  0  0  0
    0.1210   21.3210  -33.1020 N   0  0  0  0  0  0  0  0  0  0  0  0
   -0.3680   20.3840  -32.3020 N   0  0  0  0  0  0  0  0  0  0  0  0
   -3.3470   20.2180  -31.8780 C   0  0  0  0  0  0  0  0  0  0  0  0
   -4.1250   21.3700  -31.7300 C   0  0  0  0  0  0  0  0  0  0  0  0
   -3.9620   22.3750  -30.8470 N   0  0  0  0  0  0  0  0  0  0  0  0
   -2.9580   22.4400  -29.8270 C   0  0  0  0  0  0  0  0  0  0  0  0
   -3.1490   21.8560  -28.7250 O   0  0  0  0  0  0  0  0  0  0  0  0
   -1.7430   23.2940  -30.0120 C   0  0  0  0  0  0  0  0  0  0  0  0
   -1.6450   24.5300  -28.6830 P   0  0  1  0  0  0  0  0  0  0  0  0
   -0.5660   24.1360  -27.7010 O   0  0  0  0  0  0  0  0  0  0  0  0
   -1.2840   26.0460  -29.3410 O   0  0  0  0  0  0  0  0  0  0  0  0
   -3.1340   24.6040  -27.8830 O   0  0  0  0  0  0  0  0  0  0  0  0
   -3.4780   25.6810  -29.7280 H   0  0  0  0  0  0  0  0  0  0  0  0
   -6.6973   23.2592  -32.5186 H   0  0  0  0  0  0  0  0  0  0  0  0
   -6.5140   20.8861  -34.1176 H   0  0  0  0  0  0  0  0  0  0  0  0
   -5.1371   18.8055  -34.4580 H   0  0  0  0  0  0  0  0  0  0  0  0
   -3.4004   17.1815  -32.6143 H   0  0  0  0  0  0  0  0  0  0  0  0
   -2.7776   17.8788  -34.1585 H   0  0  0  0  0  0  0  0  0  0  0  0
   -1.6153   18.3380  -31.3639 H   0  0  0  0  0  0  0  0  0  0  0  0
   -0.9096   17.3101  -32.6634 H   0  0  0  0  0  0  0  0  0  0  0  0
   -0.9773   19.0288  -35.1735 H   0  0  0  0  0  0  0  0  0  0  0  0
   -2.4631   20.0484  -31.2455 H   0  0  0  0  0  0  0  0  0  0  0  0
   -0.8445   22.6598  -29.9869 H   0  0  0  0  0  0  0  0  0  0  0  0
   -1.8080   23.8099  -30.9813 H   0  0  0  0  0  0  0  0  0  0  0  0
   -3.7400   25.0610  -28.5180 H   0  0  0  0  0  0  0  0  0  0  0  0
  1  2  1  0
  2  3  2  0
  2  4  1  0
  4  5  2  0
  5  6  1  0
  6  7  2  0
  7  8  1  0
  8  9  2  0
  9 10  1  0
 10 11  1  0
 11 12  1  0
 12 13  1  0
 13 14  2  0
 14 15  1  0
 15 16  2  0
 15 17  1  0
 14 18  1  0
 18 19  2  0
  9 20  1  0
 20 21  2  0
 21 22  1  0
 22 23  1  0
 23 24  2  0
 23 25  1  0
 25 26  1  0
 26 27  2  0
 26 28  1  6
 26 29  1  0
 22  4  1  0
 21  6  1  0
 19 12  1  0
  1 30  1  0
  5 31  1  0
  7 32  1  0
  8 33  1  0
 10 34  1  0
 10 35  1  0
 11 36  1  0
 11 37  1  0
 13 38  1  0
 20 39  1  0
 25 40  1  0
 25 41  1  0
 29 42  1  0
M  CHG  3   1  -1  17  -1  28  -1
M  END
>  <UniqueID>  (39) 
39

>  <SMILES>  (39) 
[NH-]C(=O)c1cc2ccc(CCn3cc(C(=O)[O-])nn3)cc2n1C(=O)C[P@@](=O)([O-])O

>  <Energy>  (39) 
107.61568647254325

>  <Genealogy>  (39) 
[NH-]C(=O)c1cc2ccc(CCn3cc(C(=O)[O-])nn3)cc2n1C(=O)CP(=O)([O-])O (protonated)
[NH-]C(=O)c1cc2ccc(CCn3cc(C(=O)[O-])nn3)cc2n1C(=O)C[P@@](=O)([O-])O (chirality)
[NH-]C(=O)c1cc2ccc(CCn3cc(C(=O)[O-])nn3)cc2n1C(=O)C[P@@](=O)([O-])O (3D coordinates assigned)
[NH-]C(=O)c1cc2ccc(CCn3cc(C(=O)[O-])nn3)cc2n1C(=O)C[P@@](=O)([O-])O (optimized conformer: 107.61568647254325 kcal/mol)

>  <smiles>  (39) 
NC(=O)c1cc2ccc(CCn3cc(C(=O)O)nn3)cc2n1C(=O)CP(=O)(O)O

>  <score_type>  (39) 
oracle

>  <origin>  (39) 
adg

>  <m_score__min__energy>  (39) 
-12.789999999999999

>  <m_primary>  (39) 
energy

$$$$
40:0
     RDKit          3D

 49 50  0  0  0  0  0  0  0  0999 V2000
    0.3000   20.9920  -28.5640 C   0  0  0  0  0  0  0  0  0  0  0  0
   -1.0350   20.9970  -29.1910 N   0  0  1  0  0  0  0  0  0  0  0  0
   -1.1710   19.9200  -30.2050 C   0  0  0  0  0  0  0  0  0  0  0  0
   -0.5820   20.2980  -31.5740 C   0  0  0  0  0  0  0  0  0  0  0  0
   -0.1400   21.6280  -31.5850 O   0  0  0  0  0  0  0  0  0  0  0  0
   -2.0370   20.8400  -28.1500 C   0  0  0  0  0  0  0  0  0  0  0  0
   -1.7460   20.3110  -27.0840 O   0  0  0  0  0  0  0  0  0  0  0  0
   -3.4300   21.3950  -28.3290 C   0  0  0  0  0  0  0  0  0  0  0  0
   -3.4520   22.6500  -29.1000 N   0  0  0  0  0  0  0  0  0  0  0  0
   -3.0000   23.9110  -28.4870 C   0  0  0  0  0  0  0  0  0  0  0  0
   -1.7650   24.4180  -29.1690 C   0  0  0  0  0  0  0  0  0  0  0  0
   -1.5980   25.6540  -29.3370 O   0  0  0  0  0  0  0  0  0  0  0  0
   -0.8200   23.5280  -29.6570 O   0  0  0  0  0  0  0  0  0  0  0  0
   -3.5920   22.6050  -30.5340 C   0  0  0  0  0  0  0  0  0  0  0  0
   -2.5860   22.3780  -31.2540 O   0  0  0  0  0  0  0  0  0  0  0  0
   -4.8930   22.6260  -31.1440 N   0  0  0  0  0  0  0  0  0  0  0  0
   -5.7160   23.7060  -31.2520 C   0  0  0  0  0  0  0  0  0  0  0  0
   -5.4850   25.0320  -30.6420 C   0  0  0  0  0  0  0  0  0  0  0  0
   -4.2070   25.6560  -30.7050 N   0  0  0  0  0  0  0  0  0  0  0  0
   -6.4280   25.6180  -30.0370 O   0  0  0  0  0  0  0  0  0  0  0  0
   -6.9050   23.3530  -31.8860 C   0  0  0  0  0  0  0  0  0  0  0  0
   -6.7940   22.0040  -32.1380 C   0  0  0  0  0  0  0  0  0  0  0  0
   -7.7290   21.1260  -32.6780 C   0  0  0  0  0  0  0  0  0  0  0  0
   -7.4010   19.7600  -32.7110 C   0  0  0  0  0  0  0  0  0  0  0  0
   -6.1780   19.2960  -32.1570 C   0  0  0  0  0  0  0  0  0  0  0  0
   -5.8030   17.8370  -32.1930 C   0  0  0  0  0  0  0  0  0  0  0  0
   -6.1250   17.2630  -30.9780 F   0  0  0  0  0  0  0  0  0  0  0  0
   -4.4470   17.6630  -32.4230 F   0  0  0  0  0  0  0  0  0  0  0  0
   -5.2730   20.2210  -31.5890 C   0  0  0  0  0  0  0  0  0  0  0  0
   -5.5860   21.5820  -31.6470 C   0  0  0  0  0  0  0  0  0  0  0  0
    0.1910   20.9924  -27.4694 H   0  0  0  0  0  0  0  0  0  0  0  0
    0.8490   20.0918  -28.8775 H   0  0  0  0  0  0  0  0  0  0  0  0
    0.8557   21.8881  -28.8775 H   0  0  0  0  0  0  0  0  0  0  0  0
   -1.1800   21.9300  -29.6490 H   0  0  0  0  0  0  0  0  0  0  0  0
   -0.6499   19.0244  -29.8356 H   0  0  0  0  0  0  0  0  0  0  0  0
   -2.2468   19.7422  -30.3502 H   0  0  0  0  0  0  0  0  0  0  0  0
    0.2680   19.6354  -31.7944 H   0  0  0  0  0  0  0  0  0  0  0  0
   -1.3683   20.1856  -32.3349 H   0  0  0  0  0  0  0  0  0  0  0  0
   -0.9240   22.1930  -31.3510 H   0  0  0  0  0  0  0  0  0  0  0  0
   -4.0404   20.6477  -28.8572 H   0  0  0  0  0  0  0  0  0  0  0  0
   -3.8288   21.6154  -27.3278 H   0  0  0  0  0  0  0  0  0  0  0  0
   -3.7975   24.6631  -28.5780 H   0  0  0  0  0  0  0  0  0  0  0  0
   -2.7689   23.7266  -27.4275 H   0  0  0  0  0  0  0  0  0  0  0  0
   -3.5660   25.6750  -29.8780 H   0  0  0  0  0  0  0  0  0  0  0  0
   -7.7513   24.0110  -32.1325 H   0  0  0  0  0  0  0  0  0  0  0  0
   -8.6922   21.4890  -33.0659 H   0  0  0  0  0  0  0  0  0  0  0  0
   -8.0978   19.0433  -33.1701 H   0  0  0  0  0  0  0  0  0  0  0  0
   -6.3565   17.3603  -33.0154 H   0  0  0  0  0  0  0  0  0  0  0  0
   -4.3432   19.8776  -31.1120 H   0  0  0  0  0  0  0  0  0  0  0  0
  1  2  1  0
  2  3  1  0
  3  4  1  0
  4  5  1  0
  2  6  1  0
  6  7  2  0
  6  8  1  0
  8  9  1  0
  9 10  1  0
 10 11  1  0
 11 12  2  0
 11 13  1  0
  9 14  1  0
 14 15  2  0
 14 16  1  0
 16 17  1  0
 17 18  1  0
 18 19  1  0
 18 20  2  0
 17 21  2  0
 21 22  1  0
 22 23  2  0
 23 24  1  0
 24 25  2  0
 25 26  1  0
 26 27  1  0
 26 28  1  0
 25 29  1  0
 29 30  2  0
 30 16  1  0
 30 22  1  0
  1 31  1  0
  1 32  1  0
  1 33  1  0
  2 34  1  6
  3 35  1  0
  3 36  1  0
  4 37  1  0
  4 38  1  0
  5 39  1  0
  8 40  1  0
  8 41  1  0
 10 42  1  0
 10 43  1  0
 19 44  1  0
 21 45  1  0
 23 46  1  0
 24 47  1  0
 26 48  1  0
 29 49  1  0
M  CHG  3   2   1  13  -1  19  -1
M  END
>  <UniqueID>  (40) 
40

>  <SMILES>  (40) 
C[N@@H+](CCO)C(=O)CN(CC(=O)[O-])C(=O)n1c(C([NH-])=O)cc2ccc(C(F)F)cc21

>  <Energy>  (40) 
97.9367427334267

>  <Genealogy>  (40) 
C[NH+](CCO)C(=O)CN(CC(=O)[O-])C(=O)n1c(C([NH-])=O)cc2ccc(C(F)F)cc21 (protonated)
C[N@@H+](CCO)C(=O)CN(CC(=O)[O-])C(=O)n1c(C([NH-])=O)cc2ccc(C(F)F)cc21 (chirality)
C[N@@H+](CCO)C(=O)CN(CC(=O)[O-])C(=O)n1c(C([NH-])=O)cc2ccc(C(F)F)cc21 (3D coordinates assigned)
C[N@@H+](CCO)C(=O)CN(CC(=O)[O-])C(=O)n1c(C([NH-])=O)cc2ccc(C(F)F)cc21 (optimized conformer: 97.9367427334267 kcal/mol)

>  <smiles>  (40) 
CN(CCO)C(=O)CN(CC(=O)O)C(=O)n1c(C(N)=O)cc2ccc(C(F)F)cc21

>  <score_type>  (40) 
oracle

>  <origin>  (40) 
adg

>  <m_score__min__energy>  (40) 
-11.140000000000001

>  <m_primary>  (40) 
energy

$$$$
41:0
     RDKit          3D

 52 53  0  0  0  0  0  0  0  0999 V2000
   -2.1930   22.3640  -27.3490 C   0  0  0  0  0  0  0  0  0  0  0  0
   -1.8220   22.9260  -28.6620 N   0  0  2  0  0  0  0  0  0  0  0  0
   -1.1480   21.9370  -29.5370 C   0  0  0  0  0  0  0  0  0  0  0  0
   -1.2550   22.2280  -31.0570 C   0  0  0  0  0  0  0  0  0  0  0  0
   -1.9540   21.0890  -31.8120 C   0  0  0  0  0  0  0  0  0  0  0  0
   -3.4450   21.0200  -31.4590 C   0  0  0  0  0  0  0  0  0  0  0  0
   -4.2290   22.1240  -32.1140 C   0  0  0  0  0  0  0  0  0  0  0  0
   -3.8480   22.5970  -33.2190 O   0  0  0  0  0  0  0  0  0  0  0  0
   -5.4930   22.5340  -31.5710 N   0  0  0  0  0  0  0  0  0  0  0  0
   -5.7980   23.6990  -30.9330 C   0  0  0  0  0  0  0  0  0  0  0  0
   -4.9000   24.8610  -30.7820 C   0  0  0  0  0  0  0  0  0  0  0  0
   -3.5130   24.6590  -30.5210 N   0  0  0  0  0  0  0  0  0  0  0  0
   -5.3490   26.0350  -30.8520 O   0  0  0  0  0  0  0  0  0  0  0  0
   -7.1230   23.6840  -30.4990 C   0  0  0  0  0  0  0  0  0  0  0  0
   -7.6240   22.4660  -30.9010 C   0  0  0  0  0  0  0  0  0  0  0  0
   -8.8920   21.9150  -30.7320 C   0  0  0  0  0  0  0  0  0  0  0  0
   -9.1220   20.6260  -31.2400 C   0  0  0  0  0  0  0  0  0  0  0  0
   -8.0890   19.9120  -31.8970 C   0  0  0  0  0  0  0  0  0  0  0  0
   -8.3570   18.5330  -32.4290 C   0  0  0  0  0  0  0  0  0  0  0  0
   -7.2420   17.7350  -32.2410 F   0  0  0  0  0  0  0  0  0  0  0  0
   -9.4340   17.9780  -31.7610 F   0  0  0  0  0  0  0  0  0  0  0  0
   -6.8160   20.5040  -32.0530 C   0  0  0  0  0  0  0  0  0  0  0  0
   -6.6200   21.7930  -31.5460 C   0  0  0  0  0  0  0  0  0  0  0  0
   -1.0670   24.1530  -28.5350 C   0  0  0  0  0  0  0  0  0  0  0  0
    0.1620   24.1860  -28.8270 O   0  0  0  0  0  0  0  0  0  0  0  0
   -1.7220   25.3180  -28.1140 O   0  0  0  0  0  0  0  0  0  0  0  0
   -2.2660   25.4880  -26.8060 C   0  0  0  0  0  0  0  0  0  0  0  0
   -3.6770   24.9100  -26.7200 C   0  0  0  0  0  0  0  0  0  0  0  0
   -4.0760   24.4610  -27.9850 O   0  0  0  0  0  0  0  0  0  0  0  0
   -1.7768   22.9945  -26.5495 H   0  0  0  0  0  0  0  0  0  0  0  0
   -3.2889   22.3341  -27.2594 H   0  0  0  0  0  0  0  0  0  0  0  0
   -1.7898   21.3445  -27.2594 H   0  0  0  0  0  0  0  0  0  0  0  0
   -2.7240   23.1770  -29.1330 H   0  0  0  0  0  0  0  0  0  0  0  0
   -0.0817   21.9138  -29.2680 H   0  0  0  0  0  0  0  0  0  0  0  0
   -1.6608   20.9782  -29.3701 H   0  0  0  0  0  0  0  0  0  0  0  0
   -1.8292   23.1550  -31.2017 H   0  0  0  0  0  0  0  0  0  0  0  0
   -0.2350   22.3256  -31.4572 H   0  0  0  0  0  0  0  0  0  0  0  0
   -1.8492   21.2587  -32.8938 H   0  0  0  0  0  0  0  0  0  0  0  0
   -1.4835   20.1385  -31.5202 H   0  0  0  0  0  0  0  0  0  0  0  0
   -3.8454   20.0521  -31.7949 H   0  0  0  0  0  0  0  0  0  0  0  0
   -3.5425   21.1333  -30.3692 H   0  0  0  0  0  0  0  0  0  0  0  0
   -3.0130   25.2270  -29.8010 H   0  0  0  0  0  0  0  0  0  0  0  0
   -7.6548   24.4764  -29.9520 H   0  0  0  0  0  0  0  0  0  0  0  0
   -9.6884   22.4720  -30.2168 H   0  0  0  0  0  0  0  0  0  0  0  0
  -10.1146   20.1657  -31.1267 H   0  0  0  0  0  0  0  0  0  0  0  0
   -8.5841   18.5990  -33.5033 H   0  0  0  0  0  0  0  0  0  0  0  0
   -6.0010   19.9661  -32.5594 H   0  0  0  0  0  0  0  0  0  0  0  0
   -1.6214   24.9728  -26.0787 H   0  0  0  0  0  0  0  0  0  0  0  0
   -2.3143   26.5643  -26.5840 H   0  0  0  0  0  0  0  0  0  0  0  0
   -3.6856   24.0677  -26.0125 H   0  0  0  0  0  0  0  0  0  0  0  0
   -4.3714   25.6888  -26.3718 H   0  0  0  0  0  0  0  0  0  0  0  0
   -3.8450   25.1870  -28.6200 H   0  0  0  0  0  0  0  0  0  0  0  0
  1  2  1  0
  2  3  1  0
  3  4  1  0
  4  5  1  0
  5  6  1  0
  6  7  1  0
  7  8  2  0
  7  9  1  0
  9 10  1  0
 10 11  1  0
 11 12  1  0
 11 13  2  0
 10 14  2  0
 14 15  1  0
 15 16  2  0
 16 17  1  0
 17 18  2  0
 18 19  1  0
 19 20  1  0
 19 21  1  0
 18 22  1  0
 22 23  2  0
  2 24  1  0
 24 25  2  0
 24 26  1  0
 26 27  1  0
 27 28  1  0
 28 29  1  0
 23  9  1  0
 23 15  1  0
  1 30  1  0
  1 31  1  0
  1 32  1  0
  2 33  1  6
  3 34  1  0
  3 35  1  0
  4 36  1  0
  4 37  1  0
  5 38  1  0
  5 39  1  0
  6 40  1  0
  6 41  1  0
 12 42  1  0
 14 43  1  0
 16 44  1  0
 17 45  1  0
 19 46  1  0
 22 47  1  0
 27 48  1  0
 27 49  1  0
 28 50  1  0
 28 51  1  0
 29 52  1  0
M  CHG  2   2   1  12  -1
M  END
>  <UniqueID>  (41) 
41

>  <SMILES>  (41) 
C[N@H+](CCCCC(=O)n1c(C([NH-])=O)cc2ccc(C(F)F)cc21)C(=O)OCCO

>  <Energy>  (41) 
87.59312334205694

>  <Genealogy>  (41) 
C[NH+](CCCCC(=O)n1c(C([NH-])=O)cc2ccc(C(F)F)cc21)C(=O)OCCO (protonated)
C[N@H+](CCCCC(=O)n1c(C([NH-])=O)cc2ccc(C(F)F)cc21)C(=O)OCCO (chirality)
C[N@H+](CCCCC(=O)n1c(C([NH-])=O)cc2ccc(C(F)F)cc21)C(=O)OCCO (3D coordinates assigned)
C[N@H+](CCCCC(=O)n1c(C([NH-])=O)cc2ccc(C(F)F)cc21)C(=O)OCCO (optimized conformer: 87.59312334205694 kcal/mol)

>  <smiles>  (41) 
CN(CCCCC(=O)n1c(C(N)=O)cc2ccc(C(F)F)cc21)C(=O)OCCO

>  <score_type>  (41) 
oracle

>  <origin>  (41) 
adg

>  <m_score__min__energy>  (41) 
-9.1899999999999995

>  <m_primary>  (41) 
energy

$$$$
42:0
     RDKit          3D

 43 44  0  0  0  0  0  0  0  0999 V2000
   -0.7140   21.2150  -27.5810 C   0  0  0  0  0  0  0  0  0  0  0  0
   -0.7190   22.7220  -27.3570 C   0  0  0  0  0  0  0  0  0  0  0  0
   -1.1020   23.4000  -28.5520 O   0  0  0  0  0  0  0  0  0  0  0  0
   -2.2600   24.1770  -28.6550 C   0  0  0  0  0  0  0  0  0  0  0  0
   -2.2570   25.2570  -29.3070 O   0  0  0  0  0  0  0  0  0  0  0  0
   -3.5080   23.7260  -27.9680 C   0  0  0  0  0  0  0  0  0  0  0  0
   -3.8010   22.3420  -28.3200 N   0  0  0  0  0  0  0  0  0  0  0  0
   -3.6030   21.8020  -29.6310 C   0  0  0  0  0  0  0  0  0  0  0  0
   -3.0120   20.6990  -29.7810 O   0  0  0  0  0  0  0  0  0  0  0  0
   -4.1060   22.5300  -30.8050 C   0  0  0  0  0  0  0  0  0  0  0  0
   -3.2910   22.9700  -31.6610 O   0  0  0  0  0  0  0  0  0  0  0  0
   -5.5130   22.7580  -30.9830 N   0  0  0  0  0  0  0  0  0  0  0  0
   -6.1860   23.9330  -30.8250 C   0  0  0  0  0  0  0  0  0  0  0  0
   -5.5950   25.1910  -30.3100 C   0  0  0  0  0  0  0  0  0  0  0  0
   -4.2540   25.5590  -30.6390 N   0  0  0  0  0  0  0  0  0  0  0  0
   -6.2790   25.9590  -29.5830 O   0  0  0  0  0  0  0  0  0  0  0  0
   -7.5320   23.7680  -31.1530 C   0  0  0  0  0  0  0  0  0  0  0  0
   -7.6580   22.4490  -31.5280 C   0  0  0  0  0  0  0  0  0  0  0  0
   -8.7760   21.7450  -31.9640 C   0  0  0  0  0  0  0  0  0  0  0  0
   -8.6090   20.3930  -32.3110 C   0  0  0  0  0  0  0  0  0  0  0  0
   -7.3320   19.7810  -32.2390 C   0  0  0  0  0  0  0  0  0  0  0  0
   -7.1690   18.3310  -32.6010 C   0  0  0  0  0  0  0  0  0  0  0  0
   -6.4040   17.5850  -31.5140 C   0  0  0  0  0  0  0  0  0  0  0  0
   -6.2210   20.5280  -31.7850 C   0  0  0  0  0  0  0  0  0  0  0  0
   -6.4230   21.8630  -31.4210 C   0  0  0  0  0  0  0  0  0  0  0  0
   -0.7123   20.6998  -26.6091 H   0  0  0  0  0  0  0  0  0  0  0  0
   -1.6112   20.9256  -28.1478 H   0  0  0  0  0  0  0  0  0  0  0  0
    0.1851   20.9315  -28.1478 H   0  0  0  0  0  0  0  0  0  0  0  0
   -1.4323   22.9673  -26.5564 H   0  0  0  0  0  0  0  0  0  0  0  0
    0.2935   23.0442  -27.0722 H   0  0  0  0  0  0  0  0  0  0  0  0
   -3.3724   23.8037  -26.8792 H   0  0  0  0  0  0  0  0  0  0  0  0
   -4.3454   24.3639  -28.2871 H   0  0  0  0  0  0  0  0  0  0  0  0
   -3.8610   26.4610  -30.2890 H   0  0  0  0  0  0  0  0  0  0  0  0
   -3.6280   24.9210  -31.1770 H   0  0  0  0  0  0  0  0  0  0  0  0
   -8.3246   24.5300  -31.1192 H   0  0  0  0  0  0  0  0  0  0  0  0
   -9.7601   22.2313  -32.0350 H   0  0  0  0  0  0  0  0  0  0  0  0
   -9.4774   19.8042  -32.6416 H   0  0  0  0  0  0  0  0  0  0  0  0
   -8.1629   17.8750  -32.7203 H   0  0  0  0  0  0  0  0  0  0  0  0
   -6.6018   18.2637  -33.5411 H   0  0  0  0  0  0  0  0  0  0  0  0
   -6.7495   17.9219  -30.5255 H   0  0  0  0  0  0  0  0  0  0  0  0
   -6.5823   16.5043  -31.6160 H   0  0  0  0  0  0  0  0  0  0  0  0
   -5.3282   17.7904  -31.6160 H   0  0  0  0  0  0  0  0  0  0  0  0
   -5.2227   20.0706  -31.7197 H   0  0  0  0  0  0  0  0  0  0  0  0
  1  2  1  0
  2  3  1  0
  3  4  1  0
  4  5  2  0
  4  6  1  0
  6  7  1  0
  7  8  1  0
  8  9  2  0
  8 10  1  0
 10 11  2  0
 10 12  1  0
 12 13  1  0
 13 14  1  0
 14 15  1  0
 14 16  2  0
 13 17  2  0
 17 18  1  0
 18 19  2  0
 19 20  1  0
 20 21  2  0
 21 22  1  0
 22 23  1  0
 21 24  1  0
 24 25  2  0
 25 12  1  0
 25 18  1  0
  1 26  1  0
  1 27  1  0
  1 28  1  0
  2 29  1  0
  2 30  1  0
  6 31  1  0
  6 32  1  0
 15 33  1  0
 15 34  1  0
 17 35  1  0
 19 36  1  0
 20 37  1  0
 22 38  1  0
 22 39  1  0
 23 40  1  0
 23 41  1  0
 23 42  1  0
 24 43  1  0
M  CHG  1   7  -1
M  END
>  <UniqueID>  (42) 
42

>  <SMILES>  (42) 
CCOC(=O)C[N-]C(=O)C(=O)n1c(C(N)=O)cc2ccc(CC)cc21

>  <Energy>  (42) 
68.87201176678148

>  <Genealogy>  (42) 
CCOC(=O)C[N-]C(=O)C(=O)n1c(C(N)=O)cc2ccc(CC)cc21 (protonated)
CCOC(=O)C[N-]C(=O)C(=O)n1c(C(N)=O)cc2ccc(CC)cc21 (3D coordinates assigned)
CCOC(=O)C[N-]C(=O)C(=O)n1c(C(N)=O)cc2ccc(CC)cc21 (optimized conformer: 68.87201176678148 kcal/mol)

>  <smiles>  (42) 
CCOC(=O)CNC(=O)C(=O)n1c(C(N)=O)cc2ccc(CC)cc21

>  <score_type>  (42) 
oracle

>  <origin>  (42) 
adg

>  <m_score__min__energy>  (42) 
-9.2200000000000006

>  <m_primary>  (42) 
energy

$$$$
43:0
     RDKit          3D

 38 40  0  0  0  0  0  0  0  0999 V2000
   -1.4750   25.9640  -28.9600 N   0  0  0  0  0  0  0  0  0  0  0  0
   -0.8280   24.6950  -29.0070 C   0  0  0  0  0  0  0  0  0  0  0  0
    0.3210   24.5700  -28.5060 O   0  0  0  0  0  0  0  0  0  0  0  0
   -1.4590   23.5420  -29.6840 C   0  0  0  0  0  0  0  0  0  0  0  0
   -0.7650   22.3870  -30.0340 C   0  0  0  0  0  0  0  0  0  0  0  0
   -1.6740   21.6080  -30.7130 C   0  0  0  0  0  0  0  0  0  0  0  0
   -1.5240   20.3470  -31.2760 C   0  0  0  0  0  0  0  0  0  0  0  0
   -2.6410   19.7600  -31.8930 C   0  0  0  0  0  0  0  0  0  0  0  0
   -3.8920   20.4390  -31.9370 C   0  0  0  0  0  0  0  0  0  0  0  0
   -5.0760   19.8620  -32.5340 N   0  0  0  0  0  0  0  0  0  0  0  0
   -6.3770   19.5770  -31.9020 C   0  0  2  0  0  0  0  0  0  0  0  0
   -6.7400   18.0710  -31.9010 C   0  0  0  0  0  0  0  0  0  0  0  0
   -7.9390   17.8260  -32.6120 O   0  0  0  0  0  0  0  0  0  0  0  0
   -9.0280   18.4610  -31.9610 C   0  0  0  0  0  0  0  0  0  0  0  0
   -8.8550   19.9950  -31.8600 C   0  0  0  0  0  0  0  0  0  0  0  0
   -7.5160   20.4690  -32.4470 C   0  0  2  0  0  0  0  0  0  0  0  0
   -7.5720   20.4250  -33.8490 O   0  0  0  0  0  0  0  0  0  0  0  0
   -3.9960   21.7180  -31.3420 C   0  0  0  0  0  0  0  0  0  0  0  0
   -2.8620   22.2860  -30.7520 C   0  0  0  0  0  0  0  0  0  0  0  0
   -2.7500   23.4750  -30.1210 N   0  0  0  0  0  0  0  0  0  0  0  0
   -3.8090   24.4190  -29.8910 C   0  0  0  0  0  0  0  0  0  0  0  0
   -4.7140   24.1690  -29.0520 O   0  0  0  0  0  0  0  0  0  0  0  0
   -3.8590   25.6060  -30.6120 O   0  0  0  0  0  0  0  0  0  0  0  0
   -2.5160   26.0360  -28.9690 H   0  0  0  0  0  0  0  0  0  0  0  0
    0.2860   22.1479  -29.8146 H   0  0  0  0  0  0  0  0  0  0  0  0
   -0.5576   19.8229  -31.2397 H   0  0  0  0  0  0  0  0  0  0  0  0
   -2.5482   18.7629  -32.3481 H   0  0  0  0  0  0  0  0  0  0  0  0
   -4.9980   19.5700  -33.5360 H   0  0  0  0  0  0  0  0  0  0  0  0
   -6.2569   19.8507  -30.8434 H   0  0  0  0  0  0  0  0  0  0  0  0
   -5.9227   17.5060  -32.3730 H   0  0  0  0  0  0  0  0  0  0  0  0
   -6.8856   17.7518  -30.8585 H   0  0  0  0  0  0  0  0  0  0  0  0
   -9.9477   18.2476  -32.5255 H   0  0  0  0  0  0  0  0  0  0  0  0
   -9.0770   18.0653  -30.9358 H   0  0  0  0  0  0  0  0  0  0  0  0
   -9.6745   20.4807  -32.4100 H   0  0  0  0  0  0  0  0  0  0  0  0
   -8.8712   20.2668  -30.7942 H   0  0  0  0  0  0  0  0  0  0  0  0
   -7.3183   21.5087  -32.1473 H   0  0  0  0  0  0  0  0  0  0  0  0
   -7.8440   19.5030  -34.0980 H   0  0  0  0  0  0  0  0  0  0  0  0
   -4.9544   22.2580  -31.3432 H   0  0  0  0  0  0  0  0  0  0  0  0
  1  2  1  0
  2  3  2  0
  2  4  1  0
  4  5  2  0
  5  6  1  0
  6  7  2  0
  7  8  1  0
  8  9  2  0
  9 10  1  0
 10 11  1  0
 11 12  1  0
 12 13  1  0
 13 14  1  0
 14 15  1  0
 15 16  1  0
 16 17  1  0
  9 18  1  0
 18 19  2  0
 19 20  1  0
 20 21  1  0
 21 22  2  0
 21 23  1  0
 20  4  1  0
 19  6  1  0
 16 11  1  0
  1 24  1  0
  5 25  1  0
  7 26  1  0
  8 27  1  0
 10 28  1  0
 11 29  1  1
 12 30  1  0
 12 31  1  0
 14 32  1  0
 14 33  1  0
 15 34  1  0
 15 35  1  0
 16 36  1  6
 17 37  1  0
 18 38  1  0
M  CHG  2   1  -1  23  -1
M  END
>  <UniqueID>  (43) 
43

>  <SMILES>  (43) 
[NH-]C(=O)c1cc2ccc(N[C@@H]3COCC[C@@H]3O)cc2n1C(=O)[O-]

>  <Energy>  (43) 
92.91191808421726

>  <Genealogy>  (43) 
[NH-]C(=O)c1cc2ccc(N[C@@H]3COCC[C@@H]3O)cc2n1C(=O)[O-] (protonated)
[NH-]C(=O)c1cc2ccc(N[C@@H]3COCC[C@@H]3O)cc2n1C(=O)[O-] (3D coordinates assigned)
[NH-]C(=O)c1cc2ccc(N[C@@H]3COCC[C@@H]3O)cc2n1C(=O)[O-] (nonaromatic ring conformer: 92.91191808421726 kcal/mol)

>  <smiles>  (43) 
NC(=O)c1cc2ccc(N[C@@H]3COCC[C@@H]3O)cc2n1C(=O)O

>  <score_type>  (43) 
oracle

>  <origin>  (43) 
adg

>  <m_score__min__energy>  (43) 
-11.529999999999999

>  <m_primary>  (43) 
energy

$$$$
44:0
     RDKit          3D

 83 90  0  0  0  0  0  0  0  0999 V2000
   -2.8880   20.3990  -33.6390 C   0  0  0  0  0  0  0  0  0  0  0  0
   -3.6580   19.5020  -33.7040 C   0  0  0  0  0  0  0  0  0  0  0  0
   -4.5550   18.3670  -33.7920 C   0  0  0  0  0  0  0  0  0  0  0  0
   -5.9590   18.5530  -33.7240 C   0  0  0  0  0  0  0  0  0  0  0  0
   -6.8400   17.4510  -33.8450 C   0  0  0  0  0  0  0  0  0  0  0  0
   -6.2670   16.2250  -34.1280 C   0  0  0  0  0  0  0  0  0  0  0  0
   -6.8720   15.0200  -34.1990 C   0  0  0  0  0  0  0  0  0  0  0  0
   -5.8530   14.1270  -34.5080 C   0  0  0  0  0  0  0  0  0  0  0  0
   -6.1140   12.6640  -34.5140 C   0  0  0  0  0  0  0  0  0  0  0  0
   -5.0880   11.6950  -34.3320 N   0  0  0  0  0  0  0  0  0  0  0  0
   -7.2800   12.2340  -34.8240 O   0  0  0  0  0  0  0  0  0  0  0  0
   -4.6440   14.7700  -34.6890 N   0  0  0  0  0  0  0  0  0  0  0  0
   -3.3230   14.1510  -34.8640 C   0  0  0  0  0  0  0  0  0  0  0  0
   -3.1620   13.4080  -35.8800 O   0  0  0  0  0  0  0  0  0  0  0  0
   -2.0760   14.4420  -34.0420 C   0  0  0  0  0  0  0  0  0  0  0  0
   -2.2810   15.0540  -32.7630 C   0  0  0  0  0  0  0  0  0  0  0  0
   -1.2190   15.4320  -31.9780 C   0  0  0  0  0  0  0  0  0  0  0  0
    0.1160   15.2870  -32.4570 C   0  0  0  0  0  0  0  0  0  0  0  0
    1.2310   15.8260  -31.6970 N   0  0  0  0  0  0  0  0  0  0  0  0
    1.8060   17.0970  -32.1610 C   0  0  0  0  0  0  0  0  0  0  0  0
    3.3260   17.1760  -31.8900 C   0  0  0  0  0  0  0  0  0  0  0  0
    3.6990   16.8330  -30.4350 C   0  0  0  0  0  0  0  0  0  0  0  0
    3.7720   18.1230  -29.6740 N   0  0  0  0  0  0  0  0  0  0  0  0
    3.3370   18.0490  -28.2600 C   0  0  0  0  0  0  0  0  0  0  0  0
    2.3270   19.1220  -28.5140 C   0  0  0  0  0  0  0  0  0  0  0  0
    2.4620   20.4510  -27.8760 C   0  0  0  0  0  0  0  0  0  0  0  0
    0.9650   20.6450  -27.8120 N   0  0  0  0  0  0  0  0  0  0  0  0
    0.2280   21.8280  -28.1340 C   0  0  0  0  0  0  0  0  0  0  0  0
   -0.9960   21.7170  -28.7490 C   0  0  0  0  0  0  0  0  0  0  0  0
   -1.6990   22.8930  -29.0520 C   0  0  0  0  0  0  0  0  0  0  0  0
   -2.9580   22.8350  -29.7480 C   0  0  0  0  0  0  0  0  0  0  0  0
   -3.4130   21.6580  -30.4100 C   0  0  0  0  0  0  0  0  0  0  0  0
   -4.5490   21.7180  -31.2350 C   0  0  0  0  0  0  0  0  0  0  0  0
   -5.3210   22.9010  -31.3200 C   0  0  0  0  0  0  0  0  0  0  0  0
   -4.8330   24.0540  -30.7560 C   0  0  0  0  0  0  0  0  0  0  0  0
   -3.6570   24.0480  -30.0130 C   0  0  0  0  0  0  0  0  0  0  0  0
   -3.0460   25.2970  -29.7650 O   0  0  0  0  0  0  0  0  0  0  0  0
   -1.1000   24.1210  -28.8540 N   0  0  0  0  0  0  0  0  0  0  0  0
    0.0900   24.2430  -28.2670 N   0  0  0  0  0  0  0  0  0  0  0  0
    0.7600   23.1090  -27.8090 C   0  0  0  0  0  0  0  0  0  0  0  0
    2.0000   23.2650  -27.1680 N   0  0  0  0  0  0  0  0  0  0  0  0
    0.8850   19.2010  -28.1820 C   0  0  0  0  0  0  0  0  0  0  0  0
    2.6870   19.0920  -29.9820 C   0  0  0  0  0  0  0  0  0  0  0  0
    2.8200   15.7140  -29.7720 C   0  0  0  0  0  0  0  0  0  0  0  0
    2.0070   14.9370  -30.8030 C   0  0  0  0  0  0  0  0  0  0  0  0
    0.3160   14.6260  -33.7070 C   0  0  0  0  0  0  0  0  0  0  0  0
   -0.7680   14.1010  -34.4360 C   0  0  0  0  0  0  0  0  0  0  0  0
   -4.8980   16.0720  -34.3580 C   0  0  0  0  0  0  0  0  0  0  0  0
   -4.0040   17.0960  -34.1010 C   0  0  0  0  0  0  0  0  0  0  0  0
   -2.1726   21.2324  -33.5786 H   0  0  0  0  0  0  0  0  0  0  0  0
   -6.3679   19.5634  -33.5758 H   0  0  0  0  0  0  0  0  0  0  0  0
   -7.9269   17.5648  -33.7200 H   0  0  0  0  0  0  0  0  0  0  0  0
   -7.9377   14.7946  -34.0459 H   0  0  0  0  0  0  0  0  0  0  0  0
   -4.1310   11.8600  -34.7330 H   0  0  0  0  0  0  0  0  0  0  0  0
   -3.3065   15.2241  -32.4034 H   0  0  0  0  0  0  0  0  0  0  0  0
   -1.3993   15.8482  -30.9759 H   0  0  0  0  0  0  0  0  0  0  0  0
    1.6324   17.1917  -33.2431 H   0  0  0  0  0  0  0  0  0  0  0  0
    1.3186   17.9134  -31.6079 H   0  0  0  0  0  0  0  0  0  0  0  0
    3.8381   16.4686  -32.5588 H   0  0  0  0  0  0  0  0  0  0  0  0
    3.6382   18.2149  -32.0725 H   0  0  0  0  0  0  0  0  0  0  0  0
    4.6862   16.3481  -30.4160 H   0  0  0  0  0  0  0  0  0  0  0  0
    2.9009   17.0803  -27.9745 H   0  0  0  0  0  0  0  0  0  0  0  0
    4.0693   18.1554  -27.4461 H   0  0  0  0  0  0  0  0  0  0  0  0
    2.9432   20.4168  -26.8874 H   0  0  0  0  0  0  0  0  0  0  0  0
    3.0800   21.2184  -28.3651 H   0  0  0  0  0  0  0  0  0  0  0  0
   -1.4143   20.7305  -28.9976 H   0  0  0  0  0  0  0  0  0  0  0  0
   -2.8773   20.7066  -30.2758 H   0  0  0  0  0  0  0  0  0  0  0  0
   -4.8417   20.8348  -31.8218 H   0  0  0  0  0  0  0  0  0  0  0  0
   -6.2959   22.8970  -31.8295 H   0  0  0  0  0  0  0  0  0  0  0  0
   -5.3810   24.9978  -30.8940 H   0  0  0  0  0  0  0  0  0  0  0  0
    2.8650   23.4150  -27.7580 H   0  0  0  0  0  0  0  0  0  0  0  0
    1.9890   23.5870  -26.1590 H   0  0  0  0  0  0  0  0  0  0  0  0
    0.5938   18.5510  -27.3437 H   0  0  0  0  0  0  0  0  0  0  0  0
    0.1506   18.8896  -28.9394 H   0  0  0  0  0  0  0  0  0  0  0  0
    1.8957   18.6930  -30.6337 H   0  0  0  0  0  0  0  0  0  0  0  0
    2.9000   20.0219  -30.5296 H   0  0  0  0  0  0  0  0  0  0  0  0
    3.4800   15.0134  -29.2395 H   0  0  0  0  0  0  0  0  0  0  0  0
    2.1153   16.2011  -29.0819 H   0  0  0  0  0  0  0  0  0  0  0  0
    2.6951   14.3348  -31.4144 H   0  0  0  0  0  0  0  0  0  0  0  0
    1.2921   14.3033  -30.2577 H   0  0  0  0  0  0  0  0  0  0  0  0
    1.3355   14.5252  -34.1075 H   0  0  0  0  0  0  0  0  0  0  0  0
   -0.5964   13.4375  -35.2964 H   0  0  0  0  0  0  0  0  0  0  0  0
   -2.9167   16.9328  -34.1346 H   0  0  0  0  0  0  0  0  0  0  0  0
  1  2  3  0
  2  3  1  0
  3  4  2  0
  4  5  1  0
  5  6  2  0
  6  7  1  0
  7  8  2  0
  8  9  1  0
  9 10  1  0
  9 11  2  0
  8 12  1  0
 12 13  1  0
 13 14  2  0
 13 15  1  0
 15 16  2  0
 16 17  1  0
 17 18  2  0
 18 19  1  0
 19 20  1  0
 20 21  1  0
 21 22  1  0
 22 23  1  0
 23 24  1  0
 24 25  1  0
 25 26  1  0
 26 27  1  0
 27 28  1  0
 28 29  2  0
 29 30  1  0
 30 31  1  0
 31 32  2  0
 32 33  1  0
 33 34  2  0
 34 35  1  0
 35 36  2  0
 36 37  1  0
 30 38  2  0
 38 39  1  0
 39 40  2  0
 40 41  1  0
 27 42  1  0
 25 43  1  0
 22 44  1  0
 44 45  1  0
 18 46  1  0
 46 47  2  0
 12 48  1  0
 48 49  2  0
 49  3  1  0
 48  6  1  0
 47 15  1  0
 45 19  1  0
 43 23  1  0
 42 25  1  0
 40 28  1  0
 36 31  1  0
  1 50  1  0
  4 51  1  0
  5 52  1  0
  7 53  1  0
 10 54  1  0
 16 55  1  0
 17 56  1  0
 20 57  1  0
 20 58  1  0
 21 59  1  0
 21 60  1  0
 22 61  1  0
 24 62  1  0
 24 63  1  0
 26 64  1  0
 26 65  1  0
 29 66  1  0
 32 67  1  0
 33 68  1  0
 34 69  1  0
 35 70  1  0
 41 71  1  0
 41 72  1  0
 42 73  1  0
 42 74  1  0
 43 75  1  0
 43 76  1  0
 44 77  1  0
 44 78  1  0
 45 79  1  0
 45 80  1  0
 46 81  1  0
 47 82  1  0
 49 83  1  0
M  CHG  2  10  -1  37  -1
M  END
>  <UniqueID>  (44) 
44

>  <SMILES>  (44) 
C#Cc1ccc2cc(C([NH-])=O)n(C(=O)c3ccc(N4CCC(N5CC6(CN(c7cc(-c8ccccc8[O-])nnc7N)C6)C5)CC4)cc3)c2c1

>  <Energy>  (44) 
354.44413402313353

>  <Genealogy>  (44) 
C#Cc1ccc2cc(C([NH-])=O)n(C(=O)c3ccc(N4CCC(N5CC6(CN(c7cc(-c8ccccc8[O-])nnc7N)C6)C5)CC4)cc3)c2c1 (protonated)
C#Cc1ccc2cc(C([NH-])=O)n(C(=O)c3ccc(N4CCC(N5CC6(CN(c7cc(-c8ccccc8[O-])nnc7N)C6)C5)CC4)cc3)c2c1 (3D coordinates assigned)
C#Cc1ccc2cc(C([NH-])=O)n(C(=O)c3ccc(N4CCC(N5CC6(CN(c7cc(-c8ccccc8[O-])nnc7N)C6)C5)CC4)cc3)c2c1 (nonaromatic ring conformer: 354.44413402313353 kcal/mol)

>  <smiles>  (44) 
C#Cc1ccc2cc(C(N)=O)n(C(=O)c3ccc(N4CCC(N5CC6(CN(c7cc(-c8ccccc8O)nnc7N)C6)C5)CC4)cc3)c2c1

>  <score_type>  (44) 
oracle

>  <origin>  (44) 
adg

>  <m_score__min__energy>  (44) 
-13.06

>  <m_primary>  (44) 
energy

$$$$
45:0
     RDKit          3D

 44 45  0  0  0  0  0  0  0  0999 V2000
   -3.8060   22.0600  -32.9590 C   0  0  0  0  0  0  0  0  0  0  0  0
   -3.6640   21.5780  -31.5810 N   0  0  0  0  0  0  0  0  0  0  0  0
   -2.4930   20.7750  -31.2090 C   0  0  0  0  0  0  0  0  0  0  0  0
   -1.3950   21.6700  -30.7220 C   0  0  0  0  0  0  0  0  0  0  0  0
   -0.2280   21.5190  -31.1780 O   0  0  0  0  0  0  0  0  0  0  0  0
   -1.6740   22.7160  -29.7820 N   0  0  0  0  0  0  0  0  0  0  0  0
   -0.6330   23.6460  -29.3460 C   0  0  0  0  0  0  0  0  0  0  0  0
   -1.2280   24.9680  -28.9680 C   0  0  0  0  0  0  0  0  0  0  0  0
   -2.4010   25.2580  -29.3240 O   0  0  0  0  0  0  0  0  0  0  0  0
   -0.4740   25.8920  -28.2550 O   0  0  0  0  0  0  0  0  0  0  0  0
   -4.6120   21.9940  -30.5760 C   0  0  0  0  0  0  0  0  0  0  0  0
   -4.2910   21.9950  -29.3560 O   0  0  0  0  0  0  0  0  0  0  0  0
   -5.9270   22.4240  -30.9480 N   0  0  0  0  0  0  0  0  0  0  0  0
   -6.4290   23.6880  -30.9120 C   0  0  0  0  0  0  0  0  0  0  0  0
   -5.6870   24.9010  -30.5050 C   0  0  0  0  0  0  0  0  0  0  0  0
   -4.4060   25.1970  -31.0560 N   0  0  0  0  0  0  0  0  0  0  0  0
   -6.1930   25.6900  -29.6620 O   0  0  0  0  0  0  0  0  0  0  0  0
   -7.7570   23.6930  -31.3430 C   0  0  0  0  0  0  0  0  0  0  0  0
   -8.0480   22.3790  -31.6420 C   0  0  0  0  0  0  0  0  0  0  0  0
   -9.2230   21.8020  -32.1180 C   0  0  0  0  0  0  0  0  0  0  0  0
   -9.2340   20.4150  -32.3360 C   0  0  0  0  0  0  0  0  0  0  0  0
   -8.0810   19.6320  -32.0690 C   0  0  0  0  0  0  0  0  0  0  0  0
   -8.0940   18.1500  -32.3350 C   0  0  0  0  0  0  0  0  0  0  0  0
   -6.8420   17.7060  -33.0920 C   0  0  0  0  0  0  0  0  0  0  0  0
   -7.1020   16.5170  -33.7490 F   0  0  0  0  0  0  0  0  0  0  0  0
   -6.4830   18.6620  -34.0250 F   0  0  0  0  0  0  0  0  0  0  0  0
   -5.7920   17.5100  -32.2100 F   0  0  0  0  0  0  0  0  0  0  0  0
   -6.9050   20.2550  -31.5950 C   0  0  0  0  0  0  0  0  0  0  0  0
   -6.9250   21.6370  -31.3930 C   0  0  0  0  0  0  0  0  0  0  0  0
   -4.1168   23.1151  -32.9482 H   0  0  0  0  0  0  0  0  0  0  0  0
   -2.8423   21.9670  -33.4811 H   0  0  0  0  0  0  0  0  0  0  0  0
   -4.5654   21.4594  -33.4811 H   0  0  0  0  0  0  0  0  0  0  0  0
   -2.7717   20.0719  -30.4103 H   0  0  0  0  0  0  0  0  0  0  0  0
   -2.1418   20.2172  -32.0896 H   0  0  0  0  0  0  0  0  0  0  0  0
   -2.6470   22.8180  -29.4190 H   0  0  0  0  0  0  0  0  0  0  0  0
   -0.1121   23.2222  -28.4748 H   0  0  0  0  0  0  0  0  0  0  0  0
    0.0731   23.8003  -30.1752 H   0  0  0  0  0  0  0  0  0  0  0  0
   -3.8780   26.0480  -30.7600 H   0  0  0  0  0  0  0  0  0  0  0  0
   -8.4281   24.5606  -31.4263 H   0  0  0  0  0  0  0  0  0  0  0  0
  -10.1150   22.4142  -32.3170 H   0  0  0  0  0  0  0  0  0  0  0  0
  -10.1450   19.9307  -32.7174 H   0  0  0  0  0  0  0  0  0  0  0  0
   -8.1399   17.6149  -31.3750 H   0  0  0  0  0  0  0  0  0  0  0  0
   -8.9727   17.9181  -32.9548 H   0  0  0  0  0  0  0  0  0  0  0  0
   -5.9978   19.6675  -31.3905 H   0  0  0  0  0  0  0  0  0  0  0  0
  1  2  1  0
  2  3  1  0
  3  4  1  0
  4  5  2  0
  4  6  1  0
  6  7  1  0
  7  8  1  0
  8  9  2  0
  8 10  1  0
  2 11  1  0
 11 12  2  0
 11 13  1  0
 13 14  1  0
 14 15  1  0
 15 16  1  0
 15 17  2  0
 14 18  2  0
 18 19  1  0
 19 20  2  0
 20 21  1  0
 21 22  2  0
 22 23  1  0
 23 24  1  0
 24 25  1  0
 24 26  1  0
 24 27  1  0
 22 28  1  0
 28 29  2  0
 29 13  1  0
 29 19  1  0
  1 30  1  0
  1 31  1  0
  1 32  1  0
  3 33  1  0
  3 34  1  0
  6 35  1  0
  7 36  1  0
  7 37  1  0
 16 38  1  0
 18 39  1  0
 20 40  1  0
 21 41  1  0
 23 42  1  0
 23 43  1  0
 28 44  1  0
M  CHG  2  10  -1  16  -1
M  END
>  <UniqueID>  (45) 
45

>  <SMILES>  (45) 
CN(CC(=O)NCC(=O)[O-])C(=O)n1c(C([NH-])=O)cc2ccc(CC(F)(F)F)cc21

>  <Energy>  (45) 
73.54982614526105

>  <Genealogy>  (45) 
CN(CC(=O)NCC(=O)[O-])C(=O)n1c(C([NH-])=O)cc2ccc(CC(F)(F)F)cc21 (protonated)
CN(CC(=O)NCC(=O)[O-])C(=O)n1c(C([NH-])=O)cc2ccc(CC(F)(F)F)cc21 (3D coordinates assigned)
CN(CC(=O)NCC(=O)[O-])C(=O)n1c(C([NH-])=O)cc2ccc(CC(F)(F)F)cc21 (optimized conformer: 73.54982614526105 kcal/mol)

>  <smiles>  (45) 
CN(CC(=O)NCC(=O)O)C(=O)n1c(C(N)=O)cc2ccc(CC(F)(F)F)cc21

>  <score_type>  (45) 
oracle

>  <origin>  (45) 
adg

>  <m_score__min__energy>  (45) 
-11.73

>  <m_primary>  (45) 
energy

$$$$
46:0
     RDKit          3D

 33 34  0  0  0  0  0  0  0  0999 V2000
   -5.5750   23.6640  -30.3740 N   0  0  0  0  0  0  0  0  0  0  0  0
   -6.7000   23.1120  -31.0590 C   0  0  0  0  0  0  0  0  0  0  0  0
   -7.7450   23.8060  -31.1920 O   0  0  0  0  0  0  0  0  0  0  0  0
   -6.6850   21.7220  -31.5560 C   0  0  0  0  0  0  0  0  0  0  0  0
   -7.8330   21.0450  -31.9530 C   0  0  0  0  0  0  0  0  0  0  0  0
   -7.4140   19.7710  -32.2560 C   0  0  0  0  0  0  0  0  0  0  0  0
   -8.1470   18.6790  -32.7120 C   0  0  0  0  0  0  0  0  0  0  0  0
   -7.4590   17.4850  -32.9720 C   0  0  0  0  0  0  0  0  0  0  0  0
   -6.0580   17.4040  -32.7750 C   0  0  0  0  0  0  0  0  0  0  0  0
   -5.3260   16.1190  -33.0390 C   0  0  0  0  0  0  0  0  0  0  0  0
   -4.9930   15.5130  -31.8410 F   0  0  0  0  0  0  0  0  0  0  0  0
   -6.1330   15.2680  -33.7710 F   0  0  0  0  0  0  0  0  0  0  0  0
   -5.3460   18.5340  -32.3150 C   0  0  0  0  0  0  0  0  0  0  0  0
   -6.0580   19.7120  -32.0530 C   0  0  0  0  0  0  0  0  0  0  0  0
   -5.5900   20.9110  -31.6300 N   0  0  0  0  0  0  0  0  0  0  0  0
   -4.2150   21.2870  -31.4250 C   0  0  0  0  0  0  0  0  0  0  0  0
   -3.5230   21.6960  -32.3980 O   0  0  0  0  0  0  0  0  0  0  0  0
   -3.6410   21.1950  -30.1510 O   0  0  0  0  0  0  0  0  0  0  0  0
   -2.7340   22.1650  -29.6290 C   0  0  0  0  0  0  0  0  0  0  0  0
   -2.5790   23.2510  -30.5180 O   0  0  0  0  0  0  0  0  0  0  0  0
   -3.0360   24.6970  -29.7330 P   0  0  0  0  0  0  0  0  0  0  0  0
   -3.9460   24.3930  -28.5640 O   0  0  0  0  0  0  0  0  0  0  0  0
   -3.8670   25.6740  -30.8350 O   0  0  0  0  0  0  0  0  0  0  0  0
   -1.6720   25.5340  -29.1870 O   0  0  0  0  0  0  0  0  0  0  0  0
   -5.5960   24.6530  -30.0420 H   0  0  0  0  0  0  0  0  0  0  0  0
   -4.7610   23.0670  -30.1080 H   0  0  0  0  0  0  0  0  0  0  0  0
   -8.8567   21.4433  -32.0120 H   0  0  0  0  0  0  0  0  0  0  0  0
   -9.2341   18.7506  -32.8640 H   0  0  0  0  0  0  0  0  0  0  0  0
   -8.0112   16.6043  -33.3317 H   0  0  0  0  0  0  0  0  0  0  0  0
   -4.4086   16.3381  -33.6051 H   0  0  0  0  0  0  0  0  0  0  0  0
   -4.2570   18.4901  -32.1658 H   0  0  0  0  0  0  0  0  0  0  0  0
   -3.1218   22.5391  -28.6700 H   0  0  0  0  0  0  0  0  0  0  0  0
   -1.7536   21.6857  -29.4910 H   0  0  0  0  0  0  0  0  0  0  0  0
  1  2  1  0
  2  3  2  0
  2  4  1  0
  4  5  2  0
  5  6  1  0
  6  7  2  0
  7  8  1  0
  8  9  2  0
  9 10  1  0
 10 11  1  0
 10 12  1  0
  9 13  1  0
 13 14  2  0
 14 15  1  0
 15 16  1  0
 16 17  2  0
 16 18  1  0
 18 19  1  0
 19 20  1  0
 20 21  1  0
 21 22  2  0
 21 23  1  0
 21 24  1  0
 15  4  1  0
 14  6  1  0
  1 25  1  0
  1 26  1  0
  5 27  1  0
  7 28  1  0
  8 29  1  0
 10 30  1  0
 13 31  1  0
 19 32  1  0
 19 33  1  0
M  CHG  2  23  -1  24  -1
M  END
>  <UniqueID>  (46) 
46

>  <SMILES>  (46) 
NC(=O)c1cc2ccc(C(F)F)cc2n1C(=O)OCOP(=O)([O-])[O-]

>  <Energy>  (46) 
70.88148794431038

>  <Genealogy>  (46) 
NC(=O)c1cc2ccc(C(F)F)cc2n1C(=O)OCOP(=O)([O-])[O-] (protonated)
NC(=O)c1cc2ccc(C(F)F)cc2n1C(=O)OCOP(=O)([O-])[O-] (3D coordinates assigned)
NC(=O)c1cc2ccc(C(F)F)cc2n1C(=O)OCOP(=O)([O-])[O-] (optimized conformer: 70.88148794431038 kcal/mol)

>  <smiles>  (46) 
NC(=O)c1cc2ccc(C(F)F)cc2n1C(=O)OCOP(=O)(O)O

>  <score_type>  (46) 
oracle

>  <origin>  (46) 
adg

>  <m_score__min__energy>  (46) 
-11.94

>  <m_primary>  (46) 
energy

$$$$
47:0
     RDKit          3D

 42 43  0  0  0  0  0  0  0  0999 V2000
   -4.1920   17.4110  -35.0370 C   0  0  0  0  0  0  0  0  0  0  0  0
   -5.5590   17.4430  -34.6500 O   0  0  0  0  0  0  0  0  0  0  0  0
   -6.0090   16.9240  -33.4320 C   0  0  0  0  0  0  0  0  0  0  0  0
   -5.6760   15.7650  -33.0630 O   0  0  0  0  0  0  0  0  0  0  0  0
   -6.9380   17.7360  -32.5830 C   0  0  0  0  0  0  0  0  0  0  0  0
   -7.5980   18.7710  -33.3900 N   0  0  0  0  0  0  0  0  0  0  0  0
   -7.5710   20.0320  -32.6920 C   0  0  0  0  0  0  0  0  0  0  0  0
   -8.7820   20.7140  -32.3980 C   0  0  0  0  0  0  0  0  0  0  0  0
   -8.7660   21.9590  -31.7480 C   0  0  0  0  0  0  0  0  0  0  0  0
   -7.5310   22.5030  -31.4100 C   0  0  0  0  0  0  0  0  0  0  0  0
   -7.2200   23.7050  -30.8130 C   0  0  0  0  0  0  0  0  0  0  0  0
   -5.8270   23.7400  -30.7570 C   0  0  0  0  0  0  0  0  0  0  0  0
   -5.0520   24.8360  -30.1430 C   0  0  0  0  0  0  0  0  0  0  0  0
   -3.9460   25.4040  -30.8400 N   0  0  0  0  0  0  0  0  0  0  0  0
   -5.3730   25.2960  -29.0160 O   0  0  0  0  0  0  0  0  0  0  0  0
   -5.3030   22.6070  -31.2960 N   0  0  0  0  0  0  0  0  0  0  0  0
   -3.9220   22.2980  -31.5300 C   0  0  0  0  0  0  0  0  0  0  0  0
   -3.4840   22.2600  -32.7110 O   0  0  0  0  0  0  0  0  0  0  0  0
   -2.9710   22.1670  -30.3790 C   0  0  0  0  0  0  0  0  0  0  0  0
   -2.1770   23.3340  -30.2880 O   0  0  0  0  0  0  0  0  0  0  0  0
   -1.7790   23.5600  -28.9510 C   0  0  0  0  0  0  0  0  0  0  0  0
   -0.8290   24.7110  -28.9170 C   0  0  0  0  0  0  0  0  0  0  0  0
    0.3450   24.5530  -28.4910 O   0  0  0  0  0  0  0  0  0  0  0  0
   -1.2480   25.9670  -29.3370 O   0  0  0  0  0  0  0  0  0  0  0  0
   -6.3530   21.8590  -31.6880 C   0  0  0  0  0  0  0  0  0  0  0  0
   -6.3360   20.6250  -32.3420 C   0  0  0  0  0  0  0  0  0  0  0  0
   -3.5569   17.3961  -34.1390 H   0  0  0  0  0  0  0  0  0  0  0  0
   -4.0015   16.5081  -35.6358 H   0  0  0  0  0  0  0  0  0  0  0  0
   -3.9594   18.3039  -35.6358 H   0  0  0  0  0  0  0  0  0  0  0  0
   -7.7015   17.0749  -32.1470 H   0  0  0  0  0  0  0  0  0  0  0  0
   -6.3580   18.2223  -31.7848 H   0  0  0  0  0  0  0  0  0  0  0  0
   -8.5920   18.4940  -33.5730 H   0  0  0  0  0  0  0  0  0  0  0  0
   -7.1130   18.8660  -34.3130 H   0  0  0  0  0  0  0  0  0  0  0  0
   -9.7435   20.2618  -32.6827 H   0  0  0  0  0  0  0  0  0  0  0  0
   -9.7016   22.4878  -31.5133 H   0  0  0  0  0  0  0  0  0  0  0  0
   -7.9213   24.4737  -30.4563 H   0  0  0  0  0  0  0  0  0  0  0  0
   -2.9680   25.2650  -30.5010 H   0  0  0  0  0  0  0  0  0  0  0  0
   -3.5397   22.0369  -29.4465 H   0  0  0  0  0  0  0  0  0  0  0  0
   -2.3217   21.2933  -30.5376 H   0  0  0  0  0  0  0  0  0  0  0  0
   -2.6619   23.7917  -28.3371 H   0  0  0  0  0  0  0  0  0  0  0  0
   -1.2886   22.6602  -28.5511 H   0  0  0  0  0  0  0  0  0  0  0  0
   -5.3846   20.1264  -32.5791 H   0  0  0  0  0  0  0  0  0  0  0  0
  1  2  1  0
  2  3  1  0
  3  4  2  0
  3  5  1  0
  5  6  1  0
  6  7  1  0
  7  8  2  0
  8  9  1  0
  9 10  2  0
 10 11  1  0
 11 12  2  0
 12 13  1  0
 13 14  1  0
 13 15  2  0
 12 16  1  0
 16 17  1  0
 17 18  2  0
 17 19  1  0
 19 20  1  0
 20 21  1  0
 21 22  1  0
 22 23  2  0
 22 24  1  0
 16 25  1  0
 25 26  2  0
 26  7  1  0
 25 10  1  0
  1 27  1  0
  1 28  1  0
  1 29  1  0
  5 30  1  0
  5 31  1  0
  6 32  1  0
  6 33  1  0
  8 34  1  0
  9 35  1  0
 11 36  1  0
 14 37  1  0
 19 38  1  0
 19 39  1  0
 21 40  1  0
 21 41  1  0
 26 42  1  0
M  CHG  3   6   1  14  -1  24  -1
M  END
>  <UniqueID>  (47) 
47

>  <SMILES>  (47) 
COC(=O)C[NH2+]c1ccc2cc(C([NH-])=O)n(C(=O)COCC(=O)[O-])c2c1

>  <Energy>  (47) 
77.8561336453299

>  <Genealogy>  (47) 
COC(=O)C[NH2+]c1ccc2cc(C([NH-])=O)n(C(=O)COCC(=O)[O-])c2c1 (protonated)
COC(=O)C[NH2+]c1ccc2cc(C([NH-])=O)n(C(=O)COCC(=O)[O-])c2c1 (3D coordinates assigned)
COC(=O)C[NH2+]c1ccc2cc(C([NH-])=O)n(C(=O)COCC(=O)[O-])c2c1 (optimized conformer: 77.8561336453299 kcal/mol)

>  <smiles>  (47) 
COC(=O)CNc1ccc2cc(C(N)=O)n(C(=O)COCC(=O)O)c2c1

>  <score_type>  (47) 
oracle

>  <origin>  (47) 
adg

>  <m_score__min__energy>  (47) 
-11.779999999999999

>  <m_primary>  (47) 
energy

$$$$
48:0
     RDKit          3D

 49 50  0  0  0  0  0  0  0  0999 V2000
   -4.2180   22.7570  -27.9810 C   0  0  0  0  0  0  0  0  0  0  0  0
   -3.3940   22.1180  -28.9480 O   0  0  0  0  0  0  0  0  0  0  0  0
   -2.9960   22.7490  -30.1300 C   0  0  0  0  0  0  0  0  0  0  0  0
   -1.9230   23.4090  -30.1730 O   0  0  0  0  0  0  0  0  0  0  0  0
   -3.8270   22.6250  -31.3350 C   0  0  0  0  0  0  0  0  0  0  0  0
   -3.2920   22.3090  -32.4310 O   0  0  0  0  0  0  0  0  0  0  0  0
   -5.2410   22.8680  -31.2790 N   0  0  0  0  0  0  0  0  0  0  0  0
   -5.8780   24.0210  -30.9310 C   0  0  0  0  0  0  0  0  0  0  0  0
   -5.2280   25.2610  -30.4490 C   0  0  0  0  0  0  0  0  0  0  0  0
   -3.9070   25.6050  -30.8590 N   0  0  0  0  0  0  0  0  0  0  0  0
   -5.8370   26.0110  -29.6410 O   0  0  0  0  0  0  0  0  0  0  0  0
   -7.2580   23.8700  -31.0540 C   0  0  0  0  0  0  0  0  0  0  0  0
   -7.4470   22.5790  -31.4950 C   0  0  0  0  0  0  0  0  0  0  0  0
   -8.6200   21.9000  -31.8130 C   0  0  0  0  0  0  0  0  0  0  0  0
   -8.5100   20.5840  -32.2920 C   0  0  0  0  0  0  0  0  0  0  0  0
   -7.2390   19.9740  -32.4440 C   0  0  0  0  0  0  0  0  0  0  0  0
   -7.1260   18.5890  -33.0240 C   0  0  0  0  0  0  0  0  0  0  0  0
   -6.1220   18.5540  -34.1770 C   0  0  0  0  0  0  0  0  0  0  0  0
   -4.9260   17.8180  -33.7830 N   0  0  0  0  0  0  0  0  0  0  0  0
   -3.6430   18.0540  -34.3650 C   0  0  0  0  0  0  0  0  0  0  0  0
   -3.0870   17.1550  -35.0510 O   0  0  0  0  0  0  0  0  0  0  0  0
   -3.0230   19.2930  -34.1510 O   0  0  0  0  0  0  0  0  0  0  0  0
   -1.7850   19.5150  -33.4590 C   0  0  0  0  0  0  0  0  0  0  0  0
   -0.8410   18.3100  -33.6390 C   0  0  0  0  0  0  0  0  0  0  0  0
   -2.1170   19.6670  -31.9670 C   0  0  0  0  0  0  0  0  0  0  0  0
   -1.1110   20.8110  -33.9520 C   0  0  0  0  0  0  0  0  0  0  0  0
   -6.0710   20.6960  -32.1140 C   0  0  0  0  0  0  0  0  0  0  0  0
   -6.2130   21.9990  -31.6270 C   0  0  0  0  0  0  0  0  0  0  0  0
   -3.8732   22.4896  -26.9712 H   0  0  0  0  0  0  0  0  0  0  0  0
   -4.1587   23.8476  -28.1119 H   0  0  0  0  0  0  0  0  0  0  0  0
   -5.2595   22.4281  -28.1119 H   0  0  0  0  0  0  0  0  0  0  0  0
   -3.0740   25.2570  -30.3310 H   0  0  0  0  0  0  0  0  0  0  0  0
   -8.0322   24.6225  -30.8435 H   0  0  0  0  0  0  0  0  0  0  0  0
   -9.6028   22.3793  -31.6929 H   0  0  0  0  0  0  0  0  0  0  0  0
   -9.4188   20.0212  -32.5517 H   0  0  0  0  0  0  0  0  0  0  0  0
   -6.7933   17.8962  -32.2370 H   0  0  0  0  0  0  0  0  0  0  0  0
   -8.1118   18.2911  -33.4106 H   0  0  0  0  0  0  0  0  0  0  0  0
   -6.5829   18.0599  -35.0450 H   0  0  0  0  0  0  0  0  0  0  0  0
   -5.8391   19.5847  -34.4372 H   0  0  0  0  0  0  0  0  0  0  0  0
   -0.5417   17.9280  -32.6518 H   0  0  0  0  0  0  0  0  0  0  0  0
   -1.3608   17.5171  -34.1968 H   0  0  0  0  0  0  0  0  0  0  0  0
    0.0533   18.6249  -34.1968 H   0  0  0  0  0  0  0  0  0  0  0  0
   -1.2803   19.2839  -31.3643 H   0  0  0  0  0  0  0  0  0  0  0  0
   -2.2803   20.7296  -31.7341 H   0  0  0  0  0  0  0  0  0  0  0  0
   -3.0281   19.0963  -31.7341 H   0  0  0  0  0  0  0  0  0  0  0  0
   -0.7977   21.4134  -33.0866 H   0  0  0  0  0  0  0  0  0  0  0  0
   -0.2304   20.5577  -34.5606 H   0  0  0  0  0  0  0  0  0  0  0  0
   -1.8240   21.3865  -34.5606 H   0  0  0  0  0  0  0  0  0  0  0  0
   -5.0753   20.2450  -32.2369 H   0  0  0  0  0  0  0  0  0  0  0  0
  1  2  1  0
  2  3  1  0
  3  4  2  0
  3  5  1  0
  5  6  2  0
  5  7  1  0
  7  8  1  0
  8  9  1  0
  9 10  1  0
  9 11  2  0
  8 12  2  0
 12 13  1  0
 13 14  2  0
 14 15  1  0
 15 16  2  0
 16 17  1  0
 17 18  1  0
 18 19  1  0
 19 20  1  0
 20 21  2  0
 20 22  1  0
 22 23  1  0
 23 24  1  0
 23 25  1  0
 23 26  1  0
 16 27  1  0
 27 28  2  0
 28  7  1  0
 28 13  1  0
  1 29  1  0
  1 30  1  0
  1 31  1  0
 10 32  1  0
 12 33  1  0
 14 34  1  0
 15 35  1  0
 17 36  1  0
 17 37  1  0
 18 38  1  0
 18 39  1  0
 24 40  1  0
 24 41  1  0
 24 42  1  0
 25 43  1  0
 25 44  1  0
 25 45  1  0
 26 46  1  0
 26 47  1  0
 26 48  1  0
 27 49  1  0
M  CHG  2  10  -1  19  -1
M  END
>  <UniqueID>  (48) 
48

>  <SMILES>  (48) 
COC(=O)C(=O)n1c(C([NH-])=O)cc2ccc(CC[N-]C(=O)OC(C)(C)C)cc21

>  <Energy>  (48) 
76.18111071670073

>  <Genealogy>  (48) 
COC(=O)C(=O)n1c(C([NH-])=O)cc2ccc(CC[N-]C(=O)OC(C)(C)C)cc21 (protonated)
COC(=O)C(=O)n1c(C([NH-])=O)cc2ccc(CC[N-]C(=O)OC(C)(C)C)cc21 (3D coordinates assigned)
COC(=O)C(=O)n1c(C([NH-])=O)cc2ccc(CC[N-]C(=O)OC(C)(C)C)cc21 (optimized conformer: 76.18111071670073 kcal/mol)

>  <smiles>  (48) 
COC(=O)C(=O)n1c(C(N)=O)cc2ccc(CCNC(=O)OC(C)(C)C)cc21

>  <score_type>  (48) 
oracle

>  <origin>  (48) 
adg

>  <m_score__min__energy>  (48) 
-9.9000000000000004

>  <m_primary>  (48) 
energy

$$$$
49:0
     RDKit          3D

 30 31  0  0  0  0  0  0  0  0999 V2000
   -3.9990   25.6470  -30.8360 N   0  0  0  0  0  0  0  0  0  0  0  0
   -5.0910   24.8830  -30.3300 C   0  0  0  0  0  0  0  0  0  0  0  0
   -5.7960   25.3540  -29.4000 O   0  0  0  0  0  0  0  0  0  0  0  0
   -5.4060   23.5670  -30.9230 C   0  0  0  0  0  0  0  0  0  0  0  0
   -6.5520   23.3120  -31.6740 C   0  0  0  0  0  0  0  0  0  0  0  0
   -6.5070   21.9660  -31.9630 C   0  0  0  0  0  0  0  0  0  0  0  0
   -7.3960   21.1700  -32.6770 C   0  0  0  0  0  0  0  0  0  0  0  0
   -7.0880   19.8070  -32.8250 C   0  0  0  0  0  0  0  0  0  0  0  0
   -5.8950   19.2680  -32.2780 C   0  0  0  0  0  0  0  0  0  0  0  0
   -5.5980   17.7960  -32.4070 C   0  0  0  0  0  0  0  0  0  0  0  0
   -6.3810   17.2240  -33.3950 F   0  0  0  0  0  0  0  0  0  0  0  0
   -4.2690   17.5920  -32.7360 F   0  0  0  0  0  0  0  0  0  0  0  0
   -5.8650   17.1710  -31.2030 F   0  0  0  0  0  0  0  0  0  0  0  0
   -5.0290   20.1060  -31.5380 C   0  0  0  0  0  0  0  0  0  0  0  0
   -5.3670   21.4560  -31.3990 C   0  0  0  0  0  0  0  0  0  0  0  0
   -4.6790   22.4260  -30.7610 N   0  0  0  0  0  0  0  0  0  0  0  0
   -3.4110   22.2650  -30.1090 C   0  0  0  0  0  0  0  0  0  0  0  0
   -3.2470   21.3070  -29.3040 O   0  0  0  0  0  0  0  0  0  0  0  0
   -2.2410   23.1150  -30.5180 C   0  0  0  0  0  0  0  0  0  0  0  0
   -1.5030   23.9970  -29.1020 P   0  0  0  0  0  0  0  0  0  0  0  0
   -2.2350   23.6100  -27.8380 O   0  0  0  0  0  0  0  0  0  0  0  0
   -1.6420   25.6670  -29.3370 O   0  0  0  0  0  0  0  0  0  0  0  0
    0.1310   23.5890  -28.9490 O   0  0  0  0  0  0  0  0  0  0  0  0
   -3.0190   25.2950  -30.7630 H   0  0  0  0  0  0  0  0  0  0  0  0
   -7.3277   24.0326  -31.9725 H   0  0  0  0  0  0  0  0  0  0  0  0
   -8.3125   21.5944  -33.1127 H   0  0  0  0  0  0  0  0  0  0  0  0
   -7.7803   19.1498  -33.3717 H   0  0  0  0  0  0  0  0  0  0  0  0
   -4.1113   19.7056  -31.0825 H   0  0  0  0  0  0  0  0  0  0  0  0
   -1.4749   22.4689  -30.9714 H   0  0  0  0  0  0  0  0  0  0  0  0
   -2.6037   23.8678  -31.2334 H   0  0  0  0  0  0  0  0  0  0  0  0
  1  2  1  0
  2  3  2  0
  2  4  1  0
  4  5  2  0
  5  6  1  0
  6  7  2  0
  7  8  1  0
  8  9  2  0
  9 10  1  0
 10 11  1  0
 10 12  1  0
 10 13  1  0
  9 14  1  0
 14 15  2  0
 15 16  1  0
 16 17  1  0
 17 18  2  0
 17 19  1  0
 19 20  1  0
 20 21  2  0
 20 22  1  0
 20 23  1  0
 16  4  1  0
 15  6  1  0
  1 24  1  0
  5 25  1  0
  7 26  1  0
  8 27  1  0
 14 28  1  0
 19 29  1  0
 19 30  1  0
M  CHG  3   1  -1  22  -1  23  -1
M  END
>  <UniqueID>  (49) 
49

>  <SMILES>  (49) 
[NH-]C(=O)c1cc2ccc(C(F)(F)F)cc2n1C(=O)CP(=O)([O-])[O-]

>  <Energy>  (49) 
67.40638835170736

>  <Genealogy>  (49) 
[NH-]C(=O)c1cc2ccc(C(F)(F)F)cc2n1C(=O)CP(=O)([O-])[O-] (protonated)
[NH-]C(=O)c1cc2ccc(C(F)(F)F)cc2n1C(=O)CP(=O)([O-])[O-] (3D coordinates assigned)
[NH-]C(=O)c1cc2ccc(C(F)(F)F)cc2n1C(=O)CP(=O)([O-])[O-] (optimized conformer: 67.40638835170736 kcal/mol)

>  <smiles>  (49) 
NC(=O)c1cc2ccc(C(F)(F)F)cc2n1C(=O)CP(=O)(O)O

>  <score_type>  (49) 
oracle

>  <origin>  (49) 
adg

>  <m_score__min__energy>  (49) 
-12.390000000000001

>  <m_primary>  (49) 
energy

$$$$
50:0
     RDKit          3D

 39 40  0  0  0  0  0  0  0  0999 V2000
   -3.5880   18.8450  -32.7840 C   0  0  0  0  0  0  0  0  0  0  0  0
   -3.6990   19.9710  -33.4930 C   0  0  0  0  0  0  0  0  0  0  0  0
   -2.7970   21.1500  -33.2590 C   0  0  0  0  0  0  0  0  0  0  0  0
   -3.5720   22.3150  -32.9910 O   0  0  0  0  0  0  0  0  0  0  0  0
   -4.0060   22.6710  -31.7080 C   0  0  0  0  0  0  0  0  0  0  0  0
   -3.1970   22.6740  -30.7400 O   0  0  0  0  0  0  0  0  0  0  0  0
   -5.3730   23.0560  -31.5000 N   0  0  0  0  0  0  0  0  0  0  0  0
   -5.8370   24.2080  -30.9380 C   0  0  0  0  0  0  0  0  0  0  0  0
   -5.0250   25.3880  -30.5810 C   0  0  0  0  0  0  0  0  0  0  0  0
   -3.6070   25.2960  -30.4710 N   0  0  0  0  0  0  0  0  0  0  0  0
   -5.5850   26.5060  -30.4180 O   0  0  0  0  0  0  0  0  0  0  0  0
   -7.2240   24.1650  -30.8110 C   0  0  0  0  0  0  0  0  0  0  0  0
   -7.6000   22.9450  -31.3240 C   0  0  0  0  0  0  0  0  0  0  0  0
   -8.8620   22.3710  -31.4380 C   0  0  0  0  0  0  0  0  0  0  0  0
   -8.9540   21.0790  -31.9800 C   0  0  0  0  0  0  0  0  0  0  0  0
   -7.7860   20.3770  -32.3880 C   0  0  0  0  0  0  0  0  0  0  0  0
   -7.8520   19.0470  -32.9410 N   0  0  0  0  0  0  0  0  0  0  0  0
   -7.7630   17.8140  -32.1590 C   0  0  0  0  0  0  0  0  0  0  0  0
   -6.4910   17.0400  -32.5160 C   0  0  0  0  0  0  0  0  0  0  0  0
   -6.3560   16.9110  -34.0000 C   0  0  0  0  0  0  0  0  0  0  0  0
   -6.4630   15.7840  -34.5500 O   0  0  0  0  0  0  0  0  0  0  0  0
   -6.1610   18.0430  -34.7810 O   0  0  0  0  0  0  0  0  0  0  0  0
   -6.5250   20.9990  -32.2590 C   0  0  0  0  0  0  0  0  0  0  0  0
   -6.4650   22.2940  -31.7320 C   0  0  0  0  0  0  0  0  0  0  0  0
   -4.2654   18.0013  -32.9821 H   0  0  0  0  0  0  0  0  0  0  0  0
   -2.8191   18.7611  -32.0018 H   0  0  0  0  0  0  0  0  0  0  0  0
   -4.4735   20.0376  -34.2713 H   0  0  0  0  0  0  0  0  0  0  0  0
   -2.1431   20.9425  -32.3992 H   0  0  0  0  0  0  0  0  0  0  0  0
   -2.1890   21.3219  -34.1594 H   0  0  0  0  0  0  0  0  0  0  0  0
   -3.0450   24.7870  -31.1890 H   0  0  0  0  0  0  0  0  0  0  0  0
   -7.8793   24.9417  -30.3899 H   0  0  0  0  0  0  0  0  0  0  0  0
   -9.7619   22.9136  -31.1129 H   0  0  0  0  0  0  0  0  0  0  0  0
   -9.9402   20.6044  -32.0903 H   0  0  0  0  0  0  0  0  0  0  0  0
   -7.9820   18.9450  -33.9730 H   0  0  0  0  0  0  0  0  0  0  0  0
   -7.7446   18.0655  -31.0883 H   0  0  0  0  0  0  0  0  0  0  0  0
   -8.6364   17.1855  -32.3873 H   0  0  0  0  0  0  0  0  0  0  0  0
   -5.6170   17.5766  -32.1182 H   0  0  0  0  0  0  0  0  0  0  0  0
   -6.5510   16.0340  -32.0752 H   0  0  0  0  0  0  0  0  0  0  0  0
   -5.6076   20.4758  -32.5668 H   0  0  0  0  0  0  0  0  0  0  0  0
  1  2  2  0
  2  3  1  0
  3  4  1  0
  4  5  1  0
  5  6  2  0
  5  7  1  0
  7  8  1  0
  8  9  1  0
  9 10  1  0
  9 11  2  0
  8 12  2  0
 12 13  1  0
 13 14  2  0
 14 15  1  0
 15 16  2  0
 16 17  1  0
 17 18  1  0
 18 19  1  0
 19 20  1  0
 20 21  2  0
 20 22  1  0
 16 23  1  0
 23 24  2  0
 24  7  1  0
 24 13  1  0
  1 25  1  0
  1 26  1  0
  2 27  1  0
  3 28  1  0
  3 29  1  0
 10 30  1  0
 12 31  1  0
 14 32  1  0
 15 33  1  0
 17 34  1  0
 18 35  1  0
 18 36  1  0
 19 37  1  0
 19 38  1  0
 23 39  1  0
M  CHG  2  10  -1  22  -1
M  END
>  <UniqueID>  (50) 
50

>  <SMILES>  (50) 
C=CCOC(=O)n1c(C([NH-])=O)cc2ccc(NCCC(=O)[O-])cc21

>  <Energy>  (50) 
71.50238194617243

>  <Genealogy>  (50) 
C=CCOC(=O)n1c(C([NH-])=O)cc2ccc(NCCC(=O)[O-])cc21 (protonated)
C=CCOC(=O)n1c(C([NH-])=O)cc2ccc(NCCC(=O)[O-])cc21 (3D coordinates assigned)
C=CCOC(=O)n1c(C([NH-])=O)cc2ccc(NCCC(=O)[O-])cc21 (optimized conformer: 71.50238194617243 kcal/mol)

>  <smiles>  (50) 
C=CCOC(=O)n1c(C(N)=O)cc2ccc(NCCC(=O)O)cc21

>  <score_type>  (50) 
oracle

>  <origin>  (50) 
adg

>  <m_score__min__energy>  (50) 
-9.6600000000000001

>  <m_primary>  (50) 
energy

$$$$
51:0
     RDKit          3D

 39 40  0  0  0  0  0  0  0  0999 V2000
   -3.9110   25.1450  -30.0270 N   0  0  0  0  0  0  0  0  0  0  0  0
   -5.1570   25.0840  -30.7190 C   0  0  0  0  0  0  0  0  0  0  0  0
   -5.7150   26.1540  -31.0820 O   0  0  0  0  0  0  0  0  0  0  0  0
   -5.7710   23.7900  -31.0680 C   0  0  0  0  0  0  0  0  0  0  0  0
   -7.1300   23.6260  -31.3200 C   0  0  0  0  0  0  0  0  0  0  0  0
   -7.2760   22.3010  -31.6620 C   0  0  0  0  0  0  0  0  0  0  0  0
   -8.4230   21.5820  -31.9800 C   0  0  0  0  0  0  0  0  0  0  0  0
   -8.2900   20.2090  -32.2380 C   0  0  0  0  0  0  0  0  0  0  0  0
   -7.0180   19.5800  -32.1850 C   0  0  0  0  0  0  0  0  0  0  0  0
   -6.8930   18.0930  -32.3980 C   0  0  0  0  0  0  0  0  0  0  0  0
   -6.3530   17.8250  -33.6430 F   0  0  0  0  0  0  0  0  0  0  0  0
   -8.1330   17.4790  -32.3240 F   0  0  0  0  0  0  0  0  0  0  0  0
   -6.0700   17.5600  -31.4240 F   0  0  0  0  0  0  0  0  0  0  0  0
   -5.8790   20.3410  -31.8370 C   0  0  0  0  0  0  0  0  0  0  0  0
   -6.0390   21.7120  -31.6010 C   0  0  0  0  0  0  0  0  0  0  0  0
   -5.1040   22.6160  -31.2340 N   0  0  0  0  0  0  0  0  0  0  0  0
   -3.7270   22.3500  -30.9300 C   0  0  0  0  0  0  0  0  0  0  0  0
   -2.8780   22.2780  -31.8600 O   0  0  0  0  0  0  0  0  0  0  0  0
   -3.3410   22.1450  -29.6000 O   0  0  0  0  0  0  0  0  0  0  0  0
   -1.9790   21.9880  -29.2100 C   0  0  0  0  0  0  0  0  0  0  0  0
   -1.7680   22.4770  -27.7680 C   0  0  0  0  0  0  0  0  0  0  0  0
   -1.8990   24.0020  -27.5770 C   0  0  2  0  0  0  0  0  0  0  0  0
   -3.2990   24.4250  -27.6410 N   0  0  0  0  0  0  0  0  0  0  0  0
   -1.0740   24.7500  -28.5870 C   0  0  0  0  0  0  0  0  0  0  0  0
   -1.6180   25.6140  -29.3230 O   0  0  0  0  0  0  0  0  0  0  0  0
    0.2950   24.5240  -28.6900 O   0  0  0  0  0  0  0  0  0  0  0  0
   -3.5080   26.0700  -29.7570 H   0  0  0  0  0  0  0  0  0  0  0  0
   -3.3460   24.2830  -29.8560 H   0  0  0  0  0  0  0  0  0  0  0  0
   -7.9180   24.3911  -31.2589 H   0  0  0  0  0  0  0  0  0  0  0  0
   -9.4053   22.0748  -32.0279 H   0  0  0  0  0  0  0  0  0  0  0  0
   -9.1813   19.6132  -32.4841 H   0  0  0  0  0  0  0  0  0  0  0  0
   -4.8897   19.8673  -31.7535 H   0  0  0  0  0  0  0  0  0  0  0  0
   -1.7050   20.9246  -29.2746 H   0  0  0  0  0  0  0  0  0  0  0  0
   -1.3468   22.5861  -29.8828 H   0  0  0  0  0  0  0  0  0  0  0  0
   -2.5155   21.9863  -27.1273 H   0  0  0  0  0  0  0  0  0  0  0  0
   -0.7323   22.2192  -27.5018 H   0  0  0  0  0  0  0  0  0  0  0  0
   -1.5139   24.2433  -26.5753 H   0  0  0  0  0  0  0  0  0  0  0  0
   -3.7930   23.8180  -28.3370 H   0  0  0  0  0  0  0  0  0  0  0  0
   -3.3340   25.3960  -28.0290 H   0  0  0  0  0  0  0  0  0  0  0  0
  1  2  1  0
  2  3  2  0
  2  4  1  0
  4  5  2  0
  5  6  1  0
  6  7  2  0
  7  8  1  0
  8  9  2  0
  9 10  1  0
 10 11  1  0
 10 12  1  0
 10 13  1  0
  9 14  1  0
 14 15  2  0
 15 16  1  0
 16 17  1  0
 17 18  2  0
 17 19  1  0
 19 20  1  0
 20 21  1  0
 21 22  1  0
 22 23  1  0
 22 24  1  0
 24 25  2  0
 24 26  1  0
 16  4  1  0
 15  6  1  0
  1 27  1  0
  1 28  1  0
  5 29  1  0
  7 30  1  0
  8 31  1  0
 14 32  1  0
 20 33  1  0
 20 34  1  0
 21 35  1  0
 21 36  1  0
 22 37  1  1
 23 38  1  0
 23 39  1  0
M  CHG  1  26  -1
M  END
>  <UniqueID>  (51) 
51

>  <SMILES>  (51) 
NC(=O)c1cc2ccc(C(F)(F)F)cc2n1C(=O)OCC[C@H](N)C(=O)[O-]

>  <Energy>  (51) 
73.0835942315691

>  <Genealogy>  (51) 
NC(=O)c1cc2ccc(C(F)(F)F)cc2n1C(=O)OCC[C@H](N)C(=O)[O-] (protonated)
NC(=O)c1cc2ccc(C(F)(F)F)cc2n1C(=O)OCC[C@H](N)C(=O)[O-] (3D coordinates assigned)
NC(=O)c1cc2ccc(C(F)(F)F)cc2n1C(=O)OCC[C@H](N)C(=O)[O-] (optimized conformer: 73.0835942315691 kcal/mol)

>  <smiles>  (51) 
NC(=O)c1cc2ccc(C(F)(F)F)cc2n1C(=O)OCC[C@H](N)C(=O)O

>  <score_type>  (51) 
oracle

>  <origin>  (51) 
adg

>  <m_score__min__energy>  (51) 
-10.539999999999999

>  <m_primary>  (51) 
energy

$$$$
52:0
     RDKit          3D

 45 47  0  0  0  0  0  0  0  0999 V2000
   -2.5820   24.3970  -26.8390 C   0  0  0  0  0  0  0  0  0  0  0  0
   -2.1380   24.1060  -28.2140 N   0  0  1  0  0  0  0  0  0  0  0  0
   -1.0160   24.9320  -28.5950 C   0  0  0  0  0  0  0  0  0  0  0  0
    0.1670   24.5930  -28.3080 O   0  0  0  0  0  0  0  0  0  0  0  0
   -1.2310   26.1020  -29.3190 O   0  0  0  0  0  0  0  0  0  0  0  0
   -1.8020   22.7060  -28.3370 C   0  0  0  0  0  0  0  0  0  0  0  0
   -1.2340   22.0940  -27.3900 O   0  0  0  0  0  0  0  0  0  0  0  0
   -2.1630   21.9800  -29.5250 N   0  0  0  0  0  0  0  0  0  0  0  0
   -3.5040   21.3900  -29.6110 C   0  0  0  0  0  0  0  0  0  0  0  0
   -4.1530   21.7690  -30.9110 C   0  0  0  0  0  0  0  0  0  0  0  0
   -3.6310   21.4000  -31.9970 O   0  0  0  0  0  0  0  0  0  0  0  0
   -5.4240   22.4310  -30.9270 N   0  0  0  0  0  0  0  0  0  0  0  0
   -5.7620   23.6230  -30.3560 C   0  0  0  0  0  0  0  0  0  0  0  0
   -4.8160   24.5990  -29.7780 C   0  0  0  0  0  0  0  0  0  0  0  0
   -3.8760   25.2800  -30.6060 N   0  0  0  0  0  0  0  0  0  0  0  0
   -4.8680   24.8690  -28.5470 O   0  0  0  0  0  0  0  0  0  0  0  0
   -7.1330   23.8430  -30.4610 C   0  0  0  0  0  0  0  0  0  0  0  0
   -7.6290   22.7490  -31.1350 C   0  0  0  0  0  0  0  0  0  0  0  0
   -8.9360   22.4230  -31.4840 C   0  0  0  0  0  0  0  0  0  0  0  0
   -9.1570   21.1990  -32.1400 C   0  0  0  0  0  0  0  0  0  0  0  0
   -8.0770   20.3310  -32.4300 C   0  0  0  0  0  0  0  0  0  0  0  0
   -8.3160   19.0850  -33.0910 N   0  0  0  0  0  0  0  0  0  0  0  0
   -6.7660   20.6910  -32.0570 C   0  0  0  0  0  0  0  0  0  0  0  0
   -6.5740   21.9180  -31.4140 C   0  0  0  0  0  0  0  0  0  0  0  0
   -1.1750   21.6550  -30.5690 C   0  0  0  0  0  0  0  0  0  0  0  0
   -0.9680   20.1880  -30.9400 C   0  0  0  0  0  0  0  0  0  0  0  0
    0.0100   20.8810  -30.0100 C   0  0  0  0  0  0  0  0  0  0  0  0
   -1.8833   23.9391  -26.1234 H   0  0  0  0  0  0  0  0  0  0  0  0
   -2.6047   25.4857  -26.6837 H   0  0  0  0  0  0  0  0  0  0  0  0
   -3.5894   23.9834  -26.6837 H   0  0  0  0  0  0  0  0  0  0  0  0
   -2.9370   24.3280  -28.8560 H   0  0  0  0  0  0  0  0  0  0  0  0
   -3.4239   20.2946  -29.5502 H   0  0  0  0  0  0  0  0  0  0  0  0
   -4.1171   21.7676  -28.7794 H   0  0  0  0  0  0  0  0  0  0  0  0
   -2.8570   25.2830  -30.3710 H   0  0  0  0  0  0  0  0  0  0  0  0
   -7.6999   24.7075  -30.0852 H   0  0  0  0  0  0  0  0  0  0  0  0
   -9.7705   23.1018  -31.2539 H   0  0  0  0  0  0  0  0  0  0  0  0
  -10.1787   20.9133  -32.4306 H   0  0  0  0  0  0  0  0  0  0  0  0
   -9.0680   18.9960  -33.8110 H   0  0  0  0  0  0  0  0  0  0  0  0
   -7.7570   18.2360  -32.8530 H   0  0  0  0  0  0  0  0  0  0  0  0
   -5.9164   20.0243  -32.2662 H   0  0  0  0  0  0  0  0  0  0  0  0
   -1.3514   22.5583  -31.1715 H   0  0  0  0  0  0  0  0  0  0  0  0
   -1.6503   19.4197  -30.5473 H   0  0  0  0  0  0  0  0  0  0  0  0
   -0.8815   19.6289  -31.8833 H   0  0  0  0  0  0  0  0  0  0  0  0
    0.0371   20.6133  -28.9434 H   0  0  0  0  0  0  0  0  0  0  0  0
    1.0998   21.0302  -30.0017 H   0  0  0  0  0  0  0  0  0  0  0  0
  1  2  1  0
  2  3  1  0
  3  4  2  0
  3  5  1  0
  2  6  1  0
  6  7  2  0
  6  8  1  0
  8  9  1  0
  9 10  1  0
 10 11  2  0
 10 12  1  0
 12 13  1  0
 13 14  1  0
 14 15  1  0
 14 16  2  0
 13 17  2  0
 17 18  1  0
 18 19  2  0
 19 20  1  0
 20 21  2  0
 21 22  1  0
 21 23  1  0
 23 24  2  0
  8 25  1  0
 25 26  1  0
 26 27  1  0
 24 12  1  0
 27 25  1  0
 24 18  1  0
  1 28  1  0
  1 29  1  0
  1 30  1  0
  2 31  1  6
  9 32  1  0
  9 33  1  0
 15 34  1  0
 17 35  1  0
 19 36  1  0
 20 37  1  0
 22 38  1  0
 22 39  1  0
 23 40  1  0
 25 41  1  0
 26 42  1  0
 26 43  1  0
 27 44  1  0
 27 45  1  0
M  CHG  3   2   1   5  -1  15  -1
M  END
>  <UniqueID>  (52) 
52

>  <SMILES>  (52) 
C[NH+](C(=O)[O-])C(=O)N(CC(=O)n1c(C([NH-])=O)cc2ccc(N)cc21)C1CC1

>  <Energy>  (52) 
357.00890706498086

>  <Genealogy>  (52) 
C[NH+](C(=O)[O-])C(=O)N(CC(=O)n1c(C([NH-])=O)cc2ccc(N)cc21)C1CC1 (protonated)
C[NH+](C(=O)[O-])C(=O)N(CC(=O)n1c(C([NH-])=O)cc2ccc(N)cc21)C1CC1 (3D coordinates assigned)
C[NH+](C(=O)[O-])C(=O)N(CC(=O)n1c(C([NH-])=O)cc2ccc(N)cc21)C1CC1 (nonaromatic ring conformer: 357.00890706498086 kcal/mol)

>  <smiles>  (52) 
CN(C(=O)O)C(=O)N(CC(=O)n1c(C(N)=O)cc2ccc(N)cc21)C1CC1

>  <score_type>  (52) 
oracle

>  <origin>  (52) 
adg

>  <m_score__min__energy>  (52) 
-10.82

>  <m_primary>  (52) 
energy

$$$$
53:0
     RDKit          3D

 55 56  0  0  0  0  0  0  0  0999 V2000
   -7.5400   18.0400  -33.0660 C   0  0  0  0  0  0  0  0  0  0  0  0
   -7.5230   19.3740  -32.3770 C   0  0  0  0  0  0  0  0  0  0  0  0
   -8.7370   19.9560  -31.9320 C   0  0  0  0  0  0  0  0  0  0  0  0
   -8.7420   21.2290  -31.3300 C   0  0  0  0  0  0  0  0  0  0  0  0
   -7.5220   21.8900  -31.1870 C   0  0  0  0  0  0  0  0  0  0  0  0
   -7.2420   23.1440  -30.6820 C   0  0  0  0  0  0  0  0  0  0  0  0
   -5.8610   23.2960  -30.8180 C   0  0  0  0  0  0  0  0  0  0  0  0
   -5.1130   24.4770  -30.3340 C   0  0  0  0  0  0  0  0  0  0  0  0
   -5.1660   24.8700  -28.9620 N   0  0  0  0  0  0  0  0  0  0  0  0
   -4.4640   25.1810  -31.1520 O   0  0  0  0  0  0  0  0  0  0  0  0
   -5.3140   22.1900  -31.3970 N   0  0  0  0  0  0  0  0  0  0  0  0
   -3.9640   22.0090  -31.8550 C   0  0  0  0  0  0  0  0  0  0  0  0
   -3.7320   22.0020  -33.0960 O   0  0  0  0  0  0  0  0  0  0  0  0
   -2.8370   21.8150  -30.8630 C   0  0  2  0  0  0  0  0  0  0  0  0
   -2.1230   23.0810  -30.6580 N   0  0  0  0  0  0  0  0  0  0  0  0
   -1.8730   20.7270  -31.3190 C   0  0  0  0  0  0  0  0  0  0  0  0
   -2.2990   19.8030  -32.0020 O   0  0  0  0  0  0  0  0  0  0  0  0
   -0.3930   20.7710  -31.0150 C   0  0  0  0  0  0  0  0  0  0  0  0
   -0.0890   20.3090  -29.6520 N   0  0  0  0  0  0  0  0  0  0  0  0
    0.2260   18.8980  -29.4150 C   0  0  0  0  0  0  0  0  0  0  0  0
   -0.1390   21.2130  -28.5300 C   0  0  0  0  0  0  0  0  0  0  0  0
    0.9210   21.5170  -27.9130 O   0  0  0  0  0  0  0  0  0  0  0  0
   -1.3640   21.7740  -28.1400 O   0  0  0  0  0  0  0  0  0  0  0  0
   -1.5580   22.4530  -26.8990 C   0  0  0  0  0  0  0  0  0  0  0  0
   -2.4290   23.6970  -27.0950 C   0  0  0  0  0  0  0  0  0  0  0  0
   -1.6030   24.8990  -28.1350 S   0  0  0  0  0  0  0  0  0  0  0  0
   -1.2240   26.3510  -27.1710 C   0  0  0  0  0  0  0  0  0  0  0  0
   -0.3250   24.3160  -28.6670 O   0  0  0  0  0  0  0  0  0  0  0  0
   -2.4960   25.2810  -29.2840 O   0  0  0  0  0  0  0  0  0  0  0  0
   -6.3410   21.3380  -31.6130 C   0  0  0  0  0  0  0  0  0  0  0  0
   -6.3070   20.0810  -32.2300 C   0  0  0  0  0  0  0  0  0  0  0  0
   -7.5502   17.2384  -32.3128 H   0  0  0  0  0  0  0  0  0  0  0  0
   -8.4392   17.9636  -33.6950 H   0  0  0  0  0  0  0  0  0  0  0  0
   -6.6430   17.9407  -33.6950 H   0  0  0  0  0  0  0  0  0  0  0  0
   -9.6827   19.4086  -32.0581 H   0  0  0  0  0  0  0  0  0  0  0  0
   -9.6794   21.6882  -30.9831 H   0  0  0  0  0  0  0  0  0  0  0  0
   -7.9550   23.8688  -30.2620 H   0  0  0  0  0  0  0  0  0  0  0  0
   -4.5870   25.6730  -28.6200 H   0  0  0  0  0  0  0  0  0  0  0  0
   -5.8290   24.4090  -28.3010 H   0  0  0  0  0  0  0  0  0  0  0  0
   -3.2762   21.4910  -29.9079 H   0  0  0  0  0  0  0  0  0  0  0  0
   -1.8990   23.1950  -29.6400 H   0  0  0  0  0  0  0  0  0  0  0  0
   -2.7460   23.8750  -30.9400 H   0  0  0  0  0  0  0  0  0  0  0  0
    0.1349   20.1262  -31.7330 H   0  0  0  0  0  0  0  0  0  0  0  0
   -0.0636   21.8173  -31.0969 H   0  0  0  0  0  0  0  0  0  0  0  0
    0.2683   18.7086  -28.3323 H   0  0  0  0  0  0  0  0  0  0  0  0
   -0.5535   18.2673  -29.8674 H   0  0  0  0  0  0  0  0  0  0  0  0
    1.1997   18.6587  -29.8674 H   0  0  0  0  0  0  0  0  0  0  0  0
   -2.0525   21.7738  -26.1889 H   0  0  0  0  0  0  0  0  0  0  0  0
   -0.5780   22.7645  -26.5085 H   0  0  0  0  0  0  0  0  0  0  0  0
   -3.3769   23.4019  -27.5688 H   0  0  0  0  0  0  0  0  0  0  0  0
   -2.6163   24.1531  -26.1117 H   0  0  0  0  0  0  0  0  0  0  0  0
   -1.2877   26.1071  -26.1003 H   0  0  0  0  0  0  0  0  0  0  0  0
   -0.2063   26.6938  -27.4091 H   0  0  0  0  0  0  0  0  0  0  0  0
   -1.9443   27.1475  -27.4091 H   0  0  0  0  0  0  0  0  0  0  0  0
   -5.3592   19.6549  -32.5908 H   0  0  0  0  0  0  0  0  0  0  0  0
  1  2  1  0
  2  3  2  0
  3  4  1  0
  4  5  2  0
  5  6  1  0
  6  7  2  0
  7  8  1  0
  8  9  1  0
  8 10  2  0
  7 11  1  0
 11 12  1  0
 12 13  2  0
 12 14  1  0
 14 15  1  0
 14 16  1  0
 16 17  2  0
 16 18  1  0
 18 19  1  0
 19 20  1  0
 19 21  1  0
 21 22  2  0
 21 23  1  0
 23 24  1  0
 24 25  1  0
 25 26  1  0
 26 27  1  0
 26 28  2  0
 26 29  2  0
 11 30  1  0
 30 31  2  0
 31  2  1  0
 30  5  1  0
  1 32  1  0
  1 33  1  0
  1 34  1  0
  3 35  1  0
  4 36  1  0
  6 37  1  0
  9 38  1  0
  9 39  1  0
 14 40  1  1
 15 41  1  0
 15 42  1  0
 18 43  1  0
 18 44  1  0
 20 45  1  0
 20 46  1  0
 20 47  1  0
 24 48  1  0
 24 49  1  0
 25 50  1  0
 25 51  1  0
 27 52  1  0
 27 53  1  0
 27 54  1  0
 31 55  1  0
M  END
>  <UniqueID>  (53) 
53

>  <SMILES>  (53) 
Cc1ccc2cc(C(N)=O)n(C(=O)[C@H](N)C(=O)CN(C)C(=O)OCCS(C)(=O)=O)c2c1

>  <Energy>  (53) 
79.42227484667735

>  <Genealogy>  (53) 
Cc1ccc2cc(C(N)=O)n(C(=O)[C@H](N)C(=O)CN(C)C(=O)OCCS(C)(=O)=O)c2c1 (chirality)
Cc1ccc2cc(C(N)=O)n(C(=O)[C@H](N)C(=O)CN(C)C(=O)OCCS(C)(=O)=O)c2c1 (3D coordinates assigned)
Cc1ccc2cc(C(N)=O)n(C(=O)[C@H](N)C(=O)CN(C)C(=O)OCCS(C)(=O)=O)c2c1 (optimized conformer: 79.42227484667735 kcal/mol)

>  <smiles>  (53) 
Cc1ccc2cc(C(N)=O)n(C(=O)C(N)C(=O)CN(C)C(=O)OCCS(C)(=O)=O)c2c1

>  <score_type>  (53) 
oracle

>  <origin>  (53) 
adg

>  <m_score__min__energy>  (53) 
-9.6999999999999993

>  <m_primary>  (53) 
energy

$$$$
54:0
     RDKit          3D

 38 39  0  0  0  0  0  0  0  0999 V2000
   -2.4490   24.8440  -26.4430 C   0  0  0  0  0  0  0  0  0  0  0  0
   -2.1580   24.3790  -27.6650 C   0  0  0  0  0  0  0  0  0  0  0  0
   -1.1820   25.1040  -28.5130 C   0  0  0  0  0  0  0  0  0  0  0  0
   -1.4520   26.2480  -28.9650 O   0  0  0  0  0  0  0  0  0  0  0  0
    0.0410   24.5270  -28.8380 O   0  0  0  0  0  0  0  0  0  0  0  0
   -2.8070   23.1350  -28.1540 C   0  0  0  0  0  0  0  0  0  0  0  0
   -3.6570   22.5440  -27.4330 O   0  0  0  0  0  0  0  0  0  0  0  0
   -2.5000   22.6020  -29.4530 N   0  0  0  0  0  0  0  0  0  0  0  0
   -3.0200   22.9830  -30.6520 C   0  0  0  0  0  0  0  0  0  0  0  0
   -4.1130   23.9600  -30.8470 C   0  0  0  0  0  0  0  0  0  0  0  0
   -3.8800   25.3450  -30.6040 N   0  0  0  0  0  0  0  0  0  0  0  0
   -5.2470   23.5850  -31.2470 O   0  0  0  0  0  0  0  0  0  0  0  0
   -2.4200   22.2740  -31.6910 C   0  0  0  0  0  0  0  0  0  0  0  0
   -1.5070   21.4400  -31.0850 C   0  0  0  0  0  0  0  0  0  0  0  0
   -0.6280   20.5160  -31.6400 C   0  0  0  0  0  0  0  0  0  0  0  0
    0.2170   19.8070  -30.7700 C   0  0  0  0  0  0  0  0  0  0  0  0
    0.1770   20.0390  -29.3720 C   0  0  0  0  0  0  0  0  0  0  0  0
    1.0550   19.3160  -28.4890 N   0  0  0  0  0  0  0  0  0  0  0  0
    0.8600   17.8770  -28.2950 C   0  0  0  0  0  0  0  0  0  0  0  0
    2.1840   19.9990  -27.8500 C   0  0  0  0  0  0  0  0  0  0  0  0
    3.5910   18.8570  -27.6920 P   0  0  0  0  0  0  0  0  0  0  0  0
    3.2280   17.7300  -26.7500 O   0  0  0  0  0  0  0  0  0  0  0  0
    4.9320   19.6900  -27.0860 O   0  0  0  0  0  0  0  0  0  0  0  0
    3.9660   18.2180  -29.2120 O   0  0  0  0  0  0  0  0  0  0  0  0
   -0.7290   20.9850  -28.8470 C   0  0  0  0  0  0  0  0  0  0  0  0
   -1.5710   21.6620  -29.7350 C   0  0  0  0  0  0  0  0  0  0  0  0
   -3.1725   24.3102  -25.8093 H   0  0  0  0  0  0  0  0  0  0  0  0
   -1.9645   25.7597  -26.0732 H   0  0  0  0  0  0  0  0  0  0  0  0
   -3.4650   25.6700  -29.7020 H   0  0  0  0  0  0  0  0  0  0  0  0
   -2.6310   22.3619  -32.7670 H   0  0  0  0  0  0  0  0  0  0  0  0
   -0.5955   20.3457  -32.7262 H   0  0  0  0  0  0  0  0  0  0  0  0
    0.9175   19.0635  -31.1781 H   0  0  0  0  0  0  0  0  0  0  0  0
    0.8296   17.6529  -27.2185 H   0  0  0  0  0  0  0  0  0  0  0  0
   -0.0880   17.5694  -28.7604 H   0  0  0  0  0  0  0  0  0  0  0  0
    1.6920   17.3282  -28.7604 H   0  0  0  0  0  0  0  0  0  0  0  0
    2.4822   20.8622  -28.4631 H   0  0  0  0  0  0  0  0  0  0  0  0
    1.8809   20.3401  -26.8491 H   0  0  0  0  0  0  0  0  0  0  0  0
   -0.7719   21.1849  -27.7662 H   0  0  0  0  0  0  0  0  0  0  0  0
  1  2  2  0
  2  3  1  0
  3  4  2  0
  3  5  1  0
  2  6  1  0
  6  7  2  0
  6  8  1  0
  8  9  1  0
  9 10  1  0
 10 11  1  0
 10 12  2  0
  9 13  2  0
 13 14  1  0
 14 15  2  0
 15 16  1  0
 16 17  2  0
 17 18  1  0
 18 19  1  0
 18 20  1  0
 20 21  1  0
 21 22  2  0
 21 23  1  0
 21 24  1  0
 17 25  1  0
 25 26  2  0
 26  8  1  0
 26 14  1  0
  1 27  1  0
  1 28  1  0
 11 29  1  0
 13 30  1  0
 15 31  1  0
 16 32  1  0
 19 33  1  0
 19 34  1  0
 19 35  1  0
 20 36  1  0
 20 37  1  0
 25 38  1  0
M  CHG  4   5  -1  11  -1  23  -1  24  -1
M  END
>  <UniqueID>  (54) 
54

>  <SMILES>  (54) 
C=C(C(=O)[O-])C(=O)n1c(C([NH-])=O)cc2ccc(N(C)CP(=O)([O-])[O-])cc21

>  <Energy>  (54) 
77.57766824706762

>  <Genealogy>  (54) 
C=C(C(=O)[O-])C(=O)n1c(C([NH-])=O)cc2ccc(N(C)CP(=O)([O-])[O-])cc21 (protonated)
C=C(C(=O)[O-])C(=O)n1c(C([NH-])=O)cc2ccc(N(C)CP(=O)([O-])[O-])cc21 (3D coordinates assigned)
C=C(C(=O)[O-])C(=O)n1c(C([NH-])=O)cc2ccc(N(C)CP(=O)([O-])[O-])cc21 (optimized conformer: 77.57766824706762 kcal/mol)

>  <smiles>  (54) 
C=C(C(=O)O)C(=O)n1c(C(N)=O)cc2ccc(N(C)CP(=O)(O)O)cc21

>  <score_type>  (54) 
oracle

>  <origin>  (54) 
adg

>  <m_score__min__energy>  (54) 
-11.74

>  <m_primary>  (54) 
energy

$$$$
55:0
     RDKit          3D

 43 45  0  0  0  0  0  0  0  0999 V2000
   -6.4860   18.1800  -32.9830 C   0  0  0  0  0  0  0  0  0  0  0  0
   -6.6890   19.6090  -32.5730 C   0  0  0  0  0  0  0  0  0  0  0  0
   -7.9800   20.1910  -32.6430 C   0  0  0  0  0  0  0  0  0  0  0  0
   -8.1920   21.5130  -32.2180 C   0  0  0  0  0  0  0  0  0  0  0  0
   -7.1010   22.2220  -31.7220 C   0  0  0  0  0  0  0  0  0  0  0  0
   -7.0310   23.5010  -31.2190 C   0  0  0  0  0  0  0  0  0  0  0  0
   -5.6990   23.6800  -30.8500 C   0  0  0  0  0  0  0  0  0  0  0  0
   -5.1590   24.9560  -30.3360 C   0  0  0  0  0  0  0  0  0  0  0  0
   -3.9160   25.4500  -30.8270 N   0  0  0  0  0  0  0  0  0  0  0  0
   -5.7670   25.5980  -29.4380 O   0  0  0  0  0  0  0  0  0  0  0  0
   -4.9780   22.5530  -31.1070 N   0  0  0  0  0  0  0  0  0  0  0  0
   -3.5920   22.3080  -30.8240 C   0  0  0  0  0  0  0  0  0  0  0  0
   -2.7410   23.2190  -31.0100 O   0  0  0  0  0  0  0  0  0  0  0  0
   -3.1950   21.0590  -30.3330 O   0  0  0  0  0  0  0  0  0  0  0  0
   -3.0760   20.7770  -28.9400 C   0  0  0  0  0  0  0  0  0  0  0  0
   -2.1400   21.7130  -28.3120 N   0  0  0  0  0  0  0  0  0  0  0  0
   -2.3900   23.0190  -28.0870 C   0  0  0  0  0  0  0  0  0  0  0  0
   -1.2560   23.5770  -27.5210 C   0  0  0  0  0  0  0  0  0  0  0  0
   -1.0280   24.9430  -27.1430 N   0  0  0  0  0  0  0  0  0  0  0  0
   -0.9530   26.0430  -28.0590 C   0  0  0  0  0  0  0  0  0  0  0  0
   -1.2380   25.8990  -29.2760 O   0  0  0  0  0  0  0  0  0  0  0  0
   -0.5880   27.2990  -27.5910 O   0  0  0  0  0  0  0  0  0  0  0  0
   -0.3260   22.5610  -27.4500 C   0  0  0  0  0  0  0  0  0  0  0  0
   -0.8940   21.4400  -27.9390 N   0  0  0  0  0  0  0  0  0  0  0  0
   -0.2390   20.1380  -28.0460 C   0  0  0  0  0  0  0  0  0  0  0  0
   -5.8480   21.6720  -31.6460 C   0  0  0  0  0  0  0  0  0  0  0  0
   -5.6100   20.3520  -32.0480 C   0  0  0  0  0  0  0  0  0  0  0  0
   -6.3965   17.5502  -32.0856 H   0  0  0  0  0  0  0  0  0  0  0  0
   -7.3455   17.8448  -33.5820 H   0  0  0  0  0  0  0  0  0  0  0  0
   -5.5671   18.0974  -33.5820 H   0  0  0  0  0  0  0  0  0  0  0  0
   -8.8230   19.6021  -33.0336 H   0  0  0  0  0  0  0  0  0  0  0  0
   -9.1891   21.9739  -32.2752 H   0  0  0  0  0  0  0  0  0  0  0  0
   -7.8518   24.2276  -31.1276 H   0  0  0  0  0  0  0  0  0  0  0  0
   -3.0210   25.2420  -30.3300 H   0  0  0  0  0  0  0  0  0  0  0  0
   -4.0627   20.8756  -28.4638 H   0  0  0  0  0  0  0  0  0  0  0  0
   -2.6980   19.7519  -28.8125 H   0  0  0  0  0  0  0  0  0  0  0  0
   -3.3281   23.5472  -28.3129 H   0  0  0  0  0  0  0  0  0  0  0  0
   -0.9500   25.1600  -26.1230 H   0  0  0  0  0  0  0  0  0  0  0  0
    0.6996   22.6496  -27.0623 H   0  0  0  0  0  0  0  0  0  0  0  0
   -0.0405   19.7435  -27.0385 H   0  0  0  0  0  0  0  0  0  0  0  0
   -0.8941   19.4416  -28.5900 H   0  0  0  0  0  0  0  0  0  0  0  0
    0.7106   20.2489  -28.5900 H   0  0  0  0  0  0  0  0  0  0  0  0
   -4.6086   19.9059  -31.9570 H   0  0  0  0  0  0  0  0  0  0  0  0
  1  2  1  0
  2  3  2  0
  3  4  1  0
  4  5  2  0
  5  6  1  0
  6  7  2  0
  7  8  1  0
  8  9  1  0
  8 10  2  0
  7 11  1  0
 11 12  1  0
 12 13  2  0
 12 14  1  0
 14 15  1  0
 15 16  1  0
 16 17  2  0
 17 18  1  0
 18 19  1  0
 19 20  1  0
 20 21  2  0
 20 22  1  0
 18 23  2  0
 23 24  1  0
 24 25  1  0
 11 26  1  0
 26 27  2  0
 27  2  1  0
 26  5  1  0
 24 16  1  0
  1 28  1  0
  1 29  1  0
  1 30  1  0
  3 31  1  0
  4 32  1  0
  6 33  1  0
  9 34  1  0
 15 35  1  0
 15 36  1  0
 17 37  1  0
 19 38  1  0
 23 39  1  0
 25 40  1  0
 25 41  1  0
 25 42  1  0
 27 43  1  0
M  CHG  3   9  -1  16   1  22  -1
M  END
>  <UniqueID>  (55) 
55

>  <SMILES>  (55) 
Cc1ccc2cc(C([NH-])=O)n(C(=O)OC[n+]3cc(NC(=O)[O-])cn3C)c2c1

>  <Energy>  (55) 
113.75459719282148

>  <Genealogy>  (55) 
Cc1ccc2cc(C([NH-])=O)n(C(=O)OC[n+]3cc(NC(=O)[O-])cn3C)c2c1 (protonated)
Cc1ccc2cc(C([NH-])=O)n(C(=O)OC[n+]3cc(NC(=O)[O-])cn3C)c2c1 (3D coordinates assigned)
Cc1ccc2cc(C([NH-])=O)n(C(=O)OC[n+]3cc(NC(=O)[O-])cn3C)c2c1 (optimized conformer: 113.75459719282148 kcal/mol)

>  <smiles>  (55) 
Cc1ccc2cc(C(N)=O)n(C(=O)OC[n+]3cc(NC(=O)O)cn3C)c2c1

>  <score_type>  (55) 
oracle

>  <origin>  (55) 
adg

>  <m_score__min__energy>  (55) 
-11.51

>  <m_primary>  (55) 
energy

$$$$
56:0
     RDKit          3D

 46 47  0  0  0  0  0  0  0  0999 V2000
   -3.2110   25.6090  -29.3290 H   0  0  0  0  0  0  0  0  0  0  0  0
   -3.5980   25.2470  -30.2300 N   0  0  0  0  0  0  0  0  0  0  0  0
   -4.9940   25.3000  -30.5030 C   0  0  0  0  0  0  0  0  0  0  0  0
   -5.5920   26.4080  -30.4390 O   0  0  0  0  0  0  0  0  0  0  0  0
   -5.7490   24.0800  -30.8630 C   0  0  0  0  0  0  0  0  0  0  0  0
   -7.1390   24.0170  -30.9380 C   0  0  0  0  0  0  0  0  0  0  0  0
   -7.8555   24.8255  -30.7307 H   0  0  0  0  0  0  0  0  0  0  0  0
   -7.4250   22.7270  -31.3270 C   0  0  0  0  0  0  0  0  0  0  0  0
   -8.6520   22.1040  -31.5380 C   0  0  0  0  0  0  0  0  0  0  0  0
   -9.5964   22.6538  -31.4124 H   0  0  0  0  0  0  0  0  0  0  0  0
   -8.6460   20.7490  -31.9170 C   0  0  0  0  0  0  0  0  0  0  0  0
   -9.5989   20.2243  -32.0805 H   0  0  0  0  0  0  0  0  0  0  0  0
   -7.4220   20.0540  -32.0900 C   0  0  0  0  0  0  0  0  0  0  0  0
   -7.4330   18.5970  -32.4520 C   0  0  0  0  0  0  0  0  0  0  0  0
   -7.4376   17.9911  -31.5339 H   0  0  0  0  0  0  0  0  0  0  0  0
   -8.3329   18.3730  -33.0437 H   0  0  0  0  0  0  0  0  0  0  0  0
   -6.5366   18.3594  -33.0437 H   0  0  0  0  0  0  0  0  0  0  0  0
   -6.1960   20.7150  -31.8520 C   0  0  0  0  0  0  0  0  0  0  0  0
   -5.2376   20.1863  -31.9616 H   0  0  0  0  0  0  0  0  0  0  0  0
   -6.2360   22.0610  -31.4730 C   0  0  0  0  0  0  0  0  0  0  0  0
   -5.2030   22.8760  -31.1890 N   0  0  0  0  0  0  0  0  0  0  0  0
   -3.8140   22.5260  -31.2430 C   0  0  0  0  0  0  0  0  0  0  0  0
   -3.1950   22.6150  -32.3360 O   0  0  0  0  0  0  0  0  0  0  0  0
   -3.0950   22.0660  -30.0420 C   0  0  0  0  0  0  0  0  0  0  0  0
   -2.2020   22.6181  -29.7138 H   0  0  0  0  0  0  0  0  0  0  0  0
   -3.4910   20.9990  -29.3360 C   0  0  0  0  0  0  0  0  0  0  0  0
   -4.3908   20.4548  -29.6587 H   0  0  0  0  0  0  0  0  0  0  0  0
   -2.7650   20.5260  -28.1410 C   0  0  0  0  0  0  0  0  0  0  0  0
   -3.4320   20.0880  -27.1640 O   0  0  0  0  0  0  0  0  0  0  0  0
   -1.3280   20.5460  -28.0630 N   0  0  0  0  0  0  0  0  0  0  0  0
   -0.6260   21.7970  -27.9120 C   0  0  0  0  0  0  0  0  0  0  0  0
    0.2460   22.1400  -28.7580 O   0  0  0  0  0  0  0  0  0  0  0  0
   -0.9090   22.6270  -26.8200 O   0  0  0  0  0  0  0  0  0  0  0  0
   -2.0400   23.4890  -26.7700 C   0  0  0  0  0  0  0  0  0  0  0  0
   -2.9508   22.8920  -26.6149 H   0  0  0  0  0  0  0  0  0  0  0  0
   -1.9256   24.2005  -25.9389 H   0  0  0  0  0  0  0  0  0  0  0  0
   -2.1400   24.1930  -27.9840 O   0  0  0  0  0  0  0  0  0  0  0  0
   -0.9620   25.4290  -27.9920 P   0  0  2  0  0  5  0  0  0  0  0  0
   -1.0750   26.2650  -26.7370 O   0  0  0  0  0  0  0  0  0  0  0  0
   -1.2290   26.4180  -29.3340 O   0  0  0  0  0  0  0  0  0  0  0  0
    0.5960   24.7720  -28.1070 O   0  0  0  0  0  0  0  0  0  0  0  0
    0.4770   23.7970  -27.9760 H   0  0  0  0  0  0  0  0  0  0  0  0
   -0.6110   19.2840  -27.8680 C   0  0  0  0  0  0  0  0  0  0  0  0
   -0.4997   19.0881  -26.7913 H   0  0  0  0  0  0  0  0  0  0  0  0
   -1.1783   18.4643  -28.3331 H   0  0  0  0  0  0  0  0  0  0  0  0
    0.3835   19.3517  -28.3331 H   0  0  0  0  0  0  0  0  0  0  0  0
  1  2  1  0
  2  3  1  0
  3  4  2  0
  3  5  1  0
  5  6  2  0
  6  7  1  0
  6  8  1  0
  8  9  2  0
  9 10  1  0
  9 11  1  0
 11 12  1  0
 11 13  2  0
 13 14  1  0
 14 15  1  0
 14 16  1  0
 14 17  1  0
 13 18  1  0
 18 19  1  0
 18 20  2  0
 20 21  1  0
 21 22  1  0
 22 23  2  0
 22 24  1  0
 24 25  1  0
 24 26  2  0
 26 27  1  0
 26 28  1  0
 28 29  2  0
 28 30  1  0
 30 31  1  0
 31 32  2  0
 31 33  1  0
 33 34  1  0
 34 35  1  0
 34 36  1  0
 34 37  1  0
 37 38  1  0
 38 39  2  0
 38 40  1  6
 38 41  1  0
 41 42  1  0
 30 43  1  0
 43 44  1  0
 43 45  1  0
 43 46  1  0
 21  5  1  0
 20  8  1  0
M  CHG  2   2  -1  40  -1
M  END
>  <UniqueID>  (56) 
56

>  <SMILES>  (56) 
Cc1ccc2cc(C([NH-])=O)n(C(=O)/C=C/C(=O)N(C)C(=O)OCO[P@](=O)([O-])O)c2c1

>  <Energy>  (56) 
82.9524192971557

>  <Genealogy>  (56) 
Cc1ccc2cc(C([NH-])=O)n(C(=O)/C=C/C(=O)N(C)C(=O)OCOP(=O)([O-])O)c2c1 (protonated)
Cc1ccc2cc(C([NH-])=O)n(C(=O)/C=C/C(=O)N(C)C(=O)OCO[P@](=O)([O-])O)c2c1 (chirality)
Cc1ccc2cc(C([NH-])=O)n(C(=O)/C=C/C(=O)N(C)C(=O)OCO[P@](=O)([O-])O)c2c1 (cis-trans isomerization)
Cc1ccc2cc(C([NH-])=O)n(C(=O)/C=C/C(=O)N(C)C(=O)OCO[P@](=O)([O-])O)c2c1 (3D coordinates assigned)
Cc1ccc2cc(C([NH-])=O)n(C(=O)/C=C/C(=O)N(C)C(=O)OCO[P@](=O)([O-])O)c2c1 (optimized conformer: 82.9524192971557 kcal/mol)

>  <smiles>  (56) 
Cc1ccc2cc(C(N)=O)n(C(=O)/C=C/C(=O)N(C)C(=O)OCOP(=O)(O)O)c2c1

>  <score_type>  (56) 
oracle

>  <origin>  (56) 
adg

>  <m_score__min__energy>  (56) 
-13.09

>  <m_primary>  (56) 
energy

$$$$
57:0
     RDKit          3D

 47 49  0  0  0  0  0  0  0  0999 V2000
   -3.5390   22.5520  -27.5230 C   0  0  0  0  0  0  0  0  0  0  0  0
   -2.8940   23.9520  -27.6740 C   0  0  1  0  0  0  0  0  0  0  0  0
   -3.9310   24.9100  -27.6520 O   0  0  0  0  0  0  0  0  0  0  0  0
   -1.9010   24.2520  -26.5420 C   0  0  0  0  0  0  0  0  0  0  0  0
   -0.9210   25.2460  -27.1480 C   0  0  0  0  0  0  0  0  0  0  0  0
   -1.2890   25.3240  -28.6250 C   0  0  0  0  0  0  0  0  0  0  0  0
   -2.1340   24.1560  -28.9350 N   0  0  0  0  0  0  0  0  0  0  0  0
   -1.2930   23.0060  -29.3720 C   0  0  0  0  0  0  0  0  0  0  0  0
   -1.5560   22.6510  -30.8410 C   0  0  0  0  0  0  0  0  0  0  0  0
   -2.9090   22.9390  -31.1880 O   0  0  0  0  0  0  0  0  0  0  0  0
   -3.9990   22.2010  -30.7120 C   0  0  0  0  0  0  0  0  0  0  0  0
   -3.8180   21.2070  -29.9570 O   0  0  0  0  0  0  0  0  0  0  0  0
   -5.3320   22.6110  -31.0390 N   0  0  0  0  0  0  0  0  0  0  0  0
   -5.9070   23.8300  -30.8360 C   0  0  0  0  0  0  0  0  0  0  0  0
   -5.2100   25.0530  -30.3890 C   0  0  0  0  0  0  0  0  0  0  0  0
   -3.8880   25.3480  -30.8330 N   0  0  0  0  0  0  0  0  0  0  0  0
   -5.8020   25.8690  -29.6340 O   0  0  0  0  0  0  0  0  0  0  0  0
   -7.2620   23.7870  -31.1620 C   0  0  0  0  0  0  0  0  0  0  0  0
   -7.4990   22.4940  -31.5720 C   0  0  0  0  0  0  0  0  0  0  0  0
   -8.6850   21.8800  -31.9640 C   0  0  0  0  0  0  0  0  0  0  0  0
   -8.6470   20.5100  -32.2710 C   0  0  0  0  0  0  0  0  0  0  0  0
   -7.4320   19.7810  -32.1920 C   0  0  0  0  0  0  0  0  0  0  0  0
   -7.4150   18.2960  -32.4510 C   0  0  0  0  0  0  0  0  0  0  0  0
   -6.5600   17.6570  -31.5690 F   0  0  0  0  0  0  0  0  0  0  0  0
   -8.6910   17.7910  -32.2870 F   0  0  0  0  0  0  0  0  0  0  0  0
   -6.9860   18.0290  -33.7400 F   0  0  0  0  0  0  0  0  0  0  0  0
   -6.2540   20.4380  -31.7700 C   0  0  0  0  0  0  0  0  0  0  0  0
   -6.3180   21.8060  -31.4870 C   0  0  0  0  0  0  0  0  0  0  0  0
   -3.6494   22.3124  -26.4551 H   0  0  0  0  0  0  0  0  0  0  0  0
   -4.5286   22.5505  -28.0033 H   0  0  0  0  0  0  0  0  0  0  0  0
   -2.8971   21.7988  -28.0033 H   0  0  0  0  0  0  0  0  0  0  0  0
   -4.0310   25.2880  -28.5660 H   0  0  0  0  0  0  0  0  0  0  0  0
   -2.4185   24.6939  -25.6778 H   0  0  0  0  0  0  0  0  0  0  0  0
   -1.4013   23.3444  -26.1726 H   0  0  0  0  0  0  0  0  0  0  0  0
   -1.0280   26.2317  -26.6717 H   0  0  0  0  0  0  0  0  0  0  0  0
    0.1234   24.9334  -27.0015 H   0  0  0  0  0  0  0  0  0  0  0  0
   -1.8440   26.2524  -28.8250 H   0  0  0  0  0  0  0  0  0  0  0  0
   -0.3837   25.3232  -29.2498 H   0  0  0  0  0  0  0  0  0  0  0  0
   -0.2323   23.2714  -29.2517 H   0  0  0  0  0  0  0  0  0  0  0  0
   -1.5481   22.1336  -28.7525 H   0  0  0  0  0  0  0  0  0  0  0  0
   -0.8841   23.2405  -31.4821 H   0  0  0  0  0  0  0  0  0  0  0  0
   -1.3715   21.5764  -30.9867 H   0  0  0  0  0  0  0  0  0  0  0  0
   -3.0560   24.9580  -30.3380 H   0  0  0  0  0  0  0  0  0  0  0  0
   -7.9879   24.6114  -31.1040 H   0  0  0  0  0  0  0  0  0  0  0  0
   -9.6233   22.4502  -32.0313 H   0  0  0  0  0  0  0  0  0  0  0  0
   -9.5702   19.9958  -32.5764 H   0  0  0  0  0  0  0  0  0  0  0  0
   -5.3083   19.8858  -31.6665 H   0  0  0  0  0  0  0  0  0  0  0  0
  1  2  1  0
  2  3  1  6
  2  4  1  0
  4  5  1  0
  5  6  1  0
  6  7  1  0
  7  8  1  0
  8  9  1  0
  9 10  1  0
 10 11  1  0
 11 12  2  0
 11 13  1  0
 13 14  1  0
 14 15  1  0
 15 16  1  0
 15 17  2  0
 14 18  2  0
 18 19  1  0
 19 20  2  0
 20 21  1  0
 21 22  2  0
 22 23  1  0
 23 24  1  0
 23 25  1  0
 23 26  1  0
 22 27  1  0
 27 28  2  0
  7  2  1  0
 28 13  1  0
 28 19  1  0
  1 29  1  0
  1 30  1  0
  1 31  1  0
  3 32  1  0
  4 33  1  0
  4 34  1  0
  5 35  1  0
  5 36  1  0
  6 37  1  0
  6 38  1  0
  8 39  1  0
  8 40  1  0
  9 41  1  0
  9 42  1  0
 16 43  1  0
 18 44  1  0
 20 45  1  0
 21 46  1  0
 27 47  1  0
M  CHG  1  16  -1
M  END
>  <UniqueID>  (57) 
57

>  <SMILES>  (57) 
C[C@@]1(O)CCCN1CCOC(=O)n1c(C([NH-])=O)cc2ccc(C(F)(F)F)cc21

>  <Energy>  (57) 
96.11468210236282

>  <Genealogy>  (57) 
CC1(O)CCCN1CCOC(=O)n1c(C([NH-])=O)cc2ccc(C(F)(F)F)cc21 (protonated)
C[C@@]1(O)CCCN1CCOC(=O)n1c(C([NH-])=O)cc2ccc(C(F)(F)F)cc21 (chirality)
C[C@@]1(O)CCCN1CCOC(=O)n1c(C([NH-])=O)cc2ccc(C(F)(F)F)cc21 (3D coordinates assigned)
C[C@@]1(O)CCCN1CCOC(=O)n1c(C([NH-])=O)cc2ccc(C(F)(F)F)cc21 (nonaromatic ring conformer: 96.11468210236282 kcal/mol)

>  <smiles>  (57) 
CC1(O)CCCN1CCOC(=O)n1c(C(N)=O)cc2ccc(C(F)(F)F)cc21

>  <score_type>  (57) 
oracle

>  <origin>  (57) 
adg

>  <m_score__min__energy>  (57) 
-11.17

>  <m_primary>  (57) 
energy

$$$$
58:0
     RDKit          3D

 40 41  0  0  0  0  0  0  0  0999 V2000
   -4.3180   22.8860  -28.3160 C   0  0  0  0  0  0  0  0  0  0  0  0
   -3.4460   22.9440  -29.5010 N   0  0  1  0  0  0  0  0  0  0  0  0
   -2.0900   22.3760  -29.2790 C   0  0  0  0  0  0  0  0  0  0  0  0
   -1.2000   23.1630  -28.2880 C   0  0  0  0  0  0  0  0  0  0  0  0
   -0.7950   24.5250  -28.8610 C   0  0  0  0  0  0  0  0  0  0  0  0
   -1.8900   25.3990  -28.9070 O   0  0  0  0  0  0  0  0  0  0  0  0
   -4.1140   22.3540  -30.6410 C   0  0  0  0  0  0  0  0  0  0  0  0
   -3.5590   21.4360  -31.3060 O   0  0  0  0  0  0  0  0  0  0  0  0
   -5.4560   22.7480  -30.9780 N   0  0  0  0  0  0  0  0  0  0  0  0
   -5.9910   24.0000  -30.9180 C   0  0  0  0  0  0  0  0  0  0  0  0
   -5.2630   25.2380  -30.5660 C   0  0  0  0  0  0  0  0  0  0  0  0
   -3.8630   25.3310  -30.8190 N   0  0  0  0  0  0  0  0  0  0  0  0
   -5.8590   26.2100  -30.0340 O   0  0  0  0  0  0  0  0  0  0  0  0
   -7.3370   23.9720  -31.2790 C   0  0  0  0  0  0  0  0  0  0  0  0
   -7.6130   22.6520  -31.5620 C   0  0  0  0  0  0  0  0  0  0  0  0
   -8.8030   22.0520  -31.9580 C   0  0  0  0  0  0  0  0  0  0  0  0
   -8.8030   20.6610  -32.1610 C   0  0  0  0  0  0  0  0  0  0  0  0
   -7.6290   19.8950  -31.9380 C   0  0  0  0  0  0  0  0  0  0  0  0
   -7.6390   18.4090  -32.1930 C   0  0  0  0  0  0  0  0  0  0  0  0
   -6.7860   17.7890  -31.3000 F   0  0  0  0  0  0  0  0  0  0  0  0
   -7.2160   18.1360  -33.4840 F   0  0  0  0  0  0  0  0  0  0  0  0
   -8.9120   17.8880  -32.0360 F   0  0  0  0  0  0  0  0  0  0  0  0
   -6.4370   20.5470  -31.5500 C   0  0  0  0  0  0  0  0  0  0  0  0
   -6.4610   21.9360  -31.3740 C   0  0  0  0  0  0  0  0  0  0  0  0
   -3.7023   22.9270  -27.4054 H   0  0  0  0  0  0  0  0  0  0  0  0
   -5.0112   23.7400  -28.3287 H   0  0  0  0  0  0  0  0  0  0  0  0
   -4.8920   21.9477  -28.3287 H   0  0  0  0  0  0  0  0  0  0  0  0
   -3.3100   23.9620  -29.7100 H   0  0  0  0  0  0  0  0  0  0  0  0
   -2.2087   21.3534  -28.8915 H   0  0  0  0  0  0  0  0  0  0  0  0
   -1.5775   22.4209  -30.2513 H   0  0  0  0  0  0  0  0  0  0  0  0
   -1.7576   23.3196  -27.3528 H   0  0  0  0  0  0  0  0  0  0  0  0
   -0.2861   22.5790  -28.1043 H   0  0  0  0  0  0  0  0  0  0  0  0
   -0.0117   24.9636  -28.2253 H   0  0  0  0  0  0  0  0  0  0  0  0
   -0.4233   24.3764  -29.8856 H   0  0  0  0  0  0  0  0  0  0  0  0
   -1.9990   25.6690  -29.8560 H   0  0  0  0  0  0  0  0  0  0  0  0
   -3.1710   25.2870  -30.0380 H   0  0  0  0  0  0  0  0  0  0  0  0
   -8.0318   24.8234  -31.3277 H   0  0  0  0  0  0  0  0  0  0  0  0
   -9.7159   22.6471  -32.1078 H   0  0  0  0  0  0  0  0  0  0  0  0
   -9.7233   20.1605  -32.4965 H   0  0  0  0  0  0  0  0  0  0  0  0
   -5.5106   19.9760  -31.3897 H   0  0  0  0  0  0  0  0  0  0  0  0
  1  2  1  0
  2  3  1  0
  3  4  1  0
  4  5  1  0
  5  6  1  0
  2  7  1  0
  7  8  2  0
  7  9  1  0
  9 10  1  0
 10 11  1  0
 11 12  1  0
 11 13  2  0
 10 14  2  0
 14 15  1  0
 15 16  2  0
 16 17  1  0
 17 18  2  0
 18 19  1  0
 19 20  1  0
 19 21  1  0
 19 22  1  0
 18 23  1  0
 23 24  2  0
 24  9  1  0
 24 15  1  0
  1 25  1  0
  1 26  1  0
  1 27  1  0
  2 28  1  6
  3 29  1  0
  3 30  1  0
  4 31  1  0
  4 32  1  0
  5 33  1  0
  5 34  1  0
  6 35  1  0
 12 36  1  0
 14 37  1  0
 16 38  1  0
 17 39  1  0
 23 40  1  0
M  CHG  2   2   1  12  -1
M  END
>  <UniqueID>  (58) 
58

>  <SMILES>  (58) 
C[N@@H+](CCCO)C(=O)n1c(C([NH-])=O)cc2ccc(C(F)(F)F)cc21

>  <Energy>  (58) 
82.35407753184649

>  <Genealogy>  (58) 
C[NH+](CCCO)C(=O)n1c(C([NH-])=O)cc2ccc(C(F)(F)F)cc21 (protonated)
C[N@@H+](CCCO)C(=O)n1c(C([NH-])=O)cc2ccc(C(F)(F)F)cc21 (chirality)
C[N@@H+](CCCO)C(=O)n1c(C([NH-])=O)cc2ccc(C(F)(F)F)cc21 (3D coordinates assigned)
C[N@@H+](CCCO)C(=O)n1c(C([NH-])=O)cc2ccc(C(F)(F)F)cc21 (optimized conformer: 82.35407753184649 kcal/mol)

>  <smiles>  (58) 
CN(CCCO)C(=O)n1c(C(N)=O)cc2ccc(C(F)(F)F)cc21

>  <score_type>  (58) 
oracle

>  <origin>  (58) 
adg

>  <m_score__min__energy>  (58) 
-9.4600000000000009

>  <m_primary>  (58) 
energy

$$$$
59:0
     RDKit          3D

 34 35  0  0  0  0  0  0  0  0999 V2000
   -0.8630   22.3240  -30.3720 C   0  0  0  0  0  0  0  0  0  0  0  0
   -1.6560   23.1080  -29.3250 C   0  0  2  0  0  0  0  0  0  0  0  0
   -3.0190   23.3660  -29.7990 N   0  0  0  0  0  0  0  0  0  0  0  0
   -3.8110   22.3520  -30.4350 C   0  0  0  0  0  0  0  0  0  0  0  0
   -3.3160   21.2170  -30.6730 O   0  0  0  0  0  0  0  0  0  0  0  0
   -5.1740   22.6230  -30.7920 N   0  0  0  0  0  0  0  0  0  0  0  0
   -5.8120   23.8270  -30.7980 C   0  0  0  0  0  0  0  0  0  0  0  0
   -5.2600   25.1050  -30.3010 C   0  0  0  0  0  0  0  0  0  0  0  0
   -4.0490   25.6390  -30.8310 N   0  0  0  0  0  0  0  0  0  0  0  0
   -5.8470   25.7180  -29.3700 O   0  0  0  0  0  0  0  0  0  0  0  0
   -7.1090   23.6880  -31.2890 C   0  0  0  0  0  0  0  0  0  0  0  0
   -7.2470   22.3500  -31.5820 C   0  0  0  0  0  0  0  0  0  0  0  0
   -8.3240   21.6580  -32.1260 C   0  0  0  0  0  0  0  0  0  0  0  0
   -8.1730   20.2810  -32.3610 C   0  0  0  0  0  0  0  0  0  0  0  0
   -6.9570   19.6200  -32.0450 C   0  0  0  0  0  0  0  0  0  0  0  0
   -6.7850   18.1560  -32.3610 C   0  0  0  0  0  0  0  0  0  0  0  0
   -8.0200   17.5370  -32.3340 F   0  0  0  0  0  0  0  0  0  0  0  0
   -5.9550   17.5510  -31.4350 F   0  0  0  0  0  0  0  0  0  0  0  0
   -6.2260   17.9900  -33.6170 F   0  0  0  0  0  0  0  0  0  0  0  0
   -5.8770   20.3660  -31.5180 C   0  0  0  0  0  0  0  0  0  0  0  0
   -6.0640   21.7310  -31.2750 C   0  0  0  0  0  0  0  0  0  0  0  0
   -0.9640   24.4060  -29.0270 C   0  0  0  0  0  0  0  0  0  0  0  0
    0.2220   24.4090  -28.6040 O   0  0  0  0  0  0  0  0  0  0  0  0
   -1.6190   25.6140  -29.2410 O   0  0  0  0  0  0  0  0  0  0  0  0
   -0.1681   21.6370  -29.8669 H   0  0  0  0  0  0  0  0  0  0  0  0
   -1.5568   21.7469  -31.0010 H   0  0  0  0  0  0  0  0  0  0  0  0
   -0.2939   23.0243  -31.0010 H   0  0  0  0  0  0  0  0  0  0  0  0
   -1.7125   22.5075  -28.4051 H   0  0  0  0  0  0  0  0  0  0  0  0
   -3.4320   24.3210  -29.6960 H   0  0  0  0  0  0  0  0  0  0  0  0
   -3.1210   25.3060  -30.4870 H   0  0  0  0  0  0  0  0  0  0  0  0
   -7.8624   24.4794  -31.4155 H   0  0  0  0  0  0  0  0  0  0  0  0
   -9.2659   22.1734  -32.3651 H   0  0  0  0  0  0  0  0  0  0  0  0
   -9.0063   19.7087  -32.7947 H   0  0  0  0  0  0  0  0  0  0  0  0
   -4.9118   19.8838  -31.3040 H   0  0  0  0  0  0  0  0  0  0  0  0
  1  2  1  0
  2  3  1  0
  3  4  1  0
  4  5  2  0
  4  6  1  0
  6  7  1  0
  7  8  1  0
  8  9  1  0
  8 10  2  0
  7 11  2  0
 11 12  1  0
 12 13  2  0
 13 14  1  0
 14 15  2  0
 15 16  1  0
 16 17  1  0
 16 18  1  0
 16 19  1  0
 15 20  1  0
 20 21  2  0
  2 22  1  0
 22 23  2  0
 22 24  1  0
 21  6  1  0
 21 12  1  0
  1 25  1  0
  1 26  1  0
  1 27  1  0
  2 28  1  1
  3 29  1  0
  9 30  1  0
 11 31  1  0
 13 32  1  0
 14 33  1  0
 20 34  1  0
M  CHG  2   9  -1  24  -1
M  END
>  <UniqueID>  (59) 
59

>  <SMILES>  (59) 
C[C@H](NC(=O)n1c(C([NH-])=O)cc2ccc(C(F)(F)F)cc21)C(=O)[O-]

>  <Energy>  (59) 
69.60649777936035

>  <Genealogy>  (59) 
C[C@H](NC(=O)n1c(C([NH-])=O)cc2ccc(C(F)(F)F)cc21)C(=O)[O-] (protonated)
C[C@H](NC(=O)n1c(C([NH-])=O)cc2ccc(C(F)(F)F)cc21)C(=O)[O-] (3D coordinates assigned)
C[C@H](NC(=O)n1c(C([NH-])=O)cc2ccc(C(F)(F)F)cc21)C(=O)[O-] (optimized conformer: 69.60649777936035 kcal/mol)

>  <smiles>  (59) 
C[C@H](NC(=O)n1c(C(N)=O)cc2ccc(C(F)(F)F)cc21)C(=O)O

>  <score_type>  (59) 
oracle

>  <origin>  (59) 
adg

>  <m_score__min__energy>  (59) 
-11.81

>  <m_primary>  (59) 
energy

$$$$
60:0
     RDKit          3D

 41 42  0  0  0  0  0  0  0  0999 V2000
   -4.1190   24.9250  -26.7230 C   0  0  0  0  0  0  0  0  0  0  0  0
   -3.9050   24.1920  -27.9210 O   0  0  0  0  0  0  0  0  0  0  0  0
   -3.9370   22.7950  -27.9650 C   0  0  0  0  0  0  0  0  0  0  0  0
   -4.6000   22.1400  -27.1160 O   0  0  0  0  0  0  0  0  0  0  0  0
   -3.1680   22.0720  -29.0340 C   0  0  0  0  0  0  0  0  0  0  0  0
   -2.6280   23.0030  -30.0530 N   0  0  1  0  0  0  0  0  0  0  0  0
   -1.1500   23.1750  -29.9990 C   0  0  0  0  0  0  0  0  0  0  0  0
   -0.6880   24.4250  -29.2950 C   0  0  0  0  0  0  0  0  0  0  0  0
    0.3830   24.4230  -28.6300 O   0  0  0  0  0  0  0  0  0  0  0  0
   -1.4570   25.5800  -29.3430 O   0  0  0  0  0  0  0  0  0  0  0  0
   -3.1010   22.6090  -31.3640 C   0  0  0  0  0  0  0  0  0  0  0  0
   -2.3050   22.1380  -32.2220 O   0  0  0  0  0  0  0  0  0  0  0  0
   -4.5110   22.5750  -31.6370 N   0  0  0  0  0  0  0  0  0  0  0  0
   -5.4580   23.4970  -31.3100 C   0  0  0  0  0  0  0  0  0  0  0  0
   -5.2020   24.8350  -30.7400 C   0  0  0  0  0  0  0  0  0  0  0  0
   -3.8720   25.3010  -30.5380 N   0  0  0  0  0  0  0  0  0  0  0  0
   -6.1700   25.5930  -30.4650 O   0  0  0  0  0  0  0  0  0  0  0  0
   -6.7290   23.0340  -31.6490 C   0  0  0  0  0  0  0  0  0  0  0  0
   -6.5260   21.7890  -32.2040 C   0  0  0  0  0  0  0  0  0  0  0  0
   -7.4420   20.8720  -32.7110 C   0  0  0  0  0  0  0  0  0  0  0  0
   -6.9480   19.6510  -33.2020 C   0  0  0  0  0  0  0  0  0  0  0  0
   -5.5610   19.3650  -33.1600 C   0  0  0  0  0  0  0  0  0  0  0  0
   -5.0420   18.0710  -33.7120 C   0  0  0  0  0  0  0  0  0  0  0  0
   -4.6600   20.3270  -32.6520 C   0  0  0  0  0  0  0  0  0  0  0  0
   -5.1800   21.5380  -32.1850 C   0  0  0  0  0  0  0  0  0  0  0  0
   -3.9291   24.2747  -25.8564 H   0  0  0  0  0  0  0  0  0  0  0  0
   -3.4346   25.7856  -26.6925 H   0  0  0  0  0  0  0  0  0  0  0  0
   -5.1589   25.2822  -26.6925 H   0  0  0  0  0  0  0  0  0  0  0  0
   -2.3312   21.5323  -28.5666 H   0  0  0  0  0  0  0  0  0  0  0  0
   -3.8562   21.3775  -29.5379 H   0  0  0  0  0  0  0  0  0  0  0  0
   -3.0400   23.9450  -29.8560 H   0  0  0  0  0  0  0  0  0  0  0  0
   -0.7229   22.3079  -29.4739 H   0  0  0  0  0  0  0  0  0  0  0  0
   -0.8083   23.2603  -31.0411 H   0  0  0  0  0  0  0  0  0  0  0  0
   -3.5570   25.6390  -29.6020 H   0  0  0  0  0  0  0  0  0  0  0  0
   -7.6886   23.5519  -31.5043 H   0  0  0  0  0  0  0  0  0  0  0  0
   -8.5189   21.0957  -32.7270 H   0  0  0  0  0  0  0  0  0  0  0  0
   -7.6446   18.9109  -33.6226 H   0  0  0  0  0  0  0  0  0  0  0  0
   -4.7730   17.4002  -32.8827 H   0  0  0  0  0  0  0  0  0  0  0  0
   -5.8197   17.5974  -34.3291 H   0  0  0  0  0  0  0  0  0  0  0  0
   -4.1526   18.2661  -34.3291 H   0  0  0  0  0  0  0  0  0  0  0  0
   -3.5784   20.1288  -32.6245 H   0  0  0  0  0  0  0  0  0  0  0  0
  1  2  1  0
  2  3  1  0
  3  4  2  0
  3  5  1  0
  5  6  1  0
  6  7  1  0
  7  8  1  0
  8  9  2  0
  8 10  1  0
  6 11  1  0
 11 12  2  0
 11 13  1  0
 13 14  1  0
 14 15  1  0
 15 16  1  0
 15 17  2  0
 14 18  2  0
 18 19  1  0
 19 20  2  0
 20 21  1  0
 21 22  2  0
 22 23  1  0
 22 24  1  0
 24 25  2  0
 25 13  1  0
 25 19  1  0
  1 26  1  0
  1 27  1  0
  1 28  1  0
  5 29  1  0
  5 30  1  0
  6 31  1  1
  7 32  1  0
  7 33  1  0
 16 34  1  0
 18 35  1  0
 20 36  1  0
 21 37  1  0
 23 38  1  0
 23 39  1  0
 23 40  1  0
 24 41  1  0
M  CHG  3   6   1  10  -1  16  -1
M  END
>  <UniqueID>  (60) 
60

>  <SMILES>  (60) 
COC(=O)C[N@@H+](CC(=O)[O-])C(=O)n1c(C([NH-])=O)cc2ccc(C)cc21

>  <Energy>  (60) 
84.0680124139275

>  <Genealogy>  (60) 
COC(=O)C[NH+](CC(=O)[O-])C(=O)n1c(C([NH-])=O)cc2ccc(C)cc21 (protonated)
COC(=O)C[N@@H+](CC(=O)[O-])C(=O)n1c(C([NH-])=O)cc2ccc(C)cc21 (chirality)
COC(=O)C[N@@H+](CC(=O)[O-])C(=O)n1c(C([NH-])=O)cc2ccc(C)cc21 (3D coordinates assigned)
COC(=O)C[N@@H+](CC(=O)[O-])C(=O)n1c(C([NH-])=O)cc2ccc(C)cc21 (optimized conformer: 84.0680124139275 kcal/mol)

>  <smiles>  (60) 
COC(=O)CN(CC(=O)O)C(=O)n1c(C(N)=O)cc2ccc(C)cc21

>  <score_type>  (60) 
oracle

>  <origin>  (60) 
adg

>  <m_score__min__energy>  (60) 
-10.08

>  <m_primary>  (60) 
energy

$$$$
61:0
     RDKit          3D

 36 38  0  0  0  0  0  0  0  0999 V2000
   -3.8700   13.8820  -35.0370 C   0  0  0  0  0  0  0  0  0  0  0  0
   -5.2470   13.9780  -33.9160 S   0  0  0  0  0  0  0  0  0  0  0  0
   -5.0170   13.0070  -32.5640 O   0  0  0  0  0  0  0  0  0  0  0  0
   -5.5920   15.6330  -33.4520 C   0  0  0  0  0  0  0  0  0  0  0  0
   -5.8900   16.5470  -34.4100 N   0  0  0  0  0  0  0  0  0  0  0  0
   -6.1580   17.8380  -34.0880 C   0  0  0  0  0  0  0  0  0  0  0  0
   -6.1350   18.2500  -32.7470 C   0  0  0  0  0  0  0  0  0  0  0  0
   -6.4260   19.6550  -32.3670 C   0  0  0  0  0  0  0  0  0  0  0  0
   -7.7510   20.1620  -32.4510 C   0  0  0  0  0  0  0  0  0  0  0  0
   -8.0390   21.4870  -32.0860 C   0  0  0  0  0  0  0  0  0  0  0  0
   -6.9890   22.2870  -31.6460 C   0  0  0  0  0  0  0  0  0  0  0  0
   -6.9900   23.5930  -31.2140 C   0  0  0  0  0  0  0  0  0  0  0  0
   -5.6630   23.8740  -30.8890 C   0  0  0  0  0  0  0  0  0  0  0  0
   -5.1920   25.2100  -30.4680 C   0  0  0  0  0  0  0  0  0  0  0  0
   -3.8940   25.6730  -30.8260 N   0  0  0  0  0  0  0  0  0  0  0  0
   -5.9640   25.9690  -29.8210 O   0  0  0  0  0  0  0  0  0  0  0  0
   -4.8790   22.7820  -31.1040 N   0  0  0  0  0  0  0  0  0  0  0  0
   -3.4830   22.6240  -30.8090 C   0  0  0  0  0  0  0  0  0  0  0  0
   -2.9780   23.2060  -29.8140 O   0  0  0  0  0  0  0  0  0  0  0  0
   -2.4190   21.6650  -31.9050 S   0  0  0  0  0  0  0  0  0  0  0  0
   -5.7030   21.8210  -31.5720 C   0  0  0  0  0  0  0  0  0  0  0  0
   -5.3870   20.5030  -31.9150 C   0  0  0  0  0  0  0  0  0  0  0  0
   -5.8250   17.2840  -31.7760 C   0  0  0  0  0  0  0  0  0  0  0  0
   -5.5600   16.0020  -32.1450 N   0  0  0  0  0  0  0  0  0  0  0  0
   -2.9339   13.8167  -34.4631 H   0  0  0  0  0  0  0  0  0  0  0  0
   -3.9746   12.9890  -35.6707 H   0  0  0  0  0  0  0  0  0  0  0  0
   -3.8497   14.7809  -35.6707 H   0  0  0  0  0  0  0  0  0  0  0  0
   -5.2990   12.1020  -32.8490 H   0  0  0  0  0  0  0  0  0  0  0  0
   -6.3939   18.5633  -34.8806 H   0  0  0  0  0  0  0  0  0  0  0  0
   -8.5611   19.5083  -32.8064 H   0  0  0  0  0  0  0  0  0  0  0  0
   -9.0643   21.8808  -32.1461 H   0  0  0  0  0  0  0  0  0  0  0  0
   -7.8531   24.2710  -31.1405 H   0  0  0  0  0  0  0  0  0  0  0  0
   -3.0400   25.2960  -30.3590 H   0  0  0  0  0  0  0  0  0  0  0  0
   -4.3540   20.1334  -31.8353 H   0  0  0  0  0  0  0  0  0  0  0  0
   -5.7964   17.5652  -30.7129 H   0  0  0  0  0  0  0  0  0  0  0  0
   -5.3270   15.2990  -31.4080 H   0  0  0  0  0  0  0  0  0  0  0  0
  1  2  1  0
  2  3  1  1
  2  4  1  0
  4  5  2  0
  5  6  1  0
  6  7  2  0
  7  8  1  0
  8  9  2  0
  9 10  1  0
 10 11  2  0
 11 12  1  0
 12 13  2  0
 13 14  1  0
 14 15  1  0
 14 16  2  0
 13 17  1  0
 17 18  1  0
 18 19  2  0
 18 20  1  0
 17 21  1  0
 21 22  2  0
  7 23  1  0
 23 24  2  0
 24  4  1  0
 22  8  1  0
 21 11  1  0
  1 25  1  0
  1 26  1  0
  1 27  1  0
  3 28  1  0
  6 29  1  0
  9 30  1  0
 10 31  1  0
 12 32  1  0
 15 33  1  0
 22 34  1  0
 23 35  1  0
 24 36  1  0
M  CHG  4   2   1  15  -1  20  -1  24   1
M  END
>  <UniqueID>  (61) 
61

>  <SMILES>  (61) 
C[S@@+](O)c1ncc(-c2ccc3cc(C([NH-])=O)n(C(=O)[S-])c3c2)c[nH+]1

>  <Energy>  (61) 
80.40364526628146

>  <Genealogy>  (61) 
C[S+](O)c1ncc(-c2ccc3cc(C([NH-])=O)n(C(=O)[S-])c3c2)c[nH+]1 (protonated)
C[S@@+](O)c1ncc(-c2ccc3cc(C([NH-])=O)n(C(=O)[S-])c3c2)c[nH+]1 (chirality)
C[S@@+](O)c1ncc(-c2ccc3cc(C([NH-])=O)n(C(=O)[S-])c3c2)c[nH+]1 (3D coordinates assigned)
C[S@@+](O)c1ncc(-c2ccc3cc(C([NH-])=O)n(C(=O)[S-])c3c2)c[nH+]1 (optimized conformer: 80.40364526628146 kcal/mol)

>  <smiles>  (61) 
C[S+]([O-])c1ncc(-c2ccc3cc(C(N)=O)n(C(=O)S)c3c2)cn1

>  <score_type>  (61) 
oracle

>  <origin>  (61) 
adg

>  <m_score__min__energy>  (61) 
-9.6899999999999995

>  <m_primary>  (61) 
energy

$$$$
62:0
     RDKit          3D

 58 59  0  0  0  0  0  0  0  0999 V2000
    0.6270   18.5190  -28.7370 C   0  0  0  0  0  0  0  0  0  0  0  0
   -0.2250   19.6900  -28.9820 N   0  0  0  0  0  0  0  0  0  0  0  0
   -0.9960   19.7660  -30.2310 C   0  0  0  0  0  0  0  0  0  0  0  0
   -0.1600   20.3860  -31.3020 C   0  0  0  0  0  0  0  0  0  0  0  0
    1.0350   20.0080  -31.4550 O   0  0  0  0  0  0  0  0  0  0  0  0
   -0.7060   21.3680  -32.1310 O   0  0  0  0  0  0  0  0  0  0  0  0
   -1.9810   21.2140  -32.7490 C   0  0  0  0  0  0  0  0  0  0  0  0
   -2.9970   21.3170  -31.7550 O   0  0  0  0  0  0  0  0  0  0  0  0
   -3.5830   22.5310  -31.3900 C   0  0  0  0  0  0  0  0  0  0  0  0
   -2.8640   23.5100  -31.0430 O   0  0  0  0  0  0  0  0  0  0  0  0
   -5.0120   22.6580  -31.4070 N   0  0  0  0  0  0  0  0  0  0  0  0
   -5.7710   23.6510  -30.8610 C   0  0  0  0  0  0  0  0  0  0  0  0
   -5.2640   24.8980  -30.2480 C   0  0  0  0  0  0  0  0  0  0  0  0
   -4.1650   25.5920  -30.8420 N   0  0  0  0  0  0  0  0  0  0  0  0
   -5.7660   25.3410  -29.1860 O   0  0  0  0  0  0  0  0  0  0  0  0
   -7.1280   23.3700  -31.0190 C   0  0  0  0  0  0  0  0  0  0  0  0
   -7.1750   22.1670  -31.6890 C   0  0  0  0  0  0  0  0  0  0  0  0
   -8.2700   21.3960  -32.0670 C   0  0  0  0  0  0  0  0  0  0  0  0
   -8.0200   20.1550  -32.6810 C   0  0  0  0  0  0  0  0  0  0  0  0
   -6.6920   19.7140  -32.9200 C   0  0  0  0  0  0  0  0  0  0  0  0
   -6.4550   18.3410  -33.4970 C   0  0  0  0  0  0  0  0  0  0  0  0
   -5.4100   17.7400  -32.8200 F   0  0  0  0  0  0  0  0  0  0  0  0
   -7.5910   17.5650  -33.3560 F   0  0  0  0  0  0  0  0  0  0  0  0
   -6.1390   18.4080  -34.8440 F   0  0  0  0  0  0  0  0  0  0  0  0
   -5.6070   20.5250  -32.5100 C   0  0  0  0  0  0  0  0  0  0  0  0
   -5.8840   21.7590  -31.9120 C   0  0  0  0  0  0  0  0  0  0  0  0
   -0.3360   20.7600  -28.0120 C   0  0  0  0  0  0  0  0  0  0  0  0
    0.7100   21.2860  -27.5590 O   0  0  0  0  0  0  0  0  0  0  0  0
   -1.6780   21.2440  -27.4860 C   0  0  0  0  0  0  0  0  0  0  0  0
   -1.9360   22.7120  -27.6690 N   0  0  0  0  0  0  0  0  0  0  0  0
   -3.3890   22.9840  -27.8340 C   0  0  0  0  0  0  0  0  0  0  0  0
   -1.4310   23.4850  -26.5040 C   0  0  0  0  0  0  0  0  0  0  0  0
   -1.1990   23.2080  -28.8770 C   0  0  0  0  0  0  0  0  0  0  0  0
   -0.7640   24.6480  -28.7830 C   0  0  0  0  0  0  0  0  0  0  0  0
    0.3120   24.9540  -28.2020 O   0  0  0  0  0  0  0  0  0  0  0  0
   -1.5780   25.6560  -29.3010 O   0  0  0  0  0  0  0  0  0  0  0  0
    0.7379   18.3666  -27.6533 H   0  0  0  0  0  0  0  0  0  0  0  0
    0.1643   17.6283  -29.1871 H   0  0  0  0  0  0  0  0  0  0  0  0
    1.6168   18.6851  -29.1871 H   0  0  0  0  0  0  0  0  0  0  0  0
   -1.2930   18.7528  -30.5396 H   0  0  0  0  0  0  0  0  0  0  0  0
   -1.8936   20.3806  -30.0680 H   0  0  0  0  0  0  0  0  0  0  0  0
   -2.1223   22.0023  -33.5031 H   0  0  0  0  0  0  0  0  0  0  0  0
   -2.0393   20.2302  -33.2377 H   0  0  0  0  0  0  0  0  0  0  0  0
   -3.1730   25.2960  -30.6760 H   0  0  0  0  0  0  0  0  0  0  0  0
   -7.9793   23.9790  -30.6808 H   0  0  0  0  0  0  0  0  0  0  0  0
   -9.2981   21.7456  -31.8914 H   0  0  0  0  0  0  0  0  0  0  0  0
   -8.8653   19.5177  -32.9800 H   0  0  0  0  0  0  0  0  0  0  0  0
   -4.5690   20.1924  -32.6582 H   0  0  0  0  0  0  0  0  0  0  0  0
   -2.4706   20.6897  -28.0100 H   0  0  0  0  0  0  0  0  0  0  0  0
   -1.6668   21.0654  -26.4007 H   0  0  0  0  0  0  0  0  0  0  0  0
   -3.8603   23.0722  -26.8440 H   0  0  0  0  0  0  0  0  0  0  0  0
   -3.5254   23.9233  -28.3900 H   0  0  0  0  0  0  0  0  0  0  0  0
   -3.8559   22.1577  -28.3900 H   0  0  0  0  0  0  0  0  0  0  0  0
   -1.7510   22.9952  -25.5725 H   0  0  0  0  0  0  0  0  0  0  0  0
   -0.3323   23.5247  -26.5387 H   0  0  0  0  0  0  0  0  0  0  0  0
   -1.8361   24.5071  -26.5387 H   0  0  0  0  0  0  0  0  0  0  0  0
   -0.3033   22.5847  -29.0155 H   0  0  0  0  0  0  0  0  0  0  0  0
   -1.8972   23.1418  -29.7244 H   0  0  0  0  0  0  0  0  0  0  0  0
  1  2  1  0
  2  3  1  0
  3  4  1  0
  4  5  2  0
  4  6  1  0
  6  7  1  0
  7  8  1  0
  8  9  1  0
  9 10  2  0
  9 11  1  0
 11 12  1  0
 12 13  1  0
 13 14  1  0
 13 15  2  0
 12 16  2  0
 16 17  1  0
 17 18  2  0
 18 19  1  0
 19 20  2  0
 20 21  1  0
 21 22  1  0
 21 23  1  0
 21 24  1  0
 20 25  1  0
 25 26  2  0
  2 27  1  0
 27 28  2  0
 27 29  1  0
 29 30  1  0
 30 31  1  0
 30 32  1  0
 30 33  1  0
 33 34  1  0
 34 35  2  0
 34 36  1  0
 26 11  1  0
 26 17  1  0
  1 37  1  0
  1 38  1  0
  1 39  1  0
  3 40  1  0
  3 41  1  0
  7 42  1  0
  7 43  1  0
 14 44  1  0
 16 45  1  0
 18 46  1  0
 19 47  1  0
 25 48  1  0
 29 49  1  0
 29 50  1  0
 31 51  1  0
 31 52  1  0
 31 53  1  0
 32 54  1  0
 32 55  1  0
 32 56  1  0
 33 57  1  0
 33 58  1  0
M  CHG  3  14  -1  30   1  36  -1
M  END
>  <UniqueID>  (62) 
62

>  <SMILES>  (62) 
CN(CC(=O)OCOC(=O)n1c(C([NH-])=O)cc2ccc(C(F)(F)F)cc21)C(=O)C[N+](C)(C)CC(=O)[O-]

>  <Energy>  (62) 
97.96303003319402

>  <Genealogy>  (62) 
CN(CC(=O)OCOC(=O)n1c(C([NH-])=O)cc2ccc(C(F)(F)F)cc21)C(=O)C[N+](C)(C)CC(=O)[O-] (protonated)
CN(CC(=O)OCOC(=O)n1c(C([NH-])=O)cc2ccc(C(F)(F)F)cc21)C(=O)C[N+](C)(C)CC(=O)[O-] (3D coordinates assigned)
CN(CC(=O)OCOC(=O)n1c(C([NH-])=O)cc2ccc(C(F)(F)F)cc21)C(=O)C[N+](C)(C)CC(=O)[O-] (optimized conformer: 97.96303003319402 kcal/mol)

>  <smiles>  (62) 
CN(CC(=O)OCOC(=O)n1c(C(N)=O)cc2ccc(C(F)(F)F)cc21)C(=O)C[N+](C)(C)CC(=O)O

>  <score_type>  (62) 
oracle

>  <origin>  (62) 
adg

>  <m_score__min__energy>  (62) 
-11.76

>  <m_primary>  (62) 
energy

$$$$
63:0
     RDKit          3D

 40 41  0  0  0  0  0  0  0  0999 V2000
   -9.5780   21.8810  -31.3050 C   0  0  0  0  0  0  0  0  0  0  0  0
   -8.5410   20.9610  -31.8720 C   0  0  0  0  0  0  0  0  0  0  0  0
   -8.8920   19.6330  -32.2200 C   0  0  0  0  0  0  0  0  0  0  0  0
   -7.9280   18.7450  -32.7260 C   0  0  0  0  0  0  0  0  0  0  0  0
   -6.6250   19.2130  -32.8750 C   0  0  0  0  0  0  0  0  0  0  0  0
   -5.4950   18.5630  -33.3160 C   0  0  0  0  0  0  0  0  0  0  0  0
   -4.4730   19.5060  -33.2410 C   0  0  0  0  0  0  0  0  0  0  0  0
   -3.0830   19.2440  -33.6670 C   0  0  0  0  0  0  0  0  0  0  0  0
   -2.3750   20.2300  -34.4150 N   0  0  0  0  0  0  0  0  0  0  0  0
   -2.5100   18.1640  -33.3690 O   0  0  0  0  0  0  0  0  0  0  0  0
   -4.9530   20.6940  -32.7710 N   0  0  0  0  0  0  0  0  0  0  0  0
   -4.2160   21.8950  -32.4900 C   0  0  0  0  0  0  0  0  0  0  0  0
   -3.8760   22.6490  -33.4410 O   0  0  0  0  0  0  0  0  0  0  0  0
   -3.8490   22.2310  -31.1370 N   0  0  0  0  0  0  0  0  0  0  0  0
   -4.8480   22.8800  -30.2730 C   0  0  0  0  0  0  0  0  0  0  0  0
   -4.3900   24.2500  -29.8820 C   0  0  0  0  0  0  0  0  0  0  0  0
   -4.3660   24.5880  -28.6690 O   0  0  0  0  0  0  0  0  0  0  0  0
   -3.9590   25.1440  -30.8550 O   0  0  0  0  0  0  0  0  0  0  0  0
   -2.4980   21.9880  -30.6730 C   0  0  0  0  0  0  0  0  0  0  0  0
   -1.7650   21.1600  -31.2850 O   0  0  0  0  0  0  0  0  0  0  0  0
   -1.9740   22.6180  -29.4070 C   0  0  0  0  0  0  0  0  0  0  0  0
   -0.9100   23.5770  -29.6910 N   0  0  0  0  0  0  0  0  0  0  0  0
   -0.6810   24.7470  -28.9000 C   0  0  0  0  0  0  0  0  0  0  0  0
   -1.6000   25.8320  -28.9700 N   0  0  0  0  0  0  0  0  0  0  0  0
    0.3280   24.8260  -28.1490 O   0  0  0  0  0  0  0  0  0  0  0  0
   -6.2710   20.4960  -32.5490 C   0  0  0  0  0  0  0  0  0  0  0  0
   -7.2050   21.3950  -32.0210 C   0  0  0  0  0  0  0  0  0  0  0  0
   -9.5382   21.8457  -30.2063 H   0  0  0  0  0  0  0  0  0  0  0  0
   -9.3827   22.9084  -31.6461 H   0  0  0  0  0  0  0  0  0  0  0  0
  -10.5748   21.5647  -31.6461 H   0  0  0  0  0  0  0  0  0  0  0  0
   -9.9306   19.2936  -32.0926 H   0  0  0  0  0  0  0  0  0  0  0  0
   -8.1942   17.7124  -32.9960 H   0  0  0  0  0  0  0  0  0  0  0  0
   -5.4158   17.5198  -33.6557 H   0  0  0  0  0  0  0  0  0  0  0  0
   -2.7930   21.1710  -34.5930 H   0  0  0  0  0  0  0  0  0  0  0  0
   -5.8011   22.9581  -30.8167 H   0  0  0  0  0  0  0  0  0  0  0  0
   -4.9794   22.2752  -29.3637 H   0  0  0  0  0  0  0  0  0  0  0  0
   -2.7987   23.1385  -28.8981 H   0  0  0  0  0  0  0  0  0  0  0  0
   -1.5622   21.8224  -28.7687 H   0  0  0  0  0  0  0  0  0  0  0  0
   -2.5870   25.6750  -29.2760 H   0  0  0  0  0  0  0  0  0  0  0  0
   -6.9064   22.4128  -31.7297 H   0  0  0  0  0  0  0  0  0  0  0  0
  1  2  1  0
  2  3  2  0
  3  4  1  0
  4  5  2  0
  5  6  1  0
  6  7  2  0
  7  8  1  0
  8  9  1  0
  8 10  2  0
  7 11  1  0
 11 12  1  0
 12 13  2  0
 12 14  1  0
 14 15  1  0
 15 16  1  0
 16 17  2  0
 16 18  1  0
 14 19  1  0
 19 20  2  0
 19 21  1  0
 21 22  1  0
 22 23  1  0
 23 24  1  0
 23 25  2  0
 11 26  1  0
 26 27  2  0
 27  2  1  0
 26  5  1  0
  1 28  1  0
  1 29  1  0
  1 30  1  0
  3 31  1  0
  4 32  1  0
  6 33  1  0
  9 34  1  0
 15 35  1  0
 15 36  1  0
 21 37  1  0
 21 38  1  0
 24 39  1  0
 27 40  1  0
M  CHG  4   9  -1  18  -1  22  -1  24  -1
M  END
>  <UniqueID>  (63) 
63

>  <SMILES>  (63) 
Cc1ccc2cc(C([NH-])=O)n(C(=O)N(CC(=O)[O-])C(=O)C[N-]C([NH-])=O)c2c1

>  <Energy>  (63) 
78.2275543255954

>  <Genealogy>  (63) 
Cc1ccc2cc(C([NH-])=O)n(C(=O)N(CC(=O)[O-])C(=O)C[N-]C([NH-])=O)c2c1 (protonated)
Cc1ccc2cc(C([NH-])=O)n(C(=O)N(CC(=O)[O-])C(=O)C[N-]C([NH-])=O)c2c1 (3D coordinates assigned)
Cc1ccc2cc(C([NH-])=O)n(C(=O)N(CC(=O)[O-])C(=O)C[N-]C([NH-])=O)c2c1 (optimized conformer: 78.2275543255954 kcal/mol)

>  <smiles>  (63) 
Cc1ccc2cc(C(N)=O)n(C(=O)N(CC(=O)O)C(=O)CNC(N)=O)c2c1

>  <score_type>  (63) 
oracle

>  <origin>  (63) 
adg

>  <m_score__min__energy>  (63) 
-13.380000000000001

>  <m_primary>  (63) 
energy

$$$$
64:0
     RDKit          3D

 37 38  0  0  0  0  0  0  0  0999 V2000
   -9.4000   22.1000  -31.8360 N   0  0  0  0  0  0  0  0  0  0  0  0
   -8.7700   20.8410  -32.0800 C   0  0  0  0  0  0  0  0  0  0  0  0
   -9.4420   19.7820  -31.9620 O   0  0  0  0  0  0  0  0  0  0  0  0
   -7.3330   20.7560  -32.4060 C   0  0  0  0  0  0  0  0  0  0  0  0
   -6.7860   19.7620  -33.2140 C   0  0  0  0  0  0  0  0  0  0  0  0
   -5.4280   19.9900  -33.2010 C   0  0  0  0  0  0  0  0  0  0  0  0
   -4.4010   19.3080  -33.8450 C   0  0  0  0  0  0  0  0  0  0  0  0
   -3.0900   19.7840  -33.6810 C   0  0  0  0  0  0  0  0  0  0  0  0
   -2.8310   20.9300  -32.8870 C   0  0  0  0  0  0  0  0  0  0  0  0
   -1.4230   21.4330  -32.7410 C   0  0  0  0  0  0  0  0  0  0  0  0
   -0.6780   20.5270  -32.0080 F   0  0  0  0  0  0  0  0  0  0  0  0
   -0.8530   21.5900  -33.9910 F   0  0  0  0  0  0  0  0  0  0  0  0
   -3.9010   21.6000  -32.2520 C   0  0  0  0  0  0  0  0  0  0  0  0
   -5.1950   21.0910  -32.4170 C   0  0  0  0  0  0  0  0  0  0  0  0
   -6.3570   21.5760  -31.9260 N   0  0  0  0  0  0  0  0  0  0  0  0
   -6.5260   22.7680  -31.1440 C   0  0  0  0  0  0  0  0  0  0  0  0
   -7.1540   23.7520  -31.6250 O   0  0  0  0  0  0  0  0  0  0  0  0
   -6.0010   22.8300  -29.8490 O   0  0  0  0  0  0  0  0  0  0  0  0
   -5.4940   24.0260  -29.2640 C   0  0  0  0  0  0  0  0  0  0  0  0
   -4.6450   24.7830  -30.2460 C   0  0  0  0  0  0  0  0  0  0  0  0
   -5.1930   25.3350  -31.2360 O   0  0  0  0  0  0  0  0  0  0  0  0
   -3.2260   24.8960  -30.0880 N   0  0  0  0  0  0  0  0  0  0  0  0
   -2.4900   24.4330  -28.9190 C   0  0  0  0  0  0  0  0  0  0  0  0
   -1.2210   25.2090  -28.7960 C   0  0  0  0  0  0  0  0  0  0  0  0
   -1.2230   26.4560  -28.9680 O   0  0  0  0  0  0  0  0  0  0  0  0
   -0.0440   24.5640  -28.4390 O   0  0  0  0  0  0  0  0  0  0  0  0
  -10.4250   22.1450  -31.6490 H   0  0  0  0  0  0  0  0  0  0  0  0
   -8.8390   22.9770  -31.7510 H   0  0  0  0  0  0  0  0  0  0  0  0
   -7.3239   18.9651  -33.7484 H   0  0  0  0  0  0  0  0  0  0  0  0
   -4.6093   18.4228  -34.4639 H   0  0  0  0  0  0  0  0  0  0  0  0
   -2.2558   19.2627  -34.1733 H   0  0  0  0  0  0  0  0  0  0  0  0
   -1.4380   22.4017  -32.2201 H   0  0  0  0  0  0  0  0  0  0  0  0
   -3.7219   22.4987  -31.6435 H   0  0  0  0  0  0  0  0  0  0  0  0
   -6.3369   24.6602  -28.9522 H   0  0  0  0  0  0  0  0  0  0  0  0
   -4.8742   23.7581  -28.3956 H   0  0  0  0  0  0  0  0  0  0  0  0
   -3.1013   24.5828  -28.0168 H   0  0  0  0  0  0  0  0  0  0  0  0
   -2.2586   23.3633  -29.0290 H   0  0  0  0  0  0  0  0  0  0  0  0
  1  2  1  0
  2  3  2  0
  2  4  1  0
  4  5  2  0
  5  6  1  0
  6  7  2  0
  7  8  1  0
  8  9  2  0
  9 10  1  0
 10 11  1  0
 10 12  1  0
  9 13  1  0
 13 14  2  0
 14 15  1  0
 15 16  1  0
 16 17  2  0
 16 18  1  0
 18 19  1  0
 19 20  1  0
 20 21  2  0
 20 22  1  0
 22 23  1  0
 23 24  1  0
 24 25  2  0
 24 26  1  0
 15  4  1  0
 14  6  1  0
  1 27  1  0
  1 28  1  0
  5 29  1  0
  7 30  1  0
  8 31  1  0
 10 32  1  0
 13 33  1  0
 19 34  1  0
 19 35  1  0
 23 36  1  0
 23 37  1  0
M  CHG  2  22  -1  26  -1
M  END
>  <UniqueID>  (64) 
64

>  <SMILES>  (64) 
NC(=O)c1cc2ccc(C(F)F)cc2n1C(=O)OCC(=O)[N-]CC(=O)[O-]

>  <Energy>  (64) 
70.03390989234997

>  <Genealogy>  (64) 
NC(=O)c1cc2ccc(C(F)F)cc2n1C(=O)OCC(=O)[N-]CC(=O)[O-] (protonated)
NC(=O)c1cc2ccc(C(F)F)cc2n1C(=O)OCC(=O)[N-]CC(=O)[O-] (3D coordinates assigned)
NC(=O)c1cc2ccc(C(F)F)cc2n1C(=O)OCC(=O)[N-]CC(=O)[O-] (optimized conformer: 70.03390989234997 kcal/mol)

>  <smiles>  (64) 
NC(=O)c1cc2ccc(C(F)F)cc2n1C(=O)OCC(=O)NCC(=O)O

>  <score_type>  (64) 
oracle

>  <origin>  (64) 
adg

>  <m_score__min__energy>  (64) 
-11.09

>  <m_primary>  (64) 
energy

$$$$
65:0
     RDKit          3D

 50 51  0  0  0  0  0  0  0  0999 V2000
   -8.1820   18.6330  -32.5640 C   0  0  0  0  0  0  0  0  0  0  0  0
   -7.9450   19.9820  -31.9480 C   0  0  0  0  0  0  0  0  0  0  0  0
   -9.0040   20.6430  -31.2770 C   0  0  0  0  0  0  0  0  0  0  0  0
   -8.8250   21.9350  -30.7530 C   0  0  0  0  0  0  0  0  0  0  0  0
   -7.5790   22.5360  -30.9130 C   0  0  0  0  0  0  0  0  0  0  0  0
   -7.1280   23.7720  -30.5050 C   0  0  0  0  0  0  0  0  0  0  0  0
   -5.8020   23.8400  -30.9310 C   0  0  0  0  0  0  0  0  0  0  0  0
   -4.8950   24.9710  -30.6450 C   0  0  0  0  0  0  0  0  0  0  0  0
   -3.4870   24.7570  -30.5790 N   0  0  0  0  0  0  0  0  0  0  0  0
   -5.3520   26.1320  -30.4650 O   0  0  0  0  0  0  0  0  0  0  0  0
   -5.4580   22.7000  -31.5920 N   0  0  0  0  0  0  0  0  0  0  0  0
   -4.1840   22.3590  -32.1580 C   0  0  0  0  0  0  0  0  0  0  0  0
   -3.9470   22.6650  -33.3590 O   0  0  0  0  0  0  0  0  0  0  0  0
   -3.1700   21.7030  -31.3660 N   0  0  0  0  0  0  0  0  0  0  0  0
   -1.9740   21.1820  -32.0350 C   0  0  0  0  0  0  0  0  0  0  0  0
   -3.3130   21.5790  -29.9070 C   0  0  0  0  0  0  0  0  0  0  0  0
   -2.0400   21.9490  -29.2010 C   0  0  0  0  0  0  0  0  0  0  0  0
   -1.3150   21.0490  -28.6930 O   0  0  0  0  0  0  0  0  0  0  0  0
   -1.6900   23.3310  -29.0420 N   0  0  0  0  0  0  0  0  0  0  0  0
   -0.4700   23.7570  -28.3610 C   0  0  0  0  0  0  0  0  0  0  0  0
   -0.4900   25.2650  -28.1280 C   0  0  0  0  0  0  0  0  0  0  0  0
   -1.8300   25.7000  -28.0290 O   0  0  0  0  0  0  0  0  0  0  0  0
   -2.3150   25.5260  -26.7110 C   0  0  0  0  0  0  0  0  0  0  0  0
   -3.6850   24.8530  -26.7410 C   0  0  0  0  0  0  0  0  0  0  0  0
   -4.0110   24.5020  -28.0580 O   0  0  0  0  0  0  0  0  0  0  0  0
   -6.5480   21.9080  -31.5590 C   0  0  0  0  0  0  0  0  0  0  0  0
   -6.6970   20.6250  -32.0940 C   0  0  0  0  0  0  0  0  0  0  0  0
   -8.3135   17.8847  -31.7686 H   0  0  0  0  0  0  0  0  0  0  0  0
   -9.0877   18.6685  -33.1873 H   0  0  0  0  0  0  0  0  0  0  0  0
   -7.3185   18.3577  -33.1873 H   0  0  0  0  0  0  0  0  0  0  0  0
   -9.9758   20.1399  -31.1651 H   0  0  0  0  0  0  0  0  0  0  0  0
   -9.6432   22.4548  -30.2331 H   0  0  0  0  0  0  0  0  0  0  0  0
   -7.6936   24.5416  -29.9593 H   0  0  0  0  0  0  0  0  0  0  0  0
   -2.8980   25.2730  -29.8870 H   0  0  0  0  0  0  0  0  0  0  0  0
   -1.2410   20.8627  -31.2795 H   0  0  0  0  0  0  0  0  0  0  0  0
   -2.2505   20.3228  -32.6637 H   0  0  0  0  0  0  0  0  0  0  0  0
   -1.5331   21.9696  -32.6637 H   0  0  0  0  0  0  0  0  0  0  0  0
   -4.1182   22.2472  -29.5677 H   0  0  0  0  0  0  0  0  0  0  0  0
   -3.5505   20.5317  -29.6690 H   0  0  0  0  0  0  0  0  0  0  0  0
   -2.3580   24.0620  -29.3740 H   0  0  0  0  0  0  0  0  0  0  0  0
   -0.3968   23.2414  -27.3921 H   0  0  0  0  0  0  0  0  0  0  0  0
    0.3965   23.5045  -28.9898 H   0  0  0  0  0  0  0  0  0  0  0  0
    0.0435   25.5006  -27.1954 H   0  0  0  0  0  0  0  0  0  0  0  0
    0.0043   25.7761  -28.9673 H   0  0  0  0  0  0  0  0  0  0  0  0
   -1.6127   24.8965  -26.1450 H   0  0  0  0  0  0  0  0  0  0  0  0
   -2.4077   26.5102  -26.2285 H   0  0  0  0  0  0  0  0  0  0  0  0
   -3.6612   23.9476  -26.1167 H   0  0  0  0  0  0  0  0  0  0  0  0
   -4.4416   25.5504  -26.3524 H   0  0  0  0  0  0  0  0  0  0  0  0
   -3.9000   25.3290  -28.5970 H   0  0  0  0  0  0  0  0  0  0  0  0
   -5.8641   20.1299  -32.6147 H   0  0  0  0  0  0  0  0  0  0  0  0
  1  2  1  0
  2  3  2  0
  3  4  1  0
  4  5  2  0
  5  6  1  0
  6  7  2  0
  7  8  1  0
  8  9  1  0
  8 10  2  0
  7 11  1  0
 11 12  1  0
 12 13  2  0
 12 14  1  0
 14 15  1  0
 14 16  1  0
 16 17  1  0
 17 18  2  0
 17 19  1  0
 19 20  1  0
 20 21  1  0
 21 22  1  0
 22 23  1  0
 23 24  1  0
 24 25  1  0
 11 26  1  0
 26 27  2  0
 27  2  1  0
 26  5  1  0
  1 28  1  0
  1 29  1  0
  1 30  1  0
  3 31  1  0
  4 32  1  0
  6 33  1  0
  9 34  1  0
 15 35  1  0
 15 36  1  0
 15 37  1  0
 16 38  1  0
 16 39  1  0
 19 40  1  0
 20 41  1  0
 20 42  1  0
 21 43  1  0
 21 44  1  0
 23 45  1  0
 23 46  1  0
 24 47  1  0
 24 48  1  0
 25 49  1  0
 27 50  1  0
M  CHG  1   9  -1
M  END
>  <UniqueID>  (65) 
65

>  <SMILES>  (65) 
Cc1ccc2cc(C([NH-])=O)n(C(=O)N(C)CC(=O)NCCOCCO)c2c1

>  <Energy>  (65) 
76.55448629047287

>  <Genealogy>  (65) 
Cc1ccc2cc(C([NH-])=O)n(C(=O)N(C)CC(=O)NCCOCCO)c2c1 (protonated)
Cc1ccc2cc(C([NH-])=O)n(C(=O)N(C)CC(=O)NCCOCCO)c2c1 (3D coordinates assigned)
Cc1ccc2cc(C([NH-])=O)n(C(=O)N(C)CC(=O)NCCOCCO)c2c1 (optimized conformer: 76.55448629047287 kcal/mol)

>  <smiles>  (65) 
Cc1ccc2cc(C(N)=O)n(C(=O)N(C)CC(=O)NCCOCCO)c2c1

>  <score_type>  (65) 
oracle

>  <origin>  (65) 
adg

>  <m_score__min__energy>  (65) 
-9.2400000000000002

>  <m_primary>  (65) 
energy

$$$$
66:0
     RDKit          3D

 48 49  0  0  0  0  0  0  0  0999 V2000
   -3.4890   18.9160  -26.4380 C   0  0  0  0  0  0  0  0  0  0  0  0
   -3.0440   19.7450  -27.5050 O   0  0  0  0  0  0  0  0  0  0  0  0
   -1.6930   20.0300  -27.7230 C   0  0  0  0  0  0  0  0  0  0  0  0
   -0.8720   19.1070  -27.9760 O   0  0  0  0  0  0  0  0  0  0  0  0
   -1.2270   21.4550  -27.6880 C   0  0  0  0  0  0  0  0  0  0  0  0
   -1.6530   22.2230  -28.9640 C   0  0  2  0  0  0  0  0  0  0  0  0
   -1.1120   23.6390  -28.9470 C   0  0  0  0  0  0  0  0  0  0  0  0
    0.1140   23.8400  -29.1630 O   0  0  0  0  0  0  0  0  0  0  0  0
   -1.9720   24.7140  -28.6950 O   0  0  0  0  0  0  0  0  0  0  0  0
   -1.9700   25.4250  -27.4640 C   0  0  0  0  0  0  0  0  0  0  0  0
   -3.1340   22.1590  -29.1720 N   0  0  1  0  0  0  0  0  0  0  0  0
   -3.9210   22.8690  -28.1440 C   0  0  0  0  0  0  0  0  0  0  0  0
   -3.5130   22.6440  -30.4830 C   0  0  0  0  0  0  0  0  0  0  0  0
   -2.6300   23.0520  -31.2890 O   0  0  0  0  0  0  0  0  0  0  0  0
   -4.9000   22.7510  -30.8510 N   0  0  0  0  0  0  0  0  0  0  0  0
   -5.6420   23.8900  -30.9310 C   0  0  0  0  0  0  0  0  0  0  0  0
   -5.1980   25.2410  -30.5270 C   0  0  0  0  0  0  0  0  0  0  0  0
   -3.8740   25.6740  -30.8330 N   0  0  0  0  0  0  0  0  0  0  0  0
   -5.9830   26.0270  -29.9330 O   0  0  0  0  0  0  0  0  0  0  0  0
   -6.9240   23.6070  -31.3970 C   0  0  0  0  0  0  0  0  0  0  0  0
   -6.9450   22.2460  -31.6000 C   0  0  0  0  0  0  0  0  0  0  0  0
   -7.9710   21.4280  -32.0630 C   0  0  0  0  0  0  0  0  0  0  0  0
   -7.7070   20.0540  -32.1980 C   0  0  0  0  0  0  0  0  0  0  0  0
   -6.4290   19.5310  -31.8840 C   0  0  0  0  0  0  0  0  0  0  0  0
   -6.1750   18.0600  -32.0150 C   0  0  0  0  0  0  0  0  0  0  0  0
   -5.4150   20.3910  -31.4100 C   0  0  0  0  0  0  0  0  0  0  0  0
   -5.7100   21.7520  -31.2670 C   0  0  0  0  0  0  0  0  0  0  0  0
   -3.2358   19.3877  -25.4771 H   0  0  0  0  0  0  0  0  0  0  0  0
   -4.5790   18.7844  -26.5059 H   0  0  0  0  0  0  0  0  0  0  0  0
   -2.9963   17.9349  -26.5059 H   0  0  0  0  0  0  0  0  0  0  0  0
   -1.6633   21.9523  -26.8091 H   0  0  0  0  0  0  0  0  0  0  0  0
   -0.1283   21.4576  -27.6342 H   0  0  0  0  0  0  0  0  0  0  0  0
   -1.2045   21.7267  -29.8372 H   0  0  0  0  0  0  0  0  0  0  0  0
   -1.9720   24.7103  -26.6278 H   0  0  0  0  0  0  0  0  0  0  0  0
   -1.0701   26.0549  -27.4058 H   0  0  0  0  0  0  0  0  0  0  0  0
   -2.8664   26.0599  -27.4058 H   0  0  0  0  0  0  0  0  0  0  0  0
   -3.4290   21.1560  -29.1180 H   0  0  0  0  0  0  0  0  0  0  0  0
   -3.5803   22.5617  -27.1443 H   0  0  0  0  0  0  0  0  0  0  0  0
   -3.7829   23.9540  -28.2610 H   0  0  0  0  0  0  0  0  0  0  0  0
   -4.9861   22.6203  -28.2610 H   0  0  0  0  0  0  0  0  0  0  0  0
   -3.0440   25.1100  -30.5420 H   0  0  0  0  0  0  0  0  0  0  0  0
   -7.7447   24.3196  -31.5666 H   0  0  0  0  0  0  0  0  0  0  0  0
   -8.9577   21.8435  -32.3154 H   0  0  0  0  0  0  0  0  0  0  0  0
   -8.5005   19.3788  -32.5508 H   0  0  0  0  0  0  0  0  0  0  0  0
   -6.0974   17.6107  -31.0139 H   0  0  0  0  0  0  0  0  0  0  0  0
   -7.0056   17.5919  -32.5636 H   0  0  0  0  0  0  0  0  0  0  0  0
   -5.2355   17.8976  -32.5636 H   0  0  0  0  0  0  0  0  0  0  0  0
   -4.4174   20.0013  -31.1591 H   0  0  0  0  0  0  0  0  0  0  0  0
  1  2  1  0
  2  3  1  0
  3  4  2  0
  3  5  1  0
  5  6  1  0
  6  7  1  0
  7  8  2  0
  7  9  1  0
  9 10  1  0
  6 11  1  0
 11 12  1  0
 11 13  1  0
 13 14  2  0
 13 15  1  0
 15 16  1  0
 16 17  1  0
 17 18  1  0
 17 19  2  0
 16 20  2  0
 20 21  1  0
 21 22  2  0
 22 23  1  0
 23 24  2  0
 24 25  1  0
 24 26  1  0
 26 27  2  0
 27 15  1  0
 27 21  1  0
  1 28  1  0
  1 29  1  0
  1 30  1  0
  5 31  1  0
  5 32  1  0
  6 33  1  6
 10 34  1  0
 10 35  1  0
 10 36  1  0
 11 37  1  6
 12 38  1  0
 12 39  1  0
 12 40  1  0
 18 41  1  0
 20 42  1  0
 22 43  1  0
 23 44  1  0
 25 45  1  0
 25 46  1  0
 25 47  1  0
 26 48  1  0
M  CHG  2  11   1  18  -1
M  END
>  <UniqueID>  (66) 
66

>  <SMILES>  (66) 
COC(=O)C[C@H](C(=O)OC)[N@@H+](C)C(=O)n1c(C([NH-])=O)cc2ccc(C)cc21

>  <Energy>  (66) 
85.97949540059773

>  <Genealogy>  (66) 
COC(=O)CC(C(=O)OC)[NH+](C)C(=O)n1c(C([NH-])=O)cc2ccc(C)cc21 (protonated)
COC(=O)C[C@H](C(=O)OC)[N@@H+](C)C(=O)n1c(C([NH-])=O)cc2ccc(C)cc21 (chirality)
COC(=O)C[C@H](C(=O)OC)[N@@H+](C)C(=O)n1c(C([NH-])=O)cc2ccc(C)cc21 (3D coordinates assigned)
COC(=O)C[C@H](C(=O)OC)[N@@H+](C)C(=O)n1c(C([NH-])=O)cc2ccc(C)cc21 (optimized conformer: 85.97949540059773 kcal/mol)

>  <smiles>  (66) 
COC(=O)CC(C(=O)OC)N(C)C(=O)n1c(C(N)=O)cc2ccc(C)cc21

>  <score_type>  (66) 
oracle

>  <origin>  (66) 
adg

>  <m_score__min__energy>  (66) 
-9.3200000000000003

>  <m_primary>  (66) 
energy

$$$$
67:0
     RDKit          3D

 44 45  0  0  0  0  0  0  0  0999 V2000
   -2.0970   16.7520  -35.2510 H   0  0  0  0  0  0  0  0  0  0  0  0
   -2.1650   17.7530  -34.9590 N   0  0  0  0  0  0  0  0  0  0  0  0
   -2.4800   18.1050  -33.6150 C   0  0  0  0  0  0  0  0  0  0  0  0
   -1.6060   17.9590  -32.7190 O   0  0  0  0  0  0  0  0  0  0  0  0
   -3.8230   18.6090  -33.2580 C   0  0  0  0  0  0  0  0  0  0  0  0
   -4.8920   17.7910  -32.8970 C   0  0  0  0  0  0  0  0  0  0  0  0
   -4.9028   16.6925  -32.8412 H   0  0  0  0  0  0  0  0  0  0  0  0
   -5.9320   18.6520  -32.6250 C   0  0  0  0  0  0  0  0  0  0  0  0
   -7.2080   18.3880  -32.1440 C   0  0  0  0  0  0  0  0  0  0  0  0
   -7.5518   17.3551  -31.9864 H   0  0  0  0  0  0  0  0  0  0  0  0
   -8.0460   19.4800  -31.8650 C   0  0  0  0  0  0  0  0  0  0  0  0
   -9.0633   19.2979  -31.4884 H   0  0  0  0  0  0  0  0  0  0  0  0
   -7.6020   20.8190  -32.0610 C   0  0  0  0  0  0  0  0  0  0  0  0
   -8.4680   21.9400  -31.7480 N   0  0  0  0  0  0  0  0  0  0  0  0
   -8.0100   23.3180  -31.9660 C   0  0  0  0  0  0  0  0  0  0  0  0
   -7.8471   23.8082  -30.9948 H   0  0  0  0  0  0  0  0  0  0  0  0
   -7.0676   23.3058  -32.5332 H   0  0  0  0  0  0  0  0  0  0  0  0
   -8.7722   23.8723  -32.5332 H   0  0  0  0  0  0  0  0  0  0  0  0
   -9.8210   21.7140  -31.2250 C   0  0  0  0  0  0  0  0  0  0  0  0
   -9.7945   21.7184  -30.1253 H   0  0  0  0  0  0  0  0  0  0  0  0
  -10.4891   22.5130  -31.5789 H   0  0  0  0  0  0  0  0  0  0  0  0
  -10.1932   20.7412  -31.5789 H   0  0  0  0  0  0  0  0  0  0  0  0
   -6.2890   21.0360  -32.5540 C   0  0  0  0  0  0  0  0  0  0  0  0
   -5.9116   22.0568  -32.7139 H   0  0  0  0  0  0  0  0  0  0  0  0
   -5.4860   19.9290  -32.8320 C   0  0  0  0  0  0  0  0  0  0  0  0
   -4.1920   19.9190  -33.2170 N   0  0  0  0  0  0  0  0  0  0  0  0
   -3.3380   21.0670  -33.3350 C   0  0  0  0  0  0  0  0  0  0  0  0
   -3.8480   22.1980  -33.5470 O   0  0  0  0  0  0  0  0  0  0  0  0
   -1.8660   20.9430  -33.2470 C   0  0  0  0  0  0  0  0  0  0  0  0
   -1.3339   20.4565  -34.0778 H   0  0  0  0  0  0  0  0  0  0  0  0
   -1.1480   21.3910  -32.2110 C   0  0  0  0  0  0  0  0  0  0  0  0
   -0.0629   21.2128  -32.1833 H   0  0  0  0  0  0  0  0  0  0  0  0
   -1.7610   22.0820  -31.1650 O   0  0  0  0  0  0  0  0  0  0  0  0
   -2.6900   21.5270  -30.2900 C   0  0  0  0  0  0  0  0  0  0  0  0
   -3.0610   20.3270  -30.4120 O   0  0  0  0  0  0  0  0  0  0  0  0
   -3.2200   22.3490  -29.2470 N   0  0  0  0  0  0  0  0  0  0  0  0
   -3.2410   23.8090  -29.2710 C   0  0  0  0  0  0  0  0  0  0  0  0
   -3.8210   24.1739  -28.4106 H   0  0  0  0  0  0  0  0  0  0  0  0
   -3.9030   24.3180  -30.5240 C   0  0  0  0  0  0  0  0  0  0  0  0
   -4.5360   23.5340  -31.2810 O   0  0  0  0  0  0  0  0  0  0  0  0
   -3.8690   25.6750  -30.8290 O   0  0  0  0  0  0  0  0  0  0  0  0
   -1.8320   24.3160  -29.1920 C   0  0  0  0  0  0  0  0  0  0  0  0
   -0.8690   23.5130  -29.0510 O   0  0  0  0  0  0  0  0  0  0  0  0
   -1.5760   25.6770  -29.3140 O   0  0  0  0  0  0  0  0  0  0  0  0
  1  2  1  0
  2  3  1  0
  3  4  2  0
  3  5  1  0
  5  6  2  0
  6  7  1  0
  6  8  1  0
  8  9  2  0
  9 10  1  0
  9 11  1  0
 11 12  1  0
 11 13  2  0
 13 14  1  0
 14 15  1  0
 15 16  1  0
 15 17  1  0
 15 18  1  0
 14 19  1  0
 19 20  1  0
 19 21  1  0
 19 22  1  0
 13 23  1  0
 23 24  1  0
 23 25  2  0
 25 26  1  0
 26 27  1  0
 27 28  2  0
 27 29  1  0
 29 30  1  0
 29 31  2  0
 31 32  1  0
 31 33  1  0
 33 34  1  0
 34 35  2  0
 34 36  1  0
 36 37  1  0
 37 38  1  0
 37 39  1  0
 39 40  2  0
 39 41  1  0
 37 42  1  0
 42 43  2  0
 42 44  1  0
 26  5  1  0
 25  8  1  0
M  CHG  4   2  -1  36  -1  41  -1  44  -1
M  END
>  <UniqueID>  (67) 
67

>  <SMILES>  (67) 
CN(C)c1ccc2cc(C([NH-])=O)n(C(=O)/C=C\OC(=O)[N-]C(C(=O)[O-])C(=O)[O-])c2c1

>  <Energy>  (67) 
82.33955481674072

>  <Genealogy>  (67) 
CN(C)c1ccc2cc(C([NH-])=O)n(C(=O)/C=C\OC(=O)[N-]C(C(=O)[O-])C(=O)[O-])c2c1 (protonated)
CN(C)c1ccc2cc(C([NH-])=O)n(C(=O)/C=C\OC(=O)[N-]C(C(=O)[O-])C(=O)[O-])c2c1 (cis-trans isomerization)
CN(C)c1ccc2cc(C([NH-])=O)n(C(=O)/C=C\OC(=O)[N-]C(C(=O)[O-])C(=O)[O-])c2c1 (3D coordinates assigned)
CN(C)c1ccc2cc(C([NH-])=O)n(C(=O)/C=C\OC(=O)[N-]C(C(=O)[O-])C(=O)[O-])c2c1 (optimized conformer: 82.33955481674072 kcal/mol)

>  <smiles>  (67) 
CN(C)c1ccc2cc(C(N)=O)n(C(=O)/C=C\OC(=O)NC(C(=O)O)C(=O)O)c2c1

>  <score_type>  (67) 
oracle

>  <origin>  (67) 
adg

>  <m_score__min__energy>  (67) 
-13.41

>  <m_primary>  (67) 
energy

$$$$
68:0
     RDKit          3D

 44 46  0  0  0  0  0  0  0  0999 V2000
   -7.8180   18.4210  -32.3630 C   0  0  0  0  0  0  0  0  0  0  0  0
   -7.7540   19.8960  -32.1040 C   0  0  0  0  0  0  0  0  0  0  0  0
   -8.9200   20.6910  -32.2300 C   0  0  0  0  0  0  0  0  0  0  0  0
   -8.8770   22.0710  -31.9650 C   0  0  0  0  0  0  0  0  0  0  0  0
   -7.6650   22.6190  -31.5550 C   0  0  0  0  0  0  0  0  0  0  0  0
   -7.3360   23.9220  -31.2540 C   0  0  0  0  0  0  0  0  0  0  0  0
   -5.9850   23.8940  -30.9130 C   0  0  0  0  0  0  0  0  0  0  0  0
   -5.2280   25.0830  -30.4700 C   0  0  0  0  0  0  0  0  0  0  0  0
   -3.8730   25.2820  -30.8650 N   0  0  0  0  0  0  0  0  0  0  0  0
   -5.7740   25.9220  -29.7070 O   0  0  0  0  0  0  0  0  0  0  0  0
   -5.5000   22.6230  -30.9990 N   0  0  0  0  0  0  0  0  0  0  0  0
   -4.1490   22.1840  -30.7940 C   0  0  0  0  0  0  0  0  0  0  0  0
   -3.5060   21.6720  -31.7500 O   0  0  0  0  0  0  0  0  0  0  0  0
   -3.5080   22.3260  -29.4800 C   0  0  0  0  0  0  0  0  0  0  0  0
   -3.0600   23.5040  -28.9940 N   0  0  0  0  0  0  0  0  0  0  0  0
   -2.5650   23.1540  -27.7910 C   0  0  0  0  0  0  0  0  0  0  0  0
   -1.9580   24.0610  -26.8620 N   0  0  0  0  0  0  0  0  0  0  0  0
   -2.6870   25.0560  -26.1270 C   0  0  0  0  0  0  0  0  0  0  0  0
   -3.9300   25.1910  -26.2810 O   0  0  0  0  0  0  0  0  0  0  0  0
   -1.9600   25.9720  -25.1920 C   0  0  0  0  0  0  0  0  0  0  0  0
   -0.5900   26.1870  -25.6770 N   0  0  0  0  0  0  0  0  0  0  0  0
   -0.5870   26.8970  -26.9620 C   0  0  0  0  0  0  0  0  0  0  0  0
   -0.4290   25.9290  -28.0920 C   0  0  0  0  0  0  0  0  0  0  0  0
    0.4400   25.0180  -28.0280 O   0  0  0  0  0  0  0  0  0  0  0  0
   -1.2230   26.0440  -29.2260 O   0  0  0  0  0  0  0  0  0  0  0  0
   -2.7260   21.8050  -27.5870 C   0  0  0  0  0  0  0  0  0  0  0  0
   -3.3140   21.3220  -28.6520 O   0  0  0  0  0  0  0  0  0  0  0  0
   -6.5380   21.8560  -31.3960 C   0  0  0  0  0  0  0  0  0  0  0  0
   -6.5450   20.4840  -31.6730 C   0  0  0  0  0  0  0  0  0  0  0  0
   -7.8414   17.8812  -31.4049 H   0  0  0  0  0  0  0  0  0  0  0  0
   -8.7271   18.1886  -32.9371 H   0  0  0  0  0  0  0  0  0  0  0  0
   -6.9325   18.1108  -32.9371 H   0  0  0  0  0  0  0  0  0  0  0  0
   -9.8673   20.2243  -32.5379 H   0  0  0  0  0  0  0  0  0  0  0  0
   -9.7735   22.6983  -32.0782 H   0  0  0  0  0  0  0  0  0  0  0  0
   -7.9992   24.7992  -31.2777 H   0  0  0  0  0  0  0  0  0  0  0  0
   -3.1060   25.3160  -30.1570 H   0  0  0  0  0  0  0  0  0  0  0  0
   -0.9250   23.9950  -26.7150 H   0  0  0  0  0  0  0  0  0  0  0  0
   -2.4861   26.9367  -25.1421 H   0  0  0  0  0  0  0  0  0  0  0  0
   -1.9255   25.5186  -24.1904 H   0  0  0  0  0  0  0  0  0  0  0  0
   -0.1610   25.2440  -25.8370 H   0  0  0  0  0  0  0  0  0  0  0  0
   -1.5371   27.4389  -27.0790 H   0  0  0  0  0  0  0  0  0  0  0  0
    0.2555   27.6041  -26.9772 H   0  0  0  0  0  0  0  0  0  0  0  0
   -2.4186   21.2375  -26.6962 H   0  0  0  0  0  0  0  0  0  0  0  0
   -5.6329   19.8800  -31.5579 H   0  0  0  0  0  0  0  0  0  0  0  0
  1  2  1  0
  2  3  2  0
  3  4  1  0
  4  5  2  0
  5  6  1  0
  6  7  2  0
  7  8  1  0
  8  9  1  0
  8 10  2  0
  7 11  1  0
 11 12  1  0
 12 13  2  0
 12 14  1  0
 14 15  2  0
 15 16  1  0
 16 17  1  0
 17 18  1  0
 18 19  2  0
 18 20  1  0
 20 21  1  0
 21 22  1  0
 22 23  1  0
 23 24  2  0
 23 25  1  0
 16 26  2  0
 26 27  1  0
 11 28  1  0
 28 29  2  0
 29  2  1  0
 28  5  1  0
 27 14  1  0
  1 30  1  0
  1 31  1  0
  1 32  1  0
  3 33  1  0
  4 34  1  0
  6 35  1  0
  9 36  1  0
 17 37  1  0
 20 38  1  0
 20 39  1  0
 21 40  1  0
 22 41  1  0
 22 42  1  0
 26 43  1  0
 29 44  1  0
M  CHG  2   9  -1  25  -1
M  END
>  <UniqueID>  (68) 
68

>  <SMILES>  (68) 
Cc1ccc2cc(C([NH-])=O)n(C(=O)c3nc(NC(=O)CNCC(=O)[O-])co3)c2c1

>  <Energy>  (68) 
110.88805170156155

>  <Genealogy>  (68) 
Cc1ccc2cc(C([NH-])=O)n(C(=O)c3nc(NC(=O)CNCC(=O)[O-])co3)c2c1 (protonated)
Cc1ccc2cc(C([NH-])=O)n(C(=O)c3nc(NC(=O)CNCC(=O)[O-])co3)c2c1 (3D coordinates assigned)
Cc1ccc2cc(C([NH-])=O)n(C(=O)c3nc(NC(=O)CNCC(=O)[O-])co3)c2c1 (optimized conformer: 110.88805170156155 kcal/mol)

>  <smiles>  (68) 
Cc1ccc2cc(C(N)=O)n(C(=O)c3nc(NC(=O)CNCC(=O)O)co3)c2c1

>  <score_type>  (68) 
oracle

>  <origin>  (68) 
adg

>  <m_score__min__energy>  (68) 
-12.44

>  <m_primary>  (68) 
energy

$$$$
69:0
     RDKit          3D

 36 37  0  0  0  0  0  0  0  0999 V2000
   -5.7200   18.1570  -34.8950 N   0  0  0  0  0  0  0  0  0  0  0  0
   -6.1760   18.2300  -33.8340 C   0  0  0  0  0  0  0  0  0  0  0  0
   -6.7520   18.3240  -32.4890 C   0  0  0  0  0  0  0  0  0  0  0  0
   -6.9620   19.7640  -32.1190 C   0  0  0  0  0  0  0  0  0  0  0  0
   -8.2350   20.3670  -32.2900 C   0  0  0  0  0  0  0  0  0  0  0  0
   -8.4300   21.7270  -31.9930 C   0  0  0  0  0  0  0  0  0  0  0  0
   -7.3370   22.4570  -31.5340 C   0  0  0  0  0  0  0  0  0  0  0  0
   -7.2270   23.7940  -31.2190 C   0  0  0  0  0  0  0  0  0  0  0  0
   -5.8910   23.9820  -30.8650 C   0  0  0  0  0  0  0  0  0  0  0  0
   -5.3240   25.2730  -30.4250 C   0  0  0  0  0  0  0  0  0  0  0  0
   -4.0150   25.6530  -30.8430 N   0  0  0  0  0  0  0  0  0  0  0  0
   -5.9910   26.0520  -29.6950 O   0  0  0  0  0  0  0  0  0  0  0  0
   -5.2080   22.8080  -30.9550 N   0  0  0  0  0  0  0  0  0  0  0  0
   -3.8050   22.5870  -30.7650 C   0  0  0  0  0  0  0  0  0  0  0  0
   -2.9780   23.1290  -31.5470 O   0  0  0  0  0  0  0  0  0  0  0  0
   -3.3130   21.8310  -29.5690 C   0  0  0  0  0  0  0  0  0  0  0  0
   -2.3990   22.6310  -28.8450 O   0  0  0  0  0  0  0  0  0  0  0  0
   -3.0870   23.5470  -28.0160 C   0  0  0  0  0  0  0  0  0  0  0  0
   -2.3550   24.8860  -28.0370 C   0  0  0  0  0  0  0  0  0  0  0  0
   -1.9280   25.1870  -29.3360 O   0  0  0  0  0  0  0  0  0  0  0  0
   -6.1040   21.8850  -31.3620 C   0  0  0  0  0  0  0  0  0  0  0  0
   -5.8760   20.5390  -31.6570 C   0  0  0  0  0  0  0  0  0  0  0  0
   -7.7180   17.7983  -32.4690 H   0  0  0  0  0  0  0  0  0  0  0  0
   -6.0611   17.8632  -31.7676 H   0  0  0  0  0  0  0  0  0  0  0  0
   -9.0779   19.7640  -32.6588 H   0  0  0  0  0  0  0  0  0  0  0  0
   -9.4152   22.1996  -32.1193 H   0  0  0  0  0  0  0  0  0  0  0  0
   -8.0237   24.5521  -31.2419 H   0  0  0  0  0  0  0  0  0  0  0  0
   -3.1850   25.0640  -30.6110 H   0  0  0  0  0  0  0  0  0  0  0  0
   -4.1652   21.5730  -28.9231 H   0  0  0  0  0  0  0  0  0  0  0  0
   -2.8100   20.9105  -29.9003 H   0  0  0  0  0  0  0  0  0  0  0  0
   -4.1131   23.6822  -28.3885 H   0  0  0  0  0  0  0  0  0  0  0  0
   -3.1235   23.1605  -26.9868 H   0  0  0  0  0  0  0  0  0  0  0  0
   -3.0348   25.6765  -27.6863 H   0  0  0  0  0  0  0  0  0  0  0  0
   -1.4768   24.8236  -27.3775 H   0  0  0  0  0  0  0  0  0  0  0  0
   -2.3350   24.5070  -29.9350 H   0  0  0  0  0  0  0  0  0  0  0  0
   -4.8774   20.0948  -31.5328 H   0  0  0  0  0  0  0  0  0  0  0  0
  1  2  3  0
  2  3  1  0
  3  4  1  0
  4  5  2  0
  5  6  1  0
  6  7  2  0
  7  8  1  0
  8  9  2  0
  9 10  1  0
 10 11  1  0
 10 12  2  0
  9 13  1  0
 13 14  1  0
 14 15  2  0
 14 16  1  0
 16 17  1  0
 17 18  1  0
 18 19  1  0
 19 20  1  0
 13 21  1  0
 21 22  2  0
 22  4  1  0
 21  7  1  0
  3 23  1  0
  3 24  1  0
  5 25  1  0
  6 26  1  0
  8 27  1  0
 11 28  1  0
 16 29  1  0
 16 30  1  0
 18 31  1  0
 18 32  1  0
 19 33  1  0
 19 34  1  0
 20 35  1  0
 22 36  1  0
M  CHG  1  11  -1
M  END
>  <UniqueID>  (69) 
69

>  <SMILES>  (69) 
N#CCc1ccc2cc(C([NH-])=O)n(C(=O)COCCO)c2c1

>  <Energy>  (69) 
70.85229618386649

>  <Genealogy>  (69) 
N#CCc1ccc2cc(C([NH-])=O)n(C(=O)COCCO)c2c1 (protonated)
N#CCc1ccc2cc(C([NH-])=O)n(C(=O)COCCO)c2c1 (3D coordinates assigned)
N#CCc1ccc2cc(C([NH-])=O)n(C(=O)COCCO)c2c1 (optimized conformer: 70.85229618386649 kcal/mol)

>  <smiles>  (69) 
N#CCc1ccc2cc(C(N)=O)n(C(=O)COCCO)c2c1

>  <score_type>  (69) 
oracle

>  <origin>  (69) 
adg

>  <m_score__min__energy>  (69) 
-10.91

>  <m_primary>  (69) 
energy

$$$$
70:0
     RDKit          3D

 50 51  0  0  0  0  0  0  0  0999 V2000
   -0.1370   24.0000  -25.3590 C   0  0  0  0  0  0  0  0  0  0  0  0
   -0.5600   24.2090  -26.7490 N   0  0  0  0  0  0  0  0  0  0  0  0
   -1.7320   25.0560  -27.0130 C   0  0  0  0  0  0  0  0  0  0  0  0
   -1.6220   25.7290  -28.3470 C   0  0  0  0  0  0  0  0  0  0  0  0
   -2.2790   25.2910  -29.3280 O   0  0  0  0  0  0  0  0  0  0  0  0
   -0.7360   26.7820  -28.5380 O   0  0  0  0  0  0  0  0  0  0  0  0
    0.1770   23.5440  -27.8030 C   0  0  0  0  0  0  0  0  0  0  0  0
    0.9890   24.2110  -28.5020 O   0  0  0  0  0  0  0  0  0  0  0  0
    0.0300   22.0750  -28.1070 C   0  0  0  0  0  0  0  0  0  0  0  0
   -1.3690   21.6940  -28.3560 N   0  0  0  0  0  0  0  0  0  0  0  0
   -2.1850   21.2540  -27.2220 C   0  0  0  0  0  0  0  0  0  0  0  0
   -2.0530   22.2090  -29.5120 C   0  0  0  0  0  0  0  0  0  0  0  0
   -1.4670   23.0320  -30.2680 O   0  0  0  0  0  0  0  0  0  0  0  0
   -3.4520   21.7750  -29.8450 C   0  0  0  0  0  0  0  0  0  0  0  0
   -4.0490   22.6330  -30.9240 C   0  0  0  0  0  0  0  0  0  0  0  0
   -3.2900   23.2380  -31.7270 O   0  0  0  0  0  0  0  0  0  0  0  0
   -5.4720   22.8020  -31.0260 N   0  0  0  0  0  0  0  0  0  0  0  0
   -6.1930   23.9140  -30.7090 C   0  0  0  0  0  0  0  0  0  0  0  0
   -5.6170   25.2230  -30.3220 C   0  0  0  0  0  0  0  0  0  0  0  0
   -4.2580   25.5440  -30.6230 N   0  0  0  0  0  0  0  0  0  0  0  0
   -6.3210   26.0650  -29.7050 O   0  0  0  0  0  0  0  0  0  0  0  0
   -7.5580   23.6690  -30.8650 C   0  0  0  0  0  0  0  0  0  0  0  0
   -7.6480   22.3620  -31.2850 C   0  0  0  0  0  0  0  0  0  0  0  0
   -8.7680   21.5960  -31.5910 C   0  0  0  0  0  0  0  0  0  0  0  0
   -8.5670   20.2610  -31.9870 C   0  0  0  0  0  0  0  0  0  0  0  0
   -7.2600   19.7080  -32.0320 C   0  0  0  0  0  0  0  0  0  0  0  0
   -7.0450   18.2900  -32.4960 C   0  0  0  0  0  0  0  0  0  0  0  0
   -8.1920   17.5340  -32.3260 F   0  0  0  0  0  0  0  0  0  0  0  0
   -6.7060   18.2980  -33.8370 F   0  0  0  0  0  0  0  0  0  0  0  0
   -6.0240   17.6950  -31.7750 F   0  0  0  0  0  0  0  0  0  0  0  0
   -6.1480   20.5250  -31.7280 C   0  0  0  0  0  0  0  0  0  0  0  0
   -6.3760   21.8590  -31.3680 C   0  0  0  0  0  0  0  0  0  0  0  0
   -0.9118   24.3828  -24.6784 H   0  0  0  0  0  0  0  0  0  0  0  0
    0.0110   22.9251  -25.1785 H   0  0  0  0  0  0  0  0  0  0  0  0
    0.8067   24.5355  -25.1785 H   0  0  0  0  0  0  0  0  0  0  0  0
   -2.6372   24.4311  -26.9995 H   0  0  0  0  0  0  0  0  0  0  0  0
   -1.7854   25.8310  -26.2342 H   0  0  0  0  0  0  0  0  0  0  0  0
    0.6258   21.8373  -29.0006 H   0  0  0  0  0  0  0  0  0  0  0  0
    0.3809   21.5127  -27.2291 H   0  0  0  0  0  0  0  0  0  0  0  0
   -1.6825   21.5249  -26.2817 H   0  0  0  0  0  0  0  0  0  0  0  0
   -3.1689   21.7439  -27.2663 H   0  0  0  0  0  0  0  0  0  0  0  0
   -2.3164   20.1628  -27.2663 H   0  0  0  0  0  0  0  0  0  0  0  0
   -3.4305   20.7304  -30.1890 H   0  0  0  0  0  0  0  0  0  0  0  0
   -4.0704   21.8751  -28.9408 H   0  0  0  0  0  0  0  0  0  0  0  0
   -3.6640   24.9150  -31.2070 H   0  0  0  0  0  0  0  0  0  0  0  0
   -3.8630   26.4620  -30.3180 H   0  0  0  0  0  0  0  0  0  0  0  0
   -8.3860   24.3716  -30.6895 H   0  0  0  0  0  0  0  0  0  0  0  0
   -9.7804   22.0212  -31.5254 H   0  0  0  0  0  0  0  0  0  0  0  0
   -9.4311   19.6394  -32.2645 H   0  0  0  0  0  0  0  0  0  0  0  0
   -5.1255   20.1220  -31.7731 H   0  0  0  0  0  0  0  0  0  0  0  0
  1  2  1  0
  2  3  1  0
  3  4  1  0
  4  5  2  0
  4  6  1  0
  2  7  1  0
  7  8  2  0
  7  9  1  0
  9 10  1  0
 10 11  1  0
 10 12  1  0
 12 13  2  0
 12 14  1  0
 14 15  1  0
 15 16  2  0
 15 17  1  0
 17 18  1  0
 18 19  1  0
 19 20  1  0
 19 21  2  0
 18 22  2  0
 22 23  1  0
 23 24  2  0
 24 25  1  0
 25 26  2  0
 26 27  1  0
 27 28  1  0
 27 29  1  0
 27 30  1  0
 26 31  1  0
 31 32  2  0
 32 17  1  0
 32 23  1  0
  1 33  1  0
  1 34  1  0
  1 35  1  0
  3 36  1  0
  3 37  1  0
  9 38  1  0
  9 39  1  0
 11 40  1  0
 11 41  1  0
 11 42  1  0
 14 43  1  0
 14 44  1  0
 20 45  1  0
 20 46  1  0
 22 47  1  0
 24 48  1  0
 25 49  1  0
 31 50  1  0
M  CHG  1   6  -1
M  END
>  <UniqueID>  (70) 
70

>  <SMILES>  (70) 
CN(CC(=O)[O-])C(=O)CN(C)C(=O)CC(=O)n1c(C(N)=O)cc2ccc(C(F)(F)F)cc21

>  <Energy>  (70) 
87.9396520108543

>  <Genealogy>  (70) 
CN(CC(=O)[O-])C(=O)CN(C)C(=O)CC(=O)n1c(C(N)=O)cc2ccc(C(F)(F)F)cc21 (protonated)
CN(CC(=O)[O-])C(=O)CN(C)C(=O)CC(=O)n1c(C(N)=O)cc2ccc(C(F)(F)F)cc21 (3D coordinates assigned)
CN(CC(=O)[O-])C(=O)CN(C)C(=O)CC(=O)n1c(C(N)=O)cc2ccc(C(F)(F)F)cc21 (optimized conformer: 87.9396520108543 kcal/mol)

>  <smiles>  (70) 
CN(CC(=O)O)C(=O)CN(C)C(=O)CC(=O)n1c(C(N)=O)cc2ccc(C(F)(F)F)cc21

>  <score_type>  (70) 
oracle

>  <origin>  (70) 
adg

>  <m_score__min__energy>  (70) 
-11.029999999999999

>  <m_primary>  (70) 
energy

$$$$
71:0
     RDKit          3D

 34 35  0  0  0  0  0  0  0  0999 V2000
   -4.2630   25.5510  -30.6640 N   0  0  0  0  0  0  0  0  0  0  0  0
   -5.6370   25.2160  -30.4640 C   0  0  0  0  0  0  0  0  0  0  0  0
   -6.3930   26.0450  -29.8900 O   0  0  0  0  0  0  0  0  0  0  0  0
   -6.1660   23.9020  -30.8930 C   0  0  0  0  0  0  0  0  0  0  0  0
   -7.5150   23.6460  -31.1320 C   0  0  0  0  0  0  0  0  0  0  0  0
   -7.5630   22.3510  -31.5970 C   0  0  0  0  0  0  0  0  0  0  0  0
   -8.6560   21.5740  -31.9670 C   0  0  0  0  0  0  0  0  0  0  0  0
   -8.4160   20.2520  -32.3750 C   0  0  0  0  0  0  0  0  0  0  0  0
   -7.0960   19.7330  -32.4180 C   0  0  0  0  0  0  0  0  0  0  0  0
   -6.8590   18.2930  -32.7960 C   0  0  0  0  0  0  0  0  0  0  0  0
   -5.8380   17.7790  -32.0180 F   0  0  0  0  0  0  0  0  0  0  0  0
   -8.0030   17.5400  -32.5950 F   0  0  0  0  0  0  0  0  0  0  0  0
   -6.5040   18.1910  -34.1310 F   0  0  0  0  0  0  0  0  0  0  0  0
   -6.0140   20.5490  -32.0110 C   0  0  0  0  0  0  0  0  0  0  0  0
   -6.2810   21.8680  -31.6270 C   0  0  0  0  0  0  0  0  0  0  0  0
   -5.4110   22.8080  -31.1970 N   0  0  0  0  0  0  0  0  0  0  0  0
   -3.9950   22.6420  -31.0210 C   0  0  0  0  0  0  0  0  0  0  0  0
   -3.2080   22.9050  -31.9690 O   0  0  0  0  0  0  0  0  0  0  0  0
   -3.4830   22.1550  -29.7750 N   0  0  0  0  0  0  0  0  0  0  0  0
   -3.4500   22.9450  -28.5470 C   0  0  0  0  0  0  0  0  0  0  0  0
   -2.0090   23.2560  -28.1280 C   0  0  0  0  0  0  0  0  0  0  0  0
   -1.5040   24.4950  -28.8000 C   0  0  0  0  0  0  0  0  0  0  0  0
   -2.3100   25.2920  -29.3470 O   0  0  0  0  0  0  0  0  0  0  0  0
   -0.1390   24.7460  -28.8600 O   0  0  0  0  0  0  0  0  0  0  0  0
   -3.8910   26.4650  -30.3230 H   0  0  0  0  0  0  0  0  0  0  0  0
   -3.6200   24.9140  -31.1850 H   0  0  0  0  0  0  0  0  0  0  0  0
   -8.3612   24.3325  -30.9812 H   0  0  0  0  0  0  0  0  0  0  0  0
   -9.6769   21.9827  -31.9408 H   0  0  0  0  0  0  0  0  0  0  0  0
   -9.2616   19.6109  -32.6648 H   0  0  0  0  0  0  0  0  0  0  0  0
   -4.9868   20.1557  -31.9968 H   0  0  0  0  0  0  0  0  0  0  0  0
   -3.9874   23.8902  -28.7136 H   0  0  0  0  0  0  0  0  0  0  0  0
   -3.9286   22.3636  -27.7452 H   0  0  0  0  0  0  0  0  0  0  0  0
   -1.9757   23.4003  -27.0380 H   0  0  0  0  0  0  0  0  0  0  0  0
   -1.3698   22.4125  -28.4279 H   0  0  0  0  0  0  0  0  0  0  0  0
  1  2  1  0
  2  3  2  0
  2  4  1  0
  4  5  2  0
  5  6  1  0
  6  7  2  0
  7  8  1  0
  8  9  2  0
  9 10  1  0
 10 11  1  0
 10 12  1  0
 10 13  1  0
  9 14  1  0
 14 15  2  0
 15 16  1  0
 16 17  1  0
 17 18  2  0
 17 19  1  0
 19 20  1  0
 20 21  1  0
 21 22  1  0
 22 23  2  0
 22 24  1  0
 16  4  1  0
 15  6  1  0
  1 25  1  0
  1 26  1  0
  5 27  1  0
  7 28  1  0
  8 29  1  0
 14 30  1  0
 20 31  1  0
 20 32  1  0
 21 33  1  0
 21 34  1  0
M  CHG  2  19  -1  24  -1
M  END
>  <UniqueID>  (71) 
71

>  <SMILES>  (71) 
NC(=O)c1cc2ccc(C(F)(F)F)cc2n1C(=O)[N-]CCC(=O)[O-]

>  <Energy>  (71) 
68.97749964307307

>  <Genealogy>  (71) 
NC(=O)c1cc2ccc(C(F)(F)F)cc2n1C(=O)[N-]CCC(=O)[O-] (protonated)
NC(=O)c1cc2ccc(C(F)(F)F)cc2n1C(=O)[N-]CCC(=O)[O-] (3D coordinates assigned)
NC(=O)c1cc2ccc(C(F)(F)F)cc2n1C(=O)[N-]CCC(=O)[O-] (optimized conformer: 68.97749964307307 kcal/mol)

>  <smiles>  (71) 
NC(=O)c1cc2ccc(C(F)(F)F)cc2n1C(=O)NCCC(=O)O

>  <score_type>  (71) 
oracle

>  <origin>  (71) 
adg

>  <m_score__min__energy>  (71) 
-10.84

>  <m_primary>  (71) 
energy

$$$$
72:0
     RDKit          3D

 63 64  0  0  0  0  0  0  0  0999 V2000
   -4.6480   16.5680  -32.7410 C   0  0  0  0  0  0  0  0  0  0  0  0
   -5.6040   17.7020  -32.5050 C   0  0  0  0  0  0  0  0  0  0  0  0
   -6.9920   17.4430  -32.3770 C   0  0  0  0  0  0  0  0  0  0  0  0
   -7.9040   18.4980  -32.2000 C   0  0  0  0  0  0  0  0  0  0  0  0
   -7.4000   19.7950  -32.1820 C   0  0  0  0  0  0  0  0  0  0  0  0
   -8.0490   20.9990  -32.0090 C   0  0  0  0  0  0  0  0  0  0  0  0
   -7.0500   21.9730  -32.0740 C   0  0  0  0  0  0  0  0  0  0  0  0
   -7.3130   23.4220  -31.8890 C   0  0  0  0  0  0  0  0  0  0  0  0
   -6.2950   24.4130  -32.0530 N   0  0  0  0  0  0  0  0  0  0  0  0
   -8.4810   23.7960  -31.6010 O   0  0  0  0  0  0  0  0  0  0  0  0
   -5.8350   21.3880  -32.2780 N   0  0  0  0  0  0  0  0  0  0  0  0
   -4.5470   22.0140  -32.3180 C   0  0  0  0  0  0  0  0  0  0  0  0
   -4.1240   22.4440  -33.4230 O   0  0  0  0  0  0  0  0  0  0  0  0
   -3.7520   22.1620  -31.1140 N   0  0  0  0  0  0  0  0  0  0  0  0
   -2.2740   22.1930  -31.2070 C   0  0  0  0  0  0  0  0  0  0  0  0
   -1.6270   20.8780  -30.7480 C   0  0  0  0  0  0  0  0  0  0  0  0
   -0.3820   21.1470  -30.1460 O   0  0  0  0  0  0  0  0  0  0  0  0
   -0.4620   20.9600  -28.4160 Si  0  0  0  0  0  4  0  0  0  0  0  0
   -1.7790   19.7460  -27.8400 C   0  0  0  0  0  0  0  0  0  0  0  0
    1.1870   20.2610  -27.8720 C   0  0  0  0  0  0  0  0  0  0  0  0
   -0.7390   22.6590  -27.6040 C   0  0  0  0  0  0  0  0  0  0  0  0
   -0.0160   22.7160  -26.2480 C   0  0  0  0  0  0  0  0  0  0  0  0
   -0.1830   23.7610  -28.5200 C   0  0  0  0  0  0  0  0  0  0  0  0
   -2.2440   22.8820  -27.3860 C   0  0  0  0  0  0  0  0  0  0  0  0
   -4.4150   22.3260  -29.8020 C   0  0  0  0  0  0  0  0  0  0  0  0
   -4.8690   23.7740  -29.5700 C   0  0  0  0  0  0  0  0  0  0  0  0
   -3.9190   24.7750  -30.1530 C   0  0  0  0  0  0  0  0  0  0  0  0
   -2.7520   24.9110  -29.7010 O   0  0  0  0  0  0  0  0  0  0  0  0
   -4.3530   25.6010  -31.1850 O   0  0  0  0  0  0  0  0  0  0  0  0
   -6.0640   20.0610  -32.3300 C   0  0  0  0  0  0  0  0  0  0  0  0
   -5.1310   19.0320  -32.4850 C   0  0  0  0  0  0  0  0  0  0  0  0
   -4.3096   16.1665  -31.7744 H   0  0  0  0  0  0  0  0  0  0  0  0
   -5.1538   15.7745  -33.3107 H   0  0  0  0  0  0  0  0  0  0  0  0
   -3.7804   16.9323  -33.3107 H   0  0  0  0  0  0  0  0  0  0  0  0
   -7.3587   16.4067  -32.4166 H   0  0  0  0  0  0  0  0  0  0  0  0
   -8.9802   18.3048  -32.0797 H   0  0  0  0  0  0  0  0  0  0  0  0
   -9.1261   21.1588  -31.8528 H   0  0  0  0  0  0  0  0  0  0  0  0
   -5.3690   24.1880  -32.4630 H   0  0  0  0  0  0  0  0  0  0  0  0
   -6.5140   25.4190  -31.8680 H   0  0  0  0  0  0  0  0  0  0  0  0
   -1.9904   22.3790  -32.2534 H   0  0  0  0  0  0  0  0  0  0  0  0
   -1.9144   22.9919  -30.5418 H   0  0  0  0  0  0  0  0  0  0  0  0
   -2.2853   20.3809  -30.0204 H   0  0  0  0  0  0  0  0  0  0  0  0
   -1.4771   20.2222  -31.6183 H   0  0  0  0  0  0  0  0  0  0  0  0
   -1.8022   19.7246  -26.7405 H   0  0  0  0  0  0  0  0  0  0  0  0
   -2.7611   20.0622  -28.2214 H   0  0  0  0  0  0  0  0  0  0  0  0
   -1.5436   18.7414  -28.2214 H   0  0  0  0  0  0  0  0  0  0  0  0
    1.2325   20.2417  -26.7731 H   0  0  0  0  0  0  0  0  0  0  0  0
    1.2982   19.2383  -28.2616 H   0  0  0  0  0  0  0  0  0  0  0  0
    1.9993   20.8922  -28.2616 H   0  0  0  0  0  0  0  0  0  0  0  0
   -0.7553   22.6577  -25.4356 H   0  0  0  0  0  0  0  0  0  0  0  0
    0.6828   21.8702  -26.1692 H   0  0  0  0  0  0  0  0  0  0  0  0
    0.5416   23.6609  -26.1692 H   0  0  0  0  0  0  0  0  0  0  0  0
    0.2280   24.5757  -27.9057 H   0  0  0  0  0  0  0  0  0  0  0  0
    0.6123   23.3434  -29.1549 H   0  0  0  0  0  0  0  0  0  0  0  0
   -0.9914   24.1526  -29.1549 H   0  0  0  0  0  0  0  0  0  0  0  0
   -2.4575   22.9136  -26.3074 H   0  0  0  0  0  0  0  0  0  0  0  0
   -2.5442   23.8344  -27.8473 H   0  0  0  0  0  0  0  0  0  0  0  0
   -2.8074   22.0575  -27.8473 H   0  0  0  0  0  0  0  0  0  0  0  0
   -5.2944   21.6664  -29.7625 H   0  0  0  0  0  0  0  0  0  0  0  0
   -3.6897   22.0651  -29.0173 H   0  0  0  0  0  0  0  0  0  0  0  0
   -5.8562   23.9126  -30.0349 H   0  0  0  0  0  0  0  0  0  0  0  0
   -4.9055   23.9422  -28.4835 H   0  0  0  0  0  0  0  0  0  0  0  0
   -4.0583   19.2522  -32.5885 H   0  0  0  0  0  0  0  0  0  0  0  0
  1  2  1  0
  2  3  2  0
  3  4  1  0
  4  5  2  0
  5  6  1  0
  6  7  2  0
  7  8  1  0
  8  9  1  0
  8 10  2  0
  7 11  1  0
 11 12  1  0
 12 13  2  0
 12 14  1  0
 14 15  1  0
 15 16  1  0
 16 17  1  0
 17 18  1  0
 18 19  1  0
 18 20  1  0
 18 21  1  0
 21 22  1  0
 21 23  1  0
 21 24  1  0
 14 25  1  0
 25 26  1  0
 26 27  1  0
 27 28  2  0
 27 29  1  0
 11 30  1  0
 30 31  2  0
 31  2  1  0
 30  5  1  0
  1 32  1  0
  1 33  1  0
  1 34  1  0
  3 35  1  0
  4 36  1  0
  6 37  1  0
  9 38  1  0
  9 39  1  0
 15 40  1  0
 15 41  1  0
 16 42  1  0
 16 43  1  0
 19 44  1  0
 19 45  1  0
 19 46  1  0
 20 47  1  0
 20 48  1  0
 20 49  1  0
 22 50  1  0
 22 51  1  0
 22 52  1  0
 23 53  1  0
 23 54  1  0
 23 55  1  0
 24 56  1  0
 24 57  1  0
 24 58  1  0
 25 59  1  0
 25 60  1  0
 26 61  1  0
 26 62  1  0
 31 63  1  0
M  CHG  1  29  -1
M  END
>  <UniqueID>  (72) 
72

>  <SMILES>  (72) 
Cc1ccc2cc(C(N)=O)n(C(=O)N(CCO[Si](C)(C)C(C)(C)C)CCC(=O)[O-])c2c1

>  <Energy>  (72) 
83.57394317627589

>  <Genealogy>  (72) 
Cc1ccc2cc(C(N)=O)n(C(=O)N(CCO[Si](C)(C)C(C)(C)C)CCC(=O)[O-])c2c1 (protonated)
Cc1ccc2cc(C(N)=O)n(C(=O)N(CCO[Si](C)(C)C(C)(C)C)CCC(=O)[O-])c2c1 (3D coordinates assigned)
Cc1ccc2cc(C(N)=O)n(C(=O)N(CCO[Si](C)(C)C(C)(C)C)CCC(=O)[O-])c2c1 (optimized conformer: 83.57394317627589 kcal/mol)

>  <smiles>  (72) 
Cc1ccc2cc(C(N)=O)n(C(=O)N(CCO[Si](C)(C)C(C)(C)C)CCC(=O)O)c2c1

>  <score_type>  (72) 
oracle

>  <origin>  (72) 
adg

>  <m_score__min__energy>  (72) 
-11.949999999999999

>  <m_primary>  (72) 
energy

$$$$
73:0
     RDKit          3D

 40 41  0  0  0  0  0  0  0  0999 V2000
   -1.9660   25.8340  -26.3100 C   0  0  0  0  0  0  0  0  0  0  0  0
   -1.9130   24.8810  -27.8120 S   0  0  0  0  0  0  0  0  0  0  0  0
   -1.4670   25.7740  -28.9340 O   0  0  0  0  0  0  0  0  0  0  0  0
   -3.2900   24.3630  -28.1180 O   0  0  0  0  0  0  0  0  0  0  0  0
   -0.7600   23.5160  -27.6740 C   0  0  0  0  0  0  0  0  0  0  0  0
   -1.2200   22.2630  -28.4240 C   0  0  0  0  0  0  0  0  0  0  0  0
   -1.6230   22.6390  -30.1690 S   0  0  0  0  0  0  0  0  0  0  0  0
   -3.3030   21.9240  -30.1440 C   0  0  0  0  0  0  0  0  0  0  0  0
   -4.0840   22.3640  -31.3480 C   0  0  0  0  0  0  0  0  0  0  0  0
   -3.4960   22.4710  -32.4580 O   0  0  0  0  0  0  0  0  0  0  0  0
   -5.4650   22.7430  -31.2340 N   0  0  0  0  0  0  0  0  0  0  0  0
   -5.9810   23.9760  -30.9690 C   0  0  0  0  0  0  0  0  0  0  0  0
   -5.2140   25.1570  -30.5240 C   0  0  0  0  0  0  0  0  0  0  0  0
   -3.8320   25.2920  -30.8440 N   0  0  0  0  0  0  0  0  0  0  0  0
   -5.7730   26.0360  -29.8150 O   0  0  0  0  0  0  0  0  0  0  0  0
   -7.3710   23.9560  -31.0740 C   0  0  0  0  0  0  0  0  0  0  0  0
   -7.6940   22.6580  -31.3970 C   0  0  0  0  0  0  0  0  0  0  0  0
   -8.9350   22.0740  -31.6310 C   0  0  0  0  0  0  0  0  0  0  0  0
   -8.9680   20.7110  -31.9710 C   0  0  0  0  0  0  0  0  0  0  0  0
   -7.7690   19.9620  -32.0680 C   0  0  0  0  0  0  0  0  0  0  0  0
   -7.8260   18.5080  -32.4410 C   0  0  0  0  0  0  0  0  0  0  0  0
   -8.9650   17.9340  -31.9050 F   0  0  0  0  0  0  0  0  0  0  0  0
   -6.7110   17.8560  -31.9470 F   0  0  0  0  0  0  0  0  0  0  0  0
   -6.5280   20.5880  -31.8180 C   0  0  0  0  0  0  0  0  0  0  0  0
   -6.5270   21.9450  -31.4800 C   0  0  0  0  0  0  0  0  0  0  0  0
   -1.9283   25.1564  -25.4443 H   0  0  0  0  0  0  0  0  0  0  0  0
   -1.1045   26.5172  -26.2786 H   0  0  0  0  0  0  0  0  0  0  0  0
   -2.8980   26.4175  -26.2786 H   0  0  0  0  0  0  0  0  0  0  0  0
    0.2096   23.8338  -28.0850 H   0  0  0  0  0  0  0  0  0  0  0  0
   -0.6893   23.2529  -26.6083 H   0  0  0  0  0  0  0  0  0  0  0  0
   -0.4152   21.5136  -28.3961 H   0  0  0  0  0  0  0  0  0  0  0  0
   -2.1274   21.8801  -27.9341 H   0  0  0  0  0  0  0  0  0  0  0  0
   -3.2285   20.8265  -30.1430 H   0  0  0  0  0  0  0  0  0  0  0  0
   -3.8223   22.2717  -29.2388 H   0  0  0  0  0  0  0  0  0  0  0  0
   -3.1020   25.2630  -30.0970 H   0  0  0  0  0  0  0  0  0  0  0  0
   -8.0627   24.7989  -30.9293 H   0  0  0  0  0  0  0  0  0  0  0  0
   -9.8618   22.6612  -31.5523 H   0  0  0  0  0  0  0  0  0  0  0  0
   -9.9337   20.2208  -32.1637 H   0  0  0  0  0  0  0  0  0  0  0  0
   -7.8491   18.4180  -33.5371 H   0  0  0  0  0  0  0  0  0  0  0  0
   -5.5868   20.0230  -31.8873 H   0  0  0  0  0  0  0  0  0  0  0  0
  1  2  1  0
  2  3  2  0
  2  4  2  0
  2  5  1  0
  5  6  1  0
  6  7  1  0
  7  8  1  0
  8  9  1  0
  9 10  2  0
  9 11  1  0
 11 12  1  0
 12 13  1  0
 13 14  1  0
 13 15  2  0
 12 16  2  0
 16 17  1  0
 17 18  2  0
 18 19  1  0
 19 20  2  0
 20 21  1  0
 21 22  1  0
 21 23  1  0
 20 24  1  0
 24 25  2  0
 25 11  1  0
 25 17  1  0
  1 26  1  0
  1 27  1  0
  1 28  1  0
  5 29  1  0
  5 30  1  0
  6 31  1  0
  6 32  1  0
  8 33  1  0
  8 34  1  0
 14 35  1  0
 16 36  1  0
 18 37  1  0
 19 38  1  0
 21 39  1  0
 24 40  1  0
M  CHG  1  14  -1
M  END
>  <UniqueID>  (73) 
73

>  <SMILES>  (73) 
CS(=O)(=O)CCSCC(=O)n1c(C([NH-])=O)cc2ccc(C(F)F)cc21

>  <Energy>  (73) 
64.19406728553471

>  <Genealogy>  (73) 
CS(=O)(=O)CCSCC(=O)n1c(C([NH-])=O)cc2ccc(C(F)F)cc21 (protonated)
CS(=O)(=O)CCSCC(=O)n1c(C([NH-])=O)cc2ccc(C(F)F)cc21 (3D coordinates assigned)
CS(=O)(=O)CCSCC(=O)n1c(C([NH-])=O)cc2ccc(C(F)F)cc21 (optimized conformer: 64.19406728553471 kcal/mol)

>  <smiles>  (73) 
CS(=O)(=O)CCSCC(=O)n1c(C(N)=O)cc2ccc(C(F)F)cc21

>  <score_type>  (73) 
oracle

>  <origin>  (73) 
adg

>  <m_score__min__energy>  (73) 
-10.94

>  <m_primary>  (73) 
energy

$$$$
74:0
     RDKit          3D

 38 39  0  0  0  0  0  0  0  0999 V2000
    0.0430   22.7540  -27.4800 C   0  0  0  0  0  0  0  0  0  0  0  0
   -0.1550   24.1280  -27.9540 N   0  0  0  0  0  0  0  0  0  0  0  0
    0.6660   25.2100  -27.4000 C   0  0  0  0  0  0  0  0  0  0  0  0
   -1.2090   24.4630  -28.8870 C   0  0  0  0  0  0  0  0  0  0  0  0
   -1.5970   25.6610  -28.9690 O   0  0  0  0  0  0  0  0  0  0  0  0
   -1.8510   23.4550  -29.7630 C   0  0  0  0  0  0  0  0  0  0  0  0
   -1.1490   22.5800  -30.3390 O   0  0  0  0  0  0  0  0  0  0  0  0
   -3.2710   23.5000  -29.9900 N   0  0  0  0  0  0  0  0  0  0  0  0
   -3.9810   22.5770  -30.8310 C   0  0  0  0  0  0  0  0  0  0  0  0
   -3.3910   21.5860  -31.3410 O   0  0  0  0  0  0  0  0  0  0  0  0
   -5.3770   22.7810  -31.0960 N   0  0  0  0  0  0  0  0  0  0  0  0
   -6.1200   23.8980  -30.8550 C   0  0  0  0  0  0  0  0  0  0  0  0
   -5.6010   25.2000  -30.3860 C   0  0  0  0  0  0  0  0  0  0  0  0
   -4.3260   25.6790  -30.8060 N   0  0  0  0  0  0  0  0  0  0  0  0
   -6.3090   25.9190  -29.6320 O   0  0  0  0  0  0  0  0  0  0  0  0
   -7.4570   23.6730  -31.1780 C   0  0  0  0  0  0  0  0  0  0  0  0
   -7.5100   22.3740  -31.6290 C   0  0  0  0  0  0  0  0  0  0  0  0
   -8.5920   21.6250  -32.0800 C   0  0  0  0  0  0  0  0  0  0  0  0
   -8.3580   20.2920  -32.4630 C   0  0  0  0  0  0  0  0  0  0  0  0
   -7.0610   19.7260  -32.3640 C   0  0  0  0  0  0  0  0  0  0  0  0
   -6.8160   18.3080  -32.8110 C   0  0  0  0  0  0  0  0  0  0  0  0
   -5.7850   17.7370  -32.0850 F   0  0  0  0  0  0  0  0  0  0  0  0
   -7.9670   17.5660  -32.6200 F   0  0  0  0  0  0  0  0  0  0  0  0
   -6.4730   18.2700  -34.1520 F   0  0  0  0  0  0  0  0  0  0  0  0
   -5.9830   20.5290  -31.9220 C   0  0  0  0  0  0  0  0  0  0  0  0
   -6.2430   21.8570  -31.5670 C   0  0  0  0  0  0  0  0  0  0  0  0
    0.0447   22.7422  -26.3801 H   0  0  0  0  0  0  0  0  0  0  0  0
   -0.7726   22.1166  -27.8522 H   0  0  0  0  0  0  0  0  0  0  0  0
    1.0054   22.3728  -27.8522 H   0  0  0  0  0  0  0  0  0  0  0  0
    0.6345   25.1684  -26.3012 H   0  0  0  0  0  0  0  0  0  0  0  0
    1.7051   25.0936  -27.7417 H   0  0  0  0  0  0  0  0  0  0  0  0
    0.2741   26.1794  -27.7417 H   0  0  0  0  0  0  0  0  0  0  0  0
   -3.8330   24.2350  -29.5040 H   0  0  0  0  0  0  0  0  0  0  0  0
   -3.5090   25.6770  -30.1560 H   0  0  0  0  0  0  0  0  0  0  0  0
   -8.2925   24.3831  -31.0909 H   0  0  0  0  0  0  0  0  0  0  0  0
   -9.6000   22.0619  -32.1354 H   0  0  0  0  0  0  0  0  0  0  0  0
   -9.1901   19.6815  -32.8436 H   0  0  0  0  0  0  0  0  0  0  0  0
   -4.9644   20.1186  -31.8590 H   0  0  0  0  0  0  0  0  0  0  0  0
  1  2  1  0
  2  3  1  0
  2  4  1  0
  4  5  2  0
  4  6  1  0
  6  7  2  0
  6  8  1  0
  8  9  1  0
  9 10  2  0
  9 11  1  0
 11 12  1  0
 12 13  1  0
 13 14  1  0
 13 15  2  0
 12 16  2  0
 16 17  1  0
 17 18  2  0
 18 19  1  0
 19 20  2  0
 20 21  1  0
 21 22  1  0
 21 23  1  0
 21 24  1  0
 20 25  1  0
 25 26  2  0
 26 11  1  0
 26 17  1  0
  1 27  1  0
  1 28  1  0
  1 29  1  0
  3 30  1  0
  3 31  1  0
  3 32  1  0
  8 33  1  0
 14 34  1  0
 16 35  1  0
 18 36  1  0
 19 37  1  0
 25 38  1  0
M  CHG  1  14  -1
M  END
>  <UniqueID>  (74) 
74

>  <SMILES>  (74) 
CN(C)C(=O)C(=O)NC(=O)n1c(C([NH-])=O)cc2ccc(C(F)(F)F)cc21

>  <Energy>  (74) 
78.46042445069422

>  <Genealogy>  (74) 
CN(C)C(=O)C(=O)NC(=O)n1c(C([NH-])=O)cc2ccc(C(F)(F)F)cc21 (protonated)
CN(C)C(=O)C(=O)NC(=O)n1c(C([NH-])=O)cc2ccc(C(F)(F)F)cc21 (3D coordinates assigned)
CN(C)C(=O)C(=O)NC(=O)n1c(C([NH-])=O)cc2ccc(C(F)(F)F)cc21 (optimized conformer: 78.46042445069422 kcal/mol)

>  <smiles>  (74) 
CN(C)C(=O)C(=O)NC(=O)n1c(C(N)=O)cc2ccc(C(F)(F)F)cc21

>  <score_type>  (74) 
oracle

>  <origin>  (74) 
adg

>  <m_score__min__energy>  (74) 
-10.73

>  <m_primary>  (74) 
energy

$$$$
75:0
     RDKit          3D

 63 64  0  0  0  0  0  0  0  0999 V2000
   -7.8100   18.6490  -32.3180 C   0  0  0  0  0  0  0  0  0  0  0  0
   -7.7170   20.1060  -31.9750 C   0  0  0  0  0  0  0  0  0  0  0  0
   -8.8900   20.8990  -31.9400 C   0  0  0  0  0  0  0  0  0  0  0  0
   -8.8160   22.2740  -31.6540 C   0  0  0  0  0  0  0  0  0  0  0  0
   -7.5600   22.8240  -31.4140 C   0  0  0  0  0  0  0  0  0  0  0  0
   -7.2070   24.1240  -31.1340 C   0  0  0  0  0  0  0  0  0  0  0  0
   -5.8220   24.1070  -30.9950 C   0  0  0  0  0  0  0  0  0  0  0  0
   -5.0370   25.2940  -30.5950 C   0  0  0  0  0  0  0  0  0  0  0  0
   -3.6210   25.3040  -30.7820 N   0  0  0  0  0  0  0  0  0  0  0  0
   -5.6100   26.3200  -30.1360 O   0  0  0  0  0  0  0  0  0  0  0  0
   -5.3300   22.8490  -31.1940 N   0  0  0  0  0  0  0  0  0  0  0  0
   -3.9470   22.4500  -31.2460 C   0  0  0  0  0  0  0  0  0  0  0  0
   -3.1870   22.6680  -30.2630 O   0  0  0  0  0  0  0  0  0  0  0  0
   -3.4480   21.8170  -32.3900 O   0  0  0  0  0  0  0  0  0  0  0  0
   -3.1280   20.4280  -32.4410 C   0  0  0  0  0  0  0  0  0  0  0  0
   -1.6170   20.2470  -32.5980 C   0  0  0  0  0  0  0  0  0  0  0  0
   -0.8980   20.2320  -31.2680 C   0  0  0  0  0  0  0  0  0  0  0  0
   -1.1040   21.1490  -30.4830 O   0  0  0  0  0  0  0  0  0  0  0  0
    0.1120   19.1700  -30.8840 C   0  0  0  0  0  0  0  0  0  0  0  0
   -0.0920   18.6500  -29.5100 N   0  0  0  0  0  0  0  0  0  0  0  0
    0.9440   17.6400  -29.2260 C   0  0  0  0  0  0  0  0  0  0  0  0
   -0.0320   19.7450  -28.5100 C   0  0  0  0  0  0  0  0  0  0  0  0
   -0.6680   19.3140  -27.1770 C   0  0  0  0  0  0  0  0  0  0  0  0
   -2.1270   19.4750  -27.1810 N   0  0  0  0  0  0  0  0  0  0  0  0
   -2.9550   18.5870  -26.3590 C   0  0  0  0  0  0  0  0  0  0  0  0
   -2.7510   20.5590  -27.8960 C   0  0  0  0  0  0  0  0  0  0  0  0
   -3.2930   20.3450  -29.0180 O   0  0  0  0  0  0  0  0  0  0  0  0
   -2.7550   21.8510  -27.3570 O   0  0  0  0  0  0  0  0  0  0  0  0
   -1.5770   22.6510  -27.2760 C   0  0  0  0  0  0  0  0  0  0  0  0
   -1.9170   24.0150  -27.3670 O   0  0  0  0  0  0  0  0  0  0  0  0
   -0.9950   24.7380  -28.6060 P   0  0  2  0  0  0  0  0  0  0  0  0
    0.4530   24.8420  -28.1730 O   0  0  0  0  0  0  0  0  0  0  0  0
   -1.5880   26.2830  -28.9660 O   0  0  0  0  0  0  0  0  0  0  0  0
   -1.0840   23.7750  -29.9930 O   0  0  0  0  0  0  0  0  0  0  0  0
   -6.4120   22.0720  -31.4450 C   0  0  0  0  0  0  0  0  0  0  0  0
   -6.4570   20.7010  -31.7450 C   0  0  0  0  0  0  0  0  0  0  0  0
   -7.8478   18.0561  -31.3923 H   0  0  0  0  0  0  0  0  0  0  0  0
   -8.7215   18.4683  -32.9067 H   0  0  0  0  0  0  0  0  0  0  0  0
   -6.9289   18.3539  -32.9067 H   0  0  0  0  0  0  0  0  0  0  0  0
   -9.8676   20.4353  -32.1383 H   0  0  0  0  0  0  0  0  0  0  0  0
   -9.7228   22.8957  -31.6210 H   0  0  0  0  0  0  0  0  0  0  0  0
   -7.8765   24.9918  -31.0400 H   0  0  0  0  0  0  0  0  0  0  0  0
   -2.9840   24.8790  -30.0710 H   0  0  0  0  0  0  0  0  0  0  0  0
   -3.4587   19.9432  -31.5106 H   0  0  0  0  0  0  0  0  0  0  0  0
   -3.6388   19.9701  -33.3009 H   0  0  0  0  0  0  0  0  0  0  0  0
   -1.4269   19.2940  -33.1133 H   0  0  0  0  0  0  0  0  0  0  0  0
   -1.2348   21.1008  -33.1767 H   0  0  0  0  0  0  0  0  0  0  0  0
    0.0275   18.3327  -31.5924 H   0  0  0  0  0  0  0  0  0  0  0  0
    1.1085   19.6347  -30.9167 H   0  0  0  0  0  0  0  0  0  0  0  0
    1.0586   17.5283  -28.1377 H   0  0  0  0  0  0  0  0  0  0  0  0
    0.6462   16.6760  -29.6642 H   0  0  0  0  0  0  0  0  0  0  0  0
    1.9001   17.9622  -29.6642 H   0  0  0  0  0  0  0  0  0  0  0  0
    1.0200   20.0147  -28.3354 H   0  0  0  0  0  0  0  0  0  0  0  0
   -0.5924   20.6067  -28.9017 H   0  0  0  0  0  0  0  0  0  0  0  0
   -0.4289   18.2556  -26.9963 H   0  0  0  0  0  0  0  0  0  0  0  0
   -0.2594   19.9578  -26.3842 H   0  0  0  0  0  0  0  0  0  0  0  0
   -2.7656   18.7902  -25.2947 H   0  0  0  0  0  0  0  0  0  0  0  0
   -4.0172   18.7648  -26.5828 H   0  0  0  0  0  0  0  0  0  0  0  0
   -2.7034   17.5398  -26.5828 H   0  0  0  0  0  0  0  0  0  0  0  0
   -1.0741   22.4637  -26.3158 H   0  0  0  0  0  0  0  0  0  0  0  0
   -0.9036   22.3893  -28.1055 H   0  0  0  0  0  0  0  0  0  0  0  0
   -1.9690   23.9800  -30.3820 H   0  0  0  0  0  0  0  0  0  0  0  0
   -5.5339   20.1053  -31.7995 H   0  0  0  0  0  0  0  0  0  0  0  0
  1  2  1  0
  2  3  2  0
  3  4  1  0
  4  5  2  0
  5  6  1  0
  6  7  2  0
  7  8  1  0
  8  9  1  0
  8 10  2  0
  7 11  1  0
 11 12  1  0
 12 13  2  0
 12 14  1  0
 14 15  1  0
 15 16  1  0
 16 17  1  0
 17 18  2  0
 17 19  1  0
 19 20  1  0
 20 21  1  0
 20 22  1  0
 22 23  1  0
 23 24  1  0
 24 25  1  0
 24 26  1  0
 26 27  2  0
 26 28  1  0
 28 29  1  0
 29 30  1  0
 30 31  1  0
 31 32  2  0
 31 33  1  6
 31 34  1  0
 11 35  1  0
 35 36  2  0
 36  2  1  0
 35  5  1  0
  1 37  1  0
  1 38  1  0
  1 39  1  0
  3 40  1  0
  4 41  1  0
  6 42  1  0
  9 43  1  0
 15 44  1  0
 15 45  1  0
 16 46  1  0
 16 47  1  0
 19 48  1  0
 19 49  1  0
 21 50  1  0
 21 51  1  0
 21 52  1  0
 22 53  1  0
 22 54  1  0
 23 55  1  0
 23 56  1  0
 25 57  1  0
 25 58  1  0
 25 59  1  0
 29 60  1  0
 29 61  1  0
 34 62  1  0
 36 63  1  0
M  CHG  2   9  -1  33  -1
M  END
>  <UniqueID>  (75) 
75

>  <SMILES>  (75) 
Cc1ccc2cc(C([NH-])=O)n(C(=O)OCCC(=O)CN(C)CCN(C)C(=O)OCO[P@](=O)([O-])O)c2c1

>  <Energy>  (75) 
89.74121313617998

>  <Genealogy>  (75) 
Cc1ccc2cc(C([NH-])=O)n(C(=O)OCCC(=O)CN(C)CCN(C)C(=O)OCOP(=O)([O-])O)c2c1 (protonated)
Cc1ccc2cc(C([NH-])=O)n(C(=O)OCCC(=O)CN(C)CCN(C)C(=O)OCO[P@](=O)([O-])O)c2c1 (chirality)
Cc1ccc2cc(C([NH-])=O)n(C(=O)OCCC(=O)CN(C)CCN(C)C(=O)OCO[P@](=O)([O-])O)c2c1 (3D coordinates assigned)
Cc1ccc2cc(C([NH-])=O)n(C(=O)OCCC(=O)CN(C)CCN(C)C(=O)OCO[P@](=O)([O-])O)c2c1 (optimized conformer: 89.74121313617998 kcal/mol)

>  <smiles>  (75) 
Cc1ccc2cc(C(N)=O)n(C(=O)OCCC(=O)CN(C)CCN(C)C(=O)OCOP(=O)(O)O)c2c1

>  <score_type>  (75) 
oracle

>  <origin>  (75) 
adg

>  <m_score__min__energy>  (75) 
-12.800000000000001

>  <m_primary>  (75) 
energy

$$$$
76:0
     RDKit          3D

 46 47  0  0  0  0  0  0  0  0999 V2000
   -5.0330   23.0630  -32.6690 C   0  0  0  0  0  0  0  0  0  0  0  0
   -4.5810   22.7520  -31.3040 N   0  0  1  0  0  0  0  0  0  0  0  0
   -5.6640   22.9820  -30.3170 C   0  0  0  0  0  0  0  0  0  0  0  0
   -6.0770   24.4650  -30.2080 C   0  0  0  0  0  0  0  0  0  0  0  0
   -5.0360   25.3100  -30.6140 O   0  0  0  0  0  0  0  0  0  0  0  0
   -4.0340   21.4100  -31.2350 C   0  0  0  0  0  0  0  0  0  0  0  0
   -4.7380   20.4980  -30.8270 O   0  0  0  0  0  0  0  0  0  0  0  0
   -2.5930   21.1120  -31.5900 C   0  0  0  0  0  0  0  0  0  0  0  0
   -1.8740   22.3180  -31.7790 O   0  0  0  0  0  0  0  0  0  0  0  0
   -0.6080   22.2510  -31.1630 C   0  0  0  0  0  0  0  0  0  0  0  0
   -0.7170   22.7130  -29.7450 C   0  0  0  0  0  0  0  0  0  0  0  0
    0.0050   23.6630  -29.3330 O   0  0  0  0  0  0  0  0  0  0  0  0
   -1.6950   22.1400  -28.8670 N   0  0  0  0  0  0  0  0  0  0  0  0
   -2.8180   22.7350  -28.3850 C   0  0  0  0  0  0  0  0  0  0  0  0
   -3.2710   24.1090  -28.6940 C   0  0  0  0  0  0  0  0  0  0  0  0
   -2.6510   24.8800  -29.7170 N   0  0  0  0  0  0  0  0  0  0  0  0
   -4.2110   24.6180  -28.0220 O   0  0  0  0  0  0  0  0  0  0  0  0
   -3.4650   21.8890  -27.4860 C   0  0  0  0  0  0  0  0  0  0  0  0
   -2.6800   20.7640  -27.4130 C   0  0  0  0  0  0  0  0  0  0  0  0
   -2.8460   19.6070  -26.6570 C   0  0  0  0  0  0  0  0  0  0  0  0
   -1.8610   18.6080  -26.7600 C   0  0  0  0  0  0  0  0  0  0  0  0
   -0.7500   18.7700  -27.6320 C   0  0  0  0  0  0  0  0  0  0  0  0
    0.2480   17.6530  -27.7990 C   0  0  0  0  0  0  0  0  0  0  0  0
    0.2630   17.2070  -29.1100 F   0  0  0  0  0  0  0  0  0  0  0  0
    1.5080   18.1140  -27.4620 F   0  0  0  0  0  0  0  0  0  0  0  0
   -0.0720   16.5800  -26.9820 F   0  0  0  0  0  0  0  0  0  0  0  0
   -0.6370   19.9500  -28.4020 C   0  0  0  0  0  0  0  0  0  0  0  0
   -1.6160   20.9340  -28.2580 C   0  0  0  0  0  0  0  0  0  0  0  0
   -5.9384   23.6860  -32.6224 H   0  0  0  0  0  0  0  0  0  0  0  0
   -4.2402   23.6077  -33.2026 H   0  0  0  0  0  0  0  0  0  0  0  0
   -5.2584   22.1279  -33.2026 H   0  0  0  0  0  0  0  0  0  0  0  0
   -3.8080   23.4330  -31.0810 H   0  0  0  0  0  0  0  0  0  0  0  0
   -6.5437   22.3946  -30.6189 H   0  0  0  0  0  0  0  0  0  0  0  0
   -5.2821   22.6740  -29.3324 H   0  0  0  0  0  0  0  0  0  0  0  0
   -6.9536   24.6417  -30.8485 H   0  0  0  0  0  0  0  0  0  0  0  0
   -6.3153   24.6848  -29.1569 H   0  0  0  0  0  0  0  0  0  0  0  0
   -4.6280   25.6720  -29.7890 H   0  0  0  0  0  0  0  0  0  0  0  0
   -2.1297   20.5372  -30.7745 H   0  0  0  0  0  0  0  0  0  0  0  0
   -2.5672   20.5299  -32.5230 H   0  0  0  0  0  0  0  0  0  0  0  0
   -0.2452   21.2128  -31.1832 H   0  0  0  0  0  0  0  0  0  0  0  0
    0.0977   22.8974  -31.7054 H   0  0  0  0  0  0  0  0  0  0  0  0
   -3.2120   25.3020  -30.4960 H   0  0  0  0  0  0  0  0  0  0  0  0
   -4.4053   22.0814  -26.9486 H   0  0  0  0  0  0  0  0  0  0  0  0
   -3.7191   19.4781  -26.0004 H   0  0  0  0  0  0  0  0  0  0  0  0
   -1.9514   17.6911  -26.1590 H   0  0  0  0  0  0  0  0  0  0  0  0
    0.2030   20.0894  -29.0984 H   0  0  0  0  0  0  0  0  0  0  0  0
  1  2  1  0
  2  3  1  0
  3  4  1  0
  4  5  1  0
  2  6  1  0
  6  7  2  0
  6  8  1  0
  8  9  1  0
  9 10  1  0
 10 11  1  0
 11 12  2  0
 11 13  1  0
 13 14  1  0
 14 15  1  0
 15 16  1  0
 15 17  2  0
 14 18  2  0
 18 19  1  0
 19 20  2  0
 20 21  1  0
 21 22  2  0
 22 23  1  0
 23 24  1  0
 23 25  1  0
 23 26  1  0
 22 27  1  0
 27 28  2  0
 28 13  1  0
 28 19  1  0
  1 29  1  0
  1 30  1  0
  1 31  1  0
  2 32  1  1
  3 33  1  0
  3 34  1  0
  4 35  1  0
  4 36  1  0
  5 37  1  0
  8 38  1  0
  8 39  1  0
 10 40  1  0
 10 41  1  0
 16 42  1  0
 18 43  1  0
 20 44  1  0
 21 45  1  0
 27 46  1  0
M  CHG  2   2   1  16  -1
M  END
>  <UniqueID>  (76) 
76

>  <SMILES>  (76) 
C[N@@H+](CCO)C(=O)COCC(=O)n1c(C([NH-])=O)cc2ccc(C(F)(F)F)cc21

>  <Energy>  (76) 
88.26313261487246

>  <Genealogy>  (76) 
C[NH+](CCO)C(=O)COCC(=O)n1c(C([NH-])=O)cc2ccc(C(F)(F)F)cc21 (protonated)
C[N@@H+](CCO)C(=O)COCC(=O)n1c(C([NH-])=O)cc2ccc(C(F)(F)F)cc21 (chirality)
C[N@@H+](CCO)C(=O)COCC(=O)n1c(C([NH-])=O)cc2ccc(C(F)(F)F)cc21 (3D coordinates assigned)
C[N@@H+](CCO)C(=O)COCC(=O)n1c(C([NH-])=O)cc2ccc(C(F)(F)F)cc21 (optimized conformer: 88.26313261487246 kcal/mol)

>  <smiles>  (76) 
CN(CCO)C(=O)COCC(=O)n1c(C(N)=O)cc2ccc(C(F)(F)F)cc21

>  <score_type>  (76) 
oracle

>  <origin>  (76) 
adg

>  <m_score__min__energy>  (76) 
-8.9100000000000001

>  <m_primary>  (76) 
energy

$$$$
77:0
     RDKit          3D

 55 58  0  0  0  0  0  0  0  0999 V2000
   -0.2170   27.0100  -23.9380 C   0  0  0  0  0  0  0  0  0  0  0  0
   -1.2450   27.1230  -24.9820 N   0  0  0  0  0  0  0  0  0  0  0  0
   -1.9740   25.8350  -25.1550 C   0  0  0  0  0  0  0  0  0  0  0  0
   -2.0940   25.6850  -26.6520 C   0  0  2  0  0  0  0  0  0  0  0  0
   -2.2080   24.3990  -27.4330 C   0  0  0  0  0  0  0  0  0  0  0  0
   -1.6340   24.7350  -28.7690 N   0  0  0  0  0  0  0  0  0  0  0  0
   -0.7510   23.6630  -29.2730 C   0  0  0  0  0  0  0  0  0  0  0  0
   -1.5280   22.6740  -30.1510 C   0  0  0  0  0  0  0  0  0  0  0  0
   -2.8680   23.1250  -30.3380 O   0  0  0  0  0  0  0  0  0  0  0  0
   -3.6660   22.7300  -31.4190 C   0  0  0  0  0  0  0  0  0  0  0  0
   -3.1410   22.2550  -32.4620 O   0  0  0  0  0  0  0  0  0  0  0  0
   -5.0910   22.8890  -31.3460 N   0  0  0  0  0  0  0  0  0  0  0  0
   -5.7900   24.0210  -31.0490 C   0  0  0  0  0  0  0  0  0  0  0  0
   -5.2150   25.2920  -30.5590 C   0  0  0  0  0  0  0  0  0  0  0  0
   -3.8710   25.6570  -30.8680 N   0  0  0  0  0  0  0  0  0  0  0  0
   -5.9050   26.0420  -29.8160 O   0  0  0  0  0  0  0  0  0  0  0  0
   -7.1580   23.8010  -31.1900 C   0  0  0  0  0  0  0  0  0  0  0  0
   -7.2780   22.4850  -31.5770 C   0  0  0  0  0  0  0  0  0  0  0  0
   -8.4140   21.7410  -31.8830 C   0  0  0  0  0  0  0  0  0  0  0  0
   -8.2370   20.4100  -32.2960 C   0  0  0  0  0  0  0  0  0  0  0  0
   -6.9400   19.8430  -32.3880 C   0  0  0  0  0  0  0  0  0  0  0  0
   -6.7540   18.4240  -32.8800 C   0  0  0  0  0  0  0  0  0  0  0  0
   -6.0840   18.4220  -34.2500 C   0  0  0  0  0  0  0  0  0  0  0  0
   -5.9680   17.7110  -31.9890 F   0  0  0  0  0  0  0  0  0  0  0  0
   -7.9770   17.7800  -32.9720 F   0  0  0  0  0  0  0  0  0  0  0  0
   -5.8110   20.6400  -32.0870 C   0  0  0  0  0  0  0  0  0  0  0  0
   -6.0170   21.9570  -31.6640 C   0  0  0  0  0  0  0  0  0  0  0  0
   -0.8850   26.0100  -28.5880 C   0  0  0  0  0  0  0  0  0  0  0  0
   -0.7690   26.1630  -27.0920 C   0  0  1  0  0  0  0  0  0  0  0  0
   -0.6450   27.4460  -26.3070 C   0  0  0  0  0  0  0  0  0  0  0  0
   -0.6929   27.0623  -22.9476 H   0  0  0  0  0  0  0  0  0  0  0  0
    0.3076   26.0488  -24.0424 H   0  0  0  0  0  0  0  0  0  0  0  0
    0.5038   27.8343  -24.0424 H   0  0  0  0  0  0  0  0  0  0  0  0
   -1.4025   25.0005  -24.7225 H   0  0  0  0  0  0  0  0  0  0  0  0
   -2.9502   25.8283  -24.6481 H   0  0  0  0  0  0  0  0  0  0  0  0
   -3.0722   26.1503  -26.8430 H   0  0  0  0  0  0  0  0  0  0  0  0
   -1.6312   23.5962  -26.9505 H   0  0  0  0  0  0  0  0  0  0  0  0
   -3.2435   24.0334  -27.4972 H   0  0  0  0  0  0  0  0  0  0  0  0
    0.0571   24.1134  -29.8680 H   0  0  0  0  0  0  0  0  0  0  0  0
   -0.3389   23.1164  -28.4120 H   0  0  0  0  0  0  0  0  0  0  0  0
   -1.0330   22.5914  -31.1299 H   0  0  0  0  0  0  0  0  0  0  0  0
   -1.5468   21.6928  -29.6541 H   0  0  0  0  0  0  0  0  0  0  0  0
   -3.0720   25.2850  -30.3070 H   0  0  0  0  0  0  0  0  0  0  0  0
   -7.9701   24.5248  -31.0269 H   0  0  0  0  0  0  0  0  0  0  0  0
   -9.4188   22.1815  -31.8039 H   0  0  0  0  0  0  0  0  0  0  0  0
   -9.1157   19.7995  -32.5514 H   0  0  0  0  0  0  0  0  0  0  0  0
   -4.9913   18.4187  -34.1238 H   0  0  0  0  0  0  0  0  0  0  0  0
   -6.3914   17.5248  -34.8072 H   0  0  0  0  0  0  0  0  0  0  0  0
   -6.3861   19.3211  -34.8072 H   0  0  0  0  0  0  0  0  0  0  0  0
   -4.7936   20.2330  -32.1835 H   0  0  0  0  0  0  0  0  0  0  0  0
    0.1104   25.9467  -29.0519 H   0  0  0  0  0  0  0  0  0  0  0  0
   -1.3897   26.8654  -29.0607 H   0  0  0  0  0  0  0  0  0  0  0  0
    0.2093   25.6975  -26.9018 H   0  0  0  0  0  0  0  0  0  0  0  0
    0.4105   27.7357  -26.1972 H   0  0  0  0  0  0  0  0  0  0  0  0
   -1.1449   28.2922  -26.8009 H   0  0  0  0  0  0  0  0  0  0  0  0
  1  2  1  0
  2  3  1  0
  3  4  1  0
  4  5  1  0
  5  6  1  0
  6  7  1  0
  7  8  1  0
  8  9  1  0
  9 10  1  0
 10 11  2  0
 10 12  1  0
 12 13  1  0
 13 14  1  0
 14 15  1  0
 14 16  2  0
 13 17  2  0
 17 18  1  0
 18 19  2  0
 19 20  1  0
 20 21  2  0
 21 22  1  0
 22 23  1  0
 22 24  1  0
 22 25  1  0
 21 26  1  0
 26 27  2  0
  6 28  1  0
 28 29  1  0
 29 30  1  0
 30  2  1  0
 29  4  1  0
 27 12  1  0
 27 18  1  0
  1 31  1  0
  1 32  1  0
  1 33  1  0
  3 34  1  0
  3 35  1  0
  4 36  1  6
  5 37  1  0
  5 38  1  0
  7 39  1  0
  7 40  1  0
  8 41  1  0
  8 42  1  0
 15 43  1  0
 17 44  1  0
 19 45  1  0
 20 46  1  0
 23 47  1  0
 23 48  1  0
 23 49  1  0
 26 50  1  0
 28 51  1  0
 28 52  1  0
 29 53  1  1
 30 54  1  0
 30 55  1  0
M  CHG  1  15  -1
M  END
>  <UniqueID>  (77) 
77

>  <SMILES>  (77) 
CN1C[C@@H]2CN(CCOC(=O)n3c(C([NH-])=O)cc4ccc(C(C)(F)F)cc43)C[C@H]2C1

>  <Energy>  (77) 
126.74115347029492

>  <Genealogy>  (77) 
CN1CC2CN(CCOC(=O)n3c(C([NH-])=O)cc4ccc(C(C)(F)F)cc43)CC2C1 (protonated)
CN1C[C@@H]2CN(CCOC(=O)n3c(C([NH-])=O)cc4ccc(C(C)(F)F)cc43)C[C@H]2C1 (chirality)
CN1C[C@@H]2CN(CCOC(=O)n3c(C([NH-])=O)cc4ccc(C(C)(F)F)cc43)C[C@H]2C1 (3D coordinates assigned)
CN1C[C@@H]2CN(CCOC(=O)n3c(C([NH-])=O)cc4ccc(C(C)(F)F)cc43)C[C@H]2C1 (nonaromatic ring conformer: 126.74115347029492 kcal/mol)

>  <smiles>  (77) 
CN1CC2CN(CCOC(=O)n3c(C(N)=O)cc4ccc(C(C)(F)F)cc43)CC2C1

>  <score_type>  (77) 
oracle

>  <origin>  (77) 
adg

>  <m_score__min__energy>  (77) 
-12.029999999999999

>  <m_primary>  (77) 
energy

$$$$
78:0
     RDKit          3D

 31 32  0  0  0  0  0  0  0  0999 V2000
   -6.0020   18.3870  -32.6840 C   0  0  0  0  0  0  0  0  0  0  0  0
   -6.4580   19.7430  -32.2360 C   0  0  0  0  0  0  0  0  0  0  0  0
   -7.8290   20.0950  -32.3220 C   0  0  0  0  0  0  0  0  0  0  0  0
   -8.2650   21.3730  -31.9310 C   0  0  0  0  0  0  0  0  0  0  0  0
   -7.3100   22.2770  -31.4760 C   0  0  0  0  0  0  0  0  0  0  0  0
   -7.4530   23.5710  -31.0220 C   0  0  0  0  0  0  0  0  0  0  0  0
   -6.1630   23.9920  -30.6950 C   0  0  0  0  0  0  0  0  0  0  0  0
   -5.8400   25.3570  -30.2290 C   0  0  0  0  0  0  0  0  0  0  0  0
   -4.5680   25.9400  -30.5020 N   0  0  0  0  0  0  0  0  0  0  0  0
   -6.7070   26.0290  -29.6120 O   0  0  0  0  0  0  0  0  0  0  0  0
   -5.2650   22.9960  -30.9330 N   0  0  0  0  0  0  0  0  0  0  0  0
   -3.8580   22.9900  -30.6560 C   0  0  0  0  0  0  0  0  0  0  0  0
   -3.0370   23.1500  -31.5990 O   0  0  0  0  0  0  0  0  0  0  0  0
   -3.3570   22.6760  -29.2810 C   0  0  0  0  0  0  0  0  0  0  0  0
   -3.0360   24.2150  -28.3710 P   0  0  1  0  0  0  0  0  0  0  0  0
   -2.2160   23.9150  -27.1360 O   0  0  0  0  0  0  0  0  0  0  0  0
   -2.1880   25.2950  -29.3600 O   0  0  0  0  0  0  0  0  0  0  0  0
   -4.5100   24.9090  -27.9130 O   0  0  0  0  0  0  0  0  0  0  0  0
   -5.9790   21.9580  -31.4140 C   0  0  0  0  0  0  0  0  0  0  0  0
   -5.5160   20.6930  -31.7860 C   0  0  0  0  0  0  0  0  0  0  0  0
   -5.7917   17.7616  -31.8039 H   0  0  0  0  0  0  0  0  0  0  0  0
   -6.7912   17.9159  -33.2884 H   0  0  0  0  0  0  0  0  0  0  0  0
   -5.0886   18.4885  -33.2884 H   0  0  0  0  0  0  0  0  0  0  0  0
   -8.5576   19.3617  -32.6979 H   0  0  0  0  0  0  0  0  0  0  0  0
   -9.3283   21.6498  -31.9831 H   0  0  0  0  0  0  0  0  0  0  0  0
   -8.3852   24.1486  -30.9358 H   0  0  0  0  0  0  0  0  0  0  0  0
   -3.8470   26.0310  -29.7520 H   0  0  0  0  0  0  0  0  0  0  0  0
   -4.1138   22.0859  -28.7434 H   0  0  0  0  0  0  0  0  0  0  0  0
   -2.4225   22.1010  -29.3595 H   0  0  0  0  0  0  0  0  0  0  0  0
   -4.6450   25.6580  -28.5480 H   0  0  0  0  0  0  0  0  0  0  0  0
   -4.4460   20.4443  -31.7296 H   0  0  0  0  0  0  0  0  0  0  0  0
  1  2  1  0
  2  3  2  0
  3  4  1  0
  4  5  2  0
  5  6  1  0
  6  7  2  0
  7  8  1  0
  8  9  1  0
  8 10  2  0
  7 11  1  0
 11 12  1  0
 12 13  2  0
 12 14  1  0
 14 15  1  0
 15 16  2  0
 15 17  1  6
 15 18  1  0
 11 19  1  0
 19 20  2  0
 20  2  1  0
 19  5  1  0
  1 21  1  0
  1 22  1  0
  1 23  1  0
  3 24  1  0
  4 25  1  0
  6 26  1  0
  9 27  1  0
 14 28  1  0
 14 29  1  0
 18 30  1  0
 20 31  1  0
M  CHG  2   9  -1  17  -1
M  END
>  <UniqueID>  (78) 
78

>  <SMILES>  (78) 
Cc1ccc2cc(C([NH-])=O)n(C(=O)C[P@@](=O)([O-])O)c2c1

>  <Energy>  (78) 
63.87799367627129

>  <Genealogy>  (78) 
Cc1ccc2cc(C([NH-])=O)n(C(=O)CP(=O)([O-])O)c2c1 (protonated)
Cc1ccc2cc(C([NH-])=O)n(C(=O)C[P@@](=O)([O-])O)c2c1 (chirality)
Cc1ccc2cc(C([NH-])=O)n(C(=O)C[P@@](=O)([O-])O)c2c1 (3D coordinates assigned)
Cc1ccc2cc(C([NH-])=O)n(C(=O)C[P@@](=O)([O-])O)c2c1 (optimized conformer: 63.87799367627129 kcal/mol)

>  <smiles>  (78) 
Cc1ccc2cc(C(N)=O)n(C(=O)CP(=O)(O)O)c2c1

>  <score_type>  (78) 
oracle

>  <origin>  (78) 
adg

>  <m_score__min__energy>  (78) 
-11.6

>  <m_primary>  (78) 
energy

$$$$
79:0
     RDKit          3D

 41 42  0  0  0  0  0  0  0  0999 V2000
   -6.8550   17.1530  -32.8980 C   0  0  0  0  0  0  0  0  0  0  0  0
   -7.0040   18.3130  -32.6030 C   0  0  0  0  0  0  0  0  0  0  0  0
   -7.1810   19.6970  -32.2500 C   0  0  0  0  0  0  0  0  0  0  0  0
   -8.4600   20.2920  -32.3530 C   0  0  0  0  0  0  0  0  0  0  0  0
   -8.6440   21.6450  -32.0250 C   0  0  0  0  0  0  0  0  0  0  0  0
   -7.5350   22.3670  -31.5910 C   0  0  0  0  0  0  0  0  0  0  0  0
   -7.4260   23.6930  -31.2350 C   0  0  0  0  0  0  0  0  0  0  0  0
   -6.0890   23.8730  -30.8950 C   0  0  0  0  0  0  0  0  0  0  0  0
   -5.5480   25.1460  -30.3770 C   0  0  0  0  0  0  0  0  0  0  0  0
   -4.2170   25.5620  -30.6860 N   0  0  0  0  0  0  0  0  0  0  0  0
   -6.2520   25.8490  -29.6050 O   0  0  0  0  0  0  0  0  0  0  0  0
   -5.3920   22.7130  -31.0480 N   0  0  0  0  0  0  0  0  0  0  0  0
   -3.9770   22.5160  -30.8950 C   0  0  0  0  0  0  0  0  0  0  0  0
   -3.1690   23.1710  -31.6080 O   0  0  0  0  0  0  0  0  0  0  0  0
   -3.5000   21.6040  -29.9510 O   0  0  0  0  0  0  0  0  0  0  0  0
   -3.4640   21.8830  -28.5570 C   0  0  0  0  0  0  0  0  0  0  0  0
   -4.2110   23.1850  -28.2610 C   0  0  0  0  0  0  0  0  0  0  0  0
   -3.5250   24.0370  -27.1810 C   0  0  0  0  0  0  0  0  0  0  0  0
   -2.0710   24.0800  -27.3760 N   0  0  0  0  0  0  0  0  0  0  0  0
   -1.1920   23.2620  -26.5380 C   0  0  0  0  0  0  0  0  0  0  0  0
   -1.5170   24.8840  -28.4290 C   0  0  0  0  0  0  0  0  0  0  0  0
   -2.2380   25.2900  -29.3800 O   0  0  0  0  0  0  0  0  0  0  0  0
   -6.2920   21.7970  -31.4690 C   0  0  0  0  0  0  0  0  0  0  0  0
   -6.0780   20.4560  -31.8110 C   0  0  0  0  0  0  0  0  0  0  0  0
   -6.7191   16.0951  -33.1670 H   0  0  0  0  0  0  0  0  0  0  0  0
   -9.3164   19.6908  -32.6923 H   0  0  0  0  0  0  0  0  0  0  0  0
   -9.6329   22.1196  -32.1082 H   0  0  0  0  0  0  0  0  0  0  0  0
   -8.2254   24.4485  -31.2222 H   0  0  0  0  0  0  0  0  0  0  0  0
   -3.8640   26.4840  -30.3440 H   0  0  0  0  0  0  0  0  0  0  0  0
   -3.5510   24.9250  -31.1770 H   0  0  0  0  0  0  0  0  0  0  0  0
   -3.9409   21.0574  -28.0085 H   0  0  0  0  0  0  0  0  0  0  0  0
   -2.4165   21.9889  -28.2384 H   0  0  0  0  0  0  0  0  0  0  0  0
   -4.2697   23.7743  -29.1880 H   0  0  0  0  0  0  0  0  0  0  0  0
   -5.2082   22.9145  -27.8835 H   0  0  0  0  0  0  0  0  0  0  0  0
   -3.9227   25.0615  -27.2273 H   0  0  0  0  0  0  0  0  0  0  0  0
   -3.7294   23.5828  -26.2002 H   0  0  0  0  0  0  0  0  0  0  0  0
   -1.4064   23.4615  -25.4777 H   0  0  0  0  0  0  0  0  0  0  0  0
   -1.3665   22.1975  -26.7534 H   0  0  0  0  0  0  0  0  0  0  0  0
   -0.1428   23.5125  -26.7534 H   0  0  0  0  0  0  0  0  0  0  0  0
   -0.4497   25.1490  -28.4055 H   0  0  0  0  0  0  0  0  0  0  0  0
   -5.0762   20.0074  -31.7389 H   0  0  0  0  0  0  0  0  0  0  0  0
  1  2  3  0
  2  3  1  0
  3  4  2  0
  4  5  1  0
  5  6  2  0
  6  7  1  0
  7  8  2  0
  8  9  1  0
  9 10  1  0
  9 11  2  0
  8 12  1  0
 12 13  1  0
 13 14  2  0
 13 15  1  0
 15 16  1  0
 16 17  1  0
 17 18  1  0
 18 19  1  0
 19 20  1  0
 19 21  1  0
 21 22  2  0
 12 23  1  0
 23 24  2  0
 24  3  1  0
 23  6  1  0
  1 25  1  0
  4 26  1  0
  5 27  1  0
  7 28  1  0
 10 29  1  0
 10 30  1  0
 16 31  1  0
 16 32  1  0
 17 33  1  0
 17 34  1  0
 18 35  1  0
 18 36  1  0
 20 37  1  0
 20 38  1  0
 20 39  1  0
 21 40  1  0
 24 41  1  0
M  END
>  <UniqueID>  (79) 
79

>  <SMILES>  (79) 
C#Cc1ccc2cc(C(N)=O)n(C(=O)OCCCN(C)C=O)c2c1

>  <Energy>  (79) 
68.59502383666198

>  <Genealogy>  (79) 
C#Cc1ccc2cc(C(N)=O)n(C(=O)OCCCN(C)C=O)c2c1 (3D coordinates assigned)
C#Cc1ccc2cc(C(N)=O)n(C(=O)OCCCN(C)C=O)c2c1 (optimized conformer: 68.59502383666198 kcal/mol)

>  <smiles>  (79) 
C#Cc1ccc2cc(C(N)=O)n(C(=O)OCCCN(C)C=O)c2c1

>  <score_type>  (79) 
oracle

>  <origin>  (79) 
adg

>  <m_score__min__energy>  (79) 
-9.0399999999999991

>  <m_primary>  (79) 
energy

$$$$
80:0
     RDKit          3D

 35 36  0  0  0  0  0  0  0  0999 V2000
   -1.7920   22.2870  -31.4110 C   0  0  0  0  0  0  0  0  0  0  0  0
   -2.3850   23.0450  -30.2890 N   0  0  2  0  0  0  0  0  0  0  0  0
   -1.4300   23.1650  -29.1580 C   0  0  0  0  0  0  0  0  0  0  0  0
   -0.9160   24.5630  -28.9360 C   0  0  0  0  0  0  0  0  0  0  0  0
   -1.5870   25.5570  -29.3190 O   0  0  0  0  0  0  0  0  0  0  0  0
    0.2810   24.7650  -28.2600 O   0  0  0  0  0  0  0  0  0  0  0  0
   -3.6770   22.4960  -29.9000 C   0  0  0  0  0  0  0  0  0  0  0  0
   -3.7820   21.8080  -28.8460 O   0  0  0  0  0  0  0  0  0  0  0  0
   -4.8390   22.6310  -30.7400 N   0  0  0  0  0  0  0  0  0  0  0  0
   -5.5410   23.7730  -30.9860 C   0  0  0  0  0  0  0  0  0  0  0  0
   -5.1780   25.1290  -30.5180 C   0  0  0  0  0  0  0  0  0  0  0  0
   -3.9030   25.6750  -30.8450 N   0  0  0  0  0  0  0  0  0  0  0  0
   -5.9760   25.8050  -29.8170 O   0  0  0  0  0  0  0  0  0  0  0  0
   -6.6540   23.5010  -31.7790 C   0  0  0  0  0  0  0  0  0  0  0  0
   -6.6250   22.1420  -31.9930 C   0  0  0  0  0  0  0  0  0  0  0  0
   -7.5210   21.3280  -32.6780 C   0  0  0  0  0  0  0  0  0  0  0  0
   -7.2760   19.9460  -32.6920 C   0  0  0  0  0  0  0  0  0  0  0  0
   -6.1460   19.4020  -32.0280 C   0  0  0  0  0  0  0  0  0  0  0  0
   -5.9310   17.9100  -31.9920 C   0  0  0  0  0  0  0  0  0  0  0  0
   -6.8420   17.2980  -32.8330 F   0  0  0  0  0  0  0  0  0  0  0  0
   -4.6500   17.5900  -32.4040 F   0  0  0  0  0  0  0  0  0  0  0  0
   -6.1050   17.4230  -30.7070 F   0  0  0  0  0  0  0  0  0  0  0  0
   -5.2760   20.2620  -31.3190 C   0  0  0  0  0  0  0  0  0  0  0  0
   -5.5270   21.6380  -31.3470 C   0  0  0  0  0  0  0  0  0  0  0  0
   -1.1599   21.4790  -31.0141 H   0  0  0  0  0  0  0  0  0  0  0  0
   -2.5948   21.8556  -32.0269 H   0  0  0  0  0  0  0  0  0  0  0  0
   -1.1800   22.9624  -32.0269 H   0  0  0  0  0  0  0  0  0  0  0  0
   -2.5570   24.0110  -30.6490 H   0  0  0  0  0  0  0  0  0  0  0  0
   -1.9374   22.8332  -28.2402 H   0  0  0  0  0  0  0  0  0  0  0  0
   -0.5591   22.5419  -29.4094 H   0  0  0  0  0  0  0  0  0  0  0  0
   -3.0290   25.2860  -30.4280 H   0  0  0  0  0  0  0  0  0  0  0  0
   -7.3975   24.2197  -32.1541 H   0  0  0  0  0  0  0  0  0  0  0  0
   -8.3947   21.7542  -33.1929 H   0  0  0  0  0  0  0  0  0  0  0  0
   -7.9681   19.2767  -33.2240 H   0  0  0  0  0  0  0  0  0  0  0  0
   -4.4206   19.8580  -30.7577 H   0  0  0  0  0  0  0  0  0  0  0  0
  1  2  1  0
  2  3  1  0
  3  4  1  0
  4  5  2  0
  4  6  1  0
  2  7  1  0
  7  8  2  0
  7  9  1  0
  9 10  1  0
 10 11  1  0
 11 12  1  0
 11 13  2  0
 10 14  2  0
 14 15  1  0
 15 16  2  0
 16 17  1  0
 17 18  2  0
 18 19  1  0
 19 20  1  0
 19 21  1  0
 19 22  1  0
 18 23  1  0
 23 24  2  0
 24  9  1  0
 24 15  1  0
  1 25  1  0
  1 26  1  0
  1 27  1  0
  2 28  1  6
  3 29  1  0
  3 30  1  0
 12 31  1  0
 14 32  1  0
 16 33  1  0
 17 34  1  0
 23 35  1  0
M  CHG  3   2   1   6  -1  12  -1
M  END
>  <UniqueID>  (80) 
80

>  <SMILES>  (80) 
C[N@H+](CC(=O)[O-])C(=O)n1c(C([NH-])=O)cc2ccc(C(F)(F)F)cc21

>  <Energy>  (80) 
81.53444936318746

>  <Genealogy>  (80) 
C[NH+](CC(=O)[O-])C(=O)n1c(C([NH-])=O)cc2ccc(C(F)(F)F)cc21 (protonated)
C[N@H+](CC(=O)[O-])C(=O)n1c(C([NH-])=O)cc2ccc(C(F)(F)F)cc21 (chirality)
C[N@H+](CC(=O)[O-])C(=O)n1c(C([NH-])=O)cc2ccc(C(F)(F)F)cc21 (3D coordinates assigned)
C[N@H+](CC(=O)[O-])C(=O)n1c(C([NH-])=O)cc2ccc(C(F)(F)F)cc21 (optimized conformer: 81.53444936318746 kcal/mol)

>  <smiles>  (80) 
CN(CC(=O)O)C(=O)n1c(C(N)=O)cc2ccc(C(F)(F)F)cc21

>  <score_type>  (80) 
oracle

>  <origin>  (80) 
adg

>  <m_score__min__energy>  (80) 
-10.24

>  <m_primary>  (80) 
energy

$$$$
81:0
     RDKit          3D

 47 49  0  0  0  0  0  0  0  0999 V2000
   -6.6640   18.5400  -33.2350 C   0  0  0  0  0  0  0  0  0  0  0  0
   -6.8570   19.9190  -32.6800 C   0  0  0  0  0  0  0  0  0  0  0  0
   -8.1620   20.3980  -32.4060 C   0  0  0  0  0  0  0  0  0  0  0  0
   -8.3510   21.6740  -31.8480 C   0  0  0  0  0  0  0  0  0  0  0  0
   -7.2230   22.4410  -31.5710 C   0  0  0  0  0  0  0  0  0  0  0  0
   -7.1180   23.6860  -30.9960 C   0  0  0  0  0  0  0  0  0  0  0  0
   -5.7520   23.9500  -30.9320 C   0  0  0  0  0  0  0  0  0  0  0  0
   -5.1900   25.2260  -30.4430 C   0  0  0  0  0  0  0  0  0  0  0  0
   -3.8890   25.6560  -30.8380 N   0  0  0  0  0  0  0  0  0  0  0  0
   -5.8870   25.9690  -29.7010 O   0  0  0  0  0  0  0  0  0  0  0  0
   -5.0390   22.9060  -31.4430 N   0  0  0  0  0  0  0  0  0  0  0  0
   -3.6130   22.7430  -31.4580 C   0  0  0  0  0  0  0  0  0  0  0  0
   -3.0480   22.2780  -32.4840 O   0  0  0  0  0  0  0  0  0  0  0  0
   -2.8720   23.0710  -30.3140 O   0  0  0  0  0  0  0  0  0  0  0  0
   -3.2100   22.7160  -29.0000 C   0  0  0  0  0  0  0  0  0  0  0  0
   -4.3710   22.2950  -28.7350 O   0  0  0  0  0  0  0  0  0  0  0  0
   -2.2270   22.8380  -27.9410 N   0  0  0  0  0  0  0  0  0  0  0  0
   -1.4450   21.5890  -27.6890 C   0  0  0  0  0  0  0  0  0  0  0  0
   -1.5840   20.9280  -26.3260 C   0  0  0  0  0  0  0  0  0  0  0  0
   -2.2930   19.3780  -26.9800 S   0  0  0  0  0  0  0  0  0  0  0  0
   -1.9450   20.3810  -28.4630 C   0  0  0  0  0  0  0  0  0  0  0  0
   -2.0750   24.1690  -27.2530 C   0  0  0  0  0  0  0  0  0  0  0  0
   -1.0150   24.0690  -26.1360 C   0  0  0  0  0  0  0  0  0  0  0  0
   -3.3790   24.7620  -26.6680 C   0  0  0  0  0  0  0  0  0  0  0  0
   -1.6050   25.1840  -28.2280 C   0  0  0  0  0  0  0  0  0  0  0  0
   -1.2370   25.9790  -28.9860 N   0  0  0  0  0  0  0  0  0  0  0  0
   -5.9550   21.9900  -31.8300 C   0  0  0  0  0  0  0  0  0  0  0  0
   -5.7350   20.7170  -32.3670 C   0  0  0  0  0  0  0  0  0  0  0  0
   -6.5636   17.8224  -32.4074 H   0  0  0  0  0  0  0  0  0  0  0  0
   -7.5329   18.2683  -33.8525 H   0  0  0  0  0  0  0  0  0  0  0  0
   -5.7539   18.5173  -33.8525 H   0  0  0  0  0  0  0  0  0  0  0  0
   -9.0338   19.7664  -32.6317 H   0  0  0  0  0  0  0  0  0  0  0  0
   -9.3608   22.0554  -31.6364 H   0  0  0  0  0  0  0  0  0  0  0  0
   -7.9390   24.3356  -30.6582 H   0  0  0  0  0  0  0  0  0  0  0  0
   -3.0340   25.2800  -30.3700 H   0  0  0  0  0  0  0  0  0  0  0  0
   -0.4523   22.0037  -27.9184 H   0  0  0  0  0  0  0  0  0  0  0  0
   -0.6188   20.7793  -25.8198 H   0  0  0  0  0  0  0  0  0  0  0  0
   -2.1507   21.4646  -25.5508 H   0  0  0  0  0  0  0  0  0  0  0  0
   -1.1746   19.9370  -29.1106 H   0  0  0  0  0  0  0  0  0  0  0  0
   -2.7646   20.5359  -29.1802 H   0  0  0  0  0  0  0  0  0  0  0  0
   -1.5105   24.1157  -25.1550 H   0  0  0  0  0  0  0  0  0  0  0  0
   -0.4738   23.1158  -26.2284 H   0  0  0  0  0  0  0  0  0  0  0  0
   -0.3051   24.9042  -26.2284 H   0  0  0  0  0  0  0  0  0  0  0  0
   -3.3311   24.7402  -25.5693 H   0  0  0  0  0  0  0  0  0  0  0  0
   -3.4947   25.8013  -27.0094 H   0  0  0  0  0  0  0  0  0  0  0  0
   -4.2383   24.1661  -27.0094 H   0  0  0  0  0  0  0  0  0  0  0  0
   -4.7138   20.3471  -32.5410 H   0  0  0  0  0  0  0  0  0  0  0  0
  1  2  1  0
  2  3  2  0
  3  4  1  0
  4  5  2  0
  5  6  1  0
  6  7  2  0
  7  8  1  0
  8  9  1  0
  8 10  2  0
  7 11  1  0
 11 12  1  0
 12 13  2  0
 12 14  1  0
 14 15  1  0
 15 16  2  0
 15 17  1  0
 17 18  1  0
 18 19  1  0
 19 20  1  0
 20 21  1  0
 17 22  1  0
 22 23  1  0
 22 24  1  0
 22 25  1  0
 25 26  3  0
 11 27  1  0
 27 28  2  0
 28  2  1  0
 27  5  1  0
 21 18  1  0
  1 29  1  0
  1 30  1  0
  1 31  1  0
  3 32  1  0
  4 33  1  0
  6 34  1  0
  9 35  1  0
 18 36  1  0
 19 37  1  0
 19 38  1  0
 21 39  1  0
 21 40  1  0
 23 41  1  0
 23 42  1  0
 23 43  1  0
 24 44  1  0
 24 45  1  0
 24 46  1  0
 28 47  1  0
M  CHG  1   9  -1
M  END
>  <UniqueID>  (81) 
81

>  <SMILES>  (81) 
Cc1ccc2cc(C([NH-])=O)n(C(=O)OC(=O)N(C3CSC3)C(C)(C)C#N)c2c1

>  <Energy>  (81) 
136.3839029182778

>  <Genealogy>  (81) 
Cc1ccc2cc(C([NH-])=O)n(C(=O)OC(=O)N(C3CSC3)C(C)(C)C#N)c2c1 (protonated)
Cc1ccc2cc(C([NH-])=O)n(C(=O)OC(=O)N(C3CSC3)C(C)(C)C#N)c2c1 (3D coordinates assigned)
Cc1ccc2cc(C([NH-])=O)n(C(=O)OC(=O)N(C3CSC3)C(C)(C)C#N)c2c1 (nonaromatic ring conformer: 136.3839029182778 kcal/mol)

>  <smiles>  (81) 
Cc1ccc2cc(C(N)=O)n(C(=O)OC(=O)N(C3CSC3)C(C)(C)C#N)c2c1

>  <score_type>  (81) 
oracle

>  <origin>  (81) 
adg

>  <m_score__min__energy>  (81) 
-11.66

>  <m_primary>  (81) 
energy

$$$$
82:0
     RDKit          3D

 41 42  0  0  0  0  0  0  0  0999 V2000
   -8.4610   12.9120  -36.7120 C   0  0  0  0  0  0  0  0  0  0  0  0
   -8.3690   13.2530  -35.3340 O   0  0  0  0  0  0  0  0  0  0  0  0
   -7.2080   13.7830  -34.7640 C   0  0  0  0  0  0  0  0  0  0  0  0
   -6.2660   13.0220  -34.4060 O   0  0  0  0  0  0  0  0  0  0  0  0
   -7.0950   15.1990  -34.5920 N   0  0  0  0  0  0  0  0  0  0  0  0
   -5.9040   15.8050  -34.0020 C   0  0  0  0  0  0  0  0  0  0  0  0
   -6.1930   17.1660  -33.5360 C   0  0  0  0  0  0  0  0  0  0  0  0
   -6.4320   18.2830  -33.1540 C   0  0  0  0  0  0  0  0  0  0  0  0
   -6.7140   19.6190  -32.6980 C   0  0  0  0  0  0  0  0  0  0  0  0
   -8.0420   20.1050  -32.7200 C   0  0  0  0  0  0  0  0  0  0  0  0
   -8.3280   21.4110  -32.2880 C   0  0  0  0  0  0  0  0  0  0  0  0
   -7.2690   22.1960  -31.8370 C   0  0  0  0  0  0  0  0  0  0  0  0
   -7.2600   23.4970  -31.3930 C   0  0  0  0  0  0  0  0  0  0  0  0
   -5.9300   23.7740  -31.0850 C   0  0  0  0  0  0  0  0  0  0  0  0
   -5.4820   25.0490  -30.4890 C   0  0  0  0  0  0  0  0  0  0  0  0
   -4.2370   25.6350  -30.8620 N   0  0  0  0  0  0  0  0  0  0  0  0
   -6.1840   25.6040  -29.6010 O   0  0  0  0  0  0  0  0  0  0  0  0
   -5.1450   22.6890  -31.3370 N   0  0  0  0  0  0  0  0  0  0  0  0
   -3.7130   22.6040  -31.2470 C   0  0  0  0  0  0  0  0  0  0  0  0
   -3.0540   22.0740  -32.1830 O   0  0  0  0  0  0  0  0  0  0  0  0
   -3.0570   23.1280  -30.1310 O   0  0  0  0  0  0  0  0  0  0  0  0
   -1.6830   22.8830  -29.8610 C   0  0  0  0  0  0  0  0  0  0  0  0
   -1.0400   24.1960  -28.7890 P   0  0  0  0  0  0  0  0  0  0  0  0
   -1.5120   23.9710  -27.3720 O   0  0  0  0  0  0  0  0  0  0  0  0
    0.6510   24.1790  -28.8290 O   0  0  0  0  0  0  0  0  0  0  0  0
   -1.6000   25.6950  -29.3380 O   0  0  0  0  0  0  0  0  0  0  0  0
   -5.9800   21.7290  -31.7940 C   0  0  0  0  0  0  0  0  0  0  0  0
   -5.6640   20.4380  -32.2350 C   0  0  0  0  0  0  0  0  0  0  0  0
   -8.7464   11.8542  -36.8097 H   0  0  0  0  0  0  0  0  0  0  0  0
   -9.2210   13.5430  -37.1959 H   0  0  0  0  0  0  0  0  0  0  0  0
   -7.4867   13.0751  -37.1959 H   0  0  0  0  0  0  0  0  0  0  0  0
   -7.8970   15.7970  -34.9010 H   0  0  0  0  0  0  0  0  0  0  0  0
   -5.5722   15.1940  -33.1496 H   0  0  0  0  0  0  0  0  0  0  0  0
   -5.1148   15.8525  -34.7668 H   0  0  0  0  0  0  0  0  0  0  0  0
   -8.8557   19.4568  -33.0774 H   0  0  0  0  0  0  0  0  0  0  0  0
   -9.3562   21.8016  -32.3053 H   0  0  0  0  0  0  0  0  0  0  0  0
   -8.1208   24.1756  -31.3005 H   0  0  0  0  0  0  0  0  0  0  0  0
   -3.3350   25.2520  -30.5030 H   0  0  0  0  0  0  0  0  0  0  0  0
   -1.5751   21.9112  -29.3570 H   0  0  0  0  0  0  0  0  0  0  0  0
   -1.1187   22.8685  -30.8051 H   0  0  0  0  0  0  0  0  0  0  0  0
   -4.6263   20.0734  -32.2206 H   0  0  0  0  0  0  0  0  0  0  0  0
  1  2  1  0
  2  3  1  0
  3  4  2  0
  3  5  1  0
  5  6  1  0
  6  7  1  0
  7  8  3  0
  8  9  1  0
  9 10  2  0
 10 11  1  0
 11 12  2  0
 12 13  1  0
 13 14  2  0
 14 15  1  0
 15 16  1  0
 15 17  2  0
 14 18  1  0
 18 19  1  0
 19 20  2  0
 19 21  1  0
 21 22  1  0
 22 23  1  0
 23 24  2  0
 23 25  1  0
 23 26  1  0
 18 27  1  0
 27 28  2  0
 28  9  1  0
 27 12  1  0
  1 29  1  0
  1 30  1  0
  1 31  1  0
  5 32  1  0
  6 33  1  0
  6 34  1  0
 10 35  1  0
 11 36  1  0
 13 37  1  0
 16 38  1  0
 22 39  1  0
 22 40  1  0
 28 41  1  0
M  CHG  3  16  -1  25  -1  26  -1
M  END
>  <UniqueID>  (82) 
82

>  <SMILES>  (82) 
COC(=O)NCC#Cc1ccc2cc(C([NH-])=O)n(C(=O)OCP(=O)([O-])[O-])c2c1

>  <Energy>  (82) 
64.79821365543448

>  <Genealogy>  (82) 
COC(=O)NCC#Cc1ccc2cc(C([NH-])=O)n(C(=O)OCP(=O)([O-])[O-])c2c1 (protonated)
COC(=O)NCC#Cc1ccc2cc(C([NH-])=O)n(C(=O)OCP(=O)([O-])[O-])c2c1 (3D coordinates assigned)
COC(=O)NCC#Cc1ccc2cc(C([NH-])=O)n(C(=O)OCP(=O)([O-])[O-])c2c1 (optimized conformer: 64.79821365543448 kcal/mol)

>  <smiles>  (82) 
COC(=O)NCC#Cc1ccc2cc(C(N)=O)n(C(=O)OCP(=O)(O)O)c2c1

>  <score_type>  (82) 
oracle

>  <origin>  (82) 
adg

>  <m_score__min__energy>  (82) 
-14.35

>  <m_primary>  (82) 
energy

$$$$
83:0
     RDKit          3D

 49 51  0  0  0  0  0  0  0  0999 V2000
   -5.7910   25.1720  -29.0390 N   0  0  0  0  0  0  0  0  0  0  0  0
   -5.6040   24.8180  -30.4110 C   0  0  0  0  0  0  0  0  0  0  0  0
   -4.9980   25.6170  -31.1710 O   0  0  0  0  0  0  0  0  0  0  0  0
   -6.1000   23.5250  -30.9400 C   0  0  0  0  0  0  0  0  0  0  0  0
   -7.4430   23.2130  -31.1380 C   0  0  0  0  0  0  0  0  0  0  0  0
   -7.4530   21.9130  -31.5940 C   0  0  0  0  0  0  0  0  0  0  0  0
   -8.5190   21.1050  -31.9740 C   0  0  0  0  0  0  0  0  0  0  0  0
   -8.2310   19.8100  -32.4380 C   0  0  0  0  0  0  0  0  0  0  0  0
   -6.8930   19.3430  -32.5100 C   0  0  0  0  0  0  0  0  0  0  0  0
   -6.6000   17.9740  -33.0650 C   0  0  0  0  0  0  0  0  0  0  0  0
   -7.6240   17.0990  -32.7470 F   0  0  0  0  0  0  0  0  0  0  0  0
   -6.4860   18.0540  -34.4400 F   0  0  0  0  0  0  0  0  0  0  0  0
   -5.4200   17.4710  -32.5430 F   0  0  0  0  0  0  0  0  0  0  0  0
   -5.8370   20.2050  -32.1360 C   0  0  0  0  0  0  0  0  0  0  0  0
   -6.1560   21.4820  -31.6590 C   0  0  0  0  0  0  0  0  0  0  0  0
   -5.3160   22.4560  -31.2530 N   0  0  0  0  0  0  0  0  0  0  0  0
   -3.8840   22.3860  -31.2130 C   0  0  0  0  0  0  0  0  0  0  0  0
   -3.2090   23.4320  -31.4090 O   0  0  0  0  0  0  0  0  0  0  0  0
   -3.2080   21.0960  -30.8250 C   0  0  0  0  0  0  0  0  0  0  0  0
   -1.8440   21.2930  -30.1450 C   0  0  0  0  0  0  0  0  0  0  0  0
   -1.8780   20.9710  -28.6710 C   0  0  0  0  0  0  0  0  0  0  0  0
   -1.7860   19.7670  -28.3070 O   0  0  0  0  0  0  0  0  0  0  0  0
   -2.0840   21.9970  -27.6820 N   0  0  0  0  0  0  0  0  0  0  0  0
   -0.9390   22.5700  -26.9550 C   0  0  0  0  0  0  0  0  0  0  0  0
   -1.2840   23.9360  -26.3440 C   0  0  0  0  0  0  0  0  0  0  0  0
   -2.0960   24.7760  -27.3390 C   0  0  0  0  0  0  0  0  0  0  0  0
   -3.4140   24.0850  -27.7680 C   0  0  2  0  0  0  0  0  0  0  0  0
   -4.4940   24.6970  -27.1140 O   0  0  0  0  0  0  0  0  0  0  0  0
   -3.4200   22.5700  -27.4680 C   0  0  0  0  0  0  0  0  0  0  0  0
   -5.3940   26.0670  -28.6740 H   0  0  0  0  0  0  0  0  0  0  0  0
   -6.3460   24.5760  -28.3890 H   0  0  0  0  0  0  0  0  0  0  0  0
   -8.3114   23.8661  -30.9666 H   0  0  0  0  0  0  0  0  0  0  0  0
   -9.5556   21.4681  -31.9133 H   0  0  0  0  0  0  0  0  0  0  0  0
   -9.0538   19.1497  -32.7495 H   0  0  0  0  0  0  0  0  0  0  0  0
   -4.7893   19.8801  -32.2178 H   0  0  0  0  0  0  0  0  0  0  0  0
   -3.8669   20.5538  -30.1308 H   0  0  0  0  0  0  0  0  0  0  0  0
   -3.0258   20.5366  -31.7544 H   0  0  0  0  0  0  0  0  0  0  0  0
   -1.1092   20.6353  -30.6323 H   0  0  0  0  0  0  0  0  0  0  0  0
   -1.5707   22.3535  -30.2479 H   0  0  0  0  0  0  0  0  0  0  0  0
   -0.6475   21.8814  -26.1482 H   0  0  0  0  0  0  0  0  0  0  0  0
   -0.1137   22.7107  -27.6686 H   0  0  0  0  0  0  0  0  0  0  0  0
   -1.8758   23.7850  -25.4291 H   0  0  0  0  0  0  0  0  0  0  0  0
   -0.3505   24.4671  -26.1063 H   0  0  0  0  0  0  0  0  0  0  0  0
   -2.3408   25.7397  -26.8685 H   0  0  0  0  0  0  0  0  0  0  0  0
   -1.4812   24.9086  -28.2414 H   0  0  0  0  0  0  0  0  0  0  0  0
   -3.5040   24.1997  -28.8583 H   0  0  0  0  0  0  0  0  0  0  0  0
   -4.4550   25.6600  -27.3400 H   0  0  0  0  0  0  0  0  0  0  0  0
   -3.7192   22.4095  -26.4217 H   0  0  0  0  0  0  0  0  0  0  0  0
   -4.1314   22.0762  -28.1463 H   0  0  0  0  0  0  0  0  0  0  0  0
  1  2  1  0
  2  3  2  0
  2  4  1  0
  4  5  2  0
  5  6  1  0
  6  7  2  0
  7  8  1  0
  8  9  2  0
  9 10  1  0
 10 11  1  0
 10 12  1  0
 10 13  1  0
  9 14  1  0
 14 15  2  0
 15 16  1  0
 16 17  1  0
 17 18  2  0
 17 19  1  0
 19 20  1  0
 20 21  1  0
 21 22  2  0
 21 23  1  0
 23 24  1  0
 24 25  1  0
 25 26  1  0
 26 27  1  0
 27 28  1  0
 27 29  1  0
 16  4  1  0
 29 23  1  0
 15  6  1  0
  1 30  1  0
  1 31  1  0
  5 32  1  0
  7 33  1  0
  8 34  1  0
 14 35  1  0
 19 36  1  0
 19 37  1  0
 20 38  1  0
 20 39  1  0
 24 40  1  0
 24 41  1  0
 25 42  1  0
 25 43  1  0
 26 44  1  0
 26 45  1  0
 27 46  1  6
 28 47  1  0
 29 48  1  0
 29 49  1  0
M  END
>  <UniqueID>  (83) 
83

>  <SMILES>  (83) 
NC(=O)c1cc2ccc(C(F)(F)F)cc2n1C(=O)CCC(=O)N1CCC[C@H](O)C1

>  <Energy>  (83) 
92.44724099073426

>  <Genealogy>  (83) 
NC(=O)c1cc2ccc(C(F)(F)F)cc2n1C(=O)CCC(=O)N1CCC[C@H](O)C1 (chirality)
NC(=O)c1cc2ccc(C(F)(F)F)cc2n1C(=O)CCC(=O)N1CCC[C@H](O)C1 (3D coordinates assigned)
NC(=O)c1cc2ccc(C(F)(F)F)cc2n1C(=O)CCC(=O)N1CCC[C@H](O)C1 (nonaromatic ring conformer: 92.44724099073426 kcal/mol)

>  <smiles>  (83) 
NC(=O)c1cc2ccc(C(F)(F)F)cc2n1C(=O)CCC(=O)N1CCCC(O)C1

>  <score_type>  (83) 
oracle

>  <origin>  (83) 
adg

>  <m_score__min__energy>  (83) 
-9.6999999999999993

>  <m_primary>  (83) 
energy

$$$$
84:0
     RDKit          3D

 41 42  0  0  0  0  0  0  0  0999 V2000
   -5.7370   18.4670  -34.4550 C   0  0  0  0  0  0  0  0  0  0  0  0
   -6.8270   18.4440  -33.3880 C   0  0  0  0  0  0  0  0  0  0  0  0
   -6.9720   19.7950  -32.7430 C   0  0  0  0  0  0  0  0  0  0  0  0
   -8.2590   20.3500  -32.5360 C   0  0  0  0  0  0  0  0  0  0  0  0
   -8.4050   21.6300  -31.9740 C   0  0  0  0  0  0  0  0  0  0  0  0
   -7.2500   22.3280  -31.6330 C   0  0  0  0  0  0  0  0  0  0  0  0
   -7.1030   23.5880  -31.1030 C   0  0  0  0  0  0  0  0  0  0  0  0
   -5.7290   23.7810  -30.9820 C   0  0  0  0  0  0  0  0  0  0  0  0
   -5.1290   24.9820  -30.3640 C   0  0  0  0  0  0  0  0  0  0  0  0
   -3.8980   25.5160  -30.8440 N   0  0  0  0  0  0  0  0  0  0  0  0
   -5.6860   25.5150  -29.3680 O   0  0  0  0  0  0  0  0  0  0  0  0
   -5.0510   22.6860  -31.4310 N   0  0  0  0  0  0  0  0  0  0  0  0
   -3.6310   22.5140  -31.5520 C   0  0  0  0  0  0  0  0  0  0  0  0
   -3.1660   21.7590  -32.4490 O   0  0  0  0  0  0  0  0  0  0  0  0
   -2.7800   23.1680  -30.6520 O   0  0  0  0  0  0  0  0  0  0  0  0
   -2.7220   22.9250  -29.2730 C   0  0  0  0  0  0  0  0  0  0  0  0
   -2.4690   21.7680  -28.8310 O   0  0  0  0  0  0  0  0  0  0  0  0
   -2.9370   24.0200  -28.3560 N   0  0  1  0  0  0  0  0  0  0  0  0
   -4.0960   23.7310  -27.4960 C   0  0  0  0  0  0  0  0  0  0  0  0
   -1.7320   24.2760  -27.5400 C   0  0  0  0  0  0  0  0  0  0  0  0
   -0.8020   25.2400  -28.2210 C   0  0  0  0  0  0  0  0  0  0  0  0
    0.4000   25.3260  -27.8570 O   0  0  0  0  0  0  0  0  0  0  0  0
   -1.2570   26.0100  -29.2850 O   0  0  0  0  0  0  0  0  0  0  0  0
   -5.9970   21.8030  -31.8220 C   0  0  0  0  0  0  0  0  0  0  0  0
   -5.8220   20.5380  -32.3970 C   0  0  0  0  0  0  0  0  0  0  0  0
   -4.7498   18.4878  -33.9703 H   0  0  0  0  0  0  0  0  0  0  0  0
   -5.8187   17.5669  -35.0821 H   0  0  0  0  0  0  0  0  0  0  0  0
   -5.8566   19.3628  -35.0821 H   0  0  0  0  0  0  0  0  0  0  0  0
   -7.7826   18.1628  -33.8547 H   0  0  0  0  0  0  0  0  0  0  0  0
   -6.5483   17.7125  -32.6152 H   0  0  0  0  0  0  0  0  0  0  0  0
   -9.1525   19.7736  -32.8178 H   0  0  0  0  0  0  0  0  0  0  0  0
   -9.4010   22.0666  -31.8088 H   0  0  0  0  0  0  0  0  0  0  0  0
   -7.9016   24.2942  -30.8319 H   0  0  0  0  0  0  0  0  0  0  0  0
   -2.9950   25.2980  -30.3670 H   0  0  0  0  0  0  0  0  0  0  0  0
   -3.1640   24.8810  -28.9090 H   0  0  0  0  0  0  0  0  0  0  0  0
   -3.7968   23.8056  -26.4401 H   0  0  0  0  0  0  0  0  0  0  0  0
   -4.8960   24.4572  -27.7026 H   0  0  0  0  0  0  0  0  0  0  0  0
   -4.4614   22.7142  -27.7026 H   0  0  0  0  0  0  0  0  0  0  0  0
   -2.0388   24.6984  -26.5718 H   0  0  0  0  0  0  0  0  0  0  0  0
   -1.2004   23.3232  -27.4000 H   0  0  0  0  0  0  0  0  0  0  0  0
   -4.8146   20.1336  -32.5746 H   0  0  0  0  0  0  0  0  0  0  0  0
  1  2  1  0
  2  3  1  0
  3  4  2  0
  4  5  1  0
  5  6  2  0
  6  7  1  0
  7  8  2  0
  8  9  1  0
  9 10  1  0
  9 11  2  0
  8 12  1  0
 12 13  1  0
 13 14  2  0
 13 15  1  0
 15 16  1  0
 16 17  2  0
 16 18  1  0
 18 19  1  0
 18 20  1  0
 20 21  1  0
 21 22  2  0
 21 23  1  0
 12 24  1  0
 24 25  2  0
 25  3  1  0
 24  6  1  0
  1 26  1  0
  1 27  1  0
  1 28  1  0
  2 29  1  0
  2 30  1  0
  4 31  1  0
  5 32  1  0
  7 33  1  0
 10 34  1  0
 18 35  1  6
 19 36  1  0
 19 37  1  0
 19 38  1  0
 20 39  1  0
 20 40  1  0
 25 41  1  0
M  CHG  3  10  -1  18   1  23  -1
M  END
>  <UniqueID>  (84) 
84

>  <SMILES>  (84) 
CCc1ccc2cc(C([NH-])=O)n(C(=O)OC(=O)[N@@H+](C)CC(=O)[O-])c2c1

>  <Energy>  (84) 
78.6722131515991

>  <Genealogy>  (84) 
CCc1ccc2cc(C([NH-])=O)n(C(=O)OC(=O)[NH+](C)CC(=O)[O-])c2c1 (protonated)
CCc1ccc2cc(C([NH-])=O)n(C(=O)OC(=O)[N@@H+](C)CC(=O)[O-])c2c1 (chirality)
CCc1ccc2cc(C([NH-])=O)n(C(=O)OC(=O)[N@@H+](C)CC(=O)[O-])c2c1 (3D coordinates assigned)
CCc1ccc2cc(C([NH-])=O)n(C(=O)OC(=O)[N@@H+](C)CC(=O)[O-])c2c1 (optimized conformer: 78.6722131515991 kcal/mol)

>  <smiles>  (84) 
CCc1ccc2cc(C(N)=O)n(C(=O)OC(=O)N(C)CC(=O)O)c2c1

>  <score_type>  (84) 
oracle

>  <origin>  (84) 
adg

>  <m_score__min__energy>  (84) 
-11.82

>  <m_primary>  (84) 
energy

$$$$
85:0
     RDKit          3D

 41 43  0  0  0  0  0  0  0  0999 V2000
   -2.5480   20.6480  -29.8960 C   0  0  0  0  0  0  0  0  0  0  0  0
   -3.2340   21.9350  -29.7620 N   0  0  0  0  0  0  0  0  0  0  0  0
   -3.8120   22.5120  -30.9540 C   0  0  0  0  0  0  0  0  0  0  0  0
   -3.0870   22.6920  -31.9690 O   0  0  0  0  0  0  0  0  0  0  0  0
   -5.2190   22.7860  -31.0380 N   0  0  0  0  0  0  0  0  0  0  0  0
   -5.8590   23.9840  -30.9070 C   0  0  0  0  0  0  0  0  0  0  0  0
   -5.2400   25.2820  -30.5500 C   0  0  0  0  0  0  0  0  0  0  0  0
   -3.8660   25.5520  -30.8130 N   0  0  0  0  0  0  0  0  0  0  0  0
   -5.9410   26.1730  -29.9990 O   0  0  0  0  0  0  0  0  0  0  0  0
   -7.2230   23.8360  -31.1540 C   0  0  0  0  0  0  0  0  0  0  0  0
   -7.3970   22.5090  -31.4730 C   0  0  0  0  0  0  0  0  0  0  0  0
   -8.5500   21.8140  -31.8230 C   0  0  0  0  0  0  0  0  0  0  0  0
   -8.4300   20.4480  -32.1280 C   0  0  0  0  0  0  0  0  0  0  0  0
   -7.1630   19.8080  -32.1050 C   0  0  0  0  0  0  0  0  0  0  0  0
   -7.0510   18.3310  -32.3870 C   0  0  0  0  0  0  0  0  0  0  0  0
   -6.5430   18.1140  -33.6560 F   0  0  0  0  0  0  0  0  0  0  0  0
   -6.2060   17.7240  -31.4730 F   0  0  0  0  0  0  0  0  0  0  0  0
   -8.3030   17.7550  -32.2960 F   0  0  0  0  0  0  0  0  0  0  0  0
   -6.0180   20.5470  -31.7270 C   0  0  0  0  0  0  0  0  0  0  0  0
   -6.1720   21.9020  -31.4110 C   0  0  0  0  0  0  0  0  0  0  0  0
   -3.0150   22.7030  -28.5150 C   0  0  1  0  0  0  0  0  0  0  0  0
   -1.9810   23.8010  -28.6260 C   0  0  0  0  0  0  0  0  0  0  0  0
   -2.3680   24.7590  -27.5100 C   0  0  0  0  0  0  0  0  0  0  0  0
   -3.7850   24.5500  -27.1950 N   0  0  0  0  0  0  0  0  0  0  0  0
   -4.2520   23.4260  -28.0110 C   0  0  0  0  0  0  0  0  0  0  0  0
   -2.3316   20.2421  -28.8968 H   0  0  0  0  0  0  0  0  0  0  0  0
   -3.1912   19.9452  -30.4459 H   0  0  0  0  0  0  0  0  0  0  0  0
   -1.6060   20.7901  -30.4459 H   0  0  0  0  0  0  0  0  0  0  0  0
   -3.2070   24.7850  -31.0730 H   0  0  0  0  0  0  0  0  0  0  0  0
   -7.9971   24.6159  -31.1043 H   0  0  0  0  0  0  0  0  0  0  0  0
   -9.5266   22.3190  -31.8598 H   0  0  0  0  0  0  0  0  0  0  0  0
   -9.3278   19.8678  -32.3875 H   0  0  0  0  0  0  0  0  0  0  0  0
   -5.0288   20.0679  -31.6823 H   0  0  0  0  0  0  0  0  0  0  0  0
   -2.6893   21.9040  -27.8327 H   0  0  0  0  0  0  0  0  0  0  0  0
   -0.9667   23.4044  -28.4711 H   0  0  0  0  0  0  0  0  0  0  0  0
   -1.9641   24.2783  -29.6169 H   0  0  0  0  0  0  0  0  0  0  0  0
   -1.7553   24.5588  -26.6187 H   0  0  0  0  0  0  0  0  0  0  0  0
   -2.1995   25.7987  -27.8273 H   0  0  0  0  0  0  0  0  0  0  0  0
   -4.3240   25.4080  -27.4610 H   0  0  0  0  0  0  0  0  0  0  0  0
   -4.8659   22.7459  -27.4022 H   0  0  0  0  0  0  0  0  0  0  0  0
   -4.8711   23.7783  -28.8492 H   0  0  0  0  0  0  0  0  0  0  0  0
  1  2  1  0
  2  3  1  0
  3  4  2  0
  3  5  1  0
  5  6  1  0
  6  7  1  0
  7  8  1  0
  7  9  2  0
  6 10  2  0
 10 11  1  0
 11 12  2  0
 12 13  1  0
 13 14  2  0
 14 15  1  0
 15 16  1  0
 15 17  1  0
 15 18  1  0
 14 19  1  0
 19 20  2  0
  2 21  1  0
 21 22  1  0
 22 23  1  0
 23 24  1  0
 24 25  1  0
 20  5  1  0
 25 21  1  0
 20 11  1  0
  1 26  1  0
  1 27  1  0
  1 28  1  0
  8 29  1  0
 10 30  1  0
 12 31  1  0
 13 32  1  0
 19 33  1  0
 21 34  1  1
 22 35  1  0
 22 36  1  0
 23 37  1  0
 23 38  1  0
 24 39  1  0
 25 40  1  0
 25 41  1  0
M  CHG  1   8  -1
M  END
>  <UniqueID>  (85) 
85

>  <SMILES>  (85) 
CN(C(=O)n1c(C([NH-])=O)cc2ccc(C(F)(F)F)cc21)[C@H]1CCNC1

>  <Energy>  (85) 
87.56796973252092

>  <Genealogy>  (85) 
CN(C(=O)n1c(C([NH-])=O)cc2ccc(C(F)(F)F)cc21)[C@H]1CCNC1 (protonated)
CN(C(=O)n1c(C([NH-])=O)cc2ccc(C(F)(F)F)cc21)[C@H]1CCNC1 (3D coordinates assigned)
CN(C(=O)n1c(C([NH-])=O)cc2ccc(C(F)(F)F)cc21)[C@H]1CCNC1 (nonaromatic ring conformer: 87.56796973252092 kcal/mol)

>  <smiles>  (85) 
CN(C(=O)n1c(C(N)=O)cc2ccc(C(F)(F)F)cc21)[C@H]1CCNC1

>  <score_type>  (85) 
oracle

>  <origin>  (85) 
adg

>  <m_score__min__energy>  (85) 
-10.84

>  <m_primary>  (85) 
energy

$$$$
86:0
     RDKit          3D

 37 38  0  0  0  0  0  0  0  0999 V2000
   -9.6730   21.6750  -31.2250 C   0  0  0  0  0  0  0  0  0  0  0  0
   -8.5660   20.8240  -31.7730 C   0  0  0  0  0  0  0  0  0  0  0  0
   -8.8120   19.4820  -32.1570 C   0  0  0  0  0  0  0  0  0  0  0  0
   -7.7830   18.6960  -32.7030 C   0  0  0  0  0  0  0  0  0  0  0  0
   -6.5250   19.2730  -32.8490 C   0  0  0  0  0  0  0  0  0  0  0  0
   -5.3720   18.7490  -33.3800 C   0  0  0  0  0  0  0  0  0  0  0  0
   -4.4390   19.7760  -33.3120 C   0  0  0  0  0  0  0  0  0  0  0  0
   -3.0580   19.6340  -33.8050 C   0  0  0  0  0  0  0  0  0  0  0  0
   -2.3040   20.7770  -34.2070 N   0  0  0  0  0  0  0  0  0  0  0  0
   -2.5730   18.4820  -33.9640 O   0  0  0  0  0  0  0  0  0  0  0  0
   -4.9750   20.8890  -32.7300 N   0  0  0  0  0  0  0  0  0  0  0  0
   -4.2890   22.0930  -32.3300 C   0  0  0  0  0  0  0  0  0  0  0  0
   -3.0450   22.0840  -32.1340 O   0  0  0  0  0  0  0  0  0  0  0  0
   -5.0140   23.2750  -32.1300 O   0  0  0  0  0  0  0  0  0  0  0  0
   -5.4420   23.7240  -30.8460 C   0  0  0  0  0  0  0  0  0  0  0  0
   -4.8950   25.0880  -30.5720 C   0  0  0  0  0  0  0  0  0  0  0  0
   -5.6570   26.0910  -30.6110 O   0  0  0  0  0  0  0  0  0  0  0  0
   -3.5010   25.2440  -30.2850 N   0  0  0  0  0  0  0  0  0  0  0  0
   -2.8080   24.5260  -29.2230 C   0  0  0  0  0  0  0  0  0  0  0  0
   -1.4320   25.0810  -29.0360 C   0  0  0  0  0  0  0  0  0  0  0  0
   -0.4390   24.3100  -28.9690 O   0  0  0  0  0  0  0  0  0  0  0  0
   -1.2430   26.4550  -28.9610 O   0  0  0  0  0  0  0  0  0  0  0  0
   -6.2630   20.5660  -32.4660 C   0  0  0  0  0  0  0  0  0  0  0  0
   -7.2780   21.3770  -31.9370 C   0  0  0  0  0  0  0  0  0  0  0  0
   -9.6432   21.6521  -30.1256 H   0  0  0  0  0  0  0  0  0  0  0  0
   -9.5464   22.7105  -31.5737 H   0  0  0  0  0  0  0  0  0  0  0  0
  -10.6412   21.2864  -31.5737 H   0  0  0  0  0  0  0  0  0  0  0  0
   -9.8162   19.0524  -32.0266 H   0  0  0  0  0  0  0  0  0  0  0  0
   -7.9666   17.6547  -33.0063 H   0  0  0  0  0  0  0  0  0  0  0  0
   -5.2198   17.7336  -33.7746 H   0  0  0  0  0  0  0  0  0  0  0  0
   -2.7430   21.7250  -34.2300 H   0  0  0  0  0  0  0  0  0  0  0  0
   -1.3230   20.6670  -34.5480 H   0  0  0  0  0  0  0  0  0  0  0  0
   -6.5411   23.7606  -30.8208 H   0  0  0  0  0  0  0  0  0  0  0  0
   -5.0739   23.0269  -30.0789 H   0  0  0  0  0  0  0  0  0  0  0  0
   -3.3727   24.6313  -28.2849 H   0  0  0  0  0  0  0  0  0  0  0  0
   -2.7319   23.4638  -29.4987 H   0  0  0  0  0  0  0  0  0  0  0  0
   -7.0745   22.4209  -31.6562 H   0  0  0  0  0  0  0  0  0  0  0  0
  1  2  1  0
  2  3  2  0
  3  4  1  0
  4  5  2  0
  5  6  1  0
  6  7  2  0
  7  8  1  0
  8  9  1  0
  8 10  2  0
  7 11  1  0
 11 12  1  0
 12 13  2  0
 12 14  1  0
 14 15  1  0
 15 16  1  0
 16 17  2  0
 16 18  1  0
 18 19  1  0
 19 20  1  0
 20 21  2  0
 20 22  1  0
 11 23  1  0
 23 24  2  0
 24  2  1  0
 23  5  1  0
  1 25  1  0
  1 26  1  0
  1 27  1  0
  3 28  1  0
  4 29  1  0
  6 30  1  0
  9 31  1  0
  9 32  1  0
 15 33  1  0
 15 34  1  0
 19 35  1  0
 19 36  1  0
 24 37  1  0
M  CHG  2  18  -1  22  -1
M  END
>  <UniqueID>  (86) 
86

>  <SMILES>  (86) 
Cc1ccc2cc(C(N)=O)n(C(=O)OCC(=O)[N-]CC(=O)[O-])c2c1

>  <Energy>  (86) 
72.62120281035861

>  <Genealogy>  (86) 
Cc1ccc2cc(C(N)=O)n(C(=O)OCC(=O)[N-]CC(=O)[O-])c2c1 (protonated)
Cc1ccc2cc(C(N)=O)n(C(=O)OCC(=O)[N-]CC(=O)[O-])c2c1 (3D coordinates assigned)
Cc1ccc2cc(C(N)=O)n(C(=O)OCC(=O)[N-]CC(=O)[O-])c2c1 (optimized conformer: 72.62120281035861 kcal/mol)

>  <smiles>  (86) 
Cc1ccc2cc(C(N)=O)n(C(=O)OCC(=O)NCC(=O)O)c2c1

>  <score_type>  (86) 
oracle

>  <origin>  (86) 
adg

>  <m_score__min__energy>  (86) 
-12.24

>  <m_primary>  (86) 
energy

$$$$
87:0
     RDKit          3D

 32 33  0  0  0  0  0  0  0  0999 V2000
   -6.8610   18.2790  -32.3830 C   0  0  0  0  0  0  0  0  0  0  0  0
   -7.0440   19.7350  -32.0760 C   0  0  0  0  0  0  0  0  0  0  0  0
   -8.3190   20.3370  -32.2230 C   0  0  0  0  0  0  0  0  0  0  0  0
   -8.4930   21.7100  -31.9840 C   0  0  0  0  0  0  0  0  0  0  0  0
   -7.3780   22.4540  -31.6060 C   0  0  0  0  0  0  0  0  0  0  0  0
   -7.2600   23.7980  -31.3430 C   0  0  0  0  0  0  0  0  0  0  0  0
   -5.9170   23.9980  -31.0300 C   0  0  0  0  0  0  0  0  0  0  0  0
   -5.3700   25.2990  -30.5930 C   0  0  0  0  0  0  0  0  0  0  0  0
   -4.0150   25.6510  -30.8550 N   0  0  0  0  0  0  0  0  0  0  0  0
   -6.0960   26.0910  -29.9340 O   0  0  0  0  0  0  0  0  0  0  0  0
   -5.2280   22.8230  -31.1080 N   0  0  0  0  0  0  0  0  0  0  0  0
   -3.8170   22.6140  -30.9450 C   0  0  0  0  0  0  0  0  0  0  0  0
   -3.0670   22.5950  -31.9590 O   0  0  0  0  0  0  0  0  0  0  0  0
   -3.2960   22.4040  -29.6610 O   0  0  0  0  0  0  0  0  0  0  0  0
   -2.9860   23.4160  -28.7430 C   0  0  0  0  0  0  0  0  0  0  0  0
   -3.8420   24.2800  -28.4050 O   0  0  0  0  0  0  0  0  0  0  0  0
   -1.6300   23.4380  -28.1180 C   0  0  0  0  0  0  0  0  0  0  0  0
   -0.8230   24.5550  -28.6930 C   0  0  0  0  0  0  0  0  0  0  0  0
    0.4330   24.5470  -28.5900 O   0  0  0  0  0  0  0  0  0  0  0  0
   -1.4570   25.6300  -29.3000 O   0  0  0  0  0  0  0  0  0  0  0  0
   -6.1390   21.8870  -31.4580 C   0  0  0  0  0  0  0  0  0  0  0  0
   -5.9320   20.5250  -31.7090 C   0  0  0  0  0  0  0  0  0  0  0  0
   -6.7898   17.7122  -31.4430 H   0  0  0  0  0  0  0  0  0  0  0  0
   -7.7206   17.9163  -32.9656 H   0  0  0  0  0  0  0  0  0  0  0  0
   -5.9384   18.1403  -32.9656 H   0  0  0  0  0  0  0  0  0  0  0  0
   -9.1798   19.7233  -32.5270 H   0  0  0  0  0  0  0  0  0  0  0  0
   -9.4800   22.1834  -32.0921 H   0  0  0  0  0  0  0  0  0  0  0  0
   -8.0571   24.5554  -31.3732 H   0  0  0  0  0  0  0  0  0  0  0  0
   -3.2370   25.2650  -30.2740 H   0  0  0  0  0  0  0  0  0  0  0  0
   -1.7312   23.5826  -27.0322 H   0  0  0  0  0  0  0  0  0  0  0  0
   -1.1226   22.4833  -28.3205 H   0  0  0  0  0  0  0  0  0  0  0  0
   -4.9290   20.0816  -31.6226 H   0  0  0  0  0  0  0  0  0  0  0  0
  1  2  1  0
  2  3  2  0
  3  4  1  0
  4  5  2  0
  5  6  1  0
  6  7  2  0
  7  8  1  0
  8  9  1  0
  8 10  2  0
  7 11  1  0
 11 12  1  0
 12 13  2  0
 12 14  1  0
 14 15  1  0
 15 16  2  0
 15 17  1  0
 17 18  1  0
 18 19  2  0
 18 20  1  0
 11 21  1  0
 21 22  2  0
 22  2  1  0
 21  5  1  0
  1 23  1  0
  1 24  1  0
  1 25  1  0
  3 26  1  0
  4 27  1  0
  6 28  1  0
  9 29  1  0
 17 30  1  0
 17 31  1  0
 22 32  1  0
M  CHG  2   9  -1  20  -1
M  END
>  <UniqueID>  (87) 
87

>  <SMILES>  (87) 
Cc1ccc2cc(C([NH-])=O)n(C(=O)OC(=O)CC(=O)[O-])c2c1

>  <Energy>  (87) 
69.34142310699225

>  <Genealogy>  (87) 
Cc1ccc2cc(C([NH-])=O)n(C(=O)OC(=O)CC(=O)[O-])c2c1 (protonated)
Cc1ccc2cc(C([NH-])=O)n(C(=O)OC(=O)CC(=O)[O-])c2c1 (3D coordinates assigned)
Cc1ccc2cc(C([NH-])=O)n(C(=O)OC(=O)CC(=O)[O-])c2c1 (optimized conformer: 69.34142310699225 kcal/mol)

>  <smiles>  (87) 
Cc1ccc2cc(C(N)=O)n(C(=O)OC(=O)CC(=O)O)c2c1

>  <score_type>  (87) 
oracle

>  <origin>  (87) 
adg

>  <m_score__min__energy>  (87) 
-12.25

>  <m_primary>  (87) 
energy

$$$$
88:0
     RDKit          3D

 51 53  0  0  0  0  0  0  0  0999 V2000
   -3.1710   25.3050  -30.5070 H   0  0  0  0  0  0  0  0  0  0  0  0
   -4.1280   25.5490  -30.8420 N   0  0  0  0  0  0  0  0  0  0  0  0
   -5.2810   24.9210  -30.2860 C   0  0  0  0  0  0  0  0  0  0  0  0
   -5.8230   25.4220  -29.2650 O   0  0  0  0  0  0  0  0  0  0  0  0
   -5.8520   23.7220  -30.9350 C   0  0  0  0  0  0  0  0  0  0  0  0
   -7.2140   23.5550  -31.1740 C   0  0  0  0  0  0  0  0  0  0  0  0
   -8.0192   24.2785  -30.9784 H   0  0  0  0  0  0  0  0  0  0  0  0
   -7.3380   22.2920  -31.7070 C   0  0  0  0  0  0  0  0  0  0  0  0
   -8.4680   21.6160  -32.1430 C   0  0  0  0  0  0  0  0  0  0  0  0
   -9.4652   22.0743  -32.0683 H   0  0  0  0  0  0  0  0  0  0  0  0
   -8.3030   20.3310  -32.6820 C   0  0  0  0  0  0  0  0  0  0  0  0
   -9.1860   19.7742  -33.0287 H   0  0  0  0  0  0  0  0  0  0  0  0
   -7.0130   19.7330  -32.7890 C   0  0  0  0  0  0  0  0  0  0  0  0
   -6.8510   18.4020  -33.3590 N   0  0  0  0  0  0  0  0  0  0  0  0
   -6.0970   18.2060  -34.6050 C   0  0  0  0  0  0  0  0  0  0  0  0
   -5.0578   17.9359  -34.3661 H   0  0  0  0  0  0  0  0  0  0  0  0
   -6.5604   17.3985  -35.1908 H   0  0  0  0  0  0  0  0  0  0  0  0
   -6.1084   19.1370  -35.1908 H   0  0  0  0  0  0  0  0  0  0  0  0
   -7.4410   17.2280  -32.7000 C   0  0  0  0  0  0  0  0  0  0  0  0
   -7.3794   17.3506  -31.6086 H   0  0  0  0  0  0  0  0  0  0  0  0
   -8.4951   17.1307  -32.9991 H   0  0  0  0  0  0  0  0  0  0  0  0
   -6.8901   16.3241  -32.9991 H   0  0  0  0  0  0  0  0  0  0  0  0
   -5.8870   20.4710  -32.3290 C   0  0  0  0  0  0  0  0  0  0  0  0
   -4.8740   20.0490  -32.4045 H   0  0  0  0  0  0  0  0  0  0  0  0
   -6.0880   21.7420  -31.7790 C   0  0  0  0  0  0  0  0  0  0  0  0
   -5.1610   22.6090  -31.3090 N   0  0  0  0  0  0  0  0  0  0  0  0
   -3.7370   22.4200  -31.3030 C   0  0  0  0  0  0  0  0  0  0  0  0
   -2.9750   23.3920  -31.5570 O   0  0  0  0  0  0  0  0  0  0  0  0
   -3.2110   21.1560  -31.0010 O   0  0  0  0  0  0  0  0  0  0  0  0
   -2.4770   20.3550  -31.8860 C   0  0  0  0  0  0  0  0  0  0  0  0
   -2.9300   19.2460  -32.2800 O   0  0  0  0  0  0  0  0  0  0  0  0
   -1.1950   20.8700  -32.4190 C   0  0  0  0  0  0  0  0  0  0  0  0
   -0.2940   21.5450  -31.6740 C   0  0  0  0  0  0  0  0  0  0  0  0
    0.6755   21.7690  -32.1429 H   0  0  0  0  0  0  0  0  0  0  0  0
   -0.4920   22.0090  -30.2890 C   0  0  0  0  0  0  0  0  0  0  0  0
   -0.3090   21.2310  -29.3140 O   0  0  0  0  0  0  0  0  0  0  0  0
   -1.0160   23.2880  -30.0800 O   0  0  0  0  0  0  0  0  0  0  0  0
   -1.8200   23.6110  -29.0010 N   0  0  0  0  0  0  0  0  0  0  0  0
   -2.1210   24.8340  -28.5190 C   0  0  0  0  0  0  0  0  0  0  0  0
   -1.6120   26.0270  -29.0170 O   0  0  0  0  0  0  0  0  0  0  0  0
   -3.0490   24.7390  -27.5000 C   0  0  0  0  0  0  0  0  0  0  0  0
   -3.4666   25.5665  -26.9077 H   0  0  0  0  0  0  0  0  0  0  0  0
   -3.3480   23.3920  -27.3740 C   0  0  0  0  0  0  0  0  0  0  0  0
   -4.0514   22.9350  -26.6624 H   0  0  0  0  0  0  0  0  0  0  0  0
   -2.5840   22.7380  -28.3230 C   0  0  0  0  0  0  0  0  0  0  0  0
   -2.5920   21.3690  -28.5650 O   0  0  0  0  0  0  0  0  0  0  0  0
   -2.4520   21.0070  -29.5020 H   0  0  0  0  0  0  0  0  0  0  0  0
   -0.9040   20.6530  -33.8790 C   0  0  0  0  0  0  0  0  0  0  0  0
   -0.0263   19.9985  -33.9846 H   0  0  0  0  0  0  0  0  0  0  0  0
   -1.7734   20.1809  -34.3600 H   0  0  0  0  0  0  0  0  0  0  0  0
   -0.6996   21.6209  -34.3600 H   0  0  0  0  0  0  0  0  0  0  0  0
  1  2  1  0
  2  3  1  0
  3  4  2  0
  3  5  1  0
  5  6  2  0
  6  7  1  0
  6  8  1  0
  8  9  2  0
  9 10  1  0
  9 11  1  0
 11 12  1  0
 11 13  2  0
 13 14  1  0
 14 15  1  0
 15 16  1  0
 15 17  1  0
 15 18  1  0
 14 19  1  0
 19 20  1  0
 19 21  1  0
 19 22  1  0
 13 23  1  0
 23 24  1  0
 23 25  2  0
 25 26  1  0
 26 27  1  0
 27 28  2  0
 27 29  1  0
 29 30  1  0
 30 31  2  0
 30 32  1  0
 32 33  2  0
 33 34  1  0
 33 35  1  0
 35 36  2  0
 35 37  1  0
 37 38  1  0
 38 39  1  0
 39 40  1  0
 39 41  2  0
 41 42  1  0
 41 43  1  0
 43 44  1  0
 43 45  2  0
 45 46  1  0
 46 47  1  0
 32 48  1  0
 48 49  1  0
 48 50  1  0
 48 51  1  0
 26  5  1  0
 45 38  1  0
 25  8  1  0
M  CHG  2   2  -1  40  -1
M  END
>  <UniqueID>  (88) 
88

>  <SMILES>  (88) 
C/C(=C/C(=O)On1c([O-])ccc1O)C(=O)OC(=O)n1c(C([NH-])=O)cc2ccc(N(C)C)cc21

>  <Energy>  (88) 
132.1812633347328

>  <Genealogy>  (88) 
C/C(=C/C(=O)On1c([O-])ccc1O)C(=O)OC(=O)n1c(C([NH-])=O)cc2ccc(N(C)C)cc21 (protonated)
C/C(=C/C(=O)On1c([O-])ccc1O)C(=O)OC(=O)n1c(C([NH-])=O)cc2ccc(N(C)C)cc21 (cis-trans isomerization)
C/C(=C/C(=O)On1c([O-])ccc1O)C(=O)OC(=O)n1c(C([NH-])=O)cc2ccc(N(C)C)cc21 (3D coordinates assigned)
C/C(=C/C(=O)On1c([O-])ccc1O)C(=O)OC(=O)n1c(C([NH-])=O)cc2ccc(N(C)C)cc21 (optimized conformer: 132.1812633347328 kcal/mol)

>  <smiles>  (88) 
C/C(=C/C(=O)On1c(O)ccc1O)C(=O)OC(=O)n1c(C(N)=O)cc2ccc(N(C)C)cc21

>  <score_type>  (88) 
oracle

>  <origin>  (88) 
adg

>  <m_score__min__energy>  (88) 
-13.93

>  <m_primary>  (88) 
energy

$$$$
89:0
     RDKit          3D

 37 38  0  0  0  0  0  0  0  0999 V2000
   -5.4190   14.1690  -34.1840 C   0  0  0  0  0  0  0  0  0  0  0  0
   -5.4200   15.2820  -33.2290 N   0  0  0  0  0  0  0  0  0  0  0  0
   -4.6440   15.1870  -31.9880 C   0  0  0  0  0  0  0  0  0  0  0  0
   -6.1950   16.4640  -33.5320 C   0  0  0  0  0  0  0  0  0  0  0  0
   -6.8680   16.5140  -34.5970 O   0  0  0  0  0  0  0  0  0  0  0  0
   -6.1900   17.6700  -32.6310 C   0  0  0  0  0  0  0  0  0  0  0  0
   -6.9960   18.7490  -33.2050 N   0  0  0  0  0  0  0  0  0  0  0  0
   -7.0870   20.0630  -32.6220 C   0  0  0  0  0  0  0  0  0  0  0  0
   -8.3660   20.5990  -32.3300 C   0  0  0  0  0  0  0  0  0  0  0  0
   -8.4990   21.8720  -31.7530 C   0  0  0  0  0  0  0  0  0  0  0  0
   -7.3400   22.5910  -31.4830 C   0  0  0  0  0  0  0  0  0  0  0  0
   -7.1800   23.8310  -30.9100 C   0  0  0  0  0  0  0  0  0  0  0  0
   -5.8050   24.0500  -30.8770 C   0  0  0  0  0  0  0  0  0  0  0  0
   -5.1910   25.3120  -30.4160 C   0  0  0  0  0  0  0  0  0  0  0  0
   -3.8740   25.6570  -30.8400 N   0  0  0  0  0  0  0  0  0  0  0  0
   -5.8010   26.0730  -29.6190 O   0  0  0  0  0  0  0  0  0  0  0  0
   -5.1390   22.9810  -31.4020 N   0  0  0  0  0  0  0  0  0  0  0  0
   -3.7190   22.7830  -31.4850 C   0  0  0  0  0  0  0  0  0  0  0  0
   -2.8780   23.1260  -30.3860 N   0  0  0  0  0  0  0  0  0  0  0  0
   -3.2110   22.2750  -32.5210 O   0  0  0  0  0  0  0  0  0  0  0  0
   -6.0940   22.0990  -31.7720 C   0  0  0  0  0  0  0  0  0  0  0  0
   -5.9290   20.8260  -32.3320 C   0  0  0  0  0  0  0  0  0  0  0  0
   -5.4181   13.2154  -33.6357 H   0  0  0  0  0  0  0  0  0  0  0  0
   -6.3172   14.2276  -34.8163 H   0  0  0  0  0  0  0  0  0  0  0  0
   -4.5209   14.2292  -34.8163 H   0  0  0  0  0  0  0  0  0  0  0  0
   -5.3210   15.2699  -31.1250 H   0  0  0  0  0  0  0  0  0  0  0  0
   -4.1237   14.2184  -31.9542 H   0  0  0  0  0  0  0  0  0  0  0  0
   -3.9054   16.0014  -31.9542 H   0  0  0  0  0  0  0  0  0  0  0  0
   -6.6058   17.3906  -31.6517 H   0  0  0  0  0  0  0  0  0  0  0  0
   -5.1543   18.0235  -32.5195 H   0  0  0  0  0  0  0  0  0  0  0  0
   -7.5280   18.5660  -34.0880 H   0  0  0  0  0  0  0  0  0  0  0  0
   -9.2664   20.0099  -32.5584 H   0  0  0  0  0  0  0  0  0  0  0  0
   -9.4906   22.2881  -31.5214 H   0  0  0  0  0  0  0  0  0  0  0  0
   -7.9710   24.5070  -30.5531 H   0  0  0  0  0  0  0  0  0  0  0  0
   -3.0360   25.2930  -30.3360 H   0  0  0  0  0  0  0  0  0  0  0  0
   -3.0840   23.9610  -29.7940 H   0  0  0  0  0  0  0  0  0  0  0  0
   -4.9250   20.4283  -32.5415 H   0  0  0  0  0  0  0  0  0  0  0  0
  1  2  1  0
  2  3  1  0
  2  4  1  0
  4  5  2  0
  4  6  1  0
  6  7  1  0
  7  8  1  0
  8  9  2  0
  9 10  1  0
 10 11  2  0
 11 12  1  0
 12 13  2  0
 13 14  1  0
 14 15  1  0
 14 16  2  0
 13 17  1  0
 17 18  1  0
 18 19  1  0
 18 20  2  0
 17 21  1  0
 21 22  2  0
 22  8  1  0
 21 11  1  0
  1 23  1  0
  1 24  1  0
  1 25  1  0
  3 26  1  0
  3 27  1  0
  3 28  1  0
  6 29  1  0
  6 30  1  0
  7 31  1  0
  9 32  1  0
 10 33  1  0
 12 34  1  0
 15 35  1  0
 19 36  1  0
 22 37  1  0
M  CHG  2  15  -1  19  -1
M  END
>  <UniqueID>  (89) 
89

>  <SMILES>  (89) 
CN(C)C(=O)CNc1ccc2cc(C([NH-])=O)n(C([NH-])=O)c2c1

>  <Energy>  (89) 
72.42573586375627

>  <Genealogy>  (89) 
CN(C)C(=O)CNc1ccc2cc(C([NH-])=O)n(C([NH-])=O)c2c1 (protonated)
CN(C)C(=O)CNc1ccc2cc(C([NH-])=O)n(C([NH-])=O)c2c1 (3D coordinates assigned)
CN(C)C(=O)CNc1ccc2cc(C([NH-])=O)n(C([NH-])=O)c2c1 (optimized conformer: 72.42573586375627 kcal/mol)

>  <smiles>  (89) 
CN(C)C(=O)CNc1ccc2cc(C(N)=O)n(C(N)=O)c2c1

>  <score_type>  (89) 
oracle

>  <origin>  (89) 
adg

>  <m_score__min__energy>  (89) 
-10.59

>  <m_primary>  (89) 
energy

$$$$
90:0
     RDKit          3D

 43 44  0  0  0  0  0  0  0  0999 V2000
   -1.6460   20.8020  -27.8580 C   0  0  0  0  0  0  0  0  0  0  0  0
   -2.2040   22.1820  -27.4770 C   0  0  0  0  0  0  0  0  0  0  0  0
   -1.1570   22.9780  -26.6830 C   0  0  0  0  0  0  0  0  0  0  0  0
   -2.7720   23.0200  -28.6630 C   0  0  2  0  0  0  0  0  0  0  0  0
   -3.2650   22.1730  -29.7530 N   0  0  0  0  0  0  0  0  0  0  0  0
   -3.8670   22.6000  -30.9830 C   0  0  0  0  0  0  0  0  0  0  0  0
   -3.1470   22.8910  -31.9750 O   0  0  0  0  0  0  0  0  0  0  0  0
   -5.2980   22.7270  -31.0730 N   0  0  0  0  0  0  0  0  0  0  0  0
   -6.0400   23.8630  -30.9400 C   0  0  0  0  0  0  0  0  0  0  0  0
   -5.5370   25.1760  -30.4940 C   0  0  0  0  0  0  0  0  0  0  0  0
   -4.2030   25.5920  -30.7870 N   0  0  0  0  0  0  0  0  0  0  0  0
   -6.2770   25.9190  -29.7940 O   0  0  0  0  0  0  0  0  0  0  0  0
   -7.3760   23.6200  -31.2390 C   0  0  0  0  0  0  0  0  0  0  0  0
   -7.4400   22.2830  -31.5520 C   0  0  0  0  0  0  0  0  0  0  0  0
   -8.5270   21.5130  -31.9550 C   0  0  0  0  0  0  0  0  0  0  0  0
   -8.2990   20.1630  -32.2670 C   0  0  0  0  0  0  0  0  0  0  0  0
   -6.9980   19.6050  -32.1670 C   0  0  0  0  0  0  0  0  0  0  0  0
   -6.7540   18.1660  -32.5660 C   0  0  0  0  0  0  0  0  0  0  0  0
   -6.0700   18.1050  -33.9290 C   0  0  0  0  0  0  0  0  0  0  0  0
   -7.9540   17.4760  -32.6300 F   0  0  0  0  0  0  0  0  0  0  0  0
   -5.9520   17.5380  -31.6270 F   0  0  0  0  0  0  0  0  0  0  0  0
   -5.9150   20.4280  -31.7750 C   0  0  0  0  0  0  0  0  0  0  0  0
   -6.1750   21.7650  -31.4480 C   0  0  0  0  0  0  0  0  0  0  0  0
   -1.8880   24.1280  -29.1850 C   0  0  0  0  0  0  0  0  0  0  0  0
   -2.3180   25.3010  -29.3320 O   0  0  0  0  0  0  0  0  0  0  0  0
   -0.5530   23.8590  -29.4600 O   0  0  0  0  0  0  0  0  0  0  0  0
   -1.4164   20.2343  -26.9442 H   0  0  0  0  0  0  0  0  0  0  0  0
   -2.3937   20.2552  -28.4513 H   0  0  0  0  0  0  0  0  0  0  0  0
   -0.7284   20.9286  -28.4513 H   0  0  0  0  0  0  0  0  0  0  0  0
   -3.0803   21.9793  -26.8437 H   0  0  0  0  0  0  0  0  0  0  0  0
   -1.3338   22.8436  -25.6057 H   0  0  0  0  0  0  0  0  0  0  0  0
   -0.1502   22.6152  -26.9374 H   0  0  0  0  0  0  0  0  0  0  0  0
   -1.2373   24.0452  -26.9374 H   0  0  0  0  0  0  0  0  0  0  0  0
   -3.6220   23.5492  -28.2075 H   0  0  0  0  0  0  0  0  0  0  0  0
   -3.8740   26.5430  -30.5080 H   0  0  0  0  0  0  0  0  0  0  0  0
   -3.5170   24.9260  -31.2050 H   0  0  0  0  0  0  0  0  0  0  0  0
   -8.2048   24.3432  -31.2275 H   0  0  0  0  0  0  0  0  0  0  0  0
   -9.5344   21.9488  -32.0270 H   0  0  0  0  0  0  0  0  0  0  0  0
   -9.1383   19.5309  -32.5926 H   0  0  0  0  0  0  0  0  0  0  0  0
   -4.9832   18.0081  -33.7898 H   0  0  0  0  0  0  0  0  0  0  0  0
   -6.4467   17.2369  -34.4898 H   0  0  0  0  0  0  0  0  0  0  0  0
   -6.2871   19.0261  -34.4898 H   0  0  0  0  0  0  0  0  0  0  0  0
   -4.8920   20.0265  -31.7282 H   0  0  0  0  0  0  0  0  0  0  0  0
  1  2  1  0
  2  3  1  0
  2  4  1  0
  4  5  1  0
  5  6  1  0
  6  7  2  0
  6  8  1  0
  8  9  1  0
  9 10  1  0
 10 11  1  0
 10 12  2  0
  9 13  2  0
 13 14  1  0
 14 15  2  0
 15 16  1  0
 16 17  2  0
 17 18  1  0
 18 19  1  0
 18 20  1  0
 18 21  1  0
 17 22  1  0
 22 23  2  0
  4 24  1  0
 24 25  2  0
 24 26  1  0
 23  8  1  0
 23 14  1  0
  1 27  1  0
  1 28  1  0
  1 29  1  0
  2 30  1  0
  3 31  1  0
  3 32  1  0
  3 33  1  0
  4 34  1  1
 11 35  1  0
 11 36  1  0
 13 37  1  0
 15 38  1  0
 16 39  1  0
 19 40  1  0
 19 41  1  0
 19 42  1  0
 22 43  1  0
M  CHG  2   5  -1  26  -1
M  END
>  <UniqueID>  (90) 
90

>  <SMILES>  (90) 
CC(C)[C@H]([N-]C(=O)n1c(C(N)=O)cc2ccc(C(C)(F)F)cc21)C(=O)[O-]

>  <Energy>  (90) 
80.52227880708014

>  <Genealogy>  (90) 
CC(C)[C@H]([N-]C(=O)n1c(C(N)=O)cc2ccc(C(C)(F)F)cc21)C(=O)[O-] (protonated)
CC(C)[C@H]([N-]C(=O)n1c(C(N)=O)cc2ccc(C(C)(F)F)cc21)C(=O)[O-] (3D coordinates assigned)
CC(C)[C@H]([N-]C(=O)n1c(C(N)=O)cc2ccc(C(C)(F)F)cc21)C(=O)[O-] (optimized conformer: 80.52227880708014 kcal/mol)

>  <smiles>  (90) 
CC(C)[C@H](NC(=O)n1c(C(N)=O)cc2ccc(C(C)(F)F)cc21)C(=O)O

>  <score_type>  (90) 
oracle

>  <origin>  (90) 
adg

>  <m_score__min__energy>  (90) 
-11.220000000000001

>  <m_primary>  (90) 
energy

$$$$
91:0
     RDKit          3D

 46 47  0  0  0  0  0  0  0  0999 V2000
   -6.8740   18.5120  -32.9520 C   0  0  0  0  0  0  0  0  0  0  0  0
   -7.0320   19.9100  -32.4340 C   0  0  0  0  0  0  0  0  0  0  0  0
   -8.3200   20.4960  -32.3480 C   0  0  0  0  0  0  0  0  0  0  0  0
   -8.4760   21.8210  -31.9070 C   0  0  0  0  0  0  0  0  0  0  0  0
   -7.3310   22.5360  -31.5690 C   0  0  0  0  0  0  0  0  0  0  0  0
   -7.1870   23.8370  -31.1420 C   0  0  0  0  0  0  0  0  0  0  0  0
   -5.8150   24.0230  -30.9780 C   0  0  0  0  0  0  0  0  0  0  0  0
   -5.2090   25.2730  -30.4750 C   0  0  0  0  0  0  0  0  0  0  0  0
   -3.8820   25.6430  -30.8410 N   0  0  0  0  0  0  0  0  0  0  0  0
   -5.8600   26.0120  -29.6910 O   0  0  0  0  0  0  0  0  0  0  0  0
   -5.1420   22.8820  -31.2960 N   0  0  0  0  0  0  0  0  0  0  0  0
   -3.7220   22.6780  -31.3470 C   0  0  0  0  0  0  0  0  0  0  0  0
   -2.9930   23.1240  -30.4230 O   0  0  0  0  0  0  0  0  0  0  0  0
   -3.1190   21.8360  -32.4260 C   0  0  0  0  0  0  0  0  0  0  0  0
   -1.9750   21.1930  -31.9080 O   0  0  0  0  0  0  0  0  0  0  0  0
   -1.6730   20.0600  -32.6930 C   0  0  0  0  0  0  0  0  0  0  0  0
   -1.9800   20.3750  -34.1550 C   0  0  0  0  0  0  0  0  0  0  0  0
   -0.7650   20.7510  -34.8690 N   0  0  0  0  0  0  0  0  0  0  0  0
    0.5460   20.5560  -34.3370 C   0  0  0  0  0  0  0  0  0  0  0  0
    0.8930   19.4060  -33.9560 O   0  0  0  0  0  0  0  0  0  0  0  0
    1.4290   21.6360  -34.2330 O   0  0  0  0  0  0  0  0  0  0  0  0
    2.6350   21.7240  -34.9860 C   0  0  0  0  0  0  0  0  0  0  0  0
    2.3700   22.2490  -36.2660 O   0  0  0  0  0  0  0  0  0  0  0  0
    1.5210   23.7220  -36.1000 P   0  0  1  0  0  0  0  0  0  0  0  0
    2.1540   24.5650  -35.0150 O   0  0  0  0  0  0  0  0  0  0  0  0
    1.6010   24.5630  -37.5650 O   0  0  0  0  0  0  0  0  0  0  0  0
   -0.1040   23.4320  -35.7210 O   0  0  0  0  0  0  0  0  0  0  0  0
   -6.0800   21.9830  -31.6520 C   0  0  0  0  0  0  0  0  0  0  0  0
   -5.8920   20.6700  -32.0970 C   0  0  0  0  0  0  0  0  0  0  0  0
   -6.7951   17.8140  -32.1055 H   0  0  0  0  0  0  0  0  0  0  0  0
   -7.7479   18.2473  -33.5653 H   0  0  0  0  0  0  0  0  0  0  0  0
   -5.9630   18.4490  -33.5653 H   0  0  0  0  0  0  0  0  0  0  0  0
   -9.2059   19.9077  -32.6292 H   0  0  0  0  0  0  0  0  0  0  0  0
   -9.4731   22.2792  -31.8312 H   0  0  0  0  0  0  0  0  0  0  0  0
   -7.9852   24.5735  -30.9673 H   0  0  0  0  0  0  0  0  0  0  0  0
   -3.0580   25.2800  -30.3120 H   0  0  0  0  0  0  0  0  0  0  0  0
   -3.8482   21.0831  -32.7598 H   0  0  0  0  0  0  0  0  0  0  0  0
   -2.8403   22.4663  -33.2833 H   0  0  0  0  0  0  0  0  0  0  0  0
   -0.6073   19.8095  -32.5852 H   0  0  0  0  0  0  0  0  0  0  0  0
   -2.2792   19.2043  -32.3610 H   0  0  0  0  0  0  0  0  0  0  0  0
   -2.4179   19.4855  -34.6315 H   0  0  0  0  0  0  0  0  0  0  0  0
   -2.6871   21.2168  -34.1938 H   0  0  0  0  0  0  0  0  0  0  0  0
    3.3435   22.3826  -34.4623 H   0  0  0  0  0  0  0  0  0  0  0  0
    3.0670   20.7180  -35.0922 H   0  0  0  0  0  0  0  0  0  0  0  0
   -0.1370   22.4740  -35.4700 H   0  0  0  0  0  0  0  0  0  0  0  0
   -4.8824   20.2416  -32.1819 H   0  0  0  0  0  0  0  0  0  0  0  0
  1  2  1  0
  2  3  2  0
  3  4  1  0
  4  5  2  0
  5  6  1  0
  6  7  2  0
  7  8  1  0
  8  9  1  0
  8 10  2  0
  7 11  1  0
 11 12  1  0
 12 13  2  0
 12 14  1  0
 14 15  1  0
 15 16  1  0
 16 17  1  0
 17 18  1  0
 18 19  1  0
 19 20  2  0
 19 21  1  0
 21 22  1  0
 22 23  1  0
 23 24  1  0
 24 25  2  0
 24 26  1  6
 24 27  1  0
 11 28  1  0
 28 29  2  0
 29  2  1  0
 28  5  1  0
  1 30  1  0
  1 31  1  0
  1 32  1  0
  3 33  1  0
  4 34  1  0
  6 35  1  0
  9 36  1  0
 14 37  1  0
 14 38  1  0
 16 39  1  0
 16 40  1  0
 17 41  1  0
 17 42  1  0
 22 43  1  0
 22 44  1  0
 27 45  1  0
 29 46  1  0
M  CHG  3   9  -1  18  -1  26  -1
M  END
>  <UniqueID>  (91) 
91

>  <SMILES>  (91) 
Cc1ccc2cc(C([NH-])=O)n(C(=O)COCC[N-]C(=O)OCO[P@@](=O)([O-])O)c2c1

>  <Energy>  (91) 
77.06839011475121

>  <Genealogy>  (91) 
Cc1ccc2cc(C([NH-])=O)n(C(=O)COCC[N-]C(=O)OCOP(=O)([O-])O)c2c1 (protonated)
Cc1ccc2cc(C([NH-])=O)n(C(=O)COCC[N-]C(=O)OCO[P@@](=O)([O-])O)c2c1 (chirality)
Cc1ccc2cc(C([NH-])=O)n(C(=O)COCC[N-]C(=O)OCO[P@@](=O)([O-])O)c2c1 (3D coordinates assigned)
Cc1ccc2cc(C([NH-])=O)n(C(=O)COCC[N-]C(=O)OCO[P@@](=O)([O-])O)c2c1 (optimized conformer: 77.06839011475121 kcal/mol)

>  <smiles>  (91) 
Cc1ccc2cc(C(N)=O)n(C(=O)COCCNC(=O)OCOP(=O)(O)O)c2c1

>  <score_type>  (91) 
oracle

>  <origin>  (91) 
adg

>  <m_score__min__energy>  (91) 
-11.74

>  <m_primary>  (91) 
energy

$$$$
92:0
     RDKit          3D

 37 38  0  0  0  0  0  0  0  0999 V2000
   -6.8040   17.2540  -33.0730 C   0  0  0  0  0  0  0  0  0  0  0  0
   -6.9780   18.3950  -32.7250 C   0  0  0  0  0  0  0  0  0  0  0  0
   -7.1830   19.7570  -32.3080 C   0  0  0  0  0  0  0  0  0  0  0  0
   -8.4970   20.2770  -32.2200 C   0  0  0  0  0  0  0  0  0  0  0  0
   -8.7100   21.6000  -31.7980 C   0  0  0  0  0  0  0  0  0  0  0  0
   -7.5960   22.3750  -31.4880 C   0  0  0  0  0  0  0  0  0  0  0  0
   -7.5180   23.6620  -31.0070 C   0  0  0  0  0  0  0  0  0  0  0  0
   -6.1570   23.9100  -30.8420 C   0  0  0  0  0  0  0  0  0  0  0  0
   -5.6110   25.1880  -30.3430 C   0  0  0  0  0  0  0  0  0  0  0  0
   -4.2430   25.5410  -30.5510 N   0  0  0  0  0  0  0  0  0  0  0  0
   -6.3760   26.0030  -29.7610 O   0  0  0  0  0  0  0  0  0  0  0  0
   -5.4220   22.8240  -31.2080 N   0  0  0  0  0  0  0  0  0  0  0  0
   -4.0090   22.6320  -31.0380 C   0  0  0  0  0  0  0  0  0  0  0  0
   -3.2220   23.0520  -31.9280 O   0  0  0  0  0  0  0  0  0  0  0  0
   -3.4850   21.9580  -29.8300 C   0  0  0  0  0  0  0  0  0  0  0  0
   -3.6520   20.7140  -29.7100 O   0  0  0  0  0  0  0  0  0  0  0  0
   -2.8160   22.6840  -28.7750 N   0  0  0  0  0  0  0  0  0  0  0  0
   -3.5870   23.0050  -27.6000 C   0  0  0  0  0  0  0  0  0  0  0  0
   -4.1670   24.1930  -27.4210 C   0  0  0  0  0  0  0  0  0  0  0  0
   -1.3970   23.0750  -28.8830 C   0  0  0  0  0  0  0  0  0  0  0  0
   -1.2330   24.5650  -28.8920 C   0  0  0  0  0  0  0  0  0  0  0  0
   -2.1390   25.2990  -29.3670 O   0  0  0  0  0  0  0  0  0  0  0  0
   -0.1010   25.1450  -28.3320 O   0  0  0  0  0  0  0  0  0  0  0  0
   -6.3170   21.8880  -31.5930 C   0  0  0  0  0  0  0  0  0  0  0  0
   -6.0770   20.5650  -31.9830 C   0  0  0  0  0  0  0  0  0  0  0  0
   -6.6452   16.2129  -33.3905 H   0  0  0  0  0  0  0  0  0  0  0  0
   -9.3556   19.6418  -32.4834 H   0  0  0  0  0  0  0  0  0  0  0  0
   -9.7269   22.0112  -31.7150 H   0  0  0  0  0  0  0  0  0  0  0  0
   -8.3519   24.3482  -30.7976 H   0  0  0  0  0  0  0  0  0  0  0  0
   -3.6380   24.9910  -31.1990 H   0  0  0  0  0  0  0  0  0  0  0  0
   -3.8600   26.4190  -30.1380 H   0  0  0  0  0  0  0  0  0  0  0  0
   -3.7018   22.2390  -26.8190 H   0  0  0  0  0  0  0  0  0  0  0  0
   -4.7457   24.3903  -26.5066 H   0  0  0  0  0  0  0  0  0  0  0  0
   -4.0665   24.9752  -28.1878 H   0  0  0  0  0  0  0  0  0  0  0  0
   -0.8466   22.6607  -28.0255 H   0  0  0  0  0  0  0  0  0  0  0  0
   -1.0032   22.6804  -29.8312 H   0  0  0  0  0  0  0  0  0  0  0  0
   -5.0525   20.1678  -32.0341 H   0  0  0  0  0  0  0  0  0  0  0  0
  1  2  3  0
  2  3  1  0
  3  4  2  0
  4  5  1  0
  5  6  2  0
  6  7  1  0
  7  8  2  0
  8  9  1  0
  9 10  1  0
  9 11  2  0
  8 12  1  0
 12 13  1  0
 13 14  2  0
 13 15  1  0
 15 16  2  0
 15 17  1  0
 17 18  1  0
 18 19  2  0
 17 20  1  0
 20 21  1  0
 21 22  2  0
 21 23  1  0
 12 24  1  0
 24 25  2  0
 25  3  1  0
 24  6  1  0
  1 26  1  0
  4 27  1  0
  5 28  1  0
  7 29  1  0
 10 30  1  0
 10 31  1  0
 18 32  1  0
 19 33  1  0
 19 34  1  0
 20 35  1  0
 20 36  1  0
 25 37  1  0
M  CHG  1  23  -1
M  END
>  <UniqueID>  (92) 
92

>  <SMILES>  (92) 
C#Cc1ccc2cc(C(N)=O)n(C(=O)C(=O)N(C=C)CC(=O)[O-])c2c1

>  <Energy>  (92) 
81.4505969542732

>  <Genealogy>  (92) 
C#Cc1ccc2cc(C(N)=O)n(C(=O)C(=O)N(C=C)CC(=O)[O-])c2c1 (protonated)
C#Cc1ccc2cc(C(N)=O)n(C(=O)C(=O)N(C=C)CC(=O)[O-])c2c1 (3D coordinates assigned)
C#Cc1ccc2cc(C(N)=O)n(C(=O)C(=O)N(C=C)CC(=O)[O-])c2c1 (optimized conformer: 81.4505969542732 kcal/mol)

>  <smiles>  (92) 
C#Cc1ccc2cc(C(N)=O)n(C(=O)C(=O)N(C=C)CC(=O)O)c2c1

>  <score_type>  (92) 
oracle

>  <origin>  (92) 
adg

>  <m_score__min__energy>  (92) 
-11.58

>  <m_primary>  (92) 
energy

$$$$
93:0
     RDKit          3D

 35 36  0  0  0  0  0  0  0  0999 V2000
   -3.9350   25.4520  -30.8420 N   0  0  0  0  0  0  0  0  0  0  0  0
   -5.0730   24.7710  -30.3190 C   0  0  0  0  0  0  0  0  0  0  0  0
   -5.6540   25.2330  -29.3020 O   0  0  0  0  0  0  0  0  0  0  0  0
   -5.5280   23.5120  -30.9450 C   0  0  0  0  0  0  0  0  0  0  0  0
   -6.8710   23.1910  -31.1310 C   0  0  0  0  0  0  0  0  0  0  0  0
   -6.8700   22.0060  -31.8290 C   0  0  0  0  0  0  0  0  0  0  0  0
   -7.9350   21.2400  -32.2920 C   0  0  0  0  0  0  0  0  0  0  0  0
   -7.6440   20.0510  -32.9800 C   0  0  0  0  0  0  0  0  0  0  0  0
   -6.3000   19.6340  -33.1700 C   0  0  0  0  0  0  0  0  0  0  0  0
   -5.9960   18.3790  -33.9480 C   0  0  0  0  0  0  0  0  0  0  0  0
   -6.0900   18.6100  -35.3090 F   0  0  0  0  0  0  0  0  0  0  0  0
   -6.8860   17.3730  -33.6170 F   0  0  0  0  0  0  0  0  0  0  0  0
   -4.7120   17.9600  -33.6500 F   0  0  0  0  0  0  0  0  0  0  0  0
   -5.2450   20.4500  -32.7000 C   0  0  0  0  0  0  0  0  0  0  0  0
   -5.5660   21.6420  -32.0370 C   0  0  0  0  0  0  0  0  0  0  0  0
   -4.7270   22.5560  -31.4980 N   0  0  0  0  0  0  0  0  0  0  0  0
   -3.2920   22.4900  -31.4910 C   0  0  0  0  0  0  0  0  0  0  0  0
   -2.6850   21.8190  -32.3710 O   0  0  0  0  0  0  0  0  0  0  0  0
   -2.5720   23.1920  -30.5210 O   0  0  0  0  0  0  0  0  0  0  0  0
   -1.3920   22.6820  -29.9080 C   0  0  0  0  0  0  0  0  0  0  0  0
   -1.5990   22.5170  -28.5220 O   0  0  0  0  0  0  0  0  0  0  0  0
   -2.0510   23.7200  -27.9280 C   0  0  0  0  0  0  0  0  0  0  0  0
   -0.7790   24.9990  -28.1310 P   0  0  0  0  0  0  0  0  0  0  0  0
   -0.6100   25.7590  -26.8360 O   0  0  0  0  0  0  0  0  0  0  0  0
   -1.2440   26.0700  -29.3540 O   0  0  0  0  0  0  0  0  0  0  0  0
    0.6880   24.2710  -28.5500 O   0  0  0  0  0  0  0  0  0  0  0  0
   -2.9870   25.3120  -30.4280 H   0  0  0  0  0  0  0  0  0  0  0  0
   -7.7465   23.7639  -30.7915 H   0  0  0  0  0  0  0  0  0  0  0  0
   -8.9750   21.5566  -32.1240 H   0  0  0  0  0  0  0  0  0  0  0  0
   -8.4658   19.4362  -33.3759 H   0  0  0  0  0  0  0  0  0  0  0  0
   -4.1960   20.1556  -32.8515 H   0  0  0  0  0  0  0  0  0  0  0  0
   -1.1398   21.7098  -30.3566 H   0  0  0  0  0  0  0  0  0  0  0  0
   -0.5674   23.3924  -30.0672 H   0  0  0  0  0  0  0  0  0  0  0  0
   -2.9812   24.0451  -28.4169 H   0  0  0  0  0  0  0  0  0  0  0  0
   -2.2423   23.5550  -26.8574 H   0  0  0  0  0  0  0  0  0  0  0  0
  1  2  1  0
  2  3  2  0
  2  4  1  0
  4  5  2  0
  5  6  1  0
  6  7  2  0
  7  8  1  0
  8  9  2  0
  9 10  1  0
 10 11  1  0
 10 12  1  0
 10 13  1  0
  9 14  1  0
 14 15  2  0
 15 16  1  0
 16 17  1  0
 17 18  2  0
 17 19  1  0
 19 20  1  0
 20 21  1  0
 21 22  1  0
 22 23  1  0
 23 24  2  0
 23 25  1  0
 23 26  1  0
 16  4  1  0
 15  6  1  0
  1 27  1  0
  5 28  1  0
  7 29  1  0
  8 30  1  0
 14 31  1  0
 20 32  1  0
 20 33  1  0
 22 34  1  0
 22 35  1  0
M  CHG  3   1  -1  25  -1  26  -1
M  END
>  <UniqueID>  (93) 
93

>  <SMILES>  (93) 
[NH-]C(=O)c1cc2ccc(C(F)(F)F)cc2n1C(=O)OCOCP(=O)([O-])[O-]

>  <Energy>  (93) 
71.24510070117816

>  <Genealogy>  (93) 
[NH-]C(=O)c1cc2ccc(C(F)(F)F)cc2n1C(=O)OCOCP(=O)([O-])[O-] (protonated)
[NH-]C(=O)c1cc2ccc(C(F)(F)F)cc2n1C(=O)OCOCP(=O)([O-])[O-] (3D coordinates assigned)
[NH-]C(=O)c1cc2ccc(C(F)(F)F)cc2n1C(=O)OCOCP(=O)([O-])[O-] (optimized conformer: 71.24510070117816 kcal/mol)

>  <smiles>  (93) 
NC(=O)c1cc2ccc(C(F)(F)F)cc2n1C(=O)OCOCP(=O)(O)O

>  <score_type>  (93) 
oracle

>  <origin>  (93) 
adg

>  <m_score__min__energy>  (93) 
-13.4

>  <m_primary>  (93) 
energy

$$$$
94:0
     RDKit          3D

 48 50  0  0  0  0  0  0  0  0999 V2000
   -6.0710   16.9160  -31.8650 C   0  0  0  0  0  0  0  0  0  0  0  0
   -5.5770   17.9740  -32.8600 C   0  0  1  0  0  0  0  0  0  0  0  0
   -6.0580   17.6800  -34.2540 C   0  0  0  0  0  0  0  0  0  0  0  0
   -5.7690   18.4460  -35.2120 O   0  0  0  0  0  0  0  0  0  0  0  0
   -6.8250   16.5460  -34.4940 O   0  0  0  0  0  0  0  0  0  0  0  0
   -5.9730   19.3760  -32.4380 C   0  0  0  0  0  0  0  0  0  0  0  0
   -7.3190   19.8190  -32.5390 C   0  0  0  0  0  0  0  0  0  0  0  0
   -7.6780   21.1260  -32.1710 C   0  0  0  0  0  0  0  0  0  0  0  0
   -6.6770   21.9670  -31.7000 C   0  0  0  0  0  0  0  0  0  0  0  0
   -6.7440   23.2840  -31.3070 C   0  0  0  0  0  0  0  0  0  0  0  0
   -5.4440   23.6280  -30.9480 C   0  0  0  0  0  0  0  0  0  0  0  0
   -5.0820   24.9430  -30.3830 C   0  0  0  0  0  0  0  0  0  0  0  0
   -3.9220   25.6370  -30.8330 N   0  0  0  0  0  0  0  0  0  0  0  0
   -5.7750   25.4360  -29.4530 O   0  0  0  0  0  0  0  0  0  0  0  0
   -4.6010   22.5690  -31.1210 N   0  0  0  0  0  0  0  0  0  0  0  0
   -3.1710   22.5530  -30.9740 C   0  0  0  0  0  0  0  0  0  0  0  0
   -2.4310   22.6690  -31.9890 O   0  0  0  0  0  0  0  0  0  0  0  0
   -2.5890   22.4400  -29.6730 N   0  0  0  0  0  0  0  0  0  0  0  0
   -2.5120   23.5340  -28.7050 C   0  0  1  0  0  0  0  0  0  0  0  0
   -2.3870   22.9680  -27.2790 C   0  0  0  0  0  0  0  0  0  0  0  0
   -2.0840   21.4880  -27.2580 C   0  0  0  0  0  0  0  0  0  0  0  0
   -3.1220   20.5500  -27.1340 C   0  0  0  0  0  0  0  0  0  0  0  0
   -2.8320   19.1820  -27.0750 C   0  0  0  0  0  0  0  0  0  0  0  0
   -1.5070   18.7430  -27.1430 C   0  0  0  0  0  0  0  0  0  0  0  0
   -0.4690   19.6680  -27.2660 C   0  0  0  0  0  0  0  0  0  0  0  0
   -0.7540   21.0360  -27.3230 C   0  0  0  0  0  0  0  0  0  0  0  0
   -1.3680   24.4590  -29.0240 C   0  0  0  0  0  0  0  0  0  0  0  0
   -1.5970   25.6660  -29.2980 O   0  0  0  0  0  0  0  0  0  0  0  0
   -0.0560   24.0070  -28.9710 O   0  0  0  0  0  0  0  0  0  0  0  0
   -5.3740   21.5590  -31.5800 C   0  0  0  0  0  0  0  0  0  0  0  0
   -4.9850   20.2700  -31.9600 C   0  0  0  0  0  0  0  0  0  0  0  0
   -5.9045   17.2726  -30.8378 H   0  0  0  0  0  0  0  0  0  0  0  0
   -7.1452   16.7384  -32.0219 H   0  0  0  0  0  0  0  0  0  0  0  0
   -5.5176   15.9784  -32.0219 H   0  0  0  0  0  0  0  0  0  0  0  0
   -4.4780   17.9263  -32.8597 H   0  0  0  0  0  0  0  0  0  0  0  0
   -8.0907   19.1288  -32.9106 H   0  0  0  0  0  0  0  0  0  0  0  0
   -8.7186   21.4730  -32.2530 H   0  0  0  0  0  0  0  0  0  0  0  0
   -7.6354   23.9280  -31.2819 H   0  0  0  0  0  0  0  0  0  0  0  0
   -2.9650   25.3020  -30.5830 H   0  0  0  0  0  0  0  0  0  0  0  0
   -3.4389   24.1231  -28.7670 H   0  0  0  0  0  0  0  0  0  0  0  0
   -1.5757   23.4997  -26.7603 H   0  0  0  0  0  0  0  0  0  0  0  0
   -3.3565   23.1134  -26.7801 H   0  0  0  0  0  0  0  0  0  0  0  0
   -4.1664   20.8916  -27.0831 H   0  0  0  0  0  0  0  0  0  0  0  0
   -3.6482   18.4514  -26.9750 H   0  0  0  0  0  0  0  0  0  0  0  0
   -1.2818   17.6672  -27.0995 H   0  0  0  0  0  0  0  0  0  0  0  0
    0.5735   19.3209  -27.3181 H   0  0  0  0  0  0  0  0  0  0  0  0
    0.0666   21.7622  -27.4192 H   0  0  0  0  0  0  0  0  0  0  0  0
   -3.9327   19.9575  -31.8888 H   0  0  0  0  0  0  0  0  0  0  0  0
  1  2  1  0
  2  3  1  0
  3  4  2  0
  3  5  1  0
  2  6  1  0
  6  7  2  0
  7  8  1  0
  8  9  2  0
  9 10  1  0
 10 11  2  0
 11 12  1  0
 12 13  1  0
 12 14  2  0
 11 15  1  0
 15 16  1  0
 16 17  2  0
 16 18  1  0
 18 19  1  0
 19 20  1  0
 20 21  1  0
 21 22  2  0
 22 23  1  0
 23 24  2  0
 24 25  1  0
 25 26  2  0
 19 27  1  0
 27 28  2  0
 27 29  1  0
 15 30  1  0
 30 31  2  0
 31  6  1  0
 30  9  1  0
 26 21  1  0
  1 32  1  0
  1 33  1  0
  1 34  1  0
  2 35  1  6
  7 36  1  0
  8 37  1  0
 10 38  1  0
 13 39  1  0
 19 40  1  1
 20 41  1  0
 20 42  1  0
 22 43  1  0
 23 44  1  0
 24 45  1  0
 25 46  1  0
 26 47  1  0
 31 48  1  0
M  CHG  4   5  -1  13  -1  18  -1  29  -1
M  END
>  <UniqueID>  (94) 
94

>  <SMILES>  (94) 
C[C@@H](C(=O)[O-])c1ccc2cc(C([NH-])=O)n(C(=O)[N-][C@@H](Cc3ccccc3)C(=O)[O-])c2c1

>  <Energy>  (94) 
83.42856304495416

>  <Genealogy>  (94) 
CC(C(=O)[O-])c1ccc2cc(C([NH-])=O)n(C(=O)[N-][C@@H](Cc3ccccc3)C(=O)[O-])c2c1 (protonated)
C[C@@H](C(=O)[O-])c1ccc2cc(C([NH-])=O)n(C(=O)[N-][C@@H](Cc3ccccc3)C(=O)[O-])c2c1 (chirality)
C[C@@H](C(=O)[O-])c1ccc2cc(C([NH-])=O)n(C(=O)[N-][C@@H](Cc3ccccc3)C(=O)[O-])c2c1 (3D coordinates assigned)
C[C@@H](C(=O)[O-])c1ccc2cc(C([NH-])=O)n(C(=O)[N-][C@@H](Cc3ccccc3)C(=O)[O-])c2c1 (optimized conformer: 83.42856304495416 kcal/mol)

>  <smiles>  (94) 
CC(C(=O)O)c1ccc2cc(C(N)=O)n(C(=O)N[C@@H](Cc3ccccc3)C(=O)O)c2c1

>  <score_type>  (94) 
oracle

>  <origin>  (94) 
adg

>  <m_score__min__energy>  (94) 
-14.880000000000001

>  <m_primary>  (94) 
energy

$$$$
95:0
     RDKit          3D

 35 36  0  0  0  0  0  0  0  0999 V2000
   -8.9810   19.0070  -32.6910 C   0  0  0  0  0  0  0  0  0  0  0  0
   -8.3260   20.2390  -32.1430 C   0  0  0  0  0  0  0  0  0  0  0  0
   -9.1180   21.3150  -31.6730 C   0  0  0  0  0  0  0  0  0  0  0  0
   -8.5170   22.4950  -31.2040 C   0  0  0  0  0  0  0  0  0  0  0  0
   -7.1260   22.5700  -31.2200 C   0  0  0  0  0  0  0  0  0  0  0  0
   -6.2900   23.6000  -30.8560 C   0  0  0  0  0  0  0  0  0  0  0  0
   -4.9990   23.1350  -31.1050 C   0  0  0  0  0  0  0  0  0  0  0  0
   -3.7770   23.9070  -30.7970 C   0  0  0  0  0  0  0  0  0  0  0  0
   -3.8660   25.3070  -30.5470 N   0  0  0  0  0  0  0  0  0  0  0  0
   -2.6560   23.3380  -30.7270 O   0  0  0  0  0  0  0  0  0  0  0  0
   -5.0390   21.8670  -31.6040 N   0  0  0  0  0  0  0  0  0  0  0  0
   -3.9360   21.0570  -32.0360 C   0  0  0  0  0  0  0  0  0  0  0  0
   -3.8160   19.8830  -31.5930 O   0  0  0  0  0  0  0  0  0  0  0  0
   -2.9800   21.5860  -32.9680 N   0  0  0  0  0  0  0  0  0  0  0  0
   -1.7700   20.9140  -33.3520 C   0  0  0  0  0  0  0  0  0  0  0  0
   -1.4700   19.7980  -32.8470 O   0  0  0  0  0  0  0  0  0  0  0  0
   -0.8970   21.5240  -34.3140 N   0  0  0  0  0  0  0  0  0  0  0  0
    0.3620   20.9110  -34.7290 C   0  0  0  0  0  0  0  0  0  0  0  0
    1.1370   21.8570  -35.5900 C   0  0  0  0  0  0  0  0  0  0  0  0
    0.7770   23.0590  -35.6940 O   0  0  0  0  0  0  0  0  0  0  0  0
    2.2390   21.4030  -36.3030 O   0  0  0  0  0  0  0  0  0  0  0  0
   -6.3470   21.5360  -31.6700 C   0  0  0  0  0  0  0  0  0  0  0  0
   -6.9190   20.3570  -32.1610 C   0  0  0  0  0  0  0  0  0  0  0  0
   -9.3192   18.3709  -31.8597 H   0  0  0  0  0  0  0  0  0  0  0  0
   -9.8453   19.2946  -33.3077 H   0  0  0  0  0  0  0  0  0  0  0  0
   -8.2592   18.4514  -33.3077 H   0  0  0  0  0  0  0  0  0  0  0  0
  -10.2144   21.2259  -31.6752 H   0  0  0  0  0  0  0  0  0  0  0  0
   -9.1259   23.3338  -30.8355 H   0  0  0  0  0  0  0  0  0  0  0  0
   -6.5786   24.5823  -30.4538 H   0  0  0  0  0  0  0  0  0  0  0  0
   -3.4900   25.9990  -31.2330 H   0  0  0  0  0  0  0  0  0  0  0  0
   -3.1810   22.5170  -33.3970 H   0  0  0  0  0  0  0  0  0  0  0  0
   -1.1750   22.4320  -34.7460 H   0  0  0  0  0  0  0  0  0  0  0  0
    0.9559   20.6612  -33.8375 H   0  0  0  0  0  0  0  0  0  0  0  0
    0.1451   19.9981  -35.3031 H   0  0  0  0  0  0  0  0  0  0  0  0
   -6.2892   19.5437  -32.5507 H   0  0  0  0  0  0  0  0  0  0  0  0
  1  2  1  0
  2  3  2  0
  3  4  1  0
  4  5  2  0
  5  6  1  0
  6  7  2  0
  7  8  1  0
  8  9  1  0
  8 10  2  0
  7 11  1  0
 11 12  1  0
 12 13  2  0
 12 14  1  0
 14 15  1  0
 15 16  2  0
 15 17  1  0
 17 18  1  0
 18 19  1  0
 19 20  2  0
 19 21  1  0
 11 22  1  0
 22 23  2  0
 23  2  1  0
 22  5  1  0
  1 24  1  0
  1 25  1  0
  1 26  1  0
  3 27  1  0
  4 28  1  0
  6 29  1  0
  9 30  1  0
 14 31  1  0
 17 32  1  0
 18 33  1  0
 18 34  1  0
 23 35  1  0
M  CHG  2   9  -1  21  -1
M  END
>  <UniqueID>  (95) 
95

>  <SMILES>  (95) 
Cc1ccc2cc(C([NH-])=O)n(C(=O)NC(=O)NCC(=O)[O-])c2c1

>  <Energy>  (95) 
70.1671465665683

>  <Genealogy>  (95) 
Cc1ccc2cc(C([NH-])=O)n(C(=O)NC(=O)NCC(=O)[O-])c2c1 (protonated)
Cc1ccc2cc(C([NH-])=O)n(C(=O)NC(=O)NCC(=O)[O-])c2c1 (3D coordinates assigned)
Cc1ccc2cc(C([NH-])=O)n(C(=O)NC(=O)NCC(=O)[O-])c2c1 (optimized conformer: 70.1671465665683 kcal/mol)

>  <smiles>  (95) 
Cc1ccc2cc(C(N)=O)n(C(=O)NC(=O)NCC(=O)O)c2c1

>  <score_type>  (95) 
oracle

>  <origin>  (95) 
adg

>  <m_score__min__energy>  (95) 
-12.26

>  <m_primary>  (95) 
energy

$$$$
96:0
     RDKit          3D

 35 36  0  0  0  0  0  0  0  0999 V2000
   -5.9840   18.1680  -34.1680 C   0  0  0  0  0  0  0  0  0  0  0  0
   -6.4850   18.1440  -32.9270 C   0  0  0  0  0  0  0  0  0  0  0  0
   -7.8150   18.6150  -32.6410 N   0  0  0  0  0  0  0  0  0  0  0  0
   -7.7700   20.0050  -32.2610 C   0  0  0  0  0  0  0  0  0  0  0  0
   -8.9400   20.8050  -32.3430 C   0  0  0  0  0  0  0  0  0  0  0  0
   -8.9130   22.1570  -31.9630 C   0  0  0  0  0  0  0  0  0  0  0  0
   -7.7130   22.6780  -31.4930 C   0  0  0  0  0  0  0  0  0  0  0  0
   -7.4050   23.9540  -31.0790 C   0  0  0  0  0  0  0  0  0  0  0  0
   -6.0590   23.9120  -30.7200 C   0  0  0  0  0  0  0  0  0  0  0  0
   -5.3370   25.0590  -30.1340 C   0  0  0  0  0  0  0  0  0  0  0  0
   -4.2630   25.6620  -30.8520 N   0  0  0  0  0  0  0  0  0  0  0  0
   -5.6820   25.5410  -29.0220 O   0  0  0  0  0  0  0  0  0  0  0  0
   -5.5530   22.6600  -30.9090 N   0  0  0  0  0  0  0  0  0  0  0  0
   -4.1950   22.2270  -30.7290 C   0  0  0  0  0  0  0  0  0  0  0  0
   -3.9600   21.0450  -30.3540 O   0  0  0  0  0  0  0  0  0  0  0  0
   -3.1460   23.1180  -30.9940 O   0  0  0  0  0  0  0  0  0  0  0  0
   -1.8680   23.0480  -30.4240 C   0  0  0  0  0  0  0  0  0  0  0  0
   -0.9990   22.2440  -30.8580 O   0  0  0  0  0  0  0  0  0  0  0  0
   -1.5530   23.9060  -29.2410 C   0  0  0  0  0  0  0  0  0  0  0  0
   -2.3430   25.0620  -29.2630 O   0  0  0  0  0  0  0  0  0  0  0  0
   -6.5780   21.9160  -31.3810 C   0  0  0  0  0  0  0  0  0  0  0  0
   -6.5700   20.5710  -31.7710 C   0  0  0  0  0  0  0  0  0  0  0  0
   -4.9642   17.8014  -34.3566 H   0  0  0  0  0  0  0  0  0  0  0  0
   -6.5921   18.5543  -34.9992 H   0  0  0  0  0  0  0  0  0  0  0  0
   -5.8654   17.7549  -32.1056 H   0  0  0  0  0  0  0  0  0  0  0  0
   -8.2070   18.0540  -31.8490 H   0  0  0  0  0  0  0  0  0  0  0  0
   -8.4360   18.4690  -33.4710 H   0  0  0  0  0  0  0  0  0  0  0  0
   -9.8779   20.3612  -32.7081 H   0  0  0  0  0  0  0  0  0  0  0  0
   -9.8138   22.7842  -32.0351 H   0  0  0  0  0  0  0  0  0  0  0  0
   -8.0785   24.8228  -31.0398 H   0  0  0  0  0  0  0  0  0  0  0  0
   -3.2950   25.2750  -30.7940 H   0  0  0  0  0  0  0  0  0  0  0  0
   -1.7570   23.3431  -28.3182 H   0  0  0  0  0  0  0  0  0  0  0  0
   -0.4918   24.1935  -29.2762 H   0  0  0  0  0  0  0  0  0  0  0  0
   -3.2560   24.7780  -29.5350 H   0  0  0  0  0  0  0  0  0  0  0  0
   -5.6522   19.9690  -31.6980 H   0  0  0  0  0  0  0  0  0  0  0  0
  1  2  2  0
  2  3  1  0
  3  4  1  0
  4  5  2  0
  5  6  1  0
  6  7  2  0
  7  8  1  0
  8  9  2  0
  9 10  1  0
 10 11  1  0
 10 12  2  0
  9 13  1  0
 13 14  1  0
 14 15  2  0
 14 16  1  0
 16 17  1  0
 17 18  2  0
 17 19  1  0
 19 20  1  0
 13 21  1  0
 21 22  2  0
 22  4  1  0
 21  7  1  0
  1 23  1  0
  1 24  1  0
  2 25  1  0
  3 26  1  0
  3 27  1  0
  5 28  1  0
  6 29  1  0
  8 30  1  0
 11 31  1  0
 19 32  1  0
 19 33  1  0
 20 34  1  0
 22 35  1  0
M  CHG  2   3   1  11  -1
M  END
>  <UniqueID>  (96) 
96

>  <SMILES>  (96) 
C=C[NH2+]c1ccc2cc(C([NH-])=O)n(C(=O)OC(=O)CO)c2c1

>  <Energy>  (96) 
73.05602137125537

>  <Genealogy>  (96) 
C=C[NH2+]c1ccc2cc(C([NH-])=O)n(C(=O)OC(=O)CO)c2c1 (protonated)
C=C[NH2+]c1ccc2cc(C([NH-])=O)n(C(=O)OC(=O)CO)c2c1 (3D coordinates assigned)
C=C[NH2+]c1ccc2cc(C([NH-])=O)n(C(=O)OC(=O)CO)c2c1 (optimized conformer: 73.05602137125537 kcal/mol)

>  <smiles>  (96) 
C=CNc1ccc2cc(C(N)=O)n(C(=O)OC(=O)CO)c2c1

>  <score_type>  (96) 
oracle

>  <origin>  (96) 
adg

>  <m_score__min__energy>  (96) 
-9.2699999999999996

>  <m_primary>  (96) 
energy

$$$$
97:0
     RDKit          3D

 43 45  0  0  0  0  0  0  0  0999 V2000
   -3.8720   25.3040  -30.7640 N   0  0  0  0  0  0  0  0  0  0  0  0
   -4.7150   24.4120  -30.0370 C   0  0  0  0  0  0  0  0  0  0  0  0
   -4.9510   24.6420  -28.8210 O   0  0  0  0  0  0  0  0  0  0  0  0
   -5.2720   23.2020  -30.6760 C   0  0  0  0  0  0  0  0  0  0  0  0
   -6.4830   23.1820  -31.3640 C   0  0  0  0  0  0  0  0  0  0  0  0
   -6.6730   21.8700  -31.7310 C   0  0  0  0  0  0  0  0  0  0  0  0
   -7.7090   21.2810  -32.4510 C   0  0  0  0  0  0  0  0  0  0  0  0
   -7.6330   19.9010  -32.7050 C   0  0  0  0  0  0  0  0  0  0  0  0
   -6.5390   19.1340  -32.2260 C   0  0  0  0  0  0  0  0  0  0  0  0
   -6.4400   17.6640  -32.5450 C   0  0  0  0  0  0  0  0  0  0  0  0
   -6.1090   16.9420  -31.4110 F   0  0  0  0  0  0  0  0  0  0  0  0
   -7.6450   17.1850  -33.0290 F   0  0  0  0  0  0  0  0  0  0  0  0
   -5.4620   17.4720  -33.5030 F   0  0  0  0  0  0  0  0  0  0  0  0
   -5.4950   19.7760  -31.5240 C   0  0  0  0  0  0  0  0  0  0  0  0
   -5.6020   21.1480  -31.2740 C   0  0  0  0  0  0  0  0  0  0  0  0
   -4.7330   21.9510  -30.6230 N   0  0  0  0  0  0  0  0  0  0  0  0
   -3.4510   21.5690  -30.0920 C   0  0  0  0  0  0  0  0  0  0  0  0
   -3.3980   21.0180  -28.9590 O   0  0  0  0  0  0  0  0  0  0  0  0
   -2.2360   21.8190  -30.8300 N   0  0  0  0  0  0  0  0  0  0  0  0
   -1.4110   22.9940  -30.4740 C   0  0  0  0  0  0  0  0  0  0  0  0
   -1.5960   23.3980  -29.0040 C   0  0  0  0  0  0  0  0  0  0  0  0
   -0.9460   24.7090  -28.6870 C   0  0  0  0  0  0  0  0  0  0  0  0
    0.2070   24.7420  -28.1820 O   0  0  0  0  0  0  0  0  0  0  0  0
   -1.6100   25.8990  -28.9630 O   0  0  0  0  0  0  0  0  0  0  0  0
   -1.7560   20.7660  -31.7560 C   0  0  0  0  0  0  0  0  0  0  0  0
   -2.6540   20.4970  -32.9520 C   0  0  0  0  0  0  0  0  0  0  0  0
   -1.6520   20.9780  -33.9080 N   0  0  0  0  0  0  0  0  0  0  0  0
   -0.7520   21.2550  -32.7860 C   0  0  0  0  0  0  0  0  0  0  0  0
   -2.8390   25.3040  -30.6190 H   0  0  0  0  0  0  0  0  0  0  0  0
   -7.1467   24.0346  -31.5701 H   0  0  0  0  0  0  0  0  0  0  0  0
   -8.5607   21.8775  -32.8099 H   0  0  0  0  0  0  0  0  0  0  0  0
   -8.4305   19.4096  -33.2816 H   0  0  0  0  0  0  0  0  0  0  0  0
   -4.6167   19.2092  -31.1813 H   0  0  0  0  0  0  0  0  0  0  0  0
   -0.3521   22.7504  -30.6455 H   0  0  0  0  0  0  0  0  0  0  0  0
   -1.7300   23.8383  -31.1028 H   0  0  0  0  0  0  0  0  0  0  0  0
   -2.6725   23.4769  -28.7920 H   0  0  0  0  0  0  0  0  0  0  0  0
   -1.1183   22.6272  -28.3813 H   0  0  0  0  0  0  0  0  0  0  0  0
   -1.5281   19.9983  -31.0019 H   0  0  0  0  0  0  0  0  0  0  0  0
   -2.9055   19.4338  -33.0798 H   0  0  0  0  0  0  0  0  0  0  0  0
   -3.6602   20.9410  -32.9701 H   0  0  0  0  0  0  0  0  0  0  0  0
   -1.9800   21.8890  -34.3060 H   0  0  0  0  0  0  0  0  0  0  0  0
    0.1734   20.6608  -32.8109 H   0  0  0  0  0  0  0  0  0  0  0  0
   -0.3341   22.2670  -32.6795 H   0  0  0  0  0  0  0  0  0  0  0  0
  1  2  1  0
  2  3  2  0
  2  4  1  0
  4  5  2  0
  5  6  1  0
  6  7  2  0
  7  8  1  0
  8  9  2  0
  9 10  1  0
 10 11  1  0
 10 12  1  0
 10 13  1  0
  9 14  1  0
 14 15  2  0
 15 16  1  0
 16 17  1  0
 17 18  2  0
 17 19  1  0
 19 20  1  0
 20 21  1  0
 21 22  1  0
 22 23  2  0
 22 24  1  0
 19 25  1  0
 25 26  1  0
 26 27  1  0
 27 28  1  0
 16  4  1  0
 28 25  1  0
 15  6  1  0
  1 29  1  0
  5 30  1  0
  7 31  1  0
  8 32  1  0
 14 33  1  0
 20 34  1  0
 20 35  1  0
 21 36  1  0
 21 37  1  0
 25 38  1  0
 26 39  1  0
 26 40  1  0
 27 41  1  0
 28 42  1  0
 28 43  1  0
M  CHG  2   1  -1  24  -1
M  END
>  <UniqueID>  (97) 
97

>  <SMILES>  (97) 
[NH-]C(=O)c1cc2ccc(C(F)(F)F)cc2n1C(=O)N(CCC(=O)[O-])C1CNC1

>  <Energy>  (97) 
150.01502424342223

>  <Genealogy>  (97) 
[NH-]C(=O)c1cc2ccc(C(F)(F)F)cc2n1C(=O)N(CCC(=O)[O-])C1CNC1 (protonated)
[NH-]C(=O)c1cc2ccc(C(F)(F)F)cc2n1C(=O)N(CCC(=O)[O-])C1CNC1 (3D coordinates assigned)
[NH-]C(=O)c1cc2ccc(C(F)(F)F)cc2n1C(=O)N(CCC(=O)[O-])C1CNC1 (nonaromatic ring conformer: 150.01502424342223 kcal/mol)

>  <smiles>  (97) 
NC(=O)c1cc2ccc(C(F)(F)F)cc2n1C(=O)N(CCC(=O)O)C1CNC1

>  <score_type>  (97) 
oracle

>  <origin>  (97) 
adg

>  <m_score__min__energy>  (97) 
-12.529999999999999

>  <m_primary>  (97) 
energy

$$$$
98:0
     RDKit          3D

 48 49  0  0  0  0  0  0  0  0999 V2000
   -3.7540   22.1960  -27.8150 C   0  0  0  0  0  0  0  0  0  0  0  0
   -3.3080   23.5760  -28.0540 N   0  0  0  0  0  0  0  0  0  0  0  0
   -4.2230   24.5410  -27.4250 C   0  0  0  0  0  0  0  0  0  0  0  0
   -1.9620   23.7610  -27.5530 C   0  0  0  0  0  0  0  0  0  0  0  0
   -1.7430   23.7630  -26.3490 O   0  0  0  0  0  0  0  0  0  0  0  0
   -0.8110   23.9260  -28.5080 C   0  0  0  0  0  0  0  0  0  0  0  0
   -1.2340   23.6530  -29.8280 O   0  0  0  0  0  0  0  0  0  0  0  0
   -0.7510   22.3950  -30.2530 C   0  0  0  0  0  0  0  0  0  0  0  0
   -1.9220   21.5000  -30.6530 C   0  0  0  0  0  0  0  0  0  0  0  0
   -3.1520   22.2180  -30.5750 O   0  0  0  0  0  0  0  0  0  0  0  0
   -3.9580   22.4840  -31.6880 C   0  0  0  0  0  0  0  0  0  0  0  0
   -3.5130   22.3120  -32.8560 O   0  0  0  0  0  0  0  0  0  0  0  0
   -5.3150   22.9110  -31.4980 N   0  0  0  0  0  0  0  0  0  0  0  0
   -5.7550   24.0820  -30.9610 C   0  0  0  0  0  0  0  0  0  0  0  0
   -4.9140   25.2510  -30.6290 C   0  0  0  0  0  0  0  0  0  0  0  0
   -3.5060   25.1140  -30.4610 N   0  0  0  0  0  0  0  0  0  0  0  0
   -5.4400   26.3910  -30.5360 O   0  0  0  0  0  0  0  0  0  0  0  0
   -7.1410   24.0650  -30.8190 C   0  0  0  0  0  0  0  0  0  0  0  0
   -7.5410   22.8340  -31.2910 C   0  0  0  0  0  0  0  0  0  0  0  0
   -8.8110   22.2670  -31.3540 C   0  0  0  0  0  0  0  0  0  0  0  0
   -8.9210   20.9530  -31.8390 C   0  0  0  0  0  0  0  0  0  0  0  0
   -7.7700   20.2350  -32.2490 C   0  0  0  0  0  0  0  0  0  0  0  0
   -7.8930   18.8100  -32.7120 C   0  0  0  0  0  0  0  0  0  0  0  0
   -6.5690   18.3120  -33.1950 C   0  0  0  0  0  0  0  0  0  0  0  0
   -5.8990   17.5090  -32.4920 O   0  0  0  0  0  0  0  0  0  0  0  0
   -6.0960   18.6920  -34.4440 O   0  0  0  0  0  0  0  0  0  0  0  0
   -6.4980   20.8400  -32.1620 C   0  0  0  0  0  0  0  0  0  0  0  0
   -6.4190   22.1570  -31.6940 C   0  0  0  0  0  0  0  0  0  0  0  0
   -3.8134   22.0122  -26.7321 H   0  0  0  0  0  0  0  0  0  0  0  0
   -4.7458   22.0477  -28.2670 H   0  0  0  0  0  0  0  0  0  0  0  0
   -3.0366   21.4953  -28.2670 H   0  0  0  0  0  0  0  0  0  0  0  0
   -3.3210   23.7460  -29.0890 H   0  0  0  0  0  0  0  0  0  0  0  0
   -4.1460   24.4597  -26.3307 H   0  0  0  0  0  0  0  0  0  0  0  0
   -3.9519   25.5604  -27.7370 H   0  0  0  0  0  0  0  0  0  0  0  0
   -5.2554   24.3244  -27.7370 H   0  0  0  0  0  0  0  0  0  0  0  0
   -0.4366   24.9588  -28.4519 H   0  0  0  0  0  0  0  0  0  0  0  0
   -0.0108   23.2231  -28.2331 H   0  0  0  0  0  0  0  0  0  0  0  0
   -0.0846   22.5326  -31.1173 H   0  0  0  0  0  0  0  0  0  0  0  0
   -0.1965   21.9215  -29.4294 H   0  0  0  0  0  0  0  0  0  0  0  0
   -1.7729   21.1492  -31.6849 H   0  0  0  0  0  0  0  0  0  0  0  0
   -1.9664   20.6445  -29.9630 H   0  0  0  0  0  0  0  0  0  0  0  0
   -2.9790   24.3480  -30.9360 H   0  0  0  0  0  0  0  0  0  0  0  0
   -7.7800   24.8645  -30.4158 H   0  0  0  0  0  0  0  0  0  0  0  0
   -9.7002   22.8300  -31.0341 H   0  0  0  0  0  0  0  0  0  0  0  0
   -9.9106   20.4767  -31.9011 H   0  0  0  0  0  0  0  0  0  0  0  0
   -8.2343   18.1834  -31.8748 H   0  0  0  0  0  0  0  0  0  0  0  0
   -8.6195   18.7602  -33.5364 H   0  0  0  0  0  0  0  0  0  0  0  0
   -5.5912   20.2904  -32.4546 H   0  0  0  0  0  0  0  0  0  0  0  0
  1  2  1  0
  2  3  1  0
  2  4  1  0
  4  5  2  0
  4  6  1  0
  6  7  1  0
  7  8  1  0
  8  9  1  0
  9 10  1  0
 10 11  1  0
 11 12  2  0
 11 13  1  0
 13 14  1  0
 14 15  1  0
 15 16  1  0
 15 17  2  0
 14 18  2  0
 18 19  1  0
 19 20  2  0
 20 21  1  0
 21 22  2  0
 22 23  1  0
 23 24  1  0
 24 25  2  0
 24 26  1  0
 22 27  1  0
 27 28  2  0
 28 13  1  0
 28 19  1  0
  1 29  1  0
  1 30  1  0
  1 31  1  0
  2 32  1  0
  3 33  1  0
  3 34  1  0
  3 35  1  0
  6 36  1  0
  6 37  1  0
  8 38  1  0
  8 39  1  0
  9 40  1  0
  9 41  1  0
 16 42  1  0
 18 43  1  0
 20 44  1  0
 21 45  1  0
 23 46  1  0
 23 47  1  0
 27 48  1  0
M  CHG  3   2   1  16  -1  26  -1
M  END
>  <UniqueID>  (98) 
98

>  <SMILES>  (98) 
C[NH+](C)C(=O)COCCOC(=O)n1c(C([NH-])=O)cc2ccc(CC(=O)[O-])cc21

>  <Energy>  (98) 
81.78905336194664

>  <Genealogy>  (98) 
C[NH+](C)C(=O)COCCOC(=O)n1c(C([NH-])=O)cc2ccc(CC(=O)[O-])cc21 (protonated)
C[NH+](C)C(=O)COCCOC(=O)n1c(C([NH-])=O)cc2ccc(CC(=O)[O-])cc21 (3D coordinates assigned)
C[NH+](C)C(=O)COCCOC(=O)n1c(C([NH-])=O)cc2ccc(CC(=O)[O-])cc21 (optimized conformer: 81.78905336194664 kcal/mol)

>  <smiles>  (98) 
CN(C)C(=O)COCCOC(=O)n1c(C(N)=O)cc2ccc(CC(=O)O)cc21

>  <score_type>  (98) 
oracle

>  <origin>  (98) 
adg

>  <m_score__min__energy>  (98) 
-9.1699999999999999

>  <m_primary>  (98) 
energy

$$$$
