0:0
     RDKit          3D

 59 63  0  0  0  0  0  0  0  0999 V2000
   -2.7550   19.1520  -26.7220 C   0  0  0  0  0  0  0  0  0  0  0  0
   -2.0410   20.4260  -27.1440 C   0  0  0  0  0  0  0  0  0  0  0  0
   -2.3130   20.6910  -28.5160 O   0  0  0  0  0  0  0  0  0  0  0  0
   -1.9730   21.8970  -29.1340 C   0  0  0  0  0  0  0  0  0  0  0  0
   -0.7630   22.2400  -29.2370 O   0  0  0  0  0  0  0  0  0  0  0  0
   -3.0070   22.7600  -29.6330 N   0  0  0  0  0  0  0  0  0  0  0  0
   -3.1410   24.1000  -29.4270 C   0  0  0  0  0  0  0  0  0  0  0  0
   -2.3450   24.9190  -28.4900 C   0  0  0  0  0  0  0  0  0  0  0  0
   -1.5590   26.0130  -28.9580 N   0  0  0  0  0  0  0  0  0  0  0  0
   -2.3180   24.6200  -27.2660 O   0  0  0  0  0  0  0  0  0  0  0  0
   -4.2030   24.6060  -30.1740 C   0  0  0  0  0  0  0  0  0  0  0  0
   -4.7250   23.5240  -30.8440 C   0  0  0  0  0  0  0  0  0  0  0  0
   -5.7900   23.4530  -31.7370 C   0  0  0  0  0  0  0  0  0  0  0  0
   -6.0880   22.2050  -32.3080 C   0  0  0  0  0  0  0  0  0  0  0  0
   -5.3140   21.0600  -31.9920 C   0  0  0  0  0  0  0  0  0  0  0  0
   -5.6390   19.7610  -32.6190 C   0  0  0  0  0  0  0  0  0  0  0  0
   -4.6650   18.8600  -32.9350 N   0  0  0  0  0  0  0  0  0  0  0  0
   -5.1560   17.7430  -33.5230 C   0  0  0  0  0  0  0  0  0  0  0  0
   -4.3400   16.6580  -34.0050 N   0  0  0  0  0  0  0  0  0  0  0  0
   -4.2950   15.3690  -33.3030 C   0  0  0  0  0  0  0  0  0  0  0  0
   -2.8550   14.8160  -33.2440 C   0  0  0  0  0  0  0  0  0  0  0  0
   -1.9660   15.3980  -34.2760 N   0  0  0  0  0  0  0  0  0  0  0  0
   -0.8040   14.5270  -34.5060 C   0  0  0  0  0  0  0  0  0  0  0  0
   -2.6880   15.6400  -35.5370 C   0  0  0  0  0  0  0  0  0  0  0  0
   -3.6960   16.7710  -35.3210 C   0  0  0  0  0  0  0  0  0  0  0  0
   -6.8300   17.8300  -33.6870 S   0  0  0  0  0  0  0  0  0  0  0  0
   -6.9360   19.3390  -32.9450 C   0  0  0  0  0  0  0  0  0  0  0  0
   -8.2210   20.0870  -32.7320 C   0  0  0  0  0  0  0  0  0  0  0  0
   -8.7440   20.0770  -31.3020 C   0  0  0  0  0  0  0  0  0  0  0  0
   -9.4080   19.2100  -32.3560 C   0  0  0  0  0  0  0  0  0  0  0  0
   -4.2500   21.1690  -31.0670 C   0  0  0  0  0  0  0  0  0  0  0  0
   -3.9850   22.4230  -30.5020 C   0  0  0  0  0  0  0  0  0  0  0  0
   -2.7865   19.0959  -25.6239 H   0  0  0  0  0  0  0  0  0  0  0  0
   -3.7811   19.1582  -27.1184 H   0  0  0  0  0  0  0  0  0  0  0  0
   -2.2141   18.2800  -27.1184 H   0  0  0  0  0  0  0  0  0  0  0  0
   -2.3978   21.2665  -26.5306 H   0  0  0  0  0  0  0  0  0  0  0  0
   -0.9571   20.3026  -27.0026 H   0  0  0  0  0  0  0  0  0  0  0  0
   -1.2180   26.0450  -29.9450 H   0  0  0  0  0  0  0  0  0  0  0  0
   -4.5501   25.6489  -30.2184 H   0  0  0  0  0  0  0  0  0  0  0  0
   -6.3802   24.3468  -31.9879 H   0  0  0  0  0  0  0  0  0  0  0  0
   -6.9315   22.1149  -33.0083 H   0  0  0  0  0  0  0  0  0  0  0  0
   -3.6500   19.0500  -32.7930 H   0  0  0  0  0  0  0  0  0  0  0  0
   -4.6693   15.5055  -32.2777 H   0  0  0  0  0  0  0  0  0  0  0  0
   -4.9218   14.6510  -33.8521 H   0  0  0  0  0  0  0  0  0  0  0  0
   -2.4343   15.0403  -32.2527 H   0  0  0  0  0  0  0  0  0  0  0  0
   -2.9114   13.7337  -33.4324 H   0  0  0  0  0  0  0  0  0  0  0  0
   -0.3844   14.2125  -33.5390 H   0  0  0  0  0  0  0  0  0  0  0  0
   -1.1178   13.6398  -35.0755 H   0  0  0  0  0  0  0  0  0  0  0  0
   -0.0404   15.0771  -35.0755 H   0  0  0  0  0  0  0  0  0  0  0  0
   -1.9735   15.9270  -36.3225 H   0  0  0  0  0  0  0  0  0  0  0  0
   -3.2145   14.7252  -35.8468 H   0  0  0  0  0  0  0  0  0  0  0  0
   -3.1724   17.7364  -35.3836 H   0  0  0  0  0  0  0  0  0  0  0  0
   -4.4717   16.7023  -36.0979 H   0  0  0  0  0  0  0  0  0  0  0  0
   -8.0283   20.8657  -33.4846 H   0  0  0  0  0  0  0  0  0  0  0  0
   -8.1491   19.6115  -30.5024 H   0  0  0  0  0  0  0  0  0  0  0  0
   -9.0918   20.8458  -30.5963 H   0  0  0  0  0  0  0  0  0  0  0  0
   -9.2940   18.1165  -32.3199 H   0  0  0  0  0  0  0  0  0  0  0  0
  -10.4357   19.0909  -32.7298 H   0  0  0  0  0  0  0  0  0  0  0  0
   -3.6452   20.2905  -30.7977 H   0  0  0  0  0  0  0  0  0  0  0  0
  1  2  1  0
  2  3  1  0
  3  4  1  0
  4  5  2  0
  4  6  1  0
  6  7  1  0
  7  8  1  0
  8  9  1  0
  8 10  2  0
  7 11  2  0
 11 12  1  0
 12 13  2  0
 13 14  1  0
 14 15  2  0
 15 16  1  0
 16 17  1  0
 17 18  2  0
 18 19  1  0
 19 20  1  0
 20 21  1  0
 21 22  1  0
 22 23  1  0
 22 24  1  0
 24 25  1  0
 18 26  1  0
 26 27  1  0
 27 28  1  0
 28 29  1  0
 29 30  1  0
 15 31  1  0
 31 32  2  0
 32  6  1  0
 32 12  1  0
 27 16  2  0
 30 28  1  0
 25 19  1  0
  1 33  1  0
  1 34  1  0
  1 35  1  0
  2 36  1  0
  2 37  1  0
  9 38  1  0
 11 39  1  0
 13 40  1  0
 14 41  1  0
 17 42  1  0
 20 43  1  0
 20 44  1  0
 21 45  1  0
 21 46  1  0
 23 47  1  0
 23 48  1  0
 23 49  1  0
 24 50  1  0
 24 51  1  0
 25 52  1  0
 25 53  1  0
 28 54  1  0
 29 55  1  0
 29 56  1  0
 30 57  1  0
 30 58  1  0
 31 59  1  0
M  CHG  2   9  -1  17   1
M  END
>  <UniqueID>  (1) 
1

>  <SMILES>  (1) 
CCOC(=O)n1c(C([NH-])=O)cc2ccc(-c3[nH+]c(N4CCN(C)CC4)sc3C3CC3)cc21

>  <Energy>  (1) 
400.29682407359496

>  <Genealogy>  (1) 
CCOC(=O)n1c(C([NH-])=O)cc2ccc(-c3[nH+]c(N4CCN(C)CC4)sc3C3CC3)cc21 (protonated)
CCOC(=O)n1c(C([NH-])=O)cc2ccc(-c3[nH+]c(N4CCN(C)CC4)sc3C3CC3)cc21 (3D coordinates assigned)
CCOC(=O)n1c(C([NH-])=O)cc2ccc(-c3[nH+]c(N4CCN(C)CC4)sc3C3CC3)cc21 (nonaromatic ring conformer: 400.29682407359496 kcal/mol)

>  <smiles>  (1) 
CCOC(=O)n1c(C(N)=O)cc2ccc(-c3nc(N4CCN(C)CC4)sc3C3CC3)cc21

>  <score_type>  (1) 
oracle

>  <origin>  (1) 
adg

>  <m_score__min__energy>  (1) 
-11.15

>  <m_primary>  (1) 
energy

$$$$
1:0
     RDKit          3D

 40 42  0  0  0  0  0  0  0  0999 V2000
   -7.8260   18.2570  -31.2500 C   0  0  0  0  0  0  0  0  0  0  0  0
   -7.9850   18.5980  -32.6750 N   0  0  0  0  0  0  0  0  0  0  0  0
   -6.8130   18.1660  -33.4810 C   0  0  0  0  0  0  0  0  0  0  0  0
   -5.8790   19.3180  -33.8930 C   0  0  0  0  0  0  0  0  0  0  0  0
   -5.8820   20.3670  -32.8700 N   0  0  0  0  0  0  0  0  0  0  0  0
   -4.6600   20.8180  -32.2540 C   0  0  0  0  0  0  0  0  0  0  0  0
   -3.4820   20.0310  -32.3420 C   0  0  0  0  0  0  0  0  0  0  0  0
   -2.2920   20.4480  -31.7250 C   0  0  0  0  0  0  0  0  0  0  0  0
   -2.3050   21.6520  -31.0280 C   0  0  0  0  0  0  0  0  0  0  0  0
   -1.3040   22.2790  -30.3220 C   0  0  0  0  0  0  0  0  0  0  0  0
   -1.8790   23.4450  -29.8210 C   0  0  0  0  0  0  0  0  0  0  0  0
   -1.1240   24.4710  -29.0720 C   0  0  0  0  0  0  0  0  0  0  0  0
   -1.5990   25.8110  -28.9820 N   0  0  0  0  0  0  0  0  0  0  0  0
   -0.0220   24.1680  -28.5390 O   0  0  0  0  0  0  0  0  0  0  0  0
   -3.1870   23.5290  -30.1950 N   0  0  0  0  0  0  0  0  0  0  0  0
   -4.1510   24.5270  -29.8200 C   0  0  0  0  0  0  0  0  0  0  0  0
   -5.0880   24.2690  -28.7740 N   0  0  0  0  0  0  0  0  0  0  0  0
   -4.1950   25.6230  -30.4390 O   0  0  0  0  0  0  0  0  0  0  0  0
   -3.4310   22.4280  -30.9370 C   0  0  0  0  0  0  0  0  0  0  0  0
   -4.6340   22.0310  -31.5290 C   0  0  0  0  0  0  0  0  0  0  0  0
   -7.1680   20.9510  -32.4720 C   0  0  0  0  0  0  0  0  0  0  0  0
   -8.3310   20.0240  -32.8630 C   0  0  0  0  0  0  0  0  0  0  0  0
   -8.2102   19.0810  -30.6307 H   0  0  0  0  0  0  0  0  0  0  0  0
   -8.3886   17.3382  -31.0279 H   0  0  0  0  0  0  0  0  0  0  0  0
   -6.7606   18.0973  -31.0279 H   0  0  0  0  0  0  0  0  0  0  0  0
   -6.2319   17.4446  -32.8877 H   0  0  0  0  0  0  0  0  0  0  0  0
   -7.2085   17.7287  -34.4096 H   0  0  0  0  0  0  0  0  0  0  0  0
   -4.8564   18.9308  -34.0124 H   0  0  0  0  0  0  0  0  0  0  0  0
   -6.2345   19.7440  -34.8428 H   0  0  0  0  0  0  0  0  0  0  0  0
   -3.5018   19.0833  -32.9002 H   0  0  0  0  0  0  0  0  0  0  0  0
   -1.3769   19.8411  -31.7906 H   0  0  0  0  0  0  0  0  0  0  0  0
   -0.2692   21.9330  -30.1827 H   0  0  0  0  0  0  0  0  0  0  0  0
   -2.6210   26.0180  -28.9570 H   0  0  0  0  0  0  0  0  0  0  0  0
   -5.1140   23.3380  -28.3030 H   0  0  0  0  0  0  0  0  0  0  0  0
   -5.7800   24.9990  -28.4940 H   0  0  0  0  0  0  0  0  0  0  0  0
   -5.5392   22.6485  -31.4327 H   0  0  0  0  0  0  0  0  0  0  0  0
   -7.1753   21.0992  -31.3821 H   0  0  0  0  0  0  0  0  0  0  0  0
   -7.2941   21.9136  -32.9892 H   0  0  0  0  0  0  0  0  0  0  0  0
   -9.2033   20.2641  -32.2373 H   0  0  0  0  0  0  0  0  0  0  0  0
   -8.5521   20.1842  -33.9286 H   0  0  0  0  0  0  0  0  0  0  0  0
  1  2  1  0
  2  3  1  0
  3  4  1  0
  4  5  1  0
  5  6  1  0
  6  7  2  0
  7  8  1  0
  8  9  2  0
  9 10  1  0
 10 11  2  0
 11 12  1  0
 12 13  1  0
 12 14  2  0
 11 15  1  0
 15 16  1  0
 16 17  1  0
 16 18  2  0
 15 19  1  0
 19 20  2  0
  5 21  1  0
 21 22  1  0
 22  2  1  0
 20  6  1  0
 19  9  1  0
  1 23  1  0
  1 24  1  0
  1 25  1  0
  3 26  1  0
  3 27  1  0
  4 28  1  0
  4 29  1  0
  7 30  1  0
  8 31  1  0
 10 32  1  0
 13 33  1  0
 17 34  1  0
 17 35  1  0
 20 36  1  0
 21 37  1  0
 21 38  1  0
 22 39  1  0
 22 40  1  0
M  CHG  1  13  -1
M  END
>  <UniqueID>  (2) 
2

>  <SMILES>  (2) 
CN1CCN(c2ccc3cc(C([NH-])=O)n(C(N)=O)c3c2)CC1

>  <Energy>  (2) 
91.12949190992661

>  <Genealogy>  (2) 
CN1CCN(c2ccc3cc(C([NH-])=O)n(C(N)=O)c3c2)CC1 (protonated)
CN1CCN(c2ccc3cc(C([NH-])=O)n(C(N)=O)c3c2)CC1 (3D coordinates assigned)
CN1CCN(c2ccc3cc(C([NH-])=O)n(C(N)=O)c3c2)CC1 (nonaromatic ring conformer: 91.12949190992661 kcal/mol)

>  <smiles>  (2) 
CN1CCN(c2ccc3cc(C(N)=O)n(C(N)=O)c3c2)CC1

>  <score_type>  (2) 
oracle

>  <origin>  (2) 
adg

>  <m_score__min__energy>  (2) 
-10.83

>  <m_primary>  (2) 
energy

$$$$
2:0
     RDKit          3D

 42 44  0  0  0  0  0  0  0  0999 V2000
   -1.6160   23.1340  -29.4300 C   0  0  0  0  0  0  0  0  0  0  0  0
   -2.8400   24.0530  -29.3940 C   0  0  0  0  0  0  0  0  0  0  0  0
   -3.8800   23.5170  -28.4130 C   0  0  0  0  0  0  0  0  0  0  0  0
   -3.4300   24.1360  -30.6910 O   0  0  0  0  0  0  0  0  0  0  0  0
   -4.0220   23.0490  -31.3440 C   0  0  0  0  0  0  0  0  0  0  0  0
   -3.3070   22.1860  -31.9210 O   0  0  0  0  0  0  0  0  0  0  0  0
   -5.4530   22.9190  -31.3560 N   0  0  0  0  0  0  0  0  0  0  0  0
   -6.3760   23.8520  -30.9910 C   0  0  0  0  0  0  0  0  0  0  0  0
   -6.0880   25.1500  -30.3490 C   0  0  0  0  0  0  0  0  0  0  0  0
   -5.0520   26.0040  -30.8370 N   0  0  0  0  0  0  0  0  0  0  0  0
   -6.7290   25.4860  -29.3180 O   0  0  0  0  0  0  0  0  0  0  0  0
   -7.6650   23.4010  -31.2640 C   0  0  0  0  0  0  0  0  0  0  0  0
   -7.5030   22.1440  -31.8010 C   0  0  0  0  0  0  0  0  0  0  0  0
   -8.4530   21.2430  -32.2670 C   0  0  0  0  0  0  0  0  0  0  0  0
   -8.0020   20.0290  -32.8100 C   0  0  0  0  0  0  0  0  0  0  0  0
   -6.6130   19.7380  -32.8920 C   0  0  0  0  0  0  0  0  0  0  0  0
   -6.1450   18.4560  -33.4810 C   0  0  0  0  0  0  0  0  0  0  0  0
   -6.7890   17.2250  -33.4610 C   0  0  0  0  0  0  0  0  0  0  0  0
   -6.0300   16.3120  -34.0960 N   0  0  0  0  0  0  0  0  0  0  0  0
   -4.9420   16.9260  -34.5280 N   0  0  0  0  0  0  0  0  0  0  0  0
   -3.8460   16.2520  -35.2120 C   0  0  0  0  0  0  0  0  0  0  0  0
   -4.9650   18.2210  -34.1660 C   0  0  0  0  0  0  0  0  0  0  0  0
   -5.6800   20.6860  -32.4070 C   0  0  0  0  0  0  0  0  0  0  0  0
   -6.1600   21.8770  -31.8490 C   0  0  0  0  0  0  0  0  0  0  0  0
   -1.3034   22.8993  -28.4018 H   0  0  0  0  0  0  0  0  0  0  0  0
   -1.8719   22.2030  -29.9570 H   0  0  0  0  0  0  0  0  0  0  0  0
   -0.7933   23.6395  -29.9570 H   0  0  0  0  0  0  0  0  0  0  0  0
   -2.5103   25.0512  -29.0702 H   0  0  0  0  0  0  0  0  0  0  0  0
   -3.5375   23.6935  -27.3827 H   0  0  0  0  0  0  0  0  0  0  0  0
   -4.8374   24.0340  -28.5748 H   0  0  0  0  0  0  0  0  0  0  0  0
   -4.0144   22.4373  -28.5748 H   0  0  0  0  0  0  0  0  0  0  0  0
   -4.3900   25.6800  -31.5770 H   0  0  0  0  0  0  0  0  0  0  0  0
   -4.8900   26.9360  -30.3960 H   0  0  0  0  0  0  0  0  0  0  0  0
   -8.6104   23.9351  -31.0881 H   0  0  0  0  0  0  0  0  0  0  0  0
   -9.5270   21.4741  -32.2121 H   0  0  0  0  0  0  0  0  0  0  0  0
   -8.7332   19.2936  -33.1767 H   0  0  0  0  0  0  0  0  0  0  0  0
   -7.7671   17.0271  -32.9982 H   0  0  0  0  0  0  0  0  0  0  0  0
   -3.1555   15.8274  -34.4684 H   0  0  0  0  0  0  0  0  0  0  0  0
   -4.2480   15.4449  -35.8420 H   0  0  0  0  0  0  0  0  0  0  0  0
   -3.3071   16.9750  -35.8420 H   0  0  0  0  0  0  0  0  0  0  0  0
   -4.1823   18.9644  -34.3774 H   0  0  0  0  0  0  0  0  0  0  0  0
   -4.5992   20.4907  -32.4674 H   0  0  0  0  0  0  0  0  0  0  0  0
  1  2  1  0
  2  3  1  0
  2  4  1  0
  4  5  1  0
  5  6  2  0
  5  7  1  0
  7  8  1  0
  8  9  1  0
  9 10  1  0
  9 11  2  0
  8 12  2  0
 12 13  1  0
 13 14  2  0
 14 15  1  0
 15 16  2  0
 16 17  1  0
 17 18  1  0
 18 19  2  0
 19 20  1  0
 20 21  1  0
 20 22  1  0
 16 23  1  0
 23 24  2  0
 24  7  1  0
 24 13  1  0
 22 17  2  0
  1 25  1  0
  1 26  1  0
  1 27  1  0
  2 28  1  0
  3 29  1  0
  3 30  1  0
  3 31  1  0
 10 32  1  0
 10 33  1  0
 12 34  1  0
 14 35  1  0
 15 36  1  0
 18 37  1  0
 21 38  1  0
 21 39  1  0
 21 40  1  0
 22 41  1  0
 23 42  1  0
M  END
>  <UniqueID>  (3) 
3

>  <SMILES>  (3) 
CC(C)OC(=O)n1c(C(N)=O)cc2ccc(-c3cnn(C)c3)cc21

>  <Energy>  (3) 
107.90542695359721

>  <Genealogy>  (3) 
CC(C)OC(=O)n1c(C(N)=O)cc2ccc(-c3cnn(C)c3)cc21 (3D coordinates assigned)
CC(C)OC(=O)n1c(C(N)=O)cc2ccc(-c3cnn(C)c3)cc21 (optimized conformer: 107.90542695359721 kcal/mol)

>  <smiles>  (3) 
CC(C)OC(=O)n1c(C(N)=O)cc2ccc(-c3cnn(C)c3)cc21

>  <score_type>  (3) 
oracle

>  <origin>  (3) 
adg

>  <m_score__min__energy>  (3) 
-9.3399999999999999

>  <m_primary>  (3) 
energy

$$$$
3:0
     RDKit          3D

 46 49  0  0  0  0  0  0  0  0999 V2000
   -6.3840   24.5590  -30.1030 C   0  0  0  0  0  0  0  0  0  0  0  0
   -5.3160   23.4780  -29.9830 C   0  0  0  0  0  0  0  0  0  0  0  0
   -3.9850   24.0080  -30.4240 C   0  0  0  0  0  0  0  0  0  0  0  0
   -3.8580   25.2360  -30.6830 O   0  0  0  0  0  0  0  0  0  0  0  0
   -2.8320   23.1560  -30.4400 N   0  0  0  0  0  0  0  0  0  0  0  0
   -1.6800   23.2900  -29.7280 C   0  0  0  0  0  0  0  0  0  0  0  0
   -1.4260   24.3090  -28.6880 C   0  0  0  0  0  0  0  0  0  0  0  0
   -1.7560   25.6750  -28.9340 N   0  0  0  0  0  0  0  0  0  0  0  0
   -0.8950   23.9900  -27.5910 O   0  0  0  0  0  0  0  0  0  0  0  0
   -0.7840   22.2740  -30.0570 C   0  0  0  0  0  0  0  0  0  0  0  0
   -1.4350   21.5030  -30.9950 C   0  0  0  0  0  0  0  0  0  0  0  0
   -1.0200   20.3540  -31.6630 C   0  0  0  0  0  0  0  0  0  0  0  0
   -1.9060   19.7720  -32.5860 C   0  0  0  0  0  0  0  0  0  0  0  0
   -3.1790   20.3470  -32.8280 C   0  0  0  0  0  0  0  0  0  0  0  0
   -4.1230   19.7010  -33.8040 C   0  0  0  0  0  0  0  0  0  0  0  0
   -5.3940   19.3060  -33.1150 C   0  0  0  0  0  0  0  0  0  0  0  0
   -5.7670   18.0230  -32.7280 C   0  0  0  0  0  0  0  0  0  0  0  0
   -6.9190   18.0620  -32.0830 O   0  0  0  0  0  0  0  0  0  0  0  0
   -7.3040   19.3160  -32.0240 C   0  0  0  0  0  0  0  0  0  0  0  0
   -8.4550   19.8240  -31.4260 C   0  0  0  0  0  0  0  0  0  0  0  0
   -8.6700   21.2190  -31.4790 C   0  0  0  0  0  0  0  0  0  0  0  0
   -9.8760   21.8120  -30.8110 C   0  0  0  0  0  0  0  0  0  0  0  0
   -7.7140   22.0580  -32.1040 C   0  0  0  0  0  0  0  0  0  0  0  0
   -6.5630   21.5140  -32.7010 C   0  0  0  0  0  0  0  0  0  0  0  0
   -6.3940   20.1310  -32.6440 C   0  0  0  0  0  0  0  0  0  0  0  0
   -3.5690   21.5090  -32.1240 C   0  0  0  0  0  0  0  0  0  0  0  0
   -2.6710   22.0580  -31.2060 C   0  0  0  0  0  0  0  0  0  0  0  0
   -6.6983   24.8771  -29.0980 H   0  0  0  0  0  0  0  0  0  0  0  0
   -5.9733   25.4212  -30.6488 H   0  0  0  0  0  0  0  0  0  0  0  0
   -7.2511   24.1588  -30.6488 H   0  0  0  0  0  0  0  0  0  0  0  0
   -5.2470   23.1513  -28.9349 H   0  0  0  0  0  0  0  0  0  0  0  0
   -5.5931   22.6294  -30.6257 H   0  0  0  0  0  0  0  0  0  0  0  0
   -2.7510   25.9880  -28.9630 H   0  0  0  0  0  0  0  0  0  0  0  0
    0.2277   22.1205  -29.6535 H   0  0  0  0  0  0  0  0  0  0  0  0
   -0.0291   19.9152  -31.4742 H   0  0  0  0  0  0  0  0  0  0  0  0
   -1.6086   18.8610  -33.1261 H   0  0  0  0  0  0  0  0  0  0  0  0
   -4.3536   20.4123  -34.6108 H   0  0  0  0  0  0  0  0  0  0  0  0
   -3.6468   18.8008  -34.2198 H   0  0  0  0  0  0  0  0  0  0  0  0
   -5.1876   17.1099  -32.9295 H   0  0  0  0  0  0  0  0  0  0  0  0
   -9.1751   19.1585  -30.9273 H   0  0  0  0  0  0  0  0  0  0  0  0
   -9.7564   21.7532  -29.7191 H   0  0  0  0  0  0  0  0  0  0  0  0
   -9.9815   22.8647  -31.1121 H   0  0  0  0  0  0  0  0  0  0  0  0
  -10.7741   21.2527  -31.1121 H   0  0  0  0  0  0  0  0  0  0  0  0
   -7.8741   23.1461  -32.1223 H   0  0  0  0  0  0  0  0  0  0  0  0
   -5.8210   22.1576  -33.1962 H   0  0  0  0  0  0  0  0  0  0  0  0
   -4.5537   21.9687  -32.2946 H   0  0  0  0  0  0  0  0  0  0  0  0
  1  2  1  0
  2  3  1  0
  3  4  2  0
  3  5  1  0
  5  6  1  0
  6  7  1  0
  7  8  1  0
  7  9  2  0
  6 10  2  0
 10 11  1  0
 11 12  2  0
 12 13  1  0
 13 14  2  0
 14 15  1  0
 15 16  1  0
 16 17  2  0
 17 18  1  0
 18 19  1  0
 19 20  2  0
 20 21  1  0
 21 22  1  0
 21 23  2  0
 23 24  1  0
 24 25  2  0
 14 26  1  0
 26 27  2  0
 27  5  1  0
 27 11  1  0
 25 16  1  0
 25 19  1  0
  1 28  1  0
  1 29  1  0
  1 30  1  0
  2 31  1  0
  2 32  1  0
  8 33  1  0
 10 34  1  0
 12 35  1  0
 13 36  1  0
 15 37  1  0
 15 38  1  0
 17 39  1  0
 20 40  1  0
 22 41  1  0
 22 42  1  0
 22 43  1  0
 23 44  1  0
 24 45  1  0
 26 46  1  0
M  CHG  1   8  -1
M  END
>  <UniqueID>  (4) 
4

>  <SMILES>  (4) 
CCC(=O)n1c(C([NH-])=O)cc2ccc(Cc3coc4cc(C)ccc34)cc21

>  <Energy>  (4) 
116.94380013570338

>  <Genealogy>  (4) 
CCC(=O)n1c(C([NH-])=O)cc2ccc(Cc3coc4cc(C)ccc34)cc21 (protonated)
CCC(=O)n1c(C([NH-])=O)cc2ccc(Cc3coc4cc(C)ccc34)cc21 (3D coordinates assigned)
CCC(=O)n1c(C([NH-])=O)cc2ccc(Cc3coc4cc(C)ccc34)cc21 (optimized conformer: 116.94380013570338 kcal/mol)

>  <smiles>  (4) 
CCC(=O)n1c(C(N)=O)cc2ccc(Cc3coc4cc(C)ccc34)cc21

>  <score_type>  (4) 
oracle

>  <origin>  (4) 
adg

>  <m_score__min__energy>  (4) 
-12.029999999999999

>  <m_primary>  (4) 
energy

$$$$
4:0
     RDKit          3D

 33 35  0  0  0  0  0  0  0  0999 V2000
   -1.5900   25.6560  -29.1270 N   0  0  0  0  0  0  0  0  0  0  0  0
   -1.6300   24.2640  -28.8250 C   0  0  0  0  0  0  0  0  0  0  0  0
   -1.2750   23.8700  -27.6820 O   0  0  0  0  0  0  0  0  0  0  0  0
   -2.1380   23.2870  -29.8100 C   0  0  0  0  0  0  0  0  0  0  0  0
   -1.4490   22.1270  -30.1610 C   0  0  0  0  0  0  0  0  0  0  0  0
   -2.2850   21.4530  -31.0210 C   0  0  0  0  0  0  0  0  0  0  0  0
   -2.1030   20.2410  -31.6780 C   0  0  0  0  0  0  0  0  0  0  0  0
   -3.1240   19.7940  -32.5320 C   0  0  0  0  0  0  0  0  0  0  0  0
   -4.2950   20.5700  -32.7280 C   0  0  0  0  0  0  0  0  0  0  0  0
   -5.3880   20.0810  -33.6460 C   0  0  0  0  0  0  0  0  0  0  0  0
   -6.6600   19.8030  -32.8850 C   0  0  0  0  0  0  0  0  0  0  0  0
   -7.5110   20.8440  -32.4710 C   0  0  0  0  0  0  0  0  0  0  0  0
   -8.6630   20.4130  -31.8310 C   0  0  0  0  0  0  0  0  0  0  0  0
   -8.6360   18.7360  -31.7820 S   0  0  0  0  0  0  0  0  0  0  0  0
   -7.1620   18.5320  -32.5680 C   0  0  0  0  0  0  0  0  0  0  0  0
   -6.5660   17.2110  -32.8400 C   0  0  0  0  0  0  0  0  0  0  0  0
   -6.8680   16.5600  -33.8710 O   0  0  0  0  0  0  0  0  0  0  0  0
   -5.6460   16.6750  -31.9480 O   0  0  0  0  0  0  0  0  0  0  0  0
   -4.4510   21.7880  -32.0270 C   0  0  0  0  0  0  0  0  0  0  0  0
   -3.4240   22.2010  -31.1710 C   0  0  0  0  0  0  0  0  0  0  0  0
   -3.3480   23.3330  -30.4350 N   0  0  0  0  0  0  0  0  0  0  0  0
   -4.3070   24.4030  -30.4130 C   0  0  0  0  0  0  0  0  0  0  0  0
   -5.4940   24.1860  -30.0550 O   0  0  0  0  0  0  0  0  0  0  0  0
   -3.9410   25.6810  -30.8140 O   0  0  0  0  0  0  0  0  0  0  0  0
   -1.2320   25.9960  -30.0470 H   0  0  0  0  0  0  0  0  0  0  0  0
   -0.4495   21.8166  -29.8224 H   0  0  0  0  0  0  0  0  0  0  0  0
   -1.1866   19.6501  -31.5330 H   0  0  0  0  0  0  0  0  0  0  0  0
   -3.0146   18.8322  -33.0544 H   0  0  0  0  0  0  0  0  0  0  0  0
   -5.5868   20.8496  -34.4074 H   0  0  0  0  0  0  0  0  0  0  0  0
   -5.0532   19.1445  -34.1160 H   0  0  0  0  0  0  0  0  0  0  0  0
   -7.2825   21.9066  -32.6402 H   0  0  0  0  0  0  0  0  0  0  0  0
   -9.4565   21.0582  -31.4259 H   0  0  0  0  0  0  0  0  0  0  0  0
   -5.3587   22.3968  -32.1517 H   0  0  0  0  0  0  0  0  0  0  0  0
  1  2  1  0
  2  3  2  0
  2  4  1  0
  4  5  2  0
  5  6  1  0
  6  7  2  0
  7  8  1  0
  8  9  2  0
  9 10  1  0
 10 11  1  0
 11 12  1  0
 12 13  2  0
 13 14  1  0
 14 15  1  0
 15 16  1  0
 16 17  2  0
 16 18  1  0
  9 19  1  0
 19 20  2  0
 20 21  1  0
 21 22  1  0
 22 23  2  0
 22 24  1  0
 21  4  1  0
 20  6  1  0
 15 11  2  0
  1 25  1  0
  5 26  1  0
  7 27  1  0
  8 28  1  0
 10 29  1  0
 10 30  1  0
 12 31  1  0
 13 32  1  0
 19 33  1  0
M  CHG  3   1  -1  18  -1  24  -1
M  END
>  <UniqueID>  (5) 
5

>  <SMILES>  (5) 
[NH-]C(=O)c1cc2ccc(Cc3ccsc3C(=O)[O-])cc2n1C(=O)[O-]

>  <Energy>  (5) 
101.34517310647365

>  <Genealogy>  (5) 
[NH-]C(=O)c1cc2ccc(Cc3ccsc3C(=O)[O-])cc2n1C(=O)[O-] (protonated)
[NH-]C(=O)c1cc2ccc(Cc3ccsc3C(=O)[O-])cc2n1C(=O)[O-] (3D coordinates assigned)
[NH-]C(=O)c1cc2ccc(Cc3ccsc3C(=O)[O-])cc2n1C(=O)[O-] (optimized conformer: 101.34517310647365 kcal/mol)

>  <smiles>  (5) 
NC(=O)c1cc2ccc(Cc3ccsc3C(=O)O)cc2n1C(=O)O

>  <score_type>  (5) 
oracle

>  <origin>  (5) 
adg

>  <m_score__min__energy>  (5) 
-12.31

>  <m_primary>  (5) 
energy

$$$$
5:0
     RDKit          3D

 43 44  0  0  0  0  0  0  0  0999 V2000
   -3.1070   18.1960  -34.1770 C   0  0  0  0  0  0  0  0  0  0  0  0
   -3.9960   17.1390  -34.8280 C   0  0  0  0  0  0  0  0  0  0  0  0
   -5.2780   17.0270  -34.1160 N   0  0  0  0  0  0  0  0  0  0  0  0
   -5.6840   15.7190  -33.5790 C   0  0  0  0  0  0  0  0  0  0  0  0
   -4.8790   15.3740  -32.3300 C   0  0  0  0  0  0  0  0  0  0  0  0
   -6.1450   18.1790  -34.0280 C   0  0  0  0  0  0  0  0  0  0  0  0
   -6.0700   19.0820  -34.9080 O   0  0  0  0  0  0  0  0  0  0  0  0
   -7.1620   18.3290  -32.9240 C   0  0  0  0  0  0  0  0  0  0  0  0
   -7.2700   19.7670  -32.4890 C   0  0  0  0  0  0  0  0  0  0  0  0
   -8.5450   20.3650  -32.3300 C   0  0  0  0  0  0  0  0  0  0  0  0
   -8.6610   21.6980  -31.8990 C   0  0  0  0  0  0  0  0  0  0  0  0
   -7.4910   22.3950  -31.6140 C   0  0  0  0  0  0  0  0  0  0  0  0
   -7.3140   23.6950  -31.1970 C   0  0  0  0  0  0  0  0  0  0  0  0
   -5.9360   23.8570  -31.0680 C   0  0  0  0  0  0  0  0  0  0  0  0
   -5.3040   25.1010  -30.5760 C   0  0  0  0  0  0  0  0  0  0  0  0
   -3.8940   25.2920  -30.6550 N   0  0  0  0  0  0  0  0  0  0  0  0
   -6.0180   25.9950  -30.0460 O   0  0  0  0  0  0  0  0  0  0  0  0
   -5.2860   22.7040  -31.3950 N   0  0  0  0  0  0  0  0  0  0  0  0
   -3.8670   22.4790  -31.4450 C   0  0  0  0  0  0  0  0  0  0  0  0
   -3.0520   22.4410  -30.1910 C   0  0  0  0  0  0  0  0  0  0  0  0
   -3.2980   22.3070  -32.5560 O   0  0  0  0  0  0  0  0  0  0  0  0
   -6.2510   21.8200  -31.7310 C   0  0  0  0  0  0  0  0  0  0  0  0
   -6.1050   20.5040  -32.1820 C   0  0  0  0  0  0  0  0  0  0  0  0
   -3.1781   18.1114  -33.0826 H   0  0  0  0  0  0  0  0  0  0  0  0
   -2.0639   18.0409  -34.4897 H   0  0  0  0  0  0  0  0  0  0  0  0
   -3.4386   19.1971  -34.4897 H   0  0  0  0  0  0  0  0  0  0  0  0
   -4.1873   17.4224  -35.8735 H   0  0  0  0  0  0  0  0  0  0  0  0
   -3.4810   16.1680  -34.7835 H   0  0  0  0  0  0  0  0  0  0  0  0
   -6.7531   15.7505  -33.3220 H   0  0  0  0  0  0  0  0  0  0  0  0
   -5.4970   14.9501  -34.3431 H   0  0  0  0  0  0  0  0  0  0  0  0
   -5.4660   15.6256  -31.4344 H   0  0  0  0  0  0  0  0  0  0  0  0
   -4.6491   14.2983  -32.3275 H   0  0  0  0  0  0  0  0  0  0  0  0
   -3.9415   15.9494  -32.3275 H   0  0  0  0  0  0  0  0  0  0  0  0
   -8.1423   17.9875  -33.2877 H   0  0  0  0  0  0  0  0  0  0  0  0
   -6.8410   17.7233  -32.0638 H   0  0  0  0  0  0  0  0  0  0  0  0
   -9.4518   19.7809  -32.5458 H   0  0  0  0  0  0  0  0  0  0  0  0
   -9.6461   22.1752  -31.7904 H   0  0  0  0  0  0  0  0  0  0  0  0
   -8.0945   24.4462  -31.0062 H   0  0  0  0  0  0  0  0  0  0  0  0
   -3.4870   26.0450  -31.2530 H   0  0  0  0  0  0  0  0  0  0  0  0
   -3.7206   22.4722  -29.3181 H   0  0  0  0  0  0  0  0  0  0  0  0
   -2.4599   21.5143  -30.1664 H   0  0  0  0  0  0  0  0  0  0  0  0
   -2.3762   23.3086  -30.1664 H   0  0  0  0  0  0  0  0  0  0  0  0
   -5.1075   20.0542  -32.2948 H   0  0  0  0  0  0  0  0  0  0  0  0
  1  2  1  0
  2  3  1  0
  3  4  1  0
  4  5  1  0
  3  6  1  0
  6  7  2  0
  6  8  1  0
  8  9  1  0
  9 10  2  0
 10 11  1  0
 11 12  2  0
 12 13  1  0
 13 14  2  0
 14 15  1  0
 15 16  1  0
 15 17  2  0
 14 18  1  0
 18 19  1  0
 19 20  1  0
 19 21  2  0
 18 22  1  0
 22 23  2  0
 23  9  1  0
 22 12  1  0
  1 24  1  0
  1 25  1  0
  1 26  1  0
  2 27  1  0
  2 28  1  0
  4 29  1  0
  4 30  1  0
  5 31  1  0
  5 32  1  0
  5 33  1  0
  8 34  1  0
  8 35  1  0
 10 36  1  0
 11 37  1  0
 13 38  1  0
 16 39  1  0
 20 40  1  0
 20 41  1  0
 20 42  1  0
 23 43  1  0
M  CHG  1  16  -1
M  END
>  <UniqueID>  (6) 
6

>  <SMILES>  (6) 
CCN(CC)C(=O)Cc1ccc2cc(C([NH-])=O)n(C(C)=O)c2c1

>  <Energy>  (6) 
75.01349872074465

>  <Genealogy>  (6) 
CCN(CC)C(=O)Cc1ccc2cc(C([NH-])=O)n(C(C)=O)c2c1 (protonated)
CCN(CC)C(=O)Cc1ccc2cc(C([NH-])=O)n(C(C)=O)c2c1 (3D coordinates assigned)
CCN(CC)C(=O)Cc1ccc2cc(C([NH-])=O)n(C(C)=O)c2c1 (optimized conformer: 75.01349872074465 kcal/mol)

>  <smiles>  (6) 
CCN(CC)C(=O)Cc1ccc2cc(C(N)=O)n(C(C)=O)c2c1

>  <score_type>  (6) 
oracle

>  <origin>  (6) 
adg

>  <m_score__min__energy>  (6) 
-10.77

>  <m_primary>  (6) 
energy

$$$$
6:0
     RDKit          3D

 42 44  0  0  0  0  0  0  0  0999 V2000
   -5.2960   23.7600  -29.5190 C   0  0  0  0  0  0  0  0  0  0  0  0
   -4.1070   24.1460  -30.3390 C   0  0  0  0  0  0  0  0  0  0  0  0
   -4.0540   25.3010  -30.8420 O   0  0  0  0  0  0  0  0  0  0  0  0
   -3.0270   23.2250  -30.5510 N   0  0  0  0  0  0  0  0  0  0  0  0
   -1.7700   23.2820  -30.0280 C   0  0  0  0  0  0  0  0  0  0  0  0
   -1.2170   24.3860  -29.2140 C   0  0  0  0  0  0  0  0  0  0  0  0
   -1.9730   25.5690  -28.9690 N   0  0  0  0  0  0  0  0  0  0  0  0
   -0.0470   24.2970  -28.7560 O   0  0  0  0  0  0  0  0  0  0  0  0
   -1.0280   22.1680  -30.4180 C   0  0  0  0  0  0  0  0  0  0  0  0
   -1.8760   21.4220  -31.2040 C   0  0  0  0  0  0  0  0  0  0  0  0
   -1.6600   20.2100  -31.8560 C   0  0  0  0  0  0  0  0  0  0  0  0
   -2.7260   19.6570  -32.5860 C   0  0  0  0  0  0  0  0  0  0  0  0
   -3.9830   20.3110  -32.6370 C   0  0  0  0  0  0  0  0  0  0  0  0
   -5.1070   19.7310  -33.4530 C   0  0  0  0  0  0  0  0  0  0  0  0
   -6.4230   20.4940  -33.2530 C   0  0  0  0  0  0  0  0  0  0  0  0
   -7.0810   20.0780  -31.9880 N   0  0  0  0  0  0  0  0  0  0  0  0
   -7.8090   21.1870  -31.3550 C   0  0  0  0  0  0  0  0  0  0  0  0
   -9.2180   21.1870  -31.9180 C   0  0  0  0  0  0  0  0  0  0  0  0
   -9.4560   19.7610  -32.3780 C   0  0  0  0  0  0  0  0  0  0  0  0
   -8.1140   19.0530  -32.2210 C   0  0  0  0  0  0  0  0  0  0  0  0
   -4.1620   21.5390  -31.9630 C   0  0  0  0  0  0  0  0  0  0  0  0
   -3.0780   22.0780  -31.2650 C   0  0  0  0  0  0  0  0  0  0  0  0
   -5.0466   23.8410  -28.4507 H   0  0  0  0  0  0  0  0  0  0  0  0
   -6.1355   24.4318  -29.7515 H   0  0  0  0  0  0  0  0  0  0  0  0
   -5.5808   22.7233  -29.7515 H   0  0  0  0  0  0  0  0  0  0  0  0
   -2.9460   25.6700  -29.3350 H   0  0  0  0  0  0  0  0  0  0  0  0
    0.0140   21.9349  -30.1536 H   0  0  0  0  0  0  0  0  0  0  0  0
   -0.6859   19.7019  -31.8012 H   0  0  0  0  0  0  0  0  0  0  0  0
   -2.5838   18.7076  -33.1230 H   0  0  0  0  0  0  0  0  0  0  0  0
   -4.8310   19.7739  -34.5169 H   0  0  0  0  0  0  0  0  0  0  0  0
   -5.2645   18.6941  -33.1214 H   0  0  0  0  0  0  0  0  0  0  0  0
   -6.2129   21.5730  -33.2134 H   0  0  0  0  0  0  0  0  0  0  0  0
   -7.0954   20.2680  -34.0937 H   0  0  0  0  0  0  0  0  0  0  0  0
   -7.8400   21.0424  -30.2650 H   0  0  0  0  0  0  0  0  0  0  0  0
   -7.3097   22.1455  -31.5597 H   0  0  0  0  0  0  0  0  0  0  0  0
   -9.9446   21.4694  -31.1419 H   0  0  0  0  0  0  0  0  0  0  0  0
   -9.3358   21.9111  -32.7377 H   0  0  0  0  0  0  0  0  0  0  0  0
  -10.2211   19.2779  -31.7525 H   0  0  0  0  0  0  0  0  0  0  0  0
   -9.8191   19.7221  -33.4156 H   0  0  0  0  0  0  0  0  0  0  0  0
   -8.1543   18.3628  -31.3654 H   0  0  0  0  0  0  0  0  0  0  0  0
   -7.8797   18.4744  -33.1267 H   0  0  0  0  0  0  0  0  0  0  0  0
   -5.1312   22.0586  -31.9869 H   0  0  0  0  0  0  0  0  0  0  0  0
  1  2  1  0
  2  3  2  0
  2  4  1  0
  4  5  1  0
  5  6  1  0
  6  7  1  0
  6  8  2  0
  5  9  2  0
  9 10  1  0
 10 11  2  0
 11 12  1  0
 12 13  2  0
 13 14  1  0
 14 15  1  0
 15 16  1  0
 16 17  1  0
 17 18  1  0
 18 19  1  0
 19 20  1  0
 13 21  1  0
 21 22  2  0
 22  4  1  0
 22 10  1  0
 20 16  1  0
  1 23  1  0
  1 24  1  0
  1 25  1  0
  7 26  1  0
  9 27  1  0
 11 28  1  0
 12 29  1  0
 14 30  1  0
 14 31  1  0
 15 32  1  0
 15 33  1  0
 17 34  1  0
 17 35  1  0
 18 36  1  0
 18 37  1  0
 19 38  1  0
 19 39  1  0
 20 40  1  0
 20 41  1  0
 21 42  1  0
M  CHG  1   7  -1
M  END
>  <UniqueID>  (7) 
7

>  <SMILES>  (7) 
CC(=O)n1c(C([NH-])=O)cc2ccc(CCN3CCCC3)cc21

>  <Energy>  (7) 
83.35661625982588

>  <Genealogy>  (7) 
CC(=O)n1c(C([NH-])=O)cc2ccc(CCN3CCCC3)cc21 (protonated)
CC(=O)n1c(C([NH-])=O)cc2ccc(CCN3CCCC3)cc21 (3D coordinates assigned)
CC(=O)n1c(C([NH-])=O)cc2ccc(CCN3CCCC3)cc21 (nonaromatic ring conformer: 83.35661625982588 kcal/mol)

>  <smiles>  (7) 
CC(=O)n1c(C(N)=O)cc2ccc(CCN3CCCC3)cc21

>  <score_type>  (7) 
oracle

>  <origin>  (7) 
adg

>  <m_score__min__energy>  (7) 
-11.19

>  <m_primary>  (7) 
energy

$$$$
7:0
     RDKit          3D

 33 35  0  0  0  0  0  0  0  0999 V2000
   -5.4850   26.5040  -30.3270 N   0  0  0  0  0  0  0  0  0  0  0  0
   -6.3380   25.4320  -29.9230 C   0  0  0  0  0  0  0  0  0  0  0  0
   -7.1400   25.6080  -28.9680 O   0  0  0  0  0  0  0  0  0  0  0  0
   -6.3460   24.1460  -30.6480 C   0  0  0  0  0  0  0  0  0  0  0  0
   -7.5130   23.4770  -31.0060 C   0  0  0  0  0  0  0  0  0  0  0  0
   -7.0950   22.3750  -31.7150 C   0  0  0  0  0  0  0  0  0  0  0  0
   -7.8390   21.3550  -32.2970 C   0  0  0  0  0  0  0  0  0  0  0  0
   -7.1460   20.3170  -32.9400 C   0  0  0  0  0  0  0  0  0  0  0  0
   -5.7280   20.3070  -32.9830 C   0  0  0  0  0  0  0  0  0  0  0  0
   -5.0060   19.1960  -33.6540 C   0  0  0  0  0  0  0  0  0  0  0  0
   -3.6100   19.0760  -33.5470 C   0  0  0  0  0  0  0  0  0  0  0  0
   -2.9440   18.0260  -34.1820 C   0  0  0  0  0  0  0  0  0  0  0  0
   -3.6780   17.0960  -34.9250 C   0  0  0  0  0  0  0  0  0  0  0  0
   -3.0200   16.0140  -35.5830 N   0  0  0  0  0  0  0  0  0  0  0  0
   -5.0280   17.2250  -35.0210 N   0  0  0  0  0  0  0  0  0  0  0  0
   -5.7000   18.2370  -34.4120 C   0  0  0  0  0  0  0  0  0  0  0  0
   -5.0070   21.3630  -32.3750 C   0  0  0  0  0  0  0  0  0  0  0  0
   -5.7250   22.3970  -31.7590 C   0  0  0  0  0  0  0  0  0  0  0  0
   -5.2480   23.4820  -31.1050 N   0  0  0  0  0  0  0  0  0  0  0  0
   -3.8690   23.7890  -30.8350 C   0  0  0  0  0  0  0  0  0  0  0  0
   -2.9890   22.8920  -30.9020 O   0  0  0  0  0  0  0  0  0  0  0  0
   -3.4940   25.0830  -30.4930 O   0  0  0  0  0  0  0  0  0  0  0  0
   -5.4680   27.3940  -29.7800 H   0  0  0  0  0  0  0  0  0  0  0  0
   -4.9340   26.4500  -31.2100 H   0  0  0  0  0  0  0  0  0  0  0  0
   -8.5478   23.7674  -30.7720 H   0  0  0  0  0  0  0  0  0  0  0  0
   -8.9382   21.3610  -32.2550 H   0  0  0  0  0  0  0  0  0  0  0  0
   -7.7096   19.5013  -33.4164 H   0  0  0  0  0  0  0  0  0  0  0  0
   -3.0400   19.8119  -32.9609 H   0  0  0  0  0  0  0  0  0  0  0  0
   -1.8513   17.9311  -34.0986 H   0  0  0  0  0  0  0  0  0  0  0  0
   -3.0120   15.9590  -36.6260 H   0  0  0  0  0  0  0  0  0  0  0  0
   -2.5380   15.2660  -35.0370 H   0  0  0  0  0  0  0  0  0  0  0  0
   -6.7932   18.3061  -34.5128 H   0  0  0  0  0  0  0  0  0  0  0  0
   -3.9071   21.3717  -32.3859 H   0  0  0  0  0  0  0  0  0  0  0  0
  1  2  1  0
  2  3  2  0
  2  4  1  0
  4  5  2  0
  5  6  1  0
  6  7  2  0
  7  8  1  0
  8  9  2  0
  9 10  1  0
 10 11  2  0
 11 12  1  0
 12 13  2  0
 13 14  1  0
 13 15  1  0
 15 16  2  0
  9 17  1  0
 17 18  2  0
 18 19  1  0
 19 20  1  0
 20 21  2  0
 20 22  1  0
 19  4  1  0
 18  6  1  0
 16 10  1  0
  1 23  1  0
  1 24  1  0
  5 25  1  0
  7 26  1  0
  8 27  1  0
 11 28  1  0
 12 29  1  0
 14 30  1  0
 14 31  1  0
 16 32  1  0
 17 33  1  0
M  CHG  1  22  -1
M  END
>  <UniqueID>  (8) 
8

>  <SMILES>  (8) 
NC(=O)c1cc2ccc(-c3ccc(N)nc3)cc2n1C(=O)[O-]

>  <Energy>  (8) 
80.6414640615493

>  <Genealogy>  (8) 
NC(=O)c1cc2ccc(-c3ccc(N)nc3)cc2n1C(=O)[O-] (protonated)
NC(=O)c1cc2ccc(-c3ccc(N)nc3)cc2n1C(=O)[O-] (3D coordinates assigned)
NC(=O)c1cc2ccc(-c3ccc(N)nc3)cc2n1C(=O)[O-] (optimized conformer: 80.6414640615493 kcal/mol)

>  <smiles>  (8) 
NC(=O)c1cc2ccc(-c3ccc(N)nc3)cc2n1C(=O)O

>  <score_type>  (8) 
oracle

>  <origin>  (8) 
adg

>  <m_score__min__energy>  (8) 
-9.1999999999999993

>  <m_primary>  (8) 
energy

$$$$
8:0
     RDKit          3D

 35 37  0  0  0  0  0  0  0  0999 V2000
   -1.5780   26.0290  -28.9420 N   0  0  0  0  0  0  0  0  0  0  0  0
   -0.8650   24.8000  -28.8240 C   0  0  0  0  0  0  0  0  0  0  0  0
    0.2090   24.7710  -28.1670 O   0  0  0  0  0  0  0  0  0  0  0  0
   -1.3370   23.5790  -29.5090 C   0  0  0  0  0  0  0  0  0  0  0  0
   -0.5330   22.4600  -29.7180 C   0  0  0  0  0  0  0  0  0  0  0  0
   -1.3000   21.5930  -30.4610 C   0  0  0  0  0  0  0  0  0  0  0  0
   -1.0030   20.3210  -30.9410 C   0  0  0  0  0  0  0  0  0  0  0  0
   -1.9990   19.6380  -31.6580 C   0  0  0  0  0  0  0  0  0  0  0  0
   -3.2630   20.2360  -31.8820 C   0  0  0  0  0  0  0  0  0  0  0  0
   -4.3050   19.5000  -32.6240 C   0  0  0  0  0  0  0  0  0  0  0  0
   -5.6460   19.6720  -32.2410 C   0  0  0  0  0  0  0  0  0  0  0  0
   -6.6700   19.0240  -32.9320 C   0  0  0  0  0  0  0  0  0  0  0  0
   -6.3680   18.1940  -34.0110 C   0  0  0  0  0  0  0  0  0  0  0  0
   -5.0390   18.0010  -34.3960 C   0  0  0  0  0  0  0  0  0  0  0  0
   -3.9950   18.6370  -33.7050 C   0  0  0  0  0  0  0  0  0  0  0  0
   -2.3260   18.3050  -34.2000 S   0  0  0  0  0  0  0  0  0  0  0  0
   -1.5030   19.7890  -34.5260 N   0  0  0  0  0  0  0  0  0  0  0  0
   -1.6020   17.5560  -33.1160 O   0  0  0  0  0  0  0  0  0  0  0  0
   -2.3200   17.4590  -35.4420 O   0  0  0  0  0  0  0  0  0  0  0  0
   -3.5360   21.5210  -31.3660 C   0  0  0  0  0  0  0  0  0  0  0  0
   -2.5180   22.1870  -30.6730 C   0  0  0  0  0  0  0  0  0  0  0  0
   -2.5580   23.4070  -30.0910 N   0  0  0  0  0  0  0  0  0  0  0  0
   -3.6940   24.2840  -30.0260 C   0  0  0  0  0  0  0  0  0  0  0  0
   -3.7230   25.3400  -30.7100 O   0  0  0  0  0  0  0  0  0  0  0  0
   -4.7840   23.9600  -29.2270 O   0  0  0  0  0  0  0  0  0  0  0  0
   -2.6210   26.0440  -28.9710 H   0  0  0  0  0  0  0  0  0  0  0  0
    0.4966   22.3033  -29.3639 H   0  0  0  0  0  0  0  0  0  0  0  0
   -0.0180   19.8643  -30.7642 H   0  0  0  0  0  0  0  0  0  0  0  0
   -1.7955   18.6301  -32.0488 H   0  0  0  0  0  0  0  0  0  0  0  0
   -5.8904   20.3233  -31.3889 H   0  0  0  0  0  0  0  0  0  0  0  0
   -7.7166   19.1679  -32.6254 H   0  0  0  0  0  0  0  0  0  0  0  0
   -7.1774   17.6904  -34.5599 H   0  0  0  0  0  0  0  0  0  0  0  0
   -4.8083   17.3449  -35.2482 H   0  0  0  0  0  0  0  0  0  0  0  0
   -2.1990   20.4320  -34.9660 H   0  0  0  0  0  0  0  0  0  0  0  0
   -4.5227   21.9870  -31.5047 H   0  0  0  0  0  0  0  0  0  0  0  0
  1  2  1  0
  2  3  2  0
  2  4  1  0
  4  5  2  0
  5  6  1  0
  6  7  2  0
  7  8  1  0
  8  9  2  0
  9 10  1  0
 10 11  2  0
 11 12  1  0
 12 13  2  0
 13 14  1  0
 14 15  2  0
 15 16  1  0
 16 17  1  0
 16 18  2  0
 16 19  2  0
  9 20  1  0
 20 21  2  0
 21 22  1  0
 22 23  1  0
 23 24  2  0
 23 25  1  0
 22  4  1  0
 21  6  1  0
 15 10  1  0
  1 26  1  0
  5 27  1  0
  7 28  1  0
  8 29  1  0
 11 30  1  0
 12 31  1  0
 13 32  1  0
 14 33  1  0
 17 34  1  0
 20 35  1  0
M  CHG  3   1  -1  17  -1  25  -1
M  END
>  <UniqueID>  (9) 
9

>  <SMILES>  (9) 
[NH-]C(=O)c1cc2ccc(-c3ccccc3S([NH-])(=O)=O)cc2n1C(=O)[O-]

>  <Energy>  (9) 
85.6165114686699

>  <Genealogy>  (9) 
[NH-]C(=O)c1cc2ccc(-c3ccccc3S([NH-])(=O)=O)cc2n1C(=O)[O-] (protonated)
[NH-]C(=O)c1cc2ccc(-c3ccccc3S([NH-])(=O)=O)cc2n1C(=O)[O-] (3D coordinates assigned)
[NH-]C(=O)c1cc2ccc(-c3ccccc3S([NH-])(=O)=O)cc2n1C(=O)[O-] (optimized conformer: 85.6165114686699 kcal/mol)

>  <smiles>  (9) 
NC(=O)c1cc2ccc(-c3ccccc3S(N)(=O)=O)cc2n1C(=O)O

>  <score_type>  (9) 
oracle

>  <origin>  (9) 
adg

>  <m_score__min__energy>  (9) 
-12.27

>  <m_primary>  (9) 
energy

$$$$
9:0
     RDKit          3D

 49 50  0  0  0  0  0  0  0  0999 V2000
   -9.1910   21.5240  -30.9370 C   0  0  0  0  0  0  0  0  0  0  0  0
   -9.5170   20.9030  -32.2920 C   0  0  0  0  0  0  0  0  0  0  0  0
   -8.4860   20.0040  -32.6950 O   0  0  0  0  0  0  0  0  0  0  0  0
   -8.2320   18.7860  -32.0540 C   0  0  0  0  0  0  0  0  0  0  0  0
   -9.1750   18.0910  -31.5890 O   0  0  0  0  0  0  0  0  0  0  0  0
   -6.8200   18.3050  -31.9200 C   0  0  0  0  0  0  0  0  0  0  0  0
   -6.3420   17.6640  -33.2310 C   0  0  0  0  0  0  0  0  0  0  0  0
   -5.5420   18.6520  -34.1060 C   0  0  0  0  0  0  0  0  0  0  0  0
   -5.6740   20.1150  -33.6530 C   0  0  0  0  0  0  0  0  0  0  0  0
   -4.4930   20.5740  -32.8410 C   0  0  0  0  0  0  0  0  0  0  0  0
   -3.2920   19.8200  -32.8410 C   0  0  0  0  0  0  0  0  0  0  0  0
   -2.1740   20.2540  -32.1120 C   0  0  0  0  0  0  0  0  0  0  0  0
   -2.2800   21.4470  -31.4030 C   0  0  0  0  0  0  0  0  0  0  0  0
   -1.3620   22.0870  -30.6020 C   0  0  0  0  0  0  0  0  0  0  0  0
   -2.0050   23.2360  -30.1460 C   0  0  0  0  0  0  0  0  0  0  0  0
   -1.3390   24.2640  -29.3180 C   0  0  0  0  0  0  0  0  0  0  0  0
   -2.0280   25.4480  -28.9230 N   0  0  0  0  0  0  0  0  0  0  0  0
   -0.1290   24.1180  -28.9960 O   0  0  0  0  0  0  0  0  0  0  0  0
   -3.2740   23.3010  -30.6390 N   0  0  0  0  0  0  0  0  0  0  0  0
   -4.2840   24.2750  -30.3370 C   0  0  0  0  0  0  0  0  0  0  0  0
   -4.2250   25.4240  -30.8560 O   0  0  0  0  0  0  0  0  0  0  0  0
   -5.3400   23.9380  -29.4810 O   0  0  0  0  0  0  0  0  0  0  0  0
   -6.6200   23.5110  -29.9410 C   0  0  0  0  0  0  0  0  0  0  0  0
   -6.8370   23.9210  -31.3930 C   0  0  0  0  0  0  0  0  0  0  0  0
   -3.4270   22.2000  -31.4080 C   0  0  0  0  0  0  0  0  0  0  0  0
   -4.5630   21.7800  -32.1090 C   0  0  0  0  0  0  0  0  0  0  0  0
   -9.5408   20.8578  -30.1346 H   0  0  0  0  0  0  0  0  0  0  0  0
   -8.1034   21.6635  -30.8497 H   0  0  0  0  0  0  0  0  0  0  0  0
   -9.6938   22.4984  -30.8497 H   0  0  0  0  0  0  0  0  0  0  0  0
  -10.4670   20.3534  -32.2183 H   0  0  0  0  0  0  0  0  0  0  0  0
   -9.5981   21.7063  -33.0391 H   0  0  0  0  0  0  0  0  0  0  0  0
   -6.1691   19.1575  -31.6758 H   0  0  0  0  0  0  0  0  0  0  0  0
   -6.7758   17.5517  -31.1196 H   0  0  0  0  0  0  0  0  0  0  0  0
   -5.7001   16.8036  -32.9910 H   0  0  0  0  0  0  0  0  0  0  0  0
   -7.2316   17.3542  -33.7991 H   0  0  0  0  0  0  0  0  0  0  0  0
   -4.4795   18.3699  -34.0678 H   0  0  0  0  0  0  0  0  0  0  0  0
   -5.9529   18.5895  -35.1244 H   0  0  0  0  0  0  0  0  0  0  0  0
   -5.7596   20.7542  -34.5441 H   0  0  0  0  0  0  0  0  0  0  0  0
   -6.5676   20.1890  -33.0159 H   0  0  0  0  0  0  0  0  0  0  0  0
   -3.2361   18.8853  -33.4183 H   0  0  0  0  0  0  0  0  0  0  0  0
   -1.2424   19.6692  -32.1013 H   0  0  0  0  0  0  0  0  0  0  0  0
   -0.3373   21.7605  -30.3707 H   0  0  0  0  0  0  0  0  0  0  0  0
   -2.9610   25.6840  -29.3250 H   0  0  0  0  0  0  0  0  0  0  0  0
   -6.6849   22.4158  -29.8618 H   0  0  0  0  0  0  0  0  0  0  0  0
   -7.3944   23.9859  -29.3207 H   0  0  0  0  0  0  0  0  0  0  0  0
   -7.3513   24.8928  -31.4267 H   0  0  0  0  0  0  0  0  0  0  0  0
   -5.8643   24.0032  -31.9001 H   0  0  0  0  0  0  0  0  0  0  0  0
   -7.4520   23.1629  -31.9001 H   0  0  0  0  0  0  0  0  0  0  0  0
   -5.4882   22.3747  -32.0904 H   0  0  0  0  0  0  0  0  0  0  0  0
  1  2  1  0
  2  3  1  0
  3  4  1  0
  4  5  2  0
  4  6  1  0
  6  7  1  0
  7  8  1  0
  8  9  1  0
  9 10  1  0
 10 11  2  0
 11 12  1  0
 12 13  2  0
 13 14  1  0
 14 15  2  0
 15 16  1  0
 16 17  1  0
 16 18  2  0
 15 19  1  0
 19 20  1  0
 20 21  2  0
 20 22  1  0
 22 23  1  0
 23 24  1  0
 19 25  1  0
 25 26  2  0
 26 10  1  0
 25 13  1  0
  1 27  1  0
  1 28  1  0
  1 29  1  0
  2 30  1  0
  2 31  1  0
  6 32  1  0
  6 33  1  0
  7 34  1  0
  7 35  1  0
  8 36  1  0
  8 37  1  0
  9 38  1  0
  9 39  1  0
 11 40  1  0
 12 41  1  0
 14 42  1  0
 17 43  1  0
 23 44  1  0
 23 45  1  0
 24 46  1  0
 24 47  1  0
 24 48  1  0
 26 49  1  0
M  CHG  1  17  -1
M  END
>  <UniqueID>  (10) 
10

>  <SMILES>  (10) 
CCOC(=O)CCCCc1ccc2cc(C([NH-])=O)n(C(=O)OCC)c2c1

>  <Energy>  (10) 
73.58877736156077

>  <Genealogy>  (10) 
CCOC(=O)CCCCc1ccc2cc(C([NH-])=O)n(C(=O)OCC)c2c1 (protonated)
CCOC(=O)CCCCc1ccc2cc(C([NH-])=O)n(C(=O)OCC)c2c1 (3D coordinates assigned)
CCOC(=O)CCCCc1ccc2cc(C([NH-])=O)n(C(=O)OCC)c2c1 (optimized conformer: 73.58877736156077 kcal/mol)

>  <smiles>  (10) 
CCOC(=O)CCCCc1ccc2cc(C(N)=O)n(C(=O)OCC)c2c1

>  <score_type>  (10) 
oracle

>  <origin>  (10) 
adg

>  <m_score__min__energy>  (10) 
-10.140000000000001

>  <m_primary>  (10) 
energy

$$$$
10:0
     RDKit          3D

 42 44  0  0  0  0  0  0  0  0999 V2000
   -6.4230   13.3720  -34.5500 C   0  0  0  0  0  0  0  0  0  0  0  0
   -5.4960   14.4470  -34.6420 O   0  0  0  0  0  0  0  0  0  0  0  0
   -5.7780   15.7310  -34.1680 C   0  0  0  0  0  0  0  0  0  0  0  0
   -4.9180   16.7610  -34.3870 N   0  0  0  0  0  0  0  0  0  0  0  0
   -5.1880   18.0110  -33.9300 C   0  0  0  0  0  0  0  0  0  0  0  0
   -6.3690   18.2610  -33.2160 C   0  0  0  0  0  0  0  0  0  0  0  0
   -6.6870   19.6180  -32.7030 C   0  0  0  0  0  0  0  0  0  0  0  0
   -8.0280   20.0870  -32.6940 C   0  0  0  0  0  0  0  0  0  0  0  0
   -8.3400   21.3710  -32.2140 C   0  0  0  0  0  0  0  0  0  0  0  0
   -7.2960   22.1640  -31.7490 C   0  0  0  0  0  0  0  0  0  0  0  0
   -7.3100   23.4440  -31.2370 C   0  0  0  0  0  0  0  0  0  0  0  0
   -5.9790   23.7360  -30.9340 C   0  0  0  0  0  0  0  0  0  0  0  0
   -5.5120   24.9910  -30.2980 C   0  0  0  0  0  0  0  0  0  0  0  0
   -6.0780   25.4490  -29.0680 N   0  0  0  0  0  0  0  0  0  0  0  0
   -4.5990   25.6690  -30.8400 O   0  0  0  0  0  0  0  0  0  0  0  0
   -5.1830   22.6790  -31.2540 N   0  0  0  0  0  0  0  0  0  0  0  0
   -3.7590   22.5750  -31.1100 C   0  0  0  0  0  0  0  0  0  0  0  0
   -3.0320   22.6370  -32.1400 O   0  0  0  0  0  0  0  0  0  0  0  0
   -3.1580   22.4320  -29.8090 N   0  0  0  0  0  0  0  0  0  0  0  0
   -1.7320   22.1090  -29.7070 C   0  0  0  0  0  0  0  0  0  0  0  0
   -3.9550   22.6760  -28.6030 C   0  0  0  0  0  0  0  0  0  0  0  0
   -6.0000   21.7250  -31.7440 C   0  0  0  0  0  0  0  0  0  0  0  0
   -5.6560   20.4580  -32.2190 C   0  0  0  0  0  0  0  0  0  0  0  0
   -7.2390   17.1810  -33.0020 C   0  0  0  0  0  0  0  0  0  0  0  0
   -6.9280   15.9480  -33.4800 N   0  0  0  0  0  0  0  0  0  0  0  0
   -6.6181   13.1457  -33.4914 H   0  0  0  0  0  0  0  0  0  0  0  0
   -7.3640   13.6560  -35.0437 H   0  0  0  0  0  0  0  0  0  0  0  0
   -6.0037   12.4830  -35.0437 H   0  0  0  0  0  0  0  0  0  0  0  0
   -4.4784   18.8297  -34.1204 H   0  0  0  0  0  0  0  0  0  0  0  0
   -8.8328   19.4369  -33.0676 H   0  0  0  0  0  0  0  0  0  0  0  0
   -9.3773   21.7371  -32.2064 H   0  0  0  0  0  0  0  0  0  0  0  0
   -8.1844   24.0966  -31.0970 H   0  0  0  0  0  0  0  0  0  0  0  0
   -5.7140   26.3210  -28.6210 H   0  0  0  0  0  0  0  0  0  0  0  0
   -6.8810   24.9600  -28.6170 H   0  0  0  0  0  0  0  0  0  0  0  0
   -1.4457   22.0441  -28.6469 H   0  0  0  0  0  0  0  0  0  0  0  0
   -1.5385   21.1443  -30.1988 H   0  0  0  0  0  0  0  0  0  0  0  0
   -1.1417   22.8962  -30.1988 H   0  0  0  0  0  0  0  0  0  0  0  0
   -3.3386   22.4873  -27.7117 H   0  0  0  0  0  0  0  0  0  0  0  0
   -4.2993   23.7207  -28.5962 H   0  0  0  0  0  0  0  0  0  0  0  0
   -4.8252   22.0031  -28.5962 H   0  0  0  0  0  0  0  0  0  0  0  0
   -4.6090   20.1208  -32.2171 H   0  0  0  0  0  0  0  0  0  0  0  0
   -8.1756   17.3332  -32.4456 H   0  0  0  0  0  0  0  0  0  0  0  0
  1  2  1  0
  2  3  1  0
  3  4  2  0
  4  5  1  0
  5  6  2  0
  6  7  1  0
  7  8  2  0
  8  9  1  0
  9 10  2  0
 10 11  1  0
 11 12  2  0
 12 13  1  0
 13 14  1  0
 13 15  2  0
 12 16  1  0
 16 17  1  0
 17 18  2  0
 17 19  1  0
 19 20  1  0
 19 21  1  0
 16 22  1  0
 22 23  2  0
  6 24  1  0
 24 25  2  0
 25  3  1  0
 23  7  1  0
 22 10  1  0
  1 26  1  0
  1 27  1  0
  1 28  1  0
  5 29  1  0
  8 30  1  0
  9 31  1  0
 11 32  1  0
 14 33  1  0
 14 34  1  0
 20 35  1  0
 20 36  1  0
 20 37  1  0
 21 38  1  0
 21 39  1  0
 21 40  1  0
 23 41  1  0
 24 42  1  0
M  END
>  <UniqueID>  (11) 
11

>  <SMILES>  (11) 
COc1ncc(-c2ccc3cc(C(N)=O)n(C(=O)N(C)C)c3c2)cn1

>  <Energy>  (11) 
85.26087795649205

>  <Genealogy>  (11) 
COc1ncc(-c2ccc3cc(C(N)=O)n(C(=O)N(C)C)c3c2)cn1 (3D coordinates assigned)
COc1ncc(-c2ccc3cc(C(N)=O)n(C(=O)N(C)C)c3c2)cn1 (optimized conformer: 85.26087795649205 kcal/mol)

>  <smiles>  (11) 
COc1ncc(-c2ccc3cc(C(N)=O)n(C(=O)N(C)C)c3c2)cn1

>  <score_type>  (11) 
oracle

>  <origin>  (11) 
adg

>  <m_score__min__energy>  (11) 
-8.7300000000000004

>  <m_primary>  (11) 
energy

$$$$
11:0
     RDKit          3D

 32 34  0  0  0  0  0  0  0  0999 V2000
   -5.3720   26.4210  -30.4750 N   0  0  0  0  0  0  0  0  0  0  0  0
   -6.2830   25.4360  -29.9840 C   0  0  0  0  0  0  0  0  0  0  0  0
   -7.0330   25.7200  -29.0110 O   0  0  0  0  0  0  0  0  0  0  0  0
   -6.4100   24.1190  -30.6370 C   0  0  0  0  0  0  0  0  0  0  0  0
   -7.6340   23.5340  -30.9470 C   0  0  0  0  0  0  0  0  0  0  0  0
   -7.3220   22.3630  -31.5980 C   0  0  0  0  0  0  0  0  0  0  0  0
   -8.1590   21.3780  -32.1120 C   0  0  0  0  0  0  0  0  0  0  0  0
   -7.5640   20.2490  -32.6990 C   0  0  0  0  0  0  0  0  0  0  0  0
   -6.1520   20.1200  -32.7570 C   0  0  0  0  0  0  0  0  0  0  0  0
   -5.5390   18.9120  -33.3620 C   0  0  0  0  0  0  0  0  0  0  0  0
   -4.2570   18.9870  -33.9360 C   0  0  0  0  0  0  0  0  0  0  0  0
   -3.6730   17.8570  -34.5150 C   0  0  0  0  0  0  0  0  0  0  0  0
   -4.3580   16.6410  -34.5230 C   0  0  0  0  0  0  0  0  0  0  0  0
   -5.6290   16.5510  -33.9490 C   0  0  0  0  0  0  0  0  0  0  0  0
   -6.2210   17.6780  -33.3690 C   0  0  0  0  0  0  0  0  0  0  0  0
   -7.4410   17.5520  -32.7860 F   0  0  0  0  0  0  0  0  0  0  0  0
   -5.3360   21.1410  -32.2160 C   0  0  0  0  0  0  0  0  0  0  0  0
   -5.9540   22.2650  -31.6560 C   0  0  0  0  0  0  0  0  0  0  0  0
   -5.3780   23.3380  -31.0640 N   0  0  0  0  0  0  0  0  0  0  0  0
   -3.9750   23.5410  -30.8250 C   0  0  0  0  0  0  0  0  0  0  0  0
   -3.1740   22.5700  -30.8570 O   0  0  0  0  0  0  0  0  0  0  0  0
   -3.4880   24.8130  -30.5510 O   0  0  0  0  0  0  0  0  0  0  0  0
   -4.8600   26.2810  -31.3730 H   0  0  0  0  0  0  0  0  0  0  0  0
   -5.2700   27.3340  -29.9790 H   0  0  0  0  0  0  0  0  0  0  0  0
   -8.6369   23.9246  -30.7200 H   0  0  0  0  0  0  0  0  0  0  0  0
   -9.2530   21.4800  -32.0604 H   0  0  0  0  0  0  0  0  0  0  0  0
   -8.2000   19.4556  -33.1186 H   0  0  0  0  0  0  0  0  0  0  0  0
   -3.7104   19.9416  -33.9291 H   0  0  0  0  0  0  0  0  0  0  0  0
   -2.6717   17.9261  -34.9652 H   0  0  0  0  0  0  0  0  0  0  0  0
   -3.8974   15.7533  -34.9812 H   0  0  0  0  0  0  0  0  0  0  0  0
   -6.1657   15.5908  -33.9533 H   0  0  0  0  0  0  0  0  0  0  0  0
   -4.2397   21.0535  -32.2350 H   0  0  0  0  0  0  0  0  0  0  0  0
  1  2  1  0
  2  3  2  0
  2  4  1  0
  4  5  2  0
  5  6  1  0
  6  7  2  0
  7  8  1  0
  8  9  2  0
  9 10  1  0
 10 11  2  0
 11 12  1  0
 12 13  2  0
 13 14  1  0
 14 15  2  0
 15 16  1  0
  9 17  1  0
 17 18  2  0
 18 19  1  0
 19 20  1  0
 20 21  2  0
 20 22  1  0
 19  4  1  0
 18  6  1  0
 15 10  1  0
  1 23  1  0
  1 24  1  0
  5 25  1  0
  7 26  1  0
  8 27  1  0
 11 28  1  0
 12 29  1  0
 13 30  1  0
 14 31  1  0
 17 32  1  0
M  CHG  1  22  -1
M  END
>  <UniqueID>  (12) 
12

>  <SMILES>  (12) 
NC(=O)c1cc2ccc(-c3ccccc3F)cc2n1C(=O)[O-]

>  <Energy>  (12) 
81.16197703566404

>  <Genealogy>  (12) 
NC(=O)c1cc2ccc(-c3ccccc3F)cc2n1C(=O)[O-] (protonated)
NC(=O)c1cc2ccc(-c3ccccc3F)cc2n1C(=O)[O-] (3D coordinates assigned)
NC(=O)c1cc2ccc(-c3ccccc3F)cc2n1C(=O)[O-] (optimized conformer: 81.16197703566404 kcal/mol)

>  <smiles>  (12) 
NC(=O)c1cc2ccc(-c3ccccc3F)cc2n1C(=O)O

>  <score_type>  (12) 
oracle

>  <origin>  (12) 
adg

>  <m_score__min__energy>  (12) 
-10.02

>  <m_primary>  (12) 
energy

$$$$
12:0
     RDKit          3D

 33 35  0  0  0  0  0  0  0  0999 V2000
   -3.9360   25.6710  -30.8350 N   0  0  0  0  0  0  0  0  0  0  0  0
   -5.2140   25.1180  -30.5320 C   0  0  0  0  0  0  0  0  0  0  0  0
   -5.9610   25.7090  -29.7070 O   0  0  0  0  0  0  0  0  0  0  0  0
   -5.6470   23.8360  -31.1240 C   0  0  0  0  0  0  0  0  0  0  0  0
   -6.9790   23.5310  -31.3970 C   0  0  0  0  0  0  0  0  0  0  0  0
   -6.9710   22.2310  -31.8470 C   0  0  0  0  0  0  0  0  0  0  0  0
   -8.0220   21.4260  -32.2710 C   0  0  0  0  0  0  0  0  0  0  0  0
   -7.7210   20.1270  -32.7130 C   0  0  0  0  0  0  0  0  0  0  0  0
   -6.3820   19.6590  -32.7280 C   0  0  0  0  0  0  0  0  0  0  0  0
   -6.0710   18.2930  -33.2150 C   0  0  0  0  0  0  0  0  0  0  0  0
   -7.0100   17.2590  -33.0540 C   0  0  0  0  0  0  0  0  0  0  0  0
   -6.7280   15.9670  -33.5020 C   0  0  0  0  0  0  0  0  0  0  0  0
   -5.5030   15.6790  -34.1260 C   0  0  0  0  0  0  0  0  0  0  0  0
   -5.2000   14.3120  -34.6030 C   0  0  0  0  0  0  0  0  0  0  0  0
   -4.0330   14.0000  -34.9570 O   0  0  0  0  0  0  0  0  0  0  0  0
   -6.2030   13.3500  -34.6670 O   0  0  0  0  0  0  0  0  0  0  0  0
   -4.5650   16.7120  -34.2940 C   0  0  0  0  0  0  0  0  0  0  0  0
   -4.8440   18.0070  -33.8440 C   0  0  0  0  0  0  0  0  0  0  0  0
   -3.9300   18.9870  -34.0580 F   0  0  0  0  0  0  0  0  0  0  0  0
   -5.3400   20.5110  -32.2950 C   0  0  0  0  0  0  0  0  0  0  0  0
   -5.6710   21.7930  -31.8420 C   0  0  0  0  0  0  0  0  0  0  0  0
   -4.8450   22.7700  -31.4030 N   0  0  0  0  0  0  0  0  0  0  0  0
   -3.4110   22.7120  -31.3480 C   0  0  0  0  0  0  0  0  0  0  0  0
   -2.7530   22.2650  -32.3250 O   0  0  0  0  0  0  0  0  0  0  0  0
   -2.7330   23.1750  -30.2260 O   0  0  0  0  0  0  0  0  0  0  0  0
   -3.0680   25.2940  -30.3930 H   0  0  0  0  0  0  0  0  0  0  0  0
   -7.8517   24.1899  -31.2779 H   0  0  0  0  0  0  0  0  0  0  0  0
   -9.0582   21.7951  -32.2607 H   0  0  0  0  0  0  0  0  0  0  0  0
   -8.5324   19.4656  -33.0511 H   0  0  0  0  0  0  0  0  0  0  0  0
   -7.9754   17.4698  -32.5708 H   0  0  0  0  0  0  0  0  0  0  0  0
   -7.4715   15.1679  -33.3651 H   0  0  0  0  0  0  0  0  0  0  0  0
   -3.6030   16.5005  -34.7836 H   0  0  0  0  0  0  0  0  0  0  0  0
   -4.2931   20.1738  -32.3138 H   0  0  0  0  0  0  0  0  0  0  0  0
  1  2  1  0
  2  3  2  0
  2  4  1  0
  4  5  2  0
  5  6  1  0
  6  7  2  0
  7  8  1  0
  8  9  2  0
  9 10  1  0
 10 11  2  0
 11 12  1  0
 12 13  2  0
 13 14  1  0
 14 15  2  0
 14 16  1  0
 13 17  1  0
 17 18  2  0
 18 19  1  0
  9 20  1  0
 20 21  2  0
 21 22  1  0
 22 23  1  0
 23 24  2  0
 23 25  1  0
 22  4  1  0
 21  6  1  0
 18 10  1  0
  1 26  1  0
  5 27  1  0
  7 28  1  0
  8 29  1  0
 11 30  1  0
 12 31  1  0
 17 32  1  0
 20 33  1  0
M  CHG  3   1  -1  16  -1  25  -1
M  END
>  <UniqueID>  (13) 
13

>  <SMILES>  (13) 
[NH-]C(=O)c1cc2ccc(-c3ccc(C(=O)[O-])cc3F)cc2n1C(=O)[O-]

>  <Energy>  (13) 
82.90444064791058

>  <Genealogy>  (13) 
[NH-]C(=O)c1cc2ccc(-c3ccc(C(=O)[O-])cc3F)cc2n1C(=O)[O-] (protonated)
[NH-]C(=O)c1cc2ccc(-c3ccc(C(=O)[O-])cc3F)cc2n1C(=O)[O-] (3D coordinates assigned)
[NH-]C(=O)c1cc2ccc(-c3ccc(C(=O)[O-])cc3F)cc2n1C(=O)[O-] (optimized conformer: 82.90444064791058 kcal/mol)

>  <smiles>  (13) 
NC(=O)c1cc2ccc(-c3ccc(C(=O)O)cc3F)cc2n1C(=O)O

>  <score_type>  (13) 
oracle

>  <origin>  (13) 
adg

>  <m_score__min__energy>  (13) 
-10.76

>  <m_primary>  (13) 
energy

$$$$
13:0
     RDKit          3D

 34 35  0  0  0  0  0  0  0  0999 V2000
   -3.9220   25.6440  -30.8230 N   0  0  0  0  0  0  0  0  0  0  0  0
   -5.2530   25.2860  -30.4590 C   0  0  0  0  0  0  0  0  0  0  0  0
   -5.9130   26.0520  -29.7060 O   0  0  0  0  0  0  0  0  0  0  0  0
   -5.8540   24.0140  -30.9170 C   0  0  0  0  0  0  0  0  0  0  0  0
   -7.1940   23.8810  -31.2730 C   0  0  0  0  0  0  0  0  0  0  0  0
   -7.3630   22.5490  -31.5710 C   0  0  0  0  0  0  0  0  0  0  0  0
   -8.4970   21.8630  -31.9970 C   0  0  0  0  0  0  0  0  0  0  0  0
   -8.3760   20.4890  -32.2580 C   0  0  0  0  0  0  0  0  0  0  0  0
   -7.1320   19.8290  -32.0930 C   0  0  0  0  0  0  0  0  0  0  0  0
   -7.0060   18.3610  -32.4100 C   0  0  0  0  0  0  0  0  0  0  0  0
   -6.1510   18.1280  -33.6580 C   0  0  0  0  0  0  0  0  0  0  0  0
   -6.5920   17.0080  -34.3390 F   0  0  0  0  0  0  0  0  0  0  0  0
   -6.2500   19.2270  -34.4910 F   0  0  0  0  0  0  0  0  0  0  0  0
   -4.8240   17.9550  -33.3030 F   0  0  0  0  0  0  0  0  0  0  0  0
   -6.0000   20.5600  -31.6720 C   0  0  0  0  0  0  0  0  0  0  0  0
   -6.1550   21.9250  -31.3990 C   0  0  0  0  0  0  0  0  0  0  0  0
   -5.2180   22.8110  -30.9940 N   0  0  0  0  0  0  0  0  0  0  0  0
   -3.8220   22.5460  -30.7680 C   0  0  0  0  0  0  0  0  0  0  0  0
   -2.9600   23.0680  -31.5250 O   0  0  0  0  0  0  0  0  0  0  0  0
   -3.3680   21.6320  -29.6690 C   0  0  0  0  0  0  0  0  0  0  0  0
   -3.9090   22.0570  -28.4420 O   0  0  0  0  0  0  0  0  0  0  0  0
   -3.4500   23.6770  -28.2160 P   0  0  0  0  0  0  0  0  0  0  0  0
   -4.2260   24.5580  -27.2630 O   0  0  0  0  0  0  0  0  0  0  0  0
   -2.1240   24.3030  -29.0580 O   0  0  0  0  0  0  0  0  0  0  0  0
   -3.1160   25.0250  -30.5860 H   0  0  0  0  0  0  0  0  0  0  0  0
   -7.9559   24.6736  -31.3083 H   0  0  0  0  0  0  0  0  0  0  0  0
   -9.4585   22.3818  -32.1252 H   0  0  0  0  0  0  0  0  0  0  0  0
   -9.2548   19.9189  -32.5938 H   0  0  0  0  0  0  0  0  0  0  0  0
   -6.5383   17.8497  -31.5557 H   0  0  0  0  0  0  0  0  0  0  0  0
   -8.0128   17.9617  -32.6019 H   0  0  0  0  0  0  0  0  0  0  0  0
   -5.0213   20.0701  -31.5612 H   0  0  0  0  0  0  0  0  0  0  0  0
   -3.7072   20.6076  -29.8824 H   0  0  0  0  0  0  0  0  0  0  0  0
   -2.2699   21.6537  -29.6088 H   0  0  0  0  0  0  0  0  0  0  0  0
   -2.3960   24.2640  -30.0100 H   0  0  0  0  0  0  0  0  0  0  0  0
  1  2  1  0
  2  3  2  0
  2  4  1  0
  4  5  2  0
  5  6  1  0
  6  7  2  0
  7  8  1  0
  8  9  2  0
  9 10  1  0
 10 11  1  0
 11 12  1  0
 11 13  1  0
 11 14  1  0
  9 15  1  0
 15 16  2  0
 16 17  1  0
 17 18  1  0
 18 19  2  0
 18 20  1  0
 20 21  1  0
 21 22  1  0
 22 23  2  0
 22 24  1  0
 17  4  1  0
 16  6  1  0
  1 25  1  0
  5 26  1  0
  7 27  1  0
  8 28  1  0
 10 29  1  0
 10 30  1  0
 15 31  1  0
 20 32  1  0
 20 33  1  0
 24 34  1  0
M  CHG  2   1  -1  22   1
M  END
>  <UniqueID>  (14) 
14

>  <SMILES>  (14) 
[NH-]C(=O)c1cc2ccc(CC(F)(F)F)cc2n1C(=O)CO[P+](=O)O

>  <Energy>  (14) 
90.1069959566853

>  <Genealogy>  (14) 
[NH-]C(=O)c1cc2ccc(CC(F)(F)F)cc2n1C(=O)CO[P+](=O)O (protonated)
[NH-]C(=O)c1cc2ccc(CC(F)(F)F)cc2n1C(=O)CO[P+](=O)O (chirality)
[NH-]C(=O)c1cc2ccc(CC(F)(F)F)cc2n1C(=O)CO[P+](=O)O (3D coordinates assigned)
[NH-]C(=O)c1cc2ccc(CC(F)(F)F)cc2n1C(=O)CO[P+](=O)O (optimized conformer: 90.1069959566853 kcal/mol)

>  <smiles>  (14) 
NC(=O)c1cc2ccc(CC(F)(F)F)cc2n1C(=O)CO[P+](=O)O

>  <score_type>  (14) 
oracle

>  <origin>  (14) 
adg

>  <m_score__min__energy>  (14) 
-9.2200000000000006

>  <m_primary>  (14) 
energy

$$$$
14:0
     RDKit          3D

 35 36  0  0  0  0  0  0  0  0999 V2000
   -9.4250   19.6010  -32.7020 C   0  0  0  0  0  0  0  0  0  0  0  0
   -8.1840   19.0180  -32.1030 C   0  0  0  0  0  0  0  0  0  0  0  0
   -8.2850   18.1740  -31.1730 O   0  0  0  0  0  0  0  0  0  0  0  0
   -6.8900   19.3450  -32.6300 N   0  0  0  0  0  0  0  0  0  0  0  0
   -6.0460   18.5510  -33.3470 C   0  0  0  0  0  0  0  0  0  0  0  0
   -6.3630   17.2080  -33.8770 C   0  0  0  0  0  0  0  0  0  0  0  0
   -7.2360   16.3290  -33.1730 N   0  0  0  0  0  0  0  0  0  0  0  0
   -5.8890   16.8470  -34.9880 O   0  0  0  0  0  0  0  0  0  0  0  0
   -4.8430   19.2110  -33.5910 C   0  0  0  0  0  0  0  0  0  0  0  0
   -4.9810   20.4480  -33.0040 C   0  0  0  0  0  0  0  0  0  0  0  0
   -4.0870   21.5120  -32.9300 C   0  0  0  0  0  0  0  0  0  0  0  0
   -4.4900   22.6640  -32.2330 C   0  0  0  0  0  0  0  0  0  0  0  0
   -5.7680   22.7300  -31.6220 C   0  0  0  0  0  0  0  0  0  0  0  0
   -6.1780   23.9560  -30.8490 C   0  0  0  0  0  0  0  0  0  0  0  0
   -5.7030   23.9220  -29.3850 C   0  0  0  0  0  0  0  0  0  0  0  0
   -4.1820   23.7500  -29.2330 C   0  0  0  0  0  0  0  0  0  0  0  0
   -3.4110   24.9210  -29.7650 C   0  0  0  0  0  0  0  0  0  0  0  0
   -2.3280   25.2700  -29.2240 O   0  0  0  0  0  0  0  0  0  0  0  0
   -3.9080   25.6510  -30.8370 O   0  0  0  0  0  0  0  0  0  0  0  0
   -6.6520   21.6320  -31.7250 C   0  0  0  0  0  0  0  0  0  0  0  0
   -6.2260   20.5040  -32.4330 C   0  0  0  0  0  0  0  0  0  0  0  0
  -10.1049   19.9204  -31.8984 H   0  0  0  0  0  0  0  0  0  0  0  0
   -9.1593   20.4685  -33.3240 H   0  0  0  0  0  0  0  0  0  0  0  0
   -9.9231   18.8427  -33.3240 H   0  0  0  0  0  0  0  0  0  0  0  0
   -8.1040   16.6860  -32.7150 H   0  0  0  0  0  0  0  0  0  0  0  0
   -3.9692   18.8253  -34.1366 H   0  0  0  0  0  0  0  0  0  0  0  0
   -3.0954   21.4532  -33.4025 H   0  0  0  0  0  0  0  0  0  0  0  0
   -3.8070   23.5233  -32.1607 H   0  0  0  0  0  0  0  0  0  0  0  0
   -5.7462   24.8414  -31.3386 H   0  0  0  0  0  0  0  0  0  0  0  0
   -7.2774   23.9912  -30.8408 H   0  0  0  0  0  0  0  0  0  0  0  0
   -5.9957   24.8663  -28.9028 H   0  0  0  0  0  0  0  0  0  0  0  0
   -6.1745   23.0469  -28.9140 H   0  0  0  0  0  0  0  0  0  0  0  0
   -3.9465   23.6294  -28.1653 H   0  0  0  0  0  0  0  0  0  0  0  0
   -3.8877   22.8655  -29.8170 H   0  0  0  0  0  0  0  0  0  0  0  0
   -7.6486   21.6640  -31.2605 H   0  0  0  0  0  0  0  0  0  0  0  0
  1  2  1  0
  2  3  2  0
  2  4  1  0
  4  5  1  0
  5  6  1  0
  6  7  1  0
  6  8  2  0
  5  9  2  0
  9 10  1  0
 10 11  2  0
 11 12  1  0
 12 13  2  0
 13 14  1  0
 14 15  1  0
 15 16  1  0
 16 17  1  0
 17 18  2  0
 17 19  1  0
 13 20  1  0
 20 21  2  0
 21  4  1  0
 21 10  1  0
  1 22  1  0
  1 23  1  0
  1 24  1  0
  7 25  1  0
  9 26  1  0
 11 27  1  0
 12 28  1  0
 14 29  1  0
 14 30  1  0
 15 31  1  0
 15 32  1  0
 16 33  1  0
 16 34  1  0
 20 35  1  0
M  CHG  2   7  -1  19  -1
M  END
>  <UniqueID>  (15) 
15

>  <SMILES>  (15) 
CC(=O)n1c(C([NH-])=O)cc2ccc(CCCC(=O)[O-])cc21

>  <Energy>  (15) 
69.86664111939619

>  <Genealogy>  (15) 
CC(=O)n1c(C([NH-])=O)cc2ccc(CCCC(=O)[O-])cc21 (protonated)
CC(=O)n1c(C([NH-])=O)cc2ccc(CCCC(=O)[O-])cc21 (3D coordinates assigned)
CC(=O)n1c(C([NH-])=O)cc2ccc(CCCC(=O)[O-])cc21 (optimized conformer: 69.86664111939619 kcal/mol)

>  <smiles>  (15) 
CC(=O)n1c(C(N)=O)cc2ccc(CCCC(=O)O)cc21

>  <score_type>  (15) 
oracle

>  <origin>  (15) 
adg

>  <m_score__min__energy>  (15) 
-10.34

>  <m_primary>  (15) 
energy

$$$$
15:0
     RDKit          3D

 49 51  0  0  0  0  0  0  0  0999 V2000
   -9.1000   20.6440  -31.9620 C   0  0  0  0  0  0  0  0  0  0  0  0
   -9.2440   22.1590  -31.8770 C   0  0  0  0  0  0  0  0  0  0  0  0
   -8.0010   22.7960  -32.1630 O   0  0  0  0  0  0  0  0  0  0  0  0
   -7.0090   23.0180  -31.2020 C   0  0  0  0  0  0  0  0  0  0  0  0
   -7.3060   23.5230  -30.0840 O   0  0  0  0  0  0  0  0  0  0  0  0
   -5.6450   22.6690  -31.4880 N   0  0  0  0  0  0  0  0  0  0  0  0
   -4.5150   23.2490  -30.9940 C   0  0  0  0  0  0  0  0  0  0  0  0
   -4.4620   24.4780  -30.1770 C   0  0  0  0  0  0  0  0  0  0  0  0
   -5.1190   24.5570  -28.9120 N   0  0  0  0  0  0  0  0  0  0  0  0
   -3.8720   25.4960  -30.6300 O   0  0  0  0  0  0  0  0  0  0  0  0
   -3.3830   22.5500  -31.4020 C   0  0  0  0  0  0  0  0  0  0  0  0
   -3.8550   21.5180  -32.1800 C   0  0  0  0  0  0  0  0  0  0  0  0
   -3.1640   20.4950  -32.8230 C   0  0  0  0  0  0  0  0  0  0  0  0
   -3.9110   19.5320  -33.5200 C   0  0  0  0  0  0  0  0  0  0  0  0
   -5.3260   19.6050  -33.5590 C   0  0  0  0  0  0  0  0  0  0  0  0
   -6.1150   18.5340  -34.2650 C   0  0  0  0  0  0  0  0  0  0  0  0
   -6.1630   17.2630  -33.4530 C   0  0  0  0  0  0  0  0  0  0  0  0
   -7.1520   17.0550  -32.6990 O   0  0  0  0  0  0  0  0  0  0  0  0
   -5.1320   16.2600  -33.5680 N   0  0  0  0  0  0  0  0  0  0  0  0
   -5.0110   15.2220  -32.5320 C   0  0  0  0  0  0  0  0  0  0  0  0
   -3.5470   14.8010  -32.3730 C   0  0  0  0  0  0  0  0  0  0  0  0
   -2.9200   14.3220  -33.6980 C   0  0  0  0  0  0  0  0  0  0  0  0
   -3.6700   14.8080  -34.9500 C   0  0  0  0  0  0  0  0  0  0  0  0
   -4.2660   16.2070  -34.7590 C   0  0  0  0  0  0  0  0  0  0  0  0
   -5.9930   20.6500  -32.8830 C   0  0  0  0  0  0  0  0  0  0  0  0
   -5.2230   21.6100  -32.2150 C   0  0  0  0  0  0  0  0  0  0  0  0
   -9.0599   20.2220  -30.9470 H   0  0  0  0  0  0  0  0  0  0  0  0
   -9.9622   20.2233  -32.5002 H   0  0  0  0  0  0  0  0  0  0  0  0
   -8.1740   20.3933  -32.5002 H   0  0  0  0  0  0  0  0  0  0  0  0
   -9.9976   22.4924  -32.6057 H   0  0  0  0  0  0  0  0  0  0  0  0
   -9.5561   22.4299  -30.8576 H   0  0  0  0  0  0  0  0  0  0  0  0
   -5.7580   23.7970  -28.5890 H   0  0  0  0  0  0  0  0  0  0  0  0
   -5.0370   25.4190  -28.3310 H   0  0  0  0  0  0  0  0  0  0  0  0
   -2.3348   22.7745  -31.1552 H   0  0  0  0  0  0  0  0  0  0  0  0
   -2.0659   20.4426  -32.7862 H   0  0  0  0  0  0  0  0  0  0  0  0
   -3.3932   18.7131  -34.0408 H   0  0  0  0  0  0  0  0  0  0  0  0
   -7.1416   18.8940  -34.4281 H   0  0  0  0  0  0  0  0  0  0  0  0
   -5.6224   18.3150  -35.2238 H   0  0  0  0  0  0  0  0  0  0  0  0
   -5.3808   15.6189  -31.5751 H   0  0  0  0  0  0  0  0  0  0  0  0
   -5.6058   14.3461  -32.8305 H   0  0  0  0  0  0  0  0  0  0  0  0
   -2.9713   15.6617  -32.0018 H   0  0  0  0  0  0  0  0  0  0  0  0
   -3.5177   13.9581  -31.6669 H   0  0  0  0  0  0  0  0  0  0  0  0
   -1.8859   14.6937  -33.7469 H   0  0  0  0  0  0  0  0  0  0  0  0
   -2.9724   13.2232  -33.6990 H   0  0  0  0  0  0  0  0  0  0  0  0
   -2.9676   14.8343  -35.7962 H   0  0  0  0  0  0  0  0  0  0  0  0
   -4.4987   14.1101  -35.1403 H   0  0  0  0  0  0  0  0  0  0  0  0
   -3.4476   16.9323  -34.6400 H   0  0  0  0  0  0  0  0  0  0  0  0
   -4.8744   16.4497  -35.6427 H   0  0  0  0  0  0  0  0  0  0  0  0
   -7.0914   20.7085  -32.8812 H   0  0  0  0  0  0  0  0  0  0  0  0
  1  2  1  0
  2  3  1  0
  3  4  1  0
  4  5  2  0
  4  6  1  0
  6  7  1  0
  7  8  1  0
  8  9  1  0
  8 10  2  0
  7 11  2  0
 11 12  1  0
 12 13  2  0
 13 14  1  0
 14 15  2  0
 15 16  1  0
 16 17  1  0
 17 18  2  0
 17 19  1  0
 19 20  1  0
 20 21  1  0
 21 22  1  0
 22 23  1  0
 23 24  1  0
 15 25  1  0
 25 26  2  0
 26  6  1  0
 26 12  1  0
 24 19  1  0
  1 27  1  0
  1 28  1  0
  1 29  1  0
  2 30  1  0
  2 31  1  0
  9 32  1  0
  9 33  1  0
 11 34  1  0
 13 35  1  0
 14 36  1  0
 16 37  1  0
 16 38  1  0
 20 39  1  0
 20 40  1  0
 21 41  1  0
 21 42  1  0
 22 43  1  0
 22 44  1  0
 23 45  1  0
 23 46  1  0
 24 47  1  0
 24 48  1  0
 25 49  1  0
M  END
>  <UniqueID>  (16) 
16

>  <SMILES>  (16) 
CCOC(=O)n1c(C(N)=O)cc2ccc(CC(=O)N3CCCCC3)cc21

>  <Energy>  (16) 
85.98170743694904

>  <Genealogy>  (16) 
CCOC(=O)n1c(C(N)=O)cc2ccc(CC(=O)N3CCCCC3)cc21 (3D coordinates assigned)
CCOC(=O)n1c(C(N)=O)cc2ccc(CC(=O)N3CCCCC3)cc21 (nonaromatic ring conformer: 85.98170743694904 kcal/mol)

>  <smiles>  (16) 
CCOC(=O)n1c(C(N)=O)cc2ccc(CC(=O)N3CCCCC3)cc21

>  <score_type>  (16) 
oracle

>  <origin>  (16) 
adg

>  <m_score__min__energy>  (16) 
-9.1699999999999999

>  <m_primary>  (16) 
energy

$$$$
16:0
     RDKit          3D

 43 44  0  0  0  0  0  0  0  0999 V2000
   -0.8610   25.4290  -28.1610 C   0  0  0  0  0  0  0  0  0  0  0  0
   -2.1120   25.2350  -28.7810 O   0  0  0  0  0  0  0  0  0  0  0  0
   -2.9630   24.5280  -27.9020 C   0  0  0  0  0  0  0  0  0  0  0  0
   -3.4710   23.2660  -28.5970 C   0  0  0  0  0  0  0  0  0  0  0  0
   -2.9340   23.1620  -29.9140 O   0  0  0  0  0  0  0  0  0  0  0  0
   -3.6580   22.6650  -31.0050 C   0  0  0  0  0  0  0  0  0  0  0  0
   -3.0640   22.0890  -31.9570 O   0  0  0  0  0  0  0  0  0  0  0  0
   -5.0820   22.8360  -31.0510 N   0  0  0  0  0  0  0  0  0  0  0  0
   -5.7880   23.9950  -30.9180 C   0  0  0  0  0  0  0  0  0  0  0  0
   -5.2360   25.3060  -30.5200 C   0  0  0  0  0  0  0  0  0  0  0  0
   -3.9010   25.6730  -30.8580 N   0  0  0  0  0  0  0  0  0  0  0  0
   -5.9370   26.0940  -29.8320 O   0  0  0  0  0  0  0  0  0  0  0  0
   -7.1450   23.7680  -31.1410 C   0  0  0  0  0  0  0  0  0  0  0  0
   -7.2510   22.4220  -31.4100 C   0  0  0  0  0  0  0  0  0  0  0  0
   -8.3690   21.6580  -31.7300 C   0  0  0  0  0  0  0  0  0  0  0  0
   -8.1780   20.2940  -32.0040 C   0  0  0  0  0  0  0  0  0  0  0  0
   -6.8820   19.7220  -31.9560 C   0  0  0  0  0  0  0  0  0  0  0  0
   -6.6820   18.2700  -32.3030 C   0  0  0  0  0  0  0  0  0  0  0  0
   -6.4640   18.0860  -33.8080 C   0  0  0  0  0  0  0  0  0  0  0  0
   -5.4890   19.0020  -34.3060 O   0  0  0  0  0  0  0  0  0  0  0  0
   -4.1610   19.0300  -33.8660 C   0  0  0  0  0  0  0  0  0  0  0  0
   -3.5560   20.2780  -33.5440 N   0  0  0  0  0  0  0  0  0  0  0  0
   -3.4980   17.9640  -33.7460 O   0  0  0  0  0  0  0  0  0  0  0  0
   -5.7690   20.5310  -31.6360 C   0  0  0  0  0  0  0  0  0  0  0  0
   -5.9910   21.8830  -31.3490 C   0  0  0  0  0  0  0  0  0  0  0  0
   -0.9864   25.4096  -27.0683 H   0  0  0  0  0  0  0  0  0  0  0  0
   -0.1726   24.6269  -28.4654 H   0  0  0  0  0  0  0  0  0  0  0  0
   -0.4478   26.4020  -28.4654 H   0  0  0  0  0  0  0  0  0  0  0  0
   -2.4054   24.2492  -26.9957 H   0  0  0  0  0  0  0  0  0  0  0  0
   -3.8161   25.1643  -27.6239 H   0  0  0  0  0  0  0  0  0  0  0  0
   -3.1664   22.3851  -28.0128 H   0  0  0  0  0  0  0  0  0  0  0  0
   -4.5675   23.3189  -28.6666 H   0  0  0  0  0  0  0  0  0  0  0  0
   -3.0880   25.2890  -30.3270 H   0  0  0  0  0  0  0  0  0  0  0  0
   -7.9587   24.5075  -31.1089 H   0  0  0  0  0  0  0  0  0  0  0  0
   -9.3718   22.1086  -31.7672 H   0  0  0  0  0  0  0  0  0  0  0  0
   -9.0426   19.6633  -32.2584 H   0  0  0  0  0  0  0  0  0  0  0  0
   -5.8018   17.8900  -31.7637 H   0  0  0  0  0  0  0  0  0  0  0  0
   -7.5851   17.7141  -32.0109 H   0  0  0  0  0  0  0  0  0  0  0  0
   -6.1201   17.0584  -33.9974 H   0  0  0  0  0  0  0  0  0  0  0  0
   -7.4167   18.2784  -34.3232 H   0  0  0  0  0  0  0  0  0  0  0  0
   -4.0970   21.1640  -33.6430 H   0  0  0  0  0  0  0  0  0  0  0  0
   -2.5670   20.3180  -33.2120 H   0  0  0  0  0  0  0  0  0  0  0  0
   -4.7534   20.1091  -31.6129 H   0  0  0  0  0  0  0  0  0  0  0  0
  1  2  1  0
  2  3  1  0
  3  4  1  0
  4  5  1  0
  5  6  1  0
  6  7  2  0
  6  8  1  0
  8  9  1  0
  9 10  1  0
 10 11  1  0
 10 12  2  0
  9 13  2  0
 13 14  1  0
 14 15  2  0
 15 16  1  0
 16 17  2  0
 17 18  1  0
 18 19  1  0
 19 20  1  0
 20 21  1  0
 21 22  1  0
 21 23  2  0
 17 24  1  0
 24 25  2  0
 25  8  1  0
 25 14  1  0
  1 26  1  0
  1 27  1  0
  1 28  1  0
  3 29  1  0
  3 30  1  0
  4 31  1  0
  4 32  1  0
 11 33  1  0
 13 34  1  0
 15 35  1  0
 16 36  1  0
 18 37  1  0
 18 38  1  0
 19 39  1  0
 19 40  1  0
 22 41  1  0
 22 42  1  0
 24 43  1  0
M  CHG  1  11  -1
M  END
>  <UniqueID>  (17) 
17

>  <SMILES>  (17) 
COCCOC(=O)n1c(C([NH-])=O)cc2ccc(CCOC(N)=O)cc21

>  <Energy>  (17) 
73.10519683134551

>  <Genealogy>  (17) 
COCCOC(=O)n1c(C([NH-])=O)cc2ccc(CCOC(N)=O)cc21 (protonated)
COCCOC(=O)n1c(C([NH-])=O)cc2ccc(CCOC(N)=O)cc21 (3D coordinates assigned)
COCCOC(=O)n1c(C([NH-])=O)cc2ccc(CCOC(N)=O)cc21 (optimized conformer: 73.10519683134551 kcal/mol)

>  <smiles>  (17) 
COCCOC(=O)n1c(C(N)=O)cc2ccc(CCOC(N)=O)cc21

>  <score_type>  (17) 
oracle

>  <origin>  (17) 
adg

>  <m_score__min__energy>  (17) 
-9.4499999999999993

>  <m_primary>  (17) 
energy

$$$$
17:0
     RDKit          3D

 25 26  0  0  0  0  0  0  0  0999 V2000
   -4.2630   25.5750  -30.7450 N   0  0  0  0  0  0  0  0  0  0  0  0
   -5.6000   25.1990  -30.4120 C   0  0  0  0  0  0  0  0  0  0  0  0
   -6.2640   25.9140  -29.6160 O   0  0  0  0  0  0  0  0  0  0  0  0
   -6.1880   23.9480  -30.9260 C   0  0  0  0  0  0  0  0  0  0  0  0
   -7.5430   23.8040  -31.2150 C   0  0  0  0  0  0  0  0  0  0  0  0
   -7.6980   22.4860  -31.5780 C   0  0  0  0  0  0  0  0  0  0  0  0
   -8.8400   21.7930  -31.9690 C   0  0  0  0  0  0  0  0  0  0  0  0
   -8.7030   20.4360  -32.3090 C   0  0  0  0  0  0  0  0  0  0  0  0
   -7.4360   19.8030  -32.2570 C   0  0  0  0  0  0  0  0  0  0  0  0
   -7.2930   18.3540  -32.6290 C   0  0  0  0  0  0  0  0  0  0  0  0
   -6.5020   18.2400  -33.7570 F   0  0  0  0  0  0  0  0  0  0  0  0
   -6.7080   17.6590  -31.5870 F   0  0  0  0  0  0  0  0  0  0  0  0
   -6.2990   20.5380  -31.8560 C   0  0  0  0  0  0  0  0  0  0  0  0
   -6.4660   21.8850  -31.5130 C   0  0  0  0  0  0  0  0  0  0  0  0
   -5.5250   22.7720  -31.1230 N   0  0  0  0  0  0  0  0  0  0  0  0
   -4.1100   22.5250  -31.0570 C   0  0  0  0  0  0  0  0  0  0  0  0
   -3.2870   23.3380  -31.5540 O   0  0  0  0  0  0  0  0  0  0  0  0
   -3.6390   24.9270  -31.2740 H   0  0  0  0  0  0  0  0  0  0  0  0
   -3.8690   26.4770  -30.3950 H   0  0  0  0  0  0  0  0  0  0  0  0
   -8.3225   24.5785  -31.1639 H   0  0  0  0  0  0  0  0  0  0  0  0
   -9.8195   22.2919  -32.0107 H   0  0  0  0  0  0  0  0  0  0  0  0
   -9.5875   19.8599  -32.6184 H   0  0  0  0  0  0  0  0  0  0  0  0
   -8.2890   17.9347  -32.8341 H   0  0  0  0  0  0  0  0  0  0  0  0
   -5.3071   20.0642  -31.8142 H   0  0  0  0  0  0  0  0  0  0  0  0
   -3.7413   21.6127  -30.5653 H   0  0  0  0  0  0  0  0  0  0  0  0
  1  2  1  0
  2  3  2  0
  2  4  1  0
  4  5  2  0
  5  6  1  0
  6  7  2  0
  7  8  1  0
  8  9  2  0
  9 10  1  0
 10 11  1  0
 10 12  1  0
  9 13  1  0
 13 14  2  0
 14 15  1  0
 15 16  1  0
 16 17  2  0
 15  4  1  0
 14  6  1  0
  1 18  1  0
  1 19  1  0
  5 20  1  0
  7 21  1  0
  8 22  1  0
 10 23  1  0
 13 24  1  0
 16 25  1  0
M  END
>  <UniqueID>  (18) 
18

>  <SMILES>  (18) 
NC(=O)c1cc2ccc(C(F)F)cc2n1C=O

>  <Energy>  (18) 
63.78003828869337

>  <Genealogy>  (18) 
NC(=O)c1cc2ccc(C(F)F)cc2n1C=O (3D coordinates assigned)
NC(=O)c1cc2ccc(C(F)F)cc2n1C=O (optimized conformer: 63.78003828869337 kcal/mol)

>  <smiles>  (18) 
NC(=O)c1cc2ccc(C(F)F)cc2n1C=O

>  <score_type>  (18) 
oracle

>  <origin>  (18) 
adg

>  <m_score__min__energy>  (18) 
-7.4199999999999999

>  <m_primary>  (18) 
energy

$$$$
18:0
     RDKit          3D

 31 32  0  0  0  0  0  0  0  0999 V2000
   -3.8660   23.5400  -27.9230 C   0  0  0  0  0  0  0  0  0  0  0  0
   -3.1290   22.5670  -28.8370 C   0  0  0  0  0  0  0  0  0  0  0  0
   -2.9580   23.1310  -30.1360 O   0  0  0  0  0  0  0  0  0  0  0  0
   -3.6800   22.7130  -31.2590 C   0  0  0  0  0  0  0  0  0  0  0  0
   -3.0950   22.1410  -32.2190 O   0  0  0  0  0  0  0  0  0  0  0  0
   -5.1010   22.9190  -31.3090 N   0  0  0  0  0  0  0  0  0  0  0  0
   -5.7980   24.0150  -30.8950 C   0  0  0  0  0  0  0  0  0  0  0  0
   -5.2150   25.3030  -30.4660 C   0  0  0  0  0  0  0  0  0  0  0  0
   -3.8930   25.6730  -30.8470 N   0  0  0  0  0  0  0  0  0  0  0  0
   -5.9120   26.1090  -29.7940 O   0  0  0  0  0  0  0  0  0  0  0  0
   -7.1690   23.7920  -31.0040 C   0  0  0  0  0  0  0  0  0  0  0  0
   -7.2920   22.5190  -31.5100 C   0  0  0  0  0  0  0  0  0  0  0  0
   -8.4330   21.7760  -31.7940 C   0  0  0  0  0  0  0  0  0  0  0  0
   -8.2650   20.4650  -32.2720 C   0  0  0  0  0  0  0  0  0  0  0  0
   -6.9680   19.9240  -32.4660 C   0  0  0  0  0  0  0  0  0  0  0  0
   -6.8010   18.4960  -32.9170 C   0  0  0  0  0  0  0  0  0  0  0  0
   -7.9740   17.7850  -32.7300 F   0  0  0  0  0  0  0  0  0  0  0  0
   -5.7920   17.9010  -32.1840 F   0  0  0  0  0  0  0  0  0  0  0  0
   -6.4730   18.4430  -34.2610 F   0  0  0  0  0  0  0  0  0  0  0  0
   -5.8330   20.7030  -32.1410 C   0  0  0  0  0  0  0  0  0  0  0  0
   -6.0310   22.0130  -31.6860 C   0  0  0  0  0  0  0  0  0  0  0  0
   -3.6679   23.2784  -26.8731 H   0  0  0  0  0  0  0  0  0  0  0  0
   -3.5149   24.5640  -28.1183 H   0  0  0  0  0  0  0  0  0  0  0  0
   -4.9468   23.4794  -28.1183 H   0  0  0  0  0  0  0  0  0  0  0  0
   -2.1415   22.3440  -28.4067 H   0  0  0  0  0  0  0  0  0  0  0  0
   -3.7221   21.6448  -28.9257 H   0  0  0  0  0  0  0  0  0  0  0  0
   -3.0620   25.2920  -30.3420 H   0  0  0  0  0  0  0  0  0  0  0  0
   -7.9806   24.4865  -30.7412 H   0  0  0  0  0  0  0  0  0  0  0  0
   -9.4368   22.2017  -31.6488 H   0  0  0  0  0  0  0  0  0  0  0  0
   -9.1494   19.8513  -32.4983 H   0  0  0  0  0  0  0  0  0  0  0  0
   -4.8187   20.2898  -32.2431 H   0  0  0  0  0  0  0  0  0  0  0  0
  1  2  1  0
  2  3  1  0
  3  4  1  0
  4  5  2  0
  4  6  1  0
  6  7  1  0
  7  8  1  0
  8  9  1  0
  8 10  2  0
  7 11  2  0
 11 12  1  0
 12 13  2  0
 13 14  1  0
 14 15  2  0
 15 16  1  0
 16 17  1  0
 16 18  1  0
 16 19  1  0
 15 20  1  0
 20 21  2  0
 21  6  1  0
 21 12  1  0
  1 22  1  0
  1 23  1  0
  1 24  1  0
  2 25  1  0
  2 26  1  0
  9 27  1  0
 11 28  1  0
 13 29  1  0
 14 30  1  0
 20 31  1  0
M  CHG  1   9  -1
M  END
>  <UniqueID>  (19) 
19

>  <SMILES>  (19) 
CCOC(=O)n1c(C([NH-])=O)cc2ccc(C(F)(F)F)cc21

>  <Energy>  (19) 
67.17308331689233

>  <Genealogy>  (19) 
CCOC(=O)n1c(C([NH-])=O)cc2ccc(C(F)(F)F)cc21 (protonated)
CCOC(=O)n1c(C([NH-])=O)cc2ccc(C(F)(F)F)cc21 (3D coordinates assigned)
CCOC(=O)n1c(C([NH-])=O)cc2ccc(C(F)(F)F)cc21 (optimized conformer: 67.17308331689233 kcal/mol)

>  <smiles>  (19) 
CCOC(=O)n1c(C(N)=O)cc2ccc(C(F)(F)F)cc21

>  <score_type>  (19) 
oracle

>  <origin>  (19) 
adg

>  <m_score__min__energy>  (19) 
-8.9700000000000006

>  <m_primary>  (19) 
energy

$$$$
19:0
     RDKit          3D

 52 54  0  0  0  0  0  0  0  0999 V2000
   -3.8940   18.3400  -34.5950 N   0  0  0  0  0  0  0  0  0  0  0  0
   -5.2950   18.5590  -34.4200 C   0  0  0  0  0  0  0  0  0  0  0  0
   -6.1120   17.8090  -35.0160 O   0  0  0  0  0  0  0  0  0  0  0  0
   -5.7850   19.6280  -33.5220 C   0  0  0  0  0  0  0  0  0  0  0  0
   -7.1040   19.7350  -33.0910 C   0  0  0  0  0  0  0  0  0  0  0  0
   -7.1560   20.8980  -32.3580 C   0  0  0  0  0  0  0  0  0  0  0  0
   -8.2240   21.4810  -31.6830 C   0  0  0  0  0  0  0  0  0  0  0  0
   -7.9850   22.6700  -30.9740 C   0  0  0  0  0  0  0  0  0  0  0  0
   -6.6900   23.2480  -30.9490 C   0  0  0  0  0  0  0  0  0  0  0  0
   -6.4350   24.5060  -30.1590 C   0  0  0  0  0  0  0  0  0  0  0  0
   -5.4630   25.4600  -30.8800 C   0  0  0  0  0  0  0  0  0  0  0  0
   -4.0570   25.2760  -30.4750 N   0  0  0  0  0  0  0  0  0  0  0  0
   -3.9060   24.3550  -29.3390 C   0  0  0  0  0  0  0  0  0  0  0  0
   -2.5710   23.6050  -29.4520 C   0  0  0  0  0  0  0  0  0  0  0  0
   -2.6610   22.0940  -29.3020 C   0  0  0  0  0  0  0  0  0  0  0  0
   -2.4270   22.7110  -30.6740 C   0  0  0  0  0  0  0  0  0  0  0  0
   -5.6300   22.6260  -31.6450 C   0  0  0  0  0  0  0  0  0  0  0  0
   -5.9010   21.4510  -32.3590 C   0  0  0  0  0  0  0  0  0  0  0  0
   -5.0460   20.6820  -33.0710 N   0  0  0  0  0  0  0  0  0  0  0  0
   -3.6320   20.8870  -33.2320 C   0  0  0  0  0  0  0  0  0  0  0  0
   -3.2020   21.9400  -33.7750 O   0  0  0  0  0  0  0  0  0  0  0  0
   -2.7360   19.9180  -32.7710 O   0  0  0  0  0  0  0  0  0  0  0  0
   -1.3600   20.1900  -32.5280 C   0  0  0  0  0  0  0  0  0  0  0  0
   -0.5660   20.1200  -33.8420 C   0  0  1  0  0  0  0  0  0  0  0  0
   -1.4580   20.0070  -34.9190 O   0  0  0  0  0  0  0  0  0  0  0  0
    0.3000   21.3730  -34.0520 C   0  0  0  0  0  0  0  0  0  0  0  0
   -0.3250   22.2850  -34.9170 O   0  0  0  0  0  0  0  0  0  0  0  0
   -3.1880   18.9730  -34.1560 H   0  0  0  0  0  0  0  0  0  0  0  0
   -3.5570   17.5610  -35.2030 H   0  0  0  0  0  0  0  0  0  0  0  0
   -7.9300   19.0374  -33.2936 H   0  0  0  0  0  0  0  0  0  0  0  0
   -9.2248   21.0249  -31.7039 H   0  0  0  0  0  0  0  0  0  0  0  0
   -8.8098   23.1572  -30.4333 H   0  0  0  0  0  0  0  0  0  0  0  0
   -7.3915   25.0263  -30.0032 H   0  0  0  0  0  0  0  0  0  0  0  0
   -5.9759   24.2164  -29.2022 H   0  0  0  0  0  0  0  0  0  0  0  0
   -5.5402   25.2840  -31.9631 H   0  0  0  0  0  0  0  0  0  0  0  0
   -5.7496   26.4858  -30.6052 H   0  0  0  0  0  0  0  0  0  0  0  0
   -3.4900   24.9270  -31.2810 H   0  0  0  0  0  0  0  0  0  0  0  0
   -3.9251   24.9273  -28.3998 H   0  0  0  0  0  0  0  0  0  0  0  0
   -4.7325   23.6291  -29.3473 H   0  0  0  0  0  0  0  0  0  0  0  0
   -1.9645   24.3996  -28.9929 H   0  0  0  0  0  0  0  0  0  0  0  0
   -1.8518   21.5417  -28.8019 H   0  0  0  0  0  0  0  0  0  0  0  0
   -3.3987   21.3968  -28.8780 H   0  0  0  0  0  0  0  0  0  0  0  0
   -1.4487   22.6045  -31.1654 H   0  0  0  0  0  0  0  0  0  0  0  0
   -2.9255   22.6444  -31.6523 H   0  0  0  0  0  0  0  0  0  0  0  0
   -4.6166   23.0534  -31.6270 H   0  0  0  0  0  0  0  0  0  0  0  0
   -1.2592   21.1964  -32.0956 H   0  0  0  0  0  0  0  0  0  0  0  0
   -0.9635   19.4396  -31.8282 H   0  0  0  0  0  0  0  0  0  0  0  0
    0.0962   19.2434  -33.7867 H   0  0  0  0  0  0  0  0  0  0  0  0
   -1.9890   20.8460  -34.9430 H   0  0  0  0  0  0  0  0  0  0  0  0
    0.4689   21.8591  -33.0798 H   0  0  0  0  0  0  0  0  0  0  0  0
    1.2544   21.0642  -34.5033 H   0  0  0  0  0  0  0  0  0  0  0  0
   -1.3040   22.1630  -34.8010 H   0  0  0  0  0  0  0  0  0  0  0  0
  1  2  1  0
  2  3  2  0
  2  4  1  0
  4  5  2  0
  5  6  1  0
  6  7  2  0
  7  8  1  0
  8  9  2  0
  9 10  1  0
 10 11  1  0
 11 12  1  0
 12 13  1  0
 13 14  1  0
 14 15  1  0
 15 16  1  0
  9 17  1  0
 17 18  2  0
 18 19  1  0
 19 20  1  0
 20 21  2  0
 20 22  1  0
 22 23  1  0
 23 24  1  0
 24 25  1  0
 24 26  1  0
 26 27  1  0
 19  4  1  0
 18  6  1  0
 16 14  1  0
  1 28  1  0
  1 29  1  0
  5 30  1  0
  7 31  1  0
  8 32  1  0
 10 33  1  0
 10 34  1  0
 11 35  1  0
 11 36  1  0
 12 37  1  0
 13 38  1  0
 13 39  1  0
 14 40  1  0
 15 41  1  0
 15 42  1  0
 16 43  1  0
 16 44  1  0
 17 45  1  0
 23 46  1  0
 23 47  1  0
 24 48  1  1
 25 49  1  0
 26 50  1  0
 26 51  1  0
 27 52  1  0
M  END
>  <UniqueID>  (20) 
20

>  <SMILES>  (20) 
NC(=O)c1cc2ccc(CCNCC3CC3)cc2n1C(=O)OC[C@@H](O)CO

>  <Energy>  (20) 
347.9719691356436

>  <Genealogy>  (20) 
NC(=O)c1cc2ccc(CCNCC3CC3)cc2n1C(=O)OC[C@@H](O)CO (chirality)
NC(=O)c1cc2ccc(CCNCC3CC3)cc2n1C(=O)OC[C@@H](O)CO (3D coordinates assigned)
NC(=O)c1cc2ccc(CCNCC3CC3)cc2n1C(=O)OC[C@@H](O)CO (nonaromatic ring conformer: 347.9719691356436 kcal/mol)

>  <smiles>  (20) 
NC(=O)c1cc2ccc(CCNCC3CC3)cc2n1C(=O)OCC(O)CO

>  <score_type>  (20) 
oracle

>  <origin>  (20) 
adg

>  <m_score__min__energy>  (20) 
-9

>  <m_primary>  (20) 
energy

$$$$
20:0
     RDKit          3D

 34 36  0  0  0  0  0  0  0  0999 V2000
   -2.8780   22.6210  -29.8190 C   0  0  0  0  0  0  0  0  0  0  0  0
   -3.4850   22.5090  -31.1810 C   0  0  0  0  0  0  0  0  0  0  0  0
   -2.7380   22.3140  -32.1760 O   0  0  0  0  0  0  0  0  0  0  0  0
   -4.9050   22.6320  -31.3680 N   0  0  0  0  0  0  0  0  0  0  0  0
   -5.7040   23.6760  -31.0070 C   0  0  0  0  0  0  0  0  0  0  0  0
   -5.2460   24.9690  -30.4520 C   0  0  0  0  0  0  0  0  0  0  0  0
   -3.8750   25.3530  -30.5180 N   0  0  0  0  0  0  0  0  0  0  0  0
   -6.0830   25.7600  -29.9420 O   0  0  0  0  0  0  0  0  0  0  0  0
   -7.0380   23.3890  -31.2870 C   0  0  0  0  0  0  0  0  0  0  0  0
   -7.0320   22.1270  -31.8380 C   0  0  0  0  0  0  0  0  0  0  0  0
   -8.0890   21.3400  -32.2840 C   0  0  0  0  0  0  0  0  0  0  0  0
   -7.7930   20.0570  -32.7750 C   0  0  0  0  0  0  0  0  0  0  0  0
   -6.4560   19.5830  -32.8070 C   0  0  0  0  0  0  0  0  0  0  0  0
   -6.1600   18.2200  -33.3110 C   0  0  0  0  0  0  0  0  0  0  0  0
   -7.0960   17.1840  -33.1280 C   0  0  0  0  0  0  0  0  0  0  0  0
   -6.8240   15.8940  -33.5930 C   0  0  0  0  0  0  0  0  0  0  0  0
   -5.6210   15.6240  -34.2480 C   0  0  0  0  0  0  0  0  0  0  0  0
   -4.6870   16.6450  -34.4410 C   0  0  0  0  0  0  0  0  0  0  0  0
   -4.9500   17.9390  -33.9780 C   0  0  0  0  0  0  0  0  0  0  0  0
   -4.0410   18.9180  -34.2130 F   0  0  0  0  0  0  0  0  0  0  0  0
   -5.4110   20.4120  -32.3360 C   0  0  0  0  0  0  0  0  0  0  0  0
   -5.7330   21.6920  -31.8730 C   0  0  0  0  0  0  0  0  0  0  0  0
   -3.6581   22.4771  -29.0569 H   0  0  0  0  0  0  0  0  0  0  0  0
   -2.1017   21.8509  -29.6991 H   0  0  0  0  0  0  0  0  0  0  0  0
   -2.4277   23.6174  -29.6991 H   0  0  0  0  0  0  0  0  0  0  0  0
   -3.5440   26.0410  -31.2300 H   0  0  0  0  0  0  0  0  0  0  0  0
   -7.9109   24.0336  -31.1063 H   0  0  0  0  0  0  0  0  0  0  0  0
   -9.1243   21.7105  -32.2533 H   0  0  0  0  0  0  0  0  0  0  0  0
   -8.6071   19.4128  -33.1387 H   0  0  0  0  0  0  0  0  0  0  0  0
   -8.0472   17.3911  -32.6159 H   0  0  0  0  0  0  0  0  0  0  0  0
   -7.5594   15.0899  -33.4425 H   0  0  0  0  0  0  0  0  0  0  0  0
   -5.4086   14.6079  -34.6119 H   0  0  0  0  0  0  0  0  0  0  0  0
   -3.7407   16.4307  -34.9592 H   0  0  0  0  0  0  0  0  0  0  0  0
   -4.3694   20.0582  -32.3339 H   0  0  0  0  0  0  0  0  0  0  0  0
  1  2  1  0
  2  3  2  0
  2  4  1  0
  4  5  1  0
  5  6  1  0
  6  7  1  0
  6  8  2  0
  5  9  2  0
  9 10  1  0
 10 11  2  0
 11 12  1  0
 12 13  2  0
 13 14  1  0
 14 15  2  0
 15 16  1  0
 16 17  2  0
 17 18  1  0
 18 19  2  0
 19 20  1  0
 13 21  1  0
 21 22  2  0
 22  4  1  0
 22 10  1  0
 19 14  1  0
  1 23  1  0
  1 24  1  0
  1 25  1  0
  7 26  1  0
  9 27  1  0
 11 28  1  0
 12 29  1  0
 15 30  1  0
 16 31  1  0
 17 32  1  0
 18 33  1  0
 21 34  1  0
M  CHG  1   7  -1
M  END
>  <UniqueID>  (21) 
21

>  <SMILES>  (21) 
CC(=O)n1c(C([NH-])=O)cc2ccc(-c3ccccc3F)cc21

>  <Energy>  (21) 
81.52359241594877

>  <Genealogy>  (21) 
CC(=O)n1c(C([NH-])=O)cc2ccc(-c3ccccc3F)cc21 (protonated)
CC(=O)n1c(C([NH-])=O)cc2ccc(-c3ccccc3F)cc21 (3D coordinates assigned)
CC(=O)n1c(C([NH-])=O)cc2ccc(-c3ccccc3F)cc21 (optimized conformer: 81.52359241594877 kcal/mol)

>  <smiles>  (21) 
CC(=O)n1c(C(N)=O)cc2ccc(-c3ccccc3F)cc21

>  <score_type>  (21) 
oracle

>  <origin>  (21) 
adg

>  <m_score__min__energy>  (21) 
-10.83

>  <m_primary>  (21) 
energy

$$$$
21:0
     RDKit          3D

 48 49  0  0  0  0  0  0  0  0999 V2000
   -3.8620   23.5510  -27.9540 C   0  0  0  0  0  0  0  0  0  0  0  0
   -3.0550   22.5950  -28.8160 C   0  0  0  0  0  0  0  0  0  0  0  0
   -2.9270   23.1310  -30.1270 O   0  0  0  0  0  0  0  0  0  0  0  0
   -3.6830   22.6710  -31.2090 C   0  0  0  0  0  0  0  0  0  0  0  0
   -3.1250   22.0590  -32.1610 O   0  0  0  0  0  0  0  0  0  0  0  0
   -5.1060   22.8680  -31.2190 N   0  0  0  0  0  0  0  0  0  0  0  0
   -5.7920   24.0270  -31.0000 C   0  0  0  0  0  0  0  0  0  0  0  0
   -5.2170   25.3030  -30.5290 C   0  0  0  0  0  0  0  0  0  0  0  0
   -3.8800   25.6700  -30.8560 N   0  0  0  0  0  0  0  0  0  0  0  0
   -5.9000   26.0590  -29.7860 O   0  0  0  0  0  0  0  0  0  0  0  0
   -7.1580   23.8310  -31.2010 C   0  0  0  0  0  0  0  0  0  0  0  0
   -7.2890   22.5050  -31.5430 C   0  0  0  0  0  0  0  0  0  0  0  0
   -8.4290   21.7720  -31.8600 C   0  0  0  0  0  0  0  0  0  0  0  0
   -8.2680   20.4200  -32.2050 C   0  0  0  0  0  0  0  0  0  0  0  0
   -6.9780   19.8310  -32.2410 C   0  0  0  0  0  0  0  0  0  0  0  0
   -6.8220   18.3820  -32.6230 C   0  0  0  0  0  0  0  0  0  0  0  0
   -6.0010   18.2430  -33.8800 C   0  0  0  0  0  0  0  0  0  0  0  0
   -6.1840   19.0830  -34.8020 O   0  0  0  0  0  0  0  0  0  0  0  0
   -4.9780   17.2310  -34.0310 N   0  0  0  0  0  0  0  0  0  0  0  0
   -5.2000   15.9120  -33.4300 C   0  0  0  0  0  0  0  0  0  0  0  0
   -3.7060   17.5010  -34.7200 C   0  0  0  0  0  0  0  0  0  0  0  0
   -2.7640   18.3150  -33.8270 C   0  0  0  0  0  0  0  0  0  0  0  0
   -2.9250   19.7020  -34.0620 O   0  0  0  0  0  0  0  0  0  0  0  0
   -1.6700   20.3470  -34.0970 C   0  0  0  0  0  0  0  0  0  0  0  0
   -5.8450   20.6050  -31.9020 C   0  0  0  0  0  0  0  0  0  0  0  0
   -6.0380   21.9460  -31.5460 C   0  0  0  0  0  0  0  0  0  0  0  0
   -3.6772   23.3321  -26.8920 H   0  0  0  0  0  0  0  0  0  0  0  0
   -3.5602   24.5859  -28.1730 H   0  0  0  0  0  0  0  0  0  0  0  0
   -4.9329   23.4272  -28.1730 H   0  0  0  0  0  0  0  0  0  0  0  0
   -2.0559   22.4593  -28.3763 H   0  0  0  0  0  0  0  0  0  0  0  0
   -3.5689   21.6237  -28.8658 H   0  0  0  0  0  0  0  0  0  0  0  0
   -3.0720   25.2900  -30.3140 H   0  0  0  0  0  0  0  0  0  0  0  0
   -7.9601   24.5778  -31.1062 H   0  0  0  0  0  0  0  0  0  0  0  0
   -9.4256   22.2373  -31.8409 H   0  0  0  0  0  0  0  0  0  0  0  0
   -9.1512   19.8117  -32.4498 H   0  0  0  0  0  0  0  0  0  0  0  0
   -6.3206   17.8455  -31.8040 H   0  0  0  0  0  0  0  0  0  0  0  0
   -7.8200   17.9571  -32.8059 H   0  0  0  0  0  0  0  0  0  0  0  0
   -5.1850   16.0013  -32.3337 H   0  0  0  0  0  0  0  0  0  0  0  0
   -6.1765   15.5217  -33.7527 H   0  0  0  0  0  0  0  0  0  0  0  0
   -4.4051   15.2235  -33.7527 H   0  0  0  0  0  0  0  0  0  0  0  0
   -3.2245   16.5455  -34.9752 H   0  0  0  0  0  0  0  0  0  0  0  0
   -3.9154   18.0805  -35.6312 H   0  0  0  0  0  0  0  0  0  0  0  0
   -2.9899   18.0989  -32.7724 H   0  0  0  0  0  0  0  0  0  0  0  0
   -1.7261   18.0351  -34.0603 H   0  0  0  0  0  0  0  0  0  0  0  0
   -1.3211   20.5263  -33.0693 H   0  0  0  0  0  0  0  0  0  0  0  0
   -0.9449   19.7099  -34.6245 H   0  0  0  0  0  0  0  0  0  0  0  0
   -1.7660   21.3075  -34.6245 H   0  0  0  0  0  0  0  0  0  0  0  0
   -4.8368   20.1653  -31.9173 H   0  0  0  0  0  0  0  0  0  0  0  0
  1  2  1  0
  2  3  1  0
  3  4  1  0
  4  5  2  0
  4  6  1  0
  6  7  1  0
  7  8  1  0
  8  9  1  0
  8 10  2  0
  7 11  2  0
 11 12  1  0
 12 13  2  0
 13 14  1  0
 14 15  2  0
 15 16  1  0
 16 17  1  0
 17 18  2  0
 17 19  1  0
 19 20  1  0
 19 21  1  0
 21 22  1  0
 22 23  1  0
 23 24  1  0
 15 25  1  0
 25 26  2  0
 26  6  1  0
 26 12  1  0
  1 27  1  0
  1 28  1  0
  1 29  1  0
  2 30  1  0
  2 31  1  0
  9 32  1  0
 11 33  1  0
 13 34  1  0
 14 35  1  0
 16 36  1  0
 16 37  1  0
 20 38  1  0
 20 39  1  0
 20 40  1  0
 21 41  1  0
 21 42  1  0
 22 43  1  0
 22 44  1  0
 24 45  1  0
 24 46  1  0
 24 47  1  0
 25 48  1  0
M  CHG  1   9  -1
M  END
>  <UniqueID>  (22) 
22

>  <SMILES>  (22) 
CCOC(=O)n1c(C([NH-])=O)cc2ccc(CC(=O)N(C)CCOC)cc21

>  <Energy>  (22) 
79.16800897922987

>  <Genealogy>  (22) 
CCOC(=O)n1c(C([NH-])=O)cc2ccc(CC(=O)N(C)CCOC)cc21 (protonated)
CCOC(=O)n1c(C([NH-])=O)cc2ccc(CC(=O)N(C)CCOC)cc21 (3D coordinates assigned)
CCOC(=O)n1c(C([NH-])=O)cc2ccc(CC(=O)N(C)CCOC)cc21 (optimized conformer: 79.16800897922987 kcal/mol)

>  <smiles>  (22) 
CCOC(=O)n1c(C(N)=O)cc2ccc(CC(=O)N(C)CCOC)cc21

>  <score_type>  (22) 
oracle

>  <origin>  (22) 
adg

>  <m_score__min__energy>  (22) 
-9.7200000000000006

>  <m_primary>  (22) 
energy

$$$$
22:0
     RDKit          3D

 31 33  0  0  0  0  0  0  0  0999 V2000
   -1.6280   25.7170  -28.9700 N   0  0  0  0  0  0  0  0  0  0  0  0
   -1.2640   24.3390  -28.9800 C   0  0  0  0  0  0  0  0  0  0  0  0
   -0.4320   23.9150  -28.1360 O   0  0  0  0  0  0  0  0  0  0  0  0
   -1.8930   23.3940  -29.9270 C   0  0  0  0  0  0  0  0  0  0  0  0
   -1.2620   22.2420  -30.3900 C   0  0  0  0  0  0  0  0  0  0  0  0
   -2.2000   21.5990  -31.1640 C   0  0  0  0  0  0  0  0  0  0  0  0
   -2.1020   20.4120  -31.8850 C   0  0  0  0  0  0  0  0  0  0  0  0
   -3.2200   20.0010  -32.6290 C   0  0  0  0  0  0  0  0  0  0  0  0
   -4.4060   20.7750  -32.6380 C   0  0  0  0  0  0  0  0  0  0  0  0
   -5.5760   20.3510  -33.4800 C   0  0  0  0  0  0  0  0  0  0  0  0
   -6.8120   20.2880  -32.6420 C   0  0  0  0  0  0  0  0  0  0  0  0
   -7.5960   21.3630  -32.2580 C   0  0  0  0  0  0  0  0  0  0  0  0
   -8.5670   20.7700  -31.4830 C   0  0  0  0  0  0  0  0  0  0  0  0
   -9.5130   21.3690  -30.9070 O   0  0  0  0  0  0  0  0  0  0  0  0
   -8.3620   19.4460  -31.4170 N   0  0  0  0  0  0  0  0  0  0  0  0
   -7.3000   19.1830  -32.1190 O   0  0  0  0  0  0  0  0  0  0  0  0
   -4.4640   21.9800  -31.9050 C   0  0  0  0  0  0  0  0  0  0  0  0
   -3.3420   22.3580  -31.1570 C   0  0  0  0  0  0  0  0  0  0  0  0
   -3.1680   23.4670  -30.4040 N   0  0  0  0  0  0  0  0  0  0  0  0
   -4.1080   24.5410  -30.2380 C   0  0  0  0  0  0  0  0  0  0  0  0
   -3.8790   25.6700  -30.7460 O   0  0  0  0  0  0  0  0  0  0  0  0
   -5.2640   24.3530  -29.4920 O   0  0  0  0  0  0  0  0  0  0  0  0
   -2.6310   26.0070  -28.9680 H   0  0  0  0  0  0  0  0  0  0  0  0
   -0.2325   21.9157  -30.1812 H   0  0  0  0  0  0  0  0  0  0  0  0
   -1.1782   19.8150  -31.8723 H   0  0  0  0  0  0  0  0  0  0  0  0
   -3.1740   19.0685  -33.2106 H   0  0  0  0  0  0  0  0  0  0  0  0
   -5.7230   21.0782  -34.2921 H   0  0  0  0  0  0  0  0  0  0  0  0
   -5.3750   19.3556  -33.9028 H   0  0  0  0  0  0  0  0  0  0  0  0
   -7.4733   22.4268  -32.5098 H   0  0  0  0  0  0  0  0  0  0  0  0
   -8.9330   18.7410  -30.8990 H   0  0  0  0  0  0  0  0  0  0  0  0
   -5.3680   22.6065  -31.9209 H   0  0  0  0  0  0  0  0  0  0  0  0
  1  2  1  0
  2  3  2  0
  2  4  1  0
  4  5  2  0
  5  6  1  0
  6  7  2  0
  7  8  1  0
  8  9  2  0
  9 10  1  0
 10 11  1  0
 11 12  2  0
 12 13  1  0
 13 14  2  0
 13 15  1  0
 15 16  1  0
  9 17  1  0
 17 18  2  0
 18 19  1  0
 19 20  1  0
 20 21  2  0
 20 22  1  0
 19  4  1  0
 18  6  1  0
 16 11  1  0
  1 23  1  0
  5 24  1  0
  7 25  1  0
  8 26  1  0
 10 27  1  0
 10 28  1  0
 12 29  1  0
 15 30  1  0
 17 31  1  0
M  CHG  2   1  -1  22  -1
M  END
>  <UniqueID>  (23) 
23

>  <SMILES>  (23) 
[NH-]C(=O)c1cc2ccc(Cc3cc(=O)[nH]o3)cc2n1C(=O)[O-]

>  <Energy>  (23) 
103.96908136462636

>  <Genealogy>  (23) 
[NH-]C(=O)c1cc2ccc(Cc3cc(=O)[nH]o3)cc2n1C(=O)[O-] (protonated)
[NH-]C(=O)c1cc2ccc(Cc3cc(=O)[nH]o3)cc2n1C(=O)[O-] (3D coordinates assigned)
[NH-]C(=O)c1cc2ccc(Cc3cc(=O)[nH]o3)cc2n1C(=O)[O-] (optimized conformer: 103.96908136462636 kcal/mol)

>  <smiles>  (23) 
NC(=O)c1cc2ccc(Cc3cc(=O)[nH]o3)cc2n1C(=O)O

>  <score_type>  (23) 
oracle

>  <origin>  (23) 
adg

>  <m_score__min__energy>  (23) 
-11.33

>  <m_primary>  (23) 
energy

$$$$
23:0
     RDKit          3D

 36 38  0  0  0  0  0  0  0  0999 V2000
   -3.2920   14.4900  -34.3860 C   0  0  0  0  0  0  0  0  0  0  0  0
   -2.7420   15.7150  -35.6160 S   0  0  0  0  0  0  0  0  0  0  0  0
   -3.6200   17.0700  -34.8350 C   0  0  0  0  0  0  0  0  0  0  0  0
   -2.9130   18.0490  -34.1300 C   0  0  0  0  0  0  0  0  0  0  0  0
   -3.5960   19.1040  -33.5170 C   0  0  0  0  0  0  0  0  0  0  0  0
   -4.9990   19.1900  -33.6010 C   0  0  0  0  0  0  0  0  0  0  0  0
   -5.7260   20.3110  -32.9520 C   0  0  0  0  0  0  0  0  0  0  0  0
   -7.1450   20.3270  -32.9290 C   0  0  0  0  0  0  0  0  0  0  0  0
   -7.8420   21.3740  -32.3040 C   0  0  0  0  0  0  0  0  0  0  0  0
   -7.1000   22.3960  -31.7220 C   0  0  0  0  0  0  0  0  0  0  0  0
   -7.5210   23.5040  -31.0240 C   0  0  0  0  0  0  0  0  0  0  0  0
   -6.3560   24.1700  -30.6550 C   0  0  0  0  0  0  0  0  0  0  0  0
   -6.3510   25.4580  -29.9330 C   0  0  0  0  0  0  0  0  0  0  0  0
   -5.4900   26.5260  -30.3290 N   0  0  0  0  0  0  0  0  0  0  0  0
   -7.1620   25.6380  -28.9850 O   0  0  0  0  0  0  0  0  0  0  0  0
   -5.2550   23.4960  -31.0940 N   0  0  0  0  0  0  0  0  0  0  0  0
   -3.8770   23.8000  -30.8190 C   0  0  0  0  0  0  0  0  0  0  0  0
   -3.0050   22.8920  -30.8590 O   0  0  0  0  0  0  0  0  0  0  0  0
   -3.4890   25.0970  -30.5110 O   0  0  0  0  0  0  0  0  0  0  0  0
   -5.7290   22.4110  -31.7480 C   0  0  0  0  0  0  0  0  0  0  0  0
   -5.0090   21.3690  -32.3440 C   0  0  0  0  0  0  0  0  0  0  0  0
   -5.7000   18.1970  -34.3090 C   0  0  0  0  0  0  0  0  0  0  0  0
   -5.0140   17.1430  -34.9200 C   0  0  0  0  0  0  0  0  0  0  0  0
   -3.1158   14.8824  -33.3736 H   0  0  0  0  0  0  0  0  0  0  0  0
   -4.3656   14.2917  -34.5207 H   0  0  0  0  0  0  0  0  0  0  0  0
   -2.7269   13.5559  -34.5207 H   0  0  0  0  0  0  0  0  0  0  0  0
   -1.8170   17.9891  -34.0575 H   0  0  0  0  0  0  0  0  0  0  0  0
   -3.0336   19.8718  -32.9655 H   0  0  0  0  0  0  0  0  0  0  0  0
   -7.7055   19.5097  -33.4063 H   0  0  0  0  0  0  0  0  0  0  0  0
   -8.9416   21.3852  -32.2757 H   0  0  0  0  0  0  0  0  0  0  0  0
   -8.5573   23.8004  -30.8043 H   0  0  0  0  0  0  0  0  0  0  0  0
   -4.9320   26.4700  -31.2090 H   0  0  0  0  0  0  0  0  0  0  0  0
   -5.4720   27.4150  -29.7820 H   0  0  0  0  0  0  0  0  0  0  0  0
   -3.9090   21.3724  -32.3399 H   0  0  0  0  0  0  0  0  0  0  0  0
   -6.7963   18.2501  -34.3825 H   0  0  0  0  0  0  0  0  0  0  0  0
   -5.5718   16.3697  -35.4686 H   0  0  0  0  0  0  0  0  0  0  0  0
  1  2  1  0
  2  3  1  0
  3  4  2  0
  4  5  1  0
  5  6  2  0
  6  7  1  0
  7  8  2  0
  8  9  1  0
  9 10  2  0
 10 11  1  0
 11 12  2  0
 12 13  1  0
 13 14  1  0
 13 15  2  0
 12 16  1  0
 16 17  1  0
 17 18  2  0
 17 19  1  0
 16 20  1  0
 20 21  2  0
  6 22  1  0
 22 23  2  0
 23  3  1  0
 21  7  1  0
 20 10  1  0
  1 24  1  0
  1 25  1  0
  1 26  1  0
  4 27  1  0
  5 28  1  0
  8 29  1  0
  9 30  1  0
 11 31  1  0
 14 32  1  0
 14 33  1  0
 21 34  1  0
 22 35  1  0
 23 36  1  0
M  CHG  1  19  -1
M  END
>  <UniqueID>  (24) 
24

>  <SMILES>  (24) 
CSc1ccc(-c2ccc3cc(C(N)=O)n(C(=O)[O-])c3c2)cc1

>  <Energy>  (24) 
79.7849166081612

>  <Genealogy>  (24) 
CSc1ccc(-c2ccc3cc(C(N)=O)n(C(=O)[O-])c3c2)cc1 (protonated)
CSc1ccc(-c2ccc3cc(C(N)=O)n(C(=O)[O-])c3c2)cc1 (3D coordinates assigned)
CSc1ccc(-c2ccc3cc(C(N)=O)n(C(=O)[O-])c3c2)cc1 (optimized conformer: 79.7849166081612 kcal/mol)

>  <smiles>  (24) 
CSc1ccc(-c2ccc3cc(C(N)=O)n(C(=O)O)c3c2)cc1

>  <score_type>  (24) 
oracle

>  <origin>  (24) 
adg

>  <m_score__min__energy>  (24) 
-9.6699999999999999

>  <m_primary>  (24) 
energy

$$$$
24:0
     RDKit          3D

 30 31  0  0  0  0  0  0  0  0999 V2000
   -3.7900   23.2920  -28.1760 C   0  0  0  0  0  0  0  0  0  0  0  0
   -2.9990   22.4760  -29.1920 C   0  0  0  0  0  0  0  0  0  0  0  0
   -2.9860   23.1290  -30.4600 O   0  0  0  0  0  0  0  0  0  0  0  0
   -3.8350   22.7790  -31.5160 C   0  0  0  0  0  0  0  0  0  0  0  0
   -3.3720   22.2330  -32.5540 O   0  0  0  0  0  0  0  0  0  0  0  0
   -5.2450   23.0300  -31.4090 N   0  0  0  0  0  0  0  0  0  0  0  0
   -5.8590   24.1200  -30.8680 C   0  0  0  0  0  0  0  0  0  0  0  0
   -5.1920   25.3650  -30.4360 C   0  0  0  0  0  0  0  0  0  0  0  0
   -3.8660   25.6710  -30.8580 N   0  0  0  0  0  0  0  0  0  0  0  0
   -5.8200   26.1950  -29.7250 O   0  0  0  0  0  0  0  0  0  0  0  0
   -7.2410   23.9440  -30.8470 C   0  0  0  0  0  0  0  0  0  0  0  0
   -7.4590   22.7040  -31.4030 C   0  0  0  0  0  0  0  0  0  0  0  0
   -8.6500   22.0160  -31.6180 C   0  0  0  0  0  0  0  0  0  0  0  0
   -8.5760   20.7310  -32.1830 C   0  0  0  0  0  0  0  0  0  0  0  0
   -7.3220   20.1610  -32.5120 C   0  0  0  0  0  0  0  0  0  0  0  0
   -7.2590   18.8490  -33.0760 N   0  0  0  0  0  0  0  0  0  0  0  0
   -6.1350   20.8870  -32.2810 C   0  0  0  0  0  0  0  0  0  0  0  0
   -6.2390   22.1720  -31.7340 C   0  0  0  0  0  0  0  0  0  0  0  0
   -3.4992   22.9920  -27.1585 H   0  0  0  0  0  0  0  0  0  0  0  0
   -3.5759   24.3616  -28.3182 H   0  0  0  0  0  0  0  0  0  0  0  0
   -4.8657   23.1113  -28.3182 H   0  0  0  0  0  0  0  0  0  0  0  0
   -1.9651   22.3587  -28.8352 H   0  0  0  0  0  0  0  0  0  0  0  0
   -3.4766   21.4916  -29.3051 H   0  0  0  0  0  0  0  0  0  0  0  0
   -3.0380   25.2980  -30.3410 H   0  0  0  0  0  0  0  0  0  0  0  0
   -7.9971   24.6467  -30.4669 H   0  0  0  0  0  0  0  0  0  0  0  0
   -9.6192   22.4642  -31.3539 H   0  0  0  0  0  0  0  0  0  0  0  0
   -9.4994   20.1637  -32.3711 H   0  0  0  0  0  0  0  0  0  0  0  0
   -7.8800   18.5780  -33.8710 H   0  0  0  0  0  0  0  0  0  0  0  0
   -6.5920   18.1380  -32.7020 H   0  0  0  0  0  0  0  0  0  0  0  0
   -5.1530   20.4551  -32.5242 H   0  0  0  0  0  0  0  0  0  0  0  0
  1  2  1  0
  2  3  1  0
  3  4  1  0
  4  5  2  0
  4  6  1  0
  6  7  1  0
  7  8  1  0
  8  9  1  0
  8 10  2  0
  7 11  2  0
 11 12  1  0
 12 13  2  0
 13 14  1  0
 14 15  2  0
 15 16  1  0
 15 17  1  0
 17 18  2  0
 18  6  1  0
 18 12  1  0
  1 19  1  0
  1 20  1  0
  1 21  1  0
  2 22  1  0
  2 23  1  0
  9 24  1  0
 11 25  1  0
 13 26  1  0
 14 27  1  0
 16 28  1  0
 16 29  1  0
 17 30  1  0
M  CHG  1   9  -1
M  END
>  <UniqueID>  (25) 
25

>  <SMILES>  (25) 
CCOC(=O)n1c(C([NH-])=O)cc2ccc(N)cc21

>  <Energy>  (25) 
64.75503105840306

>  <Genealogy>  (25) 
CCOC(=O)n1c(C([NH-])=O)cc2ccc(N)cc21 (protonated)
CCOC(=O)n1c(C([NH-])=O)cc2ccc(N)cc21 (3D coordinates assigned)
CCOC(=O)n1c(C([NH-])=O)cc2ccc(N)cc21 (optimized conformer: 64.75503105840306 kcal/mol)

>  <smiles>  (25) 
CCOC(=O)n1c(C(N)=O)cc2ccc(N)cc21

>  <score_type>  (25) 
oracle

>  <origin>  (25) 
adg

>  <m_score__min__energy>  (25) 
-8.5299999999999994

>  <m_primary>  (25) 
energy

$$$$
25:0
     RDKit          3D

 33 34  0  0  0  0  0  0  0  0999 V2000
   -4.0430   17.8670  -33.8480 H   0  0  0  0  0  0  0  0  0  0  0  0
   -4.9340   17.5670  -34.3030 N   0  0  0  0  0  0  0  0  0  0  0  0
   -6.1970   17.9170  -33.7460 C   0  0  0  0  0  0  0  0  0  0  0  0
   -7.1700   17.1260  -33.8790 O   0  0  0  0  0  0  0  0  0  0  0  0
   -6.3750   19.1730  -32.9860 C   0  0  0  0  0  0  0  0  0  0  0  0
   -7.6200   19.7100  -32.6620 C   0  0  0  0  0  0  0  0  0  0  0  0
   -8.6087   19.3190  -32.9439 H   0  0  0  0  0  0  0  0  0  0  0  0
   -7.3490   20.8340  -31.9140 C   0  0  0  0  0  0  0  0  0  0  0  0
   -8.2160   21.7540  -31.3320 C   0  0  0  0  0  0  0  0  0  0  0  0
   -9.3065   21.6400  -31.4199 H   0  0  0  0  0  0  0  0  0  0  0  0
   -7.6540   22.8340  -30.6280 C   0  0  0  0  0  0  0  0  0  0  0  0
   -8.3119   23.5711  -30.1445 H   0  0  0  0  0  0  0  0  0  0  0  0
   -6.2470   22.9810  -30.5360 C   0  0  0  0  0  0  0  0  0  0  0  0
   -5.6570   24.1230  -29.7580 C   0  0  0  0  0  0  0  0  0  0  0  0
   -6.4125   24.9143  -29.6435 H   0  0  0  0  0  0  0  0  0  0  0  0
   -5.3425   23.7605  -28.7682 H   0  0  0  0  0  0  0  0  0  0  0  0
   -4.4690   24.6740  -30.4780 C   0  0  0  0  0  0  0  0  0  0  0  0
   -4.2390   25.9120  -30.4690 O   0  0  0  0  0  0  0  0  0  0  0  0
   -3.5860   23.8150  -31.1210 O   0  0  0  0  0  0  0  0  0  0  0  0
   -5.4000   22.0220  -31.1330 C   0  0  0  0  0  0  0  0  0  0  0  0
   -4.3061   22.1159  -31.0656 H   0  0  0  0  0  0  0  0  0  0  0  0
   -5.9870   20.9500  -31.8120 C   0  0  0  0  0  0  0  0  0  0  0  0
   -5.3750   19.9340  -32.4580 N   0  0  0  0  0  0  0  0  0  0  0  0
   -3.9590   19.7690  -32.6350 C   0  0  0  0  0  0  0  0  0  0  0  0
   -3.3650   18.8490  -32.0100 O   0  0  0  0  0  0  0  0  0  0  0  0
   -3.1860   20.6240  -33.5700 C   0  0  0  0  0  0  0  0  0  0  0  0
   -3.3600   22.0440  -33.5120 N   0  0  0  0  0  0  0  0  0  0  0  0
   -3.9870   22.4810  -32.8020 H   0  0  0  0  0  0  0  0  0  0  0  0
   -2.8460   22.6740  -34.1690 H   0  0  0  0  0  0  0  0  0  0  0  0
   -2.3700   20.1170  -34.4510 N   0  0  0  0  0  0  0  0  0  0  0  0
   -1.8330   20.7510  -35.0850 H   0  0  0  0  0  0  0  0  0  0  0  0
   -2.2230   18.7570  -34.6160 O   0  0  0  0  0  0  0  0  0  0  0  0
   -2.8200   18.1130  -34.1120 H   0  0  0  0  0  0  0  0  0  0  0  0
  1  2  1  0
  2  3  1  0
  3  4  2  0
  3  5  1  0
  5  6  2  0
  6  7  1  0
  6  8  1  0
  8  9  2  0
  9 10  1  0
  9 11  1  0
 11 12  1  0
 11 13  2  0
 13 14  1  0
 14 15  1  0
 14 16  1  0
 14 17  1  0
 17 18  2  0
 17 19  1  0
 13 20  1  0
 20 21  1  0
 20 22  2  0
 22 23  1  0
 23 24  1  0
 24 25  2  0
 24 26  1  0
 26 27  1  0
 27 28  1  0
 27 29  1  0
 26 30  2  0
 30 31  1  0
 30 32  1  0
 32 33  1  0
 23  5  1  0
 22  8  1  0
M  CHG  3   2  -1  19  -1  30   1
M  END
>  <UniqueID>  (26) 
26

>  <SMILES>  (26) 
[NH-]C(=O)c1cc2ccc(CC(=O)[O-])cc2n1C(=O)/C(N)=[NH+]\O

>  <Energy>  (26) 
71.25994670093463

>  <Genealogy>  (26) 
[NH-]C(=O)c1cc2ccc(CC(=O)[O-])cc2n1C(=O)C(N)=[NH+]O (protonated)
[NH-]C(=O)c1cc2ccc(CC(=O)[O-])cc2n1C(=O)/C(N)=[NH+]\O (cis-trans isomerization)
[NH-]C(=O)c1cc2ccc(CC(=O)[O-])cc2n1C(=O)/C(N)=[NH+]\O (3D coordinates assigned)
[NH-]C(=O)c1cc2ccc(CC(=O)[O-])cc2n1C(=O)/C(N)=[NH+]\O (optimized conformer: 71.25994670093463 kcal/mol)

>  <smiles>  (26) 
NC(=O)c1cc2ccc(CC(=O)O)cc2n1C(=O)C(N)=NO

>  <score_type>  (26) 
oracle

>  <origin>  (26) 
adg

>  <m_score__min__energy>  (26) 
-9.4299999999999997

>  <m_primary>  (26) 
energy

$$$$
26:0
     RDKit          3D

 35 38  0  0  0  0  0  0  0  0999 V2000
   -5.0680   23.5890  -29.4220 C   0  0  0  0  0  0  0  0  0  0  0  0
   -3.9030   23.9940  -30.2690 C   0  0  0  0  0  0  0  0  0  0  0  0
   -3.9160   25.1180  -30.8370 O   0  0  0  0  0  0  0  0  0  0  0  0
   -2.7470   23.1500  -30.3840 N   0  0  0  0  0  0  0  0  0  0  0  0
   -1.4890   23.3740  -29.9110 C   0  0  0  0  0  0  0  0  0  0  0  0
   -1.0780   24.5000  -29.0470 C   0  0  0  0  0  0  0  0  0  0  0  0
   -1.8900   25.6690  -28.9690 N   0  0  0  0  0  0  0  0  0  0  0  0
    0.0000   24.4530  -28.3980 O   0  0  0  0  0  0  0  0  0  0  0  0
   -0.6360   22.3380  -30.2860 C   0  0  0  0  0  0  0  0  0  0  0  0
   -1.4200   21.4600  -31.0010 C   0  0  0  0  0  0  0  0  0  0  0  0
   -1.0890   20.2550  -31.6130 C   0  0  0  0  0  0  0  0  0  0  0  0
   -2.1030   19.5650  -32.2980 C   0  0  0  0  0  0  0  0  0  0  0  0
   -3.4200   20.0900  -32.3670 C   0  0  0  0  0  0  0  0  0  0  0  0
   -4.4880   19.3600  -33.0930 C   0  0  0  0  0  0  0  0  0  0  0  0
   -4.1900   18.5670  -34.1730 N   0  0  0  0  0  0  0  0  0  0  0  0
   -5.1670   17.8800  -34.8470 C   0  0  0  0  0  0  0  0  0  0  0  0
   -6.4720   17.9620  -34.4540 N   0  0  0  0  0  0  0  0  0  0  0  0
   -6.7710   18.7420  -33.3890 C   0  0  0  0  0  0  0  0  0  0  0  0
   -7.9820   18.9200  -32.8460 N   0  0  0  0  0  0  0  0  0  0  0  0
   -7.7040   19.7510  -31.8060 C   0  0  0  0  0  0  0  0  0  0  0  0
   -6.3910   20.0840  -31.6830 N   0  0  0  0  0  0  0  0  0  0  0  0
   -5.8290   19.4310  -32.7110 C   0  0  0  0  0  0  0  0  0  0  0  0
   -3.7160   21.3140  -31.7260 C   0  0  0  0  0  0  0  0  0  0  0  0
   -2.6890   21.9720  -31.0420 C   0  0  0  0  0  0  0  0  0  0  0  0
   -4.7990   23.6825  -28.3595 H   0  0  0  0  0  0  0  0  0  0  0  0
   -5.9257   24.2417  -29.6419 H   0  0  0  0  0  0  0  0  0  0  0  0
   -5.3359   22.5450  -29.6419 H   0  0  0  0  0  0  0  0  0  0  0  0
   -2.8680   25.6680  -29.3330 H   0  0  0  0  0  0  0  0  0  0  0  0
    0.4360   22.2418  -30.0591 H   0  0  0  0  0  0  0  0  0  0  0  0
   -0.0655   19.8552  -31.5620 H   0  0  0  0  0  0  0  0  0  0  0  0
   -1.8737   18.6066  -32.7867 H   0  0  0  0  0  0  0  0  0  0  0  0
   -3.2050   18.4880  -34.5110 H   0  0  0  0  0  0  0  0  0  0  0  0
   -4.8967   17.2570  -35.7124 H   0  0  0  0  0  0  0  0  0  0  0  0
   -8.4785   20.1238  -31.1196 H   0  0  0  0  0  0  0  0  0  0  0  0
   -4.7299   21.7390  -31.7641 H   0  0  0  0  0  0  0  0  0  0  0  0
  1  2  1  0
  2  3  2  0
  2  4  1  0
  4  5  1  0
  5  6  1  0
  6  7  1  0
  6  8  2  0
  5  9  2  0
  9 10  1  0
 10 11  2  0
 11 12  1  0
 12 13  2  0
 13 14  1  0
 14 15  2  0
 15 16  1  0
 16 17  2  0
 17 18  1  0
 18 19  1  0
 19 20  2  0
 20 21  1  0
 21 22  1  0
 13 23  1  0
 23 24  2  0
 24  4  1  0
 24 10  1  0
 22 14  1  0
 22 18  2  0
  1 25  1  0
  1 26  1  0
  1 27  1  0
  7 28  1  0
  9 29  1  0
 11 30  1  0
 12 31  1  0
 15 32  1  0
 16 33  1  0
 20 34  1  0
 23 35  1  0
M  CHG  3   7  -1  15   1  21  -1
M  END
>  <UniqueID>  (27) 
27

>  <SMILES>  (27) 
CC(=O)n1c(C([NH-])=O)cc2ccc(-c3[nH+]cnc4nc[n-]c34)cc21

>  <Energy>  (27) 
121.14098592638423

>  <Genealogy>  (27) 
CC(=O)n1c(C([NH-])=O)cc2ccc(-c3[nH+]cnc4nc[n-]c34)cc21 (protonated)
CC(=O)n1c(C([NH-])=O)cc2ccc(-c3[nH+]cnc4nc[n-]c34)cc21 (3D coordinates assigned)
CC(=O)n1c(C([NH-])=O)cc2ccc(-c3[nH+]cnc4nc[n-]c34)cc21 (optimized conformer: 121.14098592638423 kcal/mol)

>  <smiles>  (27) 
CC(=O)n1c(C(N)=O)cc2ccc(-c3ncnc4nc[nH]c34)cc21

>  <score_type>  (27) 
oracle

>  <origin>  (27) 
adg

>  <m_score__min__energy>  (27) 
-10.279999999999999

>  <m_primary>  (27) 
energy

$$$$
27:0
     RDKit          3D

 46 48  0  0  0  0  0  0  0  0999 V2000
   -3.1200   21.5260  -29.1670 C   0  0  0  0  0  0  0  0  0  0  0  0
   -2.3760   22.4920  -30.0940 C   0  0  0  0  0  0  0  0  0  0  0  0
   -2.0190   23.7770  -29.3500 C   0  0  0  0  0  0  0  0  0  0  0  0
   -3.1890   22.8230  -31.2200 O   0  0  0  0  0  0  0  0  0  0  0  0
   -4.2180   22.0050  -31.7020 C   0  0  0  0  0  0  0  0  0  0  0  0
   -3.9550   21.0280  -32.4550 O   0  0  0  0  0  0  0  0  0  0  0  0
   -5.5810   22.2920  -31.3460 N   0  0  0  0  0  0  0  0  0  0  0  0
   -6.0630   23.4440  -30.8010 C   0  0  0  0  0  0  0  0  0  0  0  0
   -5.2490   24.5690  -30.2990 C   0  0  0  0  0  0  0  0  0  0  0  0
   -5.2230   24.8990  -28.9090 N   0  0  0  0  0  0  0  0  0  0  0  0
   -4.6110   25.2850  -31.1160 O   0  0  0  0  0  0  0  0  0  0  0  0
   -7.4520   23.4110  -30.7260 C   0  0  0  0  0  0  0  0  0  0  0  0
   -7.8130   22.1850  -31.2350 C   0  0  0  0  0  0  0  0  0  0  0  0
   -9.0750   21.6290  -31.4110 C   0  0  0  0  0  0  0  0  0  0  0  0
   -9.1590   20.3570  -32.0000 C   0  0  0  0  0  0  0  0  0  0  0  0
   -7.9880   19.6690  -32.4150 C   0  0  0  0  0  0  0  0  0  0  0  0
   -8.0510   18.3720  -33.0390 N   0  0  0  0  0  0  0  0  0  0  0  0
   -7.2650   17.2120  -32.6180 C   0  0  0  0  0  0  0  0  0  0  0  0
   -5.9370   17.1800  -33.3310 C   0  0  0  0  0  0  0  0  0  0  0  0
   -4.8640   16.4570  -32.7910 C   0  0  0  0  0  0  0  0  0  0  0  0
   -3.6420   16.4330  -33.4660 C   0  0  0  0  0  0  0  0  0  0  0  0
   -3.4990   17.0990  -34.6430 N   0  0  0  0  0  0  0  0  0  0  0  0
   -4.5250   17.8000  -35.1940 C   0  0  0  0  0  0  0  0  0  0  0  0
   -5.7650   17.8500  -34.5510 C   0  0  0  0  0  0  0  0  0  0  0  0
   -6.7240   20.2700  -32.2140 C   0  0  0  0  0  0  0  0  0  0  0  0
   -6.6680   21.5290  -31.6050 C   0  0  0  0  0  0  0  0  0  0  0  0
   -2.9151   21.7920  -28.1195 H   0  0  0  0  0  0  0  0  0  0  0  0
   -4.2012   21.5941  -29.3579 H   0  0  0  0  0  0  0  0  0  0  0  0
   -2.7780   20.4981  -29.3579 H   0  0  0  0  0  0  0  0  0  0  0  0
   -1.4552   21.9959  -30.4345 H   0  0  0  0  0  0  0  0  0  0  0  0
   -2.0685   23.5987  -28.2657 H   0  0  0  0  0  0  0  0  0  0  0  0
   -1.0003   24.0885  -29.6242 H   0  0  0  0  0  0  0  0  0  0  0  0
   -2.7310   24.5694  -29.6242 H   0  0  0  0  0  0  0  0  0  0  0  0
   -5.8690   24.4330  -28.2330 H   0  0  0  0  0  0  0  0  0  0  0  0
   -4.6080   25.6680  -28.5640 H   0  0  0  0  0  0  0  0  0  0  0  0
   -8.1188   24.1970  -30.3419 H   0  0  0  0  0  0  0  0  0  0  0  0
   -9.9807   22.1693  -31.0982 H   0  0  0  0  0  0  0  0  0  0  0  0
  -10.1438   19.8878  -32.1417 H   0  0  0  0  0  0  0  0  0  0  0  0
   -8.7360   18.2270  -33.8150 H   0  0  0  0  0  0  0  0  0  0  0  0
   -7.0910   17.2683  -31.5333 H   0  0  0  0  0  0  0  0  0  0  0  0
   -7.8227   16.2975  -32.8685 H   0  0  0  0  0  0  0  0  0  0  0  0
   -4.9840   15.9127  -31.8426 H   0  0  0  0  0  0  0  0  0  0  0  0
   -2.7932   15.8742  -33.0449 H   0  0  0  0  0  0  0  0  0  0  0  0
   -4.3792   18.3288  -36.1475 H   0  0  0  0  0  0  0  0  0  0  0  0
   -6.5993   18.4103  -34.9982 H   0  0  0  0  0  0  0  0  0  0  0  0
   -5.8030   19.7583  -32.5300 H   0  0  0  0  0  0  0  0  0  0  0  0
  1  2  1  0
  2  3  1  0
  2  4  1  0
  4  5  1  0
  5  6  2  0
  5  7  1  0
  7  8  1  0
  8  9  1  0
  9 10  1  0
  9 11  2  0
  8 12  2  0
 12 13  1  0
 13 14  2  0
 14 15  1  0
 15 16  2  0
 16 17  1  0
 17 18  1  0
 18 19  1  0
 19 20  2  0
 20 21  1  0
 21 22  2  0
 22 23  1  0
 23 24  2  0
 16 25  1  0
 25 26  2  0
 26  7  1  0
 26 13  1  0
 24 19  1  0
  1 27  1  0
  1 28  1  0
  1 29  1  0
  2 30  1  0
  3 31  1  0
  3 32  1  0
  3 33  1  0
 10 34  1  0
 10 35  1  0
 12 36  1  0
 14 37  1  0
 15 38  1  0
 17 39  1  0
 18 40  1  0
 18 41  1  0
 20 42  1  0
 21 43  1  0
 23 44  1  0
 24 45  1  0
 25 46  1  0
M  END
>  <UniqueID>  (28) 
28

>  <SMILES>  (28) 
CC(C)OC(=O)n1c(C(N)=O)cc2ccc(NCc3ccncc3)cc21

>  <Energy>  (28) 
81.09439187764966

>  <Genealogy>  (28) 
CC(C)OC(=O)n1c(C(N)=O)cc2ccc(NCc3ccncc3)cc21 (3D coordinates assigned)
CC(C)OC(=O)n1c(C(N)=O)cc2ccc(NCc3ccncc3)cc21 (optimized conformer: 81.09439187764966 kcal/mol)

>  <smiles>  (28) 
CC(C)OC(=O)n1c(C(N)=O)cc2ccc(NCc3ccncc3)cc21

>  <score_type>  (28) 
oracle

>  <origin>  (28) 
adg

>  <m_score__min__energy>  (28) 
-9.3300000000000001

>  <m_primary>  (28) 
energy

$$$$
28:0
     RDKit          3D

 32 33  0  0  0  0  0  0  0  0999 V2000
   -4.1330   23.1490  -27.9140 C   0  0  0  0  0  0  0  0  0  0  0  0
   -3.1050   22.4940  -28.8290 C   0  0  0  0  0  0  0  0  0  0  0  0
   -3.0820   23.1380  -30.1000 O   0  0  0  0  0  0  0  0  0  0  0  0
   -3.7550   22.6490  -31.2250 C   0  0  0  0  0  0  0  0  0  0  0  0
   -3.1080   22.1580  -32.1900 O   0  0  0  0  0  0  0  0  0  0  0  0
   -5.1900   22.7120  -31.2830 N   0  0  0  0  0  0  0  0  0  0  0  0
   -5.9900   23.7430  -30.8910 C   0  0  0  0  0  0  0  0  0  0  0  0
   -5.5320   25.0820  -30.4690 C   0  0  0  0  0  0  0  0  0  0  0  0
   -4.1800   25.4980  -30.6670 N   0  0  0  0  0  0  0  0  0  0  0  0
   -6.3610   25.8910  -29.9760 O   0  0  0  0  0  0  0  0  0  0  0  0
   -7.3330   23.3870  -30.9880 C   0  0  0  0  0  0  0  0  0  0  0  0
   -7.3330   22.0980  -31.4700 C   0  0  0  0  0  0  0  0  0  0  0  0
   -8.4000   21.2450  -31.7370 C   0  0  0  0  0  0  0  0  0  0  0  0
   -8.1070   19.9470  -32.1880 C   0  0  0  0  0  0  0  0  0  0  0  0
   -6.7650   19.5300  -32.3630 C   0  0  0  0  0  0  0  0  0  0  0  0
   -6.4650   18.1240  -32.7950 C   0  0  0  0  0  0  0  0  0  0  0  0
   -5.6670   18.1390  -34.5590 Br  0  0  0  0  0  0  0  0  0  0  0  0
   -5.7080   20.4180  -32.0670 C   0  0  0  0  0  0  0  0  0  0  0  0
   -6.0280   21.7120  -31.6400 C   0  0  0  0  0  0  0  0  0  0  0  0
   -3.8552   22.9720  -26.8645 H   0  0  0  0  0  0  0  0  0  0  0  0
   -4.1602   24.2313  -28.1086 H   0  0  0  0  0  0  0  0  0  0  0  0
   -5.1255   22.7164  -28.1086 H   0  0  0  0  0  0  0  0  0  0  0  0
   -2.1095   22.5701  -28.3672 H   0  0  0  0  0  0  0  0  0  0  0  0
   -3.3789   21.4382  -28.9714 H   0  0  0  0  0  0  0  0  0  0  0  0
   -3.5140   24.9220  -31.2270 H   0  0  0  0  0  0  0  0  0  0  0  0
   -3.8640   26.4320  -30.3240 H   0  0  0  0  0  0  0  0  0  0  0  0
   -8.2071   24.0044  -30.7336 H   0  0  0  0  0  0  0  0  0  0  0  0
   -9.4397   21.5766  -31.5993 H   0  0  0  0  0  0  0  0  0  0  0  0
   -8.9277   19.2481  -32.4072 H   0  0  0  0  0  0  0  0  0  0  0  0
   -5.7659   17.6636  -32.0814 H   0  0  0  0  0  0  0  0  0  0  0  0
   -7.3995   17.5445  -32.8230 H   0  0  0  0  0  0  0  0  0  0  0  0
   -4.6597   20.1010  -32.1694 H   0  0  0  0  0  0  0  0  0  0  0  0
  1  2  1  0
  2  3  1  0
  3  4  1  0
  4  5  2  0
  4  6  1  0
  6  7  1  0
  7  8  1  0
  8  9  1  0
  8 10  2  0
  7 11  2  0
 11 12  1  0
 12 13  2  0
 13 14  1  0
 14 15  2  0
 15 16  1  0
 16 17  1  0
 15 18  1  0
 18 19  2  0
 19  6  1  0
 19 12  1  0
  1 20  1  0
  1 21  1  0
  1 22  1  0
  2 23  1  0
  2 24  1  0
  9 25  1  0
  9 26  1  0
 11 27  1  0
 13 28  1  0
 14 29  1  0
 16 30  1  0
 16 31  1  0
 18 32  1  0
M  END
>  <UniqueID>  (29) 
29

>  <SMILES>  (29) 
CCOC(=O)n1c(C(N)=O)cc2ccc(CBr)cc21

>  <Energy>  (29) 
66.35895674437968

>  <Genealogy>  (29) 
CCOC(=O)n1c(C(N)=O)cc2ccc(CBr)cc21 (3D coordinates assigned)
CCOC(=O)n1c(C(N)=O)cc2ccc(CBr)cc21 (optimized conformer: 66.35895674437968 kcal/mol)

>  <smiles>  (29) 
CCOC(=O)n1c(C(N)=O)cc2ccc(CBr)cc21

>  <score_type>  (29) 
oracle

>  <origin>  (29) 
adg

>  <m_score__min__energy>  (29) 
-8.3399999999999999

>  <m_primary>  (29) 
energy

$$$$
29:0
     RDKit          3D

 76 81  0  0  0  0  0  0  0  0999 V2000
    0.5820   27.3070  -24.4400 C   0  0  0  0  0  0  0  0  0  0  0  0
   -0.7160   27.5800  -25.0740 N   0  0  0  0  0  0  0  0  0  0  0  0
   -1.7060   26.5090  -24.8390 C   0  0  0  0  0  0  0  0  0  0  0  0
   -1.4260   25.2430  -25.6660 C   0  0  0  0  0  0  0  0  0  0  0  0
   -1.2000   25.5860  -27.0720 N   0  0  0  0  0  0  0  0  0  0  0  0
   -1.4240   24.5720  -28.0630 C   0  0  0  0  0  0  0  0  0  0  0  0
   -0.4830   23.5570  -28.2440 C   0  0  0  0  0  0  0  0  0  0  0  0
   -0.6770   22.5680  -29.2130 C   0  0  0  0  0  0  0  0  0  0  0  0
   -1.8100   22.6240  -30.0460 C   0  0  0  0  0  0  0  0  0  0  0  0
   -1.9700   21.6680  -31.1010 N   0  0  0  0  0  0  0  0  0  0  0  0
   -0.8680   21.3550  -31.9670 C   0  0  0  0  0  0  0  0  0  0  0  0
    0.2510   21.9130  -31.7820 O   0  0  0  0  0  0  0  0  0  0  0  0
   -1.0210   20.4950  -33.1040 N   0  0  0  0  0  0  0  0  0  0  0  0
   -0.0740   20.3430  -34.0770 C   0  0  0  0  0  0  0  0  0  0  0  0
    0.9280   21.3630  -34.4460 C   0  0  0  0  0  0  0  0  0  0  0  0
    0.5190   22.5400  -35.1360 N   0  0  0  0  0  0  0  0  0  0  0  0
    2.1530   21.1130  -34.3030 O   0  0  0  0  0  0  0  0  0  0  0  0
   -0.3710   19.2430  -34.8720 C   0  0  0  0  0  0  0  0  0  0  0  0
   -1.5660   18.7580  -34.3970 C   0  0  0  0  0  0  0  0  0  0  0  0
   -2.3680   17.7270  -34.8920 C   0  0  0  0  0  0  0  0  0  0  0  0
   -3.6460   17.5450  -34.3270 C   0  0  0  0  0  0  0  0  0  0  0  0
   -4.1050   18.4030  -33.2900 C   0  0  0  0  0  0  0  0  0  0  0  0
   -5.5010   18.3930  -32.9060 N   0  0  0  0  0  0  0  0  0  0  0  0
   -6.5670   18.1170  -33.8410 C   0  0  0  0  0  0  0  0  0  0  0  0
   -7.6320   17.4320  -33.0160 C   0  0  0  0  0  0  0  0  0  0  0  0
   -7.4940   18.0250  -31.5970 C   0  0  2  0  0  0  0  0  0  0  0  0
   -8.2540   19.3000  -31.4080 N   0  0  0  0  0  0  0  0  0  0  0  0
   -9.1440   19.5580  -32.5720 C   0  0  0  0  0  0  0  0  0  0  0  0
   -9.9860   20.8160  -32.3310 C   0  0  0  0  0  0  0  0  0  0  0  0
   -9.1250   21.9910  -32.1670 N   0  0  0  0  0  0  0  0  0  0  0  0
   -8.1510   21.7560  -31.0870 C   0  0  0  0  0  0  0  0  0  0  0  0
   -7.3470   20.4750  -31.3240 C   0  0  0  0  0  0  0  0  0  0  0  0
   -5.9630   18.2350  -31.5290 C   0  0  0  0  0  0  0  0  0  0  0  0
   -3.2090   19.3520  -32.7300 C   0  0  0  0  0  0  0  0  0  0  0  0
   -1.9570   19.5380  -33.3350 C   0  0  0  0  0  0  0  0  0  0  0  0
   -2.7700   23.6340  -29.8540 C   0  0  0  0  0  0  0  0  0  0  0  0
   -2.5820   24.6000  -28.8640 C   0  0  0  0  0  0  0  0  0  0  0  0
   -0.2660   26.6740  -27.3700 C   0  0  0  0  0  0  0  0  0  0  0  0
   -0.5880   27.9090  -26.5130 C   0  0  0  0  0  0  0  0  0  0  0  0
    0.4681   27.3310  -23.3462 H   0  0  0  0  0  0  0  0  0  0  0  0
    0.9397   26.3140  -24.7497 H   0  0  0  0  0  0  0  0  0  0  0  0
    1.3094   28.0718  -24.7497 H   0  0  0  0  0  0  0  0  0  0  0  0
   -1.6879   26.2423  -23.7720 H   0  0  0  0  0  0  0  0  0  0  0  0
   -2.6888   26.8944  -25.1481 H   0  0  0  0  0  0  0  0  0  0  0  0
   -0.5316   24.7414  -25.2678 H   0  0  0  0  0  0  0  0  0  0  0  0
   -2.2977   24.5754  -25.5992 H   0  0  0  0  0  0  0  0  0  0  0  0
    0.4209   23.5350  -27.6175 H   0  0  0  0  0  0  0  0  0  0  0  0
    0.0514   21.7512  -29.3236 H   0  0  0  0  0  0  0  0  0  0  0  0
   -2.8760   21.1570  -31.1850 H   0  0  0  0  0  0  0  0  0  0  0  0
   -0.4650   22.6670  -35.4360 H   0  0  0  0  0  0  0  0  0  0  0  0
    0.2249   18.8442  -35.7061 H   0  0  0  0  0  0  0  0  0  0  0  0
   -2.0111   17.0740  -35.7020 H   0  0  0  0  0  0  0  0  0  0  0  0
   -4.2933   16.7334  -34.6907 H   0  0  0  0  0  0  0  0  0  0  0  0
   -6.9535   19.0507  -34.2755 H   0  0  0  0  0  0  0  0  0  0  0  0
   -6.2307   17.4967  -34.6849 H   0  0  0  0  0  0  0  0  0  0  0  0
   -8.6310   17.6421  -33.4257 H   0  0  0  0  0  0  0  0  0  0  0  0
   -7.5107   16.3387  -33.0167 H   0  0  0  0  0  0  0  0  0  0  0  0
   -7.9096   17.3856  -30.8042 H   0  0  0  0  0  0  0  0  0  0  0  0
   -8.5300   19.6998  -33.4736 H   0  0  0  0  0  0  0  0  0  0  0  0
   -9.8167   18.6979  -32.7049 H   0  0  0  0  0  0  0  0  0  0  0  0
  -10.6533   20.9743  -33.1910 H   0  0  0  0  0  0  0  0  0  0  0  0
  -10.5747   20.6774  -31.4122 H   0  0  0  0  0  0  0  0  0  0  0  0
   -9.7490   22.7760  -31.8480 H   0  0  0  0  0  0  0  0  0  0  0  0
   -7.4581   22.6090  -31.0391 H   0  0  0  0  0  0  0  0  0  0  0  0
   -8.7037   21.6462  -30.1423 H   0  0  0  0  0  0  0  0  0  0  0  0
   -6.7868   20.5681  -32.2661 H   0  0  0  0  0  0  0  0  0  0  0  0
   -6.6528   20.3296  -30.4832 H   0  0  0  0  0  0  0  0  0  0  0  0
   -5.7294   19.1371  -30.9446 H   0  0  0  0  0  0  0  0  0  0  0  0
   -5.4675   17.3834  -31.0399 H   0  0  0  0  0  0  0  0  0  0  0  0
   -3.4915   19.9306  -31.8382 H   0  0  0  0  0  0  0  0  0  0  0  0
   -3.6705   23.6627  -30.4851 H   0  0  0  0  0  0  0  0  0  0  0  0
   -3.3386   25.3834  -28.7095 H   0  0  0  0  0  0  0  0  0  0  0  0
    0.7596   26.3404  -27.1534 H   0  0  0  0  0  0  0  0  0  0  0  0
   -0.3604   26.9434  -28.4323 H   0  0  0  0  0  0  0  0  0  0  0  0
    0.2199   28.6452  -26.6366 H   0  0  0  0  0  0  0  0  0  0  0  0
   -1.5543   28.3103  -26.8526 H   0  0  0  0  0  0  0  0  0  0  0  0
  1  2  1  0
  2  3  1  0
  3  4  1  0
  4  5  1  0
  5  6  1  0
  6  7  2  0
  7  8  1  0
  8  9  2  0
  9 10  1  0
 10 11  1  0
 11 12  2  0
 11 13  1  0
 13 14  1  0
 14 15  1  0
 15 16  1  0
 15 17  2  0
 14 18  2  0
 18 19  1  0
 19 20  2  0
 20 21  1  0
 21 22  2  0
 22 23  1  0
 23 24  1  0
 24 25  1  0
 25 26  1  0
 26 27  1  0
 27 28  1  0
 28 29  1  0
 29 30  1  0
 30 31  1  0
 31 32  1  0
 26 33  1  0
 22 34  1  0
 34 35  2  0
  9 36  1  0
 36 37  2  0
  5 38  1  0
 38 39  1  0
 39  2  1  0
 37  6  1  0
 35 13  1  0
 35 19  1  0
 33 23  1  0
 32 27  1  0
  1 40  1  0
  1 41  1  0
  1 42  1  0
  3 43  1  0
  3 44  1  0
  4 45  1  0
  4 46  1  0
  7 47  1  0
  8 48  1  0
 10 49  1  0
 16 50  1  0
 18 51  1  0
 20 52  1  0
 21 53  1  0
 24 54  1  0
 24 55  1  0
 25 56  1  0
 25 57  1  0
 26 58  1  1
 28 59  1  0
 28 60  1  0
 29 61  1  0
 29 62  1  0
 30 63  1  0
 31 64  1  0
 31 65  1  0
 32 66  1  0
 32 67  1  0
 33 68  1  0
 33 69  1  0
 34 70  1  0
 36 71  1  0
 37 72  1  0
 38 73  1  0
 38 74  1  0
 39 75  1  0
 39 76  1  0
M  CHG  1  16  -1
M  END
>  <UniqueID>  (30) 
30

>  <SMILES>  (30) 
CN1CCN(c2ccc(NC(=O)n3c(C([NH-])=O)cc4ccc(N5CC[C@H](N6CCNCC6)C5)cc43)cc2)CC1

>  <Energy>  (30) 
160.22301425189306

>  <Genealogy>  (30) 
CN1CCN(c2ccc(NC(=O)n3c(C([NH-])=O)cc4ccc(N5CCC(N6CCNCC6)C5)cc43)cc2)CC1 (protonated)
CN1CCN(c2ccc(NC(=O)n3c(C([NH-])=O)cc4ccc(N5CC[C@H](N6CCNCC6)C5)cc43)cc2)CC1 (chirality)
CN1CCN(c2ccc(NC(=O)n3c(C([NH-])=O)cc4ccc(N5CC[C@H](N6CCNCC6)C5)cc43)cc2)CC1 (3D coordinates assigned)
CN1CCN(c2ccc(NC(=O)n3c(C([NH-])=O)cc4ccc(N5CC[C@H](N6CCNCC6)C5)cc43)cc2)CC1 (nonaromatic ring conformer: 160.22301425189306 kcal/mol)

>  <smiles>  (30) 
CN1CCN(c2ccc(NC(=O)n3c(C(N)=O)cc4ccc(N5CCC(N6CCNCC6)C5)cc43)cc2)CC1

>  <score_type>  (30) 
oracle

>  <origin>  (30) 
adg

>  <m_score__min__energy>  (30) 
-11.25

>  <m_primary>  (30) 
energy

$$$$
30:0
     RDKit          3D

 33 34  0  0  0  0  0  0  0  0999 V2000
   -6.3310   17.5080  -31.7090 C   0  0  0  0  0  0  0  0  0  0  0  0
   -6.8200   17.8280  -33.0050 O   0  0  0  0  0  0  0  0  0  0  0  0
   -6.2580   18.8350  -33.7950 C   0  0  0  0  0  0  0  0  0  0  0  0
   -5.7360   18.5560  -34.9100 O   0  0  0  0  0  0  0  0  0  0  0  0
   -6.3330   20.2630  -33.3230 C   0  0  1  0  0  0  0  0  0  0  0  0
   -7.5620   20.5120  -32.4390 C   0  0  0  0  0  0  0  0  0  0  0  0
   -5.0550   20.6560  -32.6100 C   0  0  0  0  0  0  0  0  0  0  0  0
   -3.9420   19.7760  -32.6200 C   0  0  0  0  0  0  0  0  0  0  0  0
   -2.7430   20.1270  -31.9790 C   0  0  0  0  0  0  0  0  0  0  0  0
   -2.6830   21.3570  -31.3330 C   0  0  0  0  0  0  0  0  0  0  0  0
   -1.6410   21.9530  -30.6600 C   0  0  0  0  0  0  0  0  0  0  0  0
   -2.1340   23.1810  -30.2270 C   0  0  0  0  0  0  0  0  0  0  0  0
   -1.3630   24.1140  -29.3810 C   0  0  0  0  0  0  0  0  0  0  0  0
   -1.8750   25.4030  -29.0550 N   0  0  0  0  0  0  0  0  0  0  0  0
   -0.2580   23.7480  -28.8970 O   0  0  0  0  0  0  0  0  0  0  0  0
   -3.4290   23.3440  -30.6250 N   0  0  0  0  0  0  0  0  0  0  0  0
   -4.2580   24.5050  -30.4620 C   0  0  0  0  0  0  0  0  0  0  0  0
   -3.8620   25.6320  -30.8610 O   0  0  0  0  0  0  0  0  0  0  0  0
   -5.4940   24.4020  -29.8350 O   0  0  0  0  0  0  0  0  0  0  0  0
   -3.7500   22.2160  -31.2980 C   0  0  0  0  0  0  0  0  0  0  0  0
   -4.9510   21.9020  -31.9440 C   0  0  0  0  0  0  0  0  0  0  0  0
   -6.9960   17.9432  -30.9484 H   0  0  0  0  0  0  0  0  0  0  0  0
   -6.3011   16.4151  -31.5879 H   0  0  0  0  0  0  0  0  0  0  0  0
   -5.3175   17.9182  -31.5879 H   0  0  0  0  0  0  0  0  0  0  0  0
   -6.4447   20.9014  -34.2118 H   0  0  0  0  0  0  0  0  0  0  0  0
   -7.2701   20.4529  -31.3801 H   0  0  0  0  0  0  0  0  0  0  0  0
   -7.9702   21.5111  -32.6515 H   0  0  0  0  0  0  0  0  0  0  0  0
   -8.3269   19.7506  -32.6515 H   0  0  0  0  0  0  0  0  0  0  0  0
   -4.0193   18.8076  -33.1359 H   0  0  0  0  0  0  0  0  0  0  0  0
   -1.8768   19.4491  -31.9876 H   0  0  0  0  0  0  0  0  0  0  0  0
   -0.6321   21.5455  -30.4984 H   0  0  0  0  0  0  0  0  0  0  0  0
   -2.8540   25.6710  -29.3030 H   0  0  0  0  0  0  0  0  0  0  0  0
   -5.7954   22.6069  -31.9349 H   0  0  0  0  0  0  0  0  0  0  0  0
  1  2  1  0
  2  3  1  0
  3  4  2  0
  3  5  1  0
  5  6  1  0
  5  7  1  0
  7  8  2  0
  8  9  1  0
  9 10  2  0
 10 11  1  0
 11 12  2  0
 12 13  1  0
 13 14  1  0
 13 15  2  0
 12 16  1  0
 16 17  1  0
 17 18  2  0
 17 19  1  0
 16 20  1  0
 20 21  2  0
 21  7  1  0
 20 10  1  0
  1 22  1  0
  1 23  1  0
  1 24  1  0
  5 25  1  6
  6 26  1  0
  6 27  1  0
  6 28  1  0
  8 29  1  0
  9 30  1  0
 11 31  1  0
 14 32  1  0
 21 33  1  0
M  CHG  2  14  -1  19  -1
M  END
>  <UniqueID>  (31) 
31

>  <SMILES>  (31) 
COC(=O)[C@@H](C)c1ccc2cc(C([NH-])=O)n(C(=O)[O-])c2c1

>  <Energy>  (31) 
69.30478645840095

>  <Genealogy>  (31) 
COC(=O)C(C)c1ccc2cc(C([NH-])=O)n(C(=O)[O-])c2c1 (protonated)
COC(=O)[C@@H](C)c1ccc2cc(C([NH-])=O)n(C(=O)[O-])c2c1 (chirality)
COC(=O)[C@@H](C)c1ccc2cc(C([NH-])=O)n(C(=O)[O-])c2c1 (3D coordinates assigned)
COC(=O)[C@@H](C)c1ccc2cc(C([NH-])=O)n(C(=O)[O-])c2c1 (optimized conformer: 69.30478645840095 kcal/mol)

>  <smiles>  (31) 
COC(=O)C(C)c1ccc2cc(C(N)=O)n(C(=O)O)c2c1

>  <score_type>  (31) 
oracle

>  <origin>  (31) 
adg

>  <m_score__min__energy>  (31) 
-10.69

>  <m_primary>  (31) 
energy

$$$$
31:0
     RDKit          3D

 60 62  0  0  0  0  0  0  0  0999 V2000
    0.0170   20.3300  -32.3950 C   0  0  0  0  0  0  0  0  0  0  0  0
   -1.1120   19.2870  -32.5490 C   0  0  0  0  0  0  0  0  0  0  0  0
   -2.4070   19.8230  -33.0470 N   0  0  0  0  0  0  0  0  0  0  0  0
   -2.3630   21.2210  -33.5500 C   0  0  0  0  0  0  0  0  0  0  0  0
   -3.7220   21.9210  -33.4670 C   0  0  0  0  0  0  0  0  0  0  0  0
   -3.0940   18.8820  -33.9730 C   0  0  1  0  0  0  0  0  0  0  0  0
   -2.9660   17.4380  -33.4810 C   0  0  0  0  0  0  0  0  0  0  0  0
   -4.4760   19.2220  -34.1170 O   0  0  0  0  0  0  0  0  0  0  0  0
   -5.5370   18.3180  -33.9440 C   0  0  0  0  0  0  0  0  0  0  0  0
   -5.9240   17.5800  -34.8950 O   0  0  0  0  0  0  0  0  0  0  0  0
   -6.2500   18.2810  -32.6280 C   0  0  0  0  0  0  0  0  0  0  0  0
   -6.7130   19.6550  -32.2090 C   0  0  0  0  0  0  0  0  0  0  0  0
   -8.0450   20.0730  -32.4730 C   0  0  0  0  0  0  0  0  0  0  0  0
   -8.4700   21.3720  -32.1510 C   0  0  0  0  0  0  0  0  0  0  0  0
   -7.5510   22.2320  -31.5660 C   0  0  0  0  0  0  0  0  0  0  0  0
   -7.6720   23.5610  -31.2100 C   0  0  0  0  0  0  0  0  0  0  0  0
   -6.4120   23.9290  -30.7290 C   0  0  0  0  0  0  0  0  0  0  0  0
   -6.0580   25.2880  -30.2300 C   0  0  0  0  0  0  0  0  0  0  0  0
   -5.0170   26.0450  -30.8430 N   0  0  0  0  0  0  0  0  0  0  0  0
   -6.6640   25.7770  -29.2450 O   0  0  0  0  0  0  0  0  0  0  0  0
   -5.5630   22.8650  -30.7580 N   0  0  0  0  0  0  0  0  0  0  0  0
   -4.1560   22.8710  -30.4980 C   0  0  0  0  0  0  0  0  0  0  0  0
   -3.4110   23.7180  -31.0680 O   0  0  0  0  0  0  0  0  0  0  0  0
   -3.5810   21.8820  -29.6340 N   0  0  0  0  0  0  0  0  0  0  0  0
   -2.4550   21.0630  -30.0410 C   0  0  0  0  0  0  0  0  0  0  0  0
   -1.5640   20.9530  -28.8070 C   0  0  0  0  0  0  0  0  0  0  0  0
   -2.4710   21.2640  -27.6150 C   0  0  0  0  0  0  0  0  0  0  0  0
   -3.6920   21.9890  -28.1880 C   0  0  0  0  0  0  0  0  0  0  0  0
   -6.2640   21.8420  -31.2870 C   0  0  0  0  0  0  0  0  0  0  0  0
   -5.8110   20.5530  -31.5970 C   0  0  0  0  0  0  0  0  0  0  0  0
    0.2090   20.5074  -31.3265 H   0  0  0  0  0  0  0  0  0  0  0  0
    0.9324   19.9529  -32.8744 H   0  0  0  0  0  0  0  0  0  0  0  0
   -0.2865   21.2724  -32.8744 H   0  0  0  0  0  0  0  0  0  0  0  0
   -0.7690   18.5162  -33.2548 H   0  0  0  0  0  0  0  0  0  0  0  0
   -1.3104   18.9010  -31.5382 H   0  0  0  0  0  0  0  0  0  0  0  0
   -1.6373   21.7887  -32.9491 H   0  0  0  0  0  0  0  0  0  0  0  0
   -2.0722   21.1840  -34.6102 H   0  0  0  0  0  0  0  0  0  0  0  0
   -3.9975   22.0629  -32.4116 H   0  0  0  0  0  0  0  0  0  0  0  0
   -3.6612   22.9000  -33.9649 H   0  0  0  0  0  0  0  0  0  0  0  0
   -4.4837   21.3031  -33.9649 H   0  0  0  0  0  0  0  0  0  0  0  0
   -2.6041   18.9673  -34.9542 H   0  0  0  0  0  0  0  0  0  0  0  0
   -2.9648   17.4241  -32.3811 H   0  0  0  0  0  0  0  0  0  0  0  0
   -3.8153   16.8468  -33.8542 H   0  0  0  0  0  0  0  0  0  0  0  0
   -2.0260   17.0054  -33.8542 H   0  0  0  0  0  0  0  0  0  0  0  0
   -7.1251   17.6202  -32.7144 H   0  0  0  0  0  0  0  0  0  0  0  0
   -5.5493   17.9068  -31.8671 H   0  0  0  0  0  0  0  0  0  0  0  0
   -8.7528   19.3696  -32.9358 H   0  0  0  0  0  0  0  0  0  0  0  0
   -9.5003   21.6982  -32.3562 H   0  0  0  0  0  0  0  0  0  0  0  0
   -8.5680   24.1943  -31.2882 H   0  0  0  0  0  0  0  0  0  0  0  0
   -4.3530   25.6060  -31.5210 H   0  0  0  0  0  0  0  0  0  0  0  0
   -4.9000   27.0590  -30.6280 H   0  0  0  0  0  0  0  0  0  0  0  0
   -2.7985   20.0670  -30.3573 H   0  0  0  0  0  0  0  0  0  0  0  0
   -1.9179   21.5026  -30.8944 H   0  0  0  0  0  0  0  0  0  0  0  0
   -1.1515   19.9369  -28.7207 H   0  0  0  0  0  0  0  0  0  0  0  0
   -0.7096   21.6439  -28.8592 H   0  0  0  0  0  0  0  0  0  0  0  0
   -2.7790   20.3330  -27.1165 H   0  0  0  0  0  0  0  0  0  0  0  0
   -1.9527   21.8805  -26.8658 H   0  0  0  0  0  0  0  0  0  0  0  0
   -4.6190   21.5101  -27.8395 H   0  0  0  0  0  0  0  0  0  0  0  0
   -3.7252   23.0395  -27.8636 H   0  0  0  0  0  0  0  0  0  0  0  0
   -4.7789   20.2481  -31.3695 H   0  0  0  0  0  0  0  0  0  0  0  0
  1  2  1  0
  2  3  1  0
  3  4  1  0
  4  5  1  0
  3  6  1  0
  6  7  1  0
  6  8  1  0
  8  9  1  0
  9 10  2  0
  9 11  1  0
 11 12  1  0
 12 13  2  0
 13 14  1  0
 14 15  2  0
 15 16  1  0
 16 17  2  0
 17 18  1  0
 18 19  1  0
 18 20  2  0
 17 21  1  0
 21 22  1  0
 22 23  2  0
 22 24  1  0
 24 25  1  0
 25 26  1  0
 26 27  1  0
 27 28  1  0
 21 29  1  0
 29 30  2  0
 30 12  1  0
 29 15  1  0
 28 24  1  0
  1 31  1  0
  1 32  1  0
  1 33  1  0
  2 34  1  0
  2 35  1  0
  4 36  1  0
  4 37  1  0
  5 38  1  0
  5 39  1  0
  5 40  1  0
  6 41  1  6
  7 42  1  0
  7 43  1  0
  7 44  1  0
 11 45  1  0
 11 46  1  0
 13 47  1  0
 14 48  1  0
 16 49  1  0
 19 50  1  0
 19 51  1  0
 25 52  1  0
 25 53  1  0
 26 54  1  0
 26 55  1  0
 27 56  1  0
 27 57  1  0
 28 58  1  0
 28 59  1  0
 30 60  1  0
M  END
>  <UniqueID>  (32) 
32

>  <SMILES>  (32) 
CCN(CC)[C@@H](C)OC(=O)Cc1ccc2cc(C(N)=O)n(C(=O)N3CCCC3)c2c1

>  <Energy>  (32) 
112.72662957379418

>  <Genealogy>  (32) 
CCN(CC)[C@@H](C)OC(=O)Cc1ccc2cc(C(N)=O)n(C(=O)N3CCCC3)c2c1 (chirality)
CCN(CC)[C@@H](C)OC(=O)Cc1ccc2cc(C(N)=O)n(C(=O)N3CCCC3)c2c1 (3D coordinates assigned)
CCN(CC)[C@@H](C)OC(=O)Cc1ccc2cc(C(N)=O)n(C(=O)N3CCCC3)c2c1 (nonaromatic ring conformer: 112.72662957379418 kcal/mol)

>  <smiles>  (32) 
CCN(CC)C(C)OC(=O)Cc1ccc2cc(C(N)=O)n(C(=O)N3CCCC3)c2c1

>  <score_type>  (32) 
oracle

>  <origin>  (32) 
adg

>  <m_score__min__energy>  (32) 
-9.1899999999999995

>  <m_primary>  (32) 
energy

$$$$
32:0
     RDKit          3D

 34 36  0  0  0  0  0  0  0  0999 V2000
   -4.0630   13.8910  -34.9540 N   0  0  0  0  0  0  0  0  0  0  0  0
   -5.3660   14.3060  -34.5460 C   0  0  0  0  0  0  0  0  0  0  0  0
   -6.3200   13.4840  -34.5970 O   0  0  0  0  0  0  0  0  0  0  0  0
   -5.6040   15.6590  -34.0030 C   0  0  0  0  0  0  0  0  0  0  0  0
   -6.8750   16.1730  -33.7640 C   0  0  0  0  0  0  0  0  0  0  0  0
   -6.6640   17.4140  -33.2090 C   0  0  0  0  0  0  0  0  0  0  0  0
   -7.5830   18.3710  -32.7890 C   0  0  0  0  0  0  0  0  0  0  0  0
   -7.0870   19.5850  -32.2890 C   0  0  0  0  0  0  0  0  0  0  0  0
   -5.6900   19.8300  -32.2250 C   0  0  0  0  0  0  0  0  0  0  0  0
   -5.1790   21.1240  -31.7070 C   0  0  0  0  0  0  0  0  0  0  0  0
   -3.8030   21.3900  -31.6860 C   0  0  0  0  0  0  0  0  0  0  0  0
   -3.3230   22.6080  -31.2010 C   0  0  0  0  0  0  0  0  0  0  0  0
   -4.2050   23.5970  -30.7260 C   0  0  0  0  0  0  0  0  0  0  0  0
   -3.6420   24.8820  -30.2370 C   0  0  0  0  0  0  0  0  0  0  0  0
   -4.2430   25.9650  -30.4700 O   0  0  0  0  0  0  0  0  0  0  0  0
   -2.4730   24.9200  -29.4890 O   0  0  0  0  0  0  0  0  0  0  0  0
   -5.5950   23.3250  -30.7350 C   0  0  0  0  0  0  0  0  0  0  0  0
   -6.7930   24.4450  -30.0930 Cl  0  0  0  0  0  0  0  0  0  0  0  0
   -6.0660   22.1000  -31.2250 C   0  0  0  0  0  0  0  0  0  0  0  0
   -4.7890   18.8290  -32.6640 C   0  0  0  0  0  0  0  0  0  0  0  0
   -5.3100   17.6200  -33.1380 C   0  0  0  0  0  0  0  0  0  0  0  0
   -4.6430   16.5480  -33.6240 N   0  0  0  0  0  0  0  0  0  0  0  0
   -3.2230   16.4340  -33.8170 C   0  0  0  0  0  0  0  0  0  0  0  0
   -2.6420   17.1240  -34.6950 O   0  0  0  0  0  0  0  0  0  0  0  0
   -2.4750   15.5620  -33.0350 O   0  0  0  0  0  0  0  0  0  0  0  0
   -3.9210   12.9440  -35.3720 H   0  0  0  0  0  0  0  0  0  0  0  0
   -3.2240   14.4840  -34.7660 H   0  0  0  0  0  0  0  0  0  0  0  0
   -7.8410   15.6905  -33.9738 H   0  0  0  0  0  0  0  0  0  0  0  0
   -8.6650   18.1817  -32.8471 H   0  0  0  0  0  0  0  0  0  0  0  0
   -7.7899   20.3568  -31.9422 H   0  0  0  0  0  0  0  0  0  0  0  0
   -3.0954   20.6328  -32.0547 H   0  0  0  0  0  0  0  0  0  0  0  0
   -2.2395   22.7977  -31.1899 H   0  0  0  0  0  0  0  0  0  0  0  0
   -7.1476   21.8996  -31.2323 H   0  0  0  0  0  0  0  0  0  0  0  0
   -3.7026   18.9986  -32.6329 H   0  0  0  0  0  0  0  0  0  0  0  0
  1  2  1  0
  2  3  2  0
  2  4  1  0
  4  5  2  0
  5  6  1  0
  6  7  2  0
  7  8  1  0
  8  9  2  0
  9 10  1  0
 10 11  2  0
 11 12  1  0
 12 13  2  0
 13 14  1  0
 14 15  2  0
 14 16  1  0
 13 17  1  0
 17 18  1  0
 17 19  2  0
  9 20  1  0
 20 21  2  0
 21 22  1  0
 22 23  1  0
 23 24  2  0
 23 25  1  0
 22  4  1  0
 21  6  1  0
 19 10  1  0
  1 26  1  0
  1 27  1  0
  5 28  1  0
  7 29  1  0
  8 30  1  0
 11 31  1  0
 12 32  1  0
 19 33  1  0
 20 34  1  0
M  CHG  2  16  -1  25  -1
M  END
>  <UniqueID>  (33) 
33

>  <SMILES>  (33) 
NC(=O)c1cc2ccc(-c3ccc(C(=O)[O-])c(Cl)c3)cc2n1C(=O)[O-]

>  <Energy>  (33) 
87.02968252659768

>  <Genealogy>  (33) 
NC(=O)c1cc2ccc(-c3ccc(C(=O)[O-])c(Cl)c3)cc2n1C(=O)[O-] (protonated)
NC(=O)c1cc2ccc(-c3ccc(C(=O)[O-])c(Cl)c3)cc2n1C(=O)[O-] (3D coordinates assigned)
NC(=O)c1cc2ccc(-c3ccc(C(=O)[O-])c(Cl)c3)cc2n1C(=O)[O-] (optimized conformer: 87.02968252659768 kcal/mol)

>  <smiles>  (33) 
NC(=O)c1cc2ccc(-c3ccc(C(=O)O)c(Cl)c3)cc2n1C(=O)O

>  <score_type>  (33) 
oracle

>  <origin>  (33) 
adg

>  <m_score__min__energy>  (33) 
-9.9399999999999995

>  <m_primary>  (33) 
energy

$$$$
33:0
     RDKit          3D

 31 33  0  0  0  0  0  0  0  0999 V2000
   -3.4370   18.6290  -34.5790 N   0  0  0  0  0  0  0  0  0  0  0  0
   -4.4300   18.1430  -34.2590 C   0  0  0  0  0  0  0  0  0  0  0  0
   -5.6530   17.5210  -33.8740 C   0  0  0  0  0  0  0  0  0  0  0  0
   -5.9850   16.2320  -34.1910 C   0  0  0  0  0  0  0  0  0  0  0  0
   -7.1940   16.0030  -33.6650 N   0  0  0  0  0  0  0  0  0  0  0  0
   -7.6000   17.0810  -33.0520 N   0  0  0  0  0  0  0  0  0  0  0  0
   -6.6780   18.0750  -33.1450 C   0  0  0  0  0  0  0  0  0  0  0  0
   -6.8340   19.3940  -32.5690 C   0  0  0  0  0  0  0  0  0  0  0  0
   -8.1240   19.8090  -32.2890 C   0  0  0  0  0  0  0  0  0  0  0  0
   -8.3890   21.0630  -31.7330 C   0  0  0  0  0  0  0  0  0  0  0  0
   -7.3170   21.8850  -31.4660 C   0  0  0  0  0  0  0  0  0  0  0  0
   -7.2550   23.1470  -30.9330 C   0  0  0  0  0  0  0  0  0  0  0  0
   -5.9180   23.5570  -30.8640 C   0  0  0  0  0  0  0  0  0  0  0  0
   -5.5440   24.8530  -30.3400 C   0  0  0  0  0  0  0  0  0  0  0  0
   -6.1160   25.3080  -29.1060 N   0  0  0  0  0  0  0  0  0  0  0  0
   -4.7400   25.6560  -30.8740 O   0  0  0  0  0  0  0  0  0  0  0  0
   -5.1940   22.5440  -31.3550 N   0  0  0  0  0  0  0  0  0  0  0  0
   -3.7870   22.5000  -31.4870 C   0  0  0  0  0  0  0  0  0  0  0  0
   -3.2050   21.4290  -31.8810 O   0  0  0  0  0  0  0  0  0  0  0  0
   -2.9220   23.5460  -31.2200 O   0  0  0  0  0  0  0  0  0  0  0  0
   -6.0140   21.5230  -31.7250 C   0  0  0  0  0  0  0  0  0  0  0  0
   -5.8260   20.2680  -32.2760 C   0  0  0  0  0  0  0  0  0  0  0  0
   -5.3753   15.5207  -34.7674 H   0  0  0  0  0  0  0  0  0  0  0  0
   -8.5420   17.1140  -32.5620 H   0  0  0  0  0  0  0  0  0  0  0  0
   -8.9634   19.1334  -32.5101 H   0  0  0  0  0  0  0  0  0  0  0  0
   -9.4189   21.3828  -31.5159 H   0  0  0  0  0  0  0  0  0  0  0  0
   -8.1206   23.7440  -30.6101 H   0  0  0  0  0  0  0  0  0  0  0  0
   -5.5760   25.9030  -28.4420 H   0  0  0  0  0  0  0  0  0  0  0  0
   -7.1100   25.0190  -28.8880 H   0  0  0  0  0  0  0  0  0  0  0  0
   -3.0810   24.4780  -31.5940 H   0  0  0  0  0  0  0  0  0  0  0  0
   -4.7948   19.9526  -32.4929 H   0  0  0  0  0  0  0  0  0  0  0  0
  1  2  3  0
  2  3  1  0
  3  4  1  0
  4  5  2  0
  5  6  1  0
  6  7  1  0
  7  8  1  0
  8  9  2  0
  9 10  1  0
 10 11  2  0
 11 12  1  0
 12 13  2  0
 13 14  1  0
 14 15  1  0
 14 16  2  0
 13 17  1  0
 17 18  1  0
 18 19  2  0
 18 20  1  0
 17 21  1  0
 21 22  2  0
  7  3  2  0
 22  8  1  0
 21 11  1  0
  4 23  1  0
  6 24  1  0
  9 25  1  0
 10 26  1  0
 12 27  1  0
 15 28  1  0
 15 29  1  0
 20 30  1  0
 22 31  1  0
M  END
>  <smiles>  (34) 
N#Cc1cn[nH]c1-c1ccc2cc(C(N)=O)n(C(=O)O)c2c1

>  <score_type>  (34) 
oracle

>  <origin>  (34) 
adg

>  <m_score__min__energy>  (34) 
-8.4900000000000002

>  <m_primary>  (34) 
energy

$$$$
34:0
     RDKit          3D

 55 56  0  0  0  0  0  0  0  0999 V2000
   -4.2030   24.2350  -27.2800 C   0  0  0  0  0  0  0  0  0  0  0  0
   -3.0830   24.9140  -27.0530 C   0  0  0  0  0  0  0  0  0  0  0  0
   -1.9080   24.8010  -27.9340 C   0  0  0  0  0  0  0  0  0  0  0  0
   -1.7990   25.6450  -28.8650 O   0  0  0  0  0  0  0  0  0  0  0  0
   -0.7430   23.8580  -27.6500 C   0  0  0  0  0  0  0  0  0  0  0  0
    0.5130   24.7540  -27.5270 C   0  0  0  0  0  0  0  0  0  0  0  0
   -0.8790   23.1200  -26.2940 C   0  0  0  0  0  0  0  0  0  0  0  0
   -0.4790   22.8580  -28.8360 C   0  0  0  0  0  0  0  0  0  0  0  0
   -1.3770   21.5930  -29.1160 C   0  0  0  0  0  0  0  0  0  0  0  0
   -0.9210   20.8150  -30.3690 C   0  0  0  0  0  0  0  0  0  0  0  0
   -1.4100   20.6330  -27.9050 C   0  0  0  0  0  0  0  0  0  0  0  0
   -2.8240   22.1280  -29.3520 C   0  0  0  0  0  0  0  0  0  0  0  0
   -2.9190   22.9420  -30.5240 O   0  0  0  0  0  0  0  0  0  0  0  0
   -3.8480   22.7350  -31.5520 C   0  0  0  0  0  0  0  0  0  0  0  0
   -3.4670   22.3430  -32.6900 O   0  0  0  0  0  0  0  0  0  0  0  0
   -5.2460   22.9230  -31.2930 N   0  0  0  0  0  0  0  0  0  0  0  0
   -5.8520   24.0090  -30.7340 C   0  0  0  0  0  0  0  0  0  0  0  0
   -5.2000   25.2970  -30.4180 C   0  0  0  0  0  0  0  0  0  0  0  0
   -3.8640   25.5410  -30.8520 N   0  0  0  0  0  0  0  0  0  0  0  0
   -5.7970   26.1710  -29.7360 O   0  0  0  0  0  0  0  0  0  0  0  0
   -7.2130   23.7700  -30.5550 C   0  0  0  0  0  0  0  0  0  0  0  0
   -7.4260   22.4950  -31.0280 C   0  0  0  0  0  0  0  0  0  0  0  0
   -8.5910   21.7340  -31.0590 C   0  0  0  0  0  0  0  0  0  0  0  0
   -8.5090   20.4240  -31.5590 C   0  0  0  0  0  0  0  0  0  0  0  0
   -7.2740   19.9010  -32.0260 C   0  0  0  0  0  0  0  0  0  0  0  0
   -7.1860   18.4720  -32.4990 C   0  0  0  0  0  0  0  0  0  0  0  0
   -8.4060   17.8320  -32.3470 F   0  0  0  0  0  0  0  0  0  0  0  0
   -6.2370   17.7740  -31.7700 F   0  0  0  0  0  0  0  0  0  0  0  0
   -6.8310   18.4560  -33.8360 F   0  0  0  0  0  0  0  0  0  0  0  0
   -6.1090   20.6980  -31.9540 C   0  0  0  0  0  0  0  0  0  0  0  0
   -6.2240   22.0060  -31.4680 C   0  0  0  0  0  0  0  0  0  0  0  0
   -5.0604   24.3451  -26.5997 H   0  0  0  0  0  0  0  0  0  0  0  0
   -4.2724   23.5631  -28.1481 H   0  0  0  0  0  0  0  0  0  0  0  0
   -3.0321   25.5812  -26.1799 H   0  0  0  0  0  0  0  0  0  0  0  0
    0.7435   24.9184  -26.4641 H   0  0  0  0  0  0  0  0  0  0  0  0
    1.3657   24.2590  -28.0148 H   0  0  0  0  0  0  0  0  0  0  0  0
    0.3225   25.7214  -28.0148 H   0  0  0  0  0  0  0  0  0  0  0  0
   -0.7467   23.8378  -25.4710 H   0  0  0  0  0  0  0  0  0  0  0  0
   -1.8767   22.6620  -26.2243 H   0  0  0  0  0  0  0  0  0  0  0  0
   -0.1101   22.3364  -26.2243 H   0  0  0  0  0  0  0  0  0  0  0  0
   -0.5146   23.4626  -29.7542 H   0  0  0  0  0  0  0  0  0  0  0  0
    0.4642   22.3891  -28.5190 H   0  0  0  0  0  0  0  0  0  0  0  0
   -0.3871   19.9040  -30.0608 H   0  0  0  0  0  0  0  0  0  0  0  0
   -1.8004   20.5392  -30.9695 H   0  0  0  0  0  0  0  0  0  0  0  0
   -0.2507   21.4475  -30.9695 H   0  0  0  0  0  0  0  0  0  0  0  0
   -1.3899   21.2173  -26.9732 H   0  0  0  0  0  0  0  0  0  0  0  0
   -2.3294   20.0301  -27.9400 H   0  0  0  0  0  0  0  0  0  0  0  0
   -0.5342   19.9684  -27.9400 H   0  0  0  0  0  0  0  0  0  0  0  0
   -3.5044   21.2706  -29.4611 H   0  0  0  0  0  0  0  0  0  0  0  0
   -3.0968   22.7510  -28.4875 H   0  0  0  0  0  0  0  0  0  0  0  0
   -3.0520   25.1140  -30.3530 H   0  0  0  0  0  0  0  0  0  0  0  0
   -7.9592   24.4552  -30.1264 H   0  0  0  0  0  0  0  0  0  0  0  0
   -9.5467   22.1459  -30.7028 H   0  0  0  0  0  0  0  0  0  0  0  0
   -9.4116   19.7960  -31.5892 H   0  0  0  0  0  0  0  0  0  0  0  0
   -5.1343   20.2998  -32.2725 H   0  0  0  0  0  0  0  0  0  0  0  0
  1  2  2  0
  2  3  1  0
  3  4  2  0
  3  5  1  0
  5  6  1  0
  5  7  1  0
  5  8  1  0
  8  9  1  0
  9 10  1  0
  9 11  1  0
  9 12  1  0
 12 13  1  0
 13 14  1  0
 14 15  2  0
 14 16  1  0
 16 17  1  0
 17 18  1  0
 18 19  1  0
 18 20  2  0
 17 21  2  0
 21 22  1  0
 22 23  2  0
 23 24  1  0
 24 25  2  0
 25 26  1  0
 26 27  1  0
 26 28  1  0
 26 29  1  0
 25 30  1  0
 30 31  2  0
 31 16  1  0
 31 22  1  0
  1 32  1  0
  1 33  1  0
  2 34  1  0
  6 35  1  0
  6 36  1  0
  6 37  1  0
  7 38  1  0
  7 39  1  0
  7 40  1  0
  8 41  1  0
  8 42  1  0
 10 43  1  0
 10 44  1  0
 10 45  1  0
 11 46  1  0
 11 47  1  0
 11 48  1  0
 12 49  1  0
 12 50  1  0
 19 51  1  0
 21 52  1  0
 23 53  1  0
 24 54  1  0
 30 55  1  0
M  CHG  1  19  -1
M  END
>  <UniqueID>  (35) 
34

>  <SMILES>  (35) 
C=CC(=O)C(C)(C)CC(C)(C)COC(=O)n1c(C([NH-])=O)cc2ccc(C(F)(F)F)cc21

>  <Energy>  (35) 
107.41448777716069

>  <Genealogy>  (35) 
C=CC(=O)C(C)(C)CC(C)(C)COC(=O)n1c(C([NH-])=O)cc2ccc(C(F)(F)F)cc21 (protonated)
C=CC(=O)C(C)(C)CC(C)(C)COC(=O)n1c(C([NH-])=O)cc2ccc(C(F)(F)F)cc21 (3D coordinates assigned)
C=CC(=O)C(C)(C)CC(C)(C)COC(=O)n1c(C([NH-])=O)cc2ccc(C(F)(F)F)cc21 (optimized conformer: 107.41448777716069 kcal/mol)

>  <smiles>  (35) 
C=CC(=O)C(C)(C)CC(C)(C)COC(=O)n1c(C(N)=O)cc2ccc(C(F)(F)F)cc21

>  <score_type>  (35) 
oracle

>  <origin>  (35) 
adg

>  <m_score__min__energy>  (35) 
-11.93

>  <m_primary>  (35) 
energy

$$$$
35:0
     RDKit          3D

 47 49  0  0  0  0  0  0  0  0999 V2000
   -3.1890   15.9230  -35.1290 C   0  0  0  0  0  0  0  0  0  0  0  0
   -4.4980   16.5400  -34.8610 N   0  0  0  0  0  0  0  0  0  0  0  0
   -4.3400   17.9960  -34.7100 C   0  0  0  0  0  0  0  0  0  0  0  0
   -5.7100   18.6670  -34.5890 C   0  0  0  0  0  0  0  0  0  0  0  0
   -6.5710   18.0750  -33.4530 C   0  0  0  0  0  0  0  0  0  0  0  0
   -6.4370   18.8210  -32.0990 C   0  0  0  0  0  0  0  0  0  0  0  0
   -5.9940   20.2250  -32.2180 N   0  0  0  0  0  0  0  0  0  0  0  0
   -6.9420   21.2330  -32.7160 C   0  0  0  0  0  0  0  0  0  0  0  0
   -4.7140   20.6750  -31.7090 C   0  0  0  0  0  0  0  0  0  0  0  0
   -3.5430   19.8780  -31.8460 C   0  0  0  0  0  0  0  0  0  0  0  0
   -2.2980   20.3410  -31.3910 C   0  0  0  0  0  0  0  0  0  0  0  0
   -2.2450   21.5910  -30.7880 C   0  0  0  0  0  0  0  0  0  0  0  0
   -1.1670   22.2920  -30.2990 C   0  0  0  0  0  0  0  0  0  0  0  0
   -1.6900   23.4940  -29.8270 C   0  0  0  0  0  0  0  0  0  0  0  0
   -0.8780   24.5200  -29.1410 C   0  0  0  0  0  0  0  0  0  0  0  0
   -1.3560   25.8530  -28.9870 N   0  0  0  0  0  0  0  0  0  0  0  0
    0.2330   24.2020  -28.6400 O   0  0  0  0  0  0  0  0  0  0  0  0
   -3.0390   23.5370  -30.0250 N   0  0  0  0  0  0  0  0  0  0  0  0
   -3.9340   24.6310  -29.7680 C   0  0  0  0  0  0  0  0  0  0  0  0
   -3.8820   25.6720  -30.4750 O   0  0  0  0  0  0  0  0  0  0  0  0
   -4.8820   24.5410  -28.7580 O   0  0  0  0  0  0  0  0  0  0  0  0
   -3.3620   22.3610  -30.6090 C   0  0  0  0  0  0  0  0  0  0  0  0
   -4.6140   21.9330  -31.0620 C   0  0  0  0  0  0  0  0  0  0  0  0
   -6.4760   16.5320  -33.3600 C   0  0  0  0  0  0  0  0  0  0  0  0
   -5.0760   15.9640  -33.6340 C   0  0  0  0  0  0  0  0  0  0  0  0
   -2.6921   15.6888  -34.1760 H   0  0  0  0  0  0  0  0  0  0  0  0
   -3.3312   14.9971  -35.7056 H   0  0  0  0  0  0  0  0  0  0  0  0
   -2.5654   16.6220  -35.7056 H   0  0  0  0  0  0  0  0  0  0  0  0
   -3.7516   18.2056  -33.8045 H   0  0  0  0  0  0  0  0  0  0  0  0
   -3.8224   18.3944  -35.5951 H   0  0  0  0  0  0  0  0  0  0  0  0
   -5.5597   19.7389  -34.3932 H   0  0  0  0  0  0  0  0  0  0  0  0
   -6.2464   18.4945  -35.5337 H   0  0  0  0  0  0  0  0  0  0  0  0
   -7.6138   18.2701  -33.7436 H   0  0  0  0  0  0  0  0  0  0  0  0
   -7.4181   18.8106  -31.6017 H   0  0  0  0  0  0  0  0  0  0  0  0
   -5.6604   18.2940  -31.5253 H   0  0  0  0  0  0  0  0  0  0  0  0
   -7.4190   21.7401  -31.8643 H   0  0  0  0  0  0  0  0  0  0  0  0
   -6.4038   21.9717  -33.3281 H   0  0  0  0  0  0  0  0  0  0  0  0
   -7.7123   20.7411  -33.3281 H   0  0  0  0  0  0  0  0  0  0  0  0
   -3.6142   18.8855  -32.3149 H   0  0  0  0  0  0  0  0  0  0  0  0
   -1.3903   19.7310  -31.5088 H   0  0  0  0  0  0  0  0  0  0  0  0
   -0.1149   21.9714  -30.2839 H   0  0  0  0  0  0  0  0  0  0  0  0
   -2.3790   26.0560  -28.9500 H   0  0  0  0  0  0  0  0  0  0  0  0
   -5.5056   22.5612  -30.9190 H   0  0  0  0  0  0  0  0  0  0  0  0
   -6.7775   16.2294  -32.3463 H   0  0  0  0  0  0  0  0  0  0  0  0
   -7.1362   16.1296  -34.1424 H   0  0  0  0  0  0  0  0  0  0  0  0
   -4.4201   16.2003  -32.7832 H   0  0  0  0  0  0  0  0  0  0  0  0
   -5.1617   14.8754  -33.7671 H   0  0  0  0  0  0  0  0  0  0  0  0
  1  2  1  0
  2  3  1  0
  3  4  1  0
  4  5  1  0
  5  6  1  0
  6  7  1  0
  7  8  1  0
  7  9  1  0
  9 10  2  0
 10 11  1  0
 11 12  2  0
 12 13  1  0
 13 14  2  0
 14 15  1  0
 15 16  1  0
 15 17  2  0
 14 18  1  0
 18 19  1  0
 19 20  2  0
 19 21  1  0
 18 22  1  0
 22 23  2  0
  5 24  1  0
 24 25  1  0
 25  2  1  0
 23  9  1  0
 22 12  1  0
  1 26  1  0
  1 27  1  0
  1 28  1  0
  3 29  1  0
  3 30  1  0
  4 31  1  0
  4 32  1  0
  5 33  1  0
  6 34  1  0
  6 35  1  0
  8 36  1  0
  8 37  1  0
  8 38  1  0
 10 39  1  0
 11 40  1  0
 13 41  1  0
 16 42  1  0
 23 43  1  0
 24 44  1  0
 24 45  1  0
 25 46  1  0
 25 47  1  0
M  CHG  2  16  -1  21  -1
M  END
>  <UniqueID>  (36) 
35

>  <SMILES>  (36) 
CN1CCC(CN(C)c2ccc3cc(C([NH-])=O)n(C(=O)[O-])c3c2)CC1

>  <Energy>  (36) 
91.62401013892428

>  <Genealogy>  (36) 
CN1CCC(CN(C)c2ccc3cc(C([NH-])=O)n(C(=O)[O-])c3c2)CC1 (protonated)
CN1CCC(CN(C)c2ccc3cc(C([NH-])=O)n(C(=O)[O-])c3c2)CC1 (3D coordinates assigned)
CN1CCC(CN(C)c2ccc3cc(C([NH-])=O)n(C(=O)[O-])c3c2)CC1 (nonaromatic ring conformer: 91.62401013892428 kcal/mol)

>  <smiles>  (36) 
CN1CCC(CN(C)c2ccc3cc(C(N)=O)n(C(=O)O)c3c2)CC1

>  <score_type>  (36) 
oracle

>  <origin>  (36) 
adg

>  <m_score__min__energy>  (36) 
-12.1

>  <m_primary>  (36) 
energy

$$$$
36:0
     RDKit          3D

 26 27  0  0  0  0  0  0  0  0999 V2000
   -1.6400   25.7010  -28.9670 N   0  0  0  0  0  0  0  0  0  0  0  0
   -1.1030   24.4000  -29.1980 C   0  0  0  0  0  0  0  0  0  0  0  0
   -0.0300   24.0670  -28.6290 O   0  0  0  0  0  0  0  0  0  0  0  0
   -1.8160   23.4230  -30.0450 C   0  0  0  0  0  0  0  0  0  0  0  0
   -1.2360   22.2440  -30.5080 C   0  0  0  0  0  0  0  0  0  0  0  0
   -2.2400   21.5770  -31.1690 C   0  0  0  0  0  0  0  0  0  0  0  0
   -2.2170   20.3520  -31.8290 C   0  0  0  0  0  0  0  0  0  0  0  0
   -3.4010   19.9140  -32.4470 C   0  0  0  0  0  0  0  0  0  0  0  0
   -4.5710   20.7120  -32.4100 C   0  0  0  0  0  0  0  0  0  0  0  0
   -5.8360   20.2230  -33.0580 C   0  0  0  0  0  0  0  0  0  0  0  0
   -5.6560   18.8200  -33.5430 C   0  0  0  0  0  0  0  0  0  0  0  0
   -5.8370   17.8510  -32.7590 O   0  0  0  0  0  0  0  0  0  0  0  0
   -5.3360   18.5800  -34.8720 O   0  0  0  0  0  0  0  0  0  0  0  0
   -4.5600   21.9450  -31.7210 C   0  0  0  0  0  0  0  0  0  0  0  0
   -3.3730   22.3470  -31.0980 C   0  0  0  0  0  0  0  0  0  0  0  0
   -3.1280   23.4870  -30.4130 N   0  0  0  0  0  0  0  0  0  0  0  0
   -4.0440   24.5760  -30.2120 C   0  0  0  0  0  0  0  0  0  0  0  0
   -3.8680   25.6730  -30.8020 O   0  0  0  0  0  0  0  0  0  0  0  0
   -5.1170   24.4370  -29.3400 O   0  0  0  0  0  0  0  0  0  0  0  0
   -2.6710   25.8650  -28.9760 H   0  0  0  0  0  0  0  0  0  0  0  0
   -0.1947   21.9161  -30.3732 H   0  0  0  0  0  0  0  0  0  0  0  0
   -1.3003   19.7451  -31.8659 H   0  0  0  0  0  0  0  0  0  0  0  0
   -3.4193   18.9432  -32.9639 H   0  0  0  0  0  0  0  0  0  0  0  0
   -6.6552   20.2521  -32.3245 H   0  0  0  0  0  0  0  0  0  0  0  0
   -6.0762   20.8715  -33.9134 H   0  0  0  0  0  0  0  0  0  0  0  0
   -5.4617   22.5734  -31.6752 H   0  0  0  0  0  0  0  0  0  0  0  0
  1  2  1  0
  2  3  2  0
  2  4  1  0
  4  5  2  0
  5  6  1  0
  6  7  2  0
  7  8  1  0
  8  9  2  0
  9 10  1  0
 10 11  1  0
 11 12  2  0
 11 13  1  0
  9 14  1  0
 14 15  2  0
 15 16  1  0
 16 17  1  0
 17 18  2  0
 17 19  1  0
 16  4  1  0
 15  6  1  0
  1 20  1  0
  5 21  1  0
  7 22  1  0
  8 23  1  0
 10 24  1  0
 10 25  1  0
 14 26  1  0
M  CHG  3   1  -1  13  -1  19  -1
M  END
>  <UniqueID>  (37) 
36

>  <SMILES>  (37) 
[NH-]C(=O)c1cc2ccc(CC(=O)[O-])cc2n1C(=O)[O-]

>  <Energy>  (37) 
64.85566556305012

>  <Genealogy>  (37) 
[NH-]C(=O)c1cc2ccc(CC(=O)[O-])cc2n1C(=O)[O-] (protonated)
[NH-]C(=O)c1cc2ccc(CC(=O)[O-])cc2n1C(=O)[O-] (3D coordinates assigned)
[NH-]C(=O)c1cc2ccc(CC(=O)[O-])cc2n1C(=O)[O-] (optimized conformer: 64.85566556305012 kcal/mol)

>  <smiles>  (37) 
NC(=O)c1cc2ccc(CC(=O)O)cc2n1C(=O)O

>  <score_type>  (37) 
oracle

>  <origin>  (37) 
adg

>  <m_score__min__energy>  (37) 
-9.8000000000000007

>  <m_primary>  (37) 
energy

$$$$
37:0
     RDKit          3D

 38 40  0  0  0  0  0  0  0  0999 V2000
   -2.4540   21.1000  -32.9340 C   0  0  0  0  0  0  0  0  0  0  0  0
   -3.5110   22.0300  -32.7250 O   0  0  0  0  0  0  0  0  0  0  0  0
   -4.0810   22.2530  -31.4680 C   0  0  0  0  0  0  0  0  0  0  0  0
   -3.4140   22.0340  -30.4210 O   0  0  0  0  0  0  0  0  0  0  0  0
   -5.4320   22.7370  -31.3740 N   0  0  0  0  0  0  0  0  0  0  0  0
   -5.8430   23.9450  -30.8980 C   0  0  0  0  0  0  0  0  0  0  0  0
   -4.9660   25.0780  -30.5390 C   0  0  0  0  0  0  0  0  0  0  0  0
   -3.6490   24.8610  -30.0320 N   0  0  0  0  0  0  0  0  0  0  0  0
   -5.3660   26.2560  -30.7350 O   0  0  0  0  0  0  0  0  0  0  0  0
   -7.2320   24.0030  -30.8330 C   0  0  0  0  0  0  0  0  0  0  0  0
   -7.6680   22.7860  -31.3020 C   0  0  0  0  0  0  0  0  0  0  0  0
   -8.9630   22.2910  -31.4350 C   0  0  0  0  0  0  0  0  0  0  0  0
   -9.1210   20.9780  -31.9040 C   0  0  0  0  0  0  0  0  0  0  0  0
   -7.9910   20.1850  -32.2280 C   0  0  0  0  0  0  0  0  0  0  0  0
   -8.1700   18.7560  -32.6690 C   0  0  0  0  0  0  0  0  0  0  0  0
   -6.9850   17.8840  -32.2410 C   0  0  0  0  0  0  0  0  0  0  0  0
   -5.9310   17.9040  -33.2520 N   0  0  0  0  0  0  0  0  0  0  0  0
   -6.0480   17.5660  -34.5460 C   0  0  0  0  0  0  0  0  0  0  0  0
   -4.8920   17.7690  -35.2070 N   0  0  0  0  0  0  0  0  0  0  0  0
   -4.0830   18.2510  -34.2380 C   0  0  0  0  0  0  0  0  0  0  0  0
   -4.7040   18.3440  -33.0450 N   0  0  0  0  0  0  0  0  0  0  0  0
   -6.6920   20.7180  -32.0720 C   0  0  0  0  0  0  0  0  0  0  0  0
   -6.5640   22.0370  -31.6220 C   0  0  0  0  0  0  0  0  0  0  0  0
   -2.0674   20.7598  -31.9620 H   0  0  0  0  0  0  0  0  0  0  0  0
   -2.8321   20.2364  -33.5008 H   0  0  0  0  0  0  0  0  0  0  0  0
   -1.6456   21.5850  -33.5008 H   0  0  0  0  0  0  0  0  0  0  0  0
   -3.0570   25.6730  -29.7450 H   0  0  0  0  0  0  0  0  0  0  0  0
   -3.2280   23.9060  -30.0130 H   0  0  0  0  0  0  0  0  0  0  0  0
   -7.8493   24.8429  -30.4815 H   0  0  0  0  0  0  0  0  0  0  0  0
   -9.8355   22.9106  -31.1801 H   0  0  0  0  0  0  0  0  0  0  0  0
  -10.1315   20.5597  -32.0215 H   0  0  0  0  0  0  0  0  0  0  0  0
   -9.0899   18.3553  -32.2182 H   0  0  0  0  0  0  0  0  0  0  0  0
   -8.2325   18.7388  -33.7671 H   0  0  0  0  0  0  0  0  0  0  0  0
   -6.5810   18.2661  -31.2919 H   0  0  0  0  0  0  0  0  0  0  0  0
   -7.3362   16.8486  -32.1200 H   0  0  0  0  0  0  0  0  0  0  0  0
   -6.9673   17.1746  -35.0061 H   0  0  0  0  0  0  0  0  0  0  0  0
   -3.0336   18.5360  -34.4042 H   0  0  0  0  0  0  0  0  0  0  0  0
   -5.8030   20.1112  -32.2987 H   0  0  0  0  0  0  0  0  0  0  0  0
  1  2  1  0
  2  3  1  0
  3  4  2  0
  3  5  1  0
  5  6  1  0
  6  7  1  0
  7  8  1  0
  7  9  2  0
  6 10  2  0
 10 11  1  0
 11 12  2  0
 12 13  1  0
 13 14  2  0
 14 15  1  0
 15 16  1  0
 16 17  1  0
 17 18  1  0
 18 19  2  0
 19 20  1  0
 20 21  2  0
 14 22  1  0
 22 23  2  0
 23  5  1  0
 23 11  1  0
 21 17  1  0
  1 24  1  0
  1 25  1  0
  1 26  1  0
  8 27  1  0
  8 28  1  0
 10 29  1  0
 12 30  1  0
 13 31  1  0
 15 32  1  0
 15 33  1  0
 16 34  1  0
 16 35  1  0
 18 36  1  0
 20 37  1  0
 22 38  1  0
M  END
>  <UniqueID>  (38) 
37

>  <SMILES>  (38) 
COC(=O)n1c(C(N)=O)cc2ccc(CCn3cncn3)cc21

>  <Energy>  (38) 
105.6702759851161

>  <Genealogy>  (38) 
COC(=O)n1c(C(N)=O)cc2ccc(CCn3cncn3)cc21 (3D coordinates assigned)
COC(=O)n1c(C(N)=O)cc2ccc(CCn3cncn3)cc21 (optimized conformer: 105.6702759851161 kcal/mol)

>  <smiles>  (38) 
COC(=O)n1c(C(N)=O)cc2ccc(CCn3cncn3)cc21

>  <score_type>  (38) 
oracle

>  <origin>  (38) 
adg

>  <m_score__min__energy>  (38) 
-8.3100000000000005

>  <m_primary>  (38) 
energy

$$$$
38:0
     RDKit          3D

 50 53  0  0  0  0  0  0  0  0999 V2000
   -5.2460   15.8090  -32.3680 C   0  0  0  0  0  0  0  0  0  0  0  0
   -5.3800   16.7950  -33.4860 C   0  0  0  0  0  0  0  0  0  0  0  0
   -4.5980   16.7610  -34.5860 N   0  0  0  0  0  0  0  0  0  0  0  0
   -5.0320   17.7930  -35.3360 C   0  0  0  0  0  0  0  0  0  0  0  0
   -6.0640   18.4320  -34.6880 C   0  0  0  0  0  0  0  0  0  0  0  0
   -6.2790   17.8040  -33.5190 N   0  0  0  0  0  0  0  0  0  0  0  0
   -7.3240   18.1300  -32.5480 C   0  0  0  0  0  0  0  0  0  0  0  0
   -7.3170   19.6060  -32.2560 C   0  0  0  0  0  0  0  0  0  0  0  0
   -8.5280   20.3420  -32.2930 C   0  0  0  0  0  0  0  0  0  0  0  0
   -8.5460   21.7070  -31.9630 C   0  0  0  0  0  0  0  0  0  0  0  0
   -7.3420   22.3070  -31.6030 C   0  0  0  0  0  0  0  0  0  0  0  0
   -7.0860   23.5900  -31.1720 C   0  0  0  0  0  0  0  0  0  0  0  0
   -5.7220   23.6190  -30.8940 C   0  0  0  0  0  0  0  0  0  0  0  0
   -5.0100   24.8250  -30.4210 C   0  0  0  0  0  0  0  0  0  0  0  0
   -3.5920   24.8300  -30.2520 N   0  0  0  0  0  0  0  0  0  0  0  0
   -5.6600   25.8840  -30.2140 O   0  0  0  0  0  0  0  0  0  0  0  0
   -5.1560   22.4050  -31.1390 N   0  0  0  0  0  0  0  0  0  0  0  0
   -3.8280   21.9800  -30.8020 C   0  0  0  0  0  0  0  0  0  0  0  0
   -3.1580   21.2970  -31.6250 O   0  0  0  0  0  0  0  0  0  0  0  0
   -3.2950   22.3100  -29.5520 O   0  0  0  0  0  0  0  0  0  0  0  0
   -2.0770   21.7700  -29.0370 C   0  0  0  0  0  0  0  0  0  0  0  0
   -1.1240   22.8910  -28.5930 C   0  0  2  0  0  0  0  0  0  0  0  0
   -0.9270   22.9470  -27.0780 C   0  0  0  0  0  0  0  0  0  0  0  0
   -1.6860   24.1720  -26.6670 C   0  0  0  0  0  0  0  0  0  0  0  0
   -1.7200   24.9930  -27.9370 C   0  0  0  0  0  0  0  0  0  0  0  0
   -1.6190   24.1340  -29.0480 O   0  0  0  0  0  0  0  0  0  0  0  0
   -6.1610   21.6130  -31.5740 C   0  0  0  0  0  0  0  0  0  0  0  0
   -6.1170   20.2490  -31.8850 C   0  0  0  0  0  0  0  0  0  0  0  0
   -5.3175   16.3351  -31.4046 H   0  0  0  0  0  0  0  0  0  0  0  0
   -6.0510   15.0627  -32.4389 H   0  0  0  0  0  0  0  0  0  0  0  0
   -4.2710   15.3046  -32.4389 H   0  0  0  0  0  0  0  0  0  0  0  0
   -4.6238   18.0805  -36.3161 H   0  0  0  0  0  0  0  0  0  0  0  0
   -6.6176   19.3059  -35.0620 H   0  0  0  0  0  0  0  0  0  0  0  0
   -8.3039   17.8451  -32.9588 H   0  0  0  0  0  0  0  0  0  0  0  0
   -7.1338   17.5779  -31.6158 H   0  0  0  0  0  0  0  0  0  0  0  0
   -9.4624   19.8392  -32.5829 H   0  0  0  0  0  0  0  0  0  0  0  0
   -9.4821   22.2842  -31.9881 H   0  0  0  0  0  0  0  0  0  0  0  0
   -7.8057   24.4156  -31.0693 H   0  0  0  0  0  0  0  0  0  0  0  0
   -3.1130   25.6800  -29.8800 H   0  0  0  0  0  0  0  0  0  0  0  0
   -3.0070   24.0300  -30.5770 H   0  0  0  0  0  0  0  0  0  0  0  0
   -2.3046   21.1278  -28.1734 H   0  0  0  0  0  0  0  0  0  0  0  0
   -1.5877   21.1871  -29.8312 H   0  0  0  0  0  0  0  0  0  0  0  0
   -0.1414   22.6729  -29.0368 H   0  0  0  0  0  0  0  0  0  0  0  0
   -1.3400   22.0491  -26.5951 H   0  0  0  0  0  0  0  0  0  0  0  0
    0.1331   22.9842  -26.7867 H   0  0  0  0  0  0  0  0  0  0  0  0
   -2.7027   23.9145  -26.3353 H   0  0  0  0  0  0  0  0  0  0  0  0
   -1.2269   24.7026  -25.8199 H   0  0  0  0  0  0  0  0  0  0  0  0
   -2.6664   25.5512  -27.9887 H   0  0  0  0  0  0  0  0  0  0  0  0
   -0.8787   25.7017  -27.9409 H   0  0  0  0  0  0  0  0  0  0  0  0
   -5.1697   19.6917  -31.8412 H   0  0  0  0  0  0  0  0  0  0  0  0
  1  2  1  0
  2  3  2  0
  3  4  1  0
  4  5  2  0
  5  6  1  0
  6  7  1  0
  7  8  1  0
  8  9  2  0
  9 10  1  0
 10 11  2  0
 11 12  1  0
 12 13  2  0
 13 14  1  0
 14 15  1  0
 14 16  2  0
 13 17  1  0
 17 18  1  0
 18 19  2  0
 18 20  1  0
 20 21  1  0
 21 22  1  0
 22 23  1  0
 23 24  1  0
 24 25  1  0
 25 26  1  0
 17 27  1  0
 27 28  2  0
  6  2  1  0
 28  8  1  0
 27 11  1  0
 26 22  1  0
  1 29  1  0
  1 30  1  0
  1 31  1  0
  4 32  1  0
  5 33  1  0
  7 34  1  0
  7 35  1  0
  9 36  1  0
 10 37  1  0
 12 38  1  0
 15 39  1  0
 15 40  1  0
 21 41  1  0
 21 42  1  0
 22 43  1  6
 23 44  1  0
 23 45  1  0
 24 46  1  0
 24 47  1  0
 25 48  1  0
 25 49  1  0
 28 50  1  0
M  END
>  <UniqueID>  (39) 
38

>  <SMILES>  (39) 
Cc1nccn1Cc1ccc2cc(C(N)=O)n(C(=O)OC[C@@H]3CCCO3)c2c1

>  <Energy>  (39) 
114.668731727363

>  <Genealogy>  (39) 
Cc1nccn1Cc1ccc2cc(C(N)=O)n(C(=O)OC[C@@H]3CCCO3)c2c1 (chirality)
Cc1nccn1Cc1ccc2cc(C(N)=O)n(C(=O)OC[C@@H]3CCCO3)c2c1 (3D coordinates assigned)
Cc1nccn1Cc1ccc2cc(C(N)=O)n(C(=O)OC[C@@H]3CCCO3)c2c1 (nonaromatic ring conformer: 114.668731727363 kcal/mol)

>  <smiles>  (39) 
Cc1nccn1Cc1ccc2cc(C(N)=O)n(C(=O)OCC3CCCO3)c2c1

>  <score_type>  (39) 
oracle

>  <origin>  (39) 
adg

>  <m_score__min__energy>  (39) 
-10.050000000000001

>  <m_primary>  (39) 
energy

$$$$
39:0
     RDKit          3D

 40 42  0  0  0  0  0  0  0  0999 V2000
   -1.9570   20.3690  -30.9960 C   0  0  0  0  0  0  0  0  0  0  0  0
   -1.7370   21.1050  -32.3120 C   0  0  0  0  0  0  0  0  0  0  0  0
   -2.6010   22.2360  -32.4050 O   0  0  0  0  0  0  0  0  0  0  0  0
   -3.3460   22.7280  -31.3280 C   0  0  0  0  0  0  0  0  0  0  0  0
   -2.7670   23.1490  -30.2900 O   0  0  0  0  0  0  0  0  0  0  0  0
   -4.7790   22.7800  -31.4190 N   0  0  0  0  0  0  0  0  0  0  0  0
   -5.6000   23.8300  -31.1350 C   0  0  0  0  0  0  0  0  0  0  0  0
   -5.1880   25.1190  -30.5390 C   0  0  0  0  0  0  0  0  0  0  0  0
   -3.9070   25.6630  -30.8450 N   0  0  0  0  0  0  0  0  0  0  0  0
   -5.9700   25.7630  -29.7910 O   0  0  0  0  0  0  0  0  0  0  0  0
   -6.9270   23.5000  -31.4060 C   0  0  0  0  0  0  0  0  0  0  0  0
   -6.8930   22.2020  -31.8620 C   0  0  0  0  0  0  0  0  0  0  0  0
   -7.9300   21.3770  -32.2860 C   0  0  0  0  0  0  0  0  0  0  0  0
   -7.6040   20.0850  -32.7300 C   0  0  0  0  0  0  0  0  0  0  0  0
   -6.2550   19.6420  -32.7480 C   0  0  0  0  0  0  0  0  0  0  0  0
   -5.9220   18.2820  -33.2370 C   0  0  0  0  0  0  0  0  0  0  0  0
   -6.8250   17.2240  -33.0370 C   0  0  0  0  0  0  0  0  0  0  0  0
   -6.5280   15.9400  -33.4980 C   0  0  0  0  0  0  0  0  0  0  0  0
   -5.3190   15.6840  -34.1680 C   0  0  0  0  0  0  0  0  0  0  0  0
   -5.0010   14.3250  -34.6570 C   0  0  0  0  0  0  0  0  0  0  0  0
   -5.7480   13.3510  -34.3760 O   0  0  0  0  0  0  0  0  0  0  0  0
   -3.8710   14.1040  -35.4380 O   0  0  0  0  0  0  0  0  0  0  0  0
   -4.4130   16.7400  -34.3620 C   0  0  0  0  0  0  0  0  0  0  0  0
   -4.7080   18.0270  -33.9020 C   0  0  0  0  0  0  0  0  0  0  0  0
   -3.7910   19.0120  -34.0770 F   0  0  0  0  0  0  0  0  0  0  0  0
   -5.2300   20.5150  -32.3140 C   0  0  0  0  0  0  0  0  0  0  0  0
   -5.5870   21.7890  -31.8580 C   0  0  0  0  0  0  0  0  0  0  0  0
   -1.7534   21.0500  -30.1565 H   0  0  0  0  0  0  0  0  0  0  0  0
   -2.9987   20.0200  -30.9407 H   0  0  0  0  0  0  0  0  0  0  0  0
   -1.2777   19.5056  -30.9407 H   0  0  0  0  0  0  0  0  0  0  0  0
   -0.6917   21.4431  -32.3668 H   0  0  0  0  0  0  0  0  0  0  0  0
   -1.9592   20.4196  -33.1432 H   0  0  0  0  0  0  0  0  0  0  0  0
   -3.0430   25.2870  -30.3960 H   0  0  0  0  0  0  0  0  0  0  0  0
   -7.8126   24.1406  -31.2818 H   0  0  0  0  0  0  0  0  0  0  0  0
   -8.9731   21.7259  -32.2739 H   0  0  0  0  0  0  0  0  0  0  0  0
   -8.4029   19.4085  -33.0677 H   0  0  0  0  0  0  0  0  0  0  0  0
   -7.7741   17.4090  -32.5127 H   0  0  0  0  0  0  0  0  0  0  0  0
   -7.2457   15.1223  -33.3357 H   0  0  0  0  0  0  0  0  0  0  0  0
   -3.4616   16.5524  -34.8812 H   0  0  0  0  0  0  0  0  0  0  0  0
   -4.1764   20.1996  -32.3345 H   0  0  0  0  0  0  0  0  0  0  0  0
  1  2  1  0
  2  3  1  0
  3  4  1  0
  4  5  2  0
  4  6  1  0
  6  7  1  0
  7  8  1  0
  8  9  1  0
  8 10  2  0
  7 11  2  0
 11 12  1  0
 12 13  2  0
 13 14  1  0
 14 15  2  0
 15 16  1  0
 16 17  2  0
 17 18  1  0
 18 19  2  0
 19 20  1  0
 20 21  2  0
 20 22  1  0
 19 23  1  0
 23 24  2  0
 24 25  1  0
 15 26  1  0
 26 27  2  0
 27  6  1  0
 27 12  1  0
 24 16  1  0
  1 28  1  0
  1 29  1  0
  1 30  1  0
  2 31  1  0
  2 32  1  0
  9 33  1  0
 11 34  1  0
 13 35  1  0
 14 36  1  0
 17 37  1  0
 18 38  1  0
 23 39  1  0
 26 40  1  0
M  CHG  2   9  -1  22  -1
M  END
>  <UniqueID>  (40) 
39

>  <SMILES>  (40) 
CCOC(=O)n1c(C([NH-])=O)cc2ccc(-c3ccc(C(=O)[O-])cc3F)cc21

>  <Energy>  (40) 
84.22162332020625

>  <Genealogy>  (40) 
CCOC(=O)n1c(C([NH-])=O)cc2ccc(-c3ccc(C(=O)[O-])cc3F)cc21 (protonated)
CCOC(=O)n1c(C([NH-])=O)cc2ccc(-c3ccc(C(=O)[O-])cc3F)cc21 (3D coordinates assigned)
CCOC(=O)n1c(C([NH-])=O)cc2ccc(-c3ccc(C(=O)[O-])cc3F)cc21 (optimized conformer: 84.22162332020625 kcal/mol)

>  <smiles>  (40) 
CCOC(=O)n1c(C(N)=O)cc2ccc(-c3ccc(C(=O)O)cc3F)cc21

>  <score_type>  (40) 
oracle

>  <origin>  (40) 
adg

>  <m_score__min__energy>  (40) 
-10.32

>  <m_primary>  (40) 
energy

$$$$
40:0
     RDKit          3D

 46 47  0  0  0  0  0  0  0  0999 V2000
   -8.8280   19.4530  -31.5230 C   0  0  0  0  0  0  0  0  0  0  0  0
   -9.3740   20.6380  -32.3180 C   0  0  0  0  0  0  0  0  0  0  0  0
   -9.3660   21.9570  -31.5240 C   0  0  0  0  0  0  0  0  0  0  0  0
   -8.2410   22.9300  -31.9170 C   0  0  0  0  0  0  0  0  0  0  0  0
   -7.0790   22.8700  -30.9640 C   0  0  0  0  0  0  0  0  0  0  0  0
   -7.2710   23.0950  -29.7390 O   0  0  0  0  0  0  0  0  0  0  0  0
   -5.7450   22.6230  -31.4420 N   0  0  0  0  0  0  0  0  0  0  0  0
   -4.5890   23.2340  -31.0590 C   0  0  0  0  0  0  0  0  0  0  0  0
   -4.4830   24.4450  -30.2180 C   0  0  0  0  0  0  0  0  0  0  0  0
   -5.1110   24.5200  -28.9380 N   0  0  0  0  0  0  0  0  0  0  0  0
   -3.8660   25.4510  -30.6590 O   0  0  0  0  0  0  0  0  0  0  0  0
   -3.4860   22.5790  -31.6030 C   0  0  0  0  0  0  0  0  0  0  0  0
   -4.0070   21.5470  -32.3480 C   0  0  0  0  0  0  0  0  0  0  0  0
   -3.3610   20.5430  -33.0670 C   0  0  0  0  0  0  0  0  0  0  0  0
   -4.1530   19.5600  -33.6830 C   0  0  0  0  0  0  0  0  0  0  0  0
   -5.5660   19.6050  -33.5830 C   0  0  0  0  0  0  0  0  0  0  0  0
   -6.4050   18.5040  -34.1700 C   0  0  0  0  0  0  0  0  0  0  0  0
   -5.5930   17.2520  -34.2590 C   0  0  0  0  0  0  0  0  0  0  0  0
   -4.7740   17.1010  -35.2090 O   0  0  0  0  0  0  0  0  0  0  0  0
   -5.8020   16.2330  -33.3260 O   0  0  0  0  0  0  0  0  0  0  0  0
   -5.3630   16.3120  -31.9710 C   0  0  0  0  0  0  0  0  0  0  0  0
   -6.1690   17.3550  -31.2060 C   0  0  0  0  0  0  0  0  0  0  0  0
   -6.1850   20.6410  -32.8510 C   0  0  0  0  0  0  0  0  0  0  0  0
   -5.3720   21.6020  -32.2420 C   0  0  0  0  0  0  0  0  0  0  0  0
   -8.9228   19.6587  -30.4466 H   0  0  0  0  0  0  0  0  0  0  0  0
   -9.3998   18.5477  -31.7750 H   0  0  0  0  0  0  0  0  0  0  0  0
   -7.7683   19.2994  -31.7750 H   0  0  0  0  0  0  0  0  0  0  0  0
   -8.7566   20.7687  -33.2190 H   0  0  0  0  0  0  0  0  0  0  0  0
  -10.4219   20.4112  -32.5641 H   0  0  0  0  0  0  0  0  0  0  0  0
  -10.3296   22.4620  -31.6865 H   0  0  0  0  0  0  0  0  0  0  0  0
   -9.1942   21.6880  -30.4713 H   0  0  0  0  0  0  0  0  0  0  0  0
   -7.8857   22.6719  -32.9255 H   0  0  0  0  0  0  0  0  0  0  0  0
   -8.6509   23.9503  -31.8858 H   0  0  0  0  0  0  0  0  0  0  0  0
   -5.7680   23.7810  -28.6110 H   0  0  0  0  0  0  0  0  0  0  0  0
   -4.9520   25.3540  -28.3290 H   0  0  0  0  0  0  0  0  0  0  0  0
   -2.4246   22.8332  -31.4658 H   0  0  0  0  0  0  0  0  0  0  0  0
   -2.2643   20.5210  -33.1496 H   0  0  0  0  0  0  0  0  0  0  0  0
   -3.6722   18.7479  -34.2481 H   0  0  0  0  0  0  0  0  0  0  0  0
   -7.2806   18.3282  -33.5279 H   0  0  0  0  0  0  0  0  0  0  0  0
   -6.7407   18.7956  -35.1761 H   0  0  0  0  0  0  0  0  0  0  0  0
   -5.4934   15.3309  -31.4910 H   0  0  0  0  0  0  0  0  0  0  0  0
   -4.3025   16.6039  -31.9582 H   0  0  0  0  0  0  0  0  0  0  0  0
   -6.0446   17.1940  -30.1250 H   0  0  0  0  0  0  0  0  0  0  0  0
   -5.8114   18.3611  -31.4704 H   0  0  0  0  0  0  0  0  0  0  0  0
   -7.2327   17.2627  -31.4704 H   0  0  0  0  0  0  0  0  0  0  0  0
   -7.2802   20.6912  -32.7618 H   0  0  0  0  0  0  0  0  0  0  0  0
  1  2  1  0
  2  3  1  0
  3  4  1  0
  4  5  1  0
  5  6  2  0
  5  7  1  0
  7  8  1  0
  8  9  1  0
  9 10  1  0
  9 11  2  0
  8 12  2  0
 12 13  1  0
 13 14  2  0
 14 15  1  0
 15 16  2  0
 16 17  1  0
 17 18  1  0
 18 19  2  0
 18 20  1  0
 20 21  1  0
 21 22  1  0
 16 23  1  0
 23 24  2  0
 24  7  1  0
 24 13  1  0
  1 25  1  0
  1 26  1  0
  1 27  1  0
  2 28  1  0
  2 29  1  0
  3 30  1  0
  3 31  1  0
  4 32  1  0
  4 33  1  0
 10 34  1  0
 10 35  1  0
 12 36  1  0
 14 37  1  0
 15 38  1  0
 17 39  1  0
 17 40  1  0
 21 41  1  0
 21 42  1  0
 22 43  1  0
 22 44  1  0
 22 45  1  0
 23 46  1  0
M  END
>  <UniqueID>  (41) 
40

>  <SMILES>  (41) 
CCCCC(=O)n1c(C(N)=O)cc2ccc(CC(=O)OCC)cc21

>  <Energy>  (41) 
70.79007176681337

>  <Genealogy>  (41) 
CCCCC(=O)n1c(C(N)=O)cc2ccc(CC(=O)OCC)cc21 (3D coordinates assigned)
CCCCC(=O)n1c(C(N)=O)cc2ccc(CC(=O)OCC)cc21 (optimized conformer: 70.79007176681337 kcal/mol)

>  <smiles>  (41) 
CCCCC(=O)n1c(C(N)=O)cc2ccc(CC(=O)OCC)cc21

>  <score_type>  (41) 
oracle

>  <origin>  (41) 
adg

>  <m_score__min__energy>  (41) 
-8.5199999999999996

>  <m_primary>  (41) 
energy

$$$$
41:0
     RDKit          3D

 32 33  0  0  0  0  0  0  0  0999 V2000
   -9.0960   19.3480  -31.9970 C   0  0  0  0  0  0  0  0  0  0  0  0
   -9.3350   20.6270  -32.5410 O   0  0  0  0  0  0  0  0  0  0  0  0
   -9.1240   21.6070  -31.5460 C   0  0  0  0  0  0  0  0  0  0  0  0
   -8.1040   22.6320  -32.0440 C   0  0  0  0  0  0  0  0  0  0  0  0
   -6.6970   22.2000  -31.7220 C   0  0  0  0  0  0  0  0  0  0  0  0
   -6.3000   20.8560  -31.9350 C   0  0  0  0  0  0  0  0  0  0  0  0
   -4.9970   20.4380  -31.6170 C   0  0  0  0  0  0  0  0  0  0  0  0
   -4.1240   21.3760  -31.0730 C   0  0  0  0  0  0  0  0  0  0  0  0
   -2.8050   21.2430  -30.7050 C   0  0  0  0  0  0  0  0  0  0  0  0
   -2.4270   22.4990  -30.2370 C   0  0  0  0  0  0  0  0  0  0  0  0
   -1.0900   22.7890  -29.6820 C   0  0  0  0  0  0  0  0  0  0  0  0
   -0.5750   24.1210  -29.6520 N   0  0  0  0  0  0  0  0  0  0  0  0
   -0.4140   21.8540  -29.1750 O   0  0  0  0  0  0  0  0  0  0  0  0
   -3.4650   23.3790  -30.3230 N   0  0  0  0  0  0  0  0  0  0  0  0
   -3.4370   24.7920  -30.0590 C   0  0  0  0  0  0  0  0  0  0  0  0
   -2.7330   25.2480  -29.1190 O   0  0  0  0  0  0  0  0  0  0  0  0
   -4.1810   25.6720  -30.8360 O   0  0  0  0  0  0  0  0  0  0  0  0
   -4.5000   22.6740  -30.8350 C   0  0  0  0  0  0  0  0  0  0  0  0
   -5.7860   23.1220  -31.1630 C   0  0  0  0  0  0  0  0  0  0  0  0
   -9.1073   19.4087  -30.8987 H   0  0  0  0  0  0  0  0  0  0  0  0
   -9.8800   18.6539  -32.3340 H   0  0  0  0  0  0  0  0  0  0  0  0
   -8.1143   18.9838  -32.3340 H   0  0  0  0  0  0  0  0  0  0  0  0
  -10.0745   22.1143  -31.3243 H   0  0  0  0  0  0  0  0  0  0  0  0
   -8.7424   21.1252  -30.6337 H   0  0  0  0  0  0  0  0  0  0  0  0
   -8.2059   22.7395  -33.1340 H   0  0  0  0  0  0  0  0  0  0  0  0
   -8.2984   23.5904  -31.5403 H   0  0  0  0  0  0  0  0  0  0  0  0
   -7.0178   20.1346  -32.3526 H   0  0  0  0  0  0  0  0  0  0  0  0
   -4.6762   19.4006  -31.7926 H   0  0  0  0  0  0  0  0  0  0  0  0
   -2.1823   20.3383  -30.7671 H   0  0  0  0  0  0  0  0  0  0  0  0
   -1.1740   24.9370  -29.9060 H   0  0  0  0  0  0  0  0  0  0  0  0
    0.3890   24.3020  -29.2950 H   0  0  0  0  0  0  0  0  0  0  0  0
   -6.0791   24.1679  -30.9890 H   0  0  0  0  0  0  0  0  0  0  0  0
  1  2  1  0
  2  3  1  0
  3  4  1  0
  4  5  1  0
  5  6  2  0
  6  7  1  0
  7  8  2  0
  8  9  1  0
  9 10  2  0
 10 11  1  0
 11 12  1  0
 11 13  2  0
 10 14  1  0
 14 15  1  0
 15 16  2  0
 15 17  1  0
 14 18  1  0
 18 19  2  0
 19  5  1  0
 18  8  1  0
  1 20  1  0
  1 21  1  0
  1 22  1  0
  3 23  1  0
  3 24  1  0
  4 25  1  0
  4 26  1  0
  6 27  1  0
  7 28  1  0
  9 29  1  0
 12 30  1  0
 12 31  1  0
 19 32  1  0
M  CHG  1  17  -1
M  END
>  <UniqueID>  (42) 
41

>  <SMILES>  (42) 
COCCc1ccc2cc(C(N)=O)n(C(=O)[O-])c2c1

>  <Energy>  (42) 
70.17385108133759

>  <Genealogy>  (42) 
COCCc1ccc2cc(C(N)=O)n(C(=O)[O-])c2c1 (protonated)
COCCc1ccc2cc(C(N)=O)n(C(=O)[O-])c2c1 (3D coordinates assigned)
COCCc1ccc2cc(C(N)=O)n(C(=O)[O-])c2c1 (optimized conformer: 70.17385108133759 kcal/mol)

>  <smiles>  (42) 
COCCc1ccc2cc(C(N)=O)n(C(=O)O)c2c1

>  <score_type>  (42) 
oracle

>  <origin>  (42) 
adg

>  <m_score__min__energy>  (42) 
-8.3200000000000003

>  <m_primary>  (42) 
energy

$$$$
42:0
     RDKit          3D

 46 48  0  0  0  0  0  0  0  0999 V2000
   -1.1230   25.6920  -29.2520 N   0  0  0  0  0  0  0  0  0  0  0  0
   -1.3200   25.4650  -27.8230 C   0  0  0  0  0  0  0  0  0  0  0  0
   -0.9570   24.0250  -27.4500 C   0  0  0  0  0  0  0  0  0  0  0  0
   -0.5260   23.2850  -28.5930 O   0  0  0  0  0  0  0  0  0  0  0  0
   -1.3530   22.5210  -29.4320 C   0  0  0  0  0  0  0  0  0  0  0  0
   -2.2440   21.6210  -28.8380 C   0  0  0  0  0  0  0  0  0  0  0  0
   -3.0740   20.8170  -29.6240 C   0  0  0  0  0  0  0  0  0  0  0  0
   -3.0210   20.8940  -31.0260 C   0  0  0  0  0  0  0  0  0  0  0  0
   -3.8560   19.9860  -31.8460 C   0  0  0  0  0  0  0  0  0  0  0  0
   -3.3550   18.9290  -32.3140 O   0  0  0  0  0  0  0  0  0  0  0  0
   -5.2250   20.3100  -32.1480 N   0  0  0  0  0  0  0  0  0  0  0  0
   -6.0940   19.6010  -32.9220 C   0  0  0  0  0  0  0  0  0  0  0  0
   -5.8190   18.2730  -33.5170 C   0  0  0  0  0  0  0  0  0  0  0  0
   -5.1160   17.2710  -32.7790 N   0  0  0  0  0  0  0  0  0  0  0  0
   -6.1850   18.0200  -34.6950 O   0  0  0  0  0  0  0  0  0  0  0  0
   -7.3190   20.2630  -33.0060 C   0  0  0  0  0  0  0  0  0  0  0  0
   -7.1680   21.4100  -32.2580 C   0  0  0  0  0  0  0  0  0  0  0  0
   -8.0730   22.4310  -31.9840 C   0  0  0  0  0  0  0  0  0  0  0  0
   -7.6420   23.4960  -31.1760 C   0  0  0  0  0  0  0  0  0  0  0  0
   -6.3150   23.5330  -30.6770 C   0  0  0  0  0  0  0  0  0  0  0  0
   -5.8690   24.6570  -29.7840 C   0  0  0  0  0  0  0  0  0  0  0  0
   -4.3890   24.8410  -29.8930 C   0  0  0  0  0  0  0  0  0  0  0  0
   -3.6190   24.2890  -29.0630 O   0  0  0  0  0  0  0  0  0  0  0  0
   -3.8600   25.6580  -30.8860 O   0  0  0  0  0  0  0  0  0  0  0  0
   -5.4260   22.4780  -30.9740 C   0  0  0  0  0  0  0  0  0  0  0  0
   -5.8920   21.4170  -31.7580 C   0  0  0  0  0  0  0  0  0  0  0  0
   -2.1490   21.8240  -31.6260 C   0  0  0  0  0  0  0  0  0  0  0  0
   -2.1060   21.9700  -32.9750 F   0  0  0  0  0  0  0  0  0  0  0  0
   -1.3240   22.6290  -30.8350 C   0  0  0  0  0  0  0  0  0  0  0  0
   -0.6000   24.8750  -29.6440 H   0  0  0  0  0  0  0  0  0  0  0  0
   -2.0650   25.6810  -29.7070 H   0  0  0  0  0  0  0  0  0  0  0  0
   -0.6806   26.1573  -27.2556 H   0  0  0  0  0  0  0  0  0  0  0  0
   -2.3787   25.6378  -27.5795 H   0  0  0  0  0  0  0  0  0  0  0  0
   -0.1460   24.0410  -26.7070 H   0  0  0  0  0  0  0  0  0  0  0  0
   -1.8528   23.5370  -27.0384 H   0  0  0  0  0  0  0  0  0  0  0  0
   -2.2918   21.5454  -27.7416 H   0  0  0  0  0  0  0  0  0  0  0  0
   -3.7739   20.1188  -29.1416 H   0  0  0  0  0  0  0  0  0  0  0  0
   -4.8570   17.4110  -31.7770 H   0  0  0  0  0  0  0  0  0  0  0  0
   -4.8920   16.3540  -33.2270 H   0  0  0  0  0  0  0  0  0  0  0  0
   -8.2159   19.9379  -33.5537 H   0  0  0  0  0  0  0  0  0  0  0  0
   -9.0957   22.4048  -32.3883 H   0  0  0  0  0  0  0  0  0  0  0  0
   -8.3403   24.3090  -30.9279 H   0  0  0  0  0  0  0  0  0  0  0  0
   -6.3747   25.5856  -30.0872 H   0  0  0  0  0  0  0  0  0  0  0  0
   -6.1268   24.4144  -28.7425 H   0  0  0  0  0  0  0  0  0  0  0  0
   -4.3922   22.4895  -30.5984 H   0  0  0  0  0  0  0  0  0  0  0  0
   -0.6470   23.3524  -31.3128 H   0  0  0  0  0  0  0  0  0  0  0  0
  1  2  1  0
  2  3  1  0
  3  4  1  0
  4  5  1  0
  5  6  2  0
  6  7  1  0
  7  8  2  0
  8  9  1  0
  9 10  2  0
  9 11  1  0
 11 12  1  0
 12 13  1  0
 13 14  1  0
 13 15  2  0
 12 16  2  0
 16 17  1  0
 17 18  2  0
 18 19  1  0
 19 20  2  0
 20 21  1  0
 21 22  1  0
 22 23  2  0
 22 24  1  0
 20 25  1  0
 25 26  2  0
  8 27  1  0
 27 28  1  0
 27 29  2  0
 29  5  1  0
 26 11  1  0
 26 17  1  0
  1 30  1  0
  1 31  1  0
  2 32  1  0
  2 33  1  0
  3 34  1  0
  3 35  1  0
  6 36  1  0
  7 37  1  0
 14 38  1  0
 14 39  1  0
 16 40  1  0
 18 41  1  0
 19 42  1  0
 21 43  1  0
 21 44  1  0
 25 45  1  0
 29 46  1  0
M  CHG  1  24  -1
M  END
>  <UniqueID>  (43) 
42

>  <SMILES>  (43) 
NCCOc1ccc(C(=O)n2c(C(N)=O)cc3ccc(CC(=O)[O-])cc32)c(F)c1

>  <Energy>  (43) 
84.52734638252475

>  <Genealogy>  (43) 
NCCOc1ccc(C(=O)n2c(C(N)=O)cc3ccc(CC(=O)[O-])cc32)c(F)c1 (protonated)
NCCOc1ccc(C(=O)n2c(C(N)=O)cc3ccc(CC(=O)[O-])cc32)c(F)c1 (3D coordinates assigned)
NCCOc1ccc(C(=O)n2c(C(N)=O)cc3ccc(CC(=O)[O-])cc32)c(F)c1 (optimized conformer: 84.52734638252475 kcal/mol)

>  <smiles>  (43) 
NCCOc1ccc(C(=O)n2c(C(N)=O)cc3ccc(CC(=O)O)cc32)c(F)c1

>  <score_type>  (43) 
oracle

>  <origin>  (43) 
adg

>  <m_score__min__energy>  (43) 
-9.9299999999999997

>  <m_primary>  (43) 
energy

$$$$
43:0
     RDKit          3D

 57 59  0  0  0  0  0  0  0  0999 V2000
   -4.1420   14.1480  -34.9580 H   0  0  0  0  0  0  0  0  0  0  0  0
   -4.6750   14.7130  -34.3460 O   0  0  0  0  0  0  0  0  0  0  0  0
   -4.5050   16.0550  -34.7320 C   0  0  2  0  0  0  0  0  0  0  0  0
   -5.2673   16.3205  -35.4793 H   0  0  0  0  0  0  0  0  0  0  0  0
   -3.1680   16.2600  -35.4220 C   0  0  0  0  0  0  0  0  0  0  0  0
   -3.0550   15.9772  -36.4790 H   0  0  0  0  0  0  0  0  0  0  0  0
   -2.1240   16.7800  -34.7630 C   0  0  0  0  0  0  0  0  0  0  0  0
   -2.2492   17.0761  -33.7110 H   0  0  0  0  0  0  0  0  0  0  0  0
   -0.7790   16.9710  -35.4250 C   0  0  0  0  0  0  0  0  0  0  0  0
   -0.1334   16.1240  -35.1498 H   0  0  0  0  0  0  0  0  0  0  0  0
   -0.9598   17.0271  -36.5086 H   0  0  0  0  0  0  0  0  0  0  0  0
   -0.0960   18.2240  -35.0360 N   0  0  0  0  0  0  0  0  0  0  0  0
    0.5920   18.8620  -36.1700 C   0  0  0  0  0  0  0  0  0  0  0  0
    1.3493   19.5642  -35.7914 H   0  0  0  0  0  0  0  0  0  0  0  0
    1.0812   18.0907  -36.7831 H   0  0  0  0  0  0  0  0  0  0  0  0
   -0.1403   19.4078  -36.7831 H   0  0  0  0  0  0  0  0  0  0  0  0
   -0.9960   19.1760  -34.3640 C   0  0  0  0  0  0  0  0  0  0  0  0
   -0.8950   19.0691  -33.2739 H   0  0  0  0  0  0  0  0  0  0  0  0
   -0.7301   20.2021  -34.6580 H   0  0  0  0  0  0  0  0  0  0  0  0
   -2.0354   18.9680  -34.6580 H   0  0  0  0  0  0  0  0  0  0  0  0
   -4.7190   16.9520  -33.5700 N   0  0  0  0  0  0  0  0  0  0  0  0
   -5.4230   16.2920  -32.4580 C   0  0  0  0  0  0  0  0  0  0  0  0
   -4.6957   15.8943  -31.7349 H   0  0  0  0  0  0  0  0  0  0  0  0
   -6.0317   15.4526  -32.8252 H   0  0  0  0  0  0  0  0  0  0  0  0
   -6.2960   17.3390  -31.7940 C   0  0  0  0  0  0  0  0  0  0  0  0
   -5.7522   17.8456  -30.9830 H   0  0  0  0  0  0  0  0  0  0  0  0
   -7.1972   16.9102  -31.3314 H   0  0  0  0  0  0  0  0  0  0  0  0
   -6.6170   18.3070  -32.9160 C   0  0  1  0  0  0  0  0  0  0  0  0
   -7.5502   18.0402  -33.4337 H   0  0  0  0  0  0  0  0  0  0  0  0
   -6.9090   19.7140  -32.4240 C   0  0  0  0  0  0  0  0  0  0  0  0
   -8.2330   20.2310  -32.4240 C   0  0  0  0  0  0  0  0  0  0  0  0
   -9.0614   19.6036  -32.7847 H   0  0  0  0  0  0  0  0  0  0  0  0
   -8.4960   21.5330  -31.9690 C   0  0  0  0  0  0  0  0  0  0  0  0
   -9.5210   21.9320  -31.9554 H   0  0  0  0  0  0  0  0  0  0  0  0
   -7.4220   22.3030  -31.5360 C   0  0  0  0  0  0  0  0  0  0  0  0
   -7.4010   23.5830  -31.0340 C   0  0  0  0  0  0  0  0  0  0  0  0
   -8.2591   24.2532  -30.8777 H   0  0  0  0  0  0  0  0  0  0  0  0
   -6.0610   23.8490  -30.7660 C   0  0  0  0  0  0  0  0  0  0  0  0
   -5.5770   25.1580  -30.2860 C   0  0  0  0  0  0  0  0  0  0  0  0
   -4.5800   25.6890  -30.8440 O   0  0  0  0  0  0  0  0  0  0  0  0
   -6.1660   25.7980  -29.1540 N   0  0  0  0  0  0  0  0  0  0  0  0
   -6.8840   25.3130  -28.5740 H   0  0  0  0  0  0  0  0  0  0  0  0
   -5.7910   26.7110  -28.8160 H   0  0  0  0  0  0  0  0  0  0  0  0
   -5.2840   22.7720  -31.0730 N   0  0  0  0  0  0  0  0  0  0  0  0
   -3.8730   22.6210  -30.8460 C   0  0  0  0  0  0  0  0  0  0  0  0
   -3.1730   21.9500  -31.6540 O   0  0  0  0  0  0  0  0  0  0  0  0
   -3.2770   23.2190  -29.7310 O   0  0  0  0  0  0  0  0  0  0  0  0
   -3.5870   22.8360  -28.3980 C   0  0  0  0  0  0  0  0  0  0  0  0
   -3.0550   23.4933  -27.6945 H   0  0  0  0  0  0  0  0  0  0  0  0
   -4.6711   22.9242  -28.2339 H   0  0  0  0  0  0  0  0  0  0  0  0
   -3.2749   21.7941  -28.2339 H   0  0  0  0  0  0  0  0  0  0  0  0
   -6.1340   21.8330  -31.5480 C   0  0  0  0  0  0  0  0  0  0  0  0
   -5.8460   20.5290  -31.9720 C   0  0  0  0  0  0  0  0  0  0  0  0
   -4.8145   20.1474  -31.9536 H   0  0  0  0  0  0  0  0  0  0  0  0
   -5.4190   18.2180  -33.8610 C   0  0  0  0  0  0  0  0  0  0  0  0
   -4.7427   19.0689  -33.6916 H   0  0  0  0  0  0  0  0  0  0  0  0
   -5.7494   18.2464  -34.9098 H   0  0  0  0  0  0  0  0  0  0  0  0
  1  2  1  0
  2  3  1  0
  3  4  1  6
  3  5  1  0
  5  6  1  0
  5  7  2  0
  7  8  1  0
  7  9  1  0
  9 10  1  0
  9 11  1  0
  9 12  1  0
 12 13  1  0
 13 14  1  0
 13 15  1  0
 13 16  1  0
 12 17  1  0
 17 18  1  0
 17 19  1  0
 17 20  1  0
  3 21  1  0
 21 22  1  0
 22 23  1  0
 22 24  1  0
 22 25  1  0
 25 26  1  0
 25 27  1  0
 25 28  1  0
 28 29  1  6
 28 30  1  0
 30 31  2  0
 31 32  1  0
 31 33  1  0
 33 34  1  0
 33 35  2  0
 35 36  1  0
 36 37  1  0
 36 38  2  0
 38 39  1  0
 39 40  2  0
 39 41  1  0
 41 42  1  0
 41 43  1  0
 38 44  1  0
 44 45  1  0
 45 46  2  0
 45 47  1  0
 47 48  1  0
 48 49  1  0
 48 50  1  0
 48 51  1  0
 44 52  1  0
 52 53  2  0
 53 54  1  0
 28 55  1  0
 55 56  1  0
 55 57  1  0
 55 21  1  0
 53 30  1  0
 52 35  1  0
M  END
>  <UniqueID>  (44) 
43

>  <SMILES>  (44) 
COC(=O)n1c(C(N)=O)cc2ccc([C@@H]3CCN([C@H](O)/C=C/CN(C)C)C3)cc21

>  <Energy>  (44) 
103.16546248298012

>  <Genealogy>  (44) 
COC(=O)n1c(C(N)=O)cc2ccc([C@@H]3CCN([C@H](O)/C=C/CN(C)C)C3)cc21 (chirality)
COC(=O)n1c(C(N)=O)cc2ccc([C@@H]3CCN([C@H](O)/C=C/CN(C)C)C3)cc21 (cis-trans isomerization)
COC(=O)n1c(C(N)=O)cc2ccc([C@@H]3CCN([C@H](O)/C=C/CN(C)C)C3)cc21 (3D coordinates assigned)
COC(=O)n1c(C(N)=O)cc2ccc([C@@H]3CCN([C@H](O)/C=C/CN(C)C)C3)cc21 (nonaromatic ring conformer: 103.16546248298012 kcal/mol)

>  <smiles>  (44) 
COC(=O)n1c(C(N)=O)cc2ccc(C3CCN(C(O)/C=C/CN(C)C)C3)cc21

>  <score_type>  (44) 
oracle

>  <origin>  (44) 
adg

>  <m_score__min__energy>  (44) 
-9.1400000000000006

>  <m_primary>  (44) 
energy

$$$$
44:0
     RDKit          3D

 43 45  0  0  0  0  0  0  0  0999 V2000
   -1.9120   25.4280  -27.9030 N   0  0  0  0  0  0  0  0  0  0  0  0
   -1.0130   24.5560  -28.5910 C   0  0  0  0  0  0  0  0  0  0  0  0
    0.2040   24.5440  -28.2670 O   0  0  0  0  0  0  0  0  0  0  0  0
   -1.4990   23.6130  -29.6170 C   0  0  0  0  0  0  0  0  0  0  0  0
   -0.7190   22.5760  -30.1200 C   0  0  0  0  0  0  0  0  0  0  0  0
   -1.5450   21.8840  -30.9730 C   0  0  0  0  0  0  0  0  0  0  0  0
   -1.2780   20.7620  -31.7520 C   0  0  0  0  0  0  0  0  0  0  0  0
   -2.3100   20.2630  -32.5600 C   0  0  0  0  0  0  0  0  0  0  0  0
   -3.5830   20.8840  -32.5710 C   0  0  0  0  0  0  0  0  0  0  0  0
   -4.6770   20.3410  -33.4530 C   0  0  0  0  0  0  0  0  0  0  0  0
   -5.8900   19.8560  -32.6490 C   0  0  0  0  0  0  0  0  0  0  0  0
   -7.0510   20.7490  -32.8640 N   0  0  0  0  0  0  0  0  0  0  0  0
   -8.3550   20.0380  -32.7710 C   0  0  0  0  0  0  0  0  0  0  0  0
   -9.1020   20.3260  -31.4620 C   0  0  0  0  0  0  0  0  0  0  0  0
   -9.3740   21.8300  -31.2920 C   0  0  0  0  0  0  0  0  0  0  0  0
   -8.2990   22.7060  -31.9570 C   0  0  0  0  0  0  0  0  0  0  0  0
   -6.9590   21.9680  -32.0250 C   0  0  0  0  0  0  0  0  0  0  0  0
   -3.8130   22.0310  -31.7790 C   0  0  0  0  0  0  0  0  0  0  0  0
   -2.7680   22.5060  -30.9740 C   0  0  0  0  0  0  0  0  0  0  0  0
   -2.7530   23.5820  -30.1520 N   0  0  0  0  0  0  0  0  0  0  0  0
   -3.7940   24.5670  -29.9930 C   0  0  0  0  0  0  0  0  0  0  0  0
   -4.6530   24.4390  -29.0800 O   0  0  0  0  0  0  0  0  0  0  0  0
   -3.8660   25.6680  -30.8420 O   0  0  0  0  0  0  0  0  0  0  0  0
   -2.9420   25.3610  -28.0550 H   0  0  0  0  0  0  0  0  0  0  0  0
   -1.5530   26.0860  -27.1760 H   0  0  0  0  0  0  0  0  0  0  0  0
    0.3331   22.3571  -29.8852 H   0  0  0  0  0  0  0  0  0  0  0  0
   -0.2886   20.2817  -31.7345 H   0  0  0  0  0  0  0  0  0  0  0  0
   -2.1290   19.3806  -33.1914 H   0  0  0  0  0  0  0  0  0  0  0  0
   -5.0035   21.1353  -34.1404 H   0  0  0  0  0  0  0  0  0  0  0  0
   -4.2697   19.4774  -33.9992 H   0  0  0  0  0  0  0  0  0  0  0  0
   -6.1531   18.8377  -32.9712 H   0  0  0  0  0  0  0  0  0  0  0  0
   -5.6315   19.8631  -31.5798 H   0  0  0  0  0  0  0  0  0  0  0  0
   -8.9880   20.3548  -33.6130 H   0  0  0  0  0  0  0  0  0  0  0  0
   -8.1444   18.9587  -32.7995 H   0  0  0  0  0  0  0  0  0  0  0  0
  -10.0611   19.7874  -31.4710 H   0  0  0  0  0  0  0  0  0  0  0  0
   -8.4743   19.9902  -30.6234 H   0  0  0  0  0  0  0  0  0  0  0  0
  -10.3488   22.0648  -31.7445 H   0  0  0  0  0  0  0  0  0  0  0  0
   -9.3624   22.0502  -30.2143 H   0  0  0  0  0  0  0  0  0  0  0  0
   -8.6222   22.9607  -32.9771 H   0  0  0  0  0  0  0  0  0  0  0  0
   -8.1680   23.6184  -31.3568 H   0  0  0  0  0  0  0  0  0  0  0  0
   -6.2020   22.6408  -32.4542 H   0  0  0  0  0  0  0  0  0  0  0  0
   -6.6805   21.6643  -31.0051 H   0  0  0  0  0  0  0  0  0  0  0  0
   -4.7885   22.5392  -31.7936 H   0  0  0  0  0  0  0  0  0  0  0  0
  1  2  1  0
  2  3  2  0
  2  4  1  0
  4  5  2  0
  5  6  1  0
  6  7  2  0
  7  8  1  0
  8  9  2  0
  9 10  1  0
 10 11  1  0
 11 12  1  0
 12 13  1  0
 13 14  1  0
 14 15  1  0
 15 16  1  0
 16 17  1  0
  9 18  1  0
 18 19  2  0
 19 20  1  0
 20 21  1  0
 21 22  2  0
 21 23  1  0
 20  4  1  0
 19  6  1  0
 17 12  1  0
  1 24  1  0
  1 25  1  0
  5 26  1  0
  7 27  1  0
  8 28  1  0
 10 29  1  0
 10 30  1  0
 11 31  1  0
 11 32  1  0
 13 33  1  0
 13 34  1  0
 14 35  1  0
 14 36  1  0
 15 37  1  0
 15 38  1  0
 16 39  1  0
 16 40  1  0
 17 41  1  0
 17 42  1  0
 18 43  1  0
M  CHG  1  23  -1
M  END
>  <UniqueID>  (45) 
44

>  <SMILES>  (45) 
NC(=O)c1cc2ccc(CCN3CCCCC3)cc2n1C(=O)[O-]

>  <Energy>  (45) 
90.17407845177505

>  <Genealogy>  (45) 
NC(=O)c1cc2ccc(CCN3CCCCC3)cc2n1C(=O)[O-] (protonated)
NC(=O)c1cc2ccc(CCN3CCCCC3)cc2n1C(=O)[O-] (3D coordinates assigned)
NC(=O)c1cc2ccc(CCN3CCCCC3)cc2n1C(=O)[O-] (nonaromatic ring conformer: 90.17407845177505 kcal/mol)

>  <smiles>  (45) 
NC(=O)c1cc2ccc(CCN3CCCCC3)cc2n1C(=O)O

>  <score_type>  (45) 
oracle

>  <origin>  (45) 
adg

>  <m_score__min__energy>  (45) 
-9.7699999999999996

>  <m_primary>  (45) 
energy

$$$$
45:0
     RDKit          3D

 48 50  0  0  0  0  0  0  0  0999 V2000
   -7.9580   19.5760  -31.8730 C   0  0  0  0  0  0  0  0  0  0  0  0
   -6.8180   20.2130  -32.5530 N   0  0  0  0  0  0  0  0  0  0  0  0
   -6.8490   21.6780  -32.3870 C   0  0  0  0  0  0  0  0  0  0  0  0
   -5.6110   22.1220  -31.6070 C   0  0  0  0  0  0  0  0  0  0  0  0
   -4.3690   22.3150  -32.4920 C   0  0  0  0  0  0  0  0  0  0  0  0
   -3.5430   21.0980  -32.6510 N   0  0  0  0  0  0  0  0  0  0  0  0
   -2.2790   21.3040  -33.3960 C   0  0  0  0  0  0  0  0  0  0  0  0
   -1.0800   20.6780  -32.6620 C   0  0  0  0  0  0  0  0  0  0  0  0
   -1.0720   20.9790  -31.1840 C   0  0  0  0  0  0  0  0  0  0  0  0
   -0.7530   19.9620  -30.2480 C   0  0  0  0  0  0  0  0  0  0  0  0
   -0.7460   20.2330  -28.8710 C   0  0  0  0  0  0  0  0  0  0  0  0
   -1.0580   21.5250  -28.4580 C   0  0  0  0  0  0  0  0  0  0  0  0
   -1.1480   22.0490  -27.1890 C   0  0  0  0  0  0  0  0  0  0  0  0
   -1.5020   23.3840  -27.3680 C   0  0  0  0  0  0  0  0  0  0  0  0
   -1.6440   24.3420  -26.2530 C   0  0  0  0  0  0  0  0  0  0  0  0
   -2.4510   25.5130  -26.3840 N   0  0  0  0  0  0  0  0  0  0  0  0
   -0.9970   24.1530  -25.1890 O   0  0  0  0  0  0  0  0  0  0  0  0
   -1.6420   23.6720  -28.6930 N   0  0  0  0  0  0  0  0  0  0  0  0
   -2.0880   24.9070  -29.2780 C   0  0  0  0  0  0  0  0  0  0  0  0
   -1.5020   25.9880  -29.0050 O   0  0  0  0  0  0  0  0  0  0  0  0
   -3.1660   24.9210  -30.1550 O   0  0  0  0  0  0  0  0  0  0  0  0
   -1.3650   22.5220  -29.3480 C   0  0  0  0  0  0  0  0  0  0  0  0
   -1.4120   22.2720  -30.7240 C   0  0  0  0  0  0  0  0  0  0  0  0
   -4.3340   19.8910  -32.9890 C   0  0  0  0  0  0  0  0  0  0  0  0
   -5.5540   19.6070  -32.0830 C   0  0  0  0  0  0  0  0  0  0  0  0
   -7.8238   19.6510  -30.7838 H   0  0  0  0  0  0  0  0  0  0  0  0
   -8.8891   20.0846  -32.1636 H   0  0  0  0  0  0  0  0  0  0  0  0
   -8.0129   18.5165  -32.1636 H   0  0  0  0  0  0  0  0  0  0  0  0
   -6.8535   22.1603  -33.3756 H   0  0  0  0  0  0  0  0  0  0  0  0
   -7.7562   21.9685  -31.8369 H   0  0  0  0  0  0  0  0  0  0  0  0
   -5.8363   23.0767  -31.1092 H   0  0  0  0  0  0  0  0  0  0  0  0
   -5.3765   21.3234  -30.8877 H   0  0  0  0  0  0  0  0  0  0  0  0
   -4.7027   22.6382  -33.4891 H   0  0  0  0  0  0  0  0  0  0  0  0
   -3.7369   23.0630  -31.9911 H   0  0  0  0  0  0  0  0  0  0  0  0
   -2.3707   20.8408  -34.3895 H   0  0  0  0  0  0  0  0  0  0  0  0
   -2.1028   22.3864  -33.4818 H   0  0  0  0  0  0  0  0  0  0  0  0
   -1.1166   19.5870  -32.7975 H   0  0  0  0  0  0  0  0  0  0  0  0
   -0.1663   21.1144  -33.0919 H   0  0  0  0  0  0  0  0  0  0  0  0
   -0.5086   18.9507  -30.6051 H   0  0  0  0  0  0  0  0  0  0  0  0
   -0.5013   19.4481  -28.1402 H   0  0  0  0  0  0  0  0  0  0  0  0
   -0.9769   21.5255  -26.2368 H   0  0  0  0  0  0  0  0  0  0  0  0
   -2.5690   26.1590  -25.5720 H   0  0  0  0  0  0  0  0  0  0  0  0
   -2.8620   25.7850  -27.3040 H   0  0  0  0  0  0  0  0  0  0  0  0
   -1.7063   23.0621  -31.4305 H   0  0  0  0  0  0  0  0  0  0  0  0
   -4.6995   20.0056  -34.0202 H   0  0  0  0  0  0  0  0  0  0  0  0
   -3.6527   19.0393  -32.8461 H   0  0  0  0  0  0  0  0  0  0  0  0
   -5.6948   18.5175  -32.0270 H   0  0  0  0  0  0  0  0  0  0  0  0
   -5.3322   20.0615  -31.1061 H   0  0  0  0  0  0  0  0  0  0  0  0
  1  2  1  0
  2  3  1  0
  3  4  1  0
  4  5  1  0
  5  6  1  0
  6  7  1  0
  7  8  1  0
  8  9  1  0
  9 10  2  0
 10 11  1  0
 11 12  2  0
 12 13  1  0
 13 14  2  0
 14 15  1  0
 15 16  1  0
 15 17  2  0
 14 18  1  0
 18 19  1  0
 19 20  2  0
 19 21  1  0
 18 22  1  0
 22 23  2  0
  6 24  1  0
 24 25  1  0
 25  2  1  0
 23  9  1  0
 22 12  1  0
  1 26  1  0
  1 27  1  0
  1 28  1  0
  3 29  1  0
  3 30  1  0
  4 31  1  0
  4 32  1  0
  5 33  1  0
  5 34  1  0
  7 35  1  0
  7 36  1  0
  8 37  1  0
  8 38  1  0
 10 39  1  0
 11 40  1  0
 13 41  1  0
 16 42  1  0
 16 43  1  0
 23 44  1  0
 24 45  1  0
 24 46  1  0
 25 47  1  0
 25 48  1  0
M  CHG  1  21  -1
M  END
>  <UniqueID>  (46) 
45

>  <SMILES>  (46) 
CN1CCCN(CCc2ccc3cc(C(N)=O)n(C(=O)[O-])c3c2)CC1

>  <Energy>  (46) 
100.6338755113775

>  <Genealogy>  (46) 
CN1CCCN(CCc2ccc3cc(C(N)=O)n(C(=O)[O-])c3c2)CC1 (protonated)
CN1CCCN(CCc2ccc3cc(C(N)=O)n(C(=O)[O-])c3c2)CC1 (3D coordinates assigned)
CN1CCCN(CCc2ccc3cc(C(N)=O)n(C(=O)[O-])c3c2)CC1 (nonaromatic ring conformer: 100.6338755113775 kcal/mol)

>  <smiles>  (46) 
CN1CCCN(CCc2ccc3cc(C(N)=O)n(C(=O)O)c3c2)CC1

>  <score_type>  (46) 
oracle

>  <origin>  (46) 
adg

>  <m_score__min__energy>  (46) 
-7.96

>  <m_primary>  (46) 
energy

$$$$
46:0
     RDKit          3D

 29 31  0  0  0  0  0  0  0  0999 V2000
   -3.8790   25.6470  -30.8380 N   0  0  0  0  0  0  0  0  0  0  0  0
   -5.1800   25.2600  -30.4060 C   0  0  0  0  0  0  0  0  0  0  0  0
   -5.8320   26.0250  -29.6470 O   0  0  0  0  0  0  0  0  0  0  0  0
   -5.7860   23.9900  -30.8600 C   0  0  0  0  0  0  0  0  0  0  0  0
   -7.1550   23.8090  -31.0520 C   0  0  0  0  0  0  0  0  0  0  0  0
   -7.2900   22.5220  -31.5280 C   0  0  0  0  0  0  0  0  0  0  0  0
   -8.4310   21.8130  -31.8880 C   0  0  0  0  0  0  0  0  0  0  0  0
   -8.2700   20.4910  -32.3390 C   0  0  0  0  0  0  0  0  0  0  0  0
   -6.9800   19.9040  -32.4180 C   0  0  0  0  0  0  0  0  0  0  0  0
   -6.8230   18.5100  -32.8880 C   0  0  0  0  0  0  0  0  0  0  0  0
   -7.6460   17.5000  -32.5320 N   0  0  0  0  0  0  0  0  0  0  0  0
   -7.1800   16.4540  -33.1430 O   0  0  0  0  0  0  0  0  0  0  0  0
   -6.1290   16.7970  -33.8380 C   0  0  0  0  0  0  0  0  0  0  0  0
   -5.4590   15.9950  -34.5390 O   0  0  0  0  0  0  0  0  0  0  0  0
   -5.8390   18.1060  -33.7230 N   0  0  0  0  0  0  0  0  0  0  0  0
   -5.8460   20.6600  -32.0430 C   0  0  0  0  0  0  0  0  0  0  0  0
   -6.0390   21.9730  -31.6060 C   0  0  0  0  0  0  0  0  0  0  0  0
   -5.1070   22.8570  -31.1940 N   0  0  0  0  0  0  0  0  0  0  0  0
   -3.6990   22.6090  -31.1040 C   0  0  0  0  0  0  0  0  0  0  0  0
   -3.0310   23.1480  -30.1810 O   0  0  0  0  0  0  0  0  0  0  0  0
   -2.9900   21.8050  -32.1520 C   0  0  0  0  0  0  0  0  0  0  0  0
   -1.6590   22.1800  -32.1900 F   0  0  0  0  0  0  0  0  0  0  0  0
   -3.0730   20.4590  -31.8460 F   0  0  0  0  0  0  0  0  0  0  0  0
   -3.5520   22.0210  -33.3980 F   0  0  0  0  0  0  0  0  0  0  0  0
   -3.0250   25.2930  -30.3520 H   0  0  0  0  0  0  0  0  0  0  0  0
   -7.9570   24.5380  -30.8638 H   0  0  0  0  0  0  0  0  0  0  0  0
   -9.4284   22.2722  -31.8220 H   0  0  0  0  0  0  0  0  0  0  0  0
   -9.1532   19.9053  -32.6338 H   0  0  0  0  0  0  0  0  0  0  0  0
   -4.8368   20.2254  -32.0940 H   0  0  0  0  0  0  0  0  0  0  0  0
  1  2  1  0
  2  3  2  0
  2  4  1  0
  4  5  2  0
  5  6  1  0
  6  7  2  0
  7  8  1  0
  8  9  2  0
  9 10  1  0
 10 11  2  0
 11 12  1  0
 12 13  1  0
 13 14  2  0
 13 15  1  0
  9 16  1  0
 16 17  2  0
 17 18  1  0
 18 19  1  0
 19 20  2  0
 19 21  1  0
 21 22  1  0
 21 23  1  0
 21 24  1  0
 18  4  1  0
 17  6  1  0
 15 10  1  0
  1 25  1  0
  5 26  1  0
  7 27  1  0
  8 28  1  0
 16 29  1  0
M  CHG  2   1  -1  15  -1
M  END
>  <UniqueID>  (47) 
46

>  <SMILES>  (47) 
[NH-]C(=O)c1cc2ccc(-c3noc(=O)[n-]3)cc2n1C(=O)C(F)(F)F

>  <Energy>  (47) 
106.37039556087565

>  <Genealogy>  (47) 
[NH-]C(=O)c1cc2ccc(-c3noc(=O)[n-]3)cc2n1C(=O)C(F)(F)F (protonated)
[NH-]C(=O)c1cc2ccc(-c3noc(=O)[n-]3)cc2n1C(=O)C(F)(F)F (3D coordinates assigned)
[NH-]C(=O)c1cc2ccc(-c3noc(=O)[n-]3)cc2n1C(=O)C(F)(F)F (optimized conformer: 106.37039556087565 kcal/mol)

>  <smiles>  (47) 
NC(=O)c1cc2ccc(-c3noc(=O)[nH]3)cc2n1C(=O)C(F)(F)F

>  <score_type>  (47) 
oracle

>  <origin>  (47) 
adg

>  <m_score__min__energy>  (47) 
-10.09

>  <m_primary>  (47) 
energy

$$$$
47:0
     RDKit          3D

 34 35  0  0  0  0  0  0  0  0999 V2000
   -5.7040   18.2670  -34.6600 C   0  0  0  0  0  0  0  0  0  0  0  0
   -5.5200   17.8530  -33.3130 O   0  0  0  0  0  0  0  0  0  0  0  0
   -6.4620   18.1080  -32.3110 C   0  0  0  0  0  0  0  0  0  0  0  0
   -6.2250   17.8000  -31.1110 O   0  0  0  0  0  0  0  0  0  0  0  0
   -7.7390   18.7990  -32.6620 C   0  0  0  0  0  0  0  0  0  0  0  0
   -7.6830   20.2350  -32.2190 C   0  0  0  0  0  0  0  0  0  0  0  0
   -8.8800   20.9340  -31.9200 C   0  0  0  0  0  0  0  0  0  0  0  0
   -8.8390   22.2680  -31.4840 C   0  0  0  0  0  0  0  0  0  0  0  0
   -7.5920   22.8700  -31.3410 C   0  0  0  0  0  0  0  0  0  0  0  0
   -7.2670   24.1490  -30.9550 C   0  0  0  0  0  0  0  0  0  0  0  0
   -5.8750   24.2040  -30.9910 C   0  0  0  0  0  0  0  0  0  0  0  0
   -5.0950   25.3830  -30.5620 C   0  0  0  0  0  0  0  0  0  0  0  0
   -3.6760   25.2970  -30.4600 N   0  0  0  0  0  0  0  0  0  0  0  0
   -5.6650   26.4790  -30.3190 O   0  0  0  0  0  0  0  0  0  0  0  0
   -5.3600   23.0070  -31.3910 N   0  0  0  0  0  0  0  0  0  0  0  0
   -3.9800   22.6770  -31.6220 C   0  0  0  0  0  0  0  0  0  0  0  0
   -3.1550   22.7160  -30.6690 O   0  0  0  0  0  0  0  0  0  0  0  0
   -3.5640   22.2910  -32.9000 O   0  0  0  0  0  0  0  0  0  0  0  0
   -3.1780   20.9580  -33.2110 C   0  0  0  0  0  0  0  0  0  0  0  0
   -6.4240   22.2000  -31.5990 C   0  0  0  0  0  0  0  0  0  0  0  0
   -6.4360   20.8750  -32.0530 C   0  0  0  0  0  0  0  0  0  0  0  0
   -6.1507   19.2721  -34.6769 H   0  0  0  0  0  0  0  0  0  0  0  0
   -4.7311   18.2895  -35.1728 H   0  0  0  0  0  0  0  0  0  0  0  0
   -6.3726   17.5599  -35.1728 H   0  0  0  0  0  0  0  0  0  0  0  0
   -7.8879   18.7589  -33.7511 H   0  0  0  0  0  0  0  0  0  0  0  0
   -8.5745   18.2957  -32.1535 H   0  0  0  0  0  0  0  0  0  0  0  0
   -9.8496   20.4264  -32.0307 H   0  0  0  0  0  0  0  0  0  0  0  0
   -9.7639   22.8205  -31.2622 H   0  0  0  0  0  0  0  0  0  0  0  0
   -7.9591   24.9575  -30.6767 H   0  0  0  0  0  0  0  0  0  0  0  0
   -3.1120   24.8200  -31.1990 H   0  0  0  0  0  0  0  0  0  0  0  0
   -3.0154   20.3965  -32.2792 H   0  0  0  0  0  0  0  0  0  0  0  0
   -3.9727   20.4734  -33.7972 H   0  0  0  0  0  0  0  0  0  0  0  0
   -2.2473   20.9731  -33.7972 H   0  0  0  0  0  0  0  0  0  0  0  0
   -5.4971   20.3465  -32.2746 H   0  0  0  0  0  0  0  0  0  0  0  0
  1  2  1  0
  2  3  1  0
  3  4  2  0
  3  5  1  0
  5  6  1  0
  6  7  2  0
  7  8  1  0
  8  9  2  0
  9 10  1  0
 10 11  2  0
 11 12  1  0
 12 13  1  0
 12 14  2  0
 11 15  1  0
 15 16  1  0
 16 17  2  0
 16 18  1  0
 18 19  1  0
 15 20  1  0
 20 21  2  0
 21  6  1  0
 20  9  1  0
  1 22  1  0
  1 23  1  0
  1 24  1  0
  5 25  1  0
  5 26  1  0
  7 27  1  0
  8 28  1  0
 10 29  1  0
 13 30  1  0
 19 31  1  0
 19 32  1  0
 19 33  1  0
 21 34  1  0
M  CHG  1  13  -1
M  END
>  <UniqueID>  (48) 
47

>  <SMILES>  (48) 
COC(=O)Cc1ccc2cc(C([NH-])=O)n(C(=O)OC)c2c1

>  <Energy>  (48) 
66.6901760609596

>  <Genealogy>  (48) 
COC(=O)Cc1ccc2cc(C([NH-])=O)n(C(=O)OC)c2c1 (protonated)
COC(=O)Cc1ccc2cc(C([NH-])=O)n(C(=O)OC)c2c1 (3D coordinates assigned)
COC(=O)Cc1ccc2cc(C([NH-])=O)n(C(=O)OC)c2c1 (optimized conformer: 66.6901760609596 kcal/mol)

>  <smiles>  (48) 
COC(=O)Cc1ccc2cc(C(N)=O)n(C(=O)OC)c2c1

>  <score_type>  (48) 
oracle

>  <origin>  (48) 
adg

>  <m_score__min__energy>  (48) 
-9.6799999999999997

>  <m_primary>  (48) 
energy

$$$$
48:0
     RDKit          3D

 36 38  0  0  0  0  0  0  0  0999 V2000
   -5.8010   25.2160  -28.9810 N   0  0  0  0  0  0  0  0  0  0  0  0
   -5.4380   24.8340  -30.3090 C   0  0  0  0  0  0  0  0  0  0  0  0
   -4.5960   25.5310  -30.9350 O   0  0  0  0  0  0  0  0  0  0  0  0
   -6.0140   23.6210  -30.9310 C   0  0  0  0  0  0  0  0  0  0  0  0
   -7.3810   23.3880  -31.0560 C   0  0  0  0  0  0  0  0  0  0  0  0
   -7.4900   22.1400  -31.6210 C   0  0  0  0  0  0  0  0  0  0  0  0
   -8.6240   21.4170  -31.9680 C   0  0  0  0  0  0  0  0  0  0  0  0
   -8.4500   20.1550  -32.5580 C   0  0  0  0  0  0  0  0  0  0  0  0
   -7.1470   19.6420  -32.8110 C   0  0  0  0  0  0  0  0  0  0  0  0
   -6.9210   18.2610  -33.4140 C   0  0  0  0  0  0  0  0  0  0  0  0
   -6.4840   17.1810  -32.3900 C   0  0  0  0  0  0  0  0  0  0  0  0
   -4.9870   16.8460  -32.5040 C   0  0  0  0  0  0  0  0  0  0  0  0
   -4.2410   18.0070  -32.8010 O   0  0  0  0  0  0  0  0  0  0  0  0
   -4.4670   18.4280  -34.1380 C   0  0  0  0  0  0  0  0  0  0  0  0
   -5.9400   18.3310  -34.5980 C   0  0  0  0  0  0  0  0  0  0  0  0
   -6.0200   20.4090  -32.4280 C   0  0  0  0  0  0  0  0  0  0  0  0
   -6.2240   21.6580  -31.8240 C   0  0  0  0  0  0  0  0  0  0  0  0
   -5.3030   22.5560  -31.4010 N   0  0  0  0  0  0  0  0  0  0  0  0
   -3.8700   22.4550  -31.4880 C   0  0  0  0  0  0  0  0  0  0  0  0
   -3.1300   23.4340  -31.2080 O   0  0  0  0  0  0  0  0  0  0  0  0
   -6.5380   24.7030  -28.4490 H   0  0  0  0  0  0  0  0  0  0  0  0
   -5.3590   26.0510  -28.5360 H   0  0  0  0  0  0  0  0  0  0  0  0
   -8.2008   24.0609  -30.7641 H   0  0  0  0  0  0  0  0  0  0  0  0
   -9.6304   21.8219  -31.7856 H   0  0  0  0  0  0  0  0  0  0  0  0
   -9.3318   19.5554  -32.8280 H   0  0  0  0  0  0  0  0  0  0  0  0
   -7.9056   17.9346  -33.7802 H   0  0  0  0  0  0  0  0  0  0  0  0
   -6.6879   17.5520  -31.3747 H   0  0  0  0  0  0  0  0  0  0  0  0
   -7.0530   16.2638  -32.6022 H   0  0  0  0  0  0  0  0  0  0  0  0
   -4.6367   16.4250  -31.5500 H   0  0  0  0  0  0  0  0  0  0  0  0
   -4.8469   16.1163  -33.3151 H   0  0  0  0  0  0  0  0  0  0  0  0
   -4.1471   19.4767  -34.2272 H   0  0  0  0  0  0  0  0  0  0  0  0
   -3.8914   17.7477  -34.7828 H   0  0  0  0  0  0  0  0  0  0  0  0
   -6.1800   19.2173  -35.2037 H   0  0  0  0  0  0  0  0  0  0  0  0
   -6.0494   17.4037  -35.1795 H   0  0  0  0  0  0  0  0  0  0  0  0
   -5.0015   20.0314  -32.6014 H   0  0  0  0  0  0  0  0  0  0  0  0
   -3.4134   21.5057  -31.8047 H   0  0  0  0  0  0  0  0  0  0  0  0
  1  2  1  0
  2  3  2  0
  2  4  1  0
  4  5  2  0
  5  6  1  0
  6  7  2  0
  7  8  1  0
  8  9  2  0
  9 10  1  0
 10 11  1  0
 11 12  1  0
 12 13  1  0
 13 14  1  0
 14 15  1  0
  9 16  1  0
 16 17  2  0
 17 18  1  0
 18 19  1  0
 19 20  2  0
 18  4  1  0
 17  6  1  0
 15 10  1  0
  1 21  1  0
  1 22  1  0
  5 23  1  0
  7 24  1  0
  8 25  1  0
 10 26  1  0
 11 27  1  0
 11 28  1  0
 12 29  1  0
 12 30  1  0
 14 31  1  0
 14 32  1  0
 15 33  1  0
 15 34  1  0
 16 35  1  0
 19 36  1  0
M  END
>  <UniqueID>  (49) 
48

>  <SMILES>  (49) 
NC(=O)c1cc2ccc(C3CCOCC3)cc2n1C=O

>  <Energy>  (49) 
85.13922322372302

>  <Genealogy>  (49) 
NC(=O)c1cc2ccc(C3CCOCC3)cc2n1C=O (3D coordinates assigned)
NC(=O)c1cc2ccc(C3CCOCC3)cc2n1C=O (nonaromatic ring conformer: 85.13922322372302 kcal/mol)

>  <smiles>  (49) 
NC(=O)c1cc2ccc(C3CCOCC3)cc2n1C=O

>  <score_type>  (49) 
oracle

>  <origin>  (49) 
adg

>  <m_score__min__energy>  (49) 
-9.2400000000000002

>  <m_primary>  (49) 
energy

$$$$
49:0
     RDKit          3D

 42 44  0  0  0  0  0  0  0  0999 V2000
   -2.1550   25.3070  -28.6010 N   0  0  0  0  0  0  0  0  0  0  0  0
   -1.3520   24.2710  -29.1660 C   0  0  0  0  0  0  0  0  0  0  0  0
   -0.1440   24.1690  -28.8230 O   0  0  0  0  0  0  0  0  0  0  0  0
   -1.9270   23.2780  -30.0940 C   0  0  0  0  0  0  0  0  0  0  0  0
   -1.2340   22.1570  -30.5410 C   0  0  0  0  0  0  0  0  0  0  0  0
   -2.1290   21.4610  -31.3200 C   0  0  0  0  0  0  0  0  0  0  0  0
   -1.9630   20.2750  -32.0280 C   0  0  0  0  0  0  0  0  0  0  0  0
   -3.0470   19.8020  -32.7840 C   0  0  0  0  0  0  0  0  0  0  0  0
   -4.2680   20.5210  -32.8240 C   0  0  0  0  0  0  0  0  0  0  0  0
   -5.4040   20.0260  -33.6830 C   0  0  0  0  0  0  0  0  0  0  0  0
   -6.0970   18.8020  -33.0650 C   0  0  0  0  0  0  0  0  0  0  0  0
   -6.6280   19.0820  -31.6530 C   0  0  0  0  0  0  0  0  0  0  0  0
   -7.6160   20.1580  -31.6890 N   0  0  0  0  0  0  0  0  0  0  0  0
   -7.3920   21.4920  -31.1650 C   0  0  0  0  0  0  0  0  0  0  0  0
   -8.6990   22.2710  -31.4150 C   0  0  0  0  0  0  0  0  0  0  0  0
   -9.7300   21.2760  -31.9710 C   0  0  0  0  0  0  0  0  0  0  0  0
   -8.9540   20.0310  -32.1240 C   0  0  0  0  0  0  0  0  0  0  0  0
   -9.4360   18.9570  -32.5730 O   0  0  0  0  0  0  0  0  0  0  0  0
   -4.3980   21.7250  -32.0970 C   0  0  0  0  0  0  0  0  0  0  0  0
   -3.3070   22.1630  -31.3350 C   0  0  0  0  0  0  0  0  0  0  0  0
   -3.1980   23.2860  -30.5870 N   0  0  0  0  0  0  0  0  0  0  0  0
   -4.1790   24.3300  -30.4490 C   0  0  0  0  0  0  0  0  0  0  0  0
   -5.3350   24.0660  -30.0270 O   0  0  0  0  0  0  0  0  0  0  0  0
   -3.8600   25.6410  -30.7820 O   0  0  0  0  0  0  0  0  0  0  0  0
   -1.7250   26.0180  -27.9710 H   0  0  0  0  0  0  0  0  0  0  0  0
   -3.1910   25.3190  -28.7320 H   0  0  0  0  0  0  0  0  0  0  0  0
   -0.1916   21.8851  -30.3186 H   0  0  0  0  0  0  0  0  0  0  0  0
   -1.0111   19.7246  -31.9963 H   0  0  0  0  0  0  0  0  0  0  0  0
   -2.9480   18.8645  -33.3508 H   0  0  0  0  0  0  0  0  0  0  0  0
   -6.1424   20.8334  -33.7963 H   0  0  0  0  0  0  0  0  0  0  0  0
   -4.9902   19.7280  -34.6577 H   0  0  0  0  0  0  0  0  0  0  0  0
   -6.9404   18.5111  -33.7085 H   0  0  0  0  0  0  0  0  0  0  0  0
   -5.3514   17.9967  -32.9896 H   0  0  0  0  0  0  0  0  0  0  0  0
   -7.0977   18.1708  -31.2542 H   0  0  0  0  0  0  0  0  0  0  0  0
   -5.7901   19.3859  -31.0084 H   0  0  0  0  0  0  0  0  0  0  0  0
   -7.1732   21.4479  -30.0879 H   0  0  0  0  0  0  0  0  0  0  0  0
   -6.5336   21.9777  -31.6522 H   0  0  0  0  0  0  0  0  0  0  0  0
   -9.0648   22.7034  -30.4720 H   0  0  0  0  0  0  0  0  0  0  0  0
   -8.5305   23.0928  -32.1265 H   0  0  0  0  0  0  0  0  0  0  0  0
  -10.5629   21.1368  -31.2660 H   0  0  0  0  0  0  0  0  0  0  0  0
  -10.1900   21.6141  -32.9113 H   0  0  0  0  0  0  0  0  0  0  0  0
   -5.3326   22.3043  -32.1283 H   0  0  0  0  0  0  0  0  0  0  0  0
  1  2  1  0
  2  3  2  0
  2  4  1  0
  4  5  2  0
  5  6  1  0
  6  7  2  0
  7  8  1  0
  8  9  2  0
  9 10  1  0
 10 11  1  0
 11 12  1  0
 12 13  1  0
 13 14  1  0
 14 15  1  0
 15 16  1  0
 16 17  1  0
 17 18  2  0
  9 19  1  0
 19 20  2  0
 20 21  1  0
 21 22  1  0
 22 23  2  0
 22 24  1  0
 21  4  1  0
 20  6  1  0
 17 13  1  0
  1 25  1  0
  1 26  1  0
  5 27  1  0
  7 28  1  0
  8 29  1  0
 10 30  1  0
 10 31  1  0
 11 32  1  0
 11 33  1  0
 12 34  1  0
 12 35  1  0
 14 36  1  0
 14 37  1  0
 15 38  1  0
 15 39  1  0
 16 40  1  0
 16 41  1  0
 19 42  1  0
M  CHG  1  24  -1
M  END
>  <UniqueID>  (50) 
49

>  <SMILES>  (50) 
NC(=O)c1cc2ccc(CCCN3CCCC3=O)cc2n1C(=O)[O-]

>  <Energy>  (50) 
82.8933723582567

>  <Genealogy>  (50) 
NC(=O)c1cc2ccc(CCCN3CCCC3=O)cc2n1C(=O)[O-] (protonated)
NC(=O)c1cc2ccc(CCCN3CCCC3=O)cc2n1C(=O)[O-] (3D coordinates assigned)
NC(=O)c1cc2ccc(CCCN3CCCC3=O)cc2n1C(=O)[O-] (nonaromatic ring conformer: 82.8933723582567 kcal/mol)

>  <smiles>  (50) 
NC(=O)c1cc2ccc(CCCN3CCCC3=O)cc2n1C(=O)O

>  <score_type>  (50) 
oracle

>  <origin>  (50) 
adg

>  <m_score__min__energy>  (50) 
-9.6899999999999995

>  <m_primary>  (50) 
energy

$$$$
50:0
     RDKit          3D

 47 49  0  0  0  0  0  0  0  0999 V2000
   -5.7270   18.4920  -34.7590 C   0  0  0  0  0  0  0  0  0  0  0  0
   -5.2730   17.6900  -33.6170 N   0  0  0  0  0  0  0  0  0  0  0  0
   -3.9120   17.1460  -33.5940 C   0  0  0  0  0  0  0  0  0  0  0  0
   -6.1580   17.4180  -32.5070 C   0  0  0  0  0  0  0  0  0  0  0  0
   -5.7530   16.6940  -31.5540 O   0  0  0  0  0  0  0  0  0  0  0  0
   -7.5670   17.9650  -32.4810 C   0  0  0  0  0  0  0  0  0  0  0  0
   -7.6110   19.4340  -32.1470 C   0  0  0  0  0  0  0  0  0  0  0  0
   -8.7730   20.1950  -32.4330 C   0  0  0  0  0  0  0  0  0  0  0  0
   -8.8120   21.5730  -32.1590 C   0  0  0  0  0  0  0  0  0  0  0  0
   -7.6780   22.1600  -31.6050 C   0  0  0  0  0  0  0  0  0  0  0  0
   -7.4350   23.4710  -31.2650 C   0  0  0  0  0  0  0  0  0  0  0  0
   -6.1280   23.4900  -30.7740 C   0  0  0  0  0  0  0  0  0  0  0  0
   -5.4510   24.6930  -30.2380 C   0  0  0  0  0  0  0  0  0  0  0  0
   -5.8780   25.2940  -29.0120 N   0  0  0  0  0  0  0  0  0  0  0  0
   -4.4730   25.1940  -30.8530 O   0  0  0  0  0  0  0  0  0  0  0  0
   -5.5940   22.2380  -30.8020 N   0  0  0  0  0  0  0  0  0  0  0  0
   -4.2550   21.8520  -30.4500 C   0  0  0  0  0  0  0  0  0  0  0  0
   -3.9630   21.6930  -29.2340 O   0  0  0  0  0  0  0  0  0  0  0  0
   -3.2210   21.6360  -31.4900 C   0  0  0  0  0  0  0  0  0  0  0  0
   -1.8580   21.7440  -31.1700 C   0  0  0  0  0  0  0  0  0  0  0  0
   -0.8800   21.5500  -32.1500 C   0  0  0  0  0  0  0  0  0  0  0  0
   -1.2440   21.2370  -33.4700 C   0  0  0  0  0  0  0  0  0  0  0  0
   -0.2070   21.0370  -34.5050 C   0  0  0  0  0  0  0  0  0  0  0  0
    0.5970   21.9620  -34.7960 O   0  0  0  0  0  0  0  0  0  0  0  0
   -0.1020   19.8210  -35.1720 O   0  0  0  0  0  0  0  0  0  0  0  0
   -2.6090   21.1170  -33.7880 C   0  0  0  0  0  0  0  0  0  0  0  0
   -3.5860   21.3100  -32.8080 C   0  0  0  0  0  0  0  0  0  0  0  0
   -6.5490   21.4370  -31.3210 C   0  0  0  0  0  0  0  0  0  0  0  0
   -6.4740   20.0690  -31.5990 C   0  0  0  0  0  0  0  0  0  0  0  0
   -6.2380   19.3947  -34.3930 H   0  0  0  0  0  0  0  0  0  0  0  0
   -4.8600   18.7837  -35.3700 H   0  0  0  0  0  0  0  0  0  0  0  0
   -6.4232   17.8988  -35.3700 H   0  0  0  0  0  0  0  0  0  0  0  0
   -3.5867   17.0160  -32.5513 H   0  0  0  0  0  0  0  0  0  0  0  0
   -3.8974   16.1729  -34.1067 H   0  0  0  0  0  0  0  0  0  0  0  0
   -3.2307   17.8409  -34.1067 H   0  0  0  0  0  0  0  0  0  0  0  0
   -8.0218   17.8148  -33.4713 H   0  0  0  0  0  0  0  0  0  0  0  0
   -8.1192   17.4276  -31.6960 H   0  0  0  0  0  0  0  0  0  0  0  0
   -9.6522   19.7021  -32.8735 H   0  0  0  0  0  0  0  0  0  0  0  0
   -9.7108   22.1691  -32.3756 H   0  0  0  0  0  0  0  0  0  0  0  0
   -8.1241   24.3232  -31.3599 H   0  0  0  0  0  0  0  0  0  0  0  0
   -6.7260   24.9570  -28.5060 H   0  0  0  0  0  0  0  0  0  0  0  0
   -5.3650   26.1180  -28.6280 H   0  0  0  0  0  0  0  0  0  0  0  0
   -1.5572   21.9833  -30.1393 H   0  0  0  0  0  0  0  0  0  0  0  0
    0.1835   21.6433  -31.8851 H   0  0  0  0  0  0  0  0  0  0  0  0
   -2.9097   20.8692  -34.8167 H   0  0  0  0  0  0  0  0  0  0  0  0
   -4.6493   21.2060  -33.0698 H   0  0  0  0  0  0  0  0  0  0  0  0
   -5.5536   19.5017  -31.3964 H   0  0  0  0  0  0  0  0  0  0  0  0
  1  2  1  0
  2  3  1  0
  2  4  1  0
  4  5  2  0
  4  6  1  0
  6  7  1  0
  7  8  2  0
  8  9  1  0
  9 10  2  0
 10 11  1  0
 11 12  2  0
 12 13  1  0
 13 14  1  0
 13 15  2  0
 12 16  1  0
 16 17  1  0
 17 18  2  0
 17 19  1  0
 19 20  2  0
 20 21  1  0
 21 22  2  0
 22 23  1  0
 23 24  2  0
 23 25  1  0
 22 26  1  0
 26 27  2  0
 16 28  1  0
 28 29  2  0
 29  7  1  0
 28 10  1  0
 27 19  1  0
  1 30  1  0
  1 31  1  0
  1 32  1  0
  3 33  1  0
  3 34  1  0
  3 35  1  0
  6 36  1  0
  6 37  1  0
  8 38  1  0
  9 39  1  0
 11 40  1  0
 14 41  1  0
 14 42  1  0
 20 43  1  0
 21 44  1  0
 26 45  1  0
 27 46  1  0
 29 47  1  0
M  CHG  1  25  -1
M  END
>  <UniqueID>  (51) 
50

>  <SMILES>  (51) 
CN(C)C(=O)Cc1ccc2cc(C(N)=O)n(C(=O)c3ccc(C(=O)[O-])cc3)c2c1

>  <Energy>  (51) 
87.85628990670955

>  <Genealogy>  (51) 
CN(C)C(=O)Cc1ccc2cc(C(N)=O)n(C(=O)c3ccc(C(=O)[O-])cc3)c2c1 (protonated)
CN(C)C(=O)Cc1ccc2cc(C(N)=O)n(C(=O)c3ccc(C(=O)[O-])cc3)c2c1 (3D coordinates assigned)
CN(C)C(=O)Cc1ccc2cc(C(N)=O)n(C(=O)c3ccc(C(=O)[O-])cc3)c2c1 (optimized conformer: 87.85628990670955 kcal/mol)

>  <smiles>  (51) 
CN(C)C(=O)Cc1ccc2cc(C(N)=O)n(C(=O)c3ccc(C(=O)O)cc3)c2c1

>  <score_type>  (51) 
oracle

>  <origin>  (51) 
adg

>  <m_score__min__energy>  (51) 
-10.75

>  <m_primary>  (51) 
energy

$$$$
51:0
     RDKit          3D

 36 37  0  0  0  0  0  0  0  0999 V2000
   -9.2340   20.7250  -31.9510 C   0  0  0  0  0  0  0  0  0  0  0  0
   -8.0940   19.9850  -32.6660 C   0  0  0  0  0  0  0  0  0  0  0  0
   -7.8120   18.6540  -31.9560 C   0  0  0  0  0  0  0  0  0  0  0  0
   -6.8020   20.8340  -32.7260 C   0  0  0  0  0  0  0  0  0  0  0  0
   -5.5410   20.0440  -33.1190 C   0  0  0  0  0  0  0  0  0  0  0  0
   -4.2980   20.5920  -32.4650 C   0  0  0  0  0  0  0  0  0  0  0  0
   -3.0780   19.8720  -32.5320 C   0  0  0  0  0  0  0  0  0  0  0  0
   -1.9210   20.3680  -31.9120 C   0  0  0  0  0  0  0  0  0  0  0  0
   -2.0120   21.5760  -31.2280 C   0  0  0  0  0  0  0  0  0  0  0  0
   -1.0440   22.2910  -30.5610 C   0  0  0  0  0  0  0  0  0  0  0  0
   -1.6920   23.4240  -30.0730 C   0  0  0  0  0  0  0  0  0  0  0  0
   -1.0320   24.4270  -29.2120 C   0  0  0  0  0  0  0  0  0  0  0  0
   -1.6410   25.6910  -28.9600 N   0  0  0  0  0  0  0  0  0  0  0  0
    0.0600   24.1460  -28.6500 O   0  0  0  0  0  0  0  0  0  0  0  0
   -3.0070   23.4160  -30.4320 N   0  0  0  0  0  0  0  0  0  0  0  0
   -3.9860   24.4430  -30.2050 C   0  0  0  0  0  0  0  0  0  0  0  0
   -4.9690   24.2300  -29.4480 O   0  0  0  0  0  0  0  0  0  0  0  0
   -3.8720   25.6730  -30.8420 O   0  0  0  0  0  0  0  0  0  0  0  0
   -3.1880   22.2760  -31.1360 C   0  0  0  0  0  0  0  0  0  0  0  0
   -4.3540   21.8150  -31.7590 C   0  0  0  0  0  0  0  0  0  0  0  0
   -9.1012   20.6388  -30.8625 H   0  0  0  0  0  0  0  0  0  0  0  0
   -9.2197   21.7865  -32.2392 H   0  0  0  0  0  0  0  0  0  0  0  0
  -10.1977   20.2798  -32.2392 H   0  0  0  0  0  0  0  0  0  0  0  0
   -8.4156   19.7950  -33.7006 H   0  0  0  0  0  0  0  0  0  0  0  0
   -7.8441   18.8054  -30.8669 H   0  0  0  0  0  0  0  0  0  0  0  0
   -8.5735   17.9151  -32.2461 H   0  0  0  0  0  0  0  0  0  0  0  0
   -6.8163   18.2875  -32.2461 H   0  0  0  0  0  0  0  0  0  0  0  0
   -6.9506   21.6351  -33.4650 H   0  0  0  0  0  0  0  0  0  0  0  0
   -6.6294   21.2161  -31.7090 H   0  0  0  0  0  0  0  0  0  0  0  0
   -5.6699   18.9956  -32.8119 H   0  0  0  0  0  0  0  0  0  0  0  0
   -5.4149   20.1298  -34.2084 H   0  0  0  0  0  0  0  0  0  0  0  0
   -3.0383   18.9161  -33.0749 H   0  0  0  0  0  0  0  0  0  0  0  0
   -0.9700   19.8178  -31.9653 H   0  0  0  0  0  0  0  0  0  0  0  0
    0.0163   22.0248  -30.4389 H   0  0  0  0  0  0  0  0  0  0  0  0
   -2.6740   25.8170  -29.0490 H   0  0  0  0  0  0  0  0  0  0  0  0
   -5.2899   22.3901  -31.7005 H   0  0  0  0  0  0  0  0  0  0  0  0
  1  2  1  0
  2  3  1  0
  2  4  1  0
  4  5  1  0
  5  6  1  0
  6  7  2  0
  7  8  1  0
  8  9  2  0
  9 10  1  0
 10 11  2  0
 11 12  1  0
 12 13  1  0
 12 14  2  0
 11 15  1  0
 15 16  1  0
 16 17  2  0
 16 18  1  0
 15 19  1  0
 19 20  2  0
 20  6  1  0
 19  9  1  0
  1 21  1  0
  1 22  1  0
  1 23  1  0
  2 24  1  0
  3 25  1  0
  3 26  1  0
  3 27  1  0
  4 28  1  0
  4 29  1  0
  5 30  1  0
  5 31  1  0
  7 32  1  0
  8 33  1  0
 10 34  1  0
 13 35  1  0
 20 36  1  0
M  CHG  2  13  -1  18  -1
M  END
>  <UniqueID>  (52) 
51

>  <SMILES>  (52) 
CC(C)CCc1ccc2cc(C([NH-])=O)n(C(=O)[O-])c2c1

>  <Energy>  (52) 
68.57778632733296

>  <Genealogy>  (52) 
CC(C)CCc1ccc2cc(C([NH-])=O)n(C(=O)[O-])c2c1 (protonated)
CC(C)CCc1ccc2cc(C([NH-])=O)n(C(=O)[O-])c2c1 (3D coordinates assigned)
CC(C)CCc1ccc2cc(C([NH-])=O)n(C(=O)[O-])c2c1 (optimized conformer: 68.57778632733296 kcal/mol)

>  <smiles>  (52) 
CC(C)CCc1ccc2cc(C(N)=O)n(C(=O)O)c2c1

>  <score_type>  (52) 
oracle

>  <origin>  (52) 
adg

>  <m_score__min__energy>  (52) 
-11.35

>  <m_primary>  (52) 
energy

$$$$
52:0
     RDKit          3D

 48 50  0  0  0  0  0  0  0  0999 V2000
   -2.3120   20.0930  -33.7950 C   0  0  0  0  0  0  0  0  0  0  0  0
   -1.9190   21.0950  -32.7210 C   0  0  0  0  0  0  0  0  0  0  0  0
   -2.8280   22.1900  -32.7350 O   0  0  0  0  0  0  0  0  0  0  0  0
   -3.4650   22.6550  -31.5810 C   0  0  0  0  0  0  0  0  0  0  0  0
   -2.7870   22.9890  -30.5700 O   0  0  0  0  0  0  0  0  0  0  0  0
   -4.8980   22.7140  -31.5320 N   0  0  0  0  0  0  0  0  0  0  0  0
   -5.6810   23.7810  -31.2030 C   0  0  0  0  0  0  0  0  0  0  0  0
   -5.2080   25.0780  -30.6730 C   0  0  0  0  0  0  0  0  0  0  0  0
   -3.8210   25.3260  -30.4680 N   0  0  0  0  0  0  0  0  0  0  0  0
   -6.0450   25.9650  -30.3540 O   0  0  0  0  0  0  0  0  0  0  0  0
   -7.0290   23.4690  -31.3750 C   0  0  0  0  0  0  0  0  0  0  0  0
   -7.0470   22.1670  -31.8220 C   0  0  0  0  0  0  0  0  0  0  0  0
   -8.1210   21.3580  -32.1780 C   0  0  0  0  0  0  0  0  0  0  0  0
   -7.8450   20.0640  -32.6530 C   0  0  0  0  0  0  0  0  0  0  0  0
   -6.5060   19.6030  -32.7710 C   0  0  0  0  0  0  0  0  0  0  0  0
   -6.2320   18.2850  -33.2940 N   0  0  0  0  0  0  0  0  0  0  0  0
   -5.1540   18.0940  -34.2780 C   0  0  0  0  0  0  0  0  0  0  0  0
   -4.5180   16.6890  -34.1830 C   0  0  0  0  0  0  0  0  0  0  0  0
   -5.4220   15.6560  -33.6220 N   0  0  0  0  0  0  0  0  0  0  0  0
   -5.0230   14.0730  -34.2510 S   0  0  0  0  0  0  0  0  0  0  0  0
   -3.6750   14.1490  -35.4230 C   0  0  0  0  0  0  0  0  0  0  0  0
   -6.2310   13.4960  -34.9400 O   0  0  0  0  0  0  0  0  0  0  0  0
   -4.6360   13.1660  -33.1150 O   0  0  0  0  0  0  0  0  0  0  0  0
   -6.8390   15.9570  -33.8590 C   0  0  0  0  0  0  0  0  0  0  0  0
   -7.2080   17.2080  -33.0640 C   0  0  0  0  0  0  0  0  0  0  0  0
   -5.4440   20.4590  -32.3930 C   0  0  0  0  0  0  0  0  0  0  0  0
   -5.7500   21.7340  -31.9070 C   0  0  0  0  0  0  0  0  0  0  0  0
   -2.6742   19.1694  -33.3199 H   0  0  0  0  0  0  0  0  0  0  0  0
   -3.1092   20.5203  -34.4211 H   0  0  0  0  0  0  0  0  0  0  0  0
   -1.4369   19.8644  -34.4211 H   0  0  0  0  0  0  0  0  0  0  0  0
   -1.9492   20.6066  -31.7358 H   0  0  0  0  0  0  0  0  0  0  0  0
   -0.9011   21.4623  -32.9185 H   0  0  0  0  0  0  0  0  0  0  0  0
   -3.1140   25.0470  -31.1840 H   0  0  0  0  0  0  0  0  0  0  0  0
   -7.8939   24.1237  -31.1924 H   0  0  0  0  0  0  0  0  0  0  0  0
   -9.1560   21.7201  -32.0904 H   0  0  0  0  0  0  0  0  0  0  0  0
   -8.6753   19.4005  -32.9367 H   0  0  0  0  0  0  0  0  0  0  0  0
   -5.5688   18.2273  -35.2880 H   0  0  0  0  0  0  0  0  0  0  0  0
   -4.3688   18.8347  -34.0662 H   0  0  0  0  0  0  0  0  0  0  0  0
   -4.2190   16.3753  -35.1940 H   0  0  0  0  0  0  0  0  0  0  0  0
   -3.6630   16.7718  -33.4959 H   0  0  0  0  0  0  0  0  0  0  0  0
   -2.7198   14.2029  -34.8802 H   0  0  0  0  0  0  0  0  0  0  0  0
   -3.6874   13.2487  -36.0550 H   0  0  0  0  0  0  0  0  0  0  0  0
   -3.7885   15.0422  -36.0550 H   0  0  0  0  0  0  0  0  0  0  0  0
   -7.0060   16.1361  -34.9314 H   0  0  0  0  0  0  0  0  0  0  0  0
   -7.4631   15.1094  -33.5393 H   0  0  0  0  0  0  0  0  0  0  0  0
   -8.2046   17.5525  -33.3773 H   0  0  0  0  0  0  0  0  0  0  0  0
   -7.2067   16.9562  -31.9932 H   0  0  0  0  0  0  0  0  0  0  0  0
   -4.3986   20.1278  -32.4798 H   0  0  0  0  0  0  0  0  0  0  0  0
  1  2  1  0
  2  3  1  0
  3  4  1  0
  4  5  2  0
  4  6  1  0
  6  7  1  0
  7  8  1  0
  8  9  1  0
  8 10  2  0
  7 11  2  0
 11 12  1  0
 12 13  2  0
 13 14  1  0
 14 15  2  0
 15 16  1  0
 16 17  1  0
 17 18  1  0
 18 19  1  0
 19 20  1  0
 20 21  1  0
 20 22  2  0
 20 23  2  0
 19 24  1  0
 24 25  1  0
 15 26  1  0
 26 27  2  0
 27  6  1  0
 27 12  1  0
 25 16  1  0
  1 28  1  0
  1 29  1  0
  1 30  1  0
  2 31  1  0
  2 32  1  0
  9 33  1  0
 11 34  1  0
 13 35  1  0
 14 36  1  0
 17 37  1  0
 17 38  1  0
 18 39  1  0
 18 40  1  0
 21 41  1  0
 21 42  1  0
 21 43  1  0
 24 44  1  0
 24 45  1  0
 25 46  1  0
 25 47  1  0
 26 48  1  0
M  CHG  1   9  -1
M  END
>  <UniqueID>  (53) 
52

>  <SMILES>  (53) 
CCOC(=O)n1c(C([NH-])=O)cc2ccc(N3CCN(S(C)(=O)=O)CC3)cc21

>  <Energy>  (53) 
86.63707353162116

>  <Genealogy>  (53) 
CCOC(=O)n1c(C([NH-])=O)cc2ccc(N3CCN(S(C)(=O)=O)CC3)cc21 (protonated)
CCOC(=O)n1c(C([NH-])=O)cc2ccc(N3CCN(S(C)(=O)=O)CC3)cc21 (3D coordinates assigned)
CCOC(=O)n1c(C([NH-])=O)cc2ccc(N3CCN(S(C)(=O)=O)CC3)cc21 (nonaromatic ring conformer: 86.63707353162116 kcal/mol)

>  <smiles>  (53) 
CCOC(=O)n1c(C(N)=O)cc2ccc(N3CCN(S(C)(=O)=O)CC3)cc21

>  <score_type>  (53) 
oracle

>  <origin>  (53) 
adg

>  <m_score__min__energy>  (53) 
-10.380000000000001

>  <m_primary>  (53) 
energy

$$$$
53:0
     RDKit          3D

 31 33  0  0  0  0  0  0  0  0999 V2000
   -1.6420   25.6860  -28.9310 N   0  0  0  0  0  0  0  0  0  0  0  0
   -1.0820   24.4000  -29.1810 C   0  0  0  0  0  0  0  0  0  0  0  0
   -0.0060   24.0750  -28.6120 O   0  0  0  0  0  0  0  0  0  0  0  0
   -1.7750   23.4250  -30.0490 C   0  0  0  0  0  0  0  0  0  0  0  0
   -1.1740   22.2570  -30.5150 C   0  0  0  0  0  0  0  0  0  0  0  0
   -2.1620   21.5880  -31.2010 C   0  0  0  0  0  0  0  0  0  0  0  0
   -2.1150   20.3720  -31.8750 C   0  0  0  0  0  0  0  0  0  0  0  0
   -3.2830   19.9310  -32.5190 C   0  0  0  0  0  0  0  0  0  0  0  0
   -4.4650   20.7150  -32.4930 C   0  0  0  0  0  0  0  0  0  0  0  0
   -5.6620   20.2420  -33.1410 N   0  0  0  0  0  0  0  0  0  0  0  0
   -6.7260   20.0960  -32.1370 C   0  0  0  0  0  0  0  0  0  0  0  0
   -7.4860   18.7780  -32.1810 C   0  0  0  0  0  0  0  0  0  0  0  0
   -8.1270   20.0450  -32.7270 C   0  0  0  0  0  0  0  0  0  0  0  0
   -4.4750   21.9420  -31.7890 C   0  0  0  0  0  0  0  0  0  0  0  0
   -3.3020   22.3470  -31.1400 C   0  0  0  0  0  0  0  0  0  0  0  0
   -3.0810   23.4800  -30.4380 N   0  0  0  0  0  0  0  0  0  0  0  0
   -4.0170   24.5510  -30.2340 C   0  0  0  0  0  0  0  0  0  0  0  0
   -3.8670   25.6500  -30.8280 O   0  0  0  0  0  0  0  0  0  0  0  0
   -5.1130   24.3730  -29.3980 O   0  0  0  0  0  0  0  0  0  0  0  0
   -2.6720   25.8450  -28.9950 H   0  0  0  0  0  0  0  0  0  0  0  0
   -0.1319   21.9378  -30.3662 H   0  0  0  0  0  0  0  0  0  0  0  0
   -1.1919   19.7743  -31.9028 H   0  0  0  0  0  0  0  0  0  0  0  0
   -3.2810   18.9672  -33.0492 H   0  0  0  0  0  0  0  0  0  0  0  0
   -5.9750   20.9400  -33.8530 H   0  0  0  0  0  0  0  0  0  0  0  0
   -5.4610   19.3470  -33.6480 H   0  0  0  0  0  0  0  0  0  0  0  0
   -6.2245   20.6720  -31.3454 H   0  0  0  0  0  0  0  0  0  0  0  0
   -7.1672   17.9819  -32.8699 H   0  0  0  0  0  0  0  0  0  0  0  0
   -7.7720   18.0197  -31.4373 H   0  0  0  0  0  0  0  0  0  0  0  0
   -8.2719   20.1649  -33.8108 H   0  0  0  0  0  0  0  0  0  0  0  0
   -9.0689   20.5821  -32.5415 H   0  0  0  0  0  0  0  0  0  0  0  0
   -5.3822   22.5630  -31.7523 H   0  0  0  0  0  0  0  0  0  0  0  0
  1  2  1  0
  2  3  2  0
  2  4  1  0
  4  5  2  0
  5  6  1  0
  6  7  2  0
  7  8  1  0
  8  9  2  0
  9 10  1  0
 10 11  1  0
 11 12  1  0
 12 13  1  0
  9 14  1  0
 14 15  2  0
 15 16  1  0
 16 17  1  0
 17 18  2  0
 17 19  1  0
 16  4  1  0
 15  6  1  0
 13 11  1  0
  1 20  1  0
  5 21  1  0
  7 22  1  0
  8 23  1  0
 10 24  1  0
 10 25  1  0
 11 26  1  0
 12 27  1  0
 12 28  1  0
 13 29  1  0
 13 30  1  0
 14 31  1  0
M  CHG  3   1  -1  10   1  19  -1
M  END
>  <UniqueID>  (54) 
53

>  <SMILES>  (54) 
[NH-]C(=O)c1cc2ccc([NH2+]C3CC3)cc2n1C(=O)[O-]

>  <Energy>  (54) 
338.2838582552041

>  <Genealogy>  (54) 
[NH-]C(=O)c1cc2ccc([NH2+]C3CC3)cc2n1C(=O)[O-] (protonated)
[NH-]C(=O)c1cc2ccc([NH2+]C3CC3)cc2n1C(=O)[O-] (3D coordinates assigned)
[NH-]C(=O)c1cc2ccc([NH2+]C3CC3)cc2n1C(=O)[O-] (nonaromatic ring conformer: 338.2838582552041 kcal/mol)

>  <smiles>  (54) 
NC(=O)c1cc2ccc(NC3CC3)cc2n1C(=O)O

>  <score_type>  (54) 
oracle

>  <origin>  (54) 
adg

>  <m_score__min__energy>  (54) 
-10

>  <m_primary>  (54) 
energy

$$$$
54:0
     RDKit          3D

 28 29  0  0  0  0  0  0  0  0999 V2000
   -2.0290   20.4530  -34.0040 N   0  0  0  0  0  0  0  0  0  0  0  0
   -2.7510   19.9970  -32.8620 C   0  0  0  0  0  0  0  0  0  0  0  0
   -2.1470   19.3560  -31.9620 O   0  0  0  0  0  0  0  0  0  0  0  0
   -4.1550   20.2810  -32.7320 N   0  0  0  0  0  0  0  0  0  0  0  0
   -5.1750   19.7790  -33.4840 C   0  0  0  0  0  0  0  0  0  0  0  0
   -5.0650   18.6950  -34.4800 C   0  0  0  0  0  0  0  0  0  0  0  0
   -3.7920   18.1990  -34.8940 N   0  0  0  0  0  0  0  0  0  0  0  0
   -6.1140   18.1610  -34.9300 O   0  0  0  0  0  0  0  0  0  0  0  0
   -6.3810   20.3890  -33.1480 C   0  0  0  0  0  0  0  0  0  0  0  0
   -6.0710   21.2790  -32.1460 C   0  0  0  0  0  0  0  0  0  0  0  0
   -6.8920   22.1570  -31.4450 C   0  0  0  0  0  0  0  0  0  0  0  0
   -6.2980   22.9880  -30.4810 C   0  0  0  0  0  0  0  0  0  0  0  0
   -4.9000   22.9390  -30.2500 C   0  0  0  0  0  0  0  0  0  0  0  0
   -4.2790   23.8190  -29.2020 C   0  0  0  0  0  0  0  0  0  0  0  0
   -3.5040   24.9210  -29.8500 C   0  0  0  0  0  0  0  0  0  0  0  0
   -3.9510   25.4870  -30.8830 O   0  0  0  0  0  0  0  0  0  0  0  0
   -2.2650   25.2910  -29.3440 O   0  0  0  0  0  0  0  0  0  0  0  0
   -4.0990   22.0280  -30.9740 C   0  0  0  0  0  0  0  0  0  0  0  0
   -4.7220   21.1970  -31.9140 C   0  0  0  0  0  0  0  0  0  0  0  0
   -2.4260   21.1870  -34.6310 H   0  0  0  0  0  0  0  0  0  0  0  0
   -3.7330   17.4580  -35.6270 H   0  0  0  0  0  0  0  0  0  0  0  0
   -2.9140   18.5050  -34.4210 H   0  0  0  0  0  0  0  0  0  0  0  0
   -7.3705   20.1995  -33.5897 H   0  0  0  0  0  0  0  0  0  0  0  0
   -7.9738   22.1990  -31.6400 H   0  0  0  0  0  0  0  0  0  0  0  0
   -6.9227   23.6827  -29.9003 H   0  0  0  0  0  0  0  0  0  0  0  0
   -5.0717   24.2520  -28.5742 H   0  0  0  0  0  0  0  0  0  0  0  0
   -3.5985   23.2161  -28.5827 H   0  0  0  0  0  0  0  0  0  0  0  0
   -3.0136   21.9726  -30.8039 H   0  0  0  0  0  0  0  0  0  0  0  0
  1  2  1  0
  2  3  2  0
  2  4  1  0
  4  5  1  0
  5  6  1  0
  6  7  1  0
  6  8  2  0
  5  9  2  0
  9 10  1  0
 10 11  2  0
 11 12  1  0
 12 13  2  0
 13 14  1  0
 14 15  1  0
 15 16  2  0
 15 17  1  0
 13 18  1  0
 18 19  2  0
 19  4  1  0
 19 10  1  0
  1 20  1  0
  7 21  1  0
  7 22  1  0
  9 23  1  0
 11 24  1  0
 12 25  1  0
 14 26  1  0
 14 27  1  0
 18 28  1  0
M  CHG  2   1  -1  17  -1
M  END
>  <UniqueID>  (55) 
54

>  <SMILES>  (55) 
[NH-]C(=O)n1c(C(N)=O)cc2ccc(CC(=O)[O-])cc21

>  <Energy>  (55) 
66.3884843054363

>  <Genealogy>  (55) 
[NH-]C(=O)n1c(C(N)=O)cc2ccc(CC(=O)[O-])cc21 (protonated)
[NH-]C(=O)n1c(C(N)=O)cc2ccc(CC(=O)[O-])cc21 (3D coordinates assigned)
[NH-]C(=O)n1c(C(N)=O)cc2ccc(CC(=O)[O-])cc21 (optimized conformer: 66.3884843054363 kcal/mol)

>  <smiles>  (55) 
NC(=O)c1cc2ccc(CC(=O)O)cc2n1C(N)=O

>  <score_type>  (55) 
oracle

>  <origin>  (55) 
adg

>  <m_score__min__energy>  (55) 
-9.1899999999999995

>  <m_primary>  (55) 
energy

$$$$
55:0
     RDKit          3D

 34 35  0  0  0  0  0  0  0  0999 V2000
   -4.8080   17.5840  -34.0800 C   0  0  0  0  0  0  0  0  0  0  0  0
   -4.9820   17.3870  -32.6830 O   0  0  0  0  0  0  0  0  0  0  0  0
   -6.1690   17.7140  -32.0200 C   0  0  0  0  0  0  0  0  0  0  0  0
   -6.3330   17.4110  -30.8060 O   0  0  0  0  0  0  0  0  0  0  0  0
   -7.2720   18.3840  -32.7740 C   0  0  0  0  0  0  0  0  0  0  0  0
   -7.4020   19.8140  -32.3300 C   0  0  0  0  0  0  0  0  0  0  0  0
   -8.6690   20.4470  -32.3330 C   0  0  0  0  0  0  0  0  0  0  0  0
   -8.8050   21.7780  -31.9030 C   0  0  0  0  0  0  0  0  0  0  0  0
   -7.6640   22.4380  -31.4540 C   0  0  0  0  0  0  0  0  0  0  0  0
   -7.5060   23.7350  -31.0230 C   0  0  0  0  0  0  0  0  0  0  0  0
   -6.1530   23.8580  -30.7190 C   0  0  0  0  0  0  0  0  0  0  0  0
   -5.5460   25.0980  -30.1920 C   0  0  0  0  0  0  0  0  0  0  0  0
   -4.2560   25.5350  -30.6230 N   0  0  0  0  0  0  0  0  0  0  0  0
   -6.1550   25.7580  -29.3090 O   0  0  0  0  0  0  0  0  0  0  0  0
   -5.4970   22.6880  -30.9560 N   0  0  0  0  0  0  0  0  0  0  0  0
   -4.0800   22.4590  -30.8770 C   0  0  0  0  0  0  0  0  0  0  0  0
   -3.5250   21.3130  -30.0930 C   0  0  0  0  0  0  0  0  0  0  0  0
   -3.2870   23.2420  -31.4630 O   0  0  0  0  0  0  0  0  0  0  0  0
   -6.4360   21.8280  -31.4120 C   0  0  0  0  0  0  0  0  0  0  0  0
   -6.2670   20.5130  -31.8610 C   0  0  0  0  0  0  0  0  0  0  0  0
   -4.0884   18.3987  -34.2486 H   0  0  0  0  0  0  0  0  0  0  0  0
   -4.4273   16.6583  -34.5362 H   0  0  0  0  0  0  0  0  0  0  0  0
   -5.7736   17.8474  -34.5362 H   0  0  0  0  0  0  0  0  0  0  0  0
   -7.0473   18.3556  -33.8504 H   0  0  0  0  0  0  0  0  0  0  0  0
   -8.2171   17.8568  -32.5766 H   0  0  0  0  0  0  0  0  0  0  0  0
   -9.5548   19.8917  -32.6751 H   0  0  0  0  0  0  0  0  0  0  0  0
   -9.7822   22.2827  -31.9206 H   0  0  0  0  0  0  0  0  0  0  0  0
   -8.2826   24.5092  -30.9370 H   0  0  0  0  0  0  0  0  0  0  0  0
   -3.6430   24.9220  -31.2050 H   0  0  0  0  0  0  0  0  0  0  0  0
   -3.8680   26.4410  -30.2780 H   0  0  0  0  0  0  0  0  0  0  0  0
   -3.6259   21.5214  -29.0176 H   0  0  0  0  0  0  0  0  0  0  0  0
   -4.0787   20.3958  -30.3423 H   0  0  0  0  0  0  0  0  0  0  0  0
   -2.4621   21.1788  -30.3423 H   0  0  0  0  0  0  0  0  0  0  0  0
   -5.2759   20.0359  -31.8491 H   0  0  0  0  0  0  0  0  0  0  0  0
  1  2  1  0
  2  3  1  0
  3  4  2  0
  3  5  1  0
  5  6  1  0
  6  7  2  0
  7  8  1  0
  8  9  2  0
  9 10  1  0
 10 11  2  0
 11 12  1  0
 12 13  1  0
 12 14  2  0
 11 15  1  0
 15 16  1  0
 16 17  1  0
 16 18  2  0
 15 19  1  0
 19 20  2  0
 20  6  1  0
 19  9  1  0
  1 21  1  0
  1 22  1  0
  1 23  1  0
  5 24  1  0
  5 25  1  0
  7 26  1  0
  8 27  1  0
 10 28  1  0
 13 29  1  0
 13 30  1  0
 17 31  1  0
 17 32  1  0
 17 33  1  0
 20 34  1  0
M  END
>  <UniqueID>  (56) 
55

>  <SMILES>  (56) 
COC(=O)Cc1ccc2cc(C(N)=O)n(C(C)=O)c2c1

>  <Energy>  (56) 
69.08028523900907

>  <Genealogy>  (56) 
COC(=O)Cc1ccc2cc(C(N)=O)n(C(C)=O)c2c1 (3D coordinates assigned)
COC(=O)Cc1ccc2cc(C(N)=O)n(C(C)=O)c2c1 (optimized conformer: 69.08028523900907 kcal/mol)

>  <smiles>  (56) 
COC(=O)Cc1ccc2cc(C(N)=O)n(C(C)=O)c2c1

>  <score_type>  (56) 
oracle

>  <origin>  (56) 
adg

>  <m_score__min__energy>  (56) 
-7.5899999999999999

>  <m_primary>  (56) 
energy

$$$$
56:0
     RDKit          3D

 36 37  0  0  0  0  0  0  0  0999 V2000
   -3.1670   22.5320  -30.3400 C   0  0  0  0  0  0  0  0  0  0  0  0
   -4.1150   22.4070  -31.4890 C   0  0  0  0  0  0  0  0  0  0  0  0
   -3.6730   22.0700  -32.6200 O   0  0  0  0  0  0  0  0  0  0  0  0
   -5.5020   22.7450  -31.3390 N   0  0  0  0  0  0  0  0  0  0  0  0
   -6.0450   23.9480  -30.9970 C   0  0  0  0  0  0  0  0  0  0  0  0
   -5.2960   25.1410  -30.5540 C   0  0  0  0  0  0  0  0  0  0  0  0
   -3.8920   25.2480  -30.7720 N   0  0  0  0  0  0  0  0  0  0  0  0
   -5.8960   26.0630  -29.9390 O   0  0  0  0  0  0  0  0  0  0  0  0
   -7.4360   23.8850  -31.0460 C   0  0  0  0  0  0  0  0  0  0  0  0
   -7.7320   22.5930  -31.4200 C   0  0  0  0  0  0  0  0  0  0  0  0
   -8.9620   21.9780  -31.6310 C   0  0  0  0  0  0  0  0  0  0  0  0
   -8.9640   20.6320  -32.0360 C   0  0  0  0  0  0  0  0  0  0  0  0
   -7.7460   19.9310  -32.2230 C   0  0  0  0  0  0  0  0  0  0  0  0
   -7.7570   18.4990  -32.6900 C   0  0  0  0  0  0  0  0  0  0  0  0
   -6.3660   18.0240  -33.1420 C   0  0  0  0  0  0  0  0  0  0  0  0
   -5.7490   18.8700  -34.2720 C   0  0  0  0  0  0  0  0  0  0  0  0
   -4.5540   19.5940  -33.8330 N   0  0  0  0  0  0  0  0  0  0  0  0
   -6.5170   20.5900  -32.0000 C   0  0  0  0  0  0  0  0  0  0  0  0
   -6.5460   21.9260  -31.5870 C   0  0  0  0  0  0  0  0  0  0  0  0
   -3.7248   22.4585  -29.3948 H   0  0  0  0  0  0  0  0  0  0  0  0
   -2.4219   21.7243  -30.3899 H   0  0  0  0  0  0  0  0  0  0  0  0
   -2.6567   23.5052  -30.3899 H   0  0  0  0  0  0  0  0  0  0  0  0
   -3.4900   26.0490  -31.3090 H   0  0  0  0  0  0  0  0  0  0  0  0
   -8.1475   24.6959  -30.8313 H   0  0  0  0  0  0  0  0  0  0  0  0
   -9.9035   22.5279  -31.4854 H   0  0  0  0  0  0  0  0  0  0  0  0
   -9.9205   20.1172  -32.2096 H   0  0  0  0  0  0  0  0  0  0  0  0
   -8.0981   17.8593  -31.8627 H   0  0  0  0  0  0  0  0  0  0  0  0
   -8.4340   18.4312  -33.5543 H   0  0  0  0  0  0  0  0  0  0  0  0
   -5.6900   18.0601  -32.2750 H   0  0  0  0  0  0  0  0  0  0  0  0
   -6.4922   17.0064  -33.5403 H   0  0  0  0  0  0  0  0  0  0  0  0
   -5.4741   18.2040  -35.1032 H   0  0  0  0  0  0  0  0  0  0  0  0
   -6.4977   19.6129  -34.5844 H   0  0  0  0  0  0  0  0  0  0  0  0
   -4.3060   19.3270  -32.8540 H   0  0  0  0  0  0  0  0  0  0  0  0
   -4.7110   20.6260  -33.8940 H   0  0  0  0  0  0  0  0  0  0  0  0
   -3.7550   19.3380  -34.4560 H   0  0  0  0  0  0  0  0  0  0  0  0
   -5.5612   20.0659  -32.1474 H   0  0  0  0  0  0  0  0  0  0  0  0
  1  2  1  0
  2  3  2  0
  2  4  1  0
  4  5  1  0
  5  6  1  0
  6  7  1  0
  6  8  2  0
  5  9  2  0
  9 10  1  0
 10 11  2  0
 11 12  1  0
 12 13  2  0
 13 14  1  0
 14 15  1  0
 15 16  1  0
 16 17  1  0
 13 18  1  0
 18 19  2  0
 19  4  1  0
 19 10  1  0
  1 20  1  0
  1 21  1  0
  1 22  1  0
  7 23  1  0
  9 24  1  0
 11 25  1  0
 12 26  1  0
 14 27  1  0
 14 28  1  0
 15 29  1  0
 15 30  1  0
 16 31  1  0
 16 32  1  0
 17 33  1  0
 17 34  1  0
 17 35  1  0
 18 36  1  0
M  CHG  2   7  -1  17   1
M  END
>  <UniqueID>  (57) 
56

>  <SMILES>  (57) 
CC(=O)n1c(C([NH-])=O)cc2ccc(CCC[NH3+])cc21

>  <Energy>  (57) 
70.33875539566023

>  <Genealogy>  (57) 
CC(=O)n1c(C([NH-])=O)cc2ccc(CCC[NH3+])cc21 (protonated)
CC(=O)n1c(C([NH-])=O)cc2ccc(CCC[NH3+])cc21 (3D coordinates assigned)
CC(=O)n1c(C([NH-])=O)cc2ccc(CCC[NH3+])cc21 (optimized conformer: 70.33875539566023 kcal/mol)

>  <smiles>  (57) 
CC(=O)n1c(C(N)=O)cc2ccc(CCCN)cc21

>  <score_type>  (57) 
oracle

>  <origin>  (57) 
adg

>  <m_score__min__energy>  (57) 
-9.6600000000000001

>  <m_primary>  (57) 
energy

$$$$
57:0
     RDKit          3D

 28 29  0  0  0  0  0  0  0  0999 V2000
   -3.5300   21.6480  -29.6840 C   0  0  0  0  0  0  0  0  0  0  0  0
   -3.9750   22.5400  -30.7980 C   0  0  0  0  0  0  0  0  0  0  0  0
   -3.1060   23.1180  -31.5070 O   0  0  0  0  0  0  0  0  0  0  0  0
   -5.3700   22.7330  -31.0840 N   0  0  0  0  0  0  0  0  0  0  0  0
   -6.1120   23.8490  -30.8370 C   0  0  0  0  0  0  0  0  0  0  0  0
   -5.5900   25.1440  -30.3540 C   0  0  0  0  0  0  0  0  0  0  0  0
   -4.2340   25.5330  -30.5870 N   0  0  0  0  0  0  0  0  0  0  0  0
   -6.3670   25.9420  -29.7660 O   0  0  0  0  0  0  0  0  0  0  0  0
   -7.4550   23.6200  -31.1200 C   0  0  0  0  0  0  0  0  0  0  0  0
   -7.5160   22.3160  -31.5590 C   0  0  0  0  0  0  0  0  0  0  0  0
   -8.6150   21.5530  -31.9380 C   0  0  0  0  0  0  0  0  0  0  0  0
   -8.3960   20.2110  -32.2890 C   0  0  0  0  0  0  0  0  0  0  0  0
   -7.0900   19.6570  -32.2580 C   0  0  0  0  0  0  0  0  0  0  0  0
   -6.8780   18.1970  -32.5700 C   0  0  0  0  0  0  0  0  0  0  0  0
   -6.5070   18.0650  -33.8940 F   0  0  0  0  0  0  0  0  0  0  0  0
   -8.0410   17.4780  -32.3520 F   0  0  0  0  0  0  0  0  0  0  0  0
   -5.8840   17.6660  -31.7670 F   0  0  0  0  0  0  0  0  0  0  0  0
   -6.0030   20.4590  -31.8390 C   0  0  0  0  0  0  0  0  0  0  0  0
   -6.2460   21.8010  -31.5220 C   0  0  0  0  0  0  0  0  0  0  0  0
   -3.7659   22.1208  -28.7192 H   0  0  0  0  0  0  0  0  0  0  0  0
   -4.0520   20.6825  -29.7565 H   0  0  0  0  0  0  0  0  0  0  0  0
   -2.4447   21.4844  -29.7565 H   0  0  0  0  0  0  0  0  0  0  0  0
   -3.6190   24.9880  -31.2290 H   0  0  0  0  0  0  0  0  0  0  0  0
   -3.8730   26.4280  -30.1910 H   0  0  0  0  0  0  0  0  0  0  0  0
   -8.2896   24.3289  -31.0154 H   0  0  0  0  0  0  0  0  0  0  0  0
   -9.6253   21.9874  -31.9621 H   0  0  0  0  0  0  0  0  0  0  0  0
   -9.2464   19.5822  -32.5914 H   0  0  0  0  0  0  0  0  0  0  0  0
   -4.9895   20.0380  -31.7639 H   0  0  0  0  0  0  0  0  0  0  0  0
  1  2  1  0
  2  3  2  0
  2  4  1  0
  4  5  1  0
  5  6  1  0
  6  7  1  0
  6  8  2  0
  5  9  2  0
  9 10  1  0
 10 11  2  0
 11 12  1  0
 12 13  2  0
 13 14  1  0
 14 15  1  0
 14 16  1  0
 14 17  1  0
 13 18  1  0
 18 19  2  0
 19  4  1  0
 19 10  1  0
  1 20  1  0
  1 21  1  0
  1 22  1  0
  7 23  1  0
  7 24  1  0
  9 25  1  0
 11 26  1  0
 12 27  1  0
 18 28  1  0
M  END
>  <UniqueID>  (58) 
57

>  <SMILES>  (58) 
CC(=O)n1c(C(N)=O)cc2ccc(C(F)(F)F)cc21

>  <Energy>  (58) 
68.19616675702137

>  <Genealogy>  (58) 
CC(=O)n1c(C(N)=O)cc2ccc(C(F)(F)F)cc21 (3D coordinates assigned)
CC(=O)n1c(C(N)=O)cc2ccc(C(F)(F)F)cc21 (optimized conformer: 68.19616675702137 kcal/mol)

>  <smiles>  (58) 
CC(=O)n1c(C(N)=O)cc2ccc(C(F)(F)F)cc21

>  <score_type>  (58) 
oracle

>  <origin>  (58) 
adg

>  <m_score__min__energy>  (58) 
-7.46

>  <m_primary>  (58) 
energy

$$$$
58:0
     RDKit          3D

 42 43  0  0  0  0  0  0  0  0999 V2000
   -3.5010   19.8340  -32.3710 C   0  0  0  0  0  0  0  0  0  0  0  0
   -2.9700   20.9600  -33.2560 C   0  0  0  0  0  0  0  0  0  0  0  0
   -1.4700   21.1600  -33.0250 C   0  0  0  0  0  0  0  0  0  0  0  0
   -3.6790   22.1600  -32.9490 O   0  0  0  0  0  0  0  0  0  0  0  0
   -4.0570   22.5290  -31.6540 C   0  0  0  0  0  0  0  0  0  0  0  0
   -3.2220   22.4860  -30.7080 O   0  0  0  0  0  0  0  0  0  0  0  0
   -5.4090   22.9360  -31.3980 N   0  0  0  0  0  0  0  0  0  0  0  0
   -5.8490   24.1130  -30.8700 C   0  0  0  0  0  0  0  0  0  0  0  0
   -5.0190   25.3020  -30.5860 C   0  0  0  0  0  0  0  0  0  0  0  0
   -3.5990   25.2050  -30.5070 N   0  0  0  0  0  0  0  0  0  0  0  0
   -5.5670   26.4300  -30.4590 O   0  0  0  0  0  0  0  0  0  0  0  0
   -7.2330   24.0870  -30.7040 C   0  0  0  0  0  0  0  0  0  0  0  0
   -7.6320   22.8510  -31.1580 C   0  0  0  0  0  0  0  0  0  0  0  0
   -8.9030   22.2900  -31.2250 C   0  0  0  0  0  0  0  0  0  0  0  0
   -9.0200   20.9810  -31.7230 C   0  0  0  0  0  0  0  0  0  0  0  0
   -7.8690   20.2550  -32.1210 C   0  0  0  0  0  0  0  0  0  0  0  0
   -8.0070   18.8620  -32.6740 C   0  0  0  0  0  0  0  0  0  0  0  0
   -6.6280   18.2580  -32.9650 C   0  0  0  0  0  0  0  0  0  0  0  0
   -6.1170   18.7300  -34.2580 N   0  0  0  0  0  0  0  0  0  0  0  0
   -5.2420   17.7430  -34.8230 C   0  0  0  0  0  0  0  0  0  0  0  0
   -4.9940   17.7460  -36.0590 O   0  0  0  0  0  0  0  0  0  0  0  0
   -4.7010   16.7480  -34.0180 O   0  0  0  0  0  0  0  0  0  0  0  0
   -6.5970   20.8630  -32.0490 C   0  0  0  0  0  0  0  0  0  0  0  0
   -6.5130   22.1750  -31.5710 C   0  0  0  0  0  0  0  0  0  0  0  0
   -3.3722   20.1072  -31.3133 H   0  0  0  0  0  0  0  0  0  0  0  0
   -4.5690   19.6750  -32.5812 H   0  0  0  0  0  0  0  0  0  0  0  0
   -2.9443   18.9089  -32.5812 H   0  0  0  0  0  0  0  0  0  0  0  0
   -3.1215   20.6979  -34.3135 H   0  0  0  0  0  0  0  0  0  0  0  0
   -1.2658   21.1872  -31.9445 H   0  0  0  0  0  0  0  0  0  0  0  0
   -0.9144   20.3280  -33.4823 H   0  0  0  0  0  0  0  0  0  0  0  0
   -1.1519   22.1085  -33.4823 H   0  0  0  0  0  0  0  0  0  0  0  0
   -3.0650   24.5990  -31.1690 H   0  0  0  0  0  0  0  0  0  0  0  0
   -7.8707   24.8853  -30.2965 H   0  0  0  0  0  0  0  0  0  0  0  0
   -9.7894   22.8536  -30.8982 H   0  0  0  0  0  0  0  0  0  0  0  0
  -10.0133   20.5156  -31.8047 H   0  0  0  0  0  0  0  0  0  0  0  0
   -8.5301   18.2317  -31.9398 H   0  0  0  0  0  0  0  0  0  0  0  0
   -8.5793   18.9079  -33.6123 H   0  0  0  0  0  0  0  0  0  0  0  0
   -5.9284   18.5555  -32.1699 H   0  0  0  0  0  0  0  0  0  0  0  0
   -6.7221   17.1626  -33.0005 H   0  0  0  0  0  0  0  0  0  0  0  0
   -5.5800   19.6190  -34.1270 H   0  0  0  0  0  0  0  0  0  0  0  0
   -6.9120   18.9040  -34.9160 H   0  0  0  0  0  0  0  0  0  0  0  0
   -5.6938   20.3183  -32.3612 H   0  0  0  0  0  0  0  0  0  0  0  0
  1  2  1  0
  2  3  1  0
  2  4  1  0
  4  5  1  0
  5  6  2  0
  5  7  1  0
  7  8  1  0
  8  9  1  0
  9 10  1  0
  9 11  2  0
  8 12  2  0
 12 13  1  0
 13 14  2  0
 14 15  1  0
 15 16  2  0
 16 17  1  0
 17 18  1  0
 18 19  1  0
 19 20  1  0
 20 21  2  0
 20 22  1  0
 16 23  1  0
 23 24  2  0
 24  7  1  0
 24 13  1  0
  1 25  1  0
  1 26  1  0
  1 27  1  0
  2 28  1  0
  3 29  1  0
  3 30  1  0
  3 31  1  0
 10 32  1  0
 12 33  1  0
 14 34  1  0
 15 35  1  0
 17 36  1  0
 17 37  1  0
 18 38  1  0
 18 39  1  0
 19 40  1  0
 19 41  1  0
 23 42  1  0
M  CHG  3  10  -1  19   1  22  -1
M  END
>  <UniqueID>  (59) 
58

>  <SMILES>  (59) 
CC(C)OC(=O)n1c(C([NH-])=O)cc2ccc(CC[NH2+]C(=O)[O-])cc21

>  <Energy>  (59) 
71.44662098870943

>  <Genealogy>  (59) 
CC(C)OC(=O)n1c(C([NH-])=O)cc2ccc(CC[NH2+]C(=O)[O-])cc21 (protonated)
CC(C)OC(=O)n1c(C([NH-])=O)cc2ccc(CC[NH2+]C(=O)[O-])cc21 (3D coordinates assigned)
CC(C)OC(=O)n1c(C([NH-])=O)cc2ccc(CC[NH2+]C(=O)[O-])cc21 (optimized conformer: 71.44662098870943 kcal/mol)

>  <smiles>  (59) 
CC(C)OC(=O)n1c(C(N)=O)cc2ccc(CCNC(=O)O)cc21

>  <score_type>  (59) 
oracle

>  <origin>  (59) 
adg

>  <m_score__min__energy>  (59) 
-9.7599999999999998

>  <m_primary>  (59) 
energy

$$$$
59:0
     RDKit          3D

 31 33  0  0  0  0  0  0  0  0999 V2000
   -1.3950   25.6860  -29.1050 N   0  0  0  0  0  0  0  0  0  0  0  0
   -0.9250   24.3600  -29.3340 C   0  0  0  0  0  0  0  0  0  0  0  0
    0.2550   24.0600  -29.0150 O   0  0  0  0  0  0  0  0  0  0  0  0
   -1.8080   23.3700  -29.9840 C   0  0  0  0  0  0  0  0  0  0  0  0
   -1.3500   22.1720  -30.5260 C   0  0  0  0  0  0  0  0  0  0  0  0
   -2.4790   21.5030  -30.9420 C   0  0  0  0  0  0  0  0  0  0  0  0
   -2.6060   20.2660  -31.5640 C   0  0  0  0  0  0  0  0  0  0  0  0
   -3.8950   19.8320  -31.9100 C   0  0  0  0  0  0  0  0  0  0  0  0
   -5.0320   20.6390  -31.6390 C   0  0  0  0  0  0  0  0  0  0  0  0
   -6.3890   20.1740  -32.0200 C   0  0  0  0  0  0  0  0  0  0  0  0
   -6.6180   18.8270  -32.3590 C   0  0  0  0  0  0  0  0  0  0  0  0
   -7.8970   18.3930  -32.7190 C   0  0  0  0  0  0  0  0  0  0  0  0
   -8.9630   19.2960  -32.7440 C   0  0  0  0  0  0  0  0  0  0  0  0
  -10.2020   18.8730  -33.0930 F   0  0  0  0  0  0  0  0  0  0  0  0
   -8.7500   20.6360  -32.4100 C   0  0  0  0  0  0  0  0  0  0  0  0
   -7.4720   21.0750  -32.0500 C   0  0  0  0  0  0  0  0  0  0  0  0
   -4.8570   21.8910  -31.0050 C   0  0  0  0  0  0  0  0  0  0  0  0
   -3.5620   22.2900  -30.6550 C   0  0  0  0  0  0  0  0  0  0  0  0
   -3.1680   23.4440  -30.0680 N   0  0  0  0  0  0  0  0  0  0  0  0
   -4.0130   24.5420  -29.6880 C   0  0  0  0  0  0  0  0  0  0  0  0
   -4.7360   24.4620  -28.6600 O   0  0  0  0  0  0  0  0  0  0  0  0
   -4.0630   25.6910  -30.4660 O   0  0  0  0  0  0  0  0  0  0  0  0
   -2.4160   25.8850  -29.0110 H   0  0  0  0  0  0  0  0  0  0  0  0
   -0.3068   21.8321  -30.6051 H   0  0  0  0  0  0  0  0  0  0  0  0
   -1.7229   19.6463  -31.7784 H   0  0  0  0  0  0  0  0  0  0  0  0
   -4.0264   18.8546  -32.3972 H   0  0  0  0  0  0  0  0  0  0  0  0
   -5.7837   18.1103  -32.3404 H   0  0  0  0  0  0  0  0  0  0  0  0
   -8.0647   17.3384  -32.9832 H   0  0  0  0  0  0  0  0  0  0  0  0
   -9.5892   21.3469  -32.4303 H   0  0  0  0  0  0  0  0  0  0  0  0
   -7.3110   22.1312  -31.7884 H   0  0  0  0  0  0  0  0  0  0  0  0
   -5.7208   22.5378  -30.7914 H   0  0  0  0  0  0  0  0  0  0  0  0
  1  2  1  0
  2  3  2  0
  2  4  1  0
  4  5  2  0
  5  6  1  0
  6  7  2  0
  7  8  1  0
  8  9  2  0
  9 10  1  0
 10 11  2  0
 11 12  1  0
 12 13  2  0
 13 14  1  0
 13 15  1  0
 15 16  2  0
  9 17  1  0
 17 18  2  0
 18 19  1  0
 19 20  1  0
 20 21  2  0
 20 22  1  0
 19  4  1  0
 18  6  1  0
 16 10  1  0
  1 23  1  0
  5 24  1  0
  7 25  1  0
  8 26  1  0
 11 27  1  0
 12 28  1  0
 15 29  1  0
 16 30  1  0
 17 31  1  0
M  CHG  2   1  -1  22  -1
M  END
>  <UniqueID>  (60) 
59

>  <SMILES>  (60) 
[NH-]C(=O)c1cc2ccc(-c3ccc(F)cc3)cc2n1C(=O)[O-]

>  <Energy>  (60) 
78.67102537999779

>  <Genealogy>  (60) 
[NH-]C(=O)c1cc2ccc(-c3ccc(F)cc3)cc2n1C(=O)[O-] (protonated)
[NH-]C(=O)c1cc2ccc(-c3ccc(F)cc3)cc2n1C(=O)[O-] (3D coordinates assigned)
[NH-]C(=O)c1cc2ccc(-c3ccc(F)cc3)cc2n1C(=O)[O-] (optimized conformer: 78.67102537999779 kcal/mol)

>  <smiles>  (60) 
NC(=O)c1cc2ccc(-c3ccc(F)cc3)cc2n1C(=O)O

>  <score_type>  (60) 
oracle

>  <origin>  (60) 
adg

>  <m_score__min__energy>  (60) 
-11.24

>  <m_primary>  (60) 
energy

$$$$
60:0
     RDKit          3D

 34 35  0  0  0  0  0  0  0  0999 V2000
   -3.0720   20.8600  -33.4110 C   0  0  0  0  0  0  0  0  0  0  0  0
   -3.4470   22.0950  -32.8130 O   0  0  0  0  0  0  0  0  0  0  0  0
   -4.0260   22.1720  -31.5420 C   0  0  0  0  0  0  0  0  0  0  0  0
   -3.3090   22.0570  -30.5110 O   0  0  0  0  0  0  0  0  0  0  0  0
   -5.4430   22.3680  -31.4130 N   0  0  0  0  0  0  0  0  0  0  0  0
   -6.0920   23.4450  -30.8840 C   0  0  0  0  0  0  0  0  0  0  0  0
   -5.4530   24.7110  -30.4610 C   0  0  0  0  0  0  0  0  0  0  0  0
   -5.8200   25.3380  -29.2310 N   0  0  0  0  0  0  0  0  0  0  0  0
   -4.5970   25.2660  -31.2010 O   0  0  0  0  0  0  0  0  0  0  0  0
   -7.4690   23.2310  -30.8780 C   0  0  0  0  0  0  0  0  0  0  0  0
   -7.6470   21.9810  -31.4270 C   0  0  0  0  0  0  0  0  0  0  0  0
   -8.8160   21.2600  -31.6480 C   0  0  0  0  0  0  0  0  0  0  0  0
   -8.7030   19.9750  -32.2030 C   0  0  0  0  0  0  0  0  0  0  0  0
   -7.4310   19.4360  -32.5220 C   0  0  0  0  0  0  0  0  0  0  0  0
   -7.3160   18.0410  -33.0780 C   0  0  0  0  0  0  0  0  0  0  0  0
   -6.1120   17.9010  -34.0170 C   0  0  0  0  0  0  0  0  0  0  0  0
   -6.1300   18.9390  -35.0440 N   0  0  0  0  0  0  0  0  0  0  0  0
   -6.2660   20.1960  -32.2790 C   0  0  0  0  0  0  0  0  0  0  0  0
   -6.4100   21.4810  -31.7420 C   0  0  0  0  0  0  0  0  0  0  0  0
   -2.8487   20.1245  -32.6241 H   0  0  0  0  0  0  0  0  0  0  0  0
   -3.8981   20.4893  -34.0356 H   0  0  0  0  0  0  0  0  0  0  0  0
   -2.1793   21.0112  -34.0356 H   0  0  0  0  0  0  0  0  0  0  0  0
   -6.4830   24.8830  -28.5660 H   0  0  0  0  0  0  0  0  0  0  0  0
   -5.3920   26.2510  -28.9610 H   0  0  0  0  0  0  0  0  0  0  0  0
   -8.2484   23.9156  -30.5122 H   0  0  0  0  0  0  0  0  0  0  0  0
   -9.7993   21.6837  -31.3956 H   0  0  0  0  0  0  0  0  0  0  0  0
   -9.6095   19.3813  -32.3920 H   0  0  0  0  0  0  0  0  0  0  0  0
   -7.2013   17.3333  -32.2437 H   0  0  0  0  0  0  0  0  0  0  0  0
   -8.2273   17.8263  -33.6554 H   0  0  0  0  0  0  0  0  0  0  0  0
   -5.1855   17.9901  -33.4307 H   0  0  0  0  0  0  0  0  0  0  0  0
   -6.1617   16.9184  -34.5089 H   0  0  0  0  0  0  0  0  0  0  0  0
   -6.4620   18.5000  -35.9330 H   0  0  0  0  0  0  0  0  0  0  0  0
   -6.8530   19.6490  -34.7820 H   0  0  0  0  0  0  0  0  0  0  0  0
   -5.2698   19.7885  -32.5060 H   0  0  0  0  0  0  0  0  0  0  0  0
  1  2  1  0
  2  3  1  0
  3  4  2  0
  3  5  1  0
  5  6  1  0
  6  7  1  0
  7  8  1  0
  7  9  2  0
  6 10  2  0
 10 11  1  0
 11 12  2  0
 12 13  1  0
 13 14  2  0
 14 15  1  0
 15 16  1  0
 16 17  1  0
 14 18  1  0
 18 19  2  0
 19  5  1  0
 19 11  1  0
  1 20  1  0
  1 21  1  0
  1 22  1  0
  8 23  1  0
  8 24  1  0
 10 25  1  0
 12 26  1  0
 13 27  1  0
 15 28  1  0
 15 29  1  0
 16 30  1  0
 16 31  1  0
 17 32  1  0
 17 33  1  0
 18 34  1  0
M  END
>  <UniqueID>  (61) 
60

>  <SMILES>  (61) 
COC(=O)n1c(C(N)=O)cc2ccc(CCN)cc21

>  <Energy>  (61) 
66.8570186353527

>  <Genealogy>  (61) 
COC(=O)n1c(C(N)=O)cc2ccc(CCN)cc21 (3D coordinates assigned)
COC(=O)n1c(C(N)=O)cc2ccc(CCN)cc21 (optimized conformer: 66.8570186353527 kcal/mol)

>  <smiles>  (61) 
COC(=O)n1c(C(N)=O)cc2ccc(CCN)cc21

>  <score_type>  (61) 
oracle

>  <origin>  (61) 
adg

>  <m_score__min__energy>  (61) 
-8.2100000000000009

>  <m_primary>  (61) 
energy

$$$$
61:0
     RDKit          3D

 51 54  0  0  0  0  0  0  0  0999 V2000
   -6.0610   25.5870  -29.1190 N   0  0  0  0  0  0  0  0  0  0  0  0
   -5.3990   25.0590  -30.2690 C   0  0  0  0  0  0  0  0  0  0  0  0
   -4.4050   25.6730  -30.7430 O   0  0  0  0  0  0  0  0  0  0  0  0
   -5.8260   23.7870  -30.8850 C   0  0  0  0  0  0  0  0  0  0  0  0
   -7.1490   23.4980  -31.2150 C   0  0  0  0  0  0  0  0  0  0  0  0
   -7.1150   22.2540  -31.8030 C   0  0  0  0  0  0  0  0  0  0  0  0
   -8.1490   21.4640  -32.2970 C   0  0  0  0  0  0  0  0  0  0  0  0
   -7.8230   20.1940  -32.8020 C   0  0  0  0  0  0  0  0  0  0  0  0
   -6.4800   19.7400  -32.8070 C   0  0  0  0  0  0  0  0  0  0  0  0
   -6.1570   18.3820  -33.3000 C   0  0  0  0  0  0  0  0  0  0  0  0
   -7.1120   17.3650  -33.1270 C   0  0  0  0  0  0  0  0  0  0  0  0
   -6.8430   16.0580  -33.5400 C   0  0  0  0  0  0  0  0  0  0  0  0
   -5.6180   15.7510  -34.1300 C   0  0  0  0  0  0  0  0  0  0  0  0
   -4.6630   16.7500  -34.3210 C   0  0  0  0  0  0  0  0  0  0  0  0
   -4.9220   18.0750  -33.9280 C   0  0  0  0  0  0  0  0  0  0  0  0
   -3.8590   19.1160  -34.1770 C   0  0  0  0  0  0  0  0  0  0  0  0
   -3.1200   19.3180  -33.0030 O   0  0  0  0  0  0  0  0  0  0  0  0
   -5.4610   20.5670  -32.2890 C   0  0  0  0  0  0  0  0  0  0  0  0
   -5.8120   21.8310  -31.8070 C   0  0  0  0  0  0  0  0  0  0  0  0
   -5.0090   22.7560  -31.2390 N   0  0  0  0  0  0  0  0  0  0  0  0
   -3.6060   22.6010  -30.9720 C   0  0  0  0  0  0  0  0  0  0  0  0
   -2.8130   22.3960  -31.9300 O   0  0  0  0  0  0  0  0  0  0  0  0
   -3.0750   22.6680  -29.5560 C   0  0  0  0  0  0  0  0  0  0  0  0
   -3.0070   24.0400  -29.0040 N   0  0  0  0  0  0  0  0  0  0  0  0
   -1.6490   24.6020  -28.9560 C   0  0  0  0  0  0  0  0  0  0  0  0
   -1.2600   24.7490  -27.4980 C   0  0  0  0  0  0  0  0  0  0  0  0
   -2.5760   24.8470  -26.7570 C   0  0  0  0  0  0  0  0  0  0  0  0
   -3.6020   24.1790  -27.6630 C   0  0  0  0  0  0  0  0  0  0  0  0
   -6.7660   25.0240  -28.5940 H   0  0  0  0  0  0  0  0  0  0  0  0
   -5.7840   26.5180  -28.7370 H   0  0  0  0  0  0  0  0  0  0  0  0
   -8.0326   24.1299  -31.0422 H   0  0  0  0  0  0  0  0  0  0  0  0
   -9.1889   21.8227  -32.2922 H   0  0  0  0  0  0  0  0  0  0  0  0
   -8.6183   19.5451  -33.1977 H   0  0  0  0  0  0  0  0  0  0  0  0
   -8.0805   17.6008  -32.6619 H   0  0  0  0  0  0  0  0  0  0  0  0
   -7.5982   15.2707  -33.3996 H   0  0  0  0  0  0  0  0  0  0  0  0
   -5.4039   14.7192  -34.4456 H   0  0  0  0  0  0  0  0  0  0  0  0
   -3.6973   16.4985  -34.7839 H   0  0  0  0  0  0  0  0  0  0  0  0
   -3.1884   18.7712  -34.9779 H   0  0  0  0  0  0  0  0  0  0  0  0
   -4.3342   20.0610  -34.4788 H   0  0  0  0  0  0  0  0  0  0  0  0
   -3.0890   20.3000  -32.8630 H   0  0  0  0  0  0  0  0  0  0  0  0
   -4.4157   20.2252  -32.2651 H   0  0  0  0  0  0  0  0  0  0  0  0
   -3.7331   22.0675  -28.9108 H   0  0  0  0  0  0  0  0  0  0  0  0
   -2.0446   22.2840  -29.5834 H   0  0  0  0  0  0  0  0  0  0  0  0
   -0.9460   23.9259  -29.4646 H   0  0  0  0  0  0  0  0  0  0  0  0
   -1.6188   25.5781  -29.4622 H   0  0  0  0  0  0  0  0  0  0  0  0
   -0.6882   23.8726  -27.1589 H   0  0  0  0  0  0  0  0  0  0  0  0
   -0.6187   25.6258  -27.3248 H   0  0  0  0  0  0  0  0  0  0  0  0
   -2.5145   24.3216  -25.7925 H   0  0  0  0  0  0  0  0  0  0  0  0
   -2.8439   25.8907  -26.5360 H   0  0  0  0  0  0  0  0  0  0  0  0
   -3.8607   23.1866  -27.2652 H   0  0  0  0  0  0  0  0  0  0  0  0
   -4.5181   24.7858  -27.7136 H   0  0  0  0  0  0  0  0  0  0  0  0
  1  2  1  0
  2  3  2  0
  2  4  1  0
  4  5  2  0
  5  6  1  0
  6  7  2  0
  7  8  1  0
  8  9  2  0
  9 10  1  0
 10 11  2  0
 11 12  1  0
 12 13  2  0
 13 14  1  0
 14 15  2  0
 15 16  1  0
 16 17  1  0
  9 18  1  0
 18 19  2  0
 19 20  1  0
 20 21  1  0
 21 22  2  0
 21 23  1  0
 23 24  1  0
 24 25  1  0
 25 26  1  0
 26 27  1  0
 27 28  1  0
 20  4  1  0
 28 24  1  0
 19  6  1  0
 15 10  1  0
  1 29  1  0
  1 30  1  0
  5 31  1  0
  7 32  1  0
  8 33  1  0
 11 34  1  0
 12 35  1  0
 13 36  1  0
 14 37  1  0
 16 38  1  0
 16 39  1  0
 17 40  1  0
 18 41  1  0
 23 42  1  0
 23 43  1  0
 25 44  1  0
 25 45  1  0
 26 46  1  0
 26 47  1  0
 27 48  1  0
 27 49  1  0
 28 50  1  0
 28 51  1  0
M  END
>  <UniqueID>  (62) 
61

>  <SMILES>  (62) 
NC(=O)c1cc2ccc(-c3ccccc3CO)cc2n1C(=O)CN1CCCC1

>  <Energy>  (62) 
104.45147990003271

>  <Genealogy>  (62) 
NC(=O)c1cc2ccc(-c3ccccc3CO)cc2n1C(=O)CN1CCCC1 (3D coordinates assigned)
NC(=O)c1cc2ccc(-c3ccccc3CO)cc2n1C(=O)CN1CCCC1 (nonaromatic ring conformer: 104.45147990003271 kcal/mol)

>  <smiles>  (62) 
NC(=O)c1cc2ccc(-c3ccccc3CO)cc2n1C(=O)CN1CCCC1

>  <score_type>  (62) 
oracle

>  <origin>  (62) 
adg

>  <m_score__min__energy>  (62) 
-10.470000000000001

>  <m_primary>  (62) 
energy

$$$$
62:0
     RDKit          3D

 35 37  0  0  0  0  0  0  0  0999 V2000
   -3.1060   21.9060  -31.7140 C   0  0  0  0  0  0  0  0  0  0  0  0
   -3.9810   23.0300  -31.2580 C   0  0  0  0  0  0  0  0  0  0  0  0
   -3.4480   24.0940  -30.8460 O   0  0  0  0  0  0  0  0  0  0  0  0
   -5.4140   22.9050  -31.2680 N   0  0  0  0  0  0  0  0  0  0  0  0
   -6.3220   23.8550  -30.9090 C   0  0  0  0  0  0  0  0  0  0  0  0
   -6.0100   25.1630  -30.2990 C   0  0  0  0  0  0  0  0  0  0  0  0
   -4.9940   26.0110  -30.8390 N   0  0  0  0  0  0  0  0  0  0  0  0
   -6.6170   25.5200  -29.2550 O   0  0  0  0  0  0  0  0  0  0  0  0
   -7.6180   23.4230  -31.1770 C   0  0  0  0  0  0  0  0  0  0  0  0
   -7.4760   22.1620  -31.7120 C   0  0  0  0  0  0  0  0  0  0  0  0
   -8.4420   21.2800  -32.1830 C   0  0  0  0  0  0  0  0  0  0  0  0
   -8.0080   20.0610  -32.7340 C   0  0  0  0  0  0  0  0  0  0  0  0
   -6.6250   19.7540  -32.8200 C   0  0  0  0  0  0  0  0  0  0  0  0
   -6.1770   18.4700  -33.4190 C   0  0  0  0  0  0  0  0  0  0  0  0
   -6.8630   17.2720  -33.1420 C   0  0  0  0  0  0  0  0  0  0  0  0
   -6.4410   16.0670  -33.7100 C   0  0  0  0  0  0  0  0  0  0  0  0
   -5.3300   16.0420  -34.5570 C   0  0  0  0  0  0  0  0  0  0  0  0
   -4.6410   17.2240  -34.8390 C   0  0  0  0  0  0  0  0  0  0  0  0
   -5.0600   18.4320  -34.2740 C   0  0  0  0  0  0  0  0  0  0  0  0
   -5.6760   20.6830  -32.3320 C   0  0  0  0  0  0  0  0  0  0  0  0
   -6.1370   21.8750  -31.7630 C   0  0  0  0  0  0  0  0  0  0  0  0
   -2.6973   21.3809  -30.8381 H   0  0  0  0  0  0  0  0  0  0  0  0
   -3.6973   21.2035  -32.3197 H   0  0  0  0  0  0  0  0  0  0  0  0
   -2.2799   22.3069  -32.3197 H   0  0  0  0  0  0  0  0  0  0  0  0
   -4.3440   25.6720  -31.5810 H   0  0  0  0  0  0  0  0  0  0  0  0
   -4.8260   26.9540  -30.4240 H   0  0  0  0  0  0  0  0  0  0  0  0
   -8.5548   23.9714  -30.9994 H   0  0  0  0  0  0  0  0  0  0  0  0
   -9.5122   21.5278  -32.1265 H   0  0  0  0  0  0  0  0  0  0  0  0
   -8.7493   19.3368  -33.1027 H   0  0  0  0  0  0  0  0  0  0  0  0
   -7.7369   17.2847  -32.4741 H   0  0  0  0  0  0  0  0  0  0  0  0
   -6.9845   15.1363  -33.4899 H   0  0  0  0  0  0  0  0  0  0  0  0
   -4.9981   15.0921  -35.0015 H   0  0  0  0  0  0  0  0  0  0  0  0
   -3.7672   17.2041  -35.5069 H   0  0  0  0  0  0  0  0  0  0  0  0
   -4.5128   19.3593  -34.4993 H   0  0  0  0  0  0  0  0  0  0  0  0
   -4.5984   20.4725  -32.3986 H   0  0  0  0  0  0  0  0  0  0  0  0
  1  2  1  0
  2  3  2  0
  2  4  1  0
  4  5  1  0
  5  6  1  0
  6  7  1  0
  6  8  2  0
  5  9  2  0
  9 10  1  0
 10 11  2  0
 11 12  1  0
 12 13  2  0
 13 14  1  0
 14 15  2  0
 15 16  1  0
 16 17  2  0
 17 18  1  0
 18 19  2  0
 13 20  1  0
 20 21  2  0
 21  4  1  0
 21 10  1  0
 19 14  1  0
  1 22  1  0
  1 23  1  0
  1 24  1  0
  7 25  1  0
  7 26  1  0
  9 27  1  0
 11 28  1  0
 12 29  1  0
 15 30  1  0
 16 31  1  0
 17 32  1  0
 18 33  1  0
 19 34  1  0
 20 35  1  0
M  END
>  <UniqueID>  (63) 
62

>  <SMILES>  (63) 
CC(=O)n1c(C(N)=O)cc2ccc(-c3ccccc3)cc21

>  <Energy>  (63) 
82.03821660956783

>  <Genealogy>  (63) 
CC(=O)n1c(C(N)=O)cc2ccc(-c3ccccc3)cc21 (3D coordinates assigned)
CC(=O)n1c(C(N)=O)cc2ccc(-c3ccccc3)cc21 (optimized conformer: 82.03821660956783 kcal/mol)

>  <smiles>  (63) 
CC(=O)n1c(C(N)=O)cc2ccc(-c3ccccc3)cc21

>  <score_type>  (63) 
oracle

>  <origin>  (63) 
adg

>  <m_score__min__energy>  (63) 
-9.5199999999999996

>  <m_primary>  (63) 
energy

$$$$
63:0
     RDKit          3D

 49 51  0  0  0  0  0  0  0  0999 V2000
   -2.7910   15.3020  -33.1510 C   0  0  0  0  0  0  0  0  0  0  0  0
   -4.5460   15.0140  -33.0360 S   0  0  0  0  0  0  0  0  0  0  0  0
   -4.8190   13.5610  -33.3130 O   0  0  0  0  0  0  0  0  0  0  0  0
   -4.9970   15.3290  -31.6370 O   0  0  0  0  0  0  0  0  0  0  0  0
   -5.4440   15.9990  -34.1680 N   0  0  0  0  0  0  0  0  0  0  0  0
   -6.8780   16.1040  -33.7990 C   0  0  0  0  0  0  0  0  0  0  0  0
   -7.2370   17.3950  -33.0410 C   0  0  0  0  0  0  0  0  0  0  0  0
   -6.6440   18.5810  -33.6720 N   0  0  0  0  0  0  0  0  0  0  0  0
   -6.8080   19.8650  -33.0440 C   0  0  0  0  0  0  0  0  0  0  0  0
   -8.1040   20.3330  -32.7070 C   0  0  0  0  0  0  0  0  0  0  0  0
   -8.2750   21.5650  -32.0520 C   0  0  0  0  0  0  0  0  0  0  0  0
   -7.1360   22.3010  -31.7410 C   0  0  0  0  0  0  0  0  0  0  0  0
   -7.0090   23.5070  -31.0880 C   0  0  0  0  0  0  0  0  0  0  0  0
   -5.6380   23.7480  -31.0210 C   0  0  0  0  0  0  0  0  0  0  0  0
   -5.0410   24.8830  -30.2860 C   0  0  0  0  0  0  0  0  0  0  0  0
   -3.8970   25.5500  -30.8150 N   0  0  0  0  0  0  0  0  0  0  0  0
   -5.5520   25.2920  -29.2100 O   0  0  0  0  0  0  0  0  0  0  0  0
   -4.9480   22.7390  -31.6240 N   0  0  0  0  0  0  0  0  0  0  0  0
   -3.5300   22.6270  -31.8150 C   0  0  0  0  0  0  0  0  0  0  0  0
   -2.7430   23.1900  -31.0050 O   0  0  0  0  0  0  0  0  0  0  0  0
   -2.9700   21.7670  -32.9150 C   0  0  0  0  0  0  0  0  0  0  0  0
   -1.4630   21.5380  -32.7440 C   0  0  0  0  0  0  0  0  0  0  0  0
   -0.8030   21.1750  -34.0400 C   0  0  0  0  0  0  0  0  0  0  0  0
   -1.0940   20.0940  -34.6170 O   0  0  0  0  0  0  0  0  0  0  0  0
    0.1530   22.0170  -34.5970 O   0  0  0  0  0  0  0  0  0  0  0  0
   -5.8790   21.8580  -32.0520 C   0  0  0  0  0  0  0  0  0  0  0  0
   -5.6770   20.6430  -32.7130 C   0  0  0  0  0  0  0  0  0  0  0  0
   -5.7170   18.4030  -34.7910 C   0  0  0  0  0  0  0  0  0  0  0  0
   -4.7460   17.2790  -34.4330 C   0  0  0  0  0  0  0  0  0  0  0  0
   -2.3639   15.3721  -32.1397 H   0  0  0  0  0  0  0  0  0  0  0  0
   -2.3175   14.4695  -33.6921 H   0  0  0  0  0  0  0  0  0  0  0  0
   -2.6084   16.2421  -33.6921 H   0  0  0  0  0  0  0  0  0  0  0  0
   -7.4761   16.0669  -34.7215 H   0  0  0  0  0  0  0  0  0  0  0  0
   -7.0939   15.2660  -33.1200 H   0  0  0  0  0  0  0  0  0  0  0  0
   -8.3311   17.5079  -33.0285 H   0  0  0  0  0  0  0  0  0  0  0  0
   -6.8360   17.3146  -32.0199 H   0  0  0  0  0  0  0  0  0  0  0  0
   -8.9849   19.7252  -32.9610 H   0  0  0  0  0  0  0  0  0  0  0  0
   -9.2779   21.9355  -31.7934 H   0  0  0  0  0  0  0  0  0  0  0  0
   -7.8178   24.1445  -30.7015 H   0  0  0  0  0  0  0  0  0  0  0  0
   -2.9360   25.2910  -30.5030 H   0  0  0  0  0  0  0  0  0  0  0  0
   -3.4823   20.7936  -32.9024 H   0  0  0  0  0  0  0  0  0  0  0  0
   -3.1319   22.2851  -33.8717 H   0  0  0  0  0  0  0  0  0  0  0  0
   -1.0046   22.4602  -32.3574 H   0  0  0  0  0  0  0  0  0  0  0  0
   -1.3222   20.7018  -32.0434 H   0  0  0  0  0  0  0  0  0  0  0  0
   -4.6630   20.3017  -32.9688 H   0  0  0  0  0  0  0  0  0  0  0  0
   -6.2769   18.1360  -35.6994 H   0  0  0  0  0  0  0  0  0  0  0  0
   -5.1653   19.3359  -34.9792 H   0  0  0  0  0  0  0  0  0  0  0  0
   -4.0472   17.1346  -35.2701 H   0  0  0  0  0  0  0  0  0  0  0  0
   -4.2158   17.5708  -33.5144 H   0  0  0  0  0  0  0  0  0  0  0  0
  1  2  1  0
  2  3  2  0
  2  4  2  0
  2  5  1  0
  5  6  1  0
  6  7  1  0
  7  8  1  0
  8  9  1  0
  9 10  2  0
 10 11  1  0
 11 12  2  0
 12 13  1  0
 13 14  2  0
 14 15  1  0
 15 16  1  0
 15 17  2  0
 14 18  1  0
 18 19  1  0
 19 20  2  0
 19 21  1  0
 21 22  1  0
 22 23  1  0
 23 24  2  0
 23 25  1  0
 18 26  1  0
 26 27  2  0
  8 28  1  0
 28 29  1  0
 29  5  1  0
 27  9  1  0
 26 12  1  0
  1 30  1  0
  1 31  1  0
  1 32  1  0
  6 33  1  0
  6 34  1  0
  7 35  1  0
  7 36  1  0
 10 37  1  0
 11 38  1  0
 13 39  1  0
 16 40  1  0
 21 41  1  0
 21 42  1  0
 22 43  1  0
 22 44  1  0
 27 45  1  0
 28 46  1  0
 28 47  1  0
 29 48  1  0
 29 49  1  0
M  CHG  2  16  -1  25  -1
M  END
>  <UniqueID>  (64) 
63

>  <SMILES>  (64) 
CS(=O)(=O)N1CCN(c2ccc3cc(C([NH-])=O)n(C(=O)CCC(=O)[O-])c3c2)CC1

>  <Energy>  (64) 
91.56516659820475

>  <Genealogy>  (64) 
CS(=O)(=O)N1CCN(c2ccc3cc(C([NH-])=O)n(C(=O)CCC(=O)[O-])c3c2)CC1 (protonated)
CS(=O)(=O)N1CCN(c2ccc3cc(C([NH-])=O)n(C(=O)CCC(=O)[O-])c3c2)CC1 (3D coordinates assigned)
CS(=O)(=O)N1CCN(c2ccc3cc(C([NH-])=O)n(C(=O)CCC(=O)[O-])c3c2)CC1 (nonaromatic ring conformer: 91.56516659820475 kcal/mol)

>  <smiles>  (64) 
CS(=O)(=O)N1CCN(c2ccc3cc(C(N)=O)n(C(=O)CCC(=O)O)c3c2)CC1

>  <score_type>  (64) 
oracle

>  <origin>  (64) 
adg

>  <m_score__min__energy>  (64) 
-13.34

>  <m_primary>  (64) 
energy

$$$$
64:0
     RDKit          3D

 45 46  0  0  0  0  0  0  0  0999 V2000
   -8.5650   21.1710  -31.8800 C   0  0  0  0  0  0  0  0  0  0  0  0
   -9.0240   19.9370  -31.3770 O   0  0  0  0  0  0  0  0  0  0  0  0
   -8.5740   18.8920  -32.2150 C   0  0  0  0  0  0  0  0  0  0  0  0
   -7.3980   18.1620  -31.5580 C   0  0  0  0  0  0  0  0  0  0  0  0
   -6.6890   17.2970  -32.5280 N   0  0  0  0  0  0  0  0  0  0  0  0
   -5.3860   16.8820  -31.9820 C   0  0  0  0  0  0  0  0  0  0  0  0
   -6.5210   17.9420  -33.8560 C   0  0  0  0  0  0  0  0  0  0  0  0
   -5.2630   18.8200  -33.8620 C   0  0  0  0  0  0  0  0  0  0  0  0
   -5.5300   20.2120  -33.2780 C   0  0  0  0  0  0  0  0  0  0  0  0
   -4.3020   20.7310  -32.5800 C   0  0  0  0  0  0  0  0  0  0  0  0
   -3.1010   19.9800  -32.5970 C   0  0  0  0  0  0  0  0  0  0  0  0
   -1.9570   20.4440  -31.9260 C   0  0  0  0  0  0  0  0  0  0  0  0
   -2.0510   21.6470  -31.2350 C   0  0  0  0  0  0  0  0  0  0  0  0
   -1.0970   22.3320  -30.5180 C   0  0  0  0  0  0  0  0  0  0  0  0
   -1.7400   23.4730  -30.0420 C   0  0  0  0  0  0  0  0  0  0  0  0
   -1.0960   24.4510  -29.1400 C   0  0  0  0  0  0  0  0  0  0  0  0
   -1.7340   25.6830  -28.8190 N   0  0  0  0  0  0  0  0  0  0  0  0
    0.0110   24.1710  -28.6050 O   0  0  0  0  0  0  0  0  0  0  0  0
   -3.0390   23.4980  -30.4540 N   0  0  0  0  0  0  0  0  0  0  0  0
   -4.0040   24.5420  -30.2530 C   0  0  0  0  0  0  0  0  0  0  0  0
   -3.8840   25.6450  -30.8490 O   0  0  0  0  0  0  0  0  0  0  0  0
   -5.0660   24.3560  -29.3760 O   0  0  0  0  0  0  0  0  0  0  0  0
   -3.2140   22.3720  -31.1820 C   0  0  0  0  0  0  0  0  0  0  0  0
   -4.3620   21.9440  -31.8580 C   0  0  0  0  0  0  0  0  0  0  0  0
   -8.3166   21.8389  -31.0421 H   0  0  0  0  0  0  0  0  0  0  0  0
   -7.6683   21.0055  -32.4953 H   0  0  0  0  0  0  0  0  0  0  0  0
   -9.3519   21.6317  -32.4953 H   0  0  0  0  0  0  0  0  0  0  0  0
   -9.3960   18.1806  -32.3833 H   0  0  0  0  0  0  0  0  0  0  0  0
   -8.2445   19.3159  -33.1751 H   0  0  0  0  0  0  0  0  0  0  0  0
   -6.6925   18.9060  -31.1596 H   0  0  0  0  0  0  0  0  0  0  0  0
   -7.7922   17.5266  -30.7513 H   0  0  0  0  0  0  0  0  0  0  0  0
   -5.4280   16.8954  -30.8829 H   0  0  0  0  0  0  0  0  0  0  0  0
   -5.1509   15.8645  -32.3276 H   0  0  0  0  0  0  0  0  0  0  0  0
   -4.6058   17.5761  -32.3276 H   0  0  0  0  0  0  0  0  0  0  0  0
   -6.4254   17.1645  -34.6283 H   0  0  0  0  0  0  0  0  0  0  0  0
   -7.3992   18.5710  -34.0637 H   0  0  0  0  0  0  0  0  0  0  0  0
   -4.4834   18.3272  -33.2626 H   0  0  0  0  0  0  0  0  0  0  0  0
   -4.9423   18.9462  -34.9066 H   0  0  0  0  0  0  0  0  0  0  0  0
   -5.8030   20.9003  -34.0914 H   0  0  0  0  0  0  0  0  0  0  0  0
   -6.3521   20.1426  -32.5505 H   0  0  0  0  0  0  0  0  0  0  0  0
   -3.0636   19.0245  -33.1407 H   0  0  0  0  0  0  0  0  0  0  0  0
   -1.0167   19.8736  -31.9467 H   0  0  0  0  0  0  0  0  0  0  0  0
   -0.0489   22.0407  -30.3551 H   0  0  0  0  0  0  0  0  0  0  0  0
   -2.7470   25.8320  -29.0240 H   0  0  0  0  0  0  0  0  0  0  0  0
   -5.2879   22.5371  -31.8280 H   0  0  0  0  0  0  0  0  0  0  0  0
  1  2  1  0
  2  3  1  0
  3  4  1  0
  4  5  1  0
  5  6  1  0
  5  7  1  0
  7  8  1  0
  8  9  1  0
  9 10  1  0
 10 11  2  0
 11 12  1  0
 12 13  2  0
 13 14  1  0
 14 15  2  0
 15 16  1  0
 16 17  1  0
 16 18  2  0
 15 19  1  0
 19 20  1  0
 20 21  2  0
 20 22  1  0
 19 23  1  0
 23 24  2  0
 24 10  1  0
 23 13  1  0
  1 25  1  0
  1 26  1  0
  1 27  1  0
  3 28  1  0
  3 29  1  0
  4 30  1  0
  4 31  1  0
  6 32  1  0
  6 33  1  0
  6 34  1  0
  7 35  1  0
  7 36  1  0
  8 37  1  0
  8 38  1  0
  9 39  1  0
  9 40  1  0
 11 41  1  0
 12 42  1  0
 14 43  1  0
 17 44  1  0
 24 45  1  0
M  CHG  2  17  -1  22  -1
M  END
>  <UniqueID>  (65) 
64

>  <SMILES>  (65) 
COCCN(C)CCCc1ccc2cc(C([NH-])=O)n(C(=O)[O-])c2c1

>  <Energy>  (65) 
82.30691016161477

>  <Genealogy>  (65) 
COCCN(C)CCCc1ccc2cc(C([NH-])=O)n(C(=O)[O-])c2c1 (protonated)
COCCN(C)CCCc1ccc2cc(C([NH-])=O)n(C(=O)[O-])c2c1 (3D coordinates assigned)
COCCN(C)CCCc1ccc2cc(C([NH-])=O)n(C(=O)[O-])c2c1 (optimized conformer: 82.30691016161477 kcal/mol)

>  <smiles>  (65) 
COCCN(C)CCCc1ccc2cc(C(N)=O)n(C(=O)O)c2c1

>  <score_type>  (65) 
oracle

>  <origin>  (65) 
adg

>  <m_score__min__energy>  (65) 
-11.039999999999999

>  <m_primary>  (65) 
energy

$$$$
65:0
     RDKit          3D

 35 38  0  0  0  0  0  0  0  0999 V2000
   -5.3290   26.3310  -30.4830 N   0  0  0  0  0  0  0  0  0  0  0  0
   -6.2670   25.3590  -30.0230 C   0  0  0  0  0  0  0  0  0  0  0  0
   -6.9300   25.5870  -28.9760 O   0  0  0  0  0  0  0  0  0  0  0  0
   -6.4270   24.0630  -30.7140 C   0  0  0  0  0  0  0  0  0  0  0  0
   -7.6660   23.5160  -31.0360 C   0  0  0  0  0  0  0  0  0  0  0  0
   -7.3860   22.2950  -31.6030 C   0  0  0  0  0  0  0  0  0  0  0  0
   -8.2470   21.3340  -32.1220 C   0  0  0  0  0  0  0  0  0  0  0  0
   -7.6840   20.1780  -32.6850 C   0  0  0  0  0  0  0  0  0  0  0  0
   -6.2750   20.0050  -32.7340 C   0  0  0  0  0  0  0  0  0  0  0  0
   -5.6900   18.7860  -33.3450 C   0  0  0  0  0  0  0  0  0  0  0  0
   -6.4650   17.6010  -33.4730 C   0  0  0  0  0  0  0  0  0  0  0  0
   -5.9160   16.4420  -34.0520 C   0  0  0  0  0  0  0  0  0  0  0  0
   -4.5980   16.4970  -34.4910 C   0  0  0  0  0  0  0  0  0  0  0  0
   -3.8490   17.6220  -34.3740 C   0  0  0  0  0  0  0  0  0  0  0  0
   -4.3520   18.7890  -33.8090 C   0  0  0  0  0  0  0  0  0  0  0  0
   -2.5870   17.3890  -34.8870 O   0  0  0  0  0  0  0  0  0  0  0  0
   -2.5420   16.0330  -35.3560 C   0  0  0  0  0  0  0  0  0  0  0  0
   -3.8460   15.5010  -35.0840 O   0  0  0  0  0  0  0  0  0  0  0  0
   -5.4340   21.0080  -32.1960 C   0  0  0  0  0  0  0  0  0  0  0  0
   -6.0240   22.1390  -31.6190 C   0  0  0  0  0  0  0  0  0  0  0  0
   -5.4180   23.2220  -31.0780 N   0  0  0  0  0  0  0  0  0  0  0  0
   -4.0040   23.4740  -31.0160 C   0  0  0  0  0  0  0  0  0  0  0  0
   -3.1860   22.6150  -31.4370 O   0  0  0  0  0  0  0  0  0  0  0  0
   -3.5230   24.6660  -30.4880 O   0  0  0  0  0  0  0  0  0  0  0  0
   -4.6470   26.1060  -31.2410 H   0  0  0  0  0  0  0  0  0  0  0  0
   -5.2580   27.2580  -30.0050 H   0  0  0  0  0  0  0  0  0  0  0  0
   -8.6569   23.9645  -30.8720 H   0  0  0  0  0  0  0  0  0  0  0  0
   -9.3374   21.4757  -32.0922 H   0  0  0  0  0  0  0  0  0  0  0  0
   -8.3419   19.3966  -33.0932 H   0  0  0  0  0  0  0  0  0  0  0  0
   -7.5052   17.5901  -33.1155 H   0  0  0  0  0  0  0  0  0  0  0  0
   -6.5105   15.5221  -34.1540 H   0  0  0  0  0  0  0  0  0  0  0  0
   -3.7272   19.6904  -33.7248 H   0  0  0  0  0  0  0  0  0  0  0  0
   -2.3304   16.0042  -36.4351 H   0  0  0  0  0  0  0  0  0  0  0  0
   -1.7485   15.4522  -34.8631 H   0  0  0  0  0  0  0  0  0  0  0  0
   -4.3397   20.9013  -32.2304 H   0  0  0  0  0  0  0  0  0  0  0  0
  1  2  1  0
  2  3  2  0
  2  4  1  0
  4  5  2  0
  5  6  1  0
  6  7  2  0
  7  8  1  0
  8  9  2  0
  9 10  1  0
 10 11  2  0
 11 12  1  0
 12 13  2  0
 13 14  1  0
 14 15  2  0
 14 16  1  0
 16 17  1  0
 17 18  1  0
  9 19  1  0
 19 20  2  0
 20 21  1  0
 21 22  1  0
 22 23  2  0
 22 24  1  0
 21  4  1  0
 20  6  1  0
 15 10  1  0
 18 13  1  0
  1 25  1  0
  1 26  1  0
  5 27  1  0
  7 28  1  0
  8 29  1  0
 11 30  1  0
 12 31  1  0
 15 32  1  0
 17 33  1  0
 17 34  1  0
 19 35  1  0
M  CHG  1  24  -1
M  END
>  <UniqueID>  (66) 
65

>  <SMILES>  (66) 
NC(=O)c1cc2ccc(-c3ccc4c(c3)OCO4)cc2n1C(=O)[O-]

>  <Energy>  (66) 
112.50720133871208

>  <Genealogy>  (66) 
NC(=O)c1cc2ccc(-c3ccc4c(c3)OCO4)cc2n1C(=O)[O-] (protonated)
NC(=O)c1cc2ccc(-c3ccc4c(c3)OCO4)cc2n1C(=O)[O-] (3D coordinates assigned)
NC(=O)c1cc2ccc(-c3ccc4c(c3)OCO4)cc2n1C(=O)[O-] (nonaromatic ring conformer: 112.50720133871208 kcal/mol)

>  <smiles>  (66) 
NC(=O)c1cc2ccc(-c3ccc4c(c3)OCO4)cc2n1C(=O)O

>  <score_type>  (66) 
oracle

>  <origin>  (66) 
adg

>  <m_score__min__energy>  (66) 
-9.4399999999999995

>  <m_primary>  (66) 
energy

$$$$
66:0
     RDKit          3D

 33 35  0  0  0  0  0  0  0  0999 V2000
   -2.9220   15.9790  -35.4840 C   0  0  0  0  0  0  0  0  0  0  0  0
   -3.6470   17.1210  -34.8550 C   0  0  0  0  0  0  0  0  0  0  0  0
   -2.9650   18.0360  -34.1180 N   0  0  0  0  0  0  0  0  0  0  0  0
   -3.6080   19.0640  -33.5050 C   0  0  0  0  0  0  0  0  0  0  0  0
   -5.0010   19.1940  -33.6210 C   0  0  0  0  0  0  0  0  0  0  0  0
   -5.7280   20.3090  -32.9630 C   0  0  0  0  0  0  0  0  0  0  0  0
   -7.1470   20.3210  -32.9320 C   0  0  0  0  0  0  0  0  0  0  0  0
   -7.8440   21.3650  -32.3020 C   0  0  0  0  0  0  0  0  0  0  0  0
   -7.1020   22.3880  -31.7210 C   0  0  0  0  0  0  0  0  0  0  0  0
   -7.5230   23.4940  -31.0190 C   0  0  0  0  0  0  0  0  0  0  0  0
   -6.3580   24.1630  -30.6560 C   0  0  0  0  0  0  0  0  0  0  0  0
   -6.3540   25.4490  -29.9320 C   0  0  0  0  0  0  0  0  0  0  0  0
   -5.4960   26.5200  -30.3280 N   0  0  0  0  0  0  0  0  0  0  0  0
   -7.1610   25.6260  -28.9800 O   0  0  0  0  0  0  0  0  0  0  0  0
   -5.2580   23.4940  -31.1030 N   0  0  0  0  0  0  0  0  0  0  0  0
   -3.8780   23.8030  -30.8370 C   0  0  0  0  0  0  0  0  0  0  0  0
   -3.0080   22.8930  -30.8620 O   0  0  0  0  0  0  0  0  0  0  0  0
   -3.4890   25.1050  -30.5530 O   0  0  0  0  0  0  0  0  0  0  0  0
   -5.7310   22.4080  -31.7570 C   0  0  0  0  0  0  0  0  0  0  0  0
   -5.0110   21.3700  -32.3580 C   0  0  0  0  0  0  0  0  0  0  0  0
   -5.6820   18.2280  -34.3770 C   0  0  0  0  0  0  0  0  0  0  0  0
   -4.9970   17.2160  -34.9690 N   0  0  0  0  0  0  0  0  0  0  0  0
   -2.5094   15.3291  -34.6982 H   0  0  0  0  0  0  0  0  0  0  0  0
   -3.6192   15.4015  -36.1088 H   0  0  0  0  0  0  0  0  0  0  0  0
   -2.1027   16.3643  -36.1088 H   0  0  0  0  0  0  0  0  0  0  0  0
   -3.0357   19.7962  -32.9164 H   0  0  0  0  0  0  0  0  0  0  0  0
   -7.7077   19.5026  -33.4072 H   0  0  0  0  0  0  0  0  0  0  0  0
   -8.9435   21.3734  -32.2691 H   0  0  0  0  0  0  0  0  0  0  0  0
   -8.5590   23.7868  -30.7930 H   0  0  0  0  0  0  0  0  0  0  0  0
   -5.4790   27.4080  -29.7800 H   0  0  0  0  0  0  0  0  0  0  0  0
   -4.9420   26.4670  -31.2120 H   0  0  0  0  0  0  0  0  0  0  0  0
   -3.9110   21.3777  -32.3606 H   0  0  0  0  0  0  0  0  0  0  0  0
   -6.7743   18.2906  -34.4905 H   0  0  0  0  0  0  0  0  0  0  0  0
  1  2  1  0
  2  3  2  0
  3  4  1  0
  4  5  2  0
  5  6  1  0
  6  7  2  0
  7  8  1  0
  8  9  2  0
  9 10  1  0
 10 11  2  0
 11 12  1  0
 12 13  1  0
 12 14  2  0
 11 15  1  0
 15 16  1  0
 16 17  2  0
 16 18  1  0
 15 19  1  0
 19 20  2  0
  5 21  1  0
 21 22  2  0
 22  2  1  0
 20  6  1  0
 19  9  1  0
  1 23  1  0
  1 24  1  0
  1 25  1  0
  4 26  1  0
  7 27  1  0
  8 28  1  0
 10 29  1  0
 13 30  1  0
 13 31  1  0
 20 32  1  0
 21 33  1  0
M  CHG  1  18  -1
M  END
>  <UniqueID>  (67) 
66

>  <SMILES>  (67) 
Cc1ncc(-c2ccc3cc(C(N)=O)n(C(=O)[O-])c3c2)cn1

>  <Energy>  (67) 
80.62286923495485

>  <Genealogy>  (67) 
Cc1ncc(-c2ccc3cc(C(N)=O)n(C(=O)[O-])c3c2)cn1 (protonated)
Cc1ncc(-c2ccc3cc(C(N)=O)n(C(=O)[O-])c3c2)cn1 (3D coordinates assigned)
Cc1ncc(-c2ccc3cc(C(N)=O)n(C(=O)[O-])c3c2)cn1 (optimized conformer: 80.62286923495485 kcal/mol)

>  <smiles>  (67) 
Cc1ncc(-c2ccc3cc(C(N)=O)n(C(=O)O)c3c2)cn1

>  <score_type>  (67) 
oracle

>  <origin>  (67) 
adg

>  <m_score__min__energy>  (67) 
-9.5700000000000003

>  <m_primary>  (67) 
energy

$$$$
67:0
     RDKit          3D

 33 34  0  0  0  0  0  0  0  0999 V2000
   -4.4940   25.6740  -30.8420 N   0  0  0  0  0  0  0  0  0  0  0  0
   -5.7590   25.0990  -30.5250 C   0  0  0  0  0  0  0  0  0  0  0  0
   -6.5750   25.7570  -29.8260 O   0  0  0  0  0  0  0  0  0  0  0  0
   -6.1150   23.7360  -30.9770 C   0  0  0  0  0  0  0  0  0  0  0  0
   -7.3950   23.3690  -31.3860 C   0  0  0  0  0  0  0  0  0  0  0  0
   -7.3170   22.0230  -31.6680 C   0  0  0  0  0  0  0  0  0  0  0  0
   -8.2960   21.1410  -32.1180 C   0  0  0  0  0  0  0  0  0  0  0  0
   -7.9240   19.8050  -32.3410 C   0  0  0  0  0  0  0  0  0  0  0  0
   -6.5880   19.3820  -32.1310 C   0  0  0  0  0  0  0  0  0  0  0  0
   -6.2050   17.9460  -32.3490 C   0  0  0  0  0  0  0  0  0  0  0  0
   -5.8560   17.6420  -34.1090 P   0  0  2  0  0  0  0  0  0  0  0  0
   -6.7690   16.5580  -34.6320 O   0  0  0  0  0  0  0  0  0  0  0  0
   -4.2490   17.1450  -34.2760 O   0  0  0  0  0  0  0  0  0  0  0  0
   -6.0930   19.0640  -34.9980 O   0  0  0  0  0  0  0  0  0  0  0  0
   -5.6250   20.3060  -31.6700 C   0  0  0  0  0  0  0  0  0  0  0  0
   -6.0270   21.6230  -31.4340 C   0  0  0  0  0  0  0  0  0  0  0  0
   -5.2790   22.6600  -31.0060 N   0  0  0  0  0  0  0  0  0  0  0  0
   -3.8770   22.6300  -30.6990 C   0  0  0  0  0  0  0  0  0  0  0  0
   -3.0520   22.2940  -31.5910 O   0  0  0  0  0  0  0  0  0  0  0  0
   -3.3830   23.0820  -29.3540 C   0  0  0  0  0  0  0  0  0  0  0  0
   -2.1340   23.8970  -29.4760 C   0  0  0  0  0  0  0  0  0  0  0  0
   -1.0260   23.3330  -29.6830 O   0  0  0  0  0  0  0  0  0  0  0  0
   -2.1880   25.2800  -29.3550 O   0  0  0  0  0  0  0  0  0  0  0  0
   -3.8710   26.0480  -30.0930 H   0  0  0  0  0  0  0  0  0  0  0  0
   -8.2804   24.0168  -31.4667 H   0  0  0  0  0  0  0  0  0  0  0  0
   -9.3278   21.4797  -32.2933 H   0  0  0  0  0  0  0  0  0  0  0  0
   -8.6774   19.0798  -32.6821 H   0  0  0  0  0  0  0  0  0  0  0  0
   -5.3070   17.7166  -31.7566 H   0  0  0  0  0  0  0  0  0  0  0  0
   -7.0400   17.3026  -32.0347 H   0  0  0  0  0  0  0  0  0  0  0  0
   -7.0650   19.2450  -34.9370 H   0  0  0  0  0  0  0  0  0  0  0  0
   -4.5832   19.9963  -31.5007 H   0  0  0  0  0  0  0  0  0  0  0  0
   -4.1623   23.6914  -28.8729 H   0  0  0  0  0  0  0  0  0  0  0  0
   -3.1566   22.1902  -28.7511 H   0  0  0  0  0  0  0  0  0  0  0  0
  1  2  1  0
  2  3  2  0
  2  4  1  0
  4  5  2  0
  5  6  1  0
  6  7  2  0
  7  8  1  0
  8  9  2  0
  9 10  1  0
 10 11  1  0
 11 12  2  0
 11 13  1  1
 11 14  1  0
  9 15  1  0
 15 16  2  0
 16 17  1  0
 17 18  1  0
 18 19  2  0
 18 20  1  0
 20 21  1  0
 21 22  2  0
 21 23  1  0
 17  4  1  0
 16  6  1  0
  1 24  1  0
  5 25  1  0
  7 26  1  0
  8 27  1  0
 10 28  1  0
 10 29  1  0
 14 30  1  0
 15 31  1  0
 20 32  1  0
 20 33  1  0
M  CHG  3   1  -1  13  -1  23  -1
M  END
>  <UniqueID>  (68) 
67

>  <SMILES>  (68) 
[NH-]C(=O)c1cc2ccc(C[P@](=O)([O-])O)cc2n1C(=O)CC(=O)[O-]

>  <Energy>  (68) 
65.66609185071484

>  <Genealogy>  (68) 
[NH-]C(=O)c1cc2ccc(CP(=O)([O-])O)cc2n1C(=O)CC(=O)[O-] (protonated)
[NH-]C(=O)c1cc2ccc(C[P@](=O)([O-])O)cc2n1C(=O)CC(=O)[O-] (chirality)
[NH-]C(=O)c1cc2ccc(C[P@](=O)([O-])O)cc2n1C(=O)CC(=O)[O-] (3D coordinates assigned)
[NH-]C(=O)c1cc2ccc(C[P@](=O)([O-])O)cc2n1C(=O)CC(=O)[O-] (optimized conformer: 65.66609185071484 kcal/mol)

>  <smiles>  (68) 
NC(=O)c1cc2ccc(CP(=O)(O)O)cc2n1C(=O)CC(=O)O

>  <score_type>  (68) 
oracle

>  <origin>  (68) 
adg

>  <m_score__min__energy>  (68) 
-11.779999999999999

>  <m_primary>  (68) 
energy

$$$$
68:0
     RDKit          3D

 39 41  0  0  0  0  0  0  0  0999 V2000
   -1.7050   17.5290  -33.7020 C   0  0  0  0  0  0  0  0  0  0  0  0
   -2.4280   17.6110  -34.9240 O   0  0  0  0  0  0  0  0  0  0  0  0
   -3.5400   16.8060  -35.2000 C   0  0  0  0  0  0  0  0  0  0  0  0
   -3.4710   15.9220  -36.0980 O   0  0  0  0  0  0  0  0  0  0  0  0
   -4.7950   16.9960  -34.4370 C   0  0  0  0  0  0  0  0  0  0  0  0
   -5.6870   15.9270  -34.2500 C   0  0  0  0  0  0  0  0  0  0  0  0
   -6.8700   16.1110  -33.5330 C   0  0  0  0  0  0  0  0  0  0  0  0
   -7.1780   17.3590  -32.9880 C   0  0  0  0  0  0  0  0  0  0  0  0
   -8.3550   17.5150  -32.3280 F   0  0  0  0  0  0  0  0  0  0  0  0
   -6.2960   18.4420  -33.1570 C   0  0  0  0  0  0  0  0  0  0  0  0
   -6.6040   19.7750  -32.5840 C   0  0  0  0  0  0  0  0  0  0  0  0
   -7.9430   20.2410  -32.5300 C   0  0  0  0  0  0  0  0  0  0  0  0
   -8.2440   21.5010  -31.9880 C   0  0  0  0  0  0  0  0  0  0  0  0
   -7.1920   22.2690  -31.4990 C   0  0  0  0  0  0  0  0  0  0  0  0
   -7.2000   23.5290  -30.9470 C   0  0  0  0  0  0  0  0  0  0  0  0
   -5.8660   23.8170  -30.6620 C   0  0  0  0  0  0  0  0  0  0  0  0
   -5.3930   25.1090  -30.1120 C   0  0  0  0  0  0  0  0  0  0  0  0
   -6.0980   25.7560  -29.0490 N   0  0  0  0  0  0  0  0  0  0  0  0
   -4.3680   25.6630  -30.5890 O   0  0  0  0  0  0  0  0  0  0  0  0
   -5.0690   22.7670  -31.0080 N   0  0  0  0  0  0  0  0  0  0  0  0
   -3.6120   22.6830  -30.8750 C   0  0  0  0  0  0  0  0  0  0  0  0
   -5.8930   21.8330  -31.5330 C   0  0  0  0  0  0  0  0  0  0  0  0
   -5.5630   20.5860  -32.0750 C   0  0  0  0  0  0  0  0  0  0  0  0
   -5.1090   18.2510  -33.8880 C   0  0  0  0  0  0  0  0  0  0  0  0
   -2.4040   17.6083  -32.8564 H   0  0  0  0  0  0  0  0  0  0  0  0
   -1.1771   16.5652  -33.6522 H   0  0  0  0  0  0  0  0  0  0  0  0
   -0.9747   18.3501  -33.6522 H   0  0  0  0  0  0  0  0  0  0  0  0
   -5.4515   14.9386  -34.6714 H   0  0  0  0  0  0  0  0  0  0  0  0
   -7.5636   15.2682  -33.3965 H   0  0  0  0  0  0  0  0  0  0  0  0
   -8.7549   19.6079  -32.9172 H   0  0  0  0  0  0  0  0  0  0  0  0
   -9.2798   21.8695  -31.9512 H   0  0  0  0  0  0  0  0  0  0  0  0
   -8.0738   24.1729  -30.7683 H   0  0  0  0  0  0  0  0  0  0  0  0
   -5.7740   26.6840  -28.6970 H   0  0  0  0  0  0  0  0  0  0  0  0
   -6.9100   25.3030  -28.5770 H   0  0  0  0  0  0  0  0  0  0  0  0
   -3.3414   22.6674  -29.8089 H   0  0  0  0  0  0  0  0  0  0  0  0
   -3.2522   21.7626  -31.3581 H   0  0  0  0  0  0  0  0  0  0  0  0
   -3.1488   23.5559  -31.3581 H   0  0  0  0  0  0  0  0  0  0  0  0
   -4.5179   20.2442  -32.1046 H   0  0  0  0  0  0  0  0  0  0  0  0
   -4.4180   19.0947  -34.0316 H   0  0  0  0  0  0  0  0  0  0  0  0
  1  2  1  0
  2  3  1  0
  3  4  2  0
  3  5  1  0
  5  6  2  0
  6  7  1  0
  7  8  2  0
  8  9  1  0
  8 10  1  0
 10 11  1  0
 11 12  2  0
 12 13  1  0
 13 14  2  0
 14 15  1  0
 15 16  2  0
 16 17  1  0
 17 18  1  0
 17 19  2  0
 16 20  1  0
 20 21  1  0
 20 22  1  0
 22 23  2  0
 10 24  2  0
 24  5  1  0
 23 11  1  0
 22 14  1  0
  1 25  1  0
  1 26  1  0
  1 27  1  0
  6 28  1  0
  7 29  1  0
 12 30  1  0
 13 31  1  0
 15 32  1  0
 18 33  1  0
 18 34  1  0
 21 35  1  0
 21 36  1  0
 21 37  1  0
 23 38  1  0
 24 39  1  0
M  END
>  <UniqueID>  (69) 
68

>  <SMILES>  (69) 
COC(=O)c1ccc(F)c(-c2ccc3cc(C(N)=O)n(C)c3c2)c1

>  <Energy>  (69) 
80.40466258572015

>  <Genealogy>  (69) 
COC(=O)c1ccc(F)c(-c2ccc3cc(C(N)=O)n(C)c3c2)c1 (3D coordinates assigned)
COC(=O)c1ccc(F)c(-c2ccc3cc(C(N)=O)n(C)c3c2)c1 (optimized conformer: 80.40466258572015 kcal/mol)

>  <smiles>  (69) 
COC(=O)c1ccc(F)c(-c2ccc3cc(C(N)=O)n(C)c3c2)c1

>  <score_type>  (69) 
oracle

>  <origin>  (69) 
adg

>  <m_score__min__energy>  (69) 
-8.7300000000000004

>  <m_primary>  (69) 
energy

$$$$
69:0
     RDKit          3D

 45 46  0  0  0  0  0  0  0  0999 V2000
   -9.4370   20.1130  -32.2280 C   0  0  0  0  0  0  0  0  0  0  0  0
   -8.3290   19.6220  -31.2960 C   0  0  0  0  0  0  0  0  0  0  0  0
   -7.8870   18.1860  -31.6340 C   0  0  2  0  0  0  0  0  0  0  0  0
   -6.4850   17.9200  -31.0600 C   0  0  0  0  0  0  0  0  0  0  0  0
   -7.9200   17.9950  -33.0980 N   0  0  0  0  0  0  0  0  0  0  0  0
   -6.6290   17.5420  -33.6330 C   0  0  0  0  0  0  0  0  0  0  0  0
   -6.0580   18.6040  -34.5740 C   0  0  0  0  0  0  0  0  0  0  0  0
   -5.2990   19.6470  -33.7990 C   0  0  0  0  0  0  0  0  0  0  0  0
   -3.8830   19.6050  -33.7490 C   0  0  0  0  0  0  0  0  0  0  0  0
   -3.1650   20.5470  -32.9920 C   0  0  0  0  0  0  0  0  0  0  0  0
   -3.8880   21.5120  -32.2970 C   0  0  0  0  0  0  0  0  0  0  0  0
   -3.4510   22.5170  -31.4630 C   0  0  0  0  0  0  0  0  0  0  0  0
   -4.6070   23.1630  -31.0310 C   0  0  0  0  0  0  0  0  0  0  0  0
   -4.5930   24.3610  -30.1670 C   0  0  0  0  0  0  0  0  0  0  0  0
   -5.4330   24.4510  -29.0160 N   0  0  0  0  0  0  0  0  0  0  0  0
   -3.8680   25.3410  -30.4810 O   0  0  0  0  0  0  0  0  0  0  0  0
   -5.7150   22.5730  -31.5600 N   0  0  0  0  0  0  0  0  0  0  0  0
   -7.0950   22.8560  -31.2700 C   0  0  0  0  0  0  0  0  0  0  0  0
   -8.0100   23.3970  -32.3230 C   0  0  0  0  0  0  0  0  0  0  0  0
   -7.5410   22.6730  -30.1060 O   0  0  0  0  0  0  0  0  0  0  0  0
   -5.2580   21.5670  -32.3380 C   0  0  0  0  0  0  0  0  0  0  0  0
   -5.9990   20.6340  -33.0700 C   0  0  0  0  0  0  0  0  0  0  0  0
  -10.2807   20.4869  -31.6294 H   0  0  0  0  0  0  0  0  0  0  0  0
   -9.0499   20.9238  -32.8626 H   0  0  0  0  0  0  0  0  0  0  0  0
   -9.7776   19.2816  -32.8626 H   0  0  0  0  0  0  0  0  0  0  0  0
   -7.4620   20.2923  -31.3906 H   0  0  0  0  0  0  0  0  0  0  0  0
   -8.7224   19.6242  -30.2688 H   0  0  0  0  0  0  0  0  0  0  0  0
   -8.5781   17.4628  -31.1764 H   0  0  0  0  0  0  0  0  0  0  0  0
   -6.5310   17.9287  -29.9610 H   0  0  0  0  0  0  0  0  0  0  0  0
   -6.1281   16.9381  -31.4043 H   0  0  0  0  0  0  0  0  0  0  0  0
   -5.7932   18.7029  -31.4043 H   0  0  0  0  0  0  0  0  0  0  0  0
   -8.1870   18.8930  -33.5670 H   0  0  0  0  0  0  0  0  0  0  0  0
   -5.9276   17.3748  -32.8023 H   0  0  0  0  0  0  0  0  0  0  0  0
   -6.7747   16.6040  -34.1889 H   0  0  0  0  0  0  0  0  0  0  0  0
   -5.3786   18.1223  -35.2926 H   0  0  0  0  0  0  0  0  0  0  0  0
   -6.8895   19.0918  -35.1037 H   0  0  0  0  0  0  0  0  0  0  0  0
   -3.3409   18.8279  -34.3079 H   0  0  0  0  0  0  0  0  0  0  0  0
   -2.0661   20.5222  -32.9502 H   0  0  0  0  0  0  0  0  0  0  0  0
   -2.4116   22.7580  -31.1953 H   0  0  0  0  0  0  0  0  0  0  0  0
   -6.1650   23.7330  -28.8230 H   0  0  0  0  0  0  0  0  0  0  0  0
   -5.3790   25.2890  -28.3930 H   0  0  0  0  0  0  0  0  0  0  0  0
   -8.8625   23.9010  -31.8443 H   0  0  0  0  0  0  0  0  0  0  0  0
   -7.4630   24.1170  -32.9494 H   0  0  0  0  0  0  0  0  0  0  0  0
   -8.3772   22.5707  -32.9494 H   0  0  0  0  0  0  0  0  0  0  0  0
   -7.0985   20.6677  -33.0780 H   0  0  0  0  0  0  0  0  0  0  0  0
  1  2  1  0
  2  3  1  0
  3  4  1  0
  3  5  1  0
  5  6  1  0
  6  7  1  0
  7  8  1  0
  8  9  2  0
  9 10  1  0
 10 11  2  0
 11 12  1  0
 12 13  2  0
 13 14  1  0
 14 15  1  0
 14 16  2  0
 13 17  1  0
 17 18  1  0
 18 19  1  0
 18 20  2  0
 17 21  1  0
 21 22  2  0
 22  8  1  0
 21 11  1  0
  1 23  1  0
  1 24  1  0
  1 25  1  0
  2 26  1  0
  2 27  1  0
  3 28  1  1
  4 29  1  0
  4 30  1  0
  4 31  1  0
  5 32  1  0
  6 33  1  0
  6 34  1  0
  7 35  1  0
  7 36  1  0
  9 37  1  0
 10 38  1  0
 12 39  1  0
 15 40  1  0
 15 41  1  0
 19 42  1  0
 19 43  1  0
 19 44  1  0
 22 45  1  0
M  END
>  <UniqueID>  (70) 
69

>  <SMILES>  (70) 
CC[C@H](C)NCCc1ccc2cc(C(N)=O)n(C(C)=O)c2c1

>  <Energy>  (70) 
75.35036017152093

>  <Genealogy>  (70) 
CC[C@H](C)NCCc1ccc2cc(C(N)=O)n(C(C)=O)c2c1 (3D coordinates assigned)
CC[C@H](C)NCCc1ccc2cc(C(N)=O)n(C(C)=O)c2c1 (optimized conformer: 75.35036017152093 kcal/mol)

>  <smiles>  (70) 
CC[C@H](C)NCCc1ccc2cc(C(N)=O)n(C(C)=O)c2c1

>  <score_type>  (70) 
oracle

>  <origin>  (70) 
adg

>  <m_score__min__energy>  (70) 
-8.5899999999999999

>  <m_primary>  (70) 
energy

$$$$
70:0
     RDKit          3D

 46 48  0  0  0  0  0  0  0  0999 V2000
   -3.8640   25.2820  -30.5990 N   0  0  0  0  0  0  0  0  0  0  0  0
   -5.2600   25.1520  -30.3400 C   0  0  0  0  0  0  0  0  0  0  0  0
   -5.8610   26.0730  -29.7260 O   0  0  0  0  0  0  0  0  0  0  0  0
   -5.9730   23.9260  -30.7560 C   0  0  0  0  0  0  0  0  0  0  0  0
   -7.3510   23.8710  -30.9530 C   0  0  0  0  0  0  0  0  0  0  0  0
   -7.6050   22.6000  -31.4150 C   0  0  0  0  0  0  0  0  0  0  0  0
   -8.8100   22.0020  -31.7730 C   0  0  0  0  0  0  0  0  0  0  0  0
   -8.7800   20.6630  -32.1980 C   0  0  0  0  0  0  0  0  0  0  0  0
   -7.5570   19.9480  -32.2410 C   0  0  0  0  0  0  0  0  0  0  0  0
   -7.5350   18.5220  -32.7180 C   0  0  0  0  0  0  0  0  0  0  0  0
   -6.4190   18.3250  -33.6920 C   0  0  0  0  0  0  0  0  0  0  0  0
   -5.8140   17.2210  -33.7470 O   0  0  0  0  0  0  0  0  0  0  0  0
   -6.0780   19.3400  -34.5750 O   0  0  0  0  0  0  0  0  0  0  0  0
   -6.3520   20.5910  -31.8810 C   0  0  0  0  0  0  0  0  0  0  0  0
   -6.4090   21.9310  -31.4790 C   0  0  0  0  0  0  0  0  0  0  0  0
   -5.3970   22.7310  -31.0750 N   0  0  0  0  0  0  0  0  0  0  0  0
   -4.0140   22.3580  -30.9680 C   0  0  0  0  0  0  0  0  0  0  0  0
   -3.1390   22.9990  -31.6140 O   0  0  0  0  0  0  0  0  0  0  0  0
   -3.6440   21.3030  -30.1270 O   0  0  0  0  0  0  0  0  0  0  0  0
   -2.6500   21.4080  -29.1070 C   0  0  0  0  0  0  0  0  0  0  0  0
   -3.2690   21.8580  -27.7800 C   0  0  0  0  0  0  0  0  0  0  0  0
   -3.8740   23.2640  -27.8630 C   0  0  0  0  0  0  0  0  0  0  0  0
   -2.8420   24.3060  -27.5240 C   0  0  0  0  0  0  0  0  0  0  0  0
   -1.8140   24.6070  -28.4340 C   0  0  0  0  0  0  0  0  0  0  0  0
   -0.8740   25.5970  -28.1310 C   0  0  0  0  0  0  0  0  0  0  0  0
   -0.9580   26.2980  -26.9260 C   0  0  0  0  0  0  0  0  0  0  0  0
   -1.9860   26.0140  -26.0220 C   0  0  0  0  0  0  0  0  0  0  0  0
   -2.9280   25.0250  -26.3210 C   0  0  0  0  0  0  0  0  0  0  0  0
   -3.5020   26.0380  -31.2220 H   0  0  0  0  0  0  0  0  0  0  0  0
   -8.0817   24.6740  -30.7765 H   0  0  0  0  0  0  0  0  0  0  0  0
   -9.7565   22.5604  -31.7247 H   0  0  0  0  0  0  0  0  0  0  0  0
   -9.7135   20.1655  -32.4999 H   0  0  0  0  0  0  0  0  0  0  0  0
   -7.3896   17.8524  -31.8574 H   0  0  0  0  0  0  0  0  0  0  0  0
   -8.4902   18.2924  -33.2128 H   0  0  0  0  0  0  0  0  0  0  0  0
   -5.3933   20.0528  -31.9156 H   0  0  0  0  0  0  0  0  0  0  0  0
   -2.1735   20.4265  -28.9669 H   0  0  0  0  0  0  0  0  0  0  0  0
   -1.9068   22.1568  -29.4183 H   0  0  0  0  0  0  0  0  0  0  0  0
   -4.0620   21.1483  -27.5017 H   0  0  0  0  0  0  0  0  0  0  0  0
   -2.4669   21.8825  -27.0276 H   0  0  0  0  0  0  0  0  0  0  0  0
   -4.2425   23.4392  -28.8845 H   0  0  0  0  0  0  0  0  0  0  0  0
   -4.7016   23.3370  -27.1420 H   0  0  0  0  0  0  0  0  0  0  0  0
   -1.7487   24.0622  -29.3874 H   0  0  0  0  0  0  0  0  0  0  0  0
   -0.0669   25.8240  -28.8431 H   0  0  0  0  0  0  0  0  0  0  0  0
   -0.2152   27.0737  -26.6881 H   0  0  0  0  0  0  0  0  0  0  0  0
   -2.0538   26.5691  -25.0747 H   0  0  0  0  0  0  0  0  0  0  0  0
   -3.7399   24.8093  -25.6108 H   0  0  0  0  0  0  0  0  0  0  0  0
  1  2  1  0
  2  3  2  0
  2  4  1  0
  4  5  2  0
  5  6  1  0
  6  7  2  0
  7  8  1  0
  8  9  2  0
  9 10  1  0
 10 11  1  0
 11 12  2  0
 11 13  1  0
  9 14  1  0
 14 15  2  0
 15 16  1  0
 16 17  1  0
 17 18  2  0
 17 19  1  0
 19 20  1  0
 20 21  1  0
 21 22  1  0
 22 23  1  0
 23 24  2  0
 24 25  1  0
 25 26  2  0
 26 27  1  0
 27 28  2  0
 16  4  1  0
 28 23  1  0
 15  6  1  0
  1 29  1  0
  5 30  1  0
  7 31  1  0
  8 32  1  0
 10 33  1  0
 10 34  1  0
 14 35  1  0
 20 36  1  0
 20 37  1  0
 21 38  1  0
 21 39  1  0
 22 40  1  0
 22 41  1  0
 24 42  1  0
 25 43  1  0
 26 44  1  0
 27 45  1  0
 28 46  1  0
M  CHG  2   1  -1  13  -1
M  END
>  <UniqueID>  (71) 
70

>  <SMILES>  (71) 
[NH-]C(=O)c1cc2ccc(CC(=O)[O-])cc2n1C(=O)OCCCc1ccccc1

>  <Energy>  (71) 
80.35041900648707

>  <Genealogy>  (71) 
[NH-]C(=O)c1cc2ccc(CC(=O)[O-])cc2n1C(=O)OCCCc1ccccc1 (protonated)
[NH-]C(=O)c1cc2ccc(CC(=O)[O-])cc2n1C(=O)OCCCc1ccccc1 (3D coordinates assigned)
[NH-]C(=O)c1cc2ccc(CC(=O)[O-])cc2n1C(=O)OCCCc1ccccc1 (optimized conformer: 80.35041900648707 kcal/mol)

>  <smiles>  (71) 
NC(=O)c1cc2ccc(CC(=O)O)cc2n1C(=O)OCCCc1ccccc1

>  <score_type>  (71) 
oracle

>  <origin>  (71) 
adg

>  <m_score__min__energy>  (71) 
-11.390000000000001

>  <m_primary>  (71) 
energy

$$$$
71:0
     RDKit          3D

 31 33  0  0  0  0  0  0  0  0999 V2000
   -1.5640   26.0400  -28.9140 N   0  0  0  0  0  0  0  0  0  0  0  0
   -0.8460   24.8090  -28.8670 C   0  0  0  0  0  0  0  0  0  0  0  0
    0.2430   24.7540  -28.2350 O   0  0  0  0  0  0  0  0  0  0  0  0
   -1.3300   23.6170  -29.5950 C   0  0  0  0  0  0  0  0  0  0  0  0
   -0.5120   22.5380  -29.9220 C   0  0  0  0  0  0  0  0  0  0  0  0
   -1.3050   21.6920  -30.6630 C   0  0  0  0  0  0  0  0  0  0  0  0
   -1.0040   20.4630  -31.2410 C   0  0  0  0  0  0  0  0  0  0  0  0
   -2.0270   19.7910  -31.9310 C   0  0  0  0  0  0  0  0  0  0  0  0
   -3.3280   20.3490  -32.0210 C   0  0  0  0  0  0  0  0  0  0  0  0
   -4.3990   19.6240  -32.7470 C   0  0  0  0  0  0  0  0  0  0  0  0
   -5.7270   19.6870  -32.2860 C   0  0  0  0  0  0  0  0  0  0  0  0
   -6.7440   19.0030  -32.9580 C   0  0  0  0  0  0  0  0  0  0  0  0
   -6.4480   18.2530  -34.0980 C   0  0  0  0  0  0  0  0  0  0  0  0
   -5.1350   18.1880  -34.5710 C   0  0  0  0  0  0  0  0  0  0  0  0
   -4.8560   17.4660  -35.6850 F   0  0  0  0  0  0  0  0  0  0  0  0
   -4.1110   18.8690  -33.9030 C   0  0  0  0  0  0  0  0  0  0  0  0
   -2.8510   18.8210  -34.4040 F   0  0  0  0  0  0  0  0  0  0  0  0
   -3.5920   21.6030  -31.4240 C   0  0  0  0  0  0  0  0  0  0  0  0
   -2.5490   22.2590  -30.7600 C   0  0  0  0  0  0  0  0  0  0  0  0
   -2.5820   23.4420  -30.1070 N   0  0  0  0  0  0  0  0  0  0  0  0
   -3.7360   24.2800  -29.9220 C   0  0  0  0  0  0  0  0  0  0  0  0
   -4.6500   23.9370  -29.1280 O   0  0  0  0  0  0  0  0  0  0  0  0
   -3.8640   25.4630  -30.6380 O   0  0  0  0  0  0  0  0  0  0  0  0
   -2.6060   26.0530  -28.9570 H   0  0  0  0  0  0  0  0  0  0  0  0
    0.5431   22.3931  -29.6466 H   0  0  0  0  0  0  0  0  0  0  0  0
    0.0042   20.0305  -31.1603 H   0  0  0  0  0  0  0  0  0  0  0  0
   -1.8167   18.8217  -32.4066 H   0  0  0  0  0  0  0  0  0  0  0  0
   -5.9665   20.2788  -31.3903 H   0  0  0  0  0  0  0  0  0  0  0  0
   -7.7787   19.0556  -32.5884 H   0  0  0  0  0  0  0  0  0  0  0  0
   -7.2491   17.7130  -34.6240 H   0  0  0  0  0  0  0  0  0  0  0  0
   -4.5942   22.0529  -31.4800 H   0  0  0  0  0  0  0  0  0  0  0  0
  1  2  1  0
  2  3  2  0
  2  4  1  0
  4  5  2  0
  5  6  1  0
  6  7  2  0
  7  8  1  0
  8  9  2  0
  9 10  1  0
 10 11  2  0
 11 12  1  0
 12 13  2  0
 13 14  1  0
 14 15  1  0
 14 16  2  0
 16 17  1  0
  9 18  1  0
 18 19  2  0
 19 20  1  0
 20 21  1  0
 21 22  2  0
 21 23  1  0
 20  4  1  0
 19  6  1  0
 16 10  1  0
  1 24  1  0
  5 25  1  0
  7 26  1  0
  8 27  1  0
 11 28  1  0
 12 29  1  0
 13 30  1  0
 18 31  1  0
M  CHG  2   1  -1  23  -1
M  END
>  <UniqueID>  (72) 
71

>  <SMILES>  (72) 
[NH-]C(=O)c1cc2ccc(-c3cccc(F)c3F)cc2n1C(=O)[O-]

>  <Energy>  (72) 
80.32029282022877

>  <Genealogy>  (72) 
[NH-]C(=O)c1cc2ccc(-c3cccc(F)c3F)cc2n1C(=O)[O-] (protonated)
[NH-]C(=O)c1cc2ccc(-c3cccc(F)c3F)cc2n1C(=O)[O-] (3D coordinates assigned)
[NH-]C(=O)c1cc2ccc(-c3cccc(F)c3F)cc2n1C(=O)[O-] (optimized conformer: 80.32029282022877 kcal/mol)

>  <smiles>  (72) 
NC(=O)c1cc2ccc(-c3cccc(F)c3F)cc2n1C(=O)O

>  <score_type>  (72) 
oracle

>  <origin>  (72) 
adg

>  <m_score__min__energy>  (72) 
-11.33

>  <m_primary>  (72) 
energy

$$$$
72:0
     RDKit          3D

 31 33  0  0  0  0  0  0  0  0999 V2000
   -8.7630   19.2470  -32.6480 C   0  0  0  0  0  0  0  0  0  0  0  0
   -7.2840   19.2200  -32.8490 C   0  0  0  0  0  0  0  0  0  0  0  0
   -6.3570   19.9740  -32.1430 C   0  0  0  0  0  0  0  0  0  0  0  0
   -5.0240   19.6880  -32.4940 C   0  0  0  0  0  0  0  0  0  0  0  0
   -3.8500   20.3650  -31.8850 C   0  0  0  0  0  0  0  0  0  0  0  0
   -2.5680   19.7530  -31.9240 C   0  0  0  0  0  0  0  0  0  0  0  0
   -1.4500   20.3900  -31.3630 C   0  0  0  0  0  0  0  0  0  0  0  0
   -1.6360   21.6300  -30.7630 C   0  0  0  0  0  0  0  0  0  0  0  0
   -0.7240   22.4710  -30.1680 C   0  0  0  0  0  0  0  0  0  0  0  0
   -1.4600   23.5780  -29.7510 C   0  0  0  0  0  0  0  0  0  0  0  0
   -0.8780   24.6950  -28.9780 C   0  0  0  0  0  0  0  0  0  0  0  0
   -1.5190   25.9660  -28.9320 N   0  0  0  0  0  0  0  0  0  0  0  0
    0.1740   24.5090  -28.3100 O   0  0  0  0  0  0  0  0  0  0  0  0
   -2.7750   23.4310  -30.0810 N   0  0  0  0  0  0  0  0  0  0  0  0
   -3.8330   24.3880  -29.9120 C   0  0  0  0  0  0  0  0  0  0  0  0
   -4.7540   24.1770  -29.0790 O   0  0  0  0  0  0  0  0  0  0  0  0
   -3.8660   25.5420  -30.6840 O   0  0  0  0  0  0  0  0  0  0  0  0
   -2.8660   22.2320  -30.6990 C   0  0  0  0  0  0  0  0  0  0  0  0
   -3.9950   21.6300  -31.2670 C   0  0  0  0  0  0  0  0  0  0  0  0
   -4.9190   18.6940  -33.4700 C   0  0  0  0  0  0  0  0  0  0  0  0
   -6.4660   18.1780  -33.8790 S   0  0  0  0  0  0  0  0  0  0  0  0
   -8.9866   19.2511  -31.5710 H   0  0  0  0  0  0  0  0  0  0  0  0
   -9.1797   20.1529  -33.1125 H   0  0  0  0  0  0  0  0  0  0  0  0
   -9.2125   18.3569  -33.1125 H   0  0  0  0  0  0  0  0  0  0  0  0
   -6.6360   20.7206  -31.3849 H   0  0  0  0  0  0  0  0  0  0  0  0
   -2.4504   18.7681  -32.3996 H   0  0  0  0  0  0  0  0  0  0  0  0
   -0.4554   19.9214  -31.3972 H   0  0  0  0  0  0  0  0  0  0  0  0
    0.3566   22.3047  -30.0472 H   0  0  0  0  0  0  0  0  0  0  0  0
   -2.5590   26.0450  -28.9700 H   0  0  0  0  0  0  0  0  0  0  0  0
   -4.9744   22.1297  -31.2337 H   0  0  0  0  0  0  0  0  0  0  0  0
   -3.9808   18.3126  -33.8993 H   0  0  0  0  0  0  0  0  0  0  0  0
  1  2  1  0
  2  3  2  0
  3  4  1  0
  4  5  1  0
  5  6  2  0
  6  7  1  0
  7  8  2  0
  8  9  1  0
  9 10  2  0
 10 11  1  0
 11 12  1  0
 11 13  2  0
 10 14  1  0
 14 15  1  0
 15 16  2  0
 15 17  1  0
 14 18  1  0
 18 19  2  0
  4 20  2  0
 20 21  1  0
 21  2  1  0
 19  5  1  0
 18  8  1  0
  1 22  1  0
  1 23  1  0
  1 24  1  0
  3 25  1  0
  6 26  1  0
  7 27  1  0
  9 28  1  0
 12 29  1  0
 19 30  1  0
 20 31  1  0
M  CHG  2  12  -1  17  -1
M  END
>  <UniqueID>  (73) 
72

>  <SMILES>  (73) 
Cc1cc(-c2ccc3cc(C([NH-])=O)n(C(=O)[O-])c3c2)cs1

>  <Energy>  (73) 
101.5806751734946

>  <Genealogy>  (73) 
Cc1cc(-c2ccc3cc(C([NH-])=O)n(C(=O)[O-])c3c2)cs1 (protonated)
Cc1cc(-c2ccc3cc(C([NH-])=O)n(C(=O)[O-])c3c2)cs1 (3D coordinates assigned)
Cc1cc(-c2ccc3cc(C([NH-])=O)n(C(=O)[O-])c3c2)cs1 (optimized conformer: 101.5806751734946 kcal/mol)

>  <smiles>  (73) 
Cc1cc(-c2ccc3cc(C(N)=O)n(C(=O)O)c3c2)cs1

>  <score_type>  (73) 
oracle

>  <origin>  (73) 
adg

>  <m_score__min__energy>  (73) 
-11.6

>  <m_primary>  (73) 
energy

$$$$
73:0
     RDKit          3D

 49 51  0  0  0  0  0  0  0  0999 V2000
   -3.2100   22.0210  -32.1810 C   0  0  0  0  0  0  0  0  0  0  0  0
   -4.0100   23.0370  -31.4290 C   0  0  0  0  0  0  0  0  0  0  0  0
   -3.4050   23.9750  -30.8410 O   0  0  0  0  0  0  0  0  0  0  0  0
   -5.4430   22.9440  -31.3400 N   0  0  0  0  0  0  0  0  0  0  0  0
   -6.3000   23.8970  -30.8750 C   0  0  0  0  0  0  0  0  0  0  0  0
   -5.9120   25.1660  -30.2270 C   0  0  0  0  0  0  0  0  0  0  0  0
   -4.9010   26.0060  -30.7860 N   0  0  0  0  0  0  0  0  0  0  0  0
   -6.4410   25.4880  -29.1300 O   0  0  0  0  0  0  0  0  0  0  0  0
   -7.6230   23.4990  -31.0510 C   0  0  0  0  0  0  0  0  0  0  0  0
   -7.5550   22.2570  -31.6360 C   0  0  0  0  0  0  0  0  0  0  0  0
   -8.5750   21.3920  -32.0230 C   0  0  0  0  0  0  0  0  0  0  0  0
   -8.2140   20.1730  -32.6190 C   0  0  0  0  0  0  0  0  0  0  0  0
   -6.8510   19.8540  -32.8380 C   0  0  0  0  0  0  0  0  0  0  0  0
   -6.4910   18.6040  -33.4440 N   0  0  0  0  0  0  0  0  0  0  0  0
   -5.7450   18.5940  -34.7060 C   0  0  0  0  0  0  0  0  0  0  0  0
   -5.1700   17.1950  -34.9820 C   0  0  0  0  0  0  0  0  0  0  0  0
   -4.7180   16.5440  -33.7330 N   0  0  0  0  0  0  0  0  0  0  0  0
   -3.5760   17.2510  -33.1000 C   0  0  0  0  0  0  0  0  0  0  0  0
   -2.6330   17.8310  -34.1630 C   0  0  0  0  0  0  0  0  0  0  0  0
   -1.6910   16.7870  -34.7620 C   0  0  0  0  0  0  0  0  0  0  0  0
   -2.4260   15.8870  -35.5440 O   0  0  0  0  0  0  0  0  0  0  0  0
   -5.8450   16.3000  -32.7940 C   0  0  0  0  0  0  0  0  0  0  0  0
   -6.9800   17.3430  -32.8800 C   0  0  0  0  0  0  0  0  0  0  0  0
   -5.8440   20.7570  -32.4360 C   0  0  0  0  0  0  0  0  0  0  0  0
   -6.2270   21.9450  -31.8060 C   0  0  0  0  0  0  0  0  0  0  0  0
   -2.6914   21.3624  -31.4688 H   0  0  0  0  0  0  0  0  0  0  0  0
   -3.8808   21.4211  -32.8136 H   0  0  0  0  0  0  0  0  0  0  0  0
   -2.4695   22.5324  -32.8136 H   0  0  0  0  0  0  0  0  0  0  0  0
   -4.6820   26.9260  -30.3430 H   0  0  0  0  0  0  0  0  0  0  0  0
   -4.3040   25.6800  -31.5770 H   0  0  0  0  0  0  0  0  0  0  0  0
   -8.5297   24.0595  -30.7795 H   0  0  0  0  0  0  0  0  0  0  0  0
   -9.6315   21.6555  -31.8666 H   0  0  0  0  0  0  0  0  0  0  0  0
   -8.9960   19.4597  -32.9184 H   0  0  0  0  0  0  0  0  0  0  0  0
   -6.4199   18.8762  -35.5275 H   0  0  0  0  0  0  0  0  0  0  0  0
   -4.9144   19.3115  -34.6333 H   0  0  0  0  0  0  0  0  0  0  0  0
   -5.9482   16.5734  -35.4488 H   0  0  0  0  0  0  0  0  0  0  0  0
   -4.3036   17.3014  -35.6514 H   0  0  0  0  0  0  0  0  0  0  0  0
   -3.9614   18.0701  -32.4751 H   0  0  0  0  0  0  0  0  0  0  0  0
   -3.0138   16.5314  -32.4868 H   0  0  0  0  0  0  0  0  0  0  0  0
   -3.2405   18.2604  -34.9733 H   0  0  0  0  0  0  0  0  0  0  0  0
   -2.0094   18.5908  -33.6691 H   0  0  0  0  0  0  0  0  0  0  0  0
   -0.9395   17.2886  -35.3894 H   0  0  0  0  0  0  0  0  0  0  0  0
   -1.1871   16.2406  -33.9512 H   0  0  0  0  0  0  0  0  0  0  0  0
   -3.2320   15.6560  -35.0140 H   0  0  0  0  0  0  0  0  0  0  0  0
   -6.2696   15.3096  -33.0152 H   0  0  0  0  0  0  0  0  0  0  0  0
   -5.4294   16.3694  -31.7779 H   0  0  0  0  0  0  0  0  0  0  0  0
   -7.7828   16.9494  -33.5208 H   0  0  0  0  0  0  0  0  0  0  0  0
   -7.3575   17.5355  -31.8649 H   0  0  0  0  0  0  0  0  0  0  0  0
   -4.7822   20.5315  -32.6141 H   0  0  0  0  0  0  0  0  0  0  0  0
  1  2  1  0
  2  3  2  0
  2  4  1  0
  4  5  1  0
  5  6  1  0
  6  7  1  0
  6  8  2  0
  5  9  2  0
  9 10  1  0
 10 11  2  0
 11 12  1  0
 12 13  2  0
 13 14  1  0
 14 15  1  0
 15 16  1  0
 16 17  1  0
 17 18  1  0
 18 19  1  0
 19 20  1  0
 20 21  1  0
 17 22  1  0
 22 23  1  0
 13 24  1  0
 24 25  2  0
 25  4  1  0
 25 10  1  0
 23 14  1  0
  1 26  1  0
  1 27  1  0
  1 28  1  0
  7 29  1  0
  7 30  1  0
  9 31  1  0
 11 32  1  0
 12 33  1  0
 15 34  1  0
 15 35  1  0
 16 36  1  0
 16 37  1  0
 18 38  1  0
 18 39  1  0
 19 40  1  0
 19 41  1  0
 20 42  1  0
 20 43  1  0
 21 44  1  0
 22 45  1  0
 22 46  1  0
 23 47  1  0
 23 48  1  0
 24 49  1  0
M  END
>  <UniqueID>  (74) 
73

>  <SMILES>  (74) 
CC(=O)n1c(C(N)=O)cc2ccc(N3CCN(CCCO)CC3)cc21

>  <Energy>  (74) 
98.85490327852519

>  <Genealogy>  (74) 
CC(=O)n1c(C(N)=O)cc2ccc(N3CCN(CCCO)CC3)cc21 (3D coordinates assigned)
CC(=O)n1c(C(N)=O)cc2ccc(N3CCN(CCCO)CC3)cc21 (nonaromatic ring conformer: 98.85490327852519 kcal/mol)

>  <smiles>  (74) 
CC(=O)n1c(C(N)=O)cc2ccc(N3CCN(CCCO)CC3)cc21

>  <score_type>  (74) 
oracle

>  <origin>  (74) 
adg

>  <m_score__min__energy>  (74) 
-8.3900000000000006

>  <m_primary>  (74) 
energy

$$$$
74:0
     RDKit          3D

 28 30  0  0  0  0  0  0  0  0999 V2000
   -1.5800   25.9500  -28.7770 N   0  0  0  0  0  0  0  0  0  0  0  0
   -0.9150   24.7010  -28.9390 C   0  0  0  0  0  0  0  0  0  0  0  0
    0.1470   24.4790  -28.2990 O   0  0  0  0  0  0  0  0  0  0  0  0
   -1.4840   23.6440  -29.8000 C   0  0  0  0  0  0  0  0  0  0  0  0
   -0.7530   22.5460  -30.2490 C   0  0  0  0  0  0  0  0  0  0  0  0
   -1.6540   21.7610  -30.9320 C   0  0  0  0  0  0  0  0  0  0  0  0
   -1.4640   20.5550  -31.5950 C   0  0  0  0  0  0  0  0  0  0  0  0
   -2.5680   19.9780  -32.2430 C   0  0  0  0  0  0  0  0  0  0  0  0
   -3.8360   20.6160  -32.2260 C   0  0  0  0  0  0  0  0  0  0  0  0
   -4.9750   19.9840  -32.9290 C   0  0  0  0  0  0  0  0  0  0  0  0
   -6.2700   20.4570  -33.0410 C   0  0  0  0  0  0  0  0  0  0  0  0
   -6.9710   19.5660  -33.7640 N   0  0  0  0  0  0  0  0  0  0  0  0
   -6.0960   18.5910  -34.0670 C   0  0  0  0  0  0  0  0  0  0  0  0
   -4.9040   18.8380  -33.5700 O   0  0  0  0  0  0  0  0  0  0  0  0
   -3.9870   21.8440  -31.5400 C   0  0  0  0  0  0  0  0  0  0  0  0
   -2.8720   22.3860  -30.8880 C   0  0  0  0  0  0  0  0  0  0  0  0
   -2.7850   23.5460  -30.1970 N   0  0  0  0  0  0  0  0  0  0  0  0
   -3.8310   24.5140  -30.0190 C   0  0  0  0  0  0  0  0  0  0  0  0
   -4.7400   24.3200  -29.1680 O   0  0  0  0  0  0  0  0  0  0  0  0
   -3.8670   25.6610  -30.8020 O   0  0  0  0  0  0  0  0  0  0  0  0
   -2.6000   26.0470  -28.9800 H   0  0  0  0  0  0  0  0  0  0  0  0
    0.3175   22.3484  -30.0911 H   0  0  0  0  0  0  0  0  0  0  0  0
   -0.4784   20.0668  -31.6118 H   0  0  0  0  0  0  0  0  0  0  0  0
   -2.4489   19.0200  -32.7702 H   0  0  0  0  0  0  0  0  0  0  0  0
   -6.6571   21.3943  -32.6149 H   0  0  0  0  0  0  0  0  0  0  0  0
   -7.9790   19.6200  -34.0310 H   0  0  0  0  0  0  0  0  0  0  0  0
   -6.3464   17.6974  -34.6575 H   0  0  0  0  0  0  0  0  0  0  0  0
   -4.9576   22.3612  -31.5191 H   0  0  0  0  0  0  0  0  0  0  0  0
  1  2  1  0
  2  3  2  0
  2  4  1  0
  4  5  2  0
  5  6  1  0
  6  7  2  0
  7  8  1  0
  8  9  2  0
  9 10  1  0
 10 11  2  0
 11 12  1  0
 12 13  2  0
 13 14  1  0
  9 15  1  0
 15 16  2  0
 16 17  1  0
 17 18  1  0
 18 19  2  0
 18 20  1  0
 17  4  1  0
 16  6  1  0
 14 10  1  0
  1 21  1  0
  5 22  1  0
  7 23  1  0
  8 24  1  0
 11 25  1  0
 12 26  1  0
 13 27  1  0
 15 28  1  0
M  CHG  3   1  -1  12   1  20  -1
M  END
>  <UniqueID>  (75) 
74

>  <SMILES>  (75) 
[NH-]C(=O)c1cc2ccc(-c3c[nH+]co3)cc2n1C(=O)[O-]

>  <Energy>  (75) 
102.3828433377978

>  <Genealogy>  (75) 
[NH-]C(=O)c1cc2ccc(-c3c[nH+]co3)cc2n1C(=O)[O-] (protonated)
[NH-]C(=O)c1cc2ccc(-c3c[nH+]co3)cc2n1C(=O)[O-] (3D coordinates assigned)
[NH-]C(=O)c1cc2ccc(-c3c[nH+]co3)cc2n1C(=O)[O-] (optimized conformer: 102.3828433377978 kcal/mol)

>  <smiles>  (75) 
NC(=O)c1cc2ccc(-c3cnco3)cc2n1C(=O)O

>  <score_type>  (75) 
oracle

>  <origin>  (75) 
adg

>  <m_score__min__energy>  (75) 
-10.130000000000001

>  <m_primary>  (75) 
energy

$$$$
75:0
     RDKit          3D

 56 59  0  0  0  0  0  0  0  0999 V2000
   -2.2430   16.8910  -34.4900 C   0  0  0  0  0  0  0  0  0  0  0  0
   -3.5300   16.4960  -34.9560 O   0  0  0  0  0  0  0  0  0  0  0  0
   -4.7430   16.7910  -34.3140 C   0  0  0  0  0  0  0  0  0  0  0  0
   -5.0410   18.0850  -33.8370 C   0  0  0  0  0  0  0  0  0  0  0  0
   -6.2640   18.3480  -33.1900 C   0  0  0  0  0  0  0  0  0  0  0  0
   -6.5660   19.7060  -32.6520 C   0  0  0  0  0  0  0  0  0  0  0  0
   -7.8810   20.2340  -32.7270 C   0  0  0  0  0  0  0  0  0  0  0  0
   -8.1680   21.5250  -32.2520 C   0  0  0  0  0  0  0  0  0  0  0  0
   -7.1240   22.2750  -31.7240 C   0  0  0  0  0  0  0  0  0  0  0  0
   -7.1320   23.5520  -31.2170 C   0  0  0  0  0  0  0  0  0  0  0  0
   -5.8140   23.8120  -30.8510 C   0  0  0  0  0  0  0  0  0  0  0  0
   -5.3730   25.1270  -30.3500 C   0  0  0  0  0  0  0  0  0  0  0  0
   -4.1310   25.6730  -30.7950 N   0  0  0  0  0  0  0  0  0  0  0  0
   -6.0520   25.7500  -29.4890 O   0  0  0  0  0  0  0  0  0  0  0  0
   -5.0170   22.7280  -31.1000 N   0  0  0  0  0  0  0  0  0  0  0  0
   -3.6310   22.5590  -30.7320 C   0  0  0  0  0  0  0  0  0  0  0  0
   -2.7460   23.3010  -31.2380 O   0  0  0  0  0  0  0  0  0  0  0  0
   -3.2680   21.6110  -29.7640 O   0  0  0  0  0  0  0  0  0  0  0  0
   -1.9260   21.1920  -29.5260 C   0  0  0  0  0  0  0  0  0  0  0  0
   -1.0100   22.3710  -29.1680 C   0  0  0  0  0  0  0  0  0  0  0  0
   -1.2630   22.8310  -27.7770 N   0  0  0  0  0  0  0  0  0  0  0  0
   -0.4390   24.0060  -27.4280 C   0  0  0  0  0  0  0  0  0  0  0  0
   -0.8990   25.2710  -28.1940 C   0  0  0  0  0  0  0  0  0  0  0  0
   -2.2150   25.1620  -28.7100 O   0  0  0  0  0  0  0  0  0  0  0  0
   -3.0700   24.5860  -27.7460 C   0  0  0  0  0  0  0  0  0  0  0  0
   -2.7000   23.1050  -27.5150 C   0  0  0  0  0  0  0  0  0  0  0  0
   -5.8380   21.7940  -31.6470 C   0  0  0  0  0  0  0  0  0  0  0  0
   -5.5350   20.4940  -32.0870 C   0  0  0  0  0  0  0  0  0  0  0  0
   -7.1930   17.3030  -33.0350 C   0  0  0  0  0  0  0  0  0  0  0  0
   -6.9030   16.0220  -33.5100 C   0  0  0  0  0  0  0  0  0  0  0  0
   -5.6870   15.7610  -34.1460 C   0  0  0  0  0  0  0  0  0  0  0  0
   -5.4320   14.4650  -34.6030 O   0  0  0  0  0  0  0  0  0  0  0  0
   -2.2361   16.8931  -33.3900 H   0  0  0  0  0  0  0  0  0  0  0  0
   -1.4861   16.1838  -34.8601 H   0  0  0  0  0  0  0  0  0  0  0  0
   -2.0131   17.9010  -34.8601 H   0  0  0  0  0  0  0  0  0  0  0  0
   -4.3108   18.8965  -33.9718 H   0  0  0  0  0  0  0  0  0  0  0  0
   -8.6864   19.6246  -33.1628 H   0  0  0  0  0  0  0  0  0  0  0  0
   -9.1896   21.9303  -32.2968 H   0  0  0  0  0  0  0  0  0  0  0  0
   -7.9961   24.2258  -31.1207 H   0  0  0  0  0  0  0  0  0  0  0  0
   -3.2210   25.2770  -30.4670 H   0  0  0  0  0  0  0  0  0  0  0  0
   -1.9209   20.4729  -28.6936 H   0  0  0  0  0  0  0  0  0  0  0  0
   -1.5443   20.7338  -30.4503 H   0  0  0  0  0  0  0  0  0  0  0  0
    0.0392   22.0530  -29.2577 H   0  0  0  0  0  0  0  0  0  0  0  0
   -1.2179   23.2020  -29.8581 H   0  0  0  0  0  0  0  0  0  0  0  0
   -0.5227   24.1927  -26.3472 H   0  0  0  0  0  0  0  0  0  0  0  0
    0.6027   23.7923  -27.7096 H   0  0  0  0  0  0  0  0  0  0  0  0
   -0.8627   26.1289  -27.5065 H   0  0  0  0  0  0  0  0  0  0  0  0
   -0.2210   25.4000  -29.0505 H   0  0  0  0  0  0  0  0  0  0  0  0
   -2.9711   25.1363  -26.7987 H   0  0  0  0  0  0  0  0  0  0  0  0
   -4.1067   24.6424  -28.1093 H   0  0  0  0  0  0  0  0  0  0  0  0
   -2.9243   22.8439  -26.4702 H   0  0  0  0  0  0  0  0  0  0  0  0
   -3.2900   22.4990  -28.2183 H   0  0  0  0  0  0  0  0  0  0  0  0
   -4.5139   20.0958  -31.9938 H   0  0  0  0  0  0  0  0  0  0  0  0
   -8.1543   17.4961  -32.5363 H   0  0  0  0  0  0  0  0  0  0  0  0
   -7.6373   15.2130  -33.3824 H   0  0  0  0  0  0  0  0  0  0  0  0
   -4.5610   14.2150  -35.0580 H   0  0  0  0  0  0  0  0  0  0  0  0
  1  2  1  0
  2  3  1  0
  3  4  2  0
  4  5  1  0
  5  6  1  0
  6  7  2  0
  7  8  1  0
  8  9  2  0
  9 10  1  0
 10 11  2  0
 11 12  1  0
 12 13  1  0
 12 14  2  0
 11 15  1  0
 15 16  1  0
 16 17  2  0
 16 18  1  0
 18 19  1  0
 19 20  1  0
 20 21  1  0
 21 22  1  0
 22 23  1  0
 23 24  1  0
 24 25  1  0
 25 26  1  0
 15 27  1  0
 27 28  2  0
  5 29  2  0
 29 30  1  0
 30 31  2  0
 31 32  1  0
 31  3  1  0
 28  6  1  0
 27  9  1  0
 26 21  1  0
  1 33  1  0
  1 34  1  0
  1 35  1  0
  4 36  1  0
  7 37  1  0
  8 38  1  0
 10 39  1  0
 13 40  1  0
 19 41  1  0
 19 42  1  0
 20 43  1  0
 20 44  1  0
 22 45  1  0
 22 46  1  0
 23 47  1  0
 23 48  1  0
 25 49  1  0
 25 50  1  0
 26 51  1  0
 26 52  1  0
 28 53  1  0
 29 54  1  0
 30 55  1  0
 32 56  1  0
M  CHG  1  13  -1
M  END
>  <UniqueID>  (76) 
75

>  <SMILES>  (76) 
COc1cc(-c2ccc3cc(C([NH-])=O)n(C(=O)OCCN4CCOCC4)c3c2)ccc1O

>  <Energy>  (76) 
112.75448670239506

>  <Genealogy>  (76) 
COc1cc(-c2ccc3cc(C([NH-])=O)n(C(=O)OCCN4CCOCC4)c3c2)ccc1O (protonated)
COc1cc(-c2ccc3cc(C([NH-])=O)n(C(=O)OCCN4CCOCC4)c3c2)ccc1O (3D coordinates assigned)
COc1cc(-c2ccc3cc(C([NH-])=O)n(C(=O)OCCN4CCOCC4)c3c2)ccc1O (nonaromatic ring conformer: 112.75448670239506 kcal/mol)

>  <smiles>  (76) 
COc1cc(-c2ccc3cc(C(N)=O)n(C(=O)OCCN4CCOCC4)c3c2)ccc1O

>  <score_type>  (76) 
oracle

>  <origin>  (76) 
adg

>  <m_score__min__energy>  (76) 
-10.9

>  <m_primary>  (76) 
energy

$$$$
76:0
     RDKit          3D

 31 32  0  0  0  0  0  0  0  0999 V2000
   -2.6800   20.0270  -33.7280 C   0  0  0  0  0  0  0  0  0  0  0  0
   -2.2920   20.9900  -32.6120 C   0  0  0  0  0  0  0  0  0  0  0  0
   -3.1130   22.1550  -32.6460 O   0  0  0  0  0  0  0  0  0  0  0  0
   -3.6690   22.7410  -31.5030 C   0  0  0  0  0  0  0  0  0  0  0  0
   -2.9260   23.1510  -30.5710 O   0  0  0  0  0  0  0  0  0  0  0  0
   -5.0930   22.9040  -31.4080 N   0  0  0  0  0  0  0  0  0  0  0  0
   -5.7840   24.0210  -31.0420 C   0  0  0  0  0  0  0  0  0  0  0  0
   -5.2000   25.2700  -30.5070 C   0  0  0  0  0  0  0  0  0  0  0  0
   -3.8720   25.6600  -30.8420 N   0  0  0  0  0  0  0  0  0  0  0  0
   -5.8680   25.9770  -29.7070 O   0  0  0  0  0  0  0  0  0  0  0  0
   -7.1560   23.8050  -31.1570 C   0  0  0  0  0  0  0  0  0  0  0  0
   -7.2850   22.5080  -31.5980 C   0  0  0  0  0  0  0  0  0  0  0  0
   -8.4300   21.7700  -31.8850 C   0  0  0  0  0  0  0  0  0  0  0  0
   -8.2660   20.4530  -32.3480 C   0  0  0  0  0  0  0  0  0  0  0  0
   -6.9700   19.9090  -32.5320 C   0  0  0  0  0  0  0  0  0  0  0  0
   -6.8080   18.4960  -33.0060 C   0  0  0  0  0  0  0  0  0  0  0  0
   -5.8000   18.4660  -34.4730 Cl  0  0  0  0  0  0  0  0  0  0  0  0
   -5.8320   20.6850  -32.2190 C   0  0  0  0  0  0  0  0  0  0  0  0
   -6.0250   21.9860  -31.7420 C   0  0  0  0  0  0  0  0  0  0  0  0
   -3.0571   19.0911  -33.2901 H   0  0  0  0  0  0  0  0  0  0  0  0
   -3.4645   20.4831  -34.3497 H   0  0  0  0  0  0  0  0  0  0  0  0
   -1.7984   19.8118  -34.3497 H   0  0  0  0  0  0  0  0  0  0  0  0
   -2.4173   20.4878  -31.6414 H   0  0  0  0  0  0  0  0  0  0  0  0
   -1.2434   21.2911  -32.7523 H   0  0  0  0  0  0  0  0  0  0  0  0
   -3.0530   25.2940  -30.3070 H   0  0  0  0  0  0  0  0  0  0  0  0
   -7.9640   24.5195  -30.9411 H   0  0  0  0  0  0  0  0  0  0  0  0
   -9.4321   22.2041  -31.7535 H   0  0  0  0  0  0  0  0  0  0  0  0
   -9.1513   19.8389  -32.5695 H   0  0  0  0  0  0  0  0  0  0  0  0
   -6.3248   17.8994  -32.2183 H   0  0  0  0  0  0  0  0  0  0  0  0
   -7.7973   18.0735  -33.2355 H   0  0  0  0  0  0  0  0  0  0  0  0
   -4.8188   20.2764  -32.3472 H   0  0  0  0  0  0  0  0  0  0  0  0
  1  2  1  0
  2  3  1  0
  3  4  1  0
  4  5  2  0
  4  6  1  0
  6  7  1  0
  7  8  1  0
  8  9  1  0
  8 10  2  0
  7 11  2  0
 11 12  1  0
 12 13  2  0
 13 14  1  0
 14 15  2  0
 15 16  1  0
 16 17  1  0
 15 18  1  0
 18 19  2  0
 19  6  1  0
 19 12  1  0
  1 20  1  0
  1 21  1  0
  1 22  1  0
  2 23  1  0
  2 24  1  0
  9 25  1  0
 11 26  1  0
 13 27  1  0
 14 28  1  0
 16 29  1  0
 16 30  1  0
 18 31  1  0
M  CHG  1   9  -1
M  END
>  <UniqueID>  (77) 
76

>  <SMILES>  (77) 
CCOC(=O)n1c(C([NH-])=O)cc2ccc(CCl)cc21

>  <Energy>  (77) 
65.4281906854269

>  <Genealogy>  (77) 
CCOC(=O)n1c(C([NH-])=O)cc2ccc(CCl)cc21 (protonated)
CCOC(=O)n1c(C([NH-])=O)cc2ccc(CCl)cc21 (3D coordinates assigned)
CCOC(=O)n1c(C([NH-])=O)cc2ccc(CCl)cc21 (optimized conformer: 65.4281906854269 kcal/mol)

>  <smiles>  (77) 
CCOC(=O)n1c(C(N)=O)cc2ccc(CCl)cc21

>  <score_type>  (77) 
oracle

>  <origin>  (77) 
adg

>  <m_score__min__energy>  (77) 
-9.3599999999999994

>  <m_primary>  (77) 
energy

$$$$
77:0
     RDKit          3D

 41 43  0  0  0  0  0  0  0  0999 V2000
   -1.8540   20.8660  -31.8710 C   0  0  0  0  0  0  0  0  0  0  0  0
   -2.7080   21.9730  -32.1280 O   0  0  0  0  0  0  0  0  0  0  0  0
   -3.4320   22.6190  -31.1210 C   0  0  0  0  0  0  0  0  0  0  0  0
   -2.8340   23.1210  -30.1310 O   0  0  0  0  0  0  0  0  0  0  0  0
   -4.8590   22.7320  -31.2300 N   0  0  0  0  0  0  0  0  0  0  0  0
   -5.6290   23.8420  -31.0400 C   0  0  0  0  0  0  0  0  0  0  0  0
   -5.1640   25.1450  -30.5190 C   0  0  0  0  0  0  0  0  0  0  0  0
   -3.8710   25.6460  -30.8460 N   0  0  0  0  0  0  0  0  0  0  0  0
   -5.9010   25.8020  -29.7370 O   0  0  0  0  0  0  0  0  0  0  0  0
   -6.9640   23.5650  -31.3280 C   0  0  0  0  0  0  0  0  0  0  0  0
   -6.9910   22.2390  -31.6940 C   0  0  0  0  0  0  0  0  0  0  0  0
   -8.0590   21.4430  -32.0930 C   0  0  0  0  0  0  0  0  0  0  0  0
   -7.7920   20.1100  -32.4460 C   0  0  0  0  0  0  0  0  0  0  0  0
   -6.4680   19.5970  -32.4020 C   0  0  0  0  0  0  0  0  0  0  0  0
   -6.1950   18.1900  -32.7880 C   0  0  0  0  0  0  0  0  0  0  0  0
   -5.6480   17.2860  -31.8580 C   0  0  0  0  0  0  0  0  0  0  0  0
   -5.3920   15.9610  -32.2240 C   0  0  0  0  0  0  0  0  0  0  0  0
   -5.6830   15.5170  -33.5190 C   0  0  0  0  0  0  0  0  0  0  0  0
   -5.3440   13.8520  -33.9830 S   0  0  0  0  0  0  0  0  0  0  0  0
   -4.5570   13.0110  -32.6280 C   0  0  0  0  0  0  0  0  0  0  0  0
   -6.6260   13.1510  -34.3340 O   0  0  0  0  0  0  0  0  0  0  0  0
   -4.4380   13.8330  -35.1810 O   0  0  0  0  0  0  0  0  0  0  0  0
   -6.2200   16.4120  -34.4520 C   0  0  0  0  0  0  0  0  0  0  0  0
   -6.4770   17.7370  -34.0890 C   0  0  0  0  0  0  0  0  0  0  0  0
   -5.4100   20.4420  -31.9910 C   0  0  0  0  0  0  0  0  0  0  0  0
   -5.7090   21.7600  -31.6270 C   0  0  0  0  0  0  0  0  0  0  0  0
   -1.7483   20.7289  -30.7847 H   0  0  0  0  0  0  0  0  0  0  0  0
   -2.2876   19.9576  -32.3147 H   0  0  0  0  0  0  0  0  0  0  0  0
   -0.8653   21.0548  -32.3147 H   0  0  0  0  0  0  0  0  0  0  0  0
   -3.0140   25.2610  -30.3890 H   0  0  0  0  0  0  0  0  0  0  0  0
   -7.8156   24.2592  -31.2741 H   0  0  0  0  0  0  0  0  0  0  0  0
   -9.0822   21.8451  -32.1310 H   0  0  0  0  0  0  0  0  0  0  0  0
   -8.6182   19.4553  -32.7604 H   0  0  0  0  0  0  0  0  0  0  0  0
   -5.4204   17.6242  -30.8363 H   0  0  0  0  0  0  0  0  0  0  0  0
   -4.9598   15.2643  -31.4906 H   0  0  0  0  0  0  0  0  0  0  0  0
   -4.9347   13.4146  -31.6769 H   0  0  0  0  0  0  0  0  0  0  0  0
   -4.7806   11.9354  -32.6845 H   0  0  0  0  0  0  0  0  0  0  0  0
   -3.4690   13.1628  -32.6845 H   0  0  0  0  0  0  0  0  0  0  0  0
   -6.4404   16.0712  -35.4744 H   0  0  0  0  0  0  0  0  0  0  0  0
   -6.9036   18.4316  -34.8276 H   0  0  0  0  0  0  0  0  0  0  0  0
   -4.3749   20.0711  -31.9583 H   0  0  0  0  0  0  0  0  0  0  0  0
  1  2  1  0
  2  3  1  0
  3  4  2  0
  3  5  1  0
  5  6  1  0
  6  7  1  0
  7  8  1  0
  7  9  2  0
  6 10  2  0
 10 11  1  0
 11 12  2  0
 12 13  1  0
 13 14  2  0
 14 15  1  0
 15 16  2  0
 16 17  1  0
 17 18  2  0
 18 19  1  0
 19 20  1  0
 19 21  2  0
 19 22  2  0
 18 23  1  0
 23 24  2  0
 14 25  1  0
 25 26  2  0
 26  5  1  0
 26 11  1  0
 24 15  1  0
  1 27  1  0
  1 28  1  0
  1 29  1  0
  8 30  1  0
 10 31  1  0
 12 32  1  0
 13 33  1  0
 16 34  1  0
 17 35  1  0
 20 36  1  0
 20 37  1  0
 20 38  1  0
 23 39  1  0
 24 40  1  0
 25 41  1  0
M  CHG  1   8  -1
M  END
>  <UniqueID>  (78) 
77

>  <SMILES>  (78) 
COC(=O)n1c(C([NH-])=O)cc2ccc(-c3ccc(S(C)(=O)=O)cc3)cc21

>  <Energy>  (78) 
83.22500802685491

>  <Genealogy>  (78) 
COC(=O)n1c(C([NH-])=O)cc2ccc(-c3ccc(S(C)(=O)=O)cc3)cc21 (protonated)
COC(=O)n1c(C([NH-])=O)cc2ccc(-c3ccc(S(C)(=O)=O)cc3)cc21 (3D coordinates assigned)
COC(=O)n1c(C([NH-])=O)cc2ccc(-c3ccc(S(C)(=O)=O)cc3)cc21 (optimized conformer: 83.22500802685491 kcal/mol)

>  <smiles>  (78) 
COC(=O)n1c(C(N)=O)cc2ccc(-c3ccc(S(C)(=O)=O)cc3)cc21

>  <score_type>  (78) 
oracle

>  <origin>  (78) 
adg

>  <m_score__min__energy>  (78) 
-10.460000000000001

>  <m_primary>  (78) 
energy

$$$$
78:0
     RDKit          3D

 55 58  0  0  0  0  0  0  0  0999 V2000
   -3.8560   25.2830  -30.8300 N   0  0  0  0  0  0  0  0  0  0  0  0
   -5.2510   25.2510  -30.5220 C   0  0  0  0  0  0  0  0  0  0  0  0
   -5.7730   26.2330  -29.9300 O   0  0  0  0  0  0  0  0  0  0  0  0
   -6.0530   24.0600  -30.8720 C   0  0  0  0  0  0  0  0  0  0  0  0
   -7.4470   24.0590  -30.9070 C   0  0  0  0  0  0  0  0  0  0  0  0
   -7.7990   22.8020  -31.3380 C   0  0  0  0  0  0  0  0  0  0  0  0
   -9.0590   22.2520  -31.5540 C   0  0  0  0  0  0  0  0  0  0  0  0
   -9.1290   20.9210  -32.0010 C   0  0  0  0  0  0  0  0  0  0  0  0
   -7.9470   20.1650  -32.2060 C   0  0  0  0  0  0  0  0  0  0  0  0
   -8.0300   18.7460  -32.7160 C   0  0  0  0  0  0  0  0  0  0  0  0
   -6.9060   17.8560  -32.1580 C   0  0  0  0  0  0  0  0  0  0  0  0
   -6.0840   17.1830  -33.2310 C   0  0  0  0  0  0  0  0  0  0  0  0
   -6.6050   16.2570  -33.9140 O   0  0  0  0  0  0  0  0  0  0  0  0
   -4.7400   17.6220  -33.5400 N   0  0  0  0  0  0  0  0  0  0  0  0
   -3.7820   16.6570  -34.1000 C   0  0  0  0  0  0  0  0  0  0  0  0
   -2.6820   17.3850  -34.8840 C   0  0  0  0  0  0  0  0  0  0  0  0
   -2.1110   18.4200  -34.1080 O   0  0  0  0  0  0  0  0  0  0  0  0
   -3.0820   19.4140  -33.8560 C   0  0  0  0  0  0  0  0  0  0  0  0
   -4.2050   18.8650  -32.9720 C   0  0  0  0  0  0  0  0  0  0  0  0
   -6.6890   20.7520  -31.9510 C   0  0  0  0  0  0  0  0  0  0  0  0
   -6.6440   22.0880  -31.5430 C   0  0  0  0  0  0  0  0  0  0  0  0
   -5.5600   22.8490  -31.2640 N   0  0  0  0  0  0  0  0  0  0  0  0
   -4.1800   22.4340  -31.2900 C   0  0  0  0  0  0  0  0  0  0  0  0
   -3.5640   22.4100  -32.3950 O   0  0  0  0  0  0  0  0  0  0  0  0
   -3.5160   21.8650  -30.0620 C   0  0  0  0  0  0  0  0  0  0  0  0
   -3.1750   22.9450  -29.0650 C   0  0  0  0  0  0  0  0  0  0  0  0
   -1.9130   23.5680  -29.0820 C   0  0  0  0  0  0  0  0  0  0  0  0
   -1.5820   24.5160  -28.1090 C   0  0  0  0  0  0  0  0  0  0  0  0
   -2.5070   24.8570  -27.1170 C   0  0  0  0  0  0  0  0  0  0  0  0
   -3.7670   24.2530  -27.0980 C   0  0  0  0  0  0  0  0  0  0  0  0
   -4.1000   23.2970  -28.0620 C   0  0  0  0  0  0  0  0  0  0  0  0
   -3.4600   26.0240  -31.4490 H   0  0  0  0  0  0  0  0  0  0  0  0
   -8.1214   24.8877  -30.6454 H   0  0  0  0  0  0  0  0  0  0  0  0
   -9.9719   22.8406  -31.3803 H   0  0  0  0  0  0  0  0  0  0  0  0
  -10.1098   20.4617  -32.1935 H   0  0  0  0  0  0  0  0  0  0  0  0
   -8.9992   18.3196  -32.4180 H   0  0  0  0  0  0  0  0  0  0  0  0
   -7.9224   18.7759  -33.8103 H   0  0  0  0  0  0  0  0  0  0  0  0
   -6.2375   18.4807  -31.5473 H   0  0  0  0  0  0  0  0  0  0  0  0
   -7.3849   17.0598  -31.5692 H   0  0  0  0  0  0  0  0  0  0  0  0
   -3.3237   16.0845  -33.2801 H   0  0  0  0  0  0  0  0  0  0  0  0
   -4.3167   15.9801  -34.7825 H   0  0  0  0  0  0  0  0  0  0  0  0
   -1.8970   16.6644  -35.1570 H   0  0  0  0  0  0  0  0  0  0  0  0
   -3.1277   17.8274  -35.7871 H   0  0  0  0  0  0  0  0  0  0  0  0
   -2.6044   20.2637  -33.3462 H   0  0  0  0  0  0  0  0  0  0  0  0
   -3.5137   19.7364  -34.8150 H   0  0  0  0  0  0  0  0  0  0  0  0
   -3.8088   18.6630  -31.9659 H   0  0  0  0  0  0  0  0  0  0  0  0
   -5.0129   19.6095  -32.9168 H   0  0  0  0  0  0  0  0  0  0  0  0
   -5.7633   20.1701  -32.0709 H   0  0  0  0  0  0  0  0  0  0  0  0
   -4.1988   21.1444  -29.5883 H   0  0  0  0  0  0  0  0  0  0  0  0
   -2.5813   21.3747  -30.3718 H   0  0  0  0  0  0  0  0  0  0  0  0
   -1.1842   23.3081  -29.8639 H   0  0  0  0  0  0  0  0  0  0  0  0
   -0.5917   24.9947  -28.1238 H   0  0  0  0  0  0  0  0  0  0  0  0
   -2.2425   25.6011  -26.3513 H   0  0  0  0  0  0  0  0  0  0  0  0
   -4.4975   24.5301  -26.3237 H   0  0  0  0  0  0  0  0  0  0  0  0
   -5.0894   22.8170  -28.0374 H   0  0  0  0  0  0  0  0  0  0  0  0
  1  2  1  0
  2  3  2  0
  2  4  1  0
  4  5  2  0
  5  6  1  0
  6  7  2  0
  7  8  1  0
  8  9  2  0
  9 10  1  0
 10 11  1  0
 11 12  1  0
 12 13  2  0
 12 14  1  0
 14 15  1  0
 15 16  1  0
 16 17  1  0
 17 18  1  0
 18 19  1  0
  9 20  1  0
 20 21  2  0
 21 22  1  0
 22 23  1  0
 23 24  2  0
 23 25  1  0
 25 26  1  0
 26 27  2  0
 27 28  1  0
 28 29  2  0
 29 30  1  0
 30 31  2  0
 22  4  1  0
 31 26  1  0
 21  6  1  0
 19 14  1  0
  1 32  1  0
  5 33  1  0
  7 34  1  0
  8 35  1  0
 10 36  1  0
 10 37  1  0
 11 38  1  0
 11 39  1  0
 15 40  1  0
 15 41  1  0
 16 42  1  0
 16 43  1  0
 18 44  1  0
 18 45  1  0
 19 46  1  0
 19 47  1  0
 20 48  1  0
 25 49  1  0
 25 50  1  0
 27 51  1  0
 28 52  1  0
 29 53  1  0
 30 54  1  0
 31 55  1  0
M  CHG  1   1  -1
M  END
>  <UniqueID>  (79) 
78

>  <SMILES>  (79) 
[NH-]C(=O)c1cc2ccc(CCC(=O)N3CCOCC3)cc2n1C(=O)Cc1ccccc1

>  <Energy>  (79) 
98.11619261025747

>  <Genealogy>  (79) 
[NH-]C(=O)c1cc2ccc(CCC(=O)N3CCOCC3)cc2n1C(=O)Cc1ccccc1 (protonated)
[NH-]C(=O)c1cc2ccc(CCC(=O)N3CCOCC3)cc2n1C(=O)Cc1ccccc1 (3D coordinates assigned)
[NH-]C(=O)c1cc2ccc(CCC(=O)N3CCOCC3)cc2n1C(=O)Cc1ccccc1 (nonaromatic ring conformer: 98.11619261025747 kcal/mol)

>  <smiles>  (79) 
NC(=O)c1cc2ccc(CCC(=O)N3CCOCC3)cc2n1C(=O)Cc1ccccc1

>  <score_type>  (79) 
oracle

>  <origin>  (79) 
adg

>  <m_score__min__energy>  (79) 
-12.68

>  <m_primary>  (79) 
energy

$$$$
79:0
     RDKit          3D

 42 44  0  0  0  0  0  0  0  0999 V2000
   -3.1280   20.8790  -33.3520 C   0  0  0  0  0  0  0  0  0  0  0  0
   -3.7370   22.1370  -33.0930 O   0  0  0  0  0  0  0  0  0  0  0  0
   -4.0570   22.5680  -31.8010 C   0  0  0  0  0  0  0  0  0  0  0  0
   -3.1700   22.6040  -30.9040 O   0  0  0  0  0  0  0  0  0  0  0  0
   -5.4070   22.9450  -31.4890 N   0  0  0  0  0  0  0  0  0  0  0  0
   -5.8420   24.0950  -30.8970 C   0  0  0  0  0  0  0  0  0  0  0  0
   -5.0170   25.2840  -30.5980 C   0  0  0  0  0  0  0  0  0  0  0  0
   -3.6020   25.1810  -30.4630 N   0  0  0  0  0  0  0  0  0  0  0  0
   -5.5640   26.4150  -30.5070 O   0  0  0  0  0  0  0  0  0  0  0  0
   -7.2160   24.0420  -30.6760 C   0  0  0  0  0  0  0  0  0  0  0  0
   -7.6160   22.8180  -31.1620 C   0  0  0  0  0  0  0  0  0  0  0  0
   -8.8800   22.2320  -31.1800 C   0  0  0  0  0  0  0  0  0  0  0  0
   -8.9970   20.9370  -31.7110 C   0  0  0  0  0  0  0  0  0  0  0  0
   -7.8590   20.2560  -32.2120 C   0  0  0  0  0  0  0  0  0  0  0  0
   -7.9870   18.8490  -32.7260 C   0  0  0  0  0  0  0  0  0  0  0  0
   -6.6400   18.3240  -33.1430 C   0  0  0  0  0  0  0  0  0  0  0  0
   -6.1030   18.6700  -34.3910 C   0  0  0  0  0  0  0  0  0  0  0  0
   -4.8680   18.1520  -34.7970 C   0  0  0  0  0  0  0  0  0  0  0  0
   -4.1520   17.2760  -33.9610 C   0  0  0  0  0  0  0  0  0  0  0  0
   -2.8450   16.7140  -34.3800 C   0  0  0  0  0  0  0  0  0  0  0  0
   -1.8670   16.7560  -33.5840 O   0  0  0  0  0  0  0  0  0  0  0  0
   -2.6610   16.1350  -35.6770 N   0  0  0  0  0  0  0  0  0  0  0  0
   -1.4860   15.5440  -35.9970 O   0  0  0  0  0  0  0  0  0  0  0  0
   -4.7080   16.9150  -32.7210 C   0  0  0  0  0  0  0  0  0  0  0  0
   -5.9410   17.4340  -32.3160 C   0  0  0  0  0  0  0  0  0  0  0  0
   -6.5920   20.8790  -32.1660 C   0  0  0  0  0  0  0  0  0  0  0  0
   -6.5070   22.1760  -31.6480 C   0  0  0  0  0  0  0  0  0  0  0  0
   -2.8886   20.3844  -32.3991 H   0  0  0  0  0  0  0  0  0  0  0  0
   -3.8205   20.2482  -33.9287 H   0  0  0  0  0  0  0  0  0  0  0  0
   -2.2037   21.0309  -33.9287 H   0  0  0  0  0  0  0  0  0  0  0  0
   -3.0220   24.7450  -31.2130 H   0  0  0  0  0  0  0  0  0  0  0  0
   -7.8472   24.8141  -30.2118 H   0  0  0  0  0  0  0  0  0  0  0  0
   -9.7588   22.7669  -30.7905 H   0  0  0  0  0  0  0  0  0  0  0  0
   -9.9812   20.4464  -31.7384 H   0  0  0  0  0  0  0  0  0  0  0  0
   -8.3970   18.2078  -31.9318 H   0  0  0  0  0  0  0  0  0  0  0  0
   -8.6594   18.8445  -33.5966 H   0  0  0  0  0  0  0  0  0  0  0  0
   -6.6552   19.3520  -35.0543 H   0  0  0  0  0  0  0  0  0  0  0  0
   -4.4541   18.4319  -35.7770 H   0  0  0  0  0  0  0  0  0  0  0  0
   -3.3900   16.2280  -36.4170 H   0  0  0  0  0  0  0  0  0  0  0  0
   -4.1677   16.2178  -32.0637 H   0  0  0  0  0  0  0  0  0  0  0  0
   -6.3648   17.1426  -31.3436 H   0  0  0  0  0  0  0  0  0  0  0  0
   -5.6941   20.3572  -32.5286 H   0  0  0  0  0  0  0  0  0  0  0  0
  1  2  1  0
  2  3  1  0
  3  4  2  0
  3  5  1  0
  5  6  1  0
  6  7  1  0
  7  8  1  0
  7  9  2  0
  6 10  2  0
 10 11  1  0
 11 12  2  0
 12 13  1  0
 13 14  2  0
 14 15  1  0
 15 16  1  0
 16 17  2  0
 17 18  1  0
 18 19  2  0
 19 20  1  0
 20 21  2  0
 20 22  1  0
 22 23  1  0
 19 24  1  0
 24 25  2  0
 14 26  1  0
 26 27  2  0
 27  5  1  0
 27 11  1  0
 25 16  1  0
  1 28  1  0
  1 29  1  0
  1 30  1  0
  8 31  1  0
 10 32  1  0
 12 33  1  0
 13 34  1  0
 15 35  1  0
 15 36  1  0
 17 37  1  0
 18 38  1  0
 22 39  1  0
 24 40  1  0
 25 41  1  0
 26 42  1  0
M  CHG  2   8  -1  23  -1
M  END
>  <UniqueID>  (80) 
79

>  <SMILES>  (80) 
COC(=O)n1c(C([NH-])=O)cc2ccc(Cc3ccc(C(=O)N[O-])cc3)cc21

>  <Energy>  (80) 
81.73010589753409

>  <Genealogy>  (80) 
COC(=O)n1c(C([NH-])=O)cc2ccc(Cc3ccc(C(=O)N[O-])cc3)cc21 (protonated)
COC(=O)n1c(C([NH-])=O)cc2ccc(Cc3ccc(C(=O)N[O-])cc3)cc21 (3D coordinates assigned)
COC(=O)n1c(C([NH-])=O)cc2ccc(Cc3ccc(C(=O)N[O-])cc3)cc21 (optimized conformer: 81.73010589753409 kcal/mol)

>  <smiles>  (80) 
COC(=O)n1c(C(N)=O)cc2ccc(Cc3ccc(C(=O)NO)cc3)cc21

>  <score_type>  (80) 
oracle

>  <origin>  (80) 
adg

>  <m_score__min__energy>  (80) 
-11.210000000000001

>  <m_primary>  (80) 
energy

$$$$
80:0
     RDKit          3D

 36 38  0  0  0  0  0  0  0  0999 V2000
   -2.0720   20.8400  -32.3270 C   0  0  0  0  0  0  0  0  0  0  0  0
   -2.9180   21.9560  -32.5750 O   0  0  0  0  0  0  0  0  0  0  0  0
   -3.5460   22.6690  -31.5500 C   0  0  0  0  0  0  0  0  0  0  0  0
   -2.8570   23.3100  -30.7100 O   0  0  0  0  0  0  0  0  0  0  0  0
   -4.9800   22.6740  -31.4540 N   0  0  0  0  0  0  0  0  0  0  0  0
   -5.7780   23.6770  -30.9890 C   0  0  0  0  0  0  0  0  0  0  0  0
   -5.3150   24.9170  -30.3350 C   0  0  0  0  0  0  0  0  0  0  0  0
   -4.1540   25.6080  -30.7960 N   0  0  0  0  0  0  0  0  0  0  0  0
   -5.9230   25.3430  -29.3170 O   0  0  0  0  0  0  0  0  0  0  0  0
   -7.1210   23.3600  -31.1660 C   0  0  0  0  0  0  0  0  0  0  0  0
   -7.1260   22.1130  -31.7480 C   0  0  0  0  0  0  0  0  0  0  0  0
   -8.1940   21.3230  -32.1570 C   0  0  0  0  0  0  0  0  0  0  0  0
   -7.9090   20.0910  -32.7680 C   0  0  0  0  0  0  0  0  0  0  0  0
   -6.5670   19.6720  -32.9700 C   0  0  0  0  0  0  0  0  0  0  0  0
   -6.2760   18.3720  -33.6300 C   0  0  0  0  0  0  0  0  0  0  0  0
   -5.3520   18.1180  -34.6340 C   0  0  0  0  0  0  0  0  0  0  0  0
   -5.3830   16.8090  -34.9520 N   0  0  0  0  0  0  0  0  0  0  0  0
   -6.3050   16.2360  -34.1950 N   0  0  0  0  0  0  0  0  0  0  0  0
   -6.5910   14.8080  -34.2040 C   0  0  0  0  0  0  0  0  0  0  0  0
   -6.8590   17.1440  -33.3710 C   0  0  0  0  0  0  0  0  0  0  0  0
   -5.5080   20.5090  -32.5400 C   0  0  0  0  0  0  0  0  0  0  0  0
   -5.8230   21.7210  -31.9130 C   0  0  0  0  0  0  0  0  0  0  0  0
   -1.9631   20.6964  -31.2419 H   0  0  0  0  0  0  0  0  0  0  0  0
   -2.5150   19.9376  -32.7737 H   0  0  0  0  0  0  0  0  0  0  0  0
   -1.0835   21.0228  -32.7737 H   0  0  0  0  0  0  0  0  0  0  0  0
   -3.5310   25.1910  -31.5230 H   0  0  0  0  0  0  0  0  0  0  0  0
   -3.8640   26.5050  -30.3460 H   0  0  0  0  0  0  0  0  0  0  0  0
   -7.9928   23.9749  -30.8979 H   0  0  0  0  0  0  0  0  0  0  0  0
   -9.2324   21.6532  -32.0065 H   0  0  0  0  0  0  0  0  0  0  0  0
   -8.7354   19.4424  -33.0942 H   0  0  0  0  0  0  0  0  0  0  0  0
   -4.6959   18.8690  -35.0982 H   0  0  0  0  0  0  0  0  0  0  0  0
   -6.6643   14.4422  -33.1692 H   0  0  0  0  0  0  0  0  0  0  0  0
   -7.5430   14.6280  -34.7248 H   0  0  0  0  0  0  0  0  0  0  0  0
   -5.7817   14.2752  -34.7248 H   0  0  0  0  0  0  0  0  0  0  0  0
   -7.6395   16.9449  -32.6219 H   0  0  0  0  0  0  0  0  0  0  0  0
   -4.4600   20.2131  -32.6954 H   0  0  0  0  0  0  0  0  0  0  0  0
  1  2  1  0
  2  3  1  0
  3  4  2  0
  3  5  1  0
  5  6  1  0
  6  7  1  0
  7  8  1  0
  7  9  2  0
  6 10  2  0
 10 11  1  0
 11 12  2  0
 12 13  1  0
 13 14  2  0
 14 15  1  0
 15 16  1  0
 16 17  2  0
 17 18  1  0
 18 19  1  0
 18 20  1  0
 14 21  1  0
 21 22  2  0
 22  5  1  0
 22 11  1  0
 20 15  2  0
  1 23  1  0
  1 24  1  0
  1 25  1  0
  8 26  1  0
  8 27  1  0
 10 28  1  0
 12 29  1  0
 13 30  1  0
 16 31  1  0
 19 32  1  0
 19 33  1  0
 19 34  1  0
 20 35  1  0
 21 36  1  0
M  END
>  <UniqueID>  (81) 
80

>  <SMILES>  (81) 
COC(=O)n1c(C(N)=O)cc2ccc(-c3cnn(C)c3)cc21

>  <Energy>  (81) 
106.67682097626157

>  <Genealogy>  (81) 
COC(=O)n1c(C(N)=O)cc2ccc(-c3cnn(C)c3)cc21 (3D coordinates assigned)
COC(=O)n1c(C(N)=O)cc2ccc(-c3cnn(C)c3)cc21 (optimized conformer: 106.67682097626157 kcal/mol)

>  <smiles>  (81) 
COC(=O)n1c(C(N)=O)cc2ccc(-c3cnn(C)c3)cc21

>  <score_type>  (81) 
oracle

>  <origin>  (81) 
adg

>  <m_score__min__energy>  (81) 
-8.3499999999999996

>  <m_primary>  (81) 
energy

$$$$
81:0
     RDKit          3D

 49 50  0  0  0  0  0  0  0  0999 V2000
   -2.6220   19.7480  -33.6960 C   0  0  0  0  0  0  0  0  0  0  0  0
   -2.2310   18.2880  -33.8950 C   0  0  0  0  0  0  0  0  0  0  0  0
   -3.3900   17.4620  -33.9770 O   0  0  0  0  0  0  0  0  0  0  0  0
   -4.3640   17.6070  -34.9700 C   0  0  0  0  0  0  0  0  0  0  0  0
   -4.2180   17.0610  -36.0990 O   0  0  0  0  0  0  0  0  0  0  0  0
   -5.6000   18.4140  -34.6880 C   0  0  0  0  0  0  0  0  0  0  0  0
   -6.1110   18.2850  -33.2330 C   0  0  2  0  0  0  0  0  0  0  0  0
   -7.2190   17.2660  -33.1010 C   0  0  0  0  0  0  0  0  0  0  0  0
   -8.1560   17.4690  -32.2770 O   0  0  0  0  0  0  0  0  0  0  0  0
   -7.2160   16.1160  -33.9020 O   0  0  0  0  0  0  0  0  0  0  0  0
   -6.1580   15.1590  -33.9140 C   0  0  0  0  0  0  0  0  0  0  0  0
   -6.6060   13.8590  -34.5740 C   0  0  0  0  0  0  0  0  0  0  0  0
   -6.4690   19.6370  -32.6360 C   0  0  0  0  0  0  0  0  0  0  0  0
   -7.7540   20.2220  -32.8090 C   0  0  0  0  0  0  0  0  0  0  0  0
   -8.0290   21.5130  -32.3300 C   0  0  0  0  0  0  0  0  0  0  0  0
   -7.0040   22.2080  -31.6980 C   0  0  0  0  0  0  0  0  0  0  0  0
   -6.9730   23.4980  -31.2180 C   0  0  0  0  0  0  0  0  0  0  0  0
   -5.6670   23.6960  -30.7710 C   0  0  0  0  0  0  0  0  0  0  0  0
   -5.2000   24.9520  -30.1500 C   0  0  0  0  0  0  0  0  0  0  0  0
   -4.0870   25.6610  -30.6800 N   0  0  0  0  0  0  0  0  0  0  0  0
   -5.7740   25.3890  -29.1180 O   0  0  0  0  0  0  0  0  0  0  0  0
   -4.9240   22.5700  -30.9610 N   0  0  0  0  0  0  0  0  0  0  0  0
   -3.5120   22.4060  -30.7490 C   0  0  0  0  0  0  0  0  0  0  0  0
   -2.7070   23.2760  -31.1810 O   0  0  0  0  0  0  0  0  0  0  0  0
   -3.0420   21.2970  -30.0350 O   0  0  0  0  0  0  0  0  0  0  0  0
   -2.8200   21.3260  -28.6310 C   0  0  0  0  0  0  0  0  0  0  0  0
   -5.7570   21.6680  -31.5260 C   0  0  0  0  0  0  0  0  0  0  0  0
   -5.4520   20.3850  -31.9930 C   0  0  0  0  0  0  0  0  0  0  0  0
   -2.6810   19.9684  -32.6199 H   0  0  0  0  0  0  0  0  0  0  0  0
   -1.8660   20.3969  -34.1622 H   0  0  0  0  0  0  0  0  0  0  0  0
   -3.6011   19.9322  -34.1622 H   0  0  0  0  0  0  0  0  0  0  0  0
   -1.6532   18.1927  -34.8262 H   0  0  0  0  0  0  0  0  0  0  0  0
   -1.6261   17.9638  -33.0353 H   0  0  0  0  0  0  0  0  0  0  0  0
   -5.3753   19.4728  -34.8842 H   0  0  0  0  0  0  0  0  0  0  0  0
   -6.3937   18.0241  -35.3423 H   0  0  0  0  0  0  0  0  0  0  0  0
   -5.2766   17.8954  -32.6314 H   0  0  0  0  0  0  0  0  0  0  0  0
   -5.3057   15.5717  -34.4737 H   0  0  0  0  0  0  0  0  0  0  0  0
   -5.8680   14.9434  -32.8751 H   0  0  0  0  0  0  0  0  0  0  0  0
   -6.8599   13.1222  -33.7977 H   0  0  0  0  0  0  0  0  0  0  0  0
   -7.4897   14.0512  -35.2002 H   0  0  0  0  0  0  0  0  0  0  0  0
   -5.7915   13.4660  -35.2002 H   0  0  0  0  0  0  0  0  0  0  0  0
   -8.5430   19.6553  -33.3250 H   0  0  0  0  0  0  0  0  0  0  0  0
   -9.0261   21.9613  -32.4512 H   0  0  0  0  0  0  0  0  0  0  0  0
   -7.8028   24.2197  -31.1925 H   0  0  0  0  0  0  0  0  0  0  0  0
   -3.1160   25.2950  -30.5700 H   0  0  0  0  0  0  0  0  0  0  0  0
   -3.7783   21.2008  -28.1056 H   0  0  0  0  0  0  0  0  0  0  0  0
   -2.1386   20.5092  -28.3506 H   0  0  0  0  0  0  0  0  0  0  0  0
   -2.3713   22.2904  -28.3506 H   0  0  0  0  0  0  0  0  0  0  0  0
   -4.4434   19.9656  -31.8636 H   0  0  0  0  0  0  0  0  0  0  0  0
  1  2  1  0
  2  3  1  0
  3  4  1  0
  4  5  2  0
  4  6  1  0
  6  7  1  0
  7  8  1  0
  8  9  2  0
  8 10  1  0
 10 11  1  0
 11 12  1  0
  7 13  1  0
 13 14  2  0
 14 15  1  0
 15 16  2  0
 16 17  1  0
 17 18  2  0
 18 19  1  0
 19 20  1  0
 19 21  2  0
 18 22  1  0
 22 23  1  0
 23 24  2  0
 23 25  1  0
 25 26  1  0
 22 27  1  0
 27 28  2  0
 28 13  1  0
 27 16  1  0
  1 29  1  0
  1 30  1  0
  1 31  1  0
  2 32  1  0
  2 33  1  0
  6 34  1  0
  6 35  1  0
  7 36  1  1
 11 37  1  0
 11 38  1  0
 12 39  1  0
 12 40  1  0
 12 41  1  0
 14 42  1  0
 15 43  1  0
 17 44  1  0
 20 45  1  0
 26 46  1  0
 26 47  1  0
 26 48  1  0
 28 49  1  0
M  CHG  1  20  -1
M  END
>  <UniqueID>  (82) 
81

>  <SMILES>  (82) 
CCOC(=O)C[C@H](C(=O)OCC)c1ccc2cc(C([NH-])=O)n(C(=O)OC)c2c1

>  <Energy>  (82) 
76.66678124528194

>  <Genealogy>  (82) 
CCOC(=O)CC(C(=O)OCC)c1ccc2cc(C([NH-])=O)n(C(=O)OC)c2c1 (protonated)
CCOC(=O)C[C@H](C(=O)OCC)c1ccc2cc(C([NH-])=O)n(C(=O)OC)c2c1 (chirality)
CCOC(=O)C[C@H](C(=O)OCC)c1ccc2cc(C([NH-])=O)n(C(=O)OC)c2c1 (3D coordinates assigned)
CCOC(=O)C[C@H](C(=O)OCC)c1ccc2cc(C([NH-])=O)n(C(=O)OC)c2c1 (optimized conformer: 76.66678124528194 kcal/mol)

>  <smiles>  (82) 
CCOC(=O)CC(C(=O)OCC)c1ccc2cc(C(N)=O)n(C(=O)OC)c2c1

>  <score_type>  (82) 
oracle

>  <origin>  (82) 
adg

>  <m_score__min__energy>  (82) 
-9.5899999999999999

>  <m_primary>  (82) 
energy

$$$$
82:0
     RDKit          3D

 33 35  0  0  0  0  0  0  0  0999 V2000
   -4.0000   25.5830  -30.8420 N   0  0  0  0  0  0  0  0  0  0  0  0
   -5.2330   25.1050  -30.3120 C   0  0  0  0  0  0  0  0  0  0  0  0
   -5.7490   25.6950  -29.3240 O   0  0  0  0  0  0  0  0  0  0  0  0
   -5.8940   23.9110  -30.8790 C   0  0  0  0  0  0  0  0  0  0  0  0
   -7.2750   23.7900  -31.0320 C   0  0  0  0  0  0  0  0  0  0  0  0
   -7.4780   22.5180  -31.5210 C   0  0  0  0  0  0  0  0  0  0  0  0
   -8.6580   21.8670  -31.8690 C   0  0  0  0  0  0  0  0  0  0  0  0
   -8.5640   20.5570  -32.3710 C   0  0  0  0  0  0  0  0  0  0  0  0
   -7.3020   19.9260  -32.5090 C   0  0  0  0  0  0  0  0  0  0  0  0
   -7.2120   18.5410  -33.0850 C   0  0  0  0  0  0  0  0  0  0  0  0
   -5.8950   18.3530  -33.7670 C   0  0  0  0  0  0  0  0  0  0  0  0
   -5.7610   18.6540  -34.9820 O   0  0  0  0  0  0  0  0  0  0  0  0
   -4.8000   17.8910  -33.0480 O   0  0  0  0  0  0  0  0  0  0  0  0
   -6.1260   20.6230  -32.1560 C   0  0  0  0  0  0  0  0  0  0  0  0
   -6.2520   21.9200  -31.6520 C   0  0  0  0  0  0  0  0  0  0  0  0
   -5.2710   22.7640  -31.2700 N   0  0  0  0  0  0  0  0  0  0  0  0
   -3.8640   22.4940  -31.3280 C   0  0  0  0  0  0  0  0  0  0  0  0
   -3.0750   23.1500  -30.5960 O   0  0  0  0  0  0  0  0  0  0  0  0
   -3.3360   21.4290  -32.1970 C   0  0  0  0  0  0  0  0  0  0  0  0
   -3.3160   20.0740  -31.9410 C   0  0  0  0  0  0  0  0  0  0  0  0
   -2.7610   19.4630  -33.0020 N   0  0  0  0  0  0  0  0  0  0  0  0
   -2.4520   20.3670  -33.8840 O   0  0  0  0  0  0  0  0  0  0  0  0
   -2.7760   21.5650  -33.4530 C   0  0  0  0  0  0  0  0  0  0  0  0
   -3.0870   25.2930  -30.4250 H   0  0  0  0  0  0  0  0  0  0  0  0
   -8.0396   24.5488  -30.8095 H   0  0  0  0  0  0  0  0  0  0  0  0
   -9.6337   22.3620  -31.7548 H   0  0  0  0  0  0  0  0  0  0  0  0
   -9.4779   20.0169  -32.6592 H   0  0  0  0  0  0  0  0  0  0  0  0
   -7.3111   17.8030  -32.2753 H   0  0  0  0  0  0  0  0  0  0  0  0
   -8.0202   18.4027  -33.8183 H   0  0  0  0  0  0  0  0  0  0  0  0
   -5.1366   20.1572  -32.2747 H   0  0  0  0  0  0  0  0  0  0  0  0
   -3.6880   19.5810  -31.0307 H   0  0  0  0  0  0  0  0  0  0  0  0
   -2.6020   18.4370  -33.1160 H   0  0  0  0  0  0  0  0  0  0  0  0
   -2.6276   22.5099  -33.9962 H   0  0  0  0  0  0  0  0  0  0  0  0
  1  2  1  0
  2  3  2  0
  2  4  1  0
  4  5  2  0
  5  6  1  0
  6  7  2  0
  7  8  1  0
  8  9  2  0
  9 10  1  0
 10 11  1  0
 11 12  2  0
 11 13  1  0
  9 14  1  0
 14 15  2  0
 15 16  1  0
 16 17  1  0
 17 18  2  0
 17 19  1  0
 19 20  1  0
 20 21  2  0
 21 22  1  0
 22 23  1  0
 16  4  1  0
 23 19  2  0
 15  6  1  0
  1 24  1  0
  5 25  1  0
  7 26  1  0
  8 27  1  0
 10 28  1  0
 10 29  1  0
 14 30  1  0
 20 31  1  0
 21 32  1  0
 23 33  1  0
M  CHG  3   1  -1  13  -1  21   1
M  END
>  <UniqueID>  (83) 
82

>  <SMILES>  (83) 
[NH-]C(=O)c1cc2ccc(CC(=O)[O-])cc2n1C(=O)c1c[nH+]oc1

>  <Energy>  (83) 
104.29989256852278

>  <Genealogy>  (83) 
[NH-]C(=O)c1cc2ccc(CC(=O)[O-])cc2n1C(=O)c1c[nH+]oc1 (protonated)
[NH-]C(=O)c1cc2ccc(CC(=O)[O-])cc2n1C(=O)c1c[nH+]oc1 (3D coordinates assigned)
[NH-]C(=O)c1cc2ccc(CC(=O)[O-])cc2n1C(=O)c1c[nH+]oc1 (optimized conformer: 104.29989256852278 kcal/mol)

>  <smiles>  (83) 
NC(=O)c1cc2ccc(CC(=O)O)cc2n1C(=O)c1cnoc1

>  <score_type>  (83) 
oracle

>  <origin>  (83) 
adg

>  <m_score__min__energy>  (83) 
-9.4399999999999995

>  <m_primary>  (83) 
energy

$$$$
83:0
     RDKit          3D

 43 45  0  0  0  0  0  0  0  0999 V2000
   -2.6270   20.1030  -33.7830 C   0  0  0  0  0  0  0  0  0  0  0  0
   -2.4110   20.9880  -32.5580 C   0  0  0  0  0  0  0  0  0  0  0  0
   -3.2620   22.1310  -32.6090 O   0  0  0  0  0  0  0  0  0  0  0  0
   -3.8400   22.7130  -31.4720 C   0  0  0  0  0  0  0  0  0  0  0  0
   -3.0910   23.1650  -30.5590 O   0  0  0  0  0  0  0  0  0  0  0  0
   -5.2790   22.7320  -31.3200 N   0  0  0  0  0  0  0  0  0  0  0  0
   -6.0410   23.7810  -30.8880 C   0  0  0  0  0  0  0  0  0  0  0  0
   -5.5340   25.0390  -30.3160 C   0  0  0  0  0  0  0  0  0  0  0  0
   -4.2220   25.5080  -30.6320 N   0  0  0  0  0  0  0  0  0  0  0  0
   -6.2450   25.6830  -29.4990 O   0  0  0  0  0  0  0  0  0  0  0  0
   -7.3960   23.5140  -31.0390 C   0  0  0  0  0  0  0  0  0  0  0  0
   -7.4580   22.2450  -31.5600 C   0  0  0  0  0  0  0  0  0  0  0  0
   -8.5710   21.4850  -31.9090 C   0  0  0  0  0  0  0  0  0  0  0  0
   -8.3560   20.2010  -32.4310 C   0  0  0  0  0  0  0  0  0  0  0  0
   -7.0420   19.6950  -32.5920 C   0  0  0  0  0  0  0  0  0  0  0  0
   -6.8650   18.2870  -33.1330 C   0  0  0  0  0  0  0  0  0  0  0  0
   -6.0140   18.1740  -34.3650 C   0  0  0  0  0  0  0  0  0  0  0  0
   -4.9060   17.4420  -33.7180 N   0  0  0  0  0  0  0  0  0  0  0  0
   -3.6270   16.9270  -34.0870 C   0  0  0  0  0  0  0  0  0  0  0  0
   -2.7640   16.2630  -33.0640 C   0  0  0  0  0  0  0  0  0  0  0  0
   -3.2240   17.0470  -35.2750 O   0  0  0  0  0  0  0  0  0  0  0  0
   -5.7420   17.5140  -32.5040 C   0  0  0  0  0  0  0  0  0  0  0  0
   -5.9340   20.5010  -32.2240 C   0  0  0  0  0  0  0  0  0  0  0  0
   -6.1720   21.7860  -31.7160 C   0  0  0  0  0  0  0  0  0  0  0  0
   -2.8762   19.0820  -33.4584 H   0  0  0  0  0  0  0  0  0  0  0  0
   -3.4528   20.5076  -34.3867 H   0  0  0  0  0  0  0  0  0  0  0  0
   -1.7077   20.0817  -34.3867 H   0  0  0  0  0  0  0  0  0  0  0  0
   -2.6363   20.4097  -31.6498 H   0  0  0  0  0  0  0  0  0  0  0  0
   -1.3641   21.3253  -32.5440 H   0  0  0  0  0  0  0  0  0  0  0  0
   -3.8760   26.4110  -30.2370 H   0  0  0  0  0  0  0  0  0  0  0  0
   -3.5890   24.9410  -31.2410 H   0  0  0  0  0  0  0  0  0  0  0  0
   -8.2387   24.1771  -30.7937 H   0  0  0  0  0  0  0  0  0  0  0  0
   -9.5894   21.8800  -31.7792 H   0  0  0  0  0  0  0  0  0  0  0  0
   -9.2170   19.5798  -32.7187 H   0  0  0  0  0  0  0  0  0  0  0  0
   -7.9232   17.9894  -33.0930 H   0  0  0  0  0  0  0  0  0  0  0  0
   -6.4978   17.5935  -35.1643 H   0  0  0  0  0  0  0  0  0  0  0  0
   -5.7614   19.1077  -34.8888 H   0  0  0  0  0  0  0  0  0  0  0  0
   -3.1150   16.5331  -32.0571 H   0  0  0  0  0  0  0  0  0  0  0  0
   -2.8185   15.1717  -33.1909 H   0  0  0  0  0  0  0  0  0  0  0  0
   -1.7231   16.5954  -33.1909 H   0  0  0  0  0  0  0  0  0  0  0  0
   -6.0568   16.5229  -32.1453 H   0  0  0  0  0  0  0  0  0  0  0  0
   -5.2811   17.9426  -31.6018 H   0  0  0  0  0  0  0  0  0  0  0  0
   -4.9064   20.1245  -32.3352 H   0  0  0  0  0  0  0  0  0  0  0  0
  1  2  1  0
  2  3  1  0
  3  4  1  0
  4  5  2  0
  4  6  1  0
  6  7  1  0
  7  8  1  0
  8  9  1  0
  8 10  2  0
  7 11  2  0
 11 12  1  0
 12 13  2  0
 13 14  1  0
 14 15  2  0
 15 16  1  0
 16 17  1  0
 17 18  1  0
 18 19  1  0
 19 20  1  0
 19 21  2  0
 18 22  1  0
 15 23  1  0
 23 24  2  0
 24  6  1  0
 24 12  1  0
 22 16  1  0
  1 25  1  0
  1 26  1  0
  1 27  1  0
  2 28  1  0
  2 29  1  0
  9 30  1  0
  9 31  1  0
 11 32  1  0
 13 33  1  0
 14 34  1  0
 16 35  1  0
 17 36  1  0
 17 37  1  0
 20 38  1  0
 20 39  1  0
 20 40  1  0
 22 41  1  0
 22 42  1  0
 23 43  1  0
M  END
>  <UniqueID>  (84) 
83

>  <SMILES>  (84) 
CCOC(=O)n1c(C(N)=O)cc2ccc(C3CN(C(C)=O)C3)cc21

>  <Energy>  (84) 
126.0648743830103

>  <Genealogy>  (84) 
CCOC(=O)n1c(C(N)=O)cc2ccc(C3CN(C(C)=O)C3)cc21 (3D coordinates assigned)
CCOC(=O)n1c(C(N)=O)cc2ccc(C3CN(C(C)=O)C3)cc21 (nonaromatic ring conformer: 126.0648743830103 kcal/mol)

>  <smiles>  (84) 
CCOC(=O)n1c(C(N)=O)cc2ccc(C3CN(C(C)=O)C3)cc21

>  <score_type>  (84) 
oracle

>  <origin>  (84) 
adg

>  <m_score__min__energy>  (84) 
-9.1099999999999994

>  <m_primary>  (84) 
energy

$$$$
84:0
     RDKit          3D

 39 41  0  0  0  0  0  0  0  0999 V2000
   -3.0590   20.1080  -33.3700 C   0  0  0  0  0  0  0  0  0  0  0  0
   -3.6660   21.5060  -33.3610 C   0  0  0  0  0  0  0  0  0  0  0  0
   -3.4090   22.1580  -32.1200 O   0  0  0  0  0  0  0  0  0  0  0  0
   -4.2020   21.9870  -30.9800 C   0  0  0  0  0  0  0  0  0  0  0  0
   -3.6950   21.5430  -29.9130 O   0  0  0  0  0  0  0  0  0  0  0  0
   -5.5990   22.3230  -31.0230 N   0  0  0  0  0  0  0  0  0  0  0  0
   -6.1690   23.5310  -30.7570 C   0  0  0  0  0  0  0  0  0  0  0  0
   -5.4760   24.7140  -30.2110 C   0  0  0  0  0  0  0  0  0  0  0  0
   -5.8950   25.3190  -28.9860 N   0  0  0  0  0  0  0  0  0  0  0  0
   -4.5320   25.2340  -30.8630 O   0  0  0  0  0  0  0  0  0  0  0  0
   -7.5370   23.4970  -31.0180 C   0  0  0  0  0  0  0  0  0  0  0  0
   -7.7930   22.2140  -31.4430 C   0  0  0  0  0  0  0  0  0  0  0  0
   -8.9910   21.6260  -31.8400 C   0  0  0  0  0  0  0  0  0  0  0  0
   -8.9600   20.2860  -32.2590 C   0  0  0  0  0  0  0  0  0  0  0  0
   -7.7370   19.5710  -32.2970 C   0  0  0  0  0  0  0  0  0  0  0  0
   -7.7190   18.1280  -32.7190 C   0  0  0  0  0  0  0  0  0  0  0  0
   -6.4710   17.8310  -33.4130 N   0  0  0  0  0  0  0  0  0  0  0  0
   -6.0650   18.3720  -34.5770 C   0  0  0  0  0  0  0  0  0  0  0  0
   -4.8750   17.7790  -34.9360 C   0  0  0  0  0  0  0  0  0  0  0  0
   -4.6190   16.8650  -33.9300 C   0  0  0  0  0  0  0  0  0  0  0  0
   -5.6090   16.9080  -33.0180 N   0  0  0  0  0  0  0  0  0  0  0  0
   -6.5430   20.1960  -31.8770 C   0  0  0  0  0  0  0  0  0  0  0  0
   -6.6070   21.5250  -31.4400 C   0  0  0  0  0  0  0  0  0  0  0  0
   -2.9105   19.7661  -32.3351 H   0  0  0  0  0  0  0  0  0  0  0  0
   -3.7380   19.4168  -33.8907 H   0  0  0  0  0  0  0  0  0  0  0  0
   -2.0903   20.1322  -33.8907 H   0  0  0  0  0  0  0  0  0  0  0  0
   -3.2249   22.0966  -34.1775 H   0  0  0  0  0  0  0  0  0  0  0  0
   -4.7542   21.4203  -33.4972 H   0  0  0  0  0  0  0  0  0  0  0  0
   -6.7770   25.0220  -28.5130 H   0  0  0  0  0  0  0  0  0  0  0  0
   -5.3670   26.1290  -28.5940 H   0  0  0  0  0  0  0  0  0  0  0  0
   -8.2583   24.3202  -30.9078 H   0  0  0  0  0  0  0  0  0  0  0  0
   -9.9330   22.1938  -31.8259 H   0  0  0  0  0  0  0  0  0  0  0  0
   -9.8929   19.7871  -32.5603 H   0  0  0  0  0  0  0  0  0  0  0  0
   -7.8037   17.4864  -31.8295 H   0  0  0  0  0  0  0  0  0  0  0  0
   -8.5649   17.9373  -33.3959 H   0  0  0  0  0  0  0  0  0  0  0  0
   -6.5928   19.1532  -35.1437 H   0  0  0  0  0  0  0  0  0  0  0  0
   -4.2632   17.9865  -35.8263 H   0  0  0  0  0  0  0  0  0  0  0  0
   -3.7410   16.2040  -33.8821 H   0  0  0  0  0  0  0  0  0  0  0  0
   -5.5865   19.6529  -31.8926 H   0  0  0  0  0  0  0  0  0  0  0  0
  1  2  1  0
  2  3  1  0
  3  4  1  0
  4  5  2  0
  4  6  1  0
  6  7  1  0
  7  8  1  0
  8  9  1  0
  8 10  2  0
  7 11  2  0
 11 12  1  0
 12 13  2  0
 13 14  1  0
 14 15  2  0
 15 16  1  0
 16 17  1  0
 17 18  1  0
 18 19  2  0
 19 20  1  0
 20 21  2  0
 15 22  1  0
 22 23  2  0
 23  6  1  0
 23 12  1  0
 21 17  1  0
  1 24  1  0
  1 25  1  0
  1 26  1  0
  2 27  1  0
  2 28  1  0
  9 29  1  0
  9 30  1  0
 11 31  1  0
 13 32  1  0
 14 33  1  0
 16 34  1  0
 16 35  1  0
 18 36  1  0
 19 37  1  0
 20 38  1  0
 22 39  1  0
M  END
>  <UniqueID>  (85) 
84

>  <SMILES>  (85) 
CCOC(=O)n1c(C(N)=O)cc2ccc(Cn3cccn3)cc21

>  <Energy>  (85) 
103.90168288952648

>  <Genealogy>  (85) 
CCOC(=O)n1c(C(N)=O)cc2ccc(Cn3cccn3)cc21 (3D coordinates assigned)
CCOC(=O)n1c(C(N)=O)cc2ccc(Cn3cccn3)cc21 (optimized conformer: 103.90168288952648 kcal/mol)

>  <smiles>  (85) 
CCOC(=O)n1c(C(N)=O)cc2ccc(Cn3cccn3)cc21

>  <score_type>  (85) 
oracle

>  <origin>  (85) 
adg

>  <m_score__min__energy>  (85) 
-8.5700000000000003

>  <m_primary>  (85) 
energy

$$$$
85:0
     RDKit          3D

 52 54  0  0  0  0  0  0  0  0999 V2000
   -5.4430   25.6830  -30.5630 C   0  0  0  0  0  0  0  0  0  0  0  0
   -4.2640   24.9380  -30.8420 O   0  0  0  0  0  0  0  0  0  0  0  0
   -3.9690   23.7300  -30.2050 C   0  0  0  0  0  0  0  0  0  0  0  0
   -4.8120   23.1940  -29.4350 O   0  0  0  0  0  0  0  0  0  0  0  0
   -2.7040   23.0910  -30.4390 N   0  0  0  0  0  0  0  0  0  0  0  0
   -1.5100   23.3530  -29.8350 C   0  0  0  0  0  0  0  0  0  0  0  0
   -1.2390   24.4500  -28.8810 C   0  0  0  0  0  0  0  0  0  0  0  0
   -1.9710   25.6700  -28.9780 N   0  0  0  0  0  0  0  0  0  0  0  0
   -0.3950   24.3100  -27.9590 O   0  0  0  0  0  0  0  0  0  0  0  0
   -0.5250   22.4860  -30.3040 C   0  0  0  0  0  0  0  0  0  0  0  0
   -1.1550   21.6840  -31.2270 C   0  0  0  0  0  0  0  0  0  0  0  0
   -0.6500   20.6450  -32.0010 C   0  0  0  0  0  0  0  0  0  0  0  0
   -1.5340   19.9700  -32.8560 C   0  0  0  0  0  0  0  0  0  0  0  0
   -2.9040   20.3340  -32.9140 C   0  0  0  0  0  0  0  0  0  0  0  0
   -3.8460   19.5710  -33.8120 C   0  0  0  0  0  0  0  0  0  0  0  0
   -4.8190   18.6880  -33.0110 C   0  0  0  0  0  0  0  0  0  0  0  0
   -6.2580   18.6900  -33.5690 C   0  0  0  0  0  0  0  0  0  0  0  0
   -7.3260   18.6730  -32.4650 C   0  0  0  0  0  0  0  0  0  0  0  0
   -7.5400   20.0280  -31.9100 N   0  0  0  0  0  0  0  0  0  0  0  0
   -6.8700   21.0580  -32.7270 C   0  0  0  0  0  0  0  0  0  0  0  0
   -6.8590   22.4110  -31.9890 C   0  0  0  0  0  0  0  0  0  0  0  0
   -7.9870   22.5230  -30.9520 C   0  0  0  0  0  0  0  0  0  0  0  0
   -9.2520   21.8210  -31.4500 C   0  0  2  0  0  0  0  0  0  0  0  0
  -10.2500   21.9330  -30.4980 F   0  0  0  0  0  0  0  0  0  0  0  0
   -8.9860   20.3310  -31.7670 C   0  0  0  0  0  0  0  0  0  0  0  0
   -3.3800   21.4010  -32.1180 C   0  0  0  0  0  0  0  0  0  0  0  0
   -2.4700   22.0680  -31.2900 C   0  0  0  0  0  0  0  0  0  0  0  0
   -5.5750   25.7664  -29.4741 H   0  0  0  0  0  0  0  0  0  0  0  0
   -5.3532   26.6887  -30.9995 H   0  0  0  0  0  0  0  0  0  0  0  0
   -6.3127   25.1701  -30.9995 H   0  0  0  0  0  0  0  0  0  0  0  0
   -2.9490   25.6800  -29.3450 H   0  0  0  0  0  0  0  0  0  0  0  0
    0.5317   22.4505  -30.0006 H   0  0  0  0  0  0  0  0  0  0  0  0
    0.4111   20.3608  -31.9446 H   0  0  0  0  0  0  0  0  0  0  0  0
   -1.1612   19.1503  -33.4877 H   0  0  0  0  0  0  0  0  0  0  0  0
   -4.4275   20.2893  -34.4086 H   0  0  0  0  0  0  0  0  0  0  0  0
   -3.2432   18.9139  -34.4562 H   0  0  0  0  0  0  0  0  0  0  0  0
   -4.4423   17.6546  -33.0246 H   0  0  0  0  0  0  0  0  0  0  0  0
   -4.8673   19.1026  -31.9933 H   0  0  0  0  0  0  0  0  0  0  0  0
   -6.3971   19.5952  -34.1783 H   0  0  0  0  0  0  0  0  0  0  0  0
   -6.3831   17.7734  -34.1641 H   0  0  0  0  0  0  0  0  0  0  0  0
   -8.2726   18.3038  -32.8865 H   0  0  0  0  0  0  0  0  0  0  0  0
   -6.9805   18.0141  -31.6548 H   0  0  0  0  0  0  0  0  0  0  0  0
   -5.8341   20.7454  -32.9250 H   0  0  0  0  0  0  0  0  0  0  0  0
   -7.4191   21.1738  -33.6731 H   0  0  0  0  0  0  0  0  0  0  0  0
   -5.8936   22.5245  -31.4741 H   0  0  0  0  0  0  0  0  0  0  0  0
   -7.0126   23.2021  -32.7377 H   0  0  0  0  0  0  0  0  0  0  0  0
   -7.6607   22.0547  -30.0117 H   0  0  0  0  0  0  0  0  0  0  0  0
   -8.2138   23.5871  -30.7901 H   0  0  0  0  0  0  0  0  0  0  0  0
   -9.5720   22.3096  -32.3821 H   0  0  0  0  0  0  0  0  0  0  0  0
   -9.3954   19.7184  -30.9503 H   0  0  0  0  0  0  0  0  0  0  0  0
   -9.4712   20.1026  -32.7274 H   0  0  0  0  0  0  0  0  0  0  0  0
   -4.4383   21.6993  -32.1487 H   0  0  0  0  0  0  0  0  0  0  0  0
  1  2  1  0
  2  3  1  0
  3  4  2  0
  3  5  1  0
  5  6  1  0
  6  7  1  0
  7  8  1  0
  7  9  2  0
  6 10  2  0
 10 11  1  0
 11 12  2  0
 12 13  1  0
 13 14  2  0
 14 15  1  0
 15 16  1  0
 16 17  1  0
 17 18  1  0
 18 19  1  0
 19 20  1  0
 20 21  1  0
 21 22  1  0
 22 23  1  0
 23 24  1  0
 23 25  1  0
 14 26  1  0
 26 27  2  0
 27  5  1  0
 27 11  1  0
 25 19  1  0
  1 28  1  0
  1 29  1  0
  1 30  1  0
  8 31  1  0
 10 32  1  0
 12 33  1  0
 13 34  1  0
 15 35  1  0
 15 36  1  0
 16 37  1  0
 16 38  1  0
 17 39  1  0
 17 40  1  0
 18 41  1  0
 18 42  1  0
 20 43  1  0
 20 44  1  0
 21 45  1  0
 21 46  1  0
 22 47  1  0
 22 48  1  0
 23 49  1  6
 25 50  1  0
 25 51  1  0
 26 52  1  0
M  CHG  1   8  -1
M  END
>  <UniqueID>  (86) 
85

>  <SMILES>  (86) 
COC(=O)n1c(C([NH-])=O)cc2ccc(CCCCN3CCC[C@H](F)C3)cc21

>  <Energy>  (86) 
90.08268560263284

>  <Genealogy>  (86) 
COC(=O)n1c(C([NH-])=O)cc2ccc(CCCCN3CCCC(F)C3)cc21 (protonated)
COC(=O)n1c(C([NH-])=O)cc2ccc(CCCCN3CCC[C@H](F)C3)cc21 (chirality)
COC(=O)n1c(C([NH-])=O)cc2ccc(CCCCN3CCC[C@H](F)C3)cc21 (3D coordinates assigned)
COC(=O)n1c(C([NH-])=O)cc2ccc(CCCCN3CCC[C@H](F)C3)cc21 (nonaromatic ring conformer: 90.08268560263284 kcal/mol)

>  <smiles>  (86) 
COC(=O)n1c(C(N)=O)cc2ccc(CCCCN3CCCC(F)C3)cc21

>  <score_type>  (86) 
oracle

>  <origin>  (86) 
adg

>  <m_score__min__energy>  (86) 
-11.220000000000001

>  <m_primary>  (86) 
energy

$$$$
86:0
     RDKit          3D

 43 44  0  0  0  0  0  0  0  0999 V2000
   -3.2270   19.9150  -32.6880 C   0  0  0  0  0  0  0  0  0  0  0  0
   -2.8340   21.1910  -33.4240 C   0  0  0  0  0  0  0  0  0  0  0  0
   -3.7550   22.2410  -33.1370 O   0  0  0  0  0  0  0  0  0  0  0  0
   -4.0410   22.6830  -31.8400 C   0  0  0  0  0  0  0  0  0  0  0  0
   -3.1180   22.8120  -30.9910 O   0  0  0  0  0  0  0  0  0  0  0  0
   -5.4020   22.9620  -31.4680 N   0  0  0  0  0  0  0  0  0  0  0  0
   -5.8960   24.0890  -30.8780 C   0  0  0  0  0  0  0  0  0  0  0  0
   -5.1410   25.3310  -30.6120 C   0  0  0  0  0  0  0  0  0  0  0  0
   -3.7260   25.2780  -30.4400 N   0  0  0  0  0  0  0  0  0  0  0  0
   -5.7350   26.4360  -30.4990 O   0  0  0  0  0  0  0  0  0  0  0  0
   -7.2590   23.9490  -30.6270 C   0  0  0  0  0  0  0  0  0  0  0  0
   -7.5900   22.6970  -31.0920 C   0  0  0  0  0  0  0  0  0  0  0  0
   -8.8160   22.0390  -31.0950 C   0  0  0  0  0  0  0  0  0  0  0  0
   -8.8640   20.7380  -31.6230 C   0  0  0  0  0  0  0  0  0  0  0  0
   -7.6920   20.1210  -32.1270 C   0  0  0  0  0  0  0  0  0  0  0  0
   -7.7550   18.7300  -32.7070 C   0  0  0  0  0  0  0  0  0  0  0  0
   -6.3540   18.1420  -32.9740 C   0  0  0  0  0  0  0  0  0  0  0  0
   -6.2270   17.4780  -34.2960 N   0  0  0  0  0  0  0  0  0  0  0  0
   -4.8650   17.6810  -34.8230 C   0  0  0  0  0  0  0  0  0  0  0  0
   -6.5110   16.0330  -34.2110 C   0  0  0  0  0  0  0  0  0  0  0  0
   -6.4660   20.8200  -32.1080 C   0  0  0  0  0  0  0  0  0  0  0  0
   -6.4510   22.1220  -31.5940 C   0  0  0  0  0  0  0  0  0  0  0  0
   -3.1741   20.0866  -31.6028 H   0  0  0  0  0  0  0  0  0  0  0  0
   -4.2536   19.6332  -32.9651 H   0  0  0  0  0  0  0  0  0  0  0  0
   -2.5368   19.1045  -32.9651 H   0  0  0  0  0  0  0  0  0  0  0  0
   -1.8267   21.4966  -33.1047 H   0  0  0  0  0  0  0  0  0  0  0  0
   -2.8474   20.9941  -34.5062 H   0  0  0  0  0  0  0  0  0  0  0  0
   -3.1030   24.9640  -31.2170 H   0  0  0  0  0  0  0  0  0  0  0  0
   -7.9289   24.6838  -30.1566 H   0  0  0  0  0  0  0  0  0  0  0  0
   -9.7199   22.5226  -30.6962 H   0  0  0  0  0  0  0  0  0  0  0  0
   -9.8196   20.1936  -31.6454 H   0  0  0  0  0  0  0  0  0  0  0  0
   -8.2842   18.0753  -31.9989 H   0  0  0  0  0  0  0  0  0  0  0  0
   -8.2830   18.7910  -33.6700 H   0  0  0  0  0  0  0  0  0  0  0  0
   -5.6192   18.9590  -32.9238 H   0  0  0  0  0  0  0  0  0  0  0  0
   -6.1779   17.3713  -32.2091 H   0  0  0  0  0  0  0  0  0  0  0  0
   -6.8910   17.9110  -34.9790 H   0  0  0  0  0  0  0  0  0  0  0  0
   -4.1597   17.7861  -33.9855 H   0  0  0  0  0  0  0  0  0  0  0  0
   -4.5772   16.8158  -35.4383 H   0  0  0  0  0  0  0  0  0  0  0  0
   -4.8420   18.5925  -35.4383 H   0  0  0  0  0  0  0  0  0  0  0  0
   -6.5701   15.7325  -33.1545 H   0  0  0  0  0  0  0  0  0  0  0  0
   -7.4686   15.8177  -34.7076 H   0  0  0  0  0  0  0  0  0  0  0  0
   -5.7061   15.4713  -34.7076 H   0  0  0  0  0  0  0  0  0  0  0  0
   -5.5451   20.3533  -32.4877 H   0  0  0  0  0  0  0  0  0  0  0  0
  1  2  1  0
  2  3  1  0
  3  4  1  0
  4  5  2  0
  4  6  1  0
  6  7  1  0
  7  8  1  0
  8  9  1  0
  8 10  2  0
  7 11  2  0
 11 12  1  0
 12 13  2  0
 13 14  1  0
 14 15  2  0
 15 16  1  0
 16 17  1  0
 17 18  1  0
 18 19  1  0
 18 20  1  0
 15 21  1  0
 21 22  2  0
 22  6  1  0
 22 12  1  0
  1 23  1  0
  1 24  1  0
  1 25  1  0
  2 26  1  0
  2 27  1  0
  9 28  1  0
 11 29  1  0
 13 30  1  0
 14 31  1  0
 16 32  1  0
 16 33  1  0
 17 34  1  0
 17 35  1  0
 18 36  1  0
 19 37  1  0
 19 38  1  0
 19 39  1  0
 20 40  1  0
 20 41  1  0
 20 42  1  0
 21 43  1  0
M  CHG  2   9  -1  18   1
M  END
>  <UniqueID>  (87) 
86

>  <SMILES>  (87) 
CCOC(=O)n1c(C([NH-])=O)cc2ccc(CC[NH+](C)C)cc21

>  <Energy>  (87) 
76.38590590934494

>  <Genealogy>  (87) 
CCOC(=O)n1c(C([NH-])=O)cc2ccc(CC[NH+](C)C)cc21 (protonated)
CCOC(=O)n1c(C([NH-])=O)cc2ccc(CC[NH+](C)C)cc21 (3D coordinates assigned)
CCOC(=O)n1c(C([NH-])=O)cc2ccc(CC[NH+](C)C)cc21 (optimized conformer: 76.38590590934494 kcal/mol)

>  <smiles>  (87) 
CCOC(=O)n1c(C(N)=O)cc2ccc(CCN(C)C)cc21

>  <score_type>  (87) 
oracle

>  <origin>  (87) 
adg

>  <m_score__min__energy>  (87) 
-9.5

>  <m_primary>  (87) 
energy

$$$$
87:0
     RDKit          3D

 48 50  0  0  0  0  0  0  0  0999 V2000
   -2.5390   22.3380  -30.0650 C   0  0  0  0  0  0  0  0  0  0  0  0
   -3.2590   21.5450  -30.8580 C   0  0  0  0  0  0  0  0  0  0  0  0
   -4.2900   22.0630  -31.7780 C   0  0  0  0  0  0  0  0  0  0  0  0
   -3.9780   22.2770  -32.9800 O   0  0  0  0  0  0  0  0  0  0  0  0
   -5.6350   22.3260  -31.3430 N   0  0  0  0  0  0  0  0  0  0  0  0
   -6.1040   23.4540  -30.7400 C   0  0  0  0  0  0  0  0  0  0  0  0
   -5.2800   24.5760  -30.2440 C   0  0  0  0  0  0  0  0  0  0  0  0
   -5.2950   24.9540  -28.8690 N   0  0  0  0  0  0  0  0  0  0  0  0
   -4.5700   25.2290  -31.0540 O   0  0  0  0  0  0  0  0  0  0  0  0
   -7.4940   23.4190  -30.6480 C   0  0  0  0  0  0  0  0  0  0  0  0
   -7.8650   22.2210  -31.2120 C   0  0  0  0  0  0  0  0  0  0  0  0
   -9.1300   21.6760  -31.4130 C   0  0  0  0  0  0  0  0  0  0  0  0
   -9.2150   20.4280  -32.0510 C   0  0  0  0  0  0  0  0  0  0  0  0
   -8.0470   19.7520  -32.4700 C   0  0  0  0  0  0  0  0  0  0  0  0
   -8.1520   18.4610  -33.0870 N   0  0  0  0  0  0  0  0  0  0  0  0
   -7.2150   17.3460  -32.8560 C   0  0  2  0  0  0  0  0  0  0  0  0
   -6.5050   17.4280  -31.4930 C   0  0  0  0  0  0  0  0  0  0  0  0
   -6.2620   17.1860  -34.0810 C   0  0  0  0  0  0  0  0  0  0  0  0
   -5.7300   18.5150  -34.6790 C   0  0  0  0  0  0  0  0  0  0  0  0
   -4.3470   18.9060  -34.1520 C   0  0  0  0  0  0  0  0  0  0  0  0
   -3.4360   17.8340  -34.2740 O   0  0  0  0  0  0  0  0  0  0  0  0
   -3.8160   16.7900  -33.4060 C   0  0  0  0  0  0  0  0  0  0  0  0
   -5.1290   16.1490  -33.8680 C   0  0  0  0  0  0  0  0  0  0  0  0
   -6.7850   20.3520  -32.2890 C   0  0  0  0  0  0  0  0  0  0  0  0
   -6.7260   21.5840  -31.6280 C   0  0  0  0  0  0  0  0  0  0  0  0
   -1.7812   21.9049  -29.3956 H   0  0  0  0  0  0  0  0  0  0  0  0
   -2.7025   23.4257  -30.0799 H   0  0  0  0  0  0  0  0  0  0  0  0
   -3.0774   20.4606  -30.8254 H   0  0  0  0  0  0  0  0  0  0  0  0
   -4.6140   25.6620  -28.5120 H   0  0  0  0  0  0  0  0  0  0  0  0
   -6.0280   24.6010  -28.2190 H   0  0  0  0  0  0  0  0  0  0  0  0
   -8.1537   24.1861  -30.2163 H   0  0  0  0  0  0  0  0  0  0  0  0
  -10.0351   22.2066  -31.0823 H   0  0  0  0  0  0  0  0  0  0  0  0
  -10.2006   19.9721  -32.2264 H   0  0  0  0  0  0  0  0  0  0  0  0
   -9.0730   18.2240  -33.5180 H   0  0  0  0  0  0  0  0  0  0  0  0
   -7.7919   16.4123  -32.7818 H   0  0  0  0  0  0  0  0  0  0  0  0
   -7.2483   17.3422  -30.6867 H   0  0  0  0  0  0  0  0  0  0  0  0
   -5.7766   16.6080  -31.4091 H   0  0  0  0  0  0  0  0  0  0  0  0
   -5.9827   18.3924  -31.4091 H   0  0  0  0  0  0  0  0  0  0  0  0
   -6.9265   16.7690  -34.8521 H   0  0  0  0  0  0  0  0  0  0  0  0
   -5.6691   18.4063  -35.7719 H   0  0  0  0  0  0  0  0  0  0  0  0
   -6.4291   19.3097  -34.3795 H   0  0  0  0  0  0  0  0  0  0  0  0
   -3.9718   19.7640  -34.7291 H   0  0  0  0  0  0  0  0  0  0  0  0
   -4.4392   19.1674  -33.0875 H   0  0  0  0  0  0  0  0  0  0  0  0
   -3.0257   16.0250  -33.3944 H   0  0  0  0  0  0  0  0  0  0  0  0
   -3.9619   17.2051  -32.3978 H   0  0  0  0  0  0  0  0  0  0  0  0
   -4.9490   15.6251  -34.8183 H   0  0  0  0  0  0  0  0  0  0  0  0
   -5.4566   15.4585  -33.0769 H   0  0  0  0  0  0  0  0  0  0  0  0
   -5.8702   19.8648  -32.6576 H   0  0  0  0  0  0  0  0  0  0  0  0
  1  2  2  0
  2  3  1  0
  3  4  2  0
  3  5  1  0
  5  6  1  0
  6  7  1  0
  7  8  1  0
  7  9  2  0
  6 10  2  0
 10 11  1  0
 11 12  2  0
 12 13  1  0
 13 14  2  0
 14 15  1  0
 15 16  1  0
 16 17  1  0
 16 18  1  0
 18 19  1  0
 19 20  1  0
 20 21  1  0
 21 22  1  0
 22 23  1  0
 14 24  1  0
 24 25  2  0
 25  5  1  0
 25 11  1  0
 23 18  1  0
  1 26  1  0
  1 27  1  0
  2 28  1  0
  8 29  1  0
  8 30  1  0
 10 31  1  0
 12 32  1  0
 13 33  1  0
 15 34  1  0
 16 35  1  1
 17 36  1  0
 17 37  1  0
 17 38  1  0
 18 39  1  0
 19 40  1  0
 19 41  1  0
 20 42  1  0
 20 43  1  0
 22 44  1  0
 22 45  1  0
 23 46  1  0
 23 47  1  0
 24 48  1  0
M  END
>  <UniqueID>  (88) 
87

>  <SMILES>  (88) 
C=CC(=O)n1c(C(N)=O)cc2ccc(N[C@H](C)C3CCOCC3)cc21

>  <Energy>  (88) 
98.75207673775247

>  <Genealogy>  (88) 
C=CC(=O)n1c(C(N)=O)cc2ccc(N[C@H](C)C3CCOCC3)cc21 (chirality)
C=CC(=O)n1c(C(N)=O)cc2ccc(N[C@H](C)C3CCOCC3)cc21 (3D coordinates assigned)
C=CC(=O)n1c(C(N)=O)cc2ccc(N[C@H](C)C3CCOCC3)cc21 (nonaromatic ring conformer: 98.75207673775247 kcal/mol)

>  <smiles>  (88) 
C=CC(=O)n1c(C(N)=O)cc2ccc(NC(C)C3CCOCC3)cc21

>  <score_type>  (88) 
oracle

>  <origin>  (88) 
adg

>  <m_score__min__energy>  (88) 
-10.050000000000001

>  <m_primary>  (88) 
energy

$$$$
88:0
     RDKit          3D

 57 59  0  0  0  0  0  0  0  0999 V2000
   -6.5040   25.2450  -29.8450 C   0  0  0  0  0  0  0  0  0  0  0  0
   -5.6810   23.9670  -29.9930 C   0  0  0  0  0  0  0  0  0  0  0  0
   -4.2870   24.2410  -30.4940 C   0  0  0  0  0  0  0  0  0  0  0  0
   -3.9830   25.4120  -30.8450 O   0  0  0  0  0  0  0  0  0  0  0  0
   -3.3020   23.1980  -30.5920 N   0  0  0  0  0  0  0  0  0  0  0  0
   -2.0430   23.2080  -30.0710 C   0  0  0  0  0  0  0  0  0  0  0  0
   -1.4830   24.2820  -29.2170 C   0  0  0  0  0  0  0  0  0  0  0  0
   -2.3240   25.2990  -28.6690 N   0  0  0  0  0  0  0  0  0  0  0  0
   -0.2480   24.3170  -28.9750 O   0  0  0  0  0  0  0  0  0  0  0  0
   -1.3720   22.0330  -30.4060 C   0  0  0  0  0  0  0  0  0  0  0  0
   -2.2650   21.3050  -31.1590 C   0  0  0  0  0  0  0  0  0  0  0  0
   -2.1220   20.0610  -31.7610 C   0  0  0  0  0  0  0  0  0  0  0  0
   -3.2060   19.5550  -32.4980 C   0  0  0  0  0  0  0  0  0  0  0  0
   -4.4150   20.2970  -32.6340 C   0  0  0  0  0  0  0  0  0  0  0  0
   -5.5400   19.7600  -33.3830 N   0  0  0  0  0  0  0  0  0  0  0  0
   -5.3830   18.5500  -34.2120 C   0  0  0  0  0  0  0  0  0  0  0  0
   -6.4980   17.5400  -33.9170 C   0  0  0  0  0  0  0  0  0  0  0  0
   -6.1520   16.7110  -32.7420 N   0  0  0  0  0  0  0  0  0  0  0  0
   -4.7290   16.3300  -32.7680 C   0  0  0  0  0  0  0  0  0  0  0  0
   -6.4390   17.4440  -31.4980 C   0  0  0  0  0  0  0  0  0  0  0  0
   -6.8200   20.4910  -33.4430 C   0  0  0  0  0  0  0  0  0  0  0  0
   -7.5530   20.5010  -32.0810 C   0  0  0  0  0  0  0  0  0  0  0  0
   -8.0250   21.8720  -31.5970 C   0  0  0  0  0  0  0  0  0  0  0  0
   -9.4720   21.4170  -31.7160 C   0  0  0  0  0  0  0  0  0  0  0  0
   -9.0080   20.0420  -32.1760 C   0  0  0  0  0  0  0  0  0  0  0  0
   -4.5030   21.5680  -32.0100 C   0  0  0  0  0  0  0  0  0  0  0  0
   -3.4180   22.0320  -31.2630 C   0  0  0  0  0  0  0  0  0  0  0  0
   -6.6472   25.4673  -28.7773 H   0  0  0  0  0  0  0  0  0  0  0  0
   -5.9737   26.0804  -30.3256 H   0  0  0  0  0  0  0  0  0  0  0  0
   -7.4839   25.1078  -30.3256 H   0  0  0  0  0  0  0  0  0  0  0  0
   -5.6140   23.4735  -29.0122 H   0  0  0  0  0  0  0  0  0  0  0  0
   -6.1845   23.3255  -30.7312 H   0  0  0  0  0  0  0  0  0  0  0  0
   -3.3610   25.2740  -28.7860 H   0  0  0  0  0  0  0  0  0  0  0  0
   -1.9090   26.0680  -28.0980 H   0  0  0  0  0  0  0  0  0  0  0  0
   -0.3466   21.7481  -30.1277 H   0  0  0  0  0  0  0  0  0  0  0  0
   -1.1875   19.4890  -31.6635 H   0  0  0  0  0  0  0  0  0  0  0  0
   -3.1199   18.5691  -32.9783 H   0  0  0  0  0  0  0  0  0  0  0  0
   -5.4242   18.8327  -35.2743 H   0  0  0  0  0  0  0  0  0  0  0  0
   -4.4143   18.0847  -33.9771 H   0  0  0  0  0  0  0  0  0  0  0  0
   -7.4329   18.0828  -33.7138 H   0  0  0  0  0  0  0  0  0  0  0  0
   -6.6216   16.8830  -34.7905 H   0  0  0  0  0  0  0  0  0  0  0  0
   -4.3572   16.2304  -31.7375 H   0  0  0  0  0  0  0  0  0  0  0  0
   -4.6160   15.3700  -33.2929 H   0  0  0  0  0  0  0  0  0  0  0  0
   -4.1514   17.1051  -33.2929 H   0  0  0  0  0  0  0  0  0  0  0  0
   -6.1910   16.8105  -30.6336 H   0  0  0  0  0  0  0  0  0  0  0  0
   -5.8339   18.3621  -31.4654 H   0  0  0  0  0  0  0  0  0  0  0  0
   -7.5066   17.7071  -31.4654 H   0  0  0  0  0  0  0  0  0  0  0  0
   -6.6207   21.5297  -33.7454 H   0  0  0  0  0  0  0  0  0  0  0  0
   -7.4670   19.9788  -34.1703 H   0  0  0  0  0  0  0  0  0  0  0  0
   -6.8107   19.9442  -31.4903 H   0  0  0  0  0  0  0  0  0  0  0  0
   -7.7144   22.1171  -30.5706 H   0  0  0  0  0  0  0  0  0  0  0  0
   -7.6863   22.7878  -32.1035 H   0  0  0  0  0  0  0  0  0  0  0  0
  -10.0193   21.4093  -30.7619 H   0  0  0  0  0  0  0  0  0  0  0  0
  -10.1866   21.9929  -32.3224 H   0  0  0  0  0  0  0  0  0  0  0  0
   -9.2675   19.2262  -31.4853 H   0  0  0  0  0  0  0  0  0  0  0  0
   -9.3948   19.6075  -33.1096 H   0  0  0  0  0  0  0  0  0  0  0  0
   -5.4120   22.1788  -32.1129 H   0  0  0  0  0  0  0  0  0  0  0  0
  1  2  1  0
  2  3  1  0
  3  4  2  0
  3  5  1  0
  5  6  1  0
  6  7  1  0
  7  8  1  0
  7  9  2  0
  6 10  2  0
 10 11  1  0
 11 12  2  0
 12 13  1  0
 13 14  2  0
 14 15  1  0
 15 16  1  0
 16 17  1  0
 17 18  1  0
 18 19  1  0
 18 20  1  0
 15 21  1  0
 21 22  1  0
 22 23  1  0
 23 24  1  0
 24 25  1  0
 14 26  1  0
 26 27  2  0
 27  5  1  0
 27 11  1  0
 25 22  1  0
  1 28  1  0
  1 29  1  0
  1 30  1  0
  2 31  1  0
  2 32  1  0
  8 33  1  0
  8 34  1  0
 10 35  1  0
 12 36  1  0
 13 37  1  0
 16 38  1  0
 16 39  1  0
 17 40  1  0
 17 41  1  0
 19 42  1  0
 19 43  1  0
 19 44  1  0
 20 45  1  0
 20 46  1  0
 20 47  1  0
 21 48  1  0
 21 49  1  0
 22 50  1  0
 23 51  1  0
 23 52  1  0
 24 53  1  0
 24 54  1  0
 25 55  1  0
 25 56  1  0
 26 57  1  0
M  END
>  <UniqueID>  (89) 
88

>  <SMILES>  (89) 
CCC(=O)n1c(C(N)=O)cc2ccc(N(CCN(C)C)CC3CCC3)cc21

>  <Energy>  (89) 
153.85509516768713

>  <Genealogy>  (89) 
CCC(=O)n1c(C(N)=O)cc2ccc(N(CCN(C)C)CC3CCC3)cc21 (3D coordinates assigned)
CCC(=O)n1c(C(N)=O)cc2ccc(N(CCN(C)C)CC3CCC3)cc21 (nonaromatic ring conformer: 153.85509516768713 kcal/mol)

>  <smiles>  (89) 
CCC(=O)n1c(C(N)=O)cc2ccc(N(CCN(C)C)CC3CCC3)cc21

>  <score_type>  (89) 
oracle

>  <origin>  (89) 
adg

>  <m_score__min__energy>  (89) 
-9.4800000000000004

>  <m_primary>  (89) 
energy

$$$$
89:0
     RDKit          3D

 36 38  0  0  0  0  0  0  0  0999 V2000
   -6.0840   18.4930  -34.3680 C   0  0  0  0  0  0  0  0  0  0  0  0
   -6.9750   18.5080  -33.1200 C   0  0  1  0  0  0  0  0  0  0  0  0
   -6.4650   17.5620  -32.0650 C   0  0  0  0  0  0  0  0  0  0  0  0
   -6.6660   17.8130  -30.8480 O   0  0  0  0  0  0  0  0  0  0  0  0
   -5.7260   16.4380  -32.4170 O   0  0  0  0  0  0  0  0  0  0  0  0
   -7.1080   19.9090  -32.5600 C   0  0  0  0  0  0  0  0  0  0  0  0
   -8.3950   20.4760  -32.3700 C   0  0  0  0  0  0  0  0  0  0  0  0
   -8.5380   21.7810  -31.8680 C   0  0  0  0  0  0  0  0  0  0  0  0
   -7.3840   22.4920  -31.5580 C   0  0  0  0  0  0  0  0  0  0  0  0
   -7.2340   23.7760  -31.0840 C   0  0  0  0  0  0  0  0  0  0  0  0
   -5.8590   23.9700  -30.9710 C   0  0  0  0  0  0  0  0  0  0  0  0
   -5.2510   25.2060  -30.4310 C   0  0  0  0  0  0  0  0  0  0  0  0
   -3.9560   25.6300  -30.8460 N   0  0  0  0  0  0  0  0  0  0  0  0
   -5.8710   25.8780  -29.5630 O   0  0  0  0  0  0  0  0  0  0  0  0
   -5.1860   22.8520  -31.3620 N   0  0  0  0  0  0  0  0  0  0  0  0
   -3.7640   22.6710  -31.4530 C   0  0  0  0  0  0  0  0  0  0  0  0
   -3.0200   23.1410  -30.5480 O   0  0  0  0  0  0  0  0  0  0  0  0
   -3.1770   21.9300  -32.6270 C   0  0  0  0  0  0  0  0  0  0  0  0
   -2.7880   20.4760  -32.4000 C   0  0  0  0  0  0  0  0  0  0  0  0
   -1.7130   21.5490  -32.4700 C   0  0  0  0  0  0  0  0  0  0  0  0
   -6.1330   21.9570  -31.7190 C   0  0  0  0  0  0  0  0  0  0  0  0
   -5.9580   20.6700  -32.2380 C   0  0  0  0  0  0  0  0  0  0  0  0
   -5.0271   18.4752  -34.0637 H   0  0  0  0  0  0  0  0  0  0  0  0
   -6.3080   17.5985  -34.9677 H   0  0  0  0  0  0  0  0  0  0  0  0
   -6.2778   19.3945  -34.9677 H   0  0  0  0  0  0  0  0  0  0  0  0
   -7.9733   18.1635  -33.4277 H   0  0  0  0  0  0  0  0  0  0  0  0
   -9.2906   19.8876  -32.6184 H   0  0  0  0  0  0  0  0  0  0  0  0
   -9.5334   22.2267  -31.7246 H   0  0  0  0  0  0  0  0  0  0  0  0
   -8.0307   24.4959  -30.8452 H   0  0  0  0  0  0  0  0  0  0  0  0
   -3.0970   25.2980  -30.3530 H   0  0  0  0  0  0  0  0  0  0  0  0
   -3.7834   22.4525  -33.3815 H   0  0  0  0  0  0  0  0  0  0  0  0
   -3.0171   19.9886  -31.4408 H   0  0  0  0  0  0  0  0  0  0  0  0
   -2.9772   19.5288  -32.9264 H   0  0  0  0  0  0  0  0  0  0  0  0
   -1.1642   21.8375  -31.5614 H   0  0  0  0  0  0  0  0  0  0  0  0
   -0.8021   21.6991  -33.0682 H   0  0  0  0  0  0  0  0  0  0  0  0
   -4.9498   20.2582  -32.3926 H   0  0  0  0  0  0  0  0  0  0  0  0
  1  2  1  0
  2  3  1  0
  3  4  2  0
  3  5  1  0
  2  6  1  0
  6  7  2  0
  7  8  1  0
  8  9  2  0
  9 10  1  0
 10 11  2  0
 11 12  1  0
 12 13  1  0
 12 14  2  0
 11 15  1  0
 15 16  1  0
 16 17  2  0
 16 18  1  0
 18 19  1  0
 19 20  1  0
 15 21  1  0
 21 22  2  0
 22  6  1  0
 21  9  1  0
 20 18  1  0
  1 23  1  0
  1 24  1  0
  1 25  1  0
  2 26  1  6
  7 27  1  0
  8 28  1  0
 10 29  1  0
 13 30  1  0
 18 31  1  0
 19 32  1  0
 19 33  1  0
 20 34  1  0
 20 35  1  0
 22 36  1  0
M  CHG  2   5  -1  13  -1
M  END
>  <UniqueID>  (90) 
89

>  <SMILES>  (90) 
C[C@@H](C(=O)[O-])c1ccc2cc(C([NH-])=O)n(C(=O)C3CC3)c2c1

>  <Energy>  (90) 
339.62037936670276

>  <Genealogy>  (90) 
CC(C(=O)[O-])c1ccc2cc(C([NH-])=O)n(C(=O)C3CC3)c2c1 (protonated)
C[C@@H](C(=O)[O-])c1ccc2cc(C([NH-])=O)n(C(=O)C3CC3)c2c1 (chirality)
C[C@@H](C(=O)[O-])c1ccc2cc(C([NH-])=O)n(C(=O)C3CC3)c2c1 (3D coordinates assigned)
C[C@@H](C(=O)[O-])c1ccc2cc(C([NH-])=O)n(C(=O)C3CC3)c2c1 (nonaromatic ring conformer: 339.62037936670276 kcal/mol)

>  <smiles>  (90) 
CC(C(=O)O)c1ccc2cc(C(N)=O)n(C(=O)C3CC3)c2c1

>  <score_type>  (90) 
oracle

>  <origin>  (90) 
adg

>  <m_score__min__energy>  (90) 
-10.57

>  <m_primary>  (90) 
energy

$$$$
90:0
     RDKit          3D

 35 37  0  0  0  0  0  0  0  0999 V2000
   -6.6280   16.4840  -33.7200 C   0  0  0  0  0  0  0  0  0  0  0  0
   -6.5850   17.9140  -33.4390 N   0  0  0  0  0  0  0  0  0  0  0  0
   -7.4120   18.5900  -32.4570 C   0  0  0  0  0  0  0  0  0  0  0  0
   -7.0350   20.0840  -32.5400 C   0  0  0  0  0  0  0  0  0  0  0  0
   -5.8050   20.1950  -33.4690 C   0  0  1  0  0  0  0  0  0  0  0  0
   -4.5550   20.6200  -32.7240 C   0  0  0  0  0  0  0  0  0  0  0  0
   -3.4050   19.7850  -32.6950 C   0  0  0  0  0  0  0  0  0  0  0  0
   -2.2550   20.1700  -31.9860 C   0  0  0  0  0  0  0  0  0  0  0  0
   -2.2780   21.3910  -31.3220 C   0  0  0  0  0  0  0  0  0  0  0  0
   -1.3180   21.9900  -30.5400 C   0  0  0  0  0  0  0  0  0  0  0  0
   -1.8810   23.1920  -30.1170 C   0  0  0  0  0  0  0  0  0  0  0  0
   -1.1460   24.1950  -29.3170 C   0  0  0  0  0  0  0  0  0  0  0  0
   -1.7430   25.4440  -28.9780 N   0  0  0  0  0  0  0  0  0  0  0  0
    0.0420   23.9650  -28.9690 O   0  0  0  0  0  0  0  0  0  0  0  0
   -3.1460   23.3280  -30.6100 N   0  0  0  0  0  0  0  0  0  0  0  0
   -4.0900   24.3760  -30.3410 C   0  0  0  0  0  0  0  0  0  0  0  0
   -5.1230   24.1430  -29.6600 O   0  0  0  0  0  0  0  0  0  0  0  0
   -3.8850   25.6520  -30.8500 O   0  0  0  0  0  0  0  0  0  0  0  0
   -3.3720   22.2180  -31.3490 C   0  0  0  0  0  0  0  0  0  0  0  0
   -4.5380   21.8510  -32.0300 C   0  0  0  0  0  0  0  0  0  0  0  0
   -5.6680   18.8230  -34.0120 C   0  0  0  0  0  0  0  0  0  0  0  0
   -4.8290   18.4920  -34.8920 O   0  0  0  0  0  0  0  0  0  0  0  0
   -6.6448   15.9246  -32.7730 H   0  0  0  0  0  0  0  0  0  0  0  0
   -7.5335   16.2513  -34.2995 H   0  0  0  0  0  0  0  0  0  0  0  0
   -5.7381   16.1973  -34.2995 H   0  0  0  0  0  0  0  0  0  0  0  0
   -8.4772   18.4508  -32.6935 H   0  0  0  0  0  0  0  0  0  0  0  0
   -7.2473   18.1883  -31.4463 H   0  0  0  0  0  0  0  0  0  0  0  0
   -7.8740   20.6617  -32.9551 H   0  0  0  0  0  0  0  0  0  0  0  0
   -6.8070   20.4848  -31.5413 H   0  0  0  0  0  0  0  0  0  0  0  0
   -5.9346   20.9627  -34.2461 H   0  0  0  0  0  0  0  0  0  0  0  0
   -3.4157   18.8262  -33.2340 H   0  0  0  0  0  0  0  0  0  0  0  0
   -1.3641   19.5254  -31.9572 H   0  0  0  0  0  0  0  0  0  0  0  0
   -0.3172   21.6019  -30.2995 H   0  0  0  0  0  0  0  0  0  0  0  0
   -2.7150   25.6740  -29.2810 H   0  0  0  0  0  0  0  0  0  0  0  0
   -5.4217   22.5060  -32.0253 H   0  0  0  0  0  0  0  0  0  0  0  0
  1  2  1  0
  2  3  1  0
  3  4  1  0
  4  5  1  0
  5  6  1  0
  6  7  2  0
  7  8  1  0
  8  9  2  0
  9 10  1  0
 10 11  2  0
 11 12  1  0
 12 13  1  0
 12 14  2  0
 11 15  1  0
 15 16  1  0
 16 17  2  0
 16 18  1  0
 15 19  1  0
 19 20  2  0
  5 21  1  0
 21 22  2  0
 21  2  1  0
 20  6  1  0
 19  9  1  0
  1 23  1  0
  1 24  1  0
  1 25  1  0
  3 26  1  0
  3 27  1  0
  4 28  1  0
  4 29  1  0
  5 30  1  6
  7 31  1  0
  8 32  1  0
 10 33  1  0
 13 34  1  0
 20 35  1  0
M  CHG  2  13  -1  18  -1
M  END
>  <UniqueID>  (91) 
90

>  <SMILES>  (91) 
CN1CC[C@@H](c2ccc3cc(C([NH-])=O)n(C(=O)[O-])c3c2)C1=O

>  <Energy>  (91) 
81.88611900890653

>  <Genealogy>  (91) 
CN1CCC(c2ccc3cc(C([NH-])=O)n(C(=O)[O-])c3c2)C1=O (protonated)
CN1CC[C@@H](c2ccc3cc(C([NH-])=O)n(C(=O)[O-])c3c2)C1=O (chirality)
CN1CC[C@@H](c2ccc3cc(C([NH-])=O)n(C(=O)[O-])c3c2)C1=O (3D coordinates assigned)
CN1CC[C@@H](c2ccc3cc(C([NH-])=O)n(C(=O)[O-])c3c2)C1=O (nonaromatic ring conformer: 81.88611900890653 kcal/mol)

>  <smiles>  (91) 
CN1CCC(c2ccc3cc(C(N)=O)n(C(=O)O)c3c2)C1=O

>  <score_type>  (91) 
oracle

>  <origin>  (91) 
adg

>  <m_score__min__energy>  (91) 
-11.9

>  <m_primary>  (91) 
energy

$$$$
91:0
     RDKit          3D

 41 43  0  0  0  0  0  0  0  0999 V2000
   -2.9460   20.8450  -33.0170 C   0  0  0  0  0  0  0  0  0  0  0  0
   -2.7780   20.3830  -31.5750 C   0  0  0  0  0  0  0  0  0  0  0  0
   -3.5260   21.2480  -30.6690 N   0  0  0  0  0  0  0  0  0  0  0  0
   -3.9920   22.5540  -31.0220 C   0  0  0  0  0  0  0  0  0  0  0  0
   -3.1670   23.4860  -31.2270 O   0  0  0  0  0  0  0  0  0  0  0  0
   -5.4010   22.7980  -31.1640 N   0  0  0  0  0  0  0  0  0  0  0  0
   -6.0990   23.8920  -30.7490 C   0  0  0  0  0  0  0  0  0  0  0  0
   -5.5150   25.1420  -30.2220 C   0  0  0  0  0  0  0  0  0  0  0  0
   -4.2900   25.6610  -30.7410 N   0  0  0  0  0  0  0  0  0  0  0  0
   -6.1340   25.7890  -29.3370 O   0  0  0  0  0  0  0  0  0  0  0  0
   -7.4660   23.7070  -30.9400 C   0  0  0  0  0  0  0  0  0  0  0  0
   -7.5870   22.4580  -31.5050 C   0  0  0  0  0  0  0  0  0  0  0  0
   -8.7260   21.7580  -31.8880 C   0  0  0  0  0  0  0  0  0  0  0  0
   -8.5610   20.4640  -32.4100 C   0  0  0  0  0  0  0  0  0  0  0  0
   -7.2700   19.8910  -32.5340 C   0  0  0  0  0  0  0  0  0  0  0  0
   -7.1190   18.4820  -33.0780 C   0  0  2  0  0  0  0  0  0  0  0  0
   -6.6530   17.4960  -32.0120 C   0  0  0  0  0  0  0  0  0  0  0  0
   -5.5810   16.6720  -32.6980 C   0  0  0  0  0  0  0  0  0  0  0  0
   -5.0080   17.4920  -33.7610 N   0  0  0  0  0  0  0  0  0  0  0  0
   -6.0810   18.3830  -34.2040 C   0  0  0  0  0  0  0  0  0  0  0  0
   -6.1360   20.6350  -32.1250 C   0  0  0  0  0  0  0  0  0  0  0  0
   -6.3290   21.9290  -31.6290 C   0  0  0  0  0  0  0  0  0  0  0  0
   -3.3219   21.8787  -33.0294 H   0  0  0  0  0  0  0  0  0  0  0  0
   -1.9746   20.8019  -33.5314 H   0  0  0  0  0  0  0  0  0  0  0  0
   -3.6628   20.1880  -33.5314 H   0  0  0  0  0  0  0  0  0  0  0  0
   -3.1496   19.3521  -31.4799 H   0  0  0  0  0  0  0  0  0  0  0  0
   -1.7115   20.4286  -31.3096 H   0  0  0  0  0  0  0  0  0  0  0  0
   -3.8670   26.5210  -30.3270 H   0  0  0  0  0  0  0  0  0  0  0  0
   -3.8410   25.2400  -31.5840 H   0  0  0  0  0  0  0  0  0  0  0  0
   -8.2758   24.4090  -30.6923 H   0  0  0  0  0  0  0  0  0  0  0  0
   -9.7262   22.2041  -31.7853 H   0  0  0  0  0  0  0  0  0  0  0  0
   -9.4437   19.8888  -32.7262 H   0  0  0  0  0  0  0  0  0  0  0  0
   -8.1252   18.2343  -33.4471 H   0  0  0  0  0  0  0  0  0  0  0  0
   -6.2374   18.0294  -31.1444 H   0  0  0  0  0  0  0  0  0  0  0  0
   -7.4761   16.8750  -31.6289 H   0  0  0  0  0  0  0  0  0  0  0  0
   -4.7997   16.3958  -31.9746 H   0  0  0  0  0  0  0  0  0  0  0  0
   -6.0096   15.7471  -33.1115 H   0  0  0  0  0  0  0  0  0  0  0  0
   -4.2550   18.0840  -33.3350 H   0  0  0  0  0  0  0  0  0  0  0  0
   -5.6709   19.3804  -34.4209 H   0  0  0  0  0  0  0  0  0  0  0  0
   -6.5489   17.9884  -35.1180 H   0  0  0  0  0  0  0  0  0  0  0  0
   -5.1260   20.2049  -32.1958 H   0  0  0  0  0  0  0  0  0  0  0  0
  1  2  1  0
  2  3  1  0
  3  4  1  0
  4  5  2  0
  4  6  1  0
  6  7  1  0
  7  8  1  0
  8  9  1  0
  8 10  2  0
  7 11  2  0
 11 12  1  0
 12 13  2  0
 13 14  1  0
 14 15  2  0
 15 16  1  0
 16 17  1  0
 17 18  1  0
 18 19  1  0
 19 20  1  0
 15 21  1  0
 21 22  2  0
 22  6  1  0
 22 12  1  0
 20 16  1  0
  1 23  1  0
  1 24  1  0
  1 25  1  0
  2 26  1  0
  2 27  1  0
  9 28  1  0
  9 29  1  0
 11 30  1  0
 13 31  1  0
 14 32  1  0
 16 33  1  6
 17 34  1  0
 17 35  1  0
 18 36  1  0
 18 37  1  0
 19 38  1  0
 20 39  1  0
 20 40  1  0
 21 41  1  0
M  CHG  1   3  -1
M  END
>  <UniqueID>  (92) 
91

>  <SMILES>  (92) 
CC[N-]C(=O)n1c(C(N)=O)cc2ccc([C@@H]3CCNC3)cc21

>  <Energy>  (92) 
78.52523697639046

>  <Genealogy>  (92) 
CC[N-]C(=O)n1c(C(N)=O)cc2ccc(C3CCNC3)cc21 (protonated)
CC[N-]C(=O)n1c(C(N)=O)cc2ccc([C@@H]3CCNC3)cc21 (chirality)
CC[N-]C(=O)n1c(C(N)=O)cc2ccc([C@@H]3CCNC3)cc21 (3D coordinates assigned)
CC[N-]C(=O)n1c(C(N)=O)cc2ccc([C@@H]3CCNC3)cc21 (nonaromatic ring conformer: 78.52523697639046 kcal/mol)

>  <smiles>  (92) 
CCNC(=O)n1c(C(N)=O)cc2ccc(C3CCNC3)cc21

>  <score_type>  (92) 
oracle

>  <origin>  (92) 
adg

>  <m_score__min__energy>  (92) 
-9.7300000000000004

>  <m_primary>  (92) 
energy

$$$$
92:0
     RDKit          3D

 31 32  0  0  0  0  0  0  0  0999 V2000
   -5.9100   18.4470  -34.2070 C   0  0  0  0  0  0  0  0  0  0  0  0
   -6.9130   18.5120  -33.0490 C   0  0  0  0  0  0  0  0  0  0  0  0
   -6.5310   17.5310  -31.9330 C   0  0  0  0  0  0  0  0  0  0  0  0
   -7.0390   19.9250  -32.5140 C   0  0  0  0  0  0  0  0  0  0  0  0
   -8.3270   20.4910  -32.3170 C   0  0  0  0  0  0  0  0  0  0  0  0
   -8.4690   21.8020  -31.8340 C   0  0  0  0  0  0  0  0  0  0  0  0
   -7.3140   22.5230  -31.5510 C   0  0  0  0  0  0  0  0  0  0  0  0
   -7.1650   23.8130  -31.0960 C   0  0  0  0  0  0  0  0  0  0  0  0
   -5.7890   24.0150  -31.0000 C   0  0  0  0  0  0  0  0  0  0  0  0
   -5.1840   25.2500  -30.4590 C   0  0  0  0  0  0  0  0  0  0  0  0
   -3.8660   25.6250  -30.8520 N   0  0  0  0  0  0  0  0  0  0  0  0
   -5.8330   25.9980  -29.6830 O   0  0  0  0  0  0  0  0  0  0  0  0
   -5.1140   22.8960  -31.3890 N   0  0  0  0  0  0  0  0  0  0  0  0
   -3.6930   22.7190  -31.5040 C   0  0  0  0  0  0  0  0  0  0  0  0
   -2.8290   23.1320  -30.4480 N   0  0  0  0  0  0  0  0  0  0  0  0
   -3.2000   22.2260  -32.5540 O   0  0  0  0  0  0  0  0  0  0  0  0
   -6.0630   21.9910  -31.7200 C   0  0  0  0  0  0  0  0  0  0  0  0
   -5.8890   20.6940  -32.2150 C   0  0  0  0  0  0  0  0  0  0  0  0
   -4.8886   18.3808  -33.8041 H   0  0  0  0  0  0  0  0  0  0  0  0
   -6.1190   17.5605  -34.8238 H   0  0  0  0  0  0  0  0  0  0  0  0
   -6.0029   19.3530  -34.8238 H   0  0  0  0  0  0  0  0  0  0  0  0
   -7.8968   18.2119  -33.4390 H   0  0  0  0  0  0  0  0  0  0  0  0
   -6.7134   17.9995  -30.9546 H   0  0  0  0  0  0  0  0  0  0  0  0
   -7.1398   16.6192  -32.0221 H   0  0  0  0  0  0  0  0  0  0  0  0
   -5.4659   17.2710  -32.0221 H   0  0  0  0  0  0  0  0  0  0  0  0
   -9.2233   19.8956  -32.5454 H   0  0  0  0  0  0  0  0  0  0  0  0
   -9.4644   22.2455  -31.6840 H   0  0  0  0  0  0  0  0  0  0  0  0
   -7.9625   24.5324  -30.8584 H   0  0  0  0  0  0  0  0  0  0  0  0
   -3.0320   25.2890  -30.3210 H   0  0  0  0  0  0  0  0  0  0  0  0
   -2.4110   24.0880  -30.4410 H   0  0  0  0  0  0  0  0  0  0  0  0
   -4.8810   20.2812  -32.3684 H   0  0  0  0  0  0  0  0  0  0  0  0
  1  2  1  0
  2  3  1  0
  2  4  1  0
  4  5  2  0
  5  6  1  0
  6  7  2  0
  7  8  1  0
  8  9  2  0
  9 10  1  0
 10 11  1  0
 10 12  2  0
  9 13  1  0
 13 14  1  0
 14 15  1  0
 14 16  2  0
 13 17  1  0
 17 18  2  0
 18  4  1  0
 17  7  1  0
  1 19  1  0
  1 20  1  0
  1 21  1  0
  2 22  1  0
  3 23  1  0
  3 24  1  0
  3 25  1  0
  5 26  1  0
  6 27  1  0
  8 28  1  0
 11 29  1  0
 15 30  1  0
 18 31  1  0
M  CHG  2  11  -1  15  -1
M  END
>  <UniqueID>  (93) 
92

>  <SMILES>  (93) 
CC(C)c1ccc2cc(C([NH-])=O)n(C([NH-])=O)c2c1

>  <Energy>  (93) 
66.5459421559932

>  <Genealogy>  (93) 
CC(C)c1ccc2cc(C([NH-])=O)n(C([NH-])=O)c2c1 (protonated)
CC(C)c1ccc2cc(C([NH-])=O)n(C([NH-])=O)c2c1 (3D coordinates assigned)
CC(C)c1ccc2cc(C([NH-])=O)n(C([NH-])=O)c2c1 (optimized conformer: 66.5459421559932 kcal/mol)

>  <smiles>  (93) 
CC(C)c1ccc2cc(C(N)=O)n(C(N)=O)c2c1

>  <score_type>  (93) 
oracle

>  <origin>  (93) 
adg

>  <m_score__min__energy>  (93) 
-10.390000000000001

>  <m_primary>  (93) 
energy

$$$$
93:0
     RDKit          3D

 30 31  0  0  0  0  0  0  0  0999 V2000
   -3.2410   23.6680  -30.8500 N   0  0  0  0  0  0  0  0  0  0  0  0
   -4.0190   22.6610  -31.4900 C   0  0  0  0  0  0  0  0  0  0  0  0
   -3.4390   21.7070  -32.0750 O   0  0  0  0  0  0  0  0  0  0  0  0
   -5.4560   22.7230  -31.4610 N   0  0  0  0  0  0  0  0  0  0  0  0
   -6.2290   23.7260  -30.9590 C   0  0  0  0  0  0  0  0  0  0  0  0
   -5.7440   25.0360  -30.4800 C   0  0  0  0  0  0  0  0  0  0  0  0
   -6.1340   25.5480  -29.2050 N   0  0  0  0  0  0  0  0  0  0  0  0
   -4.9290   25.6900  -31.1830 O   0  0  0  0  0  0  0  0  0  0  0  0
   -7.5750   23.3750  -30.9930 C   0  0  0  0  0  0  0  0  0  0  0  0
   -7.6090   22.1170  -31.5470 C   0  0  0  0  0  0  0  0  0  0  0  0
   -8.6930   21.2830  -31.8060 C   0  0  0  0  0  0  0  0  0  0  0  0
   -8.4330   20.0150  -32.3500 C   0  0  0  0  0  0  0  0  0  0  0  0
   -7.1030   19.5980  -32.6050 C   0  0  0  0  0  0  0  0  0  0  0  0
   -6.8410   18.2400  -33.2040 C   0  0  0  0  0  0  0  0  0  0  0  0
   -5.6770   18.2890  -34.2000 C   0  0  0  0  0  0  0  0  0  0  0  0
   -6.1130   18.7290  -35.4580 O   0  0  0  0  0  0  0  0  0  0  0  0
   -6.0290   20.4740  -32.3370 C   0  0  0  0  0  0  0  0  0  0  0  0
   -6.3170   21.7420  -31.8180 C   0  0  0  0  0  0  0  0  0  0  0  0
   -3.1620   24.6250  -31.2580 H   0  0  0  0  0  0  0  0  0  0  0  0
   -6.6630   24.9590  -28.5250 H   0  0  0  0  0  0  0  0  0  0  0  0
   -5.8140   26.4940  -28.9010 H   0  0  0  0  0  0  0  0  0  0  0  0
   -8.4300   23.9760  -30.6497 H   0  0  0  0  0  0  0  0  0  0  0  0
   -9.7218   21.6074  -31.5910 H   0  0  0  0  0  0  0  0  0  0  0  0
   -9.2696   19.3390  -32.5804 H   0  0  0  0  0  0  0  0  0  0  0  0
   -6.5939   17.5338  -32.3977 H   0  0  0  0  0  0  0  0  0  0  0  0
   -7.7450   17.9154  -33.7402 H   0  0  0  0  0  0  0  0  0  0  0  0
   -4.9092   18.9805  -33.8228 H   0  0  0  0  0  0  0  0  0  0  0  0
   -5.2626   17.2756  -34.3064 H   0  0  0  0  0  0  0  0  0  0  0  0
   -6.8910   19.3250  -35.2970 H   0  0  0  0  0  0  0  0  0  0  0  0
   -4.9905   20.1677  -32.5313 H   0  0  0  0  0  0  0  0  0  0  0  0
  1  2  1  0
  2  3  2  0
  2  4  1  0
  4  5  1  0
  5  6  1  0
  6  7  1  0
  6  8  2  0
  5  9  2  0
  9 10  1  0
 10 11  2  0
 11 12  1  0
 12 13  2  0
 13 14  1  0
 14 15  1  0
 15 16  1  0
 13 17  1  0
 17 18  2  0
 18  4  1  0
 18 10  1  0
  1 19  1  0
  7 20  1  0
  7 21  1  0
  9 22  1  0
 11 23  1  0
 12 24  1  0
 14 25  1  0
 14 26  1  0
 15 27  1  0
 15 28  1  0
 16 29  1  0
 17 30  1  0
M  CHG  1   1  -1
M  END
>  <UniqueID>  (94) 
93

>  <SMILES>  (94) 
[NH-]C(=O)n1c(C(N)=O)cc2ccc(CCO)cc21

>  <Energy>  (94) 
67.14110265991968

>  <Genealogy>  (94) 
[NH-]C(=O)n1c(C(N)=O)cc2ccc(CCO)cc21 (protonated)
[NH-]C(=O)n1c(C(N)=O)cc2ccc(CCO)cc21 (3D coordinates assigned)
[NH-]C(=O)n1c(C(N)=O)cc2ccc(CCO)cc21 (optimized conformer: 67.14110265991968 kcal/mol)

>  <smiles>  (94) 
NC(=O)c1cc2ccc(CCO)cc2n1C(N)=O

>  <score_type>  (94) 
oracle

>  <origin>  (94) 
adg

>  <m_score__min__energy>  (94) 
-8.5600000000000005

>  <m_primary>  (94) 
energy

$$$$
94:0
     RDKit          3D

 41 43  0  0  0  0  0  0  0  0999 V2000
   -3.7720   21.9000  -33.1700 C   0  0  0  0  0  0  0  0  0  0  0  0
   -3.9980   22.6630  -31.9020 C   0  0  0  0  0  0  0  0  0  0  0  0
   -3.0040   23.0610  -31.2370 O   0  0  0  0  0  0  0  0  0  0  0  0
   -5.3240   23.0140  -31.4810 N   0  0  0  0  0  0  0  0  0  0  0  0
   -5.7260   24.1210  -30.7950 C   0  0  0  0  0  0  0  0  0  0  0  0
   -4.8840   25.2900  -30.4660 C   0  0  0  0  0  0  0  0  0  0  0  0
   -3.5180   25.1280  -30.0970 N   0  0  0  0  0  0  0  0  0  0  0  0
   -5.3660   26.4510  -30.5500 O   0  0  0  0  0  0  0  0  0  0  0  0
   -7.0870   24.0450  -30.5020 C   0  0  0  0  0  0  0  0  0  0  0  0
   -7.5100   22.8530  -31.0460 C   0  0  0  0  0  0  0  0  0  0  0  0
   -8.7720   22.2680  -31.0510 C   0  0  0  0  0  0  0  0  0  0  0  0
   -8.9170   21.0170  -31.6740 C   0  0  0  0  0  0  0  0  0  0  0  0
   -7.8020   20.3700  -32.2770 C   0  0  0  0  0  0  0  0  0  0  0  0
   -7.9230   19.0850  -32.9170 N   0  0  0  0  0  0  0  0  0  0  0  0
   -7.3720   17.8370  -32.3670 C   0  0  2  0  0  0  0  0  0  0  0  0
   -6.1200   18.1020  -31.5530 C   0  0  0  0  0  0  0  0  0  0  0  0
   -4.9960   18.0550  -32.5710 C   0  0  0  0  0  0  0  0  0  0  0  0
   -5.4360   17.1940  -33.6830 N   0  0  0  0  0  0  0  0  0  0  0  0
   -5.1740   17.8270  -34.9860 C   0  0  0  0  0  0  0  0  0  0  0  0
   -6.8730   16.9320  -33.4900 C   0  0  0  0  0  0  0  0  0  0  0  0
   -6.5380   21.0020  -32.2470 C   0  0  0  0  0  0  0  0  0  0  0  0
   -6.4290   22.2530  -31.6310 C   0  0  0  0  0  0  0  0  0  0  0  0
   -3.4672   20.8709  -32.9293 H   0  0  0  0  0  0  0  0  0  0  0  0
   -4.7025   21.8792  -33.7562 H   0  0  0  0  0  0  0  0  0  0  0  0
   -2.9802   22.3893  -33.7562 H   0  0  0  0  0  0  0  0  0  0  0  0
   -2.7550   25.2170  -30.8040 H   0  0  0  0  0  0  0  0  0  0  0  0
   -7.6935   24.7805  -29.9532 H   0  0  0  0  0  0  0  0  0  0  0  0
   -9.6308   22.7698  -30.5813 H   0  0  0  0  0  0  0  0  0  0  0  0
   -9.9040   20.5319  -31.6959 H   0  0  0  0  0  0  0  0  0  0  0  0
   -8.4290   19.0470  -33.8320 H   0  0  0  0  0  0  0  0  0  0  0  0
   -8.1810   17.3896  -31.7710 H   0  0  0  0  0  0  0  0  0  0  0  0
   -6.1694   19.0901  -31.0721 H   0  0  0  0  0  0  0  0  0  0  0  0
   -5.9834   17.3723  -30.7412 H   0  0  0  0  0  0  0  0  0  0  0  0
   -4.7843   19.0684  -32.9427 H   0  0  0  0  0  0  0  0  0  0  0  0
   -4.0782   17.6562  -32.1142 H   0  0  0  0  0  0  0  0  0  0  0  0
   -4.7577   18.8328  -34.8279 H   0  0  0  0  0  0  0  0  0  0  0  0
   -4.4544   17.2171  -35.5519 H   0  0  0  0  0  0  0  0  0  0  0  0
   -6.1141   17.9041  -35.5519 H   0  0  0  0  0  0  0  0  0  0  0  0
   -7.4204   17.1528  -34.4182 H   0  0  0  0  0  0  0  0  0  0  0  0
   -7.0368   15.8757  -33.2302 H   0  0  0  0  0  0  0  0  0  0  0  0
   -5.6584   20.5200  -32.6987 H   0  0  0  0  0  0  0  0  0  0  0  0
  1  2  1  0
  2  3  2  0
  2  4  1  0
  4  5  1  0
  5  6  1  0
  6  7  1  0
  6  8  2  0
  5  9  2  0
  9 10  1  0
 10 11  2  0
 11 12  1  0
 12 13  2  0
 13 14  1  0
 14 15  1  0
 15 16  1  0
 16 17  1  0
 17 18  1  0
 18 19  1  0
 18 20  1  0
 13 21  1  0
 21 22  2  0
 22  4  1  0
 22 10  1  0
 20 15  1  0
  1 23  1  0
  1 24  1  0
  1 25  1  0
  7 26  1  0
  9 27  1  0
 11 28  1  0
 12 29  1  0
 14 30  1  0
 15 31  1  1
 16 32  1  0
 16 33  1  0
 17 34  1  0
 17 35  1  0
 19 36  1  0
 19 37  1  0
 19 38  1  0
 20 39  1  0
 20 40  1  0
 21 41  1  0
M  CHG  1   7  -1
M  END
>  <UniqueID>  (95) 
94

>  <SMILES>  (95) 
CC(=O)n1c(C([NH-])=O)cc2ccc(N[C@@H]3CCN(C)C3)cc21

>  <Energy>  (95) 
84.12003409793432

>  <Genealogy>  (95) 
CC(=O)n1c(C([NH-])=O)cc2ccc(N[C@@H]3CCN(C)C3)cc21 (protonated)
CC(=O)n1c(C([NH-])=O)cc2ccc(N[C@@H]3CCN(C)C3)cc21 (3D coordinates assigned)
CC(=O)n1c(C([NH-])=O)cc2ccc(N[C@@H]3CCN(C)C3)cc21 (nonaromatic ring conformer: 84.12003409793432 kcal/mol)

>  <smiles>  (95) 
CC(=O)n1c(C(N)=O)cc2ccc(N[C@@H]3CCN(C)C3)cc21

>  <score_type>  (95) 
oracle

>  <origin>  (95) 
adg

>  <m_score__min__energy>  (95) 
-11.33

>  <m_primary>  (95) 
energy

$$$$
95:0
     RDKit          3D

 46 48  0  0  0  0  0  0  0  0999 V2000
   -3.3750   21.9020  -32.6370 C   0  0  0  0  0  0  0  0  0  0  0  0
   -3.9900   22.7800  -31.5940 C   0  0  0  0  0  0  0  0  0  0  0  0
   -3.2430   23.4870  -30.8680 O   0  0  0  0  0  0  0  0  0  0  0  0
   -5.4180   22.8650  -31.4450 N   0  0  0  0  0  0  0  0  0  0  0  0
   -6.1390   23.8250  -30.8010 C   0  0  0  0  0  0  0  0  0  0  0  0
   -5.5880   25.0800  -30.2440 C   0  0  0  0  0  0  0  0  0  0  0  0
   -6.1510   25.6680  -29.0690 N   0  0  0  0  0  0  0  0  0  0  0  0
   -4.6300   25.6590  -30.8200 O   0  0  0  0  0  0  0  0  0  0  0  0
   -7.4980   23.5110  -30.8250 C   0  0  0  0  0  0  0  0  0  0  0  0
   -7.5840   22.3220  -31.5140 C   0  0  0  0  0  0  0  0  0  0  0  0
   -8.6960   21.5510  -31.8350 C   0  0  0  0  0  0  0  0  0  0  0  0
   -8.4890   20.3550  -32.5430 C   0  0  0  0  0  0  0  0  0  0  0  0
   -7.1770   19.9470  -32.9100 C   0  0  0  0  0  0  0  0  0  0  0  0
   -6.9360   18.7210  -33.6270 N   0  0  0  0  0  0  0  0  0  0  0  0
   -7.1930   17.3800  -33.0950 C   0  0  0  0  0  0  0  0  0  0  0  0
   -6.0750   16.3960  -33.4790 C   0  0  2  0  0  0  0  0  0  0  0  0
   -5.1360   16.1250  -32.2750 C   0  0  0  0  0  0  0  0  0  0  0  0
   -4.0640   15.1600  -32.6180 N   0  0  0  0  0  0  0  0  0  0  0  0
   -4.3610   13.8170  -32.0920 C   0  0  0  0  0  0  0  0  0  0  0  0
   -3.7940   15.0950  -34.0710 C   0  0  0  0  0  0  0  0  0  0  0  0
   -4.0460   16.4580  -34.7350 C   0  0  0  0  0  0  0  0  0  0  0  0
   -5.3830   16.9230  -34.6050 O   0  0  0  0  0  0  0  0  0  0  0  0
   -6.0760   20.7660  -32.5740 C   0  0  0  0  0  0  0  0  0  0  0  0
   -6.3170   21.9550  -31.8790 C   0  0  0  0  0  0  0  0  0  0  0  0
   -2.8093   21.0944  -32.1494 H   0  0  0  0  0  0  0  0  0  0  0  0
   -4.1673   21.4677  -33.2644 H   0  0  0  0  0  0  0  0  0  0  0  0
   -2.6961   22.4982  -33.2644 H   0  0  0  0  0  0  0  0  0  0  0  0
   -5.7780   26.5730  -28.7070 H   0  0  0  0  0  0  0  0  0  0  0  0
   -6.9070   25.1900  -28.5320 H   0  0  0  0  0  0  0  0  0  0  0  0
   -8.3245   24.0898  -30.3870 H   0  0  0  0  0  0  0  0  0  0  0  0
   -9.7081   21.8682  -31.5432 H   0  0  0  0  0  0  0  0  0  0  0  0
   -9.3505   19.7280  -32.8161 H   0  0  0  0  0  0  0  0  0  0  0  0
   -6.5200   18.7790  -34.5840 H   0  0  0  0  0  0  0  0  0  0  0  0
   -7.2575   17.4371  -31.9984 H   0  0  0  0  0  0  0  0  0  0  0  0
   -8.1370   17.0138  -33.5249 H   0  0  0  0  0  0  0  0  0  0  0  0
   -6.5015   15.4198  -33.7532 H   0  0  0  0  0  0  0  0  0  0  0  0
   -4.6745   17.0735  -31.9630 H   0  0  0  0  0  0  0  0  0  0  0  0
   -5.7383   15.6919  -31.4628 H   0  0  0  0  0  0  0  0  0  0  0  0
   -4.3550   13.8443  -30.9924 H   0  0  0  0  0  0  0  0  0  0  0  0
   -5.3519   13.4957  -32.4454 H   0  0  0  0  0  0  0  0  0  0  0  0
   -3.5980   13.1078  -32.4454 H   0  0  0  0  0  0  0  0  0  0  0  0
   -2.7449   14.8049  -34.2301 H   0  0  0  0  0  0  0  0  0  0  0  0
   -4.4694   14.3531  -34.5220 H   0  0  0  0  0  0  0  0  0  0  0  0
   -3.3755   17.1976  -34.2731 H   0  0  0  0  0  0  0  0  0  0  0  0
   -3.8555   16.3295  -35.8107 H   0  0  0  0  0  0  0  0  0  0  0  0
   -5.0525   20.4749  -32.8528 H   0  0  0  0  0  0  0  0  0  0  0  0
  1  2  1  0
  2  3  2  0
  2  4  1  0
  4  5  1  0
  5  6  1  0
  6  7  1  0
  6  8  2  0
  5  9  2  0
  9 10  1  0
 10 11  2  0
 11 12  1  0
 12 13  2  0
 13 14  1  0
 14 15  1  0
 15 16  1  0
 16 17  1  0
 17 18  1  0
 18 19  1  0
 18 20  1  0
 20 21  1  0
 21 22  1  0
 13 23  1  0
 23 24  2  0
 24  4  1  0
 24 10  1  0
 22 16  1  0
  1 25  1  0
  1 26  1  0
  1 27  1  0
  7 28  1  0
  7 29  1  0
  9 30  1  0
 11 31  1  0
 12 32  1  0
 14 33  1  0
 15 34  1  0
 15 35  1  0
 16 36  1  6
 17 37  1  0
 17 38  1  0
 19 39  1  0
 19 40  1  0
 19 41  1  0
 20 42  1  0
 20 43  1  0
 21 44  1  0
 21 45  1  0
 23 46  1  0
M  END
>  <UniqueID>  (96) 
95

>  <SMILES>  (96) 
CC(=O)n1c(C(N)=O)cc2ccc(NC[C@@H]3CN(C)CCO3)cc21

>  <Energy>  (96) 
97.13098000979564

>  <Genealogy>  (96) 
CC(=O)n1c(C(N)=O)cc2ccc(NC[C@@H]3CN(C)CCO3)cc21 (chirality)
CC(=O)n1c(C(N)=O)cc2ccc(NC[C@@H]3CN(C)CCO3)cc21 (3D coordinates assigned)
CC(=O)n1c(C(N)=O)cc2ccc(NC[C@@H]3CN(C)CCO3)cc21 (nonaromatic ring conformer: 97.13098000979564 kcal/mol)

>  <smiles>  (96) 
CC(=O)n1c(C(N)=O)cc2ccc(NCC3CN(C)CCO3)cc21

>  <score_type>  (96) 
oracle

>  <origin>  (96) 
adg

>  <m_score__min__energy>  (96) 
-9.25

>  <m_primary>  (96) 
energy

$$$$
96:0
     RDKit          3D

 30 31  0  0  0  0  0  0  0  0999 V2000
   -8.4250   21.9510  -31.0130 C   0  0  0  0  0  0  0  0  0  0  0  0
   -8.6010   21.0720  -32.1170 O   0  0  0  0  0  0  0  0  0  0  0  0
   -7.6780   20.0710  -32.4370 C   0  0  0  0  0  0  0  0  0  0  0  0
   -7.7660   18.9250  -31.9150 O   0  0  0  0  0  0  0  0  0  0  0  0
   -6.6100   20.3510  -33.4430 C   0  0  0  0  0  0  0  0  0  0  0  0
   -5.3200   20.6790  -32.7440 C   0  0  0  0  0  0  0  0  0  0  0  0
   -4.2540   19.7440  -32.7460 C   0  0  0  0  0  0  0  0  0  0  0  0
   -3.0530   20.0290  -32.0780 C   0  0  0  0  0  0  0  0  0  0  0  0
   -2.9510   21.2440  -31.4060 C   0  0  0  0  0  0  0  0  0  0  0  0
   -1.8990   21.7800  -30.7010 C   0  0  0  0  0  0  0  0  0  0  0  0
   -2.3500   23.0170  -30.2460 C   0  0  0  0  0  0  0  0  0  0  0  0
   -1.5540   23.8960  -29.3640 C   0  0  0  0  0  0  0  0  0  0  0  0
   -1.8000   25.2980  -29.3090 N   0  0  0  0  0  0  0  0  0  0  0  0
   -0.6750   23.3940  -28.6130 O   0  0  0  0  0  0  0  0  0  0  0  0
   -3.6290   23.2440  -30.6620 N   0  0  0  0  0  0  0  0  0  0  0  0
   -4.4210   24.4280  -30.4780 C   0  0  0  0  0  0  0  0  0  0  0  0
   -5.5650   24.3530  -29.9580 O   0  0  0  0  0  0  0  0  0  0  0  0
   -3.9220   25.6700  -30.8470 O   0  0  0  0  0  0  0  0  0  0  0  0
   -3.9840   22.1460  -31.3690 C   0  0  0  0  0  0  0  0  0  0  0  0
   -5.1850   21.8970  -32.0410 C   0  0  0  0  0  0  0  0  0  0  0  0
   -8.5377   21.3882  -30.0746 H   0  0  0  0  0  0  0  0  0  0  0  0
   -7.4199   22.3960  -31.0552 H   0  0  0  0  0  0  0  0  0  0  0  0
   -9.1813   22.7487  -31.0552 H   0  0  0  0  0  0  0  0  0  0  0  0
   -6.4655   19.4642  -34.0775 H   0  0  0  0  0  0  0  0  0  0  0  0
   -6.9131   21.2074  -34.0632 H   0  0  0  0  0  0  0  0  0  0  0  0
   -4.3693   18.7869  -33.2757 H   0  0  0  0  0  0  0  0  0  0  0  0
   -2.2173   19.3138  -32.0852 H   0  0  0  0  0  0  0  0  0  0  0  0
   -0.9106   21.3277  -30.5321 H   0  0  0  0  0  0  0  0  0  0  0  0
   -2.7740   25.6740  -29.3190 H   0  0  0  0  0  0  0  0  0  0  0  0
   -6.0040   22.6311  -32.0226 H   0  0  0  0  0  0  0  0  0  0  0  0
  1  2  1  0
  2  3  1  0
  3  4  2  0
  3  5  1  0
  5  6  1  0
  6  7  2  0
  7  8  1  0
  8  9  2  0
  9 10  1  0
 10 11  2  0
 11 12  1  0
 12 13  1  0
 12 14  2  0
 11 15  1  0
 15 16  1  0
 16 17  2  0
 16 18  1  0
 15 19  1  0
 19 20  2  0
 20  6  1  0
 19  9  1  0
  1 21  1  0
  1 22  1  0
  1 23  1  0
  5 24  1  0
  5 25  1  0
  7 26  1  0
  8 27  1  0
 10 28  1  0
 13 29  1  0
 20 30  1  0
M  CHG  2  13  -1  18  -1
M  END
>  <UniqueID>  (97) 
96

>  <SMILES>  (97) 
COC(=O)Cc1ccc2cc(C([NH-])=O)n(C(=O)[O-])c2c1

>  <Energy>  (97) 
66.13641193287799

>  <Genealogy>  (97) 
COC(=O)Cc1ccc2cc(C([NH-])=O)n(C(=O)[O-])c2c1 (protonated)
COC(=O)Cc1ccc2cc(C([NH-])=O)n(C(=O)[O-])c2c1 (3D coordinates assigned)
COC(=O)Cc1ccc2cc(C([NH-])=O)n(C(=O)[O-])c2c1 (optimized conformer: 66.13641193287799 kcal/mol)

>  <smiles>  (97) 
COC(=O)Cc1ccc2cc(C(N)=O)n(C(=O)O)c2c1

>  <score_type>  (97) 
oracle

>  <origin>  (97) 
adg

>  <m_score__min__energy>  (97) 
-10.07

>  <m_primary>  (97) 
energy

$$$$
97:0
     RDKit          3D

 53 56  0  0  0  0  0  0  0  0999 V2000
   -3.1470   22.8520  -28.9850 C   0  0  0  0  0  0  0  0  0  0  0  0
   -2.7600   23.1470  -30.3210 O   0  0  0  0  0  0  0  0  0  0  0  0
   -3.5020   22.7280  -31.4310 C   0  0  0  0  0  0  0  0  0  0  0  0
   -2.9160   22.2780  -32.4530 O   0  0  0  0  0  0  0  0  0  0  0  0
   -4.9350   22.8340  -31.4140 N   0  0  0  0  0  0  0  0  0  0  0  0
   -5.6860   23.9150  -31.0590 C   0  0  0  0  0  0  0  0  0  0  0  0
   -5.1770   25.1680  -30.4630 C   0  0  0  0  0  0  0  0  0  0  0  0
   -3.8980   25.6670  -30.8470 N   0  0  0  0  0  0  0  0  0  0  0  0
   -5.8750   25.8230  -29.6450 O   0  0  0  0  0  0  0  0  0  0  0  0
   -7.0410   23.6540  -31.2560 C   0  0  0  0  0  0  0  0  0  0  0  0
   -7.0980   22.3680  -31.7400 C   0  0  0  0  0  0  0  0  0  0  0  0
   -8.1950   21.6050  -32.1240 C   0  0  0  0  0  0  0  0  0  0  0  0
   -7.9590   20.3130  -32.6210 C   0  0  0  0  0  0  0  0  0  0  0  0
   -6.6370   19.8070  -32.7260 C   0  0  0  0  0  0  0  0  0  0  0  0
   -6.4030   18.4900  -33.2600 N   0  0  0  0  0  0  0  0  0  0  0  0
   -6.8370   17.2900  -32.5350 C   0  0  0  0  0  0  0  0  0  0  0  0
   -5.6860   16.2680  -32.4220 C   0  0  0  0  0  0  0  0  0  0  0  0
   -4.6090   16.4750  -33.4270 N   0  0  0  0  0  0  0  0  0  0  0  0
   -3.8220   15.2290  -33.5830 C   0  0  0  0  0  0  0  0  0  0  0  0
   -4.5490   14.0220  -33.0350 C   0  0  0  0  0  0  0  0  0  0  0  0
   -4.3030   13.5870  -31.7220 C   0  0  0  0  0  0  0  0  0  0  0  0
   -4.9640   12.4630  -31.2160 C   0  0  0  0  0  0  0  0  0  0  0  0
   -5.8730   11.7670  -32.0170 C   0  0  0  0  0  0  0  0  0  0  0  0
   -6.1240   12.1930  -33.3240 C   0  0  0  0  0  0  0  0  0  0  0  0
   -5.4660   13.3170  -33.8330 C   0  0  0  0  0  0  0  0  0  0  0  0
   -5.1710   16.9230  -34.7230 C   0  0  0  0  0  0  0  0  0  0  0  0
   -5.7790   18.3270  -34.5790 C   0  0  0  0  0  0  0  0  0  0  0  0
   -5.5480   20.6180  -32.3330 C   0  0  0  0  0  0  0  0  0  0  0  0
   -5.8150   21.8940  -31.8250 C   0  0  0  0  0  0  0  0  0  0  0  0
   -2.4718   23.3667  -28.2855 H   0  0  0  0  0  0  0  0  0  0  0  0
   -4.1788   23.1948  -28.8179 H   0  0  0  0  0  0  0  0  0  0  0  0
   -3.0898   21.7663  -28.8179 H   0  0  0  0  0  0  0  0  0  0  0  0
   -3.0220   25.2710  -30.4360 H   0  0  0  0  0  0  0  0  0  0  0  0
   -7.8854   24.3326  -31.0649 H   0  0  0  0  0  0  0  0  0  0  0  0
   -9.2176   22.0017  -32.0410 H   0  0  0  0  0  0  0  0  0  0  0  0
   -8.8078   19.6863  -32.9323 H   0  0  0  0  0  0  0  0  0  0  0  0
   -7.1633   17.5780  -31.5248 H   0  0  0  0  0  0  0  0  0  0  0  0
   -7.6661   16.8255  -33.0889 H   0  0  0  0  0  0  0  0  0  0  0  0
   -5.2453   16.3493  -31.4174 H   0  0  0  0  0  0  0  0  0  0  0  0
   -6.1166   15.2732  -32.6089 H   0  0  0  0  0  0  0  0  0  0  0  0
   -3.9730   17.2240  -33.0610 H   0  0  0  0  0  0  0  0  0  0  0  0
   -3.6231   15.0672  -34.6527 H   0  0  0  0  0  0  0  0  0  0  0  0
   -2.8872   15.3467  -33.0153 H   0  0  0  0  0  0  0  0  0  0  0  0
   -3.5875   14.1327  -31.0892 H   0  0  0  0  0  0  0  0  0  0  0  0
   -4.7682   12.1268  -30.1871 H   0  0  0  0  0  0  0  0  0  0  0  0
   -6.3917   10.8827  -31.6183 H   0  0  0  0  0  0  0  0  0  0  0  0
   -6.8399   11.6436  -33.9531 H   0  0  0  0  0  0  0  0  0  0  0  0
   -5.6669   13.6505  -34.8618 H   0  0  0  0  0  0  0  0  0  0  0  0
   -4.3705   16.9490  -35.4770 H   0  0  0  0  0  0  0  0  0  0  0  0
   -5.9578   16.2208  -35.0358 H   0  0  0  0  0  0  0  0  0  0  0  0
   -4.9845   19.0784  -34.6978 H   0  0  0  0  0  0  0  0  0  0  0  0
   -6.5491   18.4598  -35.3532 H   0  0  0  0  0  0  0  0  0  0  0  0
   -4.5140   20.2541  -32.4245 H   0  0  0  0  0  0  0  0  0  0  0  0
  1  2  1  0
  2  3  1  0
  3  4  2  0
  3  5  1  0
  5  6  1  0
  6  7  1  0
  7  8  1  0
  7  9  2  0
  6 10  2  0
 10 11  1  0
 11 12  2  0
 12 13  1  0
 13 14  2  0
 14 15  1  0
 15 16  1  0
 16 17  1  0
 17 18  1  0
 18 19  1  0
 19 20  1  0
 20 21  2  0
 21 22  1  0
 22 23  2  0
 23 24  1  0
 24 25  2  0
 18 26  1  0
 26 27  1  0
 14 28  1  0
 28 29  2  0
 29  5  1  0
 29 11  1  0
 27 15  1  0
 25 20  1  0
  1 30  1  0
  1 31  1  0
  1 32  1  0
  8 33  1  0
 10 34  1  0
 12 35  1  0
 13 36  1  0
 16 37  1  0
 16 38  1  0
 17 39  1  0
 17 40  1  0
 18 41  1  0
 19 42  1  0
 19 43  1  0
 21 44  1  0
 22 45  1  0
 23 46  1  0
 24 47  1  0
 25 48  1  0
 26 49  1  0
 26 50  1  0
 27 51  1  0
 27 52  1  0
 28 53  1  0
M  CHG  2   8  -1  18   1
M  END
>  <UniqueID>  (98) 
97

>  <SMILES>  (98) 
COC(=O)n1c(C([NH-])=O)cc2ccc(N3CC[NH+](Cc4ccccc4)CC3)cc21

>  <Energy>  (98) 
104.11335274588617

>  <Genealogy>  (98) 
COC(=O)n1c(C([NH-])=O)cc2ccc(N3CC[NH+](Cc4ccccc4)CC3)cc21 (protonated)
COC(=O)n1c(C([NH-])=O)cc2ccc(N3CC[NH+](Cc4ccccc4)CC3)cc21 (3D coordinates assigned)
COC(=O)n1c(C([NH-])=O)cc2ccc(N3CC[NH+](Cc4ccccc4)CC3)cc21 (nonaromatic ring conformer: 104.11335274588617 kcal/mol)

>  <smiles>  (98) 
COC(=O)n1c(C(N)=O)cc2ccc(N3CCN(Cc4ccccc4)CC3)cc21

>  <score_type>  (98) 
oracle

>  <origin>  (98) 
adg

>  <m_score__min__energy>  (98) 
-10.49

>  <m_primary>  (98) 
energy

$$$$
