0:0
     RDKit          3D

 35 37  0  0  0  0  0  0  0  0999 V2000
   -4.8950   14.7780  -32.3940 C   0  0  0  0  0  0  0  0  0  0  0  0
   -5.4270   16.0520  -32.8620 N   0  0  0  0  0  0  0  0  0  0  0  0
   -5.6380   17.1460  -32.1060 C   0  0  0  0  0  0  0  0  0  0  0  0
   -6.0720   18.1700  -32.9360 C   0  0  0  0  0  0  0  0  0  0  0  0
   -6.4250   19.5610  -32.5510 C   0  0  0  0  0  0  0  0  0  0  0  0
   -7.7660   20.0190  -32.6580 C   0  0  0  0  0  0  0  0  0  0  0  0
   -8.1090   21.3350  -32.3080 C   0  0  0  0  0  0  0  0  0  0  0  0
   -7.0990   22.1720  -31.8450 C   0  0  0  0  0  0  0  0  0  0  0  0
   -7.1510   23.4910  -31.4620 C   0  0  0  0  0  0  0  0  0  0  0  0
   -5.8460   23.8240  -31.1020 C   0  0  0  0  0  0  0  0  0  0  0  0
   -5.4650   25.1380  -30.5450 C   0  0  0  0  0  0  0  0  0  0  0  0
   -4.1640   25.6650  -30.7990 N   0  0  0  0  0  0  0  0  0  0  0  0
   -6.2860   25.8190  -29.8760 O   0  0  0  0  0  0  0  0  0  0  0  0
   -5.0190   22.7520  -31.2650 N   0  0  0  0  0  0  0  0  0  0  0  0
   -3.5980   22.6920  -31.0600 C   0  0  0  0  0  0  0  0  0  0  0  0
   -2.8520   22.2600  -31.9810 O   0  0  0  0  0  0  0  0  0  0  0  0
   -3.0610   23.0930  -29.8290 O   0  0  0  0  0  0  0  0  0  0  0  0
   -1.8730   23.8170  -29.6680 C   0  0  0  0  0  0  0  0  0  0  0  0
   -0.7460   23.2720  -29.8120 O   0  0  0  0  0  0  0  0  0  0  0  0
   -1.9410   25.1650  -29.3430 O   0  0  0  0  0  0  0  0  0  0  0  0
   -5.8030   21.7470  -31.7170 C   0  0  0  0  0  0  0  0  0  0  0  0
   -5.4280   20.4480  -32.0770 C   0  0  0  0  0  0  0  0  0  0  0  0
   -6.0860   17.6160  -34.2100 C   0  0  0  0  0  0  0  0  0  0  0  0
   -5.6830   16.3350  -34.1270 N   0  0  0  0  0  0  0  0  0  0  0  0
   -4.8895   14.7648  -31.2941 H   0  0  0  0  0  0  0  0  0  0  0  0
   -5.5258   13.9579  -32.7674 H   0  0  0  0  0  0  0  0  0  0  0  0
   -3.8683   14.6500  -32.7674 H   0  0  0  0  0  0  0  0  0  0  0  0
   -5.4916   17.2160  -31.0180 H   0  0  0  0  0  0  0  0  0  0  0  0
   -8.5461   19.3332  -33.0200 H   0  0  0  0  0  0  0  0  0  0  0  0
   -9.1452   21.6932  -32.3973 H   0  0  0  0  0  0  0  0  0  0  0  0
   -8.0351   24.1453  -31.4435 H   0  0  0  0  0  0  0  0  0  0  0  0
   -3.3290   25.0400  -30.8320 H   0  0  0  0  0  0  0  0  0  0  0  0
   -4.3806   20.1225  -31.9936 H   0  0  0  0  0  0  0  0  0  0  0  0
   -6.3780   18.1380  -35.1332 H   0  0  0  0  0  0  0  0  0  0  0  0
   -5.5720   15.6700  -34.9250 H   0  0  0  0  0  0  0  0  0  0  0  0
  1  2  1  0
  2  3  1  0
  3  4  2  0
  4  5  1  0
  5  6  2  0
  6  7  1  0
  7  8  2  0
  8  9  1  0
  9 10  2  0
 10 11  1  0
 11 12  1  0
 11 13  2  0
 10 14  1  0
 14 15  1  0
 15 16  2  0
 15 17  1  0
 17 18  1  0
 18 19  2  0
 18 20  1  0
 14 21  1  0
 21 22  2  0
  4 23  1  0
 23 24  2  0
 24  2  1  0
 22  5  1  0
 21  8  1  0
  1 25  1  0
  1 26  1  0
  1 27  1  0
  3 28  1  0
  6 29  1  0
  7 30  1  0
  9 31  1  0
 12 32  1  0
 22 33  1  0
 23 34  1  0
 24 35  1  0
M  CHG  3  12  -1  20  -1  24   1
M  END
>  <UniqueID>  (1) 
1

>  <SMILES>  (1) 
Cn1cc(-c2ccc3cc(C([NH-])=O)n(C(=O)OC(=O)[O-])c3c2)c[nH+]1

>  <Energy>  (1) 
108.97664444088683

>  <Genealogy>  (1) 
Cn1cc(-c2ccc3cc(C([NH-])=O)n(C(=O)OC(=O)[O-])c3c2)c[nH+]1 (protonated)
Cn1cc(-c2ccc3cc(C([NH-])=O)n(C(=O)OC(=O)[O-])c3c2)c[nH+]1 (3D coordinates assigned)
Cn1cc(-c2ccc3cc(C([NH-])=O)n(C(=O)OC(=O)[O-])c3c2)c[nH+]1 (optimized conformer: 108.97664444088683 kcal/mol)

>  <smiles>  (1) 
Cn1cc(-c2ccc3cc(C(N)=O)n(C(=O)OC(=O)O)c3c2)cn1

>  <score_type>  (1) 
oracle

>  <origin>  (1) 
adg

>  <m_score__min__energy>  (1) 
-10.880000000000001

>  <m_primary>  (1) 
energy

$$$$
1:0
     RDKit          3D

 34 35  0  0  0  0  0  0  0  0999 V2000
   -3.9360   25.6720  -30.7610 N   0  0  0  0  0  0  0  0  0  0  0  0
   -5.2350   25.1600  -30.4690 C   0  0  0  0  0  0  0  0  0  0  0  0
   -6.0110   25.8290  -29.7360 O   0  0  0  0  0  0  0  0  0  0  0  0
   -5.6660   23.8710  -31.0490 C   0  0  0  0  0  0  0  0  0  0  0  0
   -6.9920   23.5600  -31.3430 C   0  0  0  0  0  0  0  0  0  0  0  0
   -6.9730   22.2530  -31.7770 C   0  0  0  0  0  0  0  0  0  0  0  0
   -8.0110   21.4360  -32.2120 C   0  0  0  0  0  0  0  0  0  0  0  0
   -7.6950   20.1300  -32.6230 C   0  0  0  0  0  0  0  0  0  0  0  0
   -6.3560   19.6590  -32.5780 C   0  0  0  0  0  0  0  0  0  0  0  0
   -6.0220   18.2750  -33.0740 C   0  0  0  0  0  0  0  0  0  0  0  0
   -5.8870   18.3060  -34.4500 F   0  0  0  0  0  0  0  0  0  0  0  0
   -4.8380   17.8270  -32.5140 F   0  0  0  0  0  0  0  0  0  0  0  0
   -7.0240   17.3820  -32.7390 F   0  0  0  0  0  0  0  0  0  0  0  0
   -5.3260   20.5290  -32.1500 C   0  0  0  0  0  0  0  0  0  0  0  0
   -5.6750   21.8190  -31.7390 C   0  0  0  0  0  0  0  0  0  0  0  0
   -4.8600   22.8030  -31.3040 N   0  0  0  0  0  0  0  0  0  0  0  0
   -3.4320   22.7200  -31.1750 C   0  0  0  0  0  0  0  0  0  0  0  0
   -2.7500   22.2320  -32.1150 O   0  0  0  0  0  0  0  0  0  0  0  0
   -2.7520   23.2380  -29.9780 C   0  0  0  0  0  0  0  0  0  0  0  0
   -3.4270   23.5690  -28.9660 O   0  0  0  0  0  0  0  0  0  0  0  0
   -1.3270   23.3760  -29.9740 N   0  0  0  0  0  0  0  0  0  0  0  0
   -0.5660   23.8420  -28.8200 C   0  0  0  0  0  0  0  0  0  0  0  0
   -1.3330   24.9370  -28.0780 C   0  0  0  0  0  0  0  0  0  0  0  0
   -1.5620   26.0280  -28.9270 O   0  0  0  0  0  0  0  0  0  0  0  0
   -3.0880   25.2800  -30.2950 H   0  0  0  0  0  0  0  0  0  0  0  0
   -7.8680   24.2185  -31.2485 H   0  0  0  0  0  0  0  0  0  0  0  0
   -9.0484   21.8013  -32.2337 H   0  0  0  0  0  0  0  0  0  0  0  0
   -8.4936   19.4651  -32.9836 H   0  0  0  0  0  0  0  0  0  0  0  0
   -4.2767   20.1989  -32.1408 H   0  0  0  0  0  0  0  0  0  0  0  0
   -0.3903   22.9974  -28.1375 H   0  0  0  0  0  0  0  0  0  0  0  0
    0.3924   24.2538  -29.1692 H   0  0  0  0  0  0  0  0  0  0  0  0
   -2.2977   24.5355  -27.7341 H   0  0  0  0  0  0  0  0  0  0  0  0
   -0.7367   25.2718  -27.2164 H   0  0  0  0  0  0  0  0  0  0  0  0
   -2.0300   25.6720  -29.7270 H   0  0  0  0  0  0  0  0  0  0  0  0
  1  2  1  0
  2  3  2  0
  2  4  1  0
  4  5  2  0
  5  6  1  0
  6  7  2  0
  7  8  1  0
  8  9  2  0
  9 10  1  0
 10 11  1  0
 10 12  1  0
 10 13  1  0
  9 14  1  0
 14 15  2  0
 15 16  1  0
 16 17  1  0
 17 18  2  0
 17 19  1  0
 19 20  2  0
 19 21  1  0
 21 22  1  0
 22 23  1  0
 23 24  1  0
 16  4  1  0
 15  6  1  0
  1 25  1  0
  5 26  1  0
  7 27  1  0
  8 28  1  0
 14 29  1  0
 22 30  1  0
 22 31  1  0
 23 32  1  0
 23 33  1  0
 24 34  1  0
M  CHG  2   1  -1  21  -1
M  END
>  <UniqueID>  (2) 
2

>  <SMILES>  (2) 
[NH-]C(=O)c1cc2ccc(C(F)(F)F)cc2n1C(=O)C(=O)[N-]CCO

>  <Energy>  (2) 
69.52748882470455

>  <Genealogy>  (2) 
[NH-]C(=O)c1cc2ccc(C(F)(F)F)cc2n1C(=O)C(=O)[N-]CCO (protonated)
[NH-]C(=O)c1cc2ccc(C(F)(F)F)cc2n1C(=O)C(=O)[N-]CCO (3D coordinates assigned)
[NH-]C(=O)c1cc2ccc(C(F)(F)F)cc2n1C(=O)C(=O)[N-]CCO (optimized conformer: 69.52748882470455 kcal/mol)

>  <smiles>  (2) 
NC(=O)c1cc2ccc(C(F)(F)F)cc2n1C(=O)C(=O)NCCO

>  <score_type>  (2) 
oracle

>  <origin>  (2) 
adg

>  <m_score__min__energy>  (2) 
-10.869999999999999

>  <m_primary>  (2) 
energy

$$$$
2:0
     RDKit          3D

 31 32  0  0  0  0  0  0  0  0999 V2000
   -4.1930   25.5440  -30.7040 N   0  0  0  0  0  0  0  0  0  0  0  0
   -5.5440   25.1340  -30.4820 C   0  0  0  0  0  0  0  0  0  0  0  0
   -6.3380   25.9270  -29.9090 O   0  0  0  0  0  0  0  0  0  0  0  0
   -6.0000   23.7840  -30.8810 C   0  0  0  0  0  0  0  0  0  0  0  0
   -7.3160   23.4800  -31.2290 C   0  0  0  0  0  0  0  0  0  0  0  0
   -7.2930   22.1620  -31.6250 C   0  0  0  0  0  0  0  0  0  0  0  0
   -8.3280   21.3460  -32.0730 C   0  0  0  0  0  0  0  0  0  0  0  0
   -8.0210   20.0140  -32.3980 C   0  0  0  0  0  0  0  0  0  0  0  0
   -6.7000   19.5220  -32.2530 C   0  0  0  0  0  0  0  0  0  0  0  0
   -6.3810   18.1030  -32.6240 C   0  0  0  0  0  0  0  0  0  0  0  0
   -5.7590   18.0440  -34.2910 Cl  0  0  0  0  0  0  0  0  0  0  0  0
   -5.6740   20.3840  -31.8090 C   0  0  0  0  0  0  0  0  0  0  0  0
   -6.0030   21.7120  -31.5110 C   0  0  0  0  0  0  0  0  0  0  0  0
   -5.1970   22.6960  -31.0540 N   0  0  0  0  0  0  0  0  0  0  0  0
   -3.7950   22.5840  -30.7610 C   0  0  0  0  0  0  0  0  0  0  0  0
   -2.9430   22.8910  -31.6380 O   0  0  0  0  0  0  0  0  0  0  0  0
   -3.3820   22.1490  -29.4960 O   0  0  0  0  0  0  0  0  0  0  0  0
   -2.8570   23.0230  -28.5010 C   0  0  0  0  0  0  0  0  0  0  0  0
   -1.8870   23.9830  -29.1110 C   0  0  0  0  0  0  0  0  0  0  0  0
   -0.7150   23.6130  -29.3850 O   0  0  0  0  0  0  0  0  0  0  0  0
   -2.2690   25.2960  -29.3510 O   0  0  0  0  0  0  0  0  0  0  0  0
   -3.5200   24.9380  -31.2230 H   0  0  0  0  0  0  0  0  0  0  0  0
   -3.8710   26.4830  -30.3820 H   0  0  0  0  0  0  0  0  0  0  0  0
   -8.1870   24.1509  -31.1943 H   0  0  0  0  0  0  0  0  0  0  0  0
   -9.3536   21.7318  -32.1695 H   0  0  0  0  0  0  0  0  0  0  0  0
   -8.8134   19.3469  -32.7684 H   0  0  0  0  0  0  0  0  0  0  0  0
   -5.6198   17.7073  -31.9355 H   0  0  0  0  0  0  0  0  0  0  0  0
   -7.2944   17.4941  -32.5542 H   0  0  0  0  0  0  0  0  0  0  0  0
   -4.6413   20.0213  -31.6998 H   0  0  0  0  0  0  0  0  0  0  0  0
   -3.6825   23.5853  -28.0402 H   0  0  0  0  0  0  0  0  0  0  0  0
   -2.3360   22.4247  -27.7390 H   0  0  0  0  0  0  0  0  0  0  0  0
  1  2  1  0
  2  3  2  0
  2  4  1  0
  4  5  2  0
  5  6  1  0
  6  7  2  0
  7  8  1  0
  8  9  2  0
  9 10  1  0
 10 11  1  0
  9 12  1  0
 12 13  2  0
 13 14  1  0
 14 15  1  0
 15 16  2  0
 15 17  1  0
 17 18  1  0
 18 19  1  0
 19 20  2  0
 19 21  1  0
 14  4  1  0
 13  6  1  0
  1 22  1  0
  1 23  1  0
  5 24  1  0
  7 25  1  0
  8 26  1  0
 10 27  1  0
 10 28  1  0
 12 29  1  0
 18 30  1  0
 18 31  1  0
M  CHG  1  21  -1
M  END
>  <UniqueID>  (3) 
3

>  <SMILES>  (3) 
NC(=O)c1cc2ccc(CCl)cc2n1C(=O)OCC(=O)[O-]

>  <Energy>  (3) 
66.63851173634711

>  <Genealogy>  (3) 
NC(=O)c1cc2ccc(CCl)cc2n1C(=O)OCC(=O)[O-] (protonated)
NC(=O)c1cc2ccc(CCl)cc2n1C(=O)OCC(=O)[O-] (3D coordinates assigned)
NC(=O)c1cc2ccc(CCl)cc2n1C(=O)OCC(=O)[O-] (optimized conformer: 66.63851173634711 kcal/mol)

>  <smiles>  (3) 
NC(=O)c1cc2ccc(CCl)cc2n1C(=O)OCC(=O)O

>  <score_type>  (3) 
oracle

>  <origin>  (3) 
adg

>  <m_score__min__energy>  (3) 
-10.15

>  <m_primary>  (3) 
energy

$$$$
3:0
     RDKit          3D

 54 55  0  0  0  0  0  0  0  0999 V2000
   -3.0720   16.5590  -34.6770 C   0  0  0  0  0  0  0  0  0  0  0  0
   -3.1010   17.5580  -33.7790 C   0  0  0  0  0  0  0  0  0  0  0  0
   -4.2030   17.7440  -32.9250 O   0  0  0  0  0  0  0  0  0  0  0  0
   -5.2470   16.7960  -32.7110 C   0  0  0  0  0  0  0  0  0  0  0  0
   -6.1660   17.3070  -31.7510 O   0  0  0  0  0  0  0  0  0  0  0  0
   -7.2040   18.1880  -32.0830 C   0  0  0  0  0  0  0  0  0  0  0  0
   -8.4060   17.8130  -31.9810 O   0  0  0  0  0  0  0  0  0  0  0  0
   -6.8930   19.6090  -32.5100 C   0  0  0  0  0  0  0  0  0  0  0  0
   -5.8040   20.1790  -31.5860 C   0  0  0  0  0  0  0  0  0  0  0  0
   -8.1660   20.4730  -32.4050 C   0  0  0  0  0  0  0  0  0  0  0  0
   -6.3900   19.6380  -33.9680 C   0  0  0  0  0  0  0  0  0  0  0  0
   -1.9800   18.4610  -33.6540 N   0  0  0  0  0  0  0  0  0  0  0  0
   -1.0380   18.5780  -34.7710 C   0  0  0  0  0  0  0  0  0  0  0  0
   -1.8130   19.3030  -32.4950 C   0  0  0  0  0  0  0  0  0  0  0  0
   -0.8260   18.9890  -31.5260 C   0  0  0  0  0  0  0  0  0  0  0  0
   -0.6380   19.8080  -30.4010 C   0  0  0  0  0  0  0  0  0  0  0  0
   -1.4530   20.9270  -30.2660 C   0  0  0  0  0  0  0  0  0  0  0  0
   -1.4690   21.8960  -29.2890 C   0  0  0  0  0  0  0  0  0  0  0  0
   -2.4800   22.7790  -29.6610 C   0  0  0  0  0  0  0  0  0  0  0  0
   -2.8950   23.9330  -28.8370 C   0  0  0  0  0  0  0  0  0  0  0  0
   -2.7440   25.2570  -29.3420 N   0  0  0  0  0  0  0  0  0  0  0  0
   -3.3490   23.7660  -27.6730 O   0  0  0  0  0  0  0  0  0  0  0  0
   -3.0620   22.3760  -30.8270 N   0  0  0  0  0  0  0  0  0  0  0  0
   -4.0890   23.0500  -31.5740 C   0  0  0  0  0  0  0  0  0  0  0  0
   -4.5050   22.5560  -32.6570 O   0  0  0  0  0  0  0  0  0  0  0  0
   -4.6070   24.2610  -31.1080 O   0  0  0  0  0  0  0  0  0  0  0  0
   -5.7370   24.3340  -30.2430 C   0  0  0  0  0  0  0  0  0  0  0  0
   -5.5540   25.3670  -29.3180 O   0  0  0  0  0  0  0  0  0  0  0  0
   -2.4220   21.2400  -31.1830 C   0  0  0  0  0  0  0  0  0  0  0  0
   -2.6170   20.4530  -32.3250 C   0  0  0  0  0  0  0  0  0  0  0  0
   -2.1982   16.4349  -35.3336 H   0  0  0  0  0  0  0  0  0  0  0  0
   -3.9220   15.8653  -34.7556 H   0  0  0  0  0  0  0  0  0  0  0  0
   -5.7731   16.6104  -33.6590 H   0  0  0  0  0  0  0  0  0  0  0  0
   -4.8156   15.8549  -32.3393 H   0  0  0  0  0  0  0  0  0  0  0  0
   -6.0964   20.0259  -30.5367 H   0  0  0  0  0  0  0  0  0  0  0  0
   -4.8518   19.6637  -31.7802 H   0  0  0  0  0  0  0  0  0  0  0  0
   -5.6848   21.2551  -31.7802 H   0  0  0  0  0  0  0  0  0  0  0  0
   -8.4103   20.6388  -31.3453 H   0  0  0  0  0  0  0  0  0  0  0  0
   -7.9935   21.4414  -32.8974 H   0  0  0  0  0  0  0  0  0  0  0  0
   -9.0023   19.9551  -32.8974 H   0  0  0  0  0  0  0  0  0  0  0  0
   -5.2919   19.7013  -33.9758 H   0  0  0  0  0  0  0  0  0  0  0  0
   -6.7080   18.7200  -34.4839 H   0  0  0  0  0  0  0  0  0  0  0  0
   -6.8114   20.5133  -34.4839 H   0  0  0  0  0  0  0  0  0  0  0  0
   -0.0181   18.7047  -34.3788 H   0  0  0  0  0  0  0  0  0  0  0  0
   -1.0838   17.6673  -35.3862 H   0  0  0  0  0  0  0  0  0  0  0  0
   -1.3052   19.4499  -35.3862 H   0  0  0  0  0  0  0  0  0  0  0  0
   -0.2006   18.0936  -31.6573 H   0  0  0  0  0  0  0  0  0  0  0  0
    0.1300   19.5719  -29.6497 H   0  0  0  0  0  0  0  0  0  0  0  0
   -0.8209   21.9597  -28.4025 H   0  0  0  0  0  0  0  0  0  0  0  0
   -3.4950   25.7040  -29.9150 H   0  0  0  0  0  0  0  0  0  0  0  0
   -6.6411   24.5311  -30.8377 H   0  0  0  0  0  0  0  0  0  0  0  0
   -5.8492   23.3798  -29.7074 H   0  0  0  0  0  0  0  0  0  0  0  0
   -4.6850   25.1890  -28.8720 H   0  0  0  0  0  0  0  0  0  0  0  0
   -3.3779   20.7235  -33.0720 H   0  0  0  0  0  0  0  0  0  0  0  0
  1  2  2  0
  2  3  1  0
  3  4  1  0
  4  5  1  0
  5  6  1  0
  6  7  2  0
  6  8  1  0
  8  9  1  0
  8 10  1  0
  8 11  1  0
  2 12  1  0
 12 13  1  0
 12 14  1  0
 14 15  2  0
 15 16  1  0
 16 17  2  0
 17 18  1  0
 18 19  2  0
 19 20  1  0
 20 21  1  0
 20 22  2  0
 19 23  1  0
 23 24  1  0
 24 25  2  0
 24 26  1  0
 26 27  1  0
 27 28  1  0
 23 29  1  0
 29 30  2  0
 30 14  1  0
 29 17  1  0
  1 31  1  0
  1 32  1  0
  4 33  1  0
  4 34  1  0
  9 35  1  0
  9 36  1  0
  9 37  1  0
 10 38  1  0
 10 39  1  0
 10 40  1  0
 11 41  1  0
 11 42  1  0
 11 43  1  0
 13 44  1  0
 13 45  1  0
 13 46  1  0
 15 47  1  0
 16 48  1  0
 18 49  1  0
 21 50  1  0
 27 51  1  0
 27 52  1  0
 28 53  1  0
 30 54  1  0
M  CHG  1  21  -1
M  END
>  <UniqueID>  (4) 
4

>  <SMILES>  (4) 
C=C(OCOC(=O)C(C)(C)C)N(C)c1ccc2cc(C([NH-])=O)n(C(=O)OCO)c2c1

>  <Energy>  (4) 
90.24556294184147

>  <Genealogy>  (4) 
C=C(OCOC(=O)C(C)(C)C)N(C)c1ccc2cc(C([NH-])=O)n(C(=O)OCO)c2c1 (protonated)
C=C(OCOC(=O)C(C)(C)C)N(C)c1ccc2cc(C([NH-])=O)n(C(=O)OCO)c2c1 (3D coordinates assigned)
C=C(OCOC(=O)C(C)(C)C)N(C)c1ccc2cc(C([NH-])=O)n(C(=O)OCO)c2c1 (optimized conformer: 90.24556294184147 kcal/mol)

>  <smiles>  (4) 
C=C(OCOC(=O)C(C)(C)C)N(C)c1ccc2cc(C(N)=O)n(C(=O)OCO)c2c1

>  <score_type>  (4) 
oracle

>  <origin>  (4) 
adg

>  <m_score__min__energy>  (4) 
-9.9000000000000004

>  <m_primary>  (4) 
energy

$$$$
5:0
     RDKit          3D

 41 42  0  0  0  0  0  0  0  0999 V2000
   -0.9880   21.6170  -28.4740 C   0  0  0  0  0  0  0  0  0  0  0  0
   -0.9540   23.0520  -28.7660 N   0  0  0  0  0  0  0  0  0  0  0  0
    0.2690   23.8320  -28.5640 C   0  0  0  0  0  0  0  0  0  0  0  0
   -2.1450   23.6990  -29.2480 C   0  0  0  0  0  0  0  0  0  0  0  0
   -2.1430   24.9440  -29.4590 O   0  0  0  0  0  0  0  0  0  0  0  0
   -3.2970   22.9370  -29.4870 O   0  0  0  0  0  0  0  0  0  0  0  0
   -3.7330   22.5030  -30.7470 C   0  0  0  0  0  0  0  0  0  0  0  0
   -2.9150   22.0310  -31.5830 O   0  0  0  0  0  0  0  0  0  0  0  0
   -5.1230   22.6200  -31.0950 N   0  0  0  0  0  0  0  0  0  0  0  0
   -5.9430   23.6910  -30.8980 C   0  0  0  0  0  0  0  0  0  0  0  0
   -5.5180   25.0210  -30.4050 C   0  0  0  0  0  0  0  0  0  0  0  0
   -4.1850   25.4880  -30.6240 N   0  0  0  0  0  0  0  0  0  0  0  0
   -6.3210   25.7420  -29.7560 O   0  0  0  0  0  0  0  0  0  0  0  0
   -7.2380   23.3990  -31.3200 C   0  0  0  0  0  0  0  0  0  0  0  0
   -7.1850   22.1070  -31.7890 C   0  0  0  0  0  0  0  0  0  0  0  0
   -8.1910   21.3100  -32.3220 C   0  0  0  0  0  0  0  0  0  0  0  0
   -7.8610   20.0000  -32.7080 C   0  0  0  0  0  0  0  0  0  0  0  0
   -6.5390   19.4990  -32.5500 C   0  0  0  0  0  0  0  0  0  0  0  0
   -6.2120   18.1410  -32.9430 N   0  0  0  0  0  0  0  0  0  0  0  0
   -7.2350   17.0910  -32.9200 C   0  0  0  0  0  0  0  0  0  0  0  0
   -4.8520   17.8000  -33.3780 C   0  0  0  0  0  0  0  0  0  0  0  0
   -5.5460   20.3500  -31.9990 C   0  0  0  0  0  0  0  0  0  0  0  0
   -5.8990   21.6580  -31.6440 C   0  0  0  0  0  0  0  0  0  0  0  0
   -0.9916   21.4645  -27.3846 H   0  0  0  0  0  0  0  0  0  0  0  0
   -1.8969   21.1757  -28.9090 H   0  0  0  0  0  0  0  0  0  0  0  0
   -0.1011   21.1332  -28.9090 H   0  0  0  0  0  0  0  0  0  0  0  0
    0.4546   23.9504  -27.4862 H   0  0  0  0  0  0  0  0  0  0  0  0
    1.1184   23.3085  -29.0270 H   0  0  0  0  0  0  0  0  0  0  0  0
    0.1525   24.8230  -29.0270 H   0  0  0  0  0  0  0  0  0  0  0  0
   -3.8830   26.4090  -30.2380 H   0  0  0  0  0  0  0  0  0  0  0  0
   -3.5090   24.9440  -31.2030 H   0  0  0  0  0  0  0  0  0  0  0  0
   -8.1160   24.0607  -31.2855 H   0  0  0  0  0  0  0  0  0  0  0  0
   -9.2154   21.6935  -32.4382 H   0  0  0  0  0  0  0  0  0  0  0  0
   -8.6375   19.3512  -33.1394 H   0  0  0  0  0  0  0  0  0  0  0  0
   -7.4795   16.8401  -31.8773 H   0  0  0  0  0  0  0  0  0  0  0  0
   -8.1398   17.4493  -33.4327 H   0  0  0  0  0  0  0  0  0  0  0  0
   -6.8532   16.1958  -33.4327 H   0  0  0  0  0  0  0  0  0  0  0  0
   -4.2142   17.6401  -32.4961 H   0  0  0  0  0  0  0  0  0  0  0  0
   -4.8798   16.8810  -33.9819 H   0  0  0  0  0  0  0  0  0  0  0  0
   -4.4429   18.6234  -33.9819 H   0  0  0  0  0  0  0  0  0  0  0  0
   -4.5173   19.9887  -31.8533 H   0  0  0  0  0  0  0  0  0  0  0  0
  1  2  1  0
  2  3  1  0
  2  4  1  0
  4  5  2  0
  4  6  1  0
  6  7  1  0
  7  8  2  0
  7  9  1  0
  9 10  1  0
 10 11  1  0
 11 12  1  0
 11 13  2  0
 10 14  2  0
 14 15  1  0
 15 16  2  0
 16 17  1  0
 17 18  2  0
 18 19  1  0
 19 20  1  0
 19 21  1  0
 18 22  1  0
 22 23  2  0
 23  9  1  0
 23 15  1  0
  1 24  1  0
  1 25  1  0
  1 26  1  0
  3 27  1  0
  3 28  1  0
  3 29  1  0
 12 30  1  0
 12 31  1  0
 14 32  1  0
 16 33  1  0
 17 34  1  0
 20 35  1  0
 20 36  1  0
 20 37  1  0
 21 38  1  0
 21 39  1  0
 21 40  1  0
 22 41  1  0
M  END
>  <UniqueID>  (5) 
5

>  <SMILES>  (5) 
CN(C)C(=O)OC(=O)n1c(C(N)=O)cc2ccc(N(C)C)cc21

>  <Energy>  (5) 
77.30680040605614

>  <Genealogy>  (5) 
CN(C)C(=O)OC(=O)n1c(C(N)=O)cc2ccc(N(C)C)cc21 (3D coordinates assigned)
CN(C)C(=O)OC(=O)n1c(C(N)=O)cc2ccc(N(C)C)cc21 (optimized conformer: 77.30680040605614 kcal/mol)

>  <smiles>  (5) 
CN(C)C(=O)OC(=O)n1c(C(N)=O)cc2ccc(N(C)C)cc21

>  <score_type>  (5) 
oracle

>  <origin>  (5) 
adg

>  <m_score__min__energy>  (5) 
-8.6199999999999992

>  <m_primary>  (5) 
energy

$$$$
6:0
     RDKit          3D

 38 40  0  0  0  0  0  0  0  0999 V2000
   -5.8240   18.1970  -34.5770 C   0  0  0  0  0  0  0  0  0  0  0  0
   -6.6300   18.3700  -33.3620 N   0  0  0  0  0  0  0  0  0  0  0  0
   -7.2180   17.1870  -32.7230 C   0  0  0  0  0  0  0  0  0  0  0  0
   -6.8330   19.6910  -32.7980 C   0  0  0  0  0  0  0  0  0  0  0  0
   -8.1460   20.2240  -32.6490 C   0  0  0  0  0  0  0  0  0  0  0  0
   -8.3520   21.5030  -32.1040 C   0  0  0  0  0  0  0  0  0  0  0  0
   -7.2360   22.2300  -31.7050 C   0  0  0  0  0  0  0  0  0  0  0  0
   -7.1460   23.4930  -31.1650 C   0  0  0  0  0  0  0  0  0  0  0  0
   -5.7840   23.7180  -30.9740 C   0  0  0  0  0  0  0  0  0  0  0  0
   -5.2320   24.9460  -30.3640 C   0  0  0  0  0  0  0  0  0  0  0  0
   -3.8610   25.2990  -30.5310 N   0  0  0  0  0  0  0  0  0  0  0  0
   -5.9760   25.6830  -29.6630 O   0  0  0  0  0  0  0  0  0  0  0  0
   -5.0640   22.6330  -31.3760 N   0  0  0  0  0  0  0  0  0  0  0  0
   -3.6360   22.4880  -31.4050 C   0  0  0  0  0  0  0  0  0  0  0  0
   -3.0580   22.2500  -32.4990 O   0  0  0  0  0  0  0  0  0  0  0  0
   -2.8420   22.6110  -30.1700 C   0  0  0  0  0  0  0  0  0  0  0  0
   -3.2700   22.3360  -28.8850 C   0  0  0  0  0  0  0  0  0  0  0  0
   -2.2860   22.5580  -28.0430 O   0  0  0  0  0  0  0  0  0  0  0  0
   -1.2350   22.9630  -28.7210 C   0  0  0  0  0  0  0  0  0  0  0  0
    0.0520   23.3080  -28.1080 C   0  0  0  0  0  0  0  0  0  0  0  0
    0.5700   22.5390  -27.2580 O   0  0  0  0  0  0  0  0  0  0  0  0
    0.7040   24.4840  -28.4590 O   0  0  0  0  0  0  0  0  0  0  0  0
   -1.5250   23.0120  -30.0700 C   0  0  0  0  0  0  0  0  0  0  0  0
   -5.9670   21.7360  -31.8260 C   0  0  0  0  0  0  0  0  0  0  0  0
   -5.7270   20.4770  -32.3840 C   0  0  0  0  0  0  0  0  0  0  0  0
   -4.7836   17.9737  -34.2981 H   0  0  0  0  0  0  0  0  0  0  0  0
   -6.2307   17.3657  -35.1716 H   0  0  0  0  0  0  0  0  0  0  0  0
   -5.8538   19.1220  -35.1716 H   0  0  0  0  0  0  0  0  0  0  0  0
   -7.1639   17.2958  -31.6297 H   0  0  0  0  0  0  0  0  0  0  0  0
   -8.2697   17.0890  -33.0301 H   0  0  0  0  0  0  0  0  0  0  0  0
   -6.6611   16.2895  -33.0301 H   0  0  0  0  0  0  0  0  0  0  0  0
   -9.0124   19.6248  -32.9656 H   0  0  0  0  0  0  0  0  0  0  0  0
   -9.3657   21.9164  -31.9964 H   0  0  0  0  0  0  0  0  0  0  0  0
   -7.9738   24.1793  -30.9333 H   0  0  0  0  0  0  0  0  0  0  0  0
   -3.5730   26.0240  -31.2240 H   0  0  0  0  0  0  0  0  0  0  0  0
   -4.2761   21.9863  -28.6103 H   0  0  0  0  0  0  0  0  0  0  0  0
   -0.8518   23.3069  -30.8884 H   0  0  0  0  0  0  0  0  0  0  0  0
   -4.6992   20.1026  -32.5000 H   0  0  0  0  0  0  0  0  0  0  0  0
  1  2  1  0
  2  3  1  0
  2  4  1  0
  4  5  2  0
  5  6  1  0
  6  7  2  0
  7  8  1  0
  8  9  2  0
  9 10  1  0
 10 11  1  0
 10 12  2  0
  9 13  1  0
 13 14  1  0
 14 15  2  0
 14 16  1  0
 16 17  2  0
 17 18  1  0
 18 19  1  0
 19 20  1  0
 20 21  2  0
 20 22  1  0
 19 23  2  0
 13 24  1  0
 24 25  2  0
 25  4  1  0
 24  7  1  0
 23 16  1  0
  1 26  1  0
  1 27  1  0
  1 28  1  0
  3 29  1  0
  3 30  1  0
  3 31  1  0
  5 32  1  0
  6 33  1  0
  8 34  1  0
 11 35  1  0
 17 36  1  0
 23 37  1  0
 25 38  1  0
M  CHG  2  11  -1  22  -1
M  END
>  <UniqueID>  (6) 
6

>  <SMILES>  (6) 
CN(C)c1ccc2cc(C([NH-])=O)n(C(=O)c3coc(C(=O)[O-])c3)c2c1

>  <Energy>  (6) 
105.80242559572162

>  <Genealogy>  (6) 
CN(C)c1ccc2cc(C([NH-])=O)n(C(=O)c3coc(C(=O)[O-])c3)c2c1 (protonated)
CN(C)c1ccc2cc(C([NH-])=O)n(C(=O)c3coc(C(=O)[O-])c3)c2c1 (3D coordinates assigned)
CN(C)c1ccc2cc(C([NH-])=O)n(C(=O)c3coc(C(=O)[O-])c3)c2c1 (optimized conformer: 105.80242559572162 kcal/mol)

>  <smiles>  (6) 
CN(C)c1ccc2cc(C(N)=O)n(C(=O)c3coc(C(=O)O)c3)c2c1

>  <score_type>  (6) 
oracle

>  <origin>  (6) 
adg

>  <m_score__min__energy>  (6) 
-11.18

>  <m_primary>  (6) 
energy

$$$$
7:0
     RDKit          3D

 36 37  0  0  0  0  0  0  0  0999 V2000
   -0.8360   26.4510  -27.8240 C   0  0  0  0  0  0  0  0  0  0  0  0
   -1.4400   25.8360  -28.9560 O   0  0  0  0  0  0  0  0  0  0  0  0
   -1.8730   24.5080  -28.9510 C   0  0  0  0  0  0  0  0  0  0  0  0
   -2.8790   24.1690  -28.2670 O   0  0  0  0  0  0  0  0  0  0  0  0
   -1.1700   23.5690  -29.7150 O   0  0  0  0  0  0  0  0  0  0  0  0
   -1.7530   22.5300  -30.4520 C   0  0  0  0  0  0  0  0  0  0  0  0
   -1.0380   21.7250  -31.1110 O   0  0  0  0  0  0  0  0  0  0  0  0
   -3.1470   22.4060  -30.4400 O   0  0  0  0  0  0  0  0  0  0  0  0
   -3.9720   22.4630  -31.5710 C   0  0  0  0  0  0  0  0  0  0  0  0
   -3.5060   22.2500  -32.7240 O   0  0  0  0  0  0  0  0  0  0  0  0
   -5.3720   22.7420  -31.4110 N   0  0  0  0  0  0  0  0  0  0  0  0
   -5.9590   23.9280  -31.0810 C   0  0  0  0  0  0  0  0  0  0  0  0
   -5.2560   25.1570  -30.6560 C   0  0  0  0  0  0  0  0  0  0  0  0
   -3.8500   25.2980  -30.8370 N   0  0  0  0  0  0  0  0  0  0  0  0
   -5.9000   26.0760  -30.0820 O   0  0  0  0  0  0  0  0  0  0  0  0
   -7.3470   23.8130  -31.1170 C   0  0  0  0  0  0  0  0  0  0  0  0
   -7.5960   22.5070  -31.4710 C   0  0  0  0  0  0  0  0  0  0  0  0
   -8.8070   21.8500  -31.6710 C   0  0  0  0  0  0  0  0  0  0  0  0
   -8.7670   20.5040  -32.0680 C   0  0  0  0  0  0  0  0  0  0  0  0
   -7.5280   19.8430  -32.2560 C   0  0  0  0  0  0  0  0  0  0  0  0
   -7.4980   18.4150  -32.7270 C   0  0  0  0  0  0  0  0  0  0  0  0
   -6.3850   18.2210  -33.7060 C   0  0  0  0  0  0  0  0  0  0  0  0
   -5.6660   17.1890  -33.6500 O   0  0  0  0  0  0  0  0  0  0  0  0
   -6.1090   19.2020  -34.6490 O   0  0  0  0  0  0  0  0  0  0  0  0
   -6.3200   20.5460  -32.0570 C   0  0  0  0  0  0  0  0  0  0  0  0
   -6.3890   21.8820  -31.6420 C   0  0  0  0  0  0  0  0  0  0  0  0
   -1.2585   26.0208  -26.9040 H   0  0  0  0  0  0  0  0  0  0  0  0
    0.2495   26.2745  -27.8464 H   0  0  0  0  0  0  0  0  0  0  0  0
   -1.0321   27.5332  -27.8464 H   0  0  0  0  0  0  0  0  0  0  0  0
   -3.1840   24.6040  -30.4320 H   0  0  0  0  0  0  0  0  0  0  0  0
   -8.0868   24.5995  -30.9070 H   0  0  0  0  0  0  0  0  0  0  0  0
   -9.7653   22.3693  -31.5226 H   0  0  0  0  0  0  0  0  0  0  0  0
   -9.7068   19.9572  -32.2347 H   0  0  0  0  0  0  0  0  0  0  0  0
   -7.3438   17.7503  -31.8642 H   0  0  0  0  0  0  0  0  0  0  0  0
   -8.4539   18.1768  -33.2163 H   0  0  0  0  0  0  0  0  0  0  0  0
   -5.3490   20.0568  -32.2237 H   0  0  0  0  0  0  0  0  0  0  0  0
  1  2  1  0
  2  3  1  0
  3  4  2  0
  3  5  1  0
  5  6  1  0
  6  7  2  0
  6  8  1  0
  8  9  1  0
  9 10  2  0
  9 11  1  0
 11 12  1  0
 12 13  1  0
 13 14  1  0
 13 15  2  0
 12 16  2  0
 16 17  1  0
 17 18  2  0
 18 19  1  0
 19 20  2  0
 20 21  1  0
 21 22  1  0
 22 23  2  0
 22 24  1  0
 20 25  1  0
 25 26  2  0
 26 11  1  0
 26 17  1  0
  1 27  1  0
  1 28  1  0
  1 29  1  0
 14 30  1  0
 16 31  1  0
 18 32  1  0
 19 33  1  0
 21 34  1  0
 21 35  1  0
 25 36  1  0
M  CHG  2  14  -1  24  -1
M  END
>  <UniqueID>  (7) 
7

>  <SMILES>  (7) 
COC(=O)OC(=O)OC(=O)n1c(C([NH-])=O)cc2ccc(CC(=O)[O-])cc21

>  <Energy>  (7) 
74.0080525976691

>  <Genealogy>  (7) 
COC(=O)OC(=O)OC(=O)n1c(C([NH-])=O)cc2ccc(CC(=O)[O-])cc21 (protonated)
COC(=O)OC(=O)OC(=O)n1c(C([NH-])=O)cc2ccc(CC(=O)[O-])cc21 (3D coordinates assigned)
COC(=O)OC(=O)OC(=O)n1c(C([NH-])=O)cc2ccc(CC(=O)[O-])cc21 (optimized conformer: 74.0080525976691 kcal/mol)

>  <smiles>  (7) 
COC(=O)OC(=O)OC(=O)n1c(C(N)=O)cc2ccc(CC(=O)O)cc21

>  <score_type>  (7) 
oracle

>  <origin>  (7) 
adg

>  <m_score__min__energy>  (7) 
-10.199999999999999

>  <m_primary>  (7) 
energy

$$$$
8:0
     RDKit          3D

 40 41  0  0  0  0  0  0  0  0999 V2000
   -2.7100   20.9770  -29.1820 C   0  0  0  0  0  0  0  0  0  0  0  0
   -1.8140   20.6930  -30.1240 C   0  0  0  0  0  0  0  0  0  0  0  0
   -2.0720   20.9410  -31.5510 C   0  0  0  0  0  0  0  0  0  0  0  0
   -2.0790   22.1280  -31.9760 O   0  0  0  0  0  0  0  0  0  0  0  0
   -2.3090   19.8720  -32.4240 O   0  0  0  0  0  0  0  0  0  0  0  0
   -3.5650   19.6530  -33.0570 C   0  0  0  0  0  0  0  0  0  0  0  0
   -4.4670   20.6910  -32.6920 O   0  0  0  0  0  0  0  0  0  0  0  0
   -5.7850   20.4530  -32.2940 C   0  0  0  0  0  0  0  0  0  0  0  0
   -6.2470   19.2800  -32.3060 O   0  0  0  0  0  0  0  0  0  0  0  0
   -6.6080   21.5480  -31.8540 N   0  0  0  0  0  0  0  0  0  0  0  0
   -7.9700   21.6080  -31.8380 C   0  0  0  0  0  0  0  0  0  0  0  0
   -8.8870   20.6110  -32.4250 C   0  0  0  0  0  0  0  0  0  0  0  0
   -8.4500   19.7190  -33.4520 N   0  0  0  0  0  0  0  0  0  0  0  0
  -10.0920   20.5840  -32.0560 O   0  0  0  0  0  0  0  0  0  0  0  0
   -8.4050   22.7870  -31.2410 C   0  0  0  0  0  0  0  0  0  0  0  0
   -7.2590   23.4660  -30.9010 C   0  0  0  0  0  0  0  0  0  0  0  0
   -7.1050   24.6980  -30.2750 C   0  0  0  0  0  0  0  0  0  0  0  0
   -5.8000   25.1500  -30.0220 C   0  0  0  0  0  0  0  0  0  0  0  0
   -4.6750   24.3690  -30.3870 C   0  0  0  0  0  0  0  0  0  0  0  0
   -3.3530   24.8680  -30.1090 N   0  0  0  0  0  0  0  0  0  0  0  0
   -2.4840   24.3010  -29.0760 C   0  0  0  0  0  0  0  0  0  0  0  0
   -1.1990   25.0630  -28.9890 C   0  0  0  0  0  0  0  0  0  0  0  0
   -1.1580   26.2770  -29.3180 O   0  0  0  0  0  0  0  0  0  0  0  0
   -0.0340   24.4160  -28.5930 O   0  0  0  0  0  0  0  0  0  0  0  0
   -4.8750   23.1160  -31.0160 C   0  0  0  0  0  0  0  0  0  0  0  0
   -6.1870   22.6990  -31.2790 C   0  0  0  0  0  0  0  0  0  0  0  0
   -2.4793   20.7767  -28.1253 H   0  0  0  0  0  0  0  0  0  0  0  0
   -3.6813   21.4120  -29.4601 H   0  0  0  0  0  0  0  0  0  0  0  0
   -0.8485   20.2584  -29.8258 H   0  0  0  0  0  0  0  0  0  0  0  0
   -3.4302   19.6514  -34.1487 H   0  0  0  0  0  0  0  0  0  0  0  0
   -3.9730   18.6830  -32.7367 H   0  0  0  0  0  0  0  0  0  0  0  0
   -7.5120   19.8280  -33.8960 H   0  0  0  0  0  0  0  0  0  0  0  0
   -9.1000   18.9920  -33.8260 H   0  0  0  0  0  0  0  0  0  0  0  0
   -9.4443   23.1075  -31.0762 H   0  0  0  0  0  0  0  0  0  0  0  0
   -7.9791   25.3003  -29.9867 H   0  0  0  0  0  0  0  0  0  0  0  0
   -5.6486   26.1240  -29.5336 H   0  0  0  0  0  0  0  0  0  0  0  0
   -2.9950   25.6610  -30.6910 H   0  0  0  0  0  0  0  0  0  0  0  0
   -2.9986   24.3489  -28.1050 H   0  0  0  0  0  0  0  0  0  0  0  0
   -2.2588   23.2565  -29.3375 H   0  0  0  0  0  0  0  0  0  0  0  0
   -4.0186   22.4833  -31.2923 H   0  0  0  0  0  0  0  0  0  0  0  0
  1  2  2  0
  2  3  1  0
  3  4  2  0
  3  5  1  0
  5  6  1  0
  6  7  1  0
  7  8  1  0
  8  9  2  0
  8 10  1  0
 10 11  1  0
 11 12  1  0
 12 13  1  0
 12 14  2  0
 11 15  2  0
 15 16  1  0
 16 17  2  0
 17 18  1  0
 18 19  2  0
 19 20  1  0
 20 21  1  0
 21 22  1  0
 22 23  2  0
 22 24  1  0
 19 25  1  0
 25 26  2  0
 26 10  1  0
 26 16  1  0
  1 27  1  0
  1 28  1  0
  2 29  1  0
  6 30  1  0
  6 31  1  0
 13 32  1  0
 13 33  1  0
 15 34  1  0
 17 35  1  0
 18 36  1  0
 20 37  1  0
 21 38  1  0
 21 39  1  0
 25 40  1  0
M  CHG  1  24  -1
M  END
>  <UniqueID>  (8) 
8

>  <SMILES>  (8) 
C=CC(=O)OCOC(=O)n1c(C(N)=O)cc2ccc(NCC(=O)[O-])cc21

>  <Energy>  (8) 
72.15221954948764

>  <Genealogy>  (8) 
C=CC(=O)OCOC(=O)n1c(C(N)=O)cc2ccc(NCC(=O)[O-])cc21 (protonated)
C=CC(=O)OCOC(=O)n1c(C(N)=O)cc2ccc(NCC(=O)[O-])cc21 (3D coordinates assigned)
C=CC(=O)OCOC(=O)n1c(C(N)=O)cc2ccc(NCC(=O)[O-])cc21 (optimized conformer: 72.15221954948764 kcal/mol)

>  <smiles>  (8) 
C=CC(=O)OCOC(=O)n1c(C(N)=O)cc2ccc(NCC(=O)O)cc21

>  <score_type>  (8) 
oracle

>  <origin>  (8) 
adg

>  <m_score__min__energy>  (8) 
-9.4900000000000002

>  <m_primary>  (8) 
energy

$$$$
9:0
     RDKit          3D

 34 35  0  0  0  0  0  0  0  0999 V2000
   -2.0266   22.5521  -27.7126 H   0  0  0  0  0  0  0  0  0  0  0  0
   -2.3640   22.9620  -28.6760 C   0  0  0  0  0  0  0  0  0  0  0  0
   -1.6900   24.1800  -29.1610 C   0  0  0  0  0  0  0  0  0  0  0  0
   -2.3250   25.2510  -29.3430 O   0  0  0  0  0  0  0  0  0  0  0  0
   -0.3130   24.1680  -29.3380 O   0  0  0  0  0  0  0  0  0  0  0  0
   -3.3530   22.3090  -29.3060 C   0  0  0  0  0  0  0  0  0  0  0  0
   -3.8707   21.5182  -28.7433 H   0  0  0  0  0  0  0  0  0  0  0  0
   -3.8070   22.5600  -30.6900 C   0  0  0  0  0  0  0  0  0  0  0  0
   -2.9370   22.7310  -31.5840 O   0  0  0  0  0  0  0  0  0  0  0  0
   -5.2020   22.6890  -31.0260 N   0  0  0  0  0  0  0  0  0  0  0  0
   -5.9950   23.7930  -30.9210 C   0  0  0  0  0  0  0  0  0  0  0  0
   -5.5450   25.1520  -30.5610 C   0  0  0  0  0  0  0  0  0  0  0  0
   -6.3860   25.9930  -30.1470 O   0  0  0  0  0  0  0  0  0  0  0  0
   -4.1840   25.5490  -30.7290 N   0  0  0  0  0  0  0  0  0  0  0  0
   -3.8740   26.5000  -30.4290 H   0  0  0  0  0  0  0  0  0  0  0  0
   -3.4990   24.9320  -31.2200 H   0  0  0  0  0  0  0  0  0  0  0  0
   -7.3100   23.4890  -31.2610 C   0  0  0  0  0  0  0  0  0  0  0  0
   -8.1753   24.1682  -31.2531 H   0  0  0  0  0  0  0  0  0  0  0  0
   -7.2970   22.1580  -31.6090 C   0  0  0  0  0  0  0  0  0  0  0  0
   -8.3350   21.3330  -32.0310 C   0  0  0  0  0  0  0  0  0  0  0  0
   -9.3566   21.7228  -32.1510 H   0  0  0  0  0  0  0  0  0  0  0  0
   -8.0370   19.9860  -32.2990 C   0  0  0  0  0  0  0  0  0  0  0  0
   -8.8331   19.3118  -32.6478 H   0  0  0  0  0  0  0  0  0  0  0  0
   -6.7230   19.4870  -32.1250 C   0  0  0  0  0  0  0  0  0  0  0  0
   -6.4170   18.0430  -32.4350 C   0  0  2  0  0  0  0  0  0  0  0  0
   -7.3539   17.5479  -32.7301 H   0  0  0  0  0  0  0  0  0  0  0  0
   -5.8980   17.4140  -31.3150 F   0  0  0  0  0  0  0  0  0  0  0  0
   -5.4200   17.9400  -33.5860 C   0  0  0  0  0  0  0  0  0  0  0  0
   -4.4025   17.8349  -33.1814 H   0  0  0  0  0  0  0  0  0  0  0  0
   -5.6618   17.0621  -34.2031 H   0  0  0  0  0  0  0  0  0  0  0  0
   -5.4772   18.8488  -34.2031 H   0  0  0  0  0  0  0  0  0  0  0  0
   -5.6920   20.3590  -31.7050 C   0  0  0  0  0  0  0  0  0  0  0  0
   -4.6633   19.9930  -31.5711 H   0  0  0  0  0  0  0  0  0  0  0  0
   -6.0140   21.7000  -31.4640 C   0  0  0  0  0  0  0  0  0  0  0  0
  1  2  1  0
  2  3  1  0
  3  4  2  0
  3  5  1  0
  2  6  2  0
  6  7  1  0
  6  8  1  0
  8  9  2  0
  8 10  1  0
 10 11  1  0
 11 12  1  0
 12 13  2  0
 12 14  1  0
 14 15  1  0
 14 16  1  0
 11 17  2  0
 17 18  1  0
 17 19  1  0
 19 20  2  0
 20 21  1  0
 20 22  1  0
 22 23  1  0
 22 24  2  0
 24 25  1  0
 25 26  1  6
 25 27  1  0
 25 28  1  0
 28 29  1  0
 28 30  1  0
 28 31  1  0
 24 32  1  0
 32 33  1  0
 32 34  2  0
 34 10  1  0
 34 19  1  0
M  CHG  1   5  -1
M  END
>  <UniqueID>  (9) 
9

>  <SMILES>  (9) 
C[C@@H](F)c1ccc2cc(C(N)=O)n(C(=O)/C=C\C(=O)[O-])c2c1

>  <Energy>  (9) 
76.98158321751814

>  <Genealogy>  (9) 
CC(F)c1ccc2cc(C(N)=O)n(C(=O)C=CC(=O)[O-])c2c1 (protonated)
C[C@@H](F)c1ccc2cc(C(N)=O)n(C(=O)C=CC(=O)[O-])c2c1 (chirality)
C[C@@H](F)c1ccc2cc(C(N)=O)n(C(=O)/C=C\C(=O)[O-])c2c1 (cis-trans isomerization)
C[C@@H](F)c1ccc2cc(C(N)=O)n(C(=O)/C=C\C(=O)[O-])c2c1 (3D coordinates assigned)
C[C@@H](F)c1ccc2cc(C(N)=O)n(C(=O)/C=C\C(=O)[O-])c2c1 (optimized conformer: 76.98158321751814 kcal/mol)

>  <smiles>  (9) 
CC(F)c1ccc2cc(C(N)=O)n(C(=O)C=CC(=O)O)c2c1

>  <score_type>  (9) 
oracle

>  <origin>  (9) 
adg

>  <m_score__min__energy>  (9) 
-10.82

>  <m_primary>  (9) 
energy

$$$$
10:0
     RDKit          3D

 35 36  0  0  0  0  0  0  0  0999 V2000
   -8.1150   19.1400  -33.0880 N   0  0  0  0  0  0  0  0  0  0  0  0
   -8.6990   20.3550  -32.6120 C   0  0  0  0  0  0  0  0  0  0  0  0
   -9.9460   20.5090  -32.6990 O   0  0  0  0  0  0  0  0  0  0  0  0
   -7.8530   21.4340  -32.0580 C   0  0  0  0  0  0  0  0  0  0  0  0
   -8.3560   22.5750  -31.4350 C   0  0  0  0  0  0  0  0  0  0  0  0
   -7.2520   23.2620  -30.9870 C   0  0  0  0  0  0  0  0  0  0  0  0
   -7.1680   24.4730  -30.3080 C   0  0  0  0  0  0  0  0  0  0  0  0
   -5.8910   24.9660  -29.9910 C   0  0  0  0  0  0  0  0  0  0  0  0
   -4.7220   24.2480  -30.3630 C   0  0  0  0  0  0  0  0  0  0  0  0
   -3.4020   24.7390  -30.0620 N   0  0  0  0  0  0  0  0  0  0  0  0
   -2.4210   24.0290  -29.2410 C   0  0  0  0  0  0  0  0  0  0  0  0
   -1.1930   24.8640  -29.0540 C   0  0  0  0  0  0  0  0  0  0  0  0
   -0.1330   24.3420  -28.6170 O   0  0  0  0  0  0  0  0  0  0  0  0
   -1.2270   26.2240  -29.3330 O   0  0  0  0  0  0  0  0  0  0  0  0
   -4.8540   23.0220  -31.0550 C   0  0  0  0  0  0  0  0  0  0  0  0
   -6.1390   22.5460  -31.3400 C   0  0  0  0  0  0  0  0  0  0  0  0
   -6.4910   21.4190  -31.9980 N   0  0  0  0  0  0  0  0  0  0  0  0
   -5.6030   20.4550  -32.5860 C   0  0  0  0  0  0  0  0  0  0  0  0
   -4.7850   20.8120  -33.4770 O   0  0  0  0  0  0  0  0  0  0  0  0
   -5.6560   19.1180  -32.1720 O   0  0  0  0  0  0  0  0  0  0  0  0
   -4.9910   18.0600  -32.8550 C   0  0  0  0  0  0  0  0  0  0  0  0
   -5.7890   17.6230  -34.0410 C   0  0  0  0  0  0  0  0  0  0  0  0
   -5.3700   17.8450  -35.2070 O   0  0  0  0  0  0  0  0  0  0  0  0
   -7.0130   16.9930  -33.8580 O   0  0  0  0  0  0  0  0  0  0  0  0
   -8.7170   18.4000  -33.5130 H   0  0  0  0  0  0  0  0  0  0  0  0
   -7.0940   18.9520  -32.9840 H   0  0  0  0  0  0  0  0  0  0  0  0
   -9.4115   22.8644  -31.3251 H   0  0  0  0  0  0  0  0  0  0  0  0
   -8.0749   25.0286  -30.0273 H   0  0  0  0  0  0  0  0  0  0  0  0
   -5.7948   25.9183  -29.4489 H   0  0  0  0  0  0  0  0  0  0  0  0
   -3.1120   25.6640  -30.4540 H   0  0  0  0  0  0  0  0  0  0  0  0
   -2.8627   23.8092  -28.2578 H   0  0  0  0  0  0  0  0  0  0  0  0
   -2.1420   23.0938  -29.7484 H   0  0  0  0  0  0  0  0  0  0  0  0
   -3.9642   22.4535  -31.3633 H   0  0  0  0  0  0  0  0  0  0  0  0
   -4.0037   18.4097  -33.1912 H   0  0  0  0  0  0  0  0  0  0  0  0
   -4.8765   17.2083  -32.1684 H   0  0  0  0  0  0  0  0  0  0  0  0
  1  2  1  0
  2  3  2  0
  2  4  1  0
  4  5  2  0
  5  6  1  0
  6  7  2  0
  7  8  1  0
  8  9  2  0
  9 10  1  0
 10 11  1  0
 11 12  1  0
 12 13  2  0
 12 14  1  0
  9 15  1  0
 15 16  2  0
 16 17  1  0
 17 18  1  0
 18 19  2  0
 18 20  1  0
 20 21  1  0
 21 22  1  0
 22 23  2  0
 22 24  1  0
 17  4  1  0
 16  6  1  0
  1 25  1  0
  1 26  1  0
  5 27  1  0
  7 28  1  0
  8 29  1  0
 10 30  1  0
 11 31  1  0
 11 32  1  0
 15 33  1  0
 21 34  1  0
 21 35  1  0
M  CHG  2  14  -1  24  -1
M  END
>  <UniqueID>  (10) 
10

>  <SMILES>  (10) 
NC(=O)c1cc2ccc(NCC(=O)[O-])cc2n1C(=O)OCC(=O)[O-]

>  <Energy>  (10) 
70.61554961564129

>  <Genealogy>  (10) 
NC(=O)c1cc2ccc(NCC(=O)[O-])cc2n1C(=O)OCC(=O)[O-] (protonated)
NC(=O)c1cc2ccc(NCC(=O)[O-])cc2n1C(=O)OCC(=O)[O-] (3D coordinates assigned)
NC(=O)c1cc2ccc(NCC(=O)[O-])cc2n1C(=O)OCC(=O)[O-] (optimized conformer: 70.61554961564129 kcal/mol)

>  <smiles>  (10) 
NC(=O)c1cc2ccc(NCC(=O)O)cc2n1C(=O)OCC(=O)O

>  <score_type>  (10) 
oracle

>  <origin>  (10) 
adg

>  <m_score__min__energy>  (10) 
-9.8499999999999996

>  <m_primary>  (10) 
energy

$$$$
11:0
     RDKit          3D

 40 42  0  0  0  0  0  0  0  0999 V2000
   -4.1890   25.6610  -30.8320 N   0  0  0  0  0  0  0  0  0  0  0  0
   -5.3210   24.9470  -30.3400 C   0  0  0  0  0  0  0  0  0  0  0  0
   -5.9810   25.4230  -29.3790 O   0  0  0  0  0  0  0  0  0  0  0  0
   -5.7340   23.6860  -30.9900 C   0  0  0  0  0  0  0  0  0  0  0  0
   -7.0640   23.3220  -31.1830 C   0  0  0  0  0  0  0  0  0  0  0  0
   -7.0190   22.0600  -31.7310 C   0  0  0  0  0  0  0  0  0  0  0  0
   -8.0540   21.2290  -32.1370 C   0  0  0  0  0  0  0  0  0  0  0  0
   -7.7220   19.9870  -32.7020 C   0  0  0  0  0  0  0  0  0  0  0  0
   -6.3620   19.5830  -32.8660 C   0  0  0  0  0  0  0  0  0  0  0  0
   -6.0250   18.2940  -33.4670 N   0  0  0  0  0  0  0  0  0  0  0  0
   -6.8390   17.1060  -33.1380 C   0  0  0  0  0  0  0  0  0  0  0  0
   -6.4210   15.8460  -33.9000 C   0  0  0  0  0  0  0  0  0  0  0  0
   -5.0210   15.7730  -34.0230 O   0  0  0  0  0  0  0  0  0  0  0  0
   -4.6020   16.7890  -34.9020 C   0  0  0  0  0  0  0  0  0  0  0  0
   -4.7920   18.1730  -34.2760 C   0  0  0  0  0  0  0  0  0  0  0  0
   -5.3420   20.4810  -32.4380 C   0  0  0  0  0  0  0  0  0  0  0  0
   -5.7060   21.7020  -31.8590 C   0  0  0  0  0  0  0  0  0  0  0  0
   -4.9000   22.6900  -31.4100 N   0  0  0  0  0  0  0  0  0  0  0  0
   -3.4640   22.7110  -31.4470 C   0  0  0  0  0  0  0  0  0  0  0  0
   -2.8450   21.9530  -32.2440 O   0  0  0  0  0  0  0  0  0  0  0  0
   -2.7590   23.5860  -30.6160 O   0  0  0  0  0  0  0  0  0  0  0  0
   -1.6580   23.1670  -29.8180 C   0  0  0  0  0  0  0  0  0  0  0  0
   -0.9740   24.3680  -29.2560 C   0  0  0  0  0  0  0  0  0  0  0  0
    0.1580   24.2620  -28.7140 O   0  0  0  0  0  0  0  0  0  0  0  0
   -1.5870   25.6130  -29.3330 O   0  0  0  0  0  0  0  0  0  0  0  0
   -3.2210   25.3020  -30.6800 H   0  0  0  0  0  0  0  0  0  0  0  0
   -7.9595   23.9160  -30.9478 H   0  0  0  0  0  0  0  0  0  0  0  0
   -9.1042   21.5346  -32.0195 H   0  0  0  0  0  0  0  0  0  0  0  0
   -8.5269   19.3106  -33.0253 H   0  0  0  0  0  0  0  0  0  0  0  0
   -6.7449   16.9077  -32.0601 H   0  0  0  0  0  0  0  0  0  0  0  0
   -7.8741   17.3327  -33.4331 H   0  0  0  0  0  0  0  0  0  0  0  0
   -6.7811   14.9604  -33.3560 H   0  0  0  0  0  0  0  0  0  0  0  0
   -6.8602   15.8837  -34.9078 H   0  0  0  0  0  0  0  0  0  0  0  0
   -3.5372   16.6441  -35.1369 H   0  0  0  0  0  0  0  0  0  0  0  0
   -5.2110   16.7327  -35.8163 H   0  0  0  0  0  0  0  0  0  0  0  0
   -3.9287   18.3826  -33.6273 H   0  0  0  0  0  0  0  0  0  0  0  0
   -4.8781   18.8920  -35.1040 H   0  0  0  0  0  0  0  0  0  0  0  0
   -4.2811   20.2177  -32.5612 H   0  0  0  0  0  0  0  0  0  0  0  0
   -2.0200   22.5316  -28.9963 H   0  0  0  0  0  0  0  0  0  0  0  0
   -0.9507   22.5943  -30.4358 H   0  0  0  0  0  0  0  0  0  0  0  0
  1  2  1  0
  2  3  2  0
  2  4  1  0
  4  5  2  0
  5  6  1  0
  6  7  2  0
  7  8  1  0
  8  9  2  0
  9 10  1  0
 10 11  1  0
 11 12  1  0
 12 13  1  0
 13 14  1  0
 14 15  1  0
  9 16  1  0
 16 17  2  0
 17 18  1  0
 18 19  1  0
 19 20  2  0
 19 21  1  0
 21 22  1  0
 22 23  1  0
 23 24  2  0
 23 25  1  0
 18  4  1  0
 17  6  1  0
 15 10  1  0
  1 26  1  0
  5 27  1  0
  7 28  1  0
  8 29  1  0
 11 30  1  0
 11 31  1  0
 12 32  1  0
 12 33  1  0
 14 34  1  0
 14 35  1  0
 15 36  1  0
 15 37  1  0
 16 38  1  0
 22 39  1  0
 22 40  1  0
M  CHG  2   1  -1  25  -1
M  END
>  <UniqueID>  (11) 
11

>  <SMILES>  (11) 
[NH-]C(=O)c1cc2ccc(N3CCOCC3)cc2n1C(=O)OCC(=O)[O-]

>  <Energy>  (11) 
84.95155272528106

>  <Genealogy>  (11) 
[NH-]C(=O)c1cc2ccc(N3CCOCC3)cc2n1C(=O)OCC(=O)[O-] (protonated)
[NH-]C(=O)c1cc2ccc(N3CCOCC3)cc2n1C(=O)OCC(=O)[O-] (3D coordinates assigned)
[NH-]C(=O)c1cc2ccc(N3CCOCC3)cc2n1C(=O)OCC(=O)[O-] (nonaromatic ring conformer: 84.95155272528106 kcal/mol)

>  <smiles>  (11) 
NC(=O)c1cc2ccc(N3CCOCC3)cc2n1C(=O)OCC(=O)O

>  <score_type>  (11) 
oracle

>  <origin>  (11) 
adg

>  <m_score__min__energy>  (11) 
-12.609999999999999

>  <m_primary>  (11) 
energy

$$$$
12:0
     RDKit          3D

 36 37  0  0  0  0  0  0  0  0999 V2000
   -2.4040   24.9090  -27.9560 C   0  0  0  0  0  0  0  0  0  0  0  0
   -1.6890   24.9820  -29.1700 O   0  0  0  0  0  0  0  0  0  0  0  0
   -0.8870   23.8280  -29.3450 C   0  0  0  0  0  0  0  0  0  0  0  0
   -1.6860   22.7410  -30.0570 C   0  0  0  0  0  0  0  0  0  0  0  0
   -2.8890   23.2960  -30.5760 O   0  0  0  0  0  0  0  0  0  0  0  0
   -3.7040   22.6300  -31.4960 C   0  0  0  0  0  0  0  0  0  0  0  0
   -3.1950   21.8640  -32.3580 O   0  0  0  0  0  0  0  0  0  0  0  0
   -5.1300   22.7990  -31.4310 N   0  0  0  0  0  0  0  0  0  0  0  0
   -5.8280   23.8980  -31.0240 C   0  0  0  0  0  0  0  0  0  0  0  0
   -5.2570   25.1170  -30.4150 C   0  0  0  0  0  0  0  0  0  0  0  0
   -4.0310   25.6690  -30.8870 N   0  0  0  0  0  0  0  0  0  0  0  0
   -5.8330   25.6480  -29.4280 O   0  0  0  0  0  0  0  0  0  0  0  0
   -7.1980   23.6860  -31.1670 C   0  0  0  0  0  0  0  0  0  0  0  0
   -7.3210   22.4090  -31.6640 C   0  0  0  0  0  0  0  0  0  0  0  0
   -8.4630   21.6780  -31.9790 C   0  0  0  0  0  0  0  0  0  0  0  0
   -8.2930   20.3770  -32.4820 C   0  0  0  0  0  0  0  0  0  0  0  0
   -6.9960   19.8420  -32.6770 C   0  0  0  0  0  0  0  0  0  0  0  0
   -6.8230   18.4420  -33.1930 C   0  0  0  0  0  0  0  0  0  0  0  0
   -6.4170   17.5530  -32.0990 C   0  0  0  0  0  0  0  0  0  0  0  0
   -6.0950   16.8530  -31.2360 N   0  0  0  0  0  0  0  0  0  0  0  0
   -5.8610   20.6130  -32.3430 C   0  0  0  0  0  0  0  0  0  0  0  0
   -6.0580   21.8960  -31.8170 C   0  0  0  0  0  0  0  0  0  0  0  0
   -1.7020   24.9807  -27.1121 H   0  0  0  0  0  0  0  0  0  0  0  0
   -3.1250   25.7382  -27.9046 H   0  0  0  0  0  0  0  0  0  0  0  0
   -2.9425   23.9512  -27.9046 H   0  0  0  0  0  0  0  0  0  0  0  0
   -0.0043   24.0859  -29.9486 H   0  0  0  0  0  0  0  0  0  0  0  0
   -0.5693   23.4561  -28.3598 H   0  0  0  0  0  0  0  0  0  0  0  0
   -1.0875   22.3278  -30.8823 H   0  0  0  0  0  0  0  0  0  0  0  0
   -1.9309   21.9406  -29.3433 H   0  0  0  0  0  0  0  0  0  0  0  0
   -3.1140   25.3000  -30.5540 H   0  0  0  0  0  0  0  0  0  0  0  0
   -8.0094   24.3906  -30.9322 H   0  0  0  0  0  0  0  0  0  0  0  0
   -9.4668   22.1053  -31.8386 H   0  0  0  0  0  0  0  0  0  0  0  0
   -9.1758   19.7680  -32.7267 H   0  0  0  0  0  0  0  0  0  0  0  0
   -7.7752   18.0888  -33.6156 H   0  0  0  0  0  0  0  0  0  0  0  0
   -6.0458   18.4365  -33.9714 H   0  0  0  0  0  0  0  0  0  0  0  0
   -4.8463   20.2154  -32.4924 H   0  0  0  0  0  0  0  0  0  0  0  0
  1  2  1  0
  2  3  1  0
  3  4  1  0
  4  5  1  0
  5  6  1  0
  6  7  2  0
  6  8  1  0
  8  9  1  0
  9 10  1  0
 10 11  1  0
 10 12  2  0
  9 13  2  0
 13 14  1  0
 14 15  2  0
 15 16  1  0
 16 17  2  0
 17 18  1  0
 18 19  1  0
 19 20  3  0
 17 21  1  0
 21 22  2  0
 22  8  1  0
 22 14  1  0
  1 23  1  0
  1 24  1  0
  1 25  1  0
  3 26  1  0
  3 27  1  0
  4 28  1  0
  4 29  1  0
 11 30  1  0
 13 31  1  0
 15 32  1  0
 16 33  1  0
 18 34  1  0
 18 35  1  0
 21 36  1  0
M  CHG  1  11  -1
M  END
>  <UniqueID>  (12) 
12

>  <SMILES>  (12) 
COCCOC(=O)n1c(C([NH-])=O)cc2ccc(CC#N)cc21

>  <Energy>  (12) 
70.62170645264989

>  <Genealogy>  (12) 
COCCOC(=O)n1c(C([NH-])=O)cc2ccc(CC#N)cc21 (protonated)
COCCOC(=O)n1c(C([NH-])=O)cc2ccc(CC#N)cc21 (3D coordinates assigned)
COCCOC(=O)n1c(C([NH-])=O)cc2ccc(CC#N)cc21 (optimized conformer: 70.62170645264989 kcal/mol)

>  <smiles>  (12) 
COCCOC(=O)n1c(C(N)=O)cc2ccc(CC#N)cc21

>  <score_type>  (12) 
oracle

>  <origin>  (12) 
adg

>  <m_score__min__energy>  (12) 
-10.17

>  <m_primary>  (12) 
energy

$$$$
13:0
     RDKit          3D

 39 41  0  0  0  0  0  0  0  0999 V2000
   -2.6890   15.7770  -34.9640 C   0  0  0  0  0  0  0  0  0  0  0  0
   -3.9500   16.4310  -34.4990 C   0  0  0  0  0  0  0  0  0  0  0  0
   -5.1400   15.8830  -34.5530 O   0  0  0  0  0  0  0  0  0  0  0  0
   -5.9710   16.7720  -34.0550 C   0  0  0  0  0  0  0  0  0  0  0  0
   -7.2110   16.5880  -33.9520 O   0  0  0  0  0  0  0  0  0  0  0  0
   -5.3660   17.8770  -33.6910 O   0  0  0  0  0  0  0  0  0  0  0  0
   -4.0960   17.6950  -33.9550 C   0  0  0  0  0  0  0  0  0  0  0  0
   -3.0290   18.7290  -33.7420 C   0  0  0  0  0  0  0  0  0  0  0  0
   -3.6040   20.0320  -33.6270 O   0  0  0  0  0  0  0  0  0  0  0  0
   -2.8460   21.1840  -33.3810 C   0  0  0  0  0  0  0  0  0  0  0  0
   -1.5840   21.1530  -33.4820 O   0  0  0  0  0  0  0  0  0  0  0  0
   -3.5060   22.3650  -33.0120 O   0  0  0  0  0  0  0  0  0  0  0  0
   -3.9360   22.6760  -31.7130 C   0  0  0  0  0  0  0  0  0  0  0  0
   -3.1230   22.6620  -30.7510 O   0  0  0  0  0  0  0  0  0  0  0  0
   -5.3260   22.9580  -31.4710 N   0  0  0  0  0  0  0  0  0  0  0  0
   -5.8540   24.0790  -30.9000 C   0  0  0  0  0  0  0  0  0  0  0  0
   -5.1100   25.3110  -30.5750 C   0  0  0  0  0  0  0  0  0  0  0  0
   -3.6900   25.2920  -30.4720 N   0  0  0  0  0  0  0  0  0  0  0  0
   -5.7310   26.3990  -30.4250 O   0  0  0  0  0  0  0  0  0  0  0  0
   -7.2270   23.9480  -30.7190 C   0  0  0  0  0  0  0  0  0  0  0  0
   -7.5370   22.6950  -31.2020 C   0  0  0  0  0  0  0  0  0  0  0  0
   -8.7610   22.0310  -31.2440 C   0  0  0  0  0  0  0  0  0  0  0  0
   -8.7840   20.7250  -31.7670 C   0  0  0  0  0  0  0  0  0  0  0  0
   -7.5930   20.1070  -32.2160 C   0  0  0  0  0  0  0  0  0  0  0  0
   -7.6290   18.7760  -32.7440 N   0  0  0  0  0  0  0  0  0  0  0  0
   -6.3670   20.8050  -32.1420 C   0  0  0  0  0  0  0  0  0  0  0  0
   -6.3710   22.1140  -31.6420 C   0  0  0  0  0  0  0  0  0  0  0  0
   -2.0932   15.4680  -34.0924 H   0  0  0  0  0  0  0  0  0  0  0  0
   -2.9364   14.8935  -35.5709 H   0  0  0  0  0  0  0  0  0  0  0  0
   -2.1094   16.4881  -35.5709 H   0  0  0  0  0  0  0  0  0  0  0  0
   -2.4782   18.4947  -32.8191 H   0  0  0  0  0  0  0  0  0  0  0  0
   -2.3483   18.7179  -34.6060 H   0  0  0  0  0  0  0  0  0  0  0  0
   -3.1040   24.7860  -31.1750 H   0  0  0  0  0  0  0  0  0  0  0  0
   -7.9170   24.6859  -30.2839 H   0  0  0  0  0  0  0  0  0  0  0  0
   -9.6805   22.5126  -30.8798 H   0  0  0  0  0  0  0  0  0  0  0  0
   -9.7371   20.1792  -31.8274 H   0  0  0  0  0  0  0  0  0  0  0  0
   -8.2290   18.5430  -33.5680 H   0  0  0  0  0  0  0  0  0  0  0  0
   -7.0540   18.0160  -32.3180 H   0  0  0  0  0  0  0  0  0  0  0  0
   -5.4298   20.3313  -32.4697 H   0  0  0  0  0  0  0  0  0  0  0  0
  1  2  1  0
  2  3  1  0
  3  4  1  0
  4  5  2  0
  4  6  1  0
  6  7  1  0
  7  8  1  0
  8  9  1  0
  9 10  1  0
 10 11  2  0
 10 12  1  0
 12 13  1  0
 13 14  2  0
 13 15  1  0
 15 16  1  0
 16 17  1  0
 17 18  1  0
 17 19  2  0
 16 20  2  0
 20 21  1  0
 21 22  2  0
 22 23  1  0
 23 24  2  0
 24 25  1  0
 24 26  1  0
 26 27  2  0
  7  2  2  0
 27 15  1  0
 27 21  1  0
  1 28  1  0
  1 29  1  0
  1 30  1  0
  8 31  1  0
  8 32  1  0
 18 33  1  0
 20 34  1  0
 22 35  1  0
 23 36  1  0
 25 37  1  0
 25 38  1  0
 26 39  1  0
M  CHG  1  18  -1
M  END
>  <UniqueID>  (13) 
13

>  <SMILES>  (13) 
Cc1oc(=O)oc1COC(=O)OC(=O)n1c(C([NH-])=O)cc2ccc(N)cc21

>  <Energy>  (13) 
111.5912215964006

>  <Genealogy>  (13) 
Cc1oc(=O)oc1COC(=O)OC(=O)n1c(C([NH-])=O)cc2ccc(N)cc21 (protonated)
Cc1oc(=O)oc1COC(=O)OC(=O)n1c(C([NH-])=O)cc2ccc(N)cc21 (3D coordinates assigned)
Cc1oc(=O)oc1COC(=O)OC(=O)n1c(C([NH-])=O)cc2ccc(N)cc21 (optimized conformer: 111.5912215964006 kcal/mol)

>  <smiles>  (13) 
Cc1oc(=O)oc1COC(=O)OC(=O)n1c(C(N)=O)cc2ccc(N)cc21

>  <score_type>  (13) 
oracle

>  <origin>  (13) 
adg

>  <m_score__min__energy>  (13) 
-9.5700000000000003

>  <m_primary>  (13) 
energy

$$$$
14:0
     RDKit          3D

 52 53  0  0  0  0  0  0  0  0999 V2000
   -2.8770   25.3560  -26.0030 C   0  0  0  0  0  0  0  0  0  0  0  0
   -2.0130   26.4180  -25.6710 O   0  0  0  0  0  0  0  0  0  0  0  0
   -0.6720   26.0090  -25.8570 C   0  0  0  0  0  0  0  0  0  0  0  0
   -0.3810   25.9050  -27.2360 O   0  0  0  0  0  0  0  0  0  0  0  0
    0.5740   24.8900  -27.4700 C   0  0  0  0  0  0  0  0  0  0  0  0
    0.2610   24.1980  -28.6750 O   0  0  0  0  0  0  0  0  0  0  0  0
   -1.0400   24.0880  -29.1750 C   0  0  0  0  0  0  0  0  0  0  0  0
   -1.7620   25.1170  -29.2920 O   0  0  0  0  0  0  0  0  0  0  0  0
   -1.5350   22.8140  -29.6260 N   0  0  0  0  0  0  0  0  0  0  0  0
   -0.5040   21.8420  -30.0210 C   0  0  0  0  0  0  0  0  0  0  0  0
   -2.9800   22.4350  -29.5890 C   0  0  0  0  0  0  0  0  0  0  0  0
   -3.1030   20.9460  -29.1970 C   0  0  0  0  0  0  0  0  0  0  0  0
   -3.7820   23.2500  -28.5370 C   0  0  0  0  0  0  0  0  0  0  0  0
   -3.6420   22.6530  -30.9530 C   0  0  0  0  0  0  0  0  0  0  0  0
   -2.9180   22.7120  -31.9850 O   0  0  0  0  0  0  0  0  0  0  0  0
   -5.0610   22.8340  -31.1040 N   0  0  0  0  0  0  0  0  0  0  0  0
   -5.7660   23.9960  -30.9670 C   0  0  0  0  0  0  0  0  0  0  0  0
   -5.2180   25.3080  -30.5640 C   0  0  0  0  0  0  0  0  0  0  0  0
   -3.8680   25.6660  -30.8440 N   0  0  0  0  0  0  0  0  0  0  0  0
   -5.9510   26.1220  -29.9420 O   0  0  0  0  0  0  0  0  0  0  0  0
   -7.1230   23.7690  -31.1940 C   0  0  0  0  0  0  0  0  0  0  0  0
   -7.2270   22.4290  -31.4920 C   0  0  0  0  0  0  0  0  0  0  0  0
   -8.3490   21.6630  -31.7910 C   0  0  0  0  0  0  0  0  0  0  0  0
   -8.1610   20.2960  -32.0570 C   0  0  0  0  0  0  0  0  0  0  0  0
   -6.8610   19.7330  -32.0440 C   0  0  0  0  0  0  0  0  0  0  0  0
   -6.6650   18.2690  -32.3040 C   0  0  0  0  0  0  0  0  0  0  0  0
   -5.7490   20.5420  -31.7300 C   0  0  0  0  0  0  0  0  0  0  0  0
   -5.9670   21.8910  -31.4420 C   0  0  0  0  0  0  0  0  0  0  0  0
   -3.2561   24.8900  -25.0815 H   0  0  0  0  0  0  0  0  0  0  0  0
   -3.7215   25.7412  -26.5934 H   0  0  0  0  0  0  0  0  0  0  0  0
   -2.3281   24.6076  -26.5934 H   0  0  0  0  0  0  0  0  0  0  0  0
    0.0006   26.7488  -25.3984 H   0  0  0  0  0  0  0  0  0  0  0  0
   -0.5272   25.0264  -25.3842 H   0  0  0  0  0  0  0  0  0  0  0  0
    1.5728   25.3423  -27.5581 H   0  0  0  0  0  0  0  0  0  0  0  0
    0.5602   24.1794  -26.6304 H   0  0  0  0  0  0  0  0  0  0  0  0
   -0.0444   21.4087  -29.1205 H   0  0  0  0  0  0  0  0  0  0  0  0
   -0.9644   21.0417  -30.6190 H   0  0  0  0  0  0  0  0  0  0  0  0
    0.2678   22.3487  -30.6190 H   0  0  0  0  0  0  0  0  0  0  0  0
   -3.1105   20.8548  -28.1008 H   0  0  0  0  0  0  0  0  0  0  0  0
   -4.0381   20.5353  -29.6055 H   0  0  0  0  0  0  0  0  0  0  0  0
   -2.2479   20.3874  -29.6055 H   0  0  0  0  0  0  0  0  0  0  0  0
   -3.4787   22.9418  -27.5255 H   0  0  0  0  0  0  0  0  0  0  0  0
   -3.5774   24.3225  -28.6703 H   0  0  0  0  0  0  0  0  0  0  0  0
   -4.8577   23.0626  -28.6703 H   0  0  0  0  0  0  0  0  0  0  0  0
   -3.1330   24.9380  -30.9540 H   0  0  0  0  0  0  0  0  0  0  0  0
   -7.9386   24.5055  -31.1452 H   0  0  0  0  0  0  0  0  0  0  0  0
   -9.3522   22.1133  -31.8184 H   0  0  0  0  0  0  0  0  0  0  0  0
   -9.0298   19.6582  -32.2770 H   0  0  0  0  0  0  0  0  0  0  0  0
   -6.5932   17.7329  -31.3462 H   0  0  0  0  0  0  0  0  0  0  0  0
   -7.5192   17.8810  -32.8783 H   0  0  0  0  0  0  0  0  0  0  0  0
   -5.7388   18.1194  -32.8783 H   0  0  0  0  0  0  0  0  0  0  0  0
   -4.7333   20.1200  -31.7124 H   0  0  0  0  0  0  0  0  0  0  0  0
  1  2  1  0
  2  3  1  0
  3  4  1  0
  4  5  1  0
  5  6  1  0
  6  7  1  0
  7  8  2  0
  7  9  1  0
  9 10  1  0
  9 11  1  0
 11 12  1  0
 11 13  1  0
 11 14  1  0
 14 15  2  0
 14 16  1  0
 16 17  1  0
 17 18  1  0
 18 19  1  0
 18 20  2  0
 17 21  2  0
 21 22  1  0
 22 23  2  0
 23 24  1  0
 24 25  2  0
 25 26  1  0
 25 27  1  0
 27 28  2  0
 28 16  1  0
 28 22  1  0
  1 29  1  0
  1 30  1  0
  1 31  1  0
  3 32  1  0
  3 33  1  0
  5 34  1  0
  5 35  1  0
 10 36  1  0
 10 37  1  0
 10 38  1  0
 12 39  1  0
 12 40  1  0
 12 41  1  0
 13 42  1  0
 13 43  1  0
 13 44  1  0
 19 45  1  0
 21 46  1  0
 23 47  1  0
 24 48  1  0
 26 49  1  0
 26 50  1  0
 26 51  1  0
 27 52  1  0
M  CHG  1  19  -1
M  END
>  <UniqueID>  (14) 
14

>  <SMILES>  (14) 
COCOCOC(=O)N(C)C(C)(C)C(=O)n1c(C([NH-])=O)cc2ccc(C)cc21

>  <Energy>  (14) 
98.18234119591311

>  <Genealogy>  (14) 
COCOCOC(=O)N(C)C(C)(C)C(=O)n1c(C([NH-])=O)cc2ccc(C)cc21 (protonated)
COCOCOC(=O)N(C)C(C)(C)C(=O)n1c(C([NH-])=O)cc2ccc(C)cc21 (3D coordinates assigned)
COCOCOC(=O)N(C)C(C)(C)C(=O)n1c(C([NH-])=O)cc2ccc(C)cc21 (optimized conformer: 98.18234119591311 kcal/mol)

>  <smiles>  (14) 
COCOCOC(=O)N(C)C(C)(C)C(=O)n1c(C(N)=O)cc2ccc(C)cc21

>  <score_type>  (14) 
oracle

>  <origin>  (14) 
adg

>  <m_score__min__energy>  (14) 
-10.779999999999999

>  <m_primary>  (14) 
energy

$$$$
15:0
     RDKit          3D

 44 45  0  0  0  0  0  0  0  0999 V2000
   -1.2240   26.4350  -28.0310 C   0  0  0  0  0  0  0  0  0  0  0  0
   -1.5570   25.4220  -29.0200 N   0  0  0  0  0  0  0  0  0  0  0  0
   -0.8690   24.1710  -29.1080 C   0  0  0  0  0  0  0  0  0  0  0  0
    0.3770   24.1150  -28.9260 O   0  0  0  0  0  0  0  0  0  0  0  0
   -1.6360   22.9280  -29.4140 C   0  0  0  0  0  0  0  0  0  0  0  0
   -2.9520   23.2790  -29.8260 O   0  0  0  0  0  0  0  0  0  0  0  0
   -3.5910   22.6760  -30.9130 C   0  0  0  0  0  0  0  0  0  0  0  0
   -2.9260   22.0010  -31.7460 O   0  0  0  0  0  0  0  0  0  0  0  0
   -5.0140   22.8120  -31.0690 N   0  0  0  0  0  0  0  0  0  0  0  0
   -5.7780   23.9100  -30.8060 C   0  0  0  0  0  0  0  0  0  0  0  0
   -5.2760   25.2580  -30.4730 C   0  0  0  0  0  0  0  0  0  0  0  0
   -3.9630   25.6680  -30.8490 N   0  0  0  0  0  0  0  0  0  0  0  0
   -6.0330   26.0780  -29.8880 O   0  0  0  0  0  0  0  0  0  0  0  0
   -7.1300   23.6160  -30.9690 C   0  0  0  0  0  0  0  0  0  0  0  0
   -7.1730   22.2950  -31.3520 C   0  0  0  0  0  0  0  0  0  0  0  0
   -8.2660   21.4810  -31.6330 C   0  0  0  0  0  0  0  0  0  0  0  0
   -8.0190   20.1410  -31.9730 C   0  0  0  0  0  0  0  0  0  0  0  0
   -6.6950   19.6420  -32.0250 C   0  0  0  0  0  0  0  0  0  0  0  0
   -6.4440   18.2700  -32.3810 N   0  0  0  0  0  0  0  0  0  0  0  0
   -6.1620   17.3210  -31.3010 C   0  0  0  0  0  0  0  0  0  0  0  0
   -6.4870   17.7950  -33.7810 C   0  0  1  0  0  0  0  0  0  0  0  0
   -5.4950   18.5750  -34.6550 C   0  0  0  0  0  0  0  0  0  0  0  0
   -6.2750   16.3060  -33.8790 C   0  0  0  0  0  0  0  0  0  0  0  0
   -7.2170   15.5370  -34.2100 O   0  0  0  0  0  0  0  0  0  0  0  0
   -5.0050   15.7790  -33.6780 O   0  0  0  0  0  0  0  0  0  0  0  0
   -5.6120   20.4950  -31.7230 C   0  0  0  0  0  0  0  0  0  0  0  0
   -5.8840   21.8310  -31.4040 C   0  0  0  0  0  0  0  0  0  0  0  0
   -1.3603   26.0204  -27.0213 H   0  0  0  0  0  0  0  0  0  0  0  0
   -0.1767   26.7449  -28.1619 H   0  0  0  0  0  0  0  0  0  0  0  0
   -1.8832   27.3059  -28.1619 H   0  0  0  0  0  0  0  0  0  0  0  0
   -1.1332   22.3749  -30.2210 H   0  0  0  0  0  0  0  0  0  0  0  0
   -1.6867   22.2949  -28.5159 H   0  0  0  0  0  0  0  0  0  0  0  0
   -3.1200   25.2880  -30.3640 H   0  0  0  0  0  0  0  0  0  0  0  0
   -7.9824   24.2957  -30.8226 H   0  0  0  0  0  0  0  0  0  0  0  0
   -9.2921   21.8750  -31.5901 H   0  0  0  0  0  0  0  0  0  0  0  0
   -8.8623   19.4726  -32.2011 H   0  0  0  0  0  0  0  0  0  0  0  0
   -6.3092   17.8163  -30.3299 H   0  0  0  0  0  0  0  0  0  0  0  0
   -6.8435   16.4613  -31.3811 H   0  0  0  0  0  0  0  0  0  0  0  0
   -5.1216   16.9729  -31.3811 H   0  0  0  0  0  0  0  0  0  0  0  0
   -7.4978   17.9915  -34.1677 H   0  0  0  0  0  0  0  0  0  0  0  0
   -4.7939   19.1263  -34.0112 H   0  0  0  0  0  0  0  0  0  0  0  0
   -4.9350   17.8728  -35.2901 H   0  0  0  0  0  0  0  0  0  0  0  0
   -6.0453   19.2849  -35.2901 H   0  0  0  0  0  0  0  0  0  0  0  0
   -4.5783   20.1191  -31.7379 H   0  0  0  0  0  0  0  0  0  0  0  0
  1  2  1  0
  2  3  1  0
  3  4  2  0
  3  5  1  0
  5  6  1  0
  6  7  1  0
  7  8  2  0
  7  9  1  0
  9 10  1  0
 10 11  1  0
 11 12  1  0
 11 13  2  0
 10 14  2  0
 14 15  1  0
 15 16  2  0
 16 17  1  0
 17 18  2  0
 18 19  1  0
 19 20  1  0
 19 21  1  0
 21 22  1  0
 21 23  1  0
 23 24  2  0
 23 25  1  0
 18 26  1  0
 26 27  2  0
 27  9  1  0
 27 15  1  0
  1 28  1  0
  1 29  1  0
  1 30  1  0
  5 31  1  0
  5 32  1  0
 12 33  1  0
 14 34  1  0
 16 35  1  0
 17 36  1  0
 20 37  1  0
 20 38  1  0
 20 39  1  0
 21 40  1  6
 22 41  1  0
 22 42  1  0
 22 43  1  0
 26 44  1  0
M  CHG  3   2  -1  12  -1  25  -1
M  END
>  <UniqueID>  (15) 
15

>  <SMILES>  (15) 
C[N-]C(=O)COC(=O)n1c(C([NH-])=O)cc2ccc(N(C)[C@@H](C)C(=O)[O-])cc21

>  <Energy>  (15) 
81.13411277881667

>  <Genealogy>  (15) 
C[N-]C(=O)COC(=O)n1c(C([NH-])=O)cc2ccc(N(C)C(C)C(=O)[O-])cc21 (protonated)
C[N-]C(=O)COC(=O)n1c(C([NH-])=O)cc2ccc(N(C)[C@@H](C)C(=O)[O-])cc21 (chirality)
C[N-]C(=O)COC(=O)n1c(C([NH-])=O)cc2ccc(N(C)[C@@H](C)C(=O)[O-])cc21 (3D coordinates assigned)
C[N-]C(=O)COC(=O)n1c(C([NH-])=O)cc2ccc(N(C)[C@@H](C)C(=O)[O-])cc21 (optimized conformer: 81.13411277881667 kcal/mol)

>  <smiles>  (15) 
CNC(=O)COC(=O)n1c(C(N)=O)cc2ccc(N(C)C(C)C(=O)O)cc21

>  <score_type>  (15) 
oracle

>  <origin>  (15) 
adg

>  <m_score__min__energy>  (15) 
-12.06

>  <m_primary>  (15) 
energy

$$$$
16:0
     RDKit          3D

 37 38  0  0  0  0  0  0  0  0999 V2000
   -4.2240   22.9940  -27.4830 C   0  0  0  0  0  0  0  0  0  0  0  0
   -3.1210   22.7720  -28.4240 N   0  0  0  0  0  0  0  0  0  0  0  0
   -1.7720   23.2160  -28.0430 C   0  0  0  0  0  0  0  0  0  0  0  0
   -1.3030   24.3250  -28.9350 C   0  0  0  0  0  0  0  0  0  0  0  0
   -0.1060   24.3710  -29.3260 O   0  0  0  0  0  0  0  0  0  0  0  0
   -2.2070   25.2820  -29.3820 O   0  0  0  0  0  0  0  0  0  0  0  0
   -3.3040   21.9770  -29.6190 C   0  0  0  0  0  0  0  0  0  0  0  0
   -3.0500   20.7410  -29.5850 O   0  0  0  0  0  0  0  0  0  0  0  0
   -3.7670   22.5550  -30.9010 C   0  0  0  0  0  0  0  0  0  0  0  0
   -2.9400   22.8960  -31.7870 O   0  0  0  0  0  0  0  0  0  0  0  0
   -5.1720   22.6710  -31.1750 N   0  0  0  0  0  0  0  0  0  0  0  0
   -5.9750   23.7480  -30.9430 C   0  0  0  0  0  0  0  0  0  0  0  0
   -5.5250   25.0850  -30.4990 C   0  0  0  0  0  0  0  0  0  0  0  0
   -4.1700   25.5090  -30.6570 N   0  0  0  0  0  0  0  0  0  0  0  0
   -6.3670   25.8900  -30.0190 O   0  0  0  0  0  0  0  0  0  0  0  0
   -7.3050   23.4350  -31.2180 C   0  0  0  0  0  0  0  0  0  0  0  0
   -7.2910   22.1240  -31.6380 C   0  0  0  0  0  0  0  0  0  0  0  0
   -8.3410   21.2940  -32.0160 C   0  0  0  0  0  0  0  0  0  0  0  0
   -8.0400   19.9670  -32.3690 C   0  0  0  0  0  0  0  0  0  0  0  0
   -6.7030   19.4930  -32.3340 C   0  0  0  0  0  0  0  0  0  0  0  0
   -6.4140   18.0520  -32.6660 C   0  0  0  0  0  0  0  0  0  0  0  0
   -5.2710   17.9350  -33.4400 F   0  0  0  0  0  0  0  0  0  0  0  0
   -6.2360   17.3410  -31.4930 F   0  0  0  0  0  0  0  0  0  0  0  0
   -7.4720   17.5030  -33.3690 F   0  0  0  0  0  0  0  0  0  0  0  0
   -5.6660   20.3620  -31.9190 C   0  0  0  0  0  0  0  0  0  0  0  0
   -5.9930   21.6850  -31.6000 C   0  0  0  0  0  0  0  0  0  0  0  0
   -3.8475   22.9182  -26.4522 H   0  0  0  0  0  0  0  0  0  0  0  0
   -4.6487   23.9956  -27.6455 H   0  0  0  0  0  0  0  0  0  0  0  0
   -5.0031   22.2346  -27.6455 H   0  0  0  0  0  0  0  0  0  0  0  0
   -1.7908   23.5737  -27.0029 H   0  0  0  0  0  0  0  0  0  0  0  0
   -1.0804   22.3666  -28.1444 H   0  0  0  0  0  0  0  0  0  0  0  0
   -3.8690   26.4420  -30.2970 H   0  0  0  0  0  0  0  0  0  0  0  0
   -3.4890   24.9540  -31.2210 H   0  0  0  0  0  0  0  0  0  0  0  0
   -8.1796   24.0949  -31.1203 H   0  0  0  0  0  0  0  0  0  0  0  0
   -9.3763   21.6649  -32.0381 H   0  0  0  0  0  0  0  0  0  0  0  0
   -8.8498   19.2886  -32.6757 H   0  0  0  0  0  0  0  0  0  0  0  0
   -4.6275   20.0061  -31.8488 H   0  0  0  0  0  0  0  0  0  0  0  0
  1  2  1  0
  2  3  1  0
  3  4  1  0
  4  5  2  0
  4  6  1  0
  2  7  1  0
  7  8  2  0
  7  9  1  0
  9 10  2  0
  9 11  1  0
 11 12  1  0
 12 13  1  0
 13 14  1  0
 13 15  2  0
 12 16  2  0
 16 17  1  0
 17 18  2  0
 18 19  1  0
 19 20  2  0
 20 21  1  0
 21 22  1  0
 21 23  1  0
 21 24  1  0
 20 25  1  0
 25 26  2  0
 26 11  1  0
 26 17  1  0
  1 27  1  0
  1 28  1  0
  1 29  1  0
  3 30  1  0
  3 31  1  0
 14 32  1  0
 14 33  1  0
 16 34  1  0
 18 35  1  0
 19 36  1  0
 25 37  1  0
M  CHG  1   6  -1
M  END
>  <UniqueID>  (16) 
16

>  <SMILES>  (16) 
CN(CC(=O)[O-])C(=O)C(=O)n1c(C(N)=O)cc2ccc(C(F)(F)F)cc21

>  <Energy>  (16) 
78.10838748394643

>  <Genealogy>  (16) 
CN(CC(=O)[O-])C(=O)C(=O)n1c(C(N)=O)cc2ccc(C(F)(F)F)cc21 (protonated)
CN(CC(=O)[O-])C(=O)C(=O)n1c(C(N)=O)cc2ccc(C(F)(F)F)cc21 (3D coordinates assigned)
CN(CC(=O)[O-])C(=O)C(=O)n1c(C(N)=O)cc2ccc(C(F)(F)F)cc21 (optimized conformer: 78.10838748394643 kcal/mol)

>  <smiles>  (16) 
CN(CC(=O)O)C(=O)C(=O)n1c(C(N)=O)cc2ccc(C(F)(F)F)cc21

>  <score_type>  (16) 
oracle

>  <origin>  (16) 
adg

>  <m_score__min__energy>  (16) 
-10.5

>  <m_primary>  (16) 
energy

$$$$
17:0
     RDKit          3D

 30 31  0  0  0  0  0  0  0  0999 V2000
   -3.9000   25.6740  -30.8410 N   0  0  0  0  0  0  0  0  0  0  0  0
   -5.2180   25.2530  -30.5010 C   0  0  0  0  0  0  0  0  0  0  0  0
   -5.9050   25.9530  -29.7100 O   0  0  0  0  0  0  0  0  0  0  0  0
   -5.7670   23.9810  -31.0150 C   0  0  0  0  0  0  0  0  0  0  0  0
   -7.1320   23.7410  -31.1620 C   0  0  0  0  0  0  0  0  0  0  0  0
   -7.2310   22.4320  -31.5740 C   0  0  0  0  0  0  0  0  0  0  0  0
   -8.3570   21.6730  -31.8810 C   0  0  0  0  0  0  0  0  0  0  0  0
   -8.1620   20.3500  -32.3120 C   0  0  0  0  0  0  0  0  0  0  0  0
   -6.8560   19.8230  -32.4320 C   0  0  0  0  0  0  0  0  0  0  0  0
   -6.6680   18.4700  -32.8870 C   0  0  0  0  0  0  0  0  0  0  0  0
   -6.5060   17.3380  -33.2680 C   0  0  0  0  0  0  0  0  0  0  0  0
   -6.3080   15.9590  -33.7270 C   0  0  0  0  0  0  0  0  0  0  0  0
   -5.3210   15.2150  -32.8260 C   0  0  0  0  0  0  0  0  0  0  0  0
   -5.1770   15.8740  -31.5960 O   0  0  0  0  0  0  0  0  0  0  0  0
   -5.7360   20.6160  -32.1130 C   0  0  0  0  0  0  0  0  0  0  0  0
   -5.9600   21.9250  -31.6690 C   0  0  0  0  0  0  0  0  0  0  0  0
   -5.0480   22.8650  -31.3320 N   0  0  0  0  0  0  0  0  0  0  0  0
   -3.6200   22.7230  -31.3920 C   0  0  0  0  0  0  0  0  0  0  0  0
   -2.8980   23.1450  -30.4500 O   0  0  0  0  0  0  0  0  0  0  0  0
   -3.0180   22.1460  -32.5040 O   0  0  0  0  0  0  0  0  0  0  0  0
   -3.0680   25.2940  -30.3370 H   0  0  0  0  0  0  0  0  0  0  0  0
   -7.9558   24.4484  -30.9859 H   0  0  0  0  0  0  0  0  0  0  0  0
   -9.3682   22.0961  -31.7890 H   0  0  0  0  0  0  0  0  0  0  0  0
   -9.0304   19.7210  -32.5574 H   0  0  0  0  0  0  0  0  0  0  0  0
   -7.2742   15.4333  -33.7125 H   0  0  0  0  0  0  0  0  0  0  0  0
   -5.8977   15.9859  -34.7473 H   0  0  0  0  0  0  0  0  0  0  0  0
   -5.6931   14.1953  -32.6477 H   0  0  0  0  0  0  0  0  0  0  0  0
   -4.3418   15.1825  -33.3260 H   0  0  0  0  0  0  0  0  0  0  0  0
   -5.4260   15.2210  -30.8890 H   0  0  0  0  0  0  0  0  0  0  0  0
   -4.7150   20.2183  -32.2099 H   0  0  0  0  0  0  0  0  0  0  0  0
  1  2  1  0
  2  3  2  0
  2  4  1  0
  4  5  2  0
  5  6  1  0
  6  7  2  0
  7  8  1  0
  8  9  2  0
  9 10  1  0
 10 11  3  0
 11 12  1  0
 12 13  1  0
 13 14  1  0
  9 15  1  0
 15 16  2  0
 16 17  1  0
 17 18  1  0
 18 19  2  0
 18 20  1  0
 17  4  1  0
 16  6  1  0
  1 21  1  0
  5 22  1  0
  7 23  1  0
  8 24  1  0
 12 25  1  0
 12 26  1  0
 13 27  1  0
 13 28  1  0
 14 29  1  0
 15 30  1  0
M  CHG  2   1  -1  20  -1
M  END
>  <UniqueID>  (17) 
17

>  <SMILES>  (17) 
[NH-]C(=O)c1cc2ccc(C#CCCO)cc2n1C(=O)[O-]

>  <Energy>  (17) 
63.620029148977075

>  <Genealogy>  (17) 
[NH-]C(=O)c1cc2ccc(C#CCCO)cc2n1C(=O)[O-] (protonated)
[NH-]C(=O)c1cc2ccc(C#CCCO)cc2n1C(=O)[O-] (3D coordinates assigned)
[NH-]C(=O)c1cc2ccc(C#CCCO)cc2n1C(=O)[O-] (optimized conformer: 63.620029148977075 kcal/mol)

>  <smiles>  (17) 
NC(=O)c1cc2ccc(C#CCCO)cc2n1C(=O)O

>  <score_type>  (17) 
oracle

>  <origin>  (17) 
adg

>  <m_score__min__energy>  (17) 
-10.48

>  <m_primary>  (17) 
energy

$$$$
18:0
     RDKit          3D

 47 49  0  0  0  0  0  0  0  0999 V2000
   -9.1140   18.6410  -31.2680 C   0  0  0  0  0  0  0  0  0  0  0  0
   -9.1620   19.8800  -32.1680 C   0  0  2  0  0  0  0  0  0  0  0  0
   -7.9420   19.9530  -33.1100 C   0  0  0  0  0  0  0  0  0  0  0  0
   -6.7410   20.3740  -32.3860 N   0  0  0  0  0  0  0  0  0  0  0  0
   -5.4260   20.0380  -32.8820 C   0  0  0  0  0  0  0  0  0  0  0  0
   -5.2630   19.0110  -33.8510 C   0  0  0  0  0  0  0  0  0  0  0  0
   -3.9880   18.6670  -34.3290 C   0  0  0  0  0  0  0  0  0  0  0  0
   -2.8930   19.3660  -33.8320 C   0  0  0  0  0  0  0  0  0  0  0  0
   -1.5510   19.2170  -34.0990 C   0  0  0  0  0  0  0  0  0  0  0  0
   -0.9090   20.1670  -33.3070 C   0  0  0  0  0  0  0  0  0  0  0  0
    0.5480   20.4050  -33.3380 C   0  0  0  0  0  0  0  0  0  0  0  0
    1.3480   20.0540  -32.2110 N   0  0  0  0  0  0  0  0  0  0  0  0
    1.1030   20.8840  -34.3620 O   0  0  0  0  0  0  0  0  0  0  0  0
   -1.8190   20.8740  -32.5780 N   0  0  0  0  0  0  0  0  0  0  0  0
   -1.5610   21.8850  -31.5920 C   0  0  0  0  0  0  0  0  0  0  0  0
   -0.4930   21.8480  -30.9210 O   0  0  0  0  0  0  0  0  0  0  0  0
   -2.4870   22.9150  -31.3950 O   0  0  0  0  0  0  0  0  0  0  0  0
   -3.3670   22.9780  -30.2770 C   0  0  0  0  0  0  0  0  0  0  0  0
   -3.4980   24.6890  -29.6720 P   0  0  0  0  0  0  0  0  0  0  0  0
   -4.3420   24.7140  -28.4180 O   0  0  0  0  0  0  0  0  0  0  0  0
   -1.9610   25.3030  -29.3240 O   0  0  0  0  0  0  0  0  0  0  0  0
   -4.2290   25.6480  -30.8580 O   0  0  0  0  0  0  0  0  0  0  0  0
   -3.0280   20.3710  -32.9120 C   0  0  0  0  0  0  0  0  0  0  0  0
   -4.2840   20.7240  -32.4040 C   0  0  0  0  0  0  0  0  0  0  0  0
   -6.8970   21.1370  -31.1460 C   0  0  0  0  0  0  0  0  0  0  0  0
   -8.2590   21.8600  -31.1050 C   0  0  1  0  0  0  0  0  0  0  0  0
   -8.2770   23.0940  -32.0150 C   0  0  0  0  0  0  0  0  0  0  0  0
   -9.3920   21.0420  -31.3780 O   0  0  0  0  0  0  0  0  0  0  0  0
   -9.1261   18.9532  -30.2133 H   0  0  0  0  0  0  0  0  0  0  0  0
   -9.9882   18.0053  -31.4723 H   0  0  0  0  0  0  0  0  0  0  0  0
   -8.1932   18.0749  -31.4723 H   0  0  0  0  0  0  0  0  0  0  0  0
  -10.0170   19.8091  -32.8565 H   0  0  0  0  0  0  0  0  0  0  0  0
   -7.7671   18.9596  -33.5489 H   0  0  0  0  0  0  0  0  0  0  0  0
   -8.1523   20.6920  -33.8971 H   0  0  0  0  0  0  0  0  0  0  0  0
   -6.1472   18.4786  -34.2316 H   0  0  0  0  0  0  0  0  0  0  0  0
   -3.8592   17.8684  -35.0744 H   0  0  0  0  0  0  0  0  0  0  0  0
   -1.0843   18.5002  -34.7907 H   0  0  0  0  0  0  0  0  0  0  0  0
    1.1390   20.4390  -31.2630 H   0  0  0  0  0  0  0  0  0  0  0  0
   -4.3633   22.6226  -30.5789 H   0  0  0  0  0  0  0  0  0  0  0  0
   -2.9685   22.3433  -29.4718 H   0  0  0  0  0  0  0  0  0  0  0  0
   -4.3812   21.5181  -31.6490 H   0  0  0  0  0  0  0  0  0  0  0  0
   -6.8298   20.4491  -30.2903 H   0  0  0  0  0  0  0  0  0  0  0  0
   -6.0992   21.8929  -31.0988 H   0  0  0  0  0  0  0  0  0  0  0  0
   -8.3567   22.1688  -30.0538 H   0  0  0  0  0  0  0  0  0  0  0  0
   -8.2903   24.0045  -31.3979 H   0  0  0  0  0  0  0  0  0  0  0  0
   -7.3788   23.0945  -32.6500 H   0  0  0  0  0  0  0  0  0  0  0  0
   -9.1749   23.0683  -32.6500 H   0  0  0  0  0  0  0  0  0  0  0  0
  1  2  1  0
  2  3  1  0
  3  4  1  0
  4  5  1  0
  5  6  2  0
  6  7  1  0
  7  8  2  0
  8  9  1  0
  9 10  2  0
 10 11  1  0
 11 12  1  0
 11 13  2  0
 10 14  1  0
 14 15  1  0
 15 16  2  0
 15 17  1  0
 17 18  1  0
 18 19  1  0
 19 20  2  0
 19 21  1  0
 19 22  1  0
 14 23  1  0
 23 24  2  0
  4 25  1  0
 25 26  1  0
 26 27  1  0
 26 28  1  0
 28  2  1  0
 24  5  1  0
 23  8  1  0
  1 29  1  0
  1 30  1  0
  1 31  1  0
  2 32  1  6
  3 33  1  0
  3 34  1  0
  6 35  1  0
  7 36  1  0
  9 37  1  0
 12 38  1  0
 18 39  1  0
 18 40  1  0
 24 41  1  0
 25 42  1  0
 25 43  1  0
 26 44  1  1
 27 45  1  0
 27 46  1  0
 27 47  1  0
M  CHG  3  12  -1  21  -1  22  -1
M  END
>  <UniqueID>  (18) 
18

>  <SMILES>  (18) 
C[C@@H]1CN(c2ccc3cc(C([NH-])=O)n(C(=O)OCP(=O)([O-])[O-])c3c2)C[C@@H](C)O1

>  <Energy>  (18) 
92.2508760247885

>  <Genealogy>  (18) 
CC1CN(c2ccc3cc(C([NH-])=O)n(C(=O)OCP(=O)([O-])[O-])c3c2)CC(C)O1 (protonated)
C[C@@H]1CN(c2ccc3cc(C([NH-])=O)n(C(=O)OCP(=O)([O-])[O-])c3c2)C[C@@H](C)O1 (chirality)
C[C@@H]1CN(c2ccc3cc(C([NH-])=O)n(C(=O)OCP(=O)([O-])[O-])c3c2)C[C@@H](C)O1 (3D coordinates assigned)
C[C@@H]1CN(c2ccc3cc(C([NH-])=O)n(C(=O)OCP(=O)([O-])[O-])c3c2)C[C@@H](C)O1 (nonaromatic ring conformer: 92.2508760247885 kcal/mol)

>  <smiles>  (18) 
CC1CN(c2ccc3cc(C(N)=O)n(C(=O)OCP(=O)(O)O)c3c2)CC(C)O1

>  <score_type>  (18) 
oracle

>  <origin>  (18) 
adg

>  <m_score__min__energy>  (18) 
-14.75

>  <m_primary>  (18) 
energy

$$$$
19:0
     RDKit          3D

 42 43  0  0  0  0  0  0  0  0999 V2000
   -8.1020   18.1900  -32.6310 C   0  0  0  0  0  0  0  0  0  0  0  0
   -7.9590   19.6420  -32.2860 C   0  0  0  0  0  0  0  0  0  0  0  0
   -9.0920   20.4930  -32.3010 C   0  0  0  0  0  0  0  0  0  0  0  0
   -8.9760   21.8470  -31.9420 C   0  0  0  0  0  0  0  0  0  0  0  0
   -7.7240   22.3130  -31.5560 C   0  0  0  0  0  0  0  0  0  0  0  0
   -7.3270   23.5770  -31.1810 C   0  0  0  0  0  0  0  0  0  0  0  0
   -5.9690   23.4660  -30.9000 C   0  0  0  0  0  0  0  0  0  0  0  0
   -5.1610   24.5730  -30.3550 C   0  0  0  0  0  0  0  0  0  0  0  0
   -5.1420   24.8490  -28.9550 N   0  0  0  0  0  0  0  0  0  0  0  0
   -4.5360   25.3300  -31.1440 O   0  0  0  0  0  0  0  0  0  0  0  0
   -5.5360   22.1910  -31.1050 N   0  0  0  0  0  0  0  0  0  0  0  0
   -4.1840   21.7050  -31.0570 C   0  0  0  0  0  0  0  0  0  0  0  0
   -3.9370   20.5010  -31.3360 O   0  0  0  0  0  0  0  0  0  0  0  0
   -3.1130   22.6000  -30.7370 N   0  0  0  0  0  0  0  0  0  0  0  0
   -2.1460   22.3170  -29.6820 C   0  0  0  0  0  0  0  0  0  0  0  0
   -2.5200   23.0670  -28.3900 C   0  0  0  0  0  0  0  0  0  0  0  0
   -2.0130   24.5370  -28.2830 C   0  0  0  0  0  0  0  0  0  0  0  0
   -0.4810   24.5950  -28.4260 C   0  0  0  0  0  0  0  0  0  0  0  0
   -2.4240   25.1920  -26.9500 C   0  0  0  0  0  0  0  0  0  0  0  0
   -2.5550   25.2810  -29.3490 O   0  0  0  0  0  0  0  0  0  0  0  0
   -6.6230   21.4950  -31.5040 C   0  0  0  0  0  0  0  0  0  0  0  0
   -6.7070   20.1470  -31.8730 C   0  0  0  0  0  0  0  0  0  0  0  0
   -8.1604   17.5974  -31.7061 H   0  0  0  0  0  0  0  0  0  0  0  0
   -9.0191   18.0417  -33.2200 H   0  0  0  0  0  0  0  0  0  0  0  0
   -7.2315   17.8656  -33.2200 H   0  0  0  0  0  0  0  0  0  0  0  0
  -10.0719   20.0900  -32.5965 H   0  0  0  0  0  0  0  0  0  0  0  0
   -9.8482   22.5169  -31.9656 H   0  0  0  0  0  0  0  0  0  0  0  0
   -7.9503   24.4811  -31.1172 H   0  0  0  0  0  0  0  0  0  0  0  0
   -5.7490   24.3200  -28.2920 H   0  0  0  0  0  0  0  0  0  0  0  0
   -4.6150   25.6720  -28.5910 H   0  0  0  0  0  0  0  0  0  0  0  0
   -2.1350   21.2354  -29.4821 H   0  0  0  0  0  0  0  0  0  0  0  0
   -1.1518   22.6525  -30.0122 H   0  0  0  0  0  0  0  0  0  0  0  0
   -3.6174   23.0831  -28.3157 H   0  0  0  0  0  0  0  0  0  0  0  0
   -2.0220   22.5211  -27.5751 H   0  0  0  0  0  0  0  0  0  0  0  0
   -0.0199   24.6125  -27.4274 H   0  0  0  0  0  0  0  0  0  0  0  0
   -0.1303   23.7095  -28.9764 H   0  0  0  0  0  0  0  0  0  0  0  0
   -0.1983   25.5045  -28.9764 H   0  0  0  0  0  0  0  0  0  0  0  0
   -2.0450   24.5880  -26.1124 H   0  0  0  0  0  0  0  0  0  0  0  0
   -1.9994   26.2052  -26.8930 H   0  0  0  0  0  0  0  0  0  0  0  0
   -3.5210   25.2504  -26.8930 H   0  0  0  0  0  0  0  0  0  0  0  0
   -2.7760   24.6500  -30.0840 H   0  0  0  0  0  0  0  0  0  0  0  0
   -5.8197   19.4976  -31.8419 H   0  0  0  0  0  0  0  0  0  0  0  0
  1  2  1  0
  2  3  2  0
  3  4  1  0
  4  5  2  0
  5  6  1  0
  6  7  2  0
  7  8  1  0
  8  9  1  0
  8 10  2  0
  7 11  1  0
 11 12  1  0
 12 13  2  0
 12 14  1  0
 14 15  1  0
 15 16  1  0
 16 17  1  0
 17 18  1  0
 17 19  1  0
 17 20  1  0
 11 21  1  0
 21 22  2  0
 22  2  1  0
 21  5  1  0
  1 23  1  0
  1 24  1  0
  1 25  1  0
  3 26  1  0
  4 27  1  0
  6 28  1  0
  9 29  1  0
  9 30  1  0
 15 31  1  0
 15 32  1  0
 16 33  1  0
 16 34  1  0
 18 35  1  0
 18 36  1  0
 18 37  1  0
 19 38  1  0
 19 39  1  0
 19 40  1  0
 20 41  1  0
 22 42  1  0
M  CHG  1  14  -1
M  END
>  <UniqueID>  (19) 
19

>  <SMILES>  (19) 
Cc1ccc2cc(C(N)=O)n(C(=O)[N-]CCC(C)(C)O)c2c1

>  <Energy>  (19) 
76.37408248272061

>  <Genealogy>  (19) 
Cc1ccc2cc(C(N)=O)n(C(=O)[N-]CCC(C)(C)O)c2c1 (protonated)
Cc1ccc2cc(C(N)=O)n(C(=O)[N-]CCC(C)(C)O)c2c1 (3D coordinates assigned)
Cc1ccc2cc(C(N)=O)n(C(=O)[N-]CCC(C)(C)O)c2c1 (optimized conformer: 76.37408248272061 kcal/mol)

>  <smiles>  (19) 
Cc1ccc2cc(C(N)=O)n(C(=O)NCCC(C)(C)O)c2c1

>  <score_type>  (19) 
oracle

>  <origin>  (19) 
adg

>  <m_score__min__energy>  (19) 
-9.4900000000000002

>  <m_primary>  (19) 
energy

$$$$
20:0
     RDKit          3D

 48 50  0  0  0  0  0  0  0  0999 V2000
   -0.7690   21.1360  -33.4150 C   0  0  0  0  0  0  0  0  0  0  0  0
   -1.5990   21.4620  -32.3080 O   0  0  0  0  0  0  0  0  0  0  0  0
   -2.9190   21.8960  -32.4590 C   0  0  0  0  0  0  0  0  0  0  0  0
   -3.4770   21.8700  -33.5920 O   0  0  0  0  0  0  0  0  0  0  0  0
   -3.6650   22.3720  -31.2850 C   0  0  0  0  0  0  0  0  0  0  0  0
   -3.0460   22.6030  -30.2110 O   0  0  0  0  0  0  0  0  0  0  0  0
   -5.0910   22.5400  -31.3320 N   0  0  0  0  0  0  0  0  0  0  0  0
   -5.8190   23.6300  -30.9590 C   0  0  0  0  0  0  0  0  0  0  0  0
   -5.2730   24.8410  -30.3040 C   0  0  0  0  0  0  0  0  0  0  0  0
   -5.7820   25.2870  -29.0450 N   0  0  0  0  0  0  0  0  0  0  0  0
   -4.3330   25.4820  -30.8460 O   0  0  0  0  0  0  0  0  0  0  0  0
   -7.1760   23.4100  -31.1990 C   0  0  0  0  0  0  0  0  0  0  0  0
   -7.2520   22.1410  -31.7260 C   0  0  0  0  0  0  0  0  0  0  0  0
   -8.3560   21.4100  -32.1450 C   0  0  0  0  0  0  0  0  0  0  0  0
   -8.1380   20.1200  -32.6590 C   0  0  0  0  0  0  0  0  0  0  0  0
   -6.8250   19.5760  -32.7500 C   0  0  0  0  0  0  0  0  0  0  0  0
   -6.6030   18.2480  -33.2930 N   0  0  0  0  0  0  0  0  0  0  0  0
   -6.8490   17.0600  -32.4640 C   0  0  0  0  0  0  0  0  0  0  0  0
   -6.0960   18.0490  -34.6590 C   0  0  0  0  0  0  0  0  0  0  0  0
   -5.0480   16.9300  -34.6920 C   0  0  0  0  0  0  0  0  0  0  0  0
   -3.6920   17.5050  -34.7980 N   0  0  0  0  0  0  0  0  0  0  0  0
   -3.6400   18.8570  -34.2250 C   0  0  0  0  0  0  0  0  0  0  0  0
   -2.7300   18.4330  -33.0890 C   0  0  0  0  0  0  0  0  0  0  0  0
   -2.8090   17.0530  -33.7110 C   0  0  0  0  0  0  0  0  0  0  0  0
   -5.7300   20.3630  -32.3080 C   0  0  0  0  0  0  0  0  0  0  0  0
   -5.9810   21.6380  -31.7930 C   0  0  0  0  0  0  0  0  0  0  0  0
    0.1968   20.7566  -33.0500 H   0  0  0  0  0  0  0  0  0  0  0  0
   -1.2591   20.3636  -34.0258 H   0  0  0  0  0  0  0  0  0  0  0  0
   -0.6024   22.0355  -34.0258 H   0  0  0  0  0  0  0  0  0  0  0  0
   -6.6000   24.8240  -28.5940 H   0  0  0  0  0  0  0  0  0  0  0  0
   -5.3640   26.1210  -28.5790 H   0  0  0  0  0  0  0  0  0  0  0  0
   -8.0081   24.1035  -31.0076 H   0  0  0  0  0  0  0  0  0  0  0  0
   -9.3711   21.8282  -32.0766 H   0  0  0  0  0  0  0  0  0  0  0  0
   -8.9962   19.5205  -32.9967 H   0  0  0  0  0  0  0  0  0  0  0  0
   -6.7917   17.3365  -31.4009 H   0  0  0  0  0  0  0  0  0  0  0  0
   -7.8492   16.6592  -32.6853 H   0  0  0  0  0  0  0  0  0  0  0  0
   -6.0902   16.2950  -32.6853 H   0  0  0  0  0  0  0  0  0  0  0  0
   -6.9335   17.7786  -35.3189 H   0  0  0  0  0  0  0  0  0  0  0  0
   -5.6261   18.9830  -35.0008 H   0  0  0  0  0  0  0  0  0  0  0  0
   -5.1202   16.3371  -33.7683 H   0  0  0  0  0  0  0  0  0  0  0  0
   -5.2353   16.2882  -35.5655 H   0  0  0  0  0  0  0  0  0  0  0  0
   -3.1827   19.5983  -34.8968 H   0  0  0  0  0  0  0  0  0  0  0  0
   -4.5855   19.3641  -33.9826 H   0  0  0  0  0  0  0  0  0  0  0  0
   -1.7303   18.8919  -33.0945 H   0  0  0  0  0  0  0  0  0  0  0  0
   -2.9628   18.6269  -32.0316 H   0  0  0  0  0  0  0  0  0  0  0  0
   -1.8376   16.6775  -34.0651 H   0  0  0  0  0  0  0  0  0  0  0  0
   -3.1320   16.2086  -33.0843 H   0  0  0  0  0  0  0  0  0  0  0  0
   -4.7020   19.9766  -32.3696 H   0  0  0  0  0  0  0  0  0  0  0  0
  1  2  1  0
  2  3  1  0
  3  4  2  0
  3  5  1  0
  5  6  2  0
  5  7  1  0
  7  8  1  0
  8  9  1  0
  9 10  1  0
  9 11  2  0
  8 12  2  0
 12 13  1  0
 13 14  2  0
 14 15  1  0
 15 16  2  0
 16 17  1  0
 17 18  1  0
 17 19  1  0
 19 20  1  0
 20 21  1  0
 21 22  1  0
 22 23  1  0
 23 24  1  0
 16 25  1  0
 25 26  2  0
 26  7  1  0
 26 13  1  0
 24 21  1  0
  1 27  1  0
  1 28  1  0
  1 29  1  0
 10 30  1  0
 10 31  1  0
 12 32  1  0
 14 33  1  0
 15 34  1  0
 18 35  1  0
 18 36  1  0
 18 37  1  0
 19 38  1  0
 19 39  1  0
 20 40  1  0
 20 41  1  0
 22 42  1  0
 22 43  1  0
 23 44  1  0
 23 45  1  0
 24 46  1  0
 24 47  1  0
 25 48  1  0
M  END
>  <UniqueID>  (20) 
20

>  <SMILES>  (20) 
COC(=O)C(=O)n1c(C(N)=O)cc2ccc(N(C)CCN3CCC3)cc21

>  <Energy>  (20) 
154.28422675679235

>  <Genealogy>  (20) 
COC(=O)C(=O)n1c(C(N)=O)cc2ccc(N(C)CCN3CCC3)cc21 (3D coordinates assigned)
COC(=O)C(=O)n1c(C(N)=O)cc2ccc(N(C)CCN3CCC3)cc21 (nonaromatic ring conformer: 154.28422675679235 kcal/mol)

>  <smiles>  (20) 
COC(=O)C(=O)n1c(C(N)=O)cc2ccc(N(C)CCN3CCC3)cc21

>  <score_type>  (20) 
oracle

>  <origin>  (20) 
adg

>  <m_score__min__energy>  (20) 
-8.2100000000000009

>  <m_primary>  (20) 
energy

$$$$
21:0
     RDKit          3D

 41 43  0  0  0  0  0  0  0  0999 V2000
   -2.5800   20.8510  -32.3970 C   0  0  0  0  0  0  0  0  0  0  0  0
   -3.3120   22.0420  -32.6570 O   0  0  0  0  0  0  0  0  0  0  0  0
   -3.8860   22.8120  -31.6400 C   0  0  0  0  0  0  0  0  0  0  0  0
   -3.1520   23.4370  -30.8270 O   0  0  0  0  0  0  0  0  0  0  0  0
   -5.3150   22.8790  -31.5140 N   0  0  0  0  0  0  0  0  0  0  0  0
   -6.0530   23.8280  -30.8680 C   0  0  0  0  0  0  0  0  0  0  0  0
   -5.5200   25.0760  -30.2800 C   0  0  0  0  0  0  0  0  0  0  0  0
   -6.1070   25.6380  -29.1040 N   0  0  0  0  0  0  0  0  0  0  0  0
   -4.5590   25.6760  -30.8310 O   0  0  0  0  0  0  0  0  0  0  0  0
   -7.4080   23.5070  -30.9150 C   0  0  0  0  0  0  0  0  0  0  0  0
   -7.4790   22.3270  -31.6180 C   0  0  0  0  0  0  0  0  0  0  0  0
   -8.5850   21.5480  -31.9470 C   0  0  0  0  0  0  0  0  0  0  0  0
   -8.3640   20.3560  -32.6560 C   0  0  0  0  0  0  0  0  0  0  0  0
   -7.0510   19.9670  -33.0280 C   0  0  0  0  0  0  0  0  0  0  0  0
   -6.7990   18.7330  -33.7270 N   0  0  0  0  0  0  0  0  0  0  0  0
   -6.2940   17.4760  -33.1340 C   0  0  0  0  0  0  0  0  0  0  0  0
   -6.4990   17.4510  -31.6090 C   0  0  0  0  0  0  0  0  0  0  0  0
   -6.8400   16.2230  -33.8230 C   0  0  0  0  0  0  0  0  0  0  0  0
   -5.4180   15.8270  -34.2190 C   0  0  0  0  0  0  0  0  0  0  0  0
   -4.8660   17.0800  -33.5450 C   0  0  0  0  0  0  0  0  0  0  0  0
   -5.9550   20.7740  -32.6560 C   0  0  0  0  0  0  0  0  0  0  0  0
   -6.2050   21.9670  -31.9670 C   0  0  0  0  0  0  0  0  0  0  0  0
   -2.4905   20.7054  -31.3103 H   0  0  0  0  0  0  0  0  0  0  0  0
   -3.1068   19.9928  -32.8398 H   0  0  0  0  0  0  0  0  0  0  0  0
   -1.5764   20.9334  -32.8398 H   0  0  0  0  0  0  0  0  0  0  0  0
   -5.7500   26.5410  -28.7200 H   0  0  0  0  0  0  0  0  0  0  0  0
   -6.8680   25.1440  -28.5880 H   0  0  0  0  0  0  0  0  0  0  0  0
   -8.2436   24.0764  -30.4818 H   0  0  0  0  0  0  0  0  0  0  0  0
   -9.6011   21.8568  -31.6603 H   0  0  0  0  0  0  0  0  0  0  0  0
   -9.2178   19.7171  -32.9258 H   0  0  0  0  0  0  0  0  0  0  0  0
   -7.2320   18.6600  -34.6770 H   0  0  0  0  0  0  0  0  0  0  0  0
   -5.5277   17.5695  -31.1065 H   0  0  0  0  0  0  0  0  0  0  0  0
   -7.1666   18.2744  -31.3152 H   0  0  0  0  0  0  0  0  0  0  0  0
   -6.9492   16.4913  -31.3152 H   0  0  0  0  0  0  0  0  0  0  0  0
   -7.3314   15.5129  -33.1415 H   0  0  0  0  0  0  0  0  0  0  0  0
   -7.6296   16.3038  -34.5845 H   0  0  0  0  0  0  0  0  0  0  0  0
   -5.0731   14.8864  -33.7648 H   0  0  0  0  0  0  0  0  0  0  0  0
   -5.1769   15.6144  -35.2710 H   0  0  0  0  0  0  0  0  0  0  0  0
   -4.1935   16.8771  -32.6985 H   0  0  0  0  0  0  0  0  0  0  0  0
   -4.2290   17.7818  -34.1034 H   0  0  0  0  0  0  0  0  0  0  0  0
   -4.9262   20.4724  -32.9020 H   0  0  0  0  0  0  0  0  0  0  0  0
  1  2  1  0
  2  3  1  0
  3  4  2  0
  3  5  1  0
  5  6  1  0
  6  7  1  0
  7  8  1  0
  7  9  2  0
  6 10  2  0
 10 11  1  0
 11 12  2  0
 12 13  1  0
 13 14  2  0
 14 15  1  0
 15 16  1  0
 16 17  1  0
 16 18  1  0
 18 19  1  0
 19 20  1  0
 14 21  1  0
 21 22  2  0
 22  5  1  0
 22 11  1  0
 20 16  1  0
  1 23  1  0
  1 24  1  0
  1 25  1  0
  8 26  1  0
  8 27  1  0
 10 28  1  0
 12 29  1  0
 13 30  1  0
 15 31  1  0
 17 32  1  0
 17 33  1  0
 17 34  1  0
 18 35  1  0
 18 36  1  0
 19 37  1  0
 19 38  1  0
 20 39  1  0
 20 40  1  0
 21 41  1  0
M  END
>  <UniqueID>  (21) 
21

>  <SMILES>  (21) 
COC(=O)n1c(C(N)=O)cc2ccc(NC3(C)CCC3)cc21

>  <Energy>  (21) 
145.40704534132377

>  <Genealogy>  (21) 
COC(=O)n1c(C(N)=O)cc2ccc(NC3(C)CCC3)cc21 (3D coordinates assigned)
COC(=O)n1c(C(N)=O)cc2ccc(NC3(C)CCC3)cc21 (nonaromatic ring conformer: 145.40704534132377 kcal/mol)

>  <smiles>  (21) 
COC(=O)n1c(C(N)=O)cc2ccc(NC3(C)CCC3)cc21

>  <score_type>  (21) 
oracle

>  <origin>  (21) 
adg

>  <m_score__min__energy>  (21) 
-9.2799999999999994

>  <m_primary>  (21) 
energy

$$$$
22:0
     RDKit          3D

 32 33  0  0  0  0  0  0  0  0999 V2000
   -4.7980   26.0800  -30.5190 N   0  0  0  0  0  0  0  0  0  0  0  0
   -5.9050   25.2190  -30.2690 C   0  0  0  0  0  0  0  0  0  0  0  0
   -6.8610   25.6330  -29.5620 O   0  0  0  0  0  0  0  0  0  0  0  0
   -5.9680   23.8680  -30.8690 C   0  0  0  0  0  0  0  0  0  0  0  0
   -7.1340   23.3140  -31.3960 C   0  0  0  0  0  0  0  0  0  0  0  0
   -6.7530   22.1050  -31.9330 C   0  0  0  0  0  0  0  0  0  0  0  0
   -7.5100   21.1320  -32.5800 C   0  0  0  0  0  0  0  0  0  0  0  0
   -6.8530   19.9660  -33.0110 C   0  0  0  0  0  0  0  0  0  0  0  0
   -5.4660   19.8000  -32.7840 C   0  0  0  0  0  0  0  0  0  0  0  0
   -4.8090   18.5970  -33.2210 C   0  0  0  0  0  0  0  0  0  0  0  0
   -4.2560   17.5900  -33.5880 C   0  0  0  0  0  0  0  0  0  0  0  0
   -3.5850   16.3680  -34.0330 C   0  0  0  0  0  0  0  0  0  0  0  0
   -3.7830   16.2080  -35.4080 O   0  0  0  0  0  0  0  0  0  0  0  0
   -4.7280   20.8040  -32.1260 C   0  0  0  0  0  0  0  0  0  0  0  0
   -5.4060   21.9600  -31.7200 C   0  0  0  0  0  0  0  0  0  0  0  0
   -4.9110   23.0310  -31.0640 N   0  0  0  0  0  0  0  0  0  0  0  0
   -3.5620   23.1900  -30.6030 C   0  0  0  0  0  0  0  0  0  0  0  0
   -2.6470   22.4710  -31.0870 O   0  0  0  0  0  0  0  0  0  0  0  0
   -3.2620   24.1370  -29.5700 N   0  0  0  0  0  0  0  0  0  0  0  0
   -1.6190   24.4360  -29.0350 P   0  0  0  0  0  0  0  0  0  0  0  0
   -0.6690   23.5270  -29.7800 O   0  0  0  0  0  0  0  0  0  0  0  0
   -1.5030   24.1310  -27.3760 O   0  0  0  0  0  0  0  0  0  0  0  0
   -1.2110   26.0500  -29.3390 O   0  0  0  0  0  0  0  0  0  0  0  0
   -3.9300   26.0210  -29.9420 H   0  0  0  0  0  0  0  0  0  0  0  0
   -8.1437   23.7503  -31.3850 H   0  0  0  0  0  0  0  0  0  0  0  0
   -8.5881   21.2711  -32.7487 H   0  0  0  0  0  0  0  0  0  0  0  0
   -7.4205   19.1780  -33.5278 H   0  0  0  0  0  0  0  0  0  0  0  0
   -2.5078   16.4426  -33.8229 H   0  0  0  0  0  0  0  0  0  0  0  0
   -4.0013   15.5023  -33.4970 H   0  0  0  0  0  0  0  0  0  0  0  0
   -2.9460   16.5160  -35.8420 H   0  0  0  0  0  0  0  0  0  0  0  0
   -3.6511   20.6832  -31.9369 H   0  0  0  0  0  0  0  0  0  0  0  0
   -4.0390   24.6660  -29.1140 H   0  0  0  0  0  0  0  0  0  0  0  0
  1  2  1  0
  2  3  2  0
  2  4  1  0
  4  5  2  0
  5  6  1  0
  6  7  2  0
  7  8  1  0
  8  9  2  0
  9 10  1  0
 10 11  3  0
 11 12  1  0
 12 13  1  0
  9 14  1  0
 14 15  2  0
 15 16  1  0
 16 17  1  0
 17 18  2  0
 17 19  1  0
 19 20  1  0
 20 21  2  0
 20 22  1  0
 20 23  1  0
 16  4  1  0
 15  6  1  0
  1 24  1  0
  5 25  1  0
  7 26  1  0
  8 27  1  0
 12 28  1  0
 12 29  1  0
 13 30  1  0
 14 31  1  0
 19 32  1  0
M  CHG  3   1  -1  22  -1  23  -1
M  END
>  <UniqueID>  (22) 
22

>  <SMILES>  (22) 
[NH-]C(=O)c1cc2ccc(C#CCO)cc2n1C(=O)NP(=O)([O-])[O-]

>  <Energy>  (22) 
62.88966821301919

>  <Genealogy>  (22) 
[NH-]C(=O)c1cc2ccc(C#CCO)cc2n1C(=O)NP(=O)([O-])[O-] (protonated)
[NH-]C(=O)c1cc2ccc(C#CCO)cc2n1C(=O)NP(=O)([O-])[O-] (3D coordinates assigned)
[NH-]C(=O)c1cc2ccc(C#CCO)cc2n1C(=O)NP(=O)([O-])[O-] (optimized conformer: 62.88966821301919 kcal/mol)

>  <smiles>  (22) 
NC(=O)c1cc2ccc(C#CCO)cc2n1C(=O)NP(=O)(O)O

>  <score_type>  (22) 
oracle

>  <origin>  (22) 
adg

>  <m_score__min__energy>  (22) 
-11.99

>  <m_primary>  (22) 
energy

$$$$
23:0
     RDKit          3D

 63 64  0  0  0  0  0  0  0  0999 V2000
   -6.4330   17.2220  -33.9190 C   0  0  0  0  0  0  0  0  0  0  0  0
   -6.6350   18.2980  -33.4140 C   0  0  0  0  0  0  0  0  0  0  0  0
   -6.8750   19.5780  -32.8040 C   0  0  0  0  0  0  0  0  0  0  0  0
   -8.1970   19.9900  -32.5270 C   0  0  0  0  0  0  0  0  0  0  0  0
   -8.4410   21.2410  -31.9370 C   0  0  0  0  0  0  0  0  0  0  0  0
   -7.3450   22.0370  -31.6180 C   0  0  0  0  0  0  0  0  0  0  0  0
   -7.2960   23.2840  -31.0380 C   0  0  0  0  0  0  0  0  0  0  0  0
   -5.9380   23.5930  -30.9460 C   0  0  0  0  0  0  0  0  0  0  0  0
   -5.4110   24.8200  -30.3040 C   0  0  0  0  0  0  0  0  0  0  0  0
   -5.7940   25.1700  -28.9710 N   0  0  0  0  0  0  0  0  0  0  0  0
   -4.5920   25.5500  -30.9200 O   0  0  0  0  0  0  0  0  0  0  0  0
   -5.1800   22.5810  -31.4520 N   0  0  0  0  0  0  0  0  0  0  0  0
   -3.7540   22.5380  -31.5960 C   0  0  0  0  0  0  0  0  0  0  0  0
   -3.0400   23.4340  -31.0740 O   0  0  0  0  0  0  0  0  0  0  0  0
   -3.1680   21.5100  -32.3360 O   0  0  0  0  0  0  0  0  0  0  0  0
   -2.1490   20.6670  -31.8160 C   0  0  0  0  0  0  0  0  0  0  0  0
   -2.2860   19.3700  -32.3880 O   0  0  0  0  0  0  0  0  0  0  0  0
   -2.0280   19.1110  -33.7390 C   0  0  0  0  0  0  0  0  0  0  0  0
   -2.9640   18.8010  -34.5190 O   0  0  0  0  0  0  0  0  0  0  0  0
   -0.6260   19.2080  -34.2610 C   0  0  0  0  0  0  0  0  0  0  0  0
   -0.4630   20.3520  -35.2640 C   0  0  0  0  0  0  0  0  0  0  0  0
    0.2040   21.5470  -34.6500 C   0  0  0  0  0  0  0  0  0  0  0  0
    0.5300   21.5290  -33.4310 O   0  0  0  0  0  0  0  0  0  0  0  0
    0.4210   22.6910  -35.4380 O   0  0  0  0  0  0  0  0  0  0  0  0
    1.7130   23.2330  -35.6880 C   0  0  0  0  0  0  0  0  0  0  0  0
    1.5930   24.6180  -36.2320 C   0  0  0  0  0  0  0  0  0  0  0  0
    1.6290   24.8010  -37.4810 O   0  0  0  0  0  0  0  0  0  0  0  0
    1.4380   25.6960  -35.3560 O   0  0  0  0  0  0  0  0  0  0  0  0
    0.9590   26.9760  -35.7690 C   0  0  0  0  0  0  0  0  0  0  0  0
   -0.4930   27.2040  -35.3370 C   0  0  0  0  0  0  0  0  0  0  0  0
   -1.2930   28.1920  -36.2230 C   0  0  0  0  0  0  0  0  0  0  0  0
   -0.8160   28.3660  -37.6170 N   0  0  0  0  0  0  0  0  0  0  0  0
   -0.4640   29.7490  -37.9720 C   0  0  0  0  0  0  0  0  0  0  0  0
   -1.6620   27.7310  -38.6390 C   0  0  0  0  0  0  0  0  0  0  0  0
   -6.0560   21.6350  -31.8590 C   0  0  0  0  0  0  0  0  0  0  0  0
   -5.7860   20.4090  -32.4760 C   0  0  0  0  0  0  0  0  0  0  0  0
   -6.2487   16.2403  -34.3797 H   0  0  0  0  0  0  0  0  0  0  0  0
   -9.0398   19.3279  -32.7745 H   0  0  0  0  0  0  0  0  0  0  0  0
   -9.4671   21.5812  -31.7333 H   0  0  0  0  0  0  0  0  0  0  0  0
   -8.1453   23.9044  -30.7159 H   0  0  0  0  0  0  0  0  0  0  0  0
   -6.5030   24.6030  -28.4510 H   0  0  0  0  0  0  0  0  0  0  0  0
   -5.3970   26.0210  -28.5150 H   0  0  0  0  0  0  0  0  0  0  0  0
   -1.1621   21.0805  -32.0709 H   0  0  0  0  0  0  0  0  0  0  0  0
   -2.2409   20.6031  -30.7217 H   0  0  0  0  0  0  0  0  0  0  0  0
    0.0564   19.3780  -33.4152 H   0  0  0  0  0  0  0  0  0  0  0  0
   -0.3919   18.2667  -34.7799 H   0  0  0  0  0  0  0  0  0  0  0  0
    0.1473   19.9995  -36.1086 H   0  0  0  0  0  0  0  0  0  0  0  0
   -1.4659   20.6568  -35.5976 H   0  0  0  0  0  0  0  0  0  0  0  0
    2.2842   23.2596  -34.7483 H   0  0  0  0  0  0  0  0  0  0  0  0
    2.2317   22.6012  -36.4241 H   0  0  0  0  0  0  0  0  0  0  0  0
    1.5914   27.7555  -35.3190 H   0  0  0  0  0  0  0  0  0  0  0  0
    1.0009   27.0198  -36.8673 H   0  0  0  0  0  0  0  0  0  0  0  0
   -1.0107   26.2336  -35.3551 H   0  0  0  0  0  0  0  0  0  0  0  0
   -0.4480   27.6568  -34.3355 H   0  0  0  0  0  0  0  0  0  0  0  0
   -2.3324   27.8347  -36.2675 H   0  0  0  0  0  0  0  0  0  0  0  0
   -1.1683   29.1761  -35.7476 H   0  0  0  0  0  0  0  0  0  0  0  0
   -0.3145   30.3364  -37.0541 H   0  0  0  0  0  0  0  0  0  0  0  0
    0.4633   29.7510  -38.5637 H   0  0  0  0  0  0  0  0  0  0  0  0
   -1.2775   30.1941  -38.5637 H   0  0  0  0  0  0  0  0  0  0  0  0
   -2.4492   27.1401  -38.1479 H   0  0  0  0  0  0  0  0  0  0  0  0
   -2.1239   28.5073  -39.2667 H   0  0  0  0  0  0  0  0  0  0  0  0
   -1.0456   27.0707  -39.2667 H   0  0  0  0  0  0  0  0  0  0  0  0
   -4.7532   20.1027  -32.6986 H   0  0  0  0  0  0  0  0  0  0  0  0
  1  2  3  0
  2  3  1  0
  3  4  2  0
  4  5  1  0
  5  6  2  0
  6  7  1  0
  7  8  2  0
  8  9  1  0
  9 10  1  0
  9 11  2  0
  8 12  1  0
 12 13  1  0
 13 14  2  0
 13 15  1  0
 15 16  1  0
 16 17  1  0
 17 18  1  0
 18 19  2  0
 18 20  1  0
 20 21  1  0
 21 22  1  0
 22 23  2  0
 22 24  1  0
 24 25  1  0
 25 26  1  0
 26 27  2  0
 26 28  1  0
 28 29  1  0
 29 30  1  0
 30 31  1  0
 31 32  1  0
 32 33  1  0
 32 34  1  0
 12 35  1  0
 35 36  2  0
 36  3  1  0
 35  6  1  0
  1 37  1  0
  4 38  1  0
  5 39  1  0
  7 40  1  0
 10 41  1  0
 10 42  1  0
 16 43  1  0
 16 44  1  0
 20 45  1  0
 20 46  1  0
 21 47  1  0
 21 48  1  0
 25 49  1  0
 25 50  1  0
 29 51  1  0
 29 52  1  0
 30 53  1  0
 30 54  1  0
 31 55  1  0
 31 56  1  0
 33 57  1  0
 33 58  1  0
 33 59  1  0
 34 60  1  0
 34 61  1  0
 34 62  1  0
 36 63  1  0
M  END
>  <UniqueID>  (23) 
23

>  <SMILES>  (23) 
C#Cc1ccc2cc(C(N)=O)n(C(=O)OCOC(=O)CCC(=O)OCC(=O)OCCCN(C)C)c2c1

>  <Energy>  (23) 
89.27240404030758

>  <Genealogy>  (23) 
C#Cc1ccc2cc(C(N)=O)n(C(=O)OCOC(=O)CCC(=O)OCC(=O)OCCCN(C)C)c2c1 (3D coordinates assigned)
C#Cc1ccc2cc(C(N)=O)n(C(=O)OCOC(=O)CCC(=O)OCC(=O)OCCCN(C)C)c2c1 (optimized conformer: 89.27240404030758 kcal/mol)

>  <smiles>  (23) 
C#Cc1ccc2cc(C(N)=O)n(C(=O)OCOC(=O)CCC(=O)OCC(=O)OCCCN(C)C)c2c1

>  <score_type>  (23) 
oracle

>  <origin>  (23) 
adg

>  <m_score__min__energy>  (23) 
-10.369999999999999

>  <m_primary>  (23) 
energy

$$$$
24:0
     RDKit          3D

 60 64  0  0  0  0  0  0  0  0999 V2000
    1.3420   23.2690  -27.2640 C   0  0  0  0  0  0  0  0  0  0  0  0
    1.1870   24.5490  -27.8640 O   0  0  0  0  0  0  0  0  0  0  0  0
    0.8170   25.6780  -27.1290 C   0  0  0  0  0  0  0  0  0  0  0  0
    1.6010   26.6610  -27.0300 O   0  0  0  0  0  0  0  0  0  0  0  0
   -0.4530   25.7120  -26.4610 N   0  0  0  0  0  0  0  0  0  0  0  0
   -0.7750   26.3470  -25.2980 C   0  0  0  0  0  0  0  0  0  0  0  0
    0.1870   27.0440  -24.4000 C   0  0  0  0  0  0  0  0  0  0  0  0
    0.8320   26.3480  -23.3150 N   0  0  0  0  0  0  0  0  0  0  0  0
    0.4780   28.2640  -24.6090 O   0  0  0  0  0  0  0  0  0  0  0  0
   -2.1310   26.1630  -25.0150 C   0  0  0  0  0  0  0  0  0  0  0  0
   -2.6210   25.3880  -26.0420 C   0  0  0  0  0  0  0  0  0  0  0  0
   -3.9090   24.9180  -26.2750 C   0  0  0  0  0  0  0  0  0  0  0  0
   -4.1330   24.1480  -27.4260 C   0  0  0  0  0  0  0  0  0  0  0  0
   -3.0720   23.8610  -28.3310 C   0  0  0  0  0  0  0  0  0  0  0  0
   -3.3000   23.0650  -29.5670 C   0  0  0  0  0  0  0  0  0  0  0  0
   -4.0890   23.5400  -30.6290 C   0  0  0  0  0  0  0  0  0  0  0  0
   -4.2720   22.7660  -31.7300 N   0  0  0  0  0  0  0  0  0  0  0  0
   -3.7070   21.5330  -31.8410 C   0  0  0  0  0  0  0  0  0  0  0  0
   -3.9590   20.7260  -33.0530 C   0  0  0  0  0  0  0  0  0  0  0  0
   -3.1210   20.7610  -33.9960 O   0  0  0  0  0  0  0  0  0  0  0  0
   -5.1370   19.9100  -33.1900 N   0  0  0  0  0  0  0  0  0  0  0  0
   -5.0800   18.7170  -34.0510 C   0  0  0  0  0  0  0  0  0  0  0  0
   -5.7390   17.4790  -33.4010 C   0  0  1  0  0  0  0  0  0  0  0  0
   -5.2240   17.2460  -31.9620 C   0  0  0  0  0  0  0  0  0  0  0  0
   -5.7240   18.3210  -30.9640 C   0  0  0  0  0  0  0  0  0  0  0  0
   -6.8870   19.1560  -31.5460 C   0  0  1  0  0  0  0  0  0  0  0  0
   -6.3770   20.2850  -32.4880 C   0  0  0  0  0  0  0  0  0  0  0  0
   -7.8330   18.2320  -32.2100 N   0  0  0  0  0  0  0  0  0  0  0  0
   -9.1680   18.8110  -32.4420 C   0  0  0  0  0  0  0  0  0  0  0  0
   -7.2860   17.5850  -33.4240 C   0  0  0  0  0  0  0  0  0  0  0  0
   -2.9390   21.0450  -30.7740 C   0  0  0  0  0  0  0  0  0  0  0  0
   -2.7580   21.8200  -29.6720 N   0  0  0  0  0  0  0  0  0  0  0  0
   -1.7810   24.3740  -28.0620 C   0  0  0  0  0  0  0  0  0  0  0  0
   -1.5880   25.1250  -26.8970 C   0  0  0  0  0  0  0  0  0  0  0  0
    1.3294   23.3734  -26.1690 H   0  0  0  0  0  0  0  0  0  0  0  0
    0.5166   22.6138  -27.5794 H   0  0  0  0  0  0  0  0  0  0  0  0
    2.2999   22.8298  -27.5794 H   0  0  0  0  0  0  0  0  0  0  0  0
    0.6610   25.3350  -23.1130 H   0  0  0  0  0  0  0  0  0  0  0  0
    1.4890   26.8610  -22.6860 H   0  0  0  0  0  0  0  0  0  0  0  0
   -2.6898   26.5552  -24.1525 H   0  0  0  0  0  0  0  0  0  0  0  0
   -4.7285   25.1436  -25.5768 H   0  0  0  0  0  0  0  0  0  0  0  0
   -5.1418   23.7608  -27.6321 H   0  0  0  0  0  0  0  0  0  0  0  0
   -4.5561   24.5341  -30.5686 H   0  0  0  0  0  0  0  0  0  0  0  0
   -5.6013   18.9386  -34.9940 H   0  0  0  0  0  0  0  0  0  0  0  0
   -4.0192   18.4788  -34.2182 H   0  0  0  0  0  0  0  0  0  0  0  0
   -5.4495   16.6053  -34.0034 H   0  0  0  0  0  0  0  0  0  0  0  0
   -5.5713   16.2600  -31.6197 H   0  0  0  0  0  0  0  0  0  0  0  0
   -4.1259   17.3048  -31.9896 H   0  0  0  0  0  0  0  0  0  0  0  0
   -6.0700   17.8209  -30.0474 H   0  0  0  0  0  0  0  0  0  0  0  0
   -4.8878   19.0040  -30.7536 H   0  0  0  0  0  0  0  0  0  0  0  0
   -7.4142   19.6813  -30.7360 H   0  0  0  0  0  0  0  0  0  0  0  0
   -7.1550   20.5007  -33.2351 H   0  0  0  0  0  0  0  0  0  0  0  0
   -6.1592   21.1674  -31.8684 H   0  0  0  0  0  0  0  0  0  0  0  0
   -9.6500   19.0200  -31.4756 H   0  0  0  0  0  0  0  0  0  0  0  0
   -9.0679   19.7466  -33.0118 H   0  0  0  0  0  0  0  0  0  0  0  0
   -9.7827   18.0986  -33.0118 H   0  0  0  0  0  0  0  0  0  0  0  0
   -7.7069   16.5718  -33.5027 H   0  0  0  0  0  0  0  0  0  0  0  0
   -7.5632   18.2091  -34.2864 H   0  0  0  0  0  0  0  0  0  0  0  0
   -2.4869   20.0437  -30.8283 H   0  0  0  0  0  0  0  0  0  0  0  0
   -0.9467   24.1865  -28.7540 H   0  0  0  0  0  0  0  0  0  0  0  0
  1  2  1  0
  2  3  1  0
  3  4  2  0
  3  5  1  0
  5  6  1  0
  6  7  1  0
  7  8  1  0
  7  9  2  0
  6 10  2  0
 10 11  1  0
 11 12  2  0
 12 13  1  0
 13 14  2  0
 14 15  1  0
 15 16  2  0
 16 17  1  0
 17 18  2  0
 18 19  1  0
 19 20  2  0
 19 21  1  0
 21 22  1  0
 22 23  1  0
 23 24  1  0
 24 25  1  0
 25 26  1  0
 26 27  1  0
 26 28  1  0
 28 29  1  0
 28 30  1  0
 18 31  1  0
 31 32  2  0
 14 33  1  0
 33 34  2  0
 34  5  1  0
 34 11  1  0
 32 15  1  0
 27 21  1  0
 30 23  1  0
  1 35  1  0
  1 36  1  0
  1 37  1  0
  8 38  1  0
  8 39  1  0
 10 40  1  0
 12 41  1  0
 13 42  1  0
 16 43  1  0
 22 44  1  0
 22 45  1  0
 23 46  1  6
 24 47  1  0
 24 48  1  0
 25 49  1  0
 25 50  1  0
 26 51  1  1
 27 52  1  0
 27 53  1  0
 29 54  1  0
 29 55  1  0
 29 56  1  0
 30 57  1  0
 30 58  1  0
 31 59  1  0
 33 60  1  0
M  END
>  <UniqueID>  (24) 
24

>  <SMILES>  (24) 
COC(=O)n1c(C(N)=O)cc2ccc(-c3cnc(C(=O)N4C[C@H]5CC[C@@H](C4)N(C)C5)cn3)cc21

>  <Energy>  (24) 
128.4060811581478

>  <Genealogy>  (24) 
COC(=O)n1c(C(N)=O)cc2ccc(-c3cnc(C(=O)N4C[C@H]5CC[C@@H](C4)N(C)C5)cn3)cc21 (chirality)
COC(=O)n1c(C(N)=O)cc2ccc(-c3cnc(C(=O)N4C[C@H]5CC[C@@H](C4)N(C)C5)cn3)cc21 (3D coordinates assigned)
COC(=O)n1c(C(N)=O)cc2ccc(-c3cnc(C(=O)N4C[C@H]5CC[C@@H](C4)N(C)C5)cn3)cc21 (nonaromatic ring conformer: 128.4060811581478 kcal/mol)

>  <smiles>  (24) 
COC(=O)n1c(C(N)=O)cc2ccc(-c3cnc(C(=O)N4CC5CCC(C4)N(C)C5)cn3)cc21

>  <score_type>  (24) 
oracle

>  <origin>  (24) 
adg

>  <m_score__min__energy>  (24) 
-8.3499999999999996

>  <m_primary>  (24) 
energy

$$$$
25:0
     RDKit          3D

 34 36  0  0  0  0  0  0  0  0999 V2000
   -5.2010   15.5760  -33.4940 C   0  0  0  0  0  0  0  0  0  0  0  0
   -6.4270   16.4190  -33.8570 C   0  0  0  0  0  0  0  0  0  0  0  0
   -7.0990   17.0650  -32.6850 C   0  0  0  0  0  0  0  0  0  0  0  0
   -6.7780   18.4530  -33.0660 N   0  0  0  0  0  0  0  0  0  0  0  0
   -7.0080   19.7680  -32.5570 C   0  0  0  0  0  0  0  0  0  0  0  0
   -8.3210   20.2900  -32.5130 C   0  0  0  0  0  0  0  0  0  0  0  0
   -8.5600   21.5790  -32.0090 C   0  0  0  0  0  0  0  0  0  0  0  0
   -7.4670   22.3180  -31.5620 C   0  0  0  0  0  0  0  0  0  0  0  0
   -7.4160   23.5790  -31.0140 C   0  0  0  0  0  0  0  0  0  0  0  0
   -6.0670   23.8100  -30.7540 C   0  0  0  0  0  0  0  0  0  0  0  0
   -5.5530   25.0900  -30.2320 C   0  0  0  0  0  0  0  0  0  0  0  0
   -4.2260   25.5270  -30.5300 N   0  0  0  0  0  0  0  0  0  0  0  0
   -6.3170   25.8400  -29.5680 O   0  0  0  0  0  0  0  0  0  0  0  0
   -5.3150   22.7290  -31.1070 N   0  0  0  0  0  0  0  0  0  0  0  0
   -3.9110   22.5100  -30.8930 C   0  0  0  0  0  0  0  0  0  0  0  0
   -3.0610   23.3790  -31.2280 O   0  0  0  0  0  0  0  0  0  0  0  0
   -6.1870   21.8270  -31.6090 C   0  0  0  0  0  0  0  0  0  0  0  0
   -5.9230   20.5420  -32.0960 C   0  0  0  0  0  0  0  0  0  0  0  0
   -6.1110   17.8360  -34.2290 C   0  0  0  0  0  0  0  0  0  0  0  0
   -5.1100   15.5134  -32.3996 H   0  0  0  0  0  0  0  0  0  0  0  0
   -5.3151   14.5645  -33.9109 H   0  0  0  0  0  0  0  0  0  0  0  0
   -4.2973   16.0446  -33.9109 H   0  0  0  0  0  0  0  0  0  0  0  0
   -6.9171   15.6991  -34.5290 H   0  0  0  0  0  0  0  0  0  0  0  0
   -8.1816   16.8720  -32.6569 H   0  0  0  0  0  0  0  0  0  0  0  0
   -6.7856   16.7352  -31.6835 H   0  0  0  0  0  0  0  0  0  0  0  0
   -9.1624   19.6817  -32.8765 H   0  0  0  0  0  0  0  0  0  0  0  0
   -9.5787   21.9922  -31.9685 H   0  0  0  0  0  0  0  0  0  0  0  0
   -8.2593   24.2588  -30.8223 H   0  0  0  0  0  0  0  0  0  0  0  0
   -3.8670   26.4230  -30.1320 H   0  0  0  0  0  0  0  0  0  0  0  0
   -3.6270   25.0010  -31.2030 H   0  0  0  0  0  0  0  0  0  0  0  0
   -3.5730   21.5710  -30.4304 H   0  0  0  0  0  0  0  0  0  0  0  0
   -4.8969   20.1463  -32.1186 H   0  0  0  0  0  0  0  0  0  0  0  0
   -6.5630   18.1350  -35.1862 H   0  0  0  0  0  0  0  0  0  0  0  0
   -5.0528   18.0879  -34.3926 H   0  0  0  0  0  0  0  0  0  0  0  0
  1  2  1  0
  2  3  1  0
  3  4  1  0
  4  5  1  0
  5  6  2  0
  6  7  1  0
  7  8  2  0
  8  9  1  0
  9 10  2  0
 10 11  1  0
 11 12  1  0
 11 13  2  0
 10 14  1  0
 14 15  1  0
 15 16  2  0
 14 17  1  0
 17 18  2  0
  4 19  1  0
 19  2  1  0
 18  5  1  0
 17  8  1  0
  1 20  1  0
  1 21  1  0
  1 22  1  0
  2 23  1  0
  3 24  1  0
  3 25  1  0
  6 26  1  0
  7 27  1  0
  9 28  1  0
 12 29  1  0
 12 30  1  0
 15 31  1  0
 18 32  1  0
 19 33  1  0
 19 34  1  0
M  END
>  <UniqueID>  (25) 
25

>  <SMILES>  (25) 
CC1CN(c2ccc3cc(C(N)=O)n(C=O)c3c2)C1

>  <Energy>  (25) 
116.273761530705

>  <Genealogy>  (25) 
CC1CN(c2ccc3cc(C(N)=O)n(C=O)c3c2)C1 (3D coordinates assigned)
CC1CN(c2ccc3cc(C(N)=O)n(C=O)c3c2)C1 (nonaromatic ring conformer: 116.273761530705 kcal/mol)

>  <smiles>  (25) 
CC1CN(c2ccc3cc(C(N)=O)n(C=O)c3c2)C1

>  <score_type>  (25) 
oracle

>  <origin>  (25) 
adg

>  <m_score__min__energy>  (25) 
-8.8100000000000005

>  <m_primary>  (25) 
energy

$$$$
26:0
     RDKit          3D

 31 32  0  0  0  0  0  0  0  0999 V2000
   -9.0770   21.7440  -31.3470 C   0  0  0  0  0  0  0  0  0  0  0  0
   -8.1950   21.2570  -32.3510 O   0  0  0  0  0  0  0  0  0  0  0  0
   -7.4520   20.0830  -32.1970 C   0  0  0  0  0  0  0  0  0  0  0  0
   -8.0150   19.0210  -31.8160 O   0  0  0  0  0  0  0  0  0  0  0  0
   -6.0440   20.0850  -32.4870 N   0  0  0  0  0  0  0  0  0  0  0  0
   -5.3840   19.3340  -33.4140 C   0  0  0  0  0  0  0  0  0  0  0  0
   -5.9790   18.2450  -34.2210 C   0  0  0  0  0  0  0  0  0  0  0  0
   -6.8490   17.2830  -33.6200 N   0  0  0  0  0  0  0  0  0  0  0  0
   -5.7470   18.1740  -35.4570 O   0  0  0  0  0  0  0  0  0  0  0  0
   -4.0320   19.6700  -33.4400 C   0  0  0  0  0  0  0  0  0  0  0  0
   -3.8820   20.6550  -32.4910 C   0  0  0  0  0  0  0  0  0  0  0  0
   -2.7460   21.3620  -32.1090 C   0  0  0  0  0  0  0  0  0  0  0  0
   -2.8860   22.3500  -31.1210 C   0  0  0  0  0  0  0  0  0  0  0  0
   -4.1500   22.6110  -30.5330 C   0  0  0  0  0  0  0  0  0  0  0  0
   -4.3030   23.7050  -29.5100 C   0  0  1  0  0  0  0  0  0  0  0  0
   -3.8290   23.2830  -28.2790 F   0  0  0  0  0  0  0  0  0  0  0  0
   -3.5610   24.9280  -29.9520 C   0  0  0  0  0  0  0  0  0  0  0  0
   -4.0360   25.6720  -30.8500 O   0  0  0  0  0  0  0  0  0  0  0  0
   -2.3670   25.2750  -29.3330 O   0  0  0  0  0  0  0  0  0  0  0  0
   -5.2830   21.8800  -30.9570 C   0  0  0  0  0  0  0  0  0  0  0  0
   -5.1100   20.8870  -31.9300 C   0  0  0  0  0  0  0  0  0  0  0  0
   -8.6635   21.5157  -30.3536 H   0  0  0  0  0  0  0  0  0  0  0  0
   -9.1907   22.8327  -31.4555 H   0  0  0  0  0  0  0  0  0  0  0  0
  -10.0589   21.2602  -31.4555 H   0  0  0  0  0  0  0  0  0  0  0  0
   -7.0200   17.2750  -32.5910 H   0  0  0  0  0  0  0  0  0  0  0  0
   -7.2950   16.5430  -34.2050 H   0  0  0  0  0  0  0  0  0  0  0  0
   -3.2503   19.2392  -34.0829 H   0  0  0  0  0  0  0  0  0  0  0  0
   -1.7679   21.1533  -32.5671 H   0  0  0  0  0  0  0  0  0  0  0  0
   -2.0065   22.9273  -30.7999 H   0  0  0  0  0  0  0  0  0  0  0  0
   -5.3712   23.9489  -29.4124 H   0  0  0  0  0  0  0  0  0  0  0  0
   -6.2769   22.0859  -30.5331 H   0  0  0  0  0  0  0  0  0  0  0  0
  1  2  1  0
  2  3  1  0
  3  4  2  0
  3  5  1  0
  5  6  1  0
  6  7  1  0
  7  8  1  0
  7  9  2  0
  6 10  2  0
 10 11  1  0
 11 12  2  0
 12 13  1  0
 13 14  2  0
 14 15  1  0
 15 16  1  0
 15 17  1  0
 17 18  2  0
 17 19  1  0
 14 20  1  0
 20 21  2  0
 21  5  1  0
 21 11  1  0
  1 22  1  0
  1 23  1  0
  1 24  1  0
  8 25  1  0
  8 26  1  0
 10 27  1  0
 12 28  1  0
 13 29  1  0
 15 30  1  1
 20 31  1  0
M  CHG  1  19  -1
M  END
>  <UniqueID>  (26) 
26

>  <SMILES>  (26) 
COC(=O)n1c(C(N)=O)cc2ccc([C@@H](F)C(=O)[O-])cc21

>  <Energy>  (26) 
67.02115310578633

>  <Genealogy>  (26) 
COC(=O)n1c(C(N)=O)cc2ccc(C(F)C(=O)[O-])cc21 (protonated)
COC(=O)n1c(C(N)=O)cc2ccc([C@@H](F)C(=O)[O-])cc21 (chirality)
COC(=O)n1c(C(N)=O)cc2ccc([C@@H](F)C(=O)[O-])cc21 (3D coordinates assigned)
COC(=O)n1c(C(N)=O)cc2ccc([C@@H](F)C(=O)[O-])cc21 (optimized conformer: 67.02115310578633 kcal/mol)

>  <smiles>  (26) 
COC(=O)n1c(C(N)=O)cc2ccc(C(F)C(=O)O)cc21

>  <score_type>  (26) 
oracle

>  <origin>  (26) 
adg

>  <m_score__min__energy>  (26) 
-8.6899999999999995

>  <m_primary>  (26) 
energy

$$$$
27:0
     RDKit          3D

 37 38  0  0  0  0  0  0  0  0999 V2000
   -1.1510   25.3870  -28.2790 C   0  0  0  0  0  0  0  0  0  0  0  0
   -1.3120   24.3470  -29.2860 N   0  0  0  0  0  0  0  0  0  0  0  0
   -0.6030   23.1040  -29.2040 C   0  0  0  0  0  0  0  0  0  0  0  0
    0.2410   22.9130  -28.2880 O   0  0  0  0  0  0  0  0  0  0  0  0
   -0.8320   22.0360  -30.2320 C   0  0  0  0  0  0  0  0  0  0  0  0
   -2.3160   21.7000  -30.3610 C   0  0  0  0  0  0  0  0  0  0  0  0
   -3.0240   22.8160  -30.8930 O   0  0  0  0  0  0  0  0  0  0  0  0
   -4.0100   22.6850  -31.8750 C   0  0  0  0  0  0  0  0  0  0  0  0
   -3.7050   22.3050  -33.0390 O   0  0  0  0  0  0  0  0  0  0  0  0
   -5.3730   22.9950  -31.5580 N   0  0  0  0  0  0  0  0  0  0  0  0
   -5.8590   24.1130  -30.9460 C   0  0  0  0  0  0  0  0  0  0  0  0
   -5.0790   25.3190  -30.5940 C   0  0  0  0  0  0  0  0  0  0  0  0
   -3.6650   25.2590  -30.4330 N   0  0  0  0  0  0  0  0  0  0  0  0
   -5.6680   26.4280  -30.4740 O   0  0  0  0  0  0  0  0  0  0  0  0
   -7.2350   24.0060  -30.7550 C   0  0  0  0  0  0  0  0  0  0  0  0
   -7.5810   22.7810  -31.2790 C   0  0  0  0  0  0  0  0  0  0  0  0
   -8.8220   22.1520  -31.3430 C   0  0  0  0  0  0  0  0  0  0  0  0
   -8.8790   20.8660  -31.9050 C   0  0  0  0  0  0  0  0  0  0  0  0
   -7.7050   20.2340  -32.3790 C   0  0  0  0  0  0  0  0  0  0  0  0
   -7.7740   18.9120  -32.9170 N   0  0  0  0  0  0  0  0  0  0  0  0
   -6.4640   20.9040  -32.3060 C   0  0  0  0  0  0  0  0  0  0  0  0
   -6.4390   22.1910  -31.7570 C   0  0  0  0  0  0  0  0  0  0  0  0
   -1.2202   24.9402  -27.2762 H   0  0  0  0  0  0  0  0  0  0  0  0
   -0.1681   25.8657  -28.4002 H   0  0  0  0  0  0  0  0  0  0  0  0
   -1.9432   26.1405  -28.4002 H   0  0  0  0  0  0  0  0  0  0  0  0
   -1.9640   24.5160  -30.0850 H   0  0  0  0  0  0  0  0  0  0  0  0
   -0.4585   22.3887  -31.2047 H   0  0  0  0  0  0  0  0  0  0  0  0
   -0.2965   21.1287  -29.9156 H   0  0  0  0  0  0  0  0  0  0  0  0
   -2.4371   20.8377  -31.0332 H   0  0  0  0  0  0  0  0  0  0  0  0
   -2.7190   21.4575  -29.3666 H   0  0  0  0  0  0  0  0  0  0  0  0
   -3.0500   24.9330  -31.2120 H   0  0  0  0  0  0  0  0  0  0  0  0
   -7.9027   24.7434  -30.2855 H   0  0  0  0  0  0  0  0  0  0  0  0
   -9.7289   22.6468  -30.9653 H   0  0  0  0  0  0  0  0  0  0  0  0
   -9.8453   20.3453  -31.9773 H   0  0  0  0  0  0  0  0  0  0  0  0
   -8.5170   18.6530  -33.6040 H   0  0  0  0  0  0  0  0  0  0  0  0
   -7.0990   18.1750  -32.6150 H   0  0  0  0  0  0  0  0  0  0  0  0
   -5.5422   20.4273  -32.6707 H   0  0  0  0  0  0  0  0  0  0  0  0
  1  2  1  0
  2  3  1  0
  3  4  2  0
  3  5  1  0
  5  6  1  0
  6  7  1  0
  7  8  1  0
  8  9  2  0
  8 10  1  0
 10 11  1  0
 11 12  1  0
 12 13  1  0
 12 14  2  0
 11 15  2  0
 15 16  1  0
 16 17  2  0
 17 18  1  0
 18 19  2  0
 19 20  1  0
 19 21  1  0
 21 22  2  0
 22 10  1  0
 22 16  1  0
  1 23  1  0
  1 24  1  0
  1 25  1  0
  2 26  1  0
  5 27  1  0
  5 28  1  0
  6 29  1  0
  6 30  1  0
 13 31  1  0
 15 32  1  0
 17 33  1  0
 18 34  1  0
 20 35  1  0
 20 36  1  0
 21 37  1  0
M  CHG  1  13  -1
M  END
>  <UniqueID>  (27) 
27

>  <SMILES>  (27) 
CNC(=O)CCOC(=O)n1c(C([NH-])=O)cc2ccc(N)cc21

>  <Energy>  (27) 
65.3920891614629

>  <Genealogy>  (27) 
CNC(=O)CCOC(=O)n1c(C([NH-])=O)cc2ccc(N)cc21 (protonated)
CNC(=O)CCOC(=O)n1c(C([NH-])=O)cc2ccc(N)cc21 (3D coordinates assigned)
CNC(=O)CCOC(=O)n1c(C([NH-])=O)cc2ccc(N)cc21 (optimized conformer: 65.3920891614629 kcal/mol)

>  <smiles>  (27) 
CNC(=O)CCOC(=O)n1c(C(N)=O)cc2ccc(N)cc21

>  <score_type>  (27) 
oracle

>  <origin>  (27) 
adg

>  <m_score__min__energy>  (27) 
-9.3300000000000001

>  <m_primary>  (27) 
energy

$$$$
28:0
     RDKit          3D

 40 42  0  0  0  0  0  0  0  0999 V2000
   -9.0390   18.2560  -31.5030 C   0  0  0  0  0  0  0  0  0  0  0  0
   -8.4530   18.8230  -32.7360 N   0  0  0  0  0  0  0  0  0  0  0  0
   -8.5420   20.2900  -32.7050 C   0  0  0  0  0  0  0  0  0  0  0  0
   -7.0640   18.4050  -33.0710 C   0  0  0  0  0  0  0  0  0  0  0  0
   -6.1390   18.3710  -31.8930 C   0  0  0  0  0  0  0  0  0  0  0  0
   -5.2370   19.4380  -32.3740 N   0  0  0  0  0  0  0  0  0  0  0  0
   -4.0640   20.1110  -31.9150 C   0  0  0  0  0  0  0  0  0  0  0  0
   -2.7850   19.5990  -32.2330 C   0  0  0  0  0  0  0  0  0  0  0  0
   -1.6220   20.2590  -31.7980 C   0  0  0  0  0  0  0  0  0  0  0  0
   -1.7760   21.4190  -31.0440 C   0  0  0  0  0  0  0  0  0  0  0  0
   -0.8300   22.2710  -30.5210 C   0  0  0  0  0  0  0  0  0  0  0  0
   -1.5510   23.2770  -29.8790 C   0  0  0  0  0  0  0  0  0  0  0  0
   -0.9200   24.3920  -29.1390 C   0  0  0  0  0  0  0  0  0  0  0  0
   -1.5860   25.6430  -28.9860 N   0  0  0  0  0  0  0  0  0  0  0  0
    0.2110   24.2290  -28.6100 O   0  0  0  0  0  0  0  0  0  0  0  0
   -2.8890   23.0530  -29.9970 N   0  0  0  0  0  0  0  0  0  0  0  0
   -3.9630   23.8920  -29.5450 C   0  0  0  0  0  0  0  0  0  0  0  0
   -4.3530   23.8160  -28.3500 O   0  0  0  0  0  0  0  0  0  0  0  0
   -4.6180   24.8360  -30.4620 C   0  0  0  0  0  0  0  0  0  0  0  0
   -4.2790   26.0490  -30.4780 O   0  0  0  0  0  0  0  0  0  0  0  0
   -5.6060   24.3910  -31.3300 O   0  0  0  0  0  0  0  0  0  0  0  0
   -3.0120   21.9160  -30.7150 C   0  0  0  0  0  0  0  0  0  0  0  0
   -4.1840   21.2900  -31.1510 C   0  0  0  0  0  0  0  0  0  0  0  0
   -6.1160   19.4650  -33.5610 C   0  0  0  0  0  0  0  0  0  0  0  0
   -8.5627   18.7169  -30.6251 H   0  0  0  0  0  0  0  0  0  0  0  0
  -10.1197   18.4601  -31.4832 H   0  0  0  0  0  0  0  0  0  0  0  0
   -8.8707   17.1691  -31.4832 H   0  0  0  0  0  0  0  0  0  0  0  0
   -8.5629   20.6341  -31.6604 H   0  0  0  0  0  0  0  0  0  0  0  0
   -7.6684   20.7212  -33.2157 H   0  0  0  0  0  0  0  0  0  0  0  0
   -9.4614   20.6124  -33.2157 H   0  0  0  0  0  0  0  0  0  0  0  0
   -7.3470   17.5391  -33.6875 H   0  0  0  0  0  0  0  0  0  0  0  0
   -6.6418   18.6325  -30.9502 H   0  0  0  0  0  0  0  0  0  0  0  0
   -5.6816   17.4026  -31.6419 H   0  0  0  0  0  0  0  0  0  0  0  0
   -2.6990   18.6764  -32.8258 H   0  0  0  0  0  0  0  0  0  0  0  0
   -0.6228   19.8712  -32.0455 H   0  0  0  0  0  0  0  0  0  0  0  0
    0.2636   22.1779  -30.5941 H   0  0  0  0  0  0  0  0  0  0  0  0
   -2.6160   25.7250  -29.1410 H   0  0  0  0  0  0  0  0  0  0  0  0
   -5.1721   21.7058  -30.9048 H   0  0  0  0  0  0  0  0  0  0  0  0
   -6.6051   20.4394  -33.7068 H   0  0  0  0  0  0  0  0  0  0  0  0
   -5.6439   19.3048  -34.5416 H   0  0  0  0  0  0  0  0  0  0  0  0
  1  2  1  0
  2  3  1  0
  2  4  1  0
  4  5  1  0
  5  6  1  0
  6  7  1  0
  7  8  2  0
  8  9  1  0
  9 10  2  0
 10 11  1  0
 11 12  2  0
 12 13  1  0
 13 14  1  0
 13 15  2  0
 12 16  1  0
 16 17  1  0
 17 18  2  0
 17 19  1  0
 19 20  2  0
 19 21  1  0
 16 22  1  0
 22 23  2  0
  6 24  1  0
 24  4  1  0
 23  7  1  0
 22 10  1  0
  1 25  1  0
  1 26  1  0
  1 27  1  0
  3 28  1  0
  3 29  1  0
  3 30  1  0
  4 31  1  0
  5 32  1  0
  5 33  1  0
  8 34  1  0
  9 35  1  0
 11 36  1  0
 14 37  1  0
 23 38  1  0
 24 39  1  0
 24 40  1  0
M  CHG  2  14  -1  21  -1
M  END
>  <UniqueID>  (28) 
28

>  <SMILES>  (28) 
CN(C)C1CN(c2ccc3cc(C([NH-])=O)n(C(=O)C(=O)[O-])c3c2)C1

>  <Energy>  (28) 
132.9511644087664

>  <Genealogy>  (28) 
CN(C)C1CN(c2ccc3cc(C([NH-])=O)n(C(=O)C(=O)[O-])c3c2)C1 (protonated)
CN(C)C1CN(c2ccc3cc(C([NH-])=O)n(C(=O)C(=O)[O-])c3c2)C1 (3D coordinates assigned)
CN(C)C1CN(c2ccc3cc(C([NH-])=O)n(C(=O)C(=O)[O-])c3c2)C1 (nonaromatic ring conformer: 132.9511644087664 kcal/mol)

>  <smiles>  (28) 
CN(C)C1CN(c2ccc3cc(C(N)=O)n(C(=O)C(=O)O)c3c2)C1

>  <score_type>  (28) 
oracle

>  <origin>  (28) 
adg

>  <m_score__min__energy>  (28) 
-11.65

>  <m_primary>  (28) 
energy

$$$$
29:0
     RDKit          3D

 41 42  0  0  0  0  0  0  0  0999 V2000
   -7.9600   18.7610  -32.7000 C   0  0  0  0  0  0  0  0  0  0  0  0
   -7.8120   20.1890  -32.2670 C   0  0  0  0  0  0  0  0  0  0  0  0
   -8.9610   20.9610  -31.9650 C   0  0  0  0  0  0  0  0  0  0  0  0
   -8.8350   22.2840  -31.5120 C   0  0  0  0  0  0  0  0  0  0  0  0
   -7.5510   22.8030  -31.3660 C   0  0  0  0  0  0  0  0  0  0  0  0
   -7.1430   24.0390  -30.9160 C   0  0  0  0  0  0  0  0  0  0  0  0
   -5.7510   24.0050  -30.9590 C   0  0  0  0  0  0  0  0  0  0  0  0
   -4.9020   25.1710  -30.6380 C   0  0  0  0  0  0  0  0  0  0  0  0
   -3.4940   25.0290  -30.4680 N   0  0  0  0  0  0  0  0  0  0  0  0
   -5.4200   26.3170  -30.5600 O   0  0  0  0  0  0  0  0  0  0  0  0
   -5.3150   22.7940  -31.4070 N   0  0  0  0  0  0  0  0  0  0  0  0
   -3.9610   22.3280  -31.5180 C   0  0  0  0  0  0  0  0  0  0  0  0
   -3.3800   22.3560  -32.6370 O   0  0  0  0  0  0  0  0  0  0  0  0
   -3.2940   21.8700  -30.3740 O   0  0  0  0  0  0  0  0  0  0  0  0
   -2.5450   22.6720  -29.5020 C   0  0  0  0  0  0  0  0  0  0  0  0
   -1.4780   23.2240  -29.8870 O   0  0  0  0  0  0  0  0  0  0  0  0
   -3.0100   22.8440  -28.1920 O   0  0  0  0  0  0  0  0  0  0  0  0
   -3.3750   24.0690  -27.6200 C   0  0  0  0  0  0  0  0  0  0  0  0
   -4.5440   24.5230  -27.7560 O   0  0  0  0  0  0  0  0  0  0  0  0
   -2.4090   24.7770  -26.8950 O   0  0  0  0  0  0  0  0  0  0  0  0
   -1.6120   25.8140  -27.4070 C   0  0  0  0  0  0  0  0  0  0  0  0
   -1.4710   25.9610  -28.6520 O   0  0  0  0  0  0  0  0  0  0  0  0
   -0.9520   26.7150  -26.5000 N   0  0  0  0  0  0  0  0  0  0  0  0
   -1.1240   26.5330  -25.0570 C   0  0  0  0  0  0  0  0  0  0  0  0
   -0.1190   27.7990  -27.0270 C   0  0  0  0  0  0  0  0  0  0  0  0
   -6.4300   22.0710  -31.6550 C   0  0  0  0  0  0  0  0  0  0  0  0
   -6.5260   20.7430  -32.0910 C   0  0  0  0  0  0  0  0  0  0  0  0
   -8.0271   18.1140  -31.8130 H   0  0  0  0  0  0  0  0  0  0  0  0
   -8.8741   18.6533  -33.3023 H   0  0  0  0  0  0  0  0  0  0  0  0
   -7.0874   18.4682  -33.3023 H   0  0  0  0  0  0  0  0  0  0  0  0
   -9.9612   20.5197  -32.0866 H   0  0  0  0  0  0  0  0  0  0  0  0
   -9.7223   22.8912  -31.2798 H   0  0  0  0  0  0  0  0  0  0  0  0
   -7.7804   24.8748  -30.5918 H   0  0  0  0  0  0  0  0  0  0  0  0
   -3.0890   24.7560  -29.5450 H   0  0  0  0  0  0  0  0  0  0  0  0
   -0.4652   27.2301  -24.5184 H   0  0  0  0  0  0  0  0  0  0  0  0
   -2.1707   26.7330  -24.7844 H   0  0  0  0  0  0  0  0  0  0  0  0
   -0.8652   25.4992  -24.7844 H   0  0  0  0  0  0  0  0  0  0  0  0
    0.3168   28.3661  -26.1912 H   0  0  0  0  0  0  0  0  0  0  0  0
    0.6880   27.3751  -27.6427 H   0  0  0  0  0  0  0  0  0  0  0  0
   -0.7363   28.4696  -27.6427 H   0  0  0  0  0  0  0  0  0  0  0  0
   -5.6228   20.1478  -32.2909 H   0  0  0  0  0  0  0  0  0  0  0  0
  1  2  1  0
  2  3  2  0
  3  4  1  0
  4  5  2  0
  5  6  1  0
  6  7  2  0
  7  8  1  0
  8  9  1  0
  8 10  2  0
  7 11  1  0
 11 12  1  0
 12 13  2  0
 12 14  1  0
 14 15  1  0
 15 16  2  0
 15 17  1  0
 17 18  1  0
 18 19  2  0
 18 20  1  0
 20 21  1  0
 21 22  2  0
 21 23  1  0
 23 24  1  0
 23 25  1  0
 11 26  1  0
 26 27  2  0
 27  2  1  0
 26  5  1  0
  1 28  1  0
  1 29  1  0
  1 30  1  0
  3 31  1  0
  4 32  1  0
  6 33  1  0
  9 34  1  0
 24 35  1  0
 24 36  1  0
 24 37  1  0
 25 38  1  0
 25 39  1  0
 25 40  1  0
 27 41  1  0
M  CHG  1   9  -1
M  END
>  <UniqueID>  (29) 
29

>  <SMILES>  (29) 
Cc1ccc2cc(C([NH-])=O)n(C(=O)OC(=O)OC(=O)OC(=O)N(C)C)c2c1

>  <Energy>  (29) 
79.4464118984118

>  <Genealogy>  (29) 
Cc1ccc2cc(C([NH-])=O)n(C(=O)OC(=O)OC(=O)OC(=O)N(C)C)c2c1 (protonated)
Cc1ccc2cc(C([NH-])=O)n(C(=O)OC(=O)OC(=O)OC(=O)N(C)C)c2c1 (3D coordinates assigned)
Cc1ccc2cc(C([NH-])=O)n(C(=O)OC(=O)OC(=O)OC(=O)N(C)C)c2c1 (optimized conformer: 79.4464118984118 kcal/mol)

>  <smiles>  (29) 
Cc1ccc2cc(C(N)=O)n(C(=O)OC(=O)OC(=O)OC(=O)N(C)C)c2c1

>  <score_type>  (29) 
oracle

>  <origin>  (29) 
adg

>  <m_score__min__energy>  (29) 
-10.42

>  <m_primary>  (29) 
energy

$$$$
30:0
     RDKit          3D

 50 52  0  0  0  0  0  0  0  0999 V2000
   -4.1760   25.5030  -30.6910 N   0  0  0  0  0  0  0  0  0  0  0  0
   -5.5150   25.0450  -30.4830 C   0  0  0  0  0  0  0  0  0  0  0  0
   -6.3120   25.7740  -29.8330 O   0  0  0  0  0  0  0  0  0  0  0  0
   -5.9590   23.7200  -30.9800 C   0  0  0  0  0  0  0  0  0  0  0  0
   -7.2910   23.3070  -31.0410 C   0  0  0  0  0  0  0  0  0  0  0  0
   -7.2630   22.0620  -31.6300 C   0  0  0  0  0  0  0  0  0  0  0  0
   -8.3010   21.1740  -31.8950 C   0  0  0  0  0  0  0  0  0  0  0  0
   -7.9760   19.9310  -32.4650 C   0  0  0  0  0  0  0  0  0  0  0  0
   -6.6300   19.6030  -32.7670 C   0  0  0  0  0  0  0  0  0  0  0  0
   -6.3050   18.3190  -33.3330 N   0  0  0  0  0  0  0  0  0  0  0  0
   -6.1300   17.1560  -32.4510 C   0  0  0  0  0  0  0  0  0  0  0  0
   -5.3440   16.0350  -33.1540 C   0  0  0  0  0  0  0  0  0  0  0  0
   -4.1540   16.6050  -33.9620 C   0  0  0  0  0  0  0  0  0  0  0  0
   -3.1490   17.2030  -33.0550 N   0  0  0  0  0  0  0  0  0  0  0  0
   -2.9570   18.6490  -33.2860 C   0  0  0  0  0  0  0  0  0  0  0  0
   -2.0990   19.3210  -32.1840 C   0  0  2  0  0  0  0  0  0  0  0  0
   -2.9150   19.9740  -31.2410 O   0  0  0  0  0  0  0  0  0  0  0  0
   -1.0890   20.3160  -32.7850 C   0  0  0  0  0  0  0  0  0  0  0  0
   -0.8010   21.3390  -31.8680 O   0  0  0  0  0  0  0  0  0  0  0  0
   -4.6290   17.6570  -35.0110 C   0  0  0  0  0  0  0  0  0  0  0  0
   -6.0560   18.1710  -34.7710 C   0  0  0  0  0  0  0  0  0  0  0  0
   -5.6020   20.5290  -32.4720 C   0  0  0  0  0  0  0  0  0  0  0  0
   -5.9560   21.7600  -31.9100 C   0  0  0  0  0  0  0  0  0  0  0  0
   -5.1440   22.7650  -31.5150 N   0  0  0  0  0  0  0  0  0  0  0  0
   -3.7100   22.7520  -31.5520 C   0  0  0  0  0  0  0  0  0  0  0  0
   -3.1050   22.5380  -32.6350 O   0  0  0  0  0  0  0  0  0  0  0  0
   -2.9760   23.0090  -30.4010 O   0  0  0  0  0  0  0  0  0  0  0  0
   -3.8770   26.4230  -30.2990 H   0  0  0  0  0  0  0  0  0  0  0  0
   -3.4820   24.9450  -31.2350 H   0  0  0  0  0  0  0  0  0  0  0  0
   -8.1762   23.8591  -30.6923 H   0  0  0  0  0  0  0  0  0  0  0  0
   -9.3442   21.4368  -31.6654 H   0  0  0  0  0  0  0  0  0  0  0  0
   -8.7742   19.2050  -32.6791 H   0  0  0  0  0  0  0  0  0  0  0  0
   -5.5808   17.4685  -31.5506 H   0  0  0  0  0  0  0  0  0  0  0  0
   -7.1247   16.7688  -32.1851 H   0  0  0  0  0  0  0  0  0  0  0  0
   -4.9606   15.3363  -32.3958 H   0  0  0  0  0  0  0  0  0  0  0  0
   -6.0217   15.5196  -33.8505 H   0  0  0  0  0  0  0  0  0  0  0  0
   -3.6897   15.7694  -34.5062 H   0  0  0  0  0  0  0  0  0  0  0  0
   -2.2280   16.7150  -33.1480 H   0  0  0  0  0  0  0  0  0  0  0  0
   -2.4561   18.7872  -34.2555 H   0  0  0  0  0  0  0  0  0  0  0  0
   -3.9495   19.1231  -33.2703 H   0  0  0  0  0  0  0  0  0  0  0  0
   -1.5365   18.5240  -31.6757 H   0  0  0  0  0  0  0  0  0  0  0  0
   -2.6700   20.9370  -31.2450 H   0  0  0  0  0  0  0  0  0  0  0  0
   -0.1603   19.7823  -33.0352 H   0  0  0  0  0  0  0  0  0  0  0  0
   -1.5257   20.7627  -33.6904 H   0  0  0  0  0  0  0  0  0  0  0  0
   -1.6670   21.7370  -31.5910 H   0  0  0  0  0  0  0  0  0  0  0  0
   -3.9412   18.5148  -34.9778 H   0  0  0  0  0  0  0  0  0  0  0  0
   -4.6296   17.1555  -35.9900 H   0  0  0  0  0  0  0  0  0  0  0  0
   -6.1785   19.1469  -35.2635 H   0  0  0  0  0  0  0  0  0  0  0  0
   -6.7731   17.4482  -35.1873 H   0  0  0  0  0  0  0  0  0  0  0  0
   -4.5493   20.2867  -32.6796 H   0  0  0  0  0  0  0  0  0  0  0  0
  1  2  1  0
  2  3  2  0
  2  4  1  0
  4  5  2  0
  5  6  1  0
  6  7  2  0
  7  8  1  0
  8  9  2  0
  9 10  1  0
 10 11  1  0
 11 12  1  0
 12 13  1  0
 13 14  1  0
 14 15  1  0
 15 16  1  0
 16 17  1  0
 16 18  1  0
 18 19  1  0
 13 20  1  0
 20 21  1  0
  9 22  1  0
 22 23  2  0
 23 24  1  0
 24 25  1  0
 25 26  2  0
 25 27  1  0
 24  4  1  0
 23  6  1  0
 21 10  1  0
  1 28  1  0
  1 29  1  0
  5 30  1  0
  7 31  1  0
  8 32  1  0
 11 33  1  0
 11 34  1  0
 12 35  1  0
 12 36  1  0
 13 37  1  0
 14 38  1  0
 15 39  1  0
 15 40  1  0
 16 41  1  1
 17 42  1  0
 18 43  1  0
 18 44  1  0
 19 45  1  0
 20 46  1  0
 20 47  1  0
 21 48  1  0
 21 49  1  0
 22 50  1  0
M  CHG  1  27  -1
M  END
>  <UniqueID>  (30) 
30

>  <SMILES>  (30) 
NC(=O)c1cc2ccc(N3CCC(NC[C@H](O)CO)CC3)cc2n1C(=O)[O-]

>  <Energy>  (30) 
97.86547727516776

>  <Genealogy>  (30) 
NC(=O)c1cc2ccc(N3CCC(NC[C@H](O)CO)CC3)cc2n1C(=O)[O-] (protonated)
NC(=O)c1cc2ccc(N3CCC(NC[C@H](O)CO)CC3)cc2n1C(=O)[O-] (3D coordinates assigned)
NC(=O)c1cc2ccc(N3CCC(NC[C@H](O)CO)CC3)cc2n1C(=O)[O-] (nonaromatic ring conformer: 97.86547727516776 kcal/mol)

>  <smiles>  (30) 
NC(=O)c1cc2ccc(N3CCC(NC[C@H](O)CO)CC3)cc2n1C(=O)O

>  <score_type>  (30) 
oracle

>  <origin>  (30) 
adg

>  <m_score__min__energy>  (30) 
-9.6999999999999993

>  <m_primary>  (30) 
energy

$$$$
31:0
     RDKit          3D

 32 33  0  0  0  0  0  0  0  0999 V2000
   -3.9310   25.6000  -30.8350 N   0  0  0  0  0  0  0  0  0  0  0  0
   -5.0820   24.9220  -30.3370 C   0  0  0  0  0  0  0  0  0  0  0  0
   -5.7470   25.4420  -29.4030 O   0  0  0  0  0  0  0  0  0  0  0  0
   -5.4540   23.6030  -30.8890 C   0  0  0  0  0  0  0  0  0  0  0  0
   -6.6490   23.3640  -31.5640 C   0  0  0  0  0  0  0  0  0  0  0  0
   -6.5720   22.0570  -31.9880 C   0  0  0  0  0  0  0  0  0  0  0  0
   -7.4890   21.2940  -32.7060 C   0  0  0  0  0  0  0  0  0  0  0  0
   -7.1570   19.9580  -32.9870 C   0  0  0  0  0  0  0  0  0  0  0  0
   -5.9300   19.4090  -32.5350 C   0  0  0  0  0  0  0  0  0  0  0  0
   -5.5770   17.9840  -32.8600 C   0  0  0  0  0  0  0  0  0  0  0  0
   -5.0280   17.8950  -34.2470 C   0  0  0  0  0  0  0  0  0  0  0  0
   -3.8750   17.4290  -34.4430 O   0  0  0  0  0  0  0  0  0  0  0  0
   -5.7680   18.3740  -35.3200 O   0  0  0  0  0  0  0  0  0  0  0  0
   -5.0190   20.2180  -31.8190 C   0  0  0  0  0  0  0  0  0  0  0  0
   -5.3700   21.5500  -31.5700 C   0  0  0  0  0  0  0  0  0  0  0  0
   -4.6710   22.4880  -30.8910 N   0  0  0  0  0  0  0  0  0  0  0  0
   -3.4030   22.3030  -30.2410 C   0  0  0  0  0  0  0  0  0  0  0  0
   -3.0760   21.1630  -29.8140 O   0  0  0  0  0  0  0  0  0  0  0  0
   -2.5460   23.3960  -30.0660 O   0  0  0  0  0  0  0  0  0  0  0  0
   -2.1420   23.8780  -28.7870 C   0  0  0  0  0  0  0  0  0  0  0  0
   -1.0160   24.8520  -28.9320 C   0  0  0  0  0  0  0  0  0  0  0  0
   -1.2360   26.0200  -29.3470 O   0  0  0  0  0  0  0  0  0  0  0  0
    0.2820   24.4600  -28.6330 O   0  0  0  0  0  0  0  0  0  0  0  0
   -2.9690   25.3010  -30.5600 H   0  0  0  0  0  0  0  0  0  0  0  0
   -7.4776   24.0696  -31.7240 H   0  0  0  0  0  0  0  0  0  0  0  0
   -8.4439   21.7239  -33.0428 H   0  0  0  0  0  0  0  0  0  0  0  0
   -7.8550   19.3323  -33.5627 H   0  0  0  0  0  0  0  0  0  0  0  0
   -4.8216   17.6242  -32.1459 H   0  0  0  0  0  0  0  0  0  0  0  0
   -6.4828   17.3637  -32.7906 H   0  0  0  0  0  0  0  0  0  0  0  0
   -4.0594   19.8117  -31.4667 H   0  0  0  0  0  0  0  0  0  0  0  0
   -2.9936   24.3772  -28.3016 H   0  0  0  0  0  0  0  0  0  0  0  0
   -1.8044   23.0289  -28.1746 H   0  0  0  0  0  0  0  0  0  0  0  0
  1  2  1  0
  2  3  2  0
  2  4  1  0
  4  5  2  0
  5  6  1  0
  6  7  2  0
  7  8  1  0
  8  9  2  0
  9 10  1  0
 10 11  1  0
 11 12  2  0
 11 13  1  0
  9 14  1  0
 14 15  2  0
 15 16  1  0
 16 17  1  0
 17 18  2  0
 17 19  1  0
 19 20  1  0
 20 21  1  0
 21 22  2  0
 21 23  1  0
 16  4  1  0
 15  6  1  0
  1 24  1  0
  5 25  1  0
  7 26  1  0
  8 27  1  0
 10 28  1  0
 10 29  1  0
 14 30  1  0
 20 31  1  0
 20 32  1  0
M  CHG  3   1  -1  13  -1  23  -1
M  END
>  <UniqueID>  (31) 
31

>  <SMILES>  (31) 
[NH-]C(=O)c1cc2ccc(CC(=O)[O-])cc2n1C(=O)OCC(=O)[O-]

>  <Energy>  (31) 
67.28634076459481

>  <Genealogy>  (31) 
[NH-]C(=O)c1cc2ccc(CC(=O)[O-])cc2n1C(=O)OCC(=O)[O-] (protonated)
[NH-]C(=O)c1cc2ccc(CC(=O)[O-])cc2n1C(=O)OCC(=O)[O-] (3D coordinates assigned)
[NH-]C(=O)c1cc2ccc(CC(=O)[O-])cc2n1C(=O)OCC(=O)[O-] (optimized conformer: 67.28634076459481 kcal/mol)

>  <smiles>  (31) 
NC(=O)c1cc2ccc(CC(=O)O)cc2n1C(=O)OCC(=O)O

>  <score_type>  (31) 
oracle

>  <origin>  (31) 
adg

>  <m_score__min__energy>  (31) 
-12.07

>  <m_primary>  (31) 
energy

$$$$
32:0
     RDKit          3D

 32 33  0  0  0  0  0  0  0  0999 V2000
   -7.2550   18.3570  -32.7800 C   0  0  0  0  0  0  0  0  0  0  0  0
   -7.3220   19.7810  -32.3170 C   0  0  0  0  0  0  0  0  0  0  0  0
   -8.5600   20.4700  -32.3180 C   0  0  0  0  0  0  0  0  0  0  0  0
   -8.6280   21.8200  -31.9340 C   0  0  0  0  0  0  0  0  0  0  0  0
   -7.4470   22.4520  -31.5580 C   0  0  0  0  0  0  0  0  0  0  0  0
   -7.2210   23.7550  -31.1780 C   0  0  0  0  0  0  0  0  0  0  0  0
   -5.8500   23.8410  -30.9440 C   0  0  0  0  0  0  0  0  0  0  0  0
   -5.1860   25.0590  -30.4380 C   0  0  0  0  0  0  0  0  0  0  0  0
   -3.8620   25.3960  -30.8460 N   0  0  0  0  0  0  0  0  0  0  0  0
   -5.7760   25.7880  -29.5960 O   0  0  0  0  0  0  0  0  0  0  0  0
   -5.2500   22.6390  -31.1740 N   0  0  0  0  0  0  0  0  0  0  0  0
   -3.8470   22.3400  -31.1470 C   0  0  0  0  0  0  0  0  0  0  0  0
   -3.1150   22.6640  -32.1220 O   0  0  0  0  0  0  0  0  0  0  0  0
   -3.2920   21.7160  -30.0230 O   0  0  0  0  0  0  0  0  0  0  0  0
   -2.2320   22.2870  -29.2600 C   0  0  0  0  0  0  0  0  0  0  0  0
   -1.6540   23.3800  -29.9380 O   0  0  0  0  0  0  0  0  0  0  0  0
   -0.9980   24.4650  -28.7930 P   0  0  0  0  0  0  0  0  0  0  0  0
   -1.6850   24.2980  -27.4560 O   0  0  0  0  0  0  0  0  0  0  0  0
   -1.2420   26.0470  -29.3400 O   0  0  0  0  0  0  0  0  0  0  0  0
    0.6630   24.2000  -28.6130 O   0  0  0  0  0  0  0  0  0  0  0  0
   -6.2410   21.7980  -31.5480 C   0  0  0  0  0  0  0  0  0  0  0  0
   -6.1410   20.4600  -31.9460 C   0  0  0  0  0  0  0  0  0  0  0  0
   -7.2236   17.6887  -31.9069 H   0  0  0  0  0  0  0  0  0  0  0  0
   -8.1433   18.1264  -33.3864 H   0  0  0  0  0  0  0  0  0  0  0  0
   -6.3490   18.2109  -33.3864 H   0  0  0  0  0  0  0  0  0  0  0  0
   -9.4765   19.9432  -32.6222 H   0  0  0  0  0  0  0  0  0  0  0  0
   -9.5859   22.3607  -31.9308 H   0  0  0  0  0  0  0  0  0  0  0  0
   -7.9653   24.5589  -31.0797 H   0  0  0  0  0  0  0  0  0  0  0  0
   -3.0380   25.1490  -30.2540 H   0  0  0  0  0  0  0  0  0  0  0  0
   -2.6293   22.6321  -28.2940 H   0  0  0  0  0  0  0  0  0  0  0  0
   -1.4581   21.5206  -29.1064 H   0  0  0  0  0  0  0  0  0  0  0  0
   -5.1666   19.9501  -31.9692 H   0  0  0  0  0  0  0  0  0  0  0  0
  1  2  1  0
  2  3  2  0
  3  4  1  0
  4  5  2  0
  5  6  1  0
  6  7  2  0
  7  8  1  0
  8  9  1  0
  8 10  2  0
  7 11  1  0
 11 12  1  0
 12 13  2  0
 12 14  1  0
 14 15  1  0
 15 16  1  0
 16 17  1  0
 17 18  2  0
 17 19  1  0
 17 20  1  0
 11 21  1  0
 21 22  2  0
 22  2  1  0
 21  5  1  0
  1 23  1  0
  1 24  1  0
  1 25  1  0
  3 26  1  0
  4 27  1  0
  6 28  1  0
  9 29  1  0
 15 30  1  0
 15 31  1  0
 22 32  1  0
M  CHG  3   9  -1  19  -1  20  -1
M  END
>  <UniqueID>  (32) 
32

>  <SMILES>  (32) 
Cc1ccc2cc(C([NH-])=O)n(C(=O)OCOP(=O)([O-])[O-])c2c1

>  <Energy>  (32) 
68.89927030312651

>  <Genealogy>  (32) 
Cc1ccc2cc(C([NH-])=O)n(C(=O)OCOP(=O)([O-])[O-])c2c1 (protonated)
Cc1ccc2cc(C([NH-])=O)n(C(=O)OCOP(=O)([O-])[O-])c2c1 (3D coordinates assigned)
Cc1ccc2cc(C([NH-])=O)n(C(=O)OCOP(=O)([O-])[O-])c2c1 (optimized conformer: 68.89927030312651 kcal/mol)

>  <smiles>  (32) 
Cc1ccc2cc(C(N)=O)n(C(=O)OCOP(=O)(O)O)c2c1

>  <score_type>  (32) 
oracle

>  <origin>  (32) 
adg

>  <m_score__min__energy>  (32) 
-13.51

>  <m_primary>  (32) 
energy

$$$$
33:0
     RDKit          3D

 38 40  0  0  0  0  0  0  0  0999 V2000
   -3.8360   25.3260  -30.8190 N   0  0  0  0  0  0  0  0  0  0  0  0
   -5.1530   24.8670  -30.5230 C   0  0  0  0  0  0  0  0  0  0  0  0
   -5.8890   25.5520  -29.7650 O   0  0  0  0  0  0  0  0  0  0  0  0
   -5.6490   23.6140  -31.1280 C   0  0  0  0  0  0  0  0  0  0  0  0
   -7.0000   23.3390  -31.3440 C   0  0  0  0  0  0  0  0  0  0  0  0
   -7.0360   22.0530  -31.8350 C   0  0  0  0  0  0  0  0  0  0  0  0
   -8.1190   21.2680  -32.2140 C   0  0  0  0  0  0  0  0  0  0  0  0
   -7.8590   19.9730  -32.6930 C   0  0  0  0  0  0  0  0  0  0  0  0
   -6.5290   19.4860  -32.7940 C   0  0  0  0  0  0  0  0  0  0  0  0
   -6.2870   18.1110  -33.3030 C   0  0  0  0  0  0  0  0  0  0  0  0
   -7.1980   17.0620  -33.0820 C   0  0  0  0  0  0  0  0  0  0  0  0
   -6.9250   15.8210  -33.5660 N   0  0  0  0  0  0  0  0  0  0  0  0
   -5.7850   15.5690  -34.2600 C   0  0  0  0  0  0  0  0  0  0  0  0
   -4.8720   16.6010  -34.4730 C   0  0  0  0  0  0  0  0  0  0  0  0
   -5.1420   17.8420  -33.9910 N   0  0  0  0  0  0  0  0  0  0  0  0
   -5.4550   20.3150  -32.3870 C   0  0  0  0  0  0  0  0  0  0  0  0
   -5.7470   21.5960  -31.9070 C   0  0  0  0  0  0  0  0  0  0  0  0
   -4.8850   22.5430  -31.4820 N   0  0  0  0  0  0  0  0  0  0  0  0
   -3.4540   22.4270  -31.4510 C   0  0  0  0  0  0  0  0  0  0  0  0
   -2.8190   22.3080  -32.5330 O   0  0  0  0  0  0  0  0  0  0  0  0
   -2.7220   22.4930  -30.1730 C   0  0  0  0  0  0  0  0  0  0  0  0
   -2.6550   21.4660  -29.4440 O   0  0  0  0  0  0  0  0  0  0  0  0
   -2.0940   23.7140  -29.7510 N   0  0  0  0  0  0  0  0  0  0  0  0
   -1.3140   23.8060  -28.5200 C   0  0  0  0  0  0  0  0  0  0  0  0
   -0.6850   25.1570  -28.4060 C   0  0  0  0  0  0  0  0  0  0  0  0
   -1.1860   26.1400  -29.0130 O   0  0  0  0  0  0  0  0  0  0  0  0
    0.4750   25.3270  -27.6610 O   0  0  0  0  0  0  0  0  0  0  0  0
   -3.1360   24.6960  -31.2710 H   0  0  0  0  0  0  0  0  0  0  0  0
   -7.8543   24.0073  -31.1610 H   0  0  0  0  0  0  0  0  0  0  0  0
   -9.1483   21.6492  -32.1411 H   0  0  0  0  0  0  0  0  0  0  0  0
   -8.6973   19.3275  -32.9939 H   0  0  0  0  0  0  0  0  0  0  0  0
   -8.1262   17.2448  -32.5207 H   0  0  0  0  0  0  0  0  0  0  0  0
   -5.5840   14.5604  -34.6503 H   0  0  0  0  0  0  0  0  0  0  0  0
   -3.9406   16.4118  -35.0268 H   0  0  0  0  0  0  0  0  0  0  0  0
   -4.4157   19.9597  -32.4470 H   0  0  0  0  0  0  0  0  0  0  0  0
   -2.1910   24.5730  -30.3380 H   0  0  0  0  0  0  0  0  0  0  0  0
   -1.9760   23.6396  -27.6574 H   0  0  0  0  0  0  0  0  0  0  0  0
   -0.5224   23.0425  -28.5393 H   0  0  0  0  0  0  0  0  0  0  0  0
  1  2  1  0
  2  3  2  0
  2  4  1  0
  4  5  2  0
  5  6  1  0
  6  7  2  0
  7  8  1  0
  8  9  2  0
  9 10  1  0
 10 11  2  0
 11 12  1  0
 12 13  2  0
 13 14  1  0
 14 15  2  0
  9 16  1  0
 16 17  2  0
 17 18  1  0
 18 19  1  0
 19 20  2  0
 19 21  1  0
 21 22  2  0
 21 23  1  0
 23 24  1  0
 24 25  1  0
 25 26  2  0
 25 27  1  0
 18  4  1  0
 17  6  1  0
 15 10  1  0
  1 28  1  0
  5 29  1  0
  7 30  1  0
  8 31  1  0
 11 32  1  0
 13 33  1  0
 14 34  1  0
 16 35  1  0
 23 36  1  0
 24 37  1  0
 24 38  1  0
M  CHG  2   1  -1  27  -1
M  END
>  <UniqueID>  (33) 
33

>  <SMILES>  (33) 
[NH-]C(=O)c1cc2ccc(-c3cnccn3)cc2n1C(=O)C(=O)NCC(=O)[O-]

>  <Energy>  (33) 
82.8323942634031

>  <Genealogy>  (33) 
[NH-]C(=O)c1cc2ccc(-c3cnccn3)cc2n1C(=O)C(=O)NCC(=O)[O-] (protonated)
[NH-]C(=O)c1cc2ccc(-c3cnccn3)cc2n1C(=O)C(=O)NCC(=O)[O-] (3D coordinates assigned)
[NH-]C(=O)c1cc2ccc(-c3cnccn3)cc2n1C(=O)C(=O)NCC(=O)[O-] (optimized conformer: 82.8323942634031 kcal/mol)

>  <smiles>  (33) 
NC(=O)c1cc2ccc(-c3cnccn3)cc2n1C(=O)C(=O)NCC(=O)O

>  <score_type>  (33) 
oracle

>  <origin>  (33) 
adg

>  <m_score__min__energy>  (33) 
-12.960000000000001

>  <m_primary>  (33) 
energy

$$$$
34:0
     RDKit          3D

 43 44  0  0  0  0  0  0  0  0999 V2000
   -3.7250   23.6470  -27.4710 C   0  0  0  0  0  0  0  0  0  0  0  0
   -2.3600   24.3030  -27.7430 C   0  0  0  0  0  0  0  0  0  0  0  0
   -1.8710   25.0120  -26.4700 C   0  0  0  0  0  0  0  0  0  0  0  0
   -2.5250   25.2980  -28.8110 N   0  0  0  0  0  0  0  0  0  0  0  0
   -1.3490   23.2440  -28.1430 C   0  0  0  0  0  0  0  0  0  0  0  0
   -0.8800   22.4650  -27.2690 O   0  0  0  0  0  0  0  0  0  0  0  0
   -0.9080   23.1610  -29.4690 O   0  0  0  0  0  0  0  0  0  0  0  0
   -1.6270   22.4640  -30.4800 C   0  0  0  0  0  0  0  0  0  0  0  0
   -2.9100   23.0570  -30.6480 O   0  0  0  0  0  0  0  0  0  0  0  0
   -3.8340   22.6100  -31.5970 C   0  0  0  0  0  0  0  0  0  0  0  0
   -3.4370   22.0530  -32.6570 O   0  0  0  0  0  0  0  0  0  0  0  0
   -5.2400   22.7710  -31.3520 N   0  0  0  0  0  0  0  0  0  0  0  0
   -5.8560   23.7860  -30.6840 C   0  0  0  0  0  0  0  0  0  0  0  0
   -5.2170   25.0350  -30.2200 C   0  0  0  0  0  0  0  0  0  0  0  0
   -4.0420   25.5360  -30.8530 N   0  0  0  0  0  0  0  0  0  0  0  0
   -5.7410   25.6930  -29.2830 O   0  0  0  0  0  0  0  0  0  0  0  0
   -7.2190   23.5280  -30.5490 C   0  0  0  0  0  0  0  0  0  0  0  0
   -7.4230   22.3160  -31.1660 C   0  0  0  0  0  0  0  0  0  0  0  0
   -8.5900   21.5700  -31.3070 C   0  0  0  0  0  0  0  0  0  0  0  0
   -8.5020   20.3260  -31.9530 C   0  0  0  0  0  0  0  0  0  0  0  0
   -7.2590   19.8540  -32.4440 C   0  0  0  0  0  0  0  0  0  0  0  0
   -7.1680   18.4990  -33.0880 C   0  0  0  0  0  0  0  0  0  0  0  0
   -6.1120   18.5000  -34.1040 C   0  0  0  0  0  0  0  0  0  0  0  0
   -5.2790   18.5010  -34.9090 N   0  0  0  0  0  0  0  0  0  0  0  0
   -6.0930   20.6350  -32.2730 C   0  0  0  0  0  0  0  0  0  0  0  0
   -6.2130   21.8780  -31.6420 C   0  0  0  0  0  0  0  0  0  0  0  0
   -3.8850   23.5701  -26.3854 H   0  0  0  0  0  0  0  0  0  0  0  0
   -4.5219   24.2605  -27.9166 H   0  0  0  0  0  0  0  0  0  0  0  0
   -3.7439   22.6415  -27.9166 H   0  0  0  0  0  0  0  0  0  0  0  0
   -2.2420   24.4740  -25.5852 H   0  0  0  0  0  0  0  0  0  0  0  0
   -0.7712   25.0248  -26.4569 H   0  0  0  0  0  0  0  0  0  0  0  0
   -2.2498   26.0446  -26.4569 H   0  0  0  0  0  0  0  0  0  0  0  0
   -3.5390   25.5440  -28.9070 H   0  0  0  0  0  0  0  0  0  0  0  0
   -2.2180   24.8920  -29.7260 H   0  0  0  0  0  0  0  0  0  0  0  0
   -1.0715   22.5184  -31.4279 H   0  0  0  0  0  0  0  0  0  0  0  0
   -1.7469   21.4115  -30.1835 H   0  0  0  0  0  0  0  0  0  0  0  0
   -3.0930   25.2500  -30.5280 H   0  0  0  0  0  0  0  0  0  0  0  0
   -7.9715   24.1595  -30.0542 H   0  0  0  0  0  0  0  0  0  0  0  0
   -9.5513   21.9434  -30.9243 H   0  0  0  0  0  0  0  0  0  0  0  0
   -9.4062   19.7123  -32.0791 H   0  0  0  0  0  0  0  0  0  0  0  0
   -6.9357   17.7454  -32.3211 H   0  0  0  0  0  0  0  0  0  0  0  0
   -8.1297   18.2593  -33.5652 H   0  0  0  0  0  0  0  0  0  0  0  0
   -5.1160   20.2745  -32.6271 H   0  0  0  0  0  0  0  0  0  0  0  0
  1  2  1  0
  2  3  1  0
  2  4  1  0
  2  5  1  0
  5  6  2  0
  5  7  1  0
  7  8  1  0
  8  9  1  0
  9 10  1  0
 10 11  2  0
 10 12  1  0
 12 13  1  0
 13 14  1  0
 14 15  1  0
 14 16  2  0
 13 17  2  0
 17 18  1  0
 18 19  2  0
 19 20  1  0
 20 21  2  0
 21 22  1  0
 22 23  1  0
 23 24  3  0
 21 25  1  0
 25 26  2  0
 26 12  1  0
 26 18  1  0
  1 27  1  0
  1 28  1  0
  1 29  1  0
  3 30  1  0
  3 31  1  0
  3 32  1  0
  4 33  1  0
  4 34  1  0
  8 35  1  0
  8 36  1  0
 15 37  1  0
 17 38  1  0
 19 39  1  0
 20 40  1  0
 22 41  1  0
 22 42  1  0
 25 43  1  0
M  CHG  1  15  -1
M  END
>  <UniqueID>  (34) 
34

>  <SMILES>  (34) 
CC(C)(N)C(=O)OCOC(=O)n1c(C([NH-])=O)cc2ccc(CC#N)cc21

>  <Energy>  (34) 
73.58721603035467

>  <Genealogy>  (34) 
CC(C)(N)C(=O)OCOC(=O)n1c(C([NH-])=O)cc2ccc(CC#N)cc21 (protonated)
CC(C)(N)C(=O)OCOC(=O)n1c(C([NH-])=O)cc2ccc(CC#N)cc21 (3D coordinates assigned)
CC(C)(N)C(=O)OCOC(=O)n1c(C([NH-])=O)cc2ccc(CC#N)cc21 (optimized conformer: 73.58721603035467 kcal/mol)

>  <smiles>  (34) 
CC(C)(N)C(=O)OCOC(=O)n1c(C(N)=O)cc2ccc(CC#N)cc21

>  <score_type>  (34) 
oracle

>  <origin>  (34) 
adg

>  <m_score__min__energy>  (34) 
-10.84

>  <m_primary>  (34) 
energy

$$$$
35:0
     RDKit          3D

 38 39  0  0  0  0  0  0  0  0999 V2000
   -9.0530   18.7520  -31.6690 C   0  0  0  0  0  0  0  0  0  0  0  0
   -8.3530   19.9390  -32.1750 N   0  0  0  0  0  0  0  0  0  0  0  0
   -9.1030   21.2010  -32.2730 C   0  0  0  0  0  0  0  0  0  0  0  0
   -8.5350   22.2490  -31.3110 C   0  0  0  0  0  0  0  0  0  0  0  0
   -7.7720   23.1900  -32.0150 O   0  0  0  0  0  0  0  0  0  0  0  0
   -6.9670   19.8470  -32.5970 C   0  0  0  0  0  0  0  0  0  0  0  0
   -6.5480   18.8060  -33.4730 C   0  0  0  0  0  0  0  0  0  0  0  0
   -5.2150   18.7130  -33.9030 C   0  0  0  0  0  0  0  0  0  0  0  0
   -4.3120   19.6620  -33.4430 C   0  0  0  0  0  0  0  0  0  0  0  0
   -2.9760   19.8240  -33.7330 C   0  0  0  0  0  0  0  0  0  0  0  0
   -2.5780   20.9450  -33.0110 C   0  0  0  0  0  0  0  0  0  0  0  0
   -1.1890   21.4450  -32.9880 C   0  0  0  0  0  0  0  0  0  0  0  0
   -0.5430   21.7820  -31.7590 N   0  0  0  0  0  0  0  0  0  0  0  0
   -0.5420   21.5230  -34.0660 O   0  0  0  0  0  0  0  0  0  0  0  0
   -3.6260   21.4660  -32.3120 N   0  0  0  0  0  0  0  0  0  0  0  0
   -3.6420   22.6840  -31.5490 C   0  0  0  0  0  0  0  0  0  0  0  0
   -2.6460   22.9940  -30.8400 O   0  0  0  0  0  0  0  0  0  0  0  0
   -4.7690   23.5170  -31.6030 O   0  0  0  0  0  0  0  0  0  0  0  0
   -4.9760   24.6440  -30.7990 C   0  0  0  0  0  0  0  0  0  0  0  0
   -3.8640   25.4720  -30.4690 N   0  0  0  0  0  0  0  0  0  0  0  0
   -6.1210   24.9370  -30.3610 O   0  0  0  0  0  0  0  0  0  0  0  0
   -4.6820   20.6650  -32.5860 C   0  0  0  0  0  0  0  0  0  0  0  0
   -6.0090   20.7960  -32.1580 C   0  0  0  0  0  0  0  0  0  0  0  0
   -9.0463   18.7634  -30.5691 H   0  0  0  0  0  0  0  0  0  0  0  0
  -10.0923   18.7578  -32.0294 H   0  0  0  0  0  0  0  0  0  0  0  0
   -8.5450   17.8453  -32.0294 H   0  0  0  0  0  0  0  0  0  0  0  0
   -9.0342   21.5821  -33.3026 H   0  0  0  0  0  0  0  0  0  0  0  0
  -10.1522   21.0087  -32.0045 H   0  0  0  0  0  0  0  0  0  0  0  0
   -9.3642   22.7617  -30.8016 H   0  0  0  0  0  0  0  0  0  0  0  0
   -7.8929   21.7470  -30.5723 H   0  0  0  0  0  0  0  0  0  0  0  0
   -6.9140   23.2860  -31.5230 H   0  0  0  0  0  0  0  0  0  0  0  0
   -7.2810   18.0622  -33.8186 H   0  0  0  0  0  0  0  0  0  0  0  0
   -4.8951   17.9113  -34.5848 H   0  0  0  0  0  0  0  0  0  0  0  0
   -2.3559   19.2007  -34.3940 H   0  0  0  0  0  0  0  0  0  0  0  0
    0.4240   22.1730  -31.7660 H   0  0  0  0  0  0  0  0  0  0  0  0
   -0.9910   21.5710  -30.8400 H   0  0  0  0  0  0  0  0  0  0  0  0
   -2.8880   25.1710  -30.6850 H   0  0  0  0  0  0  0  0  0  0  0  0
   -6.3032   21.6210  -31.4926 H   0  0  0  0  0  0  0  0  0  0  0  0
  1  2  1  0
  2  3  1  0
  3  4  1  0
  4  5  1  0
  2  6  1  0
  6  7  2  0
  7  8  1  0
  8  9  2  0
  9 10  1  0
 10 11  2  0
 11 12  1  0
 12 13  1  0
 12 14  2  0
 11 15  1  0
 15 16  1  0
 16 17  2  0
 16 18  1  0
 18 19  1  0
 19 20  1  0
 19 21  2  0
 15 22  1  0
 22 23  2  0
 23  6  1  0
 22  9  1  0
  1 24  1  0
  1 25  1  0
  1 26  1  0
  3 27  1  0
  3 28  1  0
  4 29  1  0
  4 30  1  0
  5 31  1  0
  7 32  1  0
  8 33  1  0
 10 34  1  0
 13 35  1  0
 13 36  1  0
 20 37  1  0
 23 38  1  0
M  CHG  1  20  -1
M  END
>  <UniqueID>  (35) 
35

>  <SMILES>  (35) 
CN(CCO)c1ccc2cc(C(N)=O)n(C(=O)OC([NH-])=O)c2c1

>  <Energy>  (35) 
77.69930245272266

>  <Genealogy>  (35) 
CN(CCO)c1ccc2cc(C(N)=O)n(C(=O)OC([NH-])=O)c2c1 (protonated)
CN(CCO)c1ccc2cc(C(N)=O)n(C(=O)OC([NH-])=O)c2c1 (3D coordinates assigned)
CN(CCO)c1ccc2cc(C(N)=O)n(C(=O)OC([NH-])=O)c2c1 (optimized conformer: 77.69930245272266 kcal/mol)

>  <smiles>  (35) 
CN(CCO)c1ccc2cc(C(N)=O)n(C(=O)OC(N)=O)c2c1

>  <score_type>  (35) 
oracle

>  <origin>  (35) 
adg

>  <m_score__min__energy>  (35) 
-10.6

>  <m_primary>  (35) 
energy

$$$$
36:0
     RDKit          3D

 40 41  0  0  0  0  0  0  0  0999 V2000
   -1.4360   20.6970  -31.5750 C   0  0  0  0  0  0  0  0  0  0  0  0
   -2.0410   21.6960  -32.3860 O   0  0  0  0  0  0  0  0  0  0  0  0
   -3.4210   21.9250  -32.3960 C   0  0  0  0  0  0  0  0  0  0  0  0
   -4.0950   21.7240  -33.4430 O   0  0  0  0  0  0  0  0  0  0  0  0
   -4.0830   22.4150  -31.1790 C   0  0  0  0  0  0  0  0  0  0  0  0
   -3.4190   22.5220  -30.1130 O   0  0  0  0  0  0  0  0  0  0  0  0
   -5.4720   22.7770  -31.1910 N   0  0  0  0  0  0  0  0  0  0  0  0
   -6.0230   23.9720  -30.8350 C   0  0  0  0  0  0  0  0  0  0  0  0
   -5.2740   25.1860  -30.4490 C   0  0  0  0  0  0  0  0  0  0  0  0
   -3.8740   25.2690  -30.7070 N   0  0  0  0  0  0  0  0  0  0  0  0
   -5.8540   26.1450  -29.8760 O   0  0  0  0  0  0  0  0  0  0  0  0
   -7.4120   23.9150  -30.9370 C   0  0  0  0  0  0  0  0  0  0  0  0
   -7.6960   22.6370  -31.3650 C   0  0  0  0  0  0  0  0  0  0  0  0
   -8.9210   22.0300  -31.6260 C   0  0  0  0  0  0  0  0  0  0  0  0
   -8.9150   20.6860  -32.0370 C   0  0  0  0  0  0  0  0  0  0  0  0
   -7.6950   19.9740  -32.1600 C   0  0  0  0  0  0  0  0  0  0  0  0
   -7.7030   18.5420  -32.6270 C   0  0  0  0  0  0  0  0  0  0  0  0
   -6.3360   17.9150  -32.4830 C   0  0  0  0  0  0  0  0  0  0  0  0
   -6.0700   17.2880  -31.4190 O   0  0  0  0  0  0  0  0  0  0  0  0
   -5.3590   17.9490  -33.5470 N   0  0  0  0  0  0  0  0  0  0  0  0
   -4.0280   17.3820  -33.3060 C   0  0  0  0  0  0  0  0  0  0  0  0
   -5.6850   18.5130  -34.8620 C   0  0  0  0  0  0  0  0  0  0  0  0
   -6.4710   20.6270  -31.8920 C   0  0  0  0  0  0  0  0  0  0  0  0
   -6.5080   21.9700  -31.5060 C   0  0  0  0  0  0  0  0  0  0  0  0
   -1.5864   20.9454  -30.5140 H   0  0  0  0  0  0  0  0  0  0  0  0
   -1.8950   19.7211  -31.7918 H   0  0  0  0  0  0  0  0  0  0  0  0
   -0.3585   20.6517  -31.7918 H   0  0  0  0  0  0  0  0  0  0  0  0
   -3.4800   26.0430  -31.2840 H   0  0  0  0  0  0  0  0  0  0  0  0
   -8.1296   24.7203  -30.7213 H   0  0  0  0  0  0  0  0  0  0  0  0
   -9.8642   22.5848  -31.5141 H   0  0  0  0  0  0  0  0  0  0  0  0
   -9.8656   20.1818  -32.2654 H   0  0  0  0  0  0  0  0  0  0  0  0
   -8.4251   17.9716  -32.0243 H   0  0  0  0  0  0  0  0  0  0  0  0
   -7.9858   18.5228  -33.6898 H   0  0  0  0  0  0  0  0  0  0  0  0
   -3.8520   17.3070  -32.2228 H   0  0  0  0  0  0  0  0  0  0  0  0
   -3.9689   16.3806  -33.7572 H   0  0  0  0  0  0  0  0  0  0  0  0
   -3.2649   18.0332  -33.7572 H   0  0  0  0  0  0  0  0  0  0  0  0
   -6.2315   19.4585  -34.7302 H   0  0  0  0  0  0  0  0  0  0  0  0
   -4.7563   18.7011  -35.4207 H   0  0  0  0  0  0  0  0  0  0  0  0
   -6.3115   17.8022  -35.4207 H   0  0  0  0  0  0  0  0  0  0  0  0
   -5.5140   20.0925  -31.9847 H   0  0  0  0  0  0  0  0  0  0  0  0
  1  2  1  0
  2  3  1  0
  3  4  2  0
  3  5  1  0
  5  6  2  0
  5  7  1  0
  7  8  1  0
  8  9  1  0
  9 10  1  0
  9 11  2  0
  8 12  2  0
 12 13  1  0
 13 14  2  0
 14 15  1  0
 15 16  2  0
 16 17  1  0
 17 18  1  0
 18 19  2  0
 18 20  1  0
 20 21  1  0
 20 22  1  0
 16 23  1  0
 23 24  2  0
 24  7  1  0
 24 13  1  0
  1 25  1  0
  1 26  1  0
  1 27  1  0
 10 28  1  0
 12 29  1  0
 14 30  1  0
 15 31  1  0
 17 32  1  0
 17 33  1  0
 21 34  1  0
 21 35  1  0
 21 36  1  0
 22 37  1  0
 22 38  1  0
 22 39  1  0
 23 40  1  0
M  CHG  1  10  -1
M  END
>  <UniqueID>  (36) 
36

>  <SMILES>  (36) 
COC(=O)C(=O)n1c(C([NH-])=O)cc2ccc(CC(=O)N(C)C)cc21

>  <Energy>  (36) 
74.123367113108

>  <Genealogy>  (36) 
COC(=O)C(=O)n1c(C([NH-])=O)cc2ccc(CC(=O)N(C)C)cc21 (protonated)
COC(=O)C(=O)n1c(C([NH-])=O)cc2ccc(CC(=O)N(C)C)cc21 (3D coordinates assigned)
COC(=O)C(=O)n1c(C([NH-])=O)cc2ccc(CC(=O)N(C)C)cc21 (optimized conformer: 74.123367113108 kcal/mol)

>  <smiles>  (36) 
COC(=O)C(=O)n1c(C(N)=O)cc2ccc(CC(=O)N(C)C)cc21

>  <score_type>  (36) 
oracle

>  <origin>  (36) 
adg

>  <m_score__min__energy>  (36) 
-10.44

>  <m_primary>  (36) 
energy

$$$$
37:0
     RDKit          3D

 37 39  0  0  0  0  0  0  0  0999 V2000
   -5.0390   24.7400  -28.7780 N   0  0  0  0  0  0  0  0  0  0  0  0
   -4.9090   24.5160  -30.1830 C   0  0  0  0  0  0  0  0  0  0  0  0
   -4.3600   25.3960  -30.8960 O   0  0  0  0  0  0  0  0  0  0  0  0
   -5.4630   23.2920  -30.7900 C   0  0  0  0  0  0  0  0  0  0  0  0
   -6.8230   23.1150  -31.0310 C   0  0  0  0  0  0  0  0  0  0  0  0
   -6.9280   21.8880  -31.6360 C   0  0  0  0  0  0  0  0  0  0  0  0
   -8.0590   21.2020  -32.0630 C   0  0  0  0  0  0  0  0  0  0  0  0
   -7.8850   19.9280  -32.6190 C   0  0  0  0  0  0  0  0  0  0  0  0
   -6.5940   19.3580  -32.7230 C   0  0  0  0  0  0  0  0  0  0  0  0
   -6.4350   18.0550  -33.2980 N   0  0  0  0  0  0  0  0  0  0  0  0
   -6.5580   16.6500  -32.8670 C   0  0  0  0  0  0  0  0  0  0  0  0
   -6.2230   16.0520  -34.1950 C   0  0  0  0  0  0  0  0  0  0  0  0
   -7.2590   15.3380  -34.7680 F   0  0  0  0  0  0  0  0  0  0  0  0
   -5.0020   15.3950  -34.2160 F   0  0  0  0  0  0  0  0  0  0  0  0
   -6.1480   17.4820  -34.6260 C   0  0  0  0  0  0  0  0  0  0  0  0
   -5.4670   20.0750  -32.2680 C   0  0  0  0  0  0  0  0  0  0  0  0
   -5.6620   21.3560  -31.7390 C   0  0  0  0  0  0  0  0  0  0  0  0
   -4.7480   22.2160  -31.2320 N   0  0  0  0  0  0  0  0  0  0  0  0
   -3.3350   21.9790  -31.0660 C   0  0  0  0  0  0  0  0  0  0  0  0
   -2.8800   20.8070  -31.1280 O   0  0  0  0  0  0  0  0  0  0  0  0
   -2.4630   23.0620  -30.8710 O   0  0  0  0  0  0  0  0  0  0  0  0
   -1.3570   23.0400  -29.9680 C   0  0  0  0  0  0  0  0  0  0  0  0
   -1.1870   24.3600  -29.2850 C   0  0  0  0  0  0  0  0  0  0  0  0
   -0.1600   24.5930  -28.5930 O   0  0  0  0  0  0  0  0  0  0  0  0
   -2.2120   25.2980  -29.3290 O   0  0  0  0  0  0  0  0  0  0  0  0
   -5.4270   24.0040  -28.1480 H   0  0  0  0  0  0  0  0  0  0  0  0
   -4.6970   25.6320  -28.3550 H   0  0  0  0  0  0  0  0  0  0  0  0
   -7.6395   23.8109  -30.7880 H   0  0  0  0  0  0  0  0  0  0  0  0
   -9.0607   21.6462  -31.9672 H   0  0  0  0  0  0  0  0  0  0  0  0
   -8.7597   19.3657  -32.9779 H   0  0  0  0  0  0  0  0  0  0  0  0
   -5.8338   16.3803  -32.0842 H   0  0  0  0  0  0  0  0  0  0  0  0
   -7.5092   16.3473  -32.4049 H   0  0  0  0  0  0  0  0  0  0  0  0
   -5.1533   17.7609  -35.0038 H   0  0  0  0  0  0  0  0  0  0  0  0
   -6.7973   17.7913  -35.4583 H   0  0  0  0  0  0  0  0  0  0  0  0
   -4.4594   19.6376  -32.3277 H   0  0  0  0  0  0  0  0  0  0  0  0
   -1.5298   22.2632  -29.2086 H   0  0  0  0  0  0  0  0  0  0  0  0
   -0.4437   22.8261  -30.5426 H   0  0  0  0  0  0  0  0  0  0  0  0
  1  2  1  0
  2  3  2  0
  2  4  1  0
  4  5  2  0
  5  6  1  0
  6  7  2  0
  7  8  1  0
  8  9  2  0
  9 10  1  0
 10 11  1  0
 11 12  1  0
 12 13  1  0
 12 14  1  0
 12 15  1  0
  9 16  1  0
 16 17  2  0
 17 18  1  0
 18 19  1  0
 19 20  2  0
 19 21  1  0
 21 22  1  0
 22 23  1  0
 23 24  2  0
 23 25  1  0
 18  4  1  0
 17  6  1  0
 15 10  1  0
  1 26  1  0
  1 27  1  0
  5 28  1  0
  7 29  1  0
  8 30  1  0
 11 31  1  0
 11 32  1  0
 15 33  1  0
 15 34  1  0
 16 35  1  0
 22 36  1  0
 22 37  1  0
M  CHG  1  25  -1
M  END
>  <UniqueID>  (37) 
37

>  <SMILES>  (37) 
NC(=O)c1cc2ccc(N3CC(F)(F)C3)cc2n1C(=O)OCC(=O)[O-]

>  <Energy>  (37) 
120.94839714694713

>  <Genealogy>  (37) 
NC(=O)c1cc2ccc(N3CC(F)(F)C3)cc2n1C(=O)OCC(=O)[O-] (protonated)
NC(=O)c1cc2ccc(N3CC(F)(F)C3)cc2n1C(=O)OCC(=O)[O-] (3D coordinates assigned)
NC(=O)c1cc2ccc(N3CC(F)(F)C3)cc2n1C(=O)OCC(=O)[O-] (nonaromatic ring conformer: 120.94839714694713 kcal/mol)

>  <smiles>  (37) 
NC(=O)c1cc2ccc(N3CC(F)(F)C3)cc2n1C(=O)OCC(=O)O

>  <score_type>  (37) 
oracle

>  <origin>  (37) 
adg

>  <m_score__min__energy>  (37) 
-10.609999999999999

>  <m_primary>  (37) 
energy

$$$$
38:0
     RDKit          3D

 46 47  0  0  0  0  0  0  0  0999 V2000
    0.8920   23.4530  -26.1190 C   0  0  0  0  0  0  0  0  0  0  0  0
    0.7410   24.7310  -26.9300 C   0  0  0  0  0  0  0  0  0  0  0  0
    0.6370   24.4000  -28.2950 O   0  0  0  0  0  0  0  0  0  0  0  0
   -1.0060   24.1030  -28.6560 P   0  0  0  0  0  0  0  0  0  0  0  0
   -1.6030   25.3350  -29.3010 O   0  0  0  0  0  0  0  0  0  0  0  0
   -1.8640   23.7500  -27.2240 O   0  0  0  0  0  0  0  0  0  0  0  0
   -2.8410   24.7440  -27.0320 C   0  0  0  0  0  0  0  0  0  0  0  0
   -4.1980   24.1860  -27.4310 C   0  0  0  0  0  0  0  0  0  0  0  0
   -1.0850   22.7770  -29.7340 O   0  0  0  0  0  0  0  0  0  0  0  0
   -1.9330   21.7840  -29.2040 C   0  0  0  0  0  0  0  0  0  0  0  0
   -3.2960   22.0730  -29.5040 O   0  0  0  0  0  0  0  0  0  0  0  0
   -3.7080   22.6100  -30.7270 C   0  0  0  0  0  0  0  0  0  0  0  0
   -2.8630   22.9040  -31.6170 O   0  0  0  0  0  0  0  0  0  0  0  0
   -5.1040   22.8420  -30.9600 N   0  0  0  0  0  0  0  0  0  0  0  0
   -5.7940   24.0110  -30.8440 C   0  0  0  0  0  0  0  0  0  0  0  0
   -5.2190   25.3270  -30.4950 C   0  0  0  0  0  0  0  0  0  0  0  0
   -3.8680   25.6260  -30.8430 N   0  0  0  0  0  0  0  0  0  0  0  0
   -5.8960   26.1810  -29.8640 O   0  0  0  0  0  0  0  0  0  0  0  0
   -7.1340   23.8210  -31.1850 C   0  0  0  0  0  0  0  0  0  0  0  0
   -7.2380   22.4890  -31.5230 C   0  0  0  0  0  0  0  0  0  0  0  0
   -8.3390   21.7540  -31.9560 C   0  0  0  0  0  0  0  0  0  0  0  0
   -8.1520   20.3880  -32.2320 C   0  0  0  0  0  0  0  0  0  0  0  0
   -6.8870   19.7810  -32.0420 C   0  0  0  0  0  0  0  0  0  0  0  0
   -6.6890   18.3320  -32.3700 C   0  0  0  0  0  0  0  0  0  0  0  0
   -5.7950   20.5590  -31.6030 C   0  0  0  0  0  0  0  0  0  0  0  0
   -6.0000   21.9220  -31.3720 C   0  0  0  0  0  0  0  0  0  0  0  0
    0.8635   23.6941  -25.0461 H   0  0  0  0  0  0  0  0  0  0  0  0
    0.0689   22.7650  -26.3622 H   0  0  0  0  0  0  0  0  0  0  0  0
    1.8528   22.9758  -26.3622 H   0  0  0  0  0  0  0  0  0  0  0  0
   -0.1658   25.2654  -26.6103 H   0  0  0  0  0  0  0  0  0  0  0  0
    1.6168   25.3772  -26.7706 H   0  0  0  0  0  0  0  0  0  0  0  0
   -2.8613   25.0419  -25.9733 H   0  0  0  0  0  0  0  0  0  0  0  0
   -2.6039   25.6231  -27.6492 H   0  0  0  0  0  0  0  0  0  0  0  0
   -4.7769   23.9479  -26.5265 H   0  0  0  0  0  0  0  0  0  0  0  0
   -4.7410   24.9339  -28.0276 H   0  0  0  0  0  0  0  0  0  0  0  0
   -4.0578   23.2725  -28.0276 H   0  0  0  0  0  0  0  0  0  0  0  0
   -1.6658   20.8103  -29.6405 H   0  0  0  0  0  0  0  0  0  0  0  0
   -1.8089   21.7593  -28.1113 H   0  0  0  0  0  0  0  0  0  0  0  0
   -3.1240   24.8980  -30.7770 H   0  0  0  0  0  0  0  0  0  0  0  0
   -7.9360   24.5738  -31.1842 H   0  0  0  0  0  0  0  0  0  0  0  0
   -9.3243   22.2275  -32.0783 H   0  0  0  0  0  0  0  0  0  0  0  0
   -8.9961   19.7855  -32.5988 H   0  0  0  0  0  0  0  0  0  0  0  0
   -6.6098   17.7527  -31.4383 H   0  0  0  0  0  0  0  0  0  0  0  0
   -7.5458   17.9684  -32.9562 H   0  0  0  0  0  0  0  0  0  0  0  0
   -5.7660   18.2115  -32.9562 H   0  0  0  0  0  0  0  0  0  0  0  0
   -4.8060   20.1037  -31.4463 H   0  0  0  0  0  0  0  0  0  0  0  0
  1  2  1  0
  2  3  1  0
  3  4  1  0
  4  5  2  0
  4  6  1  0
  6  7  1  0
  7  8  1  0
  4  9  1  0
  9 10  1  0
 10 11  1  0
 11 12  1  0
 12 13  2  0
 12 14  1  0
 14 15  1  0
 15 16  1  0
 16 17  1  0
 16 18  2  0
 15 19  2  0
 19 20  1  0
 20 21  2  0
 21 22  1  0
 22 23  2  0
 23 24  1  0
 23 25  1  0
 25 26  2  0
 26 14  1  0
 26 20  1  0
  1 27  1  0
  1 28  1  0
  1 29  1  0
  2 30  1  0
  2 31  1  0
  7 32  1  0
  7 33  1  0
  8 34  1  0
  8 35  1  0
  8 36  1  0
 10 37  1  0
 10 38  1  0
 17 39  1  0
 19 40  1  0
 21 41  1  0
 22 42  1  0
 24 43  1  0
 24 44  1  0
 24 45  1  0
 25 46  1  0
M  CHG  1  17  -1
M  END
>  <UniqueID>  (38) 
38

>  <SMILES>  (38) 
CCOP(=O)(OCC)OCOC(=O)n1c(C([NH-])=O)cc2ccc(C)cc21

>  <Energy>  (38) 
71.47553869229051

>  <Genealogy>  (38) 
CCOP(=O)(OCC)OCOC(=O)n1c(C([NH-])=O)cc2ccc(C)cc21 (protonated)
CCOP(=O)(OCC)OCOC(=O)n1c(C([NH-])=O)cc2ccc(C)cc21 (3D coordinates assigned)
CCOP(=O)(OCC)OCOC(=O)n1c(C([NH-])=O)cc2ccc(C)cc21 (optimized conformer: 71.47553869229051 kcal/mol)

>  <smiles>  (38) 
CCOP(=O)(OCC)OCOC(=O)n1c(C(N)=O)cc2ccc(C)cc21

>  <score_type>  (38) 
oracle

>  <origin>  (38) 
adg

>  <m_score__min__energy>  (38) 
-10.359999999999999

>  <m_primary>  (38) 
energy

$$$$
39:0
     RDKit          3D

 41 42  0  0  0  0  0  0  0  0999 V2000
   -0.5240   21.9430  -30.1630 C   0  0  0  0  0  0  0  0  0  0  0  0
   -0.7720   23.3080  -29.8490 O   0  0  0  0  0  0  0  0  0  0  0  0
   -1.9790   23.7450  -29.2980 C   0  0  0  0  0  0  0  0  0  0  0  0
   -2.3090   24.9610  -29.3520 O   0  0  0  0  0  0  0  0  0  0  0  0
   -2.9110   22.7560  -28.6690 C   0  0  0  0  0  0  0  0  0  0  0  0
   -3.6360   22.0240  -29.6550 O   0  0  0  0  0  0  0  0  0  0  0  0
   -4.0510   22.5750  -30.8750 C   0  0  0  0  0  0  0  0  0  0  0  0
   -3.2010   22.8710  -31.7570 O   0  0  0  0  0  0  0  0  0  0  0  0
   -5.4510   22.7910  -31.1200 N   0  0  0  0  0  0  0  0  0  0  0  0
   -6.1780   23.9030  -30.8140 C   0  0  0  0  0  0  0  0  0  0  0  0
   -5.6280   25.1920  -30.3550 C   0  0  0  0  0  0  0  0  0  0  0  0
   -4.2590   25.5290  -30.5780 N   0  0  0  0  0  0  0  0  0  0  0  0
   -6.3900   26.0340  -29.8100 O   0  0  0  0  0  0  0  0  0  0  0  0
   -7.5300   23.6960  -31.0610 C   0  0  0  0  0  0  0  0  0  0  0  0
   -7.6140   22.4140  -31.5490 C   0  0  0  0  0  0  0  0  0  0  0  0
   -8.7290   21.6840  -31.9460 C   0  0  0  0  0  0  0  0  0  0  0  0
   -8.5320   20.3630  -32.3800 C   0  0  0  0  0  0  0  0  0  0  0  0
   -7.2310   19.7910  -32.4010 C   0  0  0  0  0  0  0  0  0  0  0  0
   -7.0180   18.3610  -32.8610 C   0  0  0  0  0  0  0  0  0  0  0  0
   -6.0980   18.3060  -34.0860 C   0  0  0  0  0  0  0  0  0  0  0  0
   -6.4760   17.4890  -31.7240 C   0  0  0  0  0  0  0  0  0  0  0  0
   -6.1250   20.5650  -31.9800 C   0  0  0  0  0  0  0  0  0  0  0  0
   -6.3480   21.8870  -31.5740 C   0  0  0  0  0  0  0  0  0  0  0  0
   -0.4191   21.3659  -29.2324 H   0  0  0  0  0  0  0  0  0  0  0  0
   -1.3642   21.5432  -30.7497 H   0  0  0  0  0  0  0  0  0  0  0  0
    0.4031   21.8643  -30.7497 H   0  0  0  0  0  0  0  0  0  0  0  0
   -2.3267   22.0519  -28.0584 H   0  0  0  0  0  0  0  0  0  0  0  0
   -3.6321   23.3069  -28.0472 H   0  0  0  0  0  0  0  0  0  0  0  0
   -3.8720   26.4270  -30.2140 H   0  0  0  0  0  0  0  0  0  0  0  0
   -3.6510   24.9300  -31.1780 H   0  0  0  0  0  0  0  0  0  0  0  0
   -8.3551   24.4055  -30.9005 H   0  0  0  0  0  0  0  0  0  0  0  0
   -9.7351   22.1279  -31.9208 H   0  0  0  0  0  0  0  0  0  0  0  0
   -9.3945   19.7640  -32.7075 H   0  0  0  0  0  0  0  0  0  0  0  0
   -7.9965   17.9551  -33.1572 H   0  0  0  0  0  0  0  0  0  0  0  0
   -5.0507   18.2434  -33.7555 H   0  0  0  0  0  0  0  0  0  0  0  0
   -6.3452   17.4210  -34.6908 H   0  0  0  0  0  0  0  0  0  0  0  0
   -6.2380   19.2141  -34.6908 H   0  0  0  0  0  0  0  0  0  0  0  0
   -6.7526   17.9340  -30.7568 H   0  0  0  0  0  0  0  0  0  0  0  0
   -6.9059   16.4793  -31.7994 H   0  0  0  0  0  0  0  0  0  0  0  0
   -5.3803   17.4276  -31.7994 H   0  0  0  0  0  0  0  0  0  0  0  0
   -5.1112   20.1381  -31.9715 H   0  0  0  0  0  0  0  0  0  0  0  0
  1  2  1  0
  2  3  1  0
  3  4  2  0
  3  5  1  0
  5  6  1  0
  6  7  1  0
  7  8  2  0
  7  9  1  0
  9 10  1  0
 10 11  1  0
 11 12  1  0
 11 13  2  0
 10 14  2  0
 14 15  1  0
 15 16  2  0
 16 17  1  0
 17 18  2  0
 18 19  1  0
 19 20  1  0
 19 21  1  0
 18 22  1  0
 22 23  2  0
 23  9  1  0
 23 15  1  0
  1 24  1  0
  1 25  1  0
  1 26  1  0
  5 27  1  0
  5 28  1  0
 12 29  1  0
 12 30  1  0
 14 31  1  0
 16 32  1  0
 17 33  1  0
 19 34  1  0
 20 35  1  0
 20 36  1  0
 20 37  1  0
 21 38  1  0
 21 39  1  0
 21 40  1  0
 22 41  1  0
M  END
>  <UniqueID>  (39) 
39

>  <SMILES>  (39) 
COC(=O)COC(=O)n1c(C(N)=O)cc2ccc(C(C)C)cc21

>  <Energy>  (39) 
71.99395515831299

>  <Genealogy>  (39) 
COC(=O)COC(=O)n1c(C(N)=O)cc2ccc(C(C)C)cc21 (3D coordinates assigned)
COC(=O)COC(=O)n1c(C(N)=O)cc2ccc(C(C)C)cc21 (optimized conformer: 71.99395515831299 kcal/mol)

>  <smiles>  (39) 
COC(=O)COC(=O)n1c(C(N)=O)cc2ccc(C(C)C)cc21

>  <score_type>  (39) 
oracle

>  <origin>  (39) 
adg

>  <m_score__min__energy>  (39) 
-9.7200000000000006

>  <m_primary>  (39) 
energy

$$$$
40:0
     RDKit          3D

 28 29  0  0  0  0  0  0  0  0999 V2000
   -1.6280   25.7150  -28.9640 N   0  0  0  0  0  0  0  0  0  0  0  0
   -1.0750   24.4230  -29.2030 C   0  0  0  0  0  0  0  0  0  0  0  0
    0.0010   24.0990  -28.6330 O   0  0  0  0  0  0  0  0  0  0  0  0
   -1.7740   23.4430  -30.0590 C   0  0  0  0  0  0  0  0  0  0  0  0
   -1.1790   22.2700  -30.5200 C   0  0  0  0  0  0  0  0  0  0  0  0
   -2.1720   21.5980  -31.1950 C   0  0  0  0  0  0  0  0  0  0  0  0
   -2.1330   20.3760  -31.8600 C   0  0  0  0  0  0  0  0  0  0  0  0
   -3.3050   19.9340  -32.4930 C   0  0  0  0  0  0  0  0  0  0  0  0
   -4.4830   20.7200  -32.4640 C   0  0  0  0  0  0  0  0  0  0  0  0
   -5.7380   20.2230  -33.1310 C   0  0  0  0  0  0  0  0  0  0  0  0
   -5.4910   18.9110  -33.8800 C   0  0  0  0  0  0  0  0  0  0  0  0
   -6.0910   18.9410  -35.1480 O   0  0  0  0  0  0  0  0  0  0  0  0
   -4.4880   21.9520  -31.7720 C   0  0  0  0  0  0  0  0  0  0  0  0
   -3.3110   22.3600  -31.1340 C   0  0  0  0  0  0  0  0  0  0  0  0
   -3.0830   23.4970  -30.4410 N   0  0  0  0  0  0  0  0  0  0  0  0
   -4.0160   24.5720  -30.2390 C   0  0  0  0  0  0  0  0  0  0  0  0
   -3.8560   25.6730  -30.8290 O   0  0  0  0  0  0  0  0  0  0  0  0
   -5.1190   24.3960  -29.4120 O   0  0  0  0  0  0  0  0  0  0  0  0
   -2.6590   25.8730  -29.0040 H   0  0  0  0  0  0  0  0  0  0  0  0
   -0.1368   21.9495  -30.3750 H   0  0  0  0  0  0  0  0  0  0  0  0
   -1.2120   19.7752  -31.8886 H   0  0  0  0  0  0  0  0  0  0  0  0
   -3.3088   18.9669  -33.0172 H   0  0  0  0  0  0  0  0  0  0  0  0
   -6.5092   20.0576  -32.3643 H   0  0  0  0  0  0  0  0  0  0  0  0
   -6.0664   20.9801  -33.8583 H   0  0  0  0  0  0  0  0  0  0  0  0
   -4.4076   18.7609  -33.9971 H   0  0  0  0  0  0  0  0  0  0  0  0
   -5.9313   18.0859  -33.3009 H   0  0  0  0  0  0  0  0  0  0  0  0
   -6.9080   19.4990  -35.0650 H   0  0  0  0  0  0  0  0  0  0  0  0
   -5.3941   22.5747  -31.7357 H   0  0  0  0  0  0  0  0  0  0  0  0
  1  2  1  0
  2  3  2  0
  2  4  1  0
  4  5  2  0
  5  6  1  0
  6  7  2  0
  7  8  1  0
  8  9  2  0
  9 10  1  0
 10 11  1  0
 11 12  1  0
  9 13  1  0
 13 14  2  0
 14 15  1  0
 15 16  1  0
 16 17  2  0
 16 18  1  0
 15  4  1  0
 14  6  1  0
  1 19  1  0
  5 20  1  0
  7 21  1  0
  8 22  1  0
 10 23  1  0
 10 24  1  0
 11 25  1  0
 11 26  1  0
 12 27  1  0
 13 28  1  0
M  CHG  2   1  -1  18  -1
M  END
>  <UniqueID>  (40) 
40

>  <SMILES>  (40) 
[NH-]C(=O)c1cc2ccc(CCO)cc2n1C(=O)[O-]

>  <Energy>  (40) 
65.64311873196846

>  <Genealogy>  (40) 
[NH-]C(=O)c1cc2ccc(CCO)cc2n1C(=O)[O-] (protonated)
[NH-]C(=O)c1cc2ccc(CCO)cc2n1C(=O)[O-] (3D coordinates assigned)
[NH-]C(=O)c1cc2ccc(CCO)cc2n1C(=O)[O-] (optimized conformer: 65.64311873196846 kcal/mol)

>  <smiles>  (40) 
NC(=O)c1cc2ccc(CCO)cc2n1C(=O)O

>  <score_type>  (40) 
oracle

>  <origin>  (40) 
adg

>  <m_score__min__energy>  (40) 
-10.029999999999999

>  <m_primary>  (40) 
energy

$$$$
41:0
     RDKit          3D

 41 42  0  0  0  0  0  0  0  0999 V2000
   -2.2410   25.3860  -25.6460 C   0  0  0  0  0  0  0  0  0  0  0  0
   -1.6000   25.6750  -26.9330 N   0  0  0  0  0  0  0  0  0  0  0  0
   -0.4900   26.6310  -27.0040 C   0  0  0  0  0  0  0  0  0  0  0  0
   -2.0490   25.0290  -28.1440 C   0  0  0  0  0  0  0  0  0  0  0  0
   -1.4840   25.3010  -29.2400 O   0  0  0  0  0  0  0  0  0  0  0  0
   -3.1870   24.0340  -28.1180 C   0  0  0  0  0  0  0  0  0  0  0  0
   -2.9430   22.8140  -29.0150 C   0  0  0  0  0  0  0  0  0  0  0  0
   -2.8450   23.2120  -30.3810 O   0  0  0  0  0  0  0  0  0  0  0  0
   -3.6700   22.7090  -31.3930 C   0  0  0  0  0  0  0  0  0  0  0  0
   -3.1730   22.0910  -32.3730 O   0  0  0  0  0  0  0  0  0  0  0  0
   -5.0930   22.8740  -31.2990 N   0  0  0  0  0  0  0  0  0  0  0  0
   -5.7830   24.0030  -30.9670 C   0  0  0  0  0  0  0  0  0  0  0  0
   -5.1980   25.2670  -30.4750 C   0  0  0  0  0  0  0  0  0  0  0  0
   -3.8810   25.6610  -30.8510 N   0  0  0  0  0  0  0  0  0  0  0  0
   -5.8510   25.9880  -29.6740 O   0  0  0  0  0  0  0  0  0  0  0  0
   -7.1550   23.7820  -31.0730 C   0  0  0  0  0  0  0  0  0  0  0  0
   -7.2850   22.4720  -31.4710 C   0  0  0  0  0  0  0  0  0  0  0  0
   -8.4290   21.7300  -31.7480 C   0  0  0  0  0  0  0  0  0  0  0  0
   -8.2650   20.4020  -32.1770 C   0  0  0  0  0  0  0  0  0  0  0  0
   -6.9700   19.8360  -32.3110 C   0  0  0  0  0  0  0  0  0  0  0  0
   -6.8070   18.4310  -32.8300 C   0  0  0  0  0  0  0  0  0  0  0  0
   -5.8180   17.7620  -32.1280 F   0  0  0  0  0  0  0  0  0  0  0  0
   -7.9870   17.7200  -32.6980 F   0  0  0  0  0  0  0  0  0  0  0  0
   -6.4560   18.4780  -34.1660 F   0  0  0  0  0  0  0  0  0  0  0  0
   -5.8320   20.6320  -32.0410 C   0  0  0  0  0  0  0  0  0  0  0  0
   -6.0260   21.9460  -31.5990 C   0  0  0  0  0  0  0  0  0  0  0  0
   -1.5716   25.6878  -24.8270 H   0  0  0  0  0  0  0  0  0  0  0  0
   -3.1853   25.9455  -25.5728 H   0  0  0  0  0  0  0  0  0  0  0  0
   -2.4470   24.3079  -25.5728 H   0  0  0  0  0  0  0  0  0  0  0  0
   -0.1745   26.9028  -25.9859 H   0  0  0  0  0  0  0  0  0  0  0  0
    0.3546   26.1731  -27.5397 H   0  0  0  0  0  0  0  0  0  0  0  0
   -0.8176   27.5342  -27.5397 H   0  0  0  0  0  0  0  0  0  0  0  0
   -3.3234   23.6858  -27.0835 H   0  0  0  0  0  0  0  0  0  0  0  0
   -4.0802   24.5487  -28.5017 H   0  0  0  0  0  0  0  0  0  0  0  0
   -2.0061   22.3234  -28.7124 H   0  0  0  0  0  0  0  0  0  0  0  0
   -3.7872   22.1171  -28.9064 H   0  0  0  0  0  0  0  0  0  0  0  0
   -3.0450   25.2970  -30.3430 H   0  0  0  0  0  0  0  0  0  0  0  0
   -7.9630   24.5029  -30.8793 H   0  0  0  0  0  0  0  0  0  0  0  0
   -9.4310   22.1695  -31.6346 H   0  0  0  0  0  0  0  0  0  0  0  0
   -9.1508   19.7936  -32.4118 H   0  0  0  0  0  0  0  0  0  0  0  0
   -4.8179   20.2276  -32.1753 H   0  0  0  0  0  0  0  0  0  0  0  0
  1  2  1  0
  2  3  1  0
  2  4  1  0
  4  5  2  0
  4  6  1  0
  6  7  1  0
  7  8  1  0
  8  9  1  0
  9 10  2  0
  9 11  1  0
 11 12  1  0
 12 13  1  0
 13 14  1  0
 13 15  2  0
 12 16  2  0
 16 17  1  0
 17 18  2  0
 18 19  1  0
 19 20  2  0
 20 21  1  0
 21 22  1  0
 21 23  1  0
 21 24  1  0
 20 25  1  0
 25 26  2  0
 26 11  1  0
 26 17  1  0
  1 27  1  0
  1 28  1  0
  1 29  1  0
  3 30  1  0
  3 31  1  0
  3 32  1  0
  6 33  1  0
  6 34  1  0
  7 35  1  0
  7 36  1  0
 14 37  1  0
 16 38  1  0
 18 39  1  0
 19 40  1  0
 25 41  1  0
M  CHG  1  14  -1
M  END
>  <UniqueID>  (41) 
41

>  <SMILES>  (41) 
CN(C)C(=O)CCOC(=O)n1c(C([NH-])=O)cc2ccc(C(F)(F)F)cc21

>  <Energy>  (41) 
75.50098418983733

>  <Genealogy>  (41) 
CN(C)C(=O)CCOC(=O)n1c(C([NH-])=O)cc2ccc(C(F)(F)F)cc21 (protonated)
CN(C)C(=O)CCOC(=O)n1c(C([NH-])=O)cc2ccc(C(F)(F)F)cc21 (3D coordinates assigned)
CN(C)C(=O)CCOC(=O)n1c(C([NH-])=O)cc2ccc(C(F)(F)F)cc21 (optimized conformer: 75.50098418983733 kcal/mol)

>  <smiles>  (41) 
CN(C)C(=O)CCOC(=O)n1c(C(N)=O)cc2ccc(C(F)(F)F)cc21

>  <score_type>  (41) 
oracle

>  <origin>  (41) 
adg

>  <m_score__min__energy>  (41) 
-10.300000000000001

>  <m_primary>  (41) 
energy

$$$$
42:0
     RDKit          3D

 42 44  0  0  0  0  0  0  0  0999 V2000
   -0.7240   20.9540  -33.7160 C   0  0  0  0  0  0  0  0  0  0  0  0
   -1.3120   21.3460  -32.4510 N   0  0  0  0  0  0  0  0  0  0  0  0
   -0.5080   21.5240  -31.2530 C   0  0  0  0  0  0  0  0  0  0  0  0
   -2.7090   21.5540  -32.4090 C   0  0  0  0  0  0  0  0  0  0  0  0
   -3.3530   21.3810  -33.4920 O   0  0  0  0  0  0  0  0  0  0  0  0
   -3.3790   21.9330  -31.2500 O   0  0  0  0  0  0  0  0  0  0  0  0
   -4.2120   23.0710  -31.2400 C   0  0  0  0  0  0  0  0  0  0  0  0
   -3.6030   24.1600  -31.1740 O   0  0  0  0  0  0  0  0  0  0  0  0
   -5.6170   22.9160  -31.3040 N   0  0  0  0  0  0  0  0  0  0  0  0
   -6.5380   23.7950  -30.8810 C   0  0  0  0  0  0  0  0  0  0  0  0
   -6.4120   25.0940  -30.2680 C   0  0  0  0  0  0  0  0  0  0  0  0
   -5.2220   25.8820  -30.5060 N   0  0  0  0  0  0  0  0  0  0  0  0
   -7.2520   25.6440  -29.5190 O   0  0  0  0  0  0  0  0  0  0  0  0
   -7.7860   23.2150  -31.1460 C   0  0  0  0  0  0  0  0  0  0  0  0
   -7.6050   21.9860  -31.7290 C   0  0  0  0  0  0  0  0  0  0  0  0
   -8.5080   21.0400  -32.1680 C   0  0  0  0  0  0  0  0  0  0  0  0
   -8.0540   19.8730  -32.7230 C   0  0  0  0  0  0  0  0  0  0  0  0
   -6.6950   19.6640  -32.8320 C   0  0  0  0  0  0  0  0  0  0  0  0
   -6.2340   18.4140  -33.4270 C   0  0  0  0  0  0  0  0  0  0  0  0
   -6.8770   17.1960  -33.4930 C   0  0  0  0  0  0  0  0  0  0  0  0
   -6.1070   16.3050  -34.1240 N   0  0  0  0  0  0  0  0  0  0  0  0
   -4.9710   16.9760  -34.4550 C   0  0  0  0  0  0  0  0  0  0  0  0
   -3.5550   16.2470  -35.3400 P   0  0  0  0  0  0  0  0  0  0  0  0
   -5.0620   18.2500  -34.0260 N   0  0  0  0  0  0  0  0  0  0  0  0
   -5.8040   20.6340  -32.3800 C   0  0  0  0  0  0  0  0  0  0  0  0
   -6.2360   21.8220  -31.8160 C   0  0  0  0  0  0  0  0  0  0  0  0
    0.1781   20.3526  -33.5303 H   0  0  0  0  0  0  0  0  0  0  0  0
   -1.4501   20.3586  -34.2890 H   0  0  0  0  0  0  0  0  0  0  0  0
   -0.4537   21.8532  -34.2890 H   0  0  0  0  0  0  0  0  0  0  0  0
   -1.1397   21.3842  -30.3634 H   0  0  0  0  0  0  0  0  0  0  0  0
    0.3062   20.7844  -31.2446 H   0  0  0  0  0  0  0  0  0  0  0  0
   -0.0821   22.5382  -31.2446 H   0  0  0  0  0  0  0  0  0  0  0  0
   -4.9440   25.9790  -31.5150 H   0  0  0  0  0  0  0  0  0  0  0  0
   -4.7030   26.3070  -29.7180 H   0  0  0  0  0  0  0  0  0  0  0  0
   -8.7601   23.6740  -30.9214 H   0  0  0  0  0  0  0  0  0  0  0  0
   -9.5886   21.2222  -32.0727 H   0  0  0  0  0  0  0  0  0  0  0  0
   -8.7645   19.1118  -33.0775 H   0  0  0  0  0  0  0  0  0  0  0  0
   -7.8775   16.9883  -33.0857 H   0  0  0  0  0  0  0  0  0  0  0  0
   -3.4560   14.8270  -35.1300 H   0  0  0  0  0  0  0  0  0  0  0  0
   -3.6850   16.4940  -36.7530 H   0  0  0  0  0  0  0  0  0  0  0  0
   -4.3110   18.9600  -34.1640 H   0  0  0  0  0  0  0  0  0  0  0  0
   -4.7235   20.4505  -32.4740 H   0  0  0  0  0  0  0  0  0  0  0  0
  1  2  1  0
  2  3  1  0
  2  4  1  0
  4  5  2  0
  4  6  1  0
  6  7  1  0
  7  8  2  0
  7  9  1  0
  9 10  1  0
 10 11  1  0
 11 12  1  0
 11 13  2  0
 10 14  2  0
 14 15  1  0
 15 16  2  0
 16 17  1  0
 17 18  2  0
 18 19  1  0
 19 20  2  0
 20 21  1  0
 21 22  2  0
 22 23  1  0
 22 24  1  0
 18 25  1  0
 25 26  2  0
 26  9  1  0
 26 15  1  0
 24 19  1  0
  1 27  1  0
  1 28  1  0
  1 29  1  0
  3 30  1  0
  3 31  1  0
  3 32  1  0
 12 33  1  0
 12 34  1  0
 14 35  1  0
 16 36  1  0
 17 37  1  0
 20 38  1  0
 23 39  1  0
 23 40  1  0
 24 41  1  0
 25 42  1  0
M  END
>  <smiles>  (42) 
CN(C)C(=O)OC(=O)n1c(C(N)=O)cc2ccc(-c3cnc(P)[nH]3)cc21

>  <score_type>  (42) 
oracle

>  <origin>  (42) 
adg

>  <m_score__min__energy>  (42) 
-8.6199999999999992

>  <m_primary>  (42) 
energy

$$$$
43:0
     RDKit          3D

 39 41  0  0  0  0  0  0  0  0999 V2000
   -3.7830   23.4500  -27.9280 C   0  0  0  0  0  0  0  0  0  0  0  0
   -3.0150   22.7550  -28.7670 C   0  0  0  0  0  0  0  0  0  0  0  0
   -2.7280   23.1760  -30.0740 O   0  0  0  0  0  0  0  0  0  0  0  0
   -3.3270   22.6780  -31.2390 C   0  0  0  0  0  0  0  0  0  0  0  0
   -2.6320   22.1210  -32.1320 O   0  0  0  0  0  0  0  0  0  0  0  0
   -4.7500   22.7790  -31.4010 N   0  0  0  0  0  0  0  0  0  0  0  0
   -5.5690   23.7980  -31.0120 C   0  0  0  0  0  0  0  0  0  0  0  0
   -5.1370   25.1070  -30.4780 C   0  0  0  0  0  0  0  0  0  0  0  0
   -3.8800   25.6700  -30.8420 N   0  0  0  0  0  0  0  0  0  0  0  0
   -5.9110   25.7600  -29.7280 O   0  0  0  0  0  0  0  0  0  0  0  0
   -6.9010   23.4760  -31.2630 C   0  0  0  0  0  0  0  0  0  0  0  0
   -6.8710   22.2210  -31.8300 C   0  0  0  0  0  0  0  0  0  0  0  0
   -7.9140   21.4120  -32.2660 C   0  0  0  0  0  0  0  0  0  0  0  0
   -7.5960   20.1470  -32.7840 C   0  0  0  0  0  0  0  0  0  0  0  0
   -6.2460   19.7020  -32.8510 C   0  0  0  0  0  0  0  0  0  0  0  0
   -5.9280   18.3900  -33.3760 N   0  0  0  0  0  0  0  0  0  0  0  0
   -6.8560   17.2670  -33.3710 C   0  0  0  0  0  0  0  0  0  0  0  0
   -6.1760   16.1530  -34.1560 C   0  0  0  0  0  0  0  0  0  0  0  0
   -4.6940   16.5310  -34.1960 C   0  0  1  0  0  0  0  0  0  0  0  0
   -4.0770   16.1540  -35.4010 O   0  0  0  0  0  0  0  0  0  0  0  0
   -4.6420   18.0410  -33.9620 C   0  0  0  0  0  0  0  0  0  0  0  0
   -5.2160   20.5610  -32.3930 C   0  0  0  0  0  0  0  0  0  0  0  0
   -5.5630   21.8240  -31.9010 C   0  0  0  0  0  0  0  0  0  0  0  0
   -3.9734   23.0698  -26.9135 H   0  0  0  0  0  0  0  0  0  0  0  0
   -4.2263   24.4038  -28.2501 H   0  0  0  0  0  0  0  0  0  0  0  0
   -2.5852   21.8047  -28.4173 H   0  0  0  0  0  0  0  0  0  0  0  0
   -2.9890   25.2900  -30.4530 H   0  0  0  0  0  0  0  0  0  0  0  0
   -7.7875   24.0925  -31.0532 H   0  0  0  0  0  0  0  0  0  0  0  0
   -8.9580   21.7533  -32.2067 H   0  0  0  0  0  0  0  0  0  0  0  0
   -8.4018   19.4901  -33.1433 H   0  0  0  0  0  0  0  0  0  0  0  0
   -7.0547   16.9407  -32.3395 H   0  0  0  0  0  0  0  0  0  0  0  0
   -7.8221   17.5423  -33.8192 H   0  0  0  0  0  0  0  0  0  0  0  0
   -6.3131   15.1862  -33.6496 H   0  0  0  0  0  0  0  0  0  0  0  0
   -6.5988   16.0471  -35.1660 H   0  0  0  0  0  0  0  0  0  0  0  0
   -4.1283   15.9919  -33.4218 H   0  0  0  0  0  0  0  0  0  0  0  0
   -3.8610   16.9810  -35.9070 H   0  0  0  0  0  0  0  0  0  0  0  0
   -3.8239   18.2948  -33.2719 H   0  0  0  0  0  0  0  0  0  0  0  0
   -4.4570   18.5918  -34.8960 H   0  0  0  0  0  0  0  0  0  0  0  0
   -4.1640   20.2409  -32.4237 H   0  0  0  0  0  0  0  0  0  0  0  0
  1  2  2  0
  2  3  1  0
  3  4  1  0
  4  5  2  0
  4  6  1  0
  6  7  1  0
  7  8  1  0
  8  9  1  0
  8 10  2  0
  7 11  2  0
 11 12  1  0
 12 13  2  0
 13 14  1  0
 14 15  2  0
 15 16  1  0
 16 17  1  0
 17 18  1  0
 18 19  1  0
 19 20  1  0
 19 21  1  0
 15 22  1  0
 22 23  2  0
 23  6  1  0
 23 12  1  0
 21 16  1  0
  1 24  1  0
  1 25  1  0
  2 26  1  0
  9 27  1  0
 11 28  1  0
 13 29  1  0
 14 30  1  0
 17 31  1  0
 17 32  1  0
 18 33  1  0
 18 34  1  0
 19 35  1  1
 20 36  1  0
 21 37  1  0
 21 38  1  0
 22 39  1  0
M  CHG  1   9  -1
M  END
>  <UniqueID>  (43) 
42

>  <SMILES>  (43) 
C=COC(=O)n1c(C([NH-])=O)cc2ccc(N3CC[C@@H](O)C3)cc21

>  <Energy>  (43) 
86.25444400053809

>  <Genealogy>  (43) 
C=COC(=O)n1c(C([NH-])=O)cc2ccc(N3CCC(O)C3)cc21 (protonated)
C=COC(=O)n1c(C([NH-])=O)cc2ccc(N3CC[C@@H](O)C3)cc21 (chirality)
C=COC(=O)n1c(C([NH-])=O)cc2ccc(N3CC[C@@H](O)C3)cc21 (3D coordinates assigned)
C=COC(=O)n1c(C([NH-])=O)cc2ccc(N3CC[C@@H](O)C3)cc21 (nonaromatic ring conformer: 86.25444400053809 kcal/mol)

>  <smiles>  (43) 
C=COC(=O)n1c(C(N)=O)cc2ccc(N3CCC(O)C3)cc21

>  <score_type>  (43) 
oracle

>  <origin>  (43) 
adg

>  <m_score__min__energy>  (43) 
-9.7699999999999996

>  <m_primary>  (43) 
energy

$$$$
44:0
     RDKit          3D

 37 38  0  0  0  0  0  0  0  0999 V2000
   -6.9670   17.0690  -33.1130 C   0  0  0  0  0  0  0  0  0  0  0  0
   -6.4240   18.3020  -33.6960 N   0  0  0  0  0  0  0  0  0  0  0  0
   -5.6810   18.2230  -34.9590 C   0  0  0  0  0  0  0  0  0  0  0  0
   -6.6160   19.5790  -33.0310 C   0  0  0  0  0  0  0  0  0  0  0  0
   -7.9230   20.1100  -32.8380 C   0  0  0  0  0  0  0  0  0  0  0  0
   -8.1170   21.3420  -32.1910 C   0  0  0  0  0  0  0  0  0  0  0  0
   -6.9940   22.0360  -31.7540 C   0  0  0  0  0  0  0  0  0  0  0  0
   -6.8970   23.2320  -31.0810 C   0  0  0  0  0  0  0  0  0  0  0  0
   -5.5320   23.4360  -30.8850 C   0  0  0  0  0  0  0  0  0  0  0  0
   -4.9640   24.6380  -30.2380 C   0  0  0  0  0  0  0  0  0  0  0  0
   -3.8730   25.3240  -30.8470 N   0  0  0  0  0  0  0  0  0  0  0  0
   -5.4210   25.0560  -29.1410 O   0  0  0  0  0  0  0  0  0  0  0  0
   -4.8170   22.4070  -31.4210 N   0  0  0  0  0  0  0  0  0  0  0  0
   -3.3930   22.2170  -31.3910 C   0  0  0  0  0  0  0  0  0  0  0  0
   -2.7340   22.2690  -32.4640 O   0  0  0  0  0  0  0  0  0  0  0  0
   -2.6930   21.9790  -30.1200 C   0  0  0  0  0  0  0  0  0  0  0  0
   -3.0060   20.9870  -29.4060 O   0  0  0  0  0  0  0  0  0  0  0  0
   -1.6630   22.8770  -29.6940 N   0  0  0  0  0  0  0  0  0  0  0  0
   -1.8030   23.7710  -28.5510 C   0  0  0  0  0  0  0  0  0  0  0  0
   -0.8440   24.9130  -28.6710 C   0  0  0  0  0  0  0  0  0  0  0  0
    0.3270   24.8040  -28.2240 O   0  0  0  0  0  0  0  0  0  0  0  0
   -1.2300   26.0830  -29.3140 O   0  0  0  0  0  0  0  0  0  0  0  0
   -5.7280   21.5560  -31.9420 C   0  0  0  0  0  0  0  0  0  0  0  0
   -5.5030   20.3210  -32.5580 C   0  0  0  0  0  0  0  0  0  0  0  0
   -6.9366   17.1380  -32.0156 H   0  0  0  0  0  0  0  0  0  0  0  0
   -8.0076   16.9345  -33.4433 H   0  0  0  0  0  0  0  0  0  0  0  0
   -6.3637   16.2106  -33.4433 H   0  0  0  0  0  0  0  0  0  0  0  0
   -4.6078   18.1089  -34.7465 H   0  0  0  0  0  0  0  0  0  0  0  0
   -6.0341   17.3573  -35.5386 H   0  0  0  0  0  0  0  0  0  0  0  0
   -5.8442   19.1436  -35.5386 H   0  0  0  0  0  0  0  0  0  0  0  0
   -8.7950   19.5465  -33.2014 H   0  0  0  0  0  0  0  0  0  0  0  0
   -9.1281   21.7459  -32.0346 H   0  0  0  0  0  0  0  0  0  0  0  0
   -7.7214   23.8880  -30.7647 H   0  0  0  0  0  0  0  0  0  0  0  0
   -2.9190   25.2950  -30.4260 H   0  0  0  0  0  0  0  0  0  0  0  0
   -2.8310   24.1611  -28.5180 H   0  0  0  0  0  0  0  0  0  0  0  0
   -1.5846   23.2129  -27.6286 H   0  0  0  0  0  0  0  0  0  0  0  0
   -4.4808   19.9315  -32.6739 H   0  0  0  0  0  0  0  0  0  0  0  0
  1  2  1  0
  2  3  1  0
  2  4  1  0
  4  5  2  0
  5  6  1  0
  6  7  2  0
  7  8  1  0
  8  9  2  0
  9 10  1  0
 10 11  1  0
 10 12  2  0
  9 13  1  0
 13 14  1  0
 14 15  2  0
 14 16  1  0
 16 17  2  0
 16 18  1  0
 18 19  1  0
 19 20  1  0
 20 21  2  0
 20 22  1  0
 13 23  1  0
 23 24  2  0
 24  4  1  0
 23  7  1  0
  1 25  1  0
  1 26  1  0
  1 27  1  0
  3 28  1  0
  3 29  1  0
  3 30  1  0
  5 31  1  0
  6 32  1  0
  8 33  1  0
 11 34  1  0
 19 35  1  0
 19 36  1  0
 24 37  1  0
M  CHG  3  11  -1  18  -1  22  -1
M  END
>  <UniqueID>  (44) 
43

>  <SMILES>  (44) 
CN(C)c1ccc2cc(C([NH-])=O)n(C(=O)C(=O)[N-]CC(=O)[O-])c2c1

>  <Energy>  (44) 
73.81375314188365

>  <Genealogy>  (44) 
CN(C)c1ccc2cc(C([NH-])=O)n(C(=O)C(=O)[N-]CC(=O)[O-])c2c1 (protonated)
CN(C)c1ccc2cc(C([NH-])=O)n(C(=O)C(=O)[N-]CC(=O)[O-])c2c1 (3D coordinates assigned)
CN(C)c1ccc2cc(C([NH-])=O)n(C(=O)C(=O)[N-]CC(=O)[O-])c2c1 (optimized conformer: 73.81375314188365 kcal/mol)

>  <smiles>  (44) 
CN(C)c1ccc2cc(C(N)=O)n(C(=O)C(=O)NCC(=O)O)c2c1

>  <score_type>  (44) 
oracle

>  <origin>  (44) 
adg

>  <m_score__min__energy>  (44) 
-12.75

>  <m_primary>  (44) 
energy

$$$$
45:0
     RDKit          3D

 37 39  0  0  0  0  0  0  0  0999 V2000
   -6.1230   18.9690  -35.0250 N   0  0  0  0  0  0  0  0  0  0  0  0
   -4.7940   18.7720  -34.5410 C   0  0  0  0  0  0  0  0  0  0  0  0
   -4.1370   17.7720  -34.9350 O   0  0  0  0  0  0  0  0  0  0  0  0
   -4.2030   19.6800  -33.5390 C   0  0  0  0  0  0  0  0  0  0  0  0
   -2.8330   19.8860  -33.4080 C   0  0  0  0  0  0  0  0  0  0  0  0
   -2.6950   20.7340  -32.3330 C   0  0  0  0  0  0  0  0  0  0  0  0
   -1.5470   21.2830  -31.7700 C   0  0  0  0  0  0  0  0  0  0  0  0
   -1.7000   22.1640  -30.6870 C   0  0  0  0  0  0  0  0  0  0  0  0
   -2.9890   22.4780  -30.1900 C   0  0  0  0  0  0  0  0  0  0  0  0
   -3.1440   23.4580  -29.0610 C   0  0  0  0  0  0  0  0  0  0  0  0
   -2.9450   24.8530  -29.5590 C   0  0  0  0  0  0  0  0  0  0  0  0
   -3.6660   25.3030  -30.4870 O   0  0  0  0  0  0  0  0  0  0  0  0
   -1.9930   25.6730  -28.9660 O   0  0  0  0  0  0  0  0  0  0  0  0
   -4.1330   21.9140  -30.7960 C   0  0  0  0  0  0  0  0  0  0  0  0
   -3.9510   21.0210  -31.8600 C   0  0  0  0  0  0  0  0  0  0  0  0
   -4.8900   20.3830  -32.5950 N   0  0  0  0  0  0  0  0  0  0  0  0
   -6.3160   20.5190  -32.4700 C   0  0  0  0  0  0  0  0  0  0  0  0
   -6.9260   21.3740  -33.1670 O   0  0  0  0  0  0  0  0  0  0  0  0
   -7.0110   19.7040  -31.5660 O   0  0  0  0  0  0  0  0  0  0  0  0
   -7.5950   18.4710  -31.8770 C   0  0  0  0  0  0  0  0  0  0  0  0
   -8.8410   18.2960  -31.7890 O   0  0  0  0  0  0  0  0  0  0  0  0
   -6.7320   17.3690  -32.3150 C   0  0  0  0  0  0  0  0  0  0  0  0
   -6.8780   16.6280  -33.4720 C   0  0  0  0  0  0  0  0  0  0  0  0
   -5.8470   15.7140  -33.4570 C   0  0  0  0  0  0  0  0  0  0  0  0
   -5.1390   15.9530  -32.2970 C   0  0  0  0  0  0  0  0  0  0  0  0
   -5.6910   16.9440  -31.6370 O   0  0  0  0  0  0  0  0  0  0  0  0
   -6.7520   19.6830  -34.5970 H   0  0  0  0  0  0  0  0  0  0  0  0
   -6.5110   18.3390  -35.7620 H   0  0  0  0  0  0  0  0  0  0  0  0
   -2.0316   19.4617  -34.0307 H   0  0  0  0  0  0  0  0  0  0  0  0
   -0.5495   21.0344  -32.1615 H   0  0  0  0  0  0  0  0  0  0  0  0
   -0.8113   22.6141  -30.2206 H   0  0  0  0  0  0  0  0  0  0  0  0
   -4.1537   23.3647  -28.6347 H   0  0  0  0  0  0  0  0  0  0  0  0
   -2.3900   23.2405  -28.2902 H   0  0  0  0  0  0  0  0  0  0  0  0
   -5.1424   22.1696  -30.4413 H   0  0  0  0  0  0  0  0  0  0  0  0
   -7.6541   16.7435  -34.2430 H   0  0  0  0  0  0  0  0  0  0  0  0
   -5.6317   14.9481  -34.2167 H   0  0  0  0  0  0  0  0  0  0  0  0
   -4.2466   15.3968  -31.9742 H   0  0  0  0  0  0  0  0  0  0  0  0
  1  2  1  0
  2  3  2  0
  2  4  1  0
  4  5  2  0
  5  6  1  0
  6  7  2  0
  7  8  1  0
  8  9  2  0
  9 10  1  0
 10 11  1  0
 11 12  2  0
 11 13  1  0
  9 14  1  0
 14 15  2  0
 15 16  1  0
 16 17  1  0
 17 18  2  0
 17 19  1  0
 19 20  1  0
 20 21  2  0
 20 22  1  0
 22 23  2  0
 23 24  1  0
 24 25  2  0
 25 26  1  0
 16  4  1  0
 26 22  1  0
 15  6  1  0
  1 27  1  0
  1 28  1  0
  5 29  1  0
  7 30  1  0
  8 31  1  0
 10 32  1  0
 10 33  1  0
 14 34  1  0
 23 35  1  0
 24 36  1  0
 25 37  1  0
M  CHG  1  13  -1
M  END
>  <UniqueID>  (45) 
44

>  <SMILES>  (45) 
NC(=O)c1cc2ccc(CC(=O)[O-])cc2n1C(=O)OC(=O)c1ccco1

>  <Energy>  (45) 
102.93514637420408

>  <Genealogy>  (45) 
NC(=O)c1cc2ccc(CC(=O)[O-])cc2n1C(=O)OC(=O)c1ccco1 (protonated)
NC(=O)c1cc2ccc(CC(=O)[O-])cc2n1C(=O)OC(=O)c1ccco1 (3D coordinates assigned)
NC(=O)c1cc2ccc(CC(=O)[O-])cc2n1C(=O)OC(=O)c1ccco1 (optimized conformer: 102.93514637420408 kcal/mol)

>  <smiles>  (45) 
NC(=O)c1cc2ccc(CC(=O)O)cc2n1C(=O)OC(=O)c1ccco1

>  <score_type>  (45) 
oracle

>  <origin>  (45) 
adg

>  <m_score__min__energy>  (45) 
-10.050000000000001

>  <m_primary>  (45) 
energy

$$$$
46:0
     RDKit          3D

 41 42  0  0  0  0  0  0  0  0999 V2000
   -2.7900   19.6950  -33.8430 C   0  0  0  0  0  0  0  0  0  0  0  0
   -3.4030   18.6690  -34.6120 O   0  0  0  0  0  0  0  0  0  0  0  0
   -4.7000   18.2140  -34.3620 C   0  0  0  0  0  0  0  0  0  0  0  0
   -5.5570   18.1800  -35.2880 O   0  0  0  0  0  0  0  0  0  0  0  0
   -5.0840   17.7940  -32.9760 C   0  0  0  0  0  0  0  0  0  0  0  0
   -6.4300   18.2830  -32.6410 N   0  0  0  0  0  0  0  0  0  0  0  0
   -7.5550   17.3420  -32.7100 C   0  0  0  0  0  0  0  0  0  0  0  0
   -6.6590   19.6700  -32.2820 C   0  0  0  0  0  0  0  0  0  0  0  0
   -7.9660   20.2290  -32.3550 C   0  0  0  0  0  0  0  0  0  0  0  0
   -8.2040   21.5670  -31.9990 C   0  0  0  0  0  0  0  0  0  0  0  0
   -7.1230   22.3340  -31.5830 C   0  0  0  0  0  0  0  0  0  0  0  0
   -7.0780   23.6410  -31.1550 C   0  0  0  0  0  0  0  0  0  0  0  0
   -5.7400   23.8830  -30.8510 C   0  0  0  0  0  0  0  0  0  0  0  0
   -5.2300   25.2010  -30.4230 C   0  0  0  0  0  0  0  0  0  0  0  0
   -3.9570   25.6700  -30.8590 N   0  0  0  0  0  0  0  0  0  0  0  0
   -5.9460   25.9440  -29.7010 O   0  0  0  0  0  0  0  0  0  0  0  0
   -4.9900   22.7680  -31.0760 N   0  0  0  0  0  0  0  0  0  0  0  0
   -3.5950   22.5790  -30.7920 C   0  0  0  0  0  0  0  0  0  0  0  0
   -2.9680   21.6230  -31.3260 O   0  0  0  0  0  0  0  0  0  0  0  0
   -2.9440   23.4420  -29.9060 O   0  0  0  0  0  0  0  0  0  0  0  0
   -1.6540   23.1670  -29.3760 C   0  0  0  0  0  0  0  0  0  0  0  0
   -0.9420   24.4520  -29.1110 C   0  0  0  0  0  0  0  0  0  0  0  0
    0.2320   24.4460  -28.6540 O   0  0  0  0  0  0  0  0  0  0  0  0
   -1.5850   25.6620  -29.3410 O   0  0  0  0  0  0  0  0  0  0  0  0
   -5.8530   21.8290  -31.5240 C   0  0  0  0  0  0  0  0  0  0  0  0
   -5.5880   20.4950  -31.8530 C   0  0  0  0  0  0  0  0  0  0  0  0
   -2.9197   19.4780  -32.7724 H   0  0  0  0  0  0  0  0  0  0  0  0
   -1.7169   19.7399  -34.0807 H   0  0  0  0  0  0  0  0  0  0  0  0
   -3.2590   20.6612  -34.0807 H   0  0  0  0  0  0  0  0  0  0  0  0
   -5.0728   16.6958  -32.9149 H   0  0  0  0  0  0  0  0  0  0  0  0
   -4.3637   18.2222  -32.2634 H   0  0  0  0  0  0  0  0  0  0  0  0
   -7.8733   17.0757  -31.6913 H   0  0  0  0  0  0  0  0  0  0  0  0
   -8.3935   17.8116  -33.2452 H   0  0  0  0  0  0  0  0  0  0  0  0
   -7.2410   16.4337  -33.2452 H   0  0  0  0  0  0  0  0  0  0  0  0
   -8.8037   19.6029  -32.6959 H   0  0  0  0  0  0  0  0  0  0  0  0
   -9.2163   21.9946  -32.0482 H   0  0  0  0  0  0  0  0  0  0  0  0
   -7.9192   24.3448  -31.0708 H   0  0  0  0  0  0  0  0  0  0  0  0
   -3.0740   25.2850  -30.4540 H   0  0  0  0  0  0  0  0  0  0  0  0
   -1.7557   22.6034  -28.4368 H   0  0  0  0  0  0  0  0  0  0  0  0
   -1.0789   22.5711  -30.1000 H   0  0  0  0  0  0  0  0  0  0  0  0
   -4.5667   20.0931  -31.7802 H   0  0  0  0  0  0  0  0  0  0  0  0
  1  2  1  0
  2  3  1  0
  3  4  2  0
  3  5  1  0
  5  6  1  0
  6  7  1  0
  6  8  1  0
  8  9  2  0
  9 10  1  0
 10 11  2  0
 11 12  1  0
 12 13  2  0
 13 14  1  0
 14 15  1  0
 14 16  2  0
 13 17  1  0
 17 18  1  0
 18 19  2  0
 18 20  1  0
 20 21  1  0
 21 22  1  0
 22 23  2  0
 22 24  1  0
 17 25  1  0
 25 26  2  0
 26  8  1  0
 25 11  1  0
  1 27  1  0
  1 28  1  0
  1 29  1  0
  5 30  1  0
  5 31  1  0
  7 32  1  0
  7 33  1  0
  7 34  1  0
  9 35  1  0
 10 36  1  0
 12 37  1  0
 15 38  1  0
 21 39  1  0
 21 40  1  0
 26 41  1  0
M  CHG  2  15  -1  24  -1
M  END
>  <UniqueID>  (46) 
45

>  <SMILES>  (46) 
COC(=O)CN(C)c1ccc2cc(C([NH-])=O)n(C(=O)OCC(=O)[O-])c2c1

>  <Energy>  (46) 
75.87941438782595

>  <Genealogy>  (46) 
COC(=O)CN(C)c1ccc2cc(C([NH-])=O)n(C(=O)OCC(=O)[O-])c2c1 (protonated)
COC(=O)CN(C)c1ccc2cc(C([NH-])=O)n(C(=O)OCC(=O)[O-])c2c1 (3D coordinates assigned)
COC(=O)CN(C)c1ccc2cc(C([NH-])=O)n(C(=O)OCC(=O)[O-])c2c1 (optimized conformer: 75.87941438782595 kcal/mol)

>  <smiles>  (46) 
COC(=O)CN(C)c1ccc2cc(C(N)=O)n(C(=O)OCC(=O)O)c2c1

>  <score_type>  (46) 
oracle

>  <origin>  (46) 
adg

>  <m_score__min__energy>  (46) 
-12.050000000000001

>  <m_primary>  (46) 
energy

$$$$
48:0
     RDKit          3D

 59 60  0  0  0  0  0  0  0  0999 V2000
   -0.5010   24.7000  -25.6360 C   0  0  0  0  0  0  0  0  0  0  0  0
   -1.4820   25.0060  -26.6790 N   0  0  0  0  0  0  0  0  0  0  0  0
   -2.8720   25.3060  -26.3070 C   0  0  0  0  0  0  0  0  0  0  0  0
   -3.8440   24.3690  -27.0260 C   0  0  0  0  0  0  0  0  0  0  0  0
   -3.6070   24.3730  -28.4070 O   0  0  0  0  0  0  0  0  0  0  0  0
   -1.0520   25.0540  -28.0520 C   0  0  0  0  0  0  0  0  0  0  0  0
   -1.5990   25.8570  -28.8590 O   0  0  0  0  0  0  0  0  0  0  0  0
   -0.0150   24.2180  -28.4820 O   0  0  0  0  0  0  0  0  0  0  0  0
   -0.1940   23.1100  -29.3640 C   0  0  0  0  0  0  0  0  0  0  0  0
   -0.6720   21.9800  -28.6360 O   0  0  0  0  0  0  0  0  0  0  0  0
   -1.4970   20.9900  -29.1860 C   0  0  0  0  0  0  0  0  0  0  0  0
   -2.7340   20.9780  -28.9290 O   0  0  0  0  0  0  0  0  0  0  0  0
   -0.9320   20.0010  -30.0700 N   0  0  0  0  0  0  0  0  0  0  0  0
    0.0540   19.0560  -29.5410 C   0  0  0  0  0  0  0  0  0  0  0  0
   -1.2680   19.9800  -31.5020 C   0  0  0  0  0  0  0  0  0  0  0  0
   -1.5710   21.3910  -32.0240 C   0  0  0  0  0  0  0  0  0  0  0  0
   -3.0660   21.5940  -32.3080 C   0  0  0  0  0  0  0  0  0  0  0  0
   -3.6480   22.6310  -31.3870 C   0  0  0  0  0  0  0  0  0  0  0  0
   -2.8830   23.2890  -30.6310 O   0  0  0  0  0  0  0  0  0  0  0  0
   -5.0710   22.8130  -31.2910 N   0  0  0  0  0  0  0  0  0  0  0  0
   -5.7530   23.9500  -30.9790 C   0  0  0  0  0  0  0  0  0  0  0  0
   -5.1630   25.1810  -30.4260 C   0  0  0  0  0  0  0  0  0  0  0  0
   -3.8710   25.6160  -30.8420 N   0  0  0  0  0  0  0  0  0  0  0  0
   -5.7770   25.8250  -29.5340 O   0  0  0  0  0  0  0  0  0  0  0  0
   -7.1230   23.7620  -31.1530 C   0  0  0  0  0  0  0  0  0  0  0  0
   -7.2600   22.4570  -31.5720 C   0  0  0  0  0  0  0  0  0  0  0  0
   -8.4030   21.7350  -31.9040 C   0  0  0  0  0  0  0  0  0  0  0  0
   -8.2430   20.4040  -32.3270 C   0  0  0  0  0  0  0  0  0  0  0  0
   -6.9520   19.8170  -32.4060 C   0  0  0  0  0  0  0  0  0  0  0  0
   -6.8020   18.4020  -32.9080 C   0  0  0  0  0  0  0  0  0  0  0  0
   -6.4830   18.4270  -34.2530 F   0  0  0  0  0  0  0  0  0  0  0  0
   -5.8030   17.7340  -32.2200 F   0  0  0  0  0  0  0  0  0  0  0  0
   -7.9860   17.7040  -32.7370 F   0  0  0  0  0  0  0  0  0  0  0  0
   -5.8130   20.5940  -32.0860 C   0  0  0  0  0  0  0  0  0  0  0  0
   -6.0070   21.9080  -31.6480 C   0  0  0  0  0  0  0  0  0  0  0  0
   -0.9606   24.8434  -24.6469 H   0  0  0  0  0  0  0  0  0  0  0  0
   -0.1702   23.6560  -25.7387 H   0  0  0  0  0  0  0  0  0  0  0  0
    0.3647   25.3708  -25.7387 H   0  0  0  0  0  0  0  0  0  0  0  0
   -2.9889   25.1813  -25.2204 H   0  0  0  0  0  0  0  0  0  0  0  0
   -3.0990   26.3412  -26.6017 H   0  0  0  0  0  0  0  0  0  0  0  0
   -3.7125   23.3473  -26.6402 H   0  0  0  0  0  0  0  0  0  0  0  0
   -4.8712   24.7173  -26.8428 H   0  0  0  0  0  0  0  0  0  0  0  0
   -3.7610   25.3030  -28.7220 H   0  0  0  0  0  0  0  0  0  0  0  0
   -0.9241   23.3777  -30.1419 H   0  0  0  0  0  0  0  0  0  0  0  0
    0.7707   22.8587  -29.8289 H   0  0  0  0  0  0  0  0  0  0  0  0
    0.0304   19.0786  -28.4415 H   0  0  0  0  0  0  0  0  0  0  0  0
   -0.1854   18.0414  -29.8921 H   0  0  0  0  0  0  0  0  0  0  0  0
    1.0575   19.3382  -29.8921 H   0  0  0  0  0  0  0  0  0  0  0  0
   -0.4180   19.5650  -32.0635 H   0  0  0  0  0  0  0  0  0  0  0  0
   -2.1653   19.3587  -31.6392 H   0  0  0  0  0  0  0  0  0  0  0  0
   -1.2507   22.1245  -31.2695 H   0  0  0  0  0  0  0  0  0  0  0  0
   -1.0255   21.5263  -32.9696 H   0  0  0  0  0  0  0  0  0  0  0  0
   -3.1938   21.9240  -33.3495 H   0  0  0  0  0  0  0  0  0  0  0  0
   -3.5893   20.6409  -32.1418 H   0  0  0  0  0  0  0  0  0  0  0  0
   -3.0100   25.2900  -30.3480 H   0  0  0  0  0  0  0  0  0  0  0  0
   -7.9238   24.4984  -30.9904 H   0  0  0  0  0  0  0  0  0  0  0  0
   -9.4013   22.1922  -31.8373 H   0  0  0  0  0  0  0  0  0  0  0  0
   -9.1278   19.8102  -32.6000 H   0  0  0  0  0  0  0  0  0  0  0  0
   -4.8003   20.1748  -32.1795 H   0  0  0  0  0  0  0  0  0  0  0  0
  1  2  1  0
  2  3  1  0
  3  4  1  0
  4  5  1  0
  2  6  1  0
  6  7  2  0
  6  8  1  0
  8  9  1  0
  9 10  1  0
 10 11  1  0
 11 12  2  0
 11 13  1  0
 13 14  1  0
 13 15  1  0
 15 16  1  0
 16 17  1  0
 17 18  1  0
 18 19  2  0
 18 20  1  0
 20 21  1  0
 21 22  1  0
 22 23  1  0
 22 24  2  0
 21 25  2  0
 25 26  1  0
 26 27  2  0
 27 28  1  0
 28 29  2  0
 29 30  1  0
 30 31  1  0
 30 32  1  0
 30 33  1  0
 29 34  1  0
 34 35  2  0
 35 20  1  0
 35 26  1  0
  1 36  1  0
  1 37  1  0
  1 38  1  0
  3 39  1  0
  3 40  1  0
  4 41  1  0
  4 42  1  0
  5 43  1  0
  9 44  1  0
  9 45  1  0
 14 46  1  0
 14 47  1  0
 14 48  1  0
 15 49  1  0
 15 50  1  0
 16 51  1  0
 16 52  1  0
 17 53  1  0
 17 54  1  0
 23 55  1  0
 25 56  1  0
 27 57  1  0
 28 58  1  0
 34 59  1  0
M  CHG  1  23  -1
M  END
>  <UniqueID>  (47) 
46

>  <SMILES>  (47) 
CN(CCO)C(=O)OCOC(=O)N(C)CCCC(=O)n1c(C([NH-])=O)cc2ccc(C(F)(F)F)cc21

>  <Energy>  (47) 
86.0637229889499

>  <Genealogy>  (47) 
CN(CCO)C(=O)OCOC(=O)N(C)CCCC(=O)n1c(C([NH-])=O)cc2ccc(C(F)(F)F)cc21 (protonated)
CN(CCO)C(=O)OCOC(=O)N(C)CCCC(=O)n1c(C([NH-])=O)cc2ccc(C(F)(F)F)cc21 (3D coordinates assigned)
CN(CCO)C(=O)OCOC(=O)N(C)CCCC(=O)n1c(C([NH-])=O)cc2ccc(C(F)(F)F)cc21 (optimized conformer: 86.0637229889499 kcal/mol)

>  <smiles>  (47) 
CN(CCO)C(=O)OCOC(=O)N(C)CCCC(=O)n1c(C(N)=O)cc2ccc(C(F)(F)F)cc21

>  <score_type>  (47) 
oracle

>  <origin>  (47) 
adg

>  <m_score__min__energy>  (47) 
-10.26

>  <m_primary>  (47) 
energy

$$$$
49:0
     RDKit          3D

 38 40  0  0  0  0  0  0  0  0999 V2000
   -4.0210   16.9580  -35.4000 C   0  0  0  0  0  0  0  0  0  0  0  0
   -5.0000   17.1700  -34.3410 N   0  0  0  0  0  0  0  0  0  0  0  0
   -6.4100   16.8400  -34.4400 C   0  0  0  0  0  0  0  0  0  0  0  0
   -7.0300   17.2110  -33.0760 C   0  0  0  0  0  0  0  0  0  0  0  0
   -5.9460   17.9640  -32.2710 C   0  0  2  0  0  0  0  0  0  0  0  0
   -6.2910   19.4240  -32.0610 C   0  0  0  0  0  0  0  0  0  0  0  0
   -7.6030   19.9060  -32.3170 C   0  0  0  0  0  0  0  0  0  0  0  0
   -7.9210   21.2610  -32.1270 C   0  0  0  0  0  0  0  0  0  0  0  0
   -6.9160   22.1080  -31.6700 C   0  0  0  0  0  0  0  0  0  0  0  0
   -6.9450   23.4620  -31.4260 C   0  0  0  0  0  0  0  0  0  0  0  0
   -5.6600   23.7860  -30.9960 C   0  0  0  0  0  0  0  0  0  0  0  0
   -5.2740   25.1390  -30.5410 C   0  0  0  0  0  0  0  0  0  0  0  0
   -3.9900   25.6770  -30.8450 N   0  0  0  0  0  0  0  0  0  0  0  0
   -6.0720   25.8090  -29.8330 O   0  0  0  0  0  0  0  0  0  0  0  0
   -4.8660   22.6790  -30.9840 N   0  0  0  0  0  0  0  0  0  0  0  0
   -3.4640   22.6010  -30.6840 C   0  0  0  0  0  0  0  0  0  0  0  0
   -2.7000   21.9330  -31.4340 O   0  0  0  0  0  0  0  0  0  0  0  0
   -2.9640   23.2490  -29.5450 O   0  0  0  0  0  0  0  0  0  0  0  0
   -1.7280   23.9020  -29.4700 C   0  0  0  0  0  0  0  0  0  0  0  0
   -0.6430   23.2710  -29.5760 O   0  0  0  0  0  0  0  0  0  0  0  0
   -1.6990   25.2760  -29.2750 O   0  0  0  0  0  0  0  0  0  0  0  0
   -5.6500   21.6580  -31.3970 C   0  0  0  0  0  0  0  0  0  0  0  0
   -5.3000   20.3180  -31.5960 C   0  0  0  0  0  0  0  0  0  0  0  0
   -4.7360   17.8120  -33.1110 C   0  0  0  0  0  0  0  0  0  0  0  0
   -3.5880   18.2080  -32.7750 O   0  0  0  0  0  0  0  0  0  0  0  0
   -3.0384   16.7452  -34.9537 H   0  0  0  0  0  0  0  0  0  0  0  0
   -4.3330   16.1066  -36.0227 H   0  0  0  0  0  0  0  0  0  0  0  0
   -3.9528   17.8622  -36.0227 H   0  0  0  0  0  0  0  0  0  0  0  0
   -6.8829   17.4208  -35.2456 H   0  0  0  0  0  0  0  0  0  0  0  0
   -6.5594   15.7758  -34.6746 H   0  0  0  0  0  0  0  0  0  0  0  0
   -7.9071   17.8582  -33.2242 H   0  0  0  0  0  0  0  0  0  0  0  0
   -7.3598   16.3096  -32.5388 H   0  0  0  0  0  0  0  0  0  0  0  0
   -5.8262   17.5631  -31.2537 H   0  0  0  0  0  0  0  0  0  0  0  0
   -8.3789   19.2098  -32.6681 H   0  0  0  0  0  0  0  0  0  0  0  0
   -8.9327   21.6406  -32.3330 H   0  0  0  0  0  0  0  0  0  0  0  0
   -7.8004   24.1433  -31.5451 H   0  0  0  0  0  0  0  0  0  0  0  0
   -3.1210   25.2410  -30.4620 H   0  0  0  0  0  0  0  0  0  0  0  0
   -4.2766   19.9682  -31.3951 H   0  0  0  0  0  0  0  0  0  0  0  0
  1  2  1  0
  2  3  1  0
  3  4  1  0
  4  5  1  0
  5  6  1  0
  6  7  2  0
  7  8  1  0
  8  9  2  0
  9 10  1  0
 10 11  2  0
 11 12  1  0
 12 13  1  0
 12 14  2  0
 11 15  1  0
 15 16  1  0
 16 17  2  0
 16 18  1  0
 18 19  1  0
 19 20  2  0
 19 21  1  0
 15 22  1  0
 22 23  2  0
  5 24  1  0
 24 25  2  0
 24  2  1  0
 23  6  1  0
 22  9  1  0
  1 26  1  0
  1 27  1  0
  1 28  1  0
  3 29  1  0
  3 30  1  0
  4 31  1  0
  4 32  1  0
  5 33  1  1
  7 34  1  0
  8 35  1  0
 10 36  1  0
 13 37  1  0
 23 38  1  0
M  CHG  2  13  -1  21  -1
M  END
>  <UniqueID>  (48) 
47

>  <SMILES>  (48) 
CN1CC[C@H](c2ccc3cc(C([NH-])=O)n(C(=O)OC(=O)[O-])c3c2)C1=O

>  <Energy>  (48) 
85.35923486880941

>  <Genealogy>  (48) 
CN1CCC(c2ccc3cc(C([NH-])=O)n(C(=O)OC(=O)[O-])c3c2)C1=O (protonated)
CN1CC[C@H](c2ccc3cc(C([NH-])=O)n(C(=O)OC(=O)[O-])c3c2)C1=O (chirality)
CN1CC[C@H](c2ccc3cc(C([NH-])=O)n(C(=O)OC(=O)[O-])c3c2)C1=O (3D coordinates assigned)
CN1CC[C@H](c2ccc3cc(C([NH-])=O)n(C(=O)OC(=O)[O-])c3c2)C1=O (nonaromatic ring conformer: 85.35923486880941 kcal/mol)

>  <smiles>  (48) 
CN1CCC(c2ccc3cc(C(N)=O)n(C(=O)OC(=O)O)c3c2)C1=O

>  <score_type>  (48) 
oracle

>  <origin>  (48) 
adg

>  <m_score__min__energy>  (48) 
-11.5

>  <m_primary>  (48) 
energy

$$$$
50:0
     RDKit          3D

 42 43  0  0  0  0  0  0  0  0999 V2000
   -6.8450   18.3880  -32.7090 C   0  0  0  0  0  0  0  0  0  0  0  0
   -7.0630   19.8240  -32.3370 C   0  0  0  0  0  0  0  0  0  0  0  0
   -8.3670   20.3780  -32.3720 C   0  0  0  0  0  0  0  0  0  0  0  0
   -8.5890   21.7090  -31.9800 C   0  0  0  0  0  0  0  0  0  0  0  0
   -7.4950   22.4530  -31.5500 C   0  0  0  0  0  0  0  0  0  0  0  0
   -7.4290   23.7460  -31.0830 C   0  0  0  0  0  0  0  0  0  0  0  0
   -6.0880   23.9580  -30.7670 C   0  0  0  0  0  0  0  0  0  0  0  0
   -5.5500   25.2530  -30.3050 C   0  0  0  0  0  0  0  0  0  0  0  0
   -4.1970   25.6160  -30.5630 N   0  0  0  0  0  0  0  0  0  0  0  0
   -6.3060   26.0670  -29.7100 O   0  0  0  0  0  0  0  0  0  0  0  0
   -5.3580   22.8350  -31.0170 N   0  0  0  0  0  0  0  0  0  0  0  0
   -3.9730   22.5960  -30.7270 C   0  0  0  0  0  0  0  0  0  0  0  0
   -3.1330   22.5790  -31.6670 O   0  0  0  0  0  0  0  0  0  0  0  0
   -3.5230   22.2770  -29.3310 C   0  0  0  0  0  0  0  0  0  0  0  0
   -2.5920   23.6350  -28.6170 S   0  0  0  0  0  0  0  0  0  0  0  0
   -1.9170   24.4190  -29.7100 O   0  0  0  0  0  0  0  0  0  0  0  0
   -3.5600   24.5450  -27.9120 O   0  0  0  0  0  0  0  0  0  0  0  0
   -1.3480   23.0790  -27.4300 C   0  0  0  0  0  0  0  0  0  0  0  0
   -1.2830   24.0560  -26.2420 C   0  0  0  0  0  0  0  0  0  0  0  0
   -1.6980   21.6710  -26.9210 C   0  0  0  0  0  0  0  0  0  0  0  0
    0.0240   23.0410  -28.1270 C   0  0  0  0  0  0  0  0  0  0  0  0
   -6.2300   21.9280  -31.5050 C   0  0  0  0  0  0  0  0  0  0  0  0
   -5.9800   20.6050  -31.8830 C   0  0  0  0  0  0  0  0  0  0  0  0
   -6.7531   17.7824  -31.7953 H   0  0  0  0  0  0  0  0  0  0  0  0
   -7.6990   18.0292  -33.3023 H   0  0  0  0  0  0  0  0  0  0  0  0
   -5.9230   18.2988  -33.3023 H   0  0  0  0  0  0  0  0  0  0  0  0
   -9.2128   19.7606  -32.7090 H   0  0  0  0  0  0  0  0  0  0  0  0
   -9.5966   22.1490  -32.0121 H   0  0  0  0  0  0  0  0  0  0  0  0
   -8.2588   24.4608  -30.9808 H   0  0  0  0  0  0  0  0  0  0  0  0
   -3.4980   25.6700  -29.7880 H   0  0  0  0  0  0  0  0  0  0  0  0
   -4.4068   22.0813  -28.7060 H   0  0  0  0  0  0  0  0  0  0  0  0
   -2.8699   21.3928  -29.3712 H   0  0  0  0  0  0  0  0  0  0  0  0
   -1.3206   23.4902  -25.2994 H   0  0  0  0  0  0  0  0  0  0  0  0
   -0.3448   24.6283  -26.2889 H   0  0  0  0  0  0  0  0  0  0  0  0
   -2.1371   24.7476  -26.2889 H   0  0  0  0  0  0  0  0  0  0  0  0
   -1.6986   21.6684  -25.8210 H   0  0  0  0  0  0  0  0  0  0  0  0
   -2.6945   21.3853  -27.2889 H   0  0  0  0  0  0  0  0  0  0  0  0
   -0.9513   20.9520  -27.2889 H   0  0  0  0  0  0  0  0  0  0  0  0
    0.8202   23.0189  -27.3683 H   0  0  0  0  0  0  0  0  0  0  0  0
    0.0912   22.1406  -28.7554 H   0  0  0  0  0  0  0  0  0  0  0  0
    0.1410   23.9363  -28.7554 H   0  0  0  0  0  0  0  0  0  0  0  0
   -4.9651   20.1845  -31.8277 H   0  0  0  0  0  0  0  0  0  0  0  0
  1  2  1  0
  2  3  2  0
  3  4  1  0
  4  5  2  0
  5  6  1  0
  6  7  2  0
  7  8  1  0
  8  9  1  0
  8 10  2  0
  7 11  1  0
 11 12  1  0
 12 13  2  0
 12 14  1  0
 14 15  1  0
 15 16  2  0
 15 17  2  0
 15 18  1  0
 18 19  1  0
 18 20  1  0
 18 21  1  0
 11 22  1  0
 22 23  2  0
 23  2  1  0
 22  5  1  0
  1 24  1  0
  1 25  1  0
  1 26  1  0
  3 27  1  0
  4 28  1  0
  6 29  1  0
  9 30  1  0
 14 31  1  0
 14 32  1  0
 19 33  1  0
 19 34  1  0
 19 35  1  0
 20 36  1  0
 20 37  1  0
 20 38  1  0
 21 39  1  0
 21 40  1  0
 21 41  1  0
 23 42  1  0
M  CHG  1   9  -1
M  END
>  <UniqueID>  (49) 
48

>  <SMILES>  (49) 
Cc1ccc2cc(C([NH-])=O)n(C(=O)CS(=O)(=O)C(C)(C)C)c2c1

>  <Energy>  (49) 
67.09585981166875

>  <Genealogy>  (49) 
Cc1ccc2cc(C([NH-])=O)n(C(=O)CS(=O)(=O)C(C)(C)C)c2c1 (protonated)
Cc1ccc2cc(C([NH-])=O)n(C(=O)CS(=O)(=O)C(C)(C)C)c2c1 (3D coordinates assigned)
Cc1ccc2cc(C([NH-])=O)n(C(=O)CS(=O)(=O)C(C)(C)C)c2c1 (optimized conformer: 67.09585981166875 kcal/mol)

>  <smiles>  (49) 
Cc1ccc2cc(C(N)=O)n(C(=O)CS(=O)(=O)C(C)(C)C)c2c1

>  <score_type>  (49) 
oracle

>  <origin>  (49) 
adg

>  <m_score__min__energy>  (49) 
-10.57

>  <m_primary>  (49) 
energy

$$$$
51:0
     RDKit          3D

 43 44  0  0  0  0  0  0  0  0999 V2000
   -6.1570   17.4750  -34.1890 C   0  0  0  0  0  0  0  0  0  0  0  0
   -5.9280   18.8720  -34.3250 O   0  0  0  0  0  0  0  0  0  0  0  0
   -5.2930   19.6280  -33.3350 C   0  0  0  0  0  0  0  0  0  0  0  0
   -4.1260   20.0720  -33.5190 O   0  0  0  0  0  0  0  0  0  0  0  0
   -6.0000   19.9180  -32.0790 C   0  0  0  0  0  0  0  0  0  0  0  0
   -6.2550   18.9780  -31.2800 O   0  0  0  0  0  0  0  0  0  0  0  0
   -6.4270   21.2530  -31.7640 N   0  0  0  0  0  0  0  0  0  0  0  0
   -7.6870   21.7620  -31.8560 C   0  0  0  0  0  0  0  0  0  0  0  0
   -8.8600   21.0690  -32.4280 C   0  0  0  0  0  0  0  0  0  0  0  0
   -8.7110   20.0410  -33.4080 N   0  0  0  0  0  0  0  0  0  0  0  0
  -10.0180   21.4200  -32.0760 O   0  0  0  0  0  0  0  0  0  0  0  0
   -7.7320   23.0560  -31.3420 C   0  0  0  0  0  0  0  0  0  0  0  0
   -6.4460   23.3280  -30.9300 C   0  0  0  0  0  0  0  0  0  0  0  0
   -5.9210   24.4640  -30.3230 C   0  0  0  0  0  0  0  0  0  0  0  0
   -4.5620   24.4510  -29.9670 C   0  0  0  0  0  0  0  0  0  0  0  0
   -3.7570   23.3080  -30.2030 C   0  0  0  0  0  0  0  0  0  0  0  0
   -2.3670   23.3430  -29.8250 N   0  0  0  0  0  0  0  0  0  0  0  0
   -1.4640   22.1920  -29.8600 C   0  0  0  0  0  0  0  0  0  0  0  0
   -0.1250   22.5070  -29.1870 C   0  0  0  0  0  0  0  0  0  0  0  0
    0.1050   23.9630  -29.1610 N   0  0  0  0  0  0  0  0  0  0  0  0
   -0.1350   24.5560  -27.8360 C   0  0  0  0  0  0  0  0  0  0  0  0
   -0.9470   25.8150  -27.9260 C   0  0  0  0  0  0  0  0  0  0  0  0
   -1.6160   26.0650  -28.9620 O   0  0  0  0  0  0  0  0  0  0  0  0
   -0.9490   26.7190  -26.8710 O   0  0  0  0  0  0  0  0  0  0  0  0
   -4.3360   22.1650  -30.8050 C   0  0  0  0  0  0  0  0  0  0  0  0
   -5.6810   22.2210  -31.1860 C   0  0  0  0  0  0  0  0  0  0  0  0
   -6.2000   17.2127  -33.1216 H   0  0  0  0  0  0  0  0  0  0  0  0
   -7.1104   17.2112  -34.6701 H   0  0  0  0  0  0  0  0  0  0  0  0
   -5.3377   16.9206  -34.6701 H   0  0  0  0  0  0  0  0  0  0  0  0
   -9.5500   19.5240  -33.7550 H   0  0  0  0  0  0  0  0  0  0  0  0
   -7.7920   19.8590  -33.8690 H   0  0  0  0  0  0  0  0  0  0  0  0
   -8.6075   23.7190  -31.2787 H   0  0  0  0  0  0  0  0  0  0  0  0
   -6.5501   25.3450  -30.1278 H   0  0  0  0  0  0  0  0  0  0  0  0
   -4.1160   25.3406  -29.4983 H   0  0  0  0  0  0  0  0  0  0  0  0
   -1.9660   24.2510  -29.4950 H   0  0  0  0  0  0  0  0  0  0  0  0
   -1.9383   21.3498  -29.3349 H   0  0  0  0  0  0  0  0  0  0  0  0
   -1.2695   21.9385  -30.9126 H   0  0  0  0  0  0  0  0  0  0  0  0
   -0.1379   22.1233  -28.1562 H   0  0  0  0  0  0  0  0  0  0  0  0
    0.6838   22.0273  -29.7578 H   0  0  0  0  0  0  0  0  0  0  0  0
   -0.5200   24.4280  -29.8620 H   0  0  0  0  0  0  0  0  0  0  0  0
   -0.6752   23.8280  -27.2130 H   0  0  0  0  0  0  0  0  0  0  0  0
    0.8398   24.8095  -27.3939 H   0  0  0  0  0  0  0  0  0  0  0  0
   -3.7421   21.2538  -30.9694 H   0  0  0  0  0  0  0  0  0  0  0  0
  1  2  1  0
  2  3  1  0
  3  4  2  0
  3  5  1  0
  5  6  2  0
  5  7  1  0
  7  8  1  0
  8  9  1  0
  9 10  1  0
  9 11  2  0
  8 12  2  0
 12 13  1  0
 13 14  2  0
 14 15  1  0
 15 16  2  0
 16 17  1  0
 17 18  1  0
 18 19  1  0
 19 20  1  0
 20 21  1  0
 21 22  1  0
 22 23  2  0
 22 24  1  0
 16 25  1  0
 25 26  2  0
 26  7  1  0
 26 13  1  0
  1 27  1  0
  1 28  1  0
  1 29  1  0
 10 30  1  0
 10 31  1  0
 12 32  1  0
 14 33  1  0
 15 34  1  0
 17 35  1  0
 18 36  1  0
 18 37  1  0
 19 38  1  0
 19 39  1  0
 20 40  1  0
 21 41  1  0
 21 42  1  0
 25 43  1  0
M  CHG  1  24  -1
M  END
>  <UniqueID>  (50) 
49

>  <SMILES>  (50) 
COC(=O)C(=O)n1c(C(N)=O)cc2ccc(NCCNCC(=O)[O-])cc21

>  <Energy>  (50) 
77.88742647887322

>  <Genealogy>  (50) 
COC(=O)C(=O)n1c(C(N)=O)cc2ccc(NCCNCC(=O)[O-])cc21 (protonated)
COC(=O)C(=O)n1c(C(N)=O)cc2ccc(NCCNCC(=O)[O-])cc21 (3D coordinates assigned)
COC(=O)C(=O)n1c(C(N)=O)cc2ccc(NCCNCC(=O)[O-])cc21 (optimized conformer: 77.88742647887322 kcal/mol)

>  <smiles>  (50) 
COC(=O)C(=O)n1c(C(N)=O)cc2ccc(NCCNCC(=O)O)cc21

>  <score_type>  (50) 
oracle

>  <origin>  (50) 
adg

>  <m_score__min__energy>  (50) 
-9.6300000000000008

>  <m_primary>  (50) 
energy

$$$$
52:0
     RDKit          3D

 37 38  0  0  0  0  0  0  0  0999 V2000
   -4.2310   24.9200  -26.4860 C   0  0  0  0  0  0  0  0  0  0  0  0
   -2.8320   24.5150  -26.9390 C   0  0  0  0  0  0  0  0  0  0  0  0
   -2.8580   24.0300  -28.2810 O   0  0  0  0  0  0  0  0  0  0  0  0
   -3.6000   22.9140  -28.6830 C   0  0  0  0  0  0  0  0  0  0  0  0
   -4.5770   22.5150  -27.9930 O   0  0  0  0  0  0  0  0  0  0  0  0
   -3.2360   22.2590  -29.8650 O   0  0  0  0  0  0  0  0  0  0  0  0
   -3.8510   22.4420  -31.1110 C   0  0  0  0  0  0  0  0  0  0  0  0
   -3.2040   22.2790  -32.1810 O   0  0  0  0  0  0  0  0  0  0  0  0
   -5.2280   22.8480  -31.1670 N   0  0  0  0  0  0  0  0  0  0  0  0
   -5.7530   24.0740  -30.8850 C   0  0  0  0  0  0  0  0  0  0  0  0
   -4.9860   25.3070  -30.6110 C   0  0  0  0  0  0  0  0  0  0  0  0
   -3.5630   25.2860  -30.5420 N   0  0  0  0  0  0  0  0  0  0  0  0
   -5.5940   26.4040  -30.4840 O   0  0  0  0  0  0  0  0  0  0  0  0
   -7.1440   24.0400  -30.9710 C   0  0  0  0  0  0  0  0  0  0  0  0
   -7.4570   22.7490  -31.3250 C   0  0  0  0  0  0  0  0  0  0  0  0
   -8.6980   22.1570  -31.5480 C   0  0  0  0  0  0  0  0  0  0  0  0
   -8.7260   20.7920  -31.8800 C   0  0  0  0  0  0  0  0  0  0  0  0
   -7.5230   20.0430  -31.9570 C   0  0  0  0  0  0  0  0  0  0  0  0
   -7.5440   18.6170  -32.3410 C   0  0  0  0  0  0  0  0  0  0  0  0
   -8.4370   17.8110  -31.7110 F   0  0  0  0  0  0  0  0  0  0  0  0
   -6.7290   18.0620  -33.2520 C   0  0  0  0  0  0  0  0  0  0  0  0
   -5.8160   18.8010  -34.1470 C   0  0  0  0  0  0  0  0  0  0  0  0
   -6.1090   18.9150  -35.3660 O   0  0  0  0  0  0  0  0  0  0  0  0
   -4.6770   19.4330  -33.6630 O   0  0  0  0  0  0  0  0  0  0  0  0
   -6.2840   20.6830  -31.7490 C   0  0  0  0  0  0  0  0  0  0  0  0
   -6.2840   22.0480  -31.4370 C   0  0  0  0  0  0  0  0  0  0  0  0
   -4.2714   24.9317  -25.3868 H   0  0  0  0  0  0  0  0  0  0  0  0
   -4.4655   25.9229  -26.8722 H   0  0  0  0  0  0  0  0  0  0  0  0
   -4.9650   24.1975  -26.8722 H   0  0  0  0  0  0  0  0  0  0  0  0
   -2.1671   25.3895  -26.8837 H   0  0  0  0  0  0  0  0  0  0  0  0
   -2.4644   23.7144  -26.2802 H   0  0  0  0  0  0  0  0  0  0  0  0
   -3.0440   24.3860  -30.4340 H   0  0  0  0  0  0  0  0  0  0  0  0
   -7.8432   24.8704  -30.7932 H   0  0  0  0  0  0  0  0  0  0  0  0
   -9.6272   22.7400  -31.4667 H   0  0  0  0  0  0  0  0  0  0  0  0
   -9.6887   20.2996  -32.0820 H   0  0  0  0  0  0  0  0  0  0  0  0
   -6.7424   16.9655  -33.3390 H   0  0  0  0  0  0  0  0  0  0  0  0
   -5.3403   20.1236  -31.8299 H   0  0  0  0  0  0  0  0  0  0  0  0
  1  2  1  0
  2  3  1  0
  3  4  1  0
  4  5  2  0
  4  6  1  0
  6  7  1  0
  7  8  2  0
  7  9  1  0
  9 10  1  0
 10 11  1  0
 11 12  1  0
 11 13  2  0
 10 14  2  0
 14 15  1  0
 15 16  2  0
 16 17  1  0
 17 18  2  0
 18 19  1  0
 19 20  1  0
 19 21  2  3
 21 22  1  0
 22 23  2  0
 22 24  1  0
 18 25  1  0
 25 26  2  0
 26  9  1  0
 26 15  1  0
  1 27  1  0
  1 28  1  0
  1 29  1  0
  2 30  1  0
  2 31  1  0
 12 32  1  0
 14 33  1  0
 16 34  1  0
 17 35  1  0
 21 36  1  0
 25 37  1  0
M  CHG  2  12  -1  24  -1
M  END
>  <UniqueID>  (51) 
50

>  <SMILES>  (51) 
CCOC(=O)OC(=O)n1c(C([NH-])=O)cc2ccc(C(F)=CC(=O)[O-])cc21

>  <Energy>  (51) 
81.64905826770779

>  <Genealogy>  (51) 
CCOC(=O)OC(=O)n1c(C([NH-])=O)cc2ccc(C(F)=CC(=O)[O-])cc21 (protonated)
CCOC(=O)OC(=O)n1c(C([NH-])=O)cc2ccc(C(F)=CC(=O)[O-])cc21 (3D coordinates assigned)
CCOC(=O)OC(=O)n1c(C([NH-])=O)cc2ccc(C(F)=CC(=O)[O-])cc21 (optimized conformer: 81.64905826770779 kcal/mol)

>  <smiles>  (51) 
CCOC(=O)OC(=O)n1c(C(N)=O)cc2ccc(C(F)=CC(=O)O)cc21

>  <score_type>  (51) 
oracle

>  <origin>  (51) 
adg

>  <m_score__min__energy>  (51) 
-10.06

>  <m_primary>  (51) 
energy

$$$$
53:0
     RDKit          3D

 39 40  0  0  0  0  0  0  0  0999 V2000
   -1.6550   22.9830  -28.1560 C   0  0  0  0  0  0  0  0  0  0  0  0
   -2.9870   23.6520  -28.5420 C   0  0  0  0  0  0  0  0  0  0  0  0
   -3.8000   24.0070  -27.2850 C   0  0  0  0  0  0  0  0  0  0  0  0
   -3.7630   22.7550  -29.4090 N   0  0  0  0  0  0  0  0  0  0  0  0
   -3.3160   22.1160  -30.6140 C   0  0  0  0  0  0  0  0  0  0  0  0
   -2.1810   21.5700  -30.6700 O   0  0  0  0  0  0  0  0  0  0  0  0
   -4.1890   22.1100  -31.7970 C   0  0  0  0  0  0  0  0  0  0  0  0
   -3.6760   22.1350  -32.9470 O   0  0  0  0  0  0  0  0  0  0  0  0
   -5.6180   22.0400  -31.6590 N   0  0  0  0  0  0  0  0  0  0  0  0
   -6.4580   22.9820  -31.1450 C   0  0  0  0  0  0  0  0  0  0  0  0
   -6.0610   24.3460  -30.7310 C   0  0  0  0  0  0  0  0  0  0  0  0
   -5.7120   24.6270  -29.3730 N   0  0  0  0  0  0  0  0  0  0  0  0
   -6.0460   25.2820  -31.5730 O   0  0  0  0  0  0  0  0  0  0  0  0
   -7.7720   22.5120  -31.1480 C   0  0  0  0  0  0  0  0  0  0  0  0
   -7.7070   21.2470  -31.6910 C   0  0  0  0  0  0  0  0  0  0  0  0
   -8.7150   20.3170  -31.9200 C   0  0  0  0  0  0  0  0  0  0  0  0
   -8.3530   19.0780  -32.4760 C   0  0  0  0  0  0  0  0  0  0  0  0
   -7.0030   18.7960  -32.8070 C   0  0  0  0  0  0  0  0  0  0  0  0
   -6.6210   17.4430  -33.3510 C   0  0  0  0  0  0  0  0  0  0  0  0
   -7.6020   16.5090  -33.0680 F   0  0  0  0  0  0  0  0  0  0  0  0
   -6.4580   17.4960  -34.7250 F   0  0  0  0  0  0  0  0  0  0  0  0
   -5.4320   17.0390  -32.7720 F   0  0  0  0  0  0  0  0  0  0  0  0
   -6.0040   19.7630  -32.5390 C   0  0  0  0  0  0  0  0  0  0  0  0
   -6.3960   20.9890  -31.9930 C   0  0  0  0  0  0  0  0  0  0  0  0
   -2.6990   24.9280  -29.3000 C   0  0  0  0  0  0  0  0  0  0  0  0
   -1.7090   25.6480  -28.9980 O   0  0  0  0  0  0  0  0  0  0  0  0
   -3.4940   25.2940  -30.3800 O   0  0  0  0  0  0  0  0  0  0  0  0
   -1.5701   22.9404  -27.0601 H   0  0  0  0  0  0  0  0  0  0  0  0
   -1.6247   21.9627  -28.5661 H   0  0  0  0  0  0  0  0  0  0  0  0
   -0.8185   23.5679  -28.5661 H   0  0  0  0  0  0  0  0  0  0  0  0
   -3.2172   23.7525  -26.3874 H   0  0  0  0  0  0  0  0  0  0  0  0
   -4.0226   25.0842  -27.2844 H   0  0  0  0  0  0  0  0  0  0  0  0
   -4.7414   23.4380  -27.2844 H   0  0  0  0  0  0  0  0  0  0  0  0
   -5.4670   25.6010  -29.0880 H   0  0  0  0  0  0  0  0  0  0  0  0
   -5.6490   23.8700  -28.6590 H   0  0  0  0  0  0  0  0  0  0  0  0
   -8.6694   23.0394  -30.7923 H   0  0  0  0  0  0  0  0  0  0  0  0
   -9.7628   20.5439  -31.6737 H   0  0  0  0  0  0  0  0  0  0  0  0
   -9.1266   18.3172  -32.6568 H   0  0  0  0  0  0  0  0  0  0  0  0
   -4.9457   19.5548  -32.7550 H   0  0  0  0  0  0  0  0  0  0  0  0
  1  2  1  0
  2  3  1  0
  2  4  1  0
  4  5  1  0
  5  6  2  0
  5  7  1  0
  7  8  2  0
  7  9  1  0
  9 10  1  0
 10 11  1  0
 11 12  1  0
 11 13  2  0
 10 14  2  0
 14 15  1  0
 15 16  2  0
 16 17  1  0
 17 18  2  0
 18 19  1  0
 19 20  1  0
 19 21  1  0
 19 22  1  0
 18 23  1  0
 23 24  2  0
  2 25  1  0
 25 26  2  0
 25 27  1  0
 24  9  1  0
 24 15  1  0
  1 28  1  0
  1 29  1  0
  1 30  1  0
  3 31  1  0
  3 32  1  0
  3 33  1  0
 12 34  1  0
 12 35  1  0
 14 36  1  0
 16 37  1  0
 17 38  1  0
 23 39  1  0
M  CHG  2   4  -1  27  -1
M  END
>  <UniqueID>  (52) 
51

>  <SMILES>  (52) 
CC(C)([N-]C(=O)C(=O)n1c(C(N)=O)cc2ccc(C(F)(F)F)cc21)C(=O)[O-]

>  <Energy>  (52) 
75.95703367037495

>  <Genealogy>  (52) 
CC(C)([N-]C(=O)C(=O)n1c(C(N)=O)cc2ccc(C(F)(F)F)cc21)C(=O)[O-] (protonated)
CC(C)([N-]C(=O)C(=O)n1c(C(N)=O)cc2ccc(C(F)(F)F)cc21)C(=O)[O-] (3D coordinates assigned)
CC(C)([N-]C(=O)C(=O)n1c(C(N)=O)cc2ccc(C(F)(F)F)cc21)C(=O)[O-] (optimized conformer: 75.95703367037495 kcal/mol)

>  <smiles>  (52) 
CC(C)(NC(=O)C(=O)n1c(C(N)=O)cc2ccc(C(F)(F)F)cc21)C(=O)O

>  <score_type>  (52) 
oracle

>  <origin>  (52) 
adg

>  <m_score__min__energy>  (52) 
-11.68

>  <m_primary>  (52) 
energy

$$$$
54:0
     RDKit          3D

 52 53  0  0  0  0  0  0  0  0999 V2000
   -2.8530   24.8670  -26.9590 C   0  0  0  0  0  0  0  0  0  0  0  0
   -2.1790   24.4310  -28.2500 C   0  0  0  0  0  0  0  0  0  0  0  0
   -2.7230   25.1690  -29.3410 O   0  0  0  0  0  0  0  0  0  0  0  0
   -3.9110   24.8050  -29.9840 C   0  0  0  0  0  0  0  0  0  0  0  0
   -4.2300   25.3340  -31.0850 O   0  0  0  0  0  0  0  0  0  0  0  0
   -4.8100   23.7670  -29.3800 C   0  0  0  0  0  0  0  0  0  0  0  0
   -6.1380   23.7810  -30.0110 N   0  0  0  0  0  0  0  0  0  0  0  0
   -7.0280   24.9170  -29.7490 C   0  0  0  0  0  0  0  0  0  0  0  0
   -6.6070   22.6600  -30.8000 C   0  0  0  0  0  0  0  0  0  0  0  0
   -7.9980   22.4400  -30.9730 C   0  0  0  0  0  0  0  0  0  0  0  0
   -8.4680   21.3510  -31.7190 C   0  0  0  0  0  0  0  0  0  0  0  0
   -7.5340   20.4900  -32.2830 C   0  0  0  0  0  0  0  0  0  0  0  0
   -7.7330   19.3660  -33.0430 C   0  0  0  0  0  0  0  0  0  0  0  0
   -6.4610   18.8840  -33.3210 C   0  0  0  0  0  0  0  0  0  0  0  0
   -6.2320   17.6330  -34.0670 C   0  0  0  0  0  0  0  0  0  0  0  0
   -5.2370   17.5570  -35.0890 N   0  0  0  0  0  0  0  0  0  0  0  0
   -6.8820   16.5990  -33.7540 O   0  0  0  0  0  0  0  0  0  0  0  0
   -5.4980   19.6910  -32.7820 N   0  0  0  0  0  0  0  0  0  0  0  0
   -4.0700   19.5930  -32.9880 C   0  0  0  0  0  0  0  0  0  0  0  0
   -3.6050   19.5560  -34.1600 O   0  0  0  0  0  0  0  0  0  0  0  0
   -3.1990   19.5700  -31.8880 O   0  0  0  0  0  0  0  0  0  0  0  0
   -2.3600   20.6400  -31.4370 C   0  0  0  0  0  0  0  0  0  0  0  0
   -2.5850   21.9140  -32.2780 C   0  0  0  0  0  0  0  0  0  0  0  0
   -0.8810   20.2120  -31.4800 C   0  0  0  0  0  0  0  0  0  0  0  0
   -2.7550   20.9360  -29.9810 C   0  0  0  0  0  0  0  0  0  0  0  0
   -6.1810   20.6720  -32.1340 C   0  0  0  0  0  0  0  0  0  0  0  0
   -5.6870   21.7590  -31.3940 C   0  0  0  0  0  0  0  0  0  0  0  0
   -2.2761   24.4938  -26.1000 H   0  0  0  0  0  0  0  0  0  0  0  0
   -2.8975   25.9655  -26.9214 H   0  0  0  0  0  0  0  0  0  0  0  0
   -3.8731   24.4572  -26.9214 H   0  0  0  0  0  0  0  0  0  0  0  0
   -1.0976   24.6207  -28.1816 H   0  0  0  0  0  0  0  0  0  0  0  0
   -2.3527   23.3567  -28.4104 H   0  0  0  0  0  0  0  0  0  0  0  0
   -4.3568   22.7745  -29.5200 H   0  0  0  0  0  0  0  0  0  0  0  0
   -4.9307   23.9910  -28.3098 H   0  0  0  0  0  0  0  0  0  0  0  0
   -7.1362   25.0552  -28.6631 H   0  0  0  0  0  0  0  0  0  0  0  0
   -6.6006   25.8278  -30.1937 H   0  0  0  0  0  0  0  0  0  0  0  0
   -8.0146   24.7200  -30.1937 H   0  0  0  0  0  0  0  0  0  0  0  0
   -8.7178   23.1343  -30.5149 H   0  0  0  0  0  0  0  0  0  0  0  0
   -9.5465   21.1822  -31.8545 H   0  0  0  0  0  0  0  0  0  0  0  0
   -8.6943   18.9381  -33.3636 H   0  0  0  0  0  0  0  0  0  0  0  0
   -5.0890   16.6660  -35.6130 H   0  0  0  0  0  0  0  0  0  0  0  0
   -4.6090   18.3690  -35.2880 H   0  0  0  0  0  0  0  0  0  0  0  0
   -2.7368   22.7734  -31.6083 H   0  0  0  0  0  0  0  0  0  0  0  0
   -1.7049   22.0946  -32.9126 H   0  0  0  0  0  0  0  0  0  0  0  0
   -3.4738   21.7822  -32.9126 H   0  0  0  0  0  0  0  0  0  0  0  0
   -0.5011   20.1021  -30.4535 H   0  0  0  0  0  0  0  0  0  0  0  0
   -0.7925   19.2514  -32.0086 H   0  0  0  0  0  0  0  0  0  0  0  0
   -0.2932   20.9769  -32.0086 H   0  0  0  0  0  0  0  0  0  0  0  0
   -2.0632   20.4176  -29.3008 H   0  0  0  0  0  0  0  0  0  0  0  0
   -2.7036   22.0198  -29.8002 H   0  0  0  0  0  0  0  0  0  0  0  0
   -3.7808   20.5824  -29.8002 H   0  0  0  0  0  0  0  0  0  0  0  0
   -4.6036   21.9090  -31.2771 H   0  0  0  0  0  0  0  0  0  0  0  0
  1  2  1  0
  2  3  1  0
  3  4  1  0
  4  5  2  0
  4  6  1  0
  6  7  1  0
  7  8  1  0
  7  9  1  0
  9 10  2  0
 10 11  1  0
 11 12  2  0
 12 13  1  0
 13 14  2  0
 14 15  1  0
 15 16  1  0
 15 17  2  0
 14 18  1  0
 18 19  1  0
 19 20  2  0
 19 21  1  0
 21 22  1  0
 22 23  1  0
 22 24  1  0
 22 25  1  0
 18 26  1  0
 26 27  2  0
 27  9  1  0
 26 12  1  0
  1 28  1  0
  1 29  1  0
  1 30  1  0
  2 31  1  0
  2 32  1  0
  6 33  1  0
  6 34  1  0
  8 35  1  0
  8 36  1  0
  8 37  1  0
 10 38  1  0
 11 39  1  0
 13 40  1  0
 16 41  1  0
 16 42  1  0
 23 43  1  0
 23 44  1  0
 23 45  1  0
 24 46  1  0
 24 47  1  0
 24 48  1  0
 25 49  1  0
 25 50  1  0
 25 51  1  0
 27 52  1  0
M  END
>  <UniqueID>  (53) 
52

>  <SMILES>  (53) 
CCOC(=O)CN(C)c1ccc2cc(C(N)=O)n(C(=O)OC(C)(C)C)c2c1

>  <Energy>  (53) 
81.99591901938578

>  <Genealogy>  (53) 
CCOC(=O)CN(C)c1ccc2cc(C(N)=O)n(C(=O)OC(C)(C)C)c2c1 (3D coordinates assigned)
CCOC(=O)CN(C)c1ccc2cc(C(N)=O)n(C(=O)OC(C)(C)C)c2c1 (optimized conformer: 81.99591901938578 kcal/mol)

>  <smiles>  (53) 
CCOC(=O)CN(C)c1ccc2cc(C(N)=O)n(C(=O)OC(C)(C)C)c2c1

>  <score_type>  (53) 
oracle

>  <origin>  (53) 
adg

>  <m_score__min__energy>  (53) 
-8.5899999999999999

>  <m_primary>  (53) 
energy

$$$$
55:0
     RDKit          3D

 40 41  0  0  0  0  0  0  0  0999 V2000
   -5.5120   16.8290  -34.0940 C   0  0  0  0  0  0  0  0  0  0  0  0
   -6.2180   17.9500  -33.3910 C   0  0  0  0  0  0  0  0  0  0  0  0
   -7.5910   17.8270  -33.0630 C   0  0  0  0  0  0  0  0  0  0  0  0
   -8.2590   18.8600  -32.3830 C   0  0  0  0  0  0  0  0  0  0  0  0
   -7.5250   19.9880  -32.0270 C   0  0  0  0  0  0  0  0  0  0  0  0
   -7.9280   21.1390  -31.3920 C   0  0  0  0  0  0  0  0  0  0  0  0
   -6.7850   21.9270  -31.3010 C   0  0  0  0  0  0  0  0  0  0  0  0
   -6.7560   23.2390  -30.6240 C   0  0  0  0  0  0  0  0  0  0  0  0
   -6.0410   24.3440  -31.1800 N   0  0  0  0  0  0  0  0  0  0  0  0
   -7.3250   23.3720  -29.5070 O   0  0  0  0  0  0  0  0  0  0  0  0
   -5.7180   21.2970  -31.8680 N   0  0  0  0  0  0  0  0  0  0  0  0
   -4.3950   21.8240  -32.0680 C   0  0  0  0  0  0  0  0  0  0  0  0
   -4.2440   23.0520  -32.3150 O   0  0  0  0  0  0  0  0  0  0  0  0
   -3.2890   20.9670  -31.9900 O   0  0  0  0  0  0  0  0  0  0  0  0
   -2.3380   20.9670  -30.9600 C   0  0  0  0  0  0  0  0  0  0  0  0
   -1.6580   19.9360  -30.7110 O   0  0  0  0  0  0  0  0  0  0  0  0
   -2.1770   22.1870  -30.1460 C   0  0  0  0  0  0  0  0  0  0  0  0
   -1.2350   22.9730  -30.4380 O   0  0  0  0  0  0  0  0  0  0  0  0
   -3.0590   22.5170  -29.0500 N   0  0  0  0  0  0  0  0  0  0  0  0
   -3.1330   21.6020  -27.9070 C   0  0  0  0  0  0  0  0  0  0  0  0
   -3.9600   23.6790  -29.0960 C   0  0  0  0  0  0  0  0  0  0  0  0
   -3.2960   24.8460  -29.7620 C   0  0  0  0  0  0  0  0  0  0  0  0
   -2.2070   25.2980  -29.3220 O   0  0  0  0  0  0  0  0  0  0  0  0
   -3.9100   25.4670  -30.8430 O   0  0  0  0  0  0  0  0  0  0  0  0
   -6.1860   20.1070  -32.3060 C   0  0  0  0  0  0  0  0  0  0  0  0
   -5.5020   19.1020  -33.0030 C   0  0  0  0  0  0  0  0  0  0  0  0
   -5.0803   16.1436  -33.3498 H   0  0  0  0  0  0  0  0  0  0  0  0
   -6.2289   16.2820  -34.7239 H   0  0  0  0  0  0  0  0  0  0  0  0
   -4.7089   17.2392  -34.7239 H   0  0  0  0  0  0  0  0  0  0  0  0
   -8.1389   16.9152  -33.3430 H   0  0  0  0  0  0  0  0  0  0  0  0
   -9.3287   18.7796  -32.1397 H   0  0  0  0  0  0  0  0  0  0  0  0
   -8.9383   21.3844  -31.0327 H   0  0  0  0  0  0  0  0  0  0  0  0
   -6.0660   25.2750  -30.7070 H   0  0  0  0  0  0  0  0  0  0  0  0
   -5.4210   24.2220  -32.0100 H   0  0  0  0  0  0  0  0  0  0  0  0
   -3.0863   22.1791  -26.9717 H   0  0  0  0  0  0  0  0  0  0  0  0
   -4.0793   21.0426  -27.9458 H   0  0  0  0  0  0  0  0  0  0  0  0
   -2.2889   20.8978  -27.9458 H   0  0  0  0  0  0  0  0  0  0  0  0
   -4.8655   23.4102  -29.6597 H   0  0  0  0  0  0  0  0  0  0  0  0
   -4.2186   23.9636  -28.0654 H   0  0  0  0  0  0  0  0  0  0  0  0
   -4.4335   19.2087  -33.2416 H   0  0  0  0  0  0  0  0  0  0  0  0
  1  2  1  0
  2  3  2  0
  3  4  1  0
  4  5  2  0
  5  6  1  0
  6  7  2  0
  7  8  1  0
  8  9  1  0
  8 10  2  0
  7 11  1  0
 11 12  1  0
 12 13  2  0
 12 14  1  0
 14 15  1  0
 15 16  2  0
 15 17  1  0
 17 18  2  0
 17 19  1  0
 19 20  1  0
 19 21  1  0
 21 22  1  0
 22 23  2  0
 22 24  1  0
 11 25  1  0
 25 26  2  0
 26  2  1  0
 25  5  1  0
  1 27  1  0
  1 28  1  0
  1 29  1  0
  3 30  1  0
  4 31  1  0
  6 32  1  0
  9 33  1  0
  9 34  1  0
 20 35  1  0
 20 36  1  0
 20 37  1  0
 21 38  1  0
 21 39  1  0
 26 40  1  0
M  CHG  1  24  -1
M  END
>  <UniqueID>  (54) 
53

>  <SMILES>  (54) 
Cc1ccc2cc(C(N)=O)n(C(=O)OC(=O)C(=O)N(C)CC(=O)[O-])c2c1

>  <Energy>  (54) 
79.88114643340172

>  <Genealogy>  (54) 
Cc1ccc2cc(C(N)=O)n(C(=O)OC(=O)C(=O)N(C)CC(=O)[O-])c2c1 (protonated)
Cc1ccc2cc(C(N)=O)n(C(=O)OC(=O)C(=O)N(C)CC(=O)[O-])c2c1 (3D coordinates assigned)
Cc1ccc2cc(C(N)=O)n(C(=O)OC(=O)C(=O)N(C)CC(=O)[O-])c2c1 (optimized conformer: 79.88114643340172 kcal/mol)

>  <smiles>  (54) 
Cc1ccc2cc(C(N)=O)n(C(=O)OC(=O)C(=O)N(C)CC(=O)O)c2c1

>  <score_type>  (54) 
oracle

>  <origin>  (54) 
adg

>  <m_score__min__energy>  (54) 
-10.65

>  <m_primary>  (54) 
energy

$$$$
56:0
     RDKit          3D

 47 48  0  0  0  0  0  0  0  0999 V2000
   -6.8400   18.2990  -32.8640 C   0  0  0  0  0  0  0  0  0  0  0  0
   -7.0640   19.7130  -32.4160 C   0  0  0  0  0  0  0  0  0  0  0  0
   -8.3700   20.2620  -32.4270 C   0  0  0  0  0  0  0  0  0  0  0  0
   -8.5970   21.5730  -31.9780 C   0  0  0  0  0  0  0  0  0  0  0  0
   -7.5040   22.3040  -31.5210 C   0  0  0  0  0  0  0  0  0  0  0  0
   -7.4480   23.5850  -31.0230 C   0  0  0  0  0  0  0  0  0  0  0  0
   -6.1070   23.8040  -30.7190 C   0  0  0  0  0  0  0  0  0  0  0  0
   -5.5750   25.1030  -30.2510 C   0  0  0  0  0  0  0  0  0  0  0  0
   -4.2450   25.5070  -30.5800 N   0  0  0  0  0  0  0  0  0  0  0  0
   -6.2800   25.8520  -29.5230 O   0  0  0  0  0  0  0  0  0  0  0  0
   -5.3620   22.6990  -31.0100 N   0  0  0  0  0  0  0  0  0  0  0  0
   -3.9510   22.5130  -30.7930 C   0  0  0  0  0  0  0  0  0  0  0  0
   -3.1260   23.3060  -31.3220 O   0  0  0  0  0  0  0  0  0  0  0  0
   -3.5040   21.4730  -29.9670 O   0  0  0  0  0  0  0  0  0  0  0  0
   -2.9770   21.6540  -28.6800 C   0  0  0  0  0  0  0  0  0  0  0  0
   -2.6460   20.6550  -27.9820 O   0  0  0  0  0  0  0  0  0  0  0  0
   -2.8320   22.9830  -28.1420 N   0  0  0  0  0  0  0  0  0  0  0  0
   -4.0020   23.6680  -27.5850 C   0  0  0  0  0  0  0  0  0  0  0  0
   -1.5110   23.6180  -28.0610 C   0  0  0  0  0  0  0  0  0  0  0  0
   -1.5650   25.0730  -28.5410 C   0  0  0  0  0  0  0  0  0  0  0  0
   -1.5610   25.9980  -27.3830 N   0  0  0  0  0  0  0  0  0  0  0  0
   -0.4290   26.9370  -27.4500 C   0  0  0  0  0  0  0  0  0  0  0  0
   -1.5130   25.2620  -26.1110 C   0  0  0  0  0  0  0  0  0  0  0  0
   -6.2340   21.7890  -31.5030 C   0  0  0  0  0  0  0  0  0  0  0  0
   -5.9840   20.4770  -31.9250 C   0  0  0  0  0  0  0  0  0  0  0  0
   -6.7368   17.6475  -31.9837 H   0  0  0  0  0  0  0  0  0  0  0  0
   -7.6966   17.9658  -33.4684 H   0  0  0  0  0  0  0  0  0  0  0  0
   -5.9224   18.2469  -33.4684 H   0  0  0  0  0  0  0  0  0  0  0  0
   -9.2132   19.6562  -32.7903 H   0  0  0  0  0  0  0  0  0  0  0  0
   -9.6070   22.0087  -31.9871 H   0  0  0  0  0  0  0  0  0  0  0  0
   -8.2847   24.2871  -30.8926 H   0  0  0  0  0  0  0  0  0  0  0  0
   -3.6490   24.9370  -31.2220 H   0  0  0  0  0  0  0  0  0  0  0  0
   -3.8630   26.4060  -30.2120 H   0  0  0  0  0  0  0  0  0  0  0  0
   -3.9546   23.6402  -26.4864 H   0  0  0  0  0  0  0  0  0  0  0  0
   -4.0110   24.7140  -27.9253 H   0  0  0  0  0  0  0  0  0  0  0  0
   -4.9185   23.1638  -27.9253 H   0  0  0  0  0  0  0  0  0  0  0  0
   -1.1663   23.5973  -27.0166 H   0  0  0  0  0  0  0  0  0  0  0  0
   -0.8173   23.0628  -28.7094 H   0  0  0  0  0  0  0  0  0  0  0  0
   -0.6886   25.2792  -29.1730 H   0  0  0  0  0  0  0  0  0  0  0  0
   -2.4897   25.2253  -29.1170 H   0  0  0  0  0  0  0  0  0  0  0  0
   -0.1108   27.2010  -26.4307 H   0  0  0  0  0  0  0  0  0  0  0  0
    0.4082   26.4645  -27.9847 H   0  0  0  0  0  0  0  0  0  0  0  0
   -0.7387   27.8471  -27.9847 H   0  0  0  0  0  0  0  0  0  0  0  0
   -1.5594   25.9737  -25.2736 H   0  0  0  0  0  0  0  0  0  0  0  0
   -2.3681   24.5724  -26.0539 H   0  0  0  0  0  0  0  0  0  0  0  0
   -0.5756   24.6893  -26.0539 H   0  0  0  0  0  0  0  0  0  0  0  0
   -4.9704   20.0525  -31.8749 H   0  0  0  0  0  0  0  0  0  0  0  0
  1  2  1  0
  2  3  2  0
  3  4  1  0
  4  5  2  0
  5  6  1  0
  6  7  2  0
  7  8  1  0
  8  9  1  0
  8 10  2  0
  7 11  1  0
 11 12  1  0
 12 13  2  0
 12 14  1  0
 14 15  1  0
 15 16  2  0
 15 17  1  0
 17 18  1  0
 17 19  1  0
 19 20  1  0
 20 21  1  0
 21 22  1  0
 21 23  1  0
 11 24  1  0
 24 25  2  0
 25  2  1  0
 24  5  1  0
  1 26  1  0
  1 27  1  0
  1 28  1  0
  3 29  1  0
  4 30  1  0
  6 31  1  0
  9 32  1  0
  9 33  1  0
 18 34  1  0
 18 35  1  0
 18 36  1  0
 19 37  1  0
 19 38  1  0
 20 39  1  0
 20 40  1  0
 22 41  1  0
 22 42  1  0
 22 43  1  0
 23 44  1  0
 23 45  1  0
 23 46  1  0
 25 47  1  0
M  END
>  <UniqueID>  (55) 
54

>  <SMILES>  (55) 
Cc1ccc2cc(C(N)=O)n(C(=O)OC(=O)N(C)CCN(C)C)c2c1

>  <Energy>  (55) 
80.55586468246602

>  <Genealogy>  (55) 
Cc1ccc2cc(C(N)=O)n(C(=O)OC(=O)N(C)CCN(C)C)c2c1 (3D coordinates assigned)
Cc1ccc2cc(C(N)=O)n(C(=O)OC(=O)N(C)CCN(C)C)c2c1 (optimized conformer: 80.55586468246602 kcal/mol)

>  <smiles>  (55) 
Cc1ccc2cc(C(N)=O)n(C(=O)OC(=O)N(C)CCN(C)C)c2c1

>  <score_type>  (55) 
oracle

>  <origin>  (55) 
adg

>  <m_score__min__energy>  (55) 
-8.9000000000000004

>  <m_primary>  (55) 
energy

$$$$
57:0
     RDKit          3D

 39 41  0  0  0  0  0  0  0  0999 V2000
   -4.2420   25.5250  -30.6200 N   0  0  0  0  0  0  0  0  0  0  0  0
   -5.5930   25.1520  -30.3430 C   0  0  0  0  0  0  0  0  0  0  0  0
   -6.3200   25.9330  -29.6740 O   0  0  0  0  0  0  0  0  0  0  0  0
   -6.1280   23.8510  -30.8030 C   0  0  0  0  0  0  0  0  0  0  0  0
   -7.4570   23.6350  -31.1620 C   0  0  0  0  0  0  0  0  0  0  0  0
   -7.5110   22.3320  -31.6010 C   0  0  0  0  0  0  0  0  0  0  0  0
   -8.5940   21.5830  -32.0500 C   0  0  0  0  0  0  0  0  0  0  0  0
   -8.3680   20.2410  -32.4000 C   0  0  0  0  0  0  0  0  0  0  0  0
   -7.0690   19.6760  -32.3060 C   0  0  0  0  0  0  0  0  0  0  0  0
   -6.8530   18.2170  -32.6200 C   0  0  0  0  0  0  0  0  0  0  0  0
   -6.5110   18.0840  -33.9530 F   0  0  0  0  0  0  0  0  0  0  0  0
   -5.8360   17.6950  -31.8400 F   0  0  0  0  0  0  0  0  0  0  0  0
   -8.0040   17.4890  -32.3750 F   0  0  0  0  0  0  0  0  0  0  0  0
   -6.0000   20.4650  -31.8240 C   0  0  0  0  0  0  0  0  0  0  0  0
   -6.2500   21.8040  -31.5010 C   0  0  0  0  0  0  0  0  0  0  0  0
   -5.3900   22.7250  -31.0140 N   0  0  0  0  0  0  0  0  0  0  0  0
   -4.0050   22.5160  -30.6980 C   0  0  0  0  0  0  0  0  0  0  0  0
   -3.1110   23.1050  -31.3630 O   0  0  0  0  0  0  0  0  0  0  0  0
   -3.6540   21.6360  -29.6680 O   0  0  0  0  0  0  0  0  0  0  0  0
   -2.6790   21.9550  -28.6780 C   0  0  0  0  0  0  0  0  0  0  0  0
   -1.8240   22.9950  -29.1440 O   0  0  0  0  0  0  0  0  0  0  0  0
   -1.8500   24.2930  -28.6220 C   0  0  0  0  0  0  0  0  0  0  0  0
   -2.2190   25.2640  -29.3360 O   0  0  0  0  0  0  0  0  0  0  0  0
   -1.4560   24.5210  -27.2280 C   0  0  0  0  0  0  0  0  0  0  0  0
   -1.8120   25.6150  -26.4490 C   0  0  0  0  0  0  0  0  0  0  0  0
   -1.2770   25.5670  -25.1560 C   0  0  0  0  0  0  0  0  0  0  0  0
   -0.4990   24.4410  -24.9140 C   0  0  0  0  0  0  0  0  0  0  0  0
   -0.4770   23.5040  -26.3100 S   0  0  0  0  0  0  0  0  0  0  0  0
   -3.8640   26.4290  -30.2560 H   0  0  0  0  0  0  0  0  0  0  0  0
   -3.6260   24.9330  -31.2180 H   0  0  0  0  0  0  0  0  0  0  0  0
   -8.2875   24.3542  -31.1062 H   0  0  0  0  0  0  0  0  0  0  0  0
   -9.5969   22.0279  -32.1286 H   0  0  0  0  0  0  0  0  0  0  0  0
   -9.2067   19.6215  -32.7506 H   0  0  0  0  0  0  0  0  0  0  0  0
   -4.9939   20.0364  -31.7053 H   0  0  0  0  0  0  0  0  0  0  0  0
   -3.1879   22.2870  -27.7610 H   0  0  0  0  0  0  0  0  0  0  0  0
   -2.0739   21.0602  -28.4699 H   0  0  0  0  0  0  0  0  0  0  0  0
   -2.4492   26.4352  -26.8112 H   0  0  0  0  0  0  0  0  0  0  0  0
   -1.4558   26.3477  -24.4020 H   0  0  0  0  0  0  0  0  0  0  0  0
    0.0145   24.2035  -23.9706 H   0  0  0  0  0  0  0  0  0  0  0  0
  1  2  1  0
  2  3  2  0
  2  4  1  0
  4  5  2  0
  5  6  1  0
  6  7  2  0
  7  8  1  0
  8  9  2  0
  9 10  1  0
 10 11  1  0
 10 12  1  0
 10 13  1  0
  9 14  1  0
 14 15  2  0
 15 16  1  0
 16 17  1  0
 17 18  2  0
 17 19  1  0
 19 20  1  0
 20 21  1  0
 21 22  1  0
 22 23  2  0
 22 24  1  0
 24 25  2  0
 25 26  1  0
 26 27  2  0
 27 28  1  0
 16  4  1  0
 28 24  1  0
 15  6  1  0
  1 29  1  0
  1 30  1  0
  5 31  1  0
  7 32  1  0
  8 33  1  0
 14 34  1  0
 20 35  1  0
 20 36  1  0
 25 37  1  0
 26 38  1  0
 27 39  1  0
M  END
>  <UniqueID>  (56) 
55

>  <SMILES>  (56) 
NC(=O)c1cc2ccc(C(F)(F)F)cc2n1C(=O)OCOC(=O)c1cccs1

>  <Energy>  (56) 
101.9670991477407

>  <Genealogy>  (56) 
NC(=O)c1cc2ccc(C(F)(F)F)cc2n1C(=O)OCOC(=O)c1cccs1 (3D coordinates assigned)
NC(=O)c1cc2ccc(C(F)(F)F)cc2n1C(=O)OCOC(=O)c1cccs1 (optimized conformer: 101.9670991477407 kcal/mol)

>  <smiles>  (56) 
NC(=O)c1cc2ccc(C(F)(F)F)cc2n1C(=O)OCOC(=O)c1cccs1

>  <score_type>  (56) 
oracle

>  <origin>  (56) 
adg

>  <m_score__min__energy>  (56) 
-8.6899999999999995

>  <m_primary>  (56) 
energy

$$$$
58:0
     RDKit          3D

 35 36  0  0  0  0  0  0  0  0999 V2000
   -7.6440   17.8590  -32.0020 C   0  0  0  0  0  0  0  0  0  0  0  0
   -7.9540   18.8290  -33.0530 N   0  0  0  0  0  0  0  0  0  0  0  0
   -7.8880   20.1690  -32.5290 C   0  0  0  0  0  0  0  0  0  0  0  0
   -9.0690   20.9430  -32.3960 C   0  0  0  0  0  0  0  0  0  0  0  0
   -9.0140   22.2650  -31.9240 C   0  0  0  0  0  0  0  0  0  0  0  0
   -7.7660   22.7870  -31.5940 C   0  0  0  0  0  0  0  0  0  0  0  0
   -7.4240   24.0420  -31.1480 C   0  0  0  0  0  0  0  0  0  0  0  0
   -6.0390   24.0170  -31.0010 C   0  0  0  0  0  0  0  0  0  0  0  0
   -5.2590   25.1480  -30.4560 C   0  0  0  0  0  0  0  0  0  0  0  0
   -3.8670   25.2770  -30.7310 N   0  0  0  0  0  0  0  0  0  0  0  0
   -5.8180   25.9830  -29.6970 O   0  0  0  0  0  0  0  0  0  0  0  0
   -5.5430   22.7970  -31.3510 N   0  0  0  0  0  0  0  0  0  0  0  0
   -4.1640   22.4040  -31.4340 C   0  0  0  0  0  0  0  0  0  0  0  0
   -3.4920   22.6770  -32.4660 O   0  0  0  0  0  0  0  0  0  0  0  0
   -3.5680   21.7380  -30.3600 O   0  0  0  0  0  0  0  0  0  0  0  0
   -3.6080   22.2360  -29.0270 C   0  0  0  0  0  0  0  0  0  0  0  0
   -2.5220   23.2900  -28.8360 C   0  0  0  0  0  0  0  0  0  0  0  0
   -1.8200   23.4960  -30.0330 O   0  0  0  0  0  0  0  0  0  0  0  0
   -6.6140   22.0530  -31.7090 C   0  0  0  0  0  0  0  0  0  0  0  0
   -6.6370   20.7410  -32.1940 C   0  0  0  0  0  0  0  0  0  0  0  0
   -7.7931   18.3254  -31.0170 H   0  0  0  0  0  0  0  0  0  0  0  0
   -8.3085   16.9878  -32.0995 H   0  0  0  0  0  0  0  0  0  0  0  0
   -6.5974   17.5346  -32.0995 H   0  0  0  0  0  0  0  0  0  0  0  0
   -7.2710   18.7160  -33.8390 H   0  0  0  0  0  0  0  0  0  0  0  0
   -8.9120   18.6360  -33.4290 H   0  0  0  0  0  0  0  0  0  0  0  0
  -10.0402   20.5026  -32.6658 H   0  0  0  0  0  0  0  0  0  0  0  0
   -9.9276   22.8685  -31.8185 H   0  0  0  0  0  0  0  0  0  0  0  0
   -8.1005   24.8864  -30.9495 H   0  0  0  0  0  0  0  0  0  0  0  0
   -3.3370   24.5080  -31.1980 H   0  0  0  0  0  0  0  0  0  0  0  0
   -4.5926   22.6874  -28.8353 H   0  0  0  0  0  0  0  0  0  0  0  0
   -3.4369   21.4070  -28.3245 H   0  0  0  0  0  0  0  0  0  0  0  0
   -2.9872   24.2360  -28.5220 H   0  0  0  0  0  0  0  0  0  0  0  0
   -1.8179   22.9394  -28.0670 H   0  0  0  0  0  0  0  0  0  0  0  0
   -2.5000   23.5760  -30.7500 H   0  0  0  0  0  0  0  0  0  0  0  0
   -5.7057   20.1677  -32.3122 H   0  0  0  0  0  0  0  0  0  0  0  0
  1  2  1  0
  2  3  1  0
  3  4  2  0
  4  5  1  0
  5  6  2  0
  6  7  1  0
  7  8  2  0
  8  9  1  0
  9 10  1  0
  9 11  2  0
  8 12  1  0
 12 13  1  0
 13 14  2  0
 13 15  1  0
 15 16  1  0
 16 17  1  0
 17 18  1  0
 12 19  1  0
 19 20  2  0
 20  3  1  0
 19  6  1  0
  1 21  1  0
  1 22  1  0
  1 23  1  0
  2 24  1  0
  2 25  1  0
  4 26  1  0
  5 27  1  0
  7 28  1  0
 10 29  1  0
 16 30  1  0
 16 31  1  0
 17 32  1  0
 17 33  1  0
 18 34  1  0
 20 35  1  0
M  CHG  2   2   1  10  -1
M  END
>  <UniqueID>  (57) 
56

>  <SMILES>  (57) 
C[NH2+]c1ccc2cc(C([NH-])=O)n(C(=O)OCCO)c2c1

>  <Energy>  (57) 
69.22116281181638

>  <Genealogy>  (57) 
C[NH2+]c1ccc2cc(C([NH-])=O)n(C(=O)OCCO)c2c1 (protonated)
C[NH2+]c1ccc2cc(C([NH-])=O)n(C(=O)OCCO)c2c1 (3D coordinates assigned)
C[NH2+]c1ccc2cc(C([NH-])=O)n(C(=O)OCCO)c2c1 (optimized conformer: 69.22116281181638 kcal/mol)

>  <smiles>  (57) 
CNc1ccc2cc(C(N)=O)n(C(=O)OCCO)c2c1

>  <score_type>  (57) 
oracle

>  <origin>  (57) 
adg

>  <m_score__min__energy>  (57) 
-9.0800000000000001

>  <m_primary>  (57) 
energy

$$$$
59:0
     RDKit          3D

 40 41  0  0  0  0  0  0  0  0999 V2000
   -0.8510   26.8950  -27.7900 C   0  0  0  0  0  0  0  0  0  0  0  0
   -1.2340   26.1320  -28.9690 N   0  0  0  0  0  0  0  0  0  0  0  0
   -1.0620   24.7100  -29.0640 C   0  0  0  0  0  0  0  0  0  0  0  0
    0.0060   24.1630  -28.6620 O   0  0  0  0  0  0  0  0  0  0  0  0
   -2.1840   23.8670  -29.5870 C   0  0  0  0  0  0  0  0  0  0  0  0
   -3.2170   24.7080  -30.1960 N   0  0  0  0  0  0  0  0  0  0  0  0
   -4.5710   24.2700  -30.4090 C   0  0  0  0  0  0  0  0  0  0  0  0
   -5.6780   25.0740  -30.0320 C   0  0  0  0  0  0  0  0  0  0  0  0
   -6.9900   24.6430  -30.2690 C   0  0  0  0  0  0  0  0  0  0  0  0
   -7.1730   23.4110  -30.8860 C   0  0  0  0  0  0  0  0  0  0  0  0
   -8.3380   22.7710  -31.2240 C   0  0  0  0  0  0  0  0  0  0  0  0
   -7.9410   21.5790  -31.8120 C   0  0  0  0  0  0  0  0  0  0  0  0
   -8.9020   20.6160  -32.3790 C   0  0  0  0  0  0  0  0  0  0  0  0
   -8.4520   19.4660  -33.0950 N   0  0  0  0  0  0  0  0  0  0  0  0
  -10.1360   20.8550  -32.3020 O   0  0  0  0  0  0  0  0  0  0  0  0
   -6.5810   21.4610  -31.8230 N   0  0  0  0  0  0  0  0  0  0  0  0
   -5.8150   20.3070  -32.2340 C   0  0  0  0  0  0  0  0  0  0  0  0
   -5.3820   19.5010  -31.3670 O   0  0  0  0  0  0  0  0  0  0  0  0
   -5.5270   20.0920  -33.5860 O   0  0  0  0  0  0  0  0  0  0  0  0
   -5.3480   18.8340  -34.1810 C   0  0  0  0  0  0  0  0  0  0  0  0
   -4.2250   18.4830  -34.6490 O   0  0  0  0  0  0  0  0  0  0  0  0
   -6.4440   17.9690  -34.2550 O   0  0  0  0  0  0  0  0  0  0  0  0
   -6.5110   16.7510  -33.5230 C   0  0  0  0  0  0  0  0  0  0  0  0
   -6.1210   22.6080  -31.2560 C   0  0  0  0  0  0  0  0  0  0  0  0
   -4.7990   23.0140  -31.0180 C   0  0  0  0  0  0  0  0  0  0  0  0
   -1.1314   26.3365  -26.8848 H   0  0  0  0  0  0  0  0  0  0  0  0
    0.2366   27.0596  -27.7971 H   0  0  0  0  0  0  0  0  0  0  0  0
   -1.3688   27.8655  -27.7971 H   0  0  0  0  0  0  0  0  0  0  0  0
   -1.7917   23.1709  -30.3431 H   0  0  0  0  0  0  0  0  0  0  0  0
   -2.6283   23.3075  -28.7506 H   0  0  0  0  0  0  0  0  0  0  0  0
   -2.9620   25.6750  -30.4980 H   0  0  0  0  0  0  0  0  0  0  0  0
   -5.5041   26.0465  -29.5483 H   0  0  0  0  0  0  0  0  0  0  0  0
   -7.8506   25.2619  -29.9752 H   0  0  0  0  0  0  0  0  0  0  0  0
   -9.3665   23.1266  -31.0633 H   0  0  0  0  0  0  0  0  0  0  0  0
   -9.1420   18.8010  -33.5090 H   0  0  0  0  0  0  0  0  0  0  0  0
   -7.4380   19.3240  -33.2940 H   0  0  0  0  0  0  0  0  0  0  0  0
   -6.4990   16.9699  -32.4451 H   0  0  0  0  0  0  0  0  0  0  0  0
   -7.4397   16.2200  -33.7790 H   0  0  0  0  0  0  0  0  0  0  0  0
   -5.6461   16.1213  -33.7790 H   0  0  0  0  0  0  0  0  0  0  0  0
   -3.9552   22.3671  -31.3000 H   0  0  0  0  0  0  0  0  0  0  0  0
  1  2  1  0
  2  3  1  0
  3  4  2  0
  3  5  1  0
  5  6  1  0
  6  7  1  0
  7  8  2  0
  8  9  1  0
  9 10  2  0
 10 11  1  0
 11 12  2  0
 12 13  1  0
 13 14  1  0
 13 15  2  0
 12 16  1  0
 16 17  1  0
 17 18  2  0
 17 19  1  0
 19 20  1  0
 20 21  2  0
 20 22  1  0
 22 23  1  0
 16 24  1  0
 24 25  2  0
 25  7  1  0
 24 10  1  0
  1 26  1  0
  1 27  1  0
  1 28  1  0
  5 29  1  0
  5 30  1  0
  6 31  1  0
  8 32  1  0
  9 33  1  0
 11 34  1  0
 14 35  1  0
 14 36  1  0
 23 37  1  0
 23 38  1  0
 23 39  1  0
 25 40  1  0
M  CHG  1   2  -1
M  END
>  <UniqueID>  (58) 
57

>  <SMILES>  (58) 
C[N-]C(=O)CNc1ccc2cc(C(N)=O)n(C(=O)OC(=O)OC)c2c1

>  <Energy>  (58) 
76.60610607979424

>  <Genealogy>  (58) 
C[N-]C(=O)CNc1ccc2cc(C(N)=O)n(C(=O)OC(=O)OC)c2c1 (protonated)
C[N-]C(=O)CNc1ccc2cc(C(N)=O)n(C(=O)OC(=O)OC)c2c1 (3D coordinates assigned)
C[N-]C(=O)CNc1ccc2cc(C(N)=O)n(C(=O)OC(=O)OC)c2c1 (optimized conformer: 76.60610607979424 kcal/mol)

>  <smiles>  (58) 
CNC(=O)CNc1ccc2cc(C(N)=O)n(C(=O)OC(=O)OC)c2c1

>  <score_type>  (58) 
oracle

>  <origin>  (58) 
adg

>  <m_score__min__energy>  (58) 
-9.2899999999999991

>  <m_primary>  (58) 
energy

$$$$
60:0
     RDKit          3D

 48 52  0  0  0  0  0  0  0  0999 V2000
   -3.9160   25.6610  -30.8620 N   0  0  0  0  0  0  0  0  0  0  0  0
   -4.0060   24.3520  -30.3040 C   0  0  0  0  0  0  0  0  0  0  0  0
   -3.0980   23.9480  -29.5290 O   0  0  0  0  0  0  0  0  0  0  0  0
   -5.1360   23.4730  -30.6690 C   0  0  0  0  0  0  0  0  0  0  0  0
   -6.4550   23.9110  -30.7630 C   0  0  0  0  0  0  0  0  0  0  0  0
   -7.1700   22.8230  -31.2100 C   0  0  0  0  0  0  0  0  0  0  0  0
   -8.5320   22.6880  -31.4600 C   0  0  0  0  0  0  0  0  0  0  0  0
   -9.0030   21.4340  -31.8840 C   0  0  0  0  0  0  0  0  0  0  0  0
   -8.1110   20.3460  -32.0610 C   0  0  0  0  0  0  0  0  0  0  0  0
   -8.6370   18.9900  -32.4590 C   0  0  0  0  0  0  0  0  0  0  0  0
   -7.7100   18.3130  -33.2330 F   0  0  0  0  0  0  0  0  0  0  0  0
   -9.8050   19.1150  -33.1920 F   0  0  0  0  0  0  0  0  0  0  0  0
   -8.8980   18.2520  -31.3190 F   0  0  0  0  0  0  0  0  0  0  0  0
   -6.7360   20.5180  -31.7720 C   0  0  0  0  0  0  0  0  0  0  0  0
   -6.2940   21.7820  -31.3670 C   0  0  0  0  0  0  0  0  0  0  0  0
   -5.0410   22.1620  -31.0340 N   0  0  0  0  0  0  0  0  0  0  0  0
   -3.8740   21.3260  -31.0140 C   0  0  0  0  0  0  0  0  0  0  0  0
   -3.9720   20.1300  -30.6260 O   0  0  0  0  0  0  0  0  0  0  0  0
   -2.5930   21.8750  -31.3580 N   0  0  0  0  0  0  0  0  0  0  0  0
   -1.4190   21.0930  -31.6270 C   0  0  0  0  0  0  0  0  0  0  0  0
   -0.7460   21.1700  -32.8560 C   0  0  0  0  0  0  0  0  0  0  0  0
    0.4050   20.4040  -33.0350 C   0  0  0  0  0  0  0  0  0  0  0  0
    0.8600   19.6160  -32.0280 N   0  0  0  0  0  0  0  0  0  0  0  0
    0.2110   19.5640  -30.8360 C   0  0  0  0  0  0  0  0  0  0  0  0
    0.7100   18.7390  -29.7880 N   0  0  0  0  0  0  0  0  0  0  0  0
    0.6710   18.7210  -28.3060 C   0  0  0  0  0  0  0  0  0  0  0  0
    1.4720   17.4780  -28.1860 C   0  0  0  0  0  0  0  0  0  0  0  0
    1.0010   16.2900  -27.4080 C   0  0  0  0  0  0  0  0  0  0  0  0
    2.2010   16.2730  -26.6540 O   0  0  0  0  0  0  0  0  0  0  0  0
    2.7100   17.3970  -27.3500 C   0  0  0  0  0  0  0  0  0  0  0  0
    1.5100   17.4960  -29.6690 C   0  0  0  0  0  0  0  0  0  0  0  0
   -0.9130   20.3030  -30.6420 N   0  0  0  0  0  0  0  0  0  0  0  0
   -4.2330   26.4970  -30.3220 H   0  0  0  0  0  0  0  0  0  0  0  0
   -6.8429   24.9135  -30.5296 H   0  0  0  0  0  0  0  0  0  0  0  0
   -9.2191   23.5371  -31.3297 H   0  0  0  0  0  0  0  0  0  0  0  0
  -10.0762   21.2946  -32.0809 H   0  0  0  0  0  0  0  0  0  0  0  0
   -6.0319   19.6779  -31.8637 H   0  0  0  0  0  0  0  0  0  0  0  0
   -2.4900   22.9150  -31.3290 H   0  0  0  0  0  0  0  0  0  0  0  0
   -1.1186   21.8207  -33.6608 H   0  0  0  0  0  0  0  0  0  0  0  0
    0.9447   20.4383  -33.9929 H   0  0  0  0  0  0  0  0  0  0  0  0
    1.1599   19.5950  -27.8509 H   0  0  0  0  0  0  0  0  0  0  0  0
   -0.3126   18.7513  -27.8146 H   0  0  0  0  0  0  0  0  0  0  0  0
    0.1004   16.4813  -26.8061 H   0  0  0  0  0  0  0  0  0  0  0  0
    0.6758   15.3829  -27.9386 H   0  0  0  0  0  0  0  0  0  0  0  0
    2.8740   18.2780  -26.7121 H   0  0  0  0  0  0  0  0  0  0  0  0
    3.6949   17.3385  -27.8364 H   0  0  0  0  0  0  0  0  0  0  0  0
    2.5279   17.5976  -30.0734 H   0  0  0  0  0  0  0  0  0  0  0  0
    1.1594   16.6023  -30.2059 H   0  0  0  0  0  0  0  0  0  0  0  0
  1  2  1  0
  2  3  2  0
  2  4  1  0
  4  5  2  0
  5  6  1  0
  6  7  2  0
  7  8  1  0
  8  9  2  0
  9 10  1  0
 10 11  1  0
 10 12  1  0
 10 13  1  0
  9 14  1  0
 14 15  2  0
 15 16  1  0
 16 17  1  0
 17 18  2  0
 17 19  1  0
 19 20  1  0
 20 21  2  0
 21 22  1  0
 22 23  2  0
 23 24  1  0
 24 25  1  0
 25 26  1  0
 26 27  1  0
 27 28  1  0
 28 29  1  0
 29 30  1  0
 27 31  1  0
 24 32  2  0
 16  4  1  0
 32 20  1  0
 15  6  1  0
 31 25  1  0
 30 27  1  0
  1 33  1  0
  5 34  1  0
  7 35  1  0
  8 36  1  0
 14 37  1  0
 19 38  1  0
 21 39  1  0
 22 40  1  0
 26 41  1  0
 26 42  1  0
 28 43  1  0
 28 44  1  0
 30 45  1  0
 30 46  1  0
 31 47  1  0
 31 48  1  0
M  CHG  1   1  -1
M  END
>  <UniqueID>  (59) 
58

>  <SMILES>  (59) 
[NH-]C(=O)c1cc2ccc(C(F)(F)F)cc2n1C(=O)Nc1ccnc(N2CC3(COC3)C2)n1

>  <Energy>  (59) 
220.068145692171

>  <Genealogy>  (59) 
[NH-]C(=O)c1cc2ccc(C(F)(F)F)cc2n1C(=O)Nc1ccnc(N2CC3(COC3)C2)n1 (protonated)
[NH-]C(=O)c1cc2ccc(C(F)(F)F)cc2n1C(=O)Nc1ccnc(N2CC3(COC3)C2)n1 (3D coordinates assigned)
[NH-]C(=O)c1cc2ccc(C(F)(F)F)cc2n1C(=O)Nc1ccnc(N2CC3(COC3)C2)n1 (nonaromatic ring conformer: 220.068145692171 kcal/mol)

>  <smiles>  (59) 
NC(=O)c1cc2ccc(C(F)(F)F)cc2n1C(=O)Nc1ccnc(N2CC3(COC3)C2)n1

>  <score_type>  (59) 
oracle

>  <origin>  (59) 
adg

>  <m_score__min__energy>  (59) 
-11.07

>  <m_primary>  (59) 
energy

$$$$
61:0
     RDKit          3D

 39 40  0  0  0  0  0  0  0  0999 V2000
   -6.5600   18.0600  -32.2950 C   0  0  0  0  0  0  0  0  0  0  0  0
   -6.8350   19.5180  -32.0880 C   0  0  0  0  0  0  0  0  0  0  0  0
   -8.1510   20.0210  -32.2440 C   0  0  0  0  0  0  0  0  0  0  0  0
   -8.4310   21.3770  -32.0040 C   0  0  0  0  0  0  0  0  0  0  0  0
   -7.3810   22.2010  -31.6090 C   0  0  0  0  0  0  0  0  0  0  0  0
   -7.3780   23.5380  -31.2770 C   0  0  0  0  0  0  0  0  0  0  0  0
   -6.0590   23.8290  -30.9270 C   0  0  0  0  0  0  0  0  0  0  0  0
   -5.5720   25.1740  -30.5400 C   0  0  0  0  0  0  0  0  0  0  0  0
   -4.2090   25.5490  -30.7460 N   0  0  0  0  0  0  0  0  0  0  0  0
   -6.3590   26.0010  -30.0080 O   0  0  0  0  0  0  0  0  0  0  0  0
   -5.2800   22.7180  -31.0500 N   0  0  0  0  0  0  0  0  0  0  0  0
   -3.8860   22.5900  -30.7250 C   0  0  0  0  0  0  0  0  0  0  0  0
   -3.0180   22.8110  -31.6100 O   0  0  0  0  0  0  0  0  0  0  0  0
   -3.4590   22.1910  -29.3770 C   0  0  0  0  0  0  0  0  0  0  0  0
   -2.9730   21.0430  -29.1830 O   0  0  0  0  0  0  0  0  0  0  0  0
   -3.5820   23.0970  -28.3200 O   0  0  0  0  0  0  0  0  0  0  0  0
   -2.4700   23.5230  -27.5380 C   0  0  0  0  0  0  0  0  0  0  0  0
   -1.5630   24.4460  -28.3610 C   0  0  2  0  0  0  0  0  0  0  0  0
   -2.3000   24.9490  -29.4440 O   0  0  0  0  0  0  0  0  0  0  0  0
   -0.3220   23.7060  -28.8850 C   0  0  0  0  0  0  0  0  0  0  0  0
   -0.6310   23.0040  -30.0580 O   0  0  0  0  0  0  0  0  0  0  0  0
   -6.1040   21.7290  -31.4580 C   0  0  0  0  0  0  0  0  0  0  0  0
   -5.7990   20.3800  -31.6690 C   0  0  0  0  0  0  0  0  0  0  0  0
   -6.4661   17.5623  -31.3185 H   0  0  0  0  0  0  0  0  0  0  0  0
   -7.3886   17.6071  -32.8592 H   0  0  0  0  0  0  0  0  0  0  0  0
   -5.6234   17.9400  -32.8592 H   0  0  0  0  0  0  0  0  0  0  0  0
   -8.9601   19.3440  -32.5556 H   0  0  0  0  0  0  0  0  0  0  0  0
   -9.4492   21.7753  -32.1247 H   0  0  0  0  0  0  0  0  0  0  0  0
   -8.2336   24.2293  -31.2859 H   0  0  0  0  0  0  0  0  0  0  0  0
   -3.5390   24.9230  -31.2440 H   0  0  0  0  0  0  0  0  0  0  0  0
   -3.8720   26.4870  -30.4340 H   0  0  0  0  0  0  0  0  0  0  0  0
   -2.8349   24.0668  -26.6542 H   0  0  0  0  0  0  0  0  0  0  0  0
   -1.8931   22.6401  -27.2256 H   0  0  0  0  0  0  0  0  0  0  0  0
   -1.2146   25.2628  -27.7118 H   0  0  0  0  0  0  0  0  0  0  0  0
   -2.5170   24.1760  -30.0290 H   0  0  0  0  0  0  0  0  0  0  0  0
    0.4724   24.4364  -29.0983 H   0  0  0  0  0  0  0  0  0  0  0  0
    0.0169   22.9916  -28.1203 H   0  0  0  0  0  0  0  0  0  0  0  0
   -1.6170   22.9020  -30.0660 H   0  0  0  0  0  0  0  0  0  0  0  0
   -4.7783   20.0010  -31.5124 H   0  0  0  0  0  0  0  0  0  0  0  0
  1  2  1  0
  2  3  2  0
  3  4  1  0
  4  5  2  0
  5  6  1  0
  6  7  2  0
  7  8  1  0
  8  9  1  0
  8 10  2  0
  7 11  1  0
 11 12  1  0
 12 13  2  0
 12 14  1  0
 14 15  2  0
 14 16  1  0
 16 17  1  0
 17 18  1  0
 18 19  1  0
 18 20  1  0
 20 21  1  0
 11 22  1  0
 22 23  2  0
 23  2  1  0
 22  5  1  0
  1 24  1  0
  1 25  1  0
  1 26  1  0
  3 27  1  0
  4 28  1  0
  6 29  1  0
  9 30  1  0
  9 31  1  0
 17 32  1  0
 17 33  1  0
 18 34  1  1
 19 35  1  0
 20 36  1  0
 20 37  1  0
 21 38  1  0
 23 39  1  0
M  END
>  <UniqueID>  (60) 
59

>  <SMILES>  (60) 
Cc1ccc2cc(C(N)=O)n(C(=O)C(=O)OC[C@H](O)CO)c2c1

>  <Energy>  (60) 
71.39665397529761

>  <Genealogy>  (60) 
Cc1ccc2cc(C(N)=O)n(C(=O)C(=O)OC[C@H](O)CO)c2c1 (chirality)
Cc1ccc2cc(C(N)=O)n(C(=O)C(=O)OC[C@H](O)CO)c2c1 (3D coordinates assigned)
Cc1ccc2cc(C(N)=O)n(C(=O)C(=O)OC[C@H](O)CO)c2c1 (optimized conformer: 71.39665397529761 kcal/mol)

>  <smiles>  (60) 
Cc1ccc2cc(C(N)=O)n(C(=O)C(=O)OCC(O)CO)c2c1

>  <score_type>  (60) 
oracle

>  <origin>  (60) 
adg

>  <m_score__min__energy>  (60) 
-8.0800000000000001

>  <m_primary>  (60) 
energy

$$$$
62:0
     RDKit          3D

 37 38  0  0  0  0  0  0  0  0999 V2000
   -3.8620   24.1600  -27.4180 C   0  0  0  0  0  0  0  0  0  0  0  0
   -4.0300   23.0320  -28.1130 C   0  0  0  0  0  0  0  0  0  0  0  0
   -2.9270   22.4600  -28.9500 C   0  0  0  0  0  0  0  0  0  0  0  0
   -2.8620   23.1520  -30.1930 O   0  0  0  0  0  0  0  0  0  0  0  0
   -3.5690   22.7390  -31.3260 C   0  0  0  0  0  0  0  0  0  0  0  0
   -2.9630   22.2030  -32.2930 O   0  0  0  0  0  0  0  0  0  0  0  0
   -4.9950   22.9100  -31.3780 N   0  0  0  0  0  0  0  0  0  0  0  0
   -5.7220   23.9720  -30.9280 C   0  0  0  0  0  0  0  0  0  0  0  0
   -5.1720   25.2500  -30.4290 C   0  0  0  0  0  0  0  0  0  0  0  0
   -3.8720   25.6700  -30.8400 N   0  0  0  0  0  0  0  0  0  0  0  0
   -5.8200   25.9590  -29.6160 O   0  0  0  0  0  0  0  0  0  0  0  0
   -7.0850   23.7290  -31.0770 C   0  0  0  0  0  0  0  0  0  0  0  0
   -7.1710   22.4760  -31.6420 C   0  0  0  0  0  0  0  0  0  0  0  0
   -8.2900   21.7340  -31.9970 C   0  0  0  0  0  0  0  0  0  0  0  0
   -8.0880   20.4530  -32.5360 C   0  0  0  0  0  0  0  0  0  0  0  0
   -6.7770   19.9250  -32.7080 C   0  0  0  0  0  0  0  0  0  0  0  0
   -6.5800   18.5940  -33.2560 N   0  0  0  0  0  0  0  0  0  0  0  0
   -5.7350   18.3910  -34.4390 C   0  0  0  0  0  0  0  0  0  0  0  0
   -7.2230   17.4300  -32.6350 C   0  0  0  0  0  0  0  0  0  0  0  0
   -5.6660   20.7230  -32.3290 C   0  0  0  0  0  0  0  0  0  0  0  0
   -5.8990   22.0030  -31.8120 C   0  0  0  0  0  0  0  0  0  0  0  0
   -4.6874   24.5599  -26.8107 H   0  0  0  0  0  0  0  0  0  0  0  0
   -2.8983   24.6891  -27.4529 H   0  0  0  0  0  0  0  0  0  0  0  0
   -4.9984   22.5121  -28.0700 H   0  0  0  0  0  0  0  0  0  0  0  0
   -1.9699   22.5703  -28.4192 H   0  0  0  0  0  0  0  0  0  0  0  0
   -3.1247   21.3939  -29.1355 H   0  0  0  0  0  0  0  0  0  0  0  0
   -3.0160   25.2990  -30.3710 H   0  0  0  0  0  0  0  0  0  0  0  0
   -7.9157   24.3956  -30.8021 H   0  0  0  0  0  0  0  0  0  0  0  0
   -9.3041   22.1375  -31.8601 H   0  0  0  0  0  0  0  0  0  0  0  0
   -8.9576   19.8471  -32.8304 H   0  0  0  0  0  0  0  0  0  0  0  0
   -4.7112   18.1451  -34.1205 H   0  0  0  0  0  0  0  0  0  0  0  0
   -6.1401   17.5646  -35.0415 H   0  0  0  0  0  0  0  0  0  0  0  0
   -5.7205   19.3112  -35.0415 H   0  0  0  0  0  0  0  0  0  0  0  0
   -7.1715   17.5233  -31.5402 H   0  0  0  0  0  0  0  0  0  0  0  0
   -8.2759   17.3814  -32.9497 H   0  0  0  0  0  0  0  0  0  0  0  0
   -6.7036   16.5129  -32.9497 H   0  0  0  0  0  0  0  0  0  0  0  0
   -4.6399   20.3424  -32.4396 H   0  0  0  0  0  0  0  0  0  0  0  0
  1  2  2  0
  2  3  1  0
  3  4  1  0
  4  5  1  0
  5  6  2  0
  5  7  1  0
  7  8  1  0
  8  9  1  0
  9 10  1  0
  9 11  2  0
  8 12  2  0
 12 13  1  0
 13 14  2  0
 14 15  1  0
 15 16  2  0
 16 17  1  0
 17 18  1  0
 17 19  1  0
 16 20  1  0
 20 21  2  0
 21  7  1  0
 21 13  1  0
  1 22  1  0
  1 23  1  0
  2 24  1  0
  3 25  1  0
  3 26  1  0
 10 27  1  0
 12 28  1  0
 14 29  1  0
 15 30  1  0
 18 31  1  0
 18 32  1  0
 18 33  1  0
 19 34  1  0
 19 35  1  0
 19 36  1  0
 20 37  1  0
M  CHG  1  10  -1
M  END
>  <UniqueID>  (61) 
60

>  <SMILES>  (61) 
C=CCOC(=O)n1c(C([NH-])=O)cc2ccc(N(C)C)cc21

>  <Energy>  (61) 
72.04049127008646

>  <Genealogy>  (61) 
C=CCOC(=O)n1c(C([NH-])=O)cc2ccc(N(C)C)cc21 (protonated)
C=CCOC(=O)n1c(C([NH-])=O)cc2ccc(N(C)C)cc21 (3D coordinates assigned)
C=CCOC(=O)n1c(C([NH-])=O)cc2ccc(N(C)C)cc21 (optimized conformer: 72.04049127008646 kcal/mol)

>  <smiles>  (61) 
C=CCOC(=O)n1c(C(N)=O)cc2ccc(N(C)C)cc21

>  <score_type>  (61) 
oracle

>  <origin>  (61) 
adg

>  <m_score__min__energy>  (61) 
-9.5

>  <m_primary>  (61) 
energy

$$$$
63:0
     RDKit          3D

 41 42  0  0  0  0  0  0  0  0999 V2000
   -2.5840   23.9480  -27.1880 C   0  0  0  0  0  0  0  0  0  0  0  0
   -1.9160   24.6940  -28.1980 O   0  0  0  0  0  0  0  0  0  0  0  0
   -0.7630   24.2310  -28.8370 C   0  0  0  0  0  0  0  0  0  0  0  0
    0.3630   24.3280  -28.2750 O   0  0  0  0  0  0  0  0  0  0  0  0
   -0.8740   23.6660  -30.1110 O   0  0  0  0  0  0  0  0  0  0  0  0
   -1.2100   22.3000  -30.3200 C   0  0  0  0  0  0  0  0  0  0  0  0
   -2.6250   22.1610  -30.3860 O   0  0  0  0  0  0  0  0  0  0  0  0
   -3.3400   22.2550  -31.5840 C   0  0  0  0  0  0  0  0  0  0  0  0
   -2.7390   22.1700  -32.6890 O   0  0  0  0  0  0  0  0  0  0  0  0
   -4.7640   22.4510  -31.5540 N   0  0  0  0  0  0  0  0  0  0  0  0
   -5.4370   23.5820  -31.1960 C   0  0  0  0  0  0  0  0  0  0  0  0
   -4.8360   24.7990  -30.6140 C   0  0  0  0  0  0  0  0  0  0  0  0
   -3.5010   24.7960  -30.1070 N   0  0  0  0  0  0  0  0  0  0  0  0
   -5.5330   25.8430  -30.5100 O   0  0  0  0  0  0  0  0  0  0  0  0
   -6.8050   23.4250  -31.3960 C   0  0  0  0  0  0  0  0  0  0  0  0
   -6.9550   22.1460  -31.8800 C   0  0  0  0  0  0  0  0  0  0  0  0
   -8.1060   21.4660  -32.2570 C   0  0  0  0  0  0  0  0  0  0  0  0
   -7.9700   20.1600  -32.7520 C   0  0  0  0  0  0  0  0  0  0  0  0
   -6.6890   19.5490  -32.8780 C   0  0  0  0  0  0  0  0  0  0  0  0
   -6.5590   18.2010  -33.4030 N   0  0  0  0  0  0  0  0  0  0  0  0
   -7.2120   17.0710  -32.7300 C   0  0  0  0  0  0  0  0  0  0  0  0
   -5.7680   17.9420  -34.6130 C   0  0  0  0  0  0  0  0  0  0  0  0
   -5.5420   20.2870  -32.4850 C   0  0  0  0  0  0  0  0  0  0  0  0
   -5.7110   21.5790  -31.9700 C   0  0  0  0  0  0  0  0  0  0  0  0
   -2.2649   24.3043  -26.1974 H   0  0  0  0  0  0  0  0  0  0  0  0
   -3.6710   24.0805  -27.2927 H   0  0  0  0  0  0  0  0  0  0  0  0
   -2.3328   22.8822  -27.2927 H   0  0  0  0  0  0  0  0  0  0  0  0
   -0.7637   21.9535  -31.2638 H   0  0  0  0  0  0  0  0  0  0  0  0
   -0.8222   21.6967  -29.4859 H   0  0  0  0  0  0  0  0  0  0  0  0
   -3.0800   25.6750  -29.7340 H   0  0  0  0  0  0  0  0  0  0  0  0
   -2.9590   23.9080  -30.0220 H   0  0  0  0  0  0  0  0  0  0  0  0
   -7.5968   24.1649  -31.2075 H   0  0  0  0  0  0  0  0  0  0  0  0
   -9.0959   21.9378  -32.1700 H   0  0  0  0  0  0  0  0  0  0  0  0
   -8.8681   19.5981  -33.0480 H   0  0  0  0  0  0  0  0  0  0  0  0
   -7.1372   17.2004  -31.6402 H   0  0  0  0  0  0  0  0  0  0  0  0
   -8.2716   17.0324  -33.0228 H   0  0  0  0  0  0  0  0  0  0  0  0
   -6.7163   16.1337  -33.0228 H   0  0  0  0  0  0  0  0  0  0  0  0
   -4.7585   17.6114  -34.3273 H   0  0  0  0  0  0  0  0  0  0  0  0
   -6.2560   17.1567  -35.2090 H   0  0  0  0  0  0  0  0  0  0  0  0
   -5.6970   18.8638  -35.2090 H   0  0  0  0  0  0  0  0  0  0  0  0
   -4.5366   19.8516  -32.5832 H   0  0  0  0  0  0  0  0  0  0  0  0
  1  2  1  0
  2  3  1  0
  3  4  2  0
  3  5  1  0
  5  6  1  0
  6  7  1  0
  7  8  1  0
  8  9  2  0
  8 10  1  0
 10 11  1  0
 11 12  1  0
 12 13  1  0
 12 14  2  0
 11 15  2  0
 15 16  1  0
 16 17  2  0
 17 18  1  0
 18 19  2  0
 19 20  1  0
 20 21  1  0
 20 22  1  0
 19 23  1  0
 23 24  2  0
 24 10  1  0
 24 16  1  0
  1 25  1  0
  1 26  1  0
  1 27  1  0
  6 28  1  0
  6 29  1  0
 13 30  1  0
 13 31  1  0
 15 32  1  0
 17 33  1  0
 18 34  1  0
 21 35  1  0
 21 36  1  0
 21 37  1  0
 22 38  1  0
 22 39  1  0
 22 40  1  0
 23 41  1  0
M  END
>  <UniqueID>  (62) 
61

>  <SMILES>  (62) 
COC(=O)OCOC(=O)n1c(C(N)=O)cc2ccc(N(C)C)cc21

>  <Energy>  (62) 
74.76046328251238

>  <Genealogy>  (62) 
COC(=O)OCOC(=O)n1c(C(N)=O)cc2ccc(N(C)C)cc21 (3D coordinates assigned)
COC(=O)OCOC(=O)n1c(C(N)=O)cc2ccc(N(C)C)cc21 (optimized conformer: 74.76046328251238 kcal/mol)

>  <smiles>  (62) 
COC(=O)OCOC(=O)n1c(C(N)=O)cc2ccc(N(C)C)cc21

>  <score_type>  (62) 
oracle

>  <origin>  (62) 
adg

>  <m_score__min__energy>  (62) 
-7.2000000000000002

>  <m_primary>  (62) 
energy

$$$$
64:0
     RDKit          3D

 30 31  0  0  0  0  0  0  0  0999 V2000
   -4.0120   25.6550  -30.8520 N   0  0  0  0  0  0  0  0  0  0  0  0
   -5.3130   25.2350  -30.4500 C   0  0  0  0  0  0  0  0  0  0  0  0
   -5.9450   25.9160  -29.5990 O   0  0  0  0  0  0  0  0  0  0  0  0
   -5.9020   23.9860  -30.9720 C   0  0  0  0  0  0  0  0  0  0  0  0
   -7.2610   23.8340  -31.2430 C   0  0  0  0  0  0  0  0  0  0  0  0
   -7.4130   22.5160  -31.6130 C   0  0  0  0  0  0  0  0  0  0  0  0
   -8.5550   21.8250  -32.0080 C   0  0  0  0  0  0  0  0  0  0  0  0
   -8.4140   20.4740  -32.3700 C   0  0  0  0  0  0  0  0  0  0  0  0
   -7.1450   19.8450  -32.3280 C   0  0  0  0  0  0  0  0  0  0  0  0
   -7.0000   18.4160  -32.7620 C   0  0  0  0  0  0  0  0  0  0  0  0
   -6.4610   17.4220  -31.3860 Cl  0  0  0  0  0  0  0  0  0  0  0  0
   -6.0060   20.5830  -31.9350 C   0  0  0  0  0  0  0  0  0  0  0  0
   -6.1790   21.9210  -31.5630 C   0  0  0  0  0  0  0  0  0  0  0  0
   -5.2400   22.8110  -31.1750 N   0  0  0  0  0  0  0  0  0  0  0  0
   -3.8250   22.5750  -31.1020 C   0  0  0  0  0  0  0  0  0  0  0  0
   -3.2370   21.9860  -32.0500 O   0  0  0  0  0  0  0  0  0  0  0  0
   -3.0790   23.0440  -29.9740 N   0  0  0  0  0  0  0  0  0  0  0  0
   -1.6610   23.3780  -30.0260 C   0  0  0  0  0  0  0  0  0  0  0  0
   -1.3460   24.4540  -29.0370 C   0  0  0  0  0  0  0  0  0  0  0  0
   -1.5880   25.6590  -29.3120 O   0  0  0  0  0  0  0  0  0  0  0  0
   -0.7480   24.1310  -27.8270 O   0  0  0  0  0  0  0  0  0  0  0  0
   -3.1560   25.1920  -30.4730 H   0  0  0  0  0  0  0  0  0  0  0  0
   -8.0449   24.6028  -31.1757 H   0  0  0  0  0  0  0  0  0  0  0  0
   -9.5367   22.3204  -32.0360 H   0  0  0  0  0  0  0  0  0  0  0  0
   -9.2966   19.9001  -32.6887 H   0  0  0  0  0  0  0  0  0  0  0  0
   -7.9697   18.0438  -33.1242 H   0  0  0  0  0  0  0  0  0  0  0  0
   -6.2555   18.3544  -33.5694 H   0  0  0  0  0  0  0  0  0  0  0  0
   -5.0092   20.1180  -31.9218 H   0  0  0  0  0  0  0  0  0  0  0  0
   -1.0681   22.4823  -29.7892 H   0  0  0  0  0  0  0  0  0  0  0  0
   -1.4141   23.7364  -31.0362 H   0  0  0  0  0  0  0  0  0  0  0  0
  1  2  1  0
  2  3  2  0
  2  4  1  0
  4  5  2  0
  5  6  1  0
  6  7  2  0
  7  8  1  0
  8  9  2  0
  9 10  1  0
 10 11  1  0
  9 12  1  0
 12 13  2  0
 13 14  1  0
 14 15  1  0
 15 16  2  0
 15 17  1  0
 17 18  1  0
 18 19  1  0
 19 20  2  0
 19 21  1  0
 14  4  1  0
 13  6  1  0
  1 22  1  0
  5 23  1  0
  7 24  1  0
  8 25  1  0
 10 26  1  0
 10 27  1  0
 12 28  1  0
 18 29  1  0
 18 30  1  0
M  CHG  3   1  -1  17  -1  21  -1
M  END
>  <UniqueID>  (63) 
62

>  <SMILES>  (63) 
[NH-]C(=O)c1cc2ccc(CCl)cc2n1C(=O)[N-]CC(=O)[O-]

>  <Energy>  (63) 
65.96059695998822

>  <Genealogy>  (63) 
[NH-]C(=O)c1cc2ccc(CCl)cc2n1C(=O)[N-]CC(=O)[O-] (protonated)
[NH-]C(=O)c1cc2ccc(CCl)cc2n1C(=O)[N-]CC(=O)[O-] (3D coordinates assigned)
[NH-]C(=O)c1cc2ccc(CCl)cc2n1C(=O)[N-]CC(=O)[O-] (optimized conformer: 65.96059695998822 kcal/mol)

>  <smiles>  (63) 
NC(=O)c1cc2ccc(CCl)cc2n1C(=O)NCC(=O)O

>  <score_type>  (63) 
oracle

>  <origin>  (63) 
adg

>  <m_score__min__energy>  (63) 
-12.73

>  <m_primary>  (63) 
energy

$$$$
65:0
     RDKit          3D

 45 47  0  0  0  0  0  0  0  0999 V2000
   -4.1630   22.2240  -27.5190 C   0  0  0  0  0  0  0  0  0  0  0  0
   -3.4770   23.4600  -27.8990 N   0  0  0  0  0  0  0  0  0  0  0  0
   -3.3890   24.5880  -26.9670 C   0  0  0  0  0  0  0  0  0  0  0  0
   -2.8680   23.5540  -29.1980 C   0  0  0  0  0  0  0  0  0  0  0  0
   -2.2040   24.5830  -29.5080 O   0  0  0  0  0  0  0  0  0  0  0  0
   -3.0300   22.5070  -30.1160 O   0  0  0  0  0  0  0  0  0  0  0  0
   -3.7280   22.5980  -31.3260 C   0  0  0  0  0  0  0  0  0  0  0  0
   -3.1090   22.6060  -32.4260 O   0  0  0  0  0  0  0  0  0  0  0  0
   -5.1660   22.6610  -31.3190 N   0  0  0  0  0  0  0  0  0  0  0  0
   -5.9440   23.7270  -30.9750 C   0  0  0  0  0  0  0  0  0  0  0  0
   -5.4670   24.9880  -30.3740 C   0  0  0  0  0  0  0  0  0  0  0  0
   -4.1720   25.5090  -30.6770 N   0  0  0  0  0  0  0  0  0  0  0  0
   -6.1920   25.5870  -29.5350 O   0  0  0  0  0  0  0  0  0  0  0  0
   -7.2860   23.4540  -31.2130 C   0  0  0  0  0  0  0  0  0  0  0  0
   -7.3140   22.1690  -31.7030 C   0  0  0  0  0  0  0  0  0  0  0  0
   -8.3930   21.3960  -32.1140 C   0  0  0  0  0  0  0  0  0  0  0  0
   -8.1320   20.1080  -32.6070 C   0  0  0  0  0  0  0  0  0  0  0  0
   -6.8030   19.6110  -32.6910 C   0  0  0  0  0  0  0  0  0  0  0  0
   -6.5450   18.2820  -33.2050 N   0  0  0  0  0  0  0  0  0  0  0  0
   -7.2150   17.0820  -32.7260 C   0  0  0  0  0  0  0  0  0  0  0  0
   -6.5160   15.9130  -33.4070 C   0  0  0  0  0  0  0  0  0  0  0  0
   -5.7550   16.5130  -34.5820 C   0  0  0  0  0  0  0  0  0  0  0  0
   -5.5760   17.9860  -34.2490 C   0  0  0  0  0  0  0  0  0  0  0  0
   -5.7330   20.4380  -32.2670 C   0  0  0  0  0  0  0  0  0  0  0  0
   -6.0230   21.7110  -31.7590 C   0  0  0  0  0  0  0  0  0  0  0  0
   -4.2042   22.1498  -26.4223 H   0  0  0  0  0  0  0  0  0  0  0  0
   -5.1855   22.2325  -27.9246 H   0  0  0  0  0  0  0  0  0  0  0  0
   -3.6149   21.3608  -27.9246 H   0  0  0  0  0  0  0  0  0  0  0  0
   -3.4183   24.2128  -25.9334 H   0  0  0  0  0  0  0  0  0  0  0  0
   -2.4459   25.1290  -27.1341 H   0  0  0  0  0  0  0  0  0  0  0  0
   -4.2368   25.2687  -27.1341 H   0  0  0  0  0  0  0  0  0  0  0  0
   -3.4850   24.9540  -31.2340 H   0  0  0  0  0  0  0  0  0  0  0  0
   -3.8660   26.4210  -30.2710 H   0  0  0  0  0  0  0  0  0  0  0  0
   -8.1429   24.1230  -31.0453 H   0  0  0  0  0  0  0  0  0  0  0  0
   -9.4213   21.7820  -32.0548 H   0  0  0  0  0  0  0  0  0  0  0  0
   -8.9690   19.4733  -32.9334 H   0  0  0  0  0  0  0  0  0  0  0  0
   -7.1193   17.0009  -31.6332 H   0  0  0  0  0  0  0  0  0  0  0  0
   -8.2901   17.1001  -32.9580 H   0  0  0  0  0  0  0  0  0  0  0  0
   -5.8202   15.4236  -32.7096 H   0  0  0  0  0  0  0  0  0  0  0  0
   -7.2343   15.1483  -33.7375 H   0  0  0  0  0  0  0  0  0  0  0  0
   -4.7762   16.0238  -34.6947 H   0  0  0  0  0  0  0  0  0  0  0  0
   -6.2968   16.3744  -35.5292 H   0  0  0  0  0  0  0  0  0  0  0  0
   -4.5546   18.1746  -33.8869 H   0  0  0  0  0  0  0  0  0  0  0  0
   -5.7308   18.6207  -35.1340 H   0  0  0  0  0  0  0  0  0  0  0  0
   -4.6929   20.0865  -32.3356 H   0  0  0  0  0  0  0  0  0  0  0  0
  1  2  1  0
  2  3  1  0
  2  4  1  0
  4  5  2  0
  4  6  1  0
  6  7  1  0
  7  8  2  0
  7  9  1  0
  9 10  1  0
 10 11  1  0
 11 12  1  0
 11 13  2  0
 10 14  2  0
 14 15  1  0
 15 16  2  0
 16 17  1  0
 17 18  2  0
 18 19  1  0
 19 20  1  0
 20 21  1  0
 21 22  1  0
 22 23  1  0
 18 24  1  0
 24 25  2  0
 25  9  1  0
 25 15  1  0
 23 19  1  0
  1 26  1  0
  1 27  1  0
  1 28  1  0
  3 29  1  0
  3 30  1  0
  3 31  1  0
 12 32  1  0
 12 33  1  0
 14 34  1  0
 16 35  1  0
 17 36  1  0
 20 37  1  0
 20 38  1  0
 21 39  1  0
 21 40  1  0
 22 41  1  0
 22 42  1  0
 23 43  1  0
 23 44  1  0
 24 45  1  0
M  END
>  <UniqueID>  (64) 
63

>  <SMILES>  (64) 
CN(C)C(=O)OC(=O)n1c(C(N)=O)cc2ccc(N3CCCC3)cc21

>  <Energy>  (64) 
83.10273689624182

>  <Genealogy>  (64) 
CN(C)C(=O)OC(=O)n1c(C(N)=O)cc2ccc(N3CCCC3)cc21 (3D coordinates assigned)
CN(C)C(=O)OC(=O)n1c(C(N)=O)cc2ccc(N3CCCC3)cc21 (nonaromatic ring conformer: 83.10273689624182 kcal/mol)

>  <smiles>  (64) 
CN(C)C(=O)OC(=O)n1c(C(N)=O)cc2ccc(N3CCCC3)cc21

>  <score_type>  (64) 
oracle

>  <origin>  (64) 
adg

>  <m_score__min__energy>  (64) 
-9.2200000000000006

>  <m_primary>  (64) 
energy

$$$$
66:0
     RDKit          3D

 42 43  0  0  0  0  0  0  0  0999 V2000
   -4.1220   23.6940  -27.7310 C   0  0  0  0  0  0  0  0  0  0  0  0
   -3.0150   22.9680  -28.3620 N   0  0  0  0  0  0  0  0  0  0  0  0
   -3.3750   22.0800  -29.4290 C   0  0  0  0  0  0  0  0  0  0  0  0
   -3.2800   20.8330  -29.2550 O   0  0  0  0  0  0  0  0  0  0  0  0
   -3.7970   22.6060  -30.7380 C   0  0  0  0  0  0  0  0  0  0  0  0
   -2.9340   22.8530  -31.6210 O   0  0  0  0  0  0  0  0  0  0  0  0
   -5.1870   22.8190  -31.0240 N   0  0  0  0  0  0  0  0  0  0  0  0
   -5.8760   23.9930  -31.0050 C   0  0  0  0  0  0  0  0  0  0  0  0
   -5.3460   25.3060  -30.5870 C   0  0  0  0  0  0  0  0  0  0  0  0
   -3.9930   25.6690  -30.8440 N   0  0  0  0  0  0  0  0  0  0  0  0
   -6.0910   26.1140  -29.9700 O   0  0  0  0  0  0  0  0  0  0  0  0
   -7.2050   23.7790  -31.3680 C   0  0  0  0  0  0  0  0  0  0  0  0
   -7.3070   22.4250  -31.6080 C   0  0  0  0  0  0  0  0  0  0  0  0
   -8.4070   21.6600  -31.9880 C   0  0  0  0  0  0  0  0  0  0  0  0
   -8.2150   20.2820  -32.1720 C   0  0  0  0  0  0  0  0  0  0  0  0
   -6.9360   19.6940  -31.9920 C   0  0  0  0  0  0  0  0  0  0  0  0
   -6.7830   18.2020  -32.1860 C   0  0  0  0  0  0  0  0  0  0  0  0
   -6.1560   17.6410  -31.0810 F   0  0  0  0  0  0  0  0  0  0  0  0
   -8.0140   17.5840  -32.3480 F   0  0  0  0  0  0  0  0  0  0  0  0
   -6.0060   17.9640  -33.3120 F   0  0  0  0  0  0  0  0  0  0  0  0
   -5.8510   20.5030  -31.5930 C   0  0  0  0  0  0  0  0  0  0  0  0
   -6.0750   21.8700  -31.3970 C   0  0  0  0  0  0  0  0  0  0  0  0
   -1.6050   23.2110  -27.9630 C   0  0  0  0  0  0  0  0  0  0  0  0
   -0.7090   21.9710  -28.2050 C   0  0  0  0  0  0  0  0  0  0  0  0
   -1.5500   23.5360  -26.4540 C   0  0  0  0  0  0  0  0  0  0  0  0
   -1.0490   24.3600  -28.7840 C   0  0  0  0  0  0  0  0  0  0  0  0
    0.1940   24.4510  -28.9760 O   0  0  0  0  0  0  0  0  0  0  0  0
   -1.8910   25.3170  -29.3410 O   0  0  0  0  0  0  0  0  0  0  0  0
   -4.0256   23.6308  -26.6371 H   0  0  0  0  0  0  0  0  0  0  0  0
   -4.0928   24.7489  -28.0413 H   0  0  0  0  0  0  0  0  0  0  0  0
   -5.0779   23.2468  -28.0413 H   0  0  0  0  0  0  0  0  0  0  0  0
   -3.2470   24.9400  -30.9420 H   0  0  0  0  0  0  0  0  0  0  0  0
   -8.0036   24.5314  -31.4464 H   0  0  0  0  0  0  0  0  0  0  0  0
   -9.3943   22.1209  -32.1390 H   0  0  0  0  0  0  0  0  0  0  0  0
   -9.0675   19.6491  -32.4596 H   0  0  0  0  0  0  0  0  0  0  0  0
   -4.8520   20.0689  -31.4396 H   0  0  0  0  0  0  0  0  0  0  0  0
   -0.4020   21.5461  -27.2379 H   0  0  0  0  0  0  0  0  0  0  0  0
   -1.2723   21.2171  -28.7745 H   0  0  0  0  0  0  0  0  0  0  0  0
    0.1836   22.2691  -28.7745 H   0  0  0  0  0  0  0  0  0  0  0  0
   -1.7060   22.6142  -25.8745 H   0  0  0  0  0  0  0  0  0  0  0  0
   -0.5669   23.9628  -26.2064 H   0  0  0  0  0  0  0  0  0  0  0  0
   -2.3380   24.2625  -26.2064 H   0  0  0  0  0  0  0  0  0  0  0  0
  1  2  1  0
  2  3  1  0
  3  4  2  0
  3  5  1  0
  5  6  2  0
  5  7  1  0
  7  8  1  0
  8  9  1  0
  9 10  1  0
  9 11  2  0
  8 12  2  0
 12 13  1  0
 13 14  2  0
 14 15  1  0
 15 16  2  0
 16 17  1  0
 17 18  1  0
 17 19  1  0
 17 20  1  0
 16 21  1  0
 21 22  2  0
  2 23  1  0
 23 24  1  0
 23 25  1  0
 23 26  1  0
 26 27  2  0
 26 28  1  0
 22  7  1  0
 22 13  1  0
  1 29  1  0
  1 30  1  0
  1 31  1  0
 10 32  1  0
 12 33  1  0
 14 34  1  0
 15 35  1  0
 21 36  1  0
 24 37  1  0
 24 38  1  0
 24 39  1  0
 25 40  1  0
 25 41  1  0
 25 42  1  0
M  CHG  2  10  -1  28  -1
M  END
>  <UniqueID>  (65) 
64

>  <SMILES>  (65) 
CN(C(=O)C(=O)n1c(C([NH-])=O)cc2ccc(C(F)(F)F)cc21)C(C)(C)C(=O)[O-]

>  <Energy>  (65) 
88.93725249147447

>  <Genealogy>  (65) 
CN(C(=O)C(=O)n1c(C([NH-])=O)cc2ccc(C(F)(F)F)cc21)C(C)(C)C(=O)[O-] (protonated)
CN(C(=O)C(=O)n1c(C([NH-])=O)cc2ccc(C(F)(F)F)cc21)C(C)(C)C(=O)[O-] (3D coordinates assigned)
CN(C(=O)C(=O)n1c(C([NH-])=O)cc2ccc(C(F)(F)F)cc21)C(C)(C)C(=O)[O-] (optimized conformer: 88.93725249147447 kcal/mol)

>  <smiles>  (65) 
CN(C(=O)C(=O)n1c(C(N)=O)cc2ccc(C(F)(F)F)cc21)C(C)(C)C(=O)O

>  <score_type>  (65) 
oracle

>  <origin>  (65) 
adg

>  <m_score__min__energy>  (65) 
-12.869999999999999

>  <m_primary>  (65) 
energy

$$$$
67:0
     RDKit          3D

 39 40  0  0  0  0  0  0  0  0999 V2000
   -3.7630   18.2360  -33.5020 C   0  0  0  0  0  0  0  0  0  0  0  0
   -5.0370   17.5400  -33.7400 N   0  0  0  0  0  0  0  0  0  0  0  0
   -5.3390   16.6120  -32.6370 C   0  0  0  0  0  0  0  0  0  0  0  0
   -6.1120   18.5010  -33.8950 C   0  0  0  0  0  0  0  0  0  0  0  0
   -6.1130   19.2790  -34.8410 O   0  0  0  0  0  0  0  0  0  0  0  0
   -7.2220   18.5840  -32.8820 C   0  0  0  0  0  0  0  0  0  0  0  0
   -7.3020   19.9760  -32.3220 C   0  0  0  0  0  0  0  0  0  0  0  0
   -8.5630   20.5790  -32.0880 C   0  0  0  0  0  0  0  0  0  0  0  0
   -8.6480   21.8970  -31.6130 C   0  0  0  0  0  0  0  0  0  0  0  0
   -7.4610   22.5870  -31.3860 C   0  0  0  0  0  0  0  0  0  0  0  0
   -7.2560   23.8800  -30.9630 C   0  0  0  0  0  0  0  0  0  0  0  0
   -5.8720   24.0450  -30.9360 C   0  0  0  0  0  0  0  0  0  0  0  0
   -5.2100   25.2750  -30.4520 C   0  0  0  0  0  0  0  0  0  0  0  0
   -3.8810   25.5970  -30.8510 N   0  0  0  0  0  0  0  0  0  0  0  0
   -5.8080   26.0260  -29.6360 O   0  0  0  0  0  0  0  0  0  0  0  0
   -5.2460   22.9020  -31.3370 N   0  0  0  0  0  0  0  0  0  0  0  0
   -3.8400   22.6900  -31.5380 C   0  0  0  0  0  0  0  0  0  0  0  0
   -3.4360   22.0940  -32.5750 O   0  0  0  0  0  0  0  0  0  0  0  0
   -2.9280   23.1210  -30.5700 O   0  0  0  0  0  0  0  0  0  0  0  0
   -2.7550   22.4680  -29.3150 C   0  0  0  0  0  0  0  0  0  0  0  0
   -3.7320   23.2750  -28.0600 Cl  0  0  0  0  0  0  0  0  0  0  0  0
   -6.2330   22.0180  -31.6020 C   0  0  0  0  0  0  0  0  0  0  0  0
   -6.1190   20.7110  -32.0900 C   0  0  0  0  0  0  0  0  0  0  0  0
   -3.5927   18.3290  -32.4192 H   0  0  0  0  0  0  0  0  0  0  0  0
   -2.9412   17.6615  -33.9544 H   0  0  0  0  0  0  0  0  0  0  0  0
   -3.8024   19.2379  -33.9544 H   0  0  0  0  0  0  0  0  0  0  0  0
   -4.9370   16.9740  -34.6140 H   0  0  0  0  0  0  0  0  0  0  0  0
   -5.1738   17.1196  -31.6752 H   0  0  0  0  0  0  0  0  0  0  0  0
   -6.3884   16.2896  -32.7060 H   0  0  0  0  0  0  0  0  0  0  0  0
   -4.6803   15.7337  -32.7060 H   0  0  0  0  0  0  0  0  0  0  0  0
   -8.1768   18.3303  -33.3658 H   0  0  0  0  0  0  0  0  0  0  0  0
   -7.0192   17.8765  -32.0645 H   0  0  0  0  0  0  0  0  0  0  0  0
   -9.4838   20.0088  -32.2804 H   0  0  0  0  0  0  0  0  0  0  0  0
   -9.6232   22.3702  -31.4259 H   0  0  0  0  0  0  0  0  0  0  0  0
   -8.0216   24.6253  -30.7016 H   0  0  0  0  0  0  0  0  0  0  0  0
   -3.0600   25.2780  -30.2910 H   0  0  0  0  0  0  0  0  0  0  0  0
   -3.0734   21.4189  -29.4045 H   0  0  0  0  0  0  0  0  0  0  0  0
   -1.6938   22.5157  -29.0292 H   0  0  0  0  0  0  0  0  0  0  0  0
   -5.1320   20.2674  -32.2879 H   0  0  0  0  0  0  0  0  0  0  0  0
  1  2  1  0
  2  3  1  0
  2  4  1  0
  4  5  2  0
  4  6  1  0
  6  7  1  0
  7  8  2  0
  8  9  1  0
  9 10  2  0
 10 11  1  0
 11 12  2  0
 12 13  1  0
 13 14  1  0
 13 15  2  0
 12 16  1  0
 16 17  1  0
 17 18  2  0
 17 19  1  0
 19 20  1  0
 20 21  1  0
 16 22  1  0
 22 23  2  0
 23  7  1  0
 22 10  1  0
  1 24  1  0
  1 25  1  0
  1 26  1  0
  2 27  1  0
  3 28  1  0
  3 29  1  0
  3 30  1  0
  6 31  1  0
  6 32  1  0
  8 33  1  0
  9 34  1  0
 11 35  1  0
 14 36  1  0
 20 37  1  0
 20 38  1  0
 23 39  1  0
M  CHG  2   2   1  14  -1
M  END
>  <UniqueID>  (66) 
65

>  <SMILES>  (66) 
C[NH+](C)C(=O)Cc1ccc2cc(C([NH-])=O)n(C(=O)OCCl)c2c1

>  <Energy>  (66) 
73.39155164350387

>  <Genealogy>  (66) 
C[NH+](C)C(=O)Cc1ccc2cc(C([NH-])=O)n(C(=O)OCCl)c2c1 (protonated)
C[NH+](C)C(=O)Cc1ccc2cc(C([NH-])=O)n(C(=O)OCCl)c2c1 (3D coordinates assigned)
C[NH+](C)C(=O)Cc1ccc2cc(C([NH-])=O)n(C(=O)OCCl)c2c1 (optimized conformer: 73.39155164350387 kcal/mol)

>  <smiles>  (66) 
CN(C)C(=O)Cc1ccc2cc(C(N)=O)n(C(=O)OCCl)c2c1

>  <score_type>  (66) 
oracle

>  <origin>  (66) 
adg

>  <m_score__min__energy>  (66) 
-9.8599999999999994

>  <m_primary>  (66) 
energy

$$$$
68:0
     RDKit          3D

 40 41  0  0  0  0  0  0  0  0999 V2000
   -1.2230   22.6730  -26.9530 C   0  0  0  0  0  0  0  0  0  0  0  0
   -1.6560   23.9730  -27.4750 N   0  0  0  0  0  0  0  0  0  0  0  0
   -1.7200   25.1300  -26.5770 C   0  0  0  0  0  0  0  0  0  0  0  0
   -1.9390   24.1490  -28.8810 C   0  0  0  0  0  0  0  0  0  0  0  0
   -2.1790   25.3020  -29.3330 O   0  0  0  0  0  0  0  0  0  0  0  0
   -1.9710   22.9870  -29.8320 C   0  0  0  0  0  0  0  0  0  0  0  0
   -3.3170   22.5740  -30.0310 O   0  0  0  0  0  0  0  0  0  0  0  0
   -3.9760   22.7040  -31.2590 C   0  0  0  0  0  0  0  0  0  0  0  0
   -3.3190   22.7010  -32.3370 O   0  0  0  0  0  0  0  0  0  0  0  0
   -5.4060   22.8450  -31.2860 N   0  0  0  0  0  0  0  0  0  0  0  0
   -6.1360   23.9110  -30.8540 C   0  0  0  0  0  0  0  0  0  0  0  0
   -5.5970   25.2150  -30.4180 C   0  0  0  0  0  0  0  0  0  0  0  0
   -4.2230   25.5520  -30.6150 N   0  0  0  0  0  0  0  0  0  0  0  0
   -6.3750   26.0700  -29.9160 O   0  0  0  0  0  0  0  0  0  0  0  0
   -7.4980   23.6360  -30.9340 C   0  0  0  0  0  0  0  0  0  0  0  0
   -7.5850   22.3620  -31.4460 C   0  0  0  0  0  0  0  0  0  0  0  0
   -8.7060   21.5830  -31.7230 C   0  0  0  0  0  0  0  0  0  0  0  0
   -8.5000   20.2870  -32.2220 C   0  0  0  0  0  0  0  0  0  0  0  0
   -7.1870   19.7950  -32.4310 C   0  0  0  0  0  0  0  0  0  0  0  0
   -6.9780   18.3970  -32.9440 C   0  0  0  0  0  0  0  0  0  0  0  0
   -6.0620   18.4090  -34.0850 C   0  0  0  0  0  0  0  0  0  0  0  0
   -5.3360   18.4110  -34.9850 N   0  0  0  0  0  0  0  0  0  0  0  0
   -6.0740   20.6080  -32.1220 C   0  0  0  0  0  0  0  0  0  0  0  0
   -6.3080   21.9040  -31.6500 C   0  0  0  0  0  0  0  0  0  0  0  0
   -1.2314   22.6982  -25.8533 H   0  0  0  0  0  0  0  0  0  0  0  0
   -1.9085   21.8889  -27.3070 H   0  0  0  0  0  0  0  0  0  0  0  0
   -0.2043   22.4566  -27.3070 H   0  0  0  0  0  0  0  0  0  0  0  0
   -1.7009   24.7851  -25.5327 H   0  0  0  0  0  0  0  0  0  0  0  0
   -0.8568   25.7861  -26.7623 H   0  0  0  0  0  0  0  0  0  0  0  0
   -2.6503   25.6869  -26.7623 H   0  0  0  0  0  0  0  0  0  0  0  0
   -1.5341   23.2894  -30.7952 H   0  0  0  0  0  0  0  0  0  0  0  0
   -1.3900   22.1530  -29.4114 H   0  0  0  0  0  0  0  0  0  0  0  0
   -3.5870   24.9310  -31.1590 H   0  0  0  0  0  0  0  0  0  0  0  0
   -3.8570   26.4690  -30.2730 H   0  0  0  0  0  0  0  0  0  0  0  0
   -8.3292   24.2974  -30.6483 H   0  0  0  0  0  0  0  0  0  0  0  0
   -9.7215   21.9713  -31.5559 H   0  0  0  0  0  0  0  0  0  0  0  0
   -9.3649   19.6478  -32.4528 H   0  0  0  0  0  0  0  0  0  0  0  0
   -6.5518   17.7758  -32.1425 H   0  0  0  0  0  0  0  0  0  0  0  0
   -7.9457   17.9841  -33.2650 H   0  0  0  0  0  0  0  0  0  0  0  0
   -5.0484   20.2313  -32.2494 H   0  0  0  0  0  0  0  0  0  0  0  0
  1  2  1  0
  2  3  1  0
  2  4  1  0
  4  5  2  0
  4  6  1  0
  6  7  1  0
  7  8  1  0
  8  9  2  0
  8 10  1  0
 10 11  1  0
 11 12  1  0
 12 13  1  0
 12 14  2  0
 11 15  2  0
 15 16  1  0
 16 17  2  0
 17 18  1  0
 18 19  2  0
 19 20  1  0
 20 21  1  0
 21 22  3  0
 19 23  1  0
 23 24  2  0
 24 10  1  0
 24 16  1  0
  1 25  1  0
  1 26  1  0
  1 27  1  0
  3 28  1  0
  3 29  1  0
  3 30  1  0
  6 31  1  0
  6 32  1  0
 13 33  1  0
 13 34  1  0
 15 35  1  0
 17 36  1  0
 18 37  1  0
 20 38  1  0
 20 39  1  0
 23 40  1  0
M  END
>  <UniqueID>  (67) 
66

>  <SMILES>  (67) 
CN(C)C(=O)COC(=O)n1c(C(N)=O)cc2ccc(CC#N)cc21

>  <Energy>  (67) 
72.11601403028673

>  <Genealogy>  (67) 
CN(C)C(=O)COC(=O)n1c(C(N)=O)cc2ccc(CC#N)cc21 (3D coordinates assigned)
CN(C)C(=O)COC(=O)n1c(C(N)=O)cc2ccc(CC#N)cc21 (optimized conformer: 72.11601403028673 kcal/mol)

>  <smiles>  (67) 
CN(C)C(=O)COC(=O)n1c(C(N)=O)cc2ccc(CC#N)cc21

>  <score_type>  (67) 
oracle

>  <origin>  (67) 
adg

>  <m_score__min__energy>  (67) 
-9.5099999999999998

>  <m_primary>  (67) 
energy

$$$$
69:0
     RDKit          3D

 37 39  0  0  0  0  0  0  0  0999 V2000
   -1.2410   25.1830  -29.2160 N   0  0  0  0  0  0  0  0  0  0  0  0
   -1.0490   23.7750  -29.3590 C   0  0  0  0  0  0  0  0  0  0  0  0
   -0.0050   23.2440  -28.8970 O   0  0  0  0  0  0  0  0  0  0  0  0
   -2.0210   22.9430  -30.0960 C   0  0  0  0  0  0  0  0  0  0  0  0
   -1.7360   21.6590  -30.5530 C   0  0  0  0  0  0  0  0  0  0  0  0
   -2.8610   21.2610  -31.2370 C   0  0  0  0  0  0  0  0  0  0  0  0
   -3.1320   20.0590  -31.8830 C   0  0  0  0  0  0  0  0  0  0  0  0
   -4.3950   19.9000  -32.4730 C   0  0  0  0  0  0  0  0  0  0  0  0
   -5.3660   20.9350  -32.4110 C   0  0  0  0  0  0  0  0  0  0  0  0
   -6.7570   20.7530  -33.0040 C   0  0  0  0  0  0  0  0  0  0  0  0
   -7.1820   19.2620  -33.0910 C   0  0  0  0  0  0  0  0  0  0  0  0
   -8.5920   19.0290  -32.5340 C   0  0  0  0  0  0  0  0  0  0  0  0
   -8.7060   19.5370  -31.1620 N   0  0  0  0  0  0  0  0  0  0  0  0
   -8.3780   20.9720  -31.0140 C   0  0  0  0  0  0  0  0  0  0  0  0
   -7.7970   21.6340  -32.2800 C   0  0  0  0  0  0  0  0  0  0  0  0
   -5.0520   22.1380  -31.7330 C   0  0  0  0  0  0  0  0  0  0  0  0
   -3.7770   22.2780  -31.1710 C   0  0  0  0  0  0  0  0  0  0  0  0
   -3.2760   23.3210  -30.4680 N   0  0  0  0  0  0  0  0  0  0  0  0
   -3.9740   24.5180  -30.0850 C   0  0  0  0  0  0  0  0  0  0  0  0
   -4.6750   24.5430  -29.0400 O   0  0  0  0  0  0  0  0  0  0  0  0
   -3.8770   25.6650  -30.8630 O   0  0  0  0  0  0  0  0  0  0  0  0
   -2.0050   25.6780  -29.7260 H   0  0  0  0  0  0  0  0  0  0  0  0
   -0.5620   25.7500  -28.6610 H   0  0  0  0  0  0  0  0  0  0  0  0
   -0.8097   21.0858  -30.3998 H   0  0  0  0  0  0  0  0  0  0  0  0
   -2.3794   19.2581  -31.9298 H   0  0  0  0  0  0  0  0  0  0  0  0
   -4.6368   18.9603  -32.9911 H   0  0  0  0  0  0  0  0  0  0  0  0
   -6.7125   21.1033  -34.0458 H   0  0  0  0  0  0  0  0  0  0  0  0
   -7.1611   18.9484  -34.1451 H   0  0  0  0  0  0  0  0  0  0  0  0
   -6.4775   18.6737  -32.4847 H   0  0  0  0  0  0  0  0  0  0  0  0
   -9.3214   19.5495  -33.1721 H   0  0  0  0  0  0  0  0  0  0  0  0
   -8.7908   17.9472  -32.5248 H   0  0  0  0  0  0  0  0  0  0  0  0
   -8.0680   18.9760  -30.5490 H   0  0  0  0  0  0  0  0  0  0  0  0
   -9.2988   21.5074  -30.7392 H   0  0  0  0  0  0  0  0  0  0  0  0
   -7.5951   21.0340  -30.2438 H   0  0  0  0  0  0  0  0  0  0  0  0
   -8.6230   21.8431  -32.9757 H   0  0  0  0  0  0  0  0  0  0  0  0
   -7.2824   22.5526  -31.9617 H   0  0  0  0  0  0  0  0  0  0  0  0
   -5.7941   22.9456  -31.6496 H   0  0  0  0  0  0  0  0  0  0  0  0
  1  2  1  0
  2  3  2  0
  2  4  1  0
  4  5  2  0
  5  6  1  0
  6  7  2  0
  7  8  1  0
  8  9  2  0
  9 10  1  0
 10 11  1  0
 11 12  1  0
 12 13  1  0
 13 14  1  0
 14 15  1  0
  9 16  1  0
 16 17  2  0
 17 18  1  0
 18 19  1  0
 19 20  2  0
 19 21  1  0
 18  4  1  0
 17  6  1  0
 15 10  1  0
  1 22  1  0
  1 23  1  0
  5 24  1  0
  7 25  1  0
  8 26  1  0
 10 27  1  0
 11 28  1  0
 11 29  1  0
 12 30  1  0
 12 31  1  0
 13 32  1  0
 14 33  1  0
 14 34  1  0
 15 35  1  0
 15 36  1  0
 16 37  1  0
M  CHG  1  21  -1
M  END
>  <UniqueID>  (68) 
67

>  <SMILES>  (68) 
NC(=O)c1cc2ccc(C3CCNCC3)cc2n1C(=O)[O-]

>  <Energy>  (68) 
87.2281618746867

>  <Genealogy>  (68) 
NC(=O)c1cc2ccc(C3CCNCC3)cc2n1C(=O)[O-] (protonated)
NC(=O)c1cc2ccc(C3CCNCC3)cc2n1C(=O)[O-] (3D coordinates assigned)
NC(=O)c1cc2ccc(C3CCNCC3)cc2n1C(=O)[O-] (nonaromatic ring conformer: 87.2281618746867 kcal/mol)

>  <smiles>  (68) 
NC(=O)c1cc2ccc(C3CCNCC3)cc2n1C(=O)O

>  <score_type>  (68) 
oracle

>  <origin>  (68) 
adg

>  <m_score__min__energy>  (68) 
-9.4900000000000002

>  <m_primary>  (68) 
energy

$$$$
70:0
     RDKit          3D

 40 41  0  0  0  0  0  0  0  0999 V2000
   -7.8750   19.0170  -31.6510 C   0  0  0  0  0  0  0  0  0  0  0  0
   -6.9780   18.1760  -32.4620 N   0  0  2  0  0  0  0  0  0  0  0  0
   -5.8950   17.5260  -31.6810 C   0  0  0  0  0  0  0  0  0  0  0  0
   -5.3670   16.1920  -32.2530 C   0  0  0  0  0  0  0  0  0  0  0  0
   -5.8870   15.9480  -33.5960 N   0  0  0  0  0  0  0  0  0  0  0  0
   -6.4610   18.9090  -33.6050 C   0  0  0  0  0  0  0  0  0  0  0  0
   -6.1390   18.3200  -34.6300 O   0  0  0  0  0  0  0  0  0  0  0  0
   -6.2510   20.3980  -33.5270 C   0  0  0  0  0  0  0  0  0  0  0  0
   -4.9910   20.7050  -32.7640 C   0  0  0  0  0  0  0  0  0  0  0  0
   -3.8840   19.8240  -32.8290 C   0  0  0  0  0  0  0  0  0  0  0  0
   -2.6880   20.1260  -32.1530 C   0  0  0  0  0  0  0  0  0  0  0  0
   -2.6290   21.3120  -31.4290 C   0  0  0  0  0  0  0  0  0  0  0  0
   -1.5860   21.8650  -30.7200 C   0  0  0  0  0  0  0  0  0  0  0  0
   -2.0760   23.0700  -30.2240 C   0  0  0  0  0  0  0  0  0  0  0  0
   -1.2980   23.9590  -29.3350 C   0  0  0  0  0  0  0  0  0  0  0  0
   -1.6070   25.3490  -29.2740 N   0  0  0  0  0  0  0  0  0  0  0  0
   -0.3350   23.5110  -28.6570 O   0  0  0  0  0  0  0  0  0  0  0  0
   -3.3700   23.2600  -30.6150 N   0  0  0  0  0  0  0  0  0  0  0  0
   -4.2080   24.4010  -30.3660 C   0  0  0  0  0  0  0  0  0  0  0  0
   -3.9020   25.5320  -30.8370 O   0  0  0  0  0  0  0  0  0  0  0  0
   -5.3830   24.2600  -29.6360 O   0  0  0  0  0  0  0  0  0  0  0  0
   -3.6930   22.1720  -31.3500 C   0  0  0  0  0  0  0  0  0  0  0  0
   -4.8920   21.9040  -32.0230 C   0  0  0  0  0  0  0  0  0  0  0  0
   -7.6817   18.8358  -30.5834 H   0  0  0  0  0  0  0  0  0  0  0  0
   -7.6923   20.0768  -31.8820 H   0  0  0  0  0  0  0  0  0  0  0  0
   -8.9209   18.7664  -31.8820 H   0  0  0  0  0  0  0  0  0  0  0  0
   -7.5720   17.3950  -32.8280 H   0  0  0  0  0  0  0  0  0  0  0  0
   -5.0501   18.2281  -31.6251 H   0  0  0  0  0  0  0  0  0  0  0  0
   -6.3353   17.2805  -30.7033 H   0  0  0  0  0  0  0  0  0  0  0  0
   -4.2685   16.2301  -32.2955 H   0  0  0  0  0  0  0  0  0  0  0  0
   -5.7029   15.3755  -31.5968 H   0  0  0  0  0  0  0  0  0  0  0  0
   -5.2240   16.3790  -34.2790 H   0  0  0  0  0  0  0  0  0  0  0  0
   -6.7950   16.4590  -33.6950 H   0  0  0  0  0  0  0  0  0  0  0  0
   -6.1685   20.8073  -34.5447 H   0  0  0  0  0  0  0  0  0  0  0  0
   -7.1061   20.8547  -33.0071 H   0  0  0  0  0  0  0  0  0  0  0  0
   -3.9602   18.8952  -33.4134 H   0  0  0  0  0  0  0  0  0  0  0  0
   -1.8254   19.4447  -32.1957 H   0  0  0  0  0  0  0  0  0  0  0  0
   -0.5799   21.4442  -30.5762 H   0  0  0  0  0  0  0  0  0  0  0  0
   -2.5970   25.6780  -29.2370 H   0  0  0  0  0  0  0  0  0  0  0  0
   -5.7350   22.6091  -31.9758 H   0  0  0  0  0  0  0  0  0  0  0  0
  1  2  1  0
  2  3  1  0
  3  4  1  0
  4  5  1  0
  2  6  1  0
  6  7  2  0
  6  8  1  0
  8  9  1  0
  9 10  2  0
 10 11  1  0
 11 12  2  0
 12 13  1  0
 13 14  2  0
 14 15  1  0
 15 16  1  0
 15 17  2  0
 14 18  1  0
 18 19  1  0
 19 20  2  0
 19 21  1  0
 18 22  1  0
 22 23  2  0
 23  9  1  0
 22 12  1  0
  1 24  1  0
  1 25  1  0
  1 26  1  0
  2 27  1  6
  3 28  1  0
  3 29  1  0
  4 30  1  0
  4 31  1  0
  5 32  1  0
  5 33  1  0
  8 34  1  0
  8 35  1  0
 10 36  1  0
 11 37  1  0
 13 38  1  0
 16 39  1  0
 23 40  1  0
M  CHG  3   2   1  16  -1  21  -1
M  END
>  <UniqueID>  (69) 
68

>  <SMILES>  (69) 
C[N@H+](CCN)C(=O)Cc1ccc2cc(C([NH-])=O)n(C(=O)[O-])c2c1

>  <Energy>  (69) 
80.32130881855053

>  <Genealogy>  (69) 
C[NH+](CCN)C(=O)Cc1ccc2cc(C([NH-])=O)n(C(=O)[O-])c2c1 (protonated)
C[N@H+](CCN)C(=O)Cc1ccc2cc(C([NH-])=O)n(C(=O)[O-])c2c1 (chirality)
C[N@H+](CCN)C(=O)Cc1ccc2cc(C([NH-])=O)n(C(=O)[O-])c2c1 (3D coordinates assigned)
C[N@H+](CCN)C(=O)Cc1ccc2cc(C([NH-])=O)n(C(=O)[O-])c2c1 (optimized conformer: 80.32130881855053 kcal/mol)

>  <smiles>  (69) 
CN(CCN)C(=O)Cc1ccc2cc(C(N)=O)n(C(=O)O)c2c1

>  <score_type>  (69) 
oracle

>  <origin>  (69) 
adg

>  <m_score__min__energy>  (69) 
-10.41

>  <m_primary>  (69) 
energy

$$$$
71:0
     RDKit          3D

 41 42  0  0  0  0  0  0  0  0999 V2000
   -5.5760   18.2160  -34.5960 C   0  0  0  0  0  0  0  0  0  0  0  0
   -5.4760   17.6860  -33.2800 O   0  0  0  0  0  0  0  0  0  0  0  0
   -6.4450   17.9190  -32.2990 C   0  0  0  0  0  0  0  0  0  0  0  0
   -6.2720   17.5210  -31.1150 O   0  0  0  0  0  0  0  0  0  0  0  0
   -7.7200   18.6010  -32.6760 C   0  0  0  0  0  0  0  0  0  0  0  0
   -7.7100   20.0180  -32.1750 C   0  0  0  0  0  0  0  0  0  0  0  0
   -8.9250   20.7390  -32.0500 C   0  0  0  0  0  0  0  0  0  0  0  0
   -8.9220   22.0790  -31.6260 C   0  0  0  0  0  0  0  0  0  0  0  0
   -7.6940   22.6710  -31.3420 C   0  0  0  0  0  0  0  0  0  0  0  0
   -7.3980   23.9520  -30.9360 C   0  0  0  0  0  0  0  0  0  0  0  0
   -6.0090   23.9910  -30.8200 C   0  0  0  0  0  0  0  0  0  0  0  0
   -5.2560   25.1670  -30.3360 C   0  0  0  0  0  0  0  0  0  0  0  0
   -3.8600   25.2760  -30.6030 N   0  0  0  0  0  0  0  0  0  0  0  0
   -5.8380   26.0900  -29.7060 O   0  0  0  0  0  0  0  0  0  0  0  0
   -5.4700   22.7840  -31.1510 N   0  0  0  0  0  0  0  0  0  0  0  0
   -4.0840   22.4180  -31.2120 C   0  0  0  0  0  0  0  0  0  0  0  0
   -3.5240   22.3010  -32.3360 O   0  0  0  0  0  0  0  0  0  0  0  0
   -3.3010   22.2370  -29.9700 C   0  0  0  0  0  0  0  0  0  0  0  0
   -2.7660   21.1150  -29.7470 O   0  0  0  0  0  0  0  0  0  0  0  0
   -3.2010   23.2960  -28.9880 N   0  0  0  0  0  0  0  0  0  0  0  0
   -1.8190   23.4190  -28.4940 C   0  0  0  0  0  0  0  0  0  0  0  0
   -4.1280   23.0330  -27.8780 C   0  0  0  0  0  0  0  0  0  0  0  0
   -6.5140   21.9860  -31.4600 C   0  0  0  0  0  0  0  0  0  0  0  0
   -6.4830   20.6550  -31.8870 C   0  0  0  0  0  0  0  0  0  0  0  0
   -5.7797   19.2956  -34.5420 H   0  0  0  0  0  0  0  0  0  0  0  0
   -4.6302   18.0477  -35.1319 H   0  0  0  0  0  0  0  0  0  0  0  0
   -6.3954   17.7146  -35.1319 H   0  0  0  0  0  0  0  0  0  0  0  0
   -7.8230   18.6021  -33.7712 H   0  0  0  0  0  0  0  0  0  0  0  0
   -8.5660   18.0629  -32.2234 H   0  0  0  0  0  0  0  0  0  0  0  0
   -9.8787   20.2448  -32.2871 H   0  0  0  0  0  0  0  0  0  0  0  0
   -9.8608   22.6427  -31.5217 H   0  0  0  0  0  0  0  0  0  0  0  0
   -8.1065   24.7712  -30.7438 H   0  0  0  0  0  0  0  0  0  0  0  0
   -3.4900   26.0350  -31.2170 H   0  0  0  0  0  0  0  0  0  0  0  0
   -3.4600   24.2130  -29.4210 H   0  0  0  0  0  0  0  0  0  0  0  0
   -1.8214   23.4188  -27.3940 H   0  0  0  0  0  0  0  0  0  0  0  0
   -1.2221   22.5704  -28.8595 H   0  0  0  0  0  0  0  0  0  0  0  0
   -1.3813   24.3597  -28.8595 H   0  0  0  0  0  0  0  0  0  0  0  0
   -3.6058   23.1812  -26.9213 H   0  0  0  0  0  0  0  0  0  0  0  0
   -4.9811   23.7246  -27.9410 H   0  0  0  0  0  0  0  0  0  0  0  0
   -4.4908   21.9965  -27.9410 H   0  0  0  0  0  0  0  0  0  0  0  0
   -5.5288   20.1186  -31.9957 H   0  0  0  0  0  0  0  0  0  0  0  0
  1  2  1  0
  2  3  1  0
  3  4  2  0
  3  5  1  0
  5  6  1  0
  6  7  2  0
  7  8  1  0
  8  9  2  0
  9 10  1  0
 10 11  2  0
 11 12  1  0
 12 13  1  0
 12 14  2  0
 11 15  1  0
 15 16  1  0
 16 17  2  0
 16 18  1  0
 18 19  2  0
 18 20  1  0
 20 21  1  0
 20 22  1  0
 15 23  1  0
 23 24  2  0
 24  6  1  0
 23  9  1  0
  1 25  1  0
  1 26  1  0
  1 27  1  0
  5 28  1  0
  5 29  1  0
  7 30  1  0
  8 31  1  0
 10 32  1  0
 13 33  1  0
 20 34  1  0
 21 35  1  0
 21 36  1  0
 21 37  1  0
 22 38  1  0
 22 39  1  0
 22 40  1  0
 24 41  1  0
M  CHG  2  13  -1  20   1
M  END
>  <UniqueID>  (70) 
69

>  <SMILES>  (70) 
COC(=O)Cc1ccc2cc(C([NH-])=O)n(C(=O)C(=O)[NH+](C)C)c2c1

>  <Energy>  (70) 
76.76110902320015

>  <Genealogy>  (70) 
COC(=O)Cc1ccc2cc(C([NH-])=O)n(C(=O)C(=O)[NH+](C)C)c2c1 (protonated)
COC(=O)Cc1ccc2cc(C([NH-])=O)n(C(=O)C(=O)[NH+](C)C)c2c1 (3D coordinates assigned)
COC(=O)Cc1ccc2cc(C([NH-])=O)n(C(=O)C(=O)[NH+](C)C)c2c1 (optimized conformer: 76.76110902320015 kcal/mol)

>  <smiles>  (70) 
COC(=O)Cc1ccc2cc(C(N)=O)n(C(=O)C(=O)N(C)C)c2c1

>  <score_type>  (70) 
oracle

>  <origin>  (70) 
adg

>  <m_score__min__energy>  (70) 
-8.7899999999999991

>  <m_primary>  (70) 
energy

$$$$
72:0
     RDKit          3D

 30 31  0  0  0  0  0  0  0  0999 V2000
   -3.9660   22.7810  -28.2940 C   0  0  0  0  0  0  0  0  0  0  0  0
   -3.3730   23.1130  -29.5930 N   0  0  0  0  0  0  0  0  0  0  0  0
   -2.1610   23.8920  -29.6290 C   0  0  0  0  0  0  0  0  0  0  0  0
   -1.0550   23.3520  -29.8980 O   0  0  0  0  0  0  0  0  0  0  0  0
   -2.1920   25.2530  -29.3460 O   0  0  0  0  0  0  0  0  0  0  0  0
   -3.9600   22.5910  -30.8030 C   0  0  0  0  0  0  0  0  0  0  0  0
   -3.2310   22.0600  -31.6840 O   0  0  0  0  0  0  0  0  0  0  0  0
   -5.3780   22.6680  -31.0200 N   0  0  0  0  0  0  0  0  0  0  0  0
   -6.1780   23.7680  -30.9420 C   0  0  0  0  0  0  0  0  0  0  0  0
   -5.7620   25.1110  -30.4840 C   0  0  0  0  0  0  0  0  0  0  0  0
   -4.4770   25.6330  -30.8110 N   0  0  0  0  0  0  0  0  0  0  0  0
   -6.5420   25.7960  -29.7690 O   0  0  0  0  0  0  0  0  0  0  0  0
   -7.4860   23.4440  -31.3000 C   0  0  0  0  0  0  0  0  0  0  0  0
   -7.4600   22.1000  -31.6030 C   0  0  0  0  0  0  0  0  0  0  0  0
   -8.4800   21.2570  -32.0330 C   0  0  0  0  0  0  0  0  0  0  0  0
   -8.1550   19.9150  -32.3000 C   0  0  0  0  0  0  0  0  0  0  0  0
   -6.8280   19.4500  -32.1380 C   0  0  0  0  0  0  0  0  0  0  0  0
   -6.5090   18.0840  -32.4210 N   0  0  0  0  0  0  0  0  0  0  0  0
   -5.8190   20.3340  -31.7020 C   0  0  0  0  0  0  0  0  0  0  0  0
   -6.1740   21.6590  -31.4280 C   0  0  0  0  0  0  0  0  0  0  0  0
   -3.3125   23.1469  -27.4884 H   0  0  0  0  0  0  0  0  0  0  0  0
   -4.9540   23.2572  -28.2095 H   0  0  0  0  0  0  0  0  0  0  0  0
   -4.0765   21.6898  -28.2095 H   0  0  0  0  0  0  0  0  0  0  0  0
   -3.8640   26.0490  -30.0750 H   0  0  0  0  0  0  0  0  0  0  0  0
   -8.3545   24.1183  -31.3335 H   0  0  0  0  0  0  0  0  0  0  0  0
   -9.5076   21.6283  -32.1600 H   0  0  0  0  0  0  0  0  0  0  0  0
   -8.9387   19.2209  -32.6376 H   0  0  0  0  0  0  0  0  0  0  0  0
   -6.0570   17.4810  -31.6980 H   0  0  0  0  0  0  0  0  0  0  0  0
   -6.7240   17.6680  -33.3540 H   0  0  0  0  0  0  0  0  0  0  0  0
   -4.7810   19.9907  -31.5807 H   0  0  0  0  0  0  0  0  0  0  0  0
  1  2  1  0
  2  3  1  0
  3  4  2  0
  3  5  1  0
  2  6  1  0
  6  7  2  0
  6  8  1  0
  8  9  1  0
  9 10  1  0
 10 11  1  0
 10 12  2  0
  9 13  2  0
 13 14  1  0
 14 15  2  0
 15 16  1  0
 16 17  2  0
 17 18  1  0
 17 19  1  0
 19 20  2  0
 20  8  1  0
 20 14  1  0
  1 21  1  0
  1 22  1  0
  1 23  1  0
 11 24  1  0
 13 25  1  0
 15 26  1  0
 16 27  1  0
 18 28  1  0
 18 29  1  0
 19 30  1  0
M  CHG  2   5  -1  11  -1
M  END
>  <UniqueID>  (71) 
70

>  <SMILES>  (71) 
CN(C(=O)[O-])C(=O)n1c(C([NH-])=O)cc2ccc(N)cc21

>  <Energy>  (71) 
70.51523803760377

>  <Genealogy>  (71) 
CN(C(=O)[O-])C(=O)n1c(C([NH-])=O)cc2ccc(N)cc21 (protonated)
CN(C(=O)[O-])C(=O)n1c(C([NH-])=O)cc2ccc(N)cc21 (3D coordinates assigned)
CN(C(=O)[O-])C(=O)n1c(C([NH-])=O)cc2ccc(N)cc21 (optimized conformer: 70.51523803760377 kcal/mol)

>  <smiles>  (71) 
CN(C(=O)O)C(=O)n1c(C(N)=O)cc2ccc(N)cc21

>  <score_type>  (71) 
oracle

>  <origin>  (71) 
adg

>  <m_score__min__energy>  (71) 
-10.26

>  <m_primary>  (71) 
energy

$$$$
73:0
     RDKit          3D

 36 37  0  0  0  0  0  0  0  0999 V2000
   -5.3450   16.5550  -34.2280 C   0  0  0  0  0  0  0  0  0  0  0  0
   -6.0100   17.8120  -34.1870 O   0  0  0  0  0  0  0  0  0  0  0  0
   -6.7360   18.2450  -33.0740 C   0  0  0  0  0  0  0  0  0  0  0  0
   -7.5910   17.4890  -32.5320 O   0  0  0  0  0  0  0  0  0  0  0  0
   -6.4820   19.6180  -32.5130 C   0  0  2  0  0  0  0  0  0  0  0  0
   -7.8220   20.3490  -32.3250 C   0  0  0  0  0  0  0  0  0  0  0  0
   -5.5660   20.3690  -33.4000 N   0  0  0  0  0  0  0  0  0  0  0  0
   -4.3880   20.8130  -32.6910 C   0  0  0  0  0  0  0  0  0  0  0  0
   -3.1960   20.0440  -32.7360 C   0  0  0  0  0  0  0  0  0  0  0  0
   -2.0450   20.4620  -32.0490 C   0  0  0  0  0  0  0  0  0  0  0  0
   -2.1150   21.6420  -31.3160 C   0  0  0  0  0  0  0  0  0  0  0  0
   -1.1470   22.2840  -30.5790 C   0  0  0  0  0  0  0  0  0  0  0  0
   -1.7660   23.4240  -30.0690 C   0  0  0  0  0  0  0  0  0  0  0  0
   -1.1000   24.3610  -29.1400 C   0  0  0  0  0  0  0  0  0  0  0  0
   -1.6060   25.6770  -28.9360 N   0  0  0  0  0  0  0  0  0  0  0  0
   -0.0960   23.9770  -28.4810 O   0  0  0  0  0  0  0  0  0  0  0  0
   -3.0650   23.4880  -30.4810 N   0  0  0  0  0  0  0  0  0  0  0  0
   -4.0150   24.5400  -30.2440 C   0  0  0  0  0  0  0  0  0  0  0  0
   -3.8650   25.6670  -30.7830 O   0  0  0  0  0  0  0  0  0  0  0  0
   -5.1220   24.3150  -29.4350 O   0  0  0  0  0  0  0  0  0  0  0  0
   -3.2630   22.3890  -31.2420 C   0  0  0  0  0  0  0  0  0  0  0  0
   -4.4180   22.0090  -31.9340 C   0  0  0  0  0  0  0  0  0  0  0  0
   -5.1596   16.2046  -33.2019 H   0  0  0  0  0  0  0  0  0  0  0  0
   -5.9745   15.8242  -34.7569 H   0  0  0  0  0  0  0  0  0  0  0  0
   -4.3867   16.6642  -34.7569 H   0  0  0  0  0  0  0  0  0  0  0  0
   -5.9950   19.5366  -31.5300 H   0  0  0  0  0  0  0  0  0  0  0  0
   -8.0302   20.4626  -31.2509 H   0  0  0  0  0  0  0  0  0  0  0  0
   -7.7670   21.3421  -32.7948 H   0  0  0  0  0  0  0  0  0  0  0  0
   -8.6272   19.7652  -32.7948 H   0  0  0  0  0  0  0  0  0  0  0  0
   -6.0620   21.1860  -33.8270 H   0  0  0  0  0  0  0  0  0  0  0  0
   -5.2570   19.7490  -34.1870 H   0  0  0  0  0  0  0  0  0  0  0  0
   -3.1736   19.1095  -33.3159 H   0  0  0  0  0  0  0  0  0  0  0  0
   -1.1161   19.8741  -32.0893 H   0  0  0  0  0  0  0  0  0  0  0  0
   -0.1055   21.9653  -30.4249 H   0  0  0  0  0  0  0  0  0  0  0  0
   -2.6330   25.8680  -28.9720 H   0  0  0  0  0  0  0  0  0  0  0  0
   -5.3282   22.6251  -31.8909 H   0  0  0  0  0  0  0  0  0  0  0  0
  1  2  1  0
  2  3  1  0
  3  4  2  0
  3  5  1  0
  5  6  1  0
  5  7  1  0
  7  8  1  0
  8  9  2  0
  9 10  1  0
 10 11  2  0
 11 12  1  0
 12 13  2  0
 13 14  1  0
 14 15  1  0
 14 16  2  0
 13 17  1  0
 17 18  1  0
 18 19  2  0
 18 20  1  0
 17 21  1  0
 21 22  2  0
 22  8  1  0
 21 11  1  0
  1 23  1  0
  1 24  1  0
  1 25  1  0
  5 26  1  1
  6 27  1  0
  6 28  1  0
  6 29  1  0
  7 30  1  0
  7 31  1  0
  9 32  1  0
 10 33  1  0
 12 34  1  0
 15 35  1  0
 22 36  1  0
M  CHG  3   7   1  15  -1  20  -1
M  END
>  <UniqueID>  (72) 
71

>  <SMILES>  (72) 
COC(=O)[C@H](C)[NH2+]c1ccc2cc(C([NH-])=O)n(C(=O)[O-])c2c1

>  <Energy>  (72) 
73.50863863613407

>  <Genealogy>  (72) 
COC(=O)C(C)[NH2+]c1ccc2cc(C([NH-])=O)n(C(=O)[O-])c2c1 (protonated)
COC(=O)[C@H](C)[NH2+]c1ccc2cc(C([NH-])=O)n(C(=O)[O-])c2c1 (chirality)
COC(=O)[C@H](C)[NH2+]c1ccc2cc(C([NH-])=O)n(C(=O)[O-])c2c1 (3D coordinates assigned)
COC(=O)[C@H](C)[NH2+]c1ccc2cc(C([NH-])=O)n(C(=O)[O-])c2c1 (optimized conformer: 73.50863863613407 kcal/mol)

>  <smiles>  (72) 
COC(=O)C(C)Nc1ccc2cc(C(N)=O)n(C(=O)O)c2c1

>  <score_type>  (72) 
oracle

>  <origin>  (72) 
adg

>  <m_score__min__energy>  (72) 
-9.9499999999999993

>  <m_primary>  (72) 
energy

$$$$
74:0
     RDKit          3D

 38 39  0  0  0  0  0  0  0  0999 V2000
   -1.9500   22.2090  -27.1190 C   0  0  0  0  0  0  0  0  0  0  0  0
   -2.5980   23.2910  -28.0060 C   0  0  0  0  0  0  0  0  0  0  0  0
   -4.1050   23.3590  -27.6860 C   0  0  0  0  0  0  0  0  0  0  0  0
   -1.9550   24.6560  -27.7060 C   0  0  0  0  0  0  0  0  0  0  0  0
   -2.3770   22.9550  -29.4680 C   0  0  0  0  0  0  0  0  0  0  0  0
   -1.3770   23.4320  -30.0720 O   0  0  0  0  0  0  0  0  0  0  0  0
   -3.3170   22.1700  -30.1520 O   0  0  0  0  0  0  0  0  0  0  0  0
   -3.9700   22.5360  -31.3360 C   0  0  0  0  0  0  0  0  0  0  0  0
   -3.3710   22.4930  -32.4450 O   0  0  0  0  0  0  0  0  0  0  0  0
   -5.3460   22.9470  -31.2840 N   0  0  0  0  0  0  0  0  0  0  0  0
   -5.8400   24.1360  -30.8350 C   0  0  0  0  0  0  0  0  0  0  0  0
   -5.0420   25.3270  -30.4750 C   0  0  0  0  0  0  0  0  0  0  0  0
   -3.6180   25.2950  -30.5130 N   0  0  0  0  0  0  0  0  0  0  0  0
   -5.6270   26.4030  -30.1780 O   0  0  0  0  0  0  0  0  0  0  0  0
   -7.2320   24.1180  -30.8310 C   0  0  0  0  0  0  0  0  0  0  0  0
   -7.5820   22.8730  -31.3020 C   0  0  0  0  0  0  0  0  0  0  0  0
   -8.8400   22.3100  -31.4920 C   0  0  0  0  0  0  0  0  0  0  0  0
   -8.9050   20.9880  -31.9610 C   0  0  0  0  0  0  0  0  0  0  0  0
   -7.7220   20.2570  -32.2220 C   0  0  0  0  0  0  0  0  0  0  0  0
   -7.8020   18.9070  -32.6870 N   0  0  0  0  0  0  0  0  0  0  0  0
   -6.4620   20.8590  -32.0180 C   0  0  0  0  0  0  0  0  0  0  0  0
   -6.4260   22.1850  -31.5680 C   0  0  0  0  0  0  0  0  0  0  0  0
   -2.1024   22.4635  -26.0598 H   0  0  0  0  0  0  0  0  0  0  0  0
   -2.4132   21.2343  -27.3322 H   0  0  0  0  0  0  0  0  0  0  0  0
   -0.8721   22.1572  -27.3322 H   0  0  0  0  0  0  0  0  0  0  0  0
   -4.2483   23.3655  -26.5954 H   0  0  0  0  0  0  0  0  0  0  0  0
   -4.5303   24.2772  -28.1172 H   0  0  0  0  0  0  0  0  0  0  0  0
   -4.6113   22.4828  -28.1172 H   0  0  0  0  0  0  0  0  0  0  0  0
   -1.8879   24.7984  -26.6173 H   0  0  0  0  0  0  0  0  0  0  0  0
   -0.9461   24.6901  -28.1431 H   0  0  0  0  0  0  0  0  0  0  0  0
   -2.5712   25.4556  -28.1431 H   0  0  0  0  0  0  0  0  0  0  0  0
   -3.1090   24.4620  -30.8840 H   0  0  0  0  0  0  0  0  0  0  0  0
   -7.9085   24.9269  -30.5179 H   0  0  0  0  0  0  0  0  0  0  0  0
   -9.7553   22.8827  -31.2814 H   0  0  0  0  0  0  0  0  0  0  0  0
   -9.8848   20.5163  -32.1270 H   0  0  0  0  0  0  0  0  0  0  0  0
   -7.2390   18.1530  -32.2350 H   0  0  0  0  0  0  0  0  0  0  0  0
   -8.4240   18.6540  -33.4870 H   0  0  0  0  0  0  0  0  0  0  0  0
   -5.5327   20.3017  -32.2074 H   0  0  0  0  0  0  0  0  0  0  0  0
  1  2  1  0
  2  3  1  0
  2  4  1  0
  2  5  1  0
  5  6  2  0
  5  7  1  0
  7  8  1  0
  8  9  2  0
  8 10  1  0
 10 11  1  0
 11 12  1  0
 12 13  1  0
 12 14  2  0
 11 15  2  0
 15 16  1  0
 16 17  2  0
 17 18  1  0
 18 19  2  0
 19 20  1  0
 19 21  1  0
 21 22  2  0
 22 10  1  0
 22 16  1  0
  1 23  1  0
  1 24  1  0
  1 25  1  0
  3 26  1  0
  3 27  1  0
  3 28  1  0
  4 29  1  0
  4 30  1  0
  4 31  1  0
 13 32  1  0
 15 33  1  0
 17 34  1  0
 18 35  1  0
 20 36  1  0
 20 37  1  0
 21 38  1  0
M  CHG  1  13  -1
M  END
>  <UniqueID>  (73) 
72

>  <SMILES>  (73) 
CC(C)(C)C(=O)OC(=O)n1c(C([NH-])=O)cc2ccc(N)cc21

>  <Energy>  (73) 
72.50671223201816

>  <Genealogy>  (73) 
CC(C)(C)C(=O)OC(=O)n1c(C([NH-])=O)cc2ccc(N)cc21 (protonated)
CC(C)(C)C(=O)OC(=O)n1c(C([NH-])=O)cc2ccc(N)cc21 (3D coordinates assigned)
CC(C)(C)C(=O)OC(=O)n1c(C([NH-])=O)cc2ccc(N)cc21 (optimized conformer: 72.50671223201816 kcal/mol)

>  <smiles>  (73) 
CC(C)(C)C(=O)OC(=O)n1c(C(N)=O)cc2ccc(N)cc21

>  <score_type>  (73) 
oracle

>  <origin>  (73) 
adg

>  <m_score__min__energy>  (73) 
-9.6500000000000004

>  <m_primary>  (73) 
energy

$$$$
76:0
     RDKit          3D

 43 44  0  0  0  0  0  0  0  0999 V2000
   -3.8310   24.5640  -26.7530 C   0  0  0  0  0  0  0  0  0  0  0  0
   -3.3930   23.7460  -27.9670 C   0  0  0  0  0  0  0  0  0  0  0  0
   -1.9900   23.1510  -27.7940 C   0  0  0  0  0  0  0  0  0  0  0  0
   -1.0080   23.7750  -28.7380 C   0  0  0  0  0  0  0  0  0  0  0  0
   -0.1070   24.5390  -28.2920 O   0  0  0  0  0  0  0  0  0  0  0  0
   -1.1170   23.5240  -30.1070 O   0  0  0  0  0  0  0  0  0  0  0  0
   -1.7420   22.3550  -30.6280 C   0  0  0  0  0  0  0  0  0  0  0  0
   -3.1560   22.4870  -30.5350 O   0  0  0  0  0  0  0  0  0  0  0  0
   -3.9830   22.6010  -31.6570 C   0  0  0  0  0  0  0  0  0  0  0  0
   -3.5250   22.3840  -32.8110 O   0  0  0  0  0  0  0  0  0  0  0  0
   -5.3560   22.9920  -31.4920 N   0  0  0  0  0  0  0  0  0  0  0  0
   -5.8390   24.1520  -30.9620 C   0  0  0  0  0  0  0  0  0  0  0  0
   -5.0360   25.3260  -30.5610 C   0  0  0  0  0  0  0  0  0  0  0  0
   -3.6160   25.2860  -30.6760 N   0  0  0  0  0  0  0  0  0  0  0  0
   -5.5870   26.3530  -30.0860 O   0  0  0  0  0  0  0  0  0  0  0  0
   -7.2320   24.1250  -30.9190 C   0  0  0  0  0  0  0  0  0  0  0  0
   -7.5900   22.9050  -31.4480 C   0  0  0  0  0  0  0  0  0  0  0  0
   -8.8510   22.3490  -31.6400 C   0  0  0  0  0  0  0  0  0  0  0  0
   -8.9240   21.0580  -32.1890 C   0  0  0  0  0  0  0  0  0  0  0  0
   -7.7440   20.3420  -32.5170 C   0  0  0  0  0  0  0  0  0  0  0  0
   -7.8320   19.0240  -33.0930 N   0  0  0  0  0  0  0  0  0  0  0  0
   -7.5620   18.0090  -32.0730 C   0  0  0  0  0  0  0  0  0  0  0  0
   -6.4810   20.9460  -32.3150 C   0  0  0  0  0  0  0  0  0  0  0  0
   -6.4400   22.2410  -31.7850 C   0  0  0  0  0  0  0  0  0  0  0  0
   -3.5472   24.0339  -25.8319 H   0  0  0  0  0  0  0  0  0  0  0  0
   -3.3388   25.5475  -26.7766 H   0  0  0  0  0  0  0  0  0  0  0  0
   -4.9224   24.6995  -26.7766 H   0  0  0  0  0  0  0  0  0  0  0  0
   -4.1093   22.9247  -28.1170 H   0  0  0  0  0  0  0  0  0  0  0  0
   -3.3671   24.4209  -28.8353 H   0  0  0  0  0  0  0  0  0  0  0  0
   -1.6530   23.3248  -26.7614 H   0  0  0  0  0  0  0  0  0  0  0  0
   -2.0426   22.0743  -28.0131 H   0  0  0  0  0  0  0  0  0  0  0  0
   -1.4551   22.2255  -31.6820 H   0  0  0  0  0  0  0  0  0  0  0  0
   -1.4183   21.4785  -30.0475 H   0  0  0  0  0  0  0  0  0  0  0  0
   -3.0800   24.4350  -30.3940 H   0  0  0  0  0  0  0  0  0  0  0  0
   -7.9029   24.9112  -30.5425 H   0  0  0  0  0  0  0  0  0  0  0  0
   -9.7622   22.9030  -31.3703 H   0  0  0  0  0  0  0  0  0  0  0  0
   -9.9069   20.5972  -32.3665 H   0  0  0  0  0  0  0  0  0  0  0  0
   -7.1410   18.9220  -33.8720 H   0  0  0  0  0  0  0  0  0  0  0  0
   -8.7890   18.8670  -33.4890 H   0  0  0  0  0  0  0  0  0  0  0  0
   -7.6801   18.4530  -31.0736 H   0  0  0  0  0  0  0  0  0  0  0  0
   -8.2695   17.1748  -32.1895 H   0  0  0  0  0  0  0  0  0  0  0  0
   -6.5335   17.6366  -32.1895 H   0  0  0  0  0  0  0  0  0  0  0  0
   -5.5537   20.4112  -32.5682 H   0  0  0  0  0  0  0  0  0  0  0  0
  1  2  1  0
  2  3  1  0
  3  4  1  0
  4  5  2  0
  4  6  1  0
  6  7  1  0
  7  8  1  0
  8  9  1  0
  9 10  2  0
  9 11  1  0
 11 12  1  0
 12 13  1  0
 13 14  1  0
 13 15  2  0
 12 16  2  0
 16 17  1  0
 17 18  2  0
 18 19  1  0
 19 20  2  0
 20 21  1  0
 21 22  1  0
 20 23  1  0
 23 24  2  0
 24 11  1  0
 24 17  1  0
  1 25  1  0
  1 26  1  0
  1 27  1  0
  2 28  1  0
  2 29  1  0
  3 30  1  0
  3 31  1  0
  7 32  1  0
  7 33  1  0
 14 34  1  0
 16 35  1  0
 18 36  1  0
 19 37  1  0
 21 38  1  0
 21 39  1  0
 22 40  1  0
 22 41  1  0
 22 42  1  0
 23 43  1  0
M  CHG  2  14  -1  21   1
M  END
>  <UniqueID>  (74) 
73

>  <SMILES>  (74) 
CCCC(=O)OCOC(=O)n1c(C([NH-])=O)cc2ccc([NH2+]C)cc21

>  <Energy>  (74) 
72.06006137748145

>  <Genealogy>  (74) 
CCCC(=O)OCOC(=O)n1c(C([NH-])=O)cc2ccc([NH2+]C)cc21 (protonated)
CCCC(=O)OCOC(=O)n1c(C([NH-])=O)cc2ccc([NH2+]C)cc21 (3D coordinates assigned)
CCCC(=O)OCOC(=O)n1c(C([NH-])=O)cc2ccc([NH2+]C)cc21 (optimized conformer: 72.06006137748145 kcal/mol)

>  <smiles>  (74) 
CCCC(=O)OCOC(=O)n1c(C(N)=O)cc2ccc(NC)cc21

>  <score_type>  (74) 
oracle

>  <origin>  (74) 
adg

>  <m_score__min__energy>  (74) 
-9.4700000000000006

>  <m_primary>  (74) 
energy

$$$$
77:0
     RDKit          3D

 37 38  0  0  0  0  0  0  0  0999 V2000
   -4.2190   25.5220  -30.5560 N   0  0  0  0  0  0  0  0  0  0  0  0
   -5.5930   25.1630  -30.4040 C   0  0  0  0  0  0  0  0  0  0  0  0
   -6.3730   25.9570  -29.8140 O   0  0  0  0  0  0  0  0  0  0  0  0
   -6.0920   23.8600  -30.8970 C   0  0  0  0  0  0  0  0  0  0  0  0
   -7.4410   23.5680  -31.0930 C   0  0  0  0  0  0  0  0  0  0  0  0
   -7.4640   22.3060  -31.6430 C   0  0  0  0  0  0  0  0  0  0  0  0
   -8.5440   21.5200  -32.0280 C   0  0  0  0  0  0  0  0  0  0  0  0
   -8.2800   20.2400  -32.5410 C   0  0  0  0  0  0  0  0  0  0  0  0
   -6.9440   19.7610  -32.6510 C   0  0  0  0  0  0  0  0  0  0  0  0
   -6.6400   18.4490  -33.1660 N   0  0  0  0  0  0  0  0  0  0  0  0
   -5.4270   18.0870  -33.9020 C   0  0  0  0  0  0  0  0  0  0  0  0
   -5.5550   16.6960  -34.5280 C   0  0  0  0  0  0  0  0  0  0  0  0
   -6.7860   16.1080  -34.2030 O   0  0  0  0  0  0  0  0  0  0  0  0
   -5.8770   20.5980  -32.2520 C   0  0  0  0  0  0  0  0  0  0  0  0
   -6.1700   21.8760  -31.7610 C   0  0  0  0  0  0  0  0  0  0  0  0
   -5.3140   22.8180  -31.3080 N   0  0  0  0  0  0  0  0  0  0  0  0
   -3.8850   22.7030  -31.2060 C   0  0  0  0  0  0  0  0  0  0  0  0
   -3.2120   22.3050  -32.1950 O   0  0  0  0  0  0  0  0  0  0  0  0
   -3.2470   23.0230  -30.0010 O   0  0  0  0  0  0  0  0  0  0  0  0
   -1.8330   22.9960  -29.8330 C   0  0  0  0  0  0  0  0  0  0  0  0
   -1.3450   24.3150  -29.3230 C   0  0  0  0  0  0  0  0  0  0  0  0
   -2.1060   25.3160  -29.3220 O   0  0  0  0  0  0  0  0  0  0  0  0
   -0.0370   24.4430  -28.8740 O   0  0  0  0  0  0  0  0  0  0  0  0
   -3.5550   24.9150  -31.0860 H   0  0  0  0  0  0  0  0  0  0  0  0
   -3.8690   26.4270  -30.1700 H   0  0  0  0  0  0  0  0  0  0  0  0
   -8.3034   24.2093  -30.8582 H   0  0  0  0  0  0  0  0  0  0  0  0
   -9.5755   21.8901  -31.9335 H   0  0  0  0  0  0  0  0  0  0  0  0
   -9.1152   19.5999  -32.8616 H   0  0  0  0  0  0  0  0  0  0  0  0
   -7.3360   17.6850  -33.0070 H   0  0  0  0  0  0  0  0  0  0  0  0
   -5.2572   18.8253  -34.6995 H   0  0  0  0  0  0  0  0  0  0  0  0
   -4.5820   18.0762  -33.1979 H   0  0  0  0  0  0  0  0  0  0  0  0
   -5.4771   16.7855  -35.6216 H   0  0  0  0  0  0  0  0  0  0  0  0
   -4.7488   16.0598  -34.1340 H   0  0  0  0  0  0  0  0  0  0  0  0
   -7.3820   16.2380  -34.9850 H   0  0  0  0  0  0  0  0  0  0  0  0
   -4.8356   20.2516  -32.3259 H   0  0  0  0  0  0  0  0  0  0  0  0
   -1.5682   22.2080  -29.1126 H   0  0  0  0  0  0  0  0  0  0  0  0
   -1.3612   22.7918  -30.8055 H   0  0  0  0  0  0  0  0  0  0  0  0
  1  2  1  0
  2  3  2  0
  2  4  1  0
  4  5  2  0
  5  6  1  0
  6  7  2  0
  7  8  1  0
  8  9  2  0
  9 10  1  0
 10 11  1  0
 11 12  1  0
 12 13  1  0
  9 14  1  0
 14 15  2  0
 15 16  1  0
 16 17  1  0
 17 18  2  0
 17 19  1  0
 19 20  1  0
 20 21  1  0
 21 22  2  0
 21 23  1  0
 16  4  1  0
 15  6  1  0
  1 24  1  0
  1 25  1  0
  5 26  1  0
  7 27  1  0
  8 28  1  0
 10 29  1  0
 11 30  1  0
 11 31  1  0
 12 32  1  0
 12 33  1  0
 13 34  1  0
 14 35  1  0
 20 36  1  0
 20 37  1  0
M  CHG  1  23  -1
M  END
>  <UniqueID>  (75) 
74

>  <SMILES>  (75) 
NC(=O)c1cc2ccc(NCCO)cc2n1C(=O)OCC(=O)[O-]

>  <Energy>  (75) 
72.21974663496897

>  <Genealogy>  (75) 
NC(=O)c1cc2ccc(NCCO)cc2n1C(=O)OCC(=O)[O-] (protonated)
NC(=O)c1cc2ccc(NCCO)cc2n1C(=O)OCC(=O)[O-] (3D coordinates assigned)
NC(=O)c1cc2ccc(NCCO)cc2n1C(=O)OCC(=O)[O-] (optimized conformer: 72.21974663496897 kcal/mol)

>  <smiles>  (75) 
NC(=O)c1cc2ccc(NCCO)cc2n1C(=O)OCC(=O)O

>  <score_type>  (75) 
oracle

>  <origin>  (75) 
adg

>  <m_score__min__energy>  (75) 
-9.4299999999999997

>  <m_primary>  (75) 
energy

$$$$
78:0
     RDKit          3D

 33 34  0  0  0  0  0  0  0  0999 V2000
   -8.7450   21.1980  -31.6020 C   0  0  0  0  0  0  0  0  0  0  0  0
   -7.9690   19.6670  -32.2140 S   0  0  0  0  0  0  0  0  0  0  0  0
   -6.4630   20.4610  -32.8940 C   0  0  0  0  0  0  0  0  0  0  0  0
   -5.2460   19.5280  -32.8720 C   0  0  0  0  0  0  0  0  0  0  0  0
   -4.0330   20.2020  -32.2850 C   0  0  0  0  0  0  0  0  0  0  0  0
   -2.7350   19.7360  -32.6090 C   0  0  0  0  0  0  0  0  0  0  0  0
   -1.5950   20.3720  -32.0870 C   0  0  0  0  0  0  0  0  0  0  0  0
   -1.7860   21.4770  -31.2630 C   0  0  0  0  0  0  0  0  0  0  0  0
   -0.8660   22.2680  -30.6110 C   0  0  0  0  0  0  0  0  0  0  0  0
   -1.6180   23.2200  -29.9240 C   0  0  0  0  0  0  0  0  0  0  0  0
   -1.0230   24.3100  -29.1210 C   0  0  0  0  0  0  0  0  0  0  0  0
   -1.6880   25.5610  -28.9700 N   0  0  0  0  0  0  0  0  0  0  0  0
    0.1040   24.1440  -28.5820 O   0  0  0  0  0  0  0  0  0  0  0  0
   -2.9480   23.0260  -30.1450 N   0  0  0  0  0  0  0  0  0  0  0  0
   -4.0490   23.7480  -29.5710 C   0  0  0  0  0  0  0  0  0  0  0  0
   -4.5400   23.3700  -28.4740 O   0  0  0  0  0  0  0  0  0  0  0  0
   -4.6110   24.9270  -30.2470 C   0  0  0  0  0  0  0  0  0  0  0  0
   -3.8760   25.6720  -30.9470 O   0  0  0  0  0  0  0  0  0  0  0  0
   -5.9590   25.2350  -30.1040 O   0  0  0  0  0  0  0  0  0  0  0  0
   -3.0350   21.9530  -30.9600 C   0  0  0  0  0  0  0  0  0  0  0  0
   -4.1870   21.3250  -31.4440 C   0  0  0  0  0  0  0  0  0  0  0  0
   -8.7437   21.1954  -30.5020 H   0  0  0  0  0  0  0  0  0  0  0  0
   -8.1788   22.0674  -31.9673 H   0  0  0  0  0  0  0  0  0  0  0  0
   -9.7810   21.2553  -31.9673 H   0  0  0  0  0  0  0  0  0  0  0  0
   -6.6604   20.7588  -33.9344 H   0  0  0  0  0  0  0  0  0  0  0  0
   -6.2291   21.3303  -32.2618 H   0  0  0  0  0  0  0  0  0  0  0  0
   -5.4881   18.6416  -32.2672 H   0  0  0  0  0  0  0  0  0  0  0  0
   -5.0120   19.2477  -33.9096 H   0  0  0  0  0  0  0  0  0  0  0  0
   -2.6180   18.8685  -33.2752 H   0  0  0  0  0  0  0  0  0  0  0  0
   -0.5841   20.0077  -32.3225 H   0  0  0  0  0  0  0  0  0  0  0  0
    0.2294   22.1695  -30.6286 H   0  0  0  0  0  0  0  0  0  0  0  0
   -2.6820   25.6800  -29.2660 H   0  0  0  0  0  0  0  0  0  0  0  0
   -5.1871   21.6966  -31.1762 H   0  0  0  0  0  0  0  0  0  0  0  0
  1  2  1  0
  2  3  1  0
  3  4  1  0
  4  5  1  0
  5  6  2  0
  6  7  1  0
  7  8  2  0
  8  9  1  0
  9 10  2  0
 10 11  1  0
 11 12  1  0
 11 13  2  0
 10 14  1  0
 14 15  1  0
 15 16  2  0
 15 17  1  0
 17 18  2  0
 17 19  1  0
 14 20  1  0
 20 21  2  0
 21  5  1  0
 20  8  1  0
  1 22  1  0
  1 23  1  0
  1 24  1  0
  3 25  1  0
  3 26  1  0
  4 27  1  0
  4 28  1  0
  6 29  1  0
  7 30  1  0
  9 31  1  0
 12 32  1  0
 21 33  1  0
M  CHG  2  12  -1  19  -1
M  END
>  <UniqueID>  (76) 
75

>  <SMILES>  (76) 
CSCCc1ccc2cc(C([NH-])=O)n(C(=O)C(=O)[O-])c2c1

>  <Energy>  (76) 
66.80613953553247

>  <Genealogy>  (76) 
CSCCc1ccc2cc(C([NH-])=O)n(C(=O)C(=O)[O-])c2c1 (protonated)
CSCCc1ccc2cc(C([NH-])=O)n(C(=O)C(=O)[O-])c2c1 (3D coordinates assigned)
CSCCc1ccc2cc(C([NH-])=O)n(C(=O)C(=O)[O-])c2c1 (optimized conformer: 66.80613953553247 kcal/mol)

>  <smiles>  (76) 
CSCCc1ccc2cc(C(N)=O)n(C(=O)C(=O)O)c2c1

>  <score_type>  (76) 
oracle

>  <origin>  (76) 
adg

>  <m_score__min__energy>  (76) 
-10.69

>  <m_primary>  (76) 
energy

$$$$
79:0
     RDKit          3D

 52 55  0  0  0  0  0  0  0  0999 V2000
   -5.1540   24.7780  -28.8240 N   0  0  0  0  0  0  0  0  0  0  0  0
   -4.6900   24.5140  -30.1480 C   0  0  0  0  0  0  0  0  0  0  0  0
   -3.8640   25.2980  -30.6850 O   0  0  0  0  0  0  0  0  0  0  0  0
   -5.0810   23.2790  -30.8500 C   0  0  0  0  0  0  0  0  0  0  0  0
   -6.3550   23.0870  -31.3720 C   0  0  0  0  0  0  0  0  0  0  0  0
   -6.3100   21.8650  -31.9940 C   0  0  0  0  0  0  0  0  0  0  0  0
   -7.3020   21.1950  -32.7040 C   0  0  0  0  0  0  0  0  0  0  0  0
   -6.9830   19.9490  -33.2670 C   0  0  0  0  0  0  0  0  0  0  0  0
   -5.6880   19.4020  -33.1140 C   0  0  0  0  0  0  0  0  0  0  0  0
   -5.3560   18.1420  -33.7250 N   0  0  0  0  0  0  0  0  0  0  0  0
   -6.4070   17.2890  -34.2940 C   0  0  0  0  0  0  0  0  0  0  0  0
   -6.4360   15.9640  -33.5340 C   0  0  0  0  0  0  0  0  0  0  0  0
   -5.0390   15.2440  -33.5120 C   0  0  0  0  0  0  0  0  0  0  0  0
   -3.8990   16.1590  -34.0740 C   0  0  0  0  0  0  0  0  0  0  0  0
   -3.9970   17.6080  -33.5700 C   0  0  0  0  0  0  0  0  0  0  0  0
   -5.0640   13.9160  -34.3320 C   0  0  0  0  0  0  0  0  0  0  0  0
   -4.2010   12.9870  -33.6250 N   0  0  0  0  0  0  0  0  0  0  0  0
   -4.0210   13.4730  -32.3120 C   0  0  0  0  0  0  0  0  0  0  0  0
   -3.3840   12.8350  -31.4350 O   0  0  0  0  0  0  0  0  0  0  0  0
   -4.6700   14.7770  -32.0750 C   0  0  0  0  0  0  0  0  0  0  0  0
   -4.7060   20.1150  -32.3910 C   0  0  0  0  0  0  0  0  0  0  0  0
   -5.0490   21.3510  -31.8250 C   0  0  0  0  0  0  0  0  0  0  0  0
   -4.2760   22.2050  -31.1050 N   0  0  0  0  0  0  0  0  0  0  0  0
   -2.9490   21.9600  -30.5850 C   0  0  0  0  0  0  0  0  0  0  0  0
   -2.5470   20.7780  -30.3890 O   0  0  0  0  0  0  0  0  0  0  0  0
   -2.0880   23.0310  -30.3230 O   0  0  0  0  0  0  0  0  0  0  0  0
   -1.0590   22.9880  -29.3420 C   0  0  0  0  0  0  0  0  0  0  0  0
   -1.0400   24.3030  -28.5720 C   0  0  0  0  0  0  0  0  0  0  0  0
   -1.6440   25.3100  -29.3340 O   0  0  0  0  0  0  0  0  0  0  0  0
   -5.7300   24.0730  -28.3120 H   0  0  0  0  0  0  0  0  0  0  0  0
   -4.8730   25.6550  -28.3320 H   0  0  0  0  0  0  0  0  0  0  0  0
   -7.2152   23.7690  -31.3014 H   0  0  0  0  0  0  0  0  0  0  0  0
   -8.3061   21.6288  -32.8206 H   0  0  0  0  0  0  0  0  0  0  0  0
   -7.7465   19.3939  -33.8316 H   0  0  0  0  0  0  0  0  0  0  0  0
   -7.3813   17.7906  -34.1986 H   0  0  0  0  0  0  0  0  0  0  0  0
   -6.2001   17.1032  -35.3583 H   0  0  0  0  0  0  0  0  0  0  0  0
   -6.7467   16.1602  -32.4972 H   0  0  0  0  0  0  0  0  0  0  0  0
   -7.1428   15.2999  -34.0529 H   0  0  0  0  0  0  0  0  0  0  0  0
   -2.9291   15.7434  -33.7633 H   0  0  0  0  0  0  0  0  0  0  0  0
   -4.0008   16.1810  -35.1691 H   0  0  0  0  0  0  0  0  0  0  0  0
   -3.7217   17.6353  -32.5054 H   0  0  0  0  0  0  0  0  0  0  0  0
   -3.3128   18.2279  -34.1680 H   0  0  0  0  0  0  0  0  0  0  0  0
   -6.0888   13.5197  -34.3848 H   0  0  0  0  0  0  0  0  0  0  0  0
   -4.7201   14.0760  -35.3645 H   0  0  0  0  0  0  0  0  0  0  0  0
   -5.5693   14.6646  -31.4517 H   0  0  0  0  0  0  0  0  0  0  0  0
   -4.0297   15.4907  -31.5359 H   0  0  0  0  0  0  0  0  0  0  0  0
   -3.6908   19.7079  -32.2742 H   0  0  0  0  0  0  0  0  0  0  0  0
   -1.2496   22.1577  -28.6461 H   0  0  0  0  0  0  0  0  0  0  0  0
   -0.0873   22.8360  -29.8345 H   0  0  0  0  0  0  0  0  0  0  0  0
   -1.5904   24.1806  -27.6275 H   0  0  0  0  0  0  0  0  0  0  0  0
    0.0023   24.5842  -28.3612 H   0  0  0  0  0  0  0  0  0  0  0  0
   -1.7750   24.9320  -30.2450 H   0  0  0  0  0  0  0  0  0  0  0  0
  1  2  1  0
  2  3  2  0
  2  4  1  0
  4  5  2  0
  5  6  1  0
  6  7  2  0
  7  8  1  0
  8  9  2  0
  9 10  1  0
 10 11  1  0
 11 12  1  0
 12 13  1  0
 13 14  1  0
 14 15  1  0
 13 16  1  0
 16 17  1  0
 17 18  1  0
 18 19  2  0
 18 20  1  0
  9 21  1  0
 21 22  2  0
 22 23  1  0
 23 24  1  0
 24 25  2  0
 24 26  1  0
 26 27  1  0
 27 28  1  0
 28 29  1  0
 23  4  1  0
 22  6  1  0
 15 10  1  0
 20 13  1  0
  1 30  1  0
  1 31  1  0
  5 32  1  0
  7 33  1  0
  8 34  1  0
 11 35  1  0
 11 36  1  0
 12 37  1  0
 12 38  1  0
 14 39  1  0
 14 40  1  0
 15 41  1  0
 15 42  1  0
 16 43  1  0
 16 44  1  0
 20 45  1  0
 20 46  1  0
 21 47  1  0
 27 48  1  0
 27 49  1  0
 28 50  1  0
 28 51  1  0
 29 52  1  0
M  CHG  1  17  -1
M  END
>  <UniqueID>  (77) 
76

>  <SMILES>  (77) 
NC(=O)c1cc2ccc(N3CCC4(CC3)C[N-]C(=O)C4)cc2n1C(=O)OCCO

>  <Energy>  (77) 
109.94847486223891

>  <Genealogy>  (77) 
NC(=O)c1cc2ccc(N3CCC4(CC3)C[N-]C(=O)C4)cc2n1C(=O)OCCO (protonated)
NC(=O)c1cc2ccc(N3CCC4(CC3)C[N-]C(=O)C4)cc2n1C(=O)OCCO (3D coordinates assigned)
NC(=O)c1cc2ccc(N3CCC4(CC3)C[N-]C(=O)C4)cc2n1C(=O)OCCO (nonaromatic ring conformer: 109.94847486223891 kcal/mol)

>  <smiles>  (77) 
NC(=O)c1cc2ccc(N3CCC4(CC3)CNC(=O)C4)cc2n1C(=O)OCCO

>  <score_type>  (77) 
oracle

>  <origin>  (77) 
adg

>  <m_score__min__energy>  (77) 
-10.699999999999999

>  <m_primary>  (77) 
energy

$$$$
80:0
     RDKit          3D

 45 46  0  0  0  0  0  0  0  0999 V2000
   -2.9070   25.2880  -30.4020 H   0  0  0  0  0  0  0  0  0  0  0  0
   -3.8500   25.3020  -30.8500 N   0  0  0  0  0  0  0  0  0  0  0  0
   -4.9950   24.8040  -30.1630 C   0  0  0  0  0  0  0  0  0  0  0  0
   -5.3220   25.3140  -29.0590 O   0  0  0  0  0  0  0  0  0  0  0  0
   -5.7870   23.6870  -30.7170 C   0  0  0  0  0  0  0  0  0  0  0  0
   -7.1810   23.6420  -30.7100 C   0  0  0  0  0  0  0  0  0  0  0  0
   -7.8708   24.4106  -30.3312 H   0  0  0  0  0  0  0  0  0  0  0  0
   -7.5110   22.4310  -31.2780 C   0  0  0  0  0  0  0  0  0  0  0  0
   -8.7570   21.8660  -31.5310 C   0  0  0  0  0  0  0  0  0  0  0  0
   -9.6839   22.3919  -31.2583 H   0  0  0  0  0  0  0  0  0  0  0  0
   -8.7950   20.6020  -32.1460 C   0  0  0  0  0  0  0  0  0  0  0  0
   -9.7654   20.1291  -32.3573 H   0  0  0  0  0  0  0  0  0  0  0  0
   -7.5930   19.9280  -32.4980 C   0  0  0  0  0  0  0  0  0  0  0  0
   -7.6120   18.6350  -33.1280 N   0  0  0  0  0  0  0  0  0  0  0  0
   -8.5160   18.2670  -33.5000 H   0  0  0  0  0  0  0  0  0  0  0  0
   -6.4280   17.7970  -33.2840 C   0  0  0  0  0  0  0  0  0  0  0  0
   -6.0399   17.5223  -32.2921 H   0  0  0  0  0  0  0  0  0  0  0  0
   -6.6946   16.8853  -33.8388 H   0  0  0  0  0  0  0  0  0  0  0  0
   -5.6568   18.3515  -33.8388 H   0  0  0  0  0  0  0  0  0  0  0  0
   -6.3500   20.5400  -32.2250 C   0  0  0  0  0  0  0  0  0  0  0  0
   -5.4066   20.0421  -32.4937 H   0  0  0  0  0  0  0  0  0  0  0  0
   -6.3460   21.7920  -31.6060 C   0  0  0  0  0  0  0  0  0  0  0  0
   -5.2820   22.5510  -31.2730 N   0  0  0  0  0  0  0  0  0  0  0  0
   -3.9090   22.2240  -31.5260 C   0  0  0  0  0  0  0  0  0  0  0  0
   -3.4560   22.3380  -32.6980 O   0  0  0  0  0  0  0  0  0  0  0  0
   -3.0220   21.8110  -30.4150 C   0  0  0  0  0  0  0  0  0  0  0  0
   -1.3730   22.5150  -30.2790 S   0  0  0  0  0  0  0  0  0  0  0  0
   -1.1530   21.9320  -28.5920 C   0  0  0  0  0  0  0  0  0  0  0  0
   -0.8170   20.8954  -28.4421 H   0  0  0  0  0  0  0  0  0  0  0  0
   -1.3740   22.6850  -27.5090 C   0  0  0  0  0  0  0  0  0  0  0  0
   -1.2464   22.2167  -26.5219 H   0  0  0  0  0  0  0  0  0  0  0  0
   -1.7790   24.1070  -27.5530 C   0  0  0  0  0  0  0  0  0  0  0  0
   -0.9310   25.1230  -28.2170 C   0  0  0  0  0  0  0  0  0  0  0  0
   -1.4610   25.9960  -28.9570 O   0  0  0  0  0  0  0  0  0  0  0  0
    0.4560   25.1050  -28.0330 O   0  0  0  0  0  0  0  0  0  0  0  0
    1.0590   25.0550  -26.7460 C   0  0  0  0  0  0  0  0  0  0  0  0
    0.2791   25.1197  -25.9729 H   0  0  0  0  0  0  0  0  0  0  0  0
    1.6079   24.1083  -26.6348 H   0  0  0  0  0  0  0  0  0  0  0  0
    1.7564   25.8984  -26.6348 H   0  0  0  0  0  0  0  0  0  0  0  0
   -2.8900   24.4760  -26.9100 C   0  0  0  0  0  0  0  0  0  0  0  0
   -3.2122   25.5276  -26.9278 H   0  0  0  0  0  0  0  0  0  0  0  0
   -3.4828   23.7283  -26.3627 H   0  0  0  0  0  0  0  0  0  0  0  0
   -3.4180   20.9210  -29.5030 C   0  0  0  0  0  0  0  0  0  0  0  0
   -4.4227   20.4777  -29.5671 H   0  0  0  0  0  0  0  0  0  0  0  0
   -2.7397   20.6306  -28.6871 H   0  0  0  0  0  0  0  0  0  0  0  0
  1  2  1  0
  2  3  1  0
  3  4  2  0
  3  5  1  0
  5  6  2  0
  6  7  1  0
  6  8  1  0
  8  9  2  0
  9 10  1  0
  9 11  1  0
 11 12  1  0
 11 13  2  0
 13 14  1  0
 14 15  1  0
 14 16  1  0
 16 17  1  0
 16 18  1  0
 16 19  1  0
 13 20  1  0
 20 21  1  0
 20 22  2  0
 22 23  1  0
 23 24  1  0
 24 25  2  0
 24 26  1  0
 26 27  1  0
 27 28  1  0
 28 29  1  0
 28 30  2  0
 30 31  1  0
 30 32  1  0
 32 33  1  0
 33 34  2  0
 33 35  1  0
 35 36  1  0
 36 37  1  0
 36 38  1  0
 36 39  1  0
 32 40  2  0
 40 41  1  0
 40 42  1  0
 26 43  2  0
 43 44  1  0
 43 45  1  0
 23  5  1  0
 22  8  1  0
M  CHG  1   2  -1
M  END
>  <UniqueID>  (78) 
77

>  <SMILES>  (78) 
C=C(/C=C\SC(=C)C(=O)n1c(C([NH-])=O)cc2ccc(NC)cc21)C(=O)OC

>  <Energy>  (78) 
79.57487895956702

>  <Genealogy>  (78) 
C=C(/C=C\SC(=C)C(=O)n1c(C([NH-])=O)cc2ccc(NC)cc21)C(=O)OC (protonated)
C=C(/C=C\SC(=C)C(=O)n1c(C([NH-])=O)cc2ccc(NC)cc21)C(=O)OC (cis-trans isomerization)
C=C(/C=C\SC(=C)C(=O)n1c(C([NH-])=O)cc2ccc(NC)cc21)C(=O)OC (3D coordinates assigned)
C=C(/C=C\SC(=C)C(=O)n1c(C([NH-])=O)cc2ccc(NC)cc21)C(=O)OC (optimized conformer: 79.57487895956702 kcal/mol)

>  <smiles>  (78) 
C=C(/C=C\SC(=C)C(=O)n1c(C(N)=O)cc2ccc(NC)cc21)C(=O)OC

>  <score_type>  (78) 
oracle

>  <origin>  (78) 
adg

>  <m_score__min__energy>  (78) 
-11.74

>  <m_primary>  (78) 
energy

$$$$
81:0
     RDKit          3D

 40 42  0  0  0  0  0  0  0  0999 V2000
   -7.6630   18.6640  -32.6990 C   0  0  0  0  0  0  0  0  0  0  0  0
   -7.5990   20.0500  -32.1300 C   0  0  0  0  0  0  0  0  0  0  0  0
   -8.7840   20.6910  -31.6890 C   0  0  0  0  0  0  0  0  0  0  0  0
   -8.7450   22.0070  -31.1980 C   0  0  0  0  0  0  0  0  0  0  0  0
   -7.5130   22.6550  -31.1660 C   0  0  0  0  0  0  0  0  0  0  0  0
   -7.1970   23.9340  -30.7710 C   0  0  0  0  0  0  0  0  0  0  0  0
   -5.8240   24.0540  -30.9710 C   0  0  0  0  0  0  0  0  0  0  0  0
   -5.0490   25.2540  -30.5930 C   0  0  0  0  0  0  0  0  0  0  0  0
   -3.6410   25.2890  -30.8170 N   0  0  0  0  0  0  0  0  0  0  0  0
   -5.6210   26.2650  -30.1070 O   0  0  0  0  0  0  0  0  0  0  0  0
   -5.3110   22.8970  -31.4760 N   0  0  0  0  0  0  0  0  0  0  0  0
   -3.9580   22.6430  -31.8890 C   0  0  0  0  0  0  0  0  0  0  0  0
   -3.7210   22.3150  -33.0840 O   0  0  0  0  0  0  0  0  0  0  0  0
   -2.9150   22.7880  -30.9640 O   0  0  0  0  0  0  0  0  0  0  0  0
   -1.8800   21.8670  -30.7680 C   0  0  0  0  0  0  0  0  0  0  0  0
   -0.9290   21.7700  -31.5910 O   0  0  0  0  0  0  0  0  0  0  0  0
   -1.9190   21.0450  -29.6360 O   0  0  0  0  0  0  0  0  0  0  0  0
   -1.7150   21.5280  -28.3100 C   0  0  0  0  0  0  0  0  0  0  0  0
   -1.1460   22.9130  -28.3440 C   0  0  0  0  0  0  0  0  0  0  0  0
   -1.7960   23.9720  -28.7680 O   0  0  0  0  0  0  0  0  0  0  0  0
   -0.9640   24.9800  -28.6390 C   0  0  0  0  0  0  0  0  0  0  0  0
   -1.2500   26.1660  -28.9530 O   0  0  0  0  0  0  0  0  0  0  0  0
    0.1990   24.6190  -28.1470 O   0  0  0  0  0  0  0  0  0  0  0  0
    0.1160   23.3230  -27.9490 C   0  0  0  0  0  0  0  0  0  0  0  0
    1.2150   22.4780  -27.3940 C   0  0  0  0  0  0  0  0  0  0  0  0
   -6.3580   22.0490  -31.5880 C   0  0  0  0  0  0  0  0  0  0  0  0
   -6.3700   20.7450  -32.0980 C   0  0  0  0  0  0  0  0  0  0  0  0
   -7.6968   17.9320  -31.8786 H   0  0  0  0  0  0  0  0  0  0  0  0
   -8.5668   18.5631  -33.3179 H   0  0  0  0  0  0  0  0  0  0  0  0
   -6.7724   18.4802  -33.3179 H   0  0  0  0  0  0  0  0  0  0  0  0
   -9.7427   20.1533  -31.7316 H   0  0  0  0  0  0  0  0  0  0  0  0
   -9.6594   22.5097  -30.8497 H   0  0  0  0  0  0  0  0  0  0  0  0
   -7.8832   24.6997  -30.3800 H   0  0  0  0  0  0  0  0  0  0  0  0
   -2.9700   25.2930  -30.0150 H   0  0  0  0  0  0  0  0  0  0  0  0
   -2.6773   21.5438  -27.7773 H   0  0  0  0  0  0  0  0  0  0  0  0
   -1.0086   20.8632  -27.7913 H   0  0  0  0  0  0  0  0  0  0  0  0
    1.1793   22.5055  -26.2949 H   0  0  0  0  0  0  0  0  0  0  0  0
    1.0902   21.4410  -27.7391 H   0  0  0  0  0  0  0  0  0  0  0  0
    2.1851   22.8651  -27.7391 H   0  0  0  0  0  0  0  0  0  0  0  0
   -5.4459   20.2740  -32.4643 H   0  0  0  0  0  0  0  0  0  0  0  0
  1  2  1  0
  2  3  2  0
  3  4  1  0
  4  5  2  0
  5  6  1  0
  6  7  2  0
  7  8  1  0
  8  9  1  0
  8 10  2  0
  7 11  1  0
 11 12  1  0
 12 13  2  0
 12 14  1  0
 14 15  1  0
 15 16  2  0
 15 17  1  0
 17 18  1  0
 18 19  1  0
 19 20  1  0
 20 21  1  0
 21 22  2  0
 21 23  1  0
 23 24  1  0
 24 25  1  0
 11 26  1  0
 26 27  2  0
 27  2  1  0
 26  5  1  0
 24 19  2  0
  1 28  1  0
  1 29  1  0
  1 30  1  0
  3 31  1  0
  4 32  1  0
  6 33  1  0
  9 34  1  0
 18 35  1  0
 18 36  1  0
 25 37  1  0
 25 38  1  0
 25 39  1  0
 27 40  1  0
M  CHG  1   9  -1
M  END
>  <UniqueID>  (79) 
78

>  <SMILES>  (79) 
Cc1ccc2cc(C([NH-])=O)n(C(=O)OC(=O)OCc3oc(=O)oc3C)c2c1

>  <Energy>  (79) 
111.29227882721703

>  <Genealogy>  (79) 
Cc1ccc2cc(C([NH-])=O)n(C(=O)OC(=O)OCc3oc(=O)oc3C)c2c1 (protonated)
Cc1ccc2cc(C([NH-])=O)n(C(=O)OC(=O)OCc3oc(=O)oc3C)c2c1 (3D coordinates assigned)
Cc1ccc2cc(C([NH-])=O)n(C(=O)OC(=O)OCc3oc(=O)oc3C)c2c1 (optimized conformer: 111.29227882721703 kcal/mol)

>  <smiles>  (79) 
Cc1ccc2cc(C(N)=O)n(C(=O)OC(=O)OCc3oc(=O)oc3C)c2c1

>  <score_type>  (79) 
oracle

>  <origin>  (79) 
adg

>  <m_score__min__energy>  (79) 
-10.390000000000001

>  <m_primary>  (79) 
energy

$$$$
82:0
     RDKit          3D

 44 46  0  0  0  0  0  0  0  0999 V2000
   -9.8710   21.6760  -31.4580 C   0  0  0  0  0  0  0  0  0  0  0  0
   -8.5050   21.9150  -31.9450 N   0  0  0  0  0  0  0  0  0  0  0  0
   -8.0650   23.3110  -32.1160 C   0  0  0  0  0  0  0  0  0  0  0  0
   -6.9970   23.6960  -31.0850 C   0  0  0  0  0  0  0  0  0  0  0  0
   -5.7900   24.0360  -31.7130 O   0  0  0  0  0  0  0  0  0  0  0  0
   -7.6440   20.7920  -32.2760 C   0  0  0  0  0  0  0  0  0  0  0  0
   -8.1780   19.4830  -32.4590 C   0  0  0  0  0  0  0  0  0  0  0  0
   -7.3470   18.3970  -32.7790 C   0  0  0  0  0  0  0  0  0  0  0  0
   -5.9870   18.6340  -32.9210 C   0  0  0  0  0  0  0  0  0  0  0  0
   -4.9570   17.7630  -33.2040 C   0  0  0  0  0  0  0  0  0  0  0  0
   -3.8050   18.5470  -33.2180 C   0  0  0  0  0  0  0  0  0  0  0  0
   -2.4580   18.0170  -33.5160 C   0  0  0  0  0  0  0  0  0  0  0  0
   -1.5320   18.7410  -34.3280 N   0  0  0  0  0  0  0  0  0  0  0  0
   -2.1280   16.8860  -33.0700 O   0  0  0  0  0  0  0  0  0  0  0  0
   -4.1110   19.8450  -32.9360 N   0  0  0  0  0  0  0  0  0  0  0  0
   -3.2120   20.9480  -32.7560 C   0  0  0  0  0  0  0  0  0  0  0  0
   -2.4020   21.2420  -33.6750 O   0  0  0  0  0  0  0  0  0  0  0  0
   -3.2490   21.7600  -31.5290 C   0  0  0  0  0  0  0  0  0  0  0  0
   -4.2830   21.8060  -30.7630 N   0  0  0  0  0  0  0  0  0  0  0  0
   -4.0160   22.5980  -29.6780 O   0  0  0  0  0  0  0  0  0  0  0  0
   -2.6980   23.1230  -29.6920 C   0  0  2  0  0  0  0  0  0  0  0  0
   -2.7400   24.6220  -29.7050 C   0  0  0  0  0  0  0  0  0  0  0  0
   -1.8990   25.2820  -29.0410 O   0  0  0  0  0  0  0  0  0  0  0  0
   -3.6760   25.2880  -30.4850 O   0  0  0  0  0  0  0  0  0  0  0  0
   -2.1000   22.5500  -30.9890 C   0  0  0  0  0  0  0  0  0  0  0  0
   -5.4490   19.8820  -32.7650 C   0  0  0  0  0  0  0  0  0  0  0  0
   -6.2450   20.9810  -32.4350 C   0  0  0  0  0  0  0  0  0  0  0  0
   -9.8733   21.6756  -30.3580 H   0  0  0  0  0  0  0  0  0  0  0  0
  -10.5358   22.4715  -31.8258 H   0  0  0  0  0  0  0  0  0  0  0  0
  -10.2262   20.7021  -31.8258 H   0  0  0  0  0  0  0  0  0  0  0  0
   -7.6465   23.4323  -33.1260 H   0  0  0  0  0  0  0  0  0  0  0  0
   -8.9361   23.9668  -31.9707 H   0  0  0  0  0  0  0  0  0  0  0  0
   -7.3542   24.5578  -30.5021 H   0  0  0  0  0  0  0  0  0  0  0  0
   -6.8182   22.8326  -30.4273 H   0  0  0  0  0  0  0  0  0  0  0  0
   -5.0630   23.7780  -31.0900 H   0  0  0  0  0  0  0  0  0  0  0  0
   -9.2602   19.3206  -32.3476 H   0  0  0  0  0  0  0  0  0  0  0  0
   -7.7623   17.3873  -32.9133 H   0  0  0  0  0  0  0  0  0  0  0  0
   -5.0290   16.6797  -33.3811 H   0  0  0  0  0  0  0  0  0  0  0  0
   -0.5600   18.3800  -34.4570 H   0  0  0  0  0  0  0  0  0  0  0  0
   -1.8310   19.5690  -34.8870 H   0  0  0  0  0  0  0  0  0  0  0  0
   -2.1012   22.8530  -28.8083 H   0  0  0  0  0  0  0  0  0  0  0  0
   -1.8032   23.3511  -31.6819 H   0  0  0  0  0  0  0  0  0  0  0  0
   -1.1846   21.9595  -30.8360 H   0  0  0  0  0  0  0  0  0  0  0  0
   -5.7963   21.9763  -32.3005 H   0  0  0  0  0  0  0  0  0  0  0  0
  1  2  1  0
  2  3  1  0
  3  4  1  0
  4  5  1  0
  2  6  1  0
  6  7  2  0
  7  8  1  0
  8  9  2  0
  9 10  1  0
 10 11  2  0
 11 12  1  0
 12 13  1  0
 12 14  2  0
 11 15  1  0
 15 16  1  0
 16 17  2  0
 16 18  1  0
 18 19  2  0
 19 20  1  0
 20 21  1  0
 21 22  1  0
 22 23  2  0
 22 24  1  0
 21 25  1  0
 15 26  1  0
 26 27  2  0
 27  6  1  0
 26  9  1  0
 25 18  1  0
  1 28  1  0
  1 29  1  0
  1 30  1  0
  3 31  1  0
  3 32  1  0
  4 33  1  0
  4 34  1  0
  5 35  1  0
  7 36  1  0
  8 37  1  0
 10 38  1  0
 13 39  1  0
 13 40  1  0
 21 41  1  1
 25 42  1  0
 25 43  1  0
 27 44  1  0
M  CHG  1  24  -1
M  END
>  <UniqueID>  (80) 
79

>  <SMILES>  (80) 
CN(CCO)c1ccc2cc(C(N)=O)n(C(=O)C3=NO[C@H](C(=O)[O-])C3)c2c1

>  <Energy>  (80) 
98.95058492700804

>  <Genealogy>  (80) 
CN(CCO)c1ccc2cc(C(N)=O)n(C(=O)C3=NOC(C(=O)[O-])C3)c2c1 (protonated)
CN(CCO)c1ccc2cc(C(N)=O)n(C(=O)C3=NO[C@H](C(=O)[O-])C3)c2c1 (chirality)
CN(CCO)c1ccc2cc(C(N)=O)n(C(=O)C3=NO[C@H](C(=O)[O-])C3)c2c1 (3D coordinates assigned)
CN(CCO)c1ccc2cc(C(N)=O)n(C(=O)C3=NO[C@H](C(=O)[O-])C3)c2c1 (nonaromatic ring conformer: 98.95058492700804 kcal/mol)

>  <smiles>  (80) 
CN(CCO)c1ccc2cc(C(N)=O)n(C(=O)C3=NOC(C(=O)O)C3)c2c1

>  <score_type>  (80) 
oracle

>  <origin>  (80) 
adg

>  <m_score__min__energy>  (80) 
-10.619999999999999

>  <m_primary>  (80) 
energy

$$$$
83:0
     RDKit          3D

 43 44  0  0  0  0  0  0  0  0999 V2000
   -7.4760   18.4400  -32.7160 C   0  0  0  0  0  0  0  0  0  0  0  0
   -7.5110   19.8700  -32.2680 C   0  0  0  0  0  0  0  0  0  0  0  0
   -8.7520   20.5010  -32.0040 C   0  0  0  0  0  0  0  0  0  0  0  0
   -8.7980   21.8340  -31.5630 C   0  0  0  0  0  0  0  0  0  0  0  0
   -7.5910   22.5020  -31.3780 C   0  0  0  0  0  0  0  0  0  0  0  0
   -7.3460   23.8000  -30.9920 C   0  0  0  0  0  0  0  0  0  0  0  0
   -5.9580   23.9300  -30.9920 C   0  0  0  0  0  0  0  0  0  0  0  0
   -5.2530   25.1600  -30.5710 C   0  0  0  0  0  0  0  0  0  0  0  0
   -3.8670   25.3420  -30.8450 N   0  0  0  0  0  0  0  0  0  0  0  0
   -5.8750   26.0450  -29.9250 O   0  0  0  0  0  0  0  0  0  0  0  0
   -5.3700   22.7580  -31.3640 N   0  0  0  0  0  0  0  0  0  0  0  0
   -3.9760   22.4970  -31.5790 C   0  0  0  0  0  0  0  0  0  0  0  0
   -3.5440   22.3170  -32.7510 O   0  0  0  0  0  0  0  0  0  0  0  0
   -3.1090   22.4120  -30.4840 O   0  0  0  0  0  0  0  0  0  0  0  0
   -1.6950   22.3200  -30.6270 C   0  0  0  0  0  0  0  0  0  0  0  0
   -1.0570   23.1090  -29.6270 O   0  0  0  0  0  0  0  0  0  0  0  0
   -1.7290   24.1010  -28.9030 C   0  0  0  0  0  0  0  0  0  0  0  0
   -1.6730   25.3050  -29.2800 O   0  0  0  0  0  0  0  0  0  0  0  0
   -2.4890   23.7450  -27.6400 C   0  0  0  0  0  0  0  0  0  0  0  0
   -2.2480   24.8280  -26.5690 C   0  0  0  0  0  0  0  0  0  0  0  0
   -1.9900   22.3850  -27.1230 C   0  0  0  0  0  0  0  0  0  0  0  0
   -4.0020   23.6580  -27.9270 C   0  0  0  0  0  0  0  0  0  0  0  0
   -6.3820   21.8950  -31.5960 C   0  0  0  0  0  0  0  0  0  0  0  0
   -6.3060   20.5740  -32.0520 C   0  0  0  0  0  0  0  0  0  0  0  0
   -7.4599   17.7803  -31.8359 H   0  0  0  0  0  0  0  0  0  0  0  0
   -8.3691   18.2232  -33.3204 H   0  0  0  0  0  0  0  0  0  0  0  0
   -6.5734   18.2671  -33.3204 H   0  0  0  0  0  0  0  0  0  0  0  0
   -9.6885   19.9416  -32.1458 H   0  0  0  0  0  0  0  0  0  0  0  0
   -9.7583   22.3344  -31.3698 H   0  0  0  0  0  0  0  0  0  0  0  0
   -8.0879   24.5712  -30.7375 H   0  0  0  0  0  0  0  0  0  0  0  0
   -3.1780   24.5790  -30.6610 H   0  0  0  0  0  0  0  0  0  0  0  0
   -1.3843   21.2705  -30.5175 H   0  0  0  0  0  0  0  0  0  0  0  0
   -1.4055   22.6902  -31.6216 H   0  0  0  0  0  0  0  0  0  0  0  0
   -2.3472   24.3824  -25.5682 H   0  0  0  0  0  0  0  0  0  0  0  0
   -1.2358   25.2420  -26.6874 H   0  0  0  0  0  0  0  0  0  0  0  0
   -2.9892   25.6321  -26.6874 H   0  0  0  0  0  0  0  0  0  0  0  0
   -1.9911   22.3881  -26.0230 H   0  0  0  0  0  0  0  0  0  0  0  0
   -2.6542   21.5878  -27.4881 H   0  0  0  0  0  0  0  0  0  0  0  0
   -0.9678   22.2065  -27.4881 H   0  0  0  0  0  0  0  0  0  0  0  0
   -4.5543   23.6262  -26.9762 H   0  0  0  0  0  0  0  0  0  0  0  0
   -4.3169   24.5395  -28.5047 H   0  0  0  0  0  0  0  0  0  0  0  0
   -4.2138   22.7462  -28.5047 H   0  0  0  0  0  0  0  0  0  0  0  0
   -5.3326   20.0964  -32.2374 H   0  0  0  0  0  0  0  0  0  0  0  0
  1  2  1  0
  2  3  2  0
  3  4  1  0
  4  5  2  0
  5  6  1  0
  6  7  2  0
  7  8  1  0
  8  9  1  0
  8 10  2  0
  7 11  1  0
 11 12  1  0
 12 13  2  0
 12 14  1  0
 14 15  1  0
 15 16  1  0
 16 17  1  0
 17 18  2  0
 17 19  1  0
 19 20  1  0
 19 21  1  0
 19 22  1  0
 11 23  1  0
 23 24  2  0
 24  2  1  0
 23  5  1  0
  1 25  1  0
  1 26  1  0
  1 27  1  0
  3 28  1  0
  4 29  1  0
  6 30  1  0
  9 31  1  0
 15 32  1  0
 15 33  1  0
 20 34  1  0
 20 35  1  0
 20 36  1  0
 21 37  1  0
 21 38  1  0
 21 39  1  0
 22 40  1  0
 22 41  1  0
 22 42  1  0
 24 43  1  0
M  CHG  1   9  -1
M  END
>  <UniqueID>  (81) 
80

>  <SMILES>  (81) 
Cc1ccc2cc(C([NH-])=O)n(C(=O)OCOC(=O)C(C)(C)C)c2c1

>  <Energy>  (81) 
72.18136584569528

>  <Genealogy>  (81) 
Cc1ccc2cc(C([NH-])=O)n(C(=O)OCOC(=O)C(C)(C)C)c2c1 (protonated)
Cc1ccc2cc(C([NH-])=O)n(C(=O)OCOC(=O)C(C)(C)C)c2c1 (3D coordinates assigned)
Cc1ccc2cc(C([NH-])=O)n(C(=O)OCOC(=O)C(C)(C)C)c2c1 (optimized conformer: 72.18136584569528 kcal/mol)

>  <smiles>  (81) 
Cc1ccc2cc(C(N)=O)n(C(=O)OCOC(=O)C(C)(C)C)c2c1

>  <score_type>  (81) 
oracle

>  <origin>  (81) 
adg

>  <m_score__min__energy>  (81) 
-10.720000000000001

>  <m_primary>  (81) 
energy

$$$$
84:0
     RDKit          3D

 30 31  0  0  0  0  0  0  0  0999 V2000
   -3.9530   25.6670  -30.8480 N   0  0  0  0  0  0  0  0  0  0  0  0
   -5.2600   25.1650  -30.5790 C   0  0  0  0  0  0  0  0  0  0  0  0
   -6.0640   25.8650  -29.9090 O   0  0  0  0  0  0  0  0  0  0  0  0
   -5.6400   23.8160  -31.0490 C   0  0  0  0  0  0  0  0  0  0  0  0
   -6.9470   23.4540  -31.3700 C   0  0  0  0  0  0  0  0  0  0  0  0
   -6.8640   22.1650  -31.8410 C   0  0  0  0  0  0  0  0  0  0  0  0
   -7.8660   21.3100  -32.2900 C   0  0  0  0  0  0  0  0  0  0  0  0
   -7.4970   20.0160  -32.6930 C   0  0  0  0  0  0  0  0  0  0  0  0
   -6.1410   19.6010  -32.6360 C   0  0  0  0  0  0  0  0  0  0  0  0
   -5.7530   18.2110  -33.0510 C   0  0  0  0  0  0  0  0  0  0  0  0
   -6.3260   17.9140  -34.2740 F   0  0  0  0  0  0  0  0  0  0  0  0
   -6.1940   17.3010  -32.1070 F   0  0  0  0  0  0  0  0  0  0  0  0
   -5.1530   20.4970  -32.1730 C   0  0  0  0  0  0  0  0  0  0  0  0
   -5.5480   21.7850  -31.7950 C   0  0  0  0  0  0  0  0  0  0  0  0
   -4.7830   22.7880  -31.3070 N   0  0  0  0  0  0  0  0  0  0  0  0
   -3.3720   22.7340  -31.0440 C   0  0  0  0  0  0  0  0  0  0  0  0
   -2.5810   22.3250  -31.9370 O   0  0  0  0  0  0  0  0  0  0  0  0
   -2.8840   23.1160  -29.7890 O   0  0  0  0  0  0  0  0  0  0  0  0
   -1.5090   23.0320  -29.4240 C   0  0  0  0  0  0  0  0  0  0  0  0
   -0.9750   24.3900  -29.0950 C   0  0  0  0  0  0  0  0  0  0  0  0
   -1.6750   25.4150  -29.3030 O   0  0  0  0  0  0  0  0  0  0  0  0
    0.3080   24.5240  -28.5810 O   0  0  0  0  0  0  0  0  0  0  0  0
   -3.1050   25.1660  -30.5010 H   0  0  0  0  0  0  0  0  0  0  0  0
   -7.8531   24.0693  -31.2681 H   0  0  0  0  0  0  0  0  0  0  0  0
   -8.9154   21.6377  -32.3282 H   0  0  0  0  0  0  0  0  0  0  0  0
   -8.2659   19.3181  -33.0560 H   0  0  0  0  0  0  0  0  0  0  0  0
   -4.6576   18.1524  -33.1331 H   0  0  0  0  0  0  0  0  0  0  0  0
   -4.0985   20.1900  -32.1109 H   0  0  0  0  0  0  0  0  0  0  0  0
   -1.4062   22.3789  -28.5448 H   0  0  0  0  0  0  0  0  0  0  0  0
   -0.9392   22.6187  -30.2693 H   0  0  0  0  0  0  0  0  0  0  0  0
  1  2  1  0
  2  3  2  0
  2  4  1  0
  4  5  2  0
  5  6  1  0
  6  7  2  0
  7  8  1  0
  8  9  2  0
  9 10  1  0
 10 11  1  0
 10 12  1  0
  9 13  1  0
 13 14  2  0
 14 15  1  0
 15 16  1  0
 16 17  2  0
 16 18  1  0
 18 19  1  0
 19 20  1  0
 20 21  2  0
 20 22  1  0
 15  4  1  0
 14  6  1  0
  1 23  1  0
  5 24  1  0
  7 25  1  0
  8 26  1  0
 10 27  1  0
 13 28  1  0
 19 29  1  0
 19 30  1  0
M  CHG  2   1  -1  22  -1
M  END
>  <UniqueID>  (82) 
81

>  <SMILES>  (82) 
[NH-]C(=O)c1cc2ccc(C(F)F)cc2n1C(=O)OCC(=O)[O-]

>  <Energy>  (82) 
66.61302495654306

>  <Genealogy>  (82) 
[NH-]C(=O)c1cc2ccc(C(F)F)cc2n1C(=O)OCC(=O)[O-] (protonated)
[NH-]C(=O)c1cc2ccc(C(F)F)cc2n1C(=O)OCC(=O)[O-] (3D coordinates assigned)
[NH-]C(=O)c1cc2ccc(C(F)F)cc2n1C(=O)OCC(=O)[O-] (optimized conformer: 66.61302495654306 kcal/mol)

>  <smiles>  (82) 
NC(=O)c1cc2ccc(C(F)F)cc2n1C(=O)OCC(=O)O

>  <score_type>  (82) 
oracle

>  <origin>  (82) 
adg

>  <m_score__min__energy>  (82) 
-11.48

>  <m_primary>  (82) 
energy

$$$$
85:0
     RDKit          3D

 62 65  0  0  0  0  0  0  0  0999 V2000
   -5.7370   25.1900  -28.9980 N   0  0  0  0  0  0  0  0  0  0  0  0
   -5.2020   24.7890  -30.2610 C   0  0  0  0  0  0  0  0  0  0  0  0
   -4.3040   25.4850  -30.8040 O   0  0  0  0  0  0  0  0  0  0  0  0
   -5.7250   23.6030  -30.9600 C   0  0  0  0  0  0  0  0  0  0  0  0
   -7.0840   23.3300  -31.0530 C   0  0  0  0  0  0  0  0  0  0  0  0
   -7.1660   22.1180  -31.6930 C   0  0  0  0  0  0  0  0  0  0  0  0
   -8.2890   21.3660  -32.0220 C   0  0  0  0  0  0  0  0  0  0  0  0
   -8.0930   20.1340  -32.6650 C   0  0  0  0  0  0  0  0  0  0  0  0
   -6.7860   19.6720  -32.9580 C   0  0  0  0  0  0  0  0  0  0  0  0
   -6.5960   18.4050  -33.6170 N   0  0  0  0  0  0  0  0  0  0  0  0
   -7.2350   17.1950  -33.0730 C   0  0  0  0  0  0  0  0  0  0  0  0
   -6.5960   15.9190  -33.6410 C   0  0  0  0  0  0  0  0  0  0  0  0
   -5.0610   16.0700  -33.6910 C   0  0  0  0  0  0  0  0  0  0  0  0
   -4.3940   14.7880  -34.0460 N   0  0  0  0  0  0  0  0  0  0  0  0
   -3.0540   14.9220  -34.6640 C   0  0  0  0  0  0  0  0  0  0  0  0
   -2.3680   13.5530  -34.7600 C   0  0  0  0  0  0  0  0  0  0  0  0
   -2.1510   12.9340  -33.4300 N   0  0  0  0  0  0  0  0  0  0  0  0
   -0.7470   13.0750  -32.9880 C   0  0  0  0  0  0  0  0  0  0  0  0
   -0.5790   14.2650  -32.0910 C   0  0  0  0  0  0  0  0  0  0  0  0
   -0.1270   14.1180  -30.9240 O   0  0  0  0  0  0  0  0  0  0  0  0
   -0.8920   15.5360  -32.5530 O   0  0  0  0  0  0  0  0  0  0  0  0
   -3.0970   13.4120  -32.3900 C   0  0  0  0  0  0  0  0  0  0  0  0
   -4.4740   13.7590  -32.9780 C   0  0  0  0  0  0  0  0  0  0  0  0
   -4.6170   17.2750  -34.5750 C   0  0  0  0  0  0  0  0  0  0  0  0
   -5.7450   18.2920  -34.8100 C   0  0  0  0  0  0  0  0  0  0  0  0
   -5.6700   20.4700  -32.6160 C   0  0  0  0  0  0  0  0  0  0  0  0
   -5.8890   21.7020  -31.9800 C   0  0  0  0  0  0  0  0  0  0  0  0
   -4.9810   22.6160  -31.5450 N   0  0  0  0  0  0  0  0  0  0  0  0
   -3.5540   22.6270  -31.7760 C   0  0  0  0  0  0  0  0  0  0  0  0
   -2.7800   23.1730  -30.9440 O   0  0  0  0  0  0  0  0  0  0  0  0
   -3.0230   21.9970  -32.9100 O   0  0  0  0  0  0  0  0  0  0  0  0
   -2.2760   20.8120  -32.9010 C   0  0  0  0  0  0  0  0  0  0  0  0
   -2.8100   19.7070  -32.6120 O   0  0  0  0  0  0  0  0  0  0  0  0
   -0.8210   20.8690  -33.2380 C   0  0  0  0  0  0  0  0  0  0  0  0
   -0.0900   21.1420  -32.0970 F   0  0  0  0  0  0  0  0  0  0  0  0
   -0.4210   19.6480  -33.7490 F   0  0  0  0  0  0  0  0  0  0  0  0
   -0.5770   21.8550  -34.1780 F   0  0  0  0  0  0  0  0  0  0  0  0
   -5.3880   26.0490  -28.5230 H   0  0  0  0  0  0  0  0  0  0  0  0
   -6.5340   24.6680  -28.5710 H   0  0  0  0  0  0  0  0  0  0  0  0
   -7.9162   23.9518  -30.6913 H   0  0  0  0  0  0  0  0  0  0  0  0
   -9.3010   21.7263  -31.7852 H   0  0  0  0  0  0  0  0  0  0  0  0
   -8.9626   19.5210  -32.9443 H   0  0  0  0  0  0  0  0  0  0  0  0
   -7.1248   17.1936  -31.9785 H   0  0  0  0  0  0  0  0  0  0  0  0
   -8.2971   17.2066  -33.3589 H   0  0  0  0  0  0  0  0  0  0  0  0
   -6.8566   15.0649  -32.9986 H   0  0  0  0  0  0  0  0  0  0  0  0
   -6.9740   15.7507  -34.6602 H   0  0  0  0  0  0  0  0  0  0  0  0
   -4.7172   16.3149  -32.6752 H   0  0  0  0  0  0  0  0  0  0  0  0
   -3.1616   15.3447  -35.6738 H   0  0  0  0  0  0  0  0  0  0  0  0
   -2.4384   15.5857  -34.0390 H   0  0  0  0  0  0  0  0  0  0  0  0
   -2.9992   12.8832  -35.3624 H   0  0  0  0  0  0  0  0  0  0  0  0
   -1.3822   13.7041  -35.2241 H   0  0  0  0  0  0  0  0  0  0  0  0
   -0.4501   12.1681  -32.4408 H   0  0  0  0  0  0  0  0  0  0  0  0
   -0.1140   13.2158  -33.8765 H   0  0  0  0  0  0  0  0  0  0  0  0
   -3.2225   12.6224  -31.6345 H   0  0  0  0  0  0  0  0  0  0  0  0
   -2.6780   14.3265  -31.9449 H   0  0  0  0  0  0  0  0  0  0  0  0
   -4.9172   12.8454  -33.4010 H   0  0  0  0  0  0  0  0  0  0  0  0
   -5.0908   14.1690  -32.1647 H   0  0  0  0  0  0  0  0  0  0  0  0
   -3.7810   17.7871  -34.0761 H   0  0  0  0  0  0  0  0  0  0  0  0
   -4.3242   16.8741  -35.5566 H   0  0  0  0  0  0  0  0  0  0  0  0
   -5.3048   19.2748  -35.0345 H   0  0  0  0  0  0  0  0  0  0  0  0
   -6.3613   17.9494  -35.6543 H   0  0  0  0  0  0  0  0  0  0  0  0
   -4.6486   20.1315  -32.8442 H   0  0  0  0  0  0  0  0  0  0  0  0
  1  2  1  0
  2  3  2  0
  2  4  1  0
  4  5  2  0
  5  6  1  0
  6  7  2  0
  7  8  1  0
  8  9  2  0
  9 10  1  0
 10 11  1  0
 11 12  1  0
 12 13  1  0
 13 14  1  0
 14 15  1  0
 15 16  1  0
 16 17  1  0
 17 18  1  0
 18 19  1  0
 19 20  2  0
 19 21  1  0
 17 22  1  0
 22 23  1  0
 13 24  1  0
 24 25  1  0
  9 26  1  0
 26 27  2  0
 27 28  1  0
 28 29  1  0
 29 30  2  0
 29 31  1  0
 31 32  1  0
 32 33  2  0
 32 34  1  0
 34 35  1  0
 34 36  1  0
 34 37  1  0
 28  4  1  0
 27  6  1  0
 25 10  1  0
 23 14  1  0
  1 38  1  0
  1 39  1  0
  5 40  1  0
  7 41  1  0
  8 42  1  0
 11 43  1  0
 11 44  1  0
 12 45  1  0
 12 46  1  0
 13 47  1  0
 15 48  1  0
 15 49  1  0
 16 50  1  0
 16 51  1  0
 18 52  1  0
 18 53  1  0
 22 54  1  0
 22 55  1  0
 23 56  1  0
 23 57  1  0
 24 58  1  0
 24 59  1  0
 25 60  1  0
 25 61  1  0
 26 62  1  0
M  CHG  1  21  -1
M  END
>  <UniqueID>  (83) 
82

>  <SMILES>  (83) 
NC(=O)c1cc2ccc(N3CCC(N4CCN(CC(=O)[O-])CC4)CC3)cc2n1C(=O)OC(=O)C(F)(F)F

>  <Energy>  (83) 
129.59622512752102

>  <Genealogy>  (83) 
NC(=O)c1cc2ccc(N3CCC(N4CCN(CC(=O)[O-])CC4)CC3)cc2n1C(=O)OC(=O)C(F)(F)F (protonated)
NC(=O)c1cc2ccc(N3CCC(N4CCN(CC(=O)[O-])CC4)CC3)cc2n1C(=O)OC(=O)C(F)(F)F (3D coordinates assigned)
NC(=O)c1cc2ccc(N3CCC(N4CCN(CC(=O)[O-])CC4)CC3)cc2n1C(=O)OC(=O)C(F)(F)F (nonaromatic ring conformer: 129.59622512752102 kcal/mol)

>  <smiles>  (83) 
NC(=O)c1cc2ccc(N3CCC(N4CCN(CC(=O)O)CC4)CC3)cc2n1C(=O)OC(=O)C(F)(F)F

>  <score_type>  (83) 
oracle

>  <origin>  (83) 
adg

>  <m_score__min__energy>  (83) 
-9.3100000000000005

>  <m_primary>  (83) 
energy

$$$$
86:0
     RDKit          3D

 55 56  0  0  0  0  0  0  0  0999 V2000
   -2.8730   15.8900  -33.5370 C   0  0  0  0  0  0  0  0  0  0  0  0
   -3.1360   16.7880  -34.5940 O   0  0  0  0  0  0  0  0  0  0  0  0
   -2.2060   17.8560  -34.5800 C   0  0  0  0  0  0  0  0  0  0  0  0
   -2.3020   18.5950  -33.2460 C   0  0  0  0  0  0  0  0  0  0  0  0
   -3.6660   18.8240  -32.8920 O   0  0  0  0  0  0  0  0  0  0  0  0
   -4.3120   20.0550  -33.0610 C   0  0  0  0  0  0  0  0  0  0  0  0
   -3.6740   21.0600  -33.4780 O   0  0  0  0  0  0  0  0  0  0  0  0
   -5.7130   20.1650  -32.7740 N   0  0  0  0  0  0  0  0  0  0  0  0
   -6.6900   19.2570  -33.0510 C   0  0  0  0  0  0  0  0  0  0  0  0
   -6.4760   17.8800  -33.5400 C   0  0  0  0  0  0  0  0  0  0  0  0
   -5.4310   17.5740  -34.4640 N   0  0  0  0  0  0  0  0  0  0  0  0
   -7.1970   16.9470  -33.0960 O   0  0  0  0  0  0  0  0  0  0  0  0
   -7.9480   19.7950  -32.7870 C   0  0  0  0  0  0  0  0  0  0  0  0
   -7.7110   21.0710  -32.3280 C   0  0  0  0  0  0  0  0  0  0  0  0
   -8.6040   22.0720  -31.9600 C   0  0  0  0  0  0  0  0  0  0  0  0
   -8.0780   23.3230  -31.5920 C   0  0  0  0  0  0  0  0  0  0  0  0
   -6.6790   23.5470  -31.6000 C   0  0  0  0  0  0  0  0  0  0  0  0
   -6.1240   24.9040  -31.2670 C   0  0  0  0  0  0  0  0  0  0  0  0
   -5.1920   24.8190  -30.0530 C   0  0  0  0  0  0  0  0  0  0  0  0
   -3.8100   25.0540  -30.4540 N   0  0  0  0  0  0  0  0  0  0  0  0
   -2.6990   24.5450  -29.7120 C   0  0  0  0  0  0  0  0  0  0  0  0
   -2.5150   23.3010  -29.6560 O   0  0  0  0  0  0  0  0  0  0  0  0
   -1.8370   25.4400  -29.0580 O   0  0  0  0  0  0  0  0  0  0  0  0
   -1.3920   25.3580  -27.6970 C   0  0  0  0  0  0  0  0  0  0  0  0
   -0.2840   24.2940  -27.6510 C   0  0  0  0  0  0  0  0  0  0  0  0
   -0.8090   26.7070  -27.2370 C   0  0  0  0  0  0  0  0  0  0  0  0
   -2.5440   24.9160  -26.7750 C   0  0  0  0  0  0  0  0  0  0  0  0
   -5.8040   22.5100  -31.9900 C   0  0  0  0  0  0  0  0  0  0  0  0
   -6.3530   21.2700  -32.3310 C   0  0  0  0  0  0  0  0  0  0  0  0
   -3.0229   16.4020  -32.5750 H   0  0  0  0  0  0  0  0  0  0  0  0
   -3.5575   15.0317  -33.6062 H   0  0  0  0  0  0  0  0  0  0  0  0
   -1.8336   15.5366  -33.6062 H   0  0  0  0  0  0  0  0  0  0  0  0
   -1.1883   17.4582  -34.7068 H   0  0  0  0  0  0  0  0  0  0  0  0
   -2.4321   18.5509  -35.4022 H   0  0  0  0  0  0  0  0  0  0  0  0
   -1.8226   17.9895  -32.4627 H   0  0  0  0  0  0  0  0  0  0  0  0
   -1.7943   19.5660  -33.3428 H   0  0  0  0  0  0  0  0  0  0  0  0
   -5.3410   16.6090  -34.8510 H   0  0  0  0  0  0  0  0  0  0  0  0
   -4.6960   18.2760  -34.7020 H   0  0  0  0  0  0  0  0  0  0  0  0
   -8.9237   19.3041  -32.9177 H   0  0  0  0  0  0  0  0  0  0  0  0
   -9.6889   21.8904  -31.9570 H   0  0  0  0  0  0  0  0  0  0  0  0
   -8.7585   24.1347  -31.2953 H   0  0  0  0  0  0  0  0  0  0  0  0
   -5.5599   25.2864  -32.1305 H   0  0  0  0  0  0  0  0  0  0  0  0
   -6.9577   25.5810  -31.0291 H   0  0  0  0  0  0  0  0  0  0  0  0
   -5.4890   25.5783  -29.3146 H   0  0  0  0  0  0  0  0  0  0  0  0
   -5.2695   23.8133  -29.6142 H   0  0  0  0  0  0  0  0  0  0  0  0
   -0.0420   24.0617  -26.6034 H   0  0  0  0  0  0  0  0  0  0  0  0
   -0.6305   23.3816  -28.1583 H   0  0  0  0  0  0  0  0  0  0  0  0
    0.6136   24.6772  -28.1583 H   0  0  0  0  0  0  0  0  0  0  0  0
   -0.7931   26.7438  -26.1377 H   0  0  0  0  0  0  0  0  0  0  0  0
    0.2157   26.8141  -27.6223 H   0  0  0  0  0  0  0  0  0  0  0  0
   -1.4332   27.5267  -27.6223 H   0  0  0  0  0  0  0  0  0  0  0  0
   -2.2386   25.0332  -25.7247 H   0  0  0  0  0  0  0  0  0  0  0  0
   -3.4298   25.5381  -26.9709 H   0  0  0  0  0  0  0  0  0  0  0  0
   -2.7863   23.8611  -26.9709 H   0  0  0  0  0  0  0  0  0  0  0  0
   -4.7168   22.6735  -32.0248 H   0  0  0  0  0  0  0  0  0  0  0  0
  1  2  1  0
  2  3  1  0
  3  4  1  0
  4  5  1  0
  5  6  1  0
  6  7  2  0
  6  8  1  0
  8  9  1  0
  9 10  1  0
 10 11  1  0
 10 12  2  0
  9 13  2  0
 13 14  1  0
 14 15  2  0
 15 16  1  0
 16 17  2  0
 17 18  1  0
 18 19  1  0
 19 20  1  0
 20 21  1  0
 21 22  2  0
 21 23  1  0
 23 24  1  0
 24 25  1  0
 24 26  1  0
 24 27  1  0
 17 28  1  0
 28 29  2  0
 29  8  1  0
 29 14  1  0
  1 30  1  0
  1 31  1  0
  1 32  1  0
  3 33  1  0
  3 34  1  0
  4 35  1  0
  4 36  1  0
 11 37  1  0
 11 38  1  0
 13 39  1  0
 15 40  1  0
 16 41  1  0
 18 42  1  0
 18 43  1  0
 19 44  1  0
 19 45  1  0
 25 46  1  0
 25 47  1  0
 25 48  1  0
 26 49  1  0
 26 50  1  0
 26 51  1  0
 27 52  1  0
 27 53  1  0
 27 54  1  0
 28 55  1  0
M  CHG  1  20  -1
M  END
>  <UniqueID>  (84) 
83

>  <SMILES>  (84) 
COCCOC(=O)n1c(C(N)=O)cc2ccc(CC[N-]C(=O)OC(C)(C)C)cc21

>  <Energy>  (84) 
79.77886670047025

>  <Genealogy>  (84) 
COCCOC(=O)n1c(C(N)=O)cc2ccc(CC[N-]C(=O)OC(C)(C)C)cc21 (protonated)
COCCOC(=O)n1c(C(N)=O)cc2ccc(CC[N-]C(=O)OC(C)(C)C)cc21 (3D coordinates assigned)
COCCOC(=O)n1c(C(N)=O)cc2ccc(CC[N-]C(=O)OC(C)(C)C)cc21 (optimized conformer: 79.77886670047025 kcal/mol)

>  <smiles>  (84) 
COCCOC(=O)n1c(C(N)=O)cc2ccc(CCNC(=O)OC(C)(C)C)cc21

>  <score_type>  (84) 
oracle

>  <origin>  (84) 
adg

>  <m_score__min__energy>  (84) 
-9.3900000000000006

>  <m_primary>  (84) 
energy

$$$$
87:0
     RDKit          3D

 50 52  0  0  0  0  0  0  0  0999 V2000
   -3.9360   25.5710  -30.8780 N   0  0  0  0  0  0  0  0  0  0  0  0
   -5.2780   25.3070  -30.4770 C   0  0  0  0  0  0  0  0  0  0  0  0
   -5.8720   26.1320  -29.7330 O   0  0  0  0  0  0  0  0  0  0  0  0
   -5.9890   24.0980  -30.9450 C   0  0  0  0  0  0  0  0  0  0  0  0
   -7.3790   23.9810  -30.9810 C   0  0  0  0  0  0  0  0  0  0  0  0
   -7.6260   22.7330  -31.5110 C   0  0  0  0  0  0  0  0  0  0  0  0
   -8.8310   22.0730  -31.7340 C   0  0  0  0  0  0  0  0  0  0  0  0
   -8.7790   20.7620  -32.2380 C   0  0  0  0  0  0  0  0  0  0  0  0
   -7.5350   20.1350  -32.5070 C   0  0  0  0  0  0  0  0  0  0  0  0
   -7.4950   18.7160  -33.0270 C   0  0  0  0  0  0  0  0  0  0  0  0
   -6.0810   18.0800  -33.0660 C   0  0  0  0  0  0  0  0  0  0  0  0
   -6.1180   16.5360  -33.1110 C   0  0  0  0  0  0  0  0  0  0  0  0
   -4.7740   15.9960  -33.6220 C   0  0  0  0  0  0  0  0  0  0  0  0
   -4.4360   16.4130  -34.9420 O   0  0  0  0  0  0  0  0  0  0  0  0
   -5.0230   17.6480  -35.3370 C   0  0  0  0  0  0  0  0  0  0  0  0
   -5.1770   18.6530  -34.1840 C   0  0  0  0  0  0  0  0  0  0  0  0
   -6.3350   20.8350  -32.2550 C   0  0  0  0  0  0  0  0  0  0  0  0
   -6.4190   22.1450  -31.7740 C   0  0  0  0  0  0  0  0  0  0  0  0
   -5.4060   22.9720  -31.4390 N   0  0  0  0  0  0  0  0  0  0  0  0
   -4.0140   22.6480  -31.5010 C   0  0  0  0  0  0  0  0  0  0  0  0
   -3.5540   22.0600  -32.5180 O   0  0  0  0  0  0  0  0  0  0  0  0
   -3.1880   22.9340  -30.4090 O   0  0  0  0  0  0  0  0  0  0  0  0
   -2.9030   21.9900  -29.3770 C   0  0  0  0  0  0  0  0  0  0  0  0
   -1.5060   22.2310  -28.8030 C   0  0  0  0  0  0  0  0  0  0  0  0
   -0.9620   23.4020  -29.3660 O   0  0  0  0  0  0  0  0  0  0  0  0
   -1.5500   24.7460  -28.4990 P   0  0  1  0  0  0  0  0  0  0  0  0
   -0.8590   24.8050  -27.1560 O   0  0  0  0  0  0  0  0  0  0  0  0
   -1.2340   26.1740  -29.3480 O   0  0  0  0  0  0  0  0  0  0  0  0
   -3.2200   24.5920  -28.2560 O   0  0  0  0  0  0  0  0  0  0  0  0
   -3.1290   25.2700  -30.2870 H   0  0  0  0  0  0  0  0  0  0  0  0
   -8.1199   24.7262  -30.6556 H   0  0  0  0  0  0  0  0  0  0  0  0
   -9.7934   22.5619  -31.5225 H   0  0  0  0  0  0  0  0  0  0  0  0
   -9.7147   20.2151  -32.4263 H   0  0  0  0  0  0  0  0  0  0  0  0
   -8.1320   18.0956  -32.3794 H   0  0  0  0  0  0  0  0  0  0  0  0
   -7.8463   18.7567  -34.0686 H   0  0  0  0  0  0  0  0  0  0  0  0
   -5.6185   18.3681  -32.1105 H   0  0  0  0  0  0  0  0  0  0  0  0
   -6.3072   16.1460  -32.1000 H   0  0  0  0  0  0  0  0  0  0  0  0
   -6.9204   16.2124  -33.7903 H   0  0  0  0  0  0  0  0  0  0  0  0
   -3.9830   16.3400  -32.9393 H   0  0  0  0  0  0  0  0  0  0  0  0
   -4.8670   14.9004  -33.6529 H   0  0  0  0  0  0  0  0  0  0  0  0
   -4.3884   18.1025  -36.1120 H   0  0  0  0  0  0  0  0  0  0  0  0
   -6.0347   17.4213  -35.7045 H   0  0  0  0  0  0  0  0  0  0  0  0
   -4.1843   18.8752  -33.7655 H   0  0  0  0  0  0  0  0  0  0  0  0
   -5.6432   19.5686  -34.5770 H   0  0  0  0  0  0  0  0  0  0  0  0
   -5.3582   20.3614  -32.4327 H   0  0  0  0  0  0  0  0  0  0  0  0
   -3.6476   22.0952  -28.5742 H   0  0  0  0  0  0  0  0  0  0  0  0
   -2.9439   20.9757  -29.8008 H   0  0  0  0  0  0  0  0  0  0  0  0
   -1.5732   22.3463  -27.7111 H   0  0  0  0  0  0  0  0  0  0  0  0
   -0.8587   21.3744  -29.0424 H   0  0  0  0  0  0  0  0  0  0  0  0
   -3.6140   24.6550  -29.1620 H   0  0  0  0  0  0  0  0  0  0  0  0
  1  2  1  0
  2  3  2  0
  2  4  1  0
  4  5  2  0
  5  6  1  0
  6  7  2  0
  7  8  1  0
  8  9  2  0
  9 10  1  0
 10 11  1  0
 11 12  1  0
 12 13  1  0
 13 14  1  0
 14 15  1  0
 15 16  1  0
  9 17  1  0
 17 18  2  0
 18 19  1  0
 19 20  1  0
 20 21  2  0
 20 22  1  0
 22 23  1  0
 23 24  1  0
 24 25  1  0
 25 26  1  0
 26 27  2  0
 26 28  1  6
 26 29  1  0
 19  4  1  0
 18  6  1  0
 16 11  1  0
  1 30  1  0
  5 31  1  0
  7 32  1  0
  8 33  1  0
 10 34  1  0
 10 35  1  0
 11 36  1  0
 12 37  1  0
 12 38  1  0
 13 39  1  0
 13 40  1  0
 15 41  1  0
 15 42  1  0
 16 43  1  0
 16 44  1  0
 17 45  1  0
 23 46  1  0
 23 47  1  0
 24 48  1  0
 24 49  1  0
 29 50  1  0
M  CHG  2   1  -1  28  -1
M  END
>  <UniqueID>  (85) 
84

>  <SMILES>  (85) 
[NH-]C(=O)c1cc2ccc(CC3CCOCC3)cc2n1C(=O)OCCO[P@@](=O)([O-])O

>  <Energy>  (85) 
92.85516519907324

>  <Genealogy>  (85) 
[NH-]C(=O)c1cc2ccc(CC3CCOCC3)cc2n1C(=O)OCCOP(=O)([O-])O (protonated)
[NH-]C(=O)c1cc2ccc(CC3CCOCC3)cc2n1C(=O)OCCO[P@@](=O)([O-])O (chirality)
[NH-]C(=O)c1cc2ccc(CC3CCOCC3)cc2n1C(=O)OCCO[P@@](=O)([O-])O (3D coordinates assigned)
[NH-]C(=O)c1cc2ccc(CC3CCOCC3)cc2n1C(=O)OCCO[P@@](=O)([O-])O (nonaromatic ring conformer: 92.85516519907324 kcal/mol)

>  <smiles>  (85) 
NC(=O)c1cc2ccc(CC3CCOCC3)cc2n1C(=O)OCCOP(=O)(O)O

>  <score_type>  (85) 
oracle

>  <origin>  (85) 
adg

>  <m_score__min__energy>  (85) 
-13.65

>  <m_primary>  (85) 
energy

$$$$
88:0
     RDKit          3D

 44 45  0  0  0  0  0  0  0  0999 V2000
   -2.9600   24.6150  -27.1220 C   0  0  0  0  0  0  0  0  0  0  0  0
   -2.3400   23.3050  -27.6380 C   0  0  0  0  0  0  0  0  0  0  0  0
   -3.4530   22.2660  -27.8790 C   0  0  0  0  0  0  0  0  0  0  0  0
   -1.3620   22.7480  -26.5820 C   0  0  0  0  0  0  0  0  0  0  0  0
   -1.6190   23.5870  -28.9410 C   0  0  0  0  0  0  0  0  0  0  0  0
   -1.4280   24.7750  -29.3230 O   0  0  0  0  0  0  0  0  0  0  0  0
   -1.2270   22.5200  -29.7570 O   0  0  0  0  0  0  0  0  0  0  0  0
   -1.7760   22.2930  -31.0530 C   0  0  0  0  0  0  0  0  0  0  0  0
   -3.1200   21.8330  -30.9410 O   0  0  0  0  0  0  0  0  0  0  0  0
   -4.0980   22.1070  -31.9040 C   0  0  0  0  0  0  0  0  0  0  0  0
   -3.8200   22.0240  -33.1320 O   0  0  0  0  0  0  0  0  0  0  0  0
   -5.4270   22.4610  -31.4920 N   0  0  0  0  0  0  0  0  0  0  0  0
   -5.8410   23.6430  -30.9550 C   0  0  0  0  0  0  0  0  0  0  0  0
   -5.0210   24.8690  -30.8530 C   0  0  0  0  0  0  0  0  0  0  0  0
   -3.6340   24.7950  -30.5170 N   0  0  0  0  0  0  0  0  0  0  0  0
   -5.5490   25.9970  -31.0290 O   0  0  0  0  0  0  0  0  0  0  0  0
   -7.1880   23.5760  -30.6030 C   0  0  0  0  0  0  0  0  0  0  0  0
   -7.5900   22.3050  -30.9480 C   0  0  0  0  0  0  0  0  0  0  0  0
   -8.8300   21.6900  -30.8000 C   0  0  0  0  0  0  0  0  0  0  0  0
   -8.9550   20.3540  -31.2120 C   0  0  0  0  0  0  0  0  0  0  0  0
   -7.8510   19.6600  -31.7730 C   0  0  0  0  0  0  0  0  0  0  0  0
   -7.9820   18.2080  -32.1530 C   0  0  0  0  0  0  0  0  0  0  0  0
   -9.2900   17.8030  -31.9610 F   0  0  0  0  0  0  0  0  0  0  0  0
   -7.1490   17.4220  -31.3750 F   0  0  0  0  0  0  0  0  0  0  0  0
   -7.6410   18.0170  -33.4810 F   0  0  0  0  0  0  0  0  0  0  0  0
   -6.6010   20.3150  -31.8840 C   0  0  0  0  0  0  0  0  0  0  0  0
   -6.5110   21.6520  -31.4820 C   0  0  0  0  0  0  0  0  0  0  0  0
   -2.9590   24.6128  -26.0220 H   0  0  0  0  0  0  0  0  0  0  0  0
   -2.3704   25.4686  -27.4875 H   0  0  0  0  0  0  0  0  0  0  0  0
   -3.9940   24.7002  -27.4875 H   0  0  0  0  0  0  0  0  0  0  0  0
   -3.8362   21.9082  -26.9120 H   0  0  0  0  0  0  0  0  0  0  0  0
   -4.2714   22.7307  -28.4485 H   0  0  0  0  0  0  0  0  0  0  0  0
   -3.0456   21.4177  -28.4485 H   0  0  0  0  0  0  0  0  0  0  0  0
   -1.7463   22.9669  -25.5748 H   0  0  0  0  0  0  0  0  0  0  0  0
   -1.2658   21.6596  -26.7093 H   0  0  0  0  0  0  0  0  0  0  0  0
   -0.3768   23.2205  -26.7093 H   0  0  0  0  0  0  0  0  0  0  0  0
   -1.7593   23.2324  -31.6250 H   0  0  0  0  0  0  0  0  0  0  0  0
   -1.1758   21.5298  -31.5700 H   0  0  0  0  0  0  0  0  0  0  0  0
   -3.0740   25.6680  -30.4100 H   0  0  0  0  0  0  0  0  0  0  0  0
   -3.1510   23.8760  -30.4110 H   0  0  0  0  0  0  0  0  0  0  0  0
   -7.7992   24.3689  -30.1471 H   0  0  0  0  0  0  0  0  0  0  0  0
   -9.6855   22.2342  -30.3734 H   0  0  0  0  0  0  0  0  0  0  0  0
   -9.9201   19.8385  -31.0988 H   0  0  0  0  0  0  0  0  0  0  0  0
   -5.7209   19.7851  -32.2772 H   0  0  0  0  0  0  0  0  0  0  0  0
  1  2  1  0
  2  3  1  0
  2  4  1  0
  2  5  1  0
  5  6  2  0
  5  7  1  0
  7  8  1  0
  8  9  1  0
  9 10  1  0
 10 11  2  0
 10 12  1  0
 12 13  1  0
 13 14  1  0
 14 15  1  0
 14 16  2  0
 13 17  2  0
 17 18  1  0
 18 19  2  0
 19 20  1  0
 20 21  2  0
 21 22  1  0
 22 23  1  0
 22 24  1  0
 22 25  1  0
 21 26  1  0
 26 27  2  0
 27 12  1  0
 27 18  1  0
  1 28  1  0
  1 29  1  0
  1 30  1  0
  3 31  1  0
  3 32  1  0
  3 33  1  0
  4 34  1  0
  4 35  1  0
  4 36  1  0
  8 37  1  0
  8 38  1  0
 15 39  1  0
 15 40  1  0
 17 41  1  0
 19 42  1  0
 20 43  1  0
 26 44  1  0
M  END
>  <UniqueID>  (86) 
85

>  <SMILES>  (86) 
CC(C)(C)C(=O)OCOC(=O)n1c(C(N)=O)cc2ccc(C(F)(F)F)cc21

>  <Energy>  (86) 
74.8209815774425

>  <Genealogy>  (86) 
CC(C)(C)C(=O)OCOC(=O)n1c(C(N)=O)cc2ccc(C(F)(F)F)cc21 (3D coordinates assigned)
CC(C)(C)C(=O)OCOC(=O)n1c(C(N)=O)cc2ccc(C(F)(F)F)cc21 (optimized conformer: 74.8209815774425 kcal/mol)

>  <smiles>  (86) 
CC(C)(C)C(=O)OCOC(=O)n1c(C(N)=O)cc2ccc(C(F)(F)F)cc21

>  <score_type>  (86) 
oracle

>  <origin>  (86) 
adg

>  <m_score__min__energy>  (86) 
-9.3000000000000007

>  <m_primary>  (86) 
energy

$$$$
89:0
     RDKit          3D

 41 42  0  0  0  0  0  0  0  0999 V2000
   -5.8140   18.2030  -34.5840 C   0  0  0  0  0  0  0  0  0  0  0  0
   -6.5940   18.3540  -33.3490 N   0  0  0  0  0  0  0  0  0  0  0  0
   -7.1790   17.1590  -32.7290 C   0  0  0  0  0  0  0  0  0  0  0  0
   -6.7850   19.6640  -32.7540 C   0  0  0  0  0  0  0  0  0  0  0  0
   -8.0960   20.1790  -32.5370 C   0  0  0  0  0  0  0  0  0  0  0  0
   -8.2930   21.4530  -31.9790 C   0  0  0  0  0  0  0  0  0  0  0  0
   -7.1700   22.1940  -31.6330 C   0  0  0  0  0  0  0  0  0  0  0  0
   -7.0750   23.4630  -31.1110 C   0  0  0  0  0  0  0  0  0  0  0  0
   -5.7090   23.7110  -30.9870 C   0  0  0  0  0  0  0  0  0  0  0  0
   -5.1530   24.9630  -30.4270 C   0  0  0  0  0  0  0  0  0  0  0  0
   -3.8720   25.4430  -30.8200 N   0  0  0  0  0  0  0  0  0  0  0  0
   -5.8130   25.6050  -29.5650 O   0  0  0  0  0  0  0  0  0  0  0  0
   -4.9900   22.6340  -31.4140 N   0  0  0  0  0  0  0  0  0  0  0  0
   -3.5620   22.5080  -31.4960 C   0  0  0  0  0  0  0  0  0  0  0  0
   -3.0450   22.0550  -32.5550 O   0  0  0  0  0  0  0  0  0  0  0  0
   -2.7250   22.9670  -30.4070 N   0  0  2  0  0  0  0  0  0  0  0  0
   -1.3630   22.4380  -30.5630 C   0  0  0  0  0  0  0  0  0  0  0  0
   -3.2680   22.5660  -29.1170 C   0  0  0  0  0  0  0  0  0  0  0  0
   -3.5080   21.3870  -28.8940 O   0  0  0  0  0  0  0  0  0  0  0  0
   -3.5080   23.5530  -27.9990 C   0  0  0  0  0  0  0  0  0  0  0  0
   -3.0640   24.8390  -28.3320 O   0  0  0  0  0  0  0  0  0  0  0  0
   -5.9000   21.7160  -31.8090 C   0  0  0  0  0  0  0  0  0  0  0  0
   -5.6710   20.4600  -32.3800 C   0  0  0  0  0  0  0  0  0  0  0  0
   -4.7629   17.9995  -34.3313 H   0  0  0  0  0  0  0  0  0  0  0  0
   -6.2181   17.3664  -35.1729 H   0  0  0  0  0  0  0  0  0  0  0  0
   -5.8767   19.1300  -35.1729 H   0  0  0  0  0  0  0  0  0  0  0  0
   -7.1325   17.2539  -31.6341 H   0  0  0  0  0  0  0  0  0  0  0  0
   -8.2281   17.0587  -33.0441 H   0  0  0  0  0  0  0  0  0  0  0  0
   -6.6148   16.2689  -33.0441 H   0  0  0  0  0  0  0  0  0  0  0  0
   -8.9688   19.5683  -32.8112 H   0  0  0  0  0  0  0  0  0  0  0  0
   -9.3059   21.8518  -31.8208 H   0  0  0  0  0  0  0  0  0  0  0  0
   -7.9018   24.1389  -30.8473 H   0  0  0  0  0  0  0  0  0  0  0  0
   -3.0310   25.2850  -30.2210 H   0  0  0  0  0  0  0  0  0  0  0  0
   -2.6610   24.0070  -30.4680 H   0  0  0  0  0  0  0  0  0  0  0  0
   -0.9205   22.2661  -29.5707 H   0  0  0  0  0  0  0  0  0  0  0  0
   -1.3996   21.4887  -31.1175 H   0  0  0  0  0  0  0  0  0  0  0  0
   -0.7493   23.1631  -31.1175 H   0  0  0  0  0  0  0  0  0  0  0  0
   -4.5864   23.5934  -27.7859 H   0  0  0  0  0  0  0  0  0  0  0  0
   -2.9417   23.2146  -27.1188 H   0  0  0  0  0  0  0  0  0  0  0  0
   -3.8630   25.3320  -28.6540 H   0  0  0  0  0  0  0  0  0  0  0  0
   -4.6451   20.0953  -32.5366 H   0  0  0  0  0  0  0  0  0  0  0  0
  1  2  1  0
  2  3  1  0
  2  4  1  0
  4  5  2  0
  5  6  1  0
  6  7  2  0
  7  8  1  0
  8  9  2  0
  9 10  1  0
 10 11  1  0
 10 12  2  0
  9 13  1  0
 13 14  1  0
 14 15  2  0
 14 16  1  0
 16 17  1  0
 16 18  1  0
 18 19  2  0
 18 20  1  0
 20 21  1  0
 13 22  1  0
 22 23  2  0
 23  4  1  0
 22  7  1  0
  1 24  1  0
  1 25  1  0
  1 26  1  0
  3 27  1  0
  3 28  1  0
  3 29  1  0
  5 30  1  0
  6 31  1  0
  8 32  1  0
 11 33  1  0
 16 34  1  1
 17 35  1  0
 17 36  1  0
 17 37  1  0
 20 38  1  0
 20 39  1  0
 21 40  1  0
 23 41  1  0
M  CHG  2  11  -1  16   1
M  END
>  <UniqueID>  (87) 
86

>  <SMILES>  (87) 
CN(C)c1ccc2cc(C([NH-])=O)n(C(=O)[NH+](C)C(=O)CO)c2c1

>  <Energy>  (87) 
82.7764642337065

>  <Genealogy>  (87) 
CN(C)c1ccc2cc(C([NH-])=O)n(C(=O)[NH+](C)C(=O)CO)c2c1 (protonated)
CN(C)c1ccc2cc(C([NH-])=O)n(C(=O)[NH+](C)C(=O)CO)c2c1 (3D coordinates assigned)
CN(C)c1ccc2cc(C([NH-])=O)n(C(=O)[NH+](C)C(=O)CO)c2c1 (optimized conformer: 82.7764642337065 kcal/mol)

>  <smiles>  (87) 
CN(C(=O)CO)C(=O)n1c(C(N)=O)cc2ccc(N(C)C)cc21

>  <score_type>  (87) 
oracle

>  <origin>  (87) 
adg

>  <m_score__min__energy>  (87) 
-9.6600000000000001

>  <m_primary>  (87) 
energy

$$$$
90:0
     RDKit          3D

 38 40  0  0  0  0  0  0  0  0999 V2000
   -4.1900   25.6320  -30.6620 N   0  0  0  0  0  0  0  0  0  0  0  0
   -5.4840   25.0790  -30.4420 C   0  0  0  0  0  0  0  0  0  0  0  0
   -6.3490   25.7580  -29.8280 O   0  0  0  0  0  0  0  0  0  0  0  0
   -5.7890   23.7100  -30.9090 C   0  0  0  0  0  0  0  0  0  0  0  0
   -6.8720   23.3940  -31.7270 C   0  0  0  0  0  0  0  0  0  0  0  0
   -6.7610   22.0450  -31.9770 C   0  0  0  0  0  0  0  0  0  0  0  0
   -7.5800   21.2000  -32.7200 C   0  0  0  0  0  0  0  0  0  0  0  0
   -7.2400   19.8380  -32.7780 C   0  0  0  0  0  0  0  0  0  0  0  0
   -6.1000   19.3470  -32.0930 C   0  0  0  0  0  0  0  0  0  0  0  0
   -5.7650   17.8840  -32.1510 C   0  0  0  0  0  0  0  0  0  0  0  0
   -6.3060   17.2400  -31.0540 F   0  0  0  0  0  0  0  0  0  0  0  0
   -6.2830   17.3310  -33.3080 F   0  0  0  0  0  0  0  0  0  0  0  0
   -5.2960   20.2350  -31.3460 C   0  0  0  0  0  0  0  0  0  0  0  0
   -5.6470   21.5890  -31.3220 C   0  0  0  0  0  0  0  0  0  0  0  0
   -5.0380   22.5990  -30.6640 N   0  0  0  0  0  0  0  0  0  0  0  0
   -3.8730   22.4880  -29.8320 C   0  0  0  0  0  0  0  0  0  0  0  0
   -3.8390   21.6180  -28.9190 O   0  0  0  0  0  0  0  0  0  0  0  0
   -2.7530   23.3570  -30.0460 N   0  0  0  0  0  0  0  0  0  0  0  0
   -1.4690   23.1630  -29.3600 C   0  0  2  0  0  0  0  0  0  0  0  0
   -0.8060   24.4900  -29.0730 C   0  0  0  0  0  0  0  0  0  0  0  0
    0.3430   24.5440  -28.5620 O   0  0  0  0  0  0  0  0  0  0  0  0
   -1.4900   25.6700  -29.3350 O   0  0  0  0  0  0  0  0  0  0  0  0
   -0.6030   22.1450  -30.1460 C   0  0  0  0  0  0  0  0  0  0  0  0
   -1.1210   21.5370  -31.4470 C   0  0  0  0  0  0  0  0  0  0  0  0
   -1.1220   20.7130  -30.1680 C   0  0  0  0  0  0  0  0  0  0  0  0
   -3.4870   25.6760  -29.8910 H   0  0  0  0  0  0  0  0  0  0  0  0
   -7.6509   24.0780  -32.0951 H   0  0  0  0  0  0  0  0  0  0  0  0
   -8.4658   21.5864  -33.2454 H   0  0  0  0  0  0  0  0  0  0  0  0
   -7.8648   19.1454  -33.3610 H   0  0  0  0  0  0  0  0  0  0  0  0
   -4.6715   17.7642  -32.1462 H   0  0  0  0  0  0  0  0  0  0  0  0
   -4.4153   19.8713  -30.7964 H   0  0  0  0  0  0  0  0  0  0  0  0
   -2.8580   24.1250  -30.7460 H   0  0  0  0  0  0  0  0  0  0  0  0
   -1.6248   22.7151  -28.3675 H   0  0  0  0  0  0  0  0  0  0  0  0
    0.3309   22.6591  -29.8748 H   0  0  0  0  0  0  0  0  0  0  0  0
   -2.0713   21.8860  -31.8772 H   0  0  0  0  0  0  0  0  0  0  0  0
   -0.7125   21.4017  -32.4593 H   0  0  0  0  0  0  0  0  0  0  0  0
   -2.0734   20.4657  -29.6744 H   0  0  0  0  0  0  0  0  0  0  0  0
   -0.7144   19.7345  -29.8741 H   0  0  0  0  0  0  0  0  0  0  0  0
  1  2  1  0
  2  3  2  0
  2  4  1  0
  4  5  2  0
  5  6  1  0
  6  7  2  0
  7  8  1  0
  8  9  2  0
  9 10  1  0
 10 11  1  0
 10 12  1  0
  9 13  1  0
 13 14  2  0
 14 15  1  0
 15 16  1  0
 16 17  2  0
 16 18  1  0
 18 19  1  0
 19 20  1  0
 20 21  2  0
 20 22  1  0
 19 23  1  0
 23 24  1  0
 24 25  1  0
 15  4  1  0
 25 23  1  0
 14  6  1  0
  1 26  1  0
  5 27  1  0
  7 28  1  0
  8 29  1  0
 10 30  1  0
 13 31  1  0
 18 32  1  0
 19 33  1  1
 23 34  1  0
 24 35  1  0
 24 36  1  0
 25 37  1  0
 25 38  1  0
M  CHG  2   1  -1  22  -1
M  END
>  <UniqueID>  (88) 
87

>  <SMILES>  (88) 
[NH-]C(=O)c1cc2ccc(C(F)F)cc2n1C(=O)N[C@H](C(=O)[O-])C1CC1

>  <Energy>  (88) 
343.6095291268681

>  <Genealogy>  (88) 
[NH-]C(=O)c1cc2ccc(C(F)F)cc2n1C(=O)NC(C(=O)[O-])C1CC1 (protonated)
[NH-]C(=O)c1cc2ccc(C(F)F)cc2n1C(=O)N[C@H](C(=O)[O-])C1CC1 (chirality)
[NH-]C(=O)c1cc2ccc(C(F)F)cc2n1C(=O)N[C@H](C(=O)[O-])C1CC1 (3D coordinates assigned)
[NH-]C(=O)c1cc2ccc(C(F)F)cc2n1C(=O)N[C@H](C(=O)[O-])C1CC1 (nonaromatic ring conformer: 343.6095291268681 kcal/mol)

>  <smiles>  (88) 
NC(=O)c1cc2ccc(C(F)F)cc2n1C(=O)NC(C(=O)O)C1CC1

>  <score_type>  (88) 
oracle

>  <origin>  (88) 
adg

>  <m_score__min__energy>  (88) 
-11.75

>  <m_primary>  (88) 
energy

$$$$
91:0
     RDKit          3D

 34 35  0  0  0  0  0  0  0  0999 V2000
   -0.8520   26.4000  -27.9730 C   0  0  0  0  0  0  0  0  0  0  0  0
   -1.5530   25.6580  -29.0110 N   0  0  0  0  0  0  0  0  0  0  0  0
   -2.0260   24.3150  -28.8600 C   0  0  0  0  0  0  0  0  0  0  0  0
   -2.7050   24.0210  -27.8420 O   0  0  0  0  0  0  0  0  0  0  0  0
   -1.7870   23.2740  -29.9220 C   0  0  0  0  0  0  0  0  0  0  0  0
   -2.9150   23.1530  -30.7860 O   0  0  0  0  0  0  0  0  0  0  0  0
   -3.9580   22.2460  -30.5620 C   0  0  0  0  0  0  0  0  0  0  0  0
   -3.7160   21.0970  -30.1020 O   0  0  0  0  0  0  0  0  0  0  0  0
   -5.3080   22.6210  -30.8780 N   0  0  0  0  0  0  0  0  0  0  0  0
   -5.9120   23.8270  -30.6730 C   0  0  0  0  0  0  0  0  0  0  0  0
   -5.2460   25.0670  -30.2220 C   0  0  0  0  0  0  0  0  0  0  0  0
   -4.0540   25.5300  -30.8500 N   0  0  0  0  0  0  0  0  0  0  0  0
   -5.7640   25.7520  -29.3010 O   0  0  0  0  0  0  0  0  0  0  0  0
   -7.2570   23.7650  -31.0320 C   0  0  0  0  0  0  0  0  0  0  0  0
   -7.4580   22.4790  -31.4770 C   0  0  0  0  0  0  0  0  0  0  0  0
   -8.6140   21.8670  -31.9540 C   0  0  0  0  0  0  0  0  0  0  0  0
   -8.5370   20.5130  -32.3230 C   0  0  0  0  0  0  0  0  0  0  0  0
   -7.3220   19.7970  -32.1910 C   0  0  0  0  0  0  0  0  0  0  0  0
   -7.2480   18.3610  -32.6140 C   0  0  0  0  0  0  0  0  0  0  0  0
   -6.1660   20.4550  -31.7170 C   0  0  0  0  0  0  0  0  0  0  0  0
   -6.2660   21.8080  -31.3740 C   0  0  0  0  0  0  0  0  0  0  0  0
   -1.1833   26.0494  -26.9844 H   0  0  0  0  0  0  0  0  0  0  0  0
    0.2313   26.2388  -28.0751 H   0  0  0  0  0  0  0  0  0  0  0  0
   -1.0744   27.4724  -28.0751 H   0  0  0  0  0  0  0  0  0  0  0  0
   -0.9082   23.5631  -30.5170 H   0  0  0  0  0  0  0  0  0  0  0  0
   -1.6189   22.3049  -29.4295 H   0  0  0  0  0  0  0  0  0  0  0  0
   -3.1150   25.2860  -30.4650 H   0  0  0  0  0  0  0  0  0  0  0  0
   -8.0006   24.5734  -30.9722 H   0  0  0  0  0  0  0  0  0  0  0  0
   -9.5578   22.4255  -32.0394 H   0  0  0  0  0  0  0  0  0  0  0  0
   -9.4288   20.0045  -32.7181 H   0  0  0  0  0  0  0  0  0  0  0  0
   -7.2148   17.7174  -31.7225 H   0  0  0  0  0  0  0  0  0  0  0  0
   -8.1344   18.1096  -33.2149 H   0  0  0  0  0  0  0  0  0  0  0  0
   -6.3405   18.2021  -33.2149 H   0  0  0  0  0  0  0  0  0  0  0  0
   -5.2111   19.9177  -31.6198 H   0  0  0  0  0  0  0  0  0  0  0  0
  1  2  1  0
  2  3  1  0
  3  4  2  0
  3  5  1  0
  5  6  1  0
  6  7  1  0
  7  8  2  0
  7  9  1  0
  9 10  1  0
 10 11  1  0
 11 12  1  0
 11 13  2  0
 10 14  2  0
 14 15  1  0
 15 16  2  0
 16 17  1  0
 17 18  2  0
 18 19  1  0
 18 20  1  0
 20 21  2  0
 21  9  1  0
 21 15  1  0
  1 22  1  0
  1 23  1  0
  1 24  1  0
  5 25  1  0
  5 26  1  0
 12 27  1  0
 14 28  1  0
 16 29  1  0
 17 30  1  0
 19 31  1  0
 19 32  1  0
 19 33  1  0
 20 34  1  0
M  CHG  2   2  -1  12  -1
M  END
>  <UniqueID>  (89) 
88

>  <SMILES>  (89) 
C[N-]C(=O)COC(=O)n1c(C([NH-])=O)cc2ccc(C)cc21

>  <Energy>  (89) 
68.72599715015896

>  <Genealogy>  (89) 
C[N-]C(=O)COC(=O)n1c(C([NH-])=O)cc2ccc(C)cc21 (protonated)
C[N-]C(=O)COC(=O)n1c(C([NH-])=O)cc2ccc(C)cc21 (3D coordinates assigned)
C[N-]C(=O)COC(=O)n1c(C([NH-])=O)cc2ccc(C)cc21 (optimized conformer: 68.72599715015896 kcal/mol)

>  <smiles>  (89) 
CNC(=O)COC(=O)n1c(C(N)=O)cc2ccc(C)cc21

>  <score_type>  (89) 
oracle

>  <origin>  (89) 
adg

>  <m_score__min__energy>  (89) 
-11.57

>  <m_primary>  (89) 
energy

$$$$
92:0
     RDKit          3D

 39 40  0  0  0  0  0  0  0  0999 V2000
   -4.2430   23.6110  -27.7340 C   0  0  0  0  0  0  0  0  0  0  0  0
   -2.7200   23.4740  -27.6840 C   0  0  0  0  0  0  0  0  0  0  0  0
   -2.0510   24.8480  -27.6110 C   0  0  0  0  0  0  0  0  0  0  0  0
   -2.1150   22.5430  -29.0950 S   0  0  0  0  0  0  0  0  0  0  0  0
   -1.0810   21.5570  -28.6240 O   0  0  0  0  0  0  0  0  0  0  0  0
   -1.4750   23.4920  -30.0700 O   0  0  0  0  0  0  0  0  0  0  0  0
   -3.4360   21.6610  -29.9110 C   0  0  0  0  0  0  0  0  0  0  0  0
   -3.9410   22.4460  -31.0850 C   0  0  0  0  0  0  0  0  0  0  0  0
   -3.1600   22.7110  -32.0380 O   0  0  0  0  0  0  0  0  0  0  0  0
   -5.3120   22.8660  -31.1480 N   0  0  0  0  0  0  0  0  0  0  0  0
   -5.8210   24.1080  -30.9130 C   0  0  0  0  0  0  0  0  0  0  0  0
   -5.0430   25.3260  -30.5930 C   0  0  0  0  0  0  0  0  0  0  0  0
   -3.6250   25.2860  -30.4630 N   0  0  0  0  0  0  0  0  0  0  0  0
   -5.6410   26.4260  -30.4490 O   0  0  0  0  0  0  0  0  0  0  0  0
   -7.2090   24.0970  -31.0470 C   0  0  0  0  0  0  0  0  0  0  0  0
   -7.5360   22.7990  -31.3680 C   0  0  0  0  0  0  0  0  0  0  0  0
   -8.7810   22.2160  -31.5800 C   0  0  0  0  0  0  0  0  0  0  0  0
   -8.8250   20.8380  -31.8500 C   0  0  0  0  0  0  0  0  0  0  0  0
   -7.6320   20.0710  -31.9090 C   0  0  0  0  0  0  0  0  0  0  0  0
   -7.6980   18.5820  -32.1340 C   0  0  0  0  0  0  0  0  0  0  0  0
   -6.9050   17.9130  -31.2170 F   0  0  0  0  0  0  0  0  0  0  0  0
   -7.2510   18.2940  -33.4100 F   0  0  0  0  0  0  0  0  0  0  0  0
   -8.9970   18.1240  -31.9960 F   0  0  0  0  0  0  0  0  0  0  0  0
   -6.3900   20.6980  -31.6600 C   0  0  0  0  0  0  0  0  0  0  0  0
   -6.3740   22.0760  -31.4180 C   0  0  0  0  0  0  0  0  0  0  0  0
   -4.6417   23.6469  -26.7094 H   0  0  0  0  0  0  0  0  0  0  0  0
   -4.5107   24.5368  -28.2643 H   0  0  0  0  0  0  0  0  0  0  0  0
   -4.6716   22.7478  -28.2643 H   0  0  0  0  0  0  0  0  0  0  0  0
   -2.4581   22.9186  -26.7713 H   0  0  0  0  0  0  0  0  0  0  0  0
   -1.9123   25.1328  -26.5576 H   0  0  0  0  0  0  0  0  0  0  0  0
   -1.0723   24.8064  -28.1115 H   0  0  0  0  0  0  0  0  0  0  0  0
   -2.6873   25.5927  -28.1115 H   0  0  0  0  0  0  0  0  0  0  0  0
   -3.0606   20.6877  -30.2601 H   0  0  0  0  0  0  0  0  0  0  0  0
   -4.2609   21.5141  -29.1982 H   0  0  0  0  0  0  0  0  0  0  0  0
   -3.0480   24.6440  -31.0510 H   0  0  0  0  0  0  0  0  0  0  0  0
   -7.8971   24.9461  -30.9225 H   0  0  0  0  0  0  0  0  0  0  0  0
   -9.7024   22.8153  -31.5376 H   0  0  0  0  0  0  0  0  0  0  0  0
   -9.7953   20.3477  -32.0176 H   0  0  0  0  0  0  0  0  0  0  0  0
   -5.4568   20.1156  -31.6565 H   0  0  0  0  0  0  0  0  0  0  0  0
  1  2  1  0
  2  3  1  0
  2  4  1  0
  4  5  2  0
  4  6  2  0
  4  7  1  0
  7  8  1  0
  8  9  2  0
  8 10  1  0
 10 11  1  0
 11 12  1  0
 12 13  1  0
 12 14  2  0
 11 15  2  0
 15 16  1  0
 16 17  2  0
 17 18  1  0
 18 19  2  0
 19 20  1  0
 20 21  1  0
 20 22  1  0
 20 23  1  0
 19 24  1  0
 24 25  2  0
 25 10  1  0
 25 16  1  0
  1 26  1  0
  1 27  1  0
  1 28  1  0
  2 29  1  0
  3 30  1  0
  3 31  1  0
  3 32  1  0
  7 33  1  0
  7 34  1  0
 13 35  1  0
 15 36  1  0
 17 37  1  0
 18 38  1  0
 24 39  1  0
M  CHG  1  13  -1
M  END
>  <UniqueID>  (90) 
89

>  <SMILES>  (90) 
CC(C)S(=O)(=O)CC(=O)n1c(C([NH-])=O)cc2ccc(C(F)(F)F)cc21

>  <Energy>  (90) 
66.4596611471486

>  <Genealogy>  (90) 
CC(C)S(=O)(=O)CC(=O)n1c(C([NH-])=O)cc2ccc(C(F)(F)F)cc21 (protonated)
CC(C)S(=O)(=O)CC(=O)n1c(C([NH-])=O)cc2ccc(C(F)(F)F)cc21 (3D coordinates assigned)
CC(C)S(=O)(=O)CC(=O)n1c(C([NH-])=O)cc2ccc(C(F)(F)F)cc21 (optimized conformer: 66.4596611471486 kcal/mol)

>  <smiles>  (90) 
CC(C)S(=O)(=O)CC(=O)n1c(C(N)=O)cc2ccc(C(F)(F)F)cc21

>  <score_type>  (90) 
oracle

>  <origin>  (90) 
adg

>  <m_score__min__energy>  (90) 
-10.4

>  <m_primary>  (90) 
energy

$$$$
93:0
     RDKit          3D

 38 39  0  0  0  0  0  0  0  0999 V2000
   -5.9860   18.3220  -34.2110 C   0  0  0  0  0  0  0  0  0  0  0  0
   -6.8510   18.3470  -32.9540 C   0  0  0  0  0  0  0  0  0  0  0  0
   -7.0770   19.7610  -32.4920 C   0  0  0  0  0  0  0  0  0  0  0  0
   -8.3920   20.2830  -32.4210 C   0  0  0  0  0  0  0  0  0  0  0  0
   -8.6200   21.5860  -31.9470 C   0  0  0  0  0  0  0  0  0  0  0  0
   -7.5180   22.3400  -31.5540 C   0  0  0  0  0  0  0  0  0  0  0  0
   -7.4590   23.6090  -31.0260 C   0  0  0  0  0  0  0  0  0  0  0  0
   -6.1060   23.8510  -30.8000 C   0  0  0  0  0  0  0  0  0  0  0  0
   -5.5840   25.1350  -30.2920 C   0  0  0  0  0  0  0  0  0  0  0  0
   -6.1310   25.7470  -29.1220 N   0  0  0  0  0  0  0  0  0  0  0  0
   -4.5990   25.6740  -30.8660 O   0  0  0  0  0  0  0  0  0  0  0  0
   -5.3570   22.7700  -31.1600 N   0  0  0  0  0  0  0  0  0  0  0  0
   -3.9450   22.5860  -30.9620 C   0  0  0  0  0  0  0  0  0  0  0  0
   -3.1500   22.7580  -31.9250 O   0  0  0  0  0  0  0  0  0  0  0  0
   -3.4720   22.2060  -29.6990 O   0  0  0  0  0  0  0  0  0  0  0  0
   -2.2520   22.6160  -29.1400 C   0  0  0  0  0  0  0  0  0  0  0  0
   -1.2910   21.8110  -29.0100 O   0  0  0  0  0  0  0  0  0  0  0  0
   -2.0840   24.0460  -28.7090 C   0  0  1  0  0  0  0  0  0  0  0  0
   -0.6270   24.3380  -28.3380 C   0  0  0  0  0  0  0  0  0  0  0  0
   -2.5300   24.9180  -29.7160 O   0  0  0  0  0  0  0  0  0  0  0  0
   -6.2370   21.8530  -31.6240 C   0  0  0  0  0  0  0  0  0  0  0  0
   -5.9840   20.5500  -32.0720 C   0  0  0  0  0  0  0  0  0  0  0  0
   -4.9243   18.2913  -33.9249 H   0  0  0  0  0  0  0  0  0  0  0  0
   -6.2311   17.4306  -34.8071 H   0  0  0  0  0  0  0  0  0  0  0  0
   -6.1792   19.2261  -34.8071 H   0  0  0  0  0  0  0  0  0  0  0  0
   -7.8220   17.8796  -33.1745 H   0  0  0  0  0  0  0  0  0  0  0  0
   -6.3330   17.7931  -32.1572 H   0  0  0  0  0  0  0  0  0  0  0  0
   -9.2425   19.6626  -32.7399 H   0  0  0  0  0  0  0  0  0  0  0  0
   -9.6384   21.9976  -31.8883 H   0  0  0  0  0  0  0  0  0  0  0  0
   -8.3009   24.2879  -30.8251 H   0  0  0  0  0  0  0  0  0  0  0  0
   -5.7620   26.6660  -28.7900 H   0  0  0  0  0  0  0  0  0  0  0  0
   -6.8320   25.2510  -28.5310 H   0  0  0  0  0  0  0  0  0  0  0  0
   -2.6990   24.2110  -27.8120 H   0  0  0  0  0  0  0  0  0  0  0  0
   -0.5245   24.3585  -27.2430 H   0  0  0  0  0  0  0  0  0  0  0  0
    0.0215   23.5520  -28.7523 H   0  0  0  0  0  0  0  0  0  0  0  0
   -0.3315   25.3132  -28.7523 H   0  0  0  0  0  0  0  0  0  0  0  0
   -2.9150   24.3680  -30.4490 H   0  0  0  0  0  0  0  0  0  0  0  0
   -4.9591   20.1514  -32.0960 H   0  0  0  0  0  0  0  0  0  0  0  0
  1  2  1  0
  2  3  1  0
  3  4  2  0
  4  5  1  0
  5  6  2  0
  6  7  1  0
  7  8  2  0
  8  9  1  0
  9 10  1  0
  9 11  2  0
  8 12  1  0
 12 13  1  0
 13 14  2  0
 13 15  1  0
 15 16  1  0
 16 17  2  0
 16 18  1  0
 18 19  1  0
 18 20  1  0
 12 21  1  0
 21 22  2  0
 22  3  1  0
 21  6  1  0
  1 23  1  0
  1 24  1  0
  1 25  1  0
  2 26  1  0
  2 27  1  0
  4 28  1  0
  5 29  1  0
  7 30  1  0
 10 31  1  0
 10 32  1  0
 18 33  1  1
 19 34  1  0
 19 35  1  0
 19 36  1  0
 20 37  1  0
 22 38  1  0
M  END
>  <UniqueID>  (91) 
90

>  <SMILES>  (91) 
CCc1ccc2cc(C(N)=O)n(C(=O)OC(=O)[C@@H](C)O)c2c1

>  <Energy>  (91) 
71.82674903979608

>  <Genealogy>  (91) 
CCc1ccc2cc(C(N)=O)n(C(=O)OC(=O)[C@@H](C)O)c2c1 (chirality)
CCc1ccc2cc(C(N)=O)n(C(=O)OC(=O)[C@@H](C)O)c2c1 (3D coordinates assigned)
CCc1ccc2cc(C(N)=O)n(C(=O)OC(=O)[C@@H](C)O)c2c1 (optimized conformer: 71.82674903979608 kcal/mol)

>  <smiles>  (91) 
CCc1ccc2cc(C(N)=O)n(C(=O)OC(=O)C(C)O)c2c1

>  <score_type>  (91) 
oracle

>  <origin>  (91) 
adg

>  <m_score__min__energy>  (91) 
-8.9100000000000001

>  <m_primary>  (91) 
energy

$$$$
94:0
     RDKit          3D

 56 57  0  0  0  0  0  0  0  0999 V2000
   -1.0290   27.8940  -34.9890 C   0  0  0  0  0  0  0  0  0  0  0  0
   -0.3470   27.1540  -36.1580 C   0  0  0  0  0  0  0  0  0  0  0  0
   -1.2890   27.1680  -37.3710 C   0  0  0  0  0  0  0  0  0  0  0  0
    0.9730   27.8470  -36.5450 C   0  0  0  0  0  0  0  0  0  0  0  0
   -0.1170   25.7770  -35.8200 O   0  0  0  0  0  0  0  0  0  0  0  0
    0.8620   24.9360  -36.3740 C   0  0  0  0  0  0  0  0  0  0  0  0
    1.1080   24.9460  -37.6080 O   0  0  0  0  0  0  0  0  0  0  0  0
    1.5960   24.0530  -35.5270 N   0  0  0  0  0  0  0  0  0  0  0  0
    1.8290   22.6620  -35.8810 C   0  0  0  0  0  0  0  0  0  0  0  0
    0.5540   21.8970  -35.7580 C   0  0  0  0  0  0  0  0  0  0  0  0
    0.1520   21.1850  -36.7180 O   0  0  0  0  0  0  0  0  0  0  0  0
   -0.1620   21.9490  -34.5540 O   0  0  0  0  0  0  0  0  0  0  0  0
    0.1590   21.1490  -33.4150 C   0  0  0  0  0  0  0  0  0  0  0  0
   -1.0350   20.9770  -32.5300 C   0  0  0  0  0  0  0  0  0  0  0  0
   -0.9940   21.3730  -31.3300 O   0  0  0  0  0  0  0  0  0  0  0  0
   -2.1620   20.3130  -33.0240 O   0  0  0  0  0  0  0  0  0  0  0  0
   -3.3930   20.9810  -33.2880 C   0  0  0  0  0  0  0  0  0  0  0  0
   -3.3650   22.2840  -32.7150 O   0  0  0  0  0  0  0  0  0  0  0  0
   -3.8790   22.5640  -31.4450 C   0  0  0  0  0  0  0  0  0  0  0  0
   -3.1180   22.5770  -30.4390 O   0  0  0  0  0  0  0  0  0  0  0  0
   -5.2770   22.8620  -31.2890 N   0  0  0  0  0  0  0  0  0  0  0  0
   -5.8440   24.0580  -30.9620 C   0  0  0  0  0  0  0  0  0  0  0  0
   -5.1220   25.2680  -30.5200 C   0  0  0  0  0  0  0  0  0  0  0  0
   -3.6980   25.2940  -30.4670 N   0  0  0  0  0  0  0  0  0  0  0  0
   -5.7730   26.2770  -30.1360 O   0  0  0  0  0  0  0  0  0  0  0  0
   -7.2340   23.9720  -31.0200 C   0  0  0  0  0  0  0  0  0  0  0  0
   -7.5040   22.6730  -31.3870 C   0  0  0  0  0  0  0  0  0  0  0  0
   -8.7230   22.0420  -31.6080 C   0  0  0  0  0  0  0  0  0  0  0  0
   -8.7050   20.6950  -32.0110 C   0  0  0  0  0  0  0  0  0  0  0  0
   -7.4760   20.0130  -32.1920 C   0  0  0  0  0  0  0  0  0  0  0  0
   -7.4610   18.5780  -32.6350 C   0  0  0  0  0  0  0  0  0  0  0  0
   -6.5530   18.4170  -33.6660 F   0  0  0  0  0  0  0  0  0  0  0  0
   -7.0960   17.7660  -31.5750 F   0  0  0  0  0  0  0  0  0  0  0  0
   -6.2570   20.6890  -31.9620 C   0  0  0  0  0  0  0  0  0  0  0  0
   -6.3060   22.0240  -31.5430 C   0  0  0  0  0  0  0  0  0  0  0  0
   -0.6585   27.4919  -34.0345 H   0  0  0  0  0  0  0  0  0  0  0  0
   -0.7970   28.9676  -35.0494 H   0  0  0  0  0  0  0  0  0  0  0  0
   -2.1179   27.7502  -35.0494 H   0  0  0  0  0  0  0  0  0  0  0  0
   -2.3329   27.1835  -37.0244 H   0  0  0  0  0  0  0  0  0  0  0  0
   -1.0911   28.0633  -37.9787 H   0  0  0  0  0  0  0  0  0  0  0  0
   -1.1177   26.2672  -37.9787 H   0  0  0  0  0  0  0  0  0  0  0  0
    1.5179   28.1331  -35.6333 H   0  0  0  0  0  0  0  0  0  0  0  0
    1.5894   27.1562  -37.1390 H   0  0  0  0  0  0  0  0  0  0  0  0
    0.7544   28.7466  -37.1390 H   0  0  0  0  0  0  0  0  0  0  0  0
    2.1932   22.6035  -36.9173 H   0  0  0  0  0  0  0  0  0  0  0  0
    2.5812   22.2323  -35.2031 H   0  0  0  0  0  0  0  0  0  0  0  0
    0.5013   20.1602  -33.7543 H   0  0  0  0  0  0  0  0  0  0  0  0
    0.9510   21.6541  -32.8426 H   0  0  0  0  0  0  0  0  0  0  0  0
   -3.5386   21.0628  -34.3752 H   0  0  0  0  0  0  0  0  0  0  0  0
   -4.2208   20.4068  -32.8463 H   0  0  0  0  0  0  0  0  0  0  0  0
   -3.1250   24.6620  -31.0710 H   0  0  0  0  0  0  0  0  0  0  0  0
   -7.9608   24.7721  -30.8159 H   0  0  0  0  0  0  0  0  0  0  0  0
   -9.6726   22.5801  -31.4717 H   0  0  0  0  0  0  0  0  0  0  0  0
   -9.6532   20.1660  -32.1873 H   0  0  0  0  0  0  0  0  0  0  0  0
   -8.4664   18.2991  -32.9834 H   0  0  0  0  0  0  0  0  0  0  0  0
   -5.2934   20.1792  -32.1085 H   0  0  0  0  0  0  0  0  0  0  0  0
  1  2  1  0
  2  3  1  0
  2  4  1  0
  2  5  1  0
  5  6  1  0
  6  7  2  0
  6  8  1  0
  8  9  1  0
  9 10  1  0
 10 11  2  0
 10 12  1  0
 12 13  1  0
 13 14  1  0
 14 15  2  0
 14 16  1  0
 16 17  1  0
 17 18  1  0
 18 19  1  0
 19 20  2  0
 19 21  1  0
 21 22  1  0
 22 23  1  0
 23 24  1  0
 23 25  2  0
 22 26  2  0
 26 27  1  0
 27 28  2  0
 28 29  1  0
 29 30  2  0
 30 31  1  0
 31 32  1  0
 31 33  1  0
 30 34  1  0
 34 35  2  0
 35 21  1  0
 35 27  1  0
  1 36  1  0
  1 37  1  0
  1 38  1  0
  3 39  1  0
  3 40  1  0
  3 41  1  0
  4 42  1  0
  4 43  1  0
  4 44  1  0
  9 45  1  0
  9 46  1  0
 13 47  1  0
 13 48  1  0
 17 49  1  0
 17 50  1  0
 24 51  1  0
 26 52  1  0
 28 53  1  0
 29 54  1  0
 31 55  1  0
 34 56  1  0
M  CHG  2   8  -1  24  -1
M  END
>  <UniqueID>  (92) 
91

>  <SMILES>  (92) 
CC(C)(C)OC(=O)[N-]CC(=O)OCC(=O)OCOC(=O)n1c(C([NH-])=O)cc2ccc(C(F)F)cc21

>  <Energy>  (92) 
80.31440644753786

>  <Genealogy>  (92) 
CC(C)(C)OC(=O)[N-]CC(=O)OCC(=O)OCOC(=O)n1c(C([NH-])=O)cc2ccc(C(F)F)cc21 (protonated)
CC(C)(C)OC(=O)[N-]CC(=O)OCC(=O)OCOC(=O)n1c(C([NH-])=O)cc2ccc(C(F)F)cc21 (3D coordinates assigned)
CC(C)(C)OC(=O)[N-]CC(=O)OCC(=O)OCOC(=O)n1c(C([NH-])=O)cc2ccc(C(F)F)cc21 (optimized conformer: 80.31440644753786 kcal/mol)

>  <smiles>  (92) 
CC(C)(C)OC(=O)NCC(=O)OCC(=O)OCOC(=O)n1c(C(N)=O)cc2ccc(C(F)F)cc21

>  <score_type>  (92) 
oracle

>  <origin>  (92) 
adg

>  <m_score__min__energy>  (92) 
-11.76

>  <m_primary>  (92) 
energy

$$$$
95:0
     RDKit          3D

 61 63  0  0  0  0  0  0  0  0999 V2000
   -1.7260   23.1880  -26.8300 C   0  0  0  0  0  0  0  0  0  0  0  0
   -1.7040   23.4550  -28.3470 C   0  0  2  0  0  0  0  0  0  0  0  0
   -1.0080   24.7620  -28.6540 C   0  0  0  0  0  0  0  0  0  0  0  0
   -1.5880   25.6650  -29.3160 O   0  0  0  0  0  0  0  0  0  0  0  0
    0.2920   24.9740  -28.2090 O   0  0  0  0  0  0  0  0  0  0  0  0
   -3.0660   23.3520  -28.9420 N   0  0  2  0  0  0  0  0  0  0  0  0
   -4.1310   23.3030  -27.9200 C   0  0  0  0  0  0  0  0  0  0  0  0
   -3.1940   22.3080  -29.9480 C   0  0  0  0  0  0  0  0  0  0  0  0
   -2.7720   21.1510  -29.6750 O   0  0  0  0  0  0  0  0  0  0  0  0
   -3.7970   22.5220  -31.2910 C   0  0  0  0  0  0  0  0  0  0  0  0
   -3.0880   22.5310  -32.3300 O   0  0  0  0  0  0  0  0  0  0  0  0
   -5.2150   22.7110  -31.4180 N   0  0  0  0  0  0  0  0  0  0  0  0
   -5.9570   23.7580  -30.9620 C   0  0  0  0  0  0  0  0  0  0  0  0
   -5.4230   24.9860  -30.3320 C   0  0  0  0  0  0  0  0  0  0  0  0
   -4.0600   25.3690  -30.5060 N   0  0  0  0  0  0  0  0  0  0  0  0
   -6.1870   25.7200  -29.6490 O   0  0  0  0  0  0  0  0  0  0  0  0
   -7.3110   23.5370  -31.2100 C   0  0  0  0  0  0  0  0  0  0  0  0
   -7.3740   22.3100  -31.8310 C   0  0  0  0  0  0  0  0  0  0  0  0
   -8.4730   21.5880  -32.2860 C   0  0  0  0  0  0  0  0  0  0  0  0
   -8.2400   20.3280  -32.8640 C   0  0  0  0  0  0  0  0  0  0  0  0
   -6.9230   19.8070  -32.9660 C   0  0  0  0  0  0  0  0  0  0  0  0
   -6.6930   18.5180  -33.5660 N   0  0  0  0  0  0  0  0  0  0  0  0
   -5.9370   18.3940  -34.8180 C   0  0  0  0  0  0  0  0  0  0  0  0
   -4.7490   17.4540  -34.6010 C   0  0  0  0  0  0  0  0  0  0  0  0
   -5.1500   16.2400  -33.8750 N   0  0  0  0  0  0  0  0  0  0  0  0
   -4.1540   15.2330  -33.6080 C   0  0  0  0  0  0  0  0  0  0  0  0
   -4.4810   14.1450  -33.0590 O   0  0  0  0  0  0  0  0  0  0  0  0
   -2.8180   15.4670  -33.9640 O   0  0  0  0  0  0  0  0  0  0  0  0
   -1.8870   16.1510  -33.1240 C   0  0  0  0  0  0  0  0  0  0  0  0
   -0.9780   15.1530  -32.4120 C   0  0  0  0  0  0  0  0  0  0  0  0
   -1.5930   13.8940  -32.3810 O   0  0  0  0  0  0  0  0  0  0  0  0
   -6.5600   16.0320  -33.5050 C   0  0  0  0  0  0  0  0  0  0  0  0
   -7.1400   17.3020  -32.8690 C   0  0  0  0  0  0  0  0  0  0  0  0
   -5.8340   20.5770  -32.4990 C   0  0  0  0  0  0  0  0  0  0  0  0
   -6.0950   21.8320  -31.9410 C   0  0  0  0  0  0  0  0  0  0  0  0
   -1.6474   24.1423  -26.2886 H   0  0  0  0  0  0  0  0  0  0  0  0
   -2.6683   22.6893  -26.5591 H   0  0  0  0  0  0  0  0  0  0  0  0
   -0.8781   22.5418  -26.5591 H   0  0  0  0  0  0  0  0  0  0  0  0
   -1.1101   22.6663  -28.8320 H   0  0  0  0  0  0  0  0  0  0  0  0
   -3.2380   24.2590  -29.4410 H   0  0  0  0  0  0  0  0  0  0  0  0
   -3.6785   23.3238  -26.9176 H   0  0  0  0  0  0  0  0  0  0  0  0
   -4.7952   24.1715  -28.0406 H   0  0  0  0  0  0  0  0  0  0  0  0
   -4.7126   22.3771  -28.0406 H   0  0  0  0  0  0  0  0  0  0  0  0
   -3.4820   25.6810  -29.6950 H   0  0  0  0  0  0  0  0  0  0  0  0
   -8.1512   24.2023  -30.9620 H   0  0  0  0  0  0  0  0  0  0  0  0
   -9.4927   21.9908  -32.1962 H   0  0  0  0  0  0  0  0  0  0  0  0
   -9.0883   19.7384  -33.2419 H   0  0  0  0  0  0  0  0  0  0  0  0
   -6.5904   17.9851  -35.6028 H   0  0  0  0  0  0  0  0  0  0  0  0
   -5.5714   19.3843  -35.1271 H   0  0  0  0  0  0  0  0  0  0  0  0
   -4.3373   17.1660  -35.5796 H   0  0  0  0  0  0  0  0  0  0  0  0
   -3.9947   17.9830  -34.0000 H   0  0  0  0  0  0  0  0  0  0  0  0
   -1.2729   16.8260  -33.7383 H   0  0  0  0  0  0  0  0  0  0  0  0
   -2.4437   16.7267  -32.3699 H   0  0  0  0  0  0  0  0  0  0  0  0
   -0.0219   15.0799  -32.9510 H   0  0  0  0  0  0  0  0  0  0  0  0
   -0.7960   15.4954  -31.3826 H   0  0  0  0  0  0  0  0  0  0  0  0
   -2.3400   13.9370  -33.0350 H   0  0  0  0  0  0  0  0  0  0  0  0
   -7.1381   15.7820  -34.4068 H   0  0  0  0  0  0  0  0  0  0  0  0
   -6.6198   15.2095  -32.7770 H   0  0  0  0  0  0  0  0  0  0  0  0
   -8.2380   17.2512  -32.9112 H   0  0  0  0  0  0  0  0  0  0  0  0
   -6.7851   17.3551  -31.8292 H   0  0  0  0  0  0  0  0  0  0  0  0
   -4.8042   20.1975  -32.5729 H   0  0  0  0  0  0  0  0  0  0  0  0
  1  2  1  0
  2  3  1  0
  3  4  2  0
  3  5  1  0
  2  6  1  0
  6  7  1  0
  6  8  1  0
  8  9  2  0
  8 10  1  0
 10 11  2  0
 10 12  1  0
 12 13  1  0
 13 14  1  0
 14 15  1  0
 14 16  2  0
 13 17  2  0
 17 18  1  0
 18 19  2  0
 19 20  1  0
 20 21  2  0
 21 22  1  0
 22 23  1  0
 23 24  1  0
 24 25  1  0
 25 26  1  0
 26 27  2  0
 26 28  1  0
 28 29  1  0
 29 30  1  0
 30 31  1  0
 25 32  1  0
 32 33  1  0
 21 34  1  0
 34 35  2  0
 35 12  1  0
 35 18  1  0
 33 22  1  0
  1 36  1  0
  1 37  1  0
  1 38  1  0
  2 39  1  6
  6 40  1  6
  7 41  1  0
  7 42  1  0
  7 43  1  0
 15 44  1  0
 17 45  1  0
 19 46  1  0
 20 47  1  0
 23 48  1  0
 23 49  1  0
 24 50  1  0
 24 51  1  0
 29 52  1  0
 29 53  1  0
 30 54  1  0
 30 55  1  0
 31 56  1  0
 32 57  1  0
 32 58  1  0
 33 59  1  0
 33 60  1  0
 34 61  1  0
M  CHG  3   5  -1   6   1  15  -1
M  END
>  <UniqueID>  (93) 
92

>  <SMILES>  (93) 
C[C@H](C(=O)[O-])[N@H+](C)C(=O)C(=O)n1c(C([NH-])=O)cc2ccc(N3CCN(C(=O)OCCO)CC3)cc21

>  <Energy>  (93) 
108.17086685931103

>  <Genealogy>  (93) 
CC(C(=O)[O-])[NH+](C)C(=O)C(=O)n1c(C([NH-])=O)cc2ccc(N3CCN(C(=O)OCCO)CC3)cc21 (protonated)
C[C@H](C(=O)[O-])[N@H+](C)C(=O)C(=O)n1c(C([NH-])=O)cc2ccc(N3CCN(C(=O)OCCO)CC3)cc21 (chirality)
C[C@H](C(=O)[O-])[N@H+](C)C(=O)C(=O)n1c(C([NH-])=O)cc2ccc(N3CCN(C(=O)OCCO)CC3)cc21 (3D coordinates assigned)
C[C@H](C(=O)[O-])[N@H+](C)C(=O)C(=O)n1c(C([NH-])=O)cc2ccc(N3CCN(C(=O)OCCO)CC3)cc21 (nonaromatic ring conformer: 108.17086685931103 kcal/mol)

>  <smiles>  (93) 
CC(C(=O)O)N(C)C(=O)C(=O)n1c(C(N)=O)cc2ccc(N3CCN(C(=O)OCCO)CC3)cc21

>  <score_type>  (93) 
oracle

>  <origin>  (93) 
adg

>  <m_score__min__energy>  (93) 
-11.99

>  <m_primary>  (93) 
energy

$$$$
96:0
     RDKit          3D

 45 47  0  0  0  0  0  0  0  0999 V2000
   -3.5710   25.2800  -30.4750 N   0  0  0  0  0  0  0  0  0  0  0  0
   -4.9890   25.3270  -30.5640 C   0  0  0  0  0  0  0  0  0  0  0  0
   -5.5770   26.4390  -30.4700 O   0  0  0  0  0  0  0  0  0  0  0  0
   -5.7780   24.1030  -30.8110 C   0  0  0  0  0  0  0  0  0  0  0  0
   -7.1710   24.0950  -30.8810 C   0  0  0  0  0  0  0  0  0  0  0  0
   -7.5130   22.8020  -31.2030 C   0  0  0  0  0  0  0  0  0  0  0  0
   -8.7650   22.2290  -31.4000 C   0  0  0  0  0  0  0  0  0  0  0  0
   -8.8220   20.8600  -31.7080 C   0  0  0  0  0  0  0  0  0  0  0  0
   -7.6370   20.0830  -31.7870 C   0  0  0  0  0  0  0  0  0  0  0  0
   -7.7080   18.6230  -32.1550 C   0  0  0  0  0  0  0  0  0  0  0  0
   -6.9460   17.8610  -31.2860 F   0  0  0  0  0  0  0  0  0  0  0  0
   -9.0140   18.1680  -32.0970 F   0  0  0  0  0  0  0  0  0  0  0  0
   -7.2300   18.4550  -33.4410 F   0  0  0  0  0  0  0  0  0  0  0  0
   -6.3820   20.7090  -31.6020 C   0  0  0  0  0  0  0  0  0  0  0  0
   -6.3550   22.0780  -31.3140 C   0  0  0  0  0  0  0  0  0  0  0  0
   -5.2790   22.8610  -31.0740 N   0  0  0  0  0  0  0  0  0  0  0  0
   -3.9160   22.4090  -31.0190 C   0  0  0  0  0  0  0  0  0  0  0  0
   -3.2340   22.3830  -32.0800 O   0  0  0  0  0  0  0  0  0  0  0  0
   -3.3840   21.7700  -29.7660 C   0  0  0  0  0  0  0  0  0  0  0  0
   -1.9330   22.5830  -29.0920 S   0  0  0  0  0  0  0  0  0  0  0  0
   -1.0010   21.4920  -28.6400 O   0  0  0  0  0  0  0  0  0  0  0  0
   -1.2440   23.3740  -30.1710 O   0  0  0  0  0  0  0  0  0  0  0  0
   -2.3460   23.6130  -27.7330 N   0  0  0  0  0  0  0  0  0  0  0  0
   -3.8170   23.7440  -27.6050 C   0  0  0  0  0  0  0  0  0  0  0  0
   -4.2360   24.8640  -26.6260 C   0  0  0  0  0  0  0  0  0  0  0  0
   -3.0680   25.3160  -25.7510 C   0  0  0  0  0  0  0  0  0  0  0  0
   -1.8870   25.7810  -26.6140 C   0  0  0  0  0  0  0  0  0  0  0  0
   -1.7230   24.9390  -27.8950 C   0  0  0  0  0  0  0  0  0  0  0  0
   -3.0350   24.4670  -30.8490 H   0  0  0  0  0  0  0  0  0  0  0  0
   -7.8518   24.9428  -30.7141 H   0  0  0  0  0  0  0  0  0  0  0  0
   -9.6826   22.8299  -31.3171 H   0  0  0  0  0  0  0  0  0  0  0  0
   -9.7969   20.3842  -31.8902 H   0  0  0  0  0  0  0  0  0  0  0  0
   -5.4486   20.1326  -31.6827 H   0  0  0  0  0  0  0  0  0  0  0  0
   -4.1770   21.7899  -29.0039 H   0  0  0  0  0  0  0  0  0  0  0  0
   -3.0802   20.7474  -30.0343 H   0  0  0  0  0  0  0  0  0  0  0  0
   -4.2374   23.9685  -28.5964 H   0  0  0  0  0  0  0  0  0  0  0  0
   -4.2003   22.7939  -27.2046 H   0  0  0  0  0  0  0  0  0  0  0  0
   -4.6018   25.7249  -27.2048 H   0  0  0  0  0  0  0  0  0  0  0  0
   -5.0237   24.4676  -25.9684 H   0  0  0  0  0  0  0  0  0  0  0  0
   -3.3974   26.1487  -25.1121 H   0  0  0  0  0  0  0  0  0  0  0  0
   -2.7404   24.4660  -25.1345 H   0  0  0  0  0  0  0  0  0  0  0  0
   -2.0512   26.8303  -26.9004 H   0  0  0  0  0  0  0  0  0  0  0  0
   -0.9705   25.6628  -26.0172 H   0  0  0  0  0  0  0  0  0  0  0  0
   -2.2030   25.4628  -28.7348 H   0  0  0  0  0  0  0  0  0  0  0  0
   -0.6495   24.8025  -28.0922 H   0  0  0  0  0  0  0  0  0  0  0  0
  1  2  1  0
  2  3  2  0
  2  4  1  0
  4  5  2  0
  5  6  1  0
  6  7  2  0
  7  8  1  0
  8  9  2  0
  9 10  1  0
 10 11  1  0
 10 12  1  0
 10 13  1  0
  9 14  1  0
 14 15  2  0
 15 16  1  0
 16 17  1  0
 17 18  2  0
 17 19  1  0
 19 20  1  0
 20 21  2  0
 20 22  2  0
 20 23  1  0
 23 24  1  0
 24 25  1  0
 25 26  1  0
 26 27  1  0
 27 28  1  0
 16  4  1  0
 28 23  1  0
 15  6  1  0
  1 29  1  0
  5 30  1  0
  7 31  1  0
  8 32  1  0
 14 33  1  0
 19 34  1  0
 19 35  1  0
 24 36  1  0
 24 37  1  0
 25 38  1  0
 25 39  1  0
 26 40  1  0
 26 41  1  0
 27 42  1  0
 27 43  1  0
 28 44  1  0
 28 45  1  0
M  CHG  1   1  -1
M  END
>  <UniqueID>  (94) 
93

>  <SMILES>  (94) 
[NH-]C(=O)c1cc2ccc(C(F)(F)F)cc2n1C(=O)CS(=O)(=O)N1CCCCC1

>  <Energy>  (94) 
87.67912392467888

>  <Genealogy>  (94) 
[NH-]C(=O)c1cc2ccc(C(F)(F)F)cc2n1C(=O)CS(=O)(=O)N1CCCCC1 (protonated)
[NH-]C(=O)c1cc2ccc(C(F)(F)F)cc2n1C(=O)CS(=O)(=O)N1CCCCC1 (3D coordinates assigned)
[NH-]C(=O)c1cc2ccc(C(F)(F)F)cc2n1C(=O)CS(=O)(=O)N1CCCCC1 (nonaromatic ring conformer: 87.67912392467888 kcal/mol)

>  <smiles>  (94) 
NC(=O)c1cc2ccc(C(F)(F)F)cc2n1C(=O)CS(=O)(=O)N1CCCCC1

>  <score_type>  (94) 
oracle

>  <origin>  (94) 
adg

>  <m_score__min__energy>  (94) 
-11.73

>  <m_primary>  (94) 
energy

$$$$
97:0
     RDKit          3D

 57 60  0  0  0  0  0  0  0  0999 V2000
   -3.5420   13.8250  -32.2220 C   0  0  0  0  0  0  0  0  0  0  0  0
   -2.4240   14.5100  -32.7750 O   0  0  0  0  0  0  0  0  0  0  0  0
   -2.4110   15.8940  -32.9790 C   0  0  0  0  0  0  0  0  0  0  0  0
   -1.4390   16.5850  -32.5670 O   0  0  0  0  0  0  0  0  0  0  0  0
   -3.5400   16.5420  -33.6790 C   0  0  0  0  0  0  0  0  0  0  0  0
   -3.4880   16.7970  -35.0700 C   0  0  0  0  0  0  0  0  0  0  0  0
   -4.5700   17.4180  -35.7320 C   0  0  0  0  0  0  0  0  0  0  0  0
   -5.7210   17.7990  -35.0220 C   0  0  0  0  0  0  0  0  0  0  0  0
   -5.7510   17.5400  -33.6530 C   0  0  0  0  0  0  0  0  0  0  0  0
   -4.7050   16.9350  -33.0070 C   0  0  0  0  0  0  0  0  0  0  0  0
   -4.9990   16.8200  -31.7320 O   0  0  0  0  0  0  0  0  0  0  0  0
   -6.2020   17.3450  -31.5920 C   0  0  0  0  0  0  0  0  0  0  0  0
   -6.7990   17.4160  -30.4840 O   0  0  0  0  0  0  0  0  0  0  0  0
   -6.7230   17.8020  -32.7570 N   0  0  0  0  0  0  0  0  0  0  0  0
   -7.9800   18.5260  -32.9570 C   0  0  0  0  0  0  0  0  0  0  0  0
   -7.9060   19.8760  -32.2970 C   0  0  0  0  0  0  0  0  0  0  0  0
   -9.0440   20.4000  -31.6350 C   0  0  0  0  0  0  0  0  0  0  0  0
   -8.9830   21.6410  -30.9800 C   0  0  0  0  0  0  0  0  0  0  0  0
   -7.7710   22.3240  -30.9890 C   0  0  0  0  0  0  0  0  0  0  0  0
   -7.4430   23.5490  -30.4530 C   0  0  0  0  0  0  0  0  0  0  0  0
   -6.1000   23.7380  -30.7640 C   0  0  0  0  0  0  0  0  0  0  0  0
   -5.3180   24.9070  -30.3140 C   0  0  0  0  0  0  0  0  0  0  0  0
   -4.0230   25.1810  -30.8490 N   0  0  0  0  0  0  0  0  0  0  0  0
   -5.7770   25.6430  -29.4010 O   0  0  0  0  0  0  0  0  0  0  0  0
   -5.6170   22.6820  -31.4780 N   0  0  0  0  0  0  0  0  0  0  0  0
   -4.3170   22.5540  -32.0750 C   0  0  0  0  0  0  0  0  0  0  0  0
   -4.2110   22.5120  -33.3300 O   0  0  0  0  0  0  0  0  0  0  0  0
   -3.1800   22.4840  -31.2550 O   0  0  0  0  0  0  0  0  0  0  0  0
   -2.5410   21.2850  -30.7920 C   0  0  0  0  0  0  0  0  0  0  0  0
   -1.0100   21.4540  -30.7970 C   0  0  0  0  0  0  0  0  0  0  0  0
   -2.9590   20.0780  -31.6530 C   0  0  0  0  0  0  0  0  0  0  0  0
   -3.0100   21.0490  -29.3490 C   0  0  0  0  0  0  0  0  0  0  0  0
   -6.6520   21.8200  -31.6030 C   0  0  0  0  0  0  0  0  0  0  0  0
   -6.6910   20.5980  -32.2830 C   0  0  0  0  0  0  0  0  0  0  0  0
   -3.4864   13.8591  -31.1239 H   0  0  0  0  0  0  0  0  0  0  0  0
   -4.4711   14.3090  -32.5573 H   0  0  0  0  0  0  0  0  0  0  0  0
   -3.5327   12.7774  -32.5573 H   0  0  0  0  0  0  0  0  0  0  0  0
   -2.5942   16.5081  -35.6424 H   0  0  0  0  0  0  0  0  0  0  0  0
   -4.5110   17.6053  -36.8143 H   0  0  0  0  0  0  0  0  0  0  0  0
   -6.5682   18.2844  -35.5286 H   0  0  0  0  0  0  0  0  0  0  0  0
   -8.1579   18.6565  -34.0346 H   0  0  0  0  0  0  0  0  0  0  0  0
   -8.8038   17.9500  -32.5103 H   0  0  0  0  0  0  0  0  0  0  0  0
   -9.9844   19.8293  -31.6341 H   0  0  0  0  0  0  0  0  0  0  0  0
   -9.8662   22.0599  -30.4755 H   0  0  0  0  0  0  0  0  0  0  0  0
   -8.1020   24.2324  -29.8975 H   0  0  0  0  0  0  0  0  0  0  0  0
   -3.5420   24.4990  -31.4760 H   0  0  0  0  0  0  0  0  0  0  0  0
   -3.5020   26.0350  -30.5480 H   0  0  0  0  0  0  0  0  0  0  0  0
   -0.6422   21.4946  -29.7611 H   0  0  0  0  0  0  0  0  0  0  0  0
   -0.5487   20.6013  -31.3167 H   0  0  0  0  0  0  0  0  0  0  0  0
   -0.7458   22.3868  -31.3167 H   0  0  0  0  0  0  0  0  0  0  0  0
   -3.2482   19.2429  -30.9980 H   0  0  0  0  0  0  0  0  0  0  0  0
   -3.8123   20.3585  -32.2879 H   0  0  0  0  0  0  0  0  0  0  0  0
   -2.1150   19.7707  -32.2879 H   0  0  0  0  0  0  0  0  0  0  0  0
   -2.2514   21.4307  -28.6498 H   0  0  0  0  0  0  0  0  0  0  0  0
   -3.9610   21.5759  -29.1817 H   0  0  0  0  0  0  0  0  0  0  0  0
   -3.1536   19.9713  -29.1817 H   0  0  0  0  0  0  0  0  0  0  0  0
   -5.7981   20.2087  -32.7941 H   0  0  0  0  0  0  0  0  0  0  0  0
  1  2  1  0
  2  3  1  0
  3  4  2  0
  3  5  1  0
  5  6  2  0
  6  7  1  0
  7  8  2  0
  8  9  1  0
  9 10  2  0
 10 11  1  0
 11 12  1  0
 12 13  2  0
 12 14  1  0
 14 15  1  0
 15 16  1  0
 16 17  2  0
 17 18  1  0
 18 19  2  0
 19 20  1  0
 20 21  2  0
 21 22  1  0
 22 23  1  0
 22 24  2  0
 21 25  1  0
 25 26  1  0
 26 27  2  0
 26 28  1  0
 28 29  1  0
 29 30  1  0
 29 31  1  0
 29 32  1  0
 25 33  1  0
 33 34  2  0
 10  5  1  0
 34 16  1  0
 14  9  1  0
 33 19  1  0
  1 35  1  0
  1 36  1  0
  1 37  1  0
  6 38  1  0
  7 39  1  0
  8 40  1  0
 15 41  1  0
 15 42  1  0
 17 43  1  0
 18 44  1  0
 20 45  1  0
 23 46  1  0
 23 47  1  0
 30 48  1  0
 30 49  1  0
 30 50  1  0
 31 51  1  0
 31 52  1  0
 31 53  1  0
 32 54  1  0
 32 55  1  0
 32 56  1  0
 34 57  1  0
M  END
>  <UniqueID>  (95) 
94

>  <SMILES>  (95) 
COC(=O)c1cccc2c1oc(=O)n2Cc1ccc2cc(C(N)=O)n(C(=O)OC(C)(C)C)c2c1

>  <Energy>  (95) 
131.8235985709148

>  <Genealogy>  (95) 
COC(=O)c1cccc2c1oc(=O)n2Cc1ccc2cc(C(N)=O)n(C(=O)OC(C)(C)C)c2c1 (3D coordinates assigned)
COC(=O)c1cccc2c1oc(=O)n2Cc1ccc2cc(C(N)=O)n(C(=O)OC(C)(C)C)c2c1 (optimized conformer: 131.8235985709148 kcal/mol)

>  <smiles>  (95) 
COC(=O)c1cccc2c1oc(=O)n2Cc1ccc2cc(C(N)=O)n(C(=O)OC(C)(C)C)c2c1

>  <score_type>  (95) 
oracle

>  <origin>  (95) 
adg

>  <m_score__min__energy>  (95) 
-10.02

>  <m_primary>  (95) 
energy

$$$$
